1:0:0
     RDKit          3D

 99108  0  0  1  0  0  0  0  0999 V2000
  -29.7480  -24.0400   20.5250 C   0  0  0  0  0  0  0  0  0  0  0  0
  -30.8170  -23.2890   20.8380 N   0  0  0  0  0  0  0  0  0  0  0  0
  -29.1710  -23.9450   19.4400 O   0  0  0  0  0  0  0  0  0  0  0  0
  -31.2500  -23.4690   21.7340 H   0  0  0  0  0  0  0  0  0  0  0  0
  -27.4970  -24.2640   23.3900 C   0  0  0  0  0  2  0  0  0  0  0  0
  -27.0860  -25.7190   23.6270 C   0  0  0  0  0  2  0  0  0  0  0  0
  -28.9680  -24.2080   22.9470 C   0  0  0  0  0  2  0  0  0  0  0  0
  -27.5430  -26.6450   22.4890 C   0  0  0  0  0  2  0  0  0  0  0  0
  -29.2580  -25.0030   21.6230 C   0  0  0  0  0  3  0  0  0  0  0  0
  -28.0430  -25.9010   21.2100 C   0  0  0  0  0  3  0  0  0  0  0  0
  -28.3410  -26.8140   20.1160 O   0  0  0  0  0  0  0  0  0  0  0  0
  -24.5980  -31.9200   23.0820 C   0  0  0  0  0  0  0  0  0  0  0  0
  -27.2660  -27.6310   19.8740 C   0  0  0  0  0  0  0  0  0  0  0  0
  -23.4020  -30.5470   21.4110 C   0  0  0  0  0  3  0  0  0  0  0  0
  -24.8650  -29.0990   19.9000 C   0  0  0  0  0  0  0  0  0  0  0  0
  -25.9150  -30.9640   21.1980 C   0  0  0  0  0  2  0  0  0  0  0  0
  -26.0170  -29.6300   20.4970 C   0  0  0  0  0  0  0  0  0  0  0  0
  -27.2280  -28.9110   20.4660 C   0  0  0  0  0  3  0  0  0  0  0  0
  -26.1240  -27.1260   19.2260 C   0  0  0  0  0  3  0  0  0  0  0  0
  -24.9210  -27.8610   19.2310 C   0  0  0  0  0  3  0  0  0  0  0  0
  -23.6010  -29.9260   20.0020 C   0  0  0  0  0  2  0  0  0  0  0  0
  -24.6570  -31.1590   21.9520 N   0  0  0  0  0  0  0  0  0  0  0  0
  -23.5180  -32.1520   23.6410 O   0  0  0  0  0  0  0  0  0  0  0  0
  -22.7750  -29.4870   22.3470 C   0  0  0  0  0  0  0  0  0  0  0  0
  -21.4460  -29.3200   22.2420 N   0  0  0  0  0  0  0  0  0  0  0  0
  -23.4730  -28.8220   23.1140 O   0  0  0  0  0  0  0  0  0  0  0  0
  -20.9530  -29.8930   21.5740 H   0  0  0  0  0  0  0  0  0  0  0  0
  -18.0680  -28.1790   22.8430 C   0  0  0  0  0  0  0  0  0  0  0  0
  -20.6390  -28.3530   22.9820 C   0  0  0  0  0  3  0  0  0  0  0  0
  -20.6790  -26.9640   22.3010 C   0  0  0  0  0  2  0  0  0  0  0  0
  -19.5030  -26.7380   21.3390 C   0  0  0  0  0  2  0  0  0  0  0  0
  -18.1780  -26.8610   22.0920 C   0  0  0  0  0  2  0  0  0  0  0  0
  -19.2270  -28.8870   23.2480 C   0  0  0  0  0  0  0  0  0  0  0  0
  -19.0790  -30.1180   23.9240 C   0  0  0  0  0  3  0  0  0  0  0  0
  -17.8000  -30.6460   24.1800 C   0  0  0  0  0  3  0  0  0  0  0  0
  -16.6520  -29.9370   23.7930 C   0  0  0  0  0  3  0  0  0  0  0  0
  -16.7870  -28.7030   23.1320 C   0  0  0  0  0  3  0  0  0  0  0  0
  -25.8820  -32.5490   23.7180 C   0  0  0  0  0  3  0  0  0  0  0  0
  -26.4110  -31.7440   24.9700 C   0  0  1  0  0  0  0  0  0  0  0  0
  -25.3310  -31.4640   26.0420 C   0  0  0  0  0  1  0  0  0  0  0  0
  -26.9940  -30.3790   24.5340 C   0  0  0  0  0  1  0  0  0  0  0  0
  -27.5540  -32.5310   25.6510 C   0  0  0  0  0  1  0  0  0  0  0  0
  -25.5570  -33.9350   24.0860 N   0  0  0  0  0  0  0  0  0  0  0  0
  -25.9090  -35.0120   23.3720 C   0  0  0  0  0  0  0  0  0  0  0  0
  -26.6080  -34.9420   22.3580 O   0  0  0  0  0  0  0  0  0  0  0  0
  -24.9360  -34.0600   24.8730 H   0  0  0  0  0  0  0  0  0  0  0  0
  -24.2010  -36.8230   23.0200 C   0  0  0  0  0  1  0  0  0  0  0  0
  -25.4090  -36.3840   23.8630 C   0  0  0  0  0  3  0  0  0  0  0  0
  -27.5120  -37.2260   24.8110 C   0  0  0  0  0  1  0  0  0  0  0  0
  -26.4490  -37.4350   23.8330 N   0  0  0  0  0  0  0  0  0  0  0  0
  -26.0410  -38.3520   23.9930 H   0  0  0  0  0  0  0  0  0  0  0  0
  -31.2860  -22.1220   20.0960 C   0  0  0  0  0  2  0  0  0  0  0  0
  -30.7960  -20.8060   20.7690 C   0  0  0  0  0  2  0  0  0  0  0  0
  -31.0780  -19.6260   18.6490 C   0  0  0  0  0  2  0  0  0  0  0  0
  -30.3960  -18.4090   20.5950 C   0  0  0  0  0  2  0  0  0  0  0  0
  -31.5470  -18.3300   17.9730 C   0  0  0  0  0  2  0  0  0  0  0  0
  -30.8640  -17.0730   19.9410 C   0  0  0  0  0  3  0  0  0  0  0  0
  -31.2080  -19.5510   20.1100 N   0  0  0  0  0  0  0  0  0  0  0  0
  -30.7560  -17.1920   18.4670 N   0  0  0  0  0  4  0  0  0  0  0  0
  -31.1140  -16.3640   18.0210 H   0  0  0  0  0  0  0  0  0  0  0  0
  -29.7940  -17.3150   18.1930 H   0  0  0  0  0  0  0  0  0  0  0  0
  -30.9820  -14.7100   20.6100 C   0  0  0  0  0  0  0  0  0  0  0  0
  -30.7110  -12.4700   19.6720 C   0  0  0  0  0  2  0  0  0  0  0  0
  -29.8600  -12.5680   18.3880 C   0  0  0  0  0  2  0  0  0  0  0  0
  -28.3650  -12.4440   18.7360 C   0  0  0  0  0  2  0  0  0  0  0  0
  -27.9330  -13.3950   19.8810 C   0  0  0  0  0  3  0  0  0  0  0  0
  -28.9180  -13.3280   21.0720 C   0  0  0  0  0  2  0  0  0  0  0  0
  -30.2750  -13.5540   20.5630 N   0  0  0  0  0  0  0  0  0  0  0  0
  -32.1890  -14.7450   20.3870 O   0  0  0  0  0  0  0  0  0  0  0  0
  -30.2700  -15.8510   20.5310 N   0  0  0  0  0  0  0  0  0  0  0  0
  -29.2660  -15.7860   20.6070 H   0  0  0  0  0  0  0  0  0  0  0  0
  -25.5040  -14.0060   20.4500 C   0  0  0  0  0  0  0  0  0  0  0  0
  -24.4220  -13.2380   20.7970 C   0  0  0  0  0  0  0  0  0  0  0  0
  -24.8960  -11.8900   20.8300 C   0  0  0  0  0  0  0  0  0  0  0  0
  -26.5630  -13.1270   20.3060 N   0  0  0  0  0  0  0  0  0  0  0  0
  -26.2000  -11.8530   20.5940 N   0  0  0  0  0  0  0  0  0  0  0  0
  -24.1700  -10.6270   21.0100 C   0  0  0  0  0  0  0  0  0  0  0  0
  -24.5540   -9.6920   21.9970 C   0  0  0  0  0  3  0  0  0  0  0  0
  -23.8300   -8.4900   22.1640 C   0  0  0  0  0  3  0  0  0  0  0  0
  -22.7090   -8.2210   21.3450 C   0  0  0  0  0  0  0  0  0  0  0  0
  -22.3480   -9.1400   20.3460 C   0  0  0  0  0  3  0  0  0  0  0  0
  -23.0720  -10.3330   20.1780 C   0  0  0  0  0  3  0  0  0  0  0  0
  -21.9610   -7.0690   21.4220 O   0  0  0  0  0  0  0  0  0  0  0  0
  -21.8470   -6.3630   22.5920 C   0  0  0  0  0  0  0  0  0  0  0  0
  -21.3080   -6.9400   23.7630 C   0  0  0  0  0  3  0  0  0  0  0  0
  -21.1450   -6.1570   24.9220 C   0  0  0  0  0  3  0  0  0  0  0  0
  -21.5100   -4.7970   24.9120 C   0  0  0  0  0  0  0  0  0  0  0  0
  -22.0390   -4.2210   23.7450 C   0  0  0  0  0  3  0  0  0  0  0  0
  -22.2060   -4.9990   22.5900 C   0  0  0  0  0  0  0  0  0  0  0  0
  -22.6990   -4.4330   21.4600 F   0  0  0  0  0  0  0  0  0  0  0  0
  -21.3460   -4.0420   26.0230 F   0  0  0  0  0  0  0  0  0  0  0  0
  -23.0100  -13.7080   20.9750 C   0  0  0  0  0  0  0  0  0  0  0  0
  -22.2410  -13.0260   21.8200 N   0  0  0  0  0  0  0  0  0  0  0  0
  -22.5950  -14.7190   20.4090 O   0  0  0  0  0  0  0  0  0  0  0  0
  -22.5880  -12.2080   22.2980 H   0  0  0  0  0  0  0  0  0  0  0  0
  -21.2900  -13.3230   21.9890 H   0  0  0  0  0  0  0  0  0  0  0  0
  -25.6690  -15.3650   20.2130 N   0  0  0  0  0  0  0  0  0  0  0  0
  -24.8590  -15.9670   20.1090 H   0  0  0  0  0  0  0  0  0  0  0  0
  -26.4750  -15.7120   19.7100 H   0  0  0  0  0  0  0  0  0  0  0  0
  1  2  1  0
  2  4  1  0
  3  1  2  0
  5  6  1  0
  7  5  1  0
  8  6  1  0
  9  1  1  0
  9  7  1  0
 10 11  1  0
 10  9  1  0
 10  8  1  0
 12 23  2  0
 13 11  1  0
 13 18  1  0
 14 22  1  0
 14 24  1  0
 15 21  1  0
 15 17  1  0
 16 22  1  0
 17 16  1  0
 18 17  2  0
 19 20  1  0
 19 13  2  0
 20 15  2  0
 21 14  1  0
 22 12  1  0
 24 26  2  0
 25 24  1  0
 27 25  1  0
 28 37  2  0
 28 33  1  0
 29 25  1  0
 29 33  1  0
 30 29  1  0
 31 32  1  0
 31 30  1  0
 32 28  1  0
 33 34  2  0
 34 35  1  0
 36 35  2  0
 37 36  1  0
 38 12  1  0
 38 43  1  0
 38 39  1  0
 39 42  1  1
 39 40  1  0
 41 39  1  0
 43 46  1  0
 44 48  1  0
 44 43  1  0
 45 44  2  0
 48 47  1  0
 50 48  1  0
 50 51  1  0
 50 49  1  0
 52 53  1  0
 52  2  1  0
 54 58  1  0
 56 59  1  0
 56 54  1  0
 57 70  1  0
 57 55  1  0
 58 55  1  0
 58 53  1  0
 59 57  1  0
 60 59  1  0
 61 59  1  0
 63 68  1  0
 64 65  1  0
 64 63  1  0
 66 65  1  0
 66 75  1  0
 66 67  1  0
 68 62  1  0
 68 67  1  0
 69 62  2  0
 70 71  1  0
 70 62  1  0
 72 73  2  0
 73 74  1  0
 73 92  1  0
 74 77  1  0
 75 72  1  0
 75 76  1  0
 76 74  2  0
 77 78  1  0
 78 79  2  0
 80 83  1  0
 80 79  1  0
 81 80  2  0
 82 81  1  0
 82 77  2  0
 83 84  1  0
 84 85  1  0
 85 86  2  0
 87 86  1  0
 87 91  1  0
 88 87  2  0
 89 84  2  0
 89 88  1  0
 90 89  1  0
 92 93  1  0
 93 96  1  0
 93 95  1  0
 94 92  2  0
 97 72  1  0
 98 97  1  0
 99 97  1  0
M  ISO  4  10 101  11 101  62 100  70 100
M  END
>  <TORSDO>  (1) 
F 20

>  <SCORE>  (1) 
-12.227

>  <name>  (1) 
1

>  <ligand_id>  (1) 
1

>  <original_smiles>  (1) 
[H]c1c([H])c([H])c2c(c1[H])C([H])([H])C([H])([H])C([H])([H])C2([H])N([H])C(=O)C1([H])N(C(=O)C([H])(N([H])C(=O)C([H])(N([H])C([H])([H])[H])C([H])([H])[H])C(C([H])([H])[H])(C([H])([H])[H])C([H])([H])[H])C([H])([H])c2c([H])c(OC3([H])C([H])([H])C([H])([H])C([H])([H])C([H])([H])C3([H])C(=O)N([H])C([H])([H])C([H])([H])N3C([H])([H])C([H])([H])[N+]([H])([H])C([H])(N([H])C(=O)N4C([H])([H])C([H])([H])C([H])([H])C([H])(n5nc(-c6c([H])c([H])c(Oc7c([H])c([H])c(F)c([H])c7F)c([H])c6[H])c(C(=O)N([H])[H])c5N([H])[H])C4([H])[H])C3([H])[H])c([H])c([H])c2C1([H])[H]

>  <smiles>  (1) 
[H]c1c([H])c([H])c2c(c1[H])C([H])([H])C([H])([H])C([H])([H])C2([H])N([H])C(=O)C1([H])N(C(=O)C([H])(N([H])C(=O)C([H])(N([H])C([H])([H])[H])C([H])([H])[H])C(C([H])([H])[H])(C([H])([H])[H])C([H])([H])[H])C([H])([H])c2c([H])c(OC3([H])C([H])([H])C([H])([H])C([H])([H])C([H])([H])C3([H])C(=O)N([H])C([H])([H])C([H])([H])N3C([H])([H])C([H])([H])[N+]([H])([H])C([H])(N([H])C(=O)N4C([H])([H])C([H])([H])C([H])([H])C([H])(n5nc(-c6c([H])c([H])c(Oc7c([H])c([H])c(F)c([H])c7F)c([H])c6[H])c(C(=O)N([H])[H])c5N([H])[H])C4([H])[H])C3([H])[H])c([H])c([H])c2C1([H])[H]

$$$$
2:0:0
     RDKit          3D

101109  0  0  1  0  0  0  0  0999 V2000
  -30.0520  -18.5020   20.7250 C   0  0  0  0  0  2  0  0  0  0  0  0
  -28.1250  -21.7000   19.3970 C   0  0  0  0  0  2  0  0  0  0  0  0
  -28.8030  -22.1910   21.5580 C   0  0  0  0  0  2  0  0  0  0  0  0
  -28.9180  -20.3430   19.3890 C   0  0  0  0  0  2  0  0  0  0  0  0
  -29.6540  -20.8590   21.6220 C   0  0  0  0  0  2  0  0  0  0  0  0
  -28.7530  -22.7730   20.2020 N   0  0  0  0  0  0  0  0  0  0  0  0
  -29.1510  -19.7470   20.7430 N   0  0  2  0  0  4  0  0  0  0  0  0
  -28.2550  -19.4790   21.1250 H   0  0  0  0  0  0  0  0  0  0  0  0
  -28.0020  -24.0710   20.0280 C   0  0  0  0  0  2  0  0  0  0  0  0
  -28.4730  -25.3780   20.7980 C   0  0  0  0  0  2  0  0  0  0  0  0
  -28.3850  -26.7090   20.1700 O   0  0  0  0  0  0  0  0  0  0  0  0
  -24.5090  -31.9420   23.2730 C   0  0  0  0  0  0  0  0  0  0  0  0
  -27.2130  -27.4630   20.2180 C   0  0  0  0  0  0  0  0  0  0  0  0
  -23.3340  -30.5370   21.6140 C   0  0  0  0  0  3  0  0  0  0  0  0
  -24.8160  -29.0090   20.1980 C   0  0  0  0  0  0  0  0  0  0  0  0
  -25.8650  -30.9030   21.4440 C   0  0  0  0  0  2  0  0  0  0  0  0
  -25.9700  -29.5270   20.7990 C   0  0  0  0  0  0  0  0  0  0  0  0
  -27.1730  -28.7680   20.7920 C   0  0  0  0  0  3  0  0  0  0  0  0
  -26.0380  -26.9760   19.6120 C   0  0  0  0  0  3  0  0  0  0  0  0
  -24.8510  -27.7380   19.5970 C   0  0  0  0  0  3  0  0  0  0  0  0
  -23.5650  -29.8640   20.2340 C   0  0  0  0  0  2  0  0  0  0  0  0
  -24.5880  -31.1440   22.1690 N   0  0  0  0  0  0  0  0  0  0  0  0
  -23.4190  -32.2000   23.8030 O   0  0  0  0  0  0  0  0  0  0  0  0
  -22.6780  -29.5080   22.5650 C   0  0  0  0  0  0  0  0  0  0  0  0
  -21.3550  -29.3160   22.4250 N   0  0  0  0  0  0  0  0  0  0  0  0
  -23.3600  -28.8830   23.3810 O   0  0  0  0  0  0  0  0  0  0  0  0
  -20.8660  -29.8720   21.7380 H   0  0  0  0  0  0  0  0  0  0  0  0
  -17.9840  -28.1070   22.9080 C   0  0  0  0  0  0  0  0  0  0  0  0
  -20.5410  -28.3660   23.1820 C   0  0  0  0  0  3  0  0  0  0  0  0
  -20.6460  -26.9440   22.5820 C   0  0  0  0  0  2  0  0  0  0  0  0
  -19.5450  -26.6360   21.5640 C   0  0  0  0  0  2  0  0  0  0  0  0
  -18.1620  -26.7690   22.2090 C   0  0  0  0  0  2  0  0  0  0  0  0
  -19.1010  -28.8640   23.3490 C   0  0  0  0  0  0  0  0  0  0  0  0
  -18.8790  -30.1180   23.9600 C   0  0  0  0  0  3  0  0  0  0  0  0
  -17.5740  -30.6140   24.1340 C   0  0  0  0  0  3  0  0  0  0  0  0
  -16.4710  -29.8530   23.7100 C   0  0  0  0  0  3  0  0  0  0  0  0
  -16.6760  -28.6020   23.1010 C   0  0  0  0  0  3  0  0  0  0  0  0
  -25.7800  -32.5850   23.9110 C   0  0  0  0  0  3  0  0  0  0  0  0
  -26.2690  -31.8340   25.2100 C   0  0  1  0  0  0  0  0  0  0  0  0
  -25.1470  -31.5870   26.2460 C   0  0  0  0  0  1  0  0  0  0  0  0
  -26.8870  -30.4640   24.8480 C   0  0  0  0  0  1  0  0  0  0  0  0
  -27.3850  -32.6520   25.9000 C   0  0  0  0  0  1  0  0  0  0  0  0
  -25.4640  -33.9880   24.2120 N   0  0  0  0  0  0  0  0  0  0  0  0
  -25.8190  -35.0300   23.4470 C   0  0  0  0  0  0  0  0  0  0  0  0
  -26.5150  -34.9090   22.4360 O   0  0  0  0  0  0  0  0  0  0  0  0
  -24.8500  -34.1550   24.9970 H   0  0  0  0  0  0  0  0  0  0  0  0
  -24.1070  -36.8210   23.0190 C   0  0  0  0  0  1  0  0  0  0  0  0
  -25.3230  -36.4250   23.8720 C   0  0  0  0  0  3  0  0  0  0  0  0
  -27.4360  -37.3140   24.7500 C   0  0  0  0  0  1  0  0  0  0  0  0
  -26.3600  -37.4740   23.7750 N   0  0  0  0  0  0  0  0  0  0  0  0
  -25.9530  -38.3970   23.9010 H   0  0  0  0  0  0  0  0  0  0  0  0
  -29.4040  -17.0520   20.4630 C   0  0  0  0  0  2  0  0  0  0  0  0
  -30.8250  -14.8400   20.5850 C   0  0  0  0  0  0  0  0  0  0  0  0
  -30.5730  -12.6180   19.5200 C   0  0  0  0  0  2  0  0  0  0  0  0
  -29.6700  -12.7390   18.2790 C   0  0  0  0  0  2  0  0  0  0  0  0
  -28.1810  -12.6160   18.6630 C   0  0  0  0  0  2  0  0  0  0  0  0
  -27.7880  -13.4550   19.9110 C   0  0  0  0  0  3  0  0  0  0  0  0
  -28.8290  -13.3370   21.0420 C   0  0  0  0  0  2  0  0  0  0  0  0
  -30.1290  -13.6680   20.4540 N   0  0  0  0  0  0  0  0  0  0  0  0
  -32.0550  -14.7940   20.6300 O   0  0  0  0  0  0  0  0  0  0  0  0
  -30.2950  -15.9450   19.9200 N   0  0  0  0  0  0  0  0  0  0  0  0
  -25.3710  -14.0130   20.5600 C   0  0  0  0  0  0  0  0  0  0  0  0
  -24.3030  -13.2240   20.8900 C   0  0  0  0  0  0  0  0  0  0  0  0
  -24.7890  -11.8810   20.8880 C   0  0  0  0  0  0  0  0  0  0  0  0
  -26.4360  -13.1500   20.3680 N   0  0  0  0  0  0  0  0  0  0  0  0
  -26.0910  -11.8630   20.6340 N   0  0  0  0  0  0  0  0  0  0  0  0
  -24.0750  -10.6090   21.0560 C   0  0  0  0  0  0  0  0  0  0  0  0
  -24.4790   -9.6570   22.0180 C   0  0  0  0  0  3  0  0  0  0  0  0
  -23.7650   -8.4490   22.1730 C   0  0  0  0  0  3  0  0  0  0  0  0
  -22.6320   -8.1840   21.3660 C   0  0  0  0  0  0  0  0  0  0  0  0
  -22.2500   -9.1240   20.3930 C   0  0  0  0  0  3  0  0  0  0  0  0
  -22.9650  -10.3230   20.2360 C   0  0  0  0  0  3  0  0  0  0  0  0
  -21.8920   -7.0290   21.4300 O   0  0  0  0  0  0  0  0  0  0  0  0
  -21.7770   -6.3110   22.5930 C   0  0  0  0  0  0  0  0  0  0  0  0
  -21.2640   -6.8850   23.7770 C   0  0  0  0  0  3  0  0  0  0  0  0
  -21.0990   -6.0920   24.9300 C   0  0  0  0  0  3  0  0  0  0  0  0
  -21.4380   -4.7250   24.9000 C   0  0  0  0  0  0  0  0  0  0  0  0
  -21.9440   -4.1510   23.7200 C   0  0  0  0  0  3  0  0  0  0  0  0
  -22.1100   -4.9420   22.5700 C   0  0  0  0  0  0  0  0  0  0  0  0
  -22.5790   -4.3790   21.4300 F   0  0  0  0  0  0  0  0  0  0  0  0
  -21.2730   -3.9610   26.0040 F   0  0  0  0  0  0  0  0  0  0  0  0
  -22.8890  -13.6820   21.0960 C   0  0  0  0  0  0  0  0  0  0  0  0
  -22.1450  -12.9990   21.9580 N   0  0  0  0  0  0  0  0  0  0  0  0
  -22.4500  -14.6810   20.5260 O   0  0  0  0  0  0  0  0  0  0  0  0
  -22.5120  -12.1910   22.4410 H   0  0  0  0  0  0  0  0  0  0  0  0
  -21.1930  -13.2840   22.1370 H   0  0  0  0  0  0  0  0  0  0  0  0
  -25.5220  -15.3840   20.3790 N   0  0  0  0  0  0  0  0  0  0  0  0
  -24.7420  -16.0280   20.4610 H   0  0  0  0  0  0  0  0  0  0  0  0
  -26.3880  -15.8360   20.1160 H   0  0  0  0  0  0  0  0  0  0  0  0
  -31.0910  -16.3740   18.7280 C   0  0  0  0  0  2  0  0  0  0  0  0
  -30.6150  -17.5990   17.8820 C   0  0  0  0  0  3  0  0  0  0  0  0
  -29.1380  -17.4530   17.4130 C   0  0  0  0  0  2  0  0  0  0  0  0
  -28.5370  -18.6940   16.8790 N   0  0  0  0  0  4  0  0  0  0  0  0
  -28.5310  -19.4350   17.5550 H   0  0  0  0  0  0  0  0  0  0  0  0
  -27.5800  -18.5150   16.6270 H   0  0  0  0  0  0  0  0  0  0  0  0
  -28.9980  -19.0140   16.0460 H   0  0  0  0  0  0  0  0  0  0  0  0
  -31.5510  -17.7760   16.6450 C   0  0  0  0  0  2  0  0  0  0  0  0
  -32.9510  -18.1190   16.9730 N   0  0  0  0  0  4  0  0  0  0  0  0
  -33.0170  -18.9720   17.5000 H   0  0  0  0  0  0  0  0  0  0  0  0
  -33.4630  -18.2600   16.1190 H   0  0  0  0  0  0  0  0  0  0  0  0
  -33.4110  -17.3810   17.4740 H   0  0  0  0  0  0  0  0  0  0  0  0
  1  7  1  0
  2  6  1  0
  3  5  1  0
  4  2  1  0
  4  7  1  0
  6  3  1  0
  7  8  1  1
  7  5  1  0
  9  6  1  0
  9 10  1  0
 11 13  1  0
 11 10  1  0
 12 23  2  0
 13 18  1  0
 14 22  1  0
 14 24  1  0
 15 21  1  0
 15 17  1  0
 16 22  1  0
 17 16  1  0
 18 17  2  0
 19 13  2  0
 20 19  1  0
 20 15  2  0
 21 14  1  0
 22 12  1  0
 24 26  2  0
 25 24  1  0
 27 25  1  0
 28 37  2  0
 28 33  1  0
 29 25  1  0
 29 33  1  0
 30 29  1  0
 31 32  1  0
 31 30  1  0
 32 28  1  0
 33 34  2  0
 34 35  1  0
 36 35  2  0
 37 36  1  0
 38 12  1  0
 38 43  1  0
 38 39  1  0
 39 42  1  1
 39 40  1  0
 41 39  1  0
 43 46  1  0
 44 48  1  0
 44 43  1  0
 45 44  2  0
 48 47  1  0
 50 48  1  0
 50 51  1  0
 50 49  1  0
 52  1  1  0
 53 60  2  0
 54 59  1  0
 55 56  1  0
 55 54  1  0
 57 56  1  0
 57 65  1  0
 57 58  1  0
 59 53  1  0
 59 58  1  0
 61 52  1  0
 61 53  1  0
 62 63  2  0
 63 82  1  0
 64 63  1  0
 64 67  1  0
 65 62  1  0
 65 66  1  0
 66 64  2  0
 67 68  1  0
 68 69  2  0
 70 73  1  0
 70 69  1  0
 71 70  2  0
 72 71  1  0
 72 67  2  0
 73 74  1  0
 74 75  1  0
 75 76  2  0
 77 76  1  0
 77 81  1  0
 78 77  2  0
 79 74  2  0
 79 78  1  0
 80 79  1  0
 82 83  1  0
 83 86  1  0
 83 85  1  0
 84 82  2  0
 87 88  1  0
 87 62  1  0
 89 87  1  0
 90 61  1  0
 91 90  1  0
 92 91  1  0
 93 92  1  0
 93 94  1  0
 95 93  1  0
 96 93  1  0
 97 98  1  0
 97 91  1  0
 98101  1  0
 98 99  1  0
100 98  1  0
M  ISO  4  10 101  11 101  53 100  61 100
M  END
>  <TORSDO>  (2) 
F 26

>  <SCORE>  (2) 
-11.997

>  <name>  (2) 
2

>  <ligand_id>  (2) 
2

>  <original_smiles>  (2) 
[H]c1c([H])c([H])c2c(c1[H])C([H])([H])C([H])([H])C([H])([H])C2([H])N([H])C(=O)C1([H])N(C(=O)C([H])(N([H])C(=O)C([H])(N([H])C([H])([H])[H])C([H])([H])[H])C(C([H])([H])[H])(C([H])([H])[H])C([H])([H])[H])C([H])([H])c2c([H])c(OC([H])([H])C([H])([H])N3C([H])([H])C([H])([H])[N+]([H])(C([H])([H])C([H])([H])N(C(=O)N4C([H])([H])C([H])([H])C([H])([H])C([H])(n5nc(-c6c([H])c([H])c(Oc7c([H])c([H])c(F)c([H])c7F)c([H])c6[H])c(C(=O)N([H])[H])c5N([H])[H])C4([H])[H])C([H])([H])C([H])(C([H])([H])[N+]([H])([H])[H])C([H])([H])[N+]([H])([H])[H])C([H])([H])C3([H])[H])c([H])c([H])c2C1([H])[H]

>  <smiles>  (2) 
[H]c1c([H])c([H])c2c(c1[H])C([H])([H])C([H])([H])C([H])([H])C2([H])N([H])C(=O)C1([H])N(C(=O)C([H])(N([H])C(=O)C([H])(N([H])C([H])([H])[H])C([H])([H])[H])C(C([H])([H])[H])(C([H])([H])[H])C([H])([H])[H])C([H])([H])c2c([H])c(OC([H])([H])C([H])([H])N3C([H])([H])C([H])([H])[N+]([H])(C([H])([H])C([H])([H])N(C(=O)N4C([H])([H])C([H])([H])C([H])([H])C([H])(n5nc(-c6c([H])c([H])c(Oc7c([H])c([H])c(F)c([H])c7F)c([H])c6[H])c(C(=O)N([H])[H])c5N([H])[H])C4([H])[H])C([H])([H])C([H])(C([H])([H])[N+]([H])([H])[H])C([H])([H])[N+]([H])([H])[H])C([H])([H])C3([H])[H])c([H])c([H])c2C1([H])[H]

$$$$
3:0:0
     RDKit          3D

 98106  0  0  1  0  0  0  0  0999 V2000
  -30.0860  -21.8250   19.6960 N   0  0  0  0  0  0  0  0  0  0  0  0
  -29.8420  -20.3740   19.1530 C   0  0  0  0  0  2  0  0  0  0  0  0
  -31.2700  -14.7830   19.0350 C   0  0  0  0  0  0  0  0  0  0  0  0
  -30.9100  -12.4780   18.0110 C   0  0  0  0  0  2  0  0  0  0  0  0
  -29.6850  -12.4770   17.0620 C   0  0  0  0  0  2  0  0  0  0  0  0
  -28.3590  -12.2860   17.8280 C   0  0  0  0  0  2  0  0  0  0  0  0
  -28.3020  -13.1460   19.1190 C   0  0  0  0  0  3  0  0  0  0  0  0
  -29.6090  -12.9650   19.9250 C   0  0  0  0  0  2  0  0  0  0  0  0
  -30.6790  -13.5080   19.0710 N   0  0  0  0  0  0  0  0  0  0  0  0
  -32.3400  -14.8510   18.4140 O   0  0  0  0  0  0  0  0  0  0  0  0
  -30.1150  -17.9300   22.0700 C   0  0  0  0  0  3  0  0  0  0  0  0
  -30.4580  -16.5080   21.7860 C   0  0  0  0  0  2  0  0  0  0  0  0
  -29.6740  -16.0990   20.5480 C   0  0  0  0  0  2  0  0  0  0  0  0
  -30.6840  -17.4860   18.8560 C   0  0  0  0  0  2  0  0  0  0  0  0
  -30.5970  -18.9700   19.7090 C   0  0  0  0  0  3  0  0  0  0  0  0
  -30.5750  -16.0000   19.4060 N   0  0  0  0  0  0  0  0  0  0  0  0
  -30.1940  -18.9060   21.1350 N   0  0  0  0  0  0  0  0  0  0  0  0
  -29.6810  -18.2340   23.3050 N   0  0  0  0  0  0  0  0  0  0  0  0
  -29.9950  -19.8440   21.4550 H   0  0  0  0  0  0  0  0  0  0  0  0
  -29.4280  -19.1680   23.5940 H   0  0  0  0  0  0  0  0  0  0  0  0
  -29.5590  -17.5110   24.0050 H   0  0  0  0  0  0  0  0  0  0  0  0
  -26.2410  -13.7840   20.5060 C   0  0  0  0  0  0  0  0  0  0  0  0
  -25.2380  -13.0330   21.0520 C   0  0  0  0  0  0  0  0  0  0  0  0
  -25.5480  -11.6730   20.7410 C   0  0  0  0  0  0  0  0  0  0  0  0
  -27.1060  -12.8810   19.9070 N   0  0  0  0  0  0  0  0  0  0  0  0
  -26.7090  -11.5990   20.1010 N   0  0  0  0  0  0  0  0  0  0  0  0
  -24.7780  -10.4430   20.9590 C   0  0  0  0  0  0  0  0  0  0  0  0
  -25.1260   -9.5250   21.9750 C   0  0  0  0  0  3  0  0  0  0  0  0
  -24.3550   -8.3610   22.1810 C   0  0  0  0  0  3  0  0  0  0  0  0
  -23.2210   -8.1080   21.3720 C   0  0  0  0  0  0  0  0  0  0  0  0
  -22.8920   -9.0150   20.3470 C   0  0  0  0  0  3  0  0  0  0  0  0
  -23.6640  -10.1700   20.1390 C   0  0  0  0  0  3  0  0  0  0  0  0
  -22.4290   -6.9920   21.4840 O   0  0  0  0  0  0  0  0  0  0  0  0
  -22.0350   -6.5090   22.7060 C   0  0  0  0  0  0  0  0  0  0  0  0
  -21.2970   -7.2980   23.6170 C   0  0  0  0  0  3  0  0  0  0  0  0
  -20.8500   -6.7390   24.8310 C   0  0  0  0  0  3  0  0  0  0  0  0
  -21.1350   -5.3940   25.1320 C   0  0  0  0  0  0  0  0  0  0  0  0
  -21.8640   -4.6060   24.2250 C   0  0  0  0  0  3  0  0  0  0  0  0
  -22.3110   -5.1620   23.0130 C   0  0  0  0  0  0  0  0  0  0  0  0
  -22.9960   -4.3930   22.1330 F   0  0  0  0  0  0  0  0  0  0  0  0
  -20.6980   -4.8530   26.2940 F   0  0  0  0  0  0  0  0  0  0  0  0
  -24.0060  -13.5520   21.7350 C   0  0  0  0  0  0  0  0  0  0  0  0
  -23.4380  -12.7780   22.6540 N   0  0  0  0  0  0  0  0  0  0  0  0
  -23.5660  -14.6740   21.4890 O   0  0  0  0  0  0  0  0  0  0  0  0
  -23.8050  -11.8630   22.8680 H   0  0  0  0  0  0  0  0  0  0  0  0
  -22.6210  -13.1090   23.1480 H   0  0  0  0  0  0  0  0  0  0  0  0
  -26.4760  -15.1550   20.4450 N   0  0  0  0  0  0  0  0  0  0  0  0
  -25.8120  -15.8280   20.8120 H   0  0  0  0  0  0  0  0  0  0  0  0
  -27.2130  -15.5880   19.9050 H   0  0  0  0  0  0  0  0  0  0  0  0
  -31.4510  -22.2810   19.4170 C   0  0  0  0  0  2  0  0  0  0  0  0
  -32.2000  -22.7590   20.6800 C   0  0  0  0  0  2  0  0  0  0  0  0
  -33.6020  -23.0910   20.3740 N   0  0  0  0  0  4  0  0  0  0  0  0
  -34.0560  -22.3150   19.9300 H   0  0  0  0  0  0  0  0  0  0  0  0
  -34.0970  -23.3020   21.2230 H   0  0  0  0  0  0  0  0  0  0  0  0
  -33.6610  -23.8900   19.7710 H   0  0  0  0  0  0  0  0  0  0  0  0
  -29.0850  -22.9740   20.0970 C   0  0  0  0  0  2  0  0  0  0  0  0
  -28.9180  -24.5140   19.4170 C   0  0  0  0  0  2  0  0  0  0  0  0
  -28.6900  -25.8940   20.1050 O   0  0  0  0  0  0  0  0  0  0  0  0
  -24.8360  -31.4650   22.9350 C   0  0  0  0  0  0  0  0  0  0  0  0
  -27.5840  -26.8090   19.9650 C   0  0  0  0  0  0  0  0  0  0  0  0
  -23.6990  -30.0340   21.2770 C   0  0  0  0  0  3  0  0  0  0  0  0
  -25.2100  -28.4860   19.8850 C   0  0  0  0  0  0  0  0  0  0  0  0
  -26.2480  -30.3600   21.1580 C   0  0  0  0  0  2  0  0  0  0  0  0
  -26.3640  -28.9700   20.5120 C   0  0  0  0  0  0  0  0  0  0  0  0
  -27.5470  -28.1440   20.5380 C   0  0  0  0  0  3  0  0  0  0  0  0
  -26.4020  -26.4170   19.3010 C   0  0  0  0  0  3  0  0  0  0  0  0
  -25.2400  -27.2240   19.2670 C   0  0  0  0  0  3  0  0  0  0  0  0
  -23.9610  -29.3530   19.9060 C   0  0  0  0  0  2  0  0  0  0  0  0
  -24.9470  -30.6420   21.8470 N   0  0  0  0  0  0  0  0  0  0  0  0
  -23.7350  -31.7280   23.4420 O   0  0  0  0  0  0  0  0  0  0  0  0
  -23.0250  -29.0190   22.2330 C   0  0  0  0  0  0  0  0  0  0  0  0
  -21.6970  -28.8540   22.1110 N   0  0  0  0  0  0  0  0  0  0  0  0
  -23.6990  -28.3810   23.0450 O   0  0  0  0  0  0  0  0  0  0  0  0
  -21.2100  -29.4150   21.4260 H   0  0  0  0  0  0  0  0  0  0  0  0
  -18.3050  -27.7060   22.6650 C   0  0  0  0  0  0  0  0  0  0  0  0
  -20.8750  -27.9100   22.8740 C   0  0  0  0  0  3  0  0  0  0  0  0
  -20.9340  -26.4940   22.2510 C   0  0  0  0  0  2  0  0  0  0  0  0
  -19.8010  -26.2260   21.2570 C   0  0  0  0  0  2  0  0  0  0  0  0
  -18.4390  -26.3760   21.9400 C   0  0  0  0  0  2  0  0  0  0  0  0
  -19.4510  -28.4340   23.0890 C   0  0  0  0  0  0  0  0  0  0  0  0
  -19.2690  -29.6790   23.7280 C   0  0  0  0  0  3  0  0  0  0  0  0
  -17.9790  -30.1980   23.9450 C   0  0  0  0  0  3  0  0  0  0  0  0
  -16.8500  -29.4650   23.5360 C   0  0  0  0  0  3  0  0  0  0  0  0
  -17.0150  -28.2210   22.9020 C   0  0  0  0  0  3  0  0  0  0  0  0
  -26.0890  -32.1300   23.5860 C   0  0  0  0  0  3  0  0  0  0  0  0
  -26.6560  -31.3170   24.8160 C   0  0  1  0  0  0  0  0  0  0  0  0
  -25.5800  -30.9410   25.8620 C   0  0  0  0  0  1  0  0  0  0  0  0
  -27.3290  -30.0070   24.3440 C   0  0  0  0  0  1  0  0  0  0  0  0
  -27.7530  -32.1420   25.5300 C   0  0  0  0  0  1  0  0  0  0  0  0
  -25.7090  -33.4890   24.0030 N   0  0  0  0  0  0  0  0  0  0  0  0
  -25.9860  -34.6040   23.3150 C   0  0  0  0  0  0  0  0  0  0  0  0
  -26.6550  -34.5990   22.2760 O   0  0  0  0  0  0  0  0  0  0  0  0
  -25.1100  -33.5650   24.8120 H   0  0  0  0  0  0  0  0  0  0  0  0
  -24.1870  -36.3460   23.0630 C   0  0  0  0  0  1  0  0  0  0  0  0
  -25.4360  -35.9360   23.8610 C   0  0  0  0  0  3  0  0  0  0  0  0
  -27.5140  -36.8550   24.7920 C   0  0  0  0  0  1  0  0  0  0  0  0
  -26.4260  -37.0360   23.8360 N   0  0  0  0  0  0  0  0  0  0  0  0
  -25.9790  -37.9280   24.0310 H   0  0  0  0  0  0  0  0  0  0  0  0
  1 56  1  0
  2  1  1  0
  3  9  1  0
  3 16  1  0
  4  9  1  0
  5  6  1  0
  5  4  1  0
  7  6  1  0
  7 25  1  0
  7  8  1  0
  9  8  1  0
 10  3  2  0
 11 18  1  0
 12 11  1  0
 13 12  1  0
 14 16  1  0
 14 15  1  0
 15  2  1  0
 15 17  1  0
 16 13  1  0
 17 19  1  0
 17 11  1  0
 18 20  1  0
 18 21  1  0
 22 23  2  0
 23 42  1  0
 24 27  1  0
 24 23  1  0
 25 26  1  0
 25 22  1  0
 26 24  2  0
 27 28  1  0
 28 29  2  0
 30 33  1  0
 30 29  1  0
 31 30  2  0
 32 31  1  0
 32 27  2  0
 33 34  1  0
 34 39  2  0
 34 35  1  0
 35 36  2  0
 36 37  1  0
 37 41  1  0
 38 37  2  0
 39 38  1  0
 40 39  1  0
 42 43  1  0
 43 45  1  0
 43 46  1  0
 44 42  2  0
 47 22  1  0
 47 48  1  0
 49 47  1  0
 50  1  1  0
 50 51  1  0
 52 51  1  0
 52 54  1  0
 53 52  1  0
 55 52  1  0
 57 56  1  0
 57 58  1  0
 59 70  2  0
 60 58  1  0
 60 65  1  0
 61 69  1  0
 61 71  1  0
 62 68  1  0
 62 64  1  0
 63 69  1  0
 64 65  2  0
 64 63  1  0
 66 60  2  0
 67 66  1  0
 67 62  2  0
 68 61  1  0
 69 59  1  0
 71 73  2  0
 72 71  1  0
 74 72  1  0
 75 84  2  0
 75 80  1  0
 76 72  1  0
 76 80  1  0
 77 76  1  0
 78 79  1  0
 78 77  1  0
 79 75  1  0
 80 81  2  0
 81 82  1  0
 83 82  2  0
 84 83  1  0
 85 59  1  0
 85 90  1  0
 85 86  1  0
 86 89  1  1
 86 87  1  0
 88 86  1  0
 90 93  1  0
 91 95  1  0
 91 90  1  0
 92 91  2  0
 95 94  1  0
 97 95  1  0
 97 98  1  0
 97 96  1  0
M  ISO  4   3 100  16 100  57 101  58 101
M  END
>  <TORSDO>  (3) 
F 22

>  <SCORE>  (3) 
-7.710

>  <name>  (3) 
3

>  <ligand_id>  (3) 
3

>  <original_smiles>  (3) 
[H]c1c([H])c([H])c2c(c1[H])C([H])([H])C([H])([H])C([H])([H])C2([H])N([H])C(=O)C1([H])N(C(=O)C([H])(N([H])C(=O)C([H])(N([H])C([H])([H])[H])C([H])([H])[H])C(C([H])([H])[H])(C([H])([H])[H])C([H])([H])[H])C([H])([H])c2c([H])c(OC([H])([H])C([H])([H])N(C([H])([H])C3([H])[N+]([H])=C(N([H])[H])C([H])([H])C([H])([H])N(C(=O)N4C([H])([H])C([H])([H])C([H])([H])C([H])(n5nc(-c6c([H])c([H])c(Oc7c([H])c([H])c(F)c([H])c7F)c([H])c6[H])c(C(=O)N([H])[H])c5N([H])[H])C4([H])[H])C3([H])[H])C([H])([H])C([H])([H])[N+]([H])([H])[H])c([H])c([H])c2C1([H])[H]

>  <smiles>  (3) 
[H]c1c([H])c([H])c2c(c1[H])C([H])([H])C([H])([H])C([H])([H])C2([H])N([H])C(=O)C1([H])N(C(=O)C([H])(N([H])C(=O)C([H])(N([H])C([H])([H])[H])C([H])([H])[H])C(C([H])([H])[H])(C([H])([H])[H])C([H])([H])[H])C([H])([H])c2c([H])c(OC([H])([H])C([H])([H])N(C([H])([H])C3([H])[N+]([H])=C(N([H])[H])C([H])([H])C([H])([H])N(C(=O)N4C([H])([H])C([H])([H])C([H])([H])C([H])(n5nc(-c6c([H])c([H])c(Oc7c([H])c([H])c(F)c([H])c7F)c([H])c6[H])c(C(=O)N([H])[H])c5N([H])[H])C4([H])[H])C3([H])[H])C([H])([H])C([H])([H])[N+]([H])([H])[H])c([H])c([H])c2C1([H])[H]

$$$$
4:0:0
     RDKit          3D

104113  0  0  1  0  0  0  0  0999 V2000
  -31.6230  -20.6350   18.7720 C   0  0  0  0  0  2  0  0  0  0  0  0
  -29.4230  -20.2190   19.9830 C   0  0  0  0  0  2  0  0  0  0  0  0
  -30.8880  -21.7130   17.9480 C   0  0  0  0  0  2  0  0  0  0  0  0
  -29.4870  -21.7600   20.0230 C   0  0  0  0  0  2  0  0  0  0  0  0
  -30.6550  -19.5430   19.3150 C   0  0  0  0  0  3  0  0  0  0  0  0
  -29.7620  -22.3500   18.6880 N   0  0  2  0  0  4  0  0  0  0  0  0
  -30.0530  -23.3020   18.8810 H   0  0  0  0  0  0  0  0  0  0  0  0
  -28.5570  -22.5970   17.8530 C   0  0  0  0  0  2  0  0  0  0  0  0
  -28.6930  -23.9530   17.1440 C   0  0  0  0  0  2  0  0  0  0  0  0
  -28.9030  -26.2040   17.8320 C   0  0  0  0  0  0  0  0  0  0  0  0
  -29.0180  -24.9550   18.1390 N   0  0  0  0  0  2  0  0  0  0  0  0
  -28.5210  -26.7400   16.6190 N   0  0  0  0  0  4  0  0  0  0  0  0
  -28.4250  -27.7320   16.4410 H   0  0  0  0  0  0  0  0  0  0  0  0
  -28.2820  -26.2080   15.7920 H   0  0  0  0  0  0  0  0  0  0  0  0
  -29.1830  -27.2360   18.9160 C   0  0  0  0  0  2  0  0  0  0  0  0
  -28.4080  -26.9650   20.0830 O   0  0  0  0  0  0  0  0  0  0  0  0
  -24.5640  -32.0060   23.2750 C   0  0  0  0  0  0  0  0  0  0  0  0
  -27.2230  -27.6460   20.1360 C   0  0  0  0  0  0  0  0  0  0  0  0
  -23.3460  -30.5870   21.6520 C   0  0  0  0  0  3  0  0  0  0  0  0
  -24.7970  -29.0690   20.2070 C   0  0  0  0  0  0  0  0  0  0  0  0
  -25.8580  -30.9910   21.4100 C   0  0  0  0  0  2  0  0  0  0  0  0
  -25.9520  -29.6240   20.7720 C   0  0  0  0  0  0  0  0  0  0  0  0
  -27.1670  -28.9140   20.7450 C   0  0  0  0  0  3  0  0  0  0  0  0
  -26.0570  -27.0820   19.5820 C   0  0  0  0  0  3  0  0  0  0  0  0
  -24.8400  -27.7920   19.6150 C   0  0  0  0  0  3  0  0  0  0  0  0
  -23.5390  -29.9030   20.2710 C   0  0  0  0  0  2  0  0  0  0  0  0
  -24.6070  -31.2100   22.1700 N   0  0  0  0  0  0  0  0  0  0  0  0
  -23.4910  -32.2650   23.8370 O   0  0  0  0  0  0  0  0  0  0  0  0
  -22.7270  -29.5580   22.6240 C   0  0  0  0  0  0  0  0  0  0  0  0
  -21.4080  -29.3400   22.5010 N   0  0  0  0  0  0  0  0  0  0  0  0
  -23.4280  -28.9580   23.4420 O   0  0  0  0  0  0  0  0  0  0  0  0
  -20.9020  -29.8780   21.8130 H   0  0  0  0  0  0  0  0  0  0  0  0
  -18.0740  -28.0420   22.9840 C   0  0  0  0  0  0  0  0  0  0  0  0
  -20.6180  -28.3870   23.2770 C   0  0  0  0  0  3  0  0  0  0  0  0
  -20.7740  -26.9500   22.7270 C   0  0  0  0  0  2  0  0  0  0  0  0
  -19.6940  -26.5750   21.7070 C   0  0  0  0  0  2  0  0  0  0  0  0
  -18.3020  -26.6870   22.3350 C   0  0  0  0  0  2  0  0  0  0  0  0
  -19.1620  -28.8480   23.4130 C   0  0  0  0  0  0  0  0  0  0  0  0
  -18.8970  -30.1130   23.9770 C   0  0  0  0  0  3  0  0  0  0  0  0
  -17.5740  -30.5770   24.1170 C   0  0  0  0  0  3  0  0  0  0  0  0
  -16.5010  -29.7690   23.7060 C   0  0  0  0  0  3  0  0  0  0  0  0
  -16.7500  -28.5030   23.1470 C   0  0  0  0  0  3  0  0  0  0  0  0
  -25.8550  -32.6500   23.8720 C   0  0  0  0  0  3  0  0  0  0  0  0
  -25.5420  -34.0470   24.1990 N   0  0  0  0  0  0  0  0  0  0  0  0
  -25.8680  -35.0970   23.4330 C   0  0  0  0  0  0  0  0  0  0  0  0
  -26.5360  -34.9910   22.3990 O   0  0  0  0  0  0  0  0  0  0  0  0
  -24.9480  -34.2040   24.9990 H   0  0  0  0  0  0  0  0  0  0  0  0
  -24.1320  -36.8780   23.0700 C   0  0  0  0  0  1  0  0  0  0  0  0
  -25.3740  -36.4840   23.8860 C   0  0  0  0  0  3  0  0  0  0  0  0
  -27.5040  -37.3770   24.7170 C   0  0  0  0  0  1  0  0  0  0  0  0
  -26.4030  -37.5400   23.7710 N   0  0  0  0  0  0  0  0  0  0  0  0
  -25.9930  -38.4590   23.9170 H   0  0  0  0  0  0  0  0  0  0  0  0
  -26.4030  -31.8870   25.1400 C   0  0  1  0  0  0  0  0  0  0  0  0
  -25.3310  -31.6410   26.2260 C   0  0  0  0  0  1  0  0  0  0  0  0
  -26.9940  -30.5150   24.7390 C   0  0  0  0  0  1  0  0  0  0  0  0
  -27.5580  -32.6930   25.7800 C   0  0  0  0  0  1  0  0  0  0  0  0
  -31.3050  -18.3990   20.2050 C   0  0  0  0  0  3  0  0  0  0  0  0
  -30.9300  -14.8570   21.0700 C   0  0  0  0  0  0  0  0  0  0  0  0
  -30.7420  -12.5730   20.1850 C   0  0  0  0  0  2  0  0  0  0  0  0
  -29.9360  -12.5510   18.8720 C   0  0  0  0  0  2  0  0  0  0  0  0
  -28.4340  -12.3660   19.1700 C   0  0  0  0  0  2  0  0  0  0  0  0
  -27.9130  -13.3340   20.2620 C   0  0  0  0  0  3  0  0  0  0  0  0
  -28.8680  -13.3980   21.4840 C   0  0  0  0  0  2  0  0  0  0  0  0
  -30.2120  -13.7010   20.9690 N   0  0  0  0  0  0  0  0  0  0  0  0
  -32.1490  -14.8080   21.1930 O   0  0  0  0  0  0  0  0  0  0  0  0
  -29.0430  -16.4600   20.3400 C   0  0  0  0  0  2  0  0  0  0  0  0
  -28.6190  -16.6810   18.8490 C   0  0  0  0  0  2  0  0  0  0  0  0
  -31.0510  -16.6540   18.1550 C   0  0  0  0  0  2  0  0  0  0  0  0
  -31.3140  -16.9050   19.6660 C   0  0  0  0  0  3  0  0  0  0  0  0
  -30.4320  -15.9780   20.4430 N   0  0  0  0  0  0  0  0  0  0  0  0
  -29.6440  -16.3040   17.8410 N   0  0  0  0  0  4  0  0  0  0  0  0
  -29.4010  -16.7080   16.9480 H   0  0  0  0  0  0  0  0  0  0  0  0
  -29.6060  -15.3090   17.7030 H   0  0  0  0  0  0  0  0  0  0  0  0
  -25.4650  -13.9680   20.7340 C   0  0  0  0  0  0  0  0  0  0  0  0
  -24.3670  -13.1970   21.0050 C   0  0  0  0  0  0  0  0  0  0  0  0
  -24.8400  -11.8510   21.0610 C   0  0  0  0  0  0  0  0  0  0  0  0
  -26.5310  -13.0830   20.6390 N   0  0  0  0  0  0  0  0  0  0  0  0
  -26.1540  -11.8110   20.8990 N   0  0  0  0  0  0  0  0  0  0  0  0
  -24.1110  -10.5890   21.1990 C   0  0  0  0  0  0  0  0  0  0  0  0
  -24.4620   -9.6480   22.1900 C   0  0  0  0  0  3  0  0  0  0  0  0
  -23.7390   -8.4430   22.3150 C   0  0  0  0  0  3  0  0  0  0  0  0
  -22.6550   -8.1730   21.4450 C   0  0  0  0  0  0  0  0  0  0  0  0
  -22.3290   -9.1050   20.4430 C   0  0  0  0  0  3  0  0  0  0  0  0
  -23.0520  -10.3020   20.3170 C   0  0  0  0  0  3  0  0  0  0  0  0
  -21.9100   -7.0210   21.4770 O   0  0  0  0  0  0  0  0  0  0  0  0
  -21.7530   -6.2980   22.6330 C   0  0  0  0  0  0  0  0  0  0  0  0
  -21.1880   -6.8670   23.7950 C   0  0  0  0  0  3  0  0  0  0  0  0
  -20.9810   -6.0720   24.9400 C   0  0  0  0  0  3  0  0  0  0  0  0
  -21.3280   -4.7070   24.9220 C   0  0  0  0  0  0  0  0  0  0  0  0
  -21.8850   -4.1370   23.7640 C   0  0  0  0  0  3  0  0  0  0  0  0
  -22.0950   -4.9310   22.6220 C   0  0  0  0  0  0  0  0  0  0  0  0
  -22.6140   -4.3700   21.5030 F   0  0  0  0  0  0  0  0  0  0  0  0
  -21.1200   -3.9410   26.0200 F   0  0  0  0  0  0  0  0  0  0  0  0
  -22.9450  -13.6690   21.1020 C   0  0  0  0  0  0  0  0  0  0  0  0
  -22.1290  -12.9890   21.9040 N   0  0  0  0  0  0  0  0  0  0  0  0
  -22.5620  -14.6700   20.5030 O   0  0  0  0  0  0  0  0  0  0  0  0
  -22.4470  -12.1750   22.4100 H   0  0  0  0  0  0  0  0  0  0  0  0
  -21.1700  -13.2880   22.0130 H   0  0  0  0  0  0  0  0  0  0  0  0
  -25.6320  -15.3350   20.5360 N   0  0  0  0  0  0  0  0  0  0  0  0
  -24.8380  -15.9680   20.5240 H   0  0  0  0  0  0  0  0  0  0  0  0
  -26.5060  -15.8030   20.3610 H   0  0  0  0  0  0  0  0  0  0  0  0
  -33.0510  -19.0260   21.5700 N   0  0  0  0  0  2  0  0  0  0  0  0
  -32.7410  -18.7540   20.3970 N   0  0  0  0  0  2  0  0  0  0  0  0
  -34.0550  -19.2950   21.6330 H   0  0  0  0  0  0  0  0  0  0  0  0
  1  5  1  0
  2  4  1  0
  3  6  1  0
  3  1  1  0
  5  2  1  0
  5 57  1  0
  6  7  1  1
  6  4  1  0
  8  6  1  0
  9  8  1  0
  9 11  1  0
 10 11  1  0
 10 15  1  0
 12 10  2  0
 13 12  1  0
 14 12  1  0
 15 16  1  0
 16 18  1  0
 17 28  2  0
 18 23  1  0
 19 27  1  0
 19 29  1  0
 20 26  1  0
 20 22  1  0
 21 27  1  0
 22 21  1  0
 23 22  2  0
 24 25  1  0
 24 18  2  0
 25 20  2  0
 26 19  1  0
 27 17  1  0
 29 31  2  0
 30 29  1  0
 32 30  1  0
 33 42  2  0
 33 38  1  0
 34 30  1  0
 34 38  1  0
 35 34  1  0
 36 37  1  0
 36 35  1  0
 37 33  1  0
 38 39  2  0
 39 40  1  0
 41 40  2  0
 42 41  1  0
 43 17  1  0
 43 44  1  0
 43 53  1  0
 44 47  1  0
 45 49  1  0
 45 44  1  0
 46 45  2  0
 49 48  1  0
 51 49  1  0
 51 52  1  0
 51 50  1  0
 53 56  1  1
 53 54  1  0
 55 53  1  0
 57103  1  0
 58 65  2  0
 59 64  1  0
 60 61  1  0
 60 59  1  0
 62 61  1  0
 62 77  1  0
 62 63  1  0
 64 58  1  0
 64 63  1  0
 66 70  1  0
 67 66  1  0
 68 69  1  0
 69 57  1  0
 69 70  1  0
 70 58  1  0
 71 68  1  0
 71 67  1  0
 72 71  1  0
 73 71  1  0
 74 75  2  0
 75 76  1  0
 75 94  1  0
 76 79  1  0
 77 74  1  0
 77 78  1  0
 78 76  2  0
 79 80  1  0
 80 81  2  0
 82 85  1  0
 82 81  1  0
 83 82  2  0
 84 83  1  0
 84 79  2  0
 85 86  1  0
 86 87  1  0
 87 88  2  0
 89 88  1  0
 89 93  1  0
 90 89  2  0
 91 86  2  0
 91 90  1  0
 92 91  1  0
 94 95  1  0
 95 98  1  0
 95 97  1  0
 96 94  2  0
 99 74  1  0
100 99  1  0
101 99  1  0
102104  1  0
103102  1  0
M  ISO  4  15 101  16 101  58 100  70 100
M  END
>  <TORSDO>  (4) 
F 22

>  <SCORE>  (4) 
-12.208

>  <name>  (4) 
4

>  <ligand_id>  (4) 
4

>  <original_smiles>  (4) 
[H]N=NC([H])(C1([H])N(C(=O)N2C([H])([H])C([H])([H])C([H])([H])C([H])(n3nc(-c4c([H])c([H])c(Oc5c([H])c([H])c(F)c([H])c5F)c([H])c4[H])c(C(=O)N([H])[H])c3N([H])[H])C2([H])[H])C([H])([H])C([H])([H])[N+]([H])([H])C1([H])[H])C1([H])C([H])([H])C([H])([H])[N+]([H])(C([H])([H])C([H])([H])N=C(N([H])[H])C([H])([H])Oc2c([H])c([H])c3c(c2[H])C([H])([H])N(C(=O)C([H])(N([H])C(=O)C([H])(N([H])C([H])([H])[H])C([H])([H])[H])C(C([H])([H])[H])(C([H])([H])[H])C([H])([H])[H])C([H])(C(=O)N([H])C2([H])c4c([H])c([H])c([H])c([H])c4C([H])([H])C([H])([H])C2([H])[H])C3([H])[H])C([H])([H])C1([H])[H]

>  <smiles>  (4) 
[H]N=NC([H])(C1([H])N(C(=O)N2C([H])([H])C([H])([H])C([H])([H])C([H])(n3nc(-c4c([H])c([H])c(Oc5c([H])c([H])c(F)c([H])c5F)c([H])c4[H])c(C(=O)N([H])[H])c3N([H])[H])C2([H])[H])C([H])([H])C([H])([H])[N+]([H])([H])C1([H])[H])C1([H])C([H])([H])C([H])([H])[N+]([H])(C([H])([H])C([H])([H])N=C(N([H])[H])C([H])([H])Oc2c([H])c([H])c3c(c2[H])C([H])([H])N(C(=O)C([H])(N([H])C(=O)C([H])(N([H])C([H])([H])[H])C([H])([H])[H])C(C([H])([H])[H])(C([H])([H])[H])C([H])([H])[H])C([H])(C(=O)N([H])C2([H])c4c([H])c([H])c([H])c([H])c4C([H])([H])C([H])([H])C2([H])[H])C3([H])[H])C([H])([H])C1([H])[H]

$$$$
5:0:0
     RDKit          3D

106114  0  0  1  0  0  0  0  0999 V2000
  -30.4310  -21.2310   22.5140 C   0  0  0  0  0  0  0  0  0  0  0  0
  -28.6910  -21.1760   20.7490 C   0  0  0  0  0  2  0  0  0  0  0  0
  -28.0970  -22.4810   21.3150 C   0  0  0  0  0  2  0  0  0  0  0  0
  -30.4500  -23.1190   24.1420 C   0  0  0  0  0  1  0  0  0  0  0  0
  -31.6020  -20.8450   22.8670 N   0  0  0  0  0  0  0  0  0  0  0  0
  -29.5890  -20.4820   21.6840 N   0  0  0  0  0  0  0  0  0  0  0  0
  -29.9310  -22.4590   22.9470 N   0  0  0  0  0  0  0  0  0  0  0  0
  -29.1440  -23.2950   21.9770 N   0  0  1  0  0  4  0  0  0  0  0  0
  -31.8510  -19.9550   22.4600 H   0  0  0  0  0  0  0  0  0  0  0  0
  -28.6580  -23.9860   22.5280 H   0  0  0  0  0  0  0  0  0  0  0  0
  -29.9880  -19.1530   21.1930 C   0  0  0  0  0  2  0  0  0  0  0  0
  -30.7180  -18.2500   22.2210 C   0  0  0  0  0  2  0  0  0  0  0  0
  -30.6660  -15.8080   22.6100 C   0  0  0  0  0  1  0  0  0  0  0  0
  -31.0280  -16.8950   21.6660 N   0  0  2  0  0  4  0  0  0  0  0  0
  -30.4210  -16.7710   20.8700 H   0  0  0  0  0  0  0  0  0  0  0  0
  -32.4320  -16.7690   21.1680 C   0  0  0  0  0  2  0  0  0  0  0  0
  -32.8160  -15.3550   20.6450 C   0  0  0  0  0  2  0  0  0  0  0  0
  -32.7680  -13.7380   18.8370 C   0  0  0  0  0  0  0  0  0  0  0  0
  -32.1120  -11.3640   18.6850 C   0  0  0  0  0  2  0  0  0  0  0  0
  -31.0260  -11.1410   17.6140 C   0  0  0  0  0  2  0  0  0  0  0  0
  -29.6210  -11.3640   18.2050 C   0  0  0  0  0  2  0  0  0  0  0  0
  -29.5110  -12.7020   18.9780 C   0  0  0  0  0  3  0  0  0  0  0  0
  -30.6820  -12.8550   19.9680 C   0  0  0  0  0  2  0  0  0  0  0  0
  -31.9550  -12.7200   19.2300 N   0  0  0  0  0  0  0  0  0  0  0  0
  -33.7100  -13.5840   18.0500 O   0  0  0  0  0  0  0  0  0  0  0  0
  -32.4070  -14.9710   19.2650 N   0  0  0  0  0  0  0  0  0  0  0  0
  -27.6080  -13.9590   20.1770 C   0  0  0  0  0  0  0  0  0  0  0  0
  -26.3940  -13.5410   20.6460 C   0  0  0  0  0  0  0  0  0  0  0  0
  -26.3270  -12.1400   20.3780 C   0  0  0  0  0  0  0  0  0  0  0  0
  -28.2250  -12.8300   19.6580 N   0  0  0  0  0  0  0  0  0  0  0  0
  -27.4620  -11.7210   19.8350 N   0  0  0  0  0  0  0  0  0  0  0  0
  -25.2260  -11.1820   20.5530 C   0  0  0  0  0  0  0  0  0  0  0  0
  -25.3990   -9.9810   21.2750 C   0  0  0  0  0  3  0  0  0  0  0  0
  -24.3210   -9.0870   21.4450 C   0  0  0  0  0  3  0  0  0  0  0  0
  -23.0530   -9.3910   20.8930 C   0  0  0  0  0  0  0  0  0  0  0  0
  -22.8940  -10.5760   20.1550 C   0  0  0  0  0  3  0  0  0  0  0  0
  -23.9700  -11.4620   19.9820 C   0  0  0  0  0  3  0  0  0  0  0  0
  -21.9560   -8.5700   20.9840 O   0  0  0  0  0  0  0  0  0  0  0  0
  -21.7580   -7.7500   22.0660 C   0  0  0  0  0  0  0  0  0  0  0  0
  -21.7280   -8.2520   23.3860 C   0  0  0  0  0  3  0  0  0  0  0  0
  -21.4520   -7.3860   24.4620 C   0  0  0  0  0  3  0  0  0  0  0  0
  -21.1980   -6.0220   24.2230 C   0  0  0  0  0  0  0  0  0  0  0  0
  -21.2240   -5.5210   22.9100 C   0  0  0  0  0  3  0  0  0  0  0  0
  -21.4980   -6.3840   21.8330 C   0  0  0  0  0  0  0  0  0  0  0  0
  -21.4990   -5.9010   20.5680 F   0  0  0  0  0  0  0  0  0  0  0  0
  -20.9260   -5.1910   25.2550 F   0  0  0  0  0  0  0  0  0  0  0  0
  -25.3100  -14.4080   21.2230 C   0  0  0  0  0  0  0  0  0  0  0  0
  -24.5150  -13.8670   22.1400 N   0  0  0  0  0  0  0  0  0  0  0  0
  -25.1920  -15.5870   20.8920 O   0  0  0  0  0  0  0  0  0  0  0  0
  -24.6250  -12.9060   22.4260 H   0  0  0  0  0  0  0  0  0  0  0  0
  -23.7890  -14.4260   22.5650 H   0  0  0  0  0  0  0  0  0  0  0  0
  -28.2360  -15.2020   20.1320 N   0  0  0  0  0  0  0  0  0  0  0  0
  -27.7670  -16.0500   20.4290 H   0  0  0  0  0  0  0  0  0  0  0  0
  -29.1110  -15.3790   19.6580 H   0  0  0  0  0  0  0  0  0  0  0  0
  -32.0660  -16.0490   18.3120 C   0  0  0  0  0  2  0  0  0  0  0  0
  -31.8980  -15.6870   16.8170 C   0  0  0  0  0  2  0  0  0  0  0  0
  -31.3380  -16.8680   15.9990 C   0  0  0  0  0  2  0  0  0  0  0  0
  -31.4090  -16.6630   14.4720 C   0  0  0  0  0  2  0  0  0  0  0  0
  -32.7910  -16.7090   13.9620 N   0  0  0  0  0  4  0  0  0  0  0  0
  -33.2490  -17.5560   14.2480 H   0  0  0  0  0  0  0  0  0  0  0  0
  -32.7860  -16.6840   12.9570 H   0  0  0  0  0  0  0  0  0  0  0  0
  -33.3270  -15.9230   14.2860 H   0  0  0  0  0  0  0  0  0  0  0  0
  -30.0420  -24.0340   21.0450 C   0  0  0  0  0  2  0  0  0  0  0  0
  -29.4230  -25.2720   20.3540 C   0  0  0  0  0  2  0  0  0  0  0  0
  -29.6700  -26.6130   21.0790 C   0  0  0  0  0  2  0  0  0  0  0  0
  -29.4070  -27.7050   20.2080 O   0  0  0  0  0  0  0  0  0  0  0  0
  -24.9580  -32.0040   23.7410 C   0  0  0  0  0  0  0  0  0  0  0  0
  -28.1680  -28.2810   20.3050 C   0  0  0  0  0  0  0  0  0  0  0  0
  -23.9810  -30.7640   21.8340 C   0  0  0  0  0  3  0  0  0  0  0  0
  -25.6520  -29.5530   20.3350 C   0  0  0  0  0  0  0  0  0  0  0  0
  -26.4700  -31.3420   21.8770 C   0  0  0  0  0  2  0  0  0  0  0  0
  -26.7160  -30.0830   21.0770 C   0  0  0  0  0  0  0  0  0  0  0  0
  -27.9790  -29.4520   21.0640 C   0  0  0  0  0  3  0  0  0  0  0  0
  -27.0940  -27.7530   19.5610 C   0  0  0  0  0  3  0  0  0  0  0  0
  -25.8320  -28.3810   19.5770 C   0  0  0  0  0  3  0  0  0  0  0  0
  -24.3370  -30.3010   20.3960 C   0  0  0  0  0  2  0  0  0  0  0  0
  -25.1490  -31.3770   22.5460 N   0  0  0  0  0  0  0  0  0  0  0  0
  -23.8260  -32.1120   24.2330 O   0  0  0  0  0  0  0  0  0  0  0  0
  -23.3590  -29.5710   22.5940 C   0  0  0  0  0  0  0  0  0  0  0  0
  -22.0590  -29.3290   22.3620 N   0  0  0  0  0  0  0  0  0  0  0  0
  -24.0460  -28.8740   23.3460 O   0  0  0  0  0  0  0  0  0  0  0  0
  -21.5700  -29.9500   21.7350 H   0  0  0  0  0  0  0  0  0  0  0  0
  -18.7470  -27.8880   22.5000 C   0  0  0  0  0  0  0  0  0  0  0  0
  -21.2700  -28.2380   22.9340 C   0  0  0  0  0  3  0  0  0  0  0  0
  -21.4840  -26.9220   22.1510 C   0  0  0  0  0  2  0  0  0  0  0  0
  -20.4470  -26.7030   21.0470 C   0  0  0  0  0  2  0  0  0  0  0  0
  -19.0330  -26.6720   21.6350 C   0  0  0  0  0  2  0  0  0  0  0  0
  -19.7980  -28.6340   23.0970 C   0  0  0  0  0  0  0  0  0  0  0  0
  -19.4800  -29.7760   23.8630 C   0  0  0  0  0  3  0  0  0  0  0  0
  -18.1410  -30.1740   24.0370 C   0  0  0  0  0  3  0  0  0  0  0  0
  -17.1040  -29.4240   23.4560 C   0  0  0  0  0  3  0  0  0  0  0  0
  -17.4060  -28.2820   22.6950 C   0  0  0  0  0  3  0  0  0  0  0  0
  -26.1440  -32.6350   24.5350 C   0  0  0  0  0  3  0  0  0  0  0  0
  -26.5180  -31.8310   25.8400 C   0  0  1  0  0  0  0  0  0  0  0  0
  -25.3070  -31.5110   26.7470 C   0  0  0  0  0  1  0  0  0  0  0  0
  -27.2040  -30.4940   25.4780 C   0  0  0  0  0  1  0  0  0  0  0  0
  -27.5430  -32.6370   26.6740 C   0  0  0  0  0  1  0  0  0  0  0  0
  -25.7660  -34.0150   24.8640 N   0  0  0  0  0  0  0  0  0  0  0  0
  -26.1820  -35.0980   24.1950 C   0  0  0  0  0  0  0  0  0  0  0  0
  -26.9920  -35.0400   23.2660 O   0  0  0  0  0  0  0  0  0  0  0  0
  -25.0620  -34.1330   25.5780 H   0  0  0  0  0  0  0  0  0  0  0  0
  -24.4870  -36.8770   23.6630 C   0  0  0  0  0  1  0  0  0  0  0  0
  -25.6120  -36.4630   24.6250 C   0  0  0  0  0  3  0  0  0  0  0  0
  -27.6040  -37.3360   25.7610 C   0  0  0  0  0  1  0  0  0  0  0  0
  -26.6300  -37.5330   24.6910 N   0  0  0  0  0  0  0  0  0  0  0  0
  -26.1900  -38.4400   24.8290 H   0  0  0  0  0  0  0  0  0  0  0  0
  1  5  2  0
  1  7  1  0
  2  3  1  0
  2  6  1  0
  3  8  1  0
  6  1  1  0
  7  4  1  0
  8 10  1  1
  8  7  1  0
  9  5  1  0
 11  6  1  0
 11 12  1  0
 14 12  1  0
 14 13  1  0
 14 15  1  6
 16 14  1  0
 17 16  1  0
 18 24  1  0
 18 26  1  0
 19 24  1  0
 20 21  1  0
 20 19  1  0
 22 21  1  0
 22 30  1  0
 22 23  1  0
 24 23  1  0
 25 18  2  0
 26 17  1  0
 27 28  2  0
 28 47  1  0
 29 32  1  0
 29 28  1  0
 30 31  1  0
 30 27  1  0
 31 29  2  0
 32 33  1  0
 33 34  2  0
 35 38  1  0
 35 34  1  0
 36 35  2  0
 37 36  1  0
 37 32  2  0
 38 39  1  0
 39 40  1  0
 40 41  2  0
 42 41  1  0
 42 46  1  0
 43 42  2  0
 44 39  2  0
 44 43  1  0
 45 44  1  0
 47 48  1  0
 48 50  1  0
 48 51  1  0
 49 47  2  0
 52 27  1  0
 52 53  1  0
 54 52  1  0
 55 26  1  0
 56 55  1  0
 57 56  1  0
 58 57  1  0
 59 60  1  0
 59 62  1  0
 59 58  1  0
 61 59  1  0
 63  8  1  0
 64 63  1  0
 64 65  1  0
 66 68  1  0
 66 65  1  0
 67 78  2  0
 68 73  1  0
 69 77  1  0
 69 79  1  0
 70 76  1  0
 70 72  1  0
 71 77  1  0
 72 71  1  0
 73 72  2  0
 74 75  1  0
 74 68  2  0
 75 70  2  0
 76 69  1  0
 77 67  1  0
 79 81  2  0
 80 79  1  0
 82 80  1  0
 83 92  2  0
 83 88  1  0
 84 80  1  0
 84 88  1  0
 85 84  1  0
 86 87  1  0
 86 85  1  0
 87 83  1  0
 88 89  2  0
 89 90  1  0
 91 90  2  0
 92 91  1  0
 93 67  1  0
 93 98  1  0
 93 94  1  0
 94 97  1  1
 94 95  1  0
 96 94  1  0
 98101  1  0
 99103  1  0
 99 98  1  0
100 99  2  0
103102  1  0
103105  1  0
105106  1  0
105104  1  0
M  ISO  4  18 100  26 100  65 101  66 101
M  END
>  <TORSDO>  (5) 
F 29

>  <SCORE>  (5) 
-5.325

>  <name>  (5) 
5

>  <ligand_id>  (5) 
5

>  <original_smiles>  (5) 
[H]N=C1N(C([H])([H])C([H])([H])[N+]([H])(C([H])([H])[H])C([H])([H])C([H])([H])N(C(=O)N2C([H])([H])C([H])([H])C([H])([H])C([H])(n3nc(-c4c([H])c([H])c(Oc5c([H])c([H])c(F)c([H])c5F)c([H])c4[H])c(C(=O)N([H])[H])c3N([H])[H])C2([H])[H])C([H])([H])C([H])([H])C([H])([H])C([H])([H])[N+]([H])([H])[H])C([H])([H])C([H])([H])[N+]([H])(C([H])([H])C([H])([H])C([H])([H])Oc2c([H])c([H])c3c(c2[H])C([H])([H])N(C(=O)C([H])(N([H])C(=O)C([H])(N([H])C([H])([H])[H])C([H])([H])[H])C(C([H])([H])[H])(C([H])([H])[H])C([H])([H])[H])C([H])(C(=O)N([H])C2([H])c4c([H])c([H])c([H])c([H])c4C([H])([H])C([H])([H])C2([H])[H])C3([H])[H])N1C([H])([H])[H]

>  <smiles>  (5) 
[H]N=C1N(C([H])([H])C([H])([H])[N+]([H])(C([H])([H])[H])C([H])([H])C([H])([H])N(C(=O)N2C([H])([H])C([H])([H])C([H])([H])C([H])(n3nc(-c4c([H])c([H])c(Oc5c([H])c([H])c(F)c([H])c5F)c([H])c4[H])c(C(=O)N([H])[H])c3N([H])[H])C2([H])[H])C([H])([H])C([H])([H])C([H])([H])C([H])([H])[N+]([H])([H])[H])C([H])([H])C([H])([H])[N+]([H])(C([H])([H])C([H])([H])C([H])([H])Oc2c([H])c([H])c3c(c2[H])C([H])([H])N(C(=O)C([H])(N([H])C(=O)C([H])(N([H])C([H])([H])[H])C([H])([H])[H])C(C([H])([H])[H])(C([H])([H])[H])C([H])([H])[H])C([H])(C(=O)N([H])C2([H])c4c([H])c([H])c([H])c([H])c4C([H])([H])C([H])([H])C2([H])[H])C3([H])[H])N1C([H])([H])[H]

$$$$
6:0:0
     RDKit          3D

102110  0  0  1  0  0  0  0  0999 V2000
  -27.4490  -18.6850   19.7530 C   0  0  0  0  0  3  0  0  0  0  0  0
  -27.8250  -22.3580   20.7540 C   0  0  0  0  0  2  0  0  0  0  0  0
  -27.6790  -22.2430   18.3700 C   0  0  0  0  0  2  0  0  0  0  0  0
  -28.1110  -20.8450   20.8070 C   0  0  0  0  0  2  0  0  0  0  0  0
  -27.9480  -20.7330   18.4220 C   0  0  0  0  0  2  0  0  0  0  0  0
  -28.2860  -22.9690   19.4980 N   0  0  0  0  0  0  0  0  0  0  0  0
  -27.4620  -20.1580   19.6850 N   0  0  0  0  0  0  0  0  0  0  0  0
  -27.8750  -24.3670   19.4200 C   0  0  0  0  0  2  0  0  0  0  0  0
  -28.4080  -25.3250   20.5050 C   0  0  0  0  0  2  0  0  0  0  0  0
  -28.4520  -26.6980   20.0940 O   0  0  0  0  0  0  0  0  0  0  0  0
  -24.5970  -31.8230   23.1820 C   0  0  0  0  0  0  0  0  0  0  0  0
  -27.2690  -27.4030   20.1100 C   0  0  0  0  0  0  0  0  0  0  0  0
  -23.4070  -30.4290   21.5240 C   0  0  0  0  0  3  0  0  0  0  0  0
  -24.8740  -28.9050   20.1130 C   0  0  0  0  0  0  0  0  0  0  0  0
  -25.9350  -30.7880   21.3600 C   0  0  0  0  0  2  0  0  0  0  0  0
  -26.0260  -29.4200   20.7230 C   0  0  0  0  0  0  0  0  0  0  0  0
  -27.2240  -28.6710   20.7310 C   0  0  0  0  0  3  0  0  0  0  0  0
  -26.1080  -26.9330   19.4560 C   0  0  0  0  0  3  0  0  0  0  0  0
  -24.9070  -27.6560   19.4840 C   0  0  0  0  0  3  0  0  0  0  0  0
  -23.6300  -29.7610   20.1440 C   0  0  0  0  0  2  0  0  0  0  0  0
  -24.6630  -31.0280   22.0780 N   0  0  0  0  0  0  0  0  0  0  0  0
  -23.5110  -32.0930   23.7090 O   0  0  0  0  0  0  0  0  0  0  0  0
  -22.7510  -29.3990   22.4700 C   0  0  0  0  0  0  0  0  0  0  0  0
  -21.4240  -29.2390   22.3490 N   0  0  0  0  0  0  0  0  0  0  0  0
  -23.4330  -28.7470   23.2660 O   0  0  0  0  0  0  0  0  0  0  0  0
  -20.9350  -29.8150   21.6770 H   0  0  0  0  0  0  0  0  0  0  0  0
  -18.0290  -28.1220   22.8780 C   0  0  0  0  0  0  0  0  0  0  0  0
  -20.5970  -28.3040   23.1130 C   0  0  0  0  0  3  0  0  0  0  0  0
  -20.6510  -26.8850   22.5030 C   0  0  0  0  0  2  0  0  0  0  0  0
  -19.5250  -26.6140   21.5010 C   0  0  0  0  0  2  0  0  0  0  0  0
  -18.1570  -26.7840   22.1700 C   0  0  0  0  0  2  0  0  0  0  0  0
  -19.1750  -28.8440   23.3050 C   0  0  0  0  0  0  0  0  0  0  0  0
  -19.0010  -30.1010   23.9230 C   0  0  0  0  0  3  0  0  0  0  0  0
  -17.7150  -30.6350   24.1200 C   0  0  0  0  0  3  0  0  0  0  0  0
  -16.5830  -29.9100   23.7100 C   0  0  0  0  0  3  0  0  0  0  0  0
  -16.7410  -28.6550   23.0940 C   0  0  0  0  0  3  0  0  0  0  0  0
  -25.8780  -32.4530   23.8110 C   0  0  0  0  0  3  0  0  0  0  0  0
  -25.5720  -33.8540   24.1240 N   0  0  0  0  0  0  0  0  0  0  0  0
  -25.9150  -34.8960   23.3580 C   0  0  0  0  0  0  0  0  0  0  0  0
  -26.5980  -34.7810   22.3360 O   0  0  0  0  0  0  0  0  0  0  0  0
  -24.9770  -34.0180   24.9240 H   0  0  0  0  0  0  0  0  0  0  0  0
  -24.1970  -36.6870   22.9550 C   0  0  0  0  0  1  0  0  0  0  0  0
  -25.4230  -36.2900   23.7920 C   0  0  0  0  0  3  0  0  0  0  0  0
  -27.5440  -37.1810   24.6490 C   0  0  0  0  0  1  0  0  0  0  0  0
  -26.4600  -37.3400   23.6840 N   0  0  0  0  0  0  0  0  0  0  0  0
  -26.0530  -38.2630   23.8140 H   0  0  0  0  0  0  0  0  0  0  0  0
  -26.3770  -31.6880   25.0990 C   0  0  1  0  0  0  0  0  0  0  0  0
  -25.2700  -31.4620   26.1540 C   0  0  0  0  0  1  0  0  0  0  0  0
  -26.9620  -30.3060   24.7220 C   0  0  0  0  0  1  0  0  0  0  0  0
  -27.5200  -32.4830   25.7730 C   0  0  0  0  0  1  0  0  0  0  0  0
  -26.3070  -18.0830   18.8950 C   0  0  0  0  0  2  0  0  0  0  0  0
  -25.0150  -17.9040   19.7260 C   0  0  0  0  0  2  0  0  0  0  0  0
  -24.0280  -16.8600   19.1710 C   0  0  0  0  0  2  0  0  0  0  0  0
  -23.0140  -16.3940   20.2420 C   0  0  0  0  0  2  0  0  0  0  0  0
  -22.3420  -15.1330   19.8830 N   0  0  0  0  0  4  0  0  0  0  0  0
  -21.9130  -15.1850   18.9780 H   0  0  0  0  0  0  0  0  0  0  0  0
  -21.6320  -14.9220   20.5620 H   0  0  0  0  0  0  0  0  0  0  0  0
  -23.0190  -14.3760   19.8940 H   0  0  0  0  0  0  0  0  0  0  0  0
  -28.8240  -17.9940   19.5090 C   0  0  0  0  0  2  0  0  0  0  0  0
  -29.5430  -17.8190   20.7870 N   0  0  0  0  0  4  0  0  0  0  0  0
  -29.4910  -18.6860   21.2980 H   0  0  0  0  0  0  0  0  0  0  0  0
  -29.0660  -17.1180   21.3310 H   0  0  0  0  0  0  0  0  0  0  0  0
  -30.9640  -17.4330   20.6950 C   0  0  0  0  0  2  0  0  0  0  0  0
  -31.3040  -16.3590   21.7480 C   0  0  0  0  0  2  0  0  0  0  0  0
  -31.0610  -14.2920   20.4130 C   0  0  0  0  0  0  0  0  0  0  0  0
  -30.5960  -12.2730   19.0890 C   0  0  0  0  0  2  0  0  0  0  0  0
  -29.5200  -12.5470   18.0230 C   0  0  0  0  0  2  0  0  0  0  0  0
  -28.1080  -12.3410   18.6070 C   0  0  0  0  0  2  0  0  0  0  0  0
  -27.9050  -13.0820   19.9560 C   0  0  0  0  0  3  0  0  0  0  0  0
  -29.0830  -12.8050   20.9210 C   0  0  0  0  0  2  0  0  0  0  0  0
  -30.3430  -13.1550   20.2370 N   0  0  0  0  0  0  0  0  0  0  0  0
  -31.9980  -14.6270   19.6830 O   0  0  0  0  0  0  0  0  0  0  0  0
  -30.6830  -15.0700   21.4360 N   0  0  0  0  0  0  0  0  0  0  0  0
  -29.9730  -14.7070   22.0530 H   0  0  0  0  0  0  0  0  0  0  0  0
  -25.6530  -13.5670   21.1050 C   0  0  0  0  0  0  0  0  0  0  0  0
  -24.6150  -12.7570   21.4700 C   0  0  0  0  0  0  0  0  0  0  0  0
  -25.0170  -11.4290   21.1320 C   0  0  0  0  0  0  0  0  0  0  0  0
  -26.6210  -12.7360   20.5630 N   0  0  0  0  0  0  0  0  0  0  0  0
  -26.2500  -11.4330   20.6390 N   0  0  0  0  0  0  0  0  0  0  0  0
  -24.2810  -10.1620   21.2000 C   0  0  0  0  0  0  0  0  0  0  0  0
  -24.7450   -9.0810   21.9830 C   0  0  0  0  0  3  0  0  0  0  0  0
  -24.0110   -7.8770   22.0450 C   0  0  0  0  0  3  0  0  0  0  0  0
  -22.8000   -7.7460   21.3250 C   0  0  0  0  0  0  0  0  0  0  0  0
  -22.3560   -8.8160   20.5290 C   0  0  0  0  0  3  0  0  0  0  0  0
  -23.0900  -10.0130   20.4630 C   0  0  0  0  0  3  0  0  0  0  0  0
  -22.0340   -6.6050   21.3050 O   0  0  0  0  0  0  0  0  0  0  0  0
  -21.9210   -5.7940   22.4060 C   0  0  0  0  0  0  0  0  0  0  0  0
  -21.4350   -6.2770   23.6400 C   0  0  0  0  0  3  0  0  0  0  0  0
  -21.2700   -5.3950   24.7270 C   0  0  0  0  0  3  0  0  0  0  0  0
  -21.5800   -4.0290   24.5780 C   0  0  0  0  0  0  0  0  0  0  0  0
  -22.0580   -3.5450   23.3480 C   0  0  0  0  0  3  0  0  0  0  0  0
  -22.2260   -4.4260   22.2640 C   0  0  0  0  0  0  0  0  0  0  0  0
  -22.6670   -3.9490   21.0750 F   0  0  0  0  0  0  0  0  0  0  0  0
  -21.4140   -3.1800   25.6180 F   0  0  0  0  0  0  0  0  0  0  0  0
  -23.2850  -13.1950   22.0170 C   0  0  0  0  0  0  0  0  0  0  0  0
  -22.6450  -12.3520   22.8160 N   0  0  0  0  0  0  0  0  0  0  0  0
  -22.8260  -14.3130   21.7680 O   0  0  0  0  0  0  0  0  0  0  0  0
  -23.0310  -11.4460   23.0380 H   0  0  0  0  0  0  0  0  0  0  0  0
  -21.7540  -12.6130   23.2150 H   0  0  0  0  0  0  0  0  0  0  0  0
  -25.8580  -14.9380   21.1810 N   0  0  0  0  0  0  0  0  0  0  0  0
  -25.1660  -15.5680   21.5700 H   0  0  0  0  0  0  0  0  0  0  0  0
  -26.6800  -15.3980   20.8240 H   0  0  0  0  0  0  0  0  0  0  0  0
  1 51  1  0
  2  4  1  0
  3  5  1  0
  3  6  1  0
  5  7  1  0
  6  2  1  0
  7  1  1  0
  7  4  1  0
  8  6  1  0
  8  9  1  0
 10 12  1  0
 10  9  1  0
 11 22  2  0
 12 17  1  0
 13 21  1  0
 13 23  1  0
 14 20  1  0
 14 16  1  0
 15 21  1  0
 16 17  2  0
 16 15  1  0
 18 19  1  0
 18 12  2  0
 19 14  2  0
 20 13  1  0
 21 11  1  0
 23 25  2  0
 24 23  1  0
 26 24  1  0
 27 36  2  0
 27 32  1  0
 28 24  1  0
 28 32  1  0
 29 28  1  0
 30 31  1  0
 30 29  1  0
 31 27  1  0
 32 33  2  0
 33 34  1  0
 35 34  2  0
 36 35  1  0
 37 11  1  0
 37 38  1  0
 37 47  1  0
 38 41  1  0
 39 43  1  0
 39 38  1  0
 40 39  2  0
 43 42  1  0
 45 43  1  0
 45 46  1  0
 45 44  1  0
 47 50  1  1
 47 48  1  0
 49 47  1  0
 51 52  1  0
 53 52  1  0
 53 54  1  0
 55 58  1  0
 55 54  1  0
 55 57  1  0
 56 55  1  0
 59  1  1  0
 59 60  1  0
 60 61  1  0
 60 62  1  0
 63 60  1  0
 63 64  1  0
 65 73  1  0
 66 71  1  0
 67 68  1  0
 67 66  1  0
 69 68  1  0
 69 78  1  0
 69 70  1  0
 71 65  1  0
 71 70  1  0
 72 65  2  0
 73 64  1  0
 73 74  1  0
 75100  1  0
 75 76  2  0
 76 95  1  0
 77 80  1  0
 77 76  1  0
 78 79  1  0
 78 75  1  0
 79 77  2  0
 80 81  1  0
 81 82  2  0
 83 82  1  0
 84 83  2  0
 85 84  1  0
 85 80  2  0
 86 83  1  0
 86 87  1  0
 87 88  1  0
 88 89  2  0
 90 89  1  0
 90 94  1  0
 91 90  2  0
 92 87  2  0
 92 91  1  0
 93 92  1  0
 95 96  1  0
 96 98  1  0
 96 99  1  0
 97 95  2  0
100101  1  0
102100  1  0
M  ISO  4   9 101  10 101  65 100  73 100
M  END
>  <TORSDO>  (6) 
F 28

>  <SCORE>  (6) 
-5.985

>  <name>  (6) 
6

>  <ligand_id>  (6) 
6

>  <original_smiles>  (6) 
[H]c1c([H])c([H])c2c(c1[H])C([H])([H])C([H])([H])C([H])([H])C2([H])N([H])C(=O)C1([H])N(C(=O)C([H])(N([H])C(=O)C([H])(N([H])C([H])([H])[H])C([H])([H])[H])C(C([H])([H])[H])(C([H])([H])[H])C([H])([H])[H])C([H])([H])c2c([H])c(OC([H])([H])C([H])([H])N3C([H])([H])C([H])([H])N(C([H])(C([H])([H])C([H])([H])C([H])([H])C([H])([H])[N+]([H])([H])[H])C([H])([H])[N+]([H])([H])C([H])([H])C([H])([H])N([H])C(=O)N4C([H])([H])C([H])([H])C([H])([H])C([H])(n5nc(-c6c([H])c([H])c(Oc7c([H])c([H])c(F)c([H])c7F)c([H])c6[H])c(C(=O)N([H])[H])c5N([H])[H])C4([H])[H])C([H])([H])C3([H])[H])c([H])c([H])c2C1([H])[H]

>  <smiles>  (6) 
[H]c1c([H])c([H])c2c(c1[H])C([H])([H])C([H])([H])C([H])([H])C2([H])N([H])C(=O)C1([H])N(C(=O)C([H])(N([H])C(=O)C([H])(N([H])C([H])([H])[H])C([H])([H])[H])C(C([H])([H])[H])(C([H])([H])[H])C([H])([H])[H])C([H])([H])c2c([H])c(OC([H])([H])C([H])([H])N3C([H])([H])C([H])([H])N(C([H])(C([H])([H])C([H])([H])C([H])([H])C([H])([H])[N+]([H])([H])[H])C([H])([H])[N+]([H])([H])C([H])([H])C([H])([H])N([H])C(=O)N4C([H])([H])C([H])([H])C([H])([H])C([H])(n5nc(-c6c([H])c([H])c(Oc7c([H])c([H])c(F)c([H])c7F)c([H])c6[H])c(C(=O)N([H])[H])c5N([H])[H])C4([H])[H])C([H])([H])C3([H])[H])c([H])c([H])c2C1([H])[H]

$$$$
7:0:0
     RDKit          3D

119127  0  0  1  0  0  0  0  0999 V2000
  -29.3040  -16.9650   23.3320 N   0  0  2  0  0  4  0  0  0  0  0  0
  -29.2260  -16.0270   22.9720 H   0  0  0  0  0  0  0  0  0  0  0  0
  -29.5150  -17.7070   22.0590 C   0  0  0  0  0  2  0  0  0  0  0  0
  -30.2530  -16.8550   20.9780 C   0  0  0  0  0  3  0  0  0  0  0  0
  -30.6890  -14.4240   20.5900 C   0  0  0  0  0  0  0  0  0  0  0  0
  -30.4250  -12.2860   19.4020 C   0  0  0  0  0  2  0  0  0  0  0  0
  -29.4910  -12.4960   18.1900 C   0  0  0  0  0  2  0  0  0  0  0  0
  -28.0080  -12.3670   18.6010 C   0  0  0  0  0  2  0  0  0  0  0  0
  -27.6600  -13.1940   19.8670 C   0  0  0  0  0  3  0  0  0  0  0  0
  -28.6970  -12.9410   20.9820 C   0  0  0  0  0  2  0  0  0  0  0  0
  -30.0310  -13.2480   20.4380 N   0  0  0  0  0  0  0  0  0  0  0  0
  -31.8230  -14.6370   20.1510 O   0  0  0  0  0  0  0  0  0  0  0  0
  -29.9210  -15.4220   21.0670 N   0  0  0  0  0  0  0  0  0  0  0  0
  -28.9600  -15.1550   21.2190 H   0  0  0  0  0  0  0  0  0  0  0  0
  -25.2610  -13.8150   20.5660 C   0  0  0  0  0  0  0  0  0  0  0  0
  -24.1860  -13.0460   20.9180 C   0  0  0  0  0  0  0  0  0  0  0  0
  -24.6370  -11.6910   20.8730 C   0  0  0  0  0  0  0  0  0  0  0  0
  -26.3010  -12.9280   20.3290 N   0  0  0  0  0  0  0  0  0  0  0  0
  -25.9280  -11.6460   20.5720 N   0  0  0  0  0  0  0  0  0  0  0  0
  -23.9060  -10.4300   21.0420 C   0  0  0  0  0  0  0  0  0  0  0  0
  -24.3620   -9.4200   21.9190 C   0  0  0  0  0  3  0  0  0  0  0  0
  -23.6290   -8.2250   22.0760 C   0  0  0  0  0  3  0  0  0  0  0  0
  -22.4270   -8.0290   21.3550 C   0  0  0  0  0  0  0  0  0  0  0  0
  -21.9900   -9.0270   20.4650 C   0  0  0  0  0  3  0  0  0  0  0  0
  -22.7240  -10.2140   20.3060 C   0  0  0  0  0  3  0  0  0  0  0  0
  -21.6630   -6.8890   21.4250 O   0  0  0  0  0  0  0  0  0  0  0  0
  -21.6860   -6.0740   22.5290 C   0  0  0  0  0  0  0  0  0  0  0  0
  -21.4000   -6.5640   23.8210 C   0  0  0  0  0  3  0  0  0  0  0  0
  -21.3650   -5.6790   24.9180 C   0  0  0  0  0  3  0  0  0  0  0  0
  -21.6040   -4.3060   24.7230 C   0  0  0  0  0  0  0  0  0  0  0  0
  -21.8820   -3.8150   23.4350 C   0  0  0  0  0  3  0  0  0  0  0  0
  -21.9180   -4.6960   22.3400 C   0  0  0  0  0  0  0  0  0  0  0  0
  -22.1660   -4.2150   21.0980 F   0  0  0  0  0  0  0  0  0  0  0  0
  -21.5620   -3.4530   25.7740 F   0  0  0  0  0  0  0  0  0  0  0  0
  -22.7860  -13.5260   21.1840 C   0  0  0  0  0  0  0  0  0  0  0  0
  -22.0490  -12.8280   22.0390 N   0  0  0  0  0  0  0  0  0  0  0  0
  -22.3580  -14.5560   20.6670 O   0  0  0  0  0  0  0  0  0  0  0  0
  -22.4060  -11.9930   22.4800 H   0  0  0  0  0  0  0  0  0  0  0  0
  -21.1080  -13.1310   22.2520 H   0  0  0  0  0  0  0  0  0  0  0  0
  -25.4380  -15.1870   20.4060 N   0  0  0  0  0  0  0  0  0  0  0  0
  -24.6570  -15.8300   20.4760 H   0  0  0  0  0  0  0  0  0  0  0  0
  -26.2520  -15.6070   19.9810 H   0  0  0  0  0  0  0  0  0  0  0  0
  -29.9460  -17.3530   19.5350 C   0  0  0  0  0  2  0  0  0  0  0  0
  -30.6820  -18.6440   19.0960 C   0  0  0  0  0  3  0  0  0  0  0  0
  -32.0550  -18.2990   18.4470 C   0  0  0  0  0  2  0  0  0  0  0  0
  -32.9540  -19.4570   18.2600 N   0  0  0  0  0  4  0  0  0  0  0  0
  -32.5980  -20.1260   17.6000 H   0  0  0  0  0  0  0  0  0  0  0  0
  -33.8370  -19.1350   17.9020 H   0  0  0  0  0  0  0  0  0  0  0  0
  -33.1360  -19.9250   19.1290 H   0  0  0  0  0  0  0  0  0  0  0  0
  -29.7720  -19.5840   18.2490 C   0  0  0  0  0  2  0  0  0  0  0  0
  -29.1660  -18.9820   17.0410 N   0  0  0  0  0  4  0  0  0  0  0  0
  -29.8440  -18.7570   16.3360 H   0  0  0  0  0  0  0  0  0  0  0  0
  -28.5350  -19.6520   16.6360 H   0  0  0  0  0  0  0  0  0  0  0  0
  -28.6240  -18.1620   17.2470 H   0  0  0  0  0  0  0  0  0  0  0  0
  -27.9850  -17.1860   24.0040 C   0  0  0  0  0  2  0  0  0  0  0  0
  -27.3960  -15.8870   24.6080 C   0  0  0  0  0  2  0  0  0  0  0  0
  -27.4790  -15.7710   26.1480 C   0  0  0  0  0  2  0  0  0  0  0  0
  -26.4390  -16.5410   26.8580 N   0  0  0  0  0  4  0  0  0  0  0  0
  -26.5720  -17.5330   26.7870 H   0  0  0  0  0  0  0  0  0  0  0  0
  -26.4580  -16.3050   27.8360 H   0  0  0  0  0  0  0  0  0  0  0  0
  -25.5210  -16.3170   26.5180 H   0  0  0  0  0  0  0  0  0  0  0  0
  -30.5060  -16.8900   24.2150 C   0  0  0  0  0  2  0  0  0  0  0  0
  -30.6970  -18.0070   25.2780 C   0  0  0  0  0  2  0  0  0  0  0  0
  -31.1790  -19.3920   24.7780 C   0  0  0  0  0  2  0  0  0  0  0  0
  -30.0630  -20.4530   24.6870 C   0  0  0  0  0  2  0  0  0  0  0  0
  -29.2870  -22.5890   23.8580 C   0  0  0  0  0  2  0  0  0  0  0  0
  -29.3830  -23.4860   22.6040 C   0  0  0  0  0  2  0  0  0  0  0  0
  -31.4660  -22.4520   24.9060 C   0  0  0  0  0  2  0  0  0  0  0  0
  -31.2550  -25.0690   22.1370 C   0  0  0  0  0  2  0  0  0  0  0  0
  -32.8280  -22.4910   24.2080 C   0  0  0  0  0  2  0  0  0  0  0  0
  -32.4870  -24.6030   22.9330 C   0  0  0  0  0  2  0  0  0  0  0  0
  -30.4620  -21.7400   24.0930 N   0  0  0  0  0  0  0  0  0  0  0  0
  -29.9270  -24.8570   22.7630 N   0  0  0  0  0  0  0  0  0  0  0  0
  -32.6440  -23.1370   22.8990 N   0  0  0  0  0  4  0  0  0  0  0  0
  -31.7700  -22.7500   22.5770 H   0  0  0  0  0  0  0  0  0  0  0  0
  -33.3890  -22.8870   22.2680 H   0  0  0  0  0  0  0  0  0  0  0  0
  -28.9730  -25.8490   22.2290 C   0  0  0  0  0  2  0  0  0  0  0  0
  -28.4900  -25.6030   20.7760 C   0  0  0  0  0  2  0  0  0  0  0  0
  -28.4340  -26.8170   20.0460 O   0  0  0  0  0  0  0  0  0  0  0  0
  -24.6070  -31.8720   23.2120 C   0  0  0  0  0  0  0  0  0  0  0  0
  -27.2440  -27.4870   20.0990 C   0  0  0  0  0  0  0  0  0  0  0  0
  -23.3930  -30.4890   21.5570 C   0  0  0  0  0  3  0  0  0  0  0  0
  -24.8430  -28.9600   20.1190 C   0  0  0  0  0  0  0  0  0  0  0  0
  -25.9140  -30.8560   21.3540 C   0  0  0  0  0  2  0  0  0  0  0  0
  -25.9990  -29.4910   20.7070 C   0  0  0  0  0  0  0  0  0  0  0  0
  -27.2040  -28.7630   20.6900 C   0  0  0  0  0  3  0  0  0  0  0  0
  -26.0770  -26.9530   19.5090 C   0  0  0  0  0  3  0  0  0  0  0  0
  -24.8750  -27.6900   19.5140 C   0  0  0  0  0  3  0  0  0  0  0  0
  -23.5980  -29.8180   20.1720 C   0  0  0  0  0  2  0  0  0  0  0  0
  -24.6560  -31.0850   22.1020 N   0  0  0  0  0  0  0  0  0  0  0  0
  -23.5280  -32.1460   23.7530 O   0  0  0  0  0  0  0  0  0  0  0  0
  -22.7410  -29.4620   22.5070 C   0  0  0  0  0  0  0  0  0  0  0  0
  -21.4130  -29.2980   22.3830 N   0  0  0  0  0  0  0  0  0  0  0  0
  -23.4210  -28.8140   23.3070 O   0  0  0  0  0  0  0  0  0  0  0  0
  -20.9320  -29.8720   21.7060 H   0  0  0  0  0  0  0  0  0  0  0  0
  -18.0250  -28.1350   22.8470 C   0  0  0  0  0  0  0  0  0  0  0  0
  -20.5830  -28.3580   23.1360 C   0  0  0  0  0  3  0  0  0  0  0  0
  -20.6750  -26.9330   22.5430 C   0  0  0  0  0  2  0  0  0  0  0  0
  -19.5740  -26.6360   21.5210 C   0  0  0  0  0  2  0  0  0  0  0  0
  -18.1900  -26.7880   22.1600 C   0  0  0  0  0  2  0  0  0  0  0  0
  -19.1500  -28.8790   23.2910 C   0  0  0  0  0  0  0  0  0  0  0  0
  -18.9440  -30.1400   23.8890 C   0  0  0  0  0  3  0  0  0  0  0  0
  -17.6440  -30.6560   24.0550 C   0  0  0  0  0  3  0  0  0  0  0  0
  -16.5320  -29.9070   23.6310 C   0  0  0  0  0  3  0  0  0  0  0  0
  -16.7240  -28.6490   23.0330 C   0  0  0  0  0  3  0  0  0  0  0  0
  -25.8990  -32.4850   23.8430 C   0  0  0  0  0  3  0  0  0  0  0  0
  -25.5830  -33.8640   24.2340 N   0  0  0  0  0  0  0  0  0  0  0  0
  -25.9000  -34.9480   23.5160 C   0  0  0  0  0  0  0  0  0  0  0  0
  -26.5580  -34.8920   22.4720 O   0  0  0  0  0  0  0  0  0  0  0  0
  -24.9970  -33.9820   25.0490 H   0  0  0  0  0  0  0  0  0  0  0  0
  -24.1480  -36.7330   23.2640 C   0  0  0  0  0  1  0  0  0  0  0  0
  -25.4090  -36.3130   24.0350 C   0  0  0  0  0  3  0  0  0  0  0  0
  -27.5580  -37.1800   24.8460 C   0  0  0  0  0  1  0  0  0  0  0  0
  -26.4290  -37.3810   23.9420 N   0  0  0  0  0  0  0  0  0  0  0  0
  -26.0210  -38.2890   24.1440 H   0  0  0  0  0  0  0  0  0  0  0  0
  -26.4440  -31.6600   25.0730 C   0  0  1  0  0  0  0  0  0  0  0  0
  -25.3720  -31.3700   26.1490 C   0  0  0  0  0  1  0  0  0  0  0  0
  -27.0260  -30.3070   24.5990 C   0  0  0  0  0  1  0  0  0  0  0  0
  -27.6020  -32.4340   25.7470 C   0  0  0  0  0  1  0  0  0  0  0  0
  1 55  1  0
  1 62  1  0
  1  2  1  6
  3  1  1  0
  4 43  1  0
  4 13  1  0
  4  3  1  0
  5 13  1  0
  6 11  1  0
  7  8  1  0
  7  6  1  0
  9  8  1  0
  9 18  1  0
  9 10  1  0
 11  5  1  0
 11 10  1  0
 12  5  2  0
 13 14  1  0
 15 16  2  0
 16 35  1  0
 17 16  1  0
 17 20  1  0
 18 15  1  0
 18 19  1  0
 19 17  2  0
 20 21  1  0
 21 22  2  0
 23 26  1  0
 23 22  1  0
 24 23  2  0
 25 24  1  0
 25 20  2  0
 26 27  1  0
 27 28  1  0
 28 29  2  0
 30 29  1  0
 30 34  1  0
 31 30  2  0
 32 27  2  0
 32 31  1  0
 33 32  1  0
 35 36  1  0
 36 39  1  0
 36 38  1  0
 37 35  2  0
 40 41  1  0
 40 15  1  0
 42 40  1  0
 44 43  1  0
 45 44  1  0
 46 45  1  0
 46 49  1  0
 47 46  1  0
 48 46  1  0
 50 44  1  0
 51 54  1  0
 51 50  1  0
 52 51  1  0
 53 51  1  0
 55 56  1  0
 56 57  1  0
 57 58  1  0
 58 60  1  0
 59 58  1  0
 61 58  1  0
 62 63  1  0
 64 63  1  0
 65 64  1  0
 66 72  1  0
 67 73  1  0
 67 66  1  0
 69 73  1  0
 69 71  1  0
 70 68  1  0
 72 65  1  0
 72 68  1  0
 74 71  1  0
 74 70  1  0
 75 74  1  0
 76 74  1  0
 77 73  1  0
 78 77  1  0
 79 81  1  0
 79 78  1  0
 80 91  2  0
 81 86  1  0
 82 90  1  0
 82 92  1  0
 83 89  1  0
 83 85  1  0
 84 90  1  0
 85 84  1  0
 86 85  2  0
 87 88  1  0
 87 81  2  0
 88 83  2  0
 89 82  1  0
 90 80  1  0
 92 94  2  0
 93 92  1  0
 95 93  1  0
 96105  2  0
 96101  1  0
 97 93  1  0
 97101  1  0
 98 97  1  0
 99100  1  0
 99 98  1  0
100 96  1  0
101102  2  0
102103  1  0
104103  2  0
105104  1  0
106 80  1  0
106107  1  0
106116  1  0
107110  1  0
108112  1  0
108107  1  0
109108  2  0
112111  1  0
114112  1  0
114115  1  0
114113  1  0
116119  1  1
116117  1  0
118116  1  0
M  ISO  4   5 100  13 100  78 101  79 101
M  END
>  <TORSDO>  (7) 
F 35

>  <SCORE>  (7) 
33.821

>  <name>  (7) 
7

>  <ligand_id>  (7) 
7

>  <original_smiles>  (7) 
[H]c1c([H])c([H])c2c(c1[H])C([H])([H])C([H])([H])C([H])([H])C2([H])N([H])C(=O)C1([H])N(C(=O)C([H])(N([H])C(=O)C([H])(N([H])C([H])([H])[H])C([H])([H])[H])C(C([H])([H])[H])(C([H])([H])[H])C([H])([H])[H])C([H])([H])c2c([H])c(OC([H])([H])C([H])([H])N3C([H])([H])C([H])([H])N(C([H])([H])C([H])([H])C([H])([H])C([H])([H])[N+]([H])(C([H])([H])C([H])([H])C([H])([H])[N+]([H])([H])[H])C([H])([H])C([H])(N([H])C(=O)N4C([H])([H])C([H])([H])C([H])([H])C([H])(n5nc(-c6c([H])c([H])c(Oc7c([H])c([H])c(F)c([H])c7F)c([H])c6[H])c(C(=O)N([H])[H])c5N([H])[H])C4([H])[H])C([H])([H])C([H])(C([H])([H])[N+]([H])([H])[H])C([H])([H])[N+]([H])([H])[H])C([H])([H])C([H])([H])[N+]([H])([H])C([H])([H])C3([H])[H])c([H])c([H])c2C1([H])[H]

>  <smiles>  (7) 
[H]c1c([H])c([H])c2c(c1[H])C([H])([H])C([H])([H])C([H])([H])C2([H])N([H])C(=O)C1([H])N(C(=O)C([H])(N([H])C(=O)C([H])(N([H])C([H])([H])[H])C([H])([H])[H])C(C([H])([H])[H])(C([H])([H])[H])C([H])([H])[H])C([H])([H])c2c([H])c(OC([H])([H])C([H])([H])N3C([H])([H])C([H])([H])N(C([H])([H])C([H])([H])C([H])([H])C([H])([H])[N+]([H])(C([H])([H])C([H])([H])C([H])([H])[N+]([H])([H])[H])C([H])([H])C([H])(N([H])C(=O)N4C([H])([H])C([H])([H])C([H])([H])C([H])(n5nc(-c6c([H])c([H])c(Oc7c([H])c([H])c(F)c([H])c7F)c([H])c6[H])c(C(=O)N([H])[H])c5N([H])[H])C4([H])[H])C([H])([H])C([H])(C([H])([H])[N+]([H])([H])[H])C([H])([H])[N+]([H])([H])[H])C([H])([H])C([H])([H])[N+]([H])([H])C([H])([H])C3([H])[H])c([H])c([H])c2C1([H])[H]

$$$$
8:0:0
     RDKit          3D

 95103  0  0  1  0  0  0  0  0999 V2000
  -30.4060  -21.4550   20.9940 C   0  0  0  0  0  2  0  0  0  0  0  0
  -28.3630  -20.2870   20.5660 C   0  0  0  0  0  2  0  0  0  0  0  0
  -31.1710  -20.1080   20.9500 C   0  0  0  0  0  2  0  0  0  0  0  0
  -29.1310  -18.9500   20.5390 C   0  0  0  0  0  2  0  0  0  0  0  0
  -29.1770  -21.4570   20.1780 N   0  0  0  0  0  0  0  0  0  0  0  0
  -30.3240  -19.0000   21.4010 N   0  0  0  0  0  0  0  0  0  0  0  0
  -28.3750  -22.6700   20.4110 C   0  0  0  0  0  2  0  0  0  0  0  0
  -28.8880  -24.0450   19.9070 C   0  0  0  0  0  2  0  0  0  0  0  0
  -28.0490  -25.1690   20.5730 C   0  0  0  0  0  2  0  0  0  0  0  0
  -28.3810  -26.5330   20.2450 O   0  0  0  0  0  0  0  0  0  0  0  0
  -24.6160  -31.7580   23.3400 C   0  0  0  0  0  0  0  0  0  0  0  0
  -27.2690  -27.3480   20.2010 C   0  0  0  0  0  0  0  0  0  0  0  0
  -23.4340  -30.4120   21.6380 C   0  0  0  0  0  3  0  0  0  0  0  0
  -24.9000  -28.8940   20.2040 C   0  0  0  0  0  0  0  0  0  0  0  0
  -25.9710  -30.7350   21.5120 C   0  0  0  0  0  2  0  0  0  0  0  0
  -26.0550  -29.3810   20.8340 C   0  0  0  0  0  0  0  0  0  0  0  0
  -27.2450  -28.6150   20.8310 C   0  0  0  0  0  3  0  0  0  0  0  0
  -26.1040  -26.8880   19.5490 C   0  0  0  0  0  3  0  0  0  0  0  0
  -24.9220  -27.6460   19.5570 C   0  0  0  0  0  3  0  0  0  0  0  0
  -23.6680  -29.7680   20.2450 C   0  0  0  0  0  2  0  0  0  0  0  0
  -24.6920  -30.9800   22.2220 N   0  0  0  0  0  0  0  0  0  0  0  0
  -23.5250  -32.0340   23.8570 O   0  0  0  0  0  0  0  0  0  0  0  0
  -22.7450  -29.3760   22.5560 C   0  0  0  0  0  0  0  0  0  0  0  0
  -21.4230  -29.2100   22.3830 N   0  0  0  0  0  0  0  0  0  0  0  0
  -23.3960  -28.7290   23.3780 O   0  0  0  0  0  0  0  0  0  0  0  0
  -20.9600  -29.7850   21.6940 H   0  0  0  0  0  0  0  0  0  0  0  0
  -18.0310  -28.0100   22.7280 C   0  0  0  0  0  0  0  0  0  0  0  0
  -20.5750  -28.2640   23.1090 C   0  0  0  0  0  3  0  0  0  0  0  0
  -20.7020  -26.8400   22.5230 C   0  0  0  0  0  2  0  0  0  0  0  0
  -19.6440  -26.5270   21.4600 C   0  0  0  0  0  2  0  0  0  0  0  0
  -18.2360  -26.6660   22.0470 C   0  0  0  0  0  2  0  0  0  0  0  0
  -19.1310  -28.7670   23.2120 C   0  0  0  0  0  0  0  0  0  0  0  0
  -18.8880  -30.0240   23.8070 C   0  0  0  0  0  3  0  0  0  0  0  0
  -17.5770  -30.5250   23.9230 C   0  0  0  0  0  3  0  0  0  0  0  0
  -16.4910  -29.7650   23.4530 C   0  0  0  0  0  3  0  0  0  0  0  0
  -16.7190  -28.5090   22.8630 C   0  0  0  0  0  3  0  0  0  0  0  0
  -25.8940  -32.3560   24.0060 C   0  0  0  0  0  3  0  0  0  0  0  0
  -26.3210  -31.5990   25.3220 C   0  0  1  0  0  0  0  0  0  0  0  0
  -25.1690  -31.4190   26.3400 C   0  0  0  0  0  1  0  0  0  0  0  0
  -26.8790  -30.1960   24.9890 C   0  0  0  0  0  1  0  0  0  0  0  0
  -27.4610  -32.3730   26.0260 C   0  0  0  0  0  1  0  0  0  0  0  0
  -25.6230  -33.7730   24.2860 N   0  0  0  0  0  0  0  0  0  0  0  0
  -26.0490  -34.7920   23.5280 C   0  0  0  0  0  0  0  0  0  0  0  0
  -26.7790  -34.6360   22.5450 O   0  0  0  0  0  0  0  0  0  0  0  0
  -24.9860  -33.9720   25.0440 H   0  0  0  0  0  0  0  0  0  0  0  0
  -24.4120  -36.6350   23.0300 C   0  0  0  0  0  1  0  0  0  0  0  0
  -25.5900  -36.2090   23.9200 C   0  0  0  0  0  3  0  0  0  0  0  0
  -27.7140  -37.0290   24.8400 C   0  0  0  0  0  1  0  0  0  0  0  0
  -26.6660  -37.2200   23.8400 N   0  0  0  0  0  0  0  0  0  0  0  0
  -26.2890  -38.1570   23.9520 H   0  0  0  0  0  0  0  0  0  0  0  0
  -31.0360  -17.7100   21.5800 C   0  0  0  0  0  3  0  0  0  0  0  0
  -30.9610  -16.7540   20.3490 C   0  0  0  0  0  2  0  0  0  0  0  0
  -31.5990  -14.3510   20.0400 C   0  0  0  0  0  0  0  0  0  0  0  0
  -31.1790  -12.1720   18.9620 C   0  0  0  0  0  2  0  0  0  0  0  0
  -30.2080  -12.3720   17.7770 C   0  0  0  0  0  2  0  0  0  0  0  0
  -28.7350  -12.3760   18.2420 C   0  0  0  0  0  2  0  0  0  0  0  0
  -28.4990  -13.2960   19.4700 C   0  0  0  0  0  3  0  0  0  0  0  0
  -29.5490  -12.9890   20.5600 C   0  0  0  0  0  2  0  0  0  0  0  0
  -30.8880  -13.1960   19.9720 N   0  0  0  0  0  0  0  0  0  0  0  0
  -32.6720  -14.5340   19.4570 O   0  0  0  0  0  0  0  0  0  0  0  0
  -30.9390  -15.3280   20.6800 N   0  0  0  0  0  0  0  0  0  0  0  0
  -30.0950  -14.9960   21.1200 H   0  0  0  0  0  0  0  0  0  0  0  0
  -26.2120  -14.1570   20.2910 C   0  0  0  0  0  0  0  0  0  0  0  0
  -25.0800  -13.5000   20.6910 C   0  0  0  0  0  0  0  0  0  0  0  0
  -25.3770  -12.1070   20.5910 C   0  0  0  0  0  0  0  0  0  0  0  0
  -27.1390  -13.1690   19.9860 N   0  0  0  0  0  0  0  0  0  0  0  0
  -26.6380  -11.9290   20.2180 N   0  0  0  0  0  0  0  0  0  0  0  0
  -24.5200  -10.9280   20.7670 C   0  0  0  0  0  0  0  0  0  0  0  0
  -24.8650   -9.8890   21.6590 C   0  0  0  0  0  3  0  0  0  0  0  0
  -24.0160   -8.7750   21.8250 C   0  0  0  0  0  3  0  0  0  0  0  0
  -22.8050   -8.6930   21.0930 C   0  0  0  0  0  0  0  0  0  0  0  0
  -22.4780   -9.7170   20.1880 C   0  0  0  0  0  3  0  0  0  0  0  0
  -23.3300  -10.8220   20.0210 C   0  0  0  0  0  3  0  0  0  0  0  0
  -21.9300   -7.6370   21.1700 O   0  0  0  0  0  0  0  0  0  0  0  0
  -21.7920   -6.9000   22.3180 C   0  0  0  0  0  0  0  0  0  0  0  0
  -21.4240   -7.4900   23.5450 C   0  0  0  0  0  3  0  0  0  0  0  0
  -21.2270   -6.6850   24.6850 C   0  0  0  0  0  3  0  0  0  0  0  0
  -21.3860   -5.2900   24.5960 C   0  0  0  0  0  0  0  0  0  0  0  0
  -21.7480   -4.6980   23.3720 C   0  0  0  0  0  3  0  0  0  0  0  0
  -21.9480   -5.5020   22.2360 C   0  0  0  0  0  0  0  0  0  0  0  0
  -22.2790   -4.9250   21.0550 F   0  0  0  0  0  0  0  0  0  0  0  0
  -21.1860   -4.5140   25.6880 F   0  0  0  0  0  0  0  0  0  0  0  0
  -23.7600  -14.1270   21.0450 C   0  0  0  0  0  0  0  0  0  0  0  0
  -22.9970  -13.4940   21.9300 N   0  0  0  0  0  0  0  0  0  0  0  0
  -23.4190  -15.2060   20.5660 O   0  0  0  0  0  0  0  0  0  0  0  0
  -23.2860  -12.6180   22.3360 H   0  0  0  0  0  0  0  0  0  0  0  0
  -22.1110  -13.8930   22.2050 H   0  0  0  0  0  0  0  0  0  0  0  0
  -26.5200  -15.5060   20.1400 N   0  0  0  0  0  0  0  0  0  0  0  0
  -25.7800  -16.1950   20.1950 H   0  0  0  0  0  0  0  0  0  0  0  0
  -27.3180  -15.8280   19.6110 H   0  0  0  0  0  0  0  0  0  0  0  0
  -30.6120  -17.0500   22.9140 C   0  0  0  0  0  2  0  0  0  0  0  0
  -30.9100  -17.9680   24.0250 N   0  0  0  0  0  4  0  0  0  0  0  0
  -31.8930  -17.9970   24.2260 H   0  0  0  0  0  0  0  0  0  0  0  0
  -30.4050  -17.7160   24.8560 H   0  0  0  0  0  0  0  0  0  0  0  0
  -30.6280  -18.8800   23.7070 H   0  0  0  0  0  0  0  0  0  0  0  0
  3  1  1  0
  3  6  1  0
  4  2  1  0
  4  6  1  0
  5  7  1  0
  5  2  1  0
  5  1  1  0
  6 51  1  0
  8  7  1  0
  8  9  1  0
 10  9  1  0
 11 22  2  0
 12 10  1  0
 12 17  1  0
 13 21  1  0
 13 23  1  0
 14 20  1  0
 14 16  1  0
 15 21  1  0
 16 15  1  0
 17 16  2  0
 18 19  1  0
 18 12  2  0
 19 14  2  0
 20 13  1  0
 21 11  1  0
 23 25  2  0
 24 23  1  0
 26 24  1  0
 27 36  2  0
 27 32  1  0
 28 24  1  0
 28 32  1  0
 29 28  1  0
 30 31  1  0
 30 29  1  0
 31 27  1  0
 32 33  2  0
 33 34  1  0
 35 34  2  0
 36 35  1  0
 37 11  1  0
 37 42  1  0
 37 38  1  0
 38 41  1  1
 38 39  1  0
 40 38  1  0
 42 45  1  0
 43 47  1  0
 43 42  1  0
 44 43  2  0
 47 46  1  0
 49 47  1  0
 49 50  1  0
 49 48  1  0
 51 52  1  0
 51 91  1  0
 52 61  1  0
 53 61  1  0
 54 59  1  0
 55 56  1  0
 55 54  1  0
 57 56  1  0
 57 66  1  0
 57 58  1  0
 59 53  1  0
 59 58  1  0
 60 53  2  0
 61 62  1  0
 63 64  2  0
 64 83  1  0
 65 64  1  0
 65 68  1  0
 66 67  1  0
 66 63  1  0
 67 65  2  0
 68 69  1  0
 69 70  2  0
 71 74  1  0
 71 70  1  0
 72 71  2  0
 73 72  1  0
 73 68  2  0
 74 75  1  0
 75 76  1  0
 76 77  2  0
 78 77  1  0
 78 82  1  0
 79 78  2  0
 80 75  2  0
 80 79  1  0
 81 80  1  0
 83 84  1  0
 84 87  1  0
 84 86  1  0
 85 83  2  0
 88 89  1  0
 88 63  1  0
 90 88  1  0
 91 92  1  0
 92 93  1  0
 92 94  1  0
 95 92  1  0
M  ISO  4   9 101  10 101  53 100  61 100
M  END
>  <TORSDO>  (8) 
F 23

>  <SCORE>  (8) 
-12.014

>  <name>  (8) 
8

>  <ligand_id>  (8) 
8

>  <original_smiles>  (8) 
[H]c1c([H])c([H])c2c(c1[H])C([H])([H])C([H])([H])C([H])([H])C2([H])N([H])C(=O)C1([H])N(C(=O)C([H])(N([H])C(=O)C([H])(N([H])C([H])([H])[H])C([H])([H])[H])C(C([H])([H])[H])(C([H])([H])[H])C([H])([H])[H])C([H])([H])c2c([H])c(OC([H])([H])C([H])([H])C([H])([H])N3C([H])([H])C([H])([H])N(C([H])(C([H])([H])N([H])C(=O)N4C([H])([H])C([H])([H])C([H])([H])C([H])(n5nc(-c6c([H])c([H])c(Oc7c([H])c([H])c(F)c([H])c7F)c([H])c6[H])c(C(=O)N([H])[H])c5N([H])[H])C4([H])[H])C([H])([H])[N+]([H])([H])[H])C([H])([H])C3([H])[H])c([H])c([H])c2C1([H])[H]

>  <smiles>  (8) 
[H]c1c([H])c([H])c2c(c1[H])C([H])([H])C([H])([H])C([H])([H])C2([H])N([H])C(=O)C1([H])N(C(=O)C([H])(N([H])C(=O)C([H])(N([H])C([H])([H])[H])C([H])([H])[H])C(C([H])([H])[H])(C([H])([H])[H])C([H])([H])[H])C([H])([H])c2c([H])c(OC([H])([H])C([H])([H])C([H])([H])N3C([H])([H])C([H])([H])N(C([H])(C([H])([H])N([H])C(=O)N4C([H])([H])C([H])([H])C([H])([H])C([H])(n5nc(-c6c([H])c([H])c(Oc7c([H])c([H])c(F)c([H])c7F)c([H])c6[H])c(C(=O)N([H])[H])c5N([H])[H])C4([H])[H])C([H])([H])[N+]([H])([H])[H])C([H])([H])C3([H])[H])c([H])c([H])c2C1([H])[H]

$$$$
9:0:0
     RDKit          3D

 98106  0  0  1  0  0  0  0  0999 V2000
  -29.4120  -20.7190   19.4040 C   0  0  0  0  0  0  0  0  0  0  0  0
  -29.1440  -22.3170   19.5850 N   0  0  0  0  0  0  0  0  0  0  0  0
  -29.5950  -20.4520   18.2150 O   0  0  0  0  0  0  0  0  0  0  0  0
  -30.3910  -15.7620   19.4850 C   0  0  0  0  0  0  0  0  0  0  0  0
  -30.3370  -13.2590   18.4530 C   0  0  0  0  0  2  0  0  0  0  0  0
  -29.2560  -12.8900   17.3910 C   0  0  0  0  0  2  0  0  0  0  0  0
  -27.9230  -12.4990   18.0500 C   0  0  0  0  0  2  0  0  0  0  0  0
  -27.6070  -13.4280   19.2410 C   0  0  0  0  0  3  0  0  0  0  0  0
  -28.8160  -13.6450   20.1790 C   0  0  0  0  0  2  0  0  0  0  0  0
  -29.8490  -14.3830   19.3900 N   0  0  0  0  0  0  0  0  0  0  0  0
  -31.5700  -15.6870   19.0770 O   0  0  0  0  0  0  0  0  0  0  0  0
  -28.7430  -18.0150   22.0090 C   0  0  0  0  0  2  0  0  0  0  0  0
  -29.7770  -19.0580   21.6060 C   0  0  0  0  0  2  0  0  0  0  0  0
  -28.9710  -16.7990   21.0840 C   0  0  0  0  0  2  0  0  0  0  0  0
  -29.6470  -18.9750   20.1040 C   0  0  0  0  0  3  0  0  0  0  0  0
  -29.6680  -17.1540   19.8130 N   0  0  0  0  0  0  0  0  0  0  0  0
  -25.4330  -13.9290   20.4510 C   0  0  0  0  0  0  0  0  0  0  0  0
  -24.4170  -13.1430   20.9130 C   0  0  0  0  0  0  0  0  0  0  0  0
  -24.8180  -11.7940   20.6620 C   0  0  0  0  0  0  0  0  0  0  0  0
  -26.3830  -13.0660   19.9430 N   0  0  0  0  0  0  0  0  0  0  0  0
  -26.0390  -11.7630   20.1320 N   0  0  0  0  0  0  0  0  0  0  0  0
  -24.0750  -10.5380   20.8380 C   0  0  0  0  0  0  0  0  0  0  0  0
  -24.5570   -9.5040   21.6690 C   0  0  0  0  0  3  0  0  0  0  0  0
  -23.8120   -8.3170   21.8410 C   0  0  0  0  0  3  0  0  0  0  0  0
  -22.5690   -8.1580   21.1840 C   0  0  0  0  0  0  0  0  0  0  0  0
  -22.1040   -9.1810   20.3390 C   0  0  0  0  0  3  0  0  0  0  0  0
  -22.8500  -10.3580   20.1640 C   0  0  0  0  0  3  0  0  0  0  0  0
  -21.7890   -7.0290   21.2720 O   0  0  0  0  0  0  0  0  0  0  0  0
  -21.7510   -6.2690   22.4130 C   0  0  0  0  0  0  0  0  0  0  0  0
  -21.3630   -6.8120   23.6580 C   0  0  0  0  0  3  0  0  0  0  0  0
  -21.2680   -5.9800   24.7920 C   0  0  0  0  0  3  0  0  0  0  0  0
  -21.5510   -4.6050   24.6810 C   0  0  0  0  0  0  0  0  0  0  0  0
  -21.9320   -4.0620   23.4420 C   0  0  0  0  0  3  0  0  0  0  0  0
  -22.0270   -4.8910   22.3110 C   0  0  0  0  0  0  0  0  0  0  0  0
  -22.3740   -4.3570   21.1150 F   0  0  0  0  0  0  0  0  0  0  0  0
  -21.4540   -3.8040   25.7680 F   0  0  0  0  0  0  0  0  0  0  0  0
  -23.1060  -13.6250   21.4600 C   0  0  0  0  0  0  0  0  0  0  0  0
  -22.5100  -12.8730   22.3750 N   0  0  0  0  0  0  0  0  0  0  0  0
  -22.6280  -14.7030   21.1080 O   0  0  0  0  0  0  0  0  0  0  0  0
  -22.9160  -12.0000   22.6790 H   0  0  0  0  0  0  0  0  0  0  0  0
  -21.6360  -13.1750   22.7810 H   0  0  0  0  0  0  0  0  0  0  0  0
  -25.6130  -15.3090   20.3860 N   0  0  0  0  0  0  0  0  0  0  0  0
  -24.9020  -15.9600   20.7000 H   0  0  0  0  0  0  0  0  0  0  0  0
  -26.3900  -15.7620   19.9260 H   0  0  0  0  0  0  0  0  0  0  0  0
  -28.5770  -23.6840   20.5940 C   0  0  0  0  0  2  0  0  0  0  0  0
  -28.6730  -25.4440   20.3920 O   0  0  0  0  0  0  0  0  0  0  0  0
  -24.8520  -31.7530   23.1600 C   0  0  0  0  0  0  0  0  0  0  0  0
  -27.6280  -26.6230   20.3890 C   0  0  0  0  0  0  0  0  0  0  0  0
  -23.7620  -30.2770   21.5260 C   0  0  0  0  0  3  0  0  0  0  0  0
  -25.3010  -28.6240   20.2130 C   0  0  0  0  0  0  0  0  0  0  0  0
  -26.3410  -30.4790   21.4870 C   0  0  0  0  0  2  0  0  0  0  0  0
  -26.4700  -29.0230   20.8720 C   0  0  0  0  0  0  0  0  0  0  0  0
  -27.6170  -28.0550   20.9140 C   0  0  0  0  0  3  0  0  0  0  0  0
  -26.4100  -26.4470   19.6790 C   0  0  0  0  0  3  0  0  0  0  0  0
  -25.3130  -27.3630   19.5940 C   0  0  0  0  0  3  0  0  0  0  0  0
  -24.0670  -29.5460   20.1870 C   0  0  0  0  0  2  0  0  0  0  0  0
  -25.0070  -30.8740   22.1080 N   0  0  0  0  0  0  0  0  0  0  0  0
  -23.7320  -32.0320   23.6260 O   0  0  0  0  0  0  0  0  0  0  0  0
  -23.0380  -29.3090   22.5010 C   0  0  0  0  0  0  0  0  0  0  0  0
  -21.7130  -29.1210   22.3430 N   0  0  0  0  0  0  0  0  0  0  0  0
  -23.6820  -28.7210   23.3720 O   0  0  0  0  0  0  0  0  0  0  0  0
  -21.2430  -29.6430   21.6170 H   0  0  0  0  0  0  0  0  0  0  0  0
  -18.3430  -27.8250   22.7850 C   0  0  0  0  0  0  0  0  0  0  0  0
  -20.8860  -28.1810   23.1140 C   0  0  0  0  0  3  0  0  0  0  0  0
  -21.0460  -26.7370   22.5810 C   0  0  0  0  0  2  0  0  0  0  0  0
  -19.9850  -26.3550   21.5420 C   0  0  0  0  0  2  0  0  0  0  0  0
  -18.5820  -26.4690   22.1420 C   0  0  0  0  0  2  0  0  0  0  0  0
  -19.4240  -28.6340   23.2250 C   0  0  0  0  0  0  0  0  0  0  0  0
  -19.1430  -29.8960   23.7910 C   0  0  0  0  0  3  0  0  0  0  0  0
  -17.8170  -30.3520   23.9170 C   0  0  0  0  0  3  0  0  0  0  0  0
  -16.7520  -29.5420   23.4880 C   0  0  0  0  0  3  0  0  0  0  0  0
  -17.0150  -28.2800   22.9300 C   0  0  0  0  0  3  0  0  0  0  0  0
  -26.0680  -32.4610   23.8280 C   0  0  0  0  0  3  0  0  0  0  0  0
  -26.5540  -31.7370   25.1460 C   0  0  1  0  0  0  0  0  0  0  0  0
  -25.4250  -31.4810   26.1730 C   0  0  0  0  0  1  0  0  0  0  0  0
  -27.2070  -30.3750   24.8260 C   0  0  0  0  0  1  0  0  0  0  0  0
  -27.6450  -32.5890   25.8380 C   0  0  0  0  0  1  0  0  0  0  0  0
  -25.6820  -33.8520   24.1410 N   0  0  0  0  0  0  0  0  0  0  0  0
  -25.9800  -34.9230   23.3920 C   0  0  0  0  0  0  0  0  0  0  0  0
  -26.6630  -34.8450   22.3690 O   0  0  0  0  0  0  0  0  0  0  0  0
  -25.0690  -33.9810   24.9330 H   0  0  0  0  0  0  0  0  0  0  0  0
  -24.1810  -36.6530   23.0390 C   0  0  0  0  0  1  0  0  0  0  0  0
  -25.4400  -36.2950   23.8460 C   0  0  0  0  0  3  0  0  0  0  0  0
  -27.5340  -37.2810   24.6700 C   0  0  0  0  0  1  0  0  0  0  0  0
  -26.4280  -37.3910   23.7220 N   0  0  0  0  0  0  0  0  0  0  0  0
  -25.9850  -38.2970   23.8560 H   0  0  0  0  0  0  0  0  0  0  0  0
  -29.3210  -23.0630   18.2800 C   0  0  0  0  0  3  0  0  0  0  0  0
  -28.0590  -23.1090   17.3670 C   0  0  0  0  0  2  0  0  0  0  0  0
  -26.7810  -23.6440   18.0440 C   0  0  0  0  0  2  0  0  0  0  0  0
  -25.6430  -23.7290   17.1090 N   0  0  0  0  0  4  0  0  0  0  0  0
  -25.8520  -24.3370   16.3370 H   0  0  0  0  0  0  0  0  0  0  0  0
  -24.8350  -24.0970   17.5840 H   0  0  0  0  0  0  0  0  0  0  0  0
  -25.4050  -22.8200   16.7520 H   0  0  0  0  0  0  0  0  0  0  0  0
  -30.6320  -22.7690   17.4860 C   0  0  0  0  0  2  0  0  0  0  0  0
  -31.8330  -22.6670   18.3330 N   0  0  0  0  0  4  0  0  0  0  0  0
  -31.9350  -23.4820   18.9120 H   0  0  0  0  0  0  0  0  0  0  0  0
  -32.6460  -22.6030   17.7470 H   0  0  0  0  0  0  0  0  0  0  0  0
  -31.7960  -21.8470   18.9080 H   0  0  0  0  0  0  0  0  0  0  0  0
  1  2  1  0
  2 45  1  0
  3  1  2  0
  4 16  1  0
  5 10  1  0
  6  7  1  0
  6  5  1  0
  8  7  1  0
  8 20  1  0
  8  9  1  0
 10  4  1  0
 10  9  1  0
 11  4  2  0
 13 12  1  0
 14 12  1  0
 15  1  1  0
 15 13  1  0
 16 15  1  0
 16 14  1  0
 17 18  2  0
 18 37  1  0
 19 22  1  0
 19 18  1  0
 20 21  1  0
 20 17  1  0
 21 19  2  0
 22 23  1  0
 23 24  2  0
 25 28  1  0
 25 24  1  0
 26 25  2  0
 27 26  1  0
 27 22  2  0
 28 29  1  0
 29 30  1  0
 30 31  2  0
 32 31  1  0
 32 36  1  0
 33 32  2  0
 34 29  2  0
 34 33  1  0
 35 34  1  0
 37 38  1  0
 38 40  1  0
 38 41  1  0
 39 37  2  0
 42 17  1  0
 42 43  1  0
 44 42  1  0
 46 45  1  0
 47 58  2  0
 48 46  1  0
 48 53  1  0
 49 57  1  0
 49 59  1  0
 50 52  1  0
 51 57  1  0
 52 53  2  0
 52 51  1  0
 54 48  2  0
 55 54  1  0
 55 50  2  0
 56 50  1  0
 56 49  1  0
 57 47  1  0
 59 61  2  0
 60 59  1  0
 62 60  1  0
 63 72  2  0
 63 68  1  0
 64 60  1  0
 64 68  1  0
 65 64  1  0
 66 67  1  0
 66 65  1  0
 67 63  1  0
 68 69  2  0
 69 70  1  0
 71 70  2  0
 72 71  1  0
 73 47  1  0
 73 78  1  0
 73 74  1  0
 74 77  1  1
 74 75  1  0
 76 74  1  0
 78 81  1  0
 79 83  1  0
 79 78  1  0
 80 79  2  0
 83 82  1  0
 85 83  1  0
 85 86  1  0
 85 84  1  0
 87 88  1  0
 87  2  1  0
 88 89  1  0
 90 92  1  0
 90 89  1  0
 91 90  1  0
 93 90  1  0
 94 87  1  0
 94 95  1  0
 95 98  1  0
 95 96  1  0
 97 95  1  0
M  ISO  4   4 100  16 100  45 101  46 101
M  END
>  <TORSDO>  (9) 
F 23

>  <SCORE>  (9) 
-10.027

>  <name>  (9) 
9

>  <ligand_id>  (9) 
9

>  <original_smiles>  (9) 
[H]c1c([H])c([H])c2c(c1[H])C([H])([H])C([H])([H])C([H])([H])C2([H])N([H])C(=O)C1([H])N(C(=O)C([H])(N([H])C(=O)C([H])(N([H])C([H])([H])[H])C([H])([H])[H])C(C([H])([H])[H])(C([H])([H])[H])C([H])([H])[H])C([H])([H])c2c([H])c(OC([H])([H])N(C(=O)C3([H])N(C(=O)N4C([H])([H])C([H])([H])C([H])([H])C([H])(n5nc(-c6c([H])c([H])c(Oc7c([H])c([H])c(F)c([H])c7F)c([H])c6[H])c(C(=O)N([H])[H])c5N([H])[H])C4([H])[H])C([H])([H])C([H])([H])C3([H])[H])C([H])(C([H])([H])C([H])([H])[N+]([H])([H])[H])C([H])([H])[N+]([H])([H])[H])c([H])c([H])c2C1([H])[H]

>  <smiles>  (9) 
[H]c1c([H])c([H])c2c(c1[H])C([H])([H])C([H])([H])C([H])([H])C2([H])N([H])C(=O)C1([H])N(C(=O)C([H])(N([H])C(=O)C([H])(N([H])C([H])([H])[H])C([H])([H])[H])C(C([H])([H])[H])(C([H])([H])[H])C([H])([H])[H])C([H])([H])c2c([H])c(OC([H])([H])N(C(=O)C3([H])N(C(=O)N4C([H])([H])C([H])([H])C([H])([H])C([H])(n5nc(-c6c([H])c([H])c(Oc7c([H])c([H])c(F)c([H])c7F)c([H])c6[H])c(C(=O)N([H])[H])c5N([H])[H])C4([H])[H])C([H])([H])C([H])([H])C3([H])[H])C([H])(C([H])([H])C([H])([H])[N+]([H])([H])[H])C([H])([H])[N+]([H])([H])[H])c([H])c([H])c2C1([H])[H]

$$$$
10:0:0
     RDKit          3D

112121  0  0  1  0  0  0  0  0999 V2000
  -29.8240  -22.1440   20.3920 N   0  0  0  0  0  4  0  0  0  0  0  0
  -29.6160  -21.9890   19.4170 H   0  0  0  0  0  0  0  0  0  0  0  0
  -30.8190  -22.2890   20.4520 H   0  0  0  0  0  0  0  0  0  0  0  0
  -27.2520  -20.3030   20.1560 C   0  0  0  0  0  2  0  0  0  0  0  0
  -27.8510  -19.0640   19.4830 C   0  0  0  0  0  2  0  0  0  0  0  0
  -28.0440  -20.6470   21.4250 C   0  0  0  0  0  2  0  0  0  0  0  0
  -29.9970  -17.9270   18.7740 C   0  0  0  0  0  2  0  0  0  0  0  0
  -29.3510  -19.2450   19.1600 C   0  0  0  0  0  3  0  0  0  0  0  0
  -30.1850  -19.6810   20.3760 C   0  0  0  0  0  3  0  0  0  0  0  0
  -29.5470  -20.8860   21.1430 C   0  0  0  0  0  3  0  0  0  0  0  0
  -30.6950  -17.4140   20.0500 C   0  0  0  0  0  3  0  0  0  0  0  0
  -30.3600  -18.4050   21.0930 N   0  0  0  0  0  0  0  0  0  0  0  0
  -30.9660  -14.9840   19.7200 C   0  0  0  0  0  0  0  0  0  0  0  0
  -30.6640  -12.7110   18.8380 C   0  0  0  0  0  2  0  0  0  0  0  0
  -29.6500  -12.7480   17.6780 C   0  0  0  0  0  2  0  0  0  0  0  0
  -28.2120  -12.6110   18.2110 C   0  0  0  0  0  2  0  0  0  0  0  0
  -27.9110  -13.5840   19.3820 C   0  0  0  0  0  3  0  0  0  0  0  0
  -29.0340  -13.5330   20.4450 C   0  0  0  0  0  2  0  0  0  0  0  0
  -30.3170  -13.7930   19.7700 N   0  0  0  0  0  0  0  0  0  0  0  0
  -32.0150  -15.1520   19.0910 O   0  0  0  0  0  0  0  0  0  0  0  0
  -30.3320  -16.0210   20.2870 N   0  0  0  0  0  0  0  0  0  0  0  0
  -29.4720  -15.8330   20.7770 H   0  0  0  0  0  0  0  0  0  0  0  0
  -25.6070  -14.2110   20.3470 C   0  0  0  0  0  0  0  0  0  0  0  0
  -24.5540  -13.4440   20.7700 C   0  0  0  0  0  0  0  0  0  0  0  0
  -24.9670  -12.0860   20.6160 C   0  0  0  0  0  0  0  0  0  0  0  0
  -26.5990  -13.3190   19.9690 N   0  0  0  0  0  0  0  0  0  0  0  0
  -26.2210  -12.0330   20.1850 N   0  0  0  0  0  0  0  0  0  0  0  0
  -24.2230  -10.8340   20.8010 C   0  0  0  0  0  0  0  0  0  0  0  0
  -24.6170   -9.8760   21.7620 C   0  0  0  0  0  3  0  0  0  0  0  0
  -23.8760   -8.6870   21.9340 C   0  0  0  0  0  3  0  0  0  0  0  0
  -22.7250   -8.4480   21.1440 C   0  0  0  0  0  0  0  0  0  0  0  0
  -22.3510   -9.3940   20.1740 C   0  0  0  0  0  3  0  0  0  0  0  0
  -23.0930  -10.5740   20.0010 C   0  0  0  0  0  3  0  0  0  0  0  0
  -21.9580   -7.3110   21.2250 O   0  0  0  0  0  0  0  0  0  0  0  0
  -21.7310   -6.6790   22.4210 C   0  0  0  0  0  0  0  0  0  0  0  0
  -21.1660   -7.3530   23.5250 C   0  0  0  0  0  3  0  0  0  0  0  0
  -20.8850   -6.6480   24.7130 C   0  0  0  0  0  3  0  0  0  0  0  0
  -21.1570   -5.2700   24.7950 C   0  0  0  0  0  0  0  0  0  0  0  0
  -21.7150   -4.5950   23.6940 C   0  0  0  0  0  3  0  0  0  0  0  0
  -21.9970   -5.2970   22.5090 C   0  0  0  0  0  0  0  0  0  0  0  0
  -22.5140   -4.6380   21.4450 F   0  0  0  0  0  0  0  0  0  0  0  0
  -20.8810   -4.5900   25.9320 F   0  0  0  0  0  0  0  0  0  0  0  0
  -23.2040  -13.9390   21.2040 C   0  0  0  0  0  0  0  0  0  0  0  0
  -22.5610  -13.2360   22.1280 N   0  0  0  0  0  0  0  0  0  0  0  0
  -22.7330  -14.9850   20.7570 O   0  0  0  0  0  0  0  0  0  0  0  0
  -22.9560  -12.3870   22.5080 H   0  0  0  0  0  0  0  0  0  0  0  0
  -21.6580  -13.5470   22.4590 H   0  0  0  0  0  0  0  0  0  0  0  0
  -25.7980  -15.5840   20.2330 N   0  0  0  0  0  0  0  0  0  0  0  0
  -25.0670  -16.2520   20.4520 H   0  0  0  0  0  0  0  0  0  0  0  0
  -26.6320  -16.0190   19.8580 H   0  0  0  0  0  0  0  0  0  0  0  0
  -31.2210  -18.4040   22.2990 C   0  0  0  0  0  3  0  0  0  0  0  0
  -30.5560  -15.9170   22.4890 C   0  0  0  0  0  1  0  0  0  0  0  0
  -31.6750  -16.9620   22.6270 C   0  0  0  0  0  2  0  0  0  0  0  0
  -32.4160  -19.4000   22.2450 C   0  0  0  0  0  2  0  0  0  0  0  0
  -32.6740  -20.0460   23.5440 N   0  0  0  0  0  4  0  0  0  0  0  0
  -31.8760  -20.5690   23.8570 H   0  0  0  0  0  0  0  0  0  0  0  0
  -33.4470  -20.6820   23.4550 H   0  0  0  0  0  0  0  0  0  0  0  0
  -32.9130  -19.3660   24.2430 H   0  0  0  0  0  0  0  0  0  0  0  0
  -29.1260  -23.3800   20.8450 C   0  0  0  0  0  2  0  0  0  0  0  0
  -29.4600  -24.6360   19.9710 C   0  0  0  0  0  3  0  0  0  0  0  0
  -30.8810  -25.1970   20.3000 C   0  0  0  0  0  2  0  0  0  0  0  0
  -31.3820  -26.1990   19.3310 N   0  0  0  0  0  4  0  0  0  0  0  0
  -31.4320  -25.8250   18.3990 H   0  0  0  0  0  0  0  0  0  0  0  0
  -32.3150  -26.4750   19.5890 H   0  0  0  0  0  0  0  0  0  0  0  0
  -30.8220  -27.0330   19.3150 H   0  0  0  0  0  0  0  0  0  0  0  0
  -28.3550  -25.7570   19.9830 C   0  0  0  0  0  3  0  0  0  0  0  0
  -27.6550  -25.9280   21.2890 N   0  0  0  0  0  4  0  0  0  0  0  0
  -27.0840  -25.1390   21.5430 H   0  0  0  0  0  0  0  0  0  0  0  0
  -27.0350  -26.7200   21.2370 H   0  0  0  0  0  0  0  0  0  0  0  0
  -28.2840  -26.1170   22.0520 H   0  0  0  0  0  0  0  0  0  0  0  0
  -27.3360  -25.6530   18.8140 C   0  0  0  0  0  2  0  0  0  0  0  0
  -27.1790  -26.9580   18.2520 O   0  0  0  0  0  0  0  0  0  0  0  0
  -24.8250  -31.5460   23.1240 C   0  0  0  0  0  0  0  0  0  0  0  0
  -26.1260  -27.7260   18.6830 C   0  0  0  0  0  0  0  0  0  0  0  0
  -23.1230  -30.7070   21.5340 C   0  0  0  0  0  3  0  0  0  0  0  0
  -24.0250  -29.4030   19.5360 C   0  0  0  0  0  0  0  0  0  0  0  0
  -25.5830  -30.8480   20.8570 C   0  0  0  0  0  2  0  0  0  0  0  0
  -25.3370  -29.6630   19.9480 C   0  0  0  0  0  0  0  0  0  0  0  0
  -26.3920  -28.8340   19.5140 C   0  0  0  0  0  3  0  0  0  0  0  0
  -24.7980  -27.4740   18.2720 C   0  0  0  0  0  3  0  0  0  0  0  0
  -23.7480  -28.3090   18.6970 C   0  0  0  0  0  3  0  0  0  0  0  0
  -22.9550  -30.3510   20.0310 C   0  0  0  0  0  2  0  0  0  0  0  0
  -24.5410  -31.0300   21.8950 N   0  0  0  0  0  0  0  0  0  0  0  0
  -23.9230  -31.7920   23.9370 O   0  0  0  0  0  0  0  0  0  0  0  0
  -22.5250  -29.5610   22.3780 C   0  0  0  0  0  0  0  0  0  0  0  0
  -21.1880  -29.4370   22.3510 N   0  0  0  0  0  0  0  0  0  0  0  0
  -23.2550  -28.7950   23.0120 O   0  0  0  0  0  0  0  0  0  0  0  0
  -20.6620  -30.1110   21.8130 H   0  0  0  0  0  0  0  0  0  0  0  0
  -17.8490  -28.1320   22.7860 C   0  0  0  0  0  0  0  0  0  0  0  0
  -20.4050  -28.4090   23.0350 C   0  0  0  0  0  3  0  0  0  0  0  0
  -20.5230  -27.0480   22.3120 C   0  0  0  0  0  2  0  0  0  0  0  0
  -19.4050  -26.8090   21.2910 C   0  0  0  0  0  2  0  0  0  0  0  0
  -18.0350  -26.8620   21.9730 C   0  0  0  0  0  2  0  0  0  0  0  0
  -18.9620  -28.8660   23.2720 C   0  0  0  0  0  0  0  0  0  0  0  0
  -18.7360  -30.0590   23.9910 C   0  0  0  0  0  3  0  0  0  0  0  0
  -17.4270  -30.5180   24.2310 C   0  0  0  0  0  3  0  0  0  0  0  0
  -16.3280  -29.7770   23.7620 C   0  0  0  0  0  3  0  0  0  0  0  0
  -16.5390  -28.5870   23.0450 C   0  0  0  0  0  3  0  0  0  0  0  0
  -26.2870  -31.8710   23.5600 C   0  0  0  0  0  3  0  0  0  0  0  0
  -26.2580  -33.1440   24.2900 N   0  0  0  0  0  0  0  0  0  0  0  0
  -26.6930  -34.3110   23.7980 C   0  0  0  0  0  0  0  0  0  0  0  0
  -27.2310  -34.4140   22.6920 O   0  0  0  0  0  0  0  0  0  0  0  0
  -25.7830  -33.1440   25.1800 H   0  0  0  0  0  0  0  0  0  0  0  0
  -25.3010  -36.3760   24.1450 C   0  0  0  0  0  1  0  0  0  0  0  0
  -26.4970  -35.5660   24.6700 C   0  0  0  0  0  3  0  0  0  0  0  0
  -28.8060  -35.8230   25.4650 C   0  0  0  0  0  1  0  0  0  0  0  0
  -27.6950  -36.4300   24.7360 N   0  0  0  0  0  0  0  0  0  0  0  0
  -27.4740  -37.3180   25.1770 H   0  0  0  0  0  0  0  0  0  0  0  0
  -26.9410  -30.7350   24.4410 C   0  0  1  0  0  0  0  0  0  0  0  0
  -26.0660  -30.2940   25.6370 C   0  0  0  0  0  1  0  0  0  0  0  0
  -27.2360  -29.4840   23.5800 C   0  0  0  0  0  1  0  0  0  0  0  0
  -28.3010  -31.2190   24.9960 C   0  0  0  0  0  1  0  0  0  0  0  0
  1  3  1  0
  1 59  1  0
  2  1  1  0
  4  6  1  0
  5  4  1  0
  7 11  1  0
  8  7  1  0
  8  5  1  0
  8  9  1  0
  9 12  1  0
  9 10  1  0
 10  1  1  0
 10  6  1  0
 11 21  1  0
 11 12  1  0
 12 51  1  0
 13 19  1  0
 13 21  1  0
 14 19  1  0
 15 16  1  0
 15 14  1  0
 17 16  1  0
 17 26  1  0
 17 18  1  0
 19 18  1  0
 20 13  2  0
 21 22  1  0
 23 24  2  0
 24 43  1  0
 25 24  1  0
 25 28  1  0
 26 27  1  0
 26 23  1  0
 27 25  2  0
 28 29  1  0
 29 30  2  0
 31 34  1  0
 31 30  1  0
 32 31  2  0
 33 32  1  0
 33 28  2  0
 34 35  1  0
 35 40  2  0
 35 36  1  0
 36 37  2  0
 37 38  1  0
 38 42  1  0
 39 38  2  0
 40 39  1  0
 41 40  1  0
 43 44  1  0
 44 47  1  0
 44 46  1  0
 45 43  2  0
 48 23  1  0
 48 49  1  0
 50 48  1  0
 51 54  1  0
 51 53  1  0
 52 53  1  0
 54 55  1  0
 55 56  1  0
 55 58  1  0
 57 55  1  0
 60 66  1  0
 60 61  1  0
 60 59  1  0
 62 64  1  0
 62 61  1  0
 63 62  1  0
 65 62  1  0
 66 71  1  0
 66 67  1  0
 67 68  1  0
 67 70  1  0
 69 67  1  0
 72 74  1  0
 72 71  1  0
 73 84  2  0
 74 79  1  0
 75 83  1  0
 75 85  1  0
 76 78  1  0
 76 82  1  0
 77 83  1  0
 78 77  1  0
 79 78  2  0
 80 74  2  0
 80 81  1  0
 81 76  2  0
 82 75  1  0
 83 73  1  0
 85 87  2  0
 86 85  1  0
 88 86  1  0
 89 98  2  0
 89 94  1  0
 90 86  1  0
 90 94  1  0
 91 90  1  0
 92 93  1  0
 92 91  1  0
 93 89  1  0
 94 95  2  0
 95 96  1  0
 97 96  2  0
 98 97  1  0
 99 73  1  0
 99100  1  0
 99109  1  0
100103  1  0
101100  1  0
101105  1  0
102101  2  0
105104  1  0
105107  1  0
107108  1  0
107106  1  0
109112  1  1
109110  1  0
111109  1  0
M  ISO  4  13 100  21 100  71 101  72 101
M  END
>  <TORSDO>  (10) 
F 28

>  <SCORE>  (10) 
-7.974

>  <name>  (10) 
10

>  <ligand_id>  (10) 
10

>  <original_smiles>  (10) 
[H]c1c([H])c([H])c2c(c1[H])C([H])([H])C([H])([H])C([H])([H])C2([H])N([H])C(=O)C1([H])N(C(=O)C([H])(N([H])C(=O)C([H])(N([H])C([H])([H])[H])C([H])([H])[H])C(C([H])([H])[H])(C([H])([H])[H])C([H])([H])[H])C([H])([H])c2c([H])c(OC([H])([H])C([H])(C([H])(C([H])([H])[N+]([H])([H])[H])C([H])([H])[N+]([H])([H])C3([H])C([H])([H])C([H])([H])C([H])([H])C4([H])C([H])([H])C([H])(N([H])C(=O)N5C([H])([H])C([H])([H])C([H])([H])C([H])(n6nc(-c7c([H])c([H])c(Oc8c([H])c([H])c(F)c([H])c8F)c([H])c7[H])c(C(=O)N([H])[H])c6N([H])[H])C5([H])[H])N(C([H])(C([H])([H])C([H])([H])[H])C([H])([H])[N+]([H])([H])[H])C43[H])[N+]([H])([H])[H])c([H])c([H])c2C1([H])[H]

>  <smiles>  (10) 
[H]c1c([H])c([H])c2c(c1[H])C([H])([H])C([H])([H])C([H])([H])C2([H])N([H])C(=O)C1([H])N(C(=O)C([H])(N([H])C(=O)C([H])(N([H])C([H])([H])[H])C([H])([H])[H])C(C([H])([H])[H])(C([H])([H])[H])C([H])([H])[H])C([H])([H])c2c([H])c(OC([H])([H])C([H])(C([H])(C([H])([H])[N+]([H])([H])[H])C([H])([H])[N+]([H])([H])C3([H])C([H])([H])C([H])([H])C([H])([H])C4([H])C([H])([H])C([H])(N([H])C(=O)N5C([H])([H])C([H])([H])C([H])([H])C([H])(n6nc(-c7c([H])c([H])c(Oc8c([H])c([H])c(F)c([H])c8F)c([H])c7[H])c(C(=O)N([H])[H])c6N([H])[H])C5([H])[H])N(C([H])(C([H])([H])C([H])([H])[H])C([H])([H])[N+]([H])([H])[H])C43[H])[N+]([H])([H])[H])c([H])c([H])c2C1([H])[H]

$$$$
11:0:0
     RDKit          3D

 96104  0  0  1  0  0  0  0  0999 V2000
  -28.6780  -21.9250   22.8010 C   0  0  0  0  0  2  0  0  0  0  0  0
  -29.2460  -20.7170   22.0600 C   0  0  0  0  0  2  0  0  0  0  0  0
  -27.9530  -22.8610   21.8300 C   0  0  0  0  0  2  0  0  0  0  0  0
  -29.3010  -22.2200   19.9650 C   0  0  0  0  0  2  0  0  0  0  0  0
  -30.0710  -21.1120   20.8130 C   0  0  0  0  0  3  0  0  0  0  0  0
  -28.8440  -23.3840   20.7880 N   0  0  0  0  0  0  0  0  0  0  0  0
  -28.1390  -24.4910   20.0650 C   0  0  0  0  0  2  0  0  0  0  0  0
  -28.9460  -25.6480   19.3740 C   0  0  0  0  0  2  0  0  0  0  0  0
  -28.8240  -26.9810   19.9570 O   0  0  0  0  0  0  0  0  0  0  0  0
  -24.7140  -31.8150   23.2570 C   0  0  0  0  0  0  0  0  0  0  0  0
  -27.6180  -27.6770   19.9390 C   0  0  0  0  0  0  0  0  0  0  0  0
  -23.6040  -30.4620   21.5120 C   0  0  0  0  0  3  0  0  0  0  0  0
  -25.1510  -29.0960   20.0090 C   0  0  0  0  0  0  0  0  0  0  0  0
  -26.1150  -30.9470   21.3790 C   0  0  0  0  0  2  0  0  0  0  0  0
  -26.2780  -29.6280   20.6450 C   0  0  0  0  0  0  0  0  0  0  0  0
  -27.5140  -28.9300   20.6030 C   0  0  0  0  0  3  0  0  0  0  0  0
  -26.4680  -27.1740   19.2960 C   0  0  0  0  0  3  0  0  0  0  0  0
  -25.2440  -27.8710   19.3290 C   0  0  0  0  0  3  0  0  0  0  0  0
  -23.8630  -29.8840   20.0970 C   0  0  0  0  0  2  0  0  0  0  0  0
  -24.8270  -31.0910   22.1060 N   0  0  0  0  0  0  0  0  0  0  0  0
  -23.6140  -31.9900   23.7970 O   0  0  0  0  0  0  0  0  0  0  0  0
  -22.9980  -29.3480   22.3970 C   0  0  0  0  0  0  0  0  0  0  0  0
  -21.6870  -29.0980   22.2370 N   0  0  0  0  0  0  0  0  0  0  0  0
  -23.7070  -28.7110   23.1820 O   0  0  0  0  0  0  0  0  0  0  0  0
  -21.1740  -29.6630   21.5750 H   0  0  0  0  0  0  0  0  0  0  0  0
  -18.3800  -27.6940   22.6240 C   0  0  0  0  0  0  0  0  0  0  0  0
  -20.9190  -28.0690   22.9370 C   0  0  0  0  0  3  0  0  0  0  0  0
  -21.1000  -26.6870   22.2680 C   0  0  0  0  0  2  0  0  0  0  0  0
  -20.0250  -26.3730   21.2240 C   0  0  0  0  0  2  0  0  0  0  0  0
  -18.6320  -26.4040   21.8590 C   0  0  0  0  0  2  0  0  0  0  0  0
  -19.4540  -28.4830   23.1160 C   0  0  0  0  0  0  0  0  0  0  0  0
  -19.1630  -29.6910   23.7860 C   0  0  0  0  0  3  0  0  0  0  0  0
  -17.8330  -30.1100   23.9740 C   0  0  0  0  0  3  0  0  0  0  0  0
  -16.7740  -29.3180   23.4960 C   0  0  0  0  0  3  0  0  0  0  0  0
  -17.0480  -28.1110   22.8280 C   0  0  0  0  0  3  0  0  0  0  0  0
  -25.9560  -32.4730   23.9330 C   0  0  0  0  0  3  0  0  0  0  0  0
  -26.4350  -31.7120   25.2300 C   0  0  1  0  0  0  0  0  0  0  0  0
  -25.3010  -31.4370   26.2430 C   0  0  0  0  0  1  0  0  0  0  0  0
  -27.0830  -30.3560   24.8640 C   0  0  0  0  0  1  0  0  0  0  0  0
  -27.5290  -32.5410   25.9450 C   0  0  0  0  0  1  0  0  0  0  0  0
  -25.6030  -33.8620   24.2490 N   0  0  0  0  0  0  0  0  0  0  0  0
  -25.9410  -34.9240   23.5040 C   0  0  0  0  0  0  0  0  0  0  0  0
  -26.6530  -34.8380   22.5000 O   0  0  0  0  0  0  0  0  0  0  0  0
  -24.9790  -34.0040   25.0280 H   0  0  0  0  0  0  0  0  0  0  0  0
  -24.1830  -36.6710   23.0830 C   0  0  0  0  0  1  0  0  0  0  0  0
  -25.4000  -36.2960   23.9430 C   0  0  0  0  0  3  0  0  0  0  0  0
  -27.4700  -37.2410   24.8650 C   0  0  0  0  0  1  0  0  0  0  0  0
  -26.4080  -37.3750   23.8710 N   0  0  0  0  0  0  0  0  0  0  0  0
  -25.9710  -38.2860   23.9940 H   0  0  0  0  0  0  0  0  0  0  0  0
  -30.7460  -19.9310   20.1530 N   0  0  0  0  0  0  0  0  0  0  0  0
  -30.1060  -18.5730   20.2200 C   0  0  0  0  0  2  0  0  0  0  0  0
  -31.1130  -17.3810   20.3850 C   0  0  0  0  0  2  0  0  0  0  0  0
  -31.2120  -14.8860   20.1590 C   0  0  0  0  0  0  0  0  0  0  0  0
  -30.8690  -12.6610   19.1550 C   0  0  0  0  0  2  0  0  0  0  0  0
  -29.9280  -12.7900   17.9410 C   0  0  0  0  0  2  0  0  0  0  0  0
  -28.4570  -12.6810   18.3860 C   0  0  0  0  0  2  0  0  0  0  0  0
  -28.1230  -13.5940   19.5990 C   0  0  0  0  0  3  0  0  0  0  0  0
  -29.1890  -13.4680   20.7110 C   0  0  0  0  0  2  0  0  0  0  0  0
  -30.5040  -13.7210   20.1090 N   0  0  0  0  0  0  0  0  0  0  0  0
  -32.3720  -14.9630   19.7470 O   0  0  0  0  0  0  0  0  0  0  0  0
  -30.5380  -16.0140   20.4850 N   0  0  0  0  0  0  0  0  0  0  0  0
  -29.5760  -15.9170   20.7800 H   0  0  0  0  0  0  0  0  0  0  0  0
  -25.7660  -14.2480   20.3900 C   0  0  0  0  0  0  0  0  0  0  0  0
  -24.6810  -13.4990   20.7550 C   0  0  0  0  0  0  0  0  0  0  0  0
  -25.0960  -12.1340   20.6690 C   0  0  0  0  0  0  0  0  0  0  0  0
  -26.7750  -13.3420   20.1020 N   0  0  0  0  0  0  0  0  0  0  0  0
  -26.3780  -12.0640   20.3320 N   0  0  0  0  0  0  0  0  0  0  0  0
  -24.3310  -10.8910   20.8310 C   0  0  0  0  0  0  0  0  0  0  0  0
  -24.7040   -9.9120   21.7800 C   0  0  0  0  0  3  0  0  0  0  0  0
  -23.9400   -8.7340   21.9310 C   0  0  0  0  0  3  0  0  0  0  0  0
  -22.7890   -8.5260   21.1330 C   0  0  0  0  0  0  0  0  0  0  0  0
  -22.4360   -9.4930   20.1760 C   0  0  0  0  0  3  0  0  0  0  0  0
  -23.2000  -10.6620   20.0230 C   0  0  0  0  0  3  0  0  0  0  0  0
  -22.0030   -7.4010   21.1920 O   0  0  0  0  0  0  0  0  0  0  0  0
  -21.8320   -6.7030   22.3610 C   0  0  0  0  0  0  0  0  0  0  0  0
  -21.2780   -7.3030   23.5140 C   0  0  0  0  0  3  0  0  0  0  0  0
  -21.0570   -6.5300   24.6700 C   0  0  0  0  0  3  0  0  0  0  0  0
  -21.3790   -5.1590   24.6750 C   0  0  0  0  0  0  0  0  0  0  0  0
  -21.9250   -4.5600   23.5270 C   0  0  0  0  0  3  0  0  0  0  0  0
  -22.1490   -5.3290   22.3710 C   0  0  0  0  0  0  0  0  0  0  0  0
  -22.6540   -4.7420   21.2600 F   0  0  0  0  0  0  0  0  0  0  0  0
  -21.1590   -4.4140   25.7840 F   0  0  0  0  0  0  0  0  0  0  0  0
  -23.3070  -14.0120   21.0750 C   0  0  0  0  0  0  0  0  0  0  0  0
  -22.5740  -13.3130   21.9350 N   0  0  0  0  0  0  0  0  0  0  0  0
  -22.8930  -15.0680   20.5970 O   0  0  0  0  0  0  0  0  0  0  0  0
  -22.9210  -12.4580   22.3430 H   0  0  0  0  0  0  0  0  0  0  0  0
  -21.6520  -13.6370   22.1880 H   0  0  0  0  0  0  0  0  0  0  0  0
  -25.9740  -15.6170   20.2560 N   0  0  0  0  0  0  0  0  0  0  0  0
  -25.2350  -16.2920   20.4150 H   0  0  0  0  0  0  0  0  0  0  0  0
  -26.8290  -16.0380   19.9180 H   0  0  0  0  0  0  0  0  0  0  0  0
  -31.3510  -20.2080   18.8370 C   0  0  0  0  0  2  0  0  0  0  0  0
  -32.4960  -21.2380   18.8160 C   0  0  0  0  0  2  0  0  0  0  0  0
  -33.6340  -20.7660   19.6140 N   0  0  0  0  0  4  0  0  0  0  0  0
  -33.3670  -20.6810   20.5800 H   0  0  0  0  0  0  0  0  0  0  0  0
  -34.4000  -21.4110   19.5380 H   0  0  0  0  0  0  0  0  0  0  0  0
  -33.9350  -19.8690   19.2820 H   0  0  0  0  0  0  0  0  0  0  0  0
  2  1  1  0
  3  1  1  0
  4  6  1  0
  4  5  1  0
  5 50  1  0
  5  2  1  0
  6  3  1  0
  7  6  1  0
  8  9  1  0
  8  7  1  0
 10 21  2  0
 11  9  1  0
 11 16  1  0
 12 20  1  0
 12 22  1  0
 13 19  1  0
 13 15  1  0
 14 20  1  0
 15 14  1  0
 16 15  2  0
 17 18  1  0
 17 11  2  0
 18 13  2  0
 19 12  1  0
 20 10  1  0
 22 24  2  0
 23 22  1  0
 25 23  1  0
 26 35  2  0
 26 31  1  0
 27 23  1  0
 27 31  1  0
 28 27  1  0
 29 30  1  0
 29 28  1  0
 30 26  1  0
 31 32  2  0
 32 33  1  0
 34 33  2  0
 35 34  1  0
 36 10  1  0
 36 41  1  0
 36 37  1  0
 37 40  1  1
 37 38  1  0
 39 37  1  0
 41 44  1  0
 42 46  1  0
 42 41  1  0
 43 42  2  0
 46 45  1  0
 48 46  1  0
 48 49  1  0
 48 47  1  0
 50 51  1  0
 51 52  1  0
 52 61  1  0
 53 61  1  0
 54 59  1  0
 55 56  1  0
 55 54  1  0
 57 56  1  0
 57 66  1  0
 57 58  1  0
 59 53  1  0
 59 58  1  0
 60 53  2  0
 61 62  1  0
 63 64  2  0
 64 83  1  0
 65 64  1  0
 65 68  1  0
 66 67  1  0
 66 63  1  0
 67 65  2  0
 68 69  1  0
 69 70  2  0
 71 74  1  0
 71 70  1  0
 72 71  2  0
 73 72  1  0
 73 68  2  0
 74 75  1  0
 75 80  2  0
 75 76  1  0
 76 77  2  0
 77 78  1  0
 78 82  1  0
 79 78  2  0
 80 79  1  0
 81 80  1  0
 83 84  1  0
 84 87  1  0
 84 86  1  0
 85 83  2  0
 88 63  1  0
 88 89  1  0
 90 88  1  0
 91 50  1  0
 92 91  1  0
 92 93  1  0
 93 94  1  0
 95 93  1  0
 96 93  1  0
M  ISO  4   8 101   9 101  53 100  61 100
M  END
>  <TORSDO>  (11) 
F 24

>  <SCORE>  (11) 
-11.056

>  <name>  (11) 
11

>  <ligand_id>  (11) 
11

>  <original_smiles>  (11) 
[H]c1c([H])c([H])c2c(c1[H])C([H])([H])C([H])([H])C([H])([H])C2([H])N([H])C(=O)C1([H])N(C(=O)C([H])(N([H])C(=O)C([H])(N([H])C([H])([H])[H])C([H])([H])[H])C(C([H])([H])[H])(C([H])([H])[H])C([H])([H])[H])C([H])([H])c2c([H])c(OC([H])([H])C([H])([H])N3C([H])([H])C([H])([H])C([H])([H])C([H])(N(C([H])([H])C([H])([H])N([H])C(=O)N4C([H])([H])C([H])([H])C([H])([H])C([H])(n5nc(-c6c([H])c([H])c(Oc7c([H])c([H])c(F)c([H])c7F)c([H])c6[H])c(C(=O)N([H])[H])c5N([H])[H])C4([H])[H])C([H])([H])C([H])([H])[N+]([H])([H])[H])C3([H])[H])c([H])c([H])c2C1([H])[H]

>  <smiles>  (11) 
[H]c1c([H])c([H])c2c(c1[H])C([H])([H])C([H])([H])C([H])([H])C2([H])N([H])C(=O)C1([H])N(C(=O)C([H])(N([H])C(=O)C([H])(N([H])C([H])([H])[H])C([H])([H])[H])C(C([H])([H])[H])(C([H])([H])[H])C([H])([H])[H])C([H])([H])c2c([H])c(OC([H])([H])C([H])([H])N3C([H])([H])C([H])([H])C([H])([H])C([H])(N(C([H])([H])C([H])([H])N([H])C(=O)N4C([H])([H])C([H])([H])C([H])([H])C([H])(n5nc(-c6c([H])c([H])c(Oc7c([H])c([H])c(F)c([H])c7F)c([H])c6[H])c(C(=O)N([H])[H])c5N([H])[H])C4([H])[H])C([H])([H])C([H])([H])[N+]([H])([H])[H])C3([H])[H])c([H])c([H])c2C1([H])[H]

$$$$
12:0:0
     RDKit          3D

100109  0  0  1  0  0  0  0  0999 V2000
  -28.5820  -24.9480   24.3230 C   0  0  0  0  0  2  0  0  0  0  0  0
  -30.8120  -24.4550   23.2390 C   0  0  0  0  0  2  0  0  0  0  0  0
  -28.2380  -26.0010   23.2410 C   0  0  0  0  0  2  0  0  0  0  0  0
  -30.6940  -25.9480   22.8560 C   0  0  0  0  0  2  0  0  0  0  0  0
  -29.5090  -23.8270   23.8080 C   0  0  0  0  0  3  0  0  0  0  0  0
  -29.3600  -26.2690   22.2910 N   0  0  2  0  0  4  0  0  0  0  0  0
  -29.2250  -25.6260   21.5230 H   0  0  0  0  0  0  0  0  0  0  0  0
  -28.7720  -22.8860   22.8180 C   0  0  0  0  0  2  0  0  0  0  0  0
  -29.6270  -21.7760   22.3450 N   0  0  0  0  0  4  0  0  0  0  0  0
  -29.7810  -21.1270   23.1010 H   0  0  0  0  0  0  0  0  0  0  0  0
  -30.5210  -22.1600   22.0920 H   0  0  0  0  0  0  0  0  0  0  0  0
  -29.0970  -21.0480   21.1730 C   0  0  0  0  0  2  0  0  0  0  0  0
  -30.2140  -20.3000   20.4190 C   0  0  0  0  0  2  0  0  0  0  0  0
  -30.8430  -14.6530   20.4180 C   0  0  0  0  0  0  0  0  0  0  0  0
  -30.6370  -12.3970   19.4830 C   0  0  0  0  0  2  0  0  0  0  0  0
  -29.7440  -12.4950   18.2250 C   0  0  0  0  0  2  0  0  0  0  0  0
  -28.2540  -12.3820   18.5980 C   0  0  0  0  0  2  0  0  0  0  0  0
  -27.8520  -13.3100   19.7750 C   0  0  0  0  0  3  0  0  0  0  0  0
  -28.8620  -13.1950   20.9440 C   0  0  0  0  0  2  0  0  0  0  0  0
  -30.2100  -13.4530   20.4120 N   0  0  0  0  0  0  0  0  0  0  0  0
  -31.9980  -14.8270   20.0120 O   0  0  0  0  0  0  0  0  0  0  0  0
  -30.1600  -17.0030   20.0560 C   0  0  0  0  0  3  0  0  0  0  0  0
  -31.2600  -17.3970   19.1080 C   0  0  0  0  0  2  0  0  0  0  0  0
  -30.7150  -18.6860   18.4830 C   0  0  0  0  0  2  0  0  0  0  0  0
  -29.6680  -19.2130   19.4730 C   0  0  0  0  0  3  0  0  0  0  0  0
  -29.2940  -18.0160   20.2310 N   0  0  0  0  0  0  0  0  0  0  0  0
  -29.9860  -15.7850   20.6290 N   0  0  0  0  0  0  0  0  0  0  0  0
  -28.4440  -17.9860   20.7820 H   0  0  0  0  0  0  0  0  0  0  0  0
  -29.1060  -15.6580   21.0960 H   0  0  0  0  0  0  0  0  0  0  0  0
  -25.4380  -13.9480   20.4030 C   0  0  0  0  0  0  0  0  0  0  0  0
  -24.3530  -13.1870   20.7470 C   0  0  0  0  0  0  0  0  0  0  0  0
  -24.8040  -11.8320   20.7390 C   0  0  0  0  0  0  0  0  0  0  0  0
  -26.4830  -13.0540   20.2120 N   0  0  0  0  0  0  0  0  0  0  0  0
  -26.1020  -11.7780   20.4730 N   0  0  0  0  0  0  0  0  0  0  0  0
  -24.0620  -10.5760   20.9200 C   0  0  0  0  0  0  0  0  0  0  0  0
  -24.3630   -9.6870   21.9750 C   0  0  0  0  0  3  0  0  0  0  0  0
  -23.6250   -8.4940   22.1370 C   0  0  0  0  0  3  0  0  0  0  0  0
  -22.5730   -8.1840   21.2430 C   0  0  0  0  0  0  0  0  0  0  0  0
  -22.2920   -9.0620   20.1820 C   0  0  0  0  0  3  0  0  0  0  0  0
  -23.0310  -10.2460   20.0180 C   0  0  0  0  0  3  0  0  0  0  0  0
  -21.8190   -7.0360   21.3090 O   0  0  0  0  0  0  0  0  0  0  0  0
  -21.5120   -6.4440   22.5070 C   0  0  0  0  0  0  0  0  0  0  0  0
  -20.7760   -7.1200   23.5050 C   0  0  0  0  0  3  0  0  0  0  0  0
  -20.4210   -6.4510   24.6920 C   0  0  0  0  0  3  0  0  0  0  0  0
  -20.7940   -5.1050   24.8810 C   0  0  0  0  0  0  0  0  0  0  0  0
  -21.5240   -4.4300   23.8880 C   0  0  0  0  0  3  0  0  0  0  0  0
  -21.8780   -5.0980   22.7020 C   0  0  0  0  0  0  0  0  0  0  0  0
  -22.5620   -4.4350   21.7380 F   0  0  0  0  0  0  0  0  0  0  0  0
  -20.4480   -4.4610   26.0190 F   0  0  0  0  0  0  0  0  0  0  0  0
  -22.9540  -13.6780   20.9730 C   0  0  0  0  0  0  0  0  0  0  0  0
  -22.1880  -12.9790   21.8060 N   0  0  0  0  0  0  0  0  0  0  0  0
  -22.5430  -14.7100   20.4460 O   0  0  0  0  0  0  0  0  0  0  0  0
  -22.5340  -12.1410   22.2490 H   0  0  0  0  0  0  0  0  0  0  0  0
  -21.2490  -13.2880   22.0040 H   0  0  0  0  0  0  0  0  0  0  0  0
  -25.6210  -15.3160   20.2160 N   0  0  0  0  0  0  0  0  0  0  0  0
  -24.8470  -15.9680   20.2790 H   0  0  0  0  0  0  0  0  0  0  0  0
  -26.4540  -15.7270   19.8140 H   0  0  0  0  0  0  0  0  0  0  0  0
  -29.3040  -27.6130   21.6580 C   0  0  0  0  0  2  0  0  0  0  0  0
  -29.1630  -27.5150   20.1180 C   0  0  0  0  0  2  0  0  0  0  0  0
  -27.9010  -26.9940   19.6740 O   0  0  0  0  0  0  0  0  0  0  0  0
  -24.3370  -32.0080   23.2500 C   0  0  0  0  0  0  0  0  0  0  0  0
  -26.7660  -27.7730   19.7970 C   0  0  0  0  0  0  0  0  0  0  0  0
  -23.0040  -30.6950   21.6230 C   0  0  0  0  0  3  0  0  0  0  0  0
  -24.3490  -29.2320   20.0260 C   0  0  0  0  0  0  0  0  0  0  0  0
  -25.4960  -31.0910   21.2500 C   0  0  0  0  0  2  0  0  0  0  0  0
  -25.5360  -29.7560   20.5440 C   0  0  0  0  0  0  0  0  0  0  0  0
  -26.7440  -29.0500   20.4090 C   0  0  0  0  0  3  0  0  0  0  0  0
  -25.5590  -27.2520   19.2870 C   0  0  0  0  0  3  0  0  0  0  0  0
  -24.3530  -27.9800   19.3860 C   0  0  0  0  0  3  0  0  0  0  0  0
  -23.1100  -30.0810   20.1970 C   0  0  0  0  0  2  0  0  0  0  0  0
  -24.3020  -31.2740   22.1030 N   0  0  0  0  0  0  0  0  0  0  0  0
  -23.3010  -32.2530   23.8810 O   0  0  0  0  0  0  0  0  0  0  0  0
  -22.4150  -29.6310   22.5740 C   0  0  0  0  0  0  0  0  0  0  0  0
  -21.0940  -29.4120   22.4670 N   0  0  0  0  0  0  0  0  0  0  0  0
  -23.1400  -29.0060   23.3520 O   0  0  0  0  0  0  0  0  0  0  0  0
  -20.5740  -29.9670   21.8020 H   0  0  0  0  0  0  0  0  0  0  0  0
  -17.7760  -28.0680   22.9550 C   0  0  0  0  0  0  0  0  0  0  0  0
  -20.3210  -28.4310   23.2240 C   0  0  0  0  0  3  0  0  0  0  0  0
  -20.4820  -27.0140   22.6270 C   0  0  0  0  0  2  0  0  0  0  0  0
  -19.3930  -26.6580   21.6110 C   0  0  0  0  0  2  0  0  0  0  0  0
  -18.0080  -26.7360   22.2590 C   0  0  0  0  0  2  0  0  0  0  0  0
  -18.8640  -28.8720   23.3910 C   0  0  0  0  0  0  0  0  0  0  0  0
  -18.5950  -30.1190   23.9950 C   0  0  0  0  0  3  0  0  0  0  0  0
  -17.2700  -30.5640   24.1710 C   0  0  0  0  0  3  0  0  0  0  0  0
  -16.1990  -29.7580   23.7530 C   0  0  0  0  0  3  0  0  0  0  0  0
  -16.4520  -28.5110   23.1500 C   0  0  0  0  0  3  0  0  0  0  0  0
  -25.6730  -32.5930   23.8150 C   0  0  0  0  0  3  0  0  0  0  0  0
  -25.4370  -34.0030   24.1500 N   0  0  0  0  0  0  0  0  0  0  0  0
  -25.8130  -35.0370   23.3850 C   0  0  0  0  0  0  0  0  0  0  0  0
  -26.4760  -34.9010   22.3540 O   0  0  0  0  0  0  0  0  0  0  0  0
  -24.8720  -34.1890   24.9650 H   0  0  0  0  0  0  0  0  0  0  0  0
  -24.1850  -36.9090   22.9940 C   0  0  0  0  0  1  0  0  0  0  0  0
  -25.3840  -36.4470   23.8360 C   0  0  0  0  0  3  0  0  0  0  0  0
  -27.5420  -37.2150   24.7190 C   0  0  0  0  0  1  0  0  0  0  0  0
  -26.4700  -37.4470   23.7530 N   0  0  0  0  0  0  0  0  0  0  0  0
  -26.1080  -38.3850   23.9010 H   0  0  0  0  0  0  0  0  0  0  0  0
  -26.2180  -31.8020   25.0670 C   0  0  1  0  0  0  0  0  0  0  0  0
  -25.1640  -31.5860   26.1770 C   0  0  0  0  0  1  0  0  0  0  0  0
  -26.7480  -30.4130   24.6340 C   0  0  0  0  0  1  0  0  0  0  0  0
  -27.4180  -32.5570   25.6880 C   0  0  0  0  0  1  0  0  0  0  0  0
  2  5  1  0
  3  1  1  0
  4  2  1  0
  5  8  1  0
  5  1  1  0
  6  4  1  0
  6  3  1  0
  6  7  1  6
  9  8  1  0
  9 10  1  0
 11  9  1  0
 12  9  1  0
 13 12  1  0
 14 27  1  0
 15 20  1  0
 16 17  1  0
 16 15  1  0
 18 17  1  0
 18 33  1  0
 18 19  1  0
 20 14  1  0
 20 19  1  0
 21 14  2  0
 22 26  1  0
 22 27  1  0
 23 22  1  0
 24 23  1  0
 24 25  1  0
 25 26  1  0
 25 13  1  0
 26 28  1  0
 27 29  1  0
 30 31  2  0
 31 50  1  0
 32 31  1  0
 32 35  1  0
 33 30  1  0
 33 34  1  0
 34 32  2  0
 35 36  1  0
 36 37  2  0
 38 41  1  0
 38 37  1  0
 39 38  2  0
 40 39  1  0
 40 35  2  0
 41 42  1  0
 42 47  2  0
 42 43  1  0
 43 44  2  0
 44 45  1  0
 45 49  1  0
 46 45  2  0
 47 46  1  0
 48 47  1  0
 50 51  1  0
 51 54  1  0
 51 53  1  0
 52 50  2  0
 55 56  1  0
 55 30  1  0
 57 55  1  0
 58  6  1  0
 59 58  1  0
 60 62  1  0
 60 59  1  0
 61 72  2  0
 62 67  1  0
 63 71  1  0
 63 73  1  0
 64 70  1  0
 64 66  1  0
 65 71  1  0
 66 65  1  0
 67 66  2  0
 68 69  1  0
 68 62  2  0
 69 64  2  0
 70 63  1  0
 71 61  1  0
 73 75  2  0
 74 73  1  0
 76 74  1  0
 77 86  2  0
 77 82  1  0
 78 74  1  0
 78 82  1  0
 79 78  1  0
 80 81  1  0
 80 79  1  0
 81 77  1  0
 82 83  2  0
 83 84  1  0
 85 84  2  0
 86 85  1  0
 87 61  1  0
 87 88  1  0
 87 97  1  0
 88 91  1  0
 89 93  1  0
 89 88  1  0
 90 89  2  0
 93 92  1  0
 95 93  1  0
 95 96  1  0
 95 94  1  0
 97100  1  1
 97 98  1  0
 99 97  1  0
M  ISO  4  14 100  27 100  59 101  60 101
M  END
>  <TORSDO>  (12) 
F 22

>  <SCORE>  (12) 
-9.369

>  <name>  (12) 
12

>  <ligand_id>  (12) 
12

>  <original_smiles>  (12) 
[H]c1c([H])c([H])c2c(c1[H])C([H])([H])C([H])([H])C([H])([H])C2([H])N([H])C(=O)C1([H])N(C(=O)C([H])(N([H])C(=O)C([H])(N([H])C([H])([H])[H])C([H])([H])[H])C(C([H])([H])[H])(C([H])([H])[H])C([H])([H])[H])C([H])([H])c2c([H])c(OC([H])([H])C([H])([H])[N+]3([H])C([H])([H])C([H])([H])C([H])(C([H])([H])[N+]([H])([H])C([H])([H])C([H])([H])C4([H])[N+]([H])=C(N([H])C(=O)N5C([H])([H])C([H])([H])C([H])([H])C([H])(n6nc(-c7c([H])c([H])c(Oc8c([H])c([H])c(F)c([H])c8F)c([H])c7[H])c(C(=O)N([H])[H])c6N([H])[H])C5([H])[H])C([H])([H])C4([H])[H])C([H])([H])C3([H])[H])c([H])c([H])c2C1([H])[H]

>  <smiles>  (12) 
[H]c1c([H])c([H])c2c(c1[H])C([H])([H])C([H])([H])C([H])([H])C2([H])N([H])C(=O)C1([H])N(C(=O)C([H])(N([H])C(=O)C([H])(N([H])C([H])([H])[H])C([H])([H])[H])C(C([H])([H])[H])(C([H])([H])[H])C([H])([H])[H])C([H])([H])c2c([H])c(OC([H])([H])C([H])([H])[N+]3([H])C([H])([H])C([H])([H])C([H])(C([H])([H])[N+]([H])([H])C([H])([H])C([H])([H])C4([H])[N+]([H])=C(N([H])C(=O)N5C([H])([H])C([H])([H])C([H])([H])C([H])(n6nc(-c7c([H])c([H])c(Oc8c([H])c([H])c(F)c([H])c8F)c([H])c7[H])c(C(=O)N([H])[H])c6N([H])[H])C5([H])[H])C([H])([H])C4([H])[H])C([H])([H])C3([H])[H])c([H])c([H])c2C1([H])[H]

$$$$
13:0:0
     RDKit          3D

 97105  0  0  1  0  0  0  0  0999 V2000
  -31.2940  -23.4990   20.2250 C   0  0  0  0  0  2  0  0  0  0  0  0
  -29.9570  -23.5500   19.6030 N   0  0  0  0  0  4  0  0  0  0  0  0
  -29.2860  -23.3220   20.3190 H   0  0  0  0  0  0  0  0  0  0  0  0
  -29.8990  -22.8380   18.8920 H   0  0  0  0  0  0  0  0  0  0  0  0
  -29.5620  -24.8410   18.9980 C   0  0  0  0  0  2  0  0  0  0  0  0
  -29.2310  -25.8850   20.0790 C   0  0  0  0  0  2  0  0  0  0  0  0
  -30.4800  -26.6000   20.6200 C   0  0  0  0  0  2  0  0  0  0  0  0
  -30.8950  -27.8310   19.8190 C   0  0  0  0  0  2  0  0  0  0  0  0
  -32.1420  -27.4690   19.2560 O   0  0  0  0  0  0  0  0  0  0  0  0
  -28.9750  -25.5600   13.1380 C   0  0  0  0  0  0  0  0  0  0  0  0
  -32.1630  -26.8060   18.0560 C   0  0  0  0  0  0  0  0  0  0  0  0
  -31.0800  -24.3830   13.7050 C   0  0  0  0  0  3  0  0  0  0  0  0
  -32.4000  -25.3640   15.6490 C   0  0  0  0  0  0  0  0  0  0  0  0
  -30.6400  -26.7580   14.5400 C   0  0  0  0  0  2  0  0  0  0  0  0
  -31.4870  -26.4200   15.7450 C   0  0  0  0  0  0  0  0  0  0  0  0
  -31.3600  -27.1450   16.9440 C   0  0  0  0  0  3  0  0  0  0  0  0
  -33.0650  -25.7290   17.9560 C   0  0  0  0  0  3  0  0  0  0  0  0
  -33.1870  -25.0020   16.7570 C   0  0  0  0  0  3  0  0  0  0  0  0
  -32.4790  -24.6540   14.3200 C   0  0  0  0  0  2  0  0  0  0  0  0
  -30.1690  -25.5700   13.7930 N   0  0  0  0  0  0  0  0  0  0  0  0
  -28.6430  -24.5990   12.4300 O   0  0  0  0  0  0  0  0  0  0  0  0
  -30.4940  -23.1160   14.3640 C   0  0  0  0  0  0  0  0  0  0  0  0
  -30.8220  -21.9430   13.7990 N   0  0  0  0  0  0  0  0  0  0  0  0
  -29.7910  -23.1970   15.3750 O   0  0  0  0  0  0  0  0  0  0  0  0
  -31.3980  -21.9640   12.9690 H   0  0  0  0  0  0  0  0  0  0  0  0
  -31.5020  -18.4130   13.4600 C   0  0  0  0  0  0  0  0  0  0  0  0
  -30.4230  -20.6180   14.2680 C   0  0  0  0  0  3  0  0  0  0  0  0
  -31.0490  -20.3020   15.6460 C   0  0  0  0  0  2  0  0  0  0  0  0
  -32.3790  -19.5490   15.5470 C   0  0  0  0  0  2  0  0  0  0  0  0
  -32.1910  -18.2240   14.8010 C   0  0  0  0  0  2  0  0  0  0  0  0
  -30.6850  -19.5460   13.2040 C   0  0  0  0  0  0  0  0  0  0  0  0
  -30.0980  -19.6930   11.9290 C   0  0  0  0  0  3  0  0  0  0  0  0
  -30.3130  -18.7340   10.9220 C   0  0  0  0  0  3  0  0  0  0  0  0
  -31.1050  -17.6030   11.1870 C   0  0  0  0  0  3  0  0  0  0  0  0
  -31.6950  -17.4430   12.4550 C   0  0  0  0  0  3  0  0  0  0  0  0
  -27.9800  -26.7620   13.2260 C   0  0  0  0  0  3  0  0  0  0  0  0
  -26.8350  -26.5450   14.2910 C   0  0  1  0  0  0  0  0  0  0  0  0
  -25.8580  -25.4020   13.9310 C   0  0  0  0  0  1  0  0  0  0  0  0
  -27.4340  -26.2310   15.6820 C   0  0  0  0  0  1  0  0  0  0  0  0
  -26.0120  -27.8450   14.4510 C   0  0  0  0  0  1  0  0  0  0  0  0
  -27.4120  -26.9660   11.8880 N   0  0  0  0  0  0  0  0  0  0  0  0
  -27.4010  -28.1390   11.2400 C   0  0  0  0  0  0  0  0  0  0  0  0
  -27.8070  -29.1900   11.7450 O   0  0  0  0  0  0  0  0  0  0  0  0
  -27.1060  -26.1390   11.3960 H   0  0  0  0  0  0  0  0  0  0  0  0
  -27.9050  -28.7460    8.8540 C   0  0  0  0  0  1  0  0  0  0  0  0
  -26.8530  -28.1470    9.8000 C   0  0  0  0  0  3  0  0  0  0  0  0
  -24.4780  -28.2860   10.4130 C   0  0  0  0  0  1  0  0  0  0  0  0
  -25.5770  -28.8830    9.6590 N   0  0  0  0  0  0  0  0  0  0  0  0
  -25.3000  -28.9370    8.6820 H   0  0  0  0  0  0  0  0  0  0  0  0
  -31.4750  -22.1850   21.0080 C   0  0  0  0  0  2  0  0  0  0  0  0
  -30.2920  -21.8130   21.9220 C   0  0  0  0  0  2  0  0  0  0  0  0
  -29.7570  -20.3990   21.6130 C   0  0  0  0  0  2  0  0  0  0  0  0
  -30.8030  -19.3490   21.6680 N   0  0  0  0  0  4  0  0  0  0  0  0
  -31.6810  -19.7630   21.3980 H   0  0  0  0  0  0  0  0  0  0  0  0
  -30.8990  -19.0460   22.6250 H   0  0  0  0  0  0  0  0  0  0  0  0
  -29.9500  -14.8810   20.6040 C   0  0  0  0  0  0  0  0  0  0  0  0
  -28.9840  -12.7470   19.8350 C   0  0  0  0  0  2  0  0  0  0  0  0
  -28.8820  -11.6440   20.9030 C   0  0  0  0  0  2  0  0  0  0  0  0
  -30.1970  -10.8530   21.0010 C   0  0  0  0  0  2  0  0  0  0  0  0
  -31.4300  -11.7790   21.1520 C   0  0  0  0  0  3  0  0  0  0  0  0
  -31.4160  -12.8940   20.0860 C   0  0  0  0  0  2  0  0  0  0  0  0
  -30.1290  -13.6180   20.1330 N   0  0  0  0  0  0  0  0  0  0  0  0
  -28.8830  -15.2710   21.0910 O   0  0  0  0  0  0  0  0  0  0  0  0
  -31.0610  -17.1870   18.4750 C   0  0  0  0  0  2  0  0  0  0  0  0
  -31.1270  -18.4290   19.3820 C   0  0  0  0  0  2  0  0  0  0  0  0
  -31.6630  -15.9470   19.1630 C   0  0  0  0  0  2  0  0  0  0  0  0
  -31.2130  -16.8560   21.3740 C   0  0  0  0  0  2  0  0  0  0  0  0
  -30.5840  -18.1590   20.8050 C   0  0  0  0  0  3  0  0  0  0  0  0
  -31.0020  -15.7250   20.4600 N   0  0  0  0  0  0  0  0  0  0  0  0
  -33.8030  -11.1180   21.9120 C   0  0  0  0  0  0  0  0  0  0  0  0
  -34.6480  -10.1220   21.5070 C   0  0  0  0  0  0  0  0  0  0  0  0
  -33.9700   -9.4330   20.4550 C   0  0  0  0  0  0  0  0  0  0  0  0
  -32.6760  -11.0130   21.1120 N   0  0  0  0  0  0  0  0  0  0  0  0
  -32.8080  -10.0190   20.1950 N   0  0  0  0  0  0  0  0  0  0  0  0
  -34.3330   -8.2140   19.7210 C   0  0  0  0  0  0  0  0  0  0  0  0
  -34.9680   -8.2760   18.4610 C   0  0  0  0  0  3  0  0  0  0  0  0
  -35.3280   -7.0910   17.7830 C   0  0  0  0  0  3  0  0  0  0  0  0
  -35.0560   -5.8300   18.3630 C   0  0  0  0  0  0  0  0  0  0  0  0
  -34.4020   -5.7750   19.6070 C   0  0  0  0  0  3  0  0  0  0  0  0
  -34.0410   -6.9540   20.2780 C   0  0  0  0  0  3  0  0  0  0  0  0
  -35.3440   -4.6260   17.7650 O   0  0  0  0  0  0  0  0  0  0  0  0
  -36.4520   -3.8970   18.1130 C   0  0  0  0  0  0  0  0  0  0  0  0
  -36.3830   -2.8330   19.0390 C   0  0  0  0  0  3  0  0  0  0  0  0
  -37.5310   -2.0650   19.3170 C   0  0  0  0  0  3  0  0  0  0  0  0
  -38.7450   -2.3510   18.6630 C   0  0  0  0  0  0  0  0  0  0  0  0
  -38.8140   -3.4050   17.7360 C   0  0  0  0  0  3  0  0  0  0  0  0
  -37.6690   -4.1730   17.4590 C   0  0  0  0  0  0  0  0  0  0  0  0
  -37.7360   -5.1750   16.5490 F   0  0  0  0  0  0  0  0  0  0  0  0
  -39.8470   -1.6080   18.9230 F   0  0  0  0  0  0  0  0  0  0  0  0
  -35.9710   -9.7610   22.1220 C   0  0  0  0  0  0  0  0  0  0  0  0
  -37.0000   -9.5820   21.3030 N   0  0  0  0  0  0  0  0  0  0  0  0
  -36.1060   -9.6810   23.3440 O   0  0  0  0  0  0  0  0  0  0  0  0
  -36.8950   -9.6680   20.3020 H   0  0  0  0  0  0  0  0  0  0  0  0
  -37.9100   -9.3570   21.6790 H   0  0  0  0  0  0  0  0  0  0  0  0
  -33.8890  -12.0910   22.9050 N   0  0  0  0  0  0  0  0  0  0  0  0
  -34.6810  -12.1560   23.5330 H   0  0  0  0  0  0  0  0  0  0  0  0
  -33.1560  -12.7570   23.1160 H   0  0  0  0  0  0  0  0  0  0  0  0
  1 50  1  0
  2  1  1  0
  2  3  1  0
  4  2  1  0
  5  2  1  0
  5  6  1  0
  6  7  1  0
  8  7  1  0
  9  8  1  0
 10 20  1  0
 11  9  1  0
 12 20  1  0
 12 19  1  0
 12 22  1  0
 13 15  2  0
 13 18  1  0
 14 15  1  0
 15 16  1  0
 16 11  2  0
 17 11  1  0
 18 17  2  0
 19 13  1  0
 20 14  1  0
 21 10  2  0
 22 24  2  0
 23 22  1  0
 25 23  1  0
 26 30  1  0
 27 23  1  0
 27 28  1  0
 29 28  1  0
 30 29  1  0
 31 26  1  0
 31 27  1  0
 32 31  2  0
 33 34  2  0
 33 32  1  0
 34 35  1  0
 35 26  2  0
 36 10  1  0
 36 37  1  0
 37 40  1  1
 37 39  1  0
 38 37  1  0
 41 36  1  0
 42 43  2  0
 42 41  1  0
 44 41  1  0
 46 45  1  0
 46 42  1  0
 48 46  1  0
 48 47  1  0
 49 48  1  0
 50 51  1  0
 52 53  1  0
 52 51  1  0
 53 55  1  0
 54 53  1  0
 56 63  2  0
 57 62  1  0
 57 58  1  0
 58 59  1  0
 59 60  1  0
 60 61  1  0
 61 62  1  0
 62 56  1  0
 64 66  1  0
 64 65  1  0
 65 68  1  0
 66 69  1  0
 68 67  1  0
 68 53  1  0
 69 56  1  0
 69 67  1  0
 70 95  1  0
 71 70  2  0
 71 90  1  0
 72 71  1  0
 73 60  1  0
 73 70  1  0
 74 72  2  0
 74 73  1  0
 75 80  1  0
 75 72  1  0
 76 75  2  0
 77 78  2  0
 77 76  1  0
 78 79  1  0
 79 80  2  0
 81 82  1  0
 81 78  1  0
 82 83  1  0
 83 84  2  0
 85 89  1  0
 85 84  1  0
 86 85  2  0
 87 86  1  0
 87 82  2  0
 88 87  1  0
 90 92  2  0
 91 94  1  0
 91 90  1  0
 93 91  1  0
 95 97  1  0
 95 96  1  0
M  ISO  4   8 101   9 101  56 100  69 100
M  END
>  <TORSDO>  (13) 
F 25

>  <SCORE>  (13) 
-4.712

>  <name>  (13) 
13

>  <ligand_id>  (13) 
13

>  <original_smiles>  (13) 
[H]c1c([H])c([H])c2c(c1[H])C([H])([H])C([H])([H])C([H])([H])C2([H])N([H])C(=O)C1([H])N(C(=O)C([H])(N([H])C(=O)C([H])(N([H])C([H])([H])[H])C([H])([H])[H])C(C([H])([H])[H])(C([H])([H])[H])C([H])([H])[H])C([H])([H])c2c([H])c(OC([H])([H])C([H])([H])C([H])([H])C([H])([H])[N+]([H])([H])C([H])([H])C([H])([H])C([H])([H])C([H])([H])[N+]([H])([H])C3([H])C([H])([H])N(C(=O)N4C([H])([H])C([H])([H])C([H])([H])C([H])(n5nc(-c6c([H])c([H])c(Oc7c([H])c([H])c(F)c([H])c7F)c([H])c6[H])c(C(=O)N([H])[H])c5N([H])[H])C4([H])[H])C([H])([H])C([H])([H])C3([H])[H])c([H])c([H])c2C1([H])[H]

>  <smiles>  (13) 
[H]c1c([H])c([H])c2c(c1[H])C([H])([H])C([H])([H])C([H])([H])C2([H])N([H])C(=O)C1([H])N(C(=O)C([H])(N([H])C(=O)C([H])(N([H])C([H])([H])[H])C([H])([H])[H])C(C([H])([H])[H])(C([H])([H])[H])C([H])([H])[H])C([H])([H])c2c([H])c(OC([H])([H])C([H])([H])C([H])([H])C([H])([H])[N+]([H])([H])C([H])([H])C([H])([H])C([H])([H])C([H])([H])[N+]([H])([H])C3([H])C([H])([H])N(C(=O)N4C([H])([H])C([H])([H])C([H])([H])C([H])(n5nc(-c6c([H])c([H])c(Oc7c([H])c([H])c(F)c([H])c7F)c([H])c6[H])c(C(=O)N([H])[H])c5N([H])[H])C4([H])[H])C([H])([H])C([H])([H])C3([H])[H])c([H])c([H])c2C1([H])[H]

$$$$
14:0:0
     RDKit          3D

 92100  0  0  1  0  0  0  0  0999 V2000
  -29.7320  -20.6570   20.2900 C   0  0  0  0  0  2  0  0  0  0  0  0
  -29.6250  -20.0690   22.5620 C   0  0  0  0  0  2  0  0  0  0  0  0
  -30.8030  -19.5830   20.0120 C   0  0  0  0  0  2  0  0  0  0  0  0
  -30.6970  -18.9660   22.3770 C   0  0  0  0  0  2  0  0  0  0  0  0
  -29.9060  -21.1850   21.6500 N   0  0  0  0  0  0  0  0  0  0  0  0
  -30.7390  -18.4520   20.9790 N   0  0  2  0  0  4  0  0  0  0  0  0
  -29.8730  -17.9660   20.8080 H   0  0  0  0  0  0  0  0  0  0  0  0
  -29.0080  -22.3180   21.8950 C   0  0  0  0  0  2  0  0  0  0  0  0
  -29.6930  -23.6410   21.4910 C   0  0  0  0  0  2  0  0  0  0  0  0
  -28.7040  -24.8070   21.2830 C   0  0  0  0  0  2  0  0  0  0  0  0
  -29.3990  -26.1800   21.1430 C   0  0  0  0  0  2  0  0  0  0  0  0
  -28.9710  -26.8800   19.9790 O   0  0  0  0  0  0  0  0  0  0  0  0
  -24.8510  -31.7810   23.1540 C   0  0  0  0  0  0  0  0  0  0  0  0
  -27.7690  -27.5350   20.0640 C   0  0  0  0  0  0  0  0  0  0  0  0
  -23.7480  -30.3580   21.4550 C   0  0  0  0  0  3  0  0  0  0  0  0
  -25.3060  -28.9090   20.0460 C   0  0  0  0  0  0  0  0  0  0  0  0
  -26.2560  -30.8330   21.3300 C   0  0  0  0  0  2  0  0  0  0  0  0
  -26.4200  -29.4760   20.6800 C   0  0  0  0  0  0  0  0  0  0  0  0
  -27.6560  -28.7910   20.6990 C   0  0  0  0  0  3  0  0  0  0  0  0
  -26.6460  -26.9770   19.4230 C   0  0  0  0  0  3  0  0  0  0  0  0
  -25.4110  -27.6530   19.4200 C   0  0  0  0  0  3  0  0  0  0  0  0
  -24.0240  -29.7100   20.0720 C   0  0  0  0  0  2  0  0  0  0  0  0
  -24.9680  -31.0050   22.0400 N   0  0  0  0  0  0  0  0  0  0  0  0
  -23.7450  -31.9980   23.6690 O   0  0  0  0  0  0  0  0  0  0  0  0
  -23.1200  -29.2900   22.3800 C   0  0  0  0  0  0  0  0  0  0  0  0
  -21.8090  -29.0550   22.2150 N   0  0  0  0  0  0  0  0  0  0  0  0
  -23.8110  -28.6790   23.1980 O   0  0  0  0  0  0  0  0  0  0  0  0
  -21.3140  -29.6050   21.5280 H   0  0  0  0  0  0  0  0  0  0  0  0
  -18.4740  -27.7200   22.6080 C   0  0  0  0  0  0  0  0  0  0  0  0
  -21.0130  -28.0680   22.9430 C   0  0  0  0  0  3  0  0  0  0  0  0
  -21.1830  -26.6580   22.3360 C   0  0  0  0  0  2  0  0  0  0  0  0
  -20.1170  -26.3180   21.2900 C   0  0  0  0  0  2  0  0  0  0  0  0
  -18.7170  -26.3940   21.9060 C   0  0  0  0  0  2  0  0  0  0  0  0
  -19.5530  -28.5130   23.0800 C   0  0  0  0  0  0  0  0  0  0  0  0
  -19.2750  -29.7540   23.6920 C   0  0  0  0  0  3  0  0  0  0  0  0
  -17.9490  -30.2030   23.8400 C   0  0  0  0  0  3  0  0  0  0  0  0
  -16.8840  -29.4070   23.3850 C   0  0  0  0  0  3  0  0  0  0  0  0
  -17.1470  -28.1670   22.7750 C   0  0  0  0  0  3  0  0  0  0  0  0
  -26.0930  -32.4520   23.8190 C   0  0  0  0  0  3  0  0  0  0  0  0
  -25.7200  -33.8310   24.1580 N   0  0  0  0  0  0  0  0  0  0  0  0
  -26.0260  -34.9050   23.4160 C   0  0  0  0  0  0  0  0  0  0  0  0
  -26.7260  -34.8400   22.4010 O   0  0  0  0  0  0  0  0  0  0  0  0
  -25.0960  -33.9510   24.9420 H   0  0  0  0  0  0  0  0  0  0  0  0
  -24.2290  -36.6210   23.0450 C   0  0  0  0  0  1  0  0  0  0  0  0
  -25.4720  -36.2660   23.8760 C   0  0  0  0  0  3  0  0  0  0  0  0
  -27.5490  -37.2340   24.7570 C   0  0  0  0  0  1  0  0  0  0  0  0
  -26.4610  -37.3620   23.7900 N   0  0  0  0  0  0  0  0  0  0  0  0
  -26.0120  -38.2630   23.9380 H   0  0  0  0  0  0  0  0  0  0  0  0
  -26.6090  -31.6800   25.0950 C   0  0  1  0  0  0  0  0  0  0  0  0
  -25.4990  -31.3770   26.1280 C   0  0  0  0  0  1  0  0  0  0  0  0
  -27.2610  -30.3360   24.6940 C   0  0  0  0  0  1  0  0  0  0  0  0
  -27.7090  -32.5120   25.8000 C   0  0  0  0  0  1  0  0  0  0  0  0
  -31.8560  -17.4970   20.7280 C   0  0  0  0  0  2  0  0  0  0  0  0
  -31.7670  -16.1380   21.4660 C   0  0  0  0  0  2  0  0  0  0  0  0
  -31.2010  -14.3510   19.8280 C   0  0  0  0  0  0  0  0  0  0  0  0
  -30.7300  -12.2310   18.6540 C   0  0  0  0  0  2  0  0  0  0  0  0
  -29.7120  -12.4090   17.5120 C   0  0  0  0  0  2  0  0  0  0  0  0
  -28.2710  -12.2970   18.0450 C   0  0  0  0  0  2  0  0  0  0  0  0
  -28.0280  -13.1890   19.2910 C   0  0  0  0  0  3  0  0  0  0  0  0
  -29.1420  -12.9820   20.3390 C   0  0  0  0  0  2  0  0  0  0  0  0
  -30.4430  -13.2340   19.6910 N   0  0  0  0  0  0  0  0  0  0  0  0
  -32.1760  -14.6010   19.1130 O   0  0  0  0  0  0  0  0  0  0  0  0
  -30.8740  -15.1450   20.8590 N   0  0  0  0  0  0  0  0  0  0  0  0
  -30.0720  -14.8540   21.3990 H   0  0  0  0  0  0  0  0  0  0  0  0
  -25.7040  -13.8720   20.1670 C   0  0  0  0  0  0  0  0  0  0  0  0
  -24.6400  -13.1320   20.6090 C   0  0  0  0  0  0  0  0  0  0  0  0
  -25.0530  -11.7660   20.5400 C   0  0  0  0  0  0  0  0  0  0  0  0
  -26.7020  -12.9590   19.8600 N   0  0  0  0  0  0  0  0  0  0  0  0
  -26.3170  -11.6870   20.1400 N   0  0  0  0  0  0  0  0  0  0  0  0
  -24.3040  -10.5260   20.7790 C   0  0  0  0  0  0  0  0  0  0  0  0
  -24.7250   -9.5820   21.7410 C   0  0  0  0  0  3  0  0  0  0  0  0
  -23.9770   -8.4070   21.9650 C   0  0  0  0  0  3  0  0  0  0  0  0
  -22.7950   -8.1650   21.2260 C   0  0  0  0  0  0  0  0  0  0  0  0
  -22.3930   -9.0970   20.2520 C   0  0  0  0  0  3  0  0  0  0  0  0
  -23.1400  -10.2660   20.0270 C   0  0  0  0  0  3  0  0  0  0  0  0
  -22.0180   -7.0390   21.3570 O   0  0  0  0  0  0  0  0  0  0  0  0
  -21.9020   -6.3800   22.5540 C   0  0  0  0  0  0  0  0  0  0  0  0
  -21.4160   -7.0220   23.7140 C   0  0  0  0  0  3  0  0  0  0  0  0
  -21.2480   -6.2880   24.9060 C   0  0  0  0  0  3  0  0  0  0  0  0
  -21.5570   -4.9150   24.9380 C   0  0  0  0  0  0  0  0  0  0  0  0
  -22.0370   -4.2740   23.7830 C   0  0  0  0  0  3  0  0  0  0  0  0
  -22.2080   -5.0040   22.5930 C   0  0  0  0  0  0  0  0  0  0  0  0
  -22.6500   -4.3760   21.4770 F   0  0  0  0  0  0  0  0  0  0  0  0
  -21.3880   -4.2090   26.0800 F   0  0  0  0  0  0  0  0  0  0  0  0
  -23.2820  -13.6510   20.9840 C   0  0  0  0  0  0  0  0  0  0  0  0
  -22.6030  -12.9810   21.9090 N   0  0  0  0  0  0  0  0  0  0  0  0
  -22.8340  -14.6860   20.4900 O   0  0  0  0  0  0  0  0  0  0  0  0
  -22.9790  -12.1440   22.3290 H   0  0  0  0  0  0  0  0  0  0  0  0
  -21.6940  -13.3110   22.2010 H   0  0  0  0  0  0  0  0  0  0  0  0
  -25.9010  -15.2380   19.9800 N   0  0  0  0  0  0  0  0  0  0  0  0
  -25.1650  -15.9170   20.1360 H   0  0  0  0  0  0  0  0  0  0  0  0
  -26.7410  -15.6440   19.5870 H   0  0  0  0  0  0  0  0  0  0  0  0
  1  5  1  0
  3  1  1  0
  3  6  1  0
  4  2  1  0
  5  8  1  0
  5  2  1  0
  6  4  1  0
  6  7  1  6
  9  8  1  0
 10  9  1  0
 11 10  1  0
 12 14  1  0
 12 11  1  0
 13 24  2  0
 14 19  1  0
 15 23  1  0
 15 25  1  0
 16 22  1  0
 16 18  1  0
 17 23  1  0
 18 19  2  0
 18 17  1  0
 20 14  2  0
 21 20  1  0
 21 16  2  0
 22 15  1  0
 23 13  1  0
 25 27  2  0
 26 25  1  0
 28 26  1  0
 29 38  2  0
 29 34  1  0
 30 26  1  0
 30 34  1  0
 31 30  1  0
 32 33  1  0
 32 31  1  0
 33 29  1  0
 34 35  2  0
 35 36  1  0
 37 36  2  0
 38 37  1  0
 39 13  1  0
 39 40  1  0
 39 49  1  0
 40 43  1  0
 41 45  1  0
 41 40  1  0
 42 41  2  0
 45 44  1  0
 47 45  1  0
 47 48  1  0
 47 46  1  0
 49 52  1  1
 49 50  1  0
 51 49  1  0
 53  6  1  0
 53 54  1  0
 55 63  1  0
 56 61  1  0
 57 58  1  0
 57 56  1  0
 59 58  1  0
 59 68  1  0
 59 60  1  0
 61 55  1  0
 61 60  1  0
 62 55  2  0
 63 64  1  0
 63 54  1  0
 65 66  2  0
 66 85  1  0
 67 66  1  0
 67 70  1  0
 68 69  1  0
 68 65  1  0
 69 67  2  0
 70 71  1  0
 71 72  2  0
 73 76  1  0
 73 72  1  0
 74 73  2  0
 75 74  1  0
 75 70  2  0
 76 77  1  0
 77 82  2  0
 77 78  1  0
 78 79  2  0
 79 80  1  0
 80 84  1  0
 81 80  2  0
 82 81  1  0
 83 82  1  0
 85 86  1  0
 86 89  1  0
 86 88  1  0
 87 85  2  0
 90 91  1  0
 90 65  1  0
 92 90  1  0
M  ISO  4  11 101  12 101  55 100  63 100
M  END
>  <TORSDO>  (14) 
F 22

>  <SCORE>  (14) 
-10.750

>  <name>  (14) 
14

>  <ligand_id>  (14) 
14

>  <original_smiles>  (14) 
[H]c1c([H])c([H])c2c(c1[H])C([H])([H])C([H])([H])C([H])([H])C2([H])N([H])C(=O)C1([H])N(C(=O)C([H])(N([H])C(=O)C([H])(N([H])C([H])([H])[H])C([H])([H])[H])C(C([H])([H])[H])(C([H])([H])[H])C([H])([H])[H])C([H])([H])c2c([H])c(OC([H])([H])C([H])([H])C([H])([H])C([H])([H])N3C([H])([H])C([H])([H])[N+]([H])(C([H])([H])C([H])([H])N([H])C(=O)N4C([H])([H])C([H])([H])C([H])([H])C([H])(n5nc(-c6c([H])c([H])c(Oc7c([H])c([H])c(F)c([H])c7F)c([H])c6[H])c(C(=O)N([H])[H])c5N([H])[H])C4([H])[H])C([H])([H])C3([H])[H])c([H])c([H])c2C1([H])[H]

>  <smiles>  (14) 
[H]c1c([H])c([H])c2c(c1[H])C([H])([H])C([H])([H])C([H])([H])C2([H])N([H])C(=O)C1([H])N(C(=O)C([H])(N([H])C(=O)C([H])(N([H])C([H])([H])[H])C([H])([H])[H])C(C([H])([H])[H])(C([H])([H])[H])C([H])([H])[H])C([H])([H])c2c([H])c(OC([H])([H])C([H])([H])C([H])([H])C([H])([H])N3C([H])([H])C([H])([H])[N+]([H])(C([H])([H])C([H])([H])N([H])C(=O)N4C([H])([H])C([H])([H])C([H])([H])C([H])(n5nc(-c6c([H])c([H])c(Oc7c([H])c([H])c(F)c([H])c7F)c([H])c6[H])c(C(=O)N([H])[H])c5N([H])[H])C4([H])[H])C([H])([H])C3([H])[H])c([H])c([H])c2C1([H])[H]

$$$$
15:0:0
     RDKit          3D

 95103  0  0  1  0  0  0  0  0999 V2000
  -28.5810  -22.9430   19.9010 C   0  0  2  0  0  0  0  0  0  0  0  0
  -29.9710  -23.2560   19.6010 N   0  0  0  0  0  0  0  0  0  0  0  0
  -30.0440  -24.2700   19.5560 H   0  0  0  0  0  0  0  0  0  0  0  0
  -30.1890  -22.9590   18.6560 H   0  0  0  0  0  0  0  0  0  0  0  0
  -28.6680  -21.3610   20.6700 C   0  0  0  0  0  2  0  0  0  0  0  0
  -30.5350  -15.1550   20.0350 C   0  0  0  0  0  0  0  0  0  0  0  0
  -30.3270  -12.7860   19.0910 C   0  0  0  0  0  2  0  0  0  0  0  0
  -29.3600  -12.6610   17.8920 C   0  0  0  0  0  2  0  0  0  0  0  0
  -27.9220  -12.4210   18.3830 C   0  0  0  0  0  2  0  0  0  0  0  0
  -27.5420  -13.3530   19.5620 C   0  0  0  0  0  3  0  0  0  0  0  0
  -28.6410  -13.4600   20.6410 C   0  0  0  0  0  2  0  0  0  0  0  0
  -29.8550  -13.9210   19.9560 N   0  0  0  0  0  0  0  0  0  0  0  0
  -31.7470  -15.0540   19.7970 O   0  0  0  0  0  0  0  0  0  0  0  0
  -28.5660  -17.0790   20.1520 C   0  0  0  0  0  2  0  0  0  0  0  0
  -30.8160  -17.7640   19.8620 C   0  0  0  0  0  2  0  0  0  0  0  0
  -28.1980  -18.6660   20.5110 C   0  0  0  0  0  2  0  0  0  0  0  0
  -30.4330  -19.2900   20.3540 C   0  0  0  0  0  2  0  0  0  0  0  0
  -29.9740  -16.5140   20.1290 N   0  0  0  0  0  0  0  0  0  0  0  0
  -29.0550  -19.8720   20.0740 N   0  0  2  0  0  4  0  0  0  0  0  0
  -28.9740  -19.9350   19.0720 H   0  0  0  0  0  0  0  0  0  0  0  0
  -25.1990  -13.8950   20.4060 C   0  0  0  0  0  0  0  0  0  0  0  0
  -24.1570  -13.1070   20.8100 C   0  0  0  0  0  0  0  0  0  0  0  0
  -24.6320  -11.7610   20.7540 C   0  0  0  0  0  0  0  0  0  0  0  0
  -26.2380  -13.0270   20.1220 N   0  0  0  0  0  0  0  0  0  0  0  0
  -25.9120  -11.7380   20.4000 N   0  0  0  0  0  0  0  0  0  0  0  0
  -23.9190  -10.4930   20.9590 C   0  0  0  0  0  0  0  0  0  0  0  0
  -24.3730   -9.5300   21.8870 C   0  0  0  0  0  3  0  0  0  0  0  0
  -23.6550   -8.3310   22.0810 C   0  0  0  0  0  3  0  0  0  0  0  0
  -22.4700   -8.0850   21.3510 C   0  0  0  0  0  0  0  0  0  0  0  0
  -22.0350   -9.0350   20.4100 C   0  0  0  0  0  3  0  0  0  0  0  0
  -22.7530  -10.2260   20.2130 C   0  0  0  0  0  3  0  0  0  0  0  0
  -21.7240   -6.9350   21.4560 O   0  0  0  0  0  0  0  0  0  0  0  0
  -21.6880   -6.2030   22.6150 C   0  0  0  0  0  0  0  0  0  0  0  0
  -21.2480   -6.7590   23.8360 C   0  0  0  0  0  3  0  0  0  0  0  0
  -21.1610   -5.9510   24.9870 C   0  0  0  0  0  3  0  0  0  0  0  0
  -21.5050   -4.5890   24.9210 C   0  0  0  0  0  0  0  0  0  0  0  0
  -21.9390   -4.0320   23.7040 C   0  0  0  0  0  3  0  0  0  0  0  0
  -22.0270   -4.8360   22.5550 C   0  0  0  0  0  0  0  0  0  0  0  0
  -22.4240   -4.2890   21.3820 F   0  0  0  0  0  0  0  0  0  0  0  0
  -21.4160   -3.8110   26.0240 F   0  0  0  0  0  0  0  0  0  0  0  0
  -22.7670  -13.5740   21.1250 C   0  0  0  0  0  0  0  0  0  0  0  0
  -22.0720  -12.8740   22.0110 N   0  0  0  0  0  0  0  0  0  0  0  0
  -22.3090  -14.5990   20.6200 O   0  0  0  0  0  0  0  0  0  0  0  0
  -22.4520  -12.0430   22.4410 H   0  0  0  0  0  0  0  0  0  0  0  0
  -21.1390  -13.1690   22.2630 H   0  0  0  0  0  0  0  0  0  0  0  0
  -25.3430  -15.2670   20.2240 N   0  0  0  0  0  0  0  0  0  0  0  0
  -24.5670  -15.9090   20.3470 H   0  0  0  0  0  0  0  0  0  0  0  0
  -26.1550  -15.6990   19.8060 H   0  0  0  0  0  0  0  0  0  0  0  0
  -27.8210  -22.8000   18.5520 C   0  0  0  0  0  2  0  0  0  0  0  0
  -26.3730  -22.5380   18.6980 N   0  0  0  0  0  4  0  0  0  0  0  0
  -26.1870  -21.6300   19.0790 H   0  0  0  0  0  0  0  0  0  0  0  0
  -25.9470  -22.5710   17.7860 H   0  0  0  0  0  0  0  0  0  0  0  0
  -25.9160  -23.2240   19.2680 H   0  0  0  0  0  0  0  0  0  0  0  0
  -28.0130  -24.4590   20.6060 C   0  0  0  0  0  2  0  0  0  0  0  0
  -28.2460  -26.0170   20.2650 O   0  0  0  0  0  0  0  0  0  0  0  0
  -24.6260  -31.8630   23.2400 C   0  0  0  0  0  0  0  0  0  0  0  0
  -27.2130  -27.0590   20.2520 C   0  0  0  0  0  0  0  0  0  0  0  0
  -23.4430  -30.4590   21.6010 C   0  0  0  0  0  3  0  0  0  0  0  0
  -24.9020  -28.8700   20.1870 C   0  0  0  0  0  0  0  0  0  0  0  0
  -26.0030  -30.7060   21.4510 C   0  0  0  0  0  2  0  0  0  0  0  0
  -26.0830  -29.3010   20.8070 C   0  0  0  0  0  0  0  0  0  0  0  0
  -27.2400  -28.4150   20.8150 C   0  0  0  0  0  3  0  0  0  0  0  0
  -26.0080  -26.7590   19.5840 C   0  0  0  0  0  3  0  0  0  0  0  0
  -24.8830  -27.6180   19.5550 C   0  0  0  0  0  3  0  0  0  0  0  0
  -23.6770  -29.7780   20.2240 C   0  0  0  0  0  2  0  0  0  0  0  0
  -24.7120  -31.0350   22.1510 N   0  0  0  0  0  0  0  0  0  0  0  0
  -23.5360  -32.1470   23.7580 O   0  0  0  0  0  0  0  0  0  0  0  0
  -22.7590  -29.4560   22.5640 C   0  0  0  0  0  0  0  0  0  0  0  0
  -21.4290  -29.2910   22.4410 N   0  0  0  0  0  0  0  0  0  0  0  0
  -23.4280  -28.8270   23.3860 O   0  0  0  0  0  0  0  0  0  0  0  0
  -20.9400  -29.8570   21.7620 H   0  0  0  0  0  0  0  0  0  0  0  0
  -18.0500  -28.0740   22.9510 C   0  0  0  0  0  0  0  0  0  0  0  0
  -20.6100  -28.3450   23.2040 C   0  0  0  0  0  3  0  0  0  0  0  0
  -20.7170  -26.9200   22.6150 C   0  0  0  0  0  2  0  0  0  0  0  0
  -19.6020  -26.5850   21.6180 C   0  0  0  0  0  2  0  0  0  0  0  0
  -18.2310  -26.7220   22.2830 C   0  0  0  0  0  2  0  0  0  0  0  0
  -19.1680  -28.8420   23.3740 C   0  0  0  0  0  0  0  0  0  0  0  0
  -18.9450  -30.1020   23.9690 C   0  0  0  0  0  3  0  0  0  0  0  0
  -17.6390  -30.5970   24.1420 C   0  0  0  0  0  3  0  0  0  0  0  0
  -16.5360  -29.8290   23.7280 C   0  0  0  0  0  3  0  0  0  0  0  0
  -16.7420  -28.5690   23.1370 C   0  0  0  0  0  3  0  0  0  0  0  0
  -25.8960  -32.5090   23.8740 C   0  0  0  0  0  3  0  0  0  0  0  0
  -25.5790  -33.9120   24.1910 N   0  0  0  0  0  0  0  0  0  0  0  0
  -25.9150  -34.9640   23.4320 C   0  0  0  0  0  0  0  0  0  0  0  0
  -26.5900  -34.8560   22.4050 O   0  0  0  0  0  0  0  0  0  0  0  0
  -24.9810  -34.0690   24.9890 H   0  0  0  0  0  0  0  0  0  0  0  0
  -24.1900  -36.7620   23.0670 C   0  0  0  0  0  1  0  0  0  0  0  0
  -25.4270  -36.3570   23.8840 C   0  0  0  0  0  3  0  0  0  0  0  0
  -27.5560  -37.2480   24.7250 C   0  0  0  0  0  1  0  0  0  0  0  0
  -26.4600  -37.4090   23.7720 N   0  0  0  0  0  0  0  0  0  0  0  0
  -26.0540  -38.3290   23.9120 H   0  0  0  0  0  0  0  0  0  0  0  0
  -26.3950  -31.7540   25.1680 C   0  0  1  0  0  0  0  0  0  0  0  0
  -25.2880  -31.5330   26.2240 C   0  0  0  0  0  1  0  0  0  0  0  0
  -26.9810  -30.3690   24.8110 C   0  0  0  0  0  1  0  0  0  0  0  0
  -27.5370  -32.5570   25.8350 C   0  0  0  0  0  1  0  0  0  0  0  0
  1 49  1  6
  1 54  1  0
  1  5  1  0
  2  1  1  0
  3  2  1  0
  4  2  1  0
  6 18  1  0
  7 12  1  0
  8  9  1  0
  8  7  1  0
 10  9  1  0
 10 24  1  0
 10 11  1  0
 12  6  1  0
 12 11  1  0
 13  6  2  0
 14 16  1  0
 15 18  1  0
 15 17  1  0
 18 14  1  0
 19 17  1  0
 19 16  1  0
 19  5  1  0
 19 20  1  6
 21 22  2  0
 22 41  1  0
 23 22  1  0
 23 26  1  0
 24 25  1  0
 24 21  1  0
 25 23  2  0
 26 27  1  0
 27 28  2  0
 29 32  1  0
 29 28  1  0
 30 29  2  0
 31 30  1  0
 31 26  2  0
 32 33  1  0
 33 34  1  0
 34 35  2  0
 36 35  1  0
 36 40  1  0
 37 36  2  0
 38 33  2  0
 38 37  1  0
 39 38  1  0
 41 42  1  0
 42 45  1  0
 42 44  1  0
 43 41  2  0
 46 47  1  0
 46 21  1  0
 48 46  1  0
 49 50  1  0
 50 51  1  0
 50 53  1  0
 52 50  1  0
 55 54  1  0
 56 67  2  0
 57 55  1  0
 57 62  1  0
 58 66  1  0
 58 68  1  0
 59 65  1  0
 59 61  1  0
 60 66  1  0
 61 62  2  0
 61 60  1  0
 63 57  2  0
 64 63  1  0
 64 59  2  0
 65 58  1  0
 66 56  1  0
 68 70  2  0
 69 68  1  0
 71 69  1  0
 72 81  2  0
 72 77  1  0
 73 69  1  0
 73 77  1  0
 74 73  1  0
 75 76  1  0
 75 74  1  0
 76 72  1  0
 77 78  2  0
 78 79  1  0
 80 79  2  0
 81 80  1  0
 82 56  1  0
 82 83  1  0
 82 92  1  0
 83 86  1  0
 84 88  1  0
 84 83  1  0
 85 84  2  0
 88 87  1  0
 90 88  1  0
 90 91  1  0
 90 89  1  0
 92 95  1  1
 92 93  1  0
 94 92  1  0
M  ISO  4   6 100  18 100  54 101  55 101
M  END
>  <TORSDO>  (15) 
F 21

>  <SCORE>  (15) 
-15.123

>  <name>  (15) 
15

>  <ligand_id>  (15) 
15

>  <original_smiles>  (15) 
[H]c1c([H])c([H])c2c(c1[H])C([H])([H])C([H])([H])C([H])([H])C2([H])N([H])C(=O)C1([H])N(C(=O)C([H])(N([H])C(=O)C([H])(N([H])C([H])([H])[H])C([H])([H])[H])C(C([H])([H])[H])(C([H])([H])[H])C([H])([H])[H])C([H])([H])c2c([H])c(OC([H])([H])C(N([H])[H])(C([H])([H])[N+]([H])([H])[H])C([H])([H])[N+]3([H])C([H])([H])C([H])([H])N(C(=O)N4C([H])([H])C([H])([H])C([H])([H])C([H])(n5nc(-c6c([H])c([H])c(Oc7c([H])c([H])c(F)c([H])c7F)c([H])c6[H])c(C(=O)N([H])[H])c5N([H])[H])C4([H])[H])C([H])([H])C3([H])[H])c([H])c([H])c2C1([H])[H]

>  <smiles>  (15) 
[H]c1c([H])c([H])c2c(c1[H])C([H])([H])C([H])([H])C([H])([H])C2([H])N([H])C(=O)C1([H])N(C(=O)C([H])(N([H])C(=O)C([H])(N([H])C([H])([H])[H])C([H])([H])[H])C(C([H])([H])[H])(C([H])([H])[H])C([H])([H])[H])C([H])([H])c2c([H])c(OC([H])([H])C(N([H])[H])(C([H])([H])[N+]([H])([H])[H])C([H])([H])[N+]3([H])C([H])([H])C([H])([H])N(C(=O)N4C([H])([H])C([H])([H])C([H])([H])C([H])(n5nc(-c6c([H])c([H])c(Oc7c([H])c([H])c(F)c([H])c7F)c([H])c6[H])c(C(=O)N([H])[H])c5N([H])[H])C4([H])[H])C([H])([H])C3([H])[H])c([H])c([H])c2C1([H])[H]

$$$$
16:0:0
     RDKit          3D

 99108  0  0  1  0  0  0  0  0999 V2000
  -30.9990  -14.6950   20.1850 C   0  0  0  0  0  0  0  0  0  0  0  0
  -30.5150  -12.4290   19.2820 C   0  0  0  0  0  2  0  0  0  0  0  0
  -29.6220  -12.4880   18.0310 C   0  0  0  0  0  2  0  0  0  0  0  0
  -28.1580  -12.3560   18.4690 C   0  0  0  0  0  2  0  0  0  0  0  0
  -27.7990  -13.3160   19.6360 C   0  0  0  0  0  3  0  0  0  0  0  0
  -28.8580  -13.3410   20.7660 C   0  0  0  0  0  2  0  0  0  0  0  0
  -30.1600  -13.5960   20.1430 N   0  0  0  0  0  0  0  0  0  0  0  0
  -32.1550  -14.4770   19.8180 O   0  0  0  0  0  0  0  0  0  0  0  0
  -30.7980  -19.9060   16.8800 C   0  0  0  0  0  2  0  0  0  0  0  0
  -29.4450  -20.1890   17.5990 C   0  0  0  0  0  2  0  0  0  0  0  0
  -31.9190  -16.8610   20.7210 C   0  0  0  0  0  2  0  0  0  0  0  0
  -31.4840  -18.5540   17.2730 C   0  0  0  0  0  2  0  0  0  0  0  0
  -32.4020  -17.3510   19.3270 C   0  0  0  0  0  2  0  0  0  0  0  0
  -29.6190  -19.9280   19.1210 C   0  0  0  0  0  3  0  0  0  0  0  0
  -30.0650  -18.3550   19.2870 C   0  0  0  0  0  3  0  0  0  0  0  0
  -29.6120  -17.0510   20.2030 C   0  0  0  0  0  3  0  0  0  0  0  0
  -30.7010  -16.0310   20.5560 N   0  0  0  0  0  0  0  0  0  0  0  0
  -31.4610  -18.3360   18.7560 N   0  0  2  0  0  4  0  0  0  0  0  0
  -31.8670  -19.1910   19.1080 H   0  0  0  0  0  0  0  0  0  0  0  0
  -25.4350  -13.9450   20.3810 C   0  0  0  0  0  0  0  0  0  0  0  0
  -24.3590  -13.1940   20.7620 C   0  0  0  0  0  0  0  0  0  0  0  0
  -24.7970  -11.8360   20.7450 C   0  0  0  0  0  0  0  0  0  0  0  0
  -26.4600  -13.0470   20.1470 N   0  0  0  0  0  0  0  0  0  0  0  0
  -26.0880  -11.7720   20.4380 N   0  0  0  0  0  0  0  0  0  0  0  0
  -24.0460  -10.5890   20.9470 C   0  0  0  0  0  0  0  0  0  0  0  0
  -24.4760   -9.6040   21.8640 C   0  0  0  0  0  3  0  0  0  0  0  0
  -23.7240   -8.4250   22.0540 C   0  0  0  0  0  3  0  0  0  0  0  0
  -22.5250   -8.2230   21.3270 C   0  0  0  0  0  0  0  0  0  0  0  0
  -22.1160   -9.1920   20.3940 C   0  0  0  0  0  3  0  0  0  0  0  0
  -22.8700  -10.3630   20.2010 C   0  0  0  0  0  3  0  0  0  0  0  0
  -21.7440   -7.0960   21.4320 O   0  0  0  0  0  0  0  0  0  0  0  0
  -21.7330   -6.3300   22.5700 C   0  0  0  0  0  0  0  0  0  0  0  0
  -21.4000   -6.8710   23.8310 C   0  0  0  0  0  3  0  0  0  0  0  0
  -21.3320   -6.0300   24.9610 C   0  0  0  0  0  3  0  0  0  0  0  0
  -21.5880   -4.6520   24.8320 C   0  0  0  0  0  0  0  0  0  0  0  0
  -21.9160   -4.1120   23.5750 C   0  0  0  0  0  3  0  0  0  0  0  0
  -21.9840   -4.9480   22.4470 C   0  0  0  0  0  0  0  0  0  0  0  0
  -22.2790   -4.4180   21.2360 F   0  0  0  0  0  0  0  0  0  0  0  0
  -21.5150   -3.8440   25.9150 F   0  0  0  0  0  0  0  0  0  0  0  0
  -22.9700  -13.7020   21.0190 C   0  0  0  0  0  0  0  0  0  0  0  0
  -22.2340  -13.0470   21.9100 N   0  0  0  0  0  0  0  0  0  0  0  0
  -22.5500  -14.7160   20.4620 O   0  0  0  0  0  0  0  0  0  0  0  0
  -22.5880  -12.2320   22.3850 H   0  0  0  0  0  0  0  0  0  0  0  0
  -21.3020  -13.3720   22.1250 H   0  0  0  0  0  0  0  0  0  0  0  0
  -25.6220  -15.3090   20.1810 N   0  0  0  0  0  0  0  0  0  0  0  0
  -24.8310  -15.9420   20.2190 H   0  0  0  0  0  0  0  0  0  0  0  0
  -26.4120  -15.6910   19.6790 H   0  0  0  0  0  0  0  0  0  0  0  0
  -29.2200  -21.1080   20.1110 C   0  0  0  0  0  0  0  0  0  0  0  0
  -29.1910  -22.3990   19.6160 N   0  0  0  0  0  0  0  0  0  0  0  0
  -29.0750  -20.8550   21.3090 O   0  0  0  0  0  0  0  0  0  0  0  0
  -29.2960  -22.4490   18.6100 H   0  0  0  0  0  0  0  0  0  0  0  0
  -29.2720  -23.7640   20.2760 C   0  0  0  0  0  3  0  0  0  0  0  0
  -28.4550  -24.9600   19.5880 C   0  0  0  0  0  3  0  0  0  0  0  0
  -28.6600  -26.4040   19.9400 O   0  0  0  0  0  0  0  0  0  0  0  0
  -24.7870  -31.5950   23.1790 C   0  0  0  0  0  0  0  0  0  0  0  0
  -27.5630  -27.2910   19.8760 C   0  0  0  0  0  0  0  0  0  0  0  0
  -23.6670  -30.3100   21.3990 C   0  0  0  0  0  3  0  0  0  0  0  0
  -25.1900  -28.9020   19.9040 C   0  0  0  0  0  0  0  0  0  0  0  0
  -26.2090  -30.6690   21.3320 C   0  0  0  0  0  2  0  0  0  0  0  0
  -26.3310  -29.3450   20.5820 C   0  0  0  0  0  0  0  0  0  0  0  0
  -27.5230  -28.5520   20.5590 C   0  0  0  0  0  3  0  0  0  0  0  0
  -26.4060  -26.9380   19.1410 C   0  0  0  0  0  3  0  0  0  0  0  0
  -25.2330  -27.7100   19.1700 C   0  0  0  0  0  3  0  0  0  0  0  0
  -23.9410  -29.7530   19.9780 C   0  0  0  0  0  2  0  0  0  0  0  0
  -24.9050  -30.8700   22.0280 N   0  0  0  0  0  0  0  0  0  0  0  0
  -23.6810  -31.8120   23.6930 O   0  0  0  0  0  0  0  0  0  0  0  0
  -22.9900  -29.2080   22.2500 C   0  0  0  0  0  0  0  0  0  0  0  0
  -21.6600  -29.0610   22.1050 N   0  0  0  0  0  0  0  0  0  0  0  0
  -23.6570  -28.4960   23.0050 O   0  0  0  0  0  0  0  0  0  0  0  0
  -21.1810  -29.6890   21.4760 H   0  0  0  0  0  0  0  0  0  0  0  0
  -18.2620  -27.8860   22.5060 C   0  0  0  0  0  0  0  0  0  0  0  0
  -20.8260  -28.0620   22.7780 C   0  0  0  0  0  3  0  0  0  0  0  0
  -20.8930  -26.6980   22.0530 C   0  0  0  0  0  2  0  0  0  0  0  0
  -19.7780  -26.5060   21.0200 C   0  0  0  0  0  2  0  0  0  0  0  0
  -18.4060  -26.6120   21.6880 C   0  0  0  0  0  2  0  0  0  0  0  0
  -19.3990  -28.5760   23.0030 C   0  0  0  0  0  0  0  0  0  0  0  0
  -19.2120  -29.7730   23.7270 C   0  0  0  0  0  3  0  0  0  0  0  0
  -17.9180  -30.2800   23.9570 C   0  0  0  0  0  3  0  0  0  0  0  0
  -16.7960  -29.5830   23.4770 C   0  0  0  0  0  3  0  0  0  0  0  0
  -16.9680  -28.3870   22.7590 C   0  0  0  0  0  3  0  0  0  0  0  0
  -26.0350  -32.2000   23.8930 C   0  0  0  0  0  3  0  0  0  0  0  0
  -26.5140  -31.3480   25.1330 C   0  0  1  0  0  0  0  0  0  0  0  0
  -25.3860  -31.0390   26.1440 C   0  0  0  0  0  1  0  0  0  0  0  0
  -27.1200  -30.0030   24.6730 C   0  0  0  0  0  1  0  0  0  0  0  0
  -27.6340  -32.1050   25.8870 C   0  0  0  0  0  1  0  0  0  0  0  0
  -25.6910  -33.5670   24.3080 N   0  0  0  0  0  0  0  0  0  0  0  0
  -26.0370  -34.6760   23.6400 C   0  0  0  0  0  0  0  0  0  0  0  0
  -26.7510  -34.6550   22.6340 O   0  0  0  0  0  0  0  0  0  0  0  0
  -25.0750  -33.6580   25.1030 H   0  0  0  0  0  0  0  0  0  0  0  0
  -24.2930  -36.4630   23.3470 C   0  0  0  0  0  1  0  0  0  0  0  0
  -25.5110  -36.0210   24.1750 C   0  0  0  0  0  3  0  0  0  0  0  0
  -27.6020  -36.8770   25.1410 C   0  0  0  0  0  1  0  0  0  0  0  0
  -26.5300  -37.0950   24.1730 N   0  0  0  0  0  0  0  0  0  0  0  0
  -26.1040  -37.9980   24.3690 H   0  0  0  0  0  0  0  0  0  0  0  0
  -28.6510  -17.3730   21.3800 C   0  0  0  0  0  2  0  0  0  0  0  0
  -29.1990  -18.2640   22.4240 N   0  0  0  0  0  4  0  0  0  0  0  0
  -28.5300  -18.3390   23.1710 H   0  0  0  0  0  0  0  0  0  0  0  0
  -29.3330  -19.2080   22.0780 H   0  0  0  0  0  0  0  0  0  0  0  0
  -30.0500  -17.9110   22.8240 H   0  0  0  0  0  0  0  0  0  0  0  0
  1 17  1  0
  2  7  1  0
  3  4  1  0
  3  2  1  0
  5  4  1  0
  5 23  1  0
  5  6  1  0
  7  1  1  0
  7  6  1  0
  8  1  2  0
  9 12  1  0
  9 10  1  0
 10 14  1  0
 12 18  1  0
 13 11  1  0
 14 15  1  0
 14 48  1  0
 15 16  1  0
 16 17  1  0
 16 95  1  0
 17 11  1  0
 18 19  1  1
 18 15  1  0
 18 13  1  0
 20 21  2  0
 21 40  1  0
 22 21  1  0
 22 25  1  0
 23 20  1  0
 23 24  1  0
 24 22  2  0
 25 26  1  0
 26 27  2  0
 28 31  1  0
 28 27  1  0
 29 28  2  0
 30 29  1  0
 30 25  2  0
 31 32  1  0
 32 33  1  0
 33 34  2  0
 35 34  1  0
 35 39  1  0
 36 35  2  0
 37 32  2  0
 37 36  1  0
 38 37  1  0
 40 41  1  0
 41 44  1  0
 41 43  1  0
 42 40  2  0
 45 46  1  0
 45 20  1  0
 47 45  1  0
 48 50  2  0
 49 48  1  0
 49 52  1  0
 51 49  1  0
 53 54  1  0
 53 52  2  0
 55 66  2  0
 55 81  1  0
 56 54  1  0
 56 61  1  0
 57 65  1  0
 57 67  1  0
 58 64  1  0
 58 60  1  0
 59 65  1  0
 60 59  1  0
 61 60  2  0
 62 63  1  0
 62 56  2  0
 63 58  2  0
 64 57  1  0
 65 55  1  0
 67 69  2  0
 68 67  1  0
 68 72  1  0
 70 68  1  0
 71 80  2  0
 71 76  1  0
 72 76  1  0
 73 72  1  0
 74 75  1  0
 74 73  1  0
 75 71  1  0
 76 77  2  0
 77 78  1  0
 79 78  2  0
 80 79  1  0
 81 86  1  0
 81 82  1  0
 82 85  1  1
 82 83  1  0
 84 82  1  0
 86 89  1  0
 87 91  1  0
 87 86  1  0
 88 87  2  0
 90 91  1  0
 93 91  1  0
 93 94  1  0
 93 92  1  0
 95 96  1  0
 96 99  1  0
 96 97  1  0
 98 96  1  0
M  ISO  4   1 100  17 100  53 101  54 101
M  END
>  <TORSDO>  (16) 
F 20

>  <SCORE>  (16) 
-11.362

>  <name>  (16) 
16

>  <ligand_id>  (16) 
16

>  <original_smiles>  (16) 
[H]c1c([H])c([H])c2c(c1[H])C([H])([H])C([H])([H])C([H])([H])C2([H])N([H])C(=O)C1([H])N(C(=O)C([H])(N([H])C(=O)C([H])(N([H])C([H])([H])[H])C([H])([H])[H])C(C([H])([H])[H])(C([H])([H])[H])C([H])([H])[H])C([H])([H])c2c([H])c(OC([H])([H])C([H])([H])N([H])C(=O)C3([H])C([H])([H])C([H])([H])C([H])([H])[N+]4([H])C([H])([H])C([H])([H])N(C(=O)N5C([H])([H])C([H])([H])C([H])([H])C([H])(n6nc(-c7c([H])c([H])c(Oc8c([H])c([H])c(F)c([H])c8F)c([H])c7[H])c(C(=O)N([H])[H])c6N([H])[H])C5([H])[H])C([H])(C([H])([H])[N+]([H])([H])[H])C34[H])c([H])c([H])c2C1([H])[H]

>  <smiles>  (16) 
[H]c1c([H])c([H])c2c(c1[H])C([H])([H])C([H])([H])C([H])([H])C2([H])N([H])C(=O)C1([H])N(C(=O)C([H])(N([H])C(=O)C([H])(N([H])C([H])([H])[H])C([H])([H])[H])C(C([H])([H])[H])(C([H])([H])[H])C([H])([H])[H])C([H])([H])c2c([H])c(OC([H])([H])C([H])([H])N([H])C(=O)C3([H])C([H])([H])C([H])([H])C([H])([H])[N+]4([H])C([H])([H])C([H])([H])N(C(=O)N5C([H])([H])C([H])([H])C([H])([H])C([H])(n6nc(-c7c([H])c([H])c(Oc8c([H])c([H])c(F)c([H])c8F)c([H])c7[H])c(C(=O)N([H])[H])c6N([H])[H])C5([H])[H])C([H])(C([H])([H])[N+]([H])([H])[H])C34[H])c([H])c([H])c2C1([H])[H]

$$$$
17:0:0
     RDKit          3D

 96105  0  0  1  0  0  0  0  0999 V2000
  -32.3570  -18.0420   22.2420 C   0  0  0  0  0  0  0  0  0  0  0  0
  -32.6010  -17.9600   20.7530 C   0  0  0  0  0  2  0  0  0  0  0  0
  -31.1320  -20.7230   23.8660 C   0  0  0  0  0  2  0  0  0  0  0  0
  -30.7930  -19.4420   24.6440 C   0  0  0  0  0  2  0  0  0  0  0  0
  -30.1750  -21.0380   22.6920 C   0  0  0  0  0  2  0  0  0  0  0  0
  -30.3830  -18.2790   23.7370 C   0  0  0  0  0  2  0  0  0  0  0  0
  -30.3710  -18.8070   21.2350 C   0  0  0  0  0  3  0  0  0  0  0  0
  -31.1500  -17.7680   20.2630 C   0  0  0  0  0  3  0  0  0  0  0  0
  -30.5020  -20.4760   21.2410 C   0  0  0  0  0  3  0  0  0  0  0  0
  -31.0680  -18.3550   22.4540 N   0  0  0  0  0  0  0  0  0  0  0  0
  -33.2110  -17.7810   23.0940 O   0  0  0  0  0  0  0  0  0  0  0  0
  -31.5080  -15.1230   20.4070 C   0  0  0  0  0  0  0  0  0  0  0  0
  -31.3920  -12.6900   19.8600 C   0  0  0  0  0  2  0  0  0  0  0  0
  -30.5650  -12.4830   18.5740 C   0  0  0  0  0  2  0  0  0  0  0  0
  -29.0690  -12.3550   18.9120 C   0  0  0  0  0  2  0  0  0  0  0  0
  -28.5780  -13.4710   19.8770 C   0  0  0  0  0  3  0  0  0  0  0  0
  -29.5350  -13.6620   21.0730 C   0  0  0  0  0  2  0  0  0  0  0  0
  -30.8780  -13.9060   20.5320 N   0  0  0  0  0  0  0  0  0  0  0  0
  -32.7040  -15.1680   20.1150 O   0  0  0  0  0  0  0  0  0  0  0  0
  -30.7490  -16.2820   20.4400 N   0  0  0  0  0  0  0  0  0  0  0  0
  -29.7730  -16.1220   20.6390 H   0  0  0  0  0  0  0  0  0  0  0  0
  -26.1930  -14.1720   20.5090 C   0  0  0  0  0  0  0  0  0  0  0  0
  -25.0760  -13.4480   20.8270 C   0  0  0  0  0  0  0  0  0  0  0  0
  -25.4740  -12.0760   20.8060 C   0  0  0  0  0  0  0  0  0  0  0  0
  -27.2020  -13.2440   20.3090 N   0  0  0  0  0  0  0  0  0  0  0  0
  -26.7740  -11.9790   20.5510 N   0  0  0  0  0  0  0  0  0  0  0  0
  -24.6800  -10.8490   20.9500 C   0  0  0  0  0  0  0  0  0  0  0  0
  -24.9820   -9.8850   21.9360 C   0  0  0  0  0  3  0  0  0  0  0  0
  -24.1900   -8.7230   22.0680 C   0  0  0  0  0  3  0  0  0  0  0  0
  -23.0830   -8.5170   21.2130 C   0  0  0  0  0  0  0  0  0  0  0  0
  -22.8010   -9.4680   20.2160 C   0  0  0  0  0  3  0  0  0  0  0  0
  -23.5920  -10.6210   20.0820 C   0  0  0  0  0  3  0  0  0  0  0  0
  -22.2720   -7.4090   21.2530 O   0  0  0  0  0  0  0  0  0  0  0  0
  -22.0080   -6.7510   22.4270 C   0  0  0  0  0  0  0  0  0  0  0  0
  -21.4100   -7.4020   23.5290 C   0  0  0  0  0  3  0  0  0  0  0  0
  -21.0950   -6.6710   24.6920 C   0  0  0  0  0  3  0  0  0  0  0  0
  -21.3650   -5.2920   24.7530 C   0  0  0  0  0  0  0  0  0  0  0  0
  -21.9530   -4.6400   23.6540 C   0  0  0  0  0  3  0  0  0  0  0  0
  -22.2720   -5.3670   22.4940 C   0  0  0  0  0  0  0  0  0  0  0  0
  -22.8200   -4.7310   21.4320 F   0  0  0  0  0  0  0  0  0  0  0  0
  -21.0550   -4.5880   25.8670 F   0  0  0  0  0  0  0  0  0  0  0  0
  -23.6920  -13.9920   21.0410 C   0  0  0  0  0  0  0  0  0  0  0  0
  -22.9010  -13.3400   21.8860 N   0  0  0  0  0  0  0  0  0  0  0  0
  -23.3210  -15.0290   20.4930 O   0  0  0  0  0  0  0  0  0  0  0  0
  -23.2130  -12.5030   22.3550 H   0  0  0  0  0  0  0  0  0  0  0  0
  -21.9690  -13.6840   22.0700 H   0  0  0  0  0  0  0  0  0  0  0  0
  -26.4320  -15.5340   20.3510 N   0  0  0  0  0  0  0  0  0  0  0  0
  -25.6870  -16.2190   20.4100 H   0  0  0  0  0  0  0  0  0  0  0  0
  -27.3030  -15.9250   20.0180 H   0  0  0  0  0  0  0  0  0  0  0  0
  -29.7740  -21.3670   20.1970 N   0  0  0  0  0  4  0  0  0  0  0  0
  -28.9270  -20.9020   19.9130 H   0  0  0  0  0  0  0  0  0  0  0  0
  -30.3560  -21.4200   19.3740 H   0  0  0  0  0  0  0  0  0  0  0  0
  -29.3910  -22.8100   20.6230 C   0  0  0  0  0  2  0  0  0  0  0  0
  -28.9500  -24.0020   19.6320 C   0  0  0  0  0  2  0  0  0  0  0  0
  -28.3900  -25.3280   20.3750 C   0  0  0  0  0  2  0  0  0  0  0  0
  -28.5170  -26.7200   19.8480 O   0  0  0  0  0  0  0  0  0  0  0  0
  -24.6900  -31.8460   23.2880 C   0  0  0  0  0  0  0  0  0  0  0  0
  -27.3970  -27.5710   19.9060 C   0  0  0  0  0  0  0  0  0  0  0  0
  -23.5310  -30.5960   21.4980 C   0  0  0  0  0  3  0  0  0  0  0  0
  -25.0240  -29.1770   19.9780 C   0  0  0  0  0  0  0  0  0  0  0  0
  -26.0720  -30.9330   21.4050 C   0  0  0  0  0  2  0  0  0  0  0  0
  -26.1770  -29.6170   20.6410 C   0  0  0  0  0  0  0  0  0  0  0  0
  -27.3680  -28.8280   20.5920 C   0  0  0  0  0  3  0  0  0  0  0  0
  -26.2210  -27.1830   19.2310 C   0  0  0  0  0  3  0  0  0  0  0  0
  -25.0510  -27.9680   19.2620 C   0  0  0  0  0  3  0  0  0  0  0  0
  -23.7800  -30.0410   20.0720 C   0  0  0  0  0  2  0  0  0  0  0  0
  -24.7820  -31.1390   22.1220 N   0  0  0  0  0  0  0  0  0  0  0  0
  -23.5930  -32.0710   23.8190 O   0  0  0  0  0  0  0  0  0  0  0  0
  -22.8520  -29.4970   22.3500 C   0  0  0  0  0  0  0  0  0  0  0  0
  -21.5140  -29.4070   22.2670 N   0  0  0  0  0  0  0  0  0  0  0  0
  -23.5260  -28.7340   23.0470 O   0  0  0  0  0  0  0  0  0  0  0  0
  -21.0300  -30.0750   21.6860 H   0  0  0  0  0  0  0  0  0  0  0  0
  -18.0930  -28.3800   22.8380 C   0  0  0  0  0  0  0  0  0  0  0  0
  -20.6760  -28.4170   22.9480 C   0  0  0  0  0  3  0  0  0  0  0  0
  -20.6240  -27.0890   22.1560 C   0  0  0  0  0  2  0  0  0  0  0  0
  -19.4360  -27.0070   21.1920 C   0  0  0  0  0  2  0  0  0  0  0  0
  -18.1160  -27.1450   21.9530 C   0  0  0  0  0  2  0  0  0  0  0  0
  -19.2940  -28.9860   23.2920 C   0  0  0  0  0  0  0  0  0  0  0  0
  -19.2160  -30.1500   24.0850 C   0  0  0  0  0  3  0  0  0  0  0  0
  -17.9690  -30.7070   24.4280 C   0  0  0  0  0  3  0  0  0  0  0  0
  -16.7820  -30.0930   23.9890 C   0  0  0  0  0  3  0  0  0  0  0  0
  -16.8460  -28.9320   23.2000 C   0  0  0  0  0  3  0  0  0  0  0  0
  -25.9540  -32.4250   23.9930 C   0  0  0  0  0  3  0  0  0  0  0  0
  -26.3360  -31.6540   25.3170 C   0  0  1  0  0  0  0  0  0  0  0  0
  -25.1480  -31.4640   26.2900 C   0  0  0  0  0  1  0  0  0  0  0  0
  -26.9060  -30.2540   24.9900 C   0  0  0  0  0  1  0  0  0  0  0  0
  -27.4530  -32.4190   26.0650 C   0  0  0  0  0  1  0  0  0  0  0  0
  -25.6940  -33.8440   24.2800 N   0  0  0  0  0  0  0  0  0  0  0  0
  -26.1350  -34.8650   23.5340 C   0  0  0  0  0  0  0  0  0  0  0  0
  -26.8690  -34.7110   22.5550 O   0  0  0  0  0  0  0  0  0  0  0  0
  -25.0600  -34.0450   25.0380 H   0  0  0  0  0  0  0  0  0  0  0  0
  -24.5190  -36.7320   23.0470 C   0  0  0  0  0  1  0  0  0  0  0  0
  -25.6900  -36.2850   23.9370 C   0  0  0  0  0  3  0  0  0  0  0  0
  -27.8090  -37.0890   24.8800 C   0  0  0  0  0  1  0  0  0  0  0  0
  -26.7780  -37.2850   23.8670 N   0  0  0  0  0  0  0  0  0  0  0  0
  -26.4090  -38.2270   23.9700 H   0  0  0  0  0  0  0  0  0  0  0  0
  1 10  1  0
  1 11  2  0
  2  1  1  0
  3  4  1  0
  5  3  1  0
  6  4  1  0
  7  9  1  0
  7 10  1  0
  8 20  1  0
  8  2  1  0
  8  7  1  0
  9 50  1  0
  9  5  1  0
 10  6  1  0
 12 20  1  0
 12 18  1  0
 13 18  1  0
 14 15  1  0
 14 13  1  0
 16 15  1  0
 16 25  1  0
 16 17  1  0
 18 17  1  0
 19 12  2  0
 20 21  1  0
 22 23  2  0
 23 42  1  0
 24 23  1  0
 24 27  1  0
 25 22  1  0
 25 26  1  0
 26 24  2  0
 27 28  1  0
 28 29  2  0
 30 33  1  0
 30 29  1  0
 31 30  2  0
 32 31  1  0
 32 27  2  0
 33 34  1  0
 34 39  2  0
 34 35  1  0
 35 36  2  0
 36 37  1  0
 37 41  1  0
 38 37  2  0
 39 38  1  0
 40 39  1  0
 42 43  1  0
 43 46  1  0
 43 45  1  0
 44 42  2  0
 47 48  1  0
 47 22  1  0
 49 47  1  0
 50 53  1  0
 51 50  1  0
 52 50  1  0
 54 55  1  0
 54 53  1  0
 56 58  1  0
 56 55  1  0
 57 68  2  0
 58 63  1  0
 59 67  1  0
 59 69  1  0
 60 66  1  0
 60 62  1  0
 61 67  1  0
 62 61  1  0
 63 62  2  0
 64 65  1  0
 64 58  2  0
 65 60  2  0
 66 59  1  0
 67 57  1  0
 69 71  2  0
 70 69  1  0
 72 70  1  0
 73 82  2  0
 73 78  1  0
 74 70  1  0
 74 78  1  0
 75 74  1  0
 76 77  1  0
 76 75  1  0
 77 73  1  0
 78 79  2  0
 79 80  1  0
 81 80  2  0
 82 81  1  0
 83 57  1  0
 83 88  1  0
 83 84  1  0
 84 87  1  1
 84 85  1  0
 86 84  1  0
 88 91  1  0
 89 93  1  0
 89 88  1  0
 90 89  2  0
 93 92  1  0
 95 93  1  0
 95 96  1  0
 95 94  1  0
M  ISO  4  12 100  20 100  55 101  56 101
M  END
>  <TORSDO>  (17) 
F 20

>  <SCORE>  (17) 
-6.566

>  <name>  (17) 
17

>  <ligand_id>  (17) 
17

>  <original_smiles>  (17) 
[H]c1c([H])c([H])c2c(c1[H])C([H])([H])C([H])([H])C([H])([H])C2([H])N([H])C(=O)C1([H])N(C(=O)C([H])(N([H])C(=O)C([H])(N([H])C([H])([H])[H])C([H])([H])[H])C(C([H])([H])[H])(C([H])([H])[H])C([H])([H])[H])C([H])([H])c2c([H])c(OC([H])([H])C([H])([H])C([H])([H])[N+]([H])([H])C3([H])C([H])([H])C([H])([H])C([H])([H])C([H])([H])N4C(=O)C([H])([H])C([H])(N([H])C(=O)N5C([H])([H])C([H])([H])C([H])([H])C([H])(n6nc(-c7c([H])c([H])c(Oc8c([H])c([H])c(F)c([H])c8F)c([H])c7[H])c(C(=O)N([H])[H])c6N([H])[H])C5([H])[H])C43[H])c([H])c([H])c2C1([H])[H]

>  <smiles>  (17) 
[H]c1c([H])c([H])c2c(c1[H])C([H])([H])C([H])([H])C([H])([H])C2([H])N([H])C(=O)C1([H])N(C(=O)C([H])(N([H])C(=O)C([H])(N([H])C([H])([H])[H])C([H])([H])[H])C(C([H])([H])[H])(C([H])([H])[H])C([H])([H])[H])C([H])([H])c2c([H])c(OC([H])([H])C([H])([H])C([H])([H])[N+]([H])([H])C3([H])C([H])([H])C([H])([H])C([H])([H])C([H])([H])N4C(=O)C([H])([H])C([H])(N([H])C(=O)N5C([H])([H])C([H])([H])C([H])([H])C([H])(n6nc(-c7c([H])c([H])c(Oc8c([H])c([H])c(F)c([H])c8F)c([H])c7[H])c(C(=O)N([H])[H])c6N([H])[H])C5([H])[H])C43[H])c([H])c([H])c2C1([H])[H]

$$$$
18:0:0
     RDKit          3D

 96104  0  0  1  0  0  0  0  0999 V2000
  -29.0830  -18.2440   20.3840 C   0  0  0  0  0  0  0  0  0  0  0  0
  -30.3850  -20.4310   20.0090 C   0  0  0  0  0  2  0  0  0  0  0  0
  -27.9290  -20.4380   20.0750 C   0  0  0  0  0  2  0  0  0  0  0  0
  -30.3630  -21.8600   20.6780 C   0  0  0  0  0  2  0  0  0  0  0  0
  -28.1300  -21.9400   19.6530 C   0  0  0  0  0  2  0  0  0  0  0  0
  -29.1660  -19.6190   20.2130 N   0  0  0  0  0  0  0  0  0  0  0  0
  -29.1070  -22.6710   20.5100 N   0  0  2  0  0  4  0  0  0  0  0  0
  -27.9770  -17.7080   20.5200 O   0  0  0  0  0  0  0  0  0  0  0  0
  -28.6920  -22.6660   21.4320 H   0  0  0  0  0  0  0  0  0  0  0  0
  -29.3560  -24.1490   20.1850 C   0  0  0  0  0  3  0  0  0  0  0  0
  -28.1090  -25.1310   20.1250 C   0  0  0  0  0  3  0  0  0  0  0  0
  -28.3340  -26.5990   20.0960 O   0  0  0  0  0  0  0  0  0  0  0  0
  -24.5830  -31.9430   23.1760 C   0  0  0  0  0  0  0  0  0  0  0  0
  -27.2000  -27.4270   20.0740 C   0  0  0  0  0  0  0  0  0  0  0  0
  -23.3700  -30.5370   21.5460 C   0  0  0  0  0  3  0  0  0  0  0  0
  -24.8200  -29.0100   20.0990 C   0  0  0  0  0  0  0  0  0  0  0  0
  -25.9050  -30.8820   21.3350 C   0  0  0  0  0  2  0  0  0  0  0  0
  -25.9900  -29.5080   20.6840 C   0  0  0  0  0  0  0  0  0  0  0  0
  -27.1870  -28.7300   20.6590 C   0  0  0  0  0  3  0  0  0  0  0  0
  -26.0020  -26.9840   19.4650 C   0  0  0  0  0  3  0  0  0  0  0  0
  -24.8270  -27.7530   19.4810 C   0  0  0  0  0  3  0  0  0  0  0  0
  -23.5740  -29.8680   20.1610 C   0  0  0  0  0  2  0  0  0  0  0  0
  -24.6370  -31.1400   22.0750 N   0  0  0  0  0  0  0  0  0  0  0  0
  -23.5040  -32.2100   23.7260 O   0  0  0  0  0  0  0  0  0  0  0  0
  -22.7320  -29.5100   22.5120 C   0  0  0  0  0  0  0  0  0  0  0  0
  -21.4100  -29.3030   22.3850 N   0  0  0  0  0  0  0  0  0  0  0  0
  -23.4230  -28.9010   23.3320 O   0  0  0  0  0  0  0  0  0  0  0  0
  -20.9100  -29.8470   21.6960 H   0  0  0  0  0  0  0  0  0  0  0  0
  -18.0540  -28.0690   22.9250 C   0  0  0  0  0  0  0  0  0  0  0  0
  -20.6120  -28.3530   23.1610 C   0  0  0  0  0  3  0  0  0  0  0  0
  -20.7200  -26.9240   22.5770 C   0  0  0  0  0  2  0  0  0  0  0  0
  -19.6080  -26.5970   21.5740 C   0  0  0  0  0  2  0  0  0  0  0  0
  -18.2330  -26.7250   22.2360 C   0  0  0  0  0  2  0  0  0  0  0  0
  -19.1710  -28.8400   23.3450 C   0  0  0  0  0  0  0  0  0  0  0  0
  -18.9480  -30.0960   23.9460 C   0  0  0  0  0  3  0  0  0  0  0  0
  -17.6420  -30.5830   24.1350 C   0  0  0  0  0  3  0  0  0  0  0  0
  -16.5390  -29.8090   23.7340 C   0  0  0  0  0  3  0  0  0  0  0  0
  -16.7470  -28.5540   23.1340 C   0  0  0  0  0  3  0  0  0  0  0  0
  -25.8690  -32.5850   23.7820 C   0  0  0  0  0  3  0  0  0  0  0  0
  -25.5510  -33.9800   24.1240 N   0  0  0  0  0  0  0  0  0  0  0  0
  -25.8710  -35.0410   23.3730 C   0  0  0  0  0  0  0  0  0  0  0  0
  -26.5450  -34.9530   22.3430 O   0  0  0  0  0  0  0  0  0  0  0  0
  -24.9660  -34.1220   24.9340 H   0  0  0  0  0  0  0  0  0  0  0  0
  -24.1580  -36.8460   23.0040 C   0  0  0  0  0  1  0  0  0  0  0  0
  -25.3740  -36.4230   23.8450 C   0  0  0  0  0  3  0  0  0  0  0  0
  -27.4790  -37.2960   24.7640 C   0  0  0  0  0  1  0  0  0  0  0  0
  -26.4130  -37.4760   23.7810 N   0  0  0  0  0  0  0  0  0  0  0  0
  -26.0010  -38.3950   23.9220 H   0  0  0  0  0  0  0  0  0  0  0  0
  -26.4130  -31.8140   25.0470 C   0  0  1  0  0  0  0  0  0  0  0  0
  -25.3330  -31.5390   26.1170 C   0  0  0  0  0  1  0  0  0  0  0  0
  -27.0310  -30.4540   24.6390 C   0  0  0  0  0  1  0  0  0  0  0  0
  -27.5450  -32.6330   25.7090 C   0  0  0  0  0  1  0  0  0  0  0  0
  -30.3150  -17.2520   20.4210 C   0  0  0  0  0  3  0  0  0  0  0  0
  -30.6720  -14.7150   20.0130 C   0  0  0  0  0  0  0  0  0  0  0  0
  -30.3970  -12.4620   19.0140 C   0  0  0  0  0  2  0  0  0  0  0  0
  -29.3970  -12.5500   17.8400 C   0  0  0  0  0  2  0  0  0  0  0  0
  -27.9460  -12.4130   18.3440 C   0  0  0  0  0  2  0  0  0  0  0  0
  -27.6450  -13.3310   19.5580 C   0  0  0  0  0  3  0  0  0  0  0  0
  -28.7480  -13.2050   20.6320 C   0  0  0  0  0  2  0  0  0  0  0  0
  -30.0310  -13.5110   19.9840 N   0  0  0  0  0  0  0  0  0  0  0  0
  -31.8220  -14.8540   19.5890 O   0  0  0  0  0  0  0  0  0  0  0  0
  -29.9280  -15.7930   20.3910 N   0  0  0  0  0  0  0  0  0  0  0  0
  -28.9590  -15.6110   20.6100 H   0  0  0  0  0  0  0  0  0  0  0  0
  -25.3120  -13.9840   20.4130 C   0  0  0  0  0  0  0  0  0  0  0  0
  -24.2430  -13.2320   20.8210 C   0  0  0  0  0  0  0  0  0  0  0  0
  -24.6670  -11.8700   20.7450 C   0  0  0  0  0  0  0  0  0  0  0  0
  -26.3180  -13.0790   20.1110 N   0  0  0  0  0  0  0  0  0  0  0  0
  -25.9380  -11.8020   20.3720 N   0  0  0  0  0  0  0  0  0  0  0  0
  -23.9190  -10.6230   20.9510 C   0  0  0  0  0  0  0  0  0  0  0  0
  -24.3550   -9.6440   21.8690 C   0  0  0  0  0  3  0  0  0  0  0  0
  -23.6100   -8.4600   22.0630 C   0  0  0  0  0  3  0  0  0  0  0  0
  -22.4130   -8.2500   21.3380 C   0  0  0  0  0  0  0  0  0  0  0  0
  -21.9950   -9.2180   20.4080 C   0  0  0  0  0  3  0  0  0  0  0  0
  -22.7410  -10.3920   20.2120 C   0  0  0  0  0  3  0  0  0  0  0  0
  -21.6360   -7.1220   21.4430 O   0  0  0  0  0  0  0  0  0  0  0  0
  -21.5710   -6.3980   22.6060 C   0  0  0  0  0  0  0  0  0  0  0  0
  -21.1040   -6.9640   23.8120 C   0  0  0  0  0  3  0  0  0  0  0  0
  -20.9880   -6.1670   24.9670 C   0  0  0  0  0  3  0  0  0  0  0  0
  -21.3300   -4.8010   24.9180 C   0  0  0  0  0  0  0  0  0  0  0  0
  -21.7890   -4.2330   23.7170 C   0  0  0  0  0  3  0  0  0  0  0  0
  -21.9070   -5.0300   22.5640 C   0  0  0  0  0  0  0  0  0  0  0  0
  -22.3310   -4.4730   21.4030 F   0  0  0  0  0  0  0  0  0  0  0  0
  -21.2100   -4.0320   26.0250 F   0  0  0  0  0  0  0  0  0  0  0  0
  -22.8750  -13.7400   21.1730 C   0  0  0  0  0  0  0  0  0  0  0  0
  -22.1800  -13.0530   22.0740 N   0  0  0  0  0  0  0  0  0  0  0  0
  -22.4340  -14.7790   20.6860 O   0  0  0  0  0  0  0  0  0  0  0  0
  -22.5480  -12.2100   22.4870 H   0  0  0  0  0  0  0  0  0  0  0  0
  -21.2640  -13.3780   22.3560 H   0  0  0  0  0  0  0  0  0  0  0  0
  -25.5060  -15.3540   20.2610 N   0  0  0  0  0  0  0  0  0  0  0  0
  -24.7650  -16.0250   20.4350 H   0  0  0  0  0  0  0  0  0  0  0  0
  -26.3760  -15.8000   19.9920 H   0  0  0  0  0  0  0  0  0  0  0  0
  -31.3140  -17.4850   21.5920 C   0  0  0  0  0  2  0  0  0  0  0  0
  -30.9230  -16.8240   22.8570 N   0  0  0  0  0  4  0  0  0  0  0  0
  -29.9830  -17.0590   23.1240 H   0  0  0  0  0  0  0  0  0  0  0  0
  -31.5370  -17.1170   23.5970 H   0  0  0  0  0  0  0  0  0  0  0  0
  -30.9980  -15.8260   22.7750 H   0  0  0  0  0  0  0  0  0  0  0  0
  1 53  1  0
  1  8  2  0
  2  6  1  0
  2  4  1  0
  3  6  1  0
  5  3  1  0
  5  7  1  0
  6  1  1  0
  7  4  1  0
  7  9  1  1
 10  7  1  0
 11 10  2  0
 12 11  1  0
 13 24  2  0
 14 12  1  0
 14 19  1  0
 15 23  1  0
 15 25  1  0
 16 22  1  0
 16 18  1  0
 17 23  1  0
 18 17  1  0
 19 18  2  0
 20 21  1  0
 20 14  2  0
 21 16  2  0
 22 15  1  0
 23 13  1  0
 25 27  2  0
 26 25  1  0
 28 26  1  0
 29 38  2  0
 29 34  1  0
 30 26  1  0
 30 34  1  0
 31 30  1  0
 32 33  1  0
 32 31  1  0
 33 29  1  0
 34 35  2  0
 35 36  1  0
 37 36  2  0
 38 37  1  0
 39 13  1  0
 39 40  1  0
 39 49  1  0
 40 43  1  0
 41 45  1  0
 41 40  1  0
 42 41  2  0
 45 44  1  0
 47 45  1  0
 47 48  1  0
 47 46  1  0
 49 52  1  1
 49 50  1  0
 51 49  1  0
 53 92  1  0
 54 62  1  0
 55 60  1  0
 56 57  1  0
 56 55  1  0
 58 57  1  0
 58 67  1  0
 58 59  1  0
 60 54  1  0
 60 59  1  0
 61 54  2  0
 62 53  1  0
 62 63  1  0
 64 65  2  0
 65 84  1  0
 66 65  1  0
 66 69  1  0
 67 68  1  0
 67 64  1  0
 68 66  2  0
 69 70  1  0
 70 71  2  0
 72 75  1  0
 72 71  1  0
 73 72  2  0
 74 73  1  0
 74 69  2  0
 75 76  1  0
 76 77  1  0
 77 78  2  0
 79 78  1  0
 79 83  1  0
 80 79  2  0
 81 76  2  0
 81 80  1  0
 82 81  1  0
 84 85  1  0
 85 88  1  0
 85 87  1  0
 86 84  2  0
 89 64  1  0
 89 90  1  0
 91 89  1  0
 92 93  1  0
 93 94  1  0
 93 95  1  0
 96 93  1  0
M  ISO  4  11 101  12 101  54 100  62 100
M  END
>  <TORSDO>  (18) 
F 21

>  <SCORE>  (18) 
-13.700

>  <name>  (18) 
18

>  <ligand_id>  (18) 
18

>  <original_smiles>  (18) 
[H]c1c([H])c([H])c2c(c1[H])C([H])([H])C([H])([H])C([H])([H])C2([H])N([H])C(=O)C1([H])N(C(=O)C([H])(N([H])C(=O)C([H])(N([H])C([H])([H])[H])C([H])([H])[H])C(C([H])([H])[H])(C([H])([H])[H])C([H])([H])[H])C([H])([H])c2c([H])c(OC([H])([H])C([H])([H])[N+]3([H])C([H])([H])C([H])([H])N(C(=O)C([H])(N([H])C(=O)N4C([H])([H])C([H])([H])C([H])([H])C([H])(n5nc(-c6c([H])c([H])c(Oc7c([H])c([H])c(F)c([H])c7F)c([H])c6[H])c(C(=O)N([H])[H])c5N([H])[H])C4([H])[H])C([H])([H])[N+]([H])([H])[H])C([H])([H])C3([H])[H])c([H])c([H])c2C1([H])[H]

>  <smiles>  (18) 
[H]c1c([H])c([H])c2c(c1[H])C([H])([H])C([H])([H])C([H])([H])C2([H])N([H])C(=O)C1([H])N(C(=O)C([H])(N([H])C(=O)C([H])(N([H])C([H])([H])[H])C([H])([H])[H])C(C([H])([H])[H])(C([H])([H])[H])C([H])([H])[H])C([H])([H])c2c([H])c(OC([H])([H])C([H])([H])[N+]3([H])C([H])([H])C([H])([H])N(C(=O)C([H])(N([H])C(=O)N4C([H])([H])C([H])([H])C([H])([H])C([H])(n5nc(-c6c([H])c([H])c(Oc7c([H])c([H])c(F)c([H])c7F)c([H])c6[H])c(C(=O)N([H])[H])c5N([H])[H])C4([H])[H])C([H])([H])[N+]([H])([H])[H])C([H])([H])C3([H])[H])c([H])c([H])c2C1([H])[H]

$$$$
19:0:0
     RDKit          3D

 92100  0  0  1  0  0  0  0  0999 V2000
  -28.4970  -22.0430   21.1170 C   0  0  0  0  0  2  0  0  0  0  0  0
  -28.8940  -23.1690   20.2400 N   0  0  0  0  0  4  0  0  0  0  0  0
  -28.7150  -22.9030   19.2820 H   0  0  0  0  0  0  0  0  0  0  0  0
  -29.8880  -23.3070   20.3320 H   0  0  0  0  0  0  0  0  0  0  0  0
  -28.2170  -24.4630   20.4960 C   0  0  0  0  0  2  0  0  0  0  0  0
  -28.6500  -25.5170   19.4530 C   0  0  0  0  0  2  0  0  0  0  0  0
  -28.5370  -26.8510   19.9380 O   0  0  0  0  0  0  0  0  0  0  0  0
  -24.7620  -31.8730   23.1780 C   0  0  0  0  0  0  0  0  0  0  0  0
  -27.3200  -27.4960   19.9610 C   0  0  0  0  0  0  0  0  0  0  0  0
  -23.5030  -30.4870   21.5590 C   0  0  0  0  0  3  0  0  0  0  0  0
  -24.9120  -28.9680   20.0720 C   0  0  0  0  0  0  0  0  0  0  0  0
  -26.0140  -30.8660   21.2730 C   0  0  0  0  0  2  0  0  0  0  0  0
  -26.0830  -29.5010   20.6230 C   0  0  0  0  0  0  0  0  0  0  0  0
  -27.2850  -28.7680   20.5670 C   0  0  0  0  0  3  0  0  0  0  0  0
  -26.1290  -26.9660   19.4110 C   0  0  0  0  0  3  0  0  0  0  0  0
  -24.9270  -27.6980   19.4690 C   0  0  0  0  0  3  0  0  0  0  0  0
  -23.6680  -29.8220   20.1650 C   0  0  0  0  0  2  0  0  0  0  0  0
  -24.7800  -31.0870   22.0640 N   0  0  0  0  0  0  0  0  0  0  0  0
  -23.7000  -32.1340   23.7590 O   0  0  0  0  0  0  0  0  0  0  0  0
  -22.8900  -29.4510   22.5280 C   0  0  0  0  0  0  0  0  0  0  0  0
  -21.5690  -29.2390   22.4150 N   0  0  0  0  0  0  0  0  0  0  0  0
  -23.5970  -28.8440   23.3360 O   0  0  0  0  0  0  0  0  0  0  0  0
  -21.0580  -29.7830   21.7350 H   0  0  0  0  0  0  0  0  0  0  0  0
  -18.2360  -27.9400   22.9120 C   0  0  0  0  0  0  0  0  0  0  0  0
  -20.7820  -28.2840   23.1940 C   0  0  0  0  0  3  0  0  0  0  0  0
  -20.9350  -26.8510   22.6350 C   0  0  0  0  0  2  0  0  0  0  0  0
  -19.8500  -26.4790   21.6210 C   0  0  0  0  0  2  0  0  0  0  0  0
  -18.4600  -26.5880   22.2560 C   0  0  0  0  0  2  0  0  0  0  0  0
  -19.3270  -28.7430   23.3380 C   0  0  0  0  0  0  0  0  0  0  0  0
  -19.0650  -30.0070   23.9100 C   0  0  0  0  0  3  0  0  0  0  0  0
  -17.7450  -30.4690   24.0610 C   0  0  0  0  0  3  0  0  0  0  0  0
  -16.6680  -29.6640   23.6530 C   0  0  0  0  0  3  0  0  0  0  0  0
  -16.9150  -28.4010   23.0840 C   0  0  0  0  0  3  0  0  0  0  0  0
  -26.0680  -32.4990   23.7600 C   0  0  0  0  0  3  0  0  0  0  0  0
  -25.7660  -33.8890   24.1300 N   0  0  0  0  0  0  0  0  0  0  0  0
  -26.0670  -34.9560   23.3810 C   0  0  0  0  0  0  0  0  0  0  0  0
  -26.7010  -34.8770   22.3240 O   0  0  0  0  0  0  0  0  0  0  0  0
  -25.2000  -34.0240   24.9550 H   0  0  0  0  0  0  0  0  0  0  0  0
  -24.3180  -36.7440   23.1210 C   0  0  0  0  0  1  0  0  0  0  0  0
  -25.5880  -36.3320   23.8820 C   0  0  0  0  0  3  0  0  0  0  0  0
  -27.7440  -37.2120   24.6580 C   0  0  0  0  0  1  0  0  0  0  0  0
  -26.6100  -37.3930   23.7550 N   0  0  0  0  0  0  0  0  0  0  0  0
  -26.2040  -38.3070   23.9370 H   0  0  0  0  0  0  0  0  0  0  0  0
  -26.6410  -31.7050   24.9970 C   0  0  1  0  0  0  0  0  0  0  0  0
  -25.5890  -31.4160   26.0920 C   0  0  0  0  0  1  0  0  0  0  0  0
  -27.2370  -30.3520   24.5420 C   0  0  0  0  0  1  0  0  0  0  0  0
  -27.7950  -32.5030   25.6470 C   0  0  0  0  0  1  0  0  0  0  0  0
  -29.2950  -20.7730   20.7550 C   0  0  0  0  0  2  0  0  0  0  0  0
  -28.8840  -19.4930   21.5250 C   0  0  0  0  0  2  0  0  0  0  0  0
  -30.9020  -14.4900   19.6700 C   0  0  0  0  0  0  0  0  0  0  0  0
  -30.4350  -12.3790   18.4920 C   0  0  0  0  0  2  0  0  0  0  0  0
  -29.3460  -12.6310   17.4290 C   0  0  0  0  0  2  0  0  0  0  0  0
  -27.9380  -12.4880   18.0410 C   0  0  0  0  0  2  0  0  0  0  0  0
  -27.7750  -13.2700   19.3720 C   0  0  0  0  0  3  0  0  0  0  0  0
  -28.9670  -13.0160   20.3220 C   0  0  0  0  0  2  0  0  0  0  0  0
  -30.2030  -13.3270   19.5900 N   0  0  0  0  0  0  0  0  0  0  0  0
  -31.9630  -14.6760   19.0630 O   0  0  0  0  0  0  0  0  0  0  0  0
  -29.9870  -16.6400   19.2120 C   0  0  0  0  0  2  0  0  0  0  0  0
  -30.5320  -15.9830   21.5430 C   0  0  0  0  0  2  0  0  0  0  0  0
  -29.0980  -17.7650   19.7550 C   0  0  0  0  0  2  0  0  0  0  0  0
  -29.6870  -17.1840   22.0430 C   0  0  0  0  0  2  0  0  0  0  0  0
  -30.2180  -15.5460   20.1710 N   0  0  0  0  0  0  0  0  0  0  0  0
  -29.6120  -18.2800   21.0450 N   0  0  2  0  0  4  0  0  0  0  0  0
  -30.5670  -18.5680   20.8940 H   0  0  0  0  0  0  0  0  0  0  0  0
  -25.5190  -13.8430   20.4680 C   0  0  0  0  0  0  0  0  0  0  0  0
  -24.4990  -13.0560   20.9300 C   0  0  0  0  0  0  0  0  0  0  0  0
  -24.9200  -11.7060   20.7240 C   0  0  0  0  0  0  0  0  0  0  0  0
  -26.5000  -12.9720   20.0200 N   0  0  0  0  0  0  0  0  0  0  0  0
  -26.1510  -11.6760   20.2290 N   0  0  0  0  0  0  0  0  0  0  0  0
  -24.2000  -10.4400   20.9180 C   0  0  0  0  0  0  0  0  0  0  0  0
  -24.6630   -9.4590   21.8220 C   0  0  0  0  0  3  0  0  0  0  0  0
  -23.9450   -8.2580   22.0050 C   0  0  0  0  0  3  0  0  0  0  0  0
  -22.7490   -8.0290   21.2840 C   0  0  0  0  0  0  0  0  0  0  0  0
  -22.3040   -8.9990   20.3700 C   0  0  0  0  0  3  0  0  0  0  0  0
  -23.0220  -10.1920   20.1840 C   0  0  0  0  0  3  0  0  0  0  0  0
  -21.9990   -6.8820   21.3790 O   0  0  0  0  0  0  0  0  0  0  0  0
  -21.8770   -6.1970   22.5590 C   0  0  0  0  0  0  0  0  0  0  0  0
  -21.3670   -6.8060   23.7270 C   0  0  0  0  0  3  0  0  0  0  0  0
  -21.1940   -6.0460   24.9010 C   0  0  0  0  0  3  0  0  0  0  0  0
  -21.5220   -4.6770   24.9070 C   0  0  0  0  0  0  0  0  0  0  0  0
  -22.0260   -4.0670   23.7450 C   0  0  0  0  0  3  0  0  0  0  0  0
  -22.2000   -4.8240   22.5750 C   0  0  0  0  0  0  0  0  0  0  0  0
  -22.6650   -4.2270   21.4500 F   0  0  0  0  0  0  0  0  0  0  0  0
  -21.3500   -3.9430   26.0320 F   0  0  0  0  0  0  0  0  0  0  0  0
  -23.1680  -13.5240   21.4400 C   0  0  0  0  0  0  0  0  0  0  0  0
  -22.5730  -12.7900   22.3750 N   0  0  0  0  0  0  0  0  0  0  0  0
  -22.6680  -14.5770   21.0460 O   0  0  0  0  0  0  0  0  0  0  0  0
  -22.9920  -11.9350   22.7130 H   0  0  0  0  0  0  0  0  0  0  0  0
  -21.6840  -13.0820   22.7520 H   0  0  0  0  0  0  0  0  0  0  0  0
  -25.6890  -15.2210   20.3720 N   0  0  0  0  0  0  0  0  0  0  0  0
  -24.9490  -15.8720   20.6100 H   0  0  0  0  0  0  0  0  0  0  0  0
  -26.4610  -15.6580   19.8860 H   0  0  0  0  0  0  0  0  0  0  0  0
  2  4  1  0
  2  5  1  0
  2  1  1  0
  3  2  1  0
  6  7  1  0
  6  5  1  0
  7  9  1  0
  8 19  2  0
  9 14  1  0
 10 18  1  0
 10 20  1  0
 11 17  1  0
 11 13  1  0
 12 18  1  0
 13 12  1  0
 14 13  2  0
 15 16  1  0
 15  9  2  0
 16 11  2  0
 17 10  1  0
 18  8  1  0
 20 22  2  0
 21 20  1  0
 23 21  1  0
 24 33  2  0
 24 29  1  0
 25 21  1  0
 25 29  1  0
 26 25  1  0
 27 28  1  0
 27 26  1  0
 28 24  1  0
 29 30  2  0
 30 31  1  0
 32 31  2  0
 33 32  1  0
 34  8  1  0
 34 35  1  0
 34 44  1  0
 35 38  1  0
 36 40  1  0
 36 35  1  0
 37 36  2  0
 40 39  1  0
 42 40  1  0
 42 43  1  0
 42 41  1  0
 44 47  1  1
 44 45  1  0
 46 44  1  0
 48  1  1  0
 48 49  1  0
 50 62  1  0
 51 56  1  0
 52 53  1  0
 52 51  1  0
 54 53  1  0
 54 68  1  0
 54 55  1  0
 56 50  1  0
 56 55  1  0
 57 50  2  0
 58 60  1  0
 58 62  1  0
 59 61  1  0
 60 63  1  0
 62 59  1  0
 63 49  1  0
 63 61  1  0
 63 64  1  6
 65 66  2  0
 66 85  1  0
 67 70  1  0
 67 66  1  0
 68 69  1  0
 68 65  1  0
 69 67  2  0
 70 71  1  0
 71 72  2  0
 73 76  1  0
 73 72  1  0
 74 73  2  0
 75 74  1  0
 75 70  2  0
 76 77  1  0
 77 82  2  0
 77 78  1  0
 78 79  2  0
 79 80  1  0
 80 84  1  0
 81 80  2  0
 82 81  1  0
 83 82  1  0
 85 86  1  0
 86 88  1  0
 86 89  1  0
 87 85  2  0
 90 65  1  0
 90 91  1  0
 92 90  1  0
M  ISO  4   6 101   7 101  50 100  62 100
M  END
>  <TORSDO>  (19) 
F 21

>  <SCORE>  (19) 
-11.405

>  <name>  (19) 
19

>  <ligand_id>  (19) 
19

>  <original_smiles>  (19) 
[H]c1c([H])c([H])c2c(c1[H])C([H])([H])C([H])([H])C([H])([H])C2([H])N([H])C(=O)C1([H])N(C(=O)C([H])(N([H])C(=O)C([H])(N([H])C([H])([H])[H])C([H])([H])[H])C(C([H])([H])[H])(C([H])([H])[H])C([H])([H])[H])C([H])([H])c2c([H])c(OC([H])([H])C([H])([H])[N+]([H])([H])C([H])([H])C([H])([H])C([H])([H])[N+]3([H])C([H])([H])C([H])([H])N(C(=O)N4C([H])([H])C([H])([H])C([H])([H])C([H])(n5nc(-c6c([H])c([H])c(Oc7c([H])c([H])c(F)c([H])c7F)c([H])c6[H])c(C(=O)N([H])[H])c5N([H])[H])C4([H])[H])C([H])([H])C3([H])[H])c([H])c([H])c2C1([H])[H]

>  <smiles>  (19) 
[H]c1c([H])c([H])c2c(c1[H])C([H])([H])C([H])([H])C([H])([H])C2([H])N([H])C(=O)C1([H])N(C(=O)C([H])(N([H])C(=O)C([H])(N([H])C([H])([H])[H])C([H])([H])[H])C(C([H])([H])[H])(C([H])([H])[H])C([H])([H])[H])C([H])([H])c2c([H])c(OC([H])([H])C([H])([H])[N+]([H])([H])C([H])([H])C([H])([H])C([H])([H])[N+]3([H])C([H])([H])C([H])([H])N(C(=O)N4C([H])([H])C([H])([H])C([H])([H])C([H])(n5nc(-c6c([H])c([H])c(Oc7c([H])c([H])c(F)c([H])c7F)c([H])c6[H])c(C(=O)N([H])[H])c5N([H])[H])C4([H])[H])C([H])([H])C3([H])[H])c([H])c([H])c2C1([H])[H]

$$$$
20:0:0
     RDKit          3D

 94102  0  0  1  0  0  0  0  0999 V2000
  -29.4310  -17.8010   20.3490 C   0  0  0  0  0  3  0  0  0  0  0  0
  -28.3140  -19.9680   19.8320 C   0  0  0  0  0  2  0  0  0  0  0  0
  -29.9630  -19.8930   21.6740 C   0  0  0  0  0  2  0  0  0  0  0  0
  -28.9950  -21.2240   19.2720 C   0  0  0  0  0  2  0  0  0  0  0  0
  -30.4900  -21.2910   21.2220 C   0  0  0  0  0  2  0  0  0  0  0  0
  -29.2800  -19.1420   20.5910 N   0  0  0  0  0  0  0  0  0  0  0  0
  -28.7630  -17.2080   19.3350 N   0  0  0  0  0  0  0  0  0  0  0  0
  -29.5570  -22.0750   20.3510 N   0  0  1  0  0  4  0  0  0  0  0  0
  -28.9780  -16.2570   19.0830 H   0  0  0  0  0  0  0  0  0  0  0  0
  -28.1300  -17.7120   18.7320 H   0  0  0  0  0  0  0  0  0  0  0  0
  -28.7740  -22.3570   20.9240 H   0  0  0  0  0  0  0  0  0  0  0  0
  -30.3460  -16.9000   21.1670 C   0  0  0  0  0  2  0  0  0  0  0  0
  -30.6830  -14.4880   20.4850 C   0  0  0  0  0  0  0  0  0  0  0  0
  -30.3730  -12.3530   19.2790 C   0  0  0  0  0  2  0  0  0  0  0  0
  -29.4290  -12.5810   18.0800 C   0  0  0  0  0  2  0  0  0  0  0  0
  -27.9540  -12.4440   18.5120 C   0  0  0  0  0  2  0  0  0  0  0  0
  -27.6250  -13.2640   19.7890 C   0  0  0  0  0  3  0  0  0  0  0  0
  -28.6780  -13.0090   20.8910 C   0  0  0  0  0  2  0  0  0  0  0  0
  -30.0060  -13.3170   20.3280 N   0  0  0  0  0  0  0  0  0  0  0  0
  -31.7980  -14.6910   20.0010 O   0  0  0  0  0  0  0  0  0  0  0  0
  -29.9750  -15.4760   21.0590 N   0  0  0  0  0  0  0  0  0  0  0  0
  -29.0670  -15.2310   21.4190 H   0  0  0  0  0  0  0  0  0  0  0  0
  -25.2240  -13.8820   20.4820 C   0  0  0  0  0  0  0  0  0  0  0  0
  -24.1520  -13.1140   20.8520 C   0  0  0  0  0  0  0  0  0  0  0  0
  -24.6120  -11.7630   20.8330 C   0  0  0  0  0  0  0  0  0  0  0  0
  -26.2680  -12.9990   20.2640 N   0  0  0  0  0  0  0  0  0  0  0  0
  -25.9030  -11.7180   20.5300 N   0  0  0  0  0  0  0  0  0  0  0  0
  -23.8840  -10.5020   21.0300 C   0  0  0  0  0  0  0  0  0  0  0  0
  -24.3190   -9.5370   21.9650 C   0  0  0  0  0  3  0  0  0  0  0  0
  -23.5910   -8.3420   22.1470 C   0  0  0  0  0  3  0  0  0  0  0  0
  -22.4170   -8.1030   21.3950 C   0  0  0  0  0  0  0  0  0  0  0  0
  -22.0030   -9.0570   20.4500 C   0  0  0  0  0  3  0  0  0  0  0  0
  -22.7290  -10.2440   20.2650 C   0  0  0  0  0  3  0  0  0  0  0  0
  -21.6610   -6.9590   21.4890 O   0  0  0  0  0  0  0  0  0  0  0  0
  -21.6160   -6.2170   22.6420 C   0  0  0  0  0  0  0  0  0  0  0  0
  -21.1970   -6.7730   23.8710 C   0  0  0  0  0  3  0  0  0  0  0  0
  -21.1000   -5.9580   25.0160 C   0  0  0  0  0  3  0  0  0  0  0  0
  -21.4140   -4.5870   24.9340 C   0  0  0  0  0  0  0  0  0  0  0  0
  -21.8270   -4.0320   23.7110 C   0  0  0  0  0  3  0  0  0  0  0  0
  -21.9260   -4.8450   22.5670 C   0  0  0  0  0  0  0  0  0  0  0  0
  -22.3040   -4.2990   21.3860 F   0  0  0  0  0  0  0  0  0  0  0  0
  -21.3130   -3.8020   26.0310 F   0  0  0  0  0  0  0  0  0  0  0  0
  -22.7550  -13.5970   21.1190 C   0  0  0  0  0  0  0  0  0  0  0  0
  -22.0230  -12.9050   21.9850 N   0  0  0  0  0  0  0  0  0  0  0  0
  -22.3200  -14.6190   20.5920 O   0  0  0  0  0  0  0  0  0  0  0  0
  -22.3870  -12.0760   22.4330 H   0  0  0  0  0  0  0  0  0  0  0  0
  -21.0860  -13.2080   22.2050 H   0  0  0  0  0  0  0  0  0  0  0  0
  -25.3920  -15.2530   20.2970 N   0  0  0  0  0  0  0  0  0  0  0  0
  -24.6230  -15.9060   20.3960 H   0  0  0  0  0  0  0  0  0  0  0  0
  -26.2470  -15.6950   19.9860 H   0  0  0  0  0  0  0  0  0  0  0  0
  -30.1660  -23.3330   19.8040 C   0  0  0  0  0  2  0  0  0  0  0  0
  -29.7260  -24.6560   20.4910 C   0  0  0  0  0  2  0  0  0  0  0  0
  -28.4330  -25.3120   19.9450 C   0  0  0  0  0  2  0  0  0  0  0  0
  -28.4510  -26.7220   20.2270 O   0  0  0  0  0  0  0  0  0  0  0  0
  -24.6110  -31.8820   23.2400 C   0  0  0  0  0  0  0  0  0  0  0  0
  -27.2680  -27.4330   20.1750 C   0  0  0  0  0  0  0  0  0  0  0  0
  -23.4090  -30.4780   21.5930 C   0  0  0  0  0  3  0  0  0  0  0  0
  -24.8680  -28.9430   20.1710 C   0  0  0  0  0  0  0  0  0  0  0  0
  -25.9360  -30.8410   21.3990 C   0  0  0  0  0  2  0  0  0  0  0  0
  -26.0230  -29.4680   20.7630 C   0  0  0  0  0  0  0  0  0  0  0  0
  -27.2240  -28.7200   20.7600 C   0  0  0  0  0  3  0  0  0  0  0  0
  -26.0960  -26.9290   19.5650 C   0  0  0  0  0  3  0  0  0  0  0  0
  -24.9010  -27.6760   19.5640 C   0  0  0  0  0  3  0  0  0  0  0  0
  -23.6230  -29.8030   20.2130 C   0  0  0  0  0  2  0  0  0  0  0  0
  -24.6710  -31.0820   22.1370 N   0  0  0  0  0  0  0  0  0  0  0  0
  -23.5270  -32.1510   23.7760 O   0  0  0  0  0  0  0  0  0  0  0  0
  -22.7590  -29.4560   22.5540 C   0  0  0  0  0  0  0  0  0  0  0  0
  -21.4340  -29.2770   22.4300 N   0  0  0  0  0  0  0  0  0  0  0  0
  -23.4440  -28.8250   23.3630 O   0  0  0  0  0  0  0  0  0  0  0  0
  -20.9430  -29.8400   21.7500 H   0  0  0  0  0  0  0  0  0  0  0  0
  -18.0540  -28.0920   22.9290 C   0  0  0  0  0  0  0  0  0  0  0  0
  -20.6150  -28.3370   23.1960 C   0  0  0  0  0  3  0  0  0  0  0  0
  -20.7100  -26.9080   22.6120 C   0  0  0  0  0  2  0  0  0  0  0  0
  -19.6040  -26.5960   21.6000 C   0  0  0  0  0  2  0  0  0  0  0  0
  -18.2230  -26.7450   22.2470 C   0  0  0  0  0  2  0  0  0  0  0  0
  -19.1790  -28.8470   23.3590 C   0  0  0  0  0  0  0  0  0  0  0  0
  -18.9690  -30.1090   23.9560 C   0  0  0  0  0  3  0  0  0  0  0  0
  -17.6670  -30.6170   24.1270 C   0  0  0  0  0  3  0  0  0  0  0  0
  -16.5570  -29.8590   23.7120 C   0  0  0  0  0  3  0  0  0  0  0  0
  -16.7530  -28.6000   23.1160 C   0  0  0  0  0  3  0  0  0  0  0  0
  -25.8940  -32.5150   23.8620 C   0  0  0  0  0  3  0  0  0  0  0  0
  -26.4130  -31.7390   25.1340 C   0  0  1  0  0  0  0  0  0  0  0  0
  -25.3230  -31.4920   26.2020 C   0  0  0  0  0  1  0  0  0  0  0  0
  -26.9960  -30.3650   24.7280 C   0  0  0  0  0  1  0  0  0  0  0  0
  -27.5630  -32.5330   25.8000 C   0  0  0  0  0  1  0  0  0  0  0  0
  -25.5820  -33.9100   24.1950 N   0  0  0  0  0  0  0  0  0  0  0  0
  -25.9080  -34.9650   23.4350 C   0  0  0  0  0  0  0  0  0  0  0  0
  -26.5750  -34.8630   22.4010 O   0  0  0  0  0  0  0  0  0  0  0  0
  -24.9930  -34.0640   25.0010 H   0  0  0  0  0  0  0  0  0  0  0  0
  -24.1740  -36.7520   23.0790 C   0  0  0  0  0  1  0  0  0  0  0  0
  -25.4150  -36.3520   23.8930 C   0  0  0  0  0  3  0  0  0  0  0  0
  -27.5480  -37.2430   24.7240 C   0  0  0  0  0  1  0  0  0  0  0  0
  -26.4450  -37.4080   23.7800 N   0  0  0  0  0  0  0  0  0  0  0  0
  -26.0360  -38.3250   23.9280 H   0  0  0  0  0  0  0  0  0  0  0  0
  1  6  1  0
  1 12  1  0
  2  6  1  0
  4  2  1  0
  4  8  1  0
  5  3  1  0
  6  3  1  0
  7  1  1  0
  8 11  1  1
  8  5  1  0
  9  7  1  0
 10  7  1  0
 13 21  1  0
 14 19  1  0
 15 16  1  0
 15 14  1  0
 17 16  1  0
 17 26  1  0
 17 18  1  0
 19 13  1  0
 19 18  1  0
 20 13  2  0
 21 12  1  0
 21 22  1  0
 23 24  2  0
 24 43  1  0
 25 24  1  0
 25 28  1  0
 26 23  1  0
 26 27  1  0
 27 25  2  0
 28 29  1  0
 29 30  2  0
 31 34  1  0
 31 30  1  0
 32 31  2  0
 33 32  1  0
 33 28  2  0
 34 35  1  0
 35 36  1  0
 36 37  2  0
 38 37  1  0
 38 42  1  0
 39 38  2  0
 40 35  2  0
 40 39  1  0
 41 40  1  0
 43 44  1  0
 44 47  1  0
 44 46  1  0
 45 43  2  0
 48 49  1  0
 48 23  1  0
 50 48  1  0
 51  8  1  0
 51 52  1  0
 53 54  1  0
 53 52  1  0
 55 66  2  0
 56 54  1  0
 56 61  1  0
 57 65  1  0
 57 67  1  0
 58 64  1  0
 58 60  1  0
 59 65  1  0
 60 59  1  0
 61 60  2  0
 62 56  2  0
 63 62  1  0
 63 58  2  0
 64 57  1  0
 65 55  1  0
 67 69  2  0
 68 67  1  0
 70 68  1  0
 71 80  2  0
 71 76  1  0
 72 68  1  0
 72 76  1  0
 73 72  1  0
 74 75  1  0
 74 73  1  0
 75 71  1  0
 76 77  2  0
 77 78  1  0
 79 78  2  0
 80 79  1  0
 81 55  1  0
 81 86  1  0
 81 82  1  0
 82 85  1  1
 82 83  1  0
 84 82  1  0
 86 89  1  0
 87 91  1  0
 87 86  1  0
 88 87  2  0
 91 90  1  0
 93 91  1  0
 93 94  1  0
 93 92  1  0
M  ISO  4  13 100  21 100  53 101  54 101
M  END
>  <TORSDO>  (20) 
F 20

>  <SCORE>  (20) 
-13.891

>  <name>  (20) 
20

>  <ligand_id>  (20) 
20

>  <original_smiles>  (20) 
[H]c1c([H])c([H])c2c(c1[H])C([H])([H])C([H])([H])C([H])([H])C2([H])N([H])C(=O)C1([H])N(C(=O)C([H])(N([H])C(=O)C([H])(N([H])C([H])([H])[H])C([H])([H])[H])C(C([H])([H])[H])(C([H])([H])[H])C([H])([H])[H])C([H])([H])c2c([H])c(OC([H])([H])C([H])([H])C([H])([H])[N+]3([H])C([H])([H])C([H])([H])N(C(=[N+]([H])[H])C([H])([H])N([H])C(=O)N4C([H])([H])C([H])([H])C([H])([H])C([H])(n5nc(-c6c([H])c([H])c(Oc7c([H])c([H])c(F)c([H])c7F)c([H])c6[H])c(C(=O)N([H])[H])c5N([H])[H])C4([H])[H])C([H])([H])C3([H])[H])c([H])c([H])c2C1([H])[H]

>  <smiles>  (20) 
[H]c1c([H])c([H])c2c(c1[H])C([H])([H])C([H])([H])C([H])([H])C2([H])N([H])C(=O)C1([H])N(C(=O)C([H])(N([H])C(=O)C([H])(N([H])C([H])([H])[H])C([H])([H])[H])C(C([H])([H])[H])(C([H])([H])[H])C([H])([H])[H])C([H])([H])c2c([H])c(OC([H])([H])C([H])([H])C([H])([H])[N+]3([H])C([H])([H])C([H])([H])N(C(=[N+]([H])[H])C([H])([H])N([H])C(=O)N4C([H])([H])C([H])([H])C([H])([H])C([H])(n5nc(-c6c([H])c([H])c(Oc7c([H])c([H])c(F)c([H])c7F)c([H])c6[H])c(C(=O)N([H])[H])c5N([H])[H])C4([H])[H])C([H])([H])C3([H])[H])c([H])c([H])c2C1([H])[H]

$$$$
21:0:0
     RDKit          3D

110118  0  0  1  0  0  0  0  0999 V2000
  -29.7280  -19.8790   22.3410 C   0  0  0  0  0  3  0  0  0  0  0  0
  -30.9560  -19.0350   22.3580 N   0  0  0  0  0  4  0  0  0  0  0  0
  -30.9410  -18.4980   23.2110 H   0  0  0  0  0  0  0  0  0  0  0  0
  -31.7440  -19.6600   22.4280 H   0  0  0  0  0  0  0  0  0  0  0  0
  -31.1730  -18.0980   21.2060 C   0  0  0  0  0  3  0  0  0  0  0  0
  -29.8280  -17.6940   20.4950 C   0  0  0  0  0  2  0  0  0  0  0  0
  -29.7420  -17.5480   18.9300 C   0  0  0  0  0  3  0  0  0  0  0  0
  -31.0710  -17.6700   18.1140 C   0  0  0  0  0  2  0  0  0  0  0  0
  -30.9570  -17.1660   16.7300 N   0  0  0  0  0  4  0  0  0  0  0  0
  -30.9600  -16.1450   16.7800 H   0  0  0  0  0  0  0  0  0  0  0  0
  -31.7570  -17.4440   16.1870 H   0  0  0  0  0  0  0  0  0  0  0  0
  -30.1270  -17.4670   16.2550 H   0  0  0  0  0  0  0  0  0  0  0  0
  -28.6530  -18.5120   18.3760 C   0  0  0  0  0  2  0  0  0  0  0  0
  -27.2790  -17.9860   18.5210 N   0  0  0  0  0  4  0  0  0  0  0  0
  -27.1370  -17.1690   17.9530 H   0  0  0  0  0  0  0  0  0  0  0  0
  -26.6220  -18.6800   18.2110 H   0  0  0  0  0  0  0  0  0  0  0  0
  -27.0530  -17.7600   19.4730 H   0  0  0  0  0  0  0  0  0  0  0  0
  -31.9770  -16.8380   21.6620 C   0  0  0  0  0  2  0  0  0  0  0  0
  -31.7870  -14.7320   20.2700 C   0  0  0  0  0  0  0  0  0  0  0  0
  -31.3080  -12.6090   19.0900 C   0  0  0  0  0  2  0  0  0  0  0  0
  -30.3170  -12.7970   17.9250 C   0  0  0  0  0  2  0  0  0  0  0  0
  -28.8590  -12.7280   18.4230 C   0  0  0  0  0  2  0  0  0  0  0  0
  -28.6130  -13.6300   19.6590 C   0  0  0  0  0  3  0  0  0  0  0  0
  -29.7000  -13.3890   20.7300 C   0  0  0  0  0  2  0  0  0  0  0  0
  -31.0220  -13.6210   20.1160 N   0  0  0  0  0  0  0  0  0  0  0  0
  -32.8020  -14.9560   19.6030 O   0  0  0  0  0  0  0  0  0  0  0  0
  -31.3600  -15.5780   21.2210 N   0  0  0  0  0  0  0  0  0  0  0  0
  -30.5430  -15.2660   21.7210 H   0  0  0  0  0  0  0  0  0  0  0  0
  -26.3500  -14.3830   20.6360 C   0  0  0  0  0  0  0  0  0  0  0  0
  -25.2290  -13.6920   20.9940 C   0  0  0  0  0  0  0  0  0  0  0  0
  -25.5130  -12.3190   20.7160 C   0  0  0  0  0  0  0  0  0  0  0  0
  -27.2710  -13.4410   20.2040 N   0  0  0  0  0  0  0  0  0  0  0  0
  -26.7660  -12.1830   20.2960 N   0  0  0  0  0  0  0  0  0  0  0  0
  -24.6440  -11.1380   20.7730 C   0  0  0  0  0  0  0  0  0  0  0  0
  -25.0140   -9.9860   21.5060 C   0  0  0  0  0  3  0  0  0  0  0  0
  -24.1560   -8.8690   21.5600 C   0  0  0  0  0  3  0  0  0  0  0  0
  -22.9150   -8.8960   20.8820 C   0  0  0  0  0  0  0  0  0  0  0  0
  -22.5620  -10.0340   20.1360 C   0  0  0  0  0  3  0  0  0  0  0  0
  -23.4200  -11.1440   20.0760 C   0  0  0  0  0  3  0  0  0  0  0  0
  -22.0260   -7.8490   20.8590 O   0  0  0  0  0  0  0  0  0  0  0  0
  -21.8940   -6.9960   21.9250 C   0  0  0  0  0  0  0  0  0  0  0  0
  -21.5890   -7.4690   23.2210 C   0  0  0  0  0  3  0  0  0  0  0  0
  -21.3910   -6.5530   24.2730 C   0  0  0  0  0  3  0  0  0  0  0  0
  -21.4860   -5.1700   24.0330 C   0  0  0  0  0  0  0  0  0  0  0  0
  -21.7880   -4.6990   22.7440 C   0  0  0  0  0  3  0  0  0  0  0  0
  -21.9850   -5.6100   21.6910 C   0  0  0  0  0  0  0  0  0  0  0  0
  -22.2520   -5.1510   20.4450 F   0  0  0  0  0  0  0  0  0  0  0  0
  -21.2870   -4.2880   25.0420 F   0  0  0  0  0  0  0  0  0  0  0  0
  -23.9230  -14.2820   21.4510 C   0  0  0  0  0  0  0  0  0  0  0  0
  -23.1950  -13.5730   22.3070 N   0  0  0  0  0  0  0  0  0  0  0  0
  -23.5730  -15.4100   21.0970 O   0  0  0  0  0  0  0  0  0  0  0  0
  -23.4930  -12.6600   22.6210 H   0  0  0  0  0  0  0  0  0  0  0  0
  -22.3220  -13.9460   22.6540 H   0  0  0  0  0  0  0  0  0  0  0  0
  -26.6460  -15.7450   20.6070 N   0  0  0  0  0  0  0  0  0  0  0  0
  -25.7950  -16.2280   20.3330 H   0  0  0  0  0  0  0  0  0  0  0  0
  -27.3820  -15.9470   19.9380 H   0  0  0  0  0  0  0  0  0  0  0  0
  -29.6040  -20.7130   21.0200 C   0  0  0  0  0  2  0  0  0  0  0  0
  -29.3020  -23.0460   21.4970 C   0  0  0  0  0  2  0  0  0  0  0  0
  -30.6930  -22.4200   19.6770 C   0  0  0  0  0  2  0  0  0  0  0  0
  -29.9090  -24.4630   21.5190 C   0  0  0  0  0  2  0  0  0  0  0  0
  -31.3240  -23.8370   19.6630 C   0  0  0  0  0  2  0  0  0  0  0  0
  -30.2700  -22.0310   21.0350 N   0  0  0  0  0  0  0  0  0  0  0  0
  -30.3450  -24.8380   20.1520 N   0  0  2  0  0  4  0  0  0  0  0  0
  -29.5340  -24.7540   19.5550 H   0  0  0  0  0  0  0  0  0  0  0  0
  -30.7900  -26.2520   20.0060 C   0  0  0  0  0  2  0  0  0  0  0  0
  -29.6390  -27.2460   20.2590 C   0  0  0  0  0  2  0  0  0  0  0  0
  -28.4950  -26.7870   19.5340 O   0  0  0  0  0  0  0  0  0  0  0  0
  -24.4660  -31.6640   22.8810 C   0  0  0  0  0  0  0  0  0  0  0  0
  -27.3180  -27.4990   19.6350 C   0  0  0  0  0  0  0  0  0  0  0  0
  -23.3070  -30.2510   21.2050 C   0  0  0  0  0  3  0  0  0  0  0  0
  -24.8240  -28.8350   19.7220 C   0  0  0  0  0  0  0  0  0  0  0  0
  -25.7990  -30.7620   20.9830 C   0  0  0  0  0  2  0  0  0  0  0  0
  -25.9540  -29.4150   20.3110 C   0  0  0  0  0  0  0  0  0  0  0  0
  -27.1980  -28.7570   20.2740 C   0  0  0  0  0  3  0  0  0  0  0  0
  -26.1720  -26.9260   19.0440 C   0  0  0  0  0  3  0  0  0  0  0  0
  -24.9250  -27.5840   19.0880 C   0  0  0  0  0  3  0  0  0  0  0  0
  -23.5330  -29.6170   19.8050 C   0  0  0  0  0  2  0  0  0  0  0  0
  -24.5420  -30.9050   21.7480 N   0  0  0  0  0  0  0  0  0  0  0  0
  -23.3840  -31.8630   23.4450 O   0  0  0  0  0  0  0  0  0  0  0  0
  -22.7220  -29.1730   22.1440 C   0  0  0  0  0  0  0  0  0  0  0  0
  -21.3980  -28.9600   22.0590 N   0  0  0  0  0  0  0  0  0  0  0  0
  -23.4530  -28.5320   22.9010 O   0  0  0  0  0  0  0  0  0  0  0  0
  -20.8690  -29.5360   21.4200 H   0  0  0  0  0  0  0  0  0  0  0  0
  -18.0730  -27.6810   22.6450 C   0  0  0  0  0  0  0  0  0  0  0  0
  -20.6370  -27.9680   22.8140 C   0  0  0  0  0  3  0  0  0  0  0  0
  -20.7330  -26.5710   22.1570 C   0  0  0  0  0  2  0  0  0  0  0  0
  -19.5910  -26.2850   21.1770 C   0  0  0  0  0  2  0  0  0  0  0  0
  -18.2390  -26.3730   21.8900 C   0  0  0  0  0  2  0  0  0  0  0  0
  -19.1990  -28.4380   23.0650 C   0  0  0  0  0  0  0  0  0  0  0  0
  -18.9900  -29.6640   23.7310 C   0  0  0  0  0  3  0  0  0  0  0  0
  -17.6890  -30.1360   23.9820 C   0  0  0  0  0  3  0  0  0  0  0  0
  -16.5770  -29.3740   23.5790 C   0  0  0  0  0  3  0  0  0  0  0  0
  -16.7710  -28.1490   22.9160 C   0  0  0  0  0  3  0  0  0  0  0  0
  -25.7320  -32.3340   23.5020 C   0  0  0  0  0  3  0  0  0  0  0  0
  -25.3710  -33.7120   23.8620 N   0  0  0  0  0  0  0  0  0  0  0  0
  -25.6790  -34.7930   23.1350 C   0  0  0  0  0  0  0  0  0  0  0  0
  -26.3670  -34.7400   22.1110 O   0  0  0  0  0  0  0  0  0  0  0  0
  -24.7600  -33.8240   24.6590 H   0  0  0  0  0  0  0  0  0  0  0  0
  -23.8940  -36.5300   22.7910 C   0  0  0  0  0  1  0  0  0  0  0  0
  -25.1330  -36.1500   23.6160 C   0  0  0  0  0  3  0  0  0  0  0  0
  -27.2190  -37.0860   24.5130 C   0  0  0  0  0  1  0  0  0  0  0  0
  -26.1290  -37.2410   23.5510 N   0  0  0  0  0  0  0  0  0  0  0  0
  -25.6880  -38.1420   23.7160 H   0  0  0  0  0  0  0  0  0  0  0  0
  -26.3010  -31.5580   24.7540 C   0  0  1  0  0  0  0  0  0  0  0  0
  -25.2330  -31.2540   25.8300 C   0  0  0  0  0  1  0  0  0  0  0  0
  -26.9310  -30.2130   24.3200 C   0  0  0  0  0  1  0  0  0  0  0  0
  -27.4300  -32.3820   25.4170 C   0  0  0  0  0  1  0  0  0  0  0  0
  -29.5940  -20.7180   23.6360 C   0  0  0  0  0  2  0  0  0  0  0  0
  -29.3250  -20.8470   26.1490 C   0  0  0  0  0  1  0  0  0  0  0  0
  -29.6600  -19.9310   24.9620 C   0  0  0  0  0  2  0  0  0  0  0  0
  1 57  1  0
  1  2  1  0
  1108  1  0
  2  4  1  0
  2  3  1  0
  5  6  1  0
  5 18  1  0
  5  2  1  0
  7  6  1  0
  8  7  1  0
  9 10  1  0
  9  8  1  0
 11  9  1  0
 12  9  1  0
 13 14  1  0
 13  7  1  0
 14 17  1  0
 15 14  1  0
 16 14  1  0
 19 27  1  0
 20 25  1  0
 21 22  1  0
 21 20  1  0
 23 22  1  0
 23 32  1  0
 23 24  1  0
 25 19  1  0
 25 24  1  0
 26 19  2  0
 27 18  1  0
 27 28  1  0
 29 30  2  0
 30 49  1  0
 31 34  1  0
 31 30  1  0
 32 33  1  0
 32 29  1  0
 33 31  2  0
 34 35  1  0
 35 36  2  0
 37 36  1  0
 38 37  2  0
 39 38  1  0
 39 34  2  0
 40 37  1  0
 40 41  1  0
 41 42  1  0
 42 43  2  0
 44 43  1  0
 44 48  1  0
 45 44  2  0
 46 41  2  0
 46 45  1  0
 47 46  1  0
 49 50  1  0
 50 52  1  0
 50 53  1  0
 51 49  2  0
 54 29  1  0
 55 54  1  0
 56 54  1  0
 57 62  1  0
 58 60  1  0
 59 62  1  0
 61 59  1  0
 61 63  1  0
 62 58  1  0
 63 60  1  0
 63 64  1  6
 65 63  1  0
 65 66  1  0
 67 69  1  0
 67 66  1  0
 68 79  2  0
 69 74  1  0
 70 78  1  0
 70 80  1  0
 71 77  1  0
 71 73  1  0
 72 78  1  0
 73 72  1  0
 74 73  2  0
 75 76  1  0
 75 69  2  0
 76 71  2  0
 77 70  1  0
 78 68  1  0
 80 82  2  0
 81 80  1  0
 83 81  1  0
 84 93  2  0
 84 89  1  0
 85 81  1  0
 85 89  1  0
 86 85  1  0
 87 88  1  0
 87 86  1  0
 88 84  1  0
 89 90  2  0
 90 91  1  0
 92 91  2  0
 93 92  1  0
 94 68  1  0
 94 95  1  0
 94104  1  0
 95 98  1  0
 96100  1  0
 96 95  1  0
 97 96  2  0
100 99  1  0
102100  1  0
102103  1  0
102101  1  0
104107  1  1
104105  1  0
106104  1  0
108110  1  0
110109  1  0
M  ISO  4  19 100  27 100  66 101  67 101
M  END
>  <TORSDO>  (21) 
F 31

>  <SCORE>  (21) 
-4.156

>  <name>  (21) 
21

>  <ligand_id>  (21) 
21

>  <original_smiles>  (21) 
[H]c1c([H])c([H])c2c(c1[H])C([H])([H])C([H])([H])C([H])([H])C2([H])N([H])C(=O)C1([H])N(C(=O)C([H])(N([H])C(=O)C([H])(N([H])C([H])([H])[H])C([H])([H])[H])C(C([H])([H])[H])(C([H])([H])[H])C([H])([H])[H])C([H])([H])c2c([H])c(OC([H])([H])C([H])([H])[N+]3([H])C([H])([H])C([H])([H])N(C([H])([H])C([H])(C([H])([H])C([H])([H])C([H])([H])[H])[N+]([H])([H])C([H])(C([H])([H])N([H])C(=O)N4C([H])([H])C([H])([H])C([H])([H])C([H])(n5nc(-c6c([H])c([H])c(Oc7c([H])c([H])c(F)c([H])c7F)c([H])c6[H])c(C(=O)N([H])[H])c5N([H])[H])C4([H])[H])C([H])([H])C([H])(C([H])([H])[N+]([H])([H])[H])C([H])([H])[N+]([H])([H])[H])C([H])([H])C3([H])[H])c([H])c([H])c2C1([H])[H]

>  <smiles>  (21) 
[H]c1c([H])c([H])c2c(c1[H])C([H])([H])C([H])([H])C([H])([H])C2([H])N([H])C(=O)C1([H])N(C(=O)C([H])(N([H])C(=O)C([H])(N([H])C([H])([H])[H])C([H])([H])[H])C(C([H])([H])[H])(C([H])([H])[H])C([H])([H])[H])C([H])([H])c2c([H])c(OC([H])([H])C([H])([H])[N+]3([H])C([H])([H])C([H])([H])N(C([H])([H])C([H])(C([H])([H])C([H])([H])C([H])([H])[H])[N+]([H])([H])C([H])(C([H])([H])N([H])C(=O)N4C([H])([H])C([H])([H])C([H])([H])C([H])(n5nc(-c6c([H])c([H])c(Oc7c([H])c([H])c(F)c([H])c7F)c([H])c6[H])c(C(=O)N([H])[H])c5N([H])[H])C4([H])[H])C([H])([H])C([H])(C([H])([H])[N+]([H])([H])[H])C([H])([H])[N+]([H])([H])[H])C([H])([H])C3([H])[H])c([H])c([H])c2C1([H])[H]

$$$$
22:0:0
     RDKit          3D

 99107  0  0  1  0  0  0  0  0999 V2000
  -29.1070  -21.7900   20.1190 N   0  0  0  0  0  0  0  0  0  0  0  0
  -29.2830  -20.6820   19.1610 C   0  0  0  0  0  2  0  0  0  0  0  0
  -28.4920  -19.3770   19.4380 C   0  0  0  0  0  2  0  0  0  0  0  0
  -29.1660  -18.3260   20.3640 C   0  0  0  0  0  2  0  0  0  0  0  0
  -29.1470  -16.9150   19.7250 C   0  0  0  0  0  2  0  0  0  0  0  0
  -29.9930  -14.7990   20.7060 C   0  0  0  0  0  0  0  0  0  0  0  0
  -30.0310  -12.4770   19.9340 C   0  0  0  0  0  2  0  0  0  0  0  0
  -29.1760  -12.4350   18.6500 C   0  0  0  0  0  2  0  0  0  0  0  0
  -27.7000  -12.1670   19.0030 C   0  0  0  0  0  2  0  0  0  0  0  0
  -27.1660  -13.1110   20.1150 C   0  0  0  0  0  3  0  0  0  0  0  0
  -28.1510  -13.1850   21.3060 C   0  0  0  0  0  2  0  0  0  0  0  0
  -29.4790  -13.5430   20.7830 N   0  0  0  0  0  0  0  0  0  0  0  0
  -31.1610  -15.0300   20.3900 O   0  0  0  0  0  0  0  0  0  0  0  0
  -29.0680  -15.7790   20.6620 N   0  0  0  0  0  0  0  0  0  0  0  0
  -28.1410  -15.5010   20.9490 H   0  0  0  0  0  0  0  0  0  0  0  0
  -24.6970  -13.5220   20.7040 C   0  0  0  0  0  0  0  0  0  0  0  0
  -23.6850  -12.6690   21.0500 C   0  0  0  0  0  0  0  0  0  0  0  0
  -24.2630  -11.3630   21.0780 C   0  0  0  0  0  0  0  0  0  0  0  0
  -25.8250  -12.7300   20.5440 N   0  0  0  0  0  0  0  0  0  0  0  0
  -25.5630  -11.4280   20.8260 N   0  0  0  0  0  0  0  0  0  0  0  0
  -23.6380  -10.0460   21.2730 C   0  0  0  0  0  0  0  0  0  0  0  0
  -24.1080   -9.1460   22.2550 C   0  0  0  0  0  3  0  0  0  0  0  0
  -23.4810   -7.8940   22.4340 C   0  0  0  0  0  3  0  0  0  0  0  0
  -22.3710   -7.5330   21.6320 C   0  0  0  0  0  0  0  0  0  0  0  0
  -21.9210   -8.4250   20.6430 C   0  0  0  0  0  3  0  0  0  0  0  0
  -22.5490   -9.6690   20.4620 C   0  0  0  0  0  3  0  0  0  0  0  0
  -21.7160   -6.3300   21.7200 O   0  0  0  0  0  0  0  0  0  0  0  0
  -21.6850   -5.6100   22.8880 C   0  0  0  0  0  0  0  0  0  0  0  0
  -21.1590   -6.1480   24.0820 C   0  0  0  0  0  3  0  0  0  0  0  0
  -21.0860   -5.3500   25.2420 C   0  0  0  0  0  3  0  0  0  0  0  0
  -21.5250   -4.0120   25.2060 C   0  0  0  0  0  0  0  0  0  0  0  0
  -22.0430   -3.4730   24.0140 C   0  0  0  0  0  3  0  0  0  0  0  0
  -22.1190   -4.2700   22.8580 C   0  0  0  0  0  0  0  0  0  0  0  0
  -22.5990   -3.7390   21.7080 F   0  0  0  0  0  0  0  0  0  0  0  0
  -21.4470   -3.2420   26.3160 F   0  0  0  0  0  0  0  0  0  0  0  0
  -22.2420  -13.0310   21.2470 C   0  0  0  0  0  0  0  0  0  0  0  0
  -21.5420  -12.3090   22.1170 N   0  0  0  0  0  0  0  0  0  0  0  0
  -21.7350  -13.9890   20.6660 O   0  0  0  0  0  0  0  0  0  0  0  0
  -21.9590  -11.5300   22.6050 H   0  0  0  0  0  0  0  0  0  0  0  0
  -20.5740  -12.5350   22.2950 H   0  0  0  0  0  0  0  0  0  0  0  0
  -24.7460  -14.8960   20.4930 N   0  0  0  0  0  0  0  0  0  0  0  0
  -23.9100  -15.4670   20.5390 H   0  0  0  0  0  0  0  0  0  0  0  0
  -25.5570  -15.4090   20.1740 H   0  0  0  0  0  0  0  0  0  0  0  0
  -28.9850  -23.0900   19.4260 C   0  0  0  0  0  2  0  0  0  0  0  0
  -28.1760  -24.1970   20.1560 C   0  0  0  0  0  2  0  0  0  0  0  0
  -28.6850  -25.6430   19.8390 C   0  0  0  0  0  2  0  0  0  0  0  0
  -28.2900  -26.6900   18.9120 O   0  0  0  0  0  0  0  0  0  0  0  0
  -24.9410  -31.1280   23.3480 C   0  0  0  0  0  0  0  0  0  0  0  0
  -27.1540  -27.4380   19.1590 C   0  0  0  0  0  0  0  0  0  0  0  0
  -23.5490  -30.1450   21.5530 C   0  0  0  0  0  3  0  0  0  0  0  0
  -24.8220  -28.9300   19.7050 C   0  0  0  0  0  0  0  0  0  0  0  0
  -26.0590  -30.4980   21.2110 C   0  0  0  0  0  2  0  0  0  0  0  0
  -26.0420  -29.3020   20.2840 C   0  0  0  0  0  0  0  0  0  0  0  0
  -27.2140  -28.5650   20.0050 C   0  0  0  0  0  3  0  0  0  0  0  0
  -25.9230  -27.0760   18.5750 C   0  0  0  0  0  3  0  0  0  0  0  0
  -24.7570  -27.8150   18.8470 C   0  0  0  0  0  3  0  0  0  0  0  0
  -23.6160  -29.7760   20.0470 C   0  0  0  0  0  2  0  0  0  0  0  0
  -24.8730  -30.5920   22.0960 N   0  0  0  0  0  0  0  0  0  0  0  0
  -23.9200  -31.2930   24.0300 O   0  0  0  0  0  0  0  0  0  0  0  0
  -22.9430  -28.9500   22.3250 C   0  0  0  0  0  0  0  0  0  0  0  0
  -21.6410  -28.7010   22.1150 N   0  0  0  0  0  0  0  0  0  0  0  0
  -23.6420  -28.2560   23.0680 O   0  0  0  0  0  0  0  0  0  0  0  0
  -21.1320  -29.3240   21.5020 H   0  0  0  0  0  0  0  0  0  0  0  0
  -18.4220  -27.0590   22.0720 C   0  0  0  0  0  0  0  0  0  0  0  0
  -20.8700  -27.6040   22.7000 C   0  0  0  0  0  3  0  0  0  0  0  0
  -21.2310  -26.2530   22.0410 C   0  0  0  0  0  2  0  0  0  0  0  0
  -20.3160  -25.8880   20.8670 C   0  0  0  0  0  2  0  0  0  0  0  0
  -18.8580  -25.8060   21.3310 C   0  0  0  0  0  2  0  0  0  0  0  0
  -19.3670  -27.9110   22.7000 C   0  0  0  0  0  0  0  0  0  0  0  0
  -18.9120  -29.0820   23.3450 C   0  0  0  0  0  3  0  0  0  0  0  0
  -17.5420  -29.4050   23.3710 C   0  0  0  0  0  3  0  0  0  0  0  0
  -16.6090  -28.5480   22.7610 C   0  0  0  0  0  3  0  0  0  0  0  0
  -17.0490  -27.3770   22.1190 C   0  0  0  0  0  3  0  0  0  0  0  0
  -26.2970  -31.5840   23.9720 C   0  0  0  0  0  3  0  0  0  0  0  0
  -26.8690  -30.5630   25.0330 C   0  0  1  0  0  0  0  0  0  0  0  0
  -25.8520  -30.1620   26.1270 C   0  0  0  0  0  1  0  0  0  0  0  0
  -27.3500  -29.2680   24.3370 C   0  0  0  0  0  1  0  0  0  0  0  0
  -28.1070  -31.1710   25.7340 C   0  0  0  0  0  1  0  0  0  0  0  0
  -26.0820  -32.9020   24.5850 N   0  0  0  0  0  0  0  0  0  0  0  0
  -26.5470  -34.0570   24.0910 C   0  0  0  0  0  0  0  0  0  0  0  0
  -27.2760  -34.1140   23.0960 O   0  0  0  0  0  0  0  0  0  0  0  0
  -25.4550  -32.9350   25.3760 H   0  0  0  0  0  0  0  0  0  0  0  0
  -25.0520  -36.0800   24.0070 C   0  0  0  0  0  1  0  0  0  0  0  0
  -26.1410  -35.3550   24.8140 C   0  0  0  0  0  3  0  0  0  0  0  0
  -28.2360  -35.7660   26.0290 C   0  0  0  0  0  1  0  0  0  0  0  0
  -27.2740  -36.2730   25.0550 N   0  0  0  0  0  0  0  0  0  0  0  0
  -26.9400  -37.1770   25.3820 H   0  0  0  0  0  0  0  0  0  0  0  0
  -30.1260  -21.7950   21.1800 C   0  0  0  0  0  2  0  0  0  0  0  0
  -31.4870  -22.4430   20.8330 C   0  0  0  0  0  2  0  0  0  0  0  0
  -34.4860  -20.8230   22.5270 C   0  0  0  0  0  2  0  0  0  0  0  0
  -35.4770  -20.8530   21.3510 C   0  0  0  0  0  2  0  0  0  0  0  0
  -33.3090  -21.7830   22.2850 C   0  0  0  0  0  2  0  0  0  0  0  0
  -33.5810  -21.6390   19.8970 C   0  0  0  0  0  2  0  0  0  0  0  0
  -34.7330  -20.6140   20.0210 C   0  0  0  0  0  3  0  0  0  0  0  0
  -32.6260  -21.5390   21.0080 N   0  0  0  0  0  0  0  0  0  0  0  0
  -35.6460  -20.6690   18.8630 N   0  0  0  0  0  4  0  0  0  0  0  0
  -36.0310  -21.5870   18.7410 H   0  0  0  0  0  0  0  0  0  0  0  0
  -35.1610  -20.4120   18.0210 H   0  0  0  0  0  0  0  0  0  0  0  0
  -36.4030  -20.0200   18.9870 H   0  0  0  0  0  0  0  0  0  0  0  0
  1 88  1  0
  2  3  1  0
  2  1  1  0
  3  4  1  0
  5  4  1  0
  5 14  1  0
  6 12  1  0
  7 12  1  0
  8  9  1  0
  8  7  1  0
 10  9  1  0
 10 19  1  0
 10 11  1  0
 12 11  1  0
 13  6  2  0
 14  6  1  0
 14 15  1  0
 16 17  2  0
 17 18  1  0
 17 36  1  0
 18 21  1  0
 19 16  1  0
 19 20  1  0
 20 18  2  0
 21 22  1  0
 22 23  2  0
 24 27  1  0
 24 23  1  0
 25 24  2  0
 26 25  1  0
 26 21  2  0
 27 28  1  0
 28 29  1  0
 29 30  2  0
 31 30  1  0
 31 35  1  0
 32 31  2  0
 33 28  2  0
 33 32  1  0
 34 33  1  0
 36 37  1  0
 37 40  1  0
 37 39  1  0
 38 36  2  0
 41 42  1  0
 41 16  1  0
 43 41  1  0
 44  1  1  0
 44 45  1  0
 46 45  1  0
 47 49  1  0
 47 46  1  0
 48 59  2  0
 49 54  1  0
 50 58  1  0
 50 60  1  0
 51 57  1  0
 51 53  1  0
 52 58  1  0
 53 52  1  0
 54 53  2  0
 55 56  1  0
 55 49  2  0
 56 51  2  0
 57 50  1  0
 58 48  1  0
 60 62  2  0
 61 60  1  0
 63 61  1  0
 64 73  2  0
 64 69  1  0
 65 61  1  0
 65 69  1  0
 66 65  1  0
 67 68  1  0
 67 66  1  0
 68 64  1  0
 69 70  2  0
 70 71  1  0
 72 71  2  0
 73 72  1  0
 74 48  1  0
 74 79  1  0
 74 75  1  0
 75 78  1  1
 75 76  1  0
 77 75  1  0
 79 82  1  0
 80 79  1  0
 80 84  1  0
 81 80  2  0
 84 83  1  0
 84 86  1  0
 86 87  1  0
 86 85  1  0
 89 95  1  0
 89 88  1  0
 91 90  1  0
 92 90  1  0
 93 94  1  0
 93 95  1  0
 94 96  1  0
 94 91  1  0
 95 92  1  0
 96 99  1  0
 97 96  1  0
 98 96  1  0
M  ISO  4   6 100  14 100  46 101  47 101
M  END
>  <TORSDO>  (22) 
F 27

>  <SCORE>  (22) 
-8.940

>  <name>  (22) 
22

>  <ligand_id>  (22) 
22

>  <original_smiles>  (22) 
[H]c1c([H])c([H])c2c(c1[H])C([H])([H])C([H])([H])C([H])([H])C2([H])N([H])C(=O)C1([H])N(C(=O)C([H])(N([H])C(=O)C([H])(N([H])C([H])([H])[H])C([H])([H])[H])C(C([H])([H])[H])(C([H])([H])[H])C([H])([H])[H])C([H])([H])c2c([H])c(OC([H])([H])C([H])([H])C([H])([H])N(C([H])([H])C([H])([H])N3C([H])([H])C([H])([H])C([H])([H])C([H])([N+]([H])([H])[H])C3([H])[H])C([H])([H])C([H])([H])C([H])([H])C([H])([H])N([H])C(=O)N3C([H])([H])C([H])([H])C([H])([H])C([H])(n4nc(-c5c([H])c([H])c(Oc6c([H])c([H])c(F)c([H])c6F)c([H])c5[H])c(C(=O)N([H])[H])c4N([H])[H])C3([H])[H])c([H])c([H])c2C1([H])[H]

>  <smiles>  (22) 
[H]c1c([H])c([H])c2c(c1[H])C([H])([H])C([H])([H])C([H])([H])C2([H])N([H])C(=O)C1([H])N(C(=O)C([H])(N([H])C(=O)C([H])(N([H])C([H])([H])[H])C([H])([H])[H])C(C([H])([H])[H])(C([H])([H])[H])C([H])([H])[H])C([H])([H])c2c([H])c(OC([H])([H])C([H])([H])C([H])([H])N(C([H])([H])C([H])([H])N3C([H])([H])C([H])([H])C([H])([H])C([H])([N+]([H])([H])[H])C3([H])[H])C([H])([H])C([H])([H])C([H])([H])C([H])([H])N([H])C(=O)N3C([H])([H])C([H])([H])C([H])([H])C([H])(n4nc(-c5c([H])c([H])c(Oc6c([H])c([H])c(F)c([H])c6F)c([H])c5[H])c(C(=O)N([H])[H])c4N([H])[H])C3([H])[H])c([H])c([H])c2C1([H])[H]

$$$$
23:0:0
     RDKit          3D

101109  0  0  1  0  0  0  0  0999 V2000
  -30.1190  -19.0970   21.4450 C   0  0  0  0  0  0  0  0  0  0  0  0
  -30.2230  -21.3270   22.4600 C   0  0  0  0  0  2  0  0  0  0  0  0
  -29.4260  -21.0960   20.0790 C   0  0  0  0  0  2  0  0  0  0  0  0
  -30.6650  -22.7670   22.1190 C   0  0  0  0  0  2  0  0  0  0  0  0
  -29.9260  -22.5230   19.8270 C   0  0  0  0  0  2  0  0  0  0  0  0
  -30.0030  -20.4500   21.2880 N   0  0  0  0  0  0  0  0  0  0  0  0
  -29.8070  -23.3350   21.0570 N   0  0  2  0  0  4  0  0  0  0  0  0
  -30.3050  -18.5920   22.5580 O   0  0  0  0  0  0  0  0  0  0  0  0
  -28.8650  -23.2160   21.3980 H   0  0  0  0  0  0  0  0  0  0  0  0
  -29.9730  -24.7950   20.8270 C   0  0  0  0  0  2  0  0  0  0  0  0
  -28.6990  -25.4080   20.2140 C   0  0  0  0  0  2  0  0  0  0  0  0
  -28.8160  -26.8340   20.1680 O   0  0  0  0  0  0  0  0  0  0  0  0
  -24.7060  -31.7590   23.1920 C   0  0  0  0  0  0  0  0  0  0  0  0
  -27.6210  -27.5170   20.0970 C   0  0  0  0  0  0  0  0  0  0  0  0
  -23.6110  -30.3540   21.4760 C   0  0  0  0  0  3  0  0  0  0  0  0
  -25.1700  -28.9220   20.0540 C   0  0  0  0  0  0  0  0  0  0  0  0
  -26.1280  -30.8210   21.3750 C   0  0  0  0  0  2  0  0  0  0  0  0
  -26.2840  -29.4760   20.6970 C   0  0  0  0  0  0  0  0  0  0  0  0
  -27.5170  -28.7870   20.7080 C   0  0  0  0  0  3  0  0  0  0  0  0
  -26.4870  -26.9730   19.4460 C   0  0  0  0  0  3  0  0  0  0  0  0
  -25.2710  -27.6730   19.4200 C   0  0  0  0  0  3  0  0  0  0  0  0
  -23.8930  -29.7270   20.0830 C   0  0  0  0  0  2  0  0  0  0  0  0
  -24.8280  -30.9940   22.0700 N   0  0  0  0  0  0  0  0  0  0  0  0
  -23.5980  -31.9700   23.7030 O   0  0  0  0  0  0  0  0  0  0  0  0
  -22.9780  -29.2760   22.3860 C   0  0  0  0  0  0  0  0  0  0  0  0
  -21.6660  -29.0400   22.2100 N   0  0  0  0  0  0  0  0  0  0  0  0
  -23.6630  -28.6620   23.2070 O   0  0  0  0  0  0  0  0  0  0  0  0
  -21.1780  -29.5960   21.5220 H   0  0  0  0  0  0  0  0  0  0  0  0
  -18.3250  -27.7070   22.5680 C   0  0  0  0  0  0  0  0  0  0  0  0
  -20.8630  -28.0510   22.9300 C   0  0  0  0  0  3  0  0  0  0  0  0
  -21.0370  -26.6400   22.3200 C   0  0  0  0  0  2  0  0  0  0  0  0
  -19.9790  -26.3050   21.2630 C   0  0  0  0  0  2  0  0  0  0  0  0
  -18.5730  -26.3830   21.8650 C   0  0  0  0  0  2  0  0  0  0  0  0
  -19.4010  -28.4970   23.0540 C   0  0  0  0  0  0  0  0  0  0  0  0
  -19.1160  -29.7370   23.6680 C   0  0  0  0  0  3  0  0  0  0  0  0
  -17.7890  -30.1840   23.8030 C   0  0  0  0  0  3  0  0  0  0  0  0
  -16.7270  -29.3910   23.3360 C   0  0  0  0  0  3  0  0  0  0  0  0
  -16.9960  -28.1540   22.7230 C   0  0  0  0  0  3  0  0  0  0  0  0
  -25.9470  -32.4230   23.8670 C   0  0  0  0  0  3  0  0  0  0  0  0
  -26.4460  -31.6530   25.1520 C   0  0  1  0  0  0  0  0  0  0  0  0
  -25.3230  -31.3510   26.1720 C   0  0  0  0  0  1  0  0  0  0  0  0
  -27.1040  -30.3090   24.7620 C   0  0  0  0  0  1  0  0  0  0  0  0
  -27.5330  -32.4860   25.8710 C   0  0  0  0  0  1  0  0  0  0  0  0
  -25.5810  -33.8050   24.2030 N   0  0  0  0  0  0  0  0  0  0  0  0
  -25.8850  -34.8750   23.4540 C   0  0  0  0  0  0  0  0  0  0  0  0
  -26.5810  -34.8060   22.4370 O   0  0  0  0  0  0  0  0  0  0  0  0
  -24.9650  -33.9310   24.9930 H   0  0  0  0  0  0  0  0  0  0  0  0
  -24.0920  -36.5980   23.0780 C   0  0  0  0  0  1  0  0  0  0  0  0
  -25.3340  -36.2390   23.9100 C   0  0  0  0  0  3  0  0  0  0  0  0
  -27.4080  -37.2130   24.7950 C   0  0  0  0  0  1  0  0  0  0  0  0
  -26.3240  -37.3360   23.8220 N   0  0  0  0  0  0  0  0  0  0  0  0
  -25.8750  -38.2370   23.9610 H   0  0  0  0  0  0  0  0  0  0  0  0
  -30.0550  -18.1420   20.2200 C   0  0  0  0  0  0  0  0  0  0  0  0
  -27.5240  -18.2370   19.9090 C   0  0  0  0  0  0  0  0  0  0  0  0
  -28.7490  -17.7470   19.6560 N   0  0  0  0  0  4  0  0  0  0  0  0
  -27.2310  -18.8490   20.9390 O   0  0  0  0  0  0  0  0  0  0  0  0
  -28.8150  -17.1890   18.8170 H   0  0  0  0  0  0  0  0  0  0  0  0
  -26.4670  -18.0670   18.8090 C   0  0  0  0  0  2  0  0  0  0  0  0
  -25.1800  -18.6580   19.2110 N   0  0  0  0  0  4  0  0  0  0  0  0
  -24.8870  -18.2460   20.0780 H   0  0  0  0  0  0  0  0  0  0  0  0
  -24.4760  -18.5100   18.5090 H   0  0  0  0  0  0  0  0  0  0  0  0
  -25.3020  -19.6430   19.3680 H   0  0  0  0  0  0  0  0  0  0  0  0
  -31.0670  -16.9680   20.2590 C   0  0  0  0  0  2  0  0  0  0  0  0
  -31.1700  -14.5200   20.1210 C   0  0  0  0  0  0  0  0  0  0  0  0
  -30.7620  -12.3540   19.0590 C   0  0  0  0  0  2  0  0  0  0  0  0
  -29.8160  -12.5790   17.8650 C   0  0  0  0  0  2  0  0  0  0  0  0
  -28.3480  -12.4950   18.3220 C   0  0  0  0  0  2  0  0  0  0  0  0
  -28.0540  -13.3580   19.5820 C   0  0  0  0  0  3  0  0  0  0  0  0
  -29.1260  -13.1520   20.6760 C   0  0  0  0  0  2  0  0  0  0  0  0
  -30.4460  -13.3750   20.0670 N   0  0  0  0  0  0  0  0  0  0  0  0
  -32.3130  -14.6100   19.6630 O   0  0  0  0  0  0  0  0  0  0  0  0
  -30.5060  -15.6240   20.4930 N   0  0  0  0  0  0  0  0  0  0  0  0
  -29.5700  -15.5380   20.8560 H   0  0  0  0  0  0  0  0  0  0  0  0
  -25.6970  -14.0210   20.3730 C   0  0  0  0  0  0  0  0  0  0  0  0
  -24.6090  -13.2790   20.7260 C   0  0  0  0  0  0  0  0  0  0  0  0
  -25.0250  -11.9140   20.6570 C   0  0  0  0  0  0  0  0  0  0  0  0
  -26.7070  -13.1160   20.0910 N   0  0  0  0  0  0  0  0  0  0  0  0
  -26.3060  -11.8400   20.3260 N   0  0  0  0  0  0  0  0  0  0  0  0
  -24.2660  -10.6770   20.8510 C   0  0  0  0  0  0  0  0  0  0  0  0
  -24.6370   -9.7280   21.8280 C   0  0  0  0  0  3  0  0  0  0  0  0
  -23.8780   -8.5510   22.0060 C   0  0  0  0  0  3  0  0  0  0  0  0
  -22.7350   -8.3200   21.2080 C   0  0  0  0  0  0  0  0  0  0  0  0
  -22.3780   -9.2620   20.2250 C   0  0  0  0  0  3  0  0  0  0  0  0
  -23.1360  -10.4280   20.0460 C   0  0  0  0  0  3  0  0  0  0  0  0
  -21.9490   -7.1980   21.2890 O   0  0  0  0  0  0  0  0  0  0  0  0
  -21.7840   -6.5210   22.4720 C   0  0  0  0  0  0  0  0  0  0  0  0
  -21.1950   -7.1310   23.6010 C   0  0  0  0  0  3  0  0  0  0  0  0
  -20.9790   -6.3780   24.7750 C   0  0  0  0  0  3  0  0  0  0  0  0
  -21.3450   -5.0200   24.8160 C   0  0  0  0  0  0  0  0  0  0  0  0
  -21.9240   -4.4090   23.6900 C   0  0  0  0  0  3  0  0  0  0  0  0
  -22.1380   -5.1590   22.5200 C   0  0  0  0  0  0  0  0  0  0  0  0
  -22.6800   -4.5610   21.4320 F   0  0  0  0  0  0  0  0  0  0  0  0
  -21.1290   -4.2940   25.9410 F   0  0  0  0  0  0  0  0  0  0  0  0
  -23.2350  -13.7990   21.0370 C   0  0  0  0  0  0  0  0  0  0  0  0
  -22.5110  -13.1250   21.9240 N   0  0  0  0  0  0  0  0  0  0  0  0
  -22.8270  -14.8480   20.5400 O   0  0  0  0  0  0  0  0  0  0  0  0
  -22.8640  -12.2850   22.3570 H   0  0  0  0  0  0  0  0  0  0  0  0
  -21.5930  -13.4580   22.1780 H   0  0  0  0  0  0  0  0  0  0  0  0
  -25.9110  -15.3890   20.2870 N   0  0  0  0  0  0  0  0  0  0  0  0
  -25.1230  -15.8690   20.7020 H   0  0  0  0  0  0  0  0  0  0  0  0
  -26.7590  -15.6360   20.7770 H   0  0  0  0  0  0  0  0  0  0  0  0
  1  8  2  0
  3  6  1  0
  4  2  1  0
  5  3  1  0
  5  7  1  0
  6  1  1  0
  6  2  1  0
  7  9  1  1
  7  4  1  0
 10  7  1  0
 11 10  1  0
 12 11  1  0
 13 24  2  0
 14 12  1  0
 14 19  1  0
 15 23  1  0
 15 25  1  0
 16 22  1  0
 16 18  1  0
 17 23  1  0
 18 19  2  0
 18 17  1  0
 20 14  2  0
 21 20  1  0
 21 16  2  0
 22 15  1  0
 23 13  1  0
 25 27  2  0
 26 25  1  0
 28 26  1  0
 29 38  2  0
 29 34  1  0
 30 26  1  0
 30 34  1  0
 31 30  1  0
 32 33  1  0
 32 31  1  0
 33 29  1  0
 34 35  2  0
 35 36  1  0
 37 36  2  0
 38 37  1  0
 39 13  1  0
 39 44  1  0
 39 40  1  0
 40 43  1  1
 40 41  1  0
 42 40  1  0
 44 47  1  0
 45 49  1  0
 45 44  1  0
 46 45  2  0
 49 48  1  0
 51 49  1  0
 51 52  1  0
 51 50  1  0
 53 63  1  0
 53  1  1  0
 54 56  2  0
 55 54  1  0
 55 53  2  0
 57 55  1  0
 58 59  1  0
 58 54  1  0
 59 62  1  0
 59 60  1  0
 61 59  1  0
 63 72  1  0
 64 72  1  0
 65 70  1  0
 66 67  1  0
 66 65  1  0
 68 67  1  0
 68 77  1  0
 68 69  1  0
 70 64  1  0
 70 69  1  0
 71 64  2  0
 72 73  1  0
 74 75  2  0
 75 94  1  0
 76 75  1  0
 76 79  1  0
 77 78  1  0
 77 74  1  0
 78 76  2  0
 79 80  1  0
 80 81  2  0
 82 85  1  0
 82 81  1  0
 83 82  2  0
 84 83  1  0
 84 79  2  0
 85 86  1  0
 86 91  2  0
 86 87  1  0
 87 88  2  0
 88 89  1  0
 89 93  1  0
 90 89  2  0
 91 90  1  0
 92 91  1  0
 94 95  1  0
 95 98  1  0
 95 97  1  0
 96 94  2  0
 99 74  1  0
 99100  1  0
 99101  1  0
M  ISO  4  11 101  12 101  64 100  72 100
M  END
>  <TORSDO>  (23) 
F 23

>  <SCORE>  (23) 
-11.290

>  <name>  (23) 
23

>  <ligand_id>  (23) 
23

>  <original_smiles>  (23) 
[H]c1c([H])c([H])c2c(c1[H])C([H])([H])C([H])([H])C([H])([H])C2([H])N([H])C(=O)C1([H])N(C(=O)C([H])(N([H])C(=O)C([H])(N([H])C([H])([H])[H])C([H])([H])[H])C(C([H])([H])[H])(C([H])([H])[H])C([H])([H])[H])C([H])([H])c2c([H])c(OC([H])([H])C([H])([H])[N+]3([H])C([H])([H])C([H])([H])N(C(=O)C([H])(N([H])C(=O)C([H])([H])[N+]([H])([H])[H])C([H])([H])N([H])C(=O)N4C([H])([H])C([H])([H])C([H])([H])C([H])(n5nc(-c6c([H])c([H])c(Oc7c([H])c([H])c(F)c([H])c7F)c([H])c6[H])c(C(=O)N([H])[H])c5N([H])[H])C4([H])[H])C([H])([H])C3([H])[H])c([H])c([H])c2C1([H])[H]

>  <smiles>  (23) 
[H]c1c([H])c([H])c2c(c1[H])C([H])([H])C([H])([H])C([H])([H])C2([H])N([H])C(=O)C1([H])N(C(=O)C([H])(N([H])C(=O)C([H])(N([H])C([H])([H])[H])C([H])([H])[H])C(C([H])([H])[H])(C([H])([H])[H])C([H])([H])[H])C([H])([H])c2c([H])c(OC([H])([H])C([H])([H])[N+]3([H])C([H])([H])C([H])([H])N(C(=O)C([H])(N([H])C(=O)C([H])([H])[N+]([H])([H])[H])C([H])([H])N([H])C(=O)N4C([H])([H])C([H])([H])C([H])([H])C([H])(n5nc(-c6c([H])c([H])c(Oc7c([H])c([H])c(F)c([H])c7F)c([H])c6[H])c(C(=O)N([H])[H])c5N([H])[H])C4([H])[H])C([H])([H])C3([H])[H])c([H])c([H])c2C1([H])[H]

$$$$
24:0:0
     RDKit          3D

104112  0  0  1  0  0  0  0  0999 V2000
  -32.2540  -17.6920   18.4380 C   0  0  0  0  0  2  0  0  0  0  0  0
  -29.4910  -19.6780   17.7390 C   0  0  0  0  0  2  0  0  0  0  0  0
  -31.4960  -20.9600   17.9510 C   0  0  0  0  0  2  0  0  0  0  0  0
  -30.2520  -18.4690   17.0790 C   0  0  0  0  0  2  0  0  0  0  0  0
  -32.3060  -19.8540   17.2090 C   0  0  0  0  0  2  0  0  0  0  0  0
  -30.0860  -21.0100   17.5230 N   0  0  0  0  0  0  0  0  0  0  0  0
  -31.7220  -18.4750   17.2900 N   0  0  1  0  0  4  0  0  0  0  0  0
  -32.1110  -18.0110   16.4700 H   0  0  0  0  0  0  0  0  0  0  0  0
  -29.2140  -22.0830   18.0950 C   0  0  0  0  0  2  0  0  0  0  0  0
  -29.7450  -23.5490   18.1790 C   0  0  0  0  0  2  0  0  0  0  0  0
  -28.7700  -24.5280   18.9260 C   0  0  0  0  0  2  0  0  0  0  0  0
  -28.8290  -26.0550   18.6120 C   0  0  0  0  0  2  0  0  0  0  0  0
  -28.4790  -26.8060   19.8080 O   0  0  0  0  0  0  0  0  0  0  0  0
  -24.6470  -31.8350   23.1740 C   0  0  0  0  0  0  0  0  0  0  0  0
  -27.2790  -27.4900   19.8970 C   0  0  0  0  0  0  0  0  0  0  0  0
  -23.4210  -30.4810   21.5040 C   0  0  0  0  0  3  0  0  0  0  0  0
  -24.8620  -28.9540   20.0450 C   0  0  0  0  0  0  0  0  0  0  0  0
  -25.9580  -30.8250   21.2910 C   0  0  0  0  0  2  0  0  0  0  0  0
  -26.0360  -29.4720   20.6300 C   0  0  0  0  0  0  0  0  0  0  0  0
  -27.2410  -28.7400   20.5610 C   0  0  0  0  0  3  0  0  0  0  0  0
  -26.0810  -26.9550   19.3870 C   0  0  0  0  0  3  0  0  0  0  0  0
  -24.8880  -27.6860   19.4430 C   0  0  0  0  0  3  0  0  0  0  0  0
  -23.6490  -29.8530   20.0940 C   0  0  0  0  0  2  0  0  0  0  0  0
  -24.6960  -31.0580   22.0540 N   0  0  0  0  0  0  0  0  0  0  0  0
  -23.5670  -32.1120   23.7140 O   0  0  0  0  0  0  0  0  0  0  0  0
  -22.7770  -29.4300   22.4530 C   0  0  0  0  0  0  0  0  0  0  0  0
  -21.4560  -29.2570   22.3350 N   0  0  0  0  0  0  0  0  0  0  0  0
  -23.4630  -28.7900   23.2430 O   0  0  0  0  0  0  0  0  0  0  0  0
  -20.9400  -29.8220   21.6680 H   0  0  0  0  0  0  0  0  0  0  0  0
  -18.0910  -28.0690   22.8960 C   0  0  0  0  0  0  0  0  0  0  0  0
  -20.6500  -28.3190   23.1250 C   0  0  0  0  0  3  0  0  0  0  0  0
  -20.7400  -26.8940   22.5410 C   0  0  0  0  0  2  0  0  0  0  0  0
  -19.6230  -26.5900   21.5380 C   0  0  0  0  0  2  0  0  0  0  0  0
  -18.2470  -26.7400   22.1970 C   0  0  0  0  0  2  0  0  0  0  0  0
  -19.2150  -28.8270   23.3140 C   0  0  0  0  0  0  0  0  0  0  0  0
  -19.0110  -30.0810   23.9300 C   0  0  0  0  0  3  0  0  0  0  0  0
  -17.7080  -30.5740   24.1430 C   0  0  0  0  0  3  0  0  0  0  0  0
  -16.5950  -29.8180   23.7330 C   0  0  0  0  0  3  0  0  0  0  0  0
  -16.7910  -28.5670   23.1220 C   0  0  0  0  0  3  0  0  0  0  0  0
  -25.9310  -32.4540   23.7880 C   0  0  0  0  0  3  0  0  0  0  0  0
  -26.4910  -31.6740   25.0370 C   0  0  1  0  0  0  0  0  0  0  0  0
  -25.4460  -31.4320   26.1390 C   0  0  0  0  0  1  0  0  0  0  0  0
  -27.0630  -30.3040   24.5990 C   0  0  0  0  0  1  0  0  0  0  0  0
  -27.6500  -32.4650   25.6790 C   0  0  0  0  0  1  0  0  0  0  0  0
  -25.6090  -33.8470   24.1200 N   0  0  0  0  0  0  0  0  0  0  0  0
  -25.9350  -34.9180   23.3910 C   0  0  0  0  0  0  0  0  0  0  0  0
  -26.5920  -34.8540   22.3450 O   0  0  0  0  0  0  0  0  0  0  0  0
  -25.0500  -33.9860   24.9430 H   0  0  0  0  0  0  0  0  0  0  0  0
  -24.1850  -36.7020   23.1560 C   0  0  0  0  0  1  0  0  0  0  0  0
  -25.4530  -36.2890   23.9230 C   0  0  0  0  0  3  0  0  0  0  0  0
  -27.6130  -37.1800   24.6980 C   0  0  0  0  0  1  0  0  0  0  0  0
  -26.4710  -37.3460   23.8020 N   0  0  0  0  0  0  0  0  0  0  0  0
  -26.0600  -38.2510   23.9840 H   0  0  0  0  0  0  0  0  0  0  0  0
  -31.7810  -16.2130   18.7550 C   0  0  0  0  0  2  0  0  0  0  0  0
  -30.9210  -14.6550   20.5170 C   0  0  0  0  0  0  0  0  0  0  0  0
  -30.4330  -12.4280   19.6370 C   0  0  0  0  0  2  0  0  0  0  0  0
  -29.5170  -12.4460   18.4080 C   0  0  0  0  0  2  0  0  0  0  0  0
  -28.0440  -12.3460   18.8380 C   0  0  0  0  0  2  0  0  0  0  0  0
  -27.6500  -13.3550   19.9560 C   0  0  0  0  0  3  0  0  0  0  0  0
  -28.7290  -13.4280   21.0680 C   0  0  0  0  0  2  0  0  0  0  0  0
  -30.0380  -13.6170   20.4170 N   0  0  0  0  0  0  0  0  0  0  0  0
  -32.0950  -14.4220   20.7160 O   0  0  0  0  0  0  0  0  0  0  0  0
  -30.7290  -15.8150   19.8050 N   0  0  0  0  0  0  0  0  0  0  0  0
  -25.2290  -13.9660   20.5970 C   0  0  0  0  0  0  0  0  0  0  0  0
  -24.1360  -13.1930   20.9320 C   0  0  0  0  0  0  0  0  0  0  0  0
  -24.5970  -11.8490   20.9470 C   0  0  0  0  0  0  0  0  0  0  0  0
  -26.2890  -13.0850   20.4310 N   0  0  0  0  0  0  0  0  0  0  0  0
  -25.9050  -11.8100   20.7010 N   0  0  0  0  0  0  0  0  0  0  0  0
  -23.8500  -10.5860   21.1170 C   0  0  0  0  0  0  0  0  0  0  0  0
  -24.2610   -9.6090   22.0530 C   0  0  0  0  0  3  0  0  0  0  0  0
  -23.5200   -8.4210   22.2270 C   0  0  0  0  0  3  0  0  0  0  0  0
  -22.3440   -8.2000   21.4770 C   0  0  0  0  0  0  0  0  0  0  0  0
  -21.9450   -9.1610   20.5320 C   0  0  0  0  0  3  0  0  0  0  0  0
  -22.6860  -10.3440   20.3540 C   0  0  0  0  0  3  0  0  0  0  0  0
  -21.5760   -7.0630   21.5590 O   0  0  0  0  0  0  0  0  0  0  0  0
  -21.5470   -6.2870   22.6890 C   0  0  0  0  0  0  0  0  0  0  0  0
  -21.1900   -6.8280   23.9430 C   0  0  0  0  0  3  0  0  0  0  0  0
  -21.1100   -5.9900   25.0740 C   0  0  0  0  0  3  0  0  0  0  0  0
  -21.3730   -4.6130   24.9510 C   0  0  0  0  0  0  0  0  0  0  0  0
  -21.7210   -4.0720   23.7010 C   0  0  0  0  0  3  0  0  0  0  0  0
  -21.8040   -4.9070   22.5730 C   0  0  0  0  0  0  0  0  0  0  0  0
  -22.1200   -4.3870   21.3620 F   0  0  0  0  0  0  0  0  0  0  0  0
  -21.2870   -3.7980   26.0280 F   0  0  0  0  0  0  0  0  0  0  0  0
  -22.7340  -13.6860   21.1470 C   0  0  0  0  0  0  0  0  0  0  0  0
  -21.9680  -13.0030   22.0020 N   0  0  0  0  0  0  0  0  0  0  0  0
  -22.3150  -14.6920   20.5820 O   0  0  0  0  0  0  0  0  0  0  0  0
  -22.3150  -12.1840   22.4730 H   0  0  0  0  0  0  0  0  0  0  0  0
  -21.0240  -13.3240   22.1880 H   0  0  0  0  0  0  0  0  0  0  0  0
  -25.3990  -15.3270   20.3960 N   0  0  0  0  0  0  0  0  0  0  0  0
  -24.6430  -15.9910   20.4860 H   0  0  0  0  0  0  0  0  0  0  0  0
  -26.2700  -15.7620   20.1160 H   0  0  0  0  0  0  0  0  0  0  0  0
  -29.7740  -16.8140   20.3050 C   0  0  0  0  0  2  0  0  0  0  0  0
  -30.3140  -18.0040   21.2150 C   0  0  0  0  0  3  0  0  0  0  0  0
  -29.6600  -19.3510   20.7730 C   0  0  0  0  0  2  0  0  0  0  0  0
  -29.4370  -20.5030   21.7680 C   0  0  0  0  0  2  0  0  0  0  0  0
  -28.8440  -21.6720   21.0730 N   0  0  0  0  0  4  0  0  0  0  0  0
  -28.6630  -22.4140   21.7350 H   0  0  0  0  0  0  0  0  0  0  0  0
  -27.9990  -21.4360   20.5660 H   0  0  0  0  0  0  0  0  0  0  0  0
  -29.5050  -21.9770   20.4030 H   0  0  0  0  0  0  0  0  0  0  0  0
  -31.8020  -18.0340   21.7540 C   0  0  0  0  0  2  0  0  0  0  0  0
  -32.7260  -19.0630   21.2040 N   0  0  0  0  0  4  0  0  0  0  0  0
  -32.2770  -19.8430   20.7820 H   0  0  0  0  0  0  0  0  0  0  0  0
  -33.4170  -18.6830   20.5810 H   0  0  0  0  0  0  0  0  0  0  0  0
  -33.3150  -19.4120   21.9400 H   0  0  0  0  0  0  0  0  0  0  0  0
  1 54  1  0
  4  7  1  0
  4  2  1  0
  5  7  1  0
  5  3  1  0
  6  2  1  0
  6  3  1  0
  6  9  1  0
  7  1  1  0
  7  8  1  6
  9 10  1  0
 10 11  1  0
 12 11  1  0
 12 13  1  0
 13 15  1  0
 14 25  2  0
 15 20  1  0
 16 24  1  0
 16 26  1  0
 17 23  1  0
 17 19  1  0
 18 24  1  0
 19 18  1  0
 20 19  2  0
 21 22  1  0
 21 15  2  0
 22 17  2  0
 23 16  1  0
 24 14  1  0
 26 28  2  0
 27 26  1  0
 29 27  1  0
 30 39  2  0
 30 35  1  0
 31 27  1  0
 31 35  1  0
 32 31  1  0
 33 34  1  0
 33 32  1  0
 34 30  1  0
 35 36  2  0
 36 37  1  0
 38 37  2  0
 39 38  1  0
 40 14  1  0
 40 45  1  0
 40 41  1  0
 41 44  1  1
 41 42  1  0
 43 41  1  0
 45 48  1  0
 46 50  1  0
 46 45  1  0
 47 46  2  0
 50 49  1  0
 52 50  1  0
 52 53  1  0
 52 51  1  0
 54 63  1  0
 55 62  2  0
 56 61  1  0
 57 58  1  0
 57 56  1  0
 59 58  1  0
 59 67  1  0
 59 60  1  0
 61 55  1  0
 61 60  1  0
 63 92  1  0
 63 55  1  0
 64 65  2  0
 65 66  1  0
 65 84  1  0
 66 69  1  0
 67 64  1  0
 67 68  1  0
 68 66  2  0
 69 70  1  0
 70 71  2  0
 72 75  1  0
 72 71  1  0
 73 72  2  0
 74 73  1  0
 74 69  2  0
 75 76  1  0
 76 77  1  0
 77 78  2  0
 79 78  1  0
 79 83  1  0
 80 79  2  0
 81 76  2  0
 81 80  1  0
 82 81  1  0
 84 85  1  0
 85 88  1  0
 85 87  1  0
 86 84  2  0
 89 90  1  0
 89 64  1  0
 91 89  1  0
 93 92  1  0
 93100  1  0
 94 93  1  0
 94 95  1  0
 96 97  1  0
 96 95  1  0
 98 96  1  0
 99 96  1  0
101100  1  0
101104  1  0
102101  1  0
103101  1  0
M  ISO  4  12 101  13 101  55 100  63 100
M  END
>  <TORSDO>  (24) 
F 29

>  <SCORE>  (24) 
-11.149

>  <name>  (24) 
24

>  <ligand_id>  (24) 
24

>  <original_smiles>  (24) 
[H]c1c([H])c([H])c2c(c1[H])C([H])([H])C([H])([H])C([H])([H])C2([H])N([H])C(=O)C1([H])N(C(=O)C([H])(N([H])C(=O)C([H])(N([H])C([H])([H])[H])C([H])([H])[H])C(C([H])([H])[H])(C([H])([H])[H])C([H])([H])[H])C([H])([H])c2c([H])c(OC([H])([H])C([H])([H])C([H])([H])C([H])([H])N3C([H])([H])C([H])([H])[N+]([H])(C([H])([H])C([H])([H])N(C(=O)N4C([H])([H])C([H])([H])C([H])([H])C([H])(n5nc(-c6c([H])c([H])c(Oc7c([H])c([H])c(F)c([H])c7F)c([H])c6[H])c(C(=O)N([H])[H])c5N([H])[H])C4([H])[H])C([H])([H])C([H])(C([H])([H])C([H])([H])[N+]([H])([H])[H])C([H])([H])[N+]([H])([H])[H])C([H])([H])C3([H])[H])c([H])c([H])c2C1([H])[H]

>  <smiles>  (24) 
[H]c1c([H])c([H])c2c(c1[H])C([H])([H])C([H])([H])C([H])([H])C2([H])N([H])C(=O)C1([H])N(C(=O)C([H])(N([H])C(=O)C([H])(N([H])C([H])([H])[H])C([H])([H])[H])C(C([H])([H])[H])(C([H])([H])[H])C([H])([H])[H])C([H])([H])c2c([H])c(OC([H])([H])C([H])([H])C([H])([H])C([H])([H])N3C([H])([H])C([H])([H])[N+]([H])(C([H])([H])C([H])([H])N(C(=O)N4C([H])([H])C([H])([H])C([H])([H])C([H])(n5nc(-c6c([H])c([H])c(Oc7c([H])c([H])c(F)c([H])c7F)c([H])c6[H])c(C(=O)N([H])[H])c5N([H])[H])C4([H])[H])C([H])([H])C([H])(C([H])([H])C([H])([H])[N+]([H])([H])[H])C([H])([H])[N+]([H])([H])[H])C([H])([H])C3([H])[H])c([H])c([H])c2C1([H])[H]

$$$$
25:0:0
     RDKit          3D

102110  0  0  1  0  0  0  0  0999 V2000
  -28.8180  -20.5610   19.4810 N   0  0  0  0  0  0  0  0  0  0  0  0
  -30.1470  -20.1020   19.8980 C   0  0  0  0  0  2  0  0  0  0  0  0
  -31.6630  -17.2860   16.9640 C   0  0  0  0  0  3  0  0  0  0  0  0
  -31.4290  -18.6290   16.6320 C   0  0  0  0  0  3  0  0  0  0  0  0
  -31.4140  -16.8340   18.2710 C   0  0  0  0  0  3  0  0  0  0  0  0
  -30.9430  -19.5060   17.6140 C   0  0  0  0  0  3  0  0  0  0  0  0
  -30.9330  -17.7030   19.2860 C   0  0  0  0  0  0  0  0  0  0  0  0
  -30.6940  -19.0610   18.9310 C   0  0  0  0  0  0  0  0  0  0  0  0
  -30.7210  -17.1990   20.7290 C   0  0  0  0  0  2  0  0  0  0  0  0
  -31.1160  -14.7230   20.7250 C   0  0  0  0  0  0  0  0  0  0  0  0
  -30.8190  -12.6220   19.5060 C   0  0  0  0  0  2  0  0  0  0  0  0
  -29.9310  -12.9030   18.2760 C   0  0  0  0  0  2  0  0  0  0  0  0
  -28.4370  -12.7990   18.6380 C   0  0  0  0  0  2  0  0  0  0  0  0
  -28.0660  -13.5920   19.9200 C   0  0  0  0  0  3  0  0  0  0  0  0
  -29.0710  -13.3010   21.0610 C   0  0  0  0  0  2  0  0  0  0  0  0
  -30.4260  -13.5700   20.5540 N   0  0  0  0  0  0  0  0  0  0  0  0
  -32.3100  -14.8560   20.4530 O   0  0  0  0  0  0  0  0  0  0  0  0
  -30.3320  -15.7950   20.8950 N   0  0  0  0  0  0  0  0  0  0  0  0
  -29.3560  -15.6120   21.0640 H   0  0  0  0  0  0  0  0  0  0  0  0
  -25.6470  -14.2250   20.5320 C   0  0  0  0  0  0  0  0  0  0  0  0
  -24.5500  -13.4620   20.8320 C   0  0  0  0  0  0  0  0  0  0  0  0
  -24.9940  -12.1050   20.7990 C   0  0  0  0  0  0  0  0  0  0  0  0
  -26.6890  -13.3310   20.3320 N   0  0  0  0  0  0  0  0  0  0  0  0
  -26.2960  -12.0520   20.5510 N   0  0  0  0  0  0  0  0  0  0  0  0
  -24.2440  -10.8500   20.9320 C   0  0  0  0  0  0  0  0  0  0  0  0
  -24.6050   -9.8720   21.8840 C   0  0  0  0  0  3  0  0  0  0  0  0
  -23.8570   -8.6810   22.0050 C   0  0  0  0  0  3  0  0  0  0  0  0
  -22.7360   -8.4590   21.1710 C   0  0  0  0  0  0  0  0  0  0  0  0
  -22.3940   -9.4270   20.2100 C   0  0  0  0  0  3  0  0  0  0  0  0
  -23.1420  -10.6090   20.0880 C   0  0  0  0  0  3  0  0  0  0  0  0
  -21.9670   -7.3200   21.2000 O   0  0  0  0  0  0  0  0  0  0  0  0
  -21.7960   -6.5960   22.3520 C   0  0  0  0  0  0  0  0  0  0  0  0
  -21.2440   -7.1700   23.5180 C   0  0  0  0  0  3  0  0  0  0  0  0
  -21.0210   -6.3720   24.6570 C   0  0  0  0  0  3  0  0  0  0  0  0
  -21.3380   -5.0010   24.6320 C   0  0  0  0  0  0  0  0  0  0  0  0
  -21.8820   -4.4270   23.4690 C   0  0  0  0  0  3  0  0  0  0  0  0
  -22.1080   -5.2220   22.3320 C   0  0  0  0  0  0  0  0  0  0  0  0
  -22.6120   -4.6590   21.2070 F   0  0  0  0  0  0  0  0  0  0  0  0
  -21.1160   -4.2320   25.7230 F   0  0  0  0  0  0  0  0  0  0  0  0
  -23.1480  -13.9550   21.0470 C   0  0  0  0  0  0  0  0  0  0  0  0
  -22.3820  -13.2740   21.8920 N   0  0  0  0  0  0  0  0  0  0  0  0
  -22.7410  -14.9780   20.5000 O   0  0  0  0  0  0  0  0  0  0  0  0
  -22.7210  -12.4430   22.3530 H   0  0  0  0  0  0  0  0  0  0  0  0
  -21.4400  -13.5880   22.0810 H   0  0  0  0  0  0  0  0  0  0  0  0
  -25.8370  -15.5970   20.3930 N   0  0  0  0  0  0  0  0  0  0  0  0
  -25.0800  -16.2500   20.5520 H   0  0  0  0  0  0  0  0  0  0  0  0
  -26.7130  -16.0380   20.1520 H   0  0  0  0  0  0  0  0  0  0  0  0
  -27.7700  -19.5940   19.8190 C   0  0  0  0  0  2  0  0  0  0  0  0
  -26.5050  -19.8690   18.9860 C   0  0  0  0  0  2  0  0  0  0  0  0
  -25.4090  -18.8070   19.2060 C   0  0  0  0  0  2  0  0  0  0  0  0
  -24.1800  -19.0990   18.4470 N   0  0  0  0  0  4  0  0  0  0  0  0
  -23.7760  -19.9720   18.7350 H   0  0  0  0  0  0  0  0  0  0  0  0
  -23.4990  -18.3770   18.6030 H   0  0  0  0  0  0  0  0  0  0  0  0
  -24.3670  -19.1390   17.4600 H   0  0  0  0  0  0  0  0  0  0  0  0
  -28.5380  -21.9080   19.9840 C   0  0  0  0  0  2  0  0  0  0  0  0
  -28.9090  -22.9270   18.8860 C   0  0  0  0  0  2  0  0  0  0  0  0
  -29.0180  -24.3020   19.4100 N   0  0  0  0  0  4  0  0  0  0  0  0
  -29.8710  -24.3820   19.9410 H   0  0  0  0  0  0  0  0  0  0  0  0
  -28.2550  -24.4730   20.0460 H   0  0  0  0  0  0  0  0  0  0  0  0
  -28.9850  -25.3510   18.3630 C   0  0  0  0  0  2  0  0  0  0  0  0
  -29.2260  -26.7450   18.9570 C   0  0  0  0  0  2  0  0  0  0  0  0
  -28.5490  -26.8780   20.2040 O   0  0  0  0  0  0  0  0  0  0  0  0
  -24.6090  -31.8970   23.2900 C   0  0  0  0  0  0  0  0  0  0  0  0
  -27.3610  -27.5620   20.1820 C   0  0  0  0  0  0  0  0  0  0  0  0
  -23.4340  -30.4800   21.6350 C   0  0  0  0  0  3  0  0  0  0  0  0
  -24.9250  -28.9800   20.2070 C   0  0  0  0  0  0  0  0  0  0  0  0
  -25.9480  -30.8970   21.4460 C   0  0  0  0  0  2  0  0  0  0  0  0
  -26.0640  -29.5320   20.8050 C   0  0  0  0  0  0  0  0  0  0  0  0
  -27.2820  -28.8240   20.8030 C   0  0  0  0  0  3  0  0  0  0  0  0
  -26.2050  -27.0040   19.5930 C   0  0  0  0  0  3  0  0  0  0  0  0
  -24.9880  -27.7100   19.6040 C   0  0  0  0  0  3  0  0  0  0  0  0
  -23.6610  -29.8080   20.2520 C   0  0  0  0  0  2  0  0  0  0  0  0
  -24.6820  -31.1060   22.1820 N   0  0  0  0  0  0  0  0  0  0  0  0
  -23.5220  -32.1450   23.8290 O   0  0  0  0  0  0  0  0  0  0  0  0
  -22.8020  -29.4400   22.5880 C   0  0  0  0  0  0  0  0  0  0  0  0
  -21.4930  -29.1960   22.4200 N   0  0  0  0  0  0  0  0  0  0  0  0
  -23.4880  -28.8590   23.4340 O   0  0  0  0  0  0  0  0  0  0  0  0
  -21.0010  -29.7200   21.7100 H   0  0  0  0  0  0  0  0  0  0  0  0
  -18.1770  -27.8070   22.7720 C   0  0  0  0  0  0  0  0  0  0  0  0
  -20.6950  -28.2310   23.1750 C   0  0  0  0  0  3  0  0  0  0  0  0
  -20.9160  -26.7930   22.6520 C   0  0  0  0  0  2  0  0  0  0  0  0
  -19.8950  -26.3730   21.5900 C   0  0  0  0  0  2  0  0  0  0  0  0
  -18.4730  -26.4510   22.1520 C   0  0  0  0  0  2  0  0  0  0  0  0
  -19.2220  -28.6500   23.2370 C   0  0  0  0  0  0  0  0  0  0  0  0
  -18.8950  -29.9150   23.7730 C   0  0  0  0  0  3  0  0  0  0  0  0
  -17.5550  -30.3400   23.8480 C   0  0  0  0  0  3  0  0  0  0  0  0
  -16.5240  -29.4960   23.4000 C   0  0  0  0  0  3  0  0  0  0  0  0
  -16.8350  -28.2310   22.8680 C   0  0  0  0  0  3  0  0  0  0  0  0
  -25.8830  -32.5480   23.9160 C   0  0  0  0  0  3  0  0  0  0  0  0
  -25.5630  -33.9500   24.2110 N   0  0  0  0  0  0  0  0  0  0  0  0
  -25.9200  -34.9890   23.4430 C   0  0  0  0  0  0  0  0  0  0  0  0
  -26.6250  -34.8680   22.4370 O   0  0  0  0  0  0  0  0  0  0  0  0
  -24.9420  -34.1190   24.9890 H   0  0  0  0  0  0  0  0  0  0  0  0
  -24.2120  -36.7750   22.9830 C   0  0  0  0  0  1  0  0  0  0  0  0
  -25.4150  -36.3830   23.8570 C   0  0  0  0  0  3  0  0  0  0  0  0
  -27.5100  -37.2780   24.7710 C   0  0  0  0  0  1  0  0  0  0  0  0
  -26.4530  -37.4340   23.7740 N   0  0  0  0  0  0  0  0  0  0  0  0
  -26.0410  -38.3560   23.8900 H   0  0  0  0  0  0  0  0  0  0  0  0
  -26.3890  -31.8040   25.2140 C   0  0  1  0  0  0  0  0  0  0  0  0
  -25.2830  -31.5760   26.2700 C   0  0  0  0  0  1  0  0  0  0  0  0
  -26.9890  -30.4260   24.8520 C   0  0  0  0  0  1  0  0  0  0  0  0
  -27.5220  -32.6210   25.8760 C   0  0  0  0  0  1  0  0  0  0  0  0
  1 48  1  0
  1  2  1  0
  1 55  1  0
  3  5  1  0
  4  3  2  0
  4  6  1  0
  5  7  2  0
  6  8  2  0
  7  9  1  0
  8  7  1  0
  8  2  1  0
  9 18  1  0
 10 18  1  0
 11 16  1  0
 12 13  1  0
 12 11  1  0
 14 13  1  0
 14 23  1  0
 14 15  1  0
 16 10  1  0
 16 15  1  0
 17 10  2  0
 18 19  1  0
 20 21  2  0
 21 40  1  0
 22 21  1  0
 22 25  1  0
 23 20  1  0
 23 24  1  0
 24 22  2  0
 25 26  1  0
 26 27  2  0
 28 31  1  0
 28 27  1  0
 29 28  2  0
 30 29  1  0
 30 25  2  0
 31 32  1  0
 32 33  1  0
 33 34  2  0
 35 34  1  0
 35 39  1  0
 36 35  2  0
 37 32  2  0
 37 36  1  0
 38 37  1  0
 40 41  1  0
 41 44  1  0
 41 43  1  0
 42 40  2  0
 45 20  1  0
 45 46  1  0
 47 45  1  0
 49 50  1  0
 49 48  1  0
 51 53  1  0
 51 52  1  0
 51 50  1  0
 54 51  1  0
 56 57  1  0
 56 55  1  0
 57 58  1  0
 57 59  1  0
 60 61  1  0
 60 57  1  0
 61 62  1  0
 63 74  2  0
 64 62  1  0
 64 69  1  0
 65 73  1  0
 65 75  1  0
 66 72  1  0
 66 68  1  0
 67 73  1  0
 68 67  1  0
 69 68  2  0
 70 71  1  0
 70 64  2  0
 71 66  2  0
 72 65  1  0
 73 63  1  0
 75 77  2  0
 76 75  1  0
 78 76  1  0
 79 88  2  0
 79 84  1  0
 80 76  1  0
 80 84  1  0
 81 80  1  0
 82 83  1  0
 82 81  1  0
 83 79  1  0
 84 85  2  0
 85 86  1  0
 87 86  2  0
 88 87  1  0
 89 63  1  0
 89 90  1  0
 89 99  1  0
 90 93  1  0
 91 95  1  0
 91 90  1  0
 92 91  2  0
 95 94  1  0
 97 95  1  0
 97 98  1  0
 97 96  1  0
 99102  1  1
 99100  1  0
101 99  1  0
M  ISO  4  10 100  18 100  61 101  62 101
M  END
>  <TORSDO>  (25) 
F 28

>  <SCORE>  (25) 
-9.859

>  <name>  (25) 
25

>  <ligand_id>  (25) 
25

>  <original_smiles>  (25) 
[H]c1c([H])c([H])c(C([H])([H])N(C([H])([H])C([H])([H])C([H])([H])[N+]([H])([H])[H])C([H])([H])C([H])([H])[N+]([H])([H])C([H])([H])C([H])([H])Oc2c([H])c([H])c3c(c2[H])C([H])([H])N(C(=O)C([H])(N([H])C(=O)C([H])(N([H])C([H])([H])[H])C([H])([H])[H])C(C([H])([H])[H])(C([H])([H])[H])C([H])([H])[H])C([H])(C(=O)N([H])C2([H])c4c([H])c([H])c([H])c([H])c4C([H])([H])C([H])([H])C2([H])[H])C3([H])[H])c(C([H])([H])N([H])C(=O)N2C([H])([H])C([H])([H])C([H])([H])C([H])(n3nc(-c4c([H])c([H])c(Oc5c([H])c([H])c(F)c([H])c5F)c([H])c4[H])c(C(=O)N([H])[H])c3N([H])[H])C2([H])[H])c1[H]

>  <smiles>  (25) 
[H]c1c([H])c([H])c(C([H])([H])N(C([H])([H])C([H])([H])C([H])([H])[N+]([H])([H])[H])C([H])([H])C([H])([H])[N+]([H])([H])C([H])([H])C([H])([H])Oc2c([H])c([H])c3c(c2[H])C([H])([H])N(C(=O)C([H])(N([H])C(=O)C([H])(N([H])C([H])([H])[H])C([H])([H])[H])C(C([H])([H])[H])(C([H])([H])[H])C([H])([H])[H])C([H])(C(=O)N([H])C2([H])c4c([H])c([H])c([H])c([H])c4C([H])([H])C([H])([H])C2([H])[H])C3([H])[H])c(C([H])([H])N([H])C(=O)N2C([H])([H])C([H])([H])C([H])([H])C([H])(n3nc(-c4c([H])c([H])c(Oc5c([H])c([H])c(F)c([H])c5F)c([H])c4[H])c(C(=O)N([H])[H])c3N([H])[H])C2([H])[H])c1[H]

$$$$
26:0:0
     RDKit          3D

 99107  0  0  1  0  0  0  0  0999 V2000
  -24.6520  -22.0120   19.0710 C   0  0  0  0  0  2  0  0  0  0  0  0
  -25.4400  -20.8300   19.4090 N   0  0  0  0  0  0  0  0  0  0  0  0
  -24.7930  -20.1620   19.8310 H   0  0  0  0  0  0  0  0  0  0  0  0
  -25.9580  -20.2740   18.1600 C   0  0  0  0  0  2  0  0  0  0  0  0
  -26.6070  -18.8960   18.3500 C   0  0  0  0  0  2  0  0  0  0  0  0
  -27.7240  -18.8930   19.3270 N   0  0  0  0  0  4  0  0  0  0  0  0
  -28.3760  -19.6050   19.0500 H   0  0  0  0  0  0  0  0  0  0  0  0
  -27.3430  -19.1590   20.2220 H   0  0  0  0  0  0  0  0  0  0  0  0
  -28.4020  -17.5760   19.3990 C   0  0  0  0  0  2  0  0  0  0  0  0
  -31.0120  -15.3190   20.5220 C   0  0  0  0  0  0  0  0  0  0  0  0
  -30.8290  -13.0430   19.6680 C   0  0  0  0  0  2  0  0  0  0  0  0
  -29.9710  -13.1010   18.3850 C   0  0  0  0  0  2  0  0  0  0  0  0
  -28.4680  -13.0020   18.7140 C   0  0  0  0  0  2  0  0  0  0  0  0
  -28.0210  -13.9200   19.8840 C   0  0  0  0  0  3  0  0  0  0  0  0
  -29.0220  -13.8820   21.0650 C   0  0  0  0  0  2  0  0  0  0  0  0
  -30.3640  -14.1280   20.5330 N   0  0  0  0  0  0  0  0  0  0  0  0
  -32.2350  -15.3910   20.6510 O   0  0  0  0  0  0  0  0  0  0  0  0
  -31.8070  -17.8420   18.5890 C   0  0  0  0  0  2  0  0  0  0  0  0
  -30.7530  -18.5970   19.3830 C   0  0  0  0  0  2  0  0  0  0  0  0
  -31.1730  -16.4720   18.4000 C   0  0  0  0  0  2  0  0  0  0  0  0
  -29.8340  -17.5170   19.9940 C   0  0  0  0  0  3  0  0  0  0  0  0
  -30.4420  -16.2030   19.6510 N   0  0  0  0  0  0  0  0  0  0  0  0
  -25.5860  -14.5150   20.4990 C   0  0  0  0  0  0  0  0  0  0  0  0
  -24.4980  -13.7360   20.7690 C   0  0  0  0  0  0  0  0  0  0  0  0
  -24.9660  -12.3940   20.7350 C   0  0  0  0  0  0  0  0  0  0  0  0
  -26.6490  -13.6430   20.3060 N   0  0  0  0  0  0  0  0  0  0  0  0
  -26.2740  -12.3570   20.5160 N   0  0  0  0  0  0  0  0  0  0  0  0
  -24.2300  -11.1360   20.8480 C   0  0  0  0  0  0  0  0  0  0  0  0
  -24.6130  -10.1440   21.7730 C   0  0  0  0  0  3  0  0  0  0  0  0
  -23.8760   -8.9460   21.8760 C   0  0  0  0  0  3  0  0  0  0  0  0
  -22.7410   -8.7420   21.0560 C   0  0  0  0  0  0  0  0  0  0  0  0
  -22.3810   -9.7260   20.1180 C   0  0  0  0  0  3  0  0  0  0  0  0
  -23.1190  -10.9150   20.0110 C   0  0  0  0  0  3  0  0  0  0  0  0
  -21.9760   -7.6000   21.0680 O   0  0  0  0  0  0  0  0  0  0  0  0
  -21.8170   -6.8560   22.2100 C   0  0  0  0  0  0  0  0  0  0  0  0
  -21.2420   -7.4010   23.3790 C   0  0  0  0  0  3  0  0  0  0  0  0
  -21.0250   -6.5820   24.5040 C   0  0  0  0  0  3  0  0  0  0  0  0
  -21.3790   -5.2200   24.4620 C   0  0  0  0  0  0  0  0  0  0  0  0
  -21.9480   -4.6740   23.2970 C   0  0  0  0  0  3  0  0  0  0  0  0
  -22.1640   -5.4910   22.1730 C   0  0  0  0  0  0  0  0  0  0  0  0
  -22.6930   -4.9560   21.0460 F   0  0  0  0  0  0  0  0  0  0  0  0
  -21.1620   -4.4310   25.5400 F   0  0  0  0  0  0  0  0  0  0  0  0
  -23.0910  -14.2230   20.9650 C   0  0  0  0  0  0  0  0  0  0  0  0
  -22.3120  -13.5210   21.7830 N   0  0  0  0  0  0  0  0  0  0  0  0
  -22.6930  -15.2590   20.4380 O   0  0  0  0  0  0  0  0  0  0  0  0
  -22.6510  -12.6850   22.2350 H   0  0  0  0  0  0  0  0  0  0  0  0
  -21.3650  -13.8230   21.9630 H   0  0  0  0  0  0  0  0  0  0  0  0
  -25.7270  -15.8860   20.3980 N   0  0  0  0  0  0  0  0  0  0  0  0
  -24.8960  -16.4120   20.6520 H   0  0  0  0  0  0  0  0  0  0  0  0
  -26.5400  -16.2370   20.8820 H   0  0  0  0  0  0  0  0  0  0  0  0
  -24.5910  -23.0090   20.2370 C   0  0  0  0  0  2  0  0  0  0  0  0
  -25.8250  -23.9320   20.3560 C   0  0  0  0  0  2  0  0  0  0  0  0
  -26.9110  -23.4240   21.3180 C   0  0  0  0  0  2  0  0  0  0  0  0
  -28.1250  -24.2800   21.3510 N   0  0  0  0  0  4  0  0  0  0  0  0
  -28.4260  -24.4270   20.4010 H   0  0  0  0  0  0  0  0  0  0  0  0
  -28.8400  -23.7410   21.8170 H   0  0  0  0  0  0  0  0  0  0  0  0
  -28.0510  -25.6010   22.0320 C   0  0  0  0  0  2  0  0  0  0  0  0
  -29.0310  -26.6270   21.3960 C   0  0  0  0  0  2  0  0  0  0  0  0
  -28.6270  -27.0950   20.0960 O   0  0  0  0  0  0  0  0  0  0  0  0
  -24.6060  -31.9040   23.4370 C   0  0  0  0  0  0  0  0  0  0  0  0
  -27.4760  -27.8470   20.0890 C   0  0  0  0  0  0  0  0  0  0  0  0
  -23.4920  -30.5920   21.6590 C   0  0  0  0  0  3  0  0  0  0  0  0
  -25.0320  -29.2540   20.1350 C   0  0  0  0  0  0  0  0  0  0  0  0
  -25.9970  -31.0860   21.5390 C   0  0  0  0  0  2  0  0  0  0  0  0
  -26.1530  -29.7780   20.7910 C   0  0  0  0  0  0  0  0  0  0  0  0
  -27.3850  -29.0860   20.7600 C   0  0  0  0  0  3  0  0  0  0  0  0
  -26.3480  -27.3350   19.4190 C   0  0  0  0  0  3  0  0  0  0  0  0
  -25.1240  -28.0370   19.4400 C   0  0  0  0  0  3  0  0  0  0  0  0
  -23.7480  -30.0460   20.2290 C   0  0  0  0  0  2  0  0  0  0  0  0
  -24.7150  -31.2100   22.2690 N   0  0  0  0  0  0  0  0  0  0  0  0
  -23.5050  -32.0790   23.9790 O   0  0  0  0  0  0  0  0  0  0  0  0
  -22.8770  -29.4620   22.5170 C   0  0  0  0  0  0  0  0  0  0  0  0
  -21.5700  -29.2150   22.3320 N   0  0  0  0  0  0  0  0  0  0  0  0
  -23.5750  -28.8160   23.3050 O   0  0  0  0  0  0  0  0  0  0  0  0
  -21.0660  -29.7990   21.6810 H   0  0  0  0  0  0  0  0  0  0  0  0
  -18.2780  -27.7560   22.5240 C   0  0  0  0  0  0  0  0  0  0  0  0
  -20.7850  -28.1720   22.9890 C   0  0  0  0  0  3  0  0  0  0  0  0
  -21.0280  -26.8010   22.3180 C   0  0  0  0  0  2  0  0  0  0  0  0
  -20.0330  -26.4990   21.1980 C   0  0  0  0  0  2  0  0  0  0  0  0
  -18.5980  -26.4990   21.7340 C   0  0  0  0  0  2  0  0  0  0  0  0
  -19.3050  -28.5600   23.0860 C   0  0  0  0  0  0  0  0  0  0  0  0
  -18.9570  -29.7550   23.7490 C   0  0  0  0  0  3  0  0  0  0  0  0
  -17.6130  -30.1470   23.8670 C   0  0  0  0  0  3  0  0  0  0  0  0
  -16.5960  -29.3340   23.3360 C   0  0  0  0  0  3  0  0  0  0  0  0
  -16.9280  -28.1420   22.6670 C   0  0  0  0  0  3  0  0  0  0  0  0
  -25.8530  -32.5330   24.1350 C   0  0  0  0  0  3  0  0  0  0  0  0
  -25.5440  -33.9410   24.4140 N   0  0  0  0  0  0  0  0  0  0  0  0
  -25.9450  -34.9720   23.6590 C   0  0  0  0  0  0  0  0  0  0  0  0
  -26.6880  -34.8370   22.6840 O   0  0  0  0  0  0  0  0  0  0  0  0
  -24.9000  -34.1260   25.1710 H   0  0  0  0  0  0  0  0  0  0  0  0
  -24.2770  -36.7750   23.1240 C   0  0  0  0  0  1  0  0  0  0  0  0
  -25.4410  -36.3740   24.0460 C   0  0  0  0  0  3  0  0  0  0  0  0
  -27.5040  -37.2520   25.0430 C   0  0  0  0  0  1  0  0  0  0  0  0
  -26.4930  -37.4120   24.0010 N   0  0  0  0  0  0  0  0  0  0  0  0
  -26.0880  -38.3390   24.0940 H   0  0  0  0  0  0  0  0  0  0  0  0
  -26.2770  -31.7830   25.4580 C   0  0  1  0  0  0  0  0  0  0  0  0
  -25.1170  -31.5840   26.4580 C   0  0  0  0  0  1  0  0  0  0  0  0
  -26.8610  -30.3890   25.1360 C   0  0  0  0  0  1  0  0  0  0  0  0
  -27.3980  -32.5740   26.1760 C   0  0  0  0  0  1  0  0  0  0  0  0
  1  2  1  0
  1 51  1  0
  2  3  1  0
  4  5  1  0
  4  2  1  0
  5  6  1  0
  6  9  1  0
  6  8  1  0
  7  6  1  0
 10 16  1  0
 10 17  2  0
 11 16  1  0
 12 13  1  0
 12 11  1  0
 14 13  1  0
 14 26  1  0
 14 15  1  0
 16 15  1  0
 18 19  1  0
 19 21  1  0
 20 18  1  0
 20 22  1  0
 21  9  1  0
 22 21  1  0
 22 10  1  0
 23 24  2  0
 24 43  1  0
 25 24  1  0
 25 28  1  0
 26 23  1  0
 26 27  1  0
 27 25  2  0
 28 29  1  0
 29 30  2  0
 31 34  1  0
 31 30  1  0
 32 31  2  0
 33 32  1  0
 33 28  2  0
 34 35  1  0
 35 36  1  0
 36 37  2  0
 38 37  1  0
 38 42  1  0
 39 38  2  0
 40 35  2  0
 40 39  1  0
 41 40  1  0
 43 44  1  0
 44 47  1  0
 44 46  1  0
 45 43  2  0
 48 23  1  0
 48 49  1  0
 48 50  1  0
 51 52  1  0
 52 53  1  0
 53 54  1  0
 54 56  1  0
 54 57  1  0
 55 54  1  0
 58 57  1  0
 59 58  1  0
 60 71  2  0
 61 59  1  0
 61 66  1  0
 62 70  1  0
 62 72  1  0
 63 69  1  0
 63 65  1  0
 64 70  1  0
 65 64  1  0
 66 65  2  0
 67 68  1  0
 67 61  2  0
 68 63  2  0
 69 62  1  0
 70 60  1  0
 72 74  2  0
 73 72  1  0
 75 73  1  0
 76 85  2  0
 76 81  1  0
 77 73  1  0
 77 81  1  0
 78 77  1  0
 79 80  1  0
 79 78  1  0
 80 76  1  0
 81 82  2  0
 82 83  1  0
 84 83  2  0
 85 84  1  0
 86 60  1  0
 86 87  1  0
 86 96  1  0
 87 90  1  0
 88 92  1  0
 88 87  1  0
 89 88  2  0
 92 91  1  0
 94 92  1  0
 94 95  1  0
 94 93  1  0
 96 99  1  1
 96 97  1  0
 98 96  1  0
M  ISO  4  10 100  22 100  58 101  59 101
M  END
>  <TORSDO>  (26) 
F 27

>  <SCORE>  (26) 
-9.904

>  <name>  (26) 
26

>  <ligand_id>  (26) 
26

>  <original_smiles>  (26) 
[H]c1c([H])c([H])c2c(c1[H])C([H])([H])C([H])([H])C([H])([H])C2([H])N([H])C(=O)C1([H])N(C(=O)C([H])(N([H])C(=O)C([H])(N([H])C([H])([H])[H])C([H])([H])[H])C(C([H])([H])[H])(C([H])([H])[H])C([H])([H])[H])C([H])([H])c2c([H])c(OC([H])([H])C([H])([H])[N+]([H])([H])C([H])([H])C([H])([H])C([H])([H])C([H])([H])N([H])C([H])([H])C([H])([H])[N+]([H])([H])C([H])([H])C3([H])N(C(=O)N4C([H])([H])C([H])([H])C([H])([H])C([H])(n5nc(-c6c([H])c([H])c(Oc7c([H])c([H])c(F)c([H])c7F)c([H])c6[H])c(C(=O)N([H])[H])c5N([H])[H])C4([H])[H])C([H])([H])C([H])([H])C3([H])[H])c([H])c([H])c2C1([H])[H]

>  <smiles>  (26) 
[H]c1c([H])c([H])c2c(c1[H])C([H])([H])C([H])([H])C([H])([H])C2([H])N([H])C(=O)C1([H])N(C(=O)C([H])(N([H])C(=O)C([H])(N([H])C([H])([H])[H])C([H])([H])[H])C(C([H])([H])[H])(C([H])([H])[H])C([H])([H])[H])C([H])([H])c2c([H])c(OC([H])([H])C([H])([H])[N+]([H])([H])C([H])([H])C([H])([H])C([H])([H])C([H])([H])N([H])C([H])([H])C([H])([H])[N+]([H])([H])C([H])([H])C3([H])N(C(=O)N4C([H])([H])C([H])([H])C([H])([H])C([H])(n5nc(-c6c([H])c([H])c(Oc7c([H])c([H])c(F)c([H])c7F)c([H])c6[H])c(C(=O)N([H])[H])c5N([H])[H])C4([H])[H])C([H])([H])C([H])([H])C3([H])[H])c([H])c([H])c2C1([H])[H]

$$$$
27:0:0
     RDKit          3D

102109  0  0  1  0  0  0  0  0999 V2000
  -28.7930  -18.9610   20.9070 N   0  0  2  0  0  4  0  0  0  0  0  0
  -27.9360  -18.4930   21.1690 H   0  0  0  0  0  0  0  0  0  0  0  0
  -28.6490  -19.1790   19.4400 C   0  0  0  0  0  2  0  0  0  0  0  0
  -27.2120  -19.4590   19.0900 C   0  0  0  0  0  0  0  0  0  0  0  0
  -26.3010  -18.4870   19.2270 N   0  0  0  0  0  0  0  0  0  0  0  0
  -26.8490  -20.6700   18.6540 N   0  0  0  0  0  4  0  0  0  0  0  0
  -26.5730  -17.5350   19.4040 H   0  0  0  0  0  0  0  0  0  0  0  0
  -25.3160  -18.6240   19.0480 H   0  0  0  0  0  0  0  0  0  0  0  0
  -27.5460  -21.3720   18.4530 H   0  0  0  0  0  0  0  0  0  0  0  0
  -25.8940  -20.8990   18.4210 H   0  0  0  0  0  0  0  0  0  0  0  0
  -28.7400  -20.2280   21.7020 C   0  0  0  0  0  2  0  0  0  0  0  0
  -29.8120  -21.3110   21.3710 C   0  0  0  0  0  2  0  0  0  0  0  0
  -29.2450  -22.6760   20.8860 C   0  0  0  0  0  2  0  0  0  0  0  0
  -30.3160  -23.7830   20.7220 C   0  0  0  0  0  2  0  0  0  0  0  0
  -29.9070  -25.0070   19.8650 C   0  0  0  0  0  2  0  0  0  0  0  0
  -28.9310  -26.0130   20.5180 C   0  0  0  0  0  2  0  0  0  0  0  0
  -28.6220  -27.0180   19.5440 O   0  0  0  0  0  0  0  0  0  0  0  0
  -24.5740  -31.6520   23.1330 C   0  0  0  0  0  0  0  0  0  0  0  0
  -27.4010  -27.6360   19.6790 C   0  0  0  0  0  0  0  0  0  0  0  0
  -23.4050  -30.2890   21.4280 C   0  0  0  0  0  3  0  0  0  0  0  0
  -24.9060  -28.9430   19.8620 C   0  0  0  0  0  0  0  0  0  0  0  0
  -25.8860  -30.8370   21.1750 C   0  0  0  0  0  2  0  0  0  0  0  0
  -26.0410  -29.5150   20.4480 C   0  0  0  0  0  0  0  0  0  0  0  0
  -27.2930  -28.8700   20.3530 C   0  0  0  0  0  3  0  0  0  0  0  0
  -26.2520  -27.0650   19.0910 C   0  0  0  0  0  3  0  0  0  0  0  0
  -25.0050  -27.7140   19.1740 C   0  0  0  0  0  3  0  0  0  0  0  0
  -23.6110  -29.7130   20.0010 C   0  0  0  0  0  2  0  0  0  0  0  0
  -24.6410  -30.9360   21.9730 N   0  0  0  0  0  0  0  0  0  0  0  0
  -23.4990  -31.8140   23.7250 O   0  0  0  0  0  0  0  0  0  0  0  0
  -22.8510  -29.1670   22.3370 C   0  0  0  0  0  0  0  0  0  0  0  0
  -21.5520  -28.8590   22.1870 N   0  0  0  0  0  0  0  0  0  0  0  0
  -23.5870  -28.5740   23.1320 O   0  0  0  0  0  0  0  0  0  0  0  0
  -21.0150  -29.4000   21.5250 H   0  0  0  0  0  0  0  0  0  0  0  0
  -18.3370  -27.2500   22.5180 C   0  0  0  0  0  0  0  0  0  0  0  0
  -20.8330  -27.8040   22.8980 C   0  0  0  0  0  3  0  0  0  0  0  0
  -21.1340  -26.4190   22.2800 C   0  0  0  0  0  2  0  0  0  0  0  0
  -20.1130  -25.9990   21.2180 C   0  0  0  0  0  2  0  0  0  0  0  0
  -18.7040  -25.9530   21.8130 C   0  0  0  0  0  2  0  0  0  0  0  0
  -19.3390  -28.1250   23.0150 C   0  0  0  0  0  0  0  0  0  0  0  0
  -18.9470  -29.3320   23.6310 C   0  0  0  0  0  3  0  0  0  0  0  0
  -17.5870  -29.6700   23.7640 C   0  0  0  0  0  3  0  0  0  0  0  0
  -16.6000  -28.7920   23.2850 C   0  0  0  0  0  3  0  0  0  0  0  0
  -16.9760  -27.5850   22.6690 C   0  0  0  0  0  3  0  0  0  0  0  0
  -25.8410  -32.3200   23.7580 C   0  0  0  0  0  3  0  0  0  0  0  0
  -25.4820  -33.6990   24.1140 N   0  0  0  0  0  0  0  0  0  0  0  0
  -25.7800  -34.7760   23.3730 C   0  0  0  0  0  0  0  0  0  0  0  0
  -26.4590  -34.7140   22.3430 O   0  0  0  0  0  0  0  0  0  0  0  0
  -24.8780  -33.8180   24.9130 H   0  0  0  0  0  0  0  0  0  0  0  0
  -23.9960  -36.5150   23.0400 C   0  0  0  0  0  1  0  0  0  0  0  0
  -25.2460  -36.1370   23.8520 C   0  0  0  0  0  3  0  0  0  0  0  0
  -27.3450  -37.0790   24.7160 C   0  0  0  0  0  1  0  0  0  0  0  0
  -26.2430  -37.2250   23.7670 N   0  0  0  0  0  0  0  0  0  0  0  0
  -25.8060  -38.1270   23.9270 H   0  0  0  0  0  0  0  0  0  0  0  0
  -26.4000  -31.5480   25.0160 C   0  0  1  0  0  0  0  0  0  0  0  0
  -25.3250  -31.2530   26.0890 C   0  0  0  0  0  1  0  0  0  0  0  0
  -27.0250  -30.2000   24.5900 C   0  0  0  0  0  1  0  0  0  0  0  0
  -27.5310  -32.3660   25.6850 C   0  0  0  0  0  1  0  0  0  0  0  0
  -29.8900  -18.0020   21.2600 C   0  0  0  0  0  2  0  0  0  0  0  0
  -29.4930  -16.5150   20.9840 C   0  0  0  0  0  2  0  0  0  0  0  0
  -31.1560  -14.6060   21.2350 C   0  0  0  0  0  0  0  0  0  0  0  0
  -30.9900  -12.3010   20.3900 C   0  0  0  0  0  2  0  0  0  0  0  0
  -30.2730  -12.3330   19.0230 C   0  0  0  0  0  2  0  0  0  0  0  0
  -28.7350  -12.3230   19.1870 C   0  0  0  0  0  2  0  0  0  0  0  0
  -28.2130  -13.2970   20.2780 C   0  0  0  0  0  3  0  0  0  0  0  0
  -29.0690  -13.2110   21.5620 C   0  0  0  0  0  2  0  0  0  0  0  0
  -30.4680  -13.4330   21.1700 N   0  0  0  0  0  0  0  0  0  0  0  0
  -32.3870  -14.6130   21.3110 O   0  0  0  0  0  0  0  0  0  0  0  0
  -30.5810  -15.6190   20.5180 N   0  0  0  0  0  0  0  0  0  0  0  0
  -25.7730  -14.0340   20.6090 C   0  0  0  0  0  0  0  0  0  0  0  0
  -24.6230  -13.3230   20.8050 C   0  0  0  0  0  0  0  0  0  0  0  0
  -25.0130  -11.9530   20.8650 C   0  0  0  0  0  0  0  0  0  0  0  0
  -26.7940  -13.0990   20.5520 N   0  0  0  0  0  0  0  0  0  0  0  0
  -26.3320  -11.8450   20.7720 N   0  0  0  0  0  0  0  0  0  0  0  0
  -24.2080  -10.7300   20.9410 C   0  0  0  0  0  0  0  0  0  0  0  0
  -24.5180   -9.6990   21.8530 C   0  0  0  0  0  3  0  0  0  0  0  0
  -23.7200   -8.5410   21.9180 C   0  0  0  0  0  3  0  0  0  0  0  0
  -22.5990   -8.4030   21.0650 C   0  0  0  0  0  0  0  0  0  0  0  0
  -22.3090   -9.4230   20.1410 C   0  0  0  0  0  3  0  0  0  0  0  0
  -23.1100  -10.5730   20.0740 C   0  0  0  0  0  3  0  0  0  0  0  0
  -21.7800   -7.3010   21.0410 O   0  0  0  0  0  0  0  0  0  0  0  0
  -21.6410   -6.4850   22.1340 C   0  0  0  0  0  0  0  0  0  0  0  0
  -21.2040   -6.9810   23.3800 C   0  0  0  0  0  3  0  0  0  0  0  0
  -21.0110   -6.0960   24.4620 C   0  0  0  0  0  3  0  0  0  0  0  0
  -21.2420   -4.7180   24.2910 C   0  0  0  0  0  0  0  0  0  0  0  0
  -21.6730   -4.2210   23.0500 C   0  0  0  0  0  3  0  0  0  0  0  0
  -21.8670   -5.1030   21.9710 C   0  0  0  0  0  0  0  0  0  0  0  0
  -22.2610   -4.6180   20.7700 F   0  0  0  0  0  0  0  0  0  0  0  0
  -21.0490   -3.8660   25.3260 F   0  0  0  0  0  0  0  0  0  0  0  0
  -23.2240  -13.8730   20.8310 C   0  0  0  0  0  0  0  0  0  0  0  0
  -22.3380  -13.2520   21.5980 N   0  0  0  0  0  0  0  0  0  0  0  0
  -22.9280  -14.8900   20.2020 O   0  0  0  0  0  0  0  0  0  0  0  0
  -22.5880  -12.4280   22.1280 H   0  0  0  0  0  0  0  0  0  0  0  0
  -21.3920  -13.6020   21.6540 H   0  0  0  0  0  0  0  0  0  0  0  0
  -26.0370  -15.3900   20.4380 N   0  0  0  0  0  0  0  0  0  0  0  0
  -25.2540  -16.0180   20.3000 H   0  0  0  0  0  0  0  0  0  0  0  0
  -26.8850  -15.6680   19.9690 H   0  0  0  0  0  0  0  0  0  0  0  0
  -31.2610  -16.0880   19.2770 C   0  0  0  0  0  2  0  0  0  0  0  0
  -30.3400  -16.1890   18.0360 C   0  0  0  0  0  2  0  0  0  0  0  0
  -31.0690  -16.6140   16.8260 N   0  0  0  0  0  4  0  0  0  0  0  0
  -30.4270  -16.7470   16.0620 H   0  0  0  0  0  0  0  0  0  0  0  0
  -31.7380  -15.9250   16.5360 H   0  0  0  0  0  0  0  0  0  0  0  0
  -31.5560  -17.4780   16.9830 H   0  0  0  0  0  0  0  0  0  0  0  0
  1  2  1  1
  1 58  1  0
  1 11  1  0
  3  1  1  0
  4  5  1  0
  4  3  1  0
  5  7  1  0
  6  4  2  0
  8  5  1  0
  9  6  1  0
 10  6  1  0
 12 11  1  0
 13 12  1  0
 14 13  1  0
 15 16  1  0
 15 14  1  0
 17 19  1  0
 17 16  1  0
 18 29  2  0
 19 24  1  0
 20 28  1  0
 20 30  1  0
 21 27  1  0
 21 23  1  0
 22 28  1  0
 23 22  1  0
 24 23  2  0
 25 26  1  0
 25 19  2  0
 26 21  2  0
 27 20  1  0
 28 18  1  0
 30 32  2  0
 31 30  1  0
 33 31  1  0
 34 43  2  0
 34 39  1  0
 35 31  1  0
 35 39  1  0
 36 35  1  0
 37 38  1  0
 37 36  1  0
 38 34  1  0
 39 40  2  0
 40 41  1  0
 42 41  2  0
 43 42  1  0
 44 18  1  0
 44 45  1  0
 44 54  1  0
 45 48  1  0
 46 50  1  0
 46 45  1  0
 47 46  2  0
 50 49  1  0
 52 50  1  0
 52 53  1  0
 52 51  1  0
 54 57  1  1
 54 55  1  0
 56 54  1  0
 59 58  1  0
 60 67  2  0
 61 66  1  0
 62 63  1  0
 62 61  1  0
 64 63  1  0
 64 72  1  0
 64 65  1  0
 66 60  1  0
 66 65  1  0
 68 59  1  0
 68 60  1  0
 69 70  2  0
 70 89  1  0
 70 71  1  0
 71 74  1  0
 72 69  1  0
 72 73  1  0
 73 71  2  0
 74 75  1  0
 75 76  2  0
 77 76  1  0
 78 77  2  0
 79 78  1  0
 79 74  2  0
 80 77  1  0
 80 81  1  0
 81 82  1  0
 82 83  2  0
 84 83  1  0
 84 88  1  0
 85 84  2  0
 86 81  2  0
 86 85  1  0
 87 86  1  0
 89 90  1  0
 90 93  1  0
 90 92  1  0
 91 89  2  0
 94 69  1  0
 95 94  1  0
 96 94  1  0
 97 68  1  0
 98 97  1  0
 99102  1  0
 99 98  1  0
100 99  1  0
101 99  1  0
M  ISO  4  16 101  17 101  60 100  68 100
M  END
>  <TORSDO>  (27) 
F 29

>  <SCORE>  (27) 
-8.787

>  <name>  (27) 
27

>  <ligand_id>  (27) 
27

>  <original_smiles>  (27) 
[H]c1c([H])c([H])c2c(c1[H])C([H])([H])C([H])([H])C([H])([H])C2([H])N([H])C(=O)C1([H])N(C(=O)C([H])(N([H])C(=O)C([H])(N([H])C([H])([H])[H])C([H])([H])[H])C(C([H])([H])[H])(C([H])([H])[H])C([H])([H])[H])C([H])([H])c2c([H])c(OC([H])([H])C([H])([H])C([H])([H])C([H])([H])C([H])([H])C([H])([H])[N+]([H])(C([H])([H])C(N([H])[H])=[N+]([H])[H])C([H])([H])C([H])([H])N(C(=O)N3C([H])([H])C([H])([H])C([H])([H])C([H])(n4nc(-c5c([H])c([H])c(Oc6c([H])c([H])c(F)c([H])c6F)c([H])c5[H])c(C(=O)N([H])[H])c4N([H])[H])C3([H])[H])C([H])([H])C([H])([H])[N+]([H])([H])[H])c([H])c([H])c2C1([H])[H]

>  <smiles>  (27) 
[H]c1c([H])c([H])c2c(c1[H])C([H])([H])C([H])([H])C([H])([H])C2([H])N([H])C(=O)C1([H])N(C(=O)C([H])(N([H])C(=O)C([H])(N([H])C([H])([H])[H])C([H])([H])[H])C(C([H])([H])[H])(C([H])([H])[H])C([H])([H])[H])C([H])([H])c2c([H])c(OC([H])([H])C([H])([H])C([H])([H])C([H])([H])C([H])([H])C([H])([H])[N+]([H])(C([H])([H])C(N([H])[H])=[N+]([H])[H])C([H])([H])C([H])([H])N(C(=O)N3C([H])([H])C([H])([H])C([H])([H])C([H])(n4nc(-c5c([H])c([H])c(Oc6c([H])c([H])c(F)c([H])c6F)c([H])c5[H])c(C(=O)N([H])[H])c4N([H])[H])C3([H])[H])C([H])([H])C([H])([H])[N+]([H])([H])[H])c([H])c([H])c2C1([H])[H]

$$$$
28:0:0
     RDKit          3D

 95102  0  0  1  0  0  0  0  0999 V2000
  -30.0850  -20.1500   20.3970 C   0  0  0  0  0  3  0  0  0  0  0  0
  -28.9740  -21.2140   20.4320 N   0  0  0  0  0  4  0  0  0  0  0  0
  -28.2370  -20.8670   19.8360 H   0  0  0  0  0  0  0  0  0  0  0  0
  -28.5820  -21.2400   21.3580 H   0  0  0  0  0  0  0  0  0  0  0  0
  -29.2910  -22.6470   19.9730 C   0  0  0  0  0  3  0  0  0  0  0  0
  -28.3220  -23.8760   20.3840 C   0  0  0  0  0  3  0  0  0  0  0  0
  -28.5120  -25.2800   19.6160 C   0  0  0  0  0  2  0  0  0  0  0  0
  -28.3570  -26.6230   20.2400 O   0  0  0  0  0  0  0  0  0  0  0  0
  -24.5840  -31.9660   23.2520 C   0  0  0  0  0  0  0  0  0  0  0  0
  -27.2090  -27.4280   20.1600 C   0  0  0  0  0  0  0  0  0  0  0  0
  -23.3820  -30.5670   21.6110 C   0  0  0  0  0  3  0  0  0  0  0  0
  -24.8310  -29.0280   20.1650 C   0  0  0  0  0  0  0  0  0  0  0  0
  -25.9160  -30.8990   21.4170 C   0  0  0  0  0  2  0  0  0  0  0  0
  -25.9960  -29.5220   20.7660 C   0  0  0  0  0  0  0  0  0  0  0  0
  -27.1840  -28.7300   20.7570 C   0  0  0  0  0  3  0  0  0  0  0  0
  -26.0190  -26.9790   19.5480 C   0  0  0  0  0  3  0  0  0  0  0  0
  -24.8470  -27.7660   19.5470 C   0  0  0  0  0  3  0  0  0  0  0  0
  -23.5910  -29.9020   20.2240 C   0  0  0  0  0  2  0  0  0  0  0  0
  -24.6460  -31.1660   22.1470 N   0  0  0  0  0  0  0  0  0  0  0  0
  -23.5000  -32.2300   23.7960 O   0  0  0  0  0  0  0  0  0  0  0  0
  -22.7360  -29.5410   22.5750 C   0  0  0  0  0  0  0  0  0  0  0  0
  -21.4140  -29.3300   22.4400 N   0  0  0  0  0  0  0  0  0  0  0  0
  -23.4220  -28.9340   23.4020 O   0  0  0  0  0  0  0  0  0  0  0  0
  -20.9150  -29.8700   21.7460 H   0  0  0  0  0  0  0  0  0  0  0  0
  -18.0640  -28.0450   22.9150 C   0  0  0  0  0  0  0  0  0  0  0  0
  -20.6120  -28.3770   23.2100 C   0  0  0  0  0  3  0  0  0  0  0  0
  -20.7610  -26.9430   22.6480 C   0  0  0  0  0  2  0  0  0  0  0  0
  -19.6770  -26.5840   21.6250 C   0  0  0  0  0  2  0  0  0  0  0  0
  -18.2840  -26.6960   22.2500 C   0  0  0  0  0  2  0  0  0  0  0  0
  -19.1550  -28.8420   23.3510 C   0  0  0  0  0  0  0  0  0  0  0  0
  -18.8970  -30.1030   23.9300 C   0  0  0  0  0  3  0  0  0  0  0  0
  -17.5760  -30.5680   24.0790 C   0  0  0  0  0  3  0  0  0  0  0  0
  -16.4990  -29.7720   23.6520 C   0  0  0  0  0  3  0  0  0  0  0  0
  -16.7440  -28.5130   23.0770 C   0  0  0  0  0  3  0  0  0  0  0  0
  -25.8630  -32.6060   23.8730 C   0  0  0  0  0  3  0  0  0  0  0  0
  -26.3770  -31.8520   25.1610 C   0  0  1  0  0  0  0  0  0  0  0  0
  -25.2790  -31.6170   26.2250 C   0  0  0  0  0  1  0  0  0  0  0  0
  -26.9750  -30.4770   24.7830 C   0  0  0  0  0  1  0  0  0  0  0  0
  -27.5120  -32.6680   25.8240 C   0  0  0  0  0  1  0  0  0  0  0  0
  -25.5500  -34.0100   24.1870 N   0  0  0  0  0  0  0  0  0  0  0  0
  -25.8940  -35.0560   23.4240 C   0  0  0  0  0  0  0  0  0  0  0  0
  -26.5740  -34.9460   22.4010 O   0  0  0  0  0  0  0  0  0  0  0  0
  -24.9510  -34.1700   24.9820 H   0  0  0  0  0  0  0  0  0  0  0  0
  -24.1860  -36.8590   23.0260 C   0  0  0  0  0  1  0  0  0  0  0  0
  -25.4060  -36.4490   23.8700 C   0  0  0  0  0  3  0  0  0  0  0  0
  -27.5200  -37.3260   24.7560 C   0  0  0  0  0  1  0  0  0  0  0  0
  -26.4470  -37.4970   23.7790 N   0  0  0  0  0  0  0  0  0  0  0  0
  -26.0410  -38.4200   23.9070 H   0  0  0  0  0  0  0  0  0  0  0  0
  -29.5690  -18.6220   20.5480 C   0  0  0  0  0  0  0  0  0  0  0  0
  -28.3720  -18.3560   20.6910 O   0  0  0  0  0  0  0  0  0  0  0  0
  -30.6020  -17.4150   20.5140 C   0  0  0  0  0  2  0  0  0  0  0  0
  -30.8190  -14.8580   20.4250 C   0  0  0  0  0  0  0  0  0  0  0  0
  -30.6030  -12.6170   19.3790 C   0  0  0  0  0  2  0  0  0  0  0  0
  -29.6890  -12.7360   18.1400 C   0  0  0  0  0  2  0  0  0  0  0  0
  -28.2170  -12.5530   18.5480 C   0  0  0  0  0  2  0  0  0  0  0  0
  -27.8180  -13.4080   19.7820 C   0  0  0  0  0  3  0  0  0  0  0  0
  -28.8670  -13.3070   20.9120 C   0  0  0  0  0  2  0  0  0  0  0  0
  -30.1720  -13.6520   20.3380 N   0  0  0  0  0  0  0  0  0  0  0  0
  -32.0050  -14.9620   20.1070 O   0  0  0  0  0  0  0  0  0  0  0  0
  -30.0750  -15.9960   20.6350 N   0  0  0  0  0  0  0  0  0  0  0  0
  -29.0890  -15.8970   20.8370 H   0  0  0  0  0  0  0  0  0  0  0  0
  -25.4110  -13.9620   20.4770 C   0  0  0  0  0  0  0  0  0  0  0  0
  -24.3520  -13.1720   20.8290 C   0  0  0  0  0  0  0  0  0  0  0  0
  -24.8370  -11.8270   20.8120 C   0  0  0  0  0  0  0  0  0  0  0  0
  -26.4720  -13.0990   20.2530 N   0  0  0  0  0  0  0  0  0  0  0  0
  -26.1320  -11.8100   20.5210 N   0  0  0  0  0  0  0  0  0  0  0  0
  -24.1300  -10.5530   20.9950 C   0  0  0  0  0  0  0  0  0  0  0  0
  -24.5500   -9.6060   21.9580 C   0  0  0  0  0  3  0  0  0  0  0  0
  -23.8410   -8.3990   22.1320 C   0  0  0  0  0  3  0  0  0  0  0  0
  -22.6980   -8.1250   21.3430 C   0  0  0  0  0  0  0  0  0  0  0  0
  -22.2950   -9.0600   20.3740 C   0  0  0  0  0  3  0  0  0  0  0  0
  -23.0050  -10.2620   20.1980 C   0  0  0  0  0  3  0  0  0  0  0  0
  -21.9640   -6.9660   21.4230 O   0  0  0  0  0  0  0  0  0  0  0  0
  -21.8810   -6.2450   22.5860 C   0  0  0  0  0  0  0  0  0  0  0  0
  -21.3500   -6.8000   23.7700 C   0  0  0  0  0  3  0  0  0  0  0  0
  -21.2190   -6.0020   24.9260 C   0  0  0  0  0  3  0  0  0  0  0  0
  -21.6120   -4.6520   24.8980 C   0  0  0  0  0  0  0  0  0  0  0  0
  -22.1360   -4.0950   23.7180 C   0  0  0  0  0  3  0  0  0  0  0  0
  -22.2690   -4.8890   22.5660 C   0  0  0  0  0  0  0  0  0  0  0  0
  -22.7560   -4.3430   21.4260 F   0  0  0  0  0  0  0  0  0  0  0  0
  -21.4790   -3.8820   26.0050 F   0  0  0  0  0  0  0  0  0  0  0  0
  -22.9420  -13.6260   21.0750 C   0  0  0  0  0  0  0  0  0  0  0  0
  -22.2070  -12.9160   21.9220 N   0  0  0  0  0  0  0  0  0  0  0  0
  -22.5000  -14.6480   20.5480 O   0  0  0  0  0  0  0  0  0  0  0  0
  -22.5690  -12.0860   22.3690 H   0  0  0  0  0  0  0  0  0  0  0  0
  -21.2590  -13.2040   22.1220 H   0  0  0  0  0  0  0  0  0  0  0  0
  -25.5640  -15.3340   20.3000 N   0  0  0  0  0  0  0  0  0  0  0  0
  -24.8000  -15.9960   20.3860 H   0  0  0  0  0  0  0  0  0  0  0  0
  -26.4210  -15.7690   19.9840 H   0  0  0  0  0  0  0  0  0  0  0  0
  -31.1980  -20.4320   21.4540 C   0  0  0  0  0  2  0  0  0  0  0  0
  -30.6980  -20.5760   22.9180 C   0  0  0  0  0  2  0  0  0  0  0  0
  -31.7480  -20.3580   23.9440 N   0  0  0  0  0  4  0  0  0  0  0  0
  -32.1380  -19.4270   23.9200 H   0  0  0  0  0  0  0  0  0  0  0  0
  -31.3420  -20.4740   24.8590 H   0  0  0  0  0  0  0  0  0  0  0  0
  -32.5040  -21.0200   23.8690 H   0  0  0  0  0  0  0  0  0  0  0  0
  1  2  1  0
  1 49  1  0
  1 90  1  0
  2  4  1  0
  3  2  1  0
  5  6  2  0
  5  2  1  0
  7  8  1  0
  7  6  1  0
  9 20  2  0
 10  8  1  0
 10 15  1  0
 11 19  1  0
 11 21  1  0
 12 18  1  0
 12 14  1  0
 13 19  1  0
 14 13  1  0
 15 14  2  0
 16 10  2  0
 17 16  1  0
 17 12  2  0
 18 11  1  0
 19  9  1  0
 21 23  2  0
 22 21  1  0
 24 22  1  0
 25 34  2  0
 25 30  1  0
 26 22  1  0
 26 30  1  0
 27 26  1  0
 28 29  1  0
 28 27  1  0
 29 25  1  0
 30 31  2  0
 31 32  1  0
 33 32  2  0
 34 33  1  0
 35  9  1  0
 35 40  1  0
 35 36  1  0
 36 39  1  1
 36 37  1  0
 38 36  1  0
 40 43  1  0
 41 45  1  0
 41 40  1  0
 42 41  2  0
 45 44  1  0
 47 45  1  0
 47 48  1  0
 47 46  1  0
 49 50  2  0
 51 49  1  0
 51 60  1  0
 52 60  1  0
 53 58  1  0
 54 55  1  0
 54 53  1  0
 56 55  1  0
 56 65  1  0
 56 57  1  0
 58 52  1  0
 58 57  1  0
 59 52  2  0
 60 61  1  0
 62 63  2  0
 63 82  1  0
 64 63  1  0
 64 67  1  0
 65 62  1  0
 65 66  1  0
 66 64  2  0
 67 68  1  0
 68 69  2  0
 70 73  1  0
 70 69  1  0
 71 70  2  0
 72 71  1  0
 72 67  2  0
 73 74  1  0
 74 75  1  0
 75 76  2  0
 77 76  1  0
 77 81  1  0
 78 77  2  0
 79 74  2  0
 79 78  1  0
 80 79  1  0
 82 83  1  0
 83 86  1  0
 83 85  1  0
 84 82  2  0
 87 88  1  0
 87 62  1  0
 89 87  1  0
 90 91  1  0
 91 92  1  0
 92 94  1  0
 93 92  1  0
 95 92  1  0
M  ISO  4   7 101   8 101  52 100  60 100
M  END
>  <TORSDO>  (28) 
F 25

>  <SCORE>  (28) 
-12.361

>  <name>  (28) 
28

>  <ligand_id>  (28) 
28

>  <original_smiles>  (28) 
[H]c1c([H])c([H])c2c(c1[H])C([H])([H])C([H])([H])C([H])([H])C2([H])N([H])C(=O)C1([H])N(C(=O)C([H])(N([H])C(=O)C([H])(N([H])C([H])([H])[H])C([H])([H])[H])C(C([H])([H])[H])(C([H])([H])[H])C([H])([H])[H])C([H])([H])c2c([H])c(OC([H])([H])C([H])([H])C([H])([H])[N+]([H])([H])C([H])(C(=O)C([H])([H])N([H])C(=O)N3C([H])([H])C([H])([H])C([H])([H])C([H])(n4nc(-c5c([H])c([H])c(Oc6c([H])c([H])c(F)c([H])c6F)c([H])c5[H])c(C(=O)N([H])[H])c4N([H])[H])C3([H])[H])C([H])([H])C([H])([H])[N+]([H])([H])[H])c([H])c([H])c2C1([H])[H]

>  <smiles>  (28) 
[H]c1c([H])c([H])c2c(c1[H])C([H])([H])C([H])([H])C([H])([H])C2([H])N([H])C(=O)C1([H])N(C(=O)C([H])(N([H])C(=O)C([H])(N([H])C([H])([H])[H])C([H])([H])[H])C(C([H])([H])[H])(C([H])([H])[H])C([H])([H])[H])C([H])([H])c2c([H])c(OC([H])([H])C([H])([H])C([H])([H])[N+]([H])([H])C([H])(C(=O)C([H])([H])N([H])C(=O)N3C([H])([H])C([H])([H])C([H])([H])C([H])(n4nc(-c5c([H])c([H])c(Oc6c([H])c([H])c(F)c([H])c6F)c([H])c5[H])c(C(=O)N([H])[H])c4N([H])[H])C3([H])[H])C([H])([H])C([H])([H])[N+]([H])([H])[H])c([H])c([H])c2C1([H])[H]

$$$$
29:0:0
     RDKit          3D

104112  0  0  1  0  0  0  0  0999 V2000
  -31.4730  -21.1380   19.8620 C   0  0  0  0  0  2  0  0  0  0  0  0
  -30.8340  -20.8190   17.5570 C   0  0  0  0  0  2  0  0  0  0  0  0
  -31.8870  -19.6400   19.9050 C   0  0  0  0  0  2  0  0  0  0  0  0
  -31.3170  -19.3650   17.6620 C   0  0  0  0  0  2  0  0  0  0  0  0
  -31.5000  -21.7270   18.5050 N   0  0  0  0  0  0  0  0  0  0  0  0
  -31.0450  -18.8260   19.0050 N   0  0  0  0  0  0  0  0  0  0  0  0
  -30.7910  -23.0100   18.4490 C   0  0  0  0  0  2  0  0  0  0  0  0
  -31.3990  -24.2380   19.1530 C   0  0  0  0  0  2  0  0  0  0  0  0
  -30.4230  -25.3420   19.0790 N   0  0  0  0  0  4  0  0  0  0  0  0
  -29.5330  -24.9750   19.3880 H   0  0  0  0  0  0  0  0  0  0  0  0
  -30.3020  -25.6260   18.1190 H   0  0  0  0  0  0  0  0  0  0  0  0
  -30.7080  -26.5120   19.9360 C   0  0  0  0  0  2  0  0  0  0  0  0
  -29.5590  -27.5280   19.8750 C   0  0  0  0  0  2  0  0  0  0  0  0
  -28.3180  -26.8150   19.9530 O   0  0  0  0  0  0  0  0  0  0  0  0
  -24.5260  -31.9290   23.1770 C   0  0  0  0  0  0  0  0  0  0  0  0
  -27.1600  -27.5580   20.0330 C   0  0  0  0  0  0  0  0  0  0  0  0
  -23.2850  -30.5250   21.5520 C   0  0  0  0  0  3  0  0  0  0  0  0
  -24.7240  -28.9950   20.0990 C   0  0  0  0  0  0  0  0  0  0  0  0
  -25.7940  -30.9180   21.2910 C   0  0  0  0  0  2  0  0  0  0  0  0
  -25.8800  -29.5470   20.6600 C   0  0  0  0  0  0  0  0  0  0  0  0
  -27.0930  -28.8380   20.6350 C   0  0  0  0  0  3  0  0  0  0  0  0
  -25.9810  -27.0020   19.4890 C   0  0  0  0  0  3  0  0  0  0  0  0
  -24.7650  -27.7190   19.5070 C   0  0  0  0  0  3  0  0  0  0  0  0
  -23.4700  -29.8380   20.1680 C   0  0  0  0  0  2  0  0  0  0  0  0
  -24.5540  -31.1370   22.0680 N   0  0  0  0  0  0  0  0  0  0  0  0
  -23.4600  -32.1920   23.7480 O   0  0  0  0  0  0  0  0  0  0  0  0
  -22.6600  -29.5020   22.5280 C   0  0  0  0  0  0  0  0  0  0  0  0
  -21.3350  -29.3150   22.4290 N   0  0  0  0  0  0  0  0  0  0  0  0
  -23.3640  -28.8810   23.3280 O   0  0  0  0  0  0  0  0  0  0  0  0
  -20.8280  -29.8690   21.7520 H   0  0  0  0  0  0  0  0  0  0  0  0
  -17.9790  -28.0950   22.9750 C   0  0  0  0  0  0  0  0  0  0  0  0
  -20.5370  -28.3740   23.2150 C   0  0  0  0  0  3  0  0  0  0  0  0
  -20.6450  -26.9420   22.6440 C   0  0  0  0  0  2  0  0  0  0  0  0
  -19.5330  -26.6060   21.6440 C   0  0  0  0  0  2  0  0  0  0  0  0
  -18.1590  -26.7430   22.3040 C   0  0  0  0  0  2  0  0  0  0  0  0
  -19.0960  -28.8670   23.3890 C   0  0  0  0  0  0  0  0  0  0  0  0
  -18.8740  -30.1320   23.9760 C   0  0  0  0  0  3  0  0  0  0  0  0
  -17.5680  -30.6250   24.1530 C   0  0  0  0  0  3  0  0  0  0  0  0
  -16.4650  -29.8500   23.7550 C   0  0  0  0  0  3  0  0  0  0  0  0
  -16.6710  -28.5870   23.1720 C   0  0  0  0  0  3  0  0  0  0  0  0
  -25.8270  -32.5580   23.7700 C   0  0  0  0  0  3  0  0  0  0  0  0
  -25.5270  -33.9490   24.1210 N   0  0  0  0  0  0  0  0  0  0  0  0
  -25.8650  -35.0100   23.3750 C   0  0  0  0  0  0  0  0  0  0  0  0
  -26.5330  -34.9190   22.3410 O   0  0  0  0  0  0  0  0  0  0  0  0
  -24.9370  -34.0950   24.9270 H   0  0  0  0  0  0  0  0  0  0  0  0
  -24.1460  -36.8150   23.0400 C   0  0  0  0  0  1  0  0  0  0  0  0
  -25.3820  -36.3940   23.8500 C   0  0  0  0  0  3  0  0  0  0  0  0
  -27.5230  -37.2520   24.6930 C   0  0  0  0  0  1  0  0  0  0  0  0
  -26.4190  -37.4430   23.7560 N   0  0  0  0  0  0  0  0  0  0  0  0
  -26.0190  -38.3630   23.9220 H   0  0  0  0  0  0  0  0  0  0  0  0
  -26.3890  -31.7710   25.0170 C   0  0  1  0  0  0  0  0  0  0  0  0
  -25.3300  -31.5110   26.1150 C   0  0  0  0  0  1  0  0  0  0  0  0
  -26.9660  -30.4020   24.5850 C   0  0  0  0  0  1  0  0  0  0  0  0
  -27.5560  -32.5610   25.6560 C   0  0  0  0  0  1  0  0  0  0  0  0
  -31.2060  -17.3510   19.1380 C   0  0  0  0  0  3  0  0  0  0  0  0
  -30.2840  -16.5580   18.1400 C   0  0  0  0  0  2  0  0  0  0  0  0
  -30.9850  -16.1390   16.9060 N   0  0  0  0  0  4  0  0  0  0  0  0
  -31.0720  -16.9080   16.2680 H   0  0  0  0  0  0  0  0  0  0  0  0
  -30.4650  -15.4210   16.4300 H   0  0  0  0  0  0  0  0  0  0  0  0
  -31.9040  -15.7830   17.1090 H   0  0  0  0  0  0  0  0  0  0  0  0
  -31.0810  -16.8140   20.6330 C   0  0  0  0  0  3  0  0  0  0  0  0
  -31.4220  -14.3240   20.2590 C   0  0  0  0  0  0  0  0  0  0  0  0
  -30.9450  -12.2580   19.0130 C   0  0  0  0  0  2  0  0  0  0  0  0
  -30.0030  -12.5980   17.8380 C   0  0  0  0  0  2  0  0  0  0  0  0
  -28.5260  -12.5480   18.2790 C   0  0  0  0  0  2  0  0  0  0  0  0
  -28.2610  -13.3380   19.5860 C   0  0  0  0  0  3  0  0  0  0  0  0
  -29.3160  -12.9900   20.6630 C   0  0  0  0  0  2  0  0  0  0  0  0
  -30.6610  -13.2110   20.0940 N   0  0  0  0  0  0  0  0  0  0  0  0
  -32.5400  -14.4700   19.7660 O   0  0  0  0  0  0  0  0  0  0  0  0
  -30.7520  -15.3760   20.7610 N   0  0  0  0  0  0  0  0  0  0  0  0
  -29.8460  -15.1380   21.1270 H   0  0  0  0  0  0  0  0  0  0  0  0
  -25.8970  -14.1010   20.2700 C   0  0  0  0  0  0  0  0  0  0  0  0
  -24.7840  -13.4080   20.6580 C   0  0  0  0  0  0  0  0  0  0  0  0
  -25.1620  -12.0270   20.6510 C   0  0  0  0  0  0  0  0  0  0  0  0
  -26.8920  -13.1550   20.0640 N   0  0  0  0  0  0  0  0  0  0  0  0
  -26.4510  -11.9050   20.3520 N   0  0  0  0  0  0  0  0  0  0  0  0
  -24.3650  -10.8160   20.8590 C   0  0  0  0  0  0  0  0  0  0  0  0
  -24.7270   -9.8550   21.8270 C   0  0  0  0  0  3  0  0  0  0  0  0
  -23.9370   -8.7030   22.0220 C   0  0  0  0  0  3  0  0  0  0  0  0
  -22.7710   -8.5040   21.2470 C   0  0  0  0  0  0  0  0  0  0  0  0
  -22.4260   -9.4510   20.2660 C   0  0  0  0  0  3  0  0  0  0  0  0
  -23.2190  -10.5950   20.0690 C   0  0  0  0  0  3  0  0  0  0  0  0
  -21.9550   -7.4020   21.3500 O   0  0  0  0  0  0  0  0  0  0  0  0
  -21.8120   -6.7230   22.5330 C   0  0  0  0  0  0  0  0  0  0  0  0
  -21.3700   -7.3650   23.7090 C   0  0  0  0  0  3  0  0  0  0  0  0
  -21.1710   -6.6160   24.8870 C   0  0  0  0  0  3  0  0  0  0  0  0
  -21.4020   -5.2260   24.8870 C   0  0  0  0  0  0  0  0  0  0  0  0
  -21.8360   -4.5850   23.7130 C   0  0  0  0  0  3  0  0  0  0  0  0
  -22.0360   -5.3320   22.5400 C   0  0  0  0  0  0  0  0  0  0  0  0
  -22.4300   -4.7060   21.4040 F   0  0  0  0  0  0  0  0  0  0  0  0
  -21.2070   -4.5030   26.0150 F   0  0  0  0  0  0  0  0  0  0  0  0
  -23.4150  -13.9730   20.9160 C   0  0  0  0  0  0  0  0  0  0  0  0
  -22.6430  -13.3490   21.8010 N   0  0  0  0  0  0  0  0  0  0  0  0
  -23.0420  -15.0080   20.3620 O   0  0  0  0  0  0  0  0  0  0  0  0
  -22.9500  -12.5080   22.2630 H   0  0  0  0  0  0  0  0  0  0  0  0
  -21.7230  -13.7100   22.0090 H   0  0  0  0  0  0  0  0  0  0  0  0
  -26.1420  -15.4530   20.0430 N   0  0  0  0  0  0  0  0  0  0  0  0
  -26.8890  -15.7490   19.4290 H   0  0  0  0  0  0  0  0  0  0  0  0
  -25.3740  -16.1140   20.0620 H   0  0  0  0  0  0  0  0  0  0  0  0
  -30.1150  -17.6310   21.5380 C   0  0  0  0  0  2  0  0  0  0  0  0
  -30.1990  -17.2700   22.9700 N   0  0  0  0  0  4  0  0  0  0  0  0
  -29.6790  -16.4400   23.1880 H   0  0  0  0  0  0  0  0  0  0  0  0
  -29.8210  -18.0170   23.5250 H   0  0  0  0  0  0  0  0  0  0  0  0
  -31.1550  -17.1430   23.2500 H   0  0  0  0  0  0  0  0  0  0  0  0
  1  3  1  0
  2  4  1  0
  2  5  1  0
  4  6  1  0
  5  1  1  0
  6 55  1  0
  6  3  1  0
  7  5  1  0
  7  8  1  0
  9  8  1  0
  9 10  1  0
  9 12  1  0
 11  9  1  0
 13 12  1  0
 13 14  1  0
 14 16  1  0
 15 26  2  0
 16 21  1  0
 17 25  1  0
 17 27  1  0
 18 24  1  0
 18 20  1  0
 19 25  1  0
 20 19  1  0
 21 20  2  0
 22 23  1  0
 22 16  2  0
 23 18  2  0
 24 17  1  0
 25 15  1  0
 27 29  2  0
 28 27  1  0
 30 28  1  0
 31 40  2  0
 31 36  1  0
 32 28  1  0
 32 36  1  0
 33 32  1  0
 34 35  1  0
 34 33  1  0
 35 31  1  0
 36 37  2  0
 37 38  1  0
 39 38  2  0
 40 39  1  0
 41 15  1  0
 41 42  1  0
 41 51  1  0
 42 45  1  0
 43 47  1  0
 43 42  1  0
 44 43  2  0
 47 46  1  0
 49 47  1  0
 49 50  1  0
 49 48  1  0
 51 54  1  1
 51 52  1  0
 53 51  1  0
 55 56  1  0
 55 61  1  0
 57 60  1  0
 57 56  1  0
 58 57  1  0
 59 57  1  0
 61 70  1  0
 61100  1  0
 62 70  1  0
 63 68  1  0
 64 65  1  0
 64 63  1  0
 66 65  1  0
 66 75  1  0
 66 67  1  0
 68 62  1  0
 68 67  1  0
 69 62  2  0
 70 71  1  0
 72 73  2  0
 73 92  1  0
 74 73  1  0
 74 77  1  0
 75 72  1  0
 75 76  1  0
 76 74  2  0
 77 78  1  0
 78 79  2  0
 80 83  1  0
 80 79  1  0
 81 80  2  0
 82 81  1  0
 82 77  2  0
 83 84  1  0
 84 89  2  0
 84 85  1  0
 85 86  2  0
 87 86  1  0
 87 91  1  0
 88 87  2  0
 89 88  1  0
 90 89  1  0
 92 93  1  0
 93 96  1  0
 93 95  1  0
 94 92  2  0
 97 99  1  0
 97 72  1  0
 98 97  1  0
100101  1  0
101102  1  0
101104  1  0
101103  1  0
M  ISO  4  13 101  14 101  62 100  70 100
M  END
>  <TORSDO>  (29) 
F 27

>  <SCORE>  (29) 
-10.667

>  <name>  (29) 
29

>  <ligand_id>  (29) 
29

>  <original_smiles>  (29) 
[H]c1c([H])c([H])c2c(c1[H])C([H])([H])C([H])([H])C([H])([H])C2([H])N([H])C(=O)C1([H])N(C(=O)C([H])(N([H])C(=O)C([H])(N([H])C([H])([H])[H])C([H])([H])[H])C(C([H])([H])[H])(C([H])([H])[H])C([H])([H])[H])C([H])([H])c2c([H])c(OC([H])([H])C([H])([H])[N+]([H])([H])C([H])([H])C([H])([H])N3C([H])([H])C([H])([H])N(C([H])(C([H])(N([H])C(=O)N4C([H])([H])C([H])([H])C([H])([H])C([H])(n5nc(-c6c([H])c([H])c(Oc7c([H])c([H])c(F)c([H])c7F)c([H])c6[H])c(C(=O)N([H])[H])c5N([H])[H])C4([H])[H])C([H])([H])[N+]([H])([H])[H])C([H])([H])[N+]([H])([H])[H])C([H])([H])C3([H])[H])c([H])c([H])c2C1([H])[H]

>  <smiles>  (29) 
[H]c1c([H])c([H])c2c(c1[H])C([H])([H])C([H])([H])C([H])([H])C2([H])N([H])C(=O)C1([H])N(C(=O)C([H])(N([H])C(=O)C([H])(N([H])C([H])([H])[H])C([H])([H])[H])C(C([H])([H])[H])(C([H])([H])[H])C([H])([H])[H])C([H])([H])c2c([H])c(OC([H])([H])C([H])([H])[N+]([H])([H])C([H])([H])C([H])([H])N3C([H])([H])C([H])([H])N(C([H])(C([H])(N([H])C(=O)N4C([H])([H])C([H])([H])C([H])([H])C([H])(n5nc(-c6c([H])c([H])c(Oc7c([H])c([H])c(F)c([H])c7F)c([H])c6[H])c(C(=O)N([H])[H])c5N([H])[H])C4([H])[H])C([H])([H])[N+]([H])([H])[H])C([H])([H])[N+]([H])([H])[H])C([H])([H])C3([H])[H])c([H])c([H])c2C1([H])[H]

$$$$
30:0:0
     RDKit          3D

 99106  0  0  1  0  0  0  0  0999 V2000
  -30.5160  -21.4230   21.6610 C   0  0  0  0  0  3  0  0  0  0  0  0
  -31.9420  -21.6170   22.0070 N   0  0  0  0  0  0  0  0  0  0  0  0
  -32.2260  -20.8300   22.5990 H   0  0  0  0  0  0  0  0  0  0  0  0
  -32.0950  -22.4340   22.6020 H   0  0  0  0  0  0  0  0  0  0  0  0
  -30.3150  -19.9850   21.0970 C   0  0  0  0  0  2  0  0  0  0  0  0
  -30.7560  -18.8660   21.9680 N   0  0  0  0  0  0  0  0  0  0  0  0
  -30.5370  -17.5830   21.2520 C   0  0  0  0  0  2  0  0  0  0  0  0
  -31.3710  -16.3610   21.7150 C   0  0  0  0  0  2  0  0  0  0  0  0
  -31.1800  -14.3330   20.2030 C   0  0  0  0  0  0  0  0  0  0  0  0
  -30.7320  -12.2430   18.9490 C   0  0  0  0  0  2  0  0  0  0  0  0
  -29.7590  -12.4620   17.7720 C   0  0  0  0  0  2  0  0  0  0  0  0
  -28.2960  -12.3660   18.2400 C   0  0  0  0  0  2  0  0  0  0  0  0
  -28.0250  -13.2350   19.4940 C   0  0  0  0  0  3  0  0  0  0  0  0
  -29.0880  -12.9680   20.5850 C   0  0  0  0  0  2  0  0  0  0  0  0
  -30.4220  -13.2170   20.0080 N   0  0  0  0  0  0  0  0  0  0  0  0
  -32.1670  -14.6090   19.5170 O   0  0  0  0  0  0  0  0  0  0  0  0
  -30.8000  -15.0910   21.2460 N   0  0  0  0  0  0  0  0  0  0  0  0
  -30.0460  -14.7140   21.8010 H   0  0  0  0  0  0  0  0  0  0  0  0
  -25.6630  -13.9670   20.2210 C   0  0  0  0  0  0  0  0  0  0  0  0
  -24.5680  -13.2500   20.6230 C   0  0  0  0  0  0  0  0  0  0  0  0
  -24.9670  -11.8800   20.6130 C   0  0  0  0  0  0  0  0  0  0  0  0
  -26.6660  -13.0350   19.9970 N   0  0  0  0  0  0  0  0  0  0  0  0
  -26.2510  -11.7740   20.2870 N   0  0  0  0  0  0  0  0  0  0  0  0
  -24.1900  -10.6550   20.8470 C   0  0  0  0  0  0  0  0  0  0  0  0
  -24.5870   -9.7020   21.8120 C   0  0  0  0  0  3  0  0  0  0  0  0
  -23.8150   -8.5420   22.0360 C   0  0  0  0  0  3  0  0  0  0  0  0
  -22.6310   -8.3250   21.2880 C   0  0  0  0  0  0  0  0  0  0  0  0
  -22.2520   -9.2640   20.3140 C   0  0  0  0  0  3  0  0  0  0  0  0
  -23.0250  -10.4160   20.0920 C   0  0  0  0  0  3  0  0  0  0  0  0
  -21.8360   -7.2110   21.4130 O   0  0  0  0  0  0  0  0  0  0  0  0
  -21.7350   -6.5300   22.5990 C   0  0  0  0  0  0  0  0  0  0  0  0
  -21.3200   -7.1640   23.7890 C   0  0  0  0  0  3  0  0  0  0  0  0
  -21.1610   -6.4110   24.9700 C   0  0  0  0  0  3  0  0  0  0  0  0
  -21.4100   -5.0270   24.9610 C   0  0  0  0  0  0  0  0  0  0  0  0
  -21.8140   -4.3910   23.7720 C   0  0  0  0  0  3  0  0  0  0  0  0
  -21.9720   -5.1410   22.5950 C   0  0  0  0  0  0  0  0  0  0  0  0
  -22.3450   -4.5190   21.4490 F   0  0  0  0  0  0  0  0  0  0  0  0
  -21.2490   -4.3030   26.0930 F   0  0  0  0  0  0  0  0  0  0  0  0
  -23.1990  -13.7940   20.9150 C   0  0  0  0  0  0  0  0  0  0  0  0
  -22.4710  -13.1580   21.8260 N   0  0  0  0  0  0  0  0  0  0  0  0
  -22.7870  -14.8190   20.3780 O   0  0  0  0  0  0  0  0  0  0  0  0
  -22.8180  -12.3260   22.2800 H   0  0  0  0  0  0  0  0  0  0  0  0
  -21.5560  -13.5110   22.0710 H   0  0  0  0  0  0  0  0  0  0  0  0
  -25.8840  -15.3240   20.0050 N   0  0  0  0  0  0  0  0  0  0  0  0
  -25.1620  -16.0240   20.1310 H   0  0  0  0  0  0  0  0  0  0  0  0
  -26.7570  -15.7140   19.6700 H   0  0  0  0  0  0  0  0  0  0  0  0
  -30.0220  -18.9090   23.2530 C   0  0  0  0  0  2  0  0  0  0  0  0
  -30.5550  -18.0900   24.4500 C   0  0  0  0  0  2  0  0  0  0  0  0
  -30.2910  -18.7820   25.7260 N   0  0  0  0  0  4  0  0  0  0  0  0
  -30.7930  -19.6520   25.7580 H   0  0  0  0  0  0  0  0  0  0  0  0
  -30.5930  -18.2140   26.4980 H   0  0  0  0  0  0  0  0  0  0  0  0
  -29.3120  -18.9700   25.8400 H   0  0  0  0  0  0  0  0  0  0  0  0
  -29.9930  -22.5210   20.7010 C   0  0  0  0  0  2  0  0  0  0  0  0
  -30.1630  -23.8530   21.3230 N   0  0  0  0  0  4  0  0  0  0  0  0
  -29.5530  -23.9360   22.1210 H   0  0  0  0  0  0  0  0  0  0  0  0
  -31.1090  -23.8650   21.6740 H   0  0  0  0  0  0  0  0  0  0  0  0
  -30.0180  -25.0460   20.4500 C   0  0  0  0  0  2  0  0  0  0  0  0
  -28.5680  -25.4030   20.0460 C   0  0  0  0  0  2  0  0  0  0  0  0
  -28.4990  -26.8270   20.0830 O   0  0  0  0  0  0  0  0  0  0  0  0
  -24.5960  -31.8600   23.1750 C   0  0  0  0  0  0  0  0  0  0  0  0
  -27.2760  -27.4580   20.0900 C   0  0  0  0  0  0  0  0  0  0  0  0
  -23.3950  -30.4570   21.5260 C   0  0  0  0  0  3  0  0  0  0  0  0
  -24.8580  -28.9210   20.1070 C   0  0  0  0  0  0  0  0  0  0  0  0
  -25.9170  -30.8330   21.3290 C   0  0  0  0  0  2  0  0  0  0  0  0
  -26.0090  -29.4630   20.6900 C   0  0  0  0  0  0  0  0  0  0  0  0
  -27.2160  -28.7390   20.6770 C   0  0  0  0  0  3  0  0  0  0  0  0
  -26.1080  -26.9130   19.5090 C   0  0  0  0  0  3  0  0  0  0  0  0
  -24.9000  -27.6440   19.5160 C   0  0  0  0  0  3  0  0  0  0  0  0
  -23.6090  -29.7710   20.1500 C   0  0  0  0  0  2  0  0  0  0  0  0
  -24.6540  -31.0650   22.0690 N   0  0  0  0  0  0  0  0  0  0  0  0
  -23.5150  -32.1250   23.7180 O   0  0  0  0  0  0  0  0  0  0  0  0
  -22.7490  -29.4320   22.4840 C   0  0  0  0  0  0  0  0  0  0  0  0
  -21.4310  -29.2280   22.3410 N   0  0  0  0  0  0  0  0  0  0  0  0
  -23.4320  -28.8210   23.3100 O   0  0  0  0  0  0  0  0  0  0  0  0
  -20.9410  -29.7800   21.6510 H   0  0  0  0  0  0  0  0  0  0  0  0
  -18.0740  -27.9640   22.7730 C   0  0  0  0  0  0  0  0  0  0  0  0
  -20.6180  -28.2810   23.1020 C   0  0  0  0  0  3  0  0  0  0  0  0
  -20.7650  -26.8450   22.5460 C   0  0  0  0  0  2  0  0  0  0  0  0
  -19.6950  -26.4880   21.5090 C   0  0  0  0  0  2  0  0  0  0  0  0
  -18.2960  -26.6110   22.1180 C   0  0  0  0  0  2  0  0  0  0  0  0
  -19.1670  -28.7550   23.2200 C   0  0  0  0  0  0  0  0  0  0  0  0
  -18.9100  -30.0200   23.7900 C   0  0  0  0  0  3  0  0  0  0  0  0
  -17.5920  -30.4970   23.9210 C   0  0  0  0  0  3  0  0  0  0  0  0
  -16.5130  -29.7050   23.4900 C   0  0  0  0  0  3  0  0  0  0  0  0
  -16.7560  -28.4410   22.9210 C   0  0  0  0  0  3  0  0  0  0  0  0
  -25.8800  -32.4930   23.7990 C   0  0  0  0  0  3  0  0  0  0  0  0
  -25.5590  -33.8810   24.1520 N   0  0  0  0  0  0  0  0  0  0  0  0
  -25.8890  -34.9520   23.4160 C   0  0  0  0  0  0  0  0  0  0  0  0
  -26.5650  -34.8740   22.3860 O   0  0  0  0  0  0  0  0  0  0  0  0
  -24.9620  -34.0160   24.9540 H   0  0  0  0  0  0  0  0  0  0  0  0
  -24.1500  -36.7410   23.0800 C   0  0  0  0  0  1  0  0  0  0  0  0
  -25.3860  -36.3270   23.8960 C   0  0  0  0  0  3  0  0  0  0  0  0
  -27.5060  -37.2080   24.7640 C   0  0  0  0  0  1  0  0  0  0  0  0
  -26.4100  -37.3890   23.8160 N   0  0  0  0  0  0  0  0  0  0  0  0
  -25.9960  -38.3030   23.9810 H   0  0  0  0  0  0  0  0  0  0  0  0
  -26.4150  -31.7070   25.0570 C   0  0  1  0  0  0  0  0  0  0  0  0
  -25.3310  -31.4330   26.1260 C   0  0  0  0  0  1  0  0  0  0  0  0
  -27.0190  -30.3470   24.6320 C   0  0  0  0  0  1  0  0  0  0  0  0
  -27.5520  -32.5090   25.7340 C   0  0  0  0  0  1  0  0  0  0  0  0
  1 53  1  0
  1  2  1  0
  2  3  1  0
  2  4  1  0
  5  1  1  0
  5  6  1  0
  6 47  1  0
  7  8  1  0
  7  6  1  0
  9 17  1  0
 10 15  1  0
 11 12  1  0
 11 10  1  0
 13 12  1  0
 13 22  1  0
 13 14  1  0
 15  9  1  0
 15 14  1  0
 16  9  2  0
 17  8  1  0
 17 18  1  0
 19 20  2  0
 20 39  1  0
 21 20  1  0
 21 24  1  0
 22 19  1  0
 22 23  1  0
 23 21  2  0
 24 25  1  0
 25 26  2  0
 27 30  1  0
 27 26  1  0
 28 27  2  0
 29 28  1  0
 29 24  2  0
 30 31  1  0
 31 32  1  0
 32 33  2  0
 34 33  1  0
 34 38  1  0
 35 34  2  0
 36 31  2  0
 36 35  1  0
 37 36  1  0
 39 40  1  0
 40 43  1  0
 40 42  1  0
 41 39  2  0
 44 45  1  0
 44 19  1  0
 46 44  1  0
 47 48  1  0
 48 49  1  0
 49 50  1  0
 49 52  1  0
 49 51  1  0
 53 54  1  0
 54 56  1  0
 54 55  1  0
 57 54  1  0
 58 59  1  0
 58 57  1  0
 59 61  1  0
 60 71  2  0
 61 66  1  0
 62 70  1  0
 62 72  1  0
 63 69  1  0
 63 65  1  0
 64 70  1  0
 65 64  1  0
 66 65  2  0
 67 68  1  0
 67 61  2  0
 68 63  2  0
 69 62  1  0
 70 60  1  0
 72 74  2  0
 73 72  1  0
 75 73  1  0
 76 85  2  0
 76 81  1  0
 77 73  1  0
 77 81  1  0
 78 77  1  0
 79 80  1  0
 79 78  1  0
 80 76  1  0
 81 82  2  0
 82 83  1  0
 84 83  2  0
 85 84  1  0
 86 60  1  0
 86 87  1  0
 86 96  1  0
 87 90  1  0
 88 92  1  0
 88 87  1  0
 89 88  2  0
 92 91  1  0
 94 92  1  0
 94 95  1  0
 94 93  1  0
 96 99  1  1
 96 97  1  0
 98 96  1  0
M  ISO  4   9 100  17 100  58 101  59 101
M  END
>  <TORSDO>  (30) 
F 28

>  <SCORE>  (30) 
-8.255

>  <name>  (30) 
30

>  <ligand_id>  (30) 
30

>  <original_smiles>  (30) 
[H]c1c([H])c([H])c2c(c1[H])C([H])([H])C([H])([H])C([H])([H])C2([H])N([H])C(=O)C1([H])N(C(=O)C([H])(N([H])C(=O)C([H])(N([H])C([H])([H])[H])C([H])([H])[H])C(C([H])([H])[H])(C([H])([H])[H])C([H])([H])[H])C([H])([H])c2c([H])c(OC([H])([H])C([H])([H])[N+]([H])([H])C([H])([H])C([H])(N([H])[H])C([H])([H])N(C([H])([H])C([H])([H])N([H])C(=O)N3C([H])([H])C([H])([H])C([H])([H])C([H])(n4nc(-c5c([H])c([H])c(Oc6c([H])c([H])c(F)c([H])c6F)c([H])c5[H])c(C(=O)N([H])[H])c4N([H])[H])C3([H])[H])C([H])([H])C([H])([H])[N+]([H])([H])[H])c([H])c([H])c2C1([H])[H]

>  <smiles>  (30) 
[H]c1c([H])c([H])c2c(c1[H])C([H])([H])C([H])([H])C([H])([H])C2([H])N([H])C(=O)C1([H])N(C(=O)C([H])(N([H])C(=O)C([H])(N([H])C([H])([H])[H])C([H])([H])[H])C(C([H])([H])[H])(C([H])([H])[H])C([H])([H])[H])C([H])([H])c2c([H])c(OC([H])([H])C([H])([H])[N+]([H])([H])C([H])([H])C([H])(N([H])[H])C([H])([H])N(C([H])([H])C([H])([H])N([H])C(=O)N3C([H])([H])C([H])([H])C([H])([H])C([H])(n4nc(-c5c([H])c([H])c(Oc6c([H])c([H])c(F)c([H])c6F)c([H])c5[H])c(C(=O)N([H])[H])c4N([H])[H])C3([H])[H])C([H])([H])C([H])([H])[N+]([H])([H])[H])c([H])c([H])c2C1([H])[H]

$$$$
31:0:0
     RDKit          3D

100108  0  0  1  0  0  0  0  0999 V2000
  -28.8750  -17.8400   19.5620 C   0  0  0  0  0  3  0  0  0  0  0  0
  -29.1030  -18.6500   17.2910 C   0  0  0  0  0  2  0  0  0  0  0  0
  -30.6280  -17.0100   17.9630 C   0  0  0  0  0  2  0  0  0  0  0  0
  -30.1010  -19.2590   16.2890 C   0  0  0  0  0  2  0  0  0  0  0  0
  -31.6580  -17.4860   16.9140 C   0  0  0  0  0  2  0  0  0  0  0  0
  -29.8330  -18.1400   18.4740 N   0  0  0  0  0  0  0  0  0  0  0  0
  -31.0010  -18.1990   15.8000 N   0  0  0  0  0  4  0  0  0  0  0  0
  -31.7000  -18.6060   15.2040 H   0  0  0  0  0  0  0  0  0  0  0  0
  -30.4680  -17.5440   15.2540 H   0  0  0  0  0  0  0  0  0  0  0  0
  -28.4520  -19.0980   20.4100 C   0  0  0  0  0  2  0  0  0  0  0  0
  -29.2500  -20.4440   20.2990 C   0  0  0  0  0  2  0  0  0  0  0  0
  -28.4460  -21.7130   20.7270 C   0  0  0  0  0  2  0  0  0  0  0  0
  -28.7100  -22.9750   19.8530 C   0  0  0  0  0  2  0  0  0  0  0  0
  -28.2340  -24.3250   20.4670 C   0  0  0  0  0  2  0  0  0  0  0  0
  -28.4620  -25.5650   19.5530 C   0  0  0  0  0  2  0  0  0  0  0  0
  -28.2970  -26.8350   20.2190 O   0  0  0  0  0  0  0  0  0  0  0  0
  -24.5210  -32.0130   23.3150 C   0  0  0  0  0  0  0  0  0  0  0  0
  -27.1010  -27.5370   20.2010 C   0  0  0  0  0  0  0  0  0  0  0  0
  -23.2880  -30.6270   21.6810 C   0  0  0  0  0  3  0  0  0  0  0  0
  -24.7130  -29.0800   20.2320 C   0  0  0  0  0  0  0  0  0  0  0  0
  -25.8160  -30.9590   21.4610 C   0  0  0  0  0  2  0  0  0  0  0  0
  -25.8790  -29.5880   20.8170 C   0  0  0  0  0  0  0  0  0  0  0  0
  -27.0690  -28.8190   20.8030 C   0  0  0  0  0  3  0  0  0  0  0  0
  -25.9090  -27.0420   19.6210 C   0  0  0  0  0  3  0  0  0  0  0  0
  -24.7260  -27.8080   19.6320 C   0  0  0  0  0  3  0  0  0  0  0  0
  -23.4730  -29.9470   20.2970 C   0  0  0  0  0  2  0  0  0  0  0  0
  -24.5610  -31.2160   22.2100 N   0  0  0  0  0  0  0  0  0  0  0  0
  -23.4480  -32.2930   23.8660 O   0  0  0  0  0  0  0  0  0  0  0  0
  -22.6360  -29.6110   22.6460 C   0  0  0  0  0  0  0  0  0  0  0  0
  -21.3130  -29.4170   22.5100 N   0  0  0  0  0  0  0  0  0  0  0  0
  -23.3170  -28.9970   23.4720 O   0  0  0  0  0  0  0  0  0  0  0  0
  -20.8250  -29.9620   21.8150 H   0  0  0  0  0  0  0  0  0  0  0  0
  -17.9500  -28.1770   22.9670 C   0  0  0  0  0  0  0  0  0  0  0  0
  -20.4990  -28.4770   23.2800 C   0  0  0  0  0  3  0  0  0  0  0  0
  -20.6330  -27.0400   22.7270 C   0  0  0  0  0  2  0  0  0  0  0  0
  -19.5540  -26.6870   21.6990 C   0  0  0  0  0  2  0  0  0  0  0  0
  -18.1590  -26.8200   22.3160 C   0  0  0  0  0  2  0  0  0  0  0  0
  -19.0500  -28.9610   23.4060 C   0  0  0  0  0  0  0  0  0  0  0  0
  -18.8010  -30.2310   23.9720 C   0  0  0  0  0  3  0  0  0  0  0  0
  -17.4860  -30.7140   24.1100 C   0  0  0  0  0  3  0  0  0  0  0  0
  -16.4010  -29.9240   23.6930 C   0  0  0  0  0  3  0  0  0  0  0  0
  -16.6350  -28.6590   23.1250 C   0  0  0  0  0  3  0  0  0  0  0  0
  -25.8170  -32.6330   23.9240 C   0  0  0  0  0  3  0  0  0  0  0  0
  -26.3260  -31.8710   25.2100 C   0  0  1  0  0  0  0  0  0  0  0  0
  -25.2310  -31.6600   26.2810 C   0  0  0  0  0  1  0  0  0  0  0  0
  -26.8930  -30.4820   24.8330 C   0  0  0  0  0  1  0  0  0  0  0  0
  -27.4870  -32.6590   25.8610 C   0  0  0  0  0  1  0  0  0  0  0  0
  -25.5330  -34.0380   24.2370 N   0  0  0  0  0  0  0  0  0  0  0  0
  -25.8830  -35.0770   23.4650 C   0  0  0  0  0  0  0  0  0  0  0  0
  -26.5540  -34.9510   22.4360 O   0  0  0  0  0  0  0  0  0  0  0  0
  -24.9410  -34.2090   25.0370 H   0  0  0  0  0  0  0  0  0  0  0  0
  -24.1850  -36.8930   23.0880 C   0  0  0  0  0  1  0  0  0  0  0  0
  -25.4170  -36.4780   23.9060 C   0  0  0  0  0  3  0  0  0  0  0  0
  -27.5620  -37.3400   24.7310 C   0  0  0  0  0  1  0  0  0  0  0  0
  -26.4670  -37.5120   23.7810 N   0  0  0  0  0  0  0  0  0  0  0  0
  -26.0740  -38.4400   23.9160 H   0  0  0  0  0  0  0  0  0  0  0  0
  -28.9620  -16.4370   20.2870 C   0  0  0  0  0  2  0  0  0  0  0  0
  -30.8060  -14.7850   20.7120 C   0  0  0  0  0  0  0  0  0  0  0  0
  -30.5780  -12.5070   19.7720 C   0  0  0  0  0  2  0  0  0  0  0  0
  -29.7040  -12.4900   18.5040 C   0  0  0  0  0  2  0  0  0  0  0  0
  -28.2220  -12.2790   18.8790 C   0  0  0  0  0  2  0  0  0  0  0  0
  -27.7500  -13.2470   19.9910 C   0  0  0  0  0  3  0  0  0  0  0  0
  -28.7600  -13.3290   21.1660 C   0  0  0  0  0  2  0  0  0  0  0  0
  -30.1030  -13.6100   20.6250 N   0  0  0  0  0  0  0  0  0  0  0  0
  -32.0070  -14.8330   20.4370 O   0  0  0  0  0  0  0  0  0  0  0  0
  -30.1600  -15.9480   21.0200 N   0  0  0  0  0  0  0  0  0  0  0  0
  -25.3470  -13.8740   20.6160 C   0  0  0  0  0  0  0  0  0  0  0  0
  -24.2630  -13.1070   20.9460 C   0  0  0  0  0  0  0  0  0  0  0  0
  -24.7280  -11.7560   20.9510 C   0  0  0  0  0  0  0  0  0  0  0  0
  -26.3950  -12.9830   20.4390 N   0  0  0  0  0  0  0  0  0  0  0  0
  -26.0280  -11.7080   20.7010 N   0  0  0  0  0  0  0  0  0  0  0  0
  -23.9990  -10.4970   21.1200 C   0  0  0  0  0  0  0  0  0  0  0  0
  -24.4070   -9.5340   22.0700 C   0  0  0  0  0  3  0  0  0  0  0  0
  -23.6840   -8.3320   22.2240 C   0  0  0  0  0  3  0  0  0  0  0  0
  -22.5420   -8.0860   21.4270 C   0  0  0  0  0  0  0  0  0  0  0  0
  -22.1530   -9.0370   20.4670 C   0  0  0  0  0  3  0  0  0  0  0  0
  -22.8770  -10.2310   20.3120 C   0  0  0  0  0  3  0  0  0  0  0  0
  -21.7940   -6.9370   21.4900 O   0  0  0  0  0  0  0  0  0  0  0  0
  -21.7140   -6.1960   22.6400 C   0  0  0  0  0  0  0  0  0  0  0  0
  -21.2410   -6.7480   23.8510 C   0  0  0  0  0  3  0  0  0  0  0  0
  -21.1090   -5.9290   24.9910 C   0  0  0  0  0  3  0  0  0  0  0  0
  -21.4430   -4.5630   24.9210 C   0  0  0  0  0  0  0  0  0  0  0  0
  -21.9110   -4.0140   23.7160 C   0  0  0  0  0  3  0  0  0  0  0  0
  -22.0400   -4.8280   22.5780 C   0  0  0  0  0  0  0  0  0  0  0  0
  -22.4720   -4.2890   21.4120 F   0  0  0  0  0  0  0  0  0  0  0  0
  -21.3080   -3.7780   26.0150 F   0  0  0  0  0  0  0  0  0  0  0  0
  -22.8550  -13.5860   21.1430 C   0  0  0  0  0  0  0  0  0  0  0  0
  -22.0890  -12.9040   21.9870 N   0  0  0  0  0  0  0  0  0  0  0  0
  -22.4380  -14.6000   20.5830 O   0  0  0  0  0  0  0  0  0  0  0  0
  -22.4400  -12.0890   22.4680 H   0  0  0  0  0  0  0  0  0  0  0  0
  -21.1400  -13.2050   22.1570 H   0  0  0  0  0  0  0  0  0  0  0  0
  -25.5210  -15.2430   20.4270 N   0  0  0  0  0  0  0  0  0  0  0  0
  -24.7490  -15.8970   20.4780 H   0  0  0  0  0  0  0  0  0  0  0  0
  -26.3770  -15.6660   20.0990 H   0  0  0  0  0  0  0  0  0  0  0  0
  -30.7310  -16.8900   21.9950 C   0  0  0  0  0  2  0  0  0  0  0  0
  -31.6650  -17.9480   21.3520 C   0  0  0  0  0  2  0  0  0  0  0  0
  -31.9250  -19.0870   22.2510 N   0  0  0  0  0  4  0  0  0  0  0  0
  -31.0840  -19.6130   22.4140 H   0  0  0  0  0  0  0  0  0  0  0  0
  -32.5990  -19.7020   21.8290 H   0  0  0  0  0  0  0  0  0  0  0  0
  -32.2970  -18.7890   23.1370 H   0  0  0  0  0  0  0  0  0  0  0  0
  1 57  1  0
  1 10  1  0
  2  6  1  0
  3  6  1  0
  4  2  1  0
  5  3  1  0
  6  1  1  0
  7  4  1  0
  7  5  1  0
  8  7  1  0
  9  7  1  0
 11 10  1  0
 11 12  1  0
 13 14  1  0
 13 12  1  0
 15 16  1  0
 15 14  1  0
 17 28  2  0
 18 16  1  0
 18 23  1  0
 19 27  1  0
 19 29  1  0
 20 26  1  0
 20 22  1  0
 21 27  1  0
 22 21  1  0
 23 22  2  0
 24 25  1  0
 24 18  2  0
 25 20  2  0
 26 19  1  0
 27 17  1  0
 29 31  2  0
 30 29  1  0
 32 30  1  0
 33 42  2  0
 33 38  1  0
 34 30  1  0
 34 38  1  0
 35 34  1  0
 36 37  1  0
 36 35  1  0
 37 33  1  0
 38 39  2  0
 39 40  1  0
 41 40  2  0
 42 41  1  0
 43 17  1  0
 43 48  1  0
 43 44  1  0
 44 47  1  1
 44 45  1  0
 46 44  1  0
 48 51  1  0
 49 53  1  0
 49 48  1  0
 50 49  2  0
 53 52  1  0
 55 53  1  0
 55 56  1  0
 55 54  1  0
 57 66  1  0
 58 66  1  0
 59 64  1  0
 60 61  1  0
 60 59  1  0
 62 61  1  0
 62 70  1  0
 62 63  1  0
 64 58  1  0
 64 63  1  0
 65 58  2  0
 66 95  1  0
 67 68  2  0
 68 69  1  0
 68 87  1  0
 69 72  1  0
 70 67  1  0
 70 71  1  0
 71 69  2  0
 72 73  1  0
 73 74  2  0
 75 78  1  0
 75 74  1  0
 76 75  2  0
 77 76  1  0
 77 72  2  0
 78 79  1  0
 79 80  1  0
 80 81  2  0
 82 81  1  0
 82 86  1  0
 83 82  2  0
 84 79  2  0
 84 83  1  0
 85 84  1  0
 87 88  1  0
 88 91  1  0
 88 90  1  0
 89 87  2  0
 92 93  1  0
 92 67  1  0
 94 92  1  0
 96 95  1  0
 96 97  1  0
 97 98  1  0
 97100  1  0
 99 97  1  0
M  ISO  4  15 101  16 101  58 100  66 100
M  END
>  <TORSDO>  (31) 
F 27

>  <SCORE>  (31) 
-11.910

>  <name>  (31) 
31

>  <ligand_id>  (31) 
31

>  <original_smiles>  (31) 
[H]c1c([H])c([H])c2c(c1[H])C([H])([H])C([H])([H])C([H])([H])C2([H])N([H])C(=O)C1([H])N(C(=O)C([H])(N([H])C(=O)C([H])(N([H])C([H])([H])[H])C([H])([H])[H])C(C([H])([H])[H])(C([H])([H])[H])C([H])([H])[H])C([H])([H])c2c([H])c(OC([H])([H])C([H])([H])C([H])([H])C([H])([H])C([H])([H])C([H])([H])C([H])(N3C([H])([H])C([H])([H])[N+]([H])([H])C([H])([H])C3([H])[H])C([H])([H])N(C(=O)N3C([H])([H])C([H])([H])C([H])([H])C([H])(n4nc(-c5c([H])c([H])c(Oc6c([H])c([H])c(F)c([H])c6F)c([H])c5[H])c(C(=O)N([H])[H])c4N([H])[H])C3([H])[H])C([H])([H])C([H])([H])[N+]([H])([H])[H])c([H])c([H])c2C1([H])[H]

>  <smiles>  (31) 
[H]c1c([H])c([H])c2c(c1[H])C([H])([H])C([H])([H])C([H])([H])C2([H])N([H])C(=O)C1([H])N(C(=O)C([H])(N([H])C(=O)C([H])(N([H])C([H])([H])[H])C([H])([H])[H])C(C([H])([H])[H])(C([H])([H])[H])C([H])([H])[H])C([H])([H])c2c([H])c(OC([H])([H])C([H])([H])C([H])([H])C([H])([H])C([H])([H])C([H])([H])C([H])(N3C([H])([H])C([H])([H])[N+]([H])([H])C([H])([H])C3([H])[H])C([H])([H])N(C(=O)N3C([H])([H])C([H])([H])C([H])([H])C([H])(n4nc(-c5c([H])c([H])c(Oc6c([H])c([H])c(F)c([H])c6F)c([H])c5[H])c(C(=O)N([H])[H])c4N([H])[H])C3([H])[H])C([H])([H])C([H])([H])[N+]([H])([H])[H])c([H])c([H])c2C1([H])[H]

$$$$
32:0:0
     RDKit          3D

100108  0  0  1  0  0  0  0  0999 V2000
  -30.0080  -22.3040   19.9990 C   0  0  0  0  0  0  0  0  0  0  0  0
  -29.8840  -20.9830   19.7120 N   0  0  0  0  0  2  0  0  0  0  0  0
  -31.1750  -22.8190   20.5120 N   0  0  0  0  0  4  0  0  0  0  0  0
  -31.3420  -23.7870   20.7530 H   0  0  0  0  0  0  0  0  0  0  0  0
  -32.0410  -22.3010   20.5880 H   0  0  0  0  0  0  0  0  0  0  0  0
  -28.7860  -23.4870   20.0410 C   0  0  0  0  0  3  0  0  0  0  0  0
  -28.3870  -23.5280   21.4580 N   0  0  0  0  0  4  0  0  0  0  0  0
  -27.5360  -24.0480   21.5800 H   0  0  0  0  0  0  0  0  0  0  0  0
  -29.1100  -23.9500   22.0140 H   0  0  0  0  0  0  0  0  0  0  0  0
  -28.2510  -22.5900   21.7910 H   0  0  0  0  0  0  0  0  0  0  0  0
  -28.8020  -25.0940   19.4730 C   0  0  0  0  0  2  0  0  0  0  0  0
  -28.5400  -26.4600   20.2080 O   0  0  0  0  0  0  0  0  0  0  0  0
  -24.7360  -31.8810   23.3900 C   0  0  0  0  0  0  0  0  0  0  0  0
  -27.4330  -27.3870   20.1220 C   0  0  0  0  0  0  0  0  0  0  0  0
  -23.5690  -30.5470   21.6730 C   0  0  0  0  0  3  0  0  0  0  0  0
  -25.0560  -29.0770   20.1670 C   0  0  0  0  0  0  0  0  0  0  0  0
  -26.1140  -30.8770   21.5300 C   0  0  0  0  0  2  0  0  0  0  0  0
  -26.2190  -29.5210   20.8060 C   0  0  0  0  0  0  0  0  0  0  0  0
  -27.4010  -28.6900   20.7680 C   0  0  0  0  0  3  0  0  0  0  0  0
  -26.2430  -27.0430   19.4440 C   0  0  0  0  0  3  0  0  0  0  0  0
  -25.0820  -27.8540   19.4700 C   0  0  0  0  0  3  0  0  0  0  0  0
  -23.8060  -29.9420   20.2610 C   0  0  0  0  0  2  0  0  0  0  0  0
  -24.8260  -31.1220   22.2540 N   0  0  0  0  0  0  0  0  0  0  0  0
  -23.6440  -32.1120   23.9320 O   0  0  0  0  0  0  0  0  0  0  0  0
  -22.9110  -29.4790   22.5820 C   0  0  0  0  0  0  0  0  0  0  0  0
  -21.6000  -29.2390   22.3970 N   0  0  0  0  0  0  0  0  0  0  0  0
  -23.5830  -28.8700   23.4180 O   0  0  0  0  0  0  0  0  0  0  0  0
  -21.1120  -29.7850   21.7010 H   0  0  0  0  0  0  0  0  0  0  0  0
  -18.2930  -27.7880   22.6780 C   0  0  0  0  0  0  0  0  0  0  0  0
  -20.8040  -28.2350   23.1070 C   0  0  0  0  0  3  0  0  0  0  0  0
  -21.0460  -26.8210   22.5290 C   0  0  0  0  0  2  0  0  0  0  0  0
  -20.0360  -26.4310   21.4450 C   0  0  0  0  0  2  0  0  0  0  0  0
  -18.6110  -26.4650   22.0020 C   0  0  0  0  0  2  0  0  0  0  0  0
  -19.3230  -28.6270   23.1830 C   0  0  0  0  0  0  0  0  0  0  0  0
  -18.9730  -29.8600   23.7730 C   0  0  0  0  0  3  0  0  0  0  0  0
  -17.6250  -30.2580   23.8640 C   0  0  0  0  0  3  0  0  0  0  0  0
  -16.6100  -29.4190   23.3750 C   0  0  0  0  0  3  0  0  0  0  0  0
  -16.9430  -28.1860   22.7870 C   0  0  0  0  0  3  0  0  0  0  0  0
  -25.9990  -32.5100   24.0550 C   0  0  0  0  0  3  0  0  0  0  0  0
  -25.7070  -33.9270   24.3230 N   0  0  0  0  0  0  0  0  0  0  0  0
  -26.1300  -34.9520   23.5680 C   0  0  0  0  0  0  0  0  0  0  0  0
  -26.8690  -34.8000   22.5930 O   0  0  0  0  0  0  0  0  0  0  0  0
  -25.0610  -34.1210   25.0730 H   0  0  0  0  0  0  0  0  0  0  0  0
  -24.4980  -36.7950   23.0430 C   0  0  0  0  0  1  0  0  0  0  0  0
  -25.6580  -36.3670   23.9570 C   0  0  0  0  0  3  0  0  0  0  0  0
  -27.7380  -37.2160   24.9480 C   0  0  0  0  0  1  0  0  0  0  0  0
  -26.7320  -37.3830   23.9020 N   0  0  0  0  0  0  0  0  0  0  0  0
  -26.3460  -38.3200   23.9800 H   0  0  0  0  0  0  0  0  0  0  0  0
  -26.4290  -31.7790   25.3860 C   0  0  1  0  0  0  0  0  0  0  0  0
  -25.2730  -31.5930   26.3960 C   0  0  0  0  0  1  0  0  0  0  0  0
  -27.0150  -30.3810   25.0810 C   0  0  0  0  0  1  0  0  0  0  0  0
  -27.5520  -32.5820   26.0860 C   0  0  0  0  0  1  0  0  0  0  0  0
  -30.8440  -19.7590   20.1200 C   0  0  0  0  0  3  0  0  0  0  0  0
  -31.6600  -15.6220   19.7040 C   0  0  0  0  0  0  0  0  0  0  0  0
  -31.5590  -13.1560   19.0580 C   0  0  0  0  0  2  0  0  0  0  0  0
  -30.6070  -12.8730   17.8690 C   0  0  0  0  0  2  0  0  0  0  0  0
  -29.1360  -12.7640   18.3340 C   0  0  0  0  0  2  0  0  0  0  0  0
  -28.7320  -13.7960   19.4230 C   0  0  0  0  0  3  0  0  0  0  0  0
  -29.8210  -13.9810   20.4990 C   0  0  0  0  0  2  0  0  0  0  0  0
  -31.0620  -14.3510   19.7990 N   0  0  0  0  0  0  0  0  0  0  0  0
  -32.8960  -15.6270   19.6900 O   0  0  0  0  0  0  0  0  0  0  0  0
  -32.3710  -17.6330   17.0690 C   0  0  0  0  0  2  0  0  0  0  0  0
  -30.9850  -17.0500   16.7440 C   0  0  0  0  0  2  0  0  0  0  0  0
  -32.2870  -18.6670   18.2060 C   0  0  0  0  0  2  0  0  0  0  0  0
  -30.2240  -16.5110   17.9950 C   0  0  0  0  0  2  0  0  0  0  0  0
  -31.0720  -18.4150   19.1230 C   0  0  0  0  0  3  0  0  0  0  0  0
  -30.8890  -16.8010   19.3080 N   0  0  0  0  0  0  0  0  0  0  0  0
  -26.4240  -14.4790   20.2730 C   0  0  0  0  0  0  0  0  0  0  0  0
  -25.3340  -13.7480   20.6520 C   0  0  0  0  0  0  0  0  0  0  0  0
  -25.7310  -12.3770   20.5710 C   0  0  0  0  0  0  0  0  0  0  0  0
  -27.4120  -13.5520   19.9780 N   0  0  0  0  0  0  0  0  0  0  0  0
  -27.0080  -12.2830   20.2240 N   0  0  0  0  0  0  0  0  0  0  0  0
  -24.9520  -11.1470   20.7430 C   0  0  0  0  0  0  0  0  0  0  0  0
  -25.2840  -10.2000   21.7360 C   0  0  0  0  0  3  0  0  0  0  0  0
  -24.5080   -9.0330   21.8970 C   0  0  0  0  0  3  0  0  0  0  0  0
  -23.3870   -8.8060   21.0630 C   0  0  0  0  0  0  0  0  0  0  0  0
  -23.0770   -9.7410   20.0600 C   0  0  0  0  0  3  0  0  0  0  0  0
  -23.8540  -10.9000   19.8970 C   0  0  0  0  0  3  0  0  0  0  0  0
  -22.5890   -7.6900   21.1320 O   0  0  0  0  0  0  0  0  0  0  0  0
  -22.2730   -7.1080   22.3330 C   0  0  0  0  0  0  0  0  0  0  0  0
  -21.5550   -7.8000   23.3320 C   0  0  0  0  0  3  0  0  0  0  0  0
  -21.1880   -7.1400   24.5220 C   0  0  0  0  0  3  0  0  0  0  0  0
  -21.5310   -5.7880   24.7110 C   0  0  0  0  0  0  0  0  0  0  0  0
  -22.2420   -5.0950   23.7160 C   0  0  0  0  0  3  0  0  0  0  0  0
  -22.6090   -5.7530   22.5280 C   0  0  0  0  0  0  0  0  0  0  0  0
  -23.2760   -5.0750   21.5630 F   0  0  0  0  0  0  0  0  0  0  0  0
  -21.1730   -5.1510   25.8510 F   0  0  0  0  0  0  0  0  0  0  0  0
  -23.9700  -14.2850   20.9690 C   0  0  0  0  0  0  0  0  0  0  0  0
  -23.2580  -13.6400   21.8860 N   0  0  0  0  0  0  0  0  0  0  0  0
  -23.5490  -15.3110   20.4380 O   0  0  0  0  0  0  0  0  0  0  0  0
  -23.6140  -12.8110   22.3360 H   0  0  0  0  0  0  0  0  0  0  0  0
  -22.3420  -13.9840   22.1410 H   0  0  0  0  0  0  0  0  0  0  0  0
  -26.6490  -15.8450   20.1200 N   0  0  0  0  0  0  0  0  0  0  0  0
  -25.8770  -16.5010   20.1820 H   0  0  0  0  0  0  0  0  0  0  0  0
  -27.4400  -16.2070   19.6080 H   0  0  0  0  0  0  0  0  0  0  0  0
  -30.3950  -19.2950   21.5170 C   0  0  0  0  0  2  0  0  0  0  0  0
  -29.0980  -18.6070   21.4460 N   0  0  0  0  0  4  0  0  0  0  0  0
  -28.4850  -19.1770   20.8870 H   0  0  0  0  0  0  0  0  0  0  0  0
  -28.7050  -18.4890   22.3630 H   0  0  0  0  0  0  0  0  0  0  0  0
  -29.1870  -17.7100   21.0070 H   0  0  0  0  0  0  0  0  0  0  0  0
  1  6  1  0
  1  3  2  0
  2  1  1  0
  2 53  1  0
  3  5  1  0
  3  4  1  0
  6 11  1  0
  6  7  1  0
  7  8  1  0
  7 10  1  0
  7  9  1  0
 11 12  1  0
 13 24  2  0
 14 12  1  0
 14 19  1  0
 15 23  1  0
 15 25  1  0
 16 22  1  0
 16 18  1  0
 17 23  1  0
 18 17  1  0
 19 18  2  0
 20 21  1  0
 20 14  2  0
 21 16  2  0
 22 15  1  0
 23 13  1  0
 25 27  2  0
 26 25  1  0
 28 26  1  0
 29 38  2  0
 29 34  1  0
 30 26  1  0
 30 34  1  0
 31 30  1  0
 32 33  1  0
 32 31  1  0
 33 29  1  0
 34 35  2  0
 35 36  1  0
 37 36  2  0
 38 37  1  0
 39 13  1  0
 39 40  1  0
 39 49  1  0
 40 43  1  0
 41 45  1  0
 41 40  1  0
 42 41  2  0
 45 44  1  0
 47 45  1  0
 47 48  1  0
 47 46  1  0
 49 52  1  1
 49 50  1  0
 51 49  1  0
 53 96  1  0
 54 60  1  0
 55 60  1  0
 56 57  1  0
 56 55  1  0
 58 57  1  0
 58 71  1  0
 58 59  1  0
 60 59  1  0
 61 54  2  0
 62 64  1  0
 63 62  1  0
 63 65  1  0
 64 66  1  0
 65 67  1  0
 66 67  1  0
 66 53  1  0
 67 54  1  0
 68 69  2  0
 69 88  1  0
 70 69  1  0
 70 73  1  0
 71 72  1  0
 71 68  1  0
 72 70  2  0
 73 74  1  0
 74 75  2  0
 76 79  1  0
 76 75  1  0
 77 76  2  0
 78 77  1  0
 78 73  2  0
 79 80  1  0
 80 85  2  0
 80 81  1  0
 81 82  2  0
 82 83  1  0
 83 87  1  0
 84 83  2  0
 85 84  1  0
 86 85  1  0
 88 89  1  0
 89 92  1  0
 89 91  1  0
 90 88  2  0
 93 94  1  0
 93 68  1  0
 95 93  1  0
 97 96  1  0
 97 99  1  0
 98 97  1  0
100 97  1  0
M  ISO  4  11 101  12 101  54 100  67 100
M  END
>  <TORSDO>  (32) 
F 22

>  <SCORE>  (32) 
-11.365

>  <name>  (32) 
32

>  <ligand_id>  (32) 
32

>  <original_smiles>  (32) 
[H]c1c([H])c([H])c2c(c1[H])C([H])([H])C([H])([H])C([H])([H])C2([H])N([H])C(=O)C1([H])N(C(=O)C([H])(N([H])C(=O)C([H])(N([H])C([H])([H])[H])C([H])([H])[H])C(C([H])([H])[H])(C([H])([H])[H])C([H])([H])[H])C([H])([H])c2c([H])c(OC([H])([H])C([H])(C(=NC([H])(C3([H])N(C(=O)N4C([H])([H])C([H])([H])C([H])([H])C([H])(n5nc(-c6c([H])c([H])c(Oc7c([H])c([H])c(F)c([H])c7F)c([H])c6[H])c(C(=O)N([H])[H])c5N([H])[H])C4([H])[H])C([H])([H])C([H])([H])C([H])([H])C3([H])[H])C([H])([H])[N+]([H])([H])[H])N([H])[H])[N+]([H])([H])[H])c([H])c([H])c2C1([H])[H]

>  <smiles>  (32) 
[H]c1c([H])c([H])c2c(c1[H])C([H])([H])C([H])([H])C([H])([H])C2([H])N([H])C(=O)C1([H])N(C(=O)C([H])(N([H])C(=O)C([H])(N([H])C([H])([H])[H])C([H])([H])[H])C(C([H])([H])[H])(C([H])([H])[H])C([H])([H])[H])C([H])([H])c2c([H])c(OC([H])([H])C([H])(C(=NC([H])(C3([H])N(C(=O)N4C([H])([H])C([H])([H])C([H])([H])C([H])(n5nc(-c6c([H])c([H])c(Oc7c([H])c([H])c(F)c([H])c7F)c([H])c6[H])c(C(=O)N([H])[H])c5N([H])[H])C4([H])[H])C([H])([H])C([H])([H])C([H])([H])C3([H])[H])C([H])([H])[N+]([H])([H])[H])N([H])[H])[N+]([H])([H])[H])c([H])c([H])c2C1([H])[H]

$$$$
33:0:0
     RDKit          3D

104111  0  0  1  0  0  0  0  0999 V2000
  -30.7790  -18.5210   20.0710 C   0  0  0  0  0  3  0  0  0  0  0  0
  -29.6930  -19.5500   20.2290 N   0  0  0  0  0  4  0  0  0  0  0  0
  -28.8040  -19.1510   19.9710 H   0  0  0  0  0  0  0  0  0  0  0  0
  -29.6410  -19.7860   21.2060 H   0  0  0  0  0  0  0  0  0  0  0  0
  -29.8640  -20.8420   19.4940 C   0  0  0  0  0  2  0  0  0  0  0  0
  -29.3970  -22.1070   20.2840 C   0  0  0  0  0  2  0  0  0  0  0  0
  -29.0870  -23.2230   19.3760 N   0  0  0  0  0  0  0  0  0  0  0  0
  -28.1660  -23.0630   18.9720 H   0  0  0  0  0  0  0  0  0  0  0  0
  -29.0970  -24.5590   19.9980 C   0  0  0  0  0  2  0  0  0  0  0  0
  -28.3350  -25.5610   19.0880 C   0  0  0  0  0  2  0  0  0  0  0  0
  -28.3360  -26.9300   19.5500 O   0  0  0  0  0  0  0  0  0  0  0  0
  -24.6090  -31.8320   23.1400 C   0  0  0  0  0  0  0  0  0  0  0  0
  -27.1440  -27.6440   19.6060 C   0  0  0  0  0  0  0  0  0  0  0  0
  -23.3350  -30.5210   21.4770 C   0  0  0  0  0  3  0  0  0  0  0  0
  -24.7270  -29.1240   19.8610 C   0  0  0  0  0  0  0  0  0  0  0  0
  -25.8410  -30.9360   21.1660 C   0  0  0  0  0  2  0  0  0  0  0  0
  -25.9110  -29.6150   20.4240 C   0  0  0  0  0  0  0  0  0  0  0  0
  -27.1160  -28.8810   20.3000 C   0  0  0  0  0  3  0  0  0  0  0  0
  -25.9370  -27.1930   19.0150 C   0  0  0  0  0  3  0  0  0  0  0  0
  -24.7380  -27.9120   19.1540 C   0  0  0  0  0  3  0  0  0  0  0  0
  -23.4740  -29.9510   20.0420 C   0  0  0  0  0  2  0  0  0  0  0  0
  -24.6170  -31.1080   21.9840 N   0  0  0  0  0  0  0  0  0  0  0  0
  -23.5550  -32.0450   23.7570 O   0  0  0  0  0  0  0  0  0  0  0  0
  -22.7600  -29.4220   22.3980 C   0  0  0  0  0  0  0  0  0  0  0  0
  -21.4480  -29.1580   22.2680 N   0  0  0  0  0  0  0  0  0  0  0  0
  -23.4860  -28.8140   23.1870 O   0  0  0  0  0  0  0  0  0  0  0  0
  -20.9220  -29.7080   21.6030 H   0  0  0  0  0  0  0  0  0  0  0  0
  -18.1810  -27.6650   22.6650 C   0  0  0  0  0  0  0  0  0  0  0  0
  -20.6980  -28.1410   23.0050 C   0  0  0  0  0  3  0  0  0  0  0  0
  -20.9400  -26.7350   22.4100 C   0  0  0  0  0  2  0  0  0  0  0  0
  -19.8950  -26.3330   21.3650 C   0  0  0  0  0  2  0  0  0  0  0  0
  -18.4890  -26.3480   21.9760 C   0  0  0  0  0  2  0  0  0  0  0  0
  -19.2180  -28.5140   23.1340 C   0  0  0  0  0  0  0  0  0  0  0  0
  -18.8770  -29.7420   23.7390 C   0  0  0  0  0  3  0  0  0  0  0  0
  -17.5300  -30.1290   23.8770 C   0  0  0  0  0  3  0  0  0  0  0  0
  -16.5070  -29.2780   23.4250 C   0  0  0  0  0  3  0  0  0  0  0  0
  -16.8330  -28.0470   22.8250 C   0  0  0  0  0  3  0  0  0  0  0  0
  -25.9170  -32.4450   23.7260 C   0  0  0  0  0  3  0  0  0  0  0  0
  -25.6120  -33.8210   24.1390 N   0  0  0  0  0  0  0  0  0  0  0  0
  -25.9250  -34.9140   23.4300 C   0  0  0  0  0  0  0  0  0  0  0  0
  -26.5700  -34.8690   22.3800 O   0  0  0  0  0  0  0  0  0  0  0  0
  -25.0300  -33.9300   24.9560 H   0  0  0  0  0  0  0  0  0  0  0  0
  -24.1880  -36.7220   23.2040 C   0  0  0  0  0  1  0  0  0  0  0  0
  -25.4410  -36.2720   23.9740 C   0  0  0  0  0  3  0  0  0  0  0  0
  -27.5880  -37.1080   24.8190 C   0  0  0  0  0  1  0  0  0  0  0  0
  -26.4700  -37.3320   23.9070 N   0  0  0  0  0  0  0  0  0  0  0  0
  -26.0660  -38.2430   24.1170 H   0  0  0  0  0  0  0  0  0  0  0  0
  -26.5060  -31.6150   24.9330 C   0  0  1  0  0  0  0  0  0  0  0  0
  -25.4680  -31.2870   26.0310 C   0  0  0  0  0  1  0  0  0  0  0  0
  -27.1000  -30.2760   24.4360 C   0  0  0  0  0  1  0  0  0  0  0  0
  -27.6700  -32.3970   25.5880 C   0  0  0  0  0  1  0  0  0  0  0  0
  -30.8640  -17.4480   21.2450 C   0  0  0  0  0  3  0  0  0  0  0  0
  -31.0910  -15.0300   20.4480 C   0  0  0  0  0  0  0  0  0  0  0  0
  -30.8500  -12.8110   19.3830 C   0  0  0  0  0  2  0  0  0  0  0  0
  -29.9320  -12.9150   18.1480 C   0  0  0  0  0  2  0  0  0  0  0  0
  -28.4520  -12.7660   18.5500 C   0  0  0  0  0  2  0  0  0  0  0  0
  -28.0650  -13.6640   19.7540 C   0  0  0  0  0  3  0  0  0  0  0  0
  -29.0970  -13.5380   20.8970 C   0  0  0  0  0  2  0  0  0  0  0  0
  -30.4250  -13.8460   20.3400 N   0  0  0  0  0  0  0  0  0  0  0  0
  -32.2340  -15.1920   20.0180 O   0  0  0  0  0  0  0  0  0  0  0  0
  -30.3830  -16.0710   20.9410 N   0  0  0  0  0  0  0  0  0  0  0  0
  -29.4290  -15.8600   21.1890 H   0  0  0  0  0  0  0  0  0  0  0  0
  -25.6680  -14.2670   20.4680 C   0  0  0  0  0  0  0  0  0  0  0  0
  -24.5880  -13.4930   20.7970 C   0  0  0  0  0  0  0  0  0  0  0  0
  -25.0350  -12.1380   20.7150 C   0  0  0  0  0  0  0  0  0  0  0  0
  -26.7040  -13.3850   20.2110 N   0  0  0  0  0  0  0  0  0  0  0  0
  -26.3280  -12.0970   20.4170 N   0  0  0  0  0  0  0  0  0  0  0  0
  -24.2940  -10.8770   20.8460 C   0  0  0  0  0  0  0  0  0  0  0  0
  -24.6750   -9.8890   21.7790 C   0  0  0  0  0  3  0  0  0  0  0  0
  -23.9330   -8.6940   21.8980 C   0  0  0  0  0  3  0  0  0  0  0  0
  -22.7960   -8.4790   21.0830 C   0  0  0  0  0  0  0  0  0  0  0  0
  -22.4350   -9.4560   20.1380 C   0  0  0  0  0  3  0  0  0  0  0  0
  -23.1780  -10.6430   20.0170 C   0  0  0  0  0  3  0  0  0  0  0  0
  -22.0300   -7.3390   21.1130 O   0  0  0  0  0  0  0  0  0  0  0  0
  -21.8590   -6.6170   22.2670 C   0  0  0  0  0  0  0  0  0  0  0  0
  -21.3170   -7.1960   23.4350 C   0  0  0  0  0  3  0  0  0  0  0  0
  -21.0930   -6.4010   24.5760 C   0  0  0  0  0  3  0  0  0  0  0  0
  -21.4000   -5.0280   24.5500 C   0  0  0  0  0  0  0  0  0  0  0  0
  -21.9350   -4.4480   23.3860 C   0  0  0  0  0  3  0  0  0  0  0  0
  -22.1600   -5.2400   22.2470 C   0  0  0  0  0  0  0  0  0  0  0  0
  -22.6550   -4.6720   21.1210 F   0  0  0  0  0  0  0  0  0  0  0  0
  -21.1780   -4.2620   25.6440 F   0  0  0  0  0  0  0  0  0  0  0  0
  -23.1950  -13.9750   21.0760 C   0  0  0  0  0  0  0  0  0  0  0  0
  -22.4560  -13.2600   21.9200 N   0  0  0  0  0  0  0  0  0  0  0  0
  -22.7670  -15.0170   20.5820 O   0  0  0  0  0  0  0  0  0  0  0  0
  -22.8140  -12.4150   22.3390 H   0  0  0  0  0  0  0  0  0  0  0  0
  -21.5200  -13.5620   22.1480 H   0  0  0  0  0  0  0  0  0  0  0  0
  -25.8510  -15.6420   20.3460 N   0  0  0  0  0  0  0  0  0  0  0  0
  -25.0880  -16.2970   20.4640 H   0  0  0  0  0  0  0  0  0  0  0  0
  -26.7010  -16.0780   20.0140 H   0  0  0  0  0  0  0  0  0  0  0  0
  -30.3170  -17.9320   22.6150 C   0  0  0  0  0  2  0  0  0  0  0  0
  -31.0450  -17.3450   23.8470 C   0  0  0  0  0  2  0  0  0  0  0  0
  -30.7700  -18.1050   25.0810 N   0  0  0  0  0  4  0  0  0  0  0  0
  -31.1630  -19.0290   25.0310 H   0  0  0  0  0  0  0  0  0  0  0  0
  -31.1850  -17.6430   25.8700 H   0  0  0  0  0  0  0  0  0  0  0  0
  -29.7840  -18.1820   25.2540 H   0  0  0  0  0  0  0  0  0  0  0  0
  -30.9280  -17.9820   18.6140 C   0  0  0  0  0  2  0  0  0  0  0  0
  -32.1970  -18.5300   17.9200 C   0  0  0  0  0  2  0  0  0  0  0  0
  -31.9810  -19.0660   16.4940 C   0  0  0  0  0  2  0  0  0  0  0  0
  -32.1020  -17.9970   15.3970 C   0  0  0  0  0  2  0  0  0  0  0  0
  -32.0550  -18.5890   14.0500 N   0  0  0  0  0  4  0  0  0  0  0  0
  -31.2010  -19.0990   13.9120 H   0  0  0  0  0  0  0  0  0  0  0  0
  -32.1050  -17.8660   13.3540 H   0  0  0  0  0  0  0  0  0  0  0  0
  -32.8300  -19.2120   13.9060 H   0  0  0  0  0  0  0  0  0  0  0  0
  1 97  1  0
  1  2  1  0
  1 52  1  0
  2  4  1  0
  3  2  1  0
  5  2  1  0
  5  6  1  0
  7  9  1  0
  7  6  1  0
  8  7  1  0
 10 11  1  0
 10  9  1  0
 11 13  1  0
 12 23  2  0
 13 18  1  0
 14 22  1  0
 14 24  1  0
 15 21  1  0
 15 17  1  0
 16 22  1  0
 17 16  1  0
 18 17  2  0
 19 20  1  0
 19 13  2  0
 20 15  2  0
 21 14  1  0
 22 12  1  0
 24 26  2  0
 25 24  1  0
 27 25  1  0
 28 37  2  0
 28 33  1  0
 29 25  1  0
 29 33  1  0
 30 29  1  0
 31 32  1  0
 31 30  1  0
 32 28  1  0
 33 34  2  0
 34 35  1  0
 36 35  2  0
 37 36  1  0
 38 12  1  0
 38 39  1  0
 38 48  1  0
 39 42  1  0
 40 44  1  0
 40 39  1  0
 41 40  2  0
 44 43  1  0
 46 44  1  0
 46 47  1  0
 46 45  1  0
 48 51  1  1
 48 49  1  0
 50 48  1  0
 52 91  1  0
 53 61  1  0
 54 59  1  0
 55 56  1  0
 55 54  1  0
 57 56  1  0
 57 66  1  0
 57 58  1  0
 59 53  1  0
 59 58  1  0
 60 53  2  0
 61 62  1  0
 61 52  1  0
 63 64  2  0
 64 83  1  0
 65 64  1  0
 65 68  1  0
 66 67  1  0
 66 63  1  0
 67 65  2  0
 68 69  1  0
 69 70  2  0
 71 74  1  0
 71 70  1  0
 72 71  2  0
 73 72  1  0
 73 68  2  0
 74 75  1  0
 75 76  1  0
 76 77  2  0
 78 77  1  0
 78 82  1  0
 79 78  2  0
 80 75  2  0
 80 79  1  0
 81 80  1  0
 83 84  1  0
 84 87  1  0
 84 86  1  0
 85 83  2  0
 88 89  1  0
 88 63  1  0
 90 88  1  0
 91 92  1  0
 92 93  1  0
 93 96  1  0
 93 95  1  0
 94 93  1  0
 98 97  1  0
 99 98  1  0
100 99  1  0
101100  1  0
102101  1  0
103101  1  0
104101  1  0
M  ISO  4  10 101  11 101  53 100  61 100
M  END
>  <TORSDO>  (33) 
F 31

>  <SCORE>  (33) 
-8.421

>  <name>  (33) 
33

>  <ligand_id>  (33) 
33

>  <original_smiles>  (33) 
[H]c1c([H])c([H])c2c(c1[H])C([H])([H])C([H])([H])C([H])([H])C2([H])N([H])C(=O)C1([H])N(C(=O)C([H])(N([H])C(=O)C([H])(N([H])C([H])([H])[H])C([H])([H])[H])C(C([H])([H])[H])(C([H])([H])[H])C([H])([H])[H])C([H])([H])c2c([H])c(OC([H])([H])C([H])([H])N([H])C([H])([H])C([H])([H])[N+]([H])([H])C([H])(C([H])([H])C([H])([H])C([H])([H])C([H])([H])[N+]([H])([H])[H])C([H])(N([H])C(=O)N3C([H])([H])C([H])([H])C([H])([H])C([H])(n4nc(-c5c([H])c([H])c(Oc6c([H])c([H])c(F)c([H])c6F)c([H])c5[H])c(C(=O)N([H])[H])c4N([H])[H])C3([H])[H])C([H])([H])C([H])([H])[N+]([H])([H])[H])c([H])c([H])c2C1([H])[H]

>  <smiles>  (33) 
[H]c1c([H])c([H])c2c(c1[H])C([H])([H])C([H])([H])C([H])([H])C2([H])N([H])C(=O)C1([H])N(C(=O)C([H])(N([H])C(=O)C([H])(N([H])C([H])([H])[H])C([H])([H])[H])C(C([H])([H])[H])(C([H])([H])[H])C([H])([H])[H])C([H])([H])c2c([H])c(OC([H])([H])C([H])([H])N([H])C([H])([H])C([H])([H])[N+]([H])([H])C([H])(C([H])([H])C([H])([H])C([H])([H])C([H])([H])[N+]([H])([H])[H])C([H])(N([H])C(=O)N3C([H])([H])C([H])([H])C([H])([H])C([H])(n4nc(-c5c([H])c([H])c(Oc6c([H])c([H])c(F)c([H])c6F)c([H])c5[H])c(C(=O)N([H])[H])c4N([H])[H])C3([H])[H])C([H])([H])C([H])([H])[N+]([H])([H])[H])c([H])c([H])c2C1([H])[H]

$$$$
34:0:0
     RDKit          3D

 99108  0  0  1  0  0  0  0  0999 V2000
  -29.4200  -21.6500   21.0220 N   0  0  0  0  0  4  0  0  0  0  0  0
  -30.1030  -22.3210   20.7120 H   0  0  0  0  0  0  0  0  0  0  0  0
  -29.1510  -21.8930   21.9620 H   0  0  0  0  0  0  0  0  0  0  0  0
  -30.7340  -14.4190   19.3220 C   0  0  0  0  0  0  0  0  0  0  0  0
  -30.0930  -12.3720   18.1170 C   0  0  0  0  0  2  0  0  0  0  0  0
  -28.9440  -12.6430   17.1290 C   0  0  0  0  0  2  0  0  0  0  0  0
  -27.5900  -12.4690   17.8380 C   0  0  0  0  0  2  0  0  0  0  0  0
  -27.5060  -13.2700   19.1640 C   0  0  0  0  0  3  0  0  0  0  0  0
  -28.7510  -13.0270   20.0460 C   0  0  0  0  0  2  0  0  0  0  0  0
  -29.9590  -13.3030   19.2470 N   0  0  0  0  0  0  0  0  0  0  0  0
  -31.6080  -14.6840   18.4880 O   0  0  0  0  0  0  0  0  0  0  0  0
  -32.0700  -20.1760   22.7320 C   0  0  0  0  0  3  0  0  0  0  0  0
  -31.9710  -18.6910   23.1710 C   0  0  0  0  0  3  0  0  0  0  0  0
  -31.5950  -20.4970   21.2960 C   0  0  0  0  0  2  0  0  0  0  0  0
  -31.5050  -16.2490   22.5210 C   0  0  0  0  0  2  0  0  0  0  0  0
  -31.7030  -15.3590   21.2760 C   0  0  0  0  0  2  0  0  0  0  0  0
  -29.8650  -16.5050   20.0370 C   0  0  0  0  0  2  0  0  0  0  0  0
  -29.0610  -17.0770   21.2180 C   0  0  0  0  0  2  0  0  0  0  0  0
  -29.3770  -19.3860   22.0660 C   0  0  0  0  0  2  0  0  0  0  0  0
  -31.2830  -17.7360   22.1690 C   0  0  0  0  0  3  0  0  0  0  0  0
  -30.0730  -20.3210   21.0360 C   0  0  0  0  0  3  0  0  0  0  0  0
  -30.5370  -15.2350   20.3750 N   0  0  0  0  0  0  0  0  0  0  0  0
  -29.8340  -17.9900   22.0730 N   0  0  0  0  0  0  0  0  0  0  0  0
  -25.3520  -13.8460   20.4550 C   0  0  0  0  0  0  0  0  0  0  0  0
  -24.3390  -13.0630   20.9390 C   0  0  0  0  0  0  0  0  0  0  0  0
  -24.6950  -11.7170   20.6230 C   0  0  0  0  0  0  0  0  0  0  0  0
  -26.2680  -12.9760   19.8850 N   0  0  0  0  0  0  0  0  0  0  0  0
  -25.8830  -11.6820   20.0360 N   0  0  0  0  0  0  0  0  0  0  0  0
  -23.9480  -10.4640   20.7990 C   0  0  0  0  0  0  0  0  0  0  0  0
  -24.4120   -9.4450   21.6580 C   0  0  0  0  0  3  0  0  0  0  0  0
  -23.6710   -8.2560   21.8240 C   0  0  0  0  0  3  0  0  0  0  0  0
  -22.4500   -8.0770   21.1290 C   0  0  0  0  0  0  0  0  0  0  0  0
  -22.0050   -9.0870   20.2580 C   0  0  0  0  0  3  0  0  0  0  0  0
  -22.7460  -10.2670   20.0910 C   0  0  0  0  0  3  0  0  0  0  0  0
  -21.6730   -6.9470   21.2090 O   0  0  0  0  0  0  0  0  0  0  0  0
  -21.5870   -6.2110   22.3630 C   0  0  0  0  0  0  0  0  0  0  0  0
  -21.1390   -6.7780   23.5770 C   0  0  0  0  0  3  0  0  0  0  0  0
  -20.9940   -5.9680   24.7210 C   0  0  0  0  0  3  0  0  0  0  0  0
  -21.2930   -4.5940   24.6550 C   0  0  0  0  0  0  0  0  0  0  0  0
  -21.7360   -4.0270   23.4480 C   0  0  0  0  0  3  0  0  0  0  0  0
  -21.8810   -4.8350   22.3030 C   0  0  0  0  0  0  0  0  0  0  0  0
  -22.2840   -4.2790   21.1370 F   0  0  0  0  0  0  0  0  0  0  0  0
  -21.1500   -3.8140   25.7530 F   0  0  0  0  0  0  0  0  0  0  0  0
  -23.0660  -13.5360   21.5830 C   0  0  0  0  0  0  0  0  0  0  0  0
  -22.5340  -12.7680   22.5260 N   0  0  0  0  0  0  0  0  0  0  0  0
  -22.5650  -14.6190   21.2830 O   0  0  0  0  0  0  0  0  0  0  0  0
  -22.9570  -11.8870   22.7850 H   0  0  0  0  0  0  0  0  0  0  0  0
  -21.6910  -13.0610   22.9980 H   0  0  0  0  0  0  0  0  0  0  0  0
  -25.5670  -15.2230   20.4300 N   0  0  0  0  0  0  0  0  0  0  0  0
  -24.8780  -15.8900   20.7620 H   0  0  0  0  0  0  0  0  0  0  0  0
  -26.3680  -15.6660   20.0000 H   0  0  0  0  0  0  0  0  0  0  0  0
  -28.2430  -21.7920   20.1370 C   0  0  0  0  0  2  0  0  0  0  0  0
  -27.6060  -23.1950   20.2910 C   0  0  0  0  0  3  0  0  0  0  0  0
  -26.1580  -23.0890   20.1730 N   0  0  0  0  0  0  0  0  0  0  0  0
  -25.9010  -22.7000   19.2720 H   0  0  0  0  0  0  0  0  0  0  0  0
  -25.7420  -24.0170   20.1760 H   0  0  0  0  0  0  0  0  0  0  0  0
  -28.1540  -24.2690   19.3140 C   0  0  0  0  0  2  0  0  0  0  0  0
  -28.6130  -25.5520   20.0480 C   0  0  0  0  0  2  0  0  0  0  0  0
  -28.5360  -26.7470   19.2640 O   0  0  0  0  0  0  0  0  0  0  0  0
  -24.7000  -31.3650   23.0970 C   0  0  0  0  0  0  0  0  0  0  0  0
  -27.3540  -27.4340   19.4050 C   0  0  0  0  0  0  0  0  0  0  0  0
  -23.4800  -30.1490   21.3250 C   0  0  0  0  0  3  0  0  0  0  0  0
  -24.9260  -28.8470   19.6810 C   0  0  0  0  0  0  0  0  0  0  0  0
  -25.9900  -30.6000   21.1110 C   0  0  0  0  0  2  0  0  0  0  0  0
  -26.0890  -29.3270   20.2960 C   0  0  0  0  0  0  0  0  0  0  0  0
  -27.3090  -28.6280   20.1550 C   0  0  0  0  0  3  0  0  0  0  0  0
  -26.1700  -26.9590   18.7990 C   0  0  0  0  0  3  0  0  0  0  0  0
  -24.9600  -27.6590   18.9340 C   0  0  0  0  0  3  0  0  0  0  0  0
  -23.6640  -29.6560   19.8650 C   0  0  0  0  0  2  0  0  0  0  0  0
  -24.7430  -30.7110   21.9020 N   0  0  0  0  0  0  0  0  0  0  0  0
  -23.6280  -31.5390   23.6950 O   0  0  0  0  0  0  0  0  0  0  0  0
  -22.8840  -28.9940   22.1620 C   0  0  0  0  0  0  0  0  0  0  0  0
  -21.5690  -28.7620   22.0080 N   0  0  0  0  0  0  0  0  0  0  0  0
  -23.5980  -28.3160   22.9050 O   0  0  0  0  0  0  0  0  0  0  0  0
  -21.0520  -29.3660   21.3850 H   0  0  0  0  0  0  0  0  0  0  0  0
  -18.2630  -27.3440   22.3260 C   0  0  0  0  0  0  0  0  0  0  0  0
  -20.7990  -27.7070   22.6650 C   0  0  0  0  0  3  0  0  0  0  0  0
  -20.9860  -26.3480   21.9490 C   0  0  0  0  0  2  0  0  0  0  0  0
  -19.9160  -26.0750   20.8880 C   0  0  0  0  0  2  0  0  0  0  0  0
  -18.5200  -26.0810   21.5190 C   0  0  0  0  0  2  0  0  0  0  0  0
  -19.3330  -28.1160   22.8490 C   0  0  0  0  0  0  0  0  0  0  0  0
  -19.0390  -29.3010   23.5590 C   0  0  0  0  0  3  0  0  0  0  0  0
  -17.7070  -29.7130   23.7530 C   0  0  0  0  0  3  0  0  0  0  0  0
  -16.6510  -28.9340   23.2480 C   0  0  0  0  0  3  0  0  0  0  0  0
  -16.9280  -27.7520   22.5400 C   0  0  0  0  0  3  0  0  0  0  0  0
  -25.9880  -31.9460   23.7580 C   0  0  0  0  0  3  0  0  0  0  0  0
  -25.6710  -33.3010   24.2300 N   0  0  0  0  0  0  0  0  0  0  0  0
  -25.9760  -34.4270   23.5730 C   0  0  0  0  0  0  0  0  0  0  0  0
  -26.6300  -34.4350   22.5260 O   0  0  0  0  0  0  0  0  0  0  0  0
  -25.0930  -33.3690   25.0550 H   0  0  0  0  0  0  0  0  0  0  0  0
  -24.2240  -36.2210   23.4150 C   0  0  0  0  0  1  0  0  0  0  0  0
  -25.4770  -35.7550   24.1710 C   0  0  0  0  0  3  0  0  0  0  0  0
  -27.6080  -36.5790   25.0710 C   0  0  0  0  0  1  0  0  0  0  0  0
  -26.4960  -36.8270   24.1560 N   0  0  0  0  0  0  0  0  0  0  0  0
  -26.0810  -37.7220   24.4000 H   0  0  0  0  0  0  0  0  0  0  0  0
  -26.5380  -31.0570   24.9410 C   0  0  1  0  0  0  0  0  0  0  0  0
  -25.4560  -30.6580   25.9700 C   0  0  0  0  0  1  0  0  0  0  0  0
  -27.1740  -29.7560   24.3970 C   0  0  0  0  0  1  0  0  0  0  0  0
  -27.6580  -31.8170   25.6910 C   0  0  0  0  0  1  0  0  0  0  0  0
  1  3  1  0
  2  1  1  0
  4 22  1  0
  5 10  1  0
  6  7  1  0
  6  5  1  0
  8  7  1  0
  8 27  1  0
  8  9  1  0
 10  4  1  0
 10  9  1  0
 11  4  2  0
 12 13  2  0
 14 12  1  0
 16 15  1  0
 17 22  1  0
 17 18  1  0
 19 23  1  0
 20 15  1  0
 20 13  1  0
 21  1  1  0
 21 14  1  0
 21 19  1  0
 22 16  1  0
 23 18  1  0
 23 20  1  0
 24 25  2  0
 25 44  1  0
 26 29  1  0
 26 25  1  0
 27 28  1  0
 27 24  1  0
 28 26  2  0
 29 30  1  0
 30 31  2  0
 32 35  1  0
 32 31  1  0
 33 32  2  0
 34 33  1  0
 34 29  2  0
 35 36  1  0
 36 37  1  0
 37 38  2  0
 39 38  1  0
 39 43  1  0
 40 39  2  0
 41 36  2  0
 41 40  1  0
 42 41  1  0
 44 45  1  0
 45 47  1  0
 45 48  1  0
 46 44  2  0
 49 24  1  0
 49 50  1  0
 51 49  1  0
 52 53  1  0
 52  1  1  0
 53 57  1  0
 54 56  1  0
 54 53  1  0
 55 54  1  0
 57 58  1  0
 59 61  1  0
 59 58  1  0
 60 71  2  0
 61 66  1  0
 62 70  1  0
 62 72  1  0
 63 69  1  0
 63 65  1  0
 64 70  1  0
 65 64  1  0
 66 65  2  0
 67 68  1  0
 67 61  2  0
 68 63  2  0
 69 62  1  0
 70 60  1  0
 72 74  2  0
 73 72  1  0
 75 73  1  0
 76 85  2  0
 76 81  1  0
 77 73  1  0
 77 81  1  0
 78 77  1  0
 79 80  1  0
 79 78  1  0
 80 76  1  0
 81 82  2  0
 82 83  1  0
 84 83  2  0
 85 84  1  0
 86 60  1  0
 86 87  1  0
 86 96  1  0
 87 90  1  0
 88 92  1  0
 88 87  1  0
 89 88  2  0
 92 91  1  0
 94 92  1  0
 94 95  1  0
 94 93  1  0
 96 99  1  1
 96 97  1  0
 98 96  1  0
M  ISO  4   4 100  22 100  58 101  59 101
M  END
>  <TORSDO>  (34) 
F 21

>  <SCORE>  (34) 
-7.637

>  <name>  (34) 
34

>  <ligand_id>  (34) 
34

>  <original_smiles>  (34) 
[H]c1c([H])c([H])c2c(c1[H])C([H])([H])C([H])([H])C([H])([H])C2([H])N([H])C(=O)C1([H])N(C(=O)C([H])(N([H])C(=O)C([H])(N([H])C([H])([H])[H])C([H])([H])[H])C(C([H])([H])[H])(C([H])([H])[H])C([H])([H])[H])C([H])([H])c2c([H])c(OC([H])([H])C([H])([H])C([H])(N([H])[H])C([H])([H])[N+]([H])([H])C3([H])C([H])([H])N4C([H])([H])C([H])([H])N(C(=O)N5C([H])([H])C([H])([H])C([H])([H])C([H])(n6nc(-c7c([H])c([H])c(Oc8c([H])c([H])c(F)c([H])c8F)c([H])c7[H])c(C(=O)N([H])[H])c6N([H])[H])C5([H])[H])C([H])([H])C([H])([H])C4([H])C([H])([H])C([H])([H])C3([H])[H])c([H])c([H])c2C1([H])[H]

>  <smiles>  (34) 
[H]c1c([H])c([H])c2c(c1[H])C([H])([H])C([H])([H])C([H])([H])C2([H])N([H])C(=O)C1([H])N(C(=O)C([H])(N([H])C(=O)C([H])(N([H])C([H])([H])[H])C([H])([H])[H])C(C([H])([H])[H])(C([H])([H])[H])C([H])([H])[H])C([H])([H])c2c([H])c(OC([H])([H])C([H])([H])C([H])(N([H])[H])C([H])([H])[N+]([H])([H])C3([H])C([H])([H])N4C([H])([H])C([H])([H])N(C(=O)N5C([H])([H])C([H])([H])C([H])([H])C([H])(n6nc(-c7c([H])c([H])c(Oc8c([H])c([H])c(F)c([H])c8F)c([H])c7[H])c(C(=O)N([H])[H])c6N([H])[H])C5([H])[H])C([H])([H])C([H])([H])C4([H])C([H])([H])C([H])([H])C3([H])[H])c([H])c([H])c2C1([H])[H]

$$$$
35:0:0
     RDKit          3D

 94102  0  0  1  0  0  0  0  0999 V2000
  -30.8690  -22.0540   20.1860 C   0  0  0  0  0  2  0  0  0  0  0  0
  -28.6420  -21.7240   20.9600 C   0  0  0  0  0  2  0  0  0  0  0  0
  -31.0210  -20.5090   19.9190 C   0  0  0  0  0  2  0  0  0  0  0  0
  -28.8010  -20.1740   20.6890 C   0  0  0  0  0  2  0  0  0  0  0  0
  -29.4830  -22.5920   20.0960 N   0  0  0  0  0  0  0  0  0  0  0  0
  -30.2000  -19.7190   20.8570 N   0  0  0  0  0  0  0  0  0  0  0  0
  -29.4580  -24.0720   20.4460 C   0  0  0  0  0  3  0  0  0  0  0  0
  -28.1960  -24.9810   20.1260 C   0  0  0  0  0  3  0  0  0  0  0  0
  -28.3580  -26.4410   20.3120 O   0  0  0  0  0  0  0  0  0  0  0  0
  -24.6010  -31.8580   23.2240 C   0  0  0  0  0  0  0  0  0  0  0  0
  -27.2220  -27.2640   20.2480 C   0  0  0  0  0  0  0  0  0  0  0  0
  -23.4040  -30.4470   21.5900 C   0  0  0  0  0  3  0  0  0  0  0  0
  -24.8570  -28.8750   20.1940 C   0  0  0  0  0  0  0  0  0  0  0  0
  -25.9420  -30.7570   21.4170 C   0  0  0  0  0  2  0  0  0  0  0  0
  -26.0210  -29.3680   20.7980 C   0  0  0  0  0  0  0  0  0  0  0  0
  -27.2050  -28.5720   20.8200 C   0  0  0  0  0  3  0  0  0  0  0  0
  -26.0360  -26.8190   19.6190 C   0  0  0  0  0  3  0  0  0  0  0  0
  -24.8680  -27.6040   19.5940 C   0  0  0  0  0  3  0  0  0  0  0  0
  -23.6310  -29.7640   20.2150 C   0  0  0  0  0  2  0  0  0  0  0  0
  -24.6690  -31.0370   22.1350 N   0  0  0  0  0  0  0  0  0  0  0  0
  -23.5170  -32.1470   23.7470 O   0  0  0  0  0  0  0  0  0  0  0  0
  -22.7330  -29.4410   22.5550 C   0  0  0  0  0  0  0  0  0  0  0  0
  -21.4030  -29.2820   22.4380 N   0  0  0  0  0  0  0  0  0  0  0  0
  -23.4060  -28.8090   23.3750 O   0  0  0  0  0  0  0  0  0  0  0  0
  -20.9190  -29.8480   21.7530 H   0  0  0  0  0  0  0  0  0  0  0  0
  -18.0110  -28.1430   22.9630 C   0  0  0  0  0  0  0  0  0  0  0  0
  -20.5750  -28.3630   23.2200 C   0  0  0  0  0  3  0  0  0  0  0  0
  -20.6520  -26.9270   22.6510 C   0  0  0  0  0  2  0  0  0  0  0  0
  -19.5370  -26.6170   21.6470 C   0  0  0  0  0  2  0  0  0  0  0  0
  -18.1610  -26.7870   22.2950 C   0  0  0  0  0  2  0  0  0  0  0  0
  -19.1450  -28.8880   23.3850 C   0  0  0  0  0  0  0  0  0  0  0  0
  -18.9470  -30.1590   23.9710 C   0  0  0  0  0  3  0  0  0  0  0  0
  -17.6500  -30.6790   24.1420 C   0  0  0  0  0  3  0  0  0  0  0  0
  -16.5330  -29.9310   23.7320 C   0  0  0  0  0  3  0  0  0  0  0  0
  -16.7160  -28.6670   23.1450 C   0  0  0  0  0  3  0  0  0  0  0  0
  -25.8820  -32.4920   23.8480 C   0  0  0  0  0  3  0  0  0  0  0  0
  -25.5670  -33.8870   24.1870 N   0  0  0  0  0  0  0  0  0  0  0  0
  -25.8950  -34.9470   23.4350 C   0  0  0  0  0  0  0  0  0  0  0  0
  -26.5670  -34.8510   22.4040 O   0  0  0  0  0  0  0  0  0  0  0  0
  -24.9700  -34.0340   24.9870 H   0  0  0  0  0  0  0  0  0  0  0  0
  -24.1630  -36.7390   23.0880 C   0  0  0  0  0  1  0  0  0  0  0  0
  -25.4020  -36.3300   23.8990 C   0  0  0  0  0  3  0  0  0  0  0  0
  -27.5340  -37.2180   24.7360 C   0  0  0  0  0  1  0  0  0  0  0  0
  -26.4300  -37.3890   23.7960 N   0  0  0  0  0  0  0  0  0  0  0  0
  -26.0190  -38.3050   23.9490 H   0  0  0  0  0  0  0  0  0  0  0  0
  -26.4040  -31.7100   25.1150 C   0  0  1  0  0  0  0  0  0  0  0  0
  -25.3170  -31.4610   26.1860 C   0  0  0  0  0  1  0  0  0  0  0  0
  -26.9890  -30.3360   24.7070 C   0  0  0  0  0  1  0  0  0  0  0  0
  -27.5510  -32.5050   25.7820 C   0  0  0  0  0  1  0  0  0  0  0  0
  -30.5090  -18.2400   21.0610 C   0  0  0  0  0  3  0  0  0  0  0  0
  -30.0640  -17.1490   19.9880 C   0  0  0  0  0  2  0  0  0  0  0  0
  -30.7370  -14.6090   20.0780 C   0  0  0  0  0  0  0  0  0  0  0  0
  -30.4440  -12.3890   19.0220 C   0  0  0  0  0  2  0  0  0  0  0  0
  -29.4620  -12.5750   17.8440 C   0  0  0  0  0  2  0  0  0  0  0  0
  -27.9970  -12.4470   18.3140 C   0  0  0  0  0  2  0  0  0  0  0  0
  -27.7040  -13.2690   19.5980 C   0  0  0  0  0  3  0  0  0  0  0  0
  -28.8040  -13.0700   20.6680 C   0  0  0  0  0  2  0  0  0  0  0  0
  -30.0950  -13.3960   20.0410 N   0  0  0  0  0  0  0  0  0  0  0  0
  -31.8780  -14.7490   19.6380 O   0  0  0  0  0  0  0  0  0  0  0  0
  -29.9700  -15.6910   20.4050 N   0  0  0  0  0  0  0  0  0  0  0  0
  -29.0740  -15.4250   20.7780 H   0  0  0  0  0  0  0  0  0  0  0  0
  -25.3380  -13.8790   20.3970 C   0  0  0  0  0  0  0  0  0  0  0  0
  -24.2780  -13.1140   20.8020 C   0  0  0  0  0  0  0  0  0  0  0  0
  -24.7250  -11.7590   20.7490 C   0  0  0  0  0  0  0  0  0  0  0  0
  -26.3670  -12.9910   20.1250 N   0  0  0  0  0  0  0  0  0  0  0  0
  -26.0040  -11.7090   20.3950 N   0  0  0  0  0  0  0  0  0  0  0  0
  -23.9890  -10.5020   20.9630 C   0  0  0  0  0  0  0  0  0  0  0  0
  -24.4420   -9.5330   21.8870 C   0  0  0  0  0  3  0  0  0  0  0  0
  -23.7100   -8.3400   22.0880 C   0  0  0  0  0  3  0  0  0  0  0  0
  -22.5140   -8.1110   21.3670 C   0  0  0  0  0  0  0  0  0  0  0  0
  -22.0810   -9.0700   20.4330 C   0  0  0  0  0  3  0  0  0  0  0  0
  -22.8120  -10.2510   20.2310 C   0  0  0  0  0  3  0  0  0  0  0  0
  -21.7520   -6.9720   21.4780 O   0  0  0  0  0  0  0  0  0  0  0  0
  -21.7190   -6.2390   22.6390 C   0  0  0  0  0  0  0  0  0  0  0  0
  -21.3300   -6.8080   23.8700 C   0  0  0  0  0  3  0  0  0  0  0  0
  -21.2430   -6.0020   25.0240 C   0  0  0  0  0  3  0  0  0  0  0  0
  -21.5340   -4.6260   24.9430 C   0  0  0  0  0  0  0  0  0  0  0  0
  -21.9200   -4.0560   23.7170 C   0  0  0  0  0  3  0  0  0  0  0  0
  -22.0090   -4.8600   22.5680 C   0  0  0  0  0  0  0  0  0  0  0  0
  -22.3580   -4.3040   21.3830 F   0  0  0  0  0  0  0  0  0  0  0  0
  -21.4460   -3.8500   26.0470 F   0  0  0  0  0  0  0  0  0  0  0  0
  -22.8930  -13.6070   21.1280 C   0  0  0  0  0  0  0  0  0  0  0  0
  -22.1900  -12.9180   22.0200 N   0  0  0  0  0  0  0  0  0  0  0  0
  -22.4460  -14.6370   20.6270 O   0  0  0  0  0  0  0  0  0  0  0  0
  -22.5600  -12.0860   22.4530 H   0  0  0  0  0  0  0  0  0  0  0  0
  -21.2630  -13.2300   22.2770 H   0  0  0  0  0  0  0  0  0  0  0  0
  -25.5080  -15.2460   20.2140 N   0  0  0  0  0  0  0  0  0  0  0  0
  -24.7420  -15.9010   20.3270 H   0  0  0  0  0  0  0  0  0  0  0  0
  -26.3380  -15.6640   19.8110 H   0  0  0  0  0  0  0  0  0  0  0  0
  -30.1670  -17.8120   22.5170 C   0  0  0  0  0  2  0  0  0  0  0  0
  -31.3060  -18.0270   23.4300 N   0  0  0  0  0  4  0  0  0  0  0  0
  -32.1400  -17.5880   23.0810 H   0  0  0  0  0  0  0  0  0  0  0  0
  -31.0990  -17.6210   24.3240 H   0  0  0  0  0  0  0  0  0  0  0  0
  -31.4920  -19.0080   23.5600 H   0  0  0  0  0  0  0  0  0  0  0  0
  3  1  1  0
  3  6  1  0
  4  6  1  0
  4  2  1  0
  5  1  1  0
  5  7  1  0
  5  2  1  0
  6 50  1  0
  8  9  1  0
  8  7  2  0
 10 21  2  0
 11  9  1  0
 11 16  1  0
 12 20  1  0
 12 22  1  0
 13 19  1  0
 13 15  1  0
 14 20  1  0
 15 16  2  0
 15 14  1  0
 17 11  2  0
 18 17  1  0
 18 13  2  0
 19 12  1  0
 20 10  1  0
 22 24  2  0
 23 22  1  0
 25 23  1  0
 26 35  2  0
 26 31  1  0
 27 23  1  0
 27 31  1  0
 28 27  1  0
 29 30  1  0
 29 28  1  0
 30 26  1  0
 31 32  2  0
 32 33  1  0
 34 33  2  0
 35 34  1  0
 36 10  1  0
 36 37  1  0
 36 46  1  0
 37 40  1  0
 38 42  1  0
 38 37  1  0
 39 38  2  0
 42 41  1  0
 44 42  1  0
 44 45  1  0
 44 43  1  0
 46 49  1  1
 46 47  1  0
 48 46  1  0
 50 51  1  0
 50 90  1  0
 51 60  1  0
 52 60  1  0
 53 58  1  0
 54 55  1  0
 54 53  1  0
 56 55  1  0
 56 65  1  0
 56 57  1  0
 58 52  1  0
 58 57  1  0
 59 52  2  0
 60 61  1  0
 62 63  2  0
 63 82  1  0
 64 63  1  0
 64 67  1  0
 65 66  1  0
 65 62  1  0
 66 64  2  0
 67 68  1  0
 68 69  2  0
 70 73  1  0
 70 69  1  0
 71 70  2  0
 72 71  1  0
 72 67  2  0
 73 74  1  0
 74 75  1  0
 75 76  2  0
 77 76  1  0
 77 81  1  0
 78 77  2  0
 79 74  2  0
 79 78  1  0
 80 79  1  0
 82 83  1  0
 83 86  1  0
 83 85  1  0
 84 82  2  0
 87 88  1  0
 87 62  1  0
 89 87  1  0
 90 91  1  0
 91 94  1  0
 91 93  1  0
 92 91  1  0
M  ISO  4   8 101   9 101  52 100  60 100
M  END
>  <TORSDO>  (35) 
F 22

>  <SCORE>  (35) 
-12.805

>  <name>  (35) 
35

>  <ligand_id>  (35) 
35

>  <original_smiles>  (35) 
[H]c1c([H])c([H])c2c(c1[H])C([H])([H])C([H])([H])C([H])([H])C2([H])N([H])C(=O)C1([H])N(C(=O)C([H])(N([H])C(=O)C([H])(N([H])C([H])([H])[H])C([H])([H])[H])C(C([H])([H])[H])(C([H])([H])[H])C([H])([H])[H])C([H])([H])c2c([H])c(OC([H])([H])C([H])([H])N3C([H])([H])C([H])([H])N(C([H])(C([H])([H])N([H])C(=O)N4C([H])([H])C([H])([H])C([H])([H])C([H])(n5nc(-c6c([H])c([H])c(Oc7c([H])c([H])c(F)c([H])c7F)c([H])c6[H])c(C(=O)N([H])[H])c5N([H])[H])C4([H])[H])C([H])([H])[N+]([H])([H])[H])C([H])([H])C3([H])[H])c([H])c([H])c2C1([H])[H]

>  <smiles>  (35) 
[H]c1c([H])c([H])c2c(c1[H])C([H])([H])C([H])([H])C([H])([H])C2([H])N([H])C(=O)C1([H])N(C(=O)C([H])(N([H])C(=O)C([H])(N([H])C([H])([H])[H])C([H])([H])[H])C(C([H])([H])[H])(C([H])([H])[H])C([H])([H])[H])C([H])([H])c2c([H])c(OC([H])([H])C([H])([H])N3C([H])([H])C([H])([H])N(C([H])(C([H])([H])N([H])C(=O)N4C([H])([H])C([H])([H])C([H])([H])C([H])(n5nc(-c6c([H])c([H])c(Oc7c([H])c([H])c(F)c([H])c7F)c([H])c6[H])c(C(=O)N([H])[H])c5N([H])[H])C4([H])[H])C([H])([H])[N+]([H])([H])[H])C([H])([H])C3([H])[H])c([H])c([H])c2C1([H])[H]

$$$$
36:0:0
     RDKit          3D

 98106  0  0  1  0  0  0  0  0999 V2000
  -28.9110  -22.7090   20.7580 C   0  0  0  0  0  2  0  0  0  0  0  0
  -30.7110  -14.7000   19.9850 C   0  0  0  0  0  0  0  0  0  0  0  0
  -30.3680  -12.4820   18.9610 C   0  0  0  0  0  2  0  0  0  0  0  0
  -29.3740  -12.6230   17.7890 C   0  0  0  0  0  2  0  0  0  0  0  0
  -27.9270  -12.4670   18.2960 C   0  0  0  0  0  2  0  0  0  0  0  0
  -27.6320  -13.3280   19.5540 C   0  0  0  0  0  3  0  0  0  0  0  0
  -28.7500  -13.2100   20.6150 C   0  0  0  0  0  2  0  0  0  0  0  0
  -30.0220  -13.5170   19.9560 N   0  0  0  0  0  0  0  0  0  0  0  0
  -31.8860  -14.7490   19.6000 O   0  0  0  0  0  0  0  0  0  0  0  0
  -30.3630  -17.2020   19.5770 C   0  0  0  0  0  0  0  0  0  0  0  0
  -29.8790  -19.5020   18.6750 C   0  0  0  0  0  2  0  0  0  0  0  0
  -28.5580  -18.7360   20.5970 C   0  0  0  0  0  2  0  0  0  0  0  0
  -29.9640  -20.9380   19.2570 C   0  0  0  0  0  2  0  0  0  0  0  0
  -28.5890  -20.2220   21.1380 C   0  0  0  0  0  2  0  0  0  0  0  0
  -29.6820  -18.4130   19.6830 N   0  0  0  0  0  0  0  0  0  0  0  0
  -29.9750  -15.9830   20.1250 N   0  0  0  0  0  0  0  0  0  0  0  0
  -31.4870  -17.2520   18.8370 N   0  0  0  0  0  4  0  0  0  0  0  0
  -28.8130  -21.3170   20.1230 N   0  0  1  0  0  4  0  0  0  0  0  0
  -29.0470  -15.9910   20.5090 H   0  0  0  0  0  0  0  0  0  0  0  0
  -31.8610  -18.1070   18.4530 H   0  0  0  0  0  0  0  0  0  0  0  0
  -32.0630  -16.4090   18.8010 H   0  0  0  0  0  0  0  0  0  0  0  0
  -27.9890  -21.3240   19.5390 H   0  0  0  0  0  0  0  0  0  0  0  0
  -25.2930  -13.9020   20.4410 C   0  0  0  0  0  0  0  0  0  0  0  0
  -24.2500  -13.1190   20.8560 C   0  0  0  0  0  0  0  0  0  0  0  0
  -24.7080  -11.7680   20.7580 C   0  0  0  0  0  0  0  0  0  0  0  0
  -26.3180  -13.0280   20.1160 N   0  0  0  0  0  0  0  0  0  0  0  0
  -25.9760  -11.7390   20.3700 N   0  0  0  0  0  0  0  0  0  0  0  0
  -23.9930  -10.5000   20.9530 C   0  0  0  0  0  0  0  0  0  0  0  0
  -24.4410   -9.5350   21.8820 C   0  0  0  0  0  3  0  0  0  0  0  0
  -23.7270   -8.3310   22.0640 C   0  0  0  0  0  3  0  0  0  0  0  0
  -22.5500   -8.0850   21.3180 C   0  0  0  0  0  0  0  0  0  0  0  0
  -22.1210   -9.0390   20.3780 C   0  0  0  0  0  3  0  0  0  0  0  0
  -22.8360  -10.2340   20.1940 C   0  0  0  0  0  3  0  0  0  0  0  0
  -21.8040   -6.9350   21.4120 O   0  0  0  0  0  0  0  0  0  0  0  0
  -21.7210   -6.2230   22.5820 C   0  0  0  0  0  0  0  0  0  0  0  0
  -21.2170   -6.7970   23.7700 C   0  0  0  0  0  3  0  0  0  0  0  0
  -21.0860   -6.0110   24.9320 C   0  0  0  0  0  3  0  0  0  0  0  0
  -21.4470   -4.6510   24.9060 C   0  0  0  0  0  0  0  0  0  0  0  0
  -21.9430   -4.0750   23.7240 C   0  0  0  0  0  3  0  0  0  0  0  0
  -22.0750   -4.8590   22.5630 C   0  0  0  0  0  0  0  0  0  0  0  0
  -22.5350   -4.2940   21.4210 F   0  0  0  0  0  0  0  0  0  0  0  0
  -21.3140   -3.8920   26.0200 F   0  0  0  0  0  0  0  0  0  0  0  0
  -22.8720  -13.5870   21.2230 C   0  0  0  0  0  0  0  0  0  0  0  0
  -22.1880  -12.8610   22.1010 N   0  0  0  0  0  0  0  0  0  0  0  0
  -22.4100  -14.6320   20.7650 O   0  0  0  0  0  0  0  0  0  0  0  0
  -22.5700  -12.0140   22.4940 H   0  0  0  0  0  0  0  0  0  0  0  0
  -21.2660  -13.1590   22.3860 H   0  0  0  0  0  0  0  0  0  0  0  0
  -25.4470  -15.2770   20.2840 N   0  0  0  0  0  0  0  0  0  0  0  0
  -24.6740  -15.9160   20.4280 H   0  0  0  0  0  0  0  0  0  0  0  0
  -26.2170  -15.6960   19.7800 H   0  0  0  0  0  0  0  0  0  0  0  0
  -28.7550  -24.0520   19.8880 C   0  0  0  0  0  3  0  0  0  0  0  0
  -30.0120  -24.4860   19.0770 C   0  0  0  0  0  2  0  0  0  0  0  0
  -31.1120  -25.0560   19.8830 N   0  0  0  0  0  4  0  0  0  0  0  0
  -30.8130  -25.8850   20.3660 H   0  0  0  0  0  0  0  0  0  0  0  0
  -31.8610  -25.3320   19.2680 H   0  0  0  0  0  0  0  0  0  0  0  0
  -31.4920  -24.4050   20.5450 H   0  0  0  0  0  0  0  0  0  0  0  0
  -28.2450  -25.2950   20.7320 C   0  0  0  0  0  2  0  0  0  0  0  0
  -28.3990  -26.6360   20.1550 O   0  0  0  0  0  0  0  0  0  0  0  0
  -24.5840  -31.8960   23.2080 C   0  0  0  0  0  0  0  0  0  0  0  0
  -27.2650  -27.4370   20.1360 C   0  0  0  0  0  0  0  0  0  0  0  0
  -23.4060  -30.4980   21.5450 C   0  0  0  0  0  3  0  0  0  0  0  0
  -24.8820  -28.9780   20.1180 C   0  0  0  0  0  0  0  0  0  0  0  0
  -25.9360  -30.8610   21.3760 C   0  0  0  0  0  2  0  0  0  0  0  0
  -26.0370  -29.4930   20.7210 C   0  0  0  0  0  0  0  0  0  0  0  0
  -27.2370  -28.7330   20.7170 C   0  0  0  0  0  3  0  0  0  0  0  0
  -26.0950  -26.9580   19.5130 C   0  0  0  0  0  3  0  0  0  0  0  0
  -24.9090  -27.7150   19.5040 C   0  0  0  0  0  3  0  0  0  0  0  0
  -23.6330  -29.8330   20.1620 C   0  0  0  0  0  2  0  0  0  0  0  0
  -24.6610  -31.1020   22.1020 N   0  0  0  0  0  0  0  0  0  0  0  0
  -23.4950  -32.1550   23.7390 O   0  0  0  0  0  0  0  0  0  0  0  0
  -22.7500  -29.4650   22.4930 C   0  0  0  0  0  0  0  0  0  0  0  0
  -21.4250  -29.2900   22.3650 N   0  0  0  0  0  0  0  0  0  0  0  0
  -23.4330  -28.8260   23.2970 O   0  0  0  0  0  0  0  0  0  0  0  0
  -20.9350  -29.8570   21.6880 H   0  0  0  0  0  0  0  0  0  0  0  0
  -18.0420  -28.1250   22.8850 C   0  0  0  0  0  0  0  0  0  0  0  0
  -20.6070  -28.3420   23.1230 C   0  0  0  0  0  3  0  0  0  0  0  0
  -20.6810  -26.9260   22.5050 C   0  0  0  0  0  2  0  0  0  0  0  0
  -19.5590  -26.6460   21.5010 C   0  0  0  0  0  2  0  0  0  0  0  0
  -18.1900  -26.7910   22.1700 C   0  0  0  0  0  2  0  0  0  0  0  0
  -19.1770  -28.8590   23.3180 C   0  0  0  0  0  0  0  0  0  0  0  0
  -18.9860  -30.1090   23.9470 C   0  0  0  0  0  3  0  0  0  0  0  0
  -17.6900  -30.6230   24.1470 C   0  0  0  0  0  3  0  0  0  0  0  0
  -16.5700  -29.8830   23.7300 C   0  0  0  0  0  3  0  0  0  0  0  0
  -16.7460  -28.6360   23.1060 C   0  0  0  0  0  3  0  0  0  0  0  0
  -25.8580  -32.5320   23.8460 C   0  0  0  0  0  3  0  0  0  0  0  0
  -26.3690  -31.7580   25.1220 C   0  0  1  0  0  0  0  0  0  0  0  0
  -25.2680  -31.5020   26.1770 C   0  0  0  0  0  1  0  0  0  0  0  0
  -26.9680  -30.3880   24.7250 C   0  0  0  0  0  1  0  0  0  0  0  0
  -27.5060  -32.5580   25.8010 C   0  0  0  0  0  1  0  0  0  0  0  0
  -25.5370  -33.9270   24.1800 N   0  0  0  0  0  0  0  0  0  0  0  0
  -25.8750  -34.9860   23.4330 C   0  0  0  0  0  0  0  0  0  0  0  0
  -26.5610  -34.8930   22.4110 O   0  0  0  0  0  0  0  0  0  0  0  0
  -24.9290  -34.0720   24.9740 H   0  0  0  0  0  0  0  0  0  0  0  0
  -24.1510  -36.7790   23.0530 C   0  0  0  0  0  1  0  0  0  0  0  0
  -25.3730  -36.3700   23.8930 C   0  0  0  0  0  3  0  0  0  0  0  0
  -27.4810  -37.2520   24.7900 C   0  0  0  0  0  1  0  0  0  0  0  0
  -26.4060  -37.4260   23.8160 N   0  0  0  0  0  0  0  0  0  0  0  0
  -25.9940  -38.3440   23.9580 H   0  0  0  0  0  0  0  0  0  0  0  0
  2 16  1  0
  3  8  1  0
  4  5  1  0
  4  3  1  0
  6  5  1  0
  6 26  1  0
  6  7  1  0
  8  2  1  0
  8  7  1  0
  9  2  2  0
 10 15  1  0
 10 16  1  0
 11 13  1  0
 11 15  1  0
 12 14  1  0
 13 18  1  0
 15 12  1  0
 16 19  1  0
 17 10  2  0
 18  1  1  0
 18 14  1  0
 20 17  1  0
 21 17  1  0
 18 22  1  6
 23 24  2  0
 24 43  1  0
 25 24  1  0
 25 28  1  0
 26 27  1  0
 26 23  1  0
 27 25  2  0
 28 29  1  0
 29 30  2  0
 31 34  1  0
 31 30  1  0
 32 31  2  0
 33 32  1  0
 33 28  2  0
 34 35  1  0
 35 36  1  0
 36 37  2  0
 38 37  1  0
 38 42  1  0
 39 38  2  0
 40 35  2  0
 40 39  1  0
 41 40  1  0
 43 44  1  0
 44 47  1  0
 44 46  1  0
 45 43  2  0
 48 49  1  0
 48 23  1  0
 50 48  1  0
 51 52  1  0
 51 57  1  0
 51  1  1  0
 52 53  1  0
 53 54  1  0
 53 56  1  0
 55 53  1  0
 58 57  1  0
 59 70  2  0
 60 58  1  0
 60 65  1  0
 61 69  1  0
 61 71  1  0
 62 68  1  0
 62 64  1  0
 63 69  1  0
 64 63  1  0
 65 64  2  0
 66 60  2  0
 67 66  1  0
 67 62  2  0
 68 61  1  0
 69 59  1  0
 71 73  2  0
 72 71  1  0
 74 72  1  0
 75 84  2  0
 75 80  1  0
 76 72  1  0
 76 80  1  0
 77 76  1  0
 78 79  1  0
 78 77  1  0
 79 75  1  0
 80 81  2  0
 81 82  1  0
 83 82  2  0
 84 83  1  0
 85 59  1  0
 85 90  1  0
 85 86  1  0
 86 89  1  1
 86 87  1  0
 88 86  1  0
 90 93  1  0
 91 95  1  0
 91 90  1  0
 92 91  2  0
 95 94  1  0
 97 95  1  0
 97 98  1  0
 97 96  1  0
M  ISO  4   2 100  16 100  57 101  58 101
M  END
>  <TORSDO>  (36) 
F 20

>  <SCORE>  (36) 
-13.744

>  <name>  (36) 
36

>  <ligand_id>  (36) 
36

>  <original_smiles>  (36) 
[H]c1c([H])c([H])c2c(c1[H])C([H])([H])C([H])([H])C([H])([H])C2([H])N([H])C(=O)C1([H])N(C(=O)C([H])(N([H])C(=O)C([H])(N([H])C([H])([H])[H])C([H])([H])[H])C(C([H])([H])[H])(C([H])([H])[H])C([H])([H])[H])C([H])([H])c2c([H])c(OC([H])([H])C([H])(C([H])([H])[N+]([H])([H])[H])C([H])([H])[N+]3([H])C([H])([H])C([H])([H])N(C(N([H])C(=O)N4C([H])([H])C([H])([H])C([H])([H])C([H])(n5nc(-c6c([H])c([H])c(Oc7c([H])c([H])c(F)c([H])c7F)c([H])c6[H])c(C(=O)N([H])[H])c5N([H])[H])C4([H])[H])=[N+]([H])[H])C([H])([H])C3([H])[H])c([H])c([H])c2C1([H])[H]

>  <smiles>  (36) 
[H]c1c([H])c([H])c2c(c1[H])C([H])([H])C([H])([H])C([H])([H])C2([H])N([H])C(=O)C1([H])N(C(=O)C([H])(N([H])C(=O)C([H])(N([H])C([H])([H])[H])C([H])([H])[H])C(C([H])([H])[H])(C([H])([H])[H])C([H])([H])[H])C([H])([H])c2c([H])c(OC([H])([H])C([H])(C([H])([H])[N+]([H])([H])[H])C([H])([H])[N+]3([H])C([H])([H])C([H])([H])N(C(N([H])C(=O)N4C([H])([H])C([H])([H])C([H])([H])C([H])(n5nc(-c6c([H])c([H])c(Oc7c([H])c([H])c(F)c([H])c7F)c([H])c6[H])c(C(=O)N([H])[H])c5N([H])[H])C4([H])[H])=[N+]([H])[H])C([H])([H])C3([H])[H])c([H])c([H])c2C1([H])[H]

$$$$
37:0:0
     RDKit          3D

 95102  0  0  1  0  0  0  0  0999 V2000
  -29.0690  -23.9360   20.7590 N   0  0  0  0  0  4  0  0  0  0  0  0
  -29.7740  -23.7110   21.4470 H   0  0  0  0  0  0  0  0  0  0  0  0
  -28.4110  -24.5330   21.2360 H   0  0  0  0  0  0  0  0  0  0  0  0
  -29.7190  -24.7540   19.7020 C   0  0  0  0  0  3  0  0  0  0  0  0
  -30.9520  -25.4040   20.3010 C   0  0  0  0  0  3  0  0  0  0  0  0
  -31.9040  -24.7360   20.8030 N   0  0  0  0  0  0  0  0  0  0  0  0
  -31.7810  -23.7370   20.7080 H   0  0  0  0  0  0  0  0  0  0  0  0
  -28.7370  -25.7960   19.1120 C   0  0  0  0  0  2  0  0  0  0  0  0
  -28.4250  -26.7630   20.1270 O   0  0  0  0  0  0  0  0  0  0  0  0
  -24.6220  -31.8930   23.2300 C   0  0  0  0  0  0  0  0  0  0  0  0
  -27.2340  -27.4520   20.0990 C   0  0  0  0  0  0  0  0  0  0  0  0
  -23.4010  -30.4910   21.6010 C   0  0  0  0  0  3  0  0  0  0  0  0
  -24.8360  -28.9510   20.1680 C   0  0  0  0  0  0  0  0  0  0  0  0
  -25.9260  -30.8440   21.3800 C   0  0  0  0  0  2  0  0  0  0  0  0
  -26.0000  -29.4720   20.7410 C   0  0  0  0  0  0  0  0  0  0  0  0
  -27.1960  -28.7230   20.7160 C   0  0  0  0  0  3  0  0  0  0  0  0
  -26.0400  -26.9300   19.5440 C   0  0  0  0  0  3  0  0  0  0  0  0
  -24.8460  -27.6710   19.5850 C   0  0  0  0  0  3  0  0  0  0  0  0
  -23.5980  -29.8130   20.2220 C   0  0  0  0  0  2  0  0  0  0  0  0
  -24.6690  -31.0910   22.1290 N   0  0  0  0  0  0  0  0  0  0  0  0
  -23.5450  -32.1650   23.7780 O   0  0  0  0  0  0  0  0  0  0  0  0
  -22.7620  -29.4690   22.5650 C   0  0  0  0  0  0  0  0  0  0  0  0
  -21.4370  -29.2820   22.4440 N   0  0  0  0  0  0  0  0  0  0  0  0
  -23.4510  -28.8450   23.3770 O   0  0  0  0  0  0  0  0  0  0  0  0
  -20.9440  -29.8370   21.7600 H   0  0  0  0  0  0  0  0  0  0  0  0
  -18.0720  -28.0730   22.9600 C   0  0  0  0  0  0  0  0  0  0  0  0
  -20.6290  -28.3420   23.2180 C   0  0  0  0  0  3  0  0  0  0  0  0
  -20.7340  -26.9100   22.6430 C   0  0  0  0  0  2  0  0  0  0  0  0
  -19.6300  -26.5790   21.6340 C   0  0  0  0  0  2  0  0  0  0  0  0
  -18.2510  -26.7230   22.2840 C   0  0  0  0  0  2  0  0  0  0  0  0
  -19.1870  -28.8400   23.3830 C   0  0  0  0  0  0  0  0  0  0  0  0
  -18.9700  -30.1040   23.9730 C   0  0  0  0  0  3  0  0  0  0  0  0
  -17.6630  -30.6000   24.1440 C   0  0  0  0  0  3  0  0  0  0  0  0
  -16.5600  -29.8310   23.7360 C   0  0  0  0  0  3  0  0  0  0  0  0
  -16.7650  -28.5680   23.1520 C   0  0  0  0  0  3  0  0  0  0  0  0
  -25.9130  -32.5260   23.8390 C   0  0  0  0  0  3  0  0  0  0  0  0
  -26.4470  -31.7550   25.1090 C   0  0  1  0  0  0  0  0  0  0  0  0
  -25.3640  -31.5100   26.1870 C   0  0  0  0  0  1  0  0  0  0  0  0
  -27.0300  -30.3820   24.7020 C   0  0  0  0  0  1  0  0  0  0  0  0
  -27.6040  -32.5500   25.7590 C   0  0  0  0  0  1  0  0  0  0  0  0
  -25.6030  -33.9220   24.1770 N   0  0  0  0  0  0  0  0  0  0  0  0
  -25.9260  -34.9760   23.4190 C   0  0  0  0  0  0  0  0  0  0  0  0
  -26.5870  -34.8780   22.3800 O   0  0  0  0  0  0  0  0  0  0  0  0
  -25.0210  -34.0710   24.9880 H   0  0  0  0  0  0  0  0  0  0  0  0
  -24.1870  -36.7620   23.0800 C   0  0  0  0  0  1  0  0  0  0  0  0
  -25.4350  -36.3620   23.8830 C   0  0  0  0  0  3  0  0  0  0  0  0
  -27.5760  -37.2430   24.7020 C   0  0  0  0  0  1  0  0  0  0  0  0
  -26.4650  -37.4180   23.7690 N   0  0  0  0  0  0  0  0  0  0  0  0
  -26.0580  -38.3370   23.9270 H   0  0  0  0  0  0  0  0  0  0  0  0
  -28.3680  -22.6980   20.3250 C   0  0  0  0  0  2  0  0  0  0  0  0
  -29.3110  -21.4840   20.1440 C   0  0  0  0  0  2  0  0  0  0  0  0
  -28.6920  -20.1410   20.6500 C   0  0  0  0  0  2  0  0  0  0  0  0
  -29.7320  -19.0830   20.6490 N   0  0  0  0  0  4  0  0  0  0  0  0
  -30.4260  -19.2940   21.3500 H   0  0  0  0  0  0  0  0  0  0  0  0
  -30.2030  -19.0930   19.7530 H   0  0  0  0  0  0  0  0  0  0  0  0
  -29.2520  -17.7040   20.8740 C   0  0  0  0  0  2  0  0  0  0  0  0
  -30.4720  -16.7750   21.0800 C   0  0  0  0  0  2  0  0  0  0  0  0
  -30.7080  -14.3840   20.4970 C   0  0  0  0  0  0  0  0  0  0  0  0
  -30.3690  -12.2540   19.3040 C   0  0  0  0  0  2  0  0  0  0  0  0
  -29.4430  -12.4960   18.1000 C   0  0  0  0  0  2  0  0  0  0  0  0
  -27.9620  -12.3810   18.5150 C   0  0  0  0  0  2  0  0  0  0  0  0
  -27.6270  -13.2060   19.7880 C   0  0  0  0  0  3  0  0  0  0  0  0
  -28.6700  -12.9400   20.8960 C   0  0  0  0  0  2  0  0  0  0  0  0
  -30.0120  -13.2240   20.3480 N   0  0  0  0  0  0  0  0  0  0  0  0
  -31.8240  -14.5790   19.9990 O   0  0  0  0  0  0  0  0  0  0  0  0
  -30.0520  -15.3720   21.0980 N   0  0  0  0  0  0  0  0  0  0  0  0
  -29.1370  -15.1550   21.4670 H   0  0  0  0  0  0  0  0  0  0  0  0
  -25.2280  -13.8340   20.4760 C   0  0  0  0  0  0  0  0  0  0  0  0
  -24.1500  -13.0680   20.8350 C   0  0  0  0  0  0  0  0  0  0  0  0
  -24.6040  -11.7140   20.8200 C   0  0  0  0  0  0  0  0  0  0  0  0
  -26.2670  -12.9440   20.2500 N   0  0  0  0  0  0  0  0  0  0  0  0
  -25.8950  -11.6650   20.5180 N   0  0  0  0  0  0  0  0  0  0  0  0
  -23.8760  -10.4540   21.0200 C   0  0  0  0  0  0  0  0  0  0  0  0
  -24.3080   -9.4880   21.9540 C   0  0  0  0  0  3  0  0  0  0  0  0
  -23.5840   -8.2930   22.1370 C   0  0  0  0  0  3  0  0  0  0  0  0
  -22.4080   -8.0520   21.3890 C   0  0  0  0  0  0  0  0  0  0  0  0
  -21.9990   -9.0020   20.4380 C   0  0  0  0  0  3  0  0  0  0  0  0
  -22.7220  -10.1930   20.2520 C   0  0  0  0  0  3  0  0  0  0  0  0
  -21.6470   -6.9150   21.4900 O   0  0  0  0  0  0  0  0  0  0  0  0
  -21.6250   -6.1670   22.6410 C   0  0  0  0  0  0  0  0  0  0  0  0
  -21.2360   -6.7200   23.8800 C   0  0  0  0  0  3  0  0  0  0  0  0
  -21.1620   -5.8970   25.0230 C   0  0  0  0  0  3  0  0  0  0  0  0
  -21.4590   -4.5270   24.9260 C   0  0  0  0  0  0  0  0  0  0  0  0
  -21.8320   -3.9720   23.6900 C   0  0  0  0  0  3  0  0  0  0  0  0
  -21.9180   -4.7930   22.5510 C   0  0  0  0  0  0  0  0  0  0  0  0
  -22.2690   -4.2460   21.3600 F   0  0  0  0  0  0  0  0  0  0  0  0
  -21.3680   -3.7400   26.0250 F   0  0  0  0  0  0  0  0  0  0  0  0
  -22.7500  -13.5510   21.0760 C   0  0  0  0  0  0  0  0  0  0  0  0
  -22.0120  -12.8710   21.9460 N   0  0  0  0  0  0  0  0  0  0  0  0
  -22.3200  -14.5640   20.5290 O   0  0  0  0  0  0  0  0  0  0  0  0
  -22.3760  -12.0600   22.4240 H   0  0  0  0  0  0  0  0  0  0  0  0
  -21.0650  -13.1720   22.1310 H   0  0  0  0  0  0  0  0  0  0  0  0
  -25.3990  -15.2050   20.3040 N   0  0  0  0  0  0  0  0  0  0  0  0
  -24.6540  -15.8650   20.4870 H   0  0  0  0  0  0  0  0  0  0  0  0
  -26.2480  -15.6420   19.9660 H   0  0  0  0  0  0  0  0  0  0  0  0
  1  3  1  0
  1  2  1  0
  4  8  1  0
  4  5  1  0
  4  1  1  0
  5  6  2  0
  7  6  1  0
  8  9  1  0
 10 21  2  0
 11  9  1  0
 11 16  1  0
 12 20  1  0
 12 22  1  0
 13 19  1  0
 13 15  1  0
 14 20  1  0
 15 14  1  0
 16 15  2  0
 17 18  1  0
 17 11  2  0
 18 13  2  0
 19 12  1  0
 20 10  1  0
 22 24  2  0
 23 22  1  0
 25 23  1  0
 26 35  2  0
 26 31  1  0
 27 23  1  0
 27 31  1  0
 28 27  1  0
 29 30  1  0
 29 28  1  0
 30 26  1  0
 31 32  2  0
 32 33  1  0
 34 33  2  0
 35 34  1  0
 36 10  1  0
 36 41  1  0
 36 37  1  0
 37 40  1  1
 37 38  1  0
 39 37  1  0
 41 44  1  0
 42 46  1  0
 42 41  1  0
 43 42  2  0
 46 45  1  0
 48 46  1  0
 48 49  1  0
 48 47  1  0
 50  1  1  0
 51 50  1  0
 51 52  1  0
 53 52  1  0
 53 56  1  0
 53 54  1  0
 55 53  1  0
 56 57  1  0
 57 66  1  0
 58 66  1  0
 59 64  1  0
 60 61  1  0
 60 59  1  0
 62 61  1  0
 62 71  1  0
 62 63  1  0
 64 58  1  0
 64 63  1  0
 65 58  2  0
 66 67  1  0
 68 69  2  0
 69 88  1  0
 70 69  1  0
 70 73  1  0
 71 68  1  0
 71 72  1  0
 72 70  2  0
 73 74  1  0
 74 75  2  0
 76 79  1  0
 76 75  1  0
 77 76  2  0
 78 77  1  0
 78 73  2  0
 79 80  1  0
 80 81  1  0
 81 82  2  0
 83 82  1  0
 83 87  1  0
 84 83  2  0
 85 80  2  0
 85 84  1  0
 86 85  1  0
 88 89  1  0
 89 92  1  0
 89 91  1  0
 90 88  2  0
 93 68  1  0
 93 94  1  0
 95 93  1  0
M  ISO  4   8 101   9 101  58 100  66 100
M  END
>  <TORSDO>  (37) 
F 25

>  <SCORE>  (37) 
-12.265

>  <name>  (37) 
37

>  <ligand_id>  (37) 
37

>  <original_smiles>  (37) 
[H]N=C([H])C([H])(C([H])([H])Oc1c([H])c([H])c2c(c1[H])C([H])([H])N(C(=O)C([H])(N([H])C(=O)C([H])(N([H])C([H])([H])[H])C([H])([H])[H])C(C([H])([H])[H])(C([H])([H])[H])C([H])([H])[H])C([H])(C(=O)N([H])C1([H])c3c([H])c([H])c([H])c([H])c3C([H])([H])C([H])([H])C1([H])[H])C2([H])[H])[N+]([H])([H])C([H])([H])C([H])([H])C([H])([H])[N+]([H])([H])C([H])([H])C([H])([H])N([H])C(=O)N1C([H])([H])C([H])([H])C([H])([H])C([H])(n2nc(-c3c([H])c([H])c(Oc4c([H])c([H])c(F)c([H])c4F)c([H])c3[H])c(C(=O)N([H])[H])c2N([H])[H])C1([H])[H]

>  <smiles>  (37) 
[H]N=C([H])C([H])(C([H])([H])Oc1c([H])c([H])c2c(c1[H])C([H])([H])N(C(=O)C([H])(N([H])C(=O)C([H])(N([H])C([H])([H])[H])C([H])([H])[H])C(C([H])([H])[H])(C([H])([H])[H])C([H])([H])[H])C([H])(C(=O)N([H])C1([H])c3c([H])c([H])c([H])c([H])c3C([H])([H])C([H])([H])C1([H])[H])C2([H])[H])[N+]([H])([H])C([H])([H])C([H])([H])C([H])([H])[N+]([H])([H])C([H])([H])C([H])([H])N([H])C(=O)N1C([H])([H])C([H])([H])C([H])([H])C([H])(n2nc(-c3c([H])c([H])c(Oc4c([H])c([H])c(F)c([H])c4F)c([H])c3[H])c(C(=O)N([H])[H])c2N([H])[H])C1([H])[H]

$$$$
38:0:0
     RDKit          3D

100108  0  0  1  0  0  0  0  0999 V2000
  -29.1440  -22.4990   19.7510 C   0  0  0  0  0  3  0  0  0  0  0  0
  -32.0810  -23.4900   17.5590 C   0  0  0  0  0  2  0  0  0  0  0  0
  -33.2570  -23.2250   18.5090 C   0  0  0  0  0  2  0  0  0  0  0  0
  -30.7680  -23.6750   18.3390 C   0  0  0  0  0  2  0  0  0  0  0  0
  -31.5890  -22.3450   20.1660 C   0  0  0  0  0  2  0  0  0  0  0  0
  -32.9230  -22.0480   19.4440 C   0  0  0  0  0  3  0  0  0  0  0  0
  -30.5080  -22.4950   19.1760 N   0  0  0  0  0  0  0  0  0  0  0  0
  -34.0910  -21.7620   20.4210 C   0  0  0  0  0  2  0  0  0  0  0  0
  -33.9930  -20.4420   21.0710 N   0  0  0  0  0  4  0  0  0  0  0  0
  -33.2260  -20.3990   21.7150 H   0  0  0  0  0  0  0  0  0  0  0  0
  -34.8360  -20.2580   21.5880 H   0  0  0  0  0  0  0  0  0  0  0  0
  -33.8920  -19.7140   20.3860 H   0  0  0  0  0  0  0  0  0  0  0  0
  -28.7830  -23.9240   20.4640 C   0  0  0  0  0  2  0  0  0  0  0  0
  -28.4110  -25.0840   19.5770 N   0  0  0  0  0  0  0  0  0  0  0  0
  -27.4590  -24.9710   19.2480 H   0  0  0  0  0  0  0  0  0  0  0  0
  -28.4440  -26.4170   20.3020 O   0  0  0  0  0  0  0  0  0  0  0  0
  -24.6460  -31.7980   23.2510 C   0  0  0  0  0  0  0  0  0  0  0  0
  -27.3120  -27.2500   20.1950 C   0  0  0  0  0  0  0  0  0  0  0  0
  -23.4700  -30.4100   21.5820 C   0  0  0  0  0  3  0  0  0  0  0  0
  -24.9420  -28.8690   20.1630 C   0  0  0  0  0  0  0  0  0  0  0  0
  -26.0110  -30.7280   21.4410 C   0  0  0  0  0  2  0  0  0  0  0  0
  -26.1000  -29.3520   20.7830 C   0  0  0  0  0  0  0  0  0  0  0  0
  -27.2830  -28.5510   20.7930 C   0  0  0  0  0  3  0  0  0  0  0  0
  -26.1260  -26.8220   19.5520 C   0  0  0  0  0  3  0  0  0  0  0  0
  -24.9580  -27.6100   19.5410 C   0  0  0  0  0  3  0  0  0  0  0  0
  -23.7050  -29.7460   20.2010 C   0  0  0  0  0  2  0  0  0  0  0  0
  -24.7270  -30.9970   22.1480 N   0  0  0  0  0  0  0  0  0  0  0  0
  -23.5530  -32.0720   23.7710 O   0  0  0  0  0  0  0  0  0  0  0  0
  -22.7930  -29.3860   22.5250 C   0  0  0  0  0  0  0  0  0  0  0  0
  -21.4720  -29.1940   22.3630 N   0  0  0  0  0  0  0  0  0  0  0  0
  -23.4550  -28.7680   23.3620 O   0  0  0  0  0  0  0  0  0  0  0  0
  -20.9950  -29.7480   21.6640 H   0  0  0  0  0  0  0  0  0  0  0  0
  -18.1030  -27.9340   22.7480 C   0  0  0  0  0  0  0  0  0  0  0  0
  -20.6430  -28.2470   23.1100 C   0  0  0  0  0  3  0  0  0  0  0  0
  -20.7950  -26.8120   22.5540 C   0  0  0  0  0  2  0  0  0  0  0  0
  -19.7390  -26.4580   21.5020 C   0  0  0  0  0  2  0  0  0  0  0  0
  -18.3320  -26.5810   22.0930 C   0  0  0  0  0  2  0  0  0  0  0  0
  -19.1890  -28.7220   23.2110 C   0  0  0  0  0  0  0  0  0  0  0  0
  -18.9240  -29.9850   23.7830 C   0  0  0  0  0  3  0  0  0  0  0  0
  -17.6040  -30.4620   23.8950 C   0  0  0  0  0  3  0  0  0  0  0  0
  -16.5320  -29.6720   23.4460 C   0  0  0  0  0  3  0  0  0  0  0  0
  -16.7810  -28.4090   22.8800 C   0  0  0  0  0  3  0  0  0  0  0  0
  -25.9170  -32.4280   23.8990 C   0  0  0  0  0  3  0  0  0  0  0  0
  -26.4010  -31.6610   25.1920 C   0  0  1  0  0  0  0  0  0  0  0  0
  -25.2820  -31.4350   26.2350 C   0  0  0  0  0  1  0  0  0  0  0  0
  -26.9830  -30.2780   24.8190 C   0  0  0  0  0  1  0  0  0  0  0  0
  -27.5420  -32.4520   25.8720 C   0  0  0  0  0  1  0  0  0  0  0  0
  -25.6070  -33.8300   24.2160 N   0  0  0  0  0  0  0  0  0  0  0  0
  -25.9430  -34.8760   23.4500 C   0  0  0  0  0  0  0  0  0  0  0  0
  -26.6150  -34.7640   22.4210 O   0  0  0  0  0  0  0  0  0  0  0  0
  -25.0090  -33.9930   25.0130 H   0  0  0  0  0  0  0  0  0  0  0  0
  -24.2080  -36.6600   23.0880 C   0  0  0  0  0  1  0  0  0  0  0  0
  -25.4580  -36.2690   23.8940 C   0  0  0  0  0  3  0  0  0  0  0  0
  -27.5970  -37.1670   24.6960 C   0  0  0  0  0  1  0  0  0  0  0  0
  -26.4870  -37.3220   23.7600 N   0  0  0  0  0  0  0  0  0  0  0  0
  -26.0810  -38.2440   23.8970 H   0  0  0  0  0  0  0  0  0  0  0  0
  -28.9790  -21.1140   20.5800 C   0  0  0  0  0  2  0  0  0  0  0  0
  -29.4790  -19.8250   19.9160 N   0  0  0  0  0  4  0  0  0  0  0  0
  -28.9790  -19.7330   19.0480 H   0  0  0  0  0  0  0  0  0  0  0  0
  -30.4420  -19.9970   19.6690 H   0  0  0  0  0  0  0  0  0  0  0  0
  -29.3880  -18.4830   20.6640 C   0  0  0  0  0  3  0  0  0  0  0  0
  -30.0650  -17.1770   19.9830 C   0  0  0  0  0  3  0  0  0  0  0  0
  -30.5810  -14.6370   20.3150 C   0  0  0  0  0  0  0  0  0  0  0  0
  -30.3590  -12.3480   19.3590 C   0  0  0  0  0  2  0  0  0  0  0  0
  -29.4070  -12.4190   18.1450 C   0  0  0  0  0  2  0  0  0  0  0  0
  -27.9430  -12.2570   18.5960 C   0  0  0  0  0  2  0  0  0  0  0  0
  -27.5860  -13.1660   19.8020 C   0  0  0  0  0  3  0  0  0  0  0  0
  -28.6600  -13.0840   20.9140 C   0  0  0  0  0  2  0  0  0  0  0  0
  -29.9550  -13.4130   20.3040 N   0  0  0  0  0  0  0  0  0  0  0  0
  -31.7470  -14.7410   19.9240 O   0  0  0  0  0  0  0  0  0  0  0  0
  -29.8120  -15.7690   20.5240 N   0  0  0  0  0  0  0  0  0  0  0  0
  -28.8800  -15.5890   20.8670 H   0  0  0  0  0  0  0  0  0  0  0  0
  -25.2160  -13.7740   20.5780 C   0  0  0  0  0  0  0  0  0  0  0  0
  -24.1490  -13.0050   20.9560 C   0  0  0  0  0  0  0  0  0  0  0  0
  -24.5980  -11.6500   20.8970 C   0  0  0  0  0  0  0  0  0  0  0  0
  -26.2470  -12.8880   20.3110 N   0  0  0  0  0  0  0  0  0  0  0  0
  -25.8820  -11.6050   20.5650 N   0  0  0  0  0  0  0  0  0  0  0  0
  -23.8620  -10.3920   21.0790 C   0  0  0  0  0  0  0  0  0  0  0  0
  -24.2960   -9.4050   21.9920 C   0  0  0  0  0  3  0  0  0  0  0  0
  -23.5580   -8.2150   22.1650 C   0  0  0  0  0  3  0  0  0  0  0  0
  -22.3720   -8.0010   21.4240 C   0  0  0  0  0  0  0  0  0  0  0  0
  -21.9550   -8.9750   20.4990 C   0  0  0  0  0  3  0  0  0  0  0  0
  -22.6950  -10.1570   20.3250 C   0  0  0  0  0  3  0  0  0  0  0  0
  -21.6050   -6.8630   21.5050 O   0  0  0  0  0  0  0  0  0  0  0  0
  -21.5640   -6.1040   22.6460 C   0  0  0  0  0  0  0  0  0  0  0  0
  -21.1650   -6.6450   23.8880 C   0  0  0  0  0  3  0  0  0  0  0  0
  -21.0710   -5.8120   25.0220 C   0  0  0  0  0  3  0  0  0  0  0  0
  -21.3700   -4.4400   24.9140 C   0  0  0  0  0  0  0  0  0  0  0  0
  -21.7640   -3.8990   23.6770 C   0  0  0  0  0  3  0  0  0  0  0  0
  -21.8600   -4.7290   22.5470 C   0  0  0  0  0  0  0  0  0  0  0  0
  -22.2190   -4.1990   21.3520 F   0  0  0  0  0  0  0  0  0  0  0  0
  -21.2740   -3.6380   26.0010 F   0  0  0  0  0  0  0  0  0  0  0  0
  -22.7620  -13.4900   21.2610 C   0  0  0  0  0  0  0  0  0  0  0  0
  -22.0440  -12.7900   22.1320 N   0  0  0  0  0  0  0  0  0  0  0  0
  -22.3240  -14.5270   20.7610 O   0  0  0  0  0  0  0  0  0  0  0  0
  -22.4110  -11.9520   22.5580 H   0  0  0  0  0  0  0  0  0  0  0  0
  -21.1140  -13.0970   22.3780 H   0  0  0  0  0  0  0  0  0  0  0  0
  -25.3870  -15.1460   20.4160 N   0  0  0  0  0  0  0  0  0  0  0  0
  -24.6170  -15.7950   20.5420 H   0  0  0  0  0  0  0  0  0  0  0  0
  -26.2150  -15.5850   20.0370 H   0  0  0  0  0  0  0  0  0  0  0  0
  1 13  1  0
  1 57  1  0
  2  4  1  0
  2  3  1  0
  3  6  1  0
  4  7  1  0
  6  5  1  0
  6  8  1  0
  7  1  1  0
  7  5  1  0
  8  9  1  0
  9 11  1  0
  9 10  1  0
 12  9  1  0
 14 16  1  0
 14 13  1  0
 15 14  1  0
 17 28  2  0
 18 16  1  0
 18 23  1  0
 19 27  1  0
 19 29  1  0
 20 26  1  0
 20 22  1  0
 21 27  1  0
 22 23  2  0
 22 21  1  0
 24 18  2  0
 25 24  1  0
 25 20  2  0
 26 19  1  0
 27 17  1  0
 29 31  2  0
 30 29  1  0
 32 30  1  0
 33 42  2  0
 33 38  1  0
 34 30  1  0
 34 38  1  0
 35 34  1  0
 36 37  1  0
 36 35  1  0
 37 33  1  0
 38 39  2  0
 39 40  1  0
 41 40  2  0
 42 41  1  0
 43 17  1  0
 43 48  1  0
 43 44  1  0
 44 47  1  1
 44 45  1  0
 46 44  1  0
 48 51  1  0
 49 53  1  0
 49 48  1  0
 50 49  2  0
 53 52  1  0
 55 53  1  0
 55 56  1  0
 55 54  1  0
 58 57  1  0
 58 61  1  0
 59 58  1  0
 60 58  1  0
 62 71  1  0
 62 61  2  0
 63 71  1  0
 64 69  1  0
 65 66  1  0
 65 64  1  0
 67 66  1  0
 67 76  1  0
 67 68  1  0
 69 63  1  0
 69 68  1  0
 70 63  2  0
 71 72  1  0
 73 74  2  0
 74 93  1  0
 75 74  1  0
 75 78  1  0
 76 77  1  0
 76 73  1  0
 77 75  2  0
 78 79  1  0
 79 80  2  0
 81 84  1  0
 81 80  1  0
 82 81  2  0
 83 82  1  0
 83 78  2  0
 84 85  1  0
 85 86  1  0
 86 87  2  0
 88 87  1  0
 88 92  1  0
 89 88  2  0
 90 85  2  0
 90 89  1  0
 91 90  1  0
 93 94  1  0
 94 97  1  0
 94 96  1  0
 95 93  2  0
 98 99  1  0
 98 73  1  0
100 98  1  0
M  ISO  4  14 101  16 101  63 100  71 100
M  END
>  <TORSDO>  (38) 
F 25

>  <SCORE>  (38) 
-12.156

>  <name>  (38) 
38

>  <ligand_id>  (38) 
38

>  <original_smiles>  (38) 
[H]c1c([H])c([H])c2c(c1[H])C([H])([H])C([H])([H])C([H])([H])C2([H])N([H])C(=O)C1([H])N(C(=O)C([H])(N([H])C(=O)C([H])(N([H])C([H])([H])[H])C([H])([H])[H])C(C([H])([H])[H])(C([H])([H])[H])C([H])([H])[H])C([H])([H])c2c([H])c(ON([H])C([H])([H])C([H])(N3C([H])([H])C([H])([H])C([H])([H])C([H])(C([H])([H])[N+]([H])([H])[H])C3([H])[H])C([H])([H])[N+]([H])([H])C([H])([H])C([H])([H])N([H])C(=O)N3C([H])([H])C([H])([H])C([H])([H])C([H])(n4nc(-c5c([H])c([H])c(Oc6c([H])c([H])c(F)c([H])c6F)c([H])c5[H])c(C(=O)N([H])[H])c4N([H])[H])C3([H])[H])c([H])c([H])c2C1([H])[H]

>  <smiles>  (38) 
[H]c1c([H])c([H])c2c(c1[H])C([H])([H])C([H])([H])C([H])([H])C2([H])N([H])C(=O)C1([H])N(C(=O)C([H])(N([H])C(=O)C([H])(N([H])C([H])([H])[H])C([H])([H])[H])C(C([H])([H])[H])(C([H])([H])[H])C([H])([H])[H])C([H])([H])c2c([H])c(ON([H])C([H])([H])C([H])(N3C([H])([H])C([H])([H])C([H])([H])C([H])(C([H])([H])[N+]([H])([H])[H])C3([H])[H])C([H])([H])[N+]([H])([H])C([H])([H])C([H])([H])N([H])C(=O)N3C([H])([H])C([H])([H])C([H])([H])C([H])(n4nc(-c5c([H])c([H])c(Oc6c([H])c([H])c(F)c([H])c6F)c([H])c5[H])c(C(=O)N([H])[H])c4N([H])[H])C3([H])[H])c([H])c([H])c2C1([H])[H]

$$$$
39:0:0
     RDKit          3D

 93101  0  0  1  0  0  0  0  0999 V2000
  -29.7100  -21.8430   21.0870 C   0  0  0  0  0  2  0  0  0  0  0  0
  -30.2880  -21.2430   17.9030 C   0  0  0  0  0  2  0  0  0  0  0  0
  -28.9340  -20.5300   18.0720 C   0  0  0  0  0  2  0  0  0  0  0  0
  -31.2190  -20.9420   19.1010 C   0  0  0  0  0  2  0  0  0  0  0  0
  -29.1320  -19.1910   18.7980 C   0  0  0  0  0  2  0  0  0  0  0  0
  -30.4350  -20.5980   20.4010 C   0  0  0  0  0  3  0  0  0  0  0  0
  -29.6000  -19.3700   20.1890 N   0  0  0  0  0  0  0  0  0  0  0  0
  -30.2560  -18.1170   20.6780 C   0  0  0  0  0  2  0  0  0  0  0  0
  -29.4660  -16.7950   20.3760 C   0  0  0  0  0  2  0  0  0  0  0  0
  -30.6090  -14.5500   20.4800 C   0  0  0  0  0  0  0  0  0  0  0  0
  -30.3610  -12.3690   19.3450 C   0  0  0  0  0  2  0  0  0  0  0  0
  -29.4220  -12.5930   18.1410 C   0  0  0  0  0  2  0  0  0  0  0  0
  -27.9450  -12.4390   18.5540 C   0  0  0  0  0  2  0  0  0  0  0  0
  -27.6050  -13.2400   19.8390 C   0  0  0  0  0  3  0  0  0  0  0  0
  -28.6610  -13.0060   20.9460 C   0  0  0  0  0  2  0  0  0  0  0  0
  -29.9890  -13.3360   20.3950 N   0  0  0  0  0  0  0  0  0  0  0  0
  -31.6890  -14.7850   19.9300 O   0  0  0  0  0  0  0  0  0  0  0  0
  -29.8810  -15.5370   21.0460 N   0  0  0  0  0  0  0  0  0  0  0  0
  -29.1870  -15.1910   21.6910 H   0  0  0  0  0  0  0  0  0  0  0  0
  -25.2040  -13.8380   20.5400 C   0  0  0  0  0  0  0  0  0  0  0  0
  -24.1380  -13.0640   20.9150 C   0  0  0  0  0  0  0  0  0  0  0  0
  -24.6000  -11.7120   20.8780 C   0  0  0  0  0  0  0  0  0  0  0  0
  -26.2500  -12.9580   20.3080 N   0  0  0  0  0  0  0  0  0  0  0  0
  -25.8910  -11.6750   20.5680 N   0  0  0  0  0  0  0  0  0  0  0  0
  -23.8760  -10.4500   21.0700 C   0  0  0  0  0  0  0  0  0  0  0  0
  -24.3250   -9.4820   21.9950 C   0  0  0  0  0  3  0  0  0  0  0  0
  -23.6090   -8.2790   22.1750 C   0  0  0  0  0  3  0  0  0  0  0  0
  -22.4300   -8.0370   21.4340 C   0  0  0  0  0  0  0  0  0  0  0  0
  -21.9990   -8.9960   20.4980 C   0  0  0  0  0  3  0  0  0  0  0  0
  -22.7150  -10.1910   20.3160 C   0  0  0  0  0  3  0  0  0  0  0  0
  -21.6790   -6.8910   21.5260 O   0  0  0  0  0  0  0  0  0  0  0  0
  -21.6560   -6.1350   22.6710 C   0  0  0  0  0  0  0  0  0  0  0  0
  -21.2560   -6.6750   23.9130 C   0  0  0  0  0  3  0  0  0  0  0  0
  -21.1780   -5.8450   25.0490 C   0  0  0  0  0  3  0  0  0  0  0  0
  -21.4880   -4.4770   24.9460 C   0  0  0  0  0  0  0  0  0  0  0  0
  -21.8810   -3.9360   23.7080 C   0  0  0  0  0  3  0  0  0  0  0  0
  -21.9630   -4.7630   22.5750 C   0  0  0  0  0  0  0  0  0  0  0  0
  -22.3190   -4.2310   21.3810 F   0  0  0  0  0  0  0  0  0  0  0  0
  -21.4080   -3.6770   26.0340 F   0  0  0  0  0  0  0  0  0  0  0  0
  -22.7390  -13.5350   21.1950 C   0  0  0  0  0  0  0  0  0  0  0  0
  -22.0180  -12.8350   22.0640 N   0  0  0  0  0  0  0  0  0  0  0  0
  -22.2940  -14.5590   20.6790 O   0  0  0  0  0  0  0  0  0  0  0  0
  -22.3970  -12.0160   22.5170 H   0  0  0  0  0  0  0  0  0  0  0  0
  -21.0710  -13.1200   22.2740 H   0  0  0  0  0  0  0  0  0  0  0  0
  -25.3720  -15.2090   20.3570 N   0  0  0  0  0  0  0  0  0  0  0  0
  -24.6110  -15.8710   20.4450 H   0  0  0  0  0  0  0  0  0  0  0  0
  -26.2250  -15.6360   20.0190 H   0  0  0  0  0  0  0  0  0  0  0  0
  -29.3430  -22.9850   20.1850 N   0  0  0  0  0  4  0  0  0  0  0  0
  -28.6580  -22.6330   19.5360 H   0  0  0  0  0  0  0  0  0  0  0  0
  -30.1770  -23.2080   19.6630 H   0  0  0  0  0  0  0  0  0  0  0  0
  -28.8370  -24.2690   20.7810 C   0  0  0  0  0  2  0  0  0  0  0  0
  -28.6280  -25.3900   19.7050 C   0  0  0  0  0  2  0  0  0  0  0  0
  -28.4430  -26.7260   20.2350 O   0  0  0  0  0  0  0  0  0  0  0  0
  -24.5750  -31.8950   23.2370 C   0  0  0  0  0  0  0  0  0  0  0  0
  -27.2370  -27.4140   20.1820 C   0  0  0  0  0  0  0  0  0  0  0  0
  -23.3710  -30.4790   21.6000 C   0  0  0  0  0  3  0  0  0  0  0  0
  -24.8270  -28.9320   20.1840 C   0  0  0  0  0  0  0  0  0  0  0  0
  -25.9000  -30.8280   21.4140 C   0  0  0  0  0  2  0  0  0  0  0  0
  -25.9850  -29.4550   20.7730 C   0  0  0  0  0  0  0  0  0  0  0  0
  -27.1820  -28.7020   20.7720 C   0  0  0  0  0  3  0  0  0  0  0  0
  -26.0550  -26.9110   19.5840 C   0  0  0  0  0  3  0  0  0  0  0  0
  -24.8610  -27.6590   19.5910 C   0  0  0  0  0  3  0  0  0  0  0  0
  -23.5820  -29.7870   20.2270 C   0  0  0  0  0  2  0  0  0  0  0  0
  -24.6310  -31.0870   22.1390 N   0  0  0  0  0  0  0  0  0  0  0  0
  -23.4930  -32.1690   23.7750 O   0  0  0  0  0  0  0  0  0  0  0  0
  -22.7210  -29.4640   22.5660 C   0  0  0  0  0  0  0  0  0  0  0  0
  -21.3980  -29.2800   22.4370 N   0  0  0  0  0  0  0  0  0  0  0  0
  -23.4050  -28.8420   23.3840 O   0  0  0  0  0  0  0  0  0  0  0  0
  -20.9050  -29.8350   21.7490 H   0  0  0  0  0  0  0  0  0  0  0  0
  -18.0290  -28.0710   22.9240 C   0  0  0  0  0  0  0  0  0  0  0  0
  -20.5830  -28.3400   23.2050 C   0  0  0  0  0  3  0  0  0  0  0  0
  -20.6950  -26.9070   22.6340 C   0  0  0  0  0  2  0  0  0  0  0  0
  -19.6010  -26.5760   21.6160 C   0  0  0  0  0  2  0  0  0  0  0  0
  -18.2160  -26.7190   22.2550 C   0  0  0  0  0  2  0  0  0  0  0  0
  -19.1420  -28.8400   23.3550 C   0  0  0  0  0  0  0  0  0  0  0  0
  -18.9160  -30.1050   23.9390 C   0  0  0  0  0  3  0  0  0  0  0  0
  -17.6100  -30.6030   24.0940 C   0  0  0  0  0  3  0  0  0  0  0  0
  -16.5100  -29.8300   23.6850 C   0  0  0  0  0  3  0  0  0  0  0  0
  -16.7200  -28.5650   23.1080 C   0  0  0  0  0  3  0  0  0  0  0  0
  -25.8610  -32.5280   23.8530 C   0  0  0  0  0  3  0  0  0  0  0  0
  -25.5530  -33.9260   24.1820 N   0  0  0  0  0  0  0  0  0  0  0  0
  -25.8860  -34.9770   23.4210 C   0  0  0  0  0  0  0  0  0  0  0  0
  -26.5540  -34.8730   22.3890 O   0  0  0  0  0  0  0  0  0  0  0  0
  -24.9600  -34.0850   24.9820 H   0  0  0  0  0  0  0  0  0  0  0  0
  -24.1550  -36.7630   23.0690 C   0  0  0  0  0  1  0  0  0  0  0  0
  -25.3990  -36.3640   23.8770 C   0  0  0  0  0  3  0  0  0  0  0  0
  -27.5320  -37.2530   24.7040 C   0  0  0  0  0  1  0  0  0  0  0  0
  -26.4290  -37.4190   23.7610 N   0  0  0  0  0  0  0  0  0  0  0  0
  -26.0220  -38.3380   23.9140 H   0  0  0  0  0  0  0  0  0  0  0  0
  -26.3870  -31.7620   25.1300 C   0  0  1  0  0  0  0  0  0  0  0  0
  -25.2950  -31.5220   26.2000 C   0  0  0  0  0  1  0  0  0  0  0  0
  -26.9690  -30.3840   24.7400 C   0  0  0  0  0  1  0  0  0  0  0  0
  -27.5390  -32.5600   25.7860 C   0  0  0  0  0  1  0  0  0  0  0  0
  2  3  1  0
  2  4  1  0
  3  5  1  0
  4  6  1  0
  5  7  1  0
  6  1  1  0
  7  6  1  0
  7  8  1  0
  9  8  1  0
  9 18  1  0
 10 18  1  0
 11 16  1  0
 12 13  1  0
 12 11  1  0
 14 13  1  0
 14 23  1  0
 14 15  1  0
 16 10  1  0
 16 15  1  0
 17 10  2  0
 18 19  1  0
 20 21  2  0
 21 40  1  0
 22 21  1  0
 22 25  1  0
 23 20  1  0
 23 24  1  0
 24 22  2  0
 25 26  1  0
 26 27  2  0
 28 31  1  0
 28 27  1  0
 29 28  2  0
 30 29  1  0
 30 25  2  0
 31 32  1  0
 32 33  1  0
 33 34  2  0
 35 34  1  0
 35 39  1  0
 36 35  2  0
 37 32  2  0
 37 36  1  0
 38 37  1  0
 40 41  1  0
 41 44  1  0
 41 43  1  0
 42 40  2  0
 45 46  1  0
 45 20  1  0
 47 45  1  0
 48 51  1  0
 48  1  1  0
 49 48  1  0
 50 48  1  0
 52 53  1  0
 52 51  1  0
 54 65  2  0
 55 53  1  0
 55 60  1  0
 56 64  1  0
 56 66  1  0
 57 63  1  0
 57 59  1  0
 58 64  1  0
 59 58  1  0
 60 59  2  0
 61 62  1  0
 61 55  2  0
 62 57  2  0
 63 56  1  0
 64 54  1  0
 66 68  2  0
 67 66  1  0
 69 67  1  0
 70 79  2  0
 70 75  1  0
 71 67  1  0
 71 75  1  0
 72 71  1  0
 73 74  1  0
 73 72  1  0
 74 70  1  0
 75 76  2  0
 76 77  1  0
 78 77  2  0
 79 78  1  0
 80 54  1  0
 80 81  1  0
 80 90  1  0
 81 84  1  0
 82 86  1  0
 82 81  1  0
 83 82  2  0
 86 85  1  0
 88 86  1  0
 88 89  1  0
 88 87  1  0
 90 93  1  1
 90 91  1  0
 92 90  1  0
M  ISO  4  10 100  18 100  52 101  53 101
M  END
>  <TORSDO>  (39) 
F 22

>  <SCORE>  (39) 
-13.215

>  <name>  (39) 
39

>  <ligand_id>  (39) 
39

>  <original_smiles>  (39) 
[H]c1c([H])c([H])c2c(c1[H])C([H])([H])C([H])([H])C([H])([H])C2([H])N([H])C(=O)C1([H])N(C(=O)C([H])(N([H])C(=O)C([H])(N([H])C([H])([H])[H])C([H])([H])[H])C(C([H])([H])[H])(C([H])([H])[H])C([H])([H])[H])C([H])([H])c2c([H])c(OC([H])([H])C([H])([H])[N+]([H])([H])C([H])([H])C3([H])N(C([H])([H])C([H])([H])N([H])C(=O)N4C([H])([H])C([H])([H])C([H])([H])C([H])(n5nc(-c6c([H])c([H])c(Oc7c([H])c([H])c(F)c([H])c7F)c([H])c6[H])c(C(=O)N([H])[H])c5N([H])[H])C4([H])[H])C([H])([H])C([H])([H])C([H])([H])C3([H])[H])c([H])c([H])c2C1([H])[H]

>  <smiles>  (39) 
[H]c1c([H])c([H])c2c(c1[H])C([H])([H])C([H])([H])C([H])([H])C2([H])N([H])C(=O)C1([H])N(C(=O)C([H])(N([H])C(=O)C([H])(N([H])C([H])([H])[H])C([H])([H])[H])C(C([H])([H])[H])(C([H])([H])[H])C([H])([H])[H])C([H])([H])c2c([H])c(OC([H])([H])C([H])([H])[N+]([H])([H])C([H])([H])C3([H])N(C([H])([H])C([H])([H])N([H])C(=O)N4C([H])([H])C([H])([H])C([H])([H])C([H])(n5nc(-c6c([H])c([H])c(Oc7c([H])c([H])c(F)c([H])c7F)c([H])c6[H])c(C(=O)N([H])[H])c5N([H])[H])C4([H])[H])C([H])([H])C([H])([H])C([H])([H])C3([H])[H])c([H])c([H])c2C1([H])[H]

$$$$
40:0:0
     RDKit          3D

105112  0  0  1  0  0  0  0  0999 V2000
  -30.7380  -14.8380   20.3870 C   0  0  0  0  0  0  0  0  0  0  0  0
  -30.6130  -12.4980   19.5520 C   0  0  0  0  0  2  0  0  0  0  0  0
  -29.7430  -12.4410   18.2810 C   0  0  0  0  0  2  0  0  0  0  0  0
  -28.2490  -12.2910   18.6450 C   0  0  0  0  0  2  0  0  0  0  0  0
  -27.7930  -13.2370   19.7900 C   0  0  0  0  0  3  0  0  0  0  0  0
  -28.8010  -13.2840   20.9540 C   0  0  0  0  0  2  0  0  0  0  0  0
  -30.1100  -13.6130   20.3770 N   0  0  0  0  0  0  0  0  0  0  0  0
  -31.9680  -14.8990   20.3210 O   0  0  0  0  0  0  0  0  0  0  0  0
  -29.9770  -15.9960   20.1820 N   0  0  0  0  0  0  0  0  0  0  0  0
  -25.4010  -13.8670   20.4840 C   0  0  0  0  0  0  0  0  0  0  0  0
  -24.2990  -13.1070   20.7440 C   0  0  0  0  0  0  0  0  0  0  0  0
  -24.7240  -11.7480   20.6350 C   0  0  0  0  0  0  0  0  0  0  0  0
  -26.4290  -12.9710   20.2220 N   0  0  0  0  0  0  0  0  0  0  0  0
  -26.0250  -11.6880   20.3770 N   0  0  0  0  0  0  0  0  0  0  0  0
  -23.9590  -10.5000   20.6980 C   0  0  0  0  0  0  0  0  0  0  0  0
  -24.3830   -9.4150   21.4950 C   0  0  0  0  0  3  0  0  0  0  0  0
  -23.6180   -8.2310   21.5570 C   0  0  0  0  0  3  0  0  0  0  0  0
  -22.4120   -8.1260   20.8230 C   0  0  0  0  0  0  0  0  0  0  0  0
  -22.0070   -9.2020   20.0120 C   0  0  0  0  0  3  0  0  0  0  0  0
  -22.7730  -10.3760   19.9470 C   0  0  0  0  0  3  0  0  0  0  0  0
  -21.6230   -7.0040   20.8010 O   0  0  0  0  0  0  0  0  0  0  0  0
  -21.6600   -6.0790   21.8140 C   0  0  0  0  0  0  0  0  0  0  0  0
  -21.4250   -6.4380   23.1600 C   0  0  0  0  0  3  0  0  0  0  0  0
  -21.4070   -5.4440   24.1610 C   0  0  0  0  0  3  0  0  0  0  0  0
  -21.6150   -4.0950   23.8170 C   0  0  0  0  0  0  0  0  0  0  0  0
  -21.8440   -3.7360   22.4760 C   0  0  0  0  0  3  0  0  0  0  0  0
  -21.8630   -4.7270   21.4780 C   0  0  0  0  0  0  0  0  0  0  0  0
  -22.0630   -4.3730   20.1860 F   0  0  0  0  0  0  0  0  0  0  0  0
  -21.5890   -3.1400   24.7760 F   0  0  0  0  0  0  0  0  0  0  0  0
  -22.9070  -13.6130   20.9910 C   0  0  0  0  0  0  0  0  0  0  0  0
  -22.1240  -12.8910   21.7840 N   0  0  0  0  0  0  0  0  0  0  0  0
  -22.5200  -14.6800   20.5140 O   0  0  0  0  0  0  0  0  0  0  0  0
  -22.4420  -12.0230   22.1870 H   0  0  0  0  0  0  0  0  0  0  0  0
  -21.1880  -13.2130   21.9800 H   0  0  0  0  0  0  0  0  0  0  0  0
  -25.6000  -15.2410   20.4280 N   0  0  0  0  0  0  0  0  0  0  0  0
  -24.8390  -15.8980   20.5450 H   0  0  0  0  0  0  0  0  0  0  0  0
  -26.4880  -15.6780   20.2250 H   0  0  0  0  0  0  0  0  0  0  0  0
  -30.1560  -17.2990   20.9540 C   0  0  0  0  0  2  0  0  0  0  0  0
  -30.2900  -18.7310   20.2150 C   0  0  0  0  0  2  0  0  0  0  0  0
  -29.6240  -20.0170   20.8950 C   0  0  0  0  0  3  0  0  0  0  0  0
  -29.7580  -21.4350   20.1610 C   0  0  0  0  0  3  0  0  0  0  0  0
  -28.9860  -22.6100   20.7490 N   0  0  0  0  0  4  0  0  0  0  0  0
  -29.1510  -22.6210   21.7450 H   0  0  0  0  0  0  0  0  0  0  0  0
  -28.0070  -22.4180   20.6190 H   0  0  0  0  0  0  0  0  0  0  0  0
  -29.2500  -24.0130   20.2030 C   0  0  0  0  0  3  0  0  0  0  0  0
  -28.2780  -25.1770   20.7050 C   0  0  0  0  0  3  0  0  0  0  0  0
  -28.5380  -26.5850   20.3090 O   0  0  0  0  0  0  0  0  0  0  0  0
  -24.9090  -31.9020   23.5910 C   0  0  0  0  0  0  0  0  0  0  0  0
  -27.4500  -27.4700   20.3110 C   0  0  0  0  0  0  0  0  0  0  0  0
  -23.7040  -30.6620   21.8270 C   0  0  0  0  0  3  0  0  0  0  0  0
  -25.1420  -29.1610   20.3360 C   0  0  0  0  0  0  0  0  0  0  0  0
  -26.2560  -30.9020   21.7330 C   0  0  0  0  0  2  0  0  0  0  0  0
  -26.3070  -29.5650   21.0020 C   0  0  0  0  0  0  0  0  0  0  0  0
  -27.4650  -28.7330   20.9830 C   0  0  0  0  0  3  0  0  0  0  0  0
  -26.2720  -27.1260   19.6080 C   0  0  0  0  0  3  0  0  0  0  0  0
  -25.1310  -27.9500   19.6260 C   0  0  0  0  0  3  0  0  0  0  0  0
  -23.9340  -30.0750   20.4100 C   0  0  0  0  0  2  0  0  0  0  0  0
  -24.9740  -31.1680   22.4420 N   0  0  0  0  0  0  0  0  0  0  0  0
  -23.8230  -32.1810   24.1170 O   0  0  0  0  0  0  0  0  0  0  0  0
  -22.9810  -29.6060   22.6970 C   0  0  0  0  0  0  0  0  0  0  0  0
  -21.6510  -29.4960   22.5350 N   0  0  0  0  0  0  0  0  0  0  0  0
  -23.6160  -28.8910   23.4750 O   0  0  0  0  0  0  0  0  0  0  0  0
  -21.2040  -30.1270   21.8870 H   0  0  0  0  0  0  0  0  0  0  0  0
  -18.2210  -28.4000   22.8650 C   0  0  0  0  0  0  0  0  0  0  0  0
  -20.7780  -28.5400   23.2160 C   0  0  0  0  0  3  0  0  0  0  0  0
  -20.8400  -27.1470   22.5450 C   0  0  0  0  0  2  0  0  0  0  0  0
  -19.7540  -26.9390   21.4830 C   0  0  0  0  0  2  0  0  0  0  0  0
  -18.3620  -27.0920   22.1060 C   0  0  0  0  0  2  0  0  0  0  0  0
  -19.3540  -29.0880   23.3740 C   0  0  0  0  0  0  0  0  0  0  0  0
  -19.1660  -30.3170   24.0400 C   0  0  0  0  0  3  0  0  0  0  0  0
  -17.8760  -30.8550   24.2070 C   0  0  0  0  0  3  0  0  0  0  0  0
  -16.7560  -30.1630   23.7170 C   0  0  0  0  0  3  0  0  0  0  0  0
  -16.9300  -28.9380   23.0490 C   0  0  0  0  0  3  0  0  0  0  0  0
  -26.1960  -32.4450   24.2860 C   0  0  0  0  0  3  0  0  0  0  0  0
  -25.9270  -33.8290   24.7030 N   0  0  0  0  0  0  0  0  0  0  0  0
  -26.3110  -34.9170   24.0240 C   0  0  0  0  0  0  0  0  0  0  0  0
  -26.9990  -34.8610   23.0000 O   0  0  0  0  0  0  0  0  0  0  0  0
  -25.3230  -33.9520   25.5050 H   0  0  0  0  0  0  0  0  0  0  0  0
  -24.6440  -36.7840   23.7640 C   0  0  0  0  0  1  0  0  0  0  0  0
  -25.8610  -36.2890   24.5630 C   0  0  0  0  0  3  0  0  0  0  0  0
  -28.0090  -37.0460   25.4770 C   0  0  0  0  0  1  0  0  0  0  0  0
  -26.9270  -37.3130   24.5340 N   0  0  0  0  0  0  0  0  0  0  0  0
  -26.5480  -38.2340   24.7390 H   0  0  0  0  0  0  0  0  0  0  0  0
  -26.6490  -31.5710   25.5200 C   0  0  1  0  0  0  0  0  0  0  0  0
  -25.5210  -31.3120   26.5440 C   0  0  0  0  0  1  0  0  0  0  0  0
  -27.1850  -30.1990   25.0510 C   0  0  0  0  0  1  0  0  0  0  0  0
  -27.8140  -32.2710   26.2590 C   0  0  0  0  0  1  0  0  0  0  0  0
  -29.3980  -16.2500   18.8350 C   0  0  0  0  0  2  0  0  0  0  0  0
  -28.2930  -17.3490   18.8300 C   0  0  0  0  0  2  0  0  0  0  0  0
  -28.2320  -18.3360   17.6430 C   0  0  0  0  0  2  0  0  0  0  0  0
  -26.8930  -19.1060   17.5990 C   0  0  0  0  0  2  0  0  0  0  0  0
  -25.8400  -21.0810   18.7640 C   0  0  0  0  0  0  0  0  0  0  0  0
  -24.6060  -20.7520   18.3390 N   0  0  0  0  0  4  0  0  0  0  0  0
  -26.9040  -20.3170   18.4430 N   0  0  0  0  0  0  0  0  0  0  0  0
  -23.8010  -21.3070   18.5820 H   0  0  0  0  0  0  0  0  0  0  0  0
  -24.4280  -19.9310   17.7770 H   0  0  0  0  0  0  0  0  0  0  0  0
  -27.8130  -20.6390   18.7420 H   0  0  0  0  0  0  0  0  0  0  0  0
  -26.0480  -22.3090   19.6170 C   0  0  0  0  0  2  0  0  0  0  0  0
  -25.3520  -23.5480   19.0160 C   0  0  0  0  0  2  0  0  0  0  0  0
  -23.9860  -23.8800   19.6500 C   0  0  0  0  0  2  0  0  0  0  0  0
  -23.2200  -24.9740   18.8760 C   0  0  0  0  0  2  0  0  0  0  0  0
  -21.9240  -25.2970   19.4920 N   0  0  0  0  0  4  0  0  0  0  0  0
  -21.3310  -24.4870   19.5310 H   0  0  0  0  0  0  0  0  0  0  0  0
  -21.4590  -25.9970   18.9400 H   0  0  0  0  0  0  0  0  0  0  0  0
  -22.0390  -25.6630   20.4210 H   0  0  0  0  0  0  0  0  0  0  0  0
  2  7  1  0
  3  4  1  0
  3  2  1  0
  5  4  1  0
  5 13  1  0
  5  6  1  0
  7  1  1  0
  7  6  1  0
  8  1  2  0
  9  1  1  0
  9 38  1  0
 10 11  2  0
 11 30  1  0
 12 15  1  0
 12 11  1  0
 13 14  1  0
 13 10  1  0
 14 12  2  0
 15 16  1  0
 16 17  2  0
 18 17  1  0
 19 18  2  0
 20 19  1  0
 20 15  2  0
 21 18  1  0
 21 22  1  0
 22 23  1  0
 23 24  2  0
 25 24  1  0
 25 29  1  0
 26 25  2  0
 27 22  2  0
 27 26  1  0
 28 27  1  0
 30 31  1  0
 31 34  1  0
 31 33  1  0
 32 30  2  0
 35 10  1  0
 35 36  1  0
 37 35  1  0
 39 40  1  0
 39 38  1  0
 41 42  1  0
 41 40  2  0
 42 43  1  0
 44 42  1  0
 45 46  2  0
 45 42  1  0
 47 49  1  0
 47 46  1  0
 48 59  2  0
 49 54  1  0
 50 58  1  0
 50 60  1  0
 51 57  1  0
 51 53  1  0
 52 58  1  0
 53 52  1  0
 54 53  2  0
 55 56  1  0
 55 49  2  0
 56 51  2  0
 57 50  1  0
 58 48  1  0
 60 62  2  0
 61 60  1  0
 63 61  1  0
 64 73  2  0
 64 69  1  0
 65 61  1  0
 65 69  1  0
 66 65  1  0
 67 68  1  0
 67 66  1  0
 68 64  1  0
 69 70  2  0
 70 71  1  0
 72 71  2  0
 73 72  1  0
 74 48  1  0
 74 75  1  0
 74 84  1  0
 75 78  1  0
 76 80  1  0
 76 75  1  0
 77 76  2  0
 80 79  1  0
 82 80  1  0
 82 83  1  0
 82 81  1  0
 84 87  1  1
 84 85  1  0
 86 84  1  0
 88  9  1  0
 89 88  1  0
 90 89  1  0
 91 90  1  0
 91 94  1  0
 92 98  1  0
 93 95  1  0
 93 92  2  0
 94 97  1  0
 94 92  1  0
 96 93  1  0
 99 98  1  0
 99100  1  0
101102  1  0
101100  1  0
102103  1  0
102105  1  0
104102  1  0
M  ISO  4   1 100   9 100  46 101  47 101
M  END
>  <TORSDO>  (40) 
F 32

>  <SCORE>  (40) 
-9.648

>  <name>  (40) 
40

>  <ligand_id>  (40) 
40

>  <original_smiles>  (40) 
[H]c1c([H])c([H])c2c(c1[H])C([H])([H])C([H])([H])C([H])([H])C2([H])N([H])C(=O)C1([H])N(C(=O)C([H])(N([H])C(=O)C([H])(N([H])C([H])([H])[H])C([H])([H])[H])C(C([H])([H])[H])(C([H])([H])[H])C([H])([H])[H])C([H])([H])c2c([H])c(OC([H])([H])C([H])([H])[N+]([H])([H])C([H])([H])C([H])([H])C([H])([H])C([H])([H])N(C(=O)N3C([H])([H])C([H])([H])C([H])([H])C([H])(n4nc(-c5c([H])c([H])c(Oc6c([H])c([H])c(F)c([H])c6F)c([H])c5[H])c(C(=O)N([H])[H])c4N([H])[H])C3([H])[H])C([H])([H])C([H])([H])C([H])([H])C([H])([H])[N+]([H])=C(N([H])[H])C([H])([H])C([H])([H])C([H])([H])C([H])([H])[N+]([H])([H])[H])c([H])c([H])c2C1([H])[H]

>  <smiles>  (40) 
[H]c1c([H])c([H])c2c(c1[H])C([H])([H])C([H])([H])C([H])([H])C2([H])N([H])C(=O)C1([H])N(C(=O)C([H])(N([H])C(=O)C([H])(N([H])C([H])([H])[H])C([H])([H])[H])C(C([H])([H])[H])(C([H])([H])[H])C([H])([H])[H])C([H])([H])c2c([H])c(OC([H])([H])C([H])([H])[N+]([H])([H])C([H])([H])C([H])([H])C([H])([H])C([H])([H])N(C(=O)N3C([H])([H])C([H])([H])C([H])([H])C([H])(n4nc(-c5c([H])c([H])c(Oc6c([H])c([H])c(F)c([H])c6F)c([H])c5[H])c(C(=O)N([H])[H])c4N([H])[H])C3([H])[H])C([H])([H])C([H])([H])C([H])([H])C([H])([H])[N+]([H])=C(N([H])[H])C([H])([H])C([H])([H])C([H])([H])C([H])([H])[N+]([H])([H])[H])c([H])c([H])c2C1([H])[H]

$$$$
41:0:0
     RDKit          3D

 99106  0  0  1  0  0  0  0  0999 V2000
  -30.2660  -19.5480   20.4980 N   0  0  0  0  0  0  0  0  0  0  0  0
  -31.7380  -19.6390   20.5100 C   0  0  0  0  0  2  0  0  0  0  0  0
  -32.2130  -20.2110   21.8540 C   0  0  0  0  0  2  0  0  0  0  0  0
  -33.7190  -20.0040   22.0820 C   0  0  0  0  0  2  0  0  0  0  0  0
  -34.4920  -20.5520   20.9160 C   0  0  0  0  0  0  0  0  0  0  0  0
  -35.1070  -19.7110   20.0710 N   0  0  0  0  0  4  0  0  0  0  0  0
  -34.5400  -21.8760   20.7140 N   0  0  0  0  0  0  0  0  0  0  0  0
  -35.0900  -18.7120   20.2360 H   0  0  0  0  0  0  0  0  0  0  0  0
  -35.6400  -20.0140   19.2690 H   0  0  0  0  0  0  0  0  0  0  0  0
  -34.0990  -22.5070   21.3690 H   0  0  0  0  0  0  0  0  0  0  0  0
  -35.0510  -22.3040   19.9540 H   0  0  0  0  0  0  0  0  0  0  0  0
  -29.8620  -18.1510   20.1540 C   0  0  0  0  0  3  0  0  0  0  0  0
  -30.3080  -17.0450   21.1910 C   0  0  0  0  0  3  0  0  0  0  0  0
  -30.6490  -14.6030   20.4820 C   0  0  0  0  0  0  0  0  0  0  0  0
  -30.4140  -12.4100   19.3520 C   0  0  0  0  0  2  0  0  0  0  0  0
  -29.4720  -12.5670   18.1390 C   0  0  0  0  0  2  0  0  0  0  0  0
  -27.9970  -12.4150   18.5610 C   0  0  0  0  0  2  0  0  0  0  0  0
  -27.6400  -13.2610   19.8140 C   0  0  0  0  0  3  0  0  0  0  0  0
  -28.6920  -13.0720   20.9270 C   0  0  0  0  0  2  0  0  0  0  0  0
  -30.0060  -13.4060   20.3580 N   0  0  0  0  0  0  0  0  0  0  0  0
  -31.8070  -14.7730   20.0920 O   0  0  0  0  0  0  0  0  0  0  0  0
  -29.8890  -15.6450   20.9070 N   0  0  0  0  0  0  0  0  0  0  0  0
  -28.9350  -15.4130   21.1440 H   0  0  0  0  0  0  0  0  0  0  0  0
  -25.2370  -13.8550   20.5080 C   0  0  0  0  0  0  0  0  0  0  0  0
  -24.1710  -13.0780   20.8740 C   0  0  0  0  0  0  0  0  0  0  0  0
  -24.6410  -11.7290   20.8530 C   0  0  0  0  0  0  0  0  0  0  0  0
  -26.2890  -12.9780   20.2870 N   0  0  0  0  0  0  0  0  0  0  0  0
  -25.9340  -11.6950   20.5560 N   0  0  0  0  0  0  0  0  0  0  0  0
  -23.9220  -10.4640   21.0420 C   0  0  0  0  0  0  0  0  0  0  0  0
  -24.3570   -9.4980   21.9770 C   0  0  0  0  0  3  0  0  0  0  0  0
  -23.6380   -8.2970   22.1540 C   0  0  0  0  0  3  0  0  0  0  0  0
  -22.4670   -8.0530   21.3970 C   0  0  0  0  0  0  0  0  0  0  0  0
  -22.0500   -9.0060   20.4520 C   0  0  0  0  0  3  0  0  0  0  0  0
  -22.7720  -10.2000   20.2730 C   0  0  0  0  0  3  0  0  0  0  0  0
  -21.7190   -6.9040   21.4840 O   0  0  0  0  0  0  0  0  0  0  0  0
  -21.6760   -6.1570   22.6340 C   0  0  0  0  0  0  0  0  0  0  0  0
  -21.2500   -6.7060   23.8630 C   0  0  0  0  0  3  0  0  0  0  0  0
  -21.1560   -5.8860   25.0040 C   0  0  0  0  0  3  0  0  0  0  0  0
  -21.4770   -4.5180   24.9190 C   0  0  0  0  0  0  0  0  0  0  0  0
  -21.8960   -3.9690   23.6940 C   0  0  0  0  0  3  0  0  0  0  0  0
  -21.9920   -4.7860   22.5540 C   0  0  0  0  0  0  0  0  0  0  0  0
  -22.3760   -4.2480   21.3710 F   0  0  0  0  0  0  0  0  0  0  0  0
  -21.3790   -3.7280   26.0130 F   0  0  0  0  0  0  0  0  0  0  0  0
  -22.7690  -13.5470   21.1320 C   0  0  0  0  0  0  0  0  0  0  0  0
  -22.0390  -12.8500   21.9940 N   0  0  0  0  0  0  0  0  0  0  0  0
  -22.3300  -14.5680   20.6030 O   0  0  0  0  0  0  0  0  0  0  0  0
  -22.4080  -12.0240   22.4410 H   0  0  0  0  0  0  0  0  0  0  0  0
  -21.0980  -13.1450   22.2110 H   0  0  0  0  0  0  0  0  0  0  0  0
  -25.3960  -15.2250   20.3250 N   0  0  0  0  0  0  0  0  0  0  0  0
  -24.6200  -15.8720   20.4150 H   0  0  0  0  0  0  0  0  0  0  0  0
  -26.2390  -15.6670   19.9800 H   0  0  0  0  0  0  0  0  0  0  0  0
  -29.7140  -20.5890   19.5760 C   0  0  0  0  0  2  0  0  0  0  0  0
  -28.5280  -21.4820   20.0870 C   0  0  0  0  0  2  0  0  0  0  0  0
  -28.8980  -22.8200   20.6630 N   0  0  0  0  0  4  0  0  0  0  0  0
  -29.8900  -22.8350   20.8310 H   0  0  0  0  0  0  0  0  0  0  0  0
  -28.4560  -22.8440   21.5700 H   0  0  0  0  0  0  0  0  0  0  0  0
  -28.4790  -24.0710   19.9220 C   0  0  0  0  0  2  0  0  0  0  0  0
  -28.3670  -25.3530   20.8310 C   0  0  0  0  0  2  0  0  0  0  0  0
  -28.3860  -26.6530   20.1720 O   0  0  0  0  0  0  0  0  0  0  0  0
  -24.5730  -31.9070   23.2400 C   0  0  0  0  0  0  0  0  0  0  0  0
  -27.2270  -27.4120   20.1980 C   0  0  0  0  0  0  0  0  0  0  0  0
  -23.3780  -30.5020   21.5920 C   0  0  0  0  0  3  0  0  0  0  0  0
  -24.8400  -28.9520   20.1800 C   0  0  0  0  0  0  0  0  0  0  0  0
  -25.9080  -30.8470   21.4120 C   0  0  0  0  0  2  0  0  0  0  0  0
  -25.9990  -29.4710   20.7750 C   0  0  0  0  0  0  0  0  0  0  0  0
  -27.1970  -28.7110   20.7720 C   0  0  0  0  0  3  0  0  0  0  0  0
  -26.0500  -26.9160   19.5990 C   0  0  0  0  0  3  0  0  0  0  0  0
  -24.8640  -27.6770   19.5890 C   0  0  0  0  0  3  0  0  0  0  0  0
  -23.5980  -29.8190   20.2160 C   0  0  0  0  0  2  0  0  0  0  0  0
  -24.6370  -31.1020   22.1390 N   0  0  0  0  0  0  0  0  0  0  0  0
  -23.4890  -32.1810   23.7720 O   0  0  0  0  0  0  0  0  0  0  0  0
  -22.7170  -29.4850   22.5510 C   0  0  0  0  0  0  0  0  0  0  0  0
  -21.3910  -29.3140   22.4250 N   0  0  0  0  0  0  0  0  0  0  0  0
  -23.3950  -28.8530   23.3650 O   0  0  0  0  0  0  0  0  0  0  0  0
  -20.9050  -29.8740   21.7390 H   0  0  0  0  0  0  0  0  0  0  0  0
  -18.0050  -28.1540   22.9340 C   0  0  0  0  0  0  0  0  0  0  0  0
  -20.5670  -28.3800   23.1920 C   0  0  0  0  0  3  0  0  0  0  0  0
  -20.6500  -26.9530   22.6020 C   0  0  0  0  0  2  0  0  0  0  0  0
  -19.5380  -26.6530   21.5910 C   0  0  0  0  0  2  0  0  0  0  0  0
  -18.1610  -26.8090   22.2440 C   0  0  0  0  0  2  0  0  0  0  0  0
  -19.1360  -28.8990   23.3630 C   0  0  0  0  0  0  0  0  0  0  0  0
  -18.9370  -30.1590   23.9690 C   0  0  0  0  0  3  0  0  0  0  0  0
  -17.6410  -30.6750   24.1460 C   0  0  0  0  0  3  0  0  0  0  0  0
  -16.5240  -29.9270   23.7330 C   0  0  0  0  0  3  0  0  0  0  0  0
  -16.7070  -28.6690   23.1330 C   0  0  0  0  0  3  0  0  0  0  0  0
  -25.8560  -32.5370   23.8660 C   0  0  0  0  0  3  0  0  0  0  0  0
  -25.5490  -33.9370   24.1900 N   0  0  0  0  0  0  0  0  0  0  0  0
  -25.8920  -34.9860   23.4300 C   0  0  0  0  0  0  0  0  0  0  0  0
  -26.5690  -34.8760   22.4050 O   0  0  0  0  0  0  0  0  0  0  0  0
  -24.9470  -34.0970   24.9840 H   0  0  0  0  0  0  0  0  0  0  0  0
  -24.1720  -36.7840   23.0490 C   0  0  0  0  0  1  0  0  0  0  0  0
  -25.4030  -36.3780   23.8770 C   0  0  0  0  0  3  0  0  0  0  0  0
  -27.5290  -37.2580   24.7310 C   0  0  0  0  0  1  0  0  0  0  0  0
  -26.4400  -37.4260   23.7740 N   0  0  0  0  0  0  0  0  0  0  0  0
  -26.0340  -38.3480   23.9130 H   0  0  0  0  0  0  0  0  0  0  0  0
  -26.3640  -31.7700   25.1480 C   0  0  1  0  0  0  0  0  0  0  0  0
  -25.2640  -31.5380   26.2120 C   0  0  0  0  0  1  0  0  0  0  0  0
  -26.9480  -30.3900   24.7620 C   0  0  0  0  0  1  0  0  0  0  0  0
  -27.5120  -32.5660   25.8160 C   0  0  0  0  0  1  0  0  0  0  0  0
  1  2  1  0
  2  3  1  0
  3  4  1  0
  5  4  1  0
  6  8  1  0
  6  5  2  0
  7  5  1  0
  7 10  1  0
  9  6  1  0
 11  7  1  0
 12  1  1  0
 12 13  2  0
 14 22  1  0
 15 20  1  0
 16 17  1  0
 16 15  1  0
 18 17  1  0
 18 27  1  0
 18 19  1  0
 20 14  1  0
 20 19  1  0
 21 14  2  0
 22 23  1  0
 22 13  1  0
 24 25  2  0
 25 44  1  0
 26 25  1  0
 26 29  1  0
 27 24  1  0
 27 28  1  0
 28 26  2  0
 29 30  1  0
 30 31  2  0
 32 35  1  0
 32 31  1  0
 33 32  2  0
 34 33  1  0
 34 29  2  0
 35 36  1  0
 36 37  1  0
 37 38  2  0
 39 38  1  0
 39 43  1  0
 40 39  2  0
 41 36  2  0
 41 40  1  0
 42 41  1  0
 44 45  1  0
 45 48  1  0
 45 47  1  0
 46 44  2  0
 49 50  1  0
 49 24  1  0
 51 49  1  0
 52 53  1  0
 52  1  1  0
 53 54  1  0
 54 55  1  0
 54 56  1  0
 57 54  1  0
 57 58  1  0
 59 61  1  0
 59 58  1  0
 60 71  2  0
 61 66  1  0
 62 70  1  0
 62 72  1  0
 63 69  1  0
 63 65  1  0
 64 70  1  0
 65 64  1  0
 66 65  2  0
 67 61  2  0
 68 67  1  0
 68 63  2  0
 69 62  1  0
 70 60  1  0
 72 74  2  0
 73 72  1  0
 75 73  1  0
 76 85  2  0
 76 81  1  0
 77 73  1  0
 77 81  1  0
 78 77  1  0
 79 80  1  0
 79 78  1  0
 80 76  1  0
 81 82  2  0
 82 83  1  0
 84 83  2  0
 85 84  1  0
 86 60  1  0
 86 87  1  0
 86 96  1  0
 87 90  1  0
 88 92  1  0
 88 87  1  0
 89 88  2  0
 92 91  1  0
 94 92  1  0
 94 95  1  0
 94 93  1  0
 96 99  1  1
 96 97  1  0
 98 96  1  0
M  ISO  4  14 100  22 100  58 101  59 101
M  END
>  <TORSDO>  (41) 
F 27

>  <SCORE>  (41) 
-11.974

>  <name>  (41) 
41

>  <ligand_id>  (41) 
41

>  <original_smiles>  (41) 
[H]c1c([H])c([H])c2c(c1[H])C([H])([H])C([H])([H])C([H])([H])C2([H])N([H])C(=O)C1([H])N(C(=O)C([H])(N([H])C(=O)C([H])(N([H])C([H])([H])[H])C([H])([H])[H])C(C([H])([H])[H])(C([H])([H])[H])C([H])([H])[H])C([H])([H])c2c([H])c(OC([H])([H])C([H])([H])[N+]([H])([H])C([H])([H])C([H])([H])N(C([H])([H])C([H])([H])N([H])C(=O)N3C([H])([H])C([H])([H])C([H])([H])C([H])(n4nc(-c5c([H])c([H])c(Oc6c([H])c([H])c(F)c([H])c6F)c([H])c5[H])c(C(=O)N([H])[H])c4N([H])[H])C3([H])[H])C([H])([H])C([H])([H])C([H])([H])C(N([H])[H])=[N+]([H])[H])c([H])c([H])c2C1([H])[H]

>  <smiles>  (41) 
[H]c1c([H])c([H])c2c(c1[H])C([H])([H])C([H])([H])C([H])([H])C2([H])N([H])C(=O)C1([H])N(C(=O)C([H])(N([H])C(=O)C([H])(N([H])C([H])([H])[H])C([H])([H])[H])C(C([H])([H])[H])(C([H])([H])[H])C([H])([H])[H])C([H])([H])c2c([H])c(OC([H])([H])C([H])([H])[N+]([H])([H])C([H])([H])C([H])([H])N(C([H])([H])C([H])([H])N([H])C(=O)N3C([H])([H])C([H])([H])C([H])([H])C([H])(n4nc(-c5c([H])c([H])c(Oc6c([H])c([H])c(F)c([H])c6F)c([H])c5[H])c(C(=O)N([H])[H])c4N([H])[H])C3([H])[H])C([H])([H])C([H])([H])C([H])([H])C(N([H])[H])=[N+]([H])[H])c([H])c([H])c2C1([H])[H]

$$$$
42:0:0
     RDKit          3D

 97105  0  0  1  0  0  0  0  0999 V2000
  -29.5020  -22.9000   19.7040 N   0  0  0  0  0  4  0  0  0  0  0  0
  -28.7260  -22.7570   19.0790 H   0  0  0  0  0  0  0  0  0  0  0  0
  -30.3510  -22.9450   19.1530 H   0  0  0  0  0  0  0  0  0  0  0  0
  -29.7070  -21.7100   20.5980 C   0  0  0  0  0  2  0  0  0  0  0  0
  -28.5020  -20.2320   17.9370 C   0  0  0  0  0  2  0  0  0  0  0  0
  -27.6280  -19.7240   19.0980 C   0  0  0  0  0  2  0  0  0  0  0  0
  -29.9820  -20.3350   18.3410 C   0  0  0  0  0  2  0  0  0  0  0  0
  -28.3650  -18.6690   19.9460 C   0  0  0  0  0  2  0  0  0  0  0  0
  -30.1980  -20.3800   19.8740 C   0  0  0  0  0  3  0  0  0  0  0  0
  -29.6700  -19.1140   20.4780 N   0  0  0  0  0  0  0  0  0  0  0  0
  -30.6100  -17.9630   20.3900 C   0  0  0  0  0  2  0  0  0  0  0  0
  -30.4480  -16.8650   21.4920 C   0  0  0  0  0  2  0  0  0  0  0  0
  -30.6620  -14.5290   20.4850 C   0  0  0  0  0  0  0  0  0  0  0  0
  -30.3620  -12.3820   19.2780 C   0  0  0  0  0  2  0  0  0  0  0  0
  -29.4100  -12.5960   18.0850 C   0  0  0  0  0  2  0  0  0  0  0  0
  -27.9320  -12.4650   18.5140 C   0  0  0  0  0  2  0  0  0  0  0  0
  -27.6080  -13.2690   19.8020 C   0  0  0  0  0  3  0  0  0  0  0  0
  -28.6760  -13.0250   20.8940 C   0  0  0  0  0  2  0  0  0  0  0  0
  -29.9890  -13.3560   20.3180 N   0  0  0  0  0  0  0  0  0  0  0  0
  -31.7970  -14.7180   20.0380 O   0  0  0  0  0  0  0  0  0  0  0  0
  -29.9640  -15.5330   21.0610 N   0  0  0  0  0  0  0  0  0  0  0  0
  -29.0230  -15.2960   21.3360 H   0  0  0  0  0  0  0  0  0  0  0  0
  -25.2150  -13.8780   20.5170 C   0  0  0  0  0  0  0  0  0  0  0  0
  -24.1470  -13.1070   20.8940 C   0  0  0  0  0  0  0  0  0  0  0  0
  -24.6060  -11.7540   20.8640 C   0  0  0  0  0  0  0  0  0  0  0  0
  -26.2570  -12.9930   20.2870 N   0  0  0  0  0  0  0  0  0  0  0  0
  -25.8950  -11.7110   20.5510 N   0  0  0  0  0  0  0  0  0  0  0  0
  -23.8760  -10.4930   21.0570 C   0  0  0  0  0  0  0  0  0  0  0  0
  -24.3190   -9.5170   21.9770 C   0  0  0  0  0  3  0  0  0  0  0  0
  -23.5880   -8.3240   22.1590 C   0  0  0  0  0  3  0  0  0  0  0  0
  -22.4010   -8.0960   21.4250 C   0  0  0  0  0  0  0  0  0  0  0  0
  -21.9820   -9.0570   20.4880 C   0  0  0  0  0  3  0  0  0  0  0  0
  -22.7130  -10.2420   20.3020 C   0  0  0  0  0  3  0  0  0  0  0  0
  -21.6420   -6.9530   21.5160 O   0  0  0  0  0  0  0  0  0  0  0  0
  -21.6160   -6.1960   22.6600 C   0  0  0  0  0  0  0  0  0  0  0  0
  -21.2340   -6.7400   23.9060 C   0  0  0  0  0  3  0  0  0  0  0  0
  -21.1540   -5.9100   25.0410 C   0  0  0  0  0  3  0  0  0  0  0  0
  -21.4490   -4.5380   24.9340 C   0  0  0  0  0  0  0  0  0  0  0  0
  -21.8240   -3.9940   23.6930 C   0  0  0  0  0  3  0  0  0  0  0  0
  -21.9050   -4.8210   22.5580 C   0  0  0  0  0  0  0  0  0  0  0  0
  -22.2450   -4.2870   21.3610 F   0  0  0  0  0  0  0  0  0  0  0  0
  -21.3660   -3.7380   26.0230 F   0  0  0  0  0  0  0  0  0  0  0  0
  -22.7510  -13.5860   21.1660 C   0  0  0  0  0  0  0  0  0  0  0  0
  -22.0240  -12.8910   22.0340 N   0  0  0  0  0  0  0  0  0  0  0  0
  -22.3100  -14.6050   20.6380 O   0  0  0  0  0  0  0  0  0  0  0  0
  -22.3890  -12.0670   22.4880 H   0  0  0  0  0  0  0  0  0  0  0  0
  -21.0800  -13.1870   22.2410 H   0  0  0  0  0  0  0  0  0  0  0  0
  -25.3870  -15.2480   20.3270 N   0  0  0  0  0  0  0  0  0  0  0  0
  -24.6380  -15.9220   20.4380 H   0  0  0  0  0  0  0  0  0  0  0  0
  -26.2420  -15.6640   19.9760 H   0  0  0  0  0  0  0  0  0  0  0  0
  -29.4980  -24.2810   20.3090 C   0  0  0  0  0  3  0  0  0  0  0  0
  -30.7440  -24.9950   19.7590 C   0  0  0  0  0  2  0  0  0  0  0  0
  -31.9190  -24.1470   19.9170 N   0  0  0  0  0  0  0  0  0  0  0  0
  -32.0820  -23.9700   20.9050 H   0  0  0  0  0  0  0  0  0  0  0  0
  -32.7400  -24.6790   19.6420 H   0  0  0  0  0  0  0  0  0  0  0  0
  -28.2200  -25.1370   19.9690 C   0  0  0  0  0  2  0  0  0  0  0  0
  -28.3480  -26.5750   20.2110 O   0  0  0  0  0  0  0  0  0  0  0  0
  -24.6090  -31.8770   23.2360 C   0  0  0  0  0  0  0  0  0  0  0  0
  -27.2010  -27.3620   20.1600 C   0  0  0  0  0  0  0  0  0  0  0  0
  -23.3900  -30.4830   21.6000 C   0  0  0  0  0  3  0  0  0  0  0  0
  -24.8300  -28.9360   20.1650 C   0  0  0  0  0  0  0  0  0  0  0  0
  -25.9230  -30.8110   21.3970 C   0  0  0  0  0  2  0  0  0  0  0  0
  -25.9970  -29.4340   20.7560 C   0  0  0  0  0  0  0  0  0  0  0  0
  -27.1830  -28.6560   20.7480 C   0  0  0  0  0  3  0  0  0  0  0  0
  -26.0110  -26.9020   19.5440 C   0  0  0  0  0  3  0  0  0  0  0  0
  -24.8370  -27.6740   19.5510 C   0  0  0  0  0  3  0  0  0  0  0  0
  -23.5940  -29.8060   20.2170 C   0  0  0  0  0  2  0  0  0  0  0  0
  -24.6600  -31.0730   22.1350 N   0  0  0  0  0  0  0  0  0  0  0  0
  -23.5300  -32.1540   23.7810 O   0  0  0  0  0  0  0  0  0  0  0  0
  -22.7350  -29.4640   22.5630 C   0  0  0  0  0  0  0  0  0  0  0  0
  -21.4090  -29.2900   22.4420 N   0  0  0  0  0  0  0  0  0  0  0  0
  -23.4190  -28.8370   23.3770 O   0  0  0  0  0  0  0  0  0  0  0  0
  -20.9170  -29.8510   21.7590 H   0  0  0  0  0  0  0  0  0  0  0  0
  -18.0330  -28.0940   22.9430 C   0  0  0  0  0  0  0  0  0  0  0  0
  -20.5900  -28.3540   23.2150 C   0  0  0  0  0  3  0  0  0  0  0  0
  -20.6940  -26.9200   22.6450 C   0  0  0  0  0  2  0  0  0  0  0  0
  -19.5920  -26.5920   21.6310 C   0  0  0  0  0  2  0  0  0  0  0  0
  -18.2100  -26.7410   22.2740 C   0  0  0  0  0  2  0  0  0  0  0  0
  -19.1510  -28.8580   23.3710 C   0  0  0  0  0  0  0  0  0  0  0  0
  -18.9310  -30.1240   23.9550 C   0  0  0  0  0  3  0  0  0  0  0  0
  -17.6270  -30.6270   24.1160 C   0  0  0  0  0  3  0  0  0  0  0  0
  -16.5220  -29.8600   23.7050 C   0  0  0  0  0  3  0  0  0  0  0  0
  -16.7270  -28.5960   23.1240 C   0  0  0  0  0  3  0  0  0  0  0  0
  -25.8980  -32.5060   23.8510 C   0  0  0  0  0  3  0  0  0  0  0  0
  -25.5930  -33.9040   24.1870 N   0  0  0  0  0  0  0  0  0  0  0  0
  -25.9180  -34.9570   23.4260 C   0  0  0  0  0  0  0  0  0  0  0  0
  -26.5810  -34.8550   22.3900 O   0  0  0  0  0  0  0  0  0  0  0  0
  -25.0060  -34.0570   24.9950 H   0  0  0  0  0  0  0  0  0  0  0  0
  -24.1910  -36.7560   23.0910 C   0  0  0  0  0  1  0  0  0  0  0  0
  -25.4370  -36.3460   23.8920 C   0  0  0  0  0  3  0  0  0  0  0  0
  -27.5830  -37.2250   24.7030 C   0  0  0  0  0  1  0  0  0  0  0  0
  -26.4710  -37.3980   23.7710 N   0  0  0  0  0  0  0  0  0  0  0  0
  -26.0680  -38.3180   23.9260 H   0  0  0  0  0  0  0  0  0  0  0  0
  -26.4210  -31.7310   25.1220 C   0  0  1  0  0  0  0  0  0  0  0  0
  -25.3340  -31.4970   26.1980 C   0  0  0  0  0  1  0  0  0  0  0  0
  -26.9950  -30.3530   24.7210 C   0  0  0  0  0  1  0  0  0  0  0  0
  -27.5770  -32.5210   25.7800 C   0  0  0  0  0  1  0  0  0  0  0  0
  1 51  1  0
  1  4  1  0
  2  1  1  0
  3  1  1  0
  5  7  1  0
  5  6  1  0
  6  8  1  0
  7  9  1  0
  8 10  1  0
  9 10  1  0
  9  4  1  0
 11 10  1  0
 11 12  1  0
 13 21  1  0
 14 19  1  0
 15 16  1  0
 15 14  1  0
 17 16  1  0
 17 26  1  0
 17 18  1  0
 19 13  1  0
 19 18  1  0
 20 13  2  0
 21 22  1  0
 21 12  1  0
 23 24  2  0
 24 43  1  0
 25 24  1  0
 25 28  1  0
 26 23  1  0
 26 27  1  0
 27 25  2  0
 28 29  1  0
 29 30  2  0
 31 34  1  0
 31 30  1  0
 32 31  2  0
 33 32  1  0
 33 28  2  0
 34 35  1  0
 35 36  1  0
 36 37  2  0
 38 37  1  0
 38 42  1  0
 39 38  2  0
 40 35  2  0
 40 39  1  0
 41 40  1  0
 43 44  1  0
 44 47  1  0
 44 46  1  0
 45 43  2  0
 48 49  1  0
 48 23  1  0
 50 48  1  0
 51 52  1  0
 52 53  1  0
 53 54  1  0
 55 53  1  0
 56 57  1  0
 56 51  1  0
 58 69  2  0
 59 57  1  0
 59 64  1  0
 60 68  1  0
 60 70  1  0
 61 67  1  0
 61 63  1  0
 62 68  1  0
 63 62  1  0
 64 63  2  0
 65 66  1  0
 65 59  2  0
 66 61  2  0
 67 60  1  0
 68 58  1  0
 70 72  2  0
 71 70  1  0
 73 71  1  0
 74 83  2  0
 74 79  1  0
 75 71  1  0
 75 79  1  0
 76 75  1  0
 77 78  1  0
 77 76  1  0
 78 74  1  0
 79 80  2  0
 80 81  1  0
 82 81  2  0
 83 82  1  0
 84 58  1  0
 84 85  1  0
 84 94  1  0
 85 88  1  0
 86 90  1  0
 86 85  1  0
 87 86  2  0
 90 89  1  0
 92 90  1  0
 92 93  1  0
 92 91  1  0
 94 97  1  1
 94 95  1  0
 96 94  1  0
M  ISO  4  13 100  21 100  56 101  57 101
M  END
>  <TORSDO>  (42) 
F 24

>  <SCORE>  (42) 
-12.939

>  <name>  (42) 
42

>  <ligand_id>  (42) 
42

>  <original_smiles>  (42) 
[H]c1c([H])c([H])c2c(c1[H])C([H])([H])C([H])([H])C([H])([H])C2([H])N([H])C(=O)C1([H])N(C(=O)C([H])(N([H])C(=O)C([H])(N([H])C([H])([H])[H])C([H])([H])[H])C(C([H])([H])[H])(C([H])([H])[H])C([H])([H])[H])C([H])([H])c2c([H])c(OC([H])([H])C([H])(C([H])([H])N([H])[H])[N+]([H])([H])C([H])([H])C3([H])N(C([H])([H])C([H])([H])N([H])C(=O)N4C([H])([H])C([H])([H])C([H])([H])C([H])(n5nc(-c6c([H])c([H])c(Oc7c([H])c([H])c(F)c([H])c7F)c([H])c6[H])c(C(=O)N([H])[H])c5N([H])[H])C4([H])[H])C([H])([H])C([H])([H])C([H])([H])C3([H])[H])c([H])c([H])c2C1([H])[H]

>  <smiles>  (42) 
[H]c1c([H])c([H])c2c(c1[H])C([H])([H])C([H])([H])C([H])([H])C2([H])N([H])C(=O)C1([H])N(C(=O)C([H])(N([H])C(=O)C([H])(N([H])C([H])([H])[H])C([H])([H])[H])C(C([H])([H])[H])(C([H])([H])[H])C([H])([H])[H])C([H])([H])c2c([H])c(OC([H])([H])C([H])(C([H])([H])N([H])[H])[N+]([H])([H])C([H])([H])C3([H])N(C([H])([H])C([H])([H])N([H])C(=O)N4C([H])([H])C([H])([H])C([H])([H])C([H])(n5nc(-c6c([H])c([H])c(Oc7c([H])c([H])c(F)c([H])c7F)c([H])c6[H])c(C(=O)N([H])[H])c5N([H])[H])C4([H])[H])C([H])([H])C([H])([H])C([H])([H])C3([H])[H])c([H])c([H])c2C1([H])[H]

$$$$
43:0:0
     RDKit          3D

100108  0  0  1  0  0  0  0  0999 V2000
  -29.1200  -20.7870   19.6930 C   0  0  0  0  0  3  0  0  0  0  0  0
  -31.3550  -15.4430   20.7520 C   0  0  0  0  0  0  0  0  0  0  0  0
  -31.2030  -13.0530   20.0990 C   0  0  0  0  0  2  0  0  0  0  0  0
  -30.4280  -12.9450   18.7680 C   0  0  0  0  0  2  0  0  0  0  0  0
  -28.9120  -12.8410   19.0330 C   0  0  0  0  0  2  0  0  0  0  0  0
  -28.4080  -13.9100   20.0390 C   0  0  0  0  0  3  0  0  0  0  0  0
  -29.3210  -14.0130   21.2820 C   0  0  0  0  0  2  0  0  0  0  0  0
  -30.6900  -14.2460   20.8030 N   0  0  0  0  0  0  0  0  0  0  0  0
  -32.5740  -15.4720   20.5590 O   0  0  0  0  0  0  0  0  0  0  0  0
  -29.9860  -17.4200   21.4880 C   0  0  0  0  0  2  0  0  0  0  0  0
  -30.7920  -17.2150   19.0990 C   0  0  0  0  0  2  0  0  0  0  0  0
  -30.1370  -18.9730   21.3090 C   0  0  0  0  0  2  0  0  0  0  0  0
  -30.6280  -18.7820   18.9420 C   0  0  0  0  0  2  0  0  0  0  0  0
  -30.6160  -16.5710   20.4420 N   0  0  0  0  0  0  0  0  0  0  0  0
  -29.7240  -19.3960   19.9450 N   0  0  2  0  0  4  0  0  0  0  0  0
  -28.8890  -18.8440   19.8190 H   0  0  0  0  0  0  0  0  0  0  0  0
  -25.9920  -14.6160   20.5560 C   0  0  0  0  0  0  0  0  0  0  0  0
  -24.8600  -13.8920   20.8160 C   0  0  0  0  0  0  0  0  0  0  0  0
  -25.2580  -12.5210   20.8080 C   0  0  0  0  0  0  0  0  0  0  0  0
  -27.0100  -13.6880   20.4030 N   0  0  0  0  0  0  0  0  0  0  0  0
  -26.5680  -12.4220   20.6180 N   0  0  0  0  0  0  0  0  0  0  0  0
  -24.4580  -11.2920   20.9180 C   0  0  0  0  0  0  0  0  0  0  0  0
  -24.8260  -10.2440   21.7900 C   0  0  0  0  0  3  0  0  0  0  0  0
  -24.0300   -9.0840   21.8930 C   0  0  0  0  0  3  0  0  0  0  0  0
  -22.8510   -8.9620   21.1200 C   0  0  0  0  0  0  0  0  0  0  0  0
  -22.4990   -9.9980   20.2360 C   0  0  0  0  0  3  0  0  0  0  0  0
  -23.2970  -11.1500   20.1320 C   0  0  0  0  0  3  0  0  0  0  0  0
  -22.0310   -7.8600   21.1320 O   0  0  0  0  0  0  0  0  0  0  0  0
  -22.0040   -6.9930   22.1960 C   0  0  0  0  0  0  0  0  0  0  0  0
  -21.7170   -7.4330   23.5070 C   0  0  0  0  0  3  0  0  0  0  0  0
  -21.6330   -6.4990   24.5590 C   0  0  0  0  0  3  0  0  0  0  0  0
  -21.8250   -5.1290   24.3020 C   0  0  0  0  0  0  0  0  0  0  0  0
  -22.1060   -4.6880   22.9960 C   0  0  0  0  0  3  0  0  0  0  0  0
  -22.1920   -5.6170   21.9460 C   0  0  0  0  0  0  0  0  0  0  0  0
  -22.4430   -5.1870   20.6860 F   0  0  0  0  0  0  0  0  0  0  0  0
  -21.7360   -4.2320   25.3110 F   0  0  0  0  0  0  0  0  0  0  0  0
  -23.4660  -14.4350   20.9590 C   0  0  0  0  0  0  0  0  0  0  0  0
  -22.6390  -13.7970   21.7800 N   0  0  0  0  0  0  0  0  0  0  0  0
  -23.1170  -15.4640   20.3850 O   0  0  0  0  0  0  0  0  0  0  0  0
  -22.9260  -12.9670   22.2760 H   0  0  0  0  0  0  0  0  0  0  0  0
  -21.7060  -14.1550   21.9250 H   0  0  0  0  0  0  0  0  0  0  0  0
  -26.2390  -15.9770   20.4120 N   0  0  0  0  0  0  0  0  0  0  0  0
  -25.4930  -16.6620   20.4560 H   0  0  0  0  0  0  0  0  0  0  0  0
  -27.1190  -16.3700   20.1130 H   0  0  0  0  0  0  0  0  0  0  0  0
  -27.8680  -20.9370   20.6000 C   0  0  0  0  0  2  0  0  0  0  0  0
  -27.0100  -22.1980   20.3560 C   0  0  0  0  0  2  0  0  0  0  0  0
  -26.1660  -22.5790   21.5860 C   0  0  0  0  0  2  0  0  0  0  0  0
  -25.5700  -23.9960   21.4760 C   0  0  0  0  0  2  0  0  0  0  0  0
  -24.8590  -24.3950   22.7010 N   0  0  0  0  0  4  0  0  0  0  0  0
  -24.1190  -23.7490   22.9210 H   0  0  0  0  0  0  0  0  0  0  0  0
  -24.4510  -25.3040   22.5800 H   0  0  0  0  0  0  0  0  0  0  0  0
  -25.4940  -24.4470   23.4770 H   0  0  0  0  0  0  0  0  0  0  0  0
  -30.0500  -22.0980   19.6350 C   0  0  0  0  0  2  0  0  0  0  0  0
  -29.4670  -23.3810   20.1850 N   0  0  0  0  0  0  0  0  0  0  0  0
  -29.2500  -24.5300   19.2270 C   0  0  0  0  0  3  0  0  0  0  0  0
  -28.4380  -25.7940   19.7670 C   0  0  0  0  0  3  0  0  0  0  0  0
  -28.2820  -27.0050   18.9430 O   0  0  0  0  0  0  0  0  0  0  0  0
  -24.4050  -31.4900   23.0300 C   0  0  0  0  0  0  0  0  0  0  0  0
  -27.1000  -27.7240   19.1320 C   0  0  0  0  0  0  0  0  0  0  0  0
  -23.1720  -30.2290   21.3000 C   0  0  0  0  0  3  0  0  0  0  0  0
  -24.6070  -29.0530   19.5410 C   0  0  0  0  0  0  0  0  0  0  0  0
  -25.6380  -30.8320   20.9570 C   0  0  0  0  0  2  0  0  0  0  0  0
  -25.7770  -29.5770   20.1080 C   0  0  0  0  0  0  0  0  0  0  0  0
  -27.0260  -28.9260   19.8900 C   0  0  0  0  0  3  0  0  0  0  0  0
  -25.9060  -27.2430   18.5510 C   0  0  0  0  0  3  0  0  0  0  0  0
  -24.6710  -27.8920   18.7520 C   0  0  0  0  0  3  0  0  0  0  0  0
  -23.3080  -29.7820   19.8200 C   0  0  0  0  0  2  0  0  0  0  0  0
  -24.4280  -30.8600   21.8180 N   0  0  0  0  0  0  0  0  0  0  0  0
  -23.3620  -31.5780   23.6910 O   0  0  0  0  0  0  0  0  0  0  0  0
  -22.6950  -29.0260   22.1450 C   0  0  0  0  0  0  0  0  0  0  0  0
  -21.3980  -28.6850   22.0330 N   0  0  0  0  0  0  0  0  0  0  0  0
  -23.4880  -28.4060   22.8590 O   0  0  0  0  0  0  0  0  0  0  0  0
  -20.8070  -29.2490   21.4400 H   0  0  0  0  0  0  0  0  0  0  0  0
  -18.2750  -26.8920   22.3550 C   0  0  0  0  0  0  0  0  0  0  0  0
  -20.7460  -27.5600   22.7090 C   0  0  0  0  0  3  0  0  0  0  0  0
  -21.0980  -26.2170   22.0280 C   0  0  0  0  0  2  0  0  0  0  0  0
  -20.0800  -25.7870   20.9670 C   0  0  0  0  0  2  0  0  0  0  0  0
  -18.6890  -25.6480   21.5880 C   0  0  0  0  0  2  0  0  0  0  0  0
  -19.2400  -27.7970   22.8690 C   0  0  0  0  0  0  0  0  0  0  0  0
  -18.7990  -28.9520   23.5540 C   0  0  0  0  0  3  0  0  0  0  0  0
  -17.4290  -29.2100   23.7260 C   0  0  0  0  0  3  0  0  0  0  0  0
  -16.4770  -28.3050   23.2270 C   0  0  0  0  0  3  0  0  0  0  0  0
  -16.9010  -27.1470   22.5470 C   0  0  0  0  0  3  0  0  0  0  0  0
  -25.6860  -32.1480   23.6300 C   0  0  0  0  0  3  0  0  0  0  0  0
  -26.3210  -31.3100   24.8070 C   0  0  1  0  0  0  0  0  0  0  0  0
  -25.3120  -30.9420   25.9220 C   0  0  0  0  0  1  0  0  0  0  0  0
  -26.9350  -29.9930   24.2760 C   0  0  0  0  0  1  0  0  0  0  0  0
  -27.4790  -32.1070   25.4530 C   0  0  0  0  0  1  0  0  0  0  0  0
  -25.3210  -33.4940   24.0920 N   0  0  0  0  0  0  0  0  0  0  0  0
  -25.6110  -34.6270   23.4410 C   0  0  0  0  0  0  0  0  0  0  0  0
  -26.2870  -34.6520   22.4070 O   0  0  0  0  0  0  0  0  0  0  0  0
  -24.7180  -33.5400   24.9010 H   0  0  0  0  0  0  0  0  0  0  0  0
  -23.8160  -36.3770   23.2470 C   0  0  0  0  0  1  0  0  0  0  0  0
  -25.0670  -35.9430   24.0270 C   0  0  0  0  0  3  0  0  0  0  0  0
  -27.1590  -36.8260   24.9630 C   0  0  0  0  0  1  0  0  0  0  0  0
  -26.0560  -37.0410   24.0290 N   0  0  0  0  0  0  0  0  0  0  0  0
  -25.6160  -37.9260   24.2620 H   0  0  0  0  0  0  0  0  0  0  0  0
  -30.2340  -23.8260   21.3640 C   0  0  0  0  0  2  0  0  0  0  0  0
  -30.0970  -25.4960   23.3150 C   0  0  0  0  0  1  0  0  0  0  0  0
  -29.3370  -24.5040   22.4260 C   0  0  0  0  0  2  0  0  0  0  0  0
  1 53  1  0
  1 15  1  0
  1 45  1  0
  2  8  1  0
  3  8  1  0
  4  5  1  0
  4  3  1  0
  6  5  1  0
  6 20  1  0
  6  7  1  0
  8  7  1  0
  9  2  2  0
 11 14  1  0
 12 10  1  0
 13 11  1  0
 13 15  1  0
 14  2  1  0
 14 10  1  0
 15 12  1  0
 15 16  1  6
 17 18  2  0
 18 37  1  0
 19 18  1  0
 19 22  1  0
 20 17  1  0
 20 21  1  0
 21 19  2  0
 22 23  1  0
 23 24  2  0
 25 28  1  0
 25 24  1  0
 26 25  2  0
 27 26  1  0
 27 22  2  0
 28 29  1  0
 29 30  1  0
 30 31  2  0
 32 31  1  0
 32 36  1  0
 33 32  2  0
 34 29  2  0
 34 33  1  0
 35 34  1  0
 37 38  1  0
 38 41  1  0
 38 40  1  0
 39 37  2  0
 42 43  1  0
 42 17  1  0
 44 42  1  0
 46 45  1  0
 46 47  1  0
 48 47  1  0
 48 49  1  0
 49 50  1  0
 49 52  1  0
 51 49  1  0
 53 54  1  0
 54 98  1  0
 55 56  2  0
 55 54  1  0
 57 59  1  0
 57 56  1  0
 58 69  2  0
 59 64  1  0
 60 68  1  0
 60 70  1  0
 61 67  1  0
 61 63  1  0
 62 68  1  0
 63 62  1  0
 64 63  2  0
 65 66  1  0
 65 59  2  0
 66 61  2  0
 67 60  1  0
 68 58  1  0
 70 72  2  0
 71 70  1  0
 73 71  1  0
 74 83  2  0
 74 79  1  0
 75 71  1  0
 75 79  1  0
 76 75  1  0
 77 78  1  0
 77 76  1  0
 78 74  1  0
 79 80  2  0
 80 81  1  0
 82 81  2  0
 83 82  1  0
 84 58  1  0
 84 89  1  0
 84 85  1  0
 85 88  1  1
 85 86  1  0
 87 85  1  0
 89 92  1  0
 90 94  1  0
 90 89  1  0
 91 90  2  0
 94 93  1  0
 94 96  1  0
 96 97  1  0
 96 95  1  0
 98100  1  0
100 99  1  0
M  ISO  4   2 100  14 100  56 101  57 101
M  END
>  <TORSDO>  (43) 
F 27

>  <SCORE>  (43) 
-8.530

>  <name>  (43) 
43

>  <ligand_id>  (43) 
43

>  <original_smiles>  (43) 
[H]c1c([H])c([H])c2c(c1[H])C([H])([H])C([H])([H])C([H])([H])C2([H])N([H])C(=O)C1([H])N(C(=O)C([H])(N([H])C(=O)C([H])(N([H])C([H])([H])[H])C([H])([H])[H])C(C([H])([H])[H])(C([H])([H])[H])C([H])([H])[H])C([H])([H])c2c([H])c(OC([H])([H])C([H])([H])N(C([H])([H])C([H])([H])C([H])([H])[H])C([H])([H])C([H])(C([H])([H])C([H])([H])C([H])([H])C([H])([H])[N+]([H])([H])[H])[N+]3([H])C([H])([H])C([H])([H])N(C(=O)N4C([H])([H])C([H])([H])C([H])([H])C([H])(n5nc(-c6c([H])c([H])c(Oc7c([H])c([H])c(F)c([H])c7F)c([H])c6[H])c(C(=O)N([H])[H])c5N([H])[H])C4([H])[H])C([H])([H])C3([H])[H])c([H])c([H])c2C1([H])[H]

>  <smiles>  (43) 
[H]c1c([H])c([H])c2c(c1[H])C([H])([H])C([H])([H])C([H])([H])C2([H])N([H])C(=O)C1([H])N(C(=O)C([H])(N([H])C(=O)C([H])(N([H])C([H])([H])[H])C([H])([H])[H])C(C([H])([H])[H])(C([H])([H])[H])C([H])([H])[H])C([H])([H])c2c([H])c(OC([H])([H])C([H])([H])N(C([H])([H])C([H])([H])C([H])([H])[H])C([H])([H])C([H])(C([H])([H])C([H])([H])C([H])([H])C([H])([H])[N+]([H])([H])[H])[N+]3([H])C([H])([H])C([H])([H])N(C(=O)N4C([H])([H])C([H])([H])C([H])([H])C([H])(n5nc(-c6c([H])c([H])c(Oc7c([H])c([H])c(F)c([H])c7F)c([H])c6[H])c(C(=O)N([H])[H])c5N([H])[H])C4([H])[H])C([H])([H])C3([H])[H])c([H])c([H])c2C1([H])[H]

$$$$
44:0:0
     RDKit          3D

 98106  0  0  1  0  0  0  0  0999 V2000
  -29.2240  -20.9200   22.8800 C   0  0  0  0  0  2  0  0  0  0  0  0
  -28.3590  -21.0750   20.5360 C   0  0  0  0  0  2  0  0  0  0  0  0
  -29.9150  -22.2960   22.7030 C   0  0  0  0  0  2  0  0  0  0  0  0
  -29.0730  -22.4350   20.3780 C   0  0  0  0  0  2  0  0  0  0  0  0
  -29.0350  -20.1290   21.5620 C   0  0  0  0  0  3  0  0  0  0  0  0
  -29.2570  -23.1440   21.6740 N   0  0  2  0  0  4  0  0  0  0  0  0
  -28.3360  -23.3670   22.0230 H   0  0  0  0  0  0  0  0  0  0  0  0
  -30.3090  -19.5110   21.0750 N   0  0  0  0  0  4  0  0  0  0  0  0
  -30.6370  -20.0460   20.2820 H   0  0  0  0  0  0  0  0  0  0  0  0
  -31.0200  -19.5540   21.7870 H   0  0  0  0  0  0  0  0  0  0  0  0
  -30.2730  -18.1190   20.5470 C   0  0  0  0  0  3  0  0  0  0  0  0
  -30.8030  -17.0620   21.5740 C   0  0  0  0  0  2  0  0  0  0  0  0
  -31.3110  -14.7420   20.5510 C   0  0  0  0  0  0  0  0  0  0  0  0
  -31.1030  -12.5740   19.3650 C   0  0  0  0  0  2  0  0  0  0  0  0
  -30.1740  -12.7500   18.1440 C   0  0  0  0  0  2  0  0  0  0  0  0
  -28.6850  -12.6560   18.5430 C   0  0  0  0  0  2  0  0  0  0  0  0
  -28.3390  -13.5000   19.7980 C   0  0  0  0  0  3  0  0  0  0  0  0
  -29.3550  -13.2080   20.9180 C   0  0  0  0  0  2  0  0  0  0  0  0
  -30.6900  -13.5380   20.3950 N   0  0  0  0  0  0  0  0  0  0  0  0
  -32.4140  -15.0050   20.0550 O   0  0  0  0  0  0  0  0  0  0  0  0
  -30.5580  -15.6480   21.2150 N   0  0  0  0  0  0  0  0  0  0  0  0
  -29.6750  -15.2740   21.5320 H   0  0  0  0  0  0  0  0  0  0  0  0
  -25.9520  -14.2000   20.4480 C   0  0  0  0  0  0  0  0  0  0  0  0
  -24.8510  -13.4670   20.8080 C   0  0  0  0  0  0  0  0  0  0  0  0
  -25.2630  -12.1020   20.7800 C   0  0  0  0  0  0  0  0  0  0  0  0
  -26.9640  -13.2780   20.2370 N   0  0  0  0  0  0  0  0  0  0  0  0
  -26.5540  -12.0100   20.4870 N   0  0  0  0  0  0  0  0  0  0  0  0
  -24.4930  -10.8640   20.9560 C   0  0  0  0  0  0  0  0  0  0  0  0
  -24.8570   -9.8960   21.9180 C   0  0  0  0  0  3  0  0  0  0  0  0
  -24.0860   -8.7250   22.0800 C   0  0  0  0  0  3  0  0  0  0  0  0
  -22.9390   -8.5110   21.2790 C   0  0  0  0  0  0  0  0  0  0  0  0
  -22.5960   -9.4680   20.3070 C   0  0  0  0  0  3  0  0  0  0  0  0
  -23.3660  -10.6300   20.1420 C   0  0  0  0  0  3  0  0  0  0  0  0
  -22.1520   -7.3880   21.3460 O   0  0  0  0  0  0  0  0  0  0  0  0
  -21.9890   -6.6920   22.5170 C   0  0  0  0  0  0  0  0  0  0  0  0
  -21.4800   -7.3040   23.6840 C   0  0  0  0  0  3  0  0  0  0  0  0
  -21.2630   -6.5360   24.8450 C   0  0  0  0  0  3  0  0  0  0  0  0
  -21.5490   -5.1570   24.8400 C   0  0  0  0  0  0  0  0  0  0  0  0
  -22.0560   -4.5460   23.6790 C   0  0  0  0  0  3  0  0  0  0  0  0
  -22.2720   -5.3120   22.5200 C   0  0  0  0  0  0  0  0  0  0  0  0
  -22.7390   -4.7120   21.3990 F   0  0  0  0  0  0  0  0  0  0  0  0
  -21.3340   -4.4180   25.9540 F   0  0  0  0  0  0  0  0  0  0  0  0
  -23.4710  -13.9980   21.0590 C   0  0  0  0  0  0  0  0  0  0  0  0
  -22.7080  -13.3400   21.9250 N   0  0  0  0  0  0  0  0  0  0  0  0
  -23.0790  -15.0300   20.5180 O   0  0  0  0  0  0  0  0  0  0  0  0
  -23.0350  -12.5050   22.3860 H   0  0  0  0  0  0  0  0  0  0  0  0
  -21.7790  -13.6820   22.1270 H   0  0  0  0  0  0  0  0  0  0  0  0
  -26.1720  -15.5620   20.2740 N   0  0  0  0  0  0  0  0  0  0  0  0
  -25.4260  -16.2400   20.3590 H   0  0  0  0  0  0  0  0  0  0  0  0
  -27.0160  -15.9490   19.8730 H   0  0  0  0  0  0  0  0  0  0  0  0
  -31.1360  -18.1200   19.2730 C   0  0  0  0  0  2  0  0  0  0  0  0
  -31.5370  -19.4020   17.3100 C   0  0  0  0  0  1  0  0  0  0  0  0
  -30.5260  -18.9940   18.2770 N   0  0  0  0  0  0  0  0  0  0  0  0
  -29.8160  -18.4580   17.7780 H   0  0  0  0  0  0  0  0  0  0  0  0
  -29.9380  -24.4550   21.4970 C   0  0  0  0  0  2  0  0  0  0  0  0
  -29.2070  -25.5950   22.2160 C   0  0  0  0  0  2  0  0  0  0  0  0
  -29.5590  -26.9620   21.6190 C   0  0  0  0  0  2  0  0  0  0  0  0
  -28.9710  -27.0670   20.3130 O   0  0  0  0  0  0  0  0  0  0  0  0
  -24.7460  -31.9260   23.2540 C   0  0  0  0  0  0  0  0  0  0  0  0
  -27.7640  -27.7250   20.2610 C   0  0  0  0  0  0  0  0  0  0  0  0
  -23.6760  -30.4770   21.5490 C   0  0  0  0  0  3  0  0  0  0  0  0
  -25.2690  -29.0400   20.1700 C   0  0  0  0  0  0  0  0  0  0  0  0
  -26.1700  -31.0060   21.4340 C   0  0  0  0  0  2  0  0  0  0  0  0
  -26.3620  -29.6510   20.7940 C   0  0  0  0  0  0  0  0  0  0  0  0
  -27.6090  -29.0070   20.8260 C   0  0  0  0  0  3  0  0  0  0  0  0
  -26.6650  -27.1220   19.6140 C   0  0  0  0  0  3  0  0  0  0  0  0
  -25.4120  -27.7710   19.5740 C   0  0  0  0  0  3  0  0  0  0  0  0
  -23.9720  -29.8170   20.1730 C   0  0  0  0  0  2  0  0  0  0  0  0
  -24.8790  -31.1490   22.1430 N   0  0  0  0  0  0  0  0  0  0  0  0
  -23.6340  -32.1340   23.7570 O   0  0  0  0  0  0  0  0  0  0  0  0
  -23.0470  -29.4160   22.4770 C   0  0  0  0  0  0  0  0  0  0  0  0
  -21.7330  -29.1950   22.3230 N   0  0  0  0  0  0  0  0  0  0  0  0
  -23.7380  -28.7940   23.2890 O   0  0  0  0  0  0  0  0  0  0  0  0
  -21.2350  -29.7610   21.6490 H   0  0  0  0  0  0  0  0  0  0  0  0
  -18.3820  -27.9250   22.7660 C   0  0  0  0  0  0  0  0  0  0  0  0
  -20.9330  -28.2130   23.0530 C   0  0  0  0  0  3  0  0  0  0  0  0
  -21.0610  -26.8090   22.4210 C   0  0  0  0  0  2  0  0  0  0  0  0
  -19.9680  -26.5070   21.3920 C   0  0  0  0  0  2  0  0  0  0  0  0
  -18.5810  -26.6060   22.0390 C   0  0  0  0  0  2  0  0  0  0  0  0
  -19.4880  -28.6870   23.2280 C   0  0  0  0  0  0  0  0  0  0  0  0
  -19.2490  -29.9230   23.8690 C   0  0  0  0  0  3  0  0  0  0  0  0
  -17.9370  -30.4010   24.0420 C   0  0  0  0  0  3  0  0  0  0  0  0
  -16.8460  -29.6350   23.5990 C   0  0  0  0  0  3  0  0  0  0  0  0
  -17.0680  -28.3980   22.9670 C   0  0  0  0  0  3  0  0  0  0  0  0
  -25.9770  -32.6100   23.9320 C   0  0  0  0  0  3  0  0  0  0  0  0
  -25.6000  -33.9950   24.2350 N   0  0  0  0  0  0  0  0  0  0  0  0
  -25.9280  -35.0540   23.4820 C   0  0  0  0  0  0  0  0  0  0  0  0
  -26.6550  -34.9700   22.4860 O   0  0  0  0  0  0  0  0  0  0  0  0
  -24.9610  -34.1340   25.0050 H   0  0  0  0  0  0  0  0  0  0  0  0
  -24.1510  -36.7700   23.0230 C   0  0  0  0  0  1  0  0  0  0  0  0
  -25.3640  -36.4240   23.8990 C   0  0  0  0  0  3  0  0  0  0  0  0
  -27.4190  -37.4010   24.8230 C   0  0  0  0  0  1  0  0  0  0  0  0
  -26.3600  -37.5150   23.8230 N   0  0  0  0  0  0  0  0  0  0  0  0
  -25.9100  -38.4200   23.9420 H   0  0  0  0  0  0  0  0  0  0  0  0
  -26.4700  -31.8630   25.2330 C   0  0  1  0  0  0  0  0  0  0  0  0
  -25.3400  -31.5490   26.2380 C   0  0  0  0  0  1  0  0  0  0  0  0
  -27.1580  -30.5280   24.8620 C   0  0  0  0  0  1  0  0  0  0  0  0
  -27.5270  -32.7260   25.9630 C   0  0  0  0  0  1  0  0  0  0  0  0
  2  5  1  0
  3  1  1  0
  4  2  1  0
  4  6  1  0
  5  8  1  0
  5  1  1  0
  6  7  1  1
  6  3  1  0
  8 10  1  0
  9  8  1  0
 11 51  1  0
 11  8  1  0
 11 12  1  0
 13 21  1  0
 14 19  1  0
 15 16  1  0
 15 14  1  0
 17 16  1  0
 17 26  1  0
 17 18  1  0
 19 13  1  0
 19 18  1  0
 20 13  2  0
 21 22  1  0
 21 12  1  0
 23 24  2  0
 24 43  1  0
 25 24  1  0
 25 28  1  0
 26 23  1  0
 26 27  1  0
 27 25  2  0
 28 29  1  0
 29 30  2  0
 31 34  1  0
 31 30  1  0
 32 31  2  0
 33 32  1  0
 33 28  2  0
 34 35  1  0
 35 40  2  0
 35 36  1  0
 36 37  2  0
 38 37  1  0
 38 42  1  0
 39 38  2  0
 40 39  1  0
 41 40  1  0
 43 44  1  0
 44 47  1  0
 44 46  1  0
 45 43  2  0
 48 49  1  0
 48 23  1  0
 50 48  1  0
 52 53  1  0
 53 51  1  0
 54 53  1  0
 55  6  1  0
 55 56  1  0
 57 56  1  0
 58 57  1  0
 59 70  2  0
 60 58  1  0
 60 65  1  0
 61 69  1  0
 61 71  1  0
 62 68  1  0
 62 64  1  0
 63 69  1  0
 64 65  2  0
 64 63  1  0
 66 60  2  0
 67 66  1  0
 67 62  2  0
 68 61  1  0
 69 59  1  0
 71 73  2  0
 72 71  1  0
 74 72  1  0
 75 84  2  0
 75 80  1  0
 76 72  1  0
 76 80  1  0
 77 76  1  0
 78 79  1  0
 78 77  1  0
 79 75  1  0
 80 81  2  0
 81 82  1  0
 83 82  2  0
 84 83  1  0
 85 59  1  0
 85 86  1  0
 85 95  1  0
 86 89  1  0
 87 91  1  0
 87 86  1  0
 88 87  2  0
 91 90  1  0
 93 91  1  0
 93 94  1  0
 93 92  1  0
 95 98  1  1
 95 96  1  0
 97 95  1  0
M  ISO  4  13 100  21 100  57 101  58 101
M  END
>  <TORSDO>  (44) 
F 24

>  <SCORE>  (44) 
-11.005

>  <name>  (44) 
44

>  <ligand_id>  (44) 
44

>  <original_smiles>  (44) 
[H]c1c([H])c([H])c2c(c1[H])C([H])([H])C([H])([H])C([H])([H])C2([H])N([H])C(=O)C1([H])N(C(=O)C([H])(N([H])C(=O)C([H])(N([H])C([H])([H])[H])C([H])([H])[H])C(C([H])([H])[H])(C([H])([H])[H])C([H])([H])[H])C([H])([H])c2c([H])c(OC([H])([H])C([H])([H])C([H])([H])[N+]3([H])C([H])([H])C([H])([H])C([H])([N+]([H])([H])C([H])(C([H])([H])N([H])C(=O)N4C([H])([H])C([H])([H])C([H])([H])C([H])(n5nc(-c6c([H])c([H])c(Oc7c([H])c([H])c(F)c([H])c7F)c([H])c6[H])c(C(=O)N([H])[H])c5N([H])[H])C4([H])[H])C([H])([H])N([H])C([H])([H])[H])C([H])([H])C3([H])[H])c([H])c([H])c2C1([H])[H]

>  <smiles>  (44) 
[H]c1c([H])c([H])c2c(c1[H])C([H])([H])C([H])([H])C([H])([H])C2([H])N([H])C(=O)C1([H])N(C(=O)C([H])(N([H])C(=O)C([H])(N([H])C([H])([H])[H])C([H])([H])[H])C(C([H])([H])[H])(C([H])([H])[H])C([H])([H])[H])C([H])([H])c2c([H])c(OC([H])([H])C([H])([H])C([H])([H])[N+]3([H])C([H])([H])C([H])([H])C([H])([N+]([H])([H])C([H])(C([H])([H])N([H])C(=O)N4C([H])([H])C([H])([H])C([H])([H])C([H])(n5nc(-c6c([H])c([H])c(Oc7c([H])c([H])c(F)c([H])c7F)c([H])c6[H])c(C(=O)N([H])[H])c5N([H])[H])C4([H])[H])C([H])([H])N([H])C([H])([H])[H])C([H])([H])C3([H])[H])c([H])c([H])c2C1([H])[H]

$$$$
45:0:0
     RDKit          3D

 92100  0  0  1  0  0  0  0  0999 V2000
  -29.0490  -21.0940   20.1840 N   0  0  0  0  0  4  0  0  0  0  0  0
  -29.3690  -21.1640   21.1390 H   0  0  0  0  0  0  0  0  0  0  0  0
  -28.0650  -20.8790   20.2200 H   0  0  0  0  0  0  0  0  0  0  0  0
  -29.7720  -19.8850   19.5760 C   0  0  0  0  0  2  0  0  0  0  0  0
  -30.8630  -14.6500   19.6810 C   0  0  0  0  0  0  0  0  0  0  0  0
  -30.4500  -12.4730   18.5310 C   0  0  0  0  0  2  0  0  0  0  0  0
  -29.3420  -12.6670   17.4690 C   0  0  0  0  0  2  0  0  0  0  0  0
  -27.9400  -12.5060   18.0940 C   0  0  0  0  0  2  0  0  0  0  0  0
  -27.7880  -13.2950   19.4220 C   0  0  0  0  0  3  0  0  0  0  0  0
  -28.9890  -13.0310   20.3510 C   0  0  0  0  0  2  0  0  0  0  0  0
  -30.1990  -13.4410   19.6230 N   0  0  0  0  0  0  0  0  0  0  0  0
  -31.9290  -14.7830   19.0650 O   0  0  0  0  0  0  0  0  0  0  0  0
  -30.0000  -18.3430   21.6990 C   0  0  0  0  0  0  0  0  0  0  0  0
  -30.2280  -17.1440   19.4640 C   0  0  0  0  0  2  0  0  0  0  0  0
  -29.7840  -15.8700   21.5650 C   0  0  0  0  0  2  0  0  0  0  0  0
  -29.5790  -18.4120   20.2260 C   0  0  0  0  0  3  0  0  0  0  0  0
  -30.1470  -17.1240   22.2330 N   0  0  0  0  0  0  0  0  0  0  0  0
  -30.1880  -15.7800   20.1470 N   0  0  0  0  0  0  0  0  0  0  0  0
  -30.2080  -19.3660   22.3530 O   0  0  0  0  0  0  0  0  0  0  0  0
  -30.4420  -17.0650   23.2000 H   0  0  0  0  0  0  0  0  0  0  0  0
  -25.5610  -13.8990   20.5460 C   0  0  0  0  0  0  0  0  0  0  0  0
  -24.5290  -13.1300   21.0090 C   0  0  0  0  0  0  0  0  0  0  0  0
  -24.9200  -11.7730   20.7930 C   0  0  0  0  0  0  0  0  0  0  0  0
  -26.5170  -13.0110   20.0800 N   0  0  0  0  0  0  0  0  0  0  0  0
  -26.1460  -11.7220   20.2860 N   0  0  0  0  0  0  0  0  0  0  0  0
  -24.1740  -10.5220   20.9850 C   0  0  0  0  0  0  0  0  0  0  0  0
  -24.6280   -9.5210   21.8710 C   0  0  0  0  0  3  0  0  0  0  0  0
  -23.8860   -8.3340   22.0530 C   0  0  0  0  0  3  0  0  0  0  0  0
  -22.6730   -8.1420   21.3490 C   0  0  0  0  0  0  0  0  0  0  0  0
  -22.2360   -9.1320   20.4520 C   0  0  0  0  0  3  0  0  0  0  0  0
  -22.9800  -10.3090   20.2680 C   0  0  0  0  0  3  0  0  0  0  0  0
  -21.8980   -7.0120   21.4420 O   0  0  0  0  0  0  0  0  0  0  0  0
  -21.7920   -6.3070   22.6140 C   0  0  0  0  0  0  0  0  0  0  0  0
  -21.3180   -6.9040   23.8020 C   0  0  0  0  0  3  0  0  0  0  0  0
  -21.1620   -6.1270   24.9680 C   0  0  0  0  0  3  0  0  0  0  0  0
  -21.4660   -4.7520   24.9440 C   0  0  0  0  0  0  0  0  0  0  0  0
  -21.9330   -4.1550   23.7590 C   0  0  0  0  0  3  0  0  0  0  0  0
  -22.0920   -4.9300   22.5970 C   0  0  0  0  0  0  0  0  0  0  0  0
  -22.5210   -4.3450   21.4530 F   0  0  0  0  0  0  0  0  0  0  0  0
  -21.3090   -4.0030   26.0610 F   0  0  0  0  0  0  0  0  0  0  0  0
  -23.2110  -13.6240   21.5320 C   0  0  0  0  0  0  0  0  0  0  0  0
  -22.6060  -12.8910   22.4590 N   0  0  0  0  0  0  0  0  0  0  0  0
  -22.7370  -14.6940   21.1550 O   0  0  0  0  0  0  0  0  0  0  0  0
  -23.0070  -12.0250   22.7850 H   0  0  0  0  0  0  0  0  0  0  0  0
  -21.7290  -13.2040   22.8520 H   0  0  0  0  0  0  0  0  0  0  0  0
  -25.7600  -15.2740   20.4590 N   0  0  0  0  0  0  0  0  0  0  0  0
  -25.0450  -15.9360   20.7400 H   0  0  0  0  0  0  0  0  0  0  0  0
  -26.5520  -15.7120   20.0080 H   0  0  0  0  0  0  0  0  0  0  0  0
  -29.2010  -22.4550   19.5040 C   0  0  0  0  0  2  0  0  0  0  0  0
  -28.5450  -23.7580   20.1920 C   0  0  0  0  0  3  0  0  0  0  0  0
  -28.6040  -25.1500   19.3960 C   0  0  0  0  0  3  0  0  0  0  0  0
  -28.4140  -26.4570   20.0750 O   0  0  0  0  0  0  0  0  0  0  0  0
  -24.5170  -31.7640   23.0160 C   0  0  0  0  0  0  0  0  0  0  0  0
  -27.2460  -27.2310   20.0030 C   0  0  0  0  0  0  0  0  0  0  0  0
  -23.3480  -30.3150   21.3950 C   0  0  0  0  0  3  0  0  0  0  0  0
  -24.8340  -28.7770   19.9870 C   0  0  0  0  0  0  0  0  0  0  0  0
  -25.8770  -30.6920   21.2060 C   0  0  0  0  0  2  0  0  0  0  0  0
  -25.9890  -29.3070   20.5730 C   0  0  0  0  0  0  0  0  0  0  0  0
  -27.1930  -28.5430   20.5720 C   0  0  0  0  0  3  0  0  0  0  0  0
  -26.0610  -26.7450   19.4050 C   0  0  0  0  0  3  0  0  0  0  0  0
  -24.8720  -27.5020   19.3970 C   0  0  0  0  0  3  0  0  0  0  0  0
  -23.5760  -29.6210   20.0250 C   0  0  0  0  0  2  0  0  0  0  0  0
  -24.5990  -30.9420   21.9300 N   0  0  0  0  0  0  0  0  0  0  0  0
  -23.4260  -32.0220   23.5470 O   0  0  0  0  0  0  0  0  0  0  0  0
  -22.7090  -29.2960   22.3700 C   0  0  0  0  0  0  0  0  0  0  0  0
  -21.3900  -29.0750   22.2330 N   0  0  0  0  0  0  0  0  0  0  0  0
  -23.3980  -28.7070   23.2060 O   0  0  0  0  0  0  0  0  0  0  0  0
  -20.8910  -29.6040   21.5310 H   0  0  0  0  0  0  0  0  0  0  0  0
  -18.0480  -27.7850   22.7240 C   0  0  0  0  0  0  0  0  0  0  0  0
  -20.5940  -28.1250   23.0130 C   0  0  0  0  0  3  0  0  0  0  0  0
  -20.7440  -26.6880   22.4590 C   0  0  0  0  0  2  0  0  0  0  0  0
  -19.6610  -26.3170   21.4400 C   0  0  0  0  0  2  0  0  0  0  0  0
  -18.2700  -26.4310   22.0710 C   0  0  0  0  0  2  0  0  0  0  0  0
  -19.1390  -28.5870   23.1500 C   0  0  0  0  0  0  0  0  0  0  0  0
  -18.8770  -29.8520   23.7200 C   0  0  0  0  0  3  0  0  0  0  0  0
  -17.5550  -30.3160   23.8660 C   0  0  0  0  0  3  0  0  0  0  0  0
  -16.4790  -29.5130   23.4550 C   0  0  0  0  0  3  0  0  0  0  0  0
  -16.7250  -28.2480   22.8910 C   0  0  0  0  0  3  0  0  0  0  0  0
  -25.7840  -32.4350   23.6320 C   0  0  0  0  0  3  0  0  0  0  0  0
  -26.3690  -31.6440   24.8660 C   0  0  1  0  0  0  0  0  0  0  0  0
  -25.3110  -31.2860   25.9360 C   0  0  0  0  0  1  0  0  0  0  0  0
  -27.0350  -30.3280   24.4060 C   0  0  0  0  0  1  0  0  0  0  0  0
  -27.4740  -32.4830   25.5490 C   0  0  0  0  0  1  0  0  0  0  0  0
  -25.4180  -33.8030   24.0230 N   0  0  0  0  0  0  0  0  0  0  0  0
  -25.6840  -34.9000   23.3000 C   0  0  0  0  0  0  0  0  0  0  0  0
  -26.3310  -34.8670   22.2500 O   0  0  0  0  0  0  0  0  0  0  0  0
  -24.8390  -33.9000   24.8460 H   0  0  0  0  0  0  0  0  0  0  0  0
  -23.8710  -36.6250   23.0500 C   0  0  0  0  0  1  0  0  0  0  0  0
  -25.1440  -36.2450   23.8230 C   0  0  0  0  0  3  0  0  0  0  0  0
  -27.2510  -37.1900   24.6560 C   0  0  0  0  0  1  0  0  0  0  0  0
  -26.1280  -37.3470   23.7360 N   0  0  0  0  0  0  0  0  0  0  0  0
  -25.6850  -38.2400   23.9290 H   0  0  0  0  0  0  0  0  0  0  0  0
  1  3  1  0
  1  2  1  0
  4  1  1  0
  5 18  1  0
  6 11  1  0
  7  8  1  0
  7  6  1  0
  9  8  1  0
  9 24  1  0
  9 10  1  0
 11  5  1  0
 11 10  1  0
 12  5  2  0
 13 17  1  0
 13 19  2  0
 14 18  1  0
 14 16  1  0
 15 17  1  0
 16  4  1  0
 16 13  1  0
 17 20  1  0
 18 15  1  0
 21 22  2  0
 22 41  1  0
 23 26  1  0
 23 22  1  0
 24 25  1  0
 24 21  1  0
 25 23  2  0
 26 27  1  0
 27 28  2  0
 29 32  1  0
 29 28  1  0
 30 29  2  0
 31 30  1  0
 31 26  2  0
 32 33  1  0
 33 34  1  0
 34 35  2  0
 36 35  1  0
 36 40  1  0
 37 36  2  0
 38 33  2  0
 38 37  1  0
 39 38  1  0
 41 42  1  0
 42 44  1  0
 42 45  1  0
 43 41  2  0
 46 21  1  0
 46 47  1  0
 48 46  1  0
 49  1  1  0
 49 50  1  0
 51 52  1  0
 51 50  2  0
 53 64  2  0
 54 52  1  0
 54 59  1  0
 55 63  1  0
 55 65  1  0
 56 62  1  0
 56 58  1  0
 57 63  1  0
 58 57  1  0
 59 58  2  0
 60 54  2  0
 61 60  1  0
 61 56  2  0
 62 55  1  0
 63 53  1  0
 65 67  2  0
 66 65  1  0
 68 66  1  0
 69 78  2  0
 69 74  1  0
 70 66  1  0
 70 74  1  0
 71 70  1  0
 72 73  1  0
 72 71  1  0
 73 69  1  0
 74 75  2  0
 75 76  1  0
 77 76  2  0
 78 77  1  0
 79 53  1  0
 79 84  1  0
 79 80  1  0
 80 83  1  1
 80 81  1  0
 82 80  1  0
 84 87  1  0
 85 89  1  0
 85 84  1  0
 86 85  2  0
 89 88  1  0
 91 89  1  0
 91 92  1  0
 91 90  1  0
M  ISO  4   5 100  18 100  51 101  52 101
M  END
>  <TORSDO>  (45) 
F 20

>  <SCORE>  (45) 
-12.195

>  <name>  (45) 
45

>  <ligand_id>  (45) 
45

>  <original_smiles>  (45) 
[H]c1c([H])c([H])c2c(c1[H])C([H])([H])C([H])([H])C([H])([H])C2([H])N([H])C(=O)C1([H])N(C(=O)C([H])(N([H])C(=O)C([H])(N([H])C([H])([H])[H])C([H])([H])[H])C(C([H])([H])[H])(C([H])([H])[H])C([H])([H])[H])C([H])([H])c2c([H])c(OC([H])([H])C([H])([H])C([H])([H])[N+]([H])([H])C([H])([H])C3([H])C(=O)N([H])C([H])([H])N(C(=O)N4C([H])([H])C([H])([H])C([H])([H])C([H])(n5nc(-c6c([H])c([H])c(Oc7c([H])c([H])c(F)c([H])c7F)c([H])c6[H])c(C(=O)N([H])[H])c5N([H])[H])C4([H])[H])C3([H])[H])c([H])c([H])c2C1([H])[H]

>  <smiles>  (45) 
[H]c1c([H])c([H])c2c(c1[H])C([H])([H])C([H])([H])C([H])([H])C2([H])N([H])C(=O)C1([H])N(C(=O)C([H])(N([H])C(=O)C([H])(N([H])C([H])([H])[H])C([H])([H])[H])C(C([H])([H])[H])(C([H])([H])[H])C([H])([H])[H])C([H])([H])c2c([H])c(OC([H])([H])C([H])([H])C([H])([H])[N+]([H])([H])C([H])([H])C3([H])C(=O)N([H])C([H])([H])N(C(=O)N4C([H])([H])C([H])([H])C([H])([H])C([H])(n5nc(-c6c([H])c([H])c(Oc7c([H])c([H])c(F)c([H])c7F)c([H])c6[H])c(C(=O)N([H])[H])c5N([H])[H])C4([H])[H])C3([H])[H])c([H])c([H])c2C1([H])[H]

$$$$
46:0:0
     RDKit          3D

 94102  0  0  1  0  0  0  0  0999 V2000
  -30.8690  -22.0540   20.1860 C   0  0  0  0  0  2  0  0  0  0  0  0
  -28.6420  -21.7240   20.9600 C   0  0  0  0  0  2  0  0  0  0  0  0
  -31.0210  -20.5090   19.9190 C   0  0  0  0  0  2  0  0  0  0  0  0
  -28.8010  -20.1740   20.6890 C   0  0  0  0  0  2  0  0  0  0  0  0
  -29.4830  -22.5920   20.0960 N   0  0  0  0  0  0  0  0  0  0  0  0
  -30.2000  -19.7190   20.8570 N   0  0  0  0  0  0  0  0  0  0  0  0
  -29.4580  -24.0720   20.4460 C   0  0  0  0  0  3  0  0  0  0  0  0
  -28.1960  -24.9810   20.1260 C   0  0  0  0  0  3  0  0  0  0  0  0
  -28.3580  -26.4410   20.3120 O   0  0  0  0  0  0  0  0  0  0  0  0
  -24.6010  -31.8580   23.2240 C   0  0  0  0  0  0  0  0  0  0  0  0
  -27.2220  -27.2640   20.2480 C   0  0  0  0  0  0  0  0  0  0  0  0
  -23.4040  -30.4470   21.5900 C   0  0  0  0  0  3  0  0  0  0  0  0
  -24.8570  -28.8750   20.1940 C   0  0  0  0  0  0  0  0  0  0  0  0
  -25.9420  -30.7570   21.4170 C   0  0  0  0  0  2  0  0  0  0  0  0
  -26.0210  -29.3680   20.7980 C   0  0  0  0  0  0  0  0  0  0  0  0
  -27.2050  -28.5720   20.8200 C   0  0  0  0  0  3  0  0  0  0  0  0
  -26.0360  -26.8190   19.6190 C   0  0  0  0  0  3  0  0  0  0  0  0
  -24.8680  -27.6040   19.5940 C   0  0  0  0  0  3  0  0  0  0  0  0
  -23.6310  -29.7640   20.2150 C   0  0  0  0  0  2  0  0  0  0  0  0
  -24.6690  -31.0370   22.1350 N   0  0  0  0  0  0  0  0  0  0  0  0
  -23.5170  -32.1470   23.7470 O   0  0  0  0  0  0  0  0  0  0  0  0
  -22.7330  -29.4410   22.5550 C   0  0  0  0  0  0  0  0  0  0  0  0
  -21.4030  -29.2820   22.4380 N   0  0  0  0  0  0  0  0  0  0  0  0
  -23.4060  -28.8090   23.3750 O   0  0  0  0  0  0  0  0  0  0  0  0
  -20.9190  -29.8480   21.7530 H   0  0  0  0  0  0  0  0  0  0  0  0
  -18.0110  -28.1430   22.9630 C   0  0  0  0  0  0  0  0  0  0  0  0
  -20.5750  -28.3630   23.2200 C   0  0  0  0  0  3  0  0  0  0  0  0
  -20.6520  -26.9270   22.6510 C   0  0  0  0  0  2  0  0  0  0  0  0
  -19.5370  -26.6170   21.6470 C   0  0  0  0  0  2  0  0  0  0  0  0
  -18.1610  -26.7870   22.2950 C   0  0  0  0  0  2  0  0  0  0  0  0
  -19.1450  -28.8880   23.3850 C   0  0  0  0  0  0  0  0  0  0  0  0
  -18.9470  -30.1590   23.9710 C   0  0  0  0  0  3  0  0  0  0  0  0
  -17.6500  -30.6790   24.1420 C   0  0  0  0  0  3  0  0  0  0  0  0
  -16.5330  -29.9310   23.7320 C   0  0  0  0  0  3  0  0  0  0  0  0
  -16.7160  -28.6670   23.1450 C   0  0  0  0  0  3  0  0  0  0  0  0
  -25.8820  -32.4920   23.8480 C   0  0  0  0  0  3  0  0  0  0  0  0
  -25.5670  -33.8870   24.1870 N   0  0  0  0  0  0  0  0  0  0  0  0
  -25.8950  -34.9470   23.4350 C   0  0  0  0  0  0  0  0  0  0  0  0
  -26.5670  -34.8510   22.4040 O   0  0  0  0  0  0  0  0  0  0  0  0
  -24.9700  -34.0340   24.9870 H   0  0  0  0  0  0  0  0  0  0  0  0
  -24.1630  -36.7390   23.0880 C   0  0  0  0  0  1  0  0  0  0  0  0
  -25.4020  -36.3300   23.8990 C   0  0  0  0  0  3  0  0  0  0  0  0
  -27.5340  -37.2180   24.7360 C   0  0  0  0  0  1  0  0  0  0  0  0
  -26.4300  -37.3890   23.7960 N   0  0  0  0  0  0  0  0  0  0  0  0
  -26.0190  -38.3050   23.9490 H   0  0  0  0  0  0  0  0  0  0  0  0
  -26.4040  -31.7100   25.1150 C   0  0  1  0  0  0  0  0  0  0  0  0
  -25.3170  -31.4610   26.1860 C   0  0  0  0  0  1  0  0  0  0  0  0
  -26.9890  -30.3360   24.7070 C   0  0  0  0  0  1  0  0  0  0  0  0
  -27.5510  -32.5050   25.7820 C   0  0  0  0  0  1  0  0  0  0  0  0
  -30.5090  -18.2400   21.0610 C   0  0  0  0  0  3  0  0  0  0  0  0
  -30.0640  -17.1490   19.9880 C   0  0  0  0  0  2  0  0  0  0  0  0
  -30.7370  -14.6090   20.0780 C   0  0  0  0  0  0  0  0  0  0  0  0
  -30.4440  -12.3890   19.0220 C   0  0  0  0  0  2  0  0  0  0  0  0
  -29.4620  -12.5750   17.8440 C   0  0  0  0  0  2  0  0  0  0  0  0
  -27.9970  -12.4470   18.3140 C   0  0  0  0  0  2  0  0  0  0  0  0
  -27.7040  -13.2690   19.5980 C   0  0  0  0  0  3  0  0  0  0  0  0
  -28.8040  -13.0700   20.6680 C   0  0  0  0  0  2  0  0  0  0  0  0
  -30.0950  -13.3960   20.0410 N   0  0  0  0  0  0  0  0  0  0  0  0
  -31.8780  -14.7490   19.6380 O   0  0  0  0  0  0  0  0  0  0  0  0
  -29.9700  -15.6910   20.4050 N   0  0  0  0  0  0  0  0  0  0  0  0
  -29.0740  -15.4250   20.7780 H   0  0  0  0  0  0  0  0  0  0  0  0
  -25.3380  -13.8790   20.3970 C   0  0  0  0  0  0  0  0  0  0  0  0
  -24.2780  -13.1140   20.8020 C   0  0  0  0  0  0  0  0  0  0  0  0
  -24.7250  -11.7590   20.7490 C   0  0  0  0  0  0  0  0  0  0  0  0
  -26.3670  -12.9910   20.1250 N   0  0  0  0  0  0  0  0  0  0  0  0
  -26.0040  -11.7090   20.3950 N   0  0  0  0  0  0  0  0  0  0  0  0
  -23.9890  -10.5020   20.9630 C   0  0  0  0  0  0  0  0  0  0  0  0
  -24.4420   -9.5330   21.8870 C   0  0  0  0  0  3  0  0  0  0  0  0
  -23.7100   -8.3400   22.0880 C   0  0  0  0  0  3  0  0  0  0  0  0
  -22.5140   -8.1110   21.3670 C   0  0  0  0  0  0  0  0  0  0  0  0
  -22.0810   -9.0700   20.4330 C   0  0  0  0  0  3  0  0  0  0  0  0
  -22.8120  -10.2510   20.2310 C   0  0  0  0  0  3  0  0  0  0  0  0
  -21.7520   -6.9720   21.4780 O   0  0  0  0  0  0  0  0  0  0  0  0
  -21.7190   -6.2390   22.6390 C   0  0  0  0  0  0  0  0  0  0  0  0
  -21.3300   -6.8080   23.8700 C   0  0  0  0  0  3  0  0  0  0  0  0
  -21.2430   -6.0020   25.0240 C   0  0  0  0  0  3  0  0  0  0  0  0
  -21.5340   -4.6260   24.9430 C   0  0  0  0  0  0  0  0  0  0  0  0
  -21.9200   -4.0560   23.7170 C   0  0  0  0  0  3  0  0  0  0  0  0
  -22.0090   -4.8600   22.5680 C   0  0  0  0  0  0  0  0  0  0  0  0
  -22.3580   -4.3040   21.3830 F   0  0  0  0  0  0  0  0  0  0  0  0
  -21.4460   -3.8500   26.0470 F   0  0  0  0  0  0  0  0  0  0  0  0
  -22.8930  -13.6070   21.1280 C   0  0  0  0  0  0  0  0  0  0  0  0
  -22.1900  -12.9180   22.0200 N   0  0  0  0  0  0  0  0  0  0  0  0
  -22.4460  -14.6370   20.6270 O   0  0  0  0  0  0  0  0  0  0  0  0
  -22.5600  -12.0860   22.4530 H   0  0  0  0  0  0  0  0  0  0  0  0
  -21.2630  -13.2300   22.2770 H   0  0  0  0  0  0  0  0  0  0  0  0
  -25.5080  -15.2460   20.2140 N   0  0  0  0  0  0  0  0  0  0  0  0
  -24.7420  -15.9010   20.3270 H   0  0  0  0  0  0  0  0  0  0  0  0
  -26.3380  -15.6640   19.8110 H   0  0  0  0  0  0  0  0  0  0  0  0
  -30.1670  -17.8120   22.5170 C   0  0  0  0  0  2  0  0  0  0  0  0
  -31.3060  -18.0270   23.4300 N   0  0  0  0  0  4  0  0  0  0  0  0
  -32.1400  -17.5880   23.0810 H   0  0  0  0  0  0  0  0  0  0  0  0
  -31.0990  -17.6210   24.3240 H   0  0  0  0  0  0  0  0  0  0  0  0
  -31.4920  -19.0080   23.5600 H   0  0  0  0  0  0  0  0  0  0  0  0
  3  1  1  0
  3  6  1  0
  4  6  1  0
  4  2  1  0
  5  1  1  0
  5  7  1  0
  5  2  1  0
  6 50  1  0
  8  9  1  0
  8  7  2  0
 10 21  2  0
 11  9  1  0
 11 16  1  0
 12 20  1  0
 12 22  1  0
 13 19  1  0
 13 15  1  0
 14 20  1  0
 15 16  2  0
 15 14  1  0
 17 11  2  0
 18 17  1  0
 18 13  2  0
 19 12  1  0
 20 10  1  0
 22 24  2  0
 23 22  1  0
 25 23  1  0
 26 35  2  0
 26 31  1  0
 27 23  1  0
 27 31  1  0
 28 27  1  0
 29 30  1  0
 29 28  1  0
 30 26  1  0
 31 32  2  0
 32 33  1  0
 34 33  2  0
 35 34  1  0
 36 10  1  0
 36 37  1  0
 36 46  1  0
 37 40  1  0
 38 42  1  0
 38 37  1  0
 39 38  2  0
 42 41  1  0
 44 42  1  0
 44 45  1  0
 44 43  1  0
 46 49  1  1
 46 47  1  0
 48 46  1  0
 50 51  1  0
 50 90  1  0
 51 60  1  0
 52 60  1  0
 53 58  1  0
 54 55  1  0
 54 53  1  0
 56 55  1  0
 56 65  1  0
 56 57  1  0
 58 52  1  0
 58 57  1  0
 59 52  2  0
 60 61  1  0
 62 63  2  0
 63 82  1  0
 64 63  1  0
 64 67  1  0
 65 66  1  0
 65 62  1  0
 66 64  2  0
 67 68  1  0
 68 69  2  0
 70 73  1  0
 70 69  1  0
 71 70  2  0
 72 71  1  0
 72 67  2  0
 73 74  1  0
 74 75  1  0
 75 76  2  0
 77 76  1  0
 77 81  1  0
 78 77  2  0
 79 74  2  0
 79 78  1  0
 80 79  1  0
 82 83  1  0
 83 86  1  0
 83 85  1  0
 84 82  2  0
 87 88  1  0
 87 62  1  0
 89 87  1  0
 90 91  1  0
 91 94  1  0
 91 93  1  0
 92 91  1  0
M  ISO  4   8 101   9 101  52 100  60 100
M  END
>  <TORSDO>  (46) 
F 22

>  <SCORE>  (46) 
-12.805

>  <name>  (46) 
46

>  <ligand_id>  (46) 
46

>  <original_smiles>  (46) 
[H]c1c([H])c([H])c2c(c1[H])C([H])([H])C([H])([H])C([H])([H])C2([H])N([H])C(=O)C1([H])N(C(=O)C([H])(N([H])C(=O)C([H])(N([H])C([H])([H])[H])C([H])([H])[H])C(C([H])([H])[H])(C([H])([H])[H])C([H])([H])[H])C([H])([H])c2c([H])c(OC([H])([H])C([H])([H])N3C([H])([H])C([H])([H])N(C([H])(C([H])([H])N([H])C(=O)N4C([H])([H])C([H])([H])C([H])([H])C([H])(n5nc(-c6c([H])c([H])c(Oc7c([H])c([H])c(F)c([H])c7F)c([H])c6[H])c(C(=O)N([H])[H])c5N([H])[H])C4([H])[H])C([H])([H])[N+]([H])([H])[H])C([H])([H])C3([H])[H])c([H])c([H])c2C1([H])[H]

>  <smiles>  (46) 
[H]c1c([H])c([H])c2c(c1[H])C([H])([H])C([H])([H])C([H])([H])C2([H])N([H])C(=O)C1([H])N(C(=O)C([H])(N([H])C(=O)C([H])(N([H])C([H])([H])[H])C([H])([H])[H])C(C([H])([H])[H])(C([H])([H])[H])C([H])([H])[H])C([H])([H])c2c([H])c(OC([H])([H])C([H])([H])N3C([H])([H])C([H])([H])N(C([H])(C([H])([H])N([H])C(=O)N4C([H])([H])C([H])([H])C([H])([H])C([H])(n5nc(-c6c([H])c([H])c(Oc7c([H])c([H])c(F)c([H])c7F)c([H])c6[H])c(C(=O)N([H])[H])c5N([H])[H])C4([H])[H])C([H])([H])[N+]([H])([H])[H])C([H])([H])C3([H])[H])c([H])c([H])c2C1([H])[H]

$$$$
47:0:0
     RDKit          3D

 95103  0  0  1  0  0  0  0  0999 V2000
  -29.4030  -19.2060   19.7990 N   0  0  0  0  0  4  0  0  0  0  0  0
  -28.8040  -19.1610   20.6060 H   0  0  0  0  0  0  0  0  0  0  0  0
  -28.8030  -19.2010   18.9880 H   0  0  0  0  0  0  0  0  0  0  0  0
  -30.2860  -17.9810   19.7450 C   0  0  0  0  0  2  0  0  0  0  0  0
  -30.9040  -14.6200   19.3340 C   0  0  0  0  0  0  0  0  0  0  0  0
  -30.3970  -12.5260   18.1110 C   0  0  0  0  0  2  0  0  0  0  0  0
  -29.2850  -12.7580   17.0690 C   0  0  0  0  0  2  0  0  0  0  0  0
  -27.8970  -12.5700   17.7030 C   0  0  0  0  0  2  0  0  0  0  0  0
  -27.7470  -13.3510   19.0340 C   0  0  0  0  0  3  0  0  0  0  0  0
  -28.9560  -13.1220   19.9680 C   0  0  0  0  0  2  0  0  0  0  0  0
  -30.1820  -13.4660   19.2280 N   0  0  0  0  0  0  0  0  0  0  0  0
  -31.8680  -14.8620   18.6020 O   0  0  0  0  0  0  0  0  0  0  0  0
  -31.6140  -15.6490   21.4120 C   0  0  0  0  0  2  0  0  0  0  0  0
  -31.0290  -16.2340   22.7210 C   0  0  0  0  0  2  0  0  0  0  0  0
  -28.8780  -16.7490   21.6130 C   0  0  0  0  0  2  0  0  0  0  0  0
  -29.6390  -16.6130   20.2510 C   0  0  0  0  0  3  0  0  0  0  0  0
  -30.5980  -15.4680   20.3540 N   0  0  0  0  0  0  0  0  0  0  0  0
  -29.5590  -16.0980   22.7590 N   0  0  0  0  0  4  0  0  0  0  0  0
  -29.1990  -16.4760   23.6220 H   0  0  0  0  0  0  0  0  0  0  0  0
  -29.3460  -15.1150   22.7630 H   0  0  0  0  0  0  0  0  0  0  0  0
  -25.4780  -13.8980   20.0980 C   0  0  0  0  0  0  0  0  0  0  0  0
  -24.4850  -13.1040   20.6030 C   0  0  0  0  0  0  0  0  0  0  0  0
  -24.9510  -11.7590   20.4750 C   0  0  0  0  0  0  0  0  0  0  0  0
  -26.4840  -13.0380   19.6950 N   0  0  0  0  0  0  0  0  0  0  0  0
  -26.1810  -11.7450   19.9770 N   0  0  0  0  0  0  0  0  0  0  0  0
  -24.2730  -10.4830   20.7410 C   0  0  0  0  0  0  0  0  0  0  0  0
  -24.7590   -9.5790   21.7110 C   0  0  0  0  0  3  0  0  0  0  0  0
  -24.0820   -8.3630   21.9540 C   0  0  0  0  0  3  0  0  0  0  0  0
  -22.9060   -8.0480   21.2340 C   0  0  0  0  0  0  0  0  0  0  0  0
  -22.4410   -8.9430   20.2530 C   0  0  0  0  0  3  0  0  0  0  0  0
  -23.1180  -10.1480   20.0080 C   0  0  0  0  0  3  0  0  0  0  0  0
  -22.1960   -6.8810   21.3890 O   0  0  0  0  0  0  0  0  0  0  0  0
  -22.0670   -6.2770   22.6150 C   0  0  0  0  0  0  0  0  0  0  0  0
  -21.5280   -6.9550   23.7310 C   0  0  0  0  0  3  0  0  0  0  0  0
  -21.3510   -6.2720   24.9500 C   0  0  0  0  0  3  0  0  0  0  0  0
  -21.7010   -4.9120   25.0540 C   0  0  0  0  0  0  0  0  0  0  0  0
  -22.2320   -4.2340   23.9410 C   0  0  0  0  0  3  0  0  0  0  0  0
  -22.4090   -4.9130   22.7240 C   0  0  0  0  0  0  0  0  0  0  0  0
  -22.9010   -4.2490   21.6510 F   0  0  0  0  0  0  0  0  0  0  0  0
  -21.5210   -4.2550   26.2220 F   0  0  0  0  0  0  0  0  0  0  0  0
  -23.1370  -13.5580   21.0810 C   0  0  0  0  0  0  0  0  0  0  0  0
  -22.5690  -12.8640   22.0630 N   0  0  0  0  0  0  0  0  0  0  0  0
  -22.6050  -14.5670   20.6220 O   0  0  0  0  0  0  0  0  0  0  0  0
  -21.6830  -13.1650   22.4460 H   0  0  0  0  0  0  0  0  0  0  0  0
  -23.0240  -12.0570   22.4580 H   0  0  0  0  0  0  0  0  0  0  0  0
  -25.6020  -15.2710   19.9210 N   0  0  0  0  0  0  0  0  0  0  0  0
  -24.7920  -15.8650   20.0580 H   0  0  0  0  0  0  0  0  0  0  0  0
  -26.2640  -15.6610   19.2620 H   0  0  0  0  0  0  0  0  0  0  0  0
  -30.0980  -20.5380   19.8630 C   0  0  0  0  0  2  0  0  0  0  0  0
  -29.2000  -21.7860   19.4930 C   0  0  0  0  0  2  0  0  0  0  0  0
  -29.4760  -23.0290   20.2570 N   0  0  0  0  0  0  0  0  0  0  0  0
  -30.4820  -23.1600   20.3400 H   0  0  0  0  0  0  0  0  0  0  0  0
  -28.9090  -24.2690   19.6620 C   0  0  0  0  0  2  0  0  0  0  0  0
  -28.9460  -25.5060   20.6330 C   0  0  0  0  0  2  0  0  0  0  0  0
  -28.8800  -26.8280   20.0350 O   0  0  0  0  0  0  0  0  0  0  0  0
  -24.8640  -31.7580   23.3590 C   0  0  0  0  0  0  0  0  0  0  0  0
  -27.6810  -27.5210   20.1110 C   0  0  0  0  0  0  0  0  0  0  0  0
  -23.7110  -30.3620   21.6750 C   0  0  0  0  0  3  0  0  0  0  0  0
  -25.2230  -28.9380   20.1870 C   0  0  0  0  0  0  0  0  0  0  0  0
  -26.2210  -30.8320   21.4780 C   0  0  0  0  0  2  0  0  0  0  0  0
  -26.3640  -29.4910   20.7820 C   0  0  0  0  0  0  0  0  0  0  0  0
  -27.5980  -28.7940   20.7340 C   0  0  0  0  0  3  0  0  0  0  0  0
  -26.5220  -26.9860   19.5140 C   0  0  0  0  0  3  0  0  0  0  0  0
  -25.2980  -27.6850   19.5500 C   0  0  0  0  0  3  0  0  0  0  0  0
  -23.9430  -29.7410   20.2700 C   0  0  0  0  0  2  0  0  0  0  0  0
  -24.9500  -31.0000   22.2280 N   0  0  0  0  0  0  0  0  0  0  0  0
  -23.7760  -31.9610   23.9170 O   0  0  0  0  0  0  0  0  0  0  0  0
  -23.1130  -29.2800   22.6040 C   0  0  0  0  0  0  0  0  0  0  0  0
  -21.7990  -29.0310   22.4710 N   0  0  0  0  0  0  0  0  0  0  0  0
  -23.8300  -28.6660   23.3980 O   0  0  0  0  0  0  0  0  0  0  0  0
  -21.2780  -29.5810   21.8020 H   0  0  0  0  0  0  0  0  0  0  0  0
  -18.4950  -27.6390   22.9360 C   0  0  0  0  0  0  0  0  0  0  0  0
  -21.0360  -28.0270   23.2120 C   0  0  0  0  0  3  0  0  0  0  0  0
  -21.2140  -26.6220   22.5910 C   0  0  0  0  0  2  0  0  0  0  0  0
  -20.1300  -26.2740   21.5670 C   0  0  0  0  0  2  0  0  0  0  0  0
  -18.7430  -26.3240   22.2160 C   0  0  0  0  0  2  0  0  0  0  0  0
  -19.5720  -28.4460   23.3880 C   0  0  0  0  0  0  0  0  0  0  0  0
  -19.2890  -29.6750   24.0210 C   0  0  0  0  0  3  0  0  0  0  0  0
  -17.9600  -30.1010   24.2040 C   0  0  0  0  0  3  0  0  0  0  0  0
  -16.8960  -29.2930   23.7680 C   0  0  0  0  0  3  0  0  0  0  0  0
  -17.1650  -28.0620   23.1400 C   0  0  0  0  0  3  0  0  0  0  0  0
  -26.1250  -32.4280   23.9910 C   0  0  0  0  0  3  0  0  0  0  0  0
  -26.6820  -31.6470   25.2440 C   0  0  1  0  0  0  0  0  0  0  0  0
  -25.6040  -31.3230   26.3040 C   0  0  0  0  0  1  0  0  0  0  0  0
  -27.3360  -30.3120   24.8150 C   0  0  0  0  0  1  0  0  0  0  0  0
  -27.7920  -32.4790   25.9280 C   0  0  0  0  0  1  0  0  0  0  0  0
  -25.7590  -33.8030   24.3560 N   0  0  0  0  0  0  0  0  0  0  0  0
  -26.0480  -34.8880   23.6270 C   0  0  0  0  0  0  0  0  0  0  0  0
  -26.7200  -34.8410   22.5930 O   0  0  0  0  0  0  0  0  0  0  0  0
  -25.1560  -33.9120   25.1590 H   0  0  0  0  0  0  0  0  0  0  0  0
  -24.2520  -36.6220   23.3160 C   0  0  0  0  0  1  0  0  0  0  0  0
  -25.5040  -36.2420   24.1210 C   0  0  0  0  0  3  0  0  0  0  0  0
  -27.5980  -37.1850   24.9920 C   0  0  0  0  0  1  0  0  0  0  0  0
  -26.4950  -37.3380   24.0460 N   0  0  0  0  0  0  0  0  0  0  0  0
  -26.0530  -38.2360   24.2180 H   0  0  0  0  0  0  0  0  0  0  0  0
  1 49  1  0
  1  2  1  0
  3  1  1  0
  4  1  1  0
  5 17  1  0
  6 11  1  0
  7  8  1  0
  7  6  1  0
  9  8  1  0
  9 24  1  0
  9 10  1  0
 11  5  1  0
 11 10  1  0
 12  5  2  0
 13 14  1  0
 14 18  1  0
 15 18  1  0
 16  4  1  0
 16 17  1  0
 16 15  1  0
 17 13  1  0
 18 20  1  0
 18 19  1  0
 21 22  2  0
 22 41  1  0
 23 22  1  0
 23 26  1  0
 24 25  1  0
 24 21  1  0
 25 23  2  0
 26 27  1  0
 27 28  2  0
 29 32  1  0
 29 28  1  0
 30 29  2  0
 31 30  1  0
 31 26  2  0
 32 33  1  0
 33 38  2  0
 33 34  1  0
 34 35  2  0
 35 36  1  0
 36 40  1  0
 37 36  2  0
 38 37  1  0
 39 38  1  0
 41 42  1  0
 42 44  1  0
 42 45  1  0
 43 41  2  0
 46 47  1  0
 46 21  1  0
 48 46  1  0
 50 49  1  0
 50 51  1  0
 51 52  1  0
 53 51  1  0
 53 54  1  0
 55 57  1  0
 55 54  1  0
 56 67  2  0
 57 62  1  0
 58 66  1  0
 58 68  1  0
 59 65  1  0
 59 61  1  0
 60 66  1  0
 61 60  1  0
 62 61  2  0
 63 64  1  0
 63 57  2  0
 64 59  2  0
 65 58  1  0
 66 56  1  0
 68 70  2  0
 69 68  1  0
 71 69  1  0
 72 81  2  0
 72 77  1  0
 73 69  1  0
 73 77  1  0
 74 73  1  0
 75 76  1  0
 75 74  1  0
 76 72  1  0
 77 78  2  0
 78 79  1  0
 80 79  2  0
 81 80  1  0
 82 56  1  0
 82 87  1  0
 82 83  1  0
 83 86  1  1
 83 84  1  0
 85 83  1  0
 87 90  1  0
 88 92  1  0
 88 87  1  0
 89 88  2  0
 92 91  1  0
 94 92  1  0
 94 95  1  0
 94 93  1  0
M  ISO  4   5 100  17 100  54 101  55 101
M  END
>  <TORSDO>  (47) 
F 22

>  <SCORE>  (47) 
-7.446

>  <name>  (47) 
47

>  <ligand_id>  (47) 
47

>  <original_smiles>  (47) 
[H]c1c([H])c([H])c2c(c1[H])C([H])([H])C([H])([H])C([H])([H])C2([H])N([H])C(=O)C1([H])N(C(=O)C([H])(N([H])C(=O)C([H])(N([H])C([H])([H])[H])C([H])([H])[H])C(C([H])([H])[H])(C([H])([H])[H])C([H])([H])[H])C([H])([H])c2c([H])c(OC([H])([H])C([H])([H])N([H])C([H])([H])C([H])([H])[N+]([H])([H])C([H])([H])C3([H])N(C(=O)N4C([H])([H])C([H])([H])C([H])([H])C([H])(n5nc(-c6c([H])c([H])c(Oc7c([H])c([H])c(F)c([H])c7F)c([H])c6[H])c(C(=O)N([H])[H])c5N([H])[H])C4([H])[H])C([H])([H])C([H])([H])[N+]([H])([H])C3([H])[H])c([H])c([H])c2C1([H])[H]

>  <smiles>  (47) 
[H]c1c([H])c([H])c2c(c1[H])C([H])([H])C([H])([H])C([H])([H])C2([H])N([H])C(=O)C1([H])N(C(=O)C([H])(N([H])C(=O)C([H])(N([H])C([H])([H])[H])C([H])([H])[H])C(C([H])([H])[H])(C([H])([H])[H])C([H])([H])[H])C([H])([H])c2c([H])c(OC([H])([H])C([H])([H])N([H])C([H])([H])C([H])([H])[N+]([H])([H])C([H])([H])C3([H])N(C(=O)N4C([H])([H])C([H])([H])C([H])([H])C([H])(n5nc(-c6c([H])c([H])c(Oc7c([H])c([H])c(F)c([H])c7F)c([H])c6[H])c(C(=O)N([H])[H])c5N([H])[H])C4([H])[H])C([H])([H])C([H])([H])[N+]([H])([H])C3([H])[H])c([H])c([H])c2C1([H])[H]

$$$$
48:0:0
     RDKit          3D

107109  0  0  1  0  0  0  0  0999 V2000
  -27.0430  -22.1770   21.4260 C   0  0  0  0  0  2  0  0  0  0  0  0
  -25.1610  -24.5570   21.9450 C   0  0  0  0  0  2  0  0  0  0  0  0
  -26.5820  -25.9390   21.6540 C   0  0  0  0  0 15  0  0  0  0  0  0
  -24.4530  -26.0760   21.3680 C   0  0  0  0  0  3  0  0  0  0  0  0
  -25.2420  -27.6910   21.5010 C   0  0  0  0  0  1  0  0  0  0  0  0
  -26.5770  -23.9630   21.5630 N   0  0  0  0  0  2  0  0  0  0  0  0
  -25.9780  -21.6010   21.6630 O   0  0  0  0  0  1  0  0  0  0  0  0
  -24.9610  -30.2800   20.3990 N   0  0  0  0  0  4  0  0  0  0  0  0
  -24.1040  -30.7340   20.6580 H   0  0  0  0  0  0  0  0  0  0  0  0
  -24.9500  -30.1450   19.3960 H   0  0  0  0  0  0  0  0  0  0  0  0
  -25.7690  -30.8580   20.5990 H   0  0  0  0  0  0  0  0  0  0  0  0
  -23.8910  -25.3860   20.0190 C   0  0  0  0  0  2  0  0  0  0  0  0
  -24.7310  -25.3300   18.7830 N   0  0  0  0  0  4  0  0  0  0  0  0
  -24.0030  -25.3300   18.0830 H   0  0  0  0  0  0  0  0  0  0  0  0
  -25.1920  -26.2180   18.6330 H   0  0  0  0  0  0  0  0  0  0  0  0
  -25.6230  -24.2570   18.2540 C   0  0  0  0  0  2  0  0  0  0  0  0
  -27.1890  -24.4840   18.0050 C   0  0  0  0  0  2  0  0  0  0  0  0
  -28.0630  -25.7560   17.6400 C   0  0  0  0  0  2  0  0  0  0  0  0
  -28.3370  -26.8210   18.6070 O   0  0  0  0  0  0  0  0  0  0  0  0
  -24.6760  -31.6060   23.2230 C   0  0  0  0  0  0  0  0  0  0  0  0
  -27.4600  -27.8570   18.6020 C   0  0  0  0  0  3  0  0  0  0  0  0
  -23.3260  -29.8800   21.7350 C   0  0  0  0  0  2  0  0  0  0  0  0
  -25.0470  -29.0070   18.9520 C   0  0  0  0  0  2  0  0  0  0  0  0
  -26.4680  -30.0780   21.6640 C   0  0  0  0  0  2  0  0  0  0  0  0
  -26.5330  -29.4450   19.8200 C   0  0  1  0  0  0  0  0  0  0  0  0
  -27.6780  -28.8590   19.5230 C   0  0  0  0  0  2  0  0  0  0  0  0
  -26.3420  -27.7930   17.7200 C   0  0  0  0  0  2  0  0  0  0  0  0
  -25.1150  -28.4110   17.8190 C   0  0  0  0  0  2  0  0  0  0  0  0
  -23.3130  -29.1230   19.8810 C   0  0  0  0  0 15  0  0  0  0  0  0
  -24.8720  -30.3840   22.5230 N   0  0  0  0  0  0  0  0  0  0  0  0
  -23.5480  -32.0350   23.5330 O   0  0  0  0  0  0  0  0  0  0  0  0
  -22.5340  -29.2070   22.6410 C   0  0  0  0  0  0  0  0  0  0  0  0
  -21.2470  -29.2510   22.3860 N   0  0  0  0  0  0  0  0  0  0  0  0
  -23.1390  -28.5820   23.4890 O   0  0  0  0  0  0  0  0  0  0  0  0
  -20.8740  -29.8190   21.6400 H   0  0  0  0  0  0  0  0  0  0  0  0
  -17.9070  -28.1670   22.6820 C   0  0  0  0  0  0  0  0  0  0  0  0
  -20.4100  -28.2950   23.0120 C   0  0  0  0  0  3  0  0  0  0  0  0
  -20.5080  -26.9710   22.2220 C   0  0  0  0  0  2  0  0  0  0  0  0
  -19.4300  -26.8410   21.1590 C   0  0  0  0  0  2  0  0  0  0  0  0
  -18.0700  -26.9040   21.8500 C   0  0  0  0  0  2  0  0  0  0  0  0
  -19.0270  -28.8580   23.1850 C   0  0  0  0  0  0  0  0  0  0  0  0
  -18.8600  -30.0700   23.8860 C   0  0  0  0  0  3  0  0  0  0  0  0
  -17.5740  -30.5710   24.1270 C   0  0  0  0  0  3  0  0  0  0  0  0
  -16.4520  -29.8560   23.6670 C   0  0  0  0  0  3  0  0  0  0  0  0
  -16.6180  -28.6560   22.9530 C   0  0  0  0  0  3  0  0  0  0  0  0
  -25.8680  -32.4830   23.7470 C   0  0  0  0  0  3  0  0  0  0  0  0
  -25.4930  -33.9100   24.0120 N   0  0  0  0  0  0  0  0  0  0  0  0
  -25.8950  -35.0210   23.3590 C   0  0  0  0  0  0  0  0  0  0  0  0
  -26.6280  -34.9690   22.3690 O   0  0  0  0  0  0  0  0  0  0  0  0
  -24.8280  -34.0410   24.7560 H   0  0  0  0  0  0  0  0  0  0  0  0
  -24.1960  -36.8860   23.0890 C   0  0  0  0  0  1  0  0  0  0  0  0
  -25.4290  -36.4100   23.8760 C   0  0  0  0  0  3  0  0  0  0  0  0
  -27.5610  -37.2730   24.7620 C   0  0  0  0  0  1  0  0  0  0  0  0
  -26.4670  -37.4700   23.8200 N   0  0  0  0  0  0  0  0  0  0  0  0
  -26.0560  -38.3830   24.0010 H   0  0  0  0  0  0  0  0  0  0  0  0
  -26.4030  -31.8260   25.0700 C   0  0  1  0  0  0  0  0  0  0  0  0
  -25.2710  -31.5560   26.0900 C   0  0  0  0  0  1  0  0  0  0  0  0
  -27.1090  -30.4800   24.8220 C   0  0  0  0  0  1  0  0  0  0  0  0
  -27.4750  -32.7230   25.7190 C   0  0  0  0  0  1  0  0  0  0  0  0
  -28.3680  -20.3690   21.0500 C   0  0  0  0  0  1  0  0  0  0  0  0
  -29.5970  -16.6770   20.3630 C   0  0  0  0  0  0  0  0  0  0  0  0
  -30.1720  -13.9790   19.2910 C   0  0  0  0  0  2  0  0  0  0  0  0
  -29.4500  -13.1310   18.1460 C   0  0  0  0  0  2  0  0  0  0  0  0
  -28.1510  -12.4930   18.6290 C   0  0  0  0  0  2  0  0  0  0  0  0
  -27.5070  -13.4760   19.6140 C   0  0  0  0  0  3  0  0  0  0  0  0
  -28.4290  -14.0850   20.7210 C   0  0  0  0  0  2  0  0  0  0  0  0
  -29.3220  -15.1250   20.0880 N   0  0  0  0  0  0  0  0  0  0  0  0
  -30.8420  -16.5370   20.1120 O   0  0  0  0  0  0  0  0  0  0  0  0
  -28.7720  -18.2560   20.7590 N   0  0  0  0  0  2  0  0  0  0  0  0
  -29.7380  -18.5210   20.9050 H   0  0  0  0  0  0  0  0  0  0  0  0
  -25.1860  -13.8770   20.4450 C   0  0  0  0  0  0  0  0  0  0  0  0
  -24.1710  -13.0640   20.8410 C   0  0  0  0  0  0  0  0  0  0  0  0
  -24.6740  -11.7260   20.7650 C   0  0  0  0  0  0  0  0  0  0  0  0
  -26.2380  -13.0410   20.1500 N   0  0  0  0  0  0  0  0  0  0  0  0
  -25.9540  -11.7330   20.3960 N   0  0  0  0  0  0  0  0  0  0  0  0
  -23.9760  -10.4470   20.9620 C   0  0  0  0  0  0  0  0  0  0  0  0
  -24.4260   -9.4930   21.9010 C   0  0  0  0  0  3  0  0  0  0  0  0
  -23.7160   -8.2880   22.0920 C   0  0  0  0  0  3  0  0  0  0  0  0
  -22.5420   -8.0290   21.3440 C   0  0  0  0  0  0  0  0  0  0  0  0
  -22.1130   -8.9720   20.3940 C   0  0  0  0  0  3  0  0  0  0  0  0
  -22.8220  -10.1680   20.2010 C   0  0  0  0  0  3  0  0  0  0  0  0
  -21.8040   -6.8760   21.4430 O   0  0  0  0  0  0  0  0  0  0  0  0
  -21.7380   -6.1610   22.6120 C   0  0  0  0  0  0  0  0  0  0  0  0
  -21.2800   -6.7400   23.8160 C   0  0  0  0  0  3  0  0  0  0  0  0
  -21.1600   -5.9510   24.9770 C   0  0  0  0  0  3  0  0  0  0  0  0
  -21.4910   -4.5830   24.9360 C   0  0  0  0  0  0  0  0  0  0  0  0
  -21.9400   -4.0030   23.7370 C   0  0  0  0  0  3  0  0  0  0  0  0
  -22.0600   -4.7890   22.5790 C   0  0  0  0  0  0  0  0  0  0  0  0
  -22.4740   -4.2190   21.4210 F   0  0  0  0  0  0  0  0  0  0  0  0
  -21.3700   -3.8230   26.0500 F   0  0  0  0  0  0  0  0  0  0  0  0
  -22.7800  -13.5120   21.1720 C   0  0  0  0  0  0  0  0  0  0  0  0
  -22.1050  -12.7990   22.0630 N   0  0  0  0  0  0  0  0  0  0  0  0
  -22.3090  -14.5340   20.6760 O   0  0  0  0  0  0  0  0  0  0  0  0
  -22.5050  -11.9750   22.4850 H   0  0  0  0  0  0  0  0  0  0  0  0
  -21.1730  -13.0830   22.3290 H   0  0  0  0  0  0  0  0  0  0  0  0
  -25.3060  -15.2570   20.2900 N   0  0  0  0  0  0  0  0  0  0  0  0
  -24.5240  -15.8830   20.4470 H   0  0  0  0  0  0  0  0  0  0  0  0
  -26.1280  -15.7330   19.9440 H   0  0  0  0  0  0  0  0  0  0  0  0
  -29.6170  -20.5800   21.9840 C   0  0  0  0  0  2  0  0  0  0  0  0
  -30.2260  -21.9550   22.4310 C   0  0  0  0  0  3  0  0  0  0  0  0
  -30.7830  -23.2030   24.6610 C   0  0  0  0  0  1  0  0  0  0  0  0
  -29.7370  -22.4140   23.8380 C   0  0  0  0  0  2  0  0  0  0  0  0
  -30.2170  -23.0540   21.3380 C   0  0  0  0  0  2  0  0  0  0  0  0
  -30.6960  -24.3670   21.8040 N   0  0  0  0  0  4  0  0  0  0  0  0
  -30.1570  -24.6550   22.6040 H   0  0  0  0  0  0  0  0  0  0  0  0
  -30.5910  -25.0660   21.0920 H   0  0  0  0  0  0  0  0  0  0  0  0
  -31.6650  -24.3340   22.0660 H   0  0  0  0  0  0  0  0  0  0  0  0
  1  6  1  0
  1  7  1  0
  4  5  1  0
  4  2  1  0
  6  2  1  0
  8 11  1  0
  8  9  1  0
 10  8  1  0
 12  4  1  0
 13 12  1  0
 14 13  1  0
 15 13  1  0
 16 13  1  0
 17 16  1  0
 18 17  1  0
 18 19  1  0
 20 31  2  0
 21 19  1  0
 21 26  1  0
 22 30  1  0
 22 32  1  0
 23 25  1  0
 24 30  1  0
 25  8  1  0
 25 24  1  1
 26 25  1  0
 27 28  1  0
 27 21  1  0
 28 23  1  0
 30 20  1  0
 32 34  2  0
 33 32  1  0
 35 33  1  0
 36 45  2  0
 36 41  1  0
 37 33  1  0
 37 41  1  0
 38 37  1  0
 39 40  1  0
 39 38  1  0
 40 36  1  0
 41 42  2  0
 42 43  1  0
 44 43  2  0
 45 44  1  0
 46 20  1  0
 46 47  1  0
 46 56  1  0
 47 50  1  0
 48 52  1  0
 48 47  1  0
 49 48  2  0
 52 51  1  0
 54 52  1  0
 54 55  1  0
 54 53  1  0
 56 59  1  1
 56 57  1  0
 58 56  1  0
 60 99  1  0
 61 69  1  0
 62 67  1  0
 63 64  1  0
 63 62  1  0
 65 64  1  0
 65 74  1  0
 65 66  1  0
 67 61  1  0
 67 66  1  0
 68 61  2  0
 69 70  1  0
 71 72  2  0
 72 91  1  0
 73 72  1  0
 73 76  1  0
 74 75  1  0
 74 71  1  0
 75 73  2  0
 76 77  1  0
 77 78  2  0
 79 82  1  0
 79 78  1  0
 80 79  2  0
 81 80  1  0
 81 76  2  0
 82 83  1  0
 83 84  1  0
 84 85  2  0
 86 85  1  0
 86 90  1  0
 87 86  2  0
 88 83  2  0
 88 87  1  0
 89 88  1  0
 91 92  1  0
 92 95  1  0
 92 94  1  0
 93 91  2  0
 96 71  1  0
 96 97  1  0
 98 96  1  0
 99100  1  0
100102  1  0
102101  1  0
103104  1  0
103100  1  0
104107  1  0
104105  1  0
106104  1  0
M  ISO  4  18 101  19 101  61 100  69 100
M  END
>  <TORSDO>  (48) 
F 28

>  <SCORE>  (48) 
-8.610

>  <name>  (48) 
48

>  <ligand_id>  (48) 
48

>  <original_smiles>  (48) 
[H]c1c([H])c([H])c2c(c1[H])C([H])([H])C([H])([H])C([H])([H])C2([H])N([H])C(=O)C1([H])N(C(=O)C([H])(N([H])C(=O)C([H])(N([H])C([H])([H])[H])C([H])([H])[H])C(C([H])([H])[H])(C([H])([H])[H])C([H])([H])[H])C([H])([H])c2c([H])c(OC([H])([H])C([H])([H])C([H])([H])[N+]([H])([H])C([H])([H])C3([H])C([H])([H])N(C(=O)C([H])(N([H])C(=O)N4C([H])([H])C([H])([H])C([H])([H])C([H])(n5nc(-c6c([H])c([H])c(Oc7c([H])c([H])c(F)c([H])c7F)c([H])c6[H])c(C(=O)N([H])[H])c5N([H])[H])C4([H])[H])C([H])([H])C([H])(C([H])([H])C([H])([H])[H])C([H])([H])[N+]([H])([H])[H])C([H])([H])C3([H])[N+]([H])([H])[H])c([H])c([H])c2C1([H])[H]

>  <smiles>  (48) 
[H]c1c([H])c([H])c2c(c1[H])C([H])([H])C([H])([H])C([H])([H])C2([H])N([H])C(=O)C1([H])N(C(=O)C([H])(N([H])C(=O)C([H])(N([H])C([H])([H])[H])C([H])([H])[H])C(C([H])([H])[H])(C([H])([H])[H])C([H])([H])[H])C([H])([H])c2c([H])c(OC([H])([H])C([H])([H])C([H])([H])[N+]([H])([H])C([H])([H])C3([H])C([H])([H])N(C(=O)C([H])(N([H])C(=O)N4C([H])([H])C([H])([H])C([H])([H])C([H])(n5nc(-c6c([H])c([H])c(Oc7c([H])c([H])c(F)c([H])c7F)c([H])c6[H])c(C(=O)N([H])[H])c5N([H])[H])C4([H])[H])C([H])([H])C([H])(C([H])([H])C([H])([H])[H])C([H])([H])[N+]([H])([H])[H])C([H])([H])C3([H])[N+]([H])([H])[H])c([H])c([H])c2C1([H])[H]

$$$$
49:0:0
     RDKit          3D

 92100  0  0  1  0  0  0  0  0999 V2000
  -30.7960  -15.3260   20.0320 C   0  0  0  0  0  0  0  0  0  0  0  0
  -30.6070  -12.9220   19.0080 C   0  0  0  0  0  2  0  0  0  0  0  0
  -29.6000  -12.7240   17.8560 C   0  0  0  0  0  2  0  0  0  0  0  0
  -28.2000  -12.4160   18.3970 C   0  0  0  0  0  2  0  0  0  0  0  0
  -27.8200  -13.3980   19.5340 C   0  0  0  0  0  3  0  0  0  0  0  0
  -28.9360  -13.5150   20.5890 C   0  0  0  0  0  2  0  0  0  0  0  0
  -30.1020  -14.0780   19.8810 N   0  0  0  0  0  0  0  0  0  0  0  0
  -32.0290  -15.1590   19.8900 O   0  0  0  0  0  0  0  0  0  0  0  0
  -29.2370  -17.4110   19.2720 C   0  0  0  0  0  3  0  0  0  0  0  0
  -28.7630  -19.0050   19.1830 C   0  0  0  0  0  3  0  0  0  0  0  0
  -30.5530  -19.5990   20.7530 C   0  0  0  0  0  2  0  0  0  0  0  0
  -30.6990  -17.9170   21.1250 C   0  0  0  0  0  3  0  0  0  0  0  0
  -30.1990  -16.7010   20.2590 N   0  0  0  0  0  0  0  0  0  0  0  0
  -29.3850  -20.1470   20.0010 N   0  0  1  0  0  4  0  0  0  0  0  0
  -28.7070  -20.0440   20.7520 H   0  0  0  0  0  0  0  0  0  0  0  0
  -25.4940  -14.0230   20.3560 C   0  0  0  0  0  0  0  0  0  0  0  0
  -24.4350  -13.2480   20.7900 C   0  0  0  0  0  0  0  0  0  0  0  0
  -24.8900  -11.8940   20.7410 C   0  0  0  0  0  0  0  0  0  0  0  0
  -26.5090  -13.1200   20.1210 N   0  0  0  0  0  0  0  0  0  0  0  0
  -26.1710  -11.8440   20.3870 N   0  0  0  0  0  0  0  0  0  0  0  0
  -24.1420  -10.6440   20.9410 C   0  0  0  0  0  0  0  0  0  0  0  0
  -24.5670   -9.6840   21.8860 C   0  0  0  0  0  3  0  0  0  0  0  0
  -23.8300   -8.4960   22.0770 C   0  0  0  0  0  3  0  0  0  0  0  0
  -22.6550   -8.2670   21.3270 C   0  0  0  0  0  0  0  0  0  0  0  0
  -22.2430   -9.2100   20.3740 C   0  0  0  0  0  3  0  0  0  0  0  0
  -22.9800  -10.3930   20.1770 C   0  0  0  0  0  3  0  0  0  0  0  0
  -21.8860   -7.1330   21.4330 O   0  0  0  0  0  0  0  0  0  0  0  0
  -21.8150   -6.4130   22.6000 C   0  0  0  0  0  0  0  0  0  0  0  0
  -21.3480   -6.9930   23.8000 C   0  0  0  0  0  3  0  0  0  0  0  0
  -21.2270   -6.2040   24.9630 C   0  0  0  0  0  3  0  0  0  0  0  0
  -21.5620   -4.8350   24.9220 C   0  0  0  0  0  0  0  0  0  0  0  0
  -22.0250   -4.2590   23.7270 C   0  0  0  0  0  3  0  0  0  0  0  0
  -22.1460   -5.0450   22.5710 C   0  0  0  0  0  0  0  0  0  0  0  0
  -22.5730   -4.4780   21.4120 F   0  0  0  0  0  0  0  0  0  0  0  0
  -21.4400   -4.0740   26.0350 F   0  0  0  0  0  0  0  0  0  0  0  0
  -23.0650  -13.7670   21.0900 C   0  0  0  0  0  0  0  0  0  0  0  0
  -22.3540  -13.0810   21.9880 N   0  0  0  0  0  0  0  0  0  0  0  0
  -22.6120  -14.7750   20.5670 O   0  0  0  0  0  0  0  0  0  0  0  0
  -22.7220  -12.2590   22.4290 H   0  0  0  0  0  0  0  0  0  0  0  0
  -21.4270  -13.3930   22.2510 H   0  0  0  0  0  0  0  0  0  0  0  0
  -25.6930  -15.3860   20.2000 N   0  0  0  0  0  0  0  0  0  0  0  0
  -24.9470  -16.0460   20.3420 H   0  0  0  0  0  0  0  0  0  0  0  0
  -26.5410  -15.7910   19.8320 H   0  0  0  0  0  0  0  0  0  0  0  0
  -30.2520  -17.7960   22.6380 C   0  0  0  0  0  2  0  0  0  0  0  0
  -30.9030  -18.7710   23.5420 N   0  0  0  0  0  4  0  0  0  0  0  0
  -31.9060  -18.7060   23.5530 H   0  0  0  0  0  0  0  0  0  0  0  0
  -30.5780  -18.7320   24.4980 H   0  0  0  0  0  0  0  0  0  0  0  0
  -30.6350  -19.6730   23.2260 H   0  0  0  0  0  0  0  0  0  0  0  0
  -28.8680  -21.6930   19.9350 C   0  0  0  0  0  2  0  0  0  0  0  0
  -29.5300  -23.2690   20.0490 C   0  0  0  0  0  2  0  0  0  0  0  0
  -29.0840  -24.6920   20.9210 C   0  0  0  0  0  2  0  0  0  0  0  0
  -28.8990  -26.2330   20.5030 O   0  0  0  0  0  0  0  0  0  0  0  0
  -24.8420  -31.8630   23.3400 C   0  0  0  0  0  0  0  0  0  0  0  0
  -27.7380  -27.1300   20.5880 C   0  0  0  0  0  0  0  0  0  0  0  0
  -23.7990  -30.4230   21.6780 C   0  0  0  0  0  3  0  0  0  0  0  0
  -25.3840  -28.9140   20.3350 C   0  0  0  0  0  0  0  0  0  0  0  0
  -26.3700  -30.7870   21.6290 C   0  0  0  0  0  2  0  0  0  0  0  0
  -26.5110  -29.3690   21.0250 C   0  0  0  0  0  0  0  0  0  0  0  0
  -27.6930  -28.5030   21.1110 C   0  0  0  0  0  3  0  0  0  0  0  0
  -26.5260  -26.7410   19.9970 C   0  0  0  0  0  3  0  0  0  0  0  0
  -25.4040  -27.6080   19.8270 C   0  0  0  0  0  3  0  0  0  0  0  0
  -24.0730  -29.7860   20.3090 C   0  0  0  0  0  2  0  0  0  0  0  0
  -25.0370  -31.0360   22.2900 N   0  0  0  0  0  0  0  0  0  0  0  0
  -23.7040  -32.1330   23.7610 O   0  0  0  0  0  0  0  0  0  0  0  0
  -23.0930  -29.3870   22.5760 C   0  0  0  0  0  0  0  0  0  0  0  0
  -21.7710  -29.1970   22.3780 N   0  0  0  0  0  0  0  0  0  0  0  0
  -23.7350  -28.7540   23.4250 O   0  0  0  0  0  0  0  0  0  0  0  0
  -21.3060  -29.7530   21.6820 H   0  0  0  0  0  0  0  0  0  0  0  0
  -18.3670  -28.0800   22.7590 C   0  0  0  0  0  0  0  0  0  0  0  0
  -20.9230  -28.2680   23.1110 C   0  0  0  0  0  3  0  0  0  0  0  0
  -21.0160  -26.8520   22.4930 C   0  0  0  0  0  2  0  0  0  0  0  0
  -19.9320  -26.5850   21.4450 C   0  0  0  0  0  2  0  0  0  0  0  0
  -18.5400  -26.7430   22.0520 C   0  0  0  0  0  2  0  0  0  0  0  0
  -19.4920  -28.8000   23.2440 C   0  0  0  0  0  0  0  0  0  0  0  0
  -19.3010  -30.0650   23.8570 C   0  0  0  0  0  3  0  0  0  0  0  0
  -18.0070  -30.5940   24.0020 C   0  0  0  0  0  3  0  0  0  0  0  0
  -16.8940  -29.8720   23.5390 C   0  0  0  0  0  3  0  0  0  0  0  0
  -17.0820  -28.6130   22.9380 C   0  0  0  0  0  3  0  0  0  0  0  0
  -26.0230  -32.5730   24.0620 C   0  0  0  0  0  3  0  0  0  0  0  0
  -26.4180  -31.8830   25.4120 C   0  0  1  0  0  0  0  0  0  0  0  0
  -25.2270  -31.6270   26.3690 C   0  0  0  0  0  1  0  0  0  0  0  0
  -27.0840  -30.5290   25.1050 C   0  0  0  0  0  1  0  0  0  0  0  0
  -27.4680  -32.7430   26.1530 C   0  0  0  0  0  1  0  0  0  0  0  0
  -25.6400  -33.9800   24.3000 N   0  0  0  0  0  0  0  0  0  0  0  0
  -25.9850  -35.0160   23.5050 C   0  0  0  0  0  0  0  0  0  0  0  0
  -26.7230  -34.8860   22.5180 O   0  0  0  0  0  0  0  0  0  0  0  0
  -25.0100  -34.1820   25.0630 H   0  0  0  0  0  0  0  0  0  0  0  0
  -24.1940  -36.7080   22.9940 C   0  0  0  0  0  1  0  0  0  0  0  0
  -25.4280  -36.4240   23.8700 C   0  0  0  0  0  3  0  0  0  0  0  0
  -27.5120  -37.4230   24.6790 C   0  0  0  0  0  1  0  0  0  0  0  0
  -26.4160  -37.5170   23.7180 N   0  0  0  0  0  0  0  0  0  0  0  0
  -25.9820  -38.4250   23.8380 H   0  0  0  0  0  0  0  0  0  0  0  0
  1 13  1  0
  2  7  1  0
  3  4  1  0
  3  2  1  0
  5  4  1  0
  5 19  1  0
  5  6  1  0
  7  1  1  0
  7  6  1  0
  8  1  2  0
  9 13  1  0
 10  9  2  0
 10 14  1  0
 11 12  1  0
 12 44  1  0
 13 12  1  0
 14 15  1  1
 14 11  1  0
 16 17  2  0
 17 36  1  0
 18 17  1  0
 18 21  1  0
 19 16  1  0
 19 20  1  0
 20 18  2  0
 21 22  1  0
 22 23  2  0
 24 27  1  0
 24 23  1  0
 25 24  2  0
 26 25  1  0
 26 21  2  0
 27 28  1  0
 28 29  1  0
 29 30  2  0
 31 30  1  0
 31 35  1  0
 32 31  2  0
 33 28  2  0
 33 32  1  0
 34 33  1  0
 36 37  1  0
 37 40  1  0
 37 39  1  0
 38 36  2  0
 41 42  1  0
 41 16  1  0
 43 41  1  0
 44 45  1  0
 45 46  1  0
 45 47  1  0
 48 45  1  0
 49 14  1  0
 49 50  1  0
 50 51  1  0
 52 54  1  0
 52 51  1  0
 53 64  2  0
 54 59  1  0
 55 63  1  0
 55 65  1  0
 56 58  1  0
 57 63  1  0
 58 59  2  0
 58 57  1  0
 60 54  2  0
 61 60  1  0
 61 56  2  0
 62 56  1  0
 62 55  1  0
 63 53  1  0
 65 67  2  0
 66 65  1  0
 68 66  1  0
 69 78  2  0
 69 74  1  0
 70 66  1  0
 70 74  1  0
 71 70  1  0
 72 73  1  0
 72 71  1  0
 73 69  1  0
 74 75  2  0
 75 76  1  0
 77 76  2  0
 78 77  1  0
 79 53  1  0
 79 84  1  0
 79 80  1  0
 80 83  1  1
 80 81  1  0
 82 80  1  0
 84 87  1  0
 85 89  1  0
 85 84  1  0
 86 85  2  0
 89 88  1  0
 91 92  1  0
 91 89  1  0
 91 90  1  0
M  ISO  4   1 100  13 100  51 101  52 101
M  END
>  <TORSDO>  (49) 
F 20

>  <SCORE>  (49) 
-14.491

>  <name>  (49) 
49

>  <ligand_id>  (49) 
49

>  <original_smiles>  (49) 
[H]c1c([H])c([H])c2c(c1[H])C([H])([H])C([H])([H])C([H])([H])C2([H])N([H])C(=O)C1([H])N(C(=O)C([H])(N([H])C(=O)C([H])(N([H])C([H])([H])[H])C([H])([H])[H])C(C([H])([H])[H])(C([H])([H])[H])C([H])([H])[H])C([H])([H])c2c([H])c(OC([H])([H])C([H])([H])C([H])([H])[N+]3([H])C([H])([H])C([H])([H])N(C(=O)N4C([H])([H])C([H])([H])C([H])([H])C([H])(n5nc(-c6c([H])c([H])c(Oc7c([H])c([H])c(F)c([H])c7F)c([H])c6[H])c(C(=O)N([H])[H])c5N([H])[H])C4([H])[H])C([H])(C([H])([H])[N+]([H])([H])[H])C3([H])[H])c([H])c([H])c2C1([H])[H]

>  <smiles>  (49) 
[H]c1c([H])c([H])c2c(c1[H])C([H])([H])C([H])([H])C([H])([H])C2([H])N([H])C(=O)C1([H])N(C(=O)C([H])(N([H])C(=O)C([H])(N([H])C([H])([H])[H])C([H])([H])[H])C(C([H])([H])[H])(C([H])([H])[H])C([H])([H])[H])C([H])([H])c2c([H])c(OC([H])([H])C([H])([H])C([H])([H])[N+]3([H])C([H])([H])C([H])([H])N(C(=O)N4C([H])([H])C([H])([H])C([H])([H])C([H])(n5nc(-c6c([H])c([H])c(Oc7c([H])c([H])c(F)c([H])c7F)c([H])c6[H])c(C(=O)N([H])[H])c5N([H])[H])C4([H])[H])C([H])(C([H])([H])[N+]([H])([H])[H])C3([H])[H])c([H])c([H])c2C1([H])[H]

$$$$
50:0:0
     RDKit          3D

100108  0  0  1  0  0  0  0  0999 V2000
  -29.2120  -21.3100   19.9500 C   0  0  0  0  0  3  0  0  0  0  0  0
  -28.6070  -22.5510   20.4930 N   0  0  0  0  0  0  0  0  0  0  0  0
  -28.9960  -22.8380   21.3790 H   0  0  0  0  0  0  0  0  0  0  0  0
  -29.3700  -24.1040   18.4060 O   0  0  0  0  0  0  0  0  0  0  0  0
  -28.2360  -23.9380   19.4240 S   0  0  0  0  0  0  0  0  0  0  0  0
  -28.3120  -25.3740   20.6400 C   0  0  0  0  0  2  0  0  0  0  0  0
  -28.3850  -26.7390   20.1400 O   0  0  0  0  0  0  0  0  0  0  0  0
  -24.5290  -31.9280   23.2330 C   0  0  0  0  0  0  0  0  0  0  0  0
  -27.2190  -27.4860   20.1540 C   0  0  0  0  0  0  0  0  0  0  0  0
  -23.3470  -30.5330   21.5670 C   0  0  0  0  0  3  0  0  0  0  0  0
  -24.8220  -29.0040   20.1500 C   0  0  0  0  0  0  0  0  0  0  0  0
  -25.8760  -30.8960   21.3980 C   0  0  0  0  0  2  0  0  0  0  0  0
  -25.9750  -29.5260   20.7490 C   0  0  0  0  0  0  0  0  0  0  0  0
  -27.1790  -28.7770   20.7410 C   0  0  0  0  0  3  0  0  0  0  0  0
  -26.0510  -26.9870   19.5430 C   0  0  0  0  0  3  0  0  0  0  0  0
  -24.8580  -27.7350   19.5420 C   0  0  0  0  0  3  0  0  0  0  0  0
  -23.5750  -29.8600   20.1860 C   0  0  0  0  0  2  0  0  0  0  0  0
  -24.6010  -31.1350   22.1250 N   0  0  0  0  0  0  0  0  0  0  0  0
  -23.4410  -32.1940   23.7620 O   0  0  0  0  0  0  0  0  0  0  0  0
  -22.6870  -29.5060   22.5150 C   0  0  0  0  0  0  0  0  0  0  0  0
  -21.3630  -29.3220   22.3710 N   0  0  0  0  0  0  0  0  0  0  0  0
  -23.3610  -28.8780   23.3350 O   0  0  0  0  0  0  0  0  0  0  0  0
  -20.8800  -29.8780   21.6790 H   0  0  0  0  0  0  0  0  0  0  0  0
  -17.9850  -28.1340   22.8490 C   0  0  0  0  0  0  0  0  0  0  0  0
  -20.5430  -28.3770   23.1270 C   0  0  0  0  0  3  0  0  0  0  0  0
  -20.6400  -26.9550   22.5290 C   0  0  0  0  0  2  0  0  0  0  0  0
  -19.5380  -26.6540   21.5080 C   0  0  0  0  0  2  0  0  0  0  0  0
  -18.1560  -26.7950   22.1520 C   0  0  0  0  0  2  0  0  0  0  0  0
  -19.1050  -28.8850   23.2920 C   0  0  0  0  0  0  0  0  0  0  0  0
  -18.8910  -30.1390   23.9030 C   0  0  0  0  0  3  0  0  0  0  0  0
  -17.5890  -30.6430   24.0770 C   0  0  0  0  0  3  0  0  0  0  0  0
  -16.4820  -29.8900   23.6480 C   0  0  0  0  0  3  0  0  0  0  0  0
  -16.6810  -28.6370   23.0390 C   0  0  0  0  0  3  0  0  0  0  0  0
  -25.8060  -32.5590   23.8720 C   0  0  0  0  0  3  0  0  0  0  0  0
  -25.4980  -33.9640   24.1780 N   0  0  0  0  0  0  0  0  0  0  0  0
  -25.8520  -35.0040   23.4120 C   0  0  0  0  0  0  0  0  0  0  0  0
  -26.5440  -34.8830   22.3970 O   0  0  0  0  0  0  0  0  0  0  0  0
  -24.8840  -34.1310   24.9620 H   0  0  0  0  0  0  0  0  0  0  0  0
  -24.1510  -36.8100   22.9820 C   0  0  0  0  0  1  0  0  0  0  0  0
  -25.3620  -36.4020   23.8380 C   0  0  0  0  0  3  0  0  0  0  0  0
  -27.4720  -37.2830   24.7350 C   0  0  0  0  0  1  0  0  0  0  0  0
  -26.4080  -37.4460   23.7480 N   0  0  0  0  0  0  0  0  0  0  0  0
  -26.0040  -38.3700   23.8670 H   0  0  0  0  0  0  0  0  0  0  0  0
  -26.2940  -31.7990   25.1650 C   0  0  1  0  0  0  0  0  0  0  0  0
  -25.1790  -31.5690   26.2120 C   0  0  0  0  0  1  0  0  0  0  0  0
  -26.8830  -30.4160   24.7970 C   0  0  0  0  0  1  0  0  0  0  0  0
  -27.4350  -32.5940   25.8420 C   0  0  0  0  0  1  0  0  0  0  0  0
  -28.9140  -20.0680   20.8840 C   0  0  0  0  0  2  0  0  0  0  0  0
  -30.6350  -14.6240   20.0000 C   0  0  0  0  0  0  0  0  0  0  0  0
  -30.2620  -12.4270   18.9290 C   0  0  0  0  0  2  0  0  0  0  0  0
  -29.2580  -12.5830   17.7680 C   0  0  0  0  0  2  0  0  0  0  0  0
  -27.8200  -12.4190   18.2900 C   0  0  0  0  0  2  0  0  0  0  0  0
  -27.5370  -13.2750   19.5530 C   0  0  0  0  0  3  0  0  0  0  0  0
  -28.6630  -13.1530   20.6040 C   0  0  0  0  0  2  0  0  0  0  0  0
  -29.9340  -13.4540   19.9350 N   0  0  0  0  0  0  0  0  0  0  0  0
  -31.7790  -14.7080   19.5420 O   0  0  0  0  0  0  0  0  0  0  0  0
  -29.4330  -16.6090   19.3410 C   0  0  0  0  0  2  0  0  0  0  0  0
  -28.7090  -17.8840   19.8540 C   0  0  0  0  0  2  0  0  0  0  0  0
  -30.7640  -16.6460   21.3210 C   0  0  0  0  0  2  0  0  0  0  0  0
  -30.1180  -18.0210   21.7340 C   0  0  0  0  0  3  0  0  0  0  0  0
  -29.9940  -15.7630   20.4140 N   0  0  0  0  0  0  0  0  0  0  0  0
  -29.6330  -18.7930   20.5540 N   0  0  0  0  0  0  0  0  0  0  0  0
  -25.1990  -13.8580   20.4300 C   0  0  0  0  0  0  0  0  0  0  0  0
  -24.1580  -13.0750   20.8510 C   0  0  0  0  0  0  0  0  0  0  0  0
  -24.6210  -11.7270   20.7700 C   0  0  0  0  0  0  0  0  0  0  0  0
  -26.2270  -12.9830   20.1190 N   0  0  0  0  0  0  0  0  0  0  0  0
  -25.8910  -11.6970   20.3850 N   0  0  0  0  0  0  0  0  0  0  0  0
  -23.9120  -10.4590   20.9810 C   0  0  0  0  0  0  0  0  0  0  0  0
  -24.3810   -9.4960   21.9020 C   0  0  0  0  0  3  0  0  0  0  0  0
  -23.6700   -8.2930   22.1020 C   0  0  0  0  0  3  0  0  0  0  0  0
  -22.4790   -8.0430   21.3810 C   0  0  0  0  0  0  0  0  0  0  0  0
  -22.0310   -8.9950   20.4470 C   0  0  0  0  0  3  0  0  0  0  0  0
  -22.7410  -10.1900   20.2450 C   0  0  0  0  0  3  0  0  0  0  0  0
  -21.7380   -6.8910   21.4910 O   0  0  0  0  0  0  0  0  0  0  0  0
  -21.7080   -6.1620   22.6520 C   0  0  0  0  0  0  0  0  0  0  0  0
  -21.2460   -6.7160   23.8660 C   0  0  0  0  0  3  0  0  0  0  0  0
  -21.1650   -5.9140   25.0210 C   0  0  0  0  0  3  0  0  0  0  0  0
  -21.5370   -4.5570   24.9640 C   0  0  0  0  0  0  0  0  0  0  0  0
  -21.9930   -4.0020   23.7560 C   0  0  0  0  0  3  0  0  0  0  0  0
  -22.0750   -4.8030   22.6020 C   0  0  0  0  0  0  0  0  0  0  0  0
  -22.4960   -4.2590   21.4340 F   0  0  0  0  0  0  0  0  0  0  0  0
  -21.4530   -3.7830   26.0700 F   0  0  0  0  0  0  0  0  0  0  0  0
  -22.7800  -13.5440   21.2160 C   0  0  0  0  0  0  0  0  0  0  0  0
  -22.1090  -12.8250   22.1080 N   0  0  0  0  0  0  0  0  0  0  0  0
  -22.3090  -14.5780   20.7460 O   0  0  0  0  0  0  0  0  0  0  0  0
  -22.5060  -11.9860   22.5060 H   0  0  0  0  0  0  0  0  0  0  0  0
  -21.1860  -13.1150   22.3980 H   0  0  0  0  0  0  0  0  0  0  0  0
  -25.3520  -15.2320   20.2660 N   0  0  0  0  0  0  0  0  0  0  0  0
  -24.5990  -15.8900   20.4330 H   0  0  0  0  0  0  0  0  0  0  0  0
  -26.1910  -15.6710   19.9130 H   0  0  0  0  0  0  0  0  0  0  0  0
  -31.1780  -18.8000   22.5780 C   0  0  0  0  0  2  0  0  0  0  0  0
  -31.0690  -18.5270   24.0230 N   0  0  0  0  0  4  0  0  0  0  0  0
  -30.1880  -18.8460   24.3850 H   0  0  0  0  0  0  0  0  0  0  0  0
  -31.8000  -19.0110   24.5120 H   0  0  0  0  0  0  0  0  0  0  0  0
  -31.1680  -17.5480   24.2220 H   0  0  0  0  0  0  0  0  0  0  0  0
  -30.7340  -21.5340   19.7690 C   0  0  0  0  0  2  0  0  0  0  0  0
  -31.2960  -20.6280   18.7550 N   0  0  0  0  0  4  0  0  0  0  0  0
  -31.0720  -19.6810   19.0130 H   0  0  0  0  0  0  0  0  0  0  0  0
  -32.2950  -20.7280   18.7110 H   0  0  0  0  0  0  0  0  0  0  0  0
  -30.9160  -20.8240   17.8450 H   0  0  0  0  0  0  0  0  0  0  0  0
  1 96  1  0
  1  2  1  0
  1 48  1  0
  2  3  1  0
  5  4  2  0
  5  2  1  0
  5  6  1  0
  7  9  1  0
  7  6  1  0
  8 19  2  0
  9 14  1  0
 10 18  1  0
 10 20  1  0
 11 17  1  0
 11 13  1  0
 12 18  1  0
 13 12  1  0
 14 13  2  0
 15  9  2  0
 16 15  1  0
 16 11  2  0
 17 10  1  0
 18  8  1  0
 20 22  2  0
 21 20  1  0
 23 21  1  0
 24 33  2  0
 24 29  1  0
 25 21  1  0
 25 29  1  0
 26 25  1  0
 27 28  1  0
 27 26  1  0
 28 24  1  0
 29 30  2  0
 30 31  1  0
 32 31  2  0
 33 32  1  0
 34  8  1  0
 34 35  1  0
 34 44  1  0
 35 38  1  0
 36 40  1  0
 36 35  1  0
 37 36  2  0
 40 39  1  0
 42 40  1  0
 42 43  1  0
 42 41  1  0
 44 47  1  1
 44 45  1  0
 46 44  1  0
 49 61  1  0
 50 55  1  0
 51 52  1  0
 51 50  1  0
 53 52  1  0
 53 66  1  0
 53 54  1  0
 55 49  1  0
 55 54  1  0
 56 49  2  0
 57 58  1  0
 57 61  1  0
 58 62  1  0
 59 60  1  0
 60 91  1  0
 61 59  1  0
 62 48  1  0
 62 60  1  0
 63 64  2  0
 64 83  1  0
 65 64  1  0
 65 68  1  0
 66 67  1  0
 66 63  1  0
 67 65  2  0
 68 69  1  0
 69 70  2  0
 71 74  1  0
 71 70  1  0
 72 71  2  0
 73 72  1  0
 73 68  2  0
 74 75  1  0
 75 76  1  0
 76 77  2  0
 78 77  1  0
 78 82  1  0
 79 78  2  0
 80 75  2  0
 80 79  1  0
 81 80  1  0
 83 84  1  0
 84 87  1  0
 84 86  1  0
 85 83  2  0
 88 63  1  0
 88 89  1  0
 90 88  1  0
 91 92  1  0
 92 95  1  0
 92 93  1  0
 92 94  1  0
 97 98  1  0
 97 96  1  0
 99 97  1  0
100 97  1  0
M  ISO  4   6 101   7 101  49 100  61 100
M  END
>  <TORSDO>  (50) 
F 24

>  <SCORE>  (50) 
-12.662

>  <name>  (50) 
50

>  <ligand_id>  (50) 
50

>  <original_smiles>  (50) 
[H]c1c([H])c([H])c2c(c1[H])C([H])([H])C([H])([H])C([H])([H])C2([H])N([H])C(=O)C1([H])N(C(=O)C([H])(N([H])C(=O)C([H])(N([H])C([H])([H])[H])C([H])([H])[H])C(C([H])([H])[H])(C([H])([H])[H])C([H])([H])[H])C([H])([H])c2c([H])c(OC([H])([H])S(=O)N([H])C([H])(C([H])([H])N3C([H])([H])C([H])([H])N(C(=O)N4C([H])([H])C([H])([H])C([H])([H])C([H])(n5nc(-c6c([H])c([H])c(Oc7c([H])c([H])c(F)c([H])c7F)c([H])c6[H])c(C(=O)N([H])[H])c5N([H])[H])C4([H])[H])C([H])([H])C3([H])C([H])([H])[N+]([H])([H])[H])C([H])([H])[N+]([H])([H])[H])c([H])c([H])c2C1([H])[H]

>  <smiles>  (50) 
[H]c1c([H])c([H])c2c(c1[H])C([H])([H])C([H])([H])C([H])([H])C2([H])N([H])C(=O)C1([H])N(C(=O)C([H])(N([H])C(=O)C([H])(N([H])C([H])([H])[H])C([H])([H])[H])C(C([H])([H])[H])(C([H])([H])[H])C([H])([H])[H])C([H])([H])c2c([H])c(OC([H])([H])S(=O)N([H])C([H])(C([H])([H])N3C([H])([H])C([H])([H])N(C(=O)N4C([H])([H])C([H])([H])C([H])([H])C([H])(n5nc(-c6c([H])c([H])c(Oc7c([H])c([H])c(F)c([H])c7F)c([H])c6[H])c(C(=O)N([H])[H])c5N([H])[H])C4([H])[H])C([H])([H])C3([H])C([H])([H])[N+]([H])([H])[H])C([H])([H])[N+]([H])([H])[H])c([H])c([H])c2C1([H])[H]

$$$$
51:0:0
     RDKit          3D

 96104  0  0  1  0  0  0  0  0999 V2000
  -30.3430  -22.1880   20.7020 N   0  0  0  0  0  4  0  0  0  0  0  0
  -31.2540  -22.5330   20.4470 H   0  0  0  0  0  0  0  0  0  0  0  0
  -30.4440  -21.2760   21.1210 H   0  0  0  0  0  0  0  0  0  0  0  0
  -29.5490  -21.9870   19.4760 C   0  0  0  0  0  2  0  0  0  0  0  0
  -30.1490  -20.8320   18.6850 C   0  0  0  0  0  2  0  0  0  0  0  0
  -28.7640  -17.5020   19.7910 C   0  0  0  0  0  2  0  0  0  0  0  0
  -31.1410  -17.7040   20.5110 C   0  0  0  0  0  2  0  0  0  0  0  0
  -28.9430  -18.7760   18.9450 C   0  0  0  0  0  2  0  0  0  0  0  0
  -31.2790  -18.9270   19.5950 C   0  0  0  0  0  2  0  0  0  0  0  0
  -30.0960  -16.7530   19.9140 C   0  0  0  0  0  3  0  0  0  0  0  0
  -29.9970  -19.6310   19.5090 N   0  0  0  0  0  0  0  0  0  0  0  0
  -30.6920  -14.4310   20.4190 C   0  0  0  0  0  0  0  0  0  0  0  0
  -30.3440  -12.2730   19.3310 C   0  0  0  0  0  2  0  0  0  0  0  0
  -29.4140  -12.5110   18.1260 C   0  0  0  0  0  2  0  0  0  0  0  0
  -27.9410  -12.3910   18.5550 C   0  0  0  0  0  2  0  0  0  0  0  0
  -27.6090  -13.2380   19.8120 C   0  0  0  0  0  3  0  0  0  0  0  0
  -28.6630  -13.0320   20.9270 C   0  0  0  0  0  2  0  0  0  0  0  0
  -29.9990  -13.2670   20.3540 N   0  0  0  0  0  0  0  0  0  0  0  0
  -31.8420  -14.5670   19.9980 O   0  0  0  0  0  0  0  0  0  0  0  0
  -29.9340  -15.5050   20.6640 N   0  0  0  0  0  0  0  0  0  0  0  0
  -29.0220  -15.3230   21.0510 H   0  0  0  0  0  0  0  0  0  0  0  0
  -25.2070  -13.8610   20.5000 C   0  0  0  0  0  0  0  0  0  0  0  0
  -24.1340  -13.0960   20.8670 C   0  0  0  0  0  0  0  0  0  0  0  0
  -24.5920  -11.7410   20.8530 C   0  0  0  0  0  0  0  0  0  0  0  0
  -26.2520  -12.9770   20.2850 N   0  0  0  0  0  0  0  0  0  0  0  0
  -25.8840  -11.6970   20.5560 N   0  0  0  0  0  0  0  0  0  0  0  0
  -23.8630  -10.4810   21.0490 C   0  0  0  0  0  0  0  0  0  0  0  0
  -24.2980   -9.5100   21.9790 C   0  0  0  0  0  3  0  0  0  0  0  0
  -23.5670   -8.3170   22.1630 C   0  0  0  0  0  3  0  0  0  0  0  0
  -22.3880   -8.0830   21.4150 C   0  0  0  0  0  0  0  0  0  0  0  0
  -21.9710   -9.0430   20.4740 C   0  0  0  0  0  3  0  0  0  0  0  0
  -22.7040  -10.2270   20.2890 C   0  0  0  0  0  3  0  0  0  0  0  0
  -21.6330   -6.9400   21.5060 O   0  0  0  0  0  0  0  0  0  0  0  0
  -21.6050   -6.1860   22.6530 C   0  0  0  0  0  0  0  0  0  0  0  0
  -21.2200   -6.7340   23.8940 C   0  0  0  0  0  3  0  0  0  0  0  0
  -21.1380   -5.9090   25.0330 C   0  0  0  0  0  3  0  0  0  0  0  0
  -21.4340   -4.5360   24.9310 C   0  0  0  0  0  0  0  0  0  0  0  0
  -21.8140   -3.9870   23.6930 C   0  0  0  0  0  3  0  0  0  0  0  0
  -21.8970   -4.8100   22.5560 C   0  0  0  0  0  0  0  0  0  0  0  0
  -22.2430   -4.2720   21.3610 F   0  0  0  0  0  0  0  0  0  0  0  0
  -21.3460   -3.7390   26.0210 F   0  0  0  0  0  0  0  0  0  0  0  0
  -22.7360  -13.5770   21.1290 C   0  0  0  0  0  0  0  0  0  0  0  0
  -22.0010  -12.8910   21.9950 N   0  0  0  0  0  0  0  0  0  0  0  0
  -22.3050  -14.6030   20.6010 O   0  0  0  0  0  0  0  0  0  0  0  0
  -22.3570  -12.0510   22.4310 H   0  0  0  0  0  0  0  0  0  0  0  0
  -21.0700  -13.2060   22.2240 H   0  0  0  0  0  0  0  0  0  0  0  0
  -25.3810  -15.2300   20.3120 N   0  0  0  0  0  0  0  0  0  0  0  0
  -24.6260  -15.8960   20.4280 H   0  0  0  0  0  0  0  0  0  0  0  0
  -26.2400  -15.6550   19.9860 H   0  0  0  0  0  0  0  0  0  0  0  0
  -29.7730  -23.1420   21.6650 C   0  0  0  0  0  2  0  0  0  0  0  0
  -30.5340  -24.4740   21.5960 C   0  0  0  0  0  2  0  0  0  0  0  0
  -30.4770  -25.0000   20.2330 N   0  0  0  0  0  0  0  0  0  0  0  0
  -29.5270  -24.9310   19.8760 H   0  0  0  0  0  0  0  0  0  0  0  0
  -30.7850  -26.4240   20.1880 C   0  0  0  0  0  2  0  0  0  0  0  0
  -29.5910  -27.2490   20.6930 C   0  0  0  0  0  2  0  0  0  0  0  0
  -28.4150  -26.7480   20.0530 O   0  0  0  0  0  0  0  0  0  0  0  0
  -24.5840  -31.8810   23.2210 C   0  0  0  0  0  0  0  0  0  0  0  0
  -27.2580  -27.4890   20.1370 C   0  0  0  0  0  0  0  0  0  0  0  0
  -23.3680  -30.4650   21.5890 C   0  0  0  0  0  3  0  0  0  0  0  0
  -24.8220  -28.9250   20.1670 C   0  0  0  0  0  0  0  0  0  0  0  0
  -25.8780  -30.8550   21.3610 C   0  0  0  0  0  2  0  0  0  0  0  0
  -25.9700  -29.4770   20.7460 C   0  0  0  0  0  0  0  0  0  0  0  0
  -27.1820  -28.7670   20.7430 C   0  0  0  0  0  3  0  0  0  0  0  0
  -26.0940  -26.9430   19.5560 C   0  0  0  0  0  3  0  0  0  0  0  0
  -24.8750  -27.6520   19.5710 C   0  0  0  0  0  3  0  0  0  0  0  0
  -23.5660  -29.7600   20.2160 C   0  0  0  0  0  2  0  0  0  0  0  0
  -24.6280  -31.0810   22.1160 N   0  0  0  0  0  0  0  0  0  0  0  0
  -23.5080  -32.1520   23.7690 O   0  0  0  0  0  0  0  0  0  0  0  0
  -22.7290  -29.4520   22.5640 C   0  0  0  0  0  0  0  0  0  0  0  0
  -21.4060  -29.2630   22.4380 N   0  0  0  0  0  0  0  0  0  0  0  0
  -23.4200  -28.8350   23.3790 O   0  0  0  0  0  0  0  0  0  0  0  0
  -20.9180  -29.8010   21.7370 H   0  0  0  0  0  0  0  0  0  0  0  0
  -18.0320  -28.0740   22.9450 C   0  0  0  0  0  0  0  0  0  0  0  0
  -20.5920  -28.3290   23.2130 C   0  0  0  0  0  3  0  0  0  0  0  0
  -20.6910  -26.8980   22.6380 C   0  0  0  0  0  2  0  0  0  0  0  0
  -19.5860  -26.5750   21.6280 C   0  0  0  0  0  2  0  0  0  0  0  0
  -18.2060  -26.7240   22.2730 C   0  0  0  0  0  2  0  0  0  0  0  0
  -19.1530  -28.8370   23.3710 C   0  0  0  0  0  0  0  0  0  0  0  0
  -18.9360  -30.1050   23.9530 C   0  0  0  0  0  3  0  0  0  0  0  0
  -17.6320  -30.6080   24.1190 C   0  0  0  0  0  3  0  0  0  0  0  0
  -16.5260  -29.8420   23.7130 C   0  0  0  0  0  3  0  0  0  0  0  0
  -16.7280  -28.5770   23.1300 C   0  0  0  0  0  3  0  0  0  0  0  0
  -25.8750  -32.5140   23.8310 C   0  0  0  0  0  3  0  0  0  0  0  0
  -25.5680  -33.9110   24.1680 N   0  0  0  0  0  0  0  0  0  0  0  0
  -25.9010  -34.9640   23.4100 C   0  0  0  0  0  0  0  0  0  0  0  0
  -26.5700  -34.8610   22.3780 O   0  0  0  0  0  0  0  0  0  0  0  0
  -24.9730  -34.0630   24.9690 H   0  0  0  0  0  0  0  0  0  0  0  0
  -24.1720  -36.7500   23.0480 C   0  0  0  0  0  1  0  0  0  0  0  0
  -25.4120  -36.3520   23.8660 C   0  0  0  0  0  3  0  0  0  0  0  0
  -27.5480  -37.2240   24.6990 C   0  0  0  0  0  1  0  0  0  0  0  0
  -26.4450  -37.4050   23.7600 N   0  0  0  0  0  0  0  0  0  0  0  0
  -26.0430  -38.3250   23.9150 H   0  0  0  0  0  0  0  0  0  0  0  0
  -26.4060  -31.7390   25.0990 C   0  0  1  0  0  0  0  0  0  0  0  0
  -25.3200  -31.4900   26.1720 C   0  0  0  0  0  1  0  0  0  0  0  0
  -26.9830  -30.3650   24.6870 C   0  0  0  0  0  1  0  0  0  0  0  0
  -27.5650  -32.5290   25.7550 C   0  0  0  0  0  1  0  0  0  0  0  0
  1  3  1  0
  1 50  1  0
  2  1  1  0
  4  1  1  0
  5  4  1  0
  5 11  1  0
  6 10  1  0
  8 11  1  0
  8  6  1  0
  9  7  1  0
 10  7  1  0
 10 20  1  0
 11  9  1  0
 12 20  1  0
 13 18  1  0
 14 15  1  0
 14 13  1  0
 16 15  1  0
 16 25  1  0
 16 17  1  0
 18 12  1  0
 18 17  1  0
 19 12  2  0
 20 21  1  0
 22 23  2  0
 23 42  1  0
 24 23  1  0
 24 27  1  0
 25 22  1  0
 25 26  1  0
 26 24  2  0
 27 28  1  0
 28 29  2  0
 30 33  1  0
 30 29  1  0
 31 30  2  0
 32 31  1  0
 32 27  2  0
 33 34  1  0
 34 35  1  0
 35 36  2  0
 37 36  1  0
 37 41  1  0
 38 37  2  0
 39 34  2  0
 39 38  1  0
 40 39  1  0
 42 43  1  0
 43 46  1  0
 43 45  1  0
 44 42  2  0
 47 48  1  0
 47 22  1  0
 49 47  1  0
 51 50  1  0
 52 51  1  0
 53 52  1  0
 54 52  1  0
 54 55  1  0
 56 58  1  0
 56 55  1  0
 57 68  2  0
 58 63  1  0
 59 67  1  0
 59 69  1  0
 60 66  1  0
 60 62  1  0
 61 67  1  0
 62 61  1  0
 63 62  2  0
 64 65  1  0
 64 58  2  0
 65 60  2  0
 66 59  1  0
 67 57  1  0
 69 71  2  0
 70 69  1  0
 72 70  1  0
 73 82  2  0
 73 78  1  0
 74 70  1  0
 74 78  1  0
 75 74  1  0
 76 77  1  0
 76 75  1  0
 77 73  1  0
 78 79  2  0
 79 80  1  0
 81 80  2  0
 82 81  1  0
 83 57  1  0
 83 84  1  0
 83 93  1  0
 84 87  1  0
 85 89  1  0
 85 84  1  0
 86 85  2  0
 89 88  1  0
 91 89  1  0
 91 92  1  0
 91 90  1  0
 93 96  1  1
 93 94  1  0
 95 93  1  0
M  ISO  4  12 100  20 100  55 101  56 101
M  END
>  <TORSDO>  (51) 
F 24

>  <SCORE>  (51) 
-12.596

>  <name>  (51) 
51

>  <ligand_id>  (51) 
51

>  <original_smiles>  (51) 
[H]c1c([H])c([H])c2c(c1[H])C([H])([H])C([H])([H])C([H])([H])C2([H])N([H])C(=O)C1([H])N(C(=O)C([H])(N([H])C(=O)C([H])(N([H])C([H])([H])[H])C([H])([H])[H])C(C([H])([H])[H])(C([H])([H])[H])C([H])([H])[H])C([H])([H])c2c([H])c(OC([H])([H])C([H])([H])N([H])C([H])([H])C([H])([H])[N+]([H])([H])C([H])([H])C([H])([H])N3C([H])([H])C([H])([H])C([H])(N([H])C(=O)N4C([H])([H])C([H])([H])C([H])([H])C([H])(n5nc(-c6c([H])c([H])c(Oc7c([H])c([H])c(F)c([H])c7F)c([H])c6[H])c(C(=O)N([H])[H])c5N([H])[H])C4([H])[H])C([H])([H])C3([H])[H])c([H])c([H])c2C1([H])[H]

>  <smiles>  (51) 
[H]c1c([H])c([H])c2c(c1[H])C([H])([H])C([H])([H])C([H])([H])C2([H])N([H])C(=O)C1([H])N(C(=O)C([H])(N([H])C(=O)C([H])(N([H])C([H])([H])[H])C([H])([H])[H])C(C([H])([H])[H])(C([H])([H])[H])C([H])([H])[H])C([H])([H])c2c([H])c(OC([H])([H])C([H])([H])N([H])C([H])([H])C([H])([H])[N+]([H])([H])C([H])([H])C([H])([H])N3C([H])([H])C([H])([H])C([H])(N([H])C(=O)N4C([H])([H])C([H])([H])C([H])([H])C([H])(n5nc(-c6c([H])c([H])c(Oc7c([H])c([H])c(F)c([H])c7F)c([H])c6[H])c(C(=O)N([H])[H])c5N([H])[H])C4([H])[H])C([H])([H])C3([H])[H])c([H])c([H])c2C1([H])[H]

$$$$
52:0:0
     RDKit          3D

 95103  0  0  1  0  0  0  0  0999 V2000
  -29.3010  -22.7720   19.0820 N   0  0  1  0  0  4  0  0  0  0  0  0
  -29.2220  -22.3460   19.9940 H   0  0  0  0  0  0  0  0  0  0  0  0
  -28.0220  -22.4370   18.3910 C   0  0  0  0  0  2  0  0  0  0  0  0
  -26.2470  -20.6410   18.1890 C   0  0  0  0  0  1  0  0  0  0  0  0
  -27.2750  -21.3030   19.1120 C   0  0  0  0  0  2  0  0  0  0  0  0
  -30.4520  -22.0480   18.4210 C   0  0  0  0  0  2  0  0  0  0  0  0
  -30.9430  -20.7260   19.1130 C   0  0  0  0  0  2  0  0  0  0  0  0
  -30.8230  -18.2210   19.2020 C   0  0  0  0  0  0  0  0  0  0  0  0
  -30.2660  -19.4190   18.8620 N   0  0  0  0  0  0  0  0  0  0  0  0
  -32.0280  -18.1390   19.4580 O   0  0  0  0  0  0  0  0  0  0  0  0
  -29.2890  -19.4300   18.5870 H   0  0  0  0  0  0  0  0  0  0  0  0
  -31.0920  -14.7320   19.8320 C   0  0  0  0  0  0  0  0  0  0  0  0
  -30.6960  -12.4650   18.8900 C   0  0  0  0  0  2  0  0  0  0  0  0
  -29.7570  -12.6050   17.6730 C   0  0  0  0  0  2  0  0  0  0  0  0
  -28.2970  -12.4490   18.1400 C   0  0  0  0  0  2  0  0  0  0  0  0
  -27.9650  -13.3770   19.3370 C   0  0  0  0  0  3  0  0  0  0  0  0
  -29.0470  -13.3110   20.4320 C   0  0  0  0  0  2  0  0  0  0  0  0
  -30.3700  -13.5600   19.8230 N   0  0  0  0  0  0  0  0  0  0  0  0
  -32.1710  -14.8280   19.2520 O   0  0  0  0  0  0  0  0  0  0  0  0
  -29.3100  -17.4310   21.6740 C   0  0  0  0  0  2  0  0  0  0  0  0
  -28.7290  -17.3740   20.2600 C   0  0  0  0  0  2  0  0  0  0  0  0
  -30.2290  -16.1990   21.6820 C   0  0  0  0  0  2  0  0  0  0  0  0
  -29.9150  -16.9500   19.3930 C   0  0  0  0  0  3  0  0  0  0  0  0
  -30.4480  -15.8550   20.2610 N   0  0  0  0  0  0  0  0  0  0  0  0
  -25.6220  -14.0310   20.1790 C   0  0  0  0  0  0  0  0  0  0  0  0
  -24.5610  -13.2890   20.6170 C   0  0  0  0  0  0  0  0  0  0  0  0
  -24.9840  -11.9270   20.5630 C   0  0  0  0  0  0  0  0  0  0  0  0
  -26.6320  -13.1270   19.8860 N   0  0  0  0  0  0  0  0  0  0  0  0
  -26.2580  -11.8550   20.1810 N   0  0  0  0  0  0  0  0  0  0  0  0
  -24.2340  -10.6840   20.7910 C   0  0  0  0  0  0  0  0  0  0  0  0
  -24.6420   -9.7460   21.7640 C   0  0  0  0  0  3  0  0  0  0  0  0
  -23.8960   -8.5650   21.9770 C   0  0  0  0  0  3  0  0  0  0  0  0
  -22.7280   -8.3160   21.2190 C   0  0  0  0  0  0  0  0  0  0  0  0
  -22.3370   -9.2440   20.2410 C   0  0  0  0  0  3  0  0  0  0  0  0
  -23.0820  -10.4160   20.0230 C   0  0  0  0  0  3  0  0  0  0  0  0
  -21.9580   -7.1830   21.3400 O   0  0  0  0  0  0  0  0  0  0  0  0
  -21.8350   -6.5210   22.5350 C   0  0  0  0  0  0  0  0  0  0  0  0
  -21.3520   -7.1620   23.6970 C   0  0  0  0  0  3  0  0  0  0  0  0
  -21.1700   -6.4270   24.8830 C   0  0  0  0  0  3  0  0  0  0  0  0
  -21.4590   -5.0480   24.9110 C   0  0  0  0  0  0  0  0  0  0  0  0
  -21.9340   -4.4060   23.7530 C   0  0  0  0  0  3  0  0  0  0  0  0
  -22.1170   -5.1400   22.5670 C   0  0  0  0  0  0  0  0  0  0  0  0
  -22.5540   -4.5130   21.4490 F   0  0  0  0  0  0  0  0  0  0  0  0
  -21.2820   -4.3370   26.0480 F   0  0  0  0  0  0  0  0  0  0  0  0
  -23.1900  -13.8090   20.9540 C   0  0  0  0  0  0  0  0  0  0  0  0
  -22.4940  -13.1640   21.8840 N   0  0  0  0  0  0  0  0  0  0  0  0
  -22.7450  -14.8230   20.4230 O   0  0  0  0  0  0  0  0  0  0  0  0
  -22.8560  -12.3460   22.3470 H   0  0  0  0  0  0  0  0  0  0  0  0
  -21.5740  -13.5030   22.1310 H   0  0  0  0  0  0  0  0  0  0  0  0
  -25.7950  -15.3950   19.9790 N   0  0  0  0  0  0  0  0  0  0  0  0
  -25.0540  -16.0640   20.1600 H   0  0  0  0  0  0  0  0  0  0  0  0
  -26.6090  -15.8070   19.5450 H   0  0  0  0  0  0  0  0  0  0  0  0
  -29.5510  -24.2490   19.3950 C   0  0  0  0  0  3  0  0  0  0  0  0
  -28.2960  -25.1760   19.6150 C   0  0  0  0  0  3  0  0  0  0  0  0
  -28.4380  -26.5230   20.1850 O   0  0  0  0  0  0  0  0  0  0  0  0
  -24.5640  -31.8440   23.2290 C   0  0  0  0  0  0  0  0  0  0  0  0
  -27.2830  -27.3200   20.1970 C   0  0  0  0  0  0  0  0  0  0  0  0
  -23.4020  -30.4150   21.5880 C   0  0  0  0  0  3  0  0  0  0  0  0
  -24.8880  -28.8780   20.2020 C   0  0  0  0  0  0  0  0  0  0  0  0
  -25.9400  -30.7650   21.4420 C   0  0  0  0  0  2  0  0  0  0  0  0
  -26.0460  -29.3830   20.8100 C   0  0  0  0  0  0  0  0  0  0  0  0
  -27.2470  -28.6140   20.8020 C   0  0  0  0  0  3  0  0  0  0  0  0
  -26.0880  -26.8690   19.5810 C   0  0  0  0  0  3  0  0  0  0  0  0
  -24.9140  -27.6290   19.5770 C   0  0  0  0  0  3  0  0  0  0  0  0
  -23.6370  -29.7200   20.2240 C   0  0  0  0  0  2  0  0  0  0  0  0
  -24.6550  -31.0200   22.1460 N   0  0  0  0  0  0  0  0  0  0  0  0
  -23.4680  -32.1220   23.7380 O   0  0  0  0  0  0  0  0  0  0  0  0
  -22.7250  -29.4050   22.5480 C   0  0  0  0  0  0  0  0  0  0  0  0
  -21.3990  -29.2420   22.4160 N   0  0  0  0  0  0  0  0  0  0  0  0
  -23.3950  -28.7740   23.3720 O   0  0  0  0  0  0  0  0  0  0  0  0
  -20.9210  -29.8040   21.7250 H   0  0  0  0  0  0  0  0  0  0  0  0
  -18.0000  -28.1090   22.9160 C   0  0  0  0  0  0  0  0  0  0  0  0
  -20.5640  -28.3150   23.1830 C   0  0  0  0  0  3  0  0  0  0  0  0
  -20.6360  -26.8850   22.5980 C   0  0  0  0  0  2  0  0  0  0  0  0
  -19.5230  -26.5900   21.5860 C   0  0  0  0  0  2  0  0  0  0  0  0
  -18.1480  -26.7610   22.2340 C   0  0  0  0  0  2  0  0  0  0  0  0
  -19.1360  -28.8460   23.3480 C   0  0  0  0  0  0  0  0  0  0  0  0
  -18.9410  -30.1130   23.9430 C   0  0  0  0  0  3  0  0  0  0  0  0
  -17.6480  -30.6390   24.1130 C   0  0  0  0  0  3  0  0  0  0  0  0
  -16.5290  -29.8970   23.7000 C   0  0  0  0  0  3  0  0  0  0  0  0
  -16.7060  -28.6340   23.1070 C   0  0  0  0  0  3  0  0  0  0  0  0
  -25.8310  -32.4880   23.8690 C   0  0  0  0  0  3  0  0  0  0  0  0
  -25.5130  -33.8910   24.1650 N   0  0  0  0  0  0  0  0  0  0  0  0
  -25.8610  -34.9270   23.3910 C   0  0  0  0  0  0  0  0  0  0  0  0
  -26.5480  -34.8040   22.3740 O   0  0  0  0  0  0  0  0  0  0  0  0
  -24.8950  -34.0630   24.9440 H   0  0  0  0  0  0  0  0  0  0  0  0
  -24.1280  -36.7060   22.9790 C   0  0  0  0  0  1  0  0  0  0  0  0
  -25.3640  -36.3240   23.8100 C   0  0  0  0  0  3  0  0  0  0  0  0
  -27.4910  -37.2390   24.6310 C   0  0  0  0  0  1  0  0  0  0  0  0
  -26.3950  -37.3780   23.6750 N   0  0  0  0  0  0  0  0  0  0  0  0
  -25.9860  -38.3000   23.7970 H   0  0  0  0  0  0  0  0  0  0  0  0
  -26.3150  -31.7400   25.1710 C   0  0  1  0  0  0  0  0  0  0  0  0
  -25.1910  -31.5230   26.2110 C   0  0  0  0  0  1  0  0  0  0  0  0
  -26.9120  -30.3570   24.8190 C   0  0  0  0  0  1  0  0  0  0  0  0
  -27.4470  -32.5480   25.8490 C   0  0  0  0  0  1  0  0  0  0  0  0
  1 53  1  0
  1  2  1  1
  3  1  1  0
  3  5  1  0
  4  5  1  0
  6  1  1  0
  6  7  1  0
  8 10  2  0
  9  7  1  0
  9  8  1  0
 11  9  1  0
 12 24  1  0
 13 18  1  0
 14 15  1  0
 14 13  1  0
 16 15  1  0
 16 28  1  0
 16 17  1  0
 18 12  1  0
 18 17  1  0
 19 12  2  0
 20 22  1  0
 21 20  1  0
 23  8  1  0
 23 21  1  0
 23 24  1  0
 24 22  1  0
 25 26  2  0
 26 45  1  0
 27 26  1  0
 27 30  1  0
 28 25  1  0
 28 29  1  0
 29 27  2  0
 30 31  1  0
 31 32  2  0
 33 36  1  0
 33 32  1  0
 34 33  2  0
 35 34  1  0
 35 30  2  0
 36 37  1  0
 37 42  2  0
 37 38  1  0
 38 39  2  0
 39 40  1  0
 40 44  1  0
 41 40  2  0
 42 41  1  0
 43 42  1  0
 45 46  1  0
 46 49  1  0
 46 48  1  0
 47 45  2  0
 50 51  1  0
 50 25  1  0
 52 50  1  0
 53 54  2  0
 54 55  1  0
 55 57  1  0
 56 67  2  0
 57 62  1  0
 58 66  1  0
 58 68  1  0
 59 65  1  0
 59 61  1  0
 60 66  1  0
 61 60  1  0
 62 61  2  0
 63 57  2  0
 64 63  1  0
 64 59  2  0
 65 58  1  0
 66 56  1  0
 68 70  2  0
 69 68  1  0
 71 69  1  0
 72 81  2  0
 72 77  1  0
 73 69  1  0
 73 77  1  0
 74 73  1  0
 75 76  1  0
 75 74  1  0
 76 72  1  0
 77 78  2  0
 78 79  1  0
 80 79  2  0
 81 80  1  0
 82 56  1  0
 82 83  1  0
 82 92  1  0
 83 86  1  0
 84 88  1  0
 84 83  1  0
 85 84  2  0
 88 87  1  0
 90 91  1  0
 90 88  1  0
 90 89  1  0
 92 95  1  1
 92 93  1  0
 94 92  1  0
M  ISO  4  12 100  24 100  54 101  55 101
M  END
>  <TORSDO>  (52) 
F 23

>  <SCORE>  (52) 
-12.296

>  <name>  (52) 
52

>  <ligand_id>  (52) 
52

>  <original_smiles>  (52) 
[H]c1c([H])c([H])c2c(c1[H])C([H])([H])C([H])([H])C([H])([H])C2([H])N([H])C(=O)C1([H])N(C(=O)C([H])(N([H])C(=O)C([H])(N([H])C([H])([H])[H])C([H])([H])[H])C(C([H])([H])[H])(C([H])([H])[H])C([H])([H])[H])C([H])([H])c2c([H])c(OC([H])([H])C([H])([H])[N+]([H])(C([H])([H])C([H])([H])N([H])C(=O)C3([H])N(C(=O)N4C([H])([H])C([H])([H])C([H])([H])C([H])(n5nc(-c6c([H])c([H])c(Oc7c([H])c([H])c(F)c([H])c7F)c([H])c6[H])c(C(=O)N([H])[H])c5N([H])[H])C4([H])[H])C([H])([H])C([H])([H])C3([H])[H])C([H])([H])C([H])([H])C([H])([H])[H])c([H])c([H])c2C1([H])[H]

>  <smiles>  (52) 
[H]c1c([H])c([H])c2c(c1[H])C([H])([H])C([H])([H])C([H])([H])C2([H])N([H])C(=O)C1([H])N(C(=O)C([H])(N([H])C(=O)C([H])(N([H])C([H])([H])[H])C([H])([H])[H])C(C([H])([H])[H])(C([H])([H])[H])C([H])([H])[H])C([H])([H])c2c([H])c(OC([H])([H])C([H])([H])[N+]([H])(C([H])([H])C([H])([H])N([H])C(=O)C3([H])N(C(=O)N4C([H])([H])C([H])([H])C([H])([H])C([H])(n5nc(-c6c([H])c([H])c(Oc7c([H])c([H])c(F)c([H])c7F)c([H])c6[H])c(C(=O)N([H])[H])c5N([H])[H])C4([H])[H])C([H])([H])C([H])([H])C3([H])[H])C([H])([H])C([H])([H])C([H])([H])[H])c([H])c([H])c2C1([H])[H]

$$$$
53:0:0
     RDKit          3D

 99107  0  0  1  0  0  0  0  0999 V2000
  -26.7650  -22.7600   19.8970 N   0  0  0  0  0  4  0  0  0  0  0  0
  -25.9430  -22.6760   20.4730 H   0  0  0  0  0  0  0  0  0  0  0  0
  -26.5080  -23.3130   19.0950 H   0  0  0  0  0  0  0  0  0  0  0  0
  -27.1260  -21.4160   19.3910 C   0  0  0  0  0  2  0  0  0  0  0  0
  -28.8320  -20.0350   20.6490 C   0  0  0  0  0  3  0  0  0  0  0  0
  -27.5650  -20.4590   20.4920 C   0  0  0  0  0  3  0  0  0  0  0  0
  -29.3100  -19.0340   21.6880 C   0  0  0  0  0  2  0  0  0  0  0  0
  -31.5970  -14.2710   19.6140 C   0  0  0  0  0  0  0  0  0  0  0  0
  -31.0080  -12.1490   18.5100 C   0  0  0  0  0  2  0  0  0  0  0  0
  -29.9560  -12.4020   17.4120 C   0  0  0  0  0  2  0  0  0  0  0  0
  -28.5300  -12.3750   17.9970 C   0  0  0  0  0  2  0  0  0  0  0  0
  -28.3880  -13.2540   19.2690 C   0  0  0  0  0  3  0  0  0  0  0  0
  -29.5360  -12.9780   20.2660 C   0  0  0  0  0  2  0  0  0  0  0  0
  -30.8130  -13.1630   19.5540 N   0  0  0  0  0  0  0  0  0  0  0  0
  -32.6740  -14.3800   19.0180 O   0  0  0  0  0  0  0  0  0  0  0  0
  -30.4740  -16.3300   19.2470 C   0  0  0  0  0  2  0  0  0  0  0  0
  -31.6790  -16.0000   21.3320 C   0  0  0  0  0  2  0  0  0  0  0  0
  -29.4720  -17.2520   19.9500 C   0  0  0  0  0  2  0  0  0  0  0  0
  -30.7430  -17.0230   22.0320 C   0  0  0  0  0  2  0  0  0  0  0  0
  -31.0230  -15.3500   20.1880 N   0  0  0  0  0  0  0  0  0  0  0  0
  -30.1400  -17.9730   21.0580 N   0  0  2  0  0  4  0  0  0  0  0  0
  -30.9180  -18.4590   20.6380 H   0  0  0  0  0  0  0  0  0  0  0  0
  -26.1650  -14.0630   20.2890 C   0  0  0  0  0  0  0  0  0  0  0  0
  -25.0720  -13.3800   20.7520 C   0  0  0  0  0  0  0  0  0  0  0  0
  -25.3740  -11.9960   20.5880 C   0  0  0  0  0  0  0  0  0  0  0  0
  -27.0750  -13.0950   19.8900 N   0  0  0  0  0  0  0  0  0  0  0  0
  -26.6070  -11.8420   20.1210 N   0  0  0  0  0  0  0  0  0  0  0  0
  -24.5420  -10.8050   20.7920 C   0  0  0  0  0  0  0  0  0  0  0  0
  -24.8750   -9.8320   21.7580 C   0  0  0  0  0  3  0  0  0  0  0  0
  -24.0470   -8.7050   21.9510 C   0  0  0  0  0  3  0  0  0  0  0  0
  -22.8730   -8.5450   21.1750 C   0  0  0  0  0  0  0  0  0  0  0  0
  -22.5620   -9.5060   20.1960 C   0  0  0  0  0  3  0  0  0  0  0  0
  -23.3890  -10.6240   20.0030 C   0  0  0  0  0  3  0  0  0  0  0  0
  -22.0250   -7.4700   21.2730 O   0  0  0  0  0  0  0  0  0  0  0  0
  -21.7770   -6.8580   22.4760 C   0  0  0  0  0  0  0  0  0  0  0  0
  -21.2600   -7.5680   23.5800 C   0  0  0  0  0  3  0  0  0  0  0  0
  -20.9500   -6.8830   24.7720 C   0  0  0  0  0  3  0  0  0  0  0  0
  -21.1530   -5.4930   24.8600 C   0  0  0  0  0  0  0  0  0  0  0  0
  -21.6660   -4.7850   23.7590 C   0  0  0  0  0  3  0  0  0  0  0  0
  -21.9730   -5.4660   22.5680 C   0  0  0  0  0  0  0  0  0  0  0  0
  -22.4450   -4.7750   21.5030 F   0  0  0  0  0  0  0  0  0  0  0  0
  -20.8480   -4.8360   26.0040 F   0  0  0  0  0  0  0  0  0  0  0  0
  -23.7750  -13.9800   21.2150 C   0  0  0  0  0  0  0  0  0  0  0  0
  -23.1310  -13.3580   22.1960 N   0  0  0  0  0  0  0  0  0  0  0  0
  -23.3500  -15.0300   20.7400 O   0  0  0  0  0  0  0  0  0  0  0  0
  -23.4950  -12.5100   22.6030 H   0  0  0  0  0  0  0  0  0  0  0  0
  -22.2650  -13.7410   22.5470 H   0  0  0  0  0  0  0  0  0  0  0  0
  -26.4420  -15.4160   20.1560 N   0  0  0  0  0  0  0  0  0  0  0  0
  -25.7000  -16.0920   20.3070 H   0  0  0  0  0  0  0  0  0  0  0  0
  -27.1650  -15.7540   19.5370 H   0  0  0  0  0  0  0  0  0  0  0  0
  -27.8450  -23.4520   20.6520 C   0  0  0  0  0  2  0  0  0  0  0  0
  -27.6650  -24.9890   20.7240 C   0  0  0  0  0  3  0  0  0  0  0  0
  -28.0140  -25.5790   22.1220 C   0  0  0  0  0  2  0  0  0  0  0  0
  -26.8270  -25.8870   22.9470 N   0  0  0  0  0  4  0  0  0  0  0  0
  -26.2150  -26.5440   22.4890 H   0  0  0  0  0  0  0  0  0  0  0  0
  -27.1340  -26.3130   23.8040 H   0  0  0  0  0  0  0  0  0  0  0  0
  -26.3030  -25.0650   23.1870 H   0  0  0  0  0  0  0  0  0  0  0  0
  -28.5330  -25.6750   19.6290 C   0  0  0  0  0  2  0  0  0  0  0  0
  -28.5570  -27.0970   19.7740 O   0  0  0  0  0  0  0  0  0  0  0  0
  -24.6410  -31.7790   23.3780 C   0  0  0  0  0  0  0  0  0  0  0  0
  -27.3530  -27.7640   19.8330 C   0  0  0  0  0  0  0  0  0  0  0  0
  -23.4450  -30.5270   21.6080 C   0  0  0  0  0  3  0  0  0  0  0  0
  -24.9200  -29.1790   20.0290 C   0  0  0  0  0  0  0  0  0  0  0  0
  -25.9590  -30.9700   21.4320 C   0  0  0  0  0  2  0  0  0  0  0  0
  -26.0690  -29.6720   20.6630 C   0  0  0  0  0  0  0  0  0  0  0  0
  -27.2880  -28.9640   20.5730 C   0  0  0  0  0  3  0  0  0  0  0  0
  -26.1860  -27.2900   19.1900 C   0  0  0  0  0  3  0  0  0  0  0  0
  -24.9700  -27.9830   19.3000 C   0  0  0  0  0  3  0  0  0  0  0  0
  -23.6600  -30.0020   20.1610 C   0  0  0  0  0  2  0  0  0  0  0  0
  -24.6980  -31.1020   22.1980 N   0  0  0  0  0  0  0  0  0  0  0  0
  -23.5630  -31.9630   23.9580 O   0  0  0  0  0  0  0  0  0  0  0  0
  -22.8350  -29.3910   22.4650 C   0  0  0  0  0  0  0  0  0  0  0  0
  -21.5200  -29.1620   22.3080 N   0  0  0  0  0  0  0  0  0  0  0  0
  -23.5430  -28.7260   23.2270 O   0  0  0  0  0  0  0  0  0  0  0  0
  -21.0090  -29.7760   21.6920 H   0  0  0  0  0  0  0  0  0  0  0  0
  -18.2130  -27.7530   22.5570 C   0  0  0  0  0  0  0  0  0  0  0  0
  -20.7360  -28.1270   22.9820 C   0  0  0  0  0  3  0  0  0  0  0  0
  -20.9470  -26.7430   22.3190 C   0  0  0  0  0  2  0  0  0  0  0  0
  -19.9220  -26.4230   21.2280 C   0  0  0  0  0  2  0  0  0  0  0  0
  -18.4930  -26.4770   21.7770 C   0  0  0  0  0  2  0  0  0  0  0  0
  -19.2620  -28.5370   23.1060 C   0  0  0  0  0  0  0  0  0  0  0  0
  -18.9370  -29.7350   23.7800 C   0  0  0  0  0  3  0  0  0  0  0  0
  -17.5990  -30.1520   23.9170 C   0  0  0  0  0  3  0  0  0  0  0  0
  -16.5630  -29.3660   23.3790 C   0  0  0  0  0  3  0  0  0  0  0  0
  -16.8720  -28.1710   22.7020 C   0  0  0  0  0  3  0  0  0  0  0  0
  -25.9210  -32.3760   24.0460 C   0  0  0  0  0  3  0  0  0  0  0  0
  -25.6390  -33.7830   24.3590 N   0  0  0  0  0  0  0  0  0  0  0  0
  -26.0330  -34.8230   23.6120 C   0  0  0  0  0  0  0  0  0  0  0  0
  -26.7460  -34.6950   22.6110 O   0  0  0  0  0  0  0  0  0  0  0  0
  -25.0120  -33.9520   25.1320 H   0  0  0  0  0  0  0  0  0  0  0  0
  -24.3610  -36.6550   23.2020 C   0  0  0  0  0  1  0  0  0  0  0  0
  -25.5700  -36.2260   24.0480 C   0  0  0  0  0  3  0  0  0  0  0  0
  -27.6990  -37.0720   24.9340 C   0  0  0  0  0  1  0  0  0  0  0  0
  -26.6300  -37.2540   23.9560 N   0  0  0  0  0  0  0  0  0  0  0  0
  -26.2390  -38.1830   24.0830 H   0  0  0  0  0  0  0  0  0  0  0  0
  -26.3650  -31.5960   25.3440 C   0  0  1  0  0  0  0  0  0  0  0  0
  -25.2230  -31.3840   26.3640 C   0  0  0  0  0  1  0  0  0  0  0  0
  -26.9270  -30.2050   24.9730 C   0  0  0  0  0  1  0  0  0  0  0  0
  -27.5000  -32.3640   26.0610 C   0  0  0  0  0  1  0  0  0  0  0  0
  1  2  1  0
  1 51  1  0
  3  1  1  0
  4  1  1  0
  4  6  1  0
  5  7  1  0
  6  5  2  0
  8 20  1  0
  9 14  1  0
 10 11  1  0
 10  9  1  0
 12 11  1  0
 12 26  1  0
 12 13  1  0
 14  8  1  0
 14 13  1  0
 15  8  2  0
 16 18  1  0
 16 20  1  0
 17 19  1  0
 18 21  1  0
 20 17  1  0
 21  7  1  0
 21 19  1  0
 21 22  1  6
 23 24  2  0
 24 43  1  0
 25 24  1  0
 25 28  1  0
 26 27  1  0
 26 23  1  0
 27 25  2  0
 28 29  1  0
 29 30  2  0
 31 34  1  0
 31 30  1  0
 32 31  2  0
 33 32  1  0
 33 28  2  0
 34 35  1  0
 35 40  2  0
 35 36  1  0
 36 37  2  0
 37 38  1  0
 38 42  1  0
 39 38  2  0
 40 39  1  0
 41 40  1  0
 43 44  1  0
 44 47  1  0
 44 46  1  0
 45 43  2  0
 48 23  1  0
 48 49  1  0
 50 48  1  0
 51 52  1  0
 52 58  1  0
 52 53  1  0
 53 54  1  0
 54 57  1  0
 54 56  1  0
 55 54  1  0
 58 59  1  0
 59 61  1  0
 60 71  2  0
 61 66  1  0
 62 70  1  0
 62 72  1  0
 63 69  1  0
 63 65  1  0
 64 70  1  0
 65 64  1  0
 66 65  2  0
 67 68  1  0
 67 61  2  0
 68 63  2  0
 69 62  1  0
 70 60  1  0
 72 74  2  0
 73 72  1  0
 75 73  1  0
 76 85  2  0
 76 81  1  0
 77 73  1  0
 77 81  1  0
 78 77  1  0
 79 80  1  0
 79 78  1  0
 80 76  1  0
 81 82  2  0
 82 83  1  0
 84 83  2  0
 85 84  1  0
 86 60  1  0
 86 87  1  0
 86 96  1  0
 87 90  1  0
 88 92  1  0
 88 87  1  0
 89 88  2  0
 92 91  1  0
 94 92  1  0
 94 95  1  0
 94 93  1  0
 96 99  1  1
 96 97  1  0
 98 96  1  0
M  ISO  4   8 100  20 100  58 101  59 101
M  END
>  <TORSDO>  (53) 
F 24

>  <SCORE>  (53) 
-10.298

>  <name>  (53) 
53

>  <ligand_id>  (53) 
53

>  <original_smiles>  (53) 
[H]C(=C([H])C([H])([H])[N+]1([H])C([H])([H])C([H])([H])N(C(=O)N2C([H])([H])C([H])([H])C([H])([H])C([H])(n3nc(-c4c([H])c([H])c(Oc5c([H])c([H])c(F)c([H])c5F)c([H])c4[H])c(C(=O)N([H])[H])c3N([H])[H])C2([H])[H])C([H])([H])C1([H])[H])C([H])([H])[N+]([H])([H])C([H])([H])C([H])(C([H])([H])Oc1c([H])c([H])c2c(c1[H])C([H])([H])N(C(=O)C([H])(N([H])C(=O)C([H])(N([H])C([H])([H])[H])C([H])([H])[H])C(C([H])([H])[H])(C([H])([H])[H])C([H])([H])[H])C([H])(C(=O)N([H])C1([H])c3c([H])c([H])c([H])c([H])c3C([H])([H])C([H])([H])C1([H])[H])C2([H])[H])C([H])([H])[N+]([H])([H])[H]

>  <smiles>  (53) 
[H]C(=C([H])C([H])([H])[N+]1([H])C([H])([H])C([H])([H])N(C(=O)N2C([H])([H])C([H])([H])C([H])([H])C([H])(n3nc(-c4c([H])c([H])c(Oc5c([H])c([H])c(F)c([H])c5F)c([H])c4[H])c(C(=O)N([H])[H])c3N([H])[H])C2([H])[H])C([H])([H])C1([H])[H])C([H])([H])[N+]([H])([H])C([H])([H])C([H])(C([H])([H])Oc1c([H])c([H])c2c(c1[H])C([H])([H])N(C(=O)C([H])(N([H])C(=O)C([H])(N([H])C([H])([H])[H])C([H])([H])[H])C(C([H])([H])[H])(C([H])([H])[H])C([H])([H])[H])C([H])(C(=O)N([H])C1([H])c3c([H])c([H])c([H])c([H])c3C([H])([H])C([H])([H])C1([H])[H])C2([H])[H])C([H])([H])[N+]([H])([H])[H]

$$$$
54:0:0
     RDKit          3D

 95103  0  0  1  0  0  0  0  0999 V2000
  -28.9630  -22.5450   20.5350 N   0  0  0  0  0  0  0  0  0  0  0  0
  -29.2710  -21.2710   19.7840 C   0  0  0  0  0  2  0  0  0  0  0  0
  -29.8350  -20.0530   20.6540 C   0  0  0  0  0  2  0  0  0  0  0  0
  -30.9510  -14.4920   19.8540 C   0  0  0  0  0  0  0  0  0  0  0  0
  -30.6310  -12.2370   18.8750 C   0  0  0  0  0  2  0  0  0  0  0  0
  -29.5960  -12.3320   17.7330 C   0  0  0  0  0  2  0  0  0  0  0  0
  -28.1620  -12.1800   18.2820 C   0  0  0  0  0  2  0  0  0  0  0  0
  -27.8990  -13.0710   19.5250 C   0  0  0  0  0  3  0  0  0  0  0  0
  -29.0460  -12.9500   20.5530 C   0  0  0  0  0  2  0  0  0  0  0  0
  -30.2940  -13.2890   19.8560 N   0  0  0  0  0  0  0  0  0  0  0  0
  -32.0970  -14.5720   19.4000 O   0  0  0  0  0  0  0  0  0  0  0  0
  -29.4450  -16.1540   21.0480 C   0  0  0  0  0  2  0  0  0  0  0  0
  -30.1970  -16.6090   18.7520 C   0  0  0  0  0  2  0  0  0  0  0  0
  -29.6960  -17.6640   21.3810 C   0  0  0  0  0  2  0  0  0  0  0  0
  -30.4480  -18.1090   19.1250 C   0  0  0  0  0  2  0  0  0  0  0  0
  -30.1780  -15.6350   19.8760 N   0  0  0  0  0  0  0  0  0  0  0  0
  -29.5800  -18.6130   20.2280 N   0  0  2  0  0  4  0  0  0  0  0  0
  -28.6230  -18.5690   19.9100 H   0  0  0  0  0  0  0  0  0  0  0  0
  -25.6130  -13.6830   20.5190 C   0  0  0  0  0  0  0  0  0  0  0  0
  -24.5610  -12.9160   20.9430 C   0  0  0  0  0  0  0  0  0  0  0  0
  -24.9700  -11.5590   20.7730 C   0  0  0  0  0  0  0  0  0  0  0  0
  -26.5970  -12.7920   20.1240 N   0  0  0  0  0  0  0  0  0  0  0  0
  -26.2220  -11.5050   20.3350 N   0  0  0  0  0  0  0  0  0  0  0  0
  -24.2210  -10.3070   20.9450 C   0  0  0  0  0  0  0  0  0  0  0  0
  -24.5950   -9.3500   21.9150 C   0  0  0  0  0  3  0  0  0  0  0  0
  -23.8490   -8.1640   22.0750 C   0  0  0  0  0  3  0  0  0  0  0  0
  -22.7130   -7.9250   21.2660 C   0  0  0  0  0  0  0  0  0  0  0  0
  -22.3590   -8.8690   20.2860 C   0  0  0  0  0  3  0  0  0  0  0  0
  -23.1060  -10.0480   20.1240 C   0  0  0  0  0  3  0  0  0  0  0  0
  -21.9430   -6.7900   21.3330 O   0  0  0  0  0  0  0  0  0  0  0  0
  -21.6640   -6.1800   22.5290 C   0  0  0  0  0  0  0  0  0  0  0  0
  -20.9590   -6.8410   23.5570 C   0  0  0  0  0  3  0  0  0  0  0  0
  -20.6330   -6.1540   24.7430 C   0  0  0  0  0  3  0  0  0  0  0  0
  -21.0020   -4.8050   24.9000 C   0  0  0  0  0  0  0  0  0  0  0  0
  -21.6980   -4.1410   23.8750 C   0  0  0  0  0  3  0  0  0  0  0  0
  -22.0260   -4.8260   22.6920 C   0  0  0  0  0  0  0  0  0  0  0  0
  -22.6790   -4.1760   21.6990 F   0  0  0  0  0  0  0  0  0  0  0  0
  -20.6810   -4.1430   26.0370 F   0  0  0  0  0  0  0  0  0  0  0  0
  -23.2150  -13.4140   21.3830 C   0  0  0  0  0  0  0  0  0  0  0  0
  -22.5510  -12.6830   22.2720 N   0  0  0  0  0  0  0  0  0  0  0  0
  -22.7640  -14.4830   20.9750 O   0  0  0  0  0  0  0  0  0  0  0  0
  -22.9310  -11.8160   22.6240 H   0  0  0  0  0  0  0  0  0  0  0  0
  -21.6530  -12.9980   22.6080 H   0  0  0  0  0  0  0  0  0  0  0  0
  -25.8040  -15.0570   20.4130 N   0  0  0  0  0  0  0  0  0  0  0  0
  -25.0560  -15.7140   20.6090 H   0  0  0  0  0  0  0  0  0  0  0  0
  -26.5910  -15.4830   19.9420 H   0  0  0  0  0  0  0  0  0  0  0  0
  -30.0980  -22.8780   21.4210 C   0  0  0  0  0  2  0  0  0  0  0  0
  -29.6760  -23.4430   22.7970 C   0  0  0  0  0  2  0  0  0  0  0  0
  -30.2810  -22.7040   23.9160 N   0  0  0  0  0  4  0  0  0  0  0  0
  -30.0330  -21.7310   23.8800 H   0  0  0  0  0  0  0  0  0  0  0  0
  -29.9480  -23.0760   24.7870 H   0  0  0  0  0  0  0  0  0  0  0  0
  -31.2820  -22.7840   23.9040 H   0  0  0  0  0  0  0  0  0  0  0  0
  -28.6590  -23.7500   19.6800 C   0  0  0  0  0  2  0  0  0  0  0  0
  -27.8440  -24.9490   20.3430 C   0  0  0  0  0  2  0  0  0  0  0  0
  -28.0420  -26.3140   19.8290 O   0  0  0  0  0  0  0  0  0  0  0  0
  -24.5060  -31.6730   23.0960 C   0  0  0  0  0  0  0  0  0  0  0  0
  -26.9410  -27.1700   19.8650 C   0  0  0  0  0  0  0  0  0  0  0  0
  -23.2360  -30.3640   21.4280 C   0  0  0  0  0  3  0  0  0  0  0  0
  -24.6190  -28.8150   19.9360 C   0  0  0  0  0  0  0  0  0  0  0  0
  -25.7760  -30.6240   21.2110 C   0  0  0  0  0  2  0  0  0  0  0  0
  -25.8070  -29.2660   20.5260 C   0  0  0  0  0  0  0  0  0  0  0  0
  -26.9760  -28.4550   20.4760 C   0  0  0  0  0  3  0  0  0  0  0  0
  -25.7370  -26.7590   19.2570 C   0  0  0  0  0  3  0  0  0  0  0  0
  -24.5830  -27.5660   19.2920 C   0  0  0  0  0  3  0  0  0  0  0  0
  -23.4080  -29.7210   20.0260 C   0  0  0  0  0  2  0  0  0  0  0  0
  -24.5260  -30.9010   21.9690 N   0  0  0  0  0  0  0  0  0  0  0  0
  -23.4400  -31.9640   23.6570 O   0  0  0  0  0  0  0  0  0  0  0  0
  -22.5570  -29.3380   22.3680 C   0  0  0  0  0  0  0  0  0  0  0  0
  -21.2240  -29.2120   22.2610 N   0  0  0  0  0  0  0  0  0  0  0  0
  -23.2300  -28.6590   23.1490 O   0  0  0  0  0  0  0  0  0  0  0  0
  -20.7440  -29.8110   21.6050 H   0  0  0  0  0  0  0  0  0  0  0  0
  -17.8100  -28.1580   22.8220 C   0  0  0  0  0  0  0  0  0  0  0  0
  -20.3860  -28.2780   23.0140 C   0  0  0  0  0  3  0  0  0  0  0  0
  -20.3970  -26.8730   22.3660 C   0  0  0  0  0  2  0  0  0  0  0  0
  -19.2470  -26.6560   21.3780 C   0  0  0  0  0  2  0  0  0  0  0  0
  -17.8970  -26.8360   22.0770 C   0  0  0  0  0  2  0  0  0  0  0  0
  -18.9800  -28.8420   23.2480 C   0  0  0  0  0  0  0  0  0  0  0  0
  -18.8440  -30.0820   23.9080 C   0  0  0  0  0  3  0  0  0  0  0  0
  -17.5720  -30.6380   24.1440 C   0  0  0  0  0  3  0  0  0  0  0  0
  -16.4190  -29.9490   23.7330 C   0  0  0  0  0  3  0  0  0  0  0  0
  -16.5380  -28.7110   23.0780 C   0  0  0  0  0  3  0  0  0  0  0  0
  -25.8170  -32.2440   23.7180 C   0  0  0  0  0  3  0  0  0  0  0  0
  -26.3290  -31.4130   24.9590 C   0  0  1  0  0  0  0  0  0  0  0  0
  -25.2440  -31.1620   26.0320 C   0  0  0  0  0  1  0  0  0  0  0  0
  -26.8730  -30.0370   24.5070 C   0  0  0  0  0  1  0  0  0  0  0  0
  -27.5090  -32.1530   25.6330 C   0  0  0  0  0  1  0  0  0  0  0  0
  -25.5560  -33.6390   24.1020 N   0  0  0  0  0  0  0  0  0  0  0  0
  -25.9030  -34.7060   23.3700 C   0  0  0  0  0  0  0  0  0  0  0  0
  -26.5450  -34.6180   22.3210 O   0  0  0  0  0  0  0  0  0  0  0  0
  -24.9850  -33.7830   24.9210 H   0  0  0  0  0  0  0  0  0  0  0  0
  -24.2150  -36.5550   23.1240 C   0  0  0  0  0  1  0  0  0  0  0  0
  -25.4680  -36.0920   23.8850 C   0  0  0  0  0  3  0  0  0  0  0  0
  -27.6390  -36.9050   24.6940 C   0  0  0  0  0  1  0  0  0  0  0  0
  -26.5250  -37.1200   23.7740 N   0  0  0  0  0  0  0  0  0  0  0  0
  -26.1460  -38.0470   23.9450 H   0  0  0  0  0  0  0  0  0  0  0  0
  1 47  1  0
  2  1  1  0
  2  3  1  0
  4 10  1  0
  4 16  1  0
  5 10  1  0
  6  7  1  0
  6  5  1  0
  8  7  1  0
  8 22  1  0
  8  9  1  0
 10  9  1  0
 11  4  2  0
 12 14  1  0
 13 15  1  0
 13 16  1  0
 15 17  1  0
 16 12  1  0
 17  3  1  0
 17 14  1  0
 17 18  1  6
 19 20  2  0
 20 39  1  0
 21 20  1  0
 21 24  1  0
 22 23  1  0
 22 19  1  0
 23 21  2  0
 24 25  1  0
 25 26  2  0
 27 30  1  0
 27 26  1  0
 28 27  2  0
 29 28  1  0
 29 24  2  0
 30 31  1  0
 31 36  2  0
 31 32  1  0
 32 33  2  0
 33 34  1  0
 34 38  1  0
 35 34  2  0
 36 35  1  0
 37 36  1  0
 39 40  1  0
 40 43  1  0
 40 42  1  0
 41 39  2  0
 44 19  1  0
 44 45  1  0
 46 44  1  0
 47 48  1  0
 48 49  1  0
 49 51  1  0
 50 49  1  0
 52 49  1  0
 53 54  1  0
 53  1  1  0
 55 57  1  0
 55 54  1  0
 56 67  2  0
 57 62  1  0
 58 66  1  0
 58 68  1  0
 59 65  1  0
 59 61  1  0
 60 66  1  0
 61 60  1  0
 62 61  2  0
 63 64  1  0
 63 57  2  0
 64 59  2  0
 65 58  1  0
 66 56  1  0
 68 70  2  0
 69 68  1  0
 71 69  1  0
 72 81  2  0
 72 77  1  0
 73 69  1  0
 73 77  1  0
 74 73  1  0
 75 76  1  0
 75 74  1  0
 76 72  1  0
 77 78  2  0
 78 79  1  0
 80 79  2  0
 81 80  1  0
 82 56  1  0
 82 87  1  0
 82 83  1  0
 83 86  1  1
 83 84  1  0
 85 83  1  0
 87 90  1  0
 88 92  1  0
 88 87  1  0
 89 88  2  0
 92 91  1  0
 94 92  1  0
 94 95  1  0
 94 93  1  0
M  ISO  4   4 100  16 100  54 101  55 101
M  END
>  <TORSDO>  (54) 
F 23

>  <SCORE>  (54) 
-12.164

>  <name>  (54) 
54

>  <ligand_id>  (54) 
54

>  <original_smiles>  (54) 
[H]c1c([H])c([H])c2c(c1[H])C([H])([H])C([H])([H])C([H])([H])C2([H])N([H])C(=O)C1([H])N(C(=O)C([H])(N([H])C(=O)C([H])(N([H])C([H])([H])[H])C([H])([H])[H])C(C([H])([H])[H])(C([H])([H])[H])C([H])([H])[H])C([H])([H])c2c([H])c(OC([H])([H])C([H])([H])N(C([H])([H])C([H])([H])[N+]([H])([H])[H])C([H])([H])C([H])([H])[N+]3([H])C([H])([H])C([H])([H])N(C(=O)N4C([H])([H])C([H])([H])C([H])([H])C([H])(n5nc(-c6c([H])c([H])c(Oc7c([H])c([H])c(F)c([H])c7F)c([H])c6[H])c(C(=O)N([H])[H])c5N([H])[H])C4([H])[H])C([H])([H])C3([H])[H])c([H])c([H])c2C1([H])[H]

>  <smiles>  (54) 
[H]c1c([H])c([H])c2c(c1[H])C([H])([H])C([H])([H])C([H])([H])C2([H])N([H])C(=O)C1([H])N(C(=O)C([H])(N([H])C(=O)C([H])(N([H])C([H])([H])[H])C([H])([H])[H])C(C([H])([H])[H])(C([H])([H])[H])C([H])([H])[H])C([H])([H])c2c([H])c(OC([H])([H])C([H])([H])N(C([H])([H])C([H])([H])[N+]([H])([H])[H])C([H])([H])C([H])([H])[N+]3([H])C([H])([H])C([H])([H])N(C(=O)N4C([H])([H])C([H])([H])C([H])([H])C([H])(n5nc(-c6c([H])c([H])c(Oc7c([H])c([H])c(F)c([H])c7F)c([H])c6[H])c(C(=O)N([H])[H])c5N([H])[H])C4([H])[H])C([H])([H])C3([H])[H])c([H])c([H])c2C1([H])[H]

$$$$
55:0:0
     RDKit          3D

 97105  0  0  1  0  0  0  0  0999 V2000
  -29.3590  -24.1610   19.6730 N   0  0  0  0  0  4  0  0  0  0  0  0
  -29.9890  -24.5010   20.3820 H   0  0  0  0  0  0  0  0  0  0  0  0
  -28.4540  -24.0770   20.1090 H   0  0  0  0  0  0  0  0  0  0  0  0
  -29.8200  -22.8170   19.2410 C   0  0  0  0  0  2  0  0  0  0  0  0
  -29.6040  -20.7010   20.6360 C   0  0  0  0  0  3  0  0  0  0  0  0
  -30.1860  -21.8930   20.3990 C   0  0  0  0  0  3  0  0  0  0  0  0
  -29.9740  -19.7360   21.7640 C   0  0  0  0  0  2  0  0  0  0  0  0
  -30.7480  -14.4370   20.1470 C   0  0  0  0  0  0  0  0  0  0  0  0
  -30.2980  -12.3340   18.9340 C   0  0  0  0  0  2  0  0  0  0  0  0
  -29.3020  -12.5910   17.7860 C   0  0  0  0  0  2  0  0  0  0  0  0
  -27.8510  -12.4450   18.2840 C   0  0  0  0  0  2  0  0  0  0  0  0
  -27.5870  -13.2540   19.5800 C   0  0  0  0  0  3  0  0  0  0  0  0
  -28.7010  -13.0070   20.6280 C   0  0  0  0  0  2  0  0  0  0  0  0
  -30.0000  -13.3050   20.0000 N   0  0  0  0  0  0  0  0  0  0  0  0
  -31.8440  -14.5780   19.5970 O   0  0  0  0  0  0  0  0  0  0  0  0
  -29.0670  -16.1890   20.4570 C   0  0  0  0  0  3  0  0  0  0  0  0
  -31.1680  -16.1170   21.8620 C   0  0  0  0  0  2  0  0  0  0  0  0
  -29.0750  -17.7390   20.5670 C   0  0  0  0  0  3  0  0  0  0  0  0
  -30.6320  -17.4440   22.4180 C   0  0  0  0  0  2  0  0  0  0  0  0
  -30.2510  -15.4340   20.9270 N   0  0  0  0  0  0  0  0  0  0  0  0
  -30.2120  -18.3320   21.3130 N   0  0  2  0  0  4  0  0  0  0  0  0
  -30.9940  -18.3670   20.6760 H   0  0  0  0  0  0  0  0  0  0  0  0
  -25.2420  -13.9040   20.4110 C   0  0  0  0  0  0  0  0  0  0  0  0
  -24.1780  -13.1490   20.8240 C   0  0  0  0  0  0  0  0  0  0  0  0
  -24.6130  -11.7900   20.7580 C   0  0  0  0  0  0  0  0  0  0  0  0
  -26.2570  -13.0030   20.1220 N   0  0  0  0  0  0  0  0  0  0  0  0
  -25.8850  -11.7280   20.3870 N   0  0  0  0  0  0  0  0  0  0  0  0
  -23.8750  -10.5390   20.9690 C   0  0  0  0  0  0  0  0  0  0  0  0
  -24.3350   -9.5580   21.8750 C   0  0  0  0  0  3  0  0  0  0  0  0
  -23.6020   -8.3700   22.0750 C   0  0  0  0  0  3  0  0  0  0  0  0
  -22.3970   -8.1540   21.3660 C   0  0  0  0  0  0  0  0  0  0  0  0
  -21.9560   -9.1220   20.4460 C   0  0  0  0  0  3  0  0  0  0  0  0
  -22.6900  -10.3010   20.2450 C   0  0  0  0  0  3  0  0  0  0  0  0
  -21.6310   -7.0180   21.4750 O   0  0  0  0  0  0  0  0  0  0  0  0
  -21.6110   -6.2700   22.6240 C   0  0  0  0  0  0  0  0  0  0  0  0
  -21.2560   -6.8280   23.8720 C   0  0  0  0  0  3  0  0  0  0  0  0
  -21.1820   -6.0070   25.0140 C   0  0  0  0  0  3  0  0  0  0  0  0
  -21.4550   -4.6300   24.9110 C   0  0  0  0  0  0  0  0  0  0  0  0
  -21.8050   -4.0710   23.6690 C   0  0  0  0  0  3  0  0  0  0  0  0
  -21.8810   -4.8910   22.5290 C   0  0  0  0  0  0  0  0  0  0  0  0
  -22.1960   -4.3430   21.3290 F   0  0  0  0  0  0  0  0  0  0  0  0
  -21.3780   -3.8390   26.0060 F   0  0  0  0  0  0  0  0  0  0  0  0
  -22.8040  -13.6480   21.1640 C   0  0  0  0  0  0  0  0  0  0  0  0
  -22.1050  -12.9540   22.0570 N   0  0  0  0  0  0  0  0  0  0  0  0
  -22.3590  -14.6830   20.6740 O   0  0  0  0  0  0  0  0  0  0  0  0
  -22.4790  -12.1140   22.4710 H   0  0  0  0  0  0  0  0  0  0  0  0
  -21.1840  -13.2670   22.3280 H   0  0  0  0  0  0  0  0  0  0  0  0
  -25.4220  -15.2720   20.2330 N   0  0  0  0  0  0  0  0  0  0  0  0
  -24.6630  -15.9340   20.3630 H   0  0  0  0  0  0  0  0  0  0  0  0
  -26.2330  -15.6820   19.7900 H   0  0  0  0  0  0  0  0  0  0  0  0
  -29.2880  -25.1880   18.5900 C   0  0  0  0  0  3  0  0  0  0  0  0
  -28.1310  -24.9200   17.6000 C   0  0  0  0  0  2  0  0  0  0  0  0
  -28.5200  -23.9720   16.5690 N   0  0  0  0  0  0  0  0  0  0  0  0
  -29.2490  -24.3800   15.9900 H   0  0  0  0  0  0  0  0  0  0  0  0
  -27.7430  -23.8560   15.9230 H   0  0  0  0  0  0  0  0  0  0  0  0
  -29.2170  -26.6260   19.1660 C   0  0  0  0  0  2  0  0  0  0  0  0
  -28.3310  -26.6860   20.2730 O   0  0  0  0  0  0  0  0  0  0  0  0
  -24.5520  -31.8710   23.2250 C   0  0  0  0  0  0  0  0  0  0  0  0
  -27.1980  -27.4540   20.1540 C   0  0  0  0  0  0  0  0  0  0  0  0
  -23.3410  -30.4660   21.5850 C   0  0  0  0  0  3  0  0  0  0  0  0
  -24.7960  -28.9350   20.1540 C   0  0  0  0  0  0  0  0  0  0  0  0
  -25.8600  -30.8420   21.3720 C   0  0  0  0  0  2  0  0  0  0  0  0
  -25.9510  -29.4710   20.7370 C   0  0  0  0  0  0  0  0  0  0  0  0
  -27.1540  -28.7340   20.7400 C   0  0  0  0  0  3  0  0  0  0  0  0
  -26.0290  -26.9200   19.5710 C   0  0  0  0  0  3  0  0  0  0  0  0
  -24.8300  -27.6580   19.5660 C   0  0  0  0  0  3  0  0  0  0  0  0
  -23.5460  -29.7840   20.2050 C   0  0  0  0  0  2  0  0  0  0  0  0
  -24.6040  -31.0730   22.1210 N   0  0  0  0  0  0  0  0  0  0  0  0
  -23.4740  -32.1400   23.7720 O   0  0  0  0  0  0  0  0  0  0  0  0
  -22.6970  -29.4440   22.5510 C   0  0  0  0  0  0  0  0  0  0  0  0
  -21.3720  -29.2650   22.4330 N   0  0  0  0  0  0  0  0  0  0  0  0
  -23.3870  -28.8170   23.3600 O   0  0  0  0  0  0  0  0  0  0  0  0
  -20.8770  -29.8260   21.7540 H   0  0  0  0  0  0  0  0  0  0  0  0
  -18.0000  -28.0670   22.9360 C   0  0  0  0  0  0  0  0  0  0  0  0
  -20.5570  -28.3280   23.2090 C   0  0  0  0  0  3  0  0  0  0  0  0
  -20.6610  -26.8950   22.6400 C   0  0  0  0  0  2  0  0  0  0  0  0
  -19.5610  -26.5660   21.6250 C   0  0  0  0  0  2  0  0  0  0  0  0
  -18.1780  -26.7140   22.2670 C   0  0  0  0  0  2  0  0  0  0  0  0
  -19.1180  -28.8310   23.3640 C   0  0  0  0  0  0  0  0  0  0  0  0
  -18.8990  -30.0970   23.9480 C   0  0  0  0  0  3  0  0  0  0  0  0
  -17.5940  -30.5990   24.1090 C   0  0  0  0  0  3  0  0  0  0  0  0
  -16.4900  -29.8320   23.7010 C   0  0  0  0  0  3  0  0  0  0  0  0
  -16.6940  -28.5660   23.1200 C   0  0  0  0  0  3  0  0  0  0  0  0
  -25.8420  -32.5030   23.8380 C   0  0  0  0  0  3  0  0  0  0  0  0
  -25.5350  -33.8990   24.1770 N   0  0  0  0  0  0  0  0  0  0  0  0
  -25.8570  -34.9540   23.4160 C   0  0  0  0  0  0  0  0  0  0  0  0
  -26.5180  -34.8550   22.3780 O   0  0  0  0  0  0  0  0  0  0  0  0
  -24.9530  -34.0500   24.9880 H   0  0  0  0  0  0  0  0  0  0  0  0
  -24.1160  -36.7350   23.0790 C   0  0  0  0  0  1  0  0  0  0  0  0
  -25.3660  -36.3390   23.8800 C   0  0  0  0  0  3  0  0  0  0  0  0
  -27.5100  -37.2250   24.6840 C   0  0  0  0  0  1  0  0  0  0  0  0
  -26.3910  -37.3990   23.7620 N   0  0  0  0  0  0  0  0  0  0  0  0
  -25.9810  -38.3130   23.9310 H   0  0  0  0  0  0  0  0  0  0  0  0
  -26.3750  -31.7260   25.1030 C   0  0  1  0  0  0  0  0  0  0  0  0
  -25.2950  -31.4780   26.1830 C   0  0  0  0  0  1  0  0  0  0  0  0
  -26.9540  -30.3530   24.6900 C   0  0  0  0  0  1  0  0  0  0  0  0
  -27.5310  -32.5170   25.7580 C   0  0  0  0  0  1  0  0  0  0  0  0
  1  3  1  0
  1  2  1  0
  4  1  1  0
  4  6  1  0
  5  7  1  0
  6  5  2  0
  8 20  1  0
  9 14  1  0
 10 11  1  0
 10  9  1  0
 12 11  1  0
 12 26  1  0
 12 13  1  0
 14  8  1  0
 14 13  1  0
 15  8  2  0
 16 18  2  0
 16 20  1  0
 17 19  1  0
 18 21  1  0
 20 17  1  0
 21  7  1  0
 21 19  1  0
 21 22  1  6
 23 24  2  0
 24 43  1  0
 25 24  1  0
 25 28  1  0
 26 27  1  0
 26 23  1  0
 27 25  2  0
 28 29  1  0
 29 30  2  0
 31 34  1  0
 31 30  1  0
 32 31  2  0
 33 32  1  0
 33 28  2  0
 34 35  1  0
 35 36  1  0
 36 37  2  0
 38 37  1  0
 38 42  1  0
 39 38  2  0
 40 35  2  0
 40 39  1  0
 41 40  1  0
 43 44  1  0
 44 47  1  0
 44 46  1  0
 45 43  2  0
 48 49  1  0
 48 23  1  0
 50 48  1  0
 51 52  1  0
 51 56  1  0
 51  1  1  0
 53 52  1  0
 54 53  1  0
 55 53  1  0
 56 57  1  0
 58 69  2  0
 59 57  1  0
 59 64  1  0
 60 68  1  0
 60 70  1  0
 61 67  1  0
 61 63  1  0
 62 68  1  0
 63 64  2  0
 63 62  1  0
 65 59  2  0
 66 65  1  0
 66 61  2  0
 67 60  1  0
 68 58  1  0
 70 72  2  0
 71 70  1  0
 73 71  1  0
 74 83  2  0
 74 79  1  0
 75 71  1  0
 75 79  1  0
 76 75  1  0
 77 78  1  0
 77 76  1  0
 78 74  1  0
 79 80  2  0
 80 81  1  0
 82 81  2  0
 83 82  1  0
 84 58  1  0
 84 85  1  0
 84 94  1  0
 85 88  1  0
 86 90  1  0
 86 85  1  0
 87 86  2  0
 90 89  1  0
 92 90  1  0
 92 93  1  0
 92 91  1  0
 94 97  1  1
 94 95  1  0
 96 94  1  0
M  ISO  4   8 100  20 100  56 101  57 101
M  END
>  <TORSDO>  (55) 
F 23

>  <SCORE>  (55) 
-12.886

>  <name>  (55) 
55

>  <ligand_id>  (55) 
55

>  <original_smiles>  (55) 
[H]C(=C([H])C([H])([H])[N+]1([H])C([H])([H])C([H])([H])N(C(=O)N2C([H])([H])C([H])([H])C([H])([H])C([H])(n3nc(-c4c([H])c([H])c(Oc5c([H])c([H])c(F)c([H])c5F)c([H])c4[H])c(C(=O)N([H])[H])c3N([H])[H])C2([H])[H])C([H])([H])C1([H])[H])C([H])([H])[N+]([H])([H])C([H])(C([H])([H])Oc1c([H])c([H])c2c(c1[H])C([H])([H])N(C(=O)C([H])(N([H])C(=O)C([H])(N([H])C([H])([H])[H])C([H])([H])[H])C(C([H])([H])[H])(C([H])([H])[H])C([H])([H])[H])C([H])(C(=O)N([H])C1([H])c3c([H])c([H])c([H])c([H])c3C([H])([H])C([H])([H])C1([H])[H])C2([H])[H])C([H])([H])N([H])[H]

>  <smiles>  (55) 
[H]C(=C([H])C([H])([H])[N+]1([H])C([H])([H])C([H])([H])N(C(=O)N2C([H])([H])C([H])([H])C([H])([H])C([H])(n3nc(-c4c([H])c([H])c(Oc5c([H])c([H])c(F)c([H])c5F)c([H])c4[H])c(C(=O)N([H])[H])c3N([H])[H])C2([H])[H])C([H])([H])C1([H])[H])C([H])([H])[N+]([H])([H])C([H])(C([H])([H])Oc1c([H])c([H])c2c(c1[H])C([H])([H])N(C(=O)C([H])(N([H])C(=O)C([H])(N([H])C([H])([H])[H])C([H])([H])[H])C(C([H])([H])[H])(C([H])([H])[H])C([H])([H])[H])C([H])(C(=O)N([H])C1([H])c3c([H])c([H])c([H])c([H])c3C([H])([H])C([H])([H])C1([H])[H])C2([H])[H])C([H])([H])N([H])[H]

$$$$
56:0:0
     RDKit          3D

101109  0  0  1  0  0  0  0  0999 V2000
  -29.0060  -20.0570   19.9710 C   0  0  0  0  0  3  0  0  0  0  0  0
  -30.9220  -14.5770   19.4650 C   0  0  0  0  0  0  0  0  0  0  0  0
  -30.4010  -12.4530   18.2950 C   0  0  0  0  0  2  0  0  0  0  0  0
  -29.3070  -12.6650   17.2250 C   0  0  0  0  0  2  0  0  0  0  0  0
  -27.9040  -12.5430   17.8520 C   0  0  0  0  0  2  0  0  0  0  0  0
  -27.7580  -13.3370   19.1780 C   0  0  0  0  0  3  0  0  0  0  0  0
  -28.9560  -13.1130   20.1290 C   0  0  0  0  0  2  0  0  0  0  0  0
  -30.1710  -13.4350   19.3760 N   0  0  0  0  0  0  0  0  0  0  0  0
  -32.0120  -14.6660   18.8890 O   0  0  0  0  0  0  0  0  0  0  0  0
  -31.0790  -16.9490   20.3740 C   0  0  0  0  0  0  0  0  0  0  0  0
  -30.3000  -19.2910   22.9640 C   0  0  0  0  0  2  0  0  0  0  0  0
  -28.9180  -18.9760   22.3580 C   0  0  0  0  0  2  0  0  0  0  0  0
  -31.3310  -18.8850   21.8910 C   0  0  0  0  0  2  0  0  0  0  0  0
  -29.1870  -18.7180   20.8640 C   0  0  0  0  0  3  0  0  0  0  0  0
  -30.5520  -18.1150   20.9040 N   0  0  0  0  0  0  0  0  0  0  0  0
  -30.3730  -15.7890   20.1140 N   0  0  0  0  0  0  0  0  0  0  0  0
  -32.4050  -17.0160   20.1300 N   0  0  0  0  0  4  0  0  0  0  0  0
  -29.4470  -15.7890   20.5080 H   0  0  0  0  0  0  0  0  0  0  0  0
  -32.9380  -17.8690   20.2250 H   0  0  0  0  0  0  0  0  0  0  0  0
  -32.8270  -16.2390   19.6200 H   0  0  0  0  0  0  0  0  0  0  0  0
  -25.5330  -13.9590   20.2940 C   0  0  0  0  0  0  0  0  0  0  0  0
  -24.5030  -13.1950   20.7660 C   0  0  0  0  0  0  0  0  0  0  0  0
  -24.8910  -11.8320   20.5690 C   0  0  0  0  0  0  0  0  0  0  0  0
  -26.4860  -13.0610   19.8380 N   0  0  0  0  0  0  0  0  0  0  0  0
  -26.1170  -11.7740   20.0690 N   0  0  0  0  0  0  0  0  0  0  0  0
  -24.1430  -10.5880   20.7830 C   0  0  0  0  0  0  0  0  0  0  0  0
  -24.5730   -9.6220   21.7210 C   0  0  0  0  0  3  0  0  0  0  0  0
  -23.8320   -8.4360   21.9180 C   0  0  0  0  0  3  0  0  0  0  0  0
  -22.6450   -8.2080   21.1800 C   0  0  0  0  0  0  0  0  0  0  0  0
  -22.2370   -9.1600   20.2280 C   0  0  0  0  0  3  0  0  0  0  0  0
  -22.9780  -10.3370   20.0300 C   0  0  0  0  0  3  0  0  0  0  0  0
  -21.8750   -7.0750   21.2870 O   0  0  0  0  0  0  0  0  0  0  0  0
  -21.6990   -6.4350   22.4880 C   0  0  0  0  0  0  0  0  0  0  0  0
  -21.1390   -7.0910   23.6060 C   0  0  0  0  0  3  0  0  0  0  0  0
  -20.9120   -6.3770   24.7990 C   0  0  0  0  0  3  0  0  0  0  0  0
  -21.2350   -5.0090   24.8740 C   0  0  0  0  0  0  0  0  0  0  0  0
  -21.7850   -4.3520   23.7590 C   0  0  0  0  0  3  0  0  0  0  0  0
  -22.0160   -5.0650   22.5680 C   0  0  0  0  0  0  0  0  0  0  0  0
  -22.5290   -4.4230   21.4910 F   0  0  0  0  0  0  0  0  0  0  0  0
  -21.0060   -4.3200   26.0170 F   0  0  0  0  0  0  0  0  0  0  0  0
  -23.1830  -13.6910   21.2760 C   0  0  0  0  0  0  0  0  0  0  0  0
  -22.5870  -12.9760   22.2210 N   0  0  0  0  0  0  0  0  0  0  0  0
  -22.6960  -14.7460   20.8660 O   0  0  0  0  0  0  0  0  0  0  0  0
  -22.9990  -12.1230   22.5710 H   0  0  0  0  0  0  0  0  0  0  0  0
  -21.6990  -13.2760   22.5950 H   0  0  0  0  0  0  0  0  0  0  0  0
  -25.7320  -15.3350   20.1850 N   0  0  0  0  0  0  0  0  0  0  0  0
  -24.9970  -16.0010   20.3980 H   0  0  0  0  0  0  0  0  0  0  0  0
  -26.4900  -15.7450   19.6590 H   0  0  0  0  0  0  0  0  0  0  0  0
  -29.7630  -19.9160   18.6140 C   0  0  0  0  0  2  0  0  0  0  0  0
  -28.9780  -19.2700   17.5360 N   0  0  0  0  0  4  0  0  0  0  0  0
  -28.5430  -18.4090   17.8120 H   0  0  0  0  0  0  0  0  0  0  0  0
  -29.5850  -19.0680   16.7580 H   0  0  0  0  0  0  0  0  0  0  0  0
  -28.2580  -19.8760   17.1820 H   0  0  0  0  0  0  0  0  0  0  0  0
  -29.2640  -21.5110   20.6080 C   0  0  0  0  0  2  0  0  0  0  0  0
  -28.5980  -22.7240   19.9500 N   0  0  1  0  0  4  0  0  0  0  0  0
  -28.8350  -22.6850   18.9720 H   0  0  0  0  0  0  0  0  0  0  0  0
  -26.3850  -22.6890   18.6940 C   0  0  0  0  0  1  0  0  0  0  0  0
  -27.1030  -22.6880   20.0560 C   0  0  0  0  0  2  0  0  0  0  0  0
  -29.1240  -24.0730   20.4220 C   0  0  0  0  0  2  0  0  0  0  0  0
  -28.9530  -25.2950   19.4290 C   0  0  0  0  0  2  0  0  0  0  0  0
  -28.7340  -26.6150   20.0230 O   0  0  0  0  0  0  0  0  0  0  0  0
  -24.5870  -31.6490   22.9780 C   0  0  0  0  0  0  0  0  0  0  0  0
  -27.5190  -27.2960   19.9480 C   0  0  0  0  0  0  0  0  0  0  0  0
  -23.4930  -30.1870   21.3170 C   0  0  0  0  0  3  0  0  0  0  0  0
  -25.0500  -28.7250   19.9140 C   0  0  0  0  0  0  0  0  0  0  0  0
  -26.0070  -30.6590   21.1700 C   0  0  0  0  0  2  0  0  0  0  0  0
  -26.1730  -29.2910   20.5270 C   0  0  0  0  0  0  0  0  0  0  0  0
  -27.4020  -28.5810   20.5470 C   0  0  0  0  0  3  0  0  0  0  0  0
  -26.3650  -26.7630   19.3220 C   0  0  0  0  0  3  0  0  0  0  0  0
  -25.1430  -27.4610   19.3100 C   0  0  0  0  0  3  0  0  0  0  0  0
  -23.7640  -29.5240   19.9390 C   0  0  0  0  0  2  0  0  0  0  0  0
  -24.7130  -30.8520   21.8780 N   0  0  0  0  0  0  0  0  0  0  0  0
  -23.4820  -31.8620   23.5000 O   0  0  0  0  0  0  0  0  0  0  0  0
  -22.8840  -29.1290   22.2650 C   0  0  0  0  0  0  0  0  0  0  0  0
  -21.5700  -28.8880   22.1250 N   0  0  0  0  0  0  0  0  0  0  0  0
  -23.5890  -28.5260   23.0790 O   0  0  0  0  0  0  0  0  0  0  0  0
  -21.0610  -29.4350   21.4460 H   0  0  0  0  0  0  0  0  0  0  0  0
  -18.2390  -27.5560   22.6180 C   0  0  0  0  0  0  0  0  0  0  0  0
  -20.7900  -27.9020   22.8750 C   0  0  0  0  0  3  0  0  0  0  0  0
  -20.9360  -26.4900   22.2640 C   0  0  0  0  0  2  0  0  0  0  0  0
  -19.8400  -26.1500   21.2510 C   0  0  0  0  0  2  0  0  0  0  0  0
  -18.4610  -26.2300   21.9110 C   0  0  0  0  0  2  0  0  0  0  0  0
  -19.3340  -28.3490   23.0540 C   0  0  0  0  0  0  0  0  0  0  0  0
  -19.0790  -29.5920   23.6770 C   0  0  0  0  0  3  0  0  0  0  0  0
  -17.7600  -30.0440   23.8650 C   0  0  0  0  0  3  0  0  0  0  0  0
  -16.6780  -29.2480   23.4430 C   0  0  0  0  0  3  0  0  0  0  0  0
  -16.9200  -28.0050   22.8310 C   0  0  0  0  0  3  0  0  0  0  0  0
  -25.8200  -32.3520   23.6260 C   0  0  0  0  0  3  0  0  0  0  0  0
  -25.4220  -33.7230   23.9700 N   0  0  0  0  0  0  0  0  0  0  0  0
  -25.6960  -34.8050   23.2270 C   0  0  0  0  0  0  0  0  0  0  0  0
  -26.3820  -34.7560   22.2020 O   0  0  0  0  0  0  0  0  0  0  0  0
  -24.8120  -33.8280   24.7680 H   0  0  0  0  0  0  0  0  0  0  0  0
  -23.8600  -36.4900   22.8830 C   0  0  0  0  0  1  0  0  0  0  0  0
  -25.1220  -36.1550   23.6950 C   0  0  0  0  0  3  0  0  0  0  0  0
  -27.1960  -37.1630   24.5460 C   0  0  0  0  0  1  0  0  0  0  0  0
  -26.0880  -37.2720   23.5990 N   0  0  0  0  0  0  0  0  0  0  0  0
  -25.6250  -38.1640   23.7540 H   0  0  0  0  0  0  0  0  0  0  0  0
  -26.3750  -31.5960   24.8970 C   0  0  1  0  0  0  0  0  0  0  0  0
  -25.2920  -31.2590   25.9490 C   0  0  0  0  0  1  0  0  0  0  0  0
  -27.0640  -30.2730   24.4870 C   0  0  0  0  0  1  0  0  0  0  0  0
  -27.4610  -32.4570   25.5850 C   0  0  0  0  0  1  0  0  0  0  0  0
  1 49  1  0
  1 54  1  0
  2 16  1  0
  3  8  1  0
  4  5  1  0
  4  3  1  0
  6  5  1  0
  6 24  1  0
  6  7  1  0
  8  2  1  0
  8  7  1  0
  9  2  2  0
 10 15  1  0
 12 11  1  0
 13 11  1  0
 14  1  1  0
 14 15  1  0
 14 12  1  0
 15 13  1  0
 16 10  1  0
 16 18  1  0
 17 19  1  0
 17 10  2  0
 20 17  1  0
 21 22  2  0
 22 41  1  0
 23 22  1  0
 23 26  1  0
 24 25  1  0
 24 21  1  0
 25 23  2  0
 26 27  1  0
 27 28  2  0
 29 32  1  0
 29 28  1  0
 30 29  2  0
 31 30  1  0
 31 26  2  0
 32 33  1  0
 33 38  2  0
 33 34  1  0
 34 35  2  0
 35 36  1  0
 36 40  1  0
 37 36  2  0
 38 37  1  0
 39 38  1  0
 41 42  1  0
 42 44  1  0
 42 45  1  0
 43 41  2  0
 46 21  1  0
 46 47  1  0
 48 46  1  0
 50 51  1  0
 50 49  1  0
 52 50  1  0
 53 50  1  0
 55 58  1  0
 55 59  1  0
 55 54  1  0
 55 56  1  6
 57 58  1  0
 60 61  1  0
 60 59  1  0
 62 73  2  0
 63 61  1  0
 63 68  1  0
 64 72  1  0
 64 74  1  0
 65 71  1  0
 65 67  1  0
 66 72  1  0
 67 68  2  0
 67 66  1  0
 69 63  2  0
 70 69  1  0
 70 65  2  0
 71 64  1  0
 72 62  1  0
 74 76  2  0
 75 74  1  0
 77 75  1  0
 78 87  2  0
 78 83  1  0
 79 75  1  0
 79 83  1  0
 80 79  1  0
 81 82  1  0
 81 80  1  0
 82 78  1  0
 83 84  2  0
 84 85  1  0
 86 85  2  0
 87 86  1  0
 88 62  1  0
 88 89  1  0
 88 98  1  0
 89 92  1  0
 90 94  1  0
 90 89  1  0
 91 90  2  0
 94 93  1  0
 96 94  1  0
 96 97  1  0
 96 95  1  0
 98101  1  1
 98 99  1  0
100 98  1  0
M  ISO  4   2 100  16 100  60 101  61 101
M  END
>  <TORSDO>  (56) 
F 23

>  <SCORE>  (56) 
-8.254

>  <name>  (56) 
56

>  <ligand_id>  (56) 
56

>  <original_smiles>  (56) 
[H]c1c([H])c([H])c2c(c1[H])C([H])([H])C([H])([H])C([H])([H])C2([H])N([H])C(=O)C1([H])N(C(=O)C([H])(N([H])C(=O)C([H])(N([H])C([H])([H])[H])C([H])([H])[H])C(C([H])([H])[H])(C([H])([H])[H])C([H])([H])[H])C([H])([H])c2c([H])c(OC([H])([H])C([H])([H])[N+]([H])(C([H])([H])C([H])([H])[H])C([H])([H])C([H])(C3([H])N(C(N([H])C(=O)N4C([H])([H])C([H])([H])C([H])([H])C([H])(n5nc(-c6c([H])c([H])c(Oc7c([H])c([H])c(F)c([H])c7F)c([H])c6[H])c(C(=O)N([H])[H])c5N([H])[H])C4([H])[H])=[N+]([H])[H])C([H])([H])C([H])([H])C3([H])[H])C([H])([H])[N+]([H])([H])[H])c([H])c([H])c2C1([H])[H]

>  <smiles>  (56) 
[H]c1c([H])c([H])c2c(c1[H])C([H])([H])C([H])([H])C([H])([H])C2([H])N([H])C(=O)C1([H])N(C(=O)C([H])(N([H])C(=O)C([H])(N([H])C([H])([H])[H])C([H])([H])[H])C(C([H])([H])[H])(C([H])([H])[H])C([H])([H])[H])C([H])([H])c2c([H])c(OC([H])([H])C([H])([H])[N+]([H])(C([H])([H])C([H])([H])[H])C([H])([H])C([H])(C3([H])N(C(N([H])C(=O)N4C([H])([H])C([H])([H])C([H])([H])C([H])(n5nc(-c6c([H])c([H])c(Oc7c([H])c([H])c(F)c([H])c7F)c([H])c6[H])c(C(=O)N([H])[H])c5N([H])[H])C4([H])[H])=[N+]([H])[H])C([H])([H])C([H])([H])C3([H])[H])C([H])([H])[N+]([H])([H])[H])c([H])c([H])c2C1([H])[H]

$$$$
57:0:0
     RDKit          3D

102110  0  0  1  0  0  0  0  0999 V2000
  -26.5870  -21.9950   17.9700 C   0  0  0  0  0  3  0  0  0  0  0  0
  -26.4660  -20.7920   18.8250 N   0  0  0  0  0  4  0  0  0  0  0  0
  -26.1690  -21.0780   19.7440 H   0  0  0  0  0  0  0  0  0  0  0  0
  -25.7480  -20.2000   18.4380 H   0  0  0  0  0  0  0  0  0  0  0  0
  -27.7030  -19.9910   18.9240 C   0  0  0  0  0  2  0  0  0  0  0  0
  -27.5340  -18.7890   19.8780 C   0  0  0  0  0  2  0  0  0  0  0  0
  -30.9160  -14.4020   20.0580 C   0  0  0  0  0  0  0  0  0  0  0  0
  -30.4940  -12.2660   18.9360 C   0  0  0  0  0  2  0  0  0  0  0  0
  -29.5120  -12.5150   17.7740 C   0  0  0  0  0  2  0  0  0  0  0  0
  -28.0500  -12.4280   18.2640 C   0  0  0  0  0  2  0  0  0  0  0  0
  -27.7850  -13.2310   19.5690 C   0  0  0  0  0  3  0  0  0  0  0  0
  -28.8940  -12.9790   20.6140 C   0  0  0  0  0  2  0  0  0  0  0  0
  -30.1890  -13.2560   19.9740 N   0  0  0  0  0  0  0  0  0  0  0  0
  -32.0770  -14.4830   19.6460 O   0  0  0  0  0  0  0  0  0  0  0  0
  -29.8180  -16.1690   21.3570 C   0  0  0  0  0  2  0  0  0  0  0  0
  -30.4430  -16.5450   19.0760 C   0  0  0  0  0  2  0  0  0  0  0  0
  -28.5660  -17.0440   21.1450 C   0  0  0  0  0  2  0  0  0  0  0  0
  -29.1730  -17.3580   18.8270 C   0  0  0  0  0  2  0  0  0  0  0  0
  -30.1780  -15.5240   20.0960 N   0  0  0  0  0  0  0  0  0  0  0  0
  -28.7720  -18.0280   20.0720 N   0  0  0  0  0  0  0  0  0  0  0  0
  -25.4210  -13.8240   20.4090 C   0  0  0  0  0  0  0  0  0  0  0  0
  -24.3710  -13.0460   20.8170 C   0  0  0  0  0  0  0  0  0  0  0  0
  -24.8250  -11.6960   20.7290 C   0  0  0  0  0  0  0  0  0  0  0  0
  -26.4550  -12.9480   20.1080 N   0  0  0  0  0  0  0  0  0  0  0  0
  -26.1000  -11.6600   20.3570 N   0  0  0  0  0  0  0  0  0  0  0  0
  -24.1010  -10.4330   20.9250 C   0  0  0  0  0  0  0  0  0  0  0  0
  -24.5290   -9.4780   21.8720 C   0  0  0  0  0  3  0  0  0  0  0  0
  -23.8060   -8.2800   22.0570 C   0  0  0  0  0  3  0  0  0  0  0  0
  -22.6420   -8.0280   21.2940 C   0  0  0  0  0  0  0  0  0  0  0  0
  -22.2320   -8.9720   20.3350 C   0  0  0  0  0  3  0  0  0  0  0  0
  -22.9560  -10.1610   20.1500 C   0  0  0  0  0  3  0  0  0  0  0  0
  -21.8920   -6.8790   21.3870 O   0  0  0  0  0  0  0  0  0  0  0  0
  -21.7870   -6.1840   22.5650 C   0  0  0  0  0  0  0  0  0  0  0  0
  -21.2880   -6.7830   23.7410 C   0  0  0  0  0  3  0  0  0  0  0  0
  -21.1290   -6.0140   24.9110 C   0  0  0  0  0  3  0  0  0  0  0  0
  -21.4570   -4.6450   24.9060 C   0  0  0  0  0  0  0  0  0  0  0  0
  -21.9500   -4.0450   23.7340 C   0  0  0  0  0  3  0  0  0  0  0  0
  -22.1120   -4.8120   22.5660 C   0  0  0  0  0  0  0  0  0  0  0  0
  -22.5690   -4.2230   21.4340 F   0  0  0  0  0  0  0  0  0  0  0  0
  -21.2970   -3.9050   26.0280 F   0  0  0  0  0  0  0  0  0  0  0  0
  -22.9920  -13.5240   21.1700 C   0  0  0  0  0  0  0  0  0  0  0  0
  -22.3110  -12.8230   22.0700 N   0  0  0  0  0  0  0  0  0  0  0  0
  -22.5300  -14.5560   20.6850 O   0  0  0  0  0  0  0  0  0  0  0  0
  -22.6960  -11.9860   22.4820 H   0  0  0  0  0  0  0  0  0  0  0  0
  -21.3870  -13.1250   22.3460 H   0  0  0  0  0  0  0  0  0  0  0  0
  -25.5770  -15.1940   20.2550 N   0  0  0  0  0  0  0  0  0  0  0  0
  -24.8320  -15.8470   20.4690 H   0  0  0  0  0  0  0  0  0  0  0  0
  -26.4240  -15.6320   19.9290 H   0  0  0  0  0  0  0  0  0  0  0  0
  -25.3830  -22.1120   17.0090 C   0  0  0  0  0  2  0  0  0  0  0  0
  -24.0290  -22.4660   17.6600 C   0  0  0  0  0  2  0  0  0  0  0  0
  -22.9990  -22.9600   16.6320 C   0  0  0  0  0  2  0  0  0  0  0  0
  -21.6320  -23.2880   17.2630 C   0  0  0  0  0  2  0  0  0  0  0  0
  -20.6990  -23.8800   16.2900 N   0  0  0  0  0  4  0  0  0  0  0  0
  -21.0470  -24.7570   15.9470 H   0  0  0  0  0  0  0  0  0  0  0  0
  -19.8120  -24.0510   16.7280 H   0  0  0  0  0  0  0  0  0  0  0  0
  -20.5480  -23.2650   15.5110 H   0  0  0  0  0  0  0  0  0  0  0  0
  -26.7600  -23.2680   18.8270 C   0  0  0  0  0  2  0  0  0  0  0  0
  -27.9900  -23.2460   19.6150 N   0  0  0  0  0  0  0  0  0  0  0  0
  -27.9370  -22.5100   20.3120 H   0  0  0  0  0  0  0  0  0  0  0  0
  -28.1200  -24.4870   20.3670 C   0  0  0  0  0  2  0  0  0  0  0  0
  -28.6820  -25.6250   19.4980 C   0  0  0  0  0  2  0  0  0  0  0  0
  -28.5280  -26.8580   20.1840 O   0  0  0  0  0  0  0  0  0  0  0  0
  -24.5920  -31.9010   23.2260 C   0  0  0  0  0  0  0  0  0  0  0  0
  -27.3070  -27.4980   20.1680 C   0  0  0  0  0  0  0  0  0  0  0  0
  -23.4090  -30.4930   21.5690 C   0  0  0  0  0  3  0  0  0  0  0  0
  -24.8860  -28.9570   20.1710 C   0  0  0  0  0  0  0  0  0  0  0  0
  -25.9330  -30.8650   21.3990 C   0  0  0  0  0  2  0  0  0  0  0  0
  -26.0300  -29.4920   20.7760 C   0  0  0  0  0  0  0  0  0  0  0  0
  -27.2350  -28.7640   20.7820 C   0  0  0  0  0  3  0  0  0  0  0  0
  -26.1420  -26.9700   19.5580 C   0  0  0  0  0  3  0  0  0  0  0  0
  -24.9350  -27.6900   19.5640 C   0  0  0  0  0  3  0  0  0  0  0  0
  -23.6370  -29.8080   20.1940 C   0  0  0  0  0  2  0  0  0  0  0  0
  -24.6630  -31.0990   22.1250 N   0  0  0  0  0  0  0  0  0  0  0  0
  -23.5040  -32.1720   23.7530 O   0  0  0  0  0  0  0  0  0  0  0  0
  -22.7460  -29.4740   22.5220 C   0  0  0  0  0  0  0  0  0  0  0  0
  -21.4180  -29.3140   22.3950 N   0  0  0  0  0  0  0  0  0  0  0  0
  -23.4220  -28.8290   23.3260 O   0  0  0  0  0  0  0  0  0  0  0  0
  -20.9340  -29.8870   21.7170 H   0  0  0  0  0  0  0  0  0  0  0  0
  -18.0230  -28.1990   22.9170 C   0  0  0  0  0  0  0  0  0  0  0  0
  -20.5890  -28.3840   23.1610 C   0  0  0  0  0  3  0  0  0  0  0  0
  -20.6480  -26.9620   22.5550 C   0  0  0  0  0  2  0  0  0  0  0  0
  -19.5260  -26.6890   21.5480 C   0  0  0  0  0  2  0  0  0  0  0  0
  -18.1550  -26.8590   22.2110 C   0  0  0  0  0  2  0  0  0  0  0  0
  -19.1670  -28.9210   23.3480 C   0  0  0  0  0  0  0  0  0  0  0  0
  -18.9920  -30.1780   23.9650 C   0  0  0  0  0  3  0  0  0  0  0  0
  -17.7050  -30.7150   24.1530 C   0  0  0  0  0  3  0  0  0  0  0  0
  -16.5740  -29.9900   23.7360 C   0  0  0  0  0  3  0  0  0  0  0  0
  -16.7350  -28.7330   23.1270 C   0  0  0  0  0  3  0  0  0  0  0  0
  -25.8700  -32.5290   23.8620 C   0  0  0  0  0  3  0  0  0  0  0  0
  -25.5560  -33.9260   24.1900 N   0  0  0  0  0  0  0  0  0  0  0  0
  -25.8890  -34.9780   23.4300 C   0  0  0  0  0  0  0  0  0  0  0  0
  -26.5640  -34.8760   22.4010 O   0  0  0  0  0  0  0  0  0  0  0  0
  -24.9520  -34.0780   24.9840 H   0  0  0  0  0  0  0  0  0  0  0  0
  -24.1490  -36.7580   23.0680 C   0  0  0  0  0  1  0  0  0  0  0  0
  -25.3930  -36.3650   23.8810 C   0  0  0  0  0  3  0  0  0  0  0  0
  -27.5230  -37.2660   24.7040 C   0  0  0  0  0  1  0  0  0  0  0  0
  -26.4200  -37.4240   23.7600 N   0  0  0  0  0  0  0  0  0  0  0  0
  -26.0090  -38.3420   23.8990 H   0  0  0  0  0  0  0  0  0  0  0  0
  -26.3750  -31.7510   25.1380 C   0  0  1  0  0  0  0  0  0  0  0  0
  -25.2700  -31.4990   26.1900 C   0  0  0  0  0  1  0  0  0  0  0  0
  -26.9670  -30.3790   24.7370 C   0  0  0  0  0  1  0  0  0  0  0  0
  -27.5200  -32.5410   25.8160 C   0  0  0  0  0  1  0  0  0  0  0  0
  1 49  1  0
  1  2  1  0
  1 57  1  0
  2  5  1  0
  2  3  1  0
  4  2  1  0
  5  6  1  0
  6 20  1  0
  7 19  1  0
  8 13  1  0
  9 10  1  0
  9  8  1  0
 11 10  1  0
 11 24  1  0
 11 12  1  0
 13  7  1  0
 13 12  1  0
 14  7  2  0
 16 19  1  0
 17 15  1  0
 18 16  1  0
 18 20  1  0
 19 15  1  0
 20 17  1  0
 21 22  2  0
 22 41  1  0
 23 22  1  0
 23 26  1  0
 24 25  1  0
 24 21  1  0
 25 23  2  0
 26 27  1  0
 27 28  2  0
 29 32  1  0
 29 28  1  0
 30 29  2  0
 31 30  1  0
 31 26  2  0
 32 33  1  0
 33 38  2  0
 33 34  1  0
 34 35  2  0
 36 35  1  0
 36 40  1  0
 37 36  2  0
 38 37  1  0
 39 38  1  0
 41 42  1  0
 42 45  1  0
 42 44  1  0
 43 41  2  0
 46 21  1  0
 46 47  1  0
 48 46  1  0
 49 50  1  0
 51 52  1  0
 51 50  1  0
 53 55  1  0
 53 52  1  0
 54 53  1  0
 56 53  1  0
 57 58  1  0
 58 59  1  0
 58 60  1  0
 61 62  1  0
 61 60  1  0
 63 74  2  0
 64 62  1  0
 64 69  1  0
 65 73  1  0
 65 75  1  0
 66 72  1  0
 66 68  1  0
 67 73  1  0
 68 69  2  0
 68 67  1  0
 70 71  1  0
 70 64  2  0
 71 66  2  0
 72 65  1  0
 73 63  1  0
 75 77  2  0
 76 75  1  0
 78 76  1  0
 79 88  2  0
 79 84  1  0
 80 76  1  0
 80 84  1  0
 81 80  1  0
 82 83  1  0
 82 81  1  0
 83 79  1  0
 84 85  2  0
 85 86  1  0
 87 86  2  0
 88 87  1  0
 89 63  1  0
 89 90  1  0
 89 99  1  0
 90 93  1  0
 91 95  1  0
 91 90  1  0
 92 91  2  0
 95 94  1  0
 97 95  1  0
 97 98  1  0
 97 96  1  0
 99102  1  1
 99100  1  0
101 99  1  0
M  ISO  4   7 100  19 100  61 101  62 101
M  END
>  <TORSDO>  (57) 
F 28

>  <SCORE>  (57) 
-11.268

>  <name>  (57) 
57

>  <ligand_id>  (57) 
57

>  <original_smiles>  (57) 
[H]c1c([H])c([H])c2c(c1[H])C([H])([H])C([H])([H])C([H])([H])C2([H])N([H])C(=O)C1([H])N(C(=O)C([H])(N([H])C(=O)C([H])(N([H])C([H])([H])[H])C([H])([H])[H])C(C([H])([H])[H])(C([H])([H])[H])C([H])([H])[H])C([H])([H])c2c([H])c(OC([H])([H])C([H])([H])N([H])C([H])([H])C([H])(C([H])([H])C([H])([H])C([H])([H])C([H])([H])[N+]([H])([H])[H])[N+]([H])([H])C([H])([H])C([H])([H])N3C([H])([H])C([H])([H])N(C(=O)N4C([H])([H])C([H])([H])C([H])([H])C([H])(n5nc(-c6c([H])c([H])c(Oc7c([H])c([H])c(F)c([H])c7F)c([H])c6[H])c(C(=O)N([H])[H])c5N([H])[H])C4([H])[H])C([H])([H])C3([H])[H])c([H])c([H])c2C1([H])[H]

>  <smiles>  (57) 
[H]c1c([H])c([H])c2c(c1[H])C([H])([H])C([H])([H])C([H])([H])C2([H])N([H])C(=O)C1([H])N(C(=O)C([H])(N([H])C(=O)C([H])(N([H])C([H])([H])[H])C([H])([H])[H])C(C([H])([H])[H])(C([H])([H])[H])C([H])([H])[H])C([H])([H])c2c([H])c(OC([H])([H])C([H])([H])N([H])C([H])([H])C([H])(C([H])([H])C([H])([H])C([H])([H])C([H])([H])[N+]([H])([H])[H])[N+]([H])([H])C([H])([H])C([H])([H])N3C([H])([H])C([H])([H])N(C(=O)N4C([H])([H])C([H])([H])C([H])([H])C([H])(n5nc(-c6c([H])c([H])c(Oc7c([H])c([H])c(F)c([H])c7F)c([H])c6[H])c(C(=O)N([H])[H])c5N([H])[H])C4([H])[H])C([H])([H])C3([H])[H])c([H])c([H])c2C1([H])[H]

$$$$
58:0:0
     RDKit          3D

 97105  0  0  1  0  0  0  0  0999 V2000
  -28.6820  -20.8440   20.8790 C   0  0  0  0  0  2  0  0  0  0  0  0
  -30.2390  -21.0700   18.9200 C   0  0  0  0  0  2  0  0  0  0  0  0
  -28.2360  -22.3350   20.7700 C   0  0  0  0  0  2  0  0  0  0  0  0
  -29.2890  -22.2430   18.5420 C   0  0  0  0  0  2  0  0  0  0  0  0
  -30.1400  -20.6660   20.4150 C   0  0  0  0  0  3  0  0  0  0  0  0
  -28.9670  -23.1030   19.7150 N   0  0  1  0  0  4  0  0  0  0  0  0
  -29.8670  -23.3410   20.1090 H   0  0  0  0  0  0  0  0  0  0  0  0
  -28.3490  -24.4200   19.3480 C   0  0  0  0  0  2  0  0  0  0  0  0
  -28.3000  -25.4330   20.5230 C   0  0  0  0  0  2  0  0  0  0  0  0
  -28.3080  -26.8060   20.1030 O   0  0  0  0  0  0  0  0  0  0  0  0
  -24.5140  -31.9590   23.2430 C   0  0  0  0  0  0  0  0  0  0  0  0
  -27.1210  -27.5010   20.1520 C   0  0  0  0  0  0  0  0  0  0  0  0
  -23.2890  -30.5550   21.6180 C   0  0  0  0  0  3  0  0  0  0  0  0
  -24.7240  -29.0030   20.1900 C   0  0  0  0  0  0  0  0  0  0  0  0
  -25.8120  -30.9080   21.3900 C   0  0  0  0  0  2  0  0  0  0  0  0
  -25.8890  -29.5320   20.7580 C   0  0  0  0  0  0  0  0  0  0  0  0
  -27.0900  -28.7910   20.7320 C   0  0  0  0  0  3  0  0  0  0  0  0
  -25.9360  -26.9770   19.5900 C   0  0  0  0  0  3  0  0  0  0  0  0
  -24.7410  -27.7230   19.6080 C   0  0  0  0  0  3  0  0  0  0  0  0
  -23.4820  -29.8660   20.2410 C   0  0  0  0  0  2  0  0  0  0  0  0
  -24.5580  -31.1550   22.1430 N   0  0  0  0  0  0  0  0  0  0  0  0
  -23.4380  -32.2340   23.7930 O   0  0  0  0  0  0  0  0  0  0  0  0
  -22.6420  -29.5400   22.5860 C   0  0  0  0  0  0  0  0  0  0  0  0
  -21.3160  -29.3550   22.4620 N   0  0  0  0  0  0  0  0  0  0  0  0
  -23.3280  -28.9200   23.4030 O   0  0  0  0  0  0  0  0  0  0  0  0
  -20.8240  -29.9050   21.7720 H   0  0  0  0  0  0  0  0  0  0  0  0
  -17.9440  -28.1650   22.9690 C   0  0  0  0  0  0  0  0  0  0  0  0
  -20.5020  -28.4210   23.2390 C   0  0  0  0  0  3  0  0  0  0  0  0
  -20.6050  -26.9870   22.6690 C   0  0  0  0  0  2  0  0  0  0  0  0
  -19.5010  -26.6600   21.6590 C   0  0  0  0  0  2  0  0  0  0  0  0
  -18.1200  -26.8100   22.3030 C   0  0  0  0  0  2  0  0  0  0  0  0
  -19.0640  -28.9270   23.3950 C   0  0  0  0  0  0  0  0  0  0  0  0
  -18.8470  -30.1960   23.9770 C   0  0  0  0  0  3  0  0  0  0  0  0
  -17.5440  -30.7010   24.1370 C   0  0  0  0  0  3  0  0  0  0  0  0
  -16.4380  -29.9320   23.7320 C   0  0  0  0  0  3  0  0  0  0  0  0
  -16.6390  -28.6670   23.1530 C   0  0  0  0  0  3  0  0  0  0  0  0
  -25.8060  -32.5880   23.8500 C   0  0  0  0  0  3  0  0  0  0  0  0
  -26.3300  -31.8200   25.1250 C   0  0  1  0  0  0  0  0  0  0  0  0
  -25.2450  -31.5900   26.2030 C   0  0  0  0  0  1  0  0  0  0  0  0
  -26.9010  -30.4390   24.7280 C   0  0  0  0  0  1  0  0  0  0  0  0
  -27.4930  -32.6070   25.7720 C   0  0  0  0  0  1  0  0  0  0  0  0
  -25.5070  -33.9890   24.1740 N   0  0  0  0  0  0  0  0  0  0  0  0
  -25.8560  -35.0350   23.4120 C   0  0  0  0  0  0  0  0  0  0  0  0
  -26.5330  -34.9210   22.3860 O   0  0  0  0  0  0  0  0  0  0  0  0
  -24.9060  -34.1550   24.9680 H   0  0  0  0  0  0  0  0  0  0  0  0
  -24.1570  -36.8480   23.0250 C   0  0  0  0  0  1  0  0  0  0  0  0
  -25.3760  -36.4290   23.8600 C   0  0  0  0  0  3  0  0  0  0  0  0
  -27.5060  -37.2860   24.7320 C   0  0  0  0  0  1  0  0  0  0  0  0
  -26.4230  -37.4700   23.7680 N   0  0  0  0  0  0  0  0  0  0  0  0
  -26.0260  -38.3940   23.9120 H   0  0  0  0  0  0  0  0  0  0  0  0
  -30.7650  -19.3740   20.7930 N   0  0  0  0  0  0  0  0  0  0  0  0
  -30.1590  -18.1000   20.3540 C   0  0  0  0  0  2  0  0  0  0  0  0
  -30.5660  -16.9470   21.3300 C   0  0  0  0  0  2  0  0  0  0  0  0
  -30.7520  -14.5920   20.4550 C   0  0  0  0  0  0  0  0  0  0  0  0
  -30.4730  -12.4080   19.3360 C   0  0  0  0  0  2  0  0  0  0  0  0
  -29.5270  -12.5740   18.1300 C   0  0  0  0  0  2  0  0  0  0  0  0
  -28.0540  -12.4360   18.5650 C   0  0  0  0  0  2  0  0  0  0  0  0
  -27.7120  -13.3000   19.8080 C   0  0  0  0  0  3  0  0  0  0  0  0
  -28.7670  -13.1050   20.9190 C   0  0  0  0  0  2  0  0  0  0  0  0
  -30.0860  -13.4100   20.3400 N   0  0  0  0  0  0  0  0  0  0  0  0
  -31.8830  -14.7700   19.9960 O   0  0  0  0  0  0  0  0  0  0  0  0
  -30.0520  -15.6060   21.0000 N   0  0  0  0  0  0  0  0  0  0  0  0
  -29.1140  -15.3900   21.3030 H   0  0  0  0  0  0  0  0  0  0  0  0
  -25.3210  -13.9180   20.5290 C   0  0  0  0  0  0  0  0  0  0  0  0
  -24.2500  -13.1510   20.9000 C   0  0  0  0  0  0  0  0  0  0  0  0
  -24.7030  -11.7970   20.8630 C   0  0  0  0  0  0  0  0  0  0  0  0
  -26.3600  -13.0320   20.2920 N   0  0  0  0  0  0  0  0  0  0  0  0
  -25.9930  -11.7510   20.5510 N   0  0  0  0  0  0  0  0  0  0  0  0
  -23.9700  -10.5380   21.0520 C   0  0  0  0  0  0  0  0  0  0  0  0
  -24.4050   -9.5620   21.9750 C   0  0  0  0  0  3  0  0  0  0  0  0
  -23.6740   -8.3670   22.1510 C   0  0  0  0  0  3  0  0  0  0  0  0
  -22.4950   -8.1410   21.4020 C   0  0  0  0  0  0  0  0  0  0  0  0
  -22.0800   -9.1050   20.4670 C   0  0  0  0  0  3  0  0  0  0  0  0
  -22.8110  -10.2910   20.2890 C   0  0  0  0  0  3  0  0  0  0  0  0
  -21.7340   -7.0000   21.4880 O   0  0  0  0  0  0  0  0  0  0  0  0
  -21.6830   -6.2540   22.6390 C   0  0  0  0  0  0  0  0  0  0  0  0
  -21.2550   -6.8050   23.8660 C   0  0  0  0  0  3  0  0  0  0  0  0
  -21.1510   -5.9850   25.0070 C   0  0  0  0  0  3  0  0  0  0  0  0
  -21.4660   -4.6150   24.9220 C   0  0  0  0  0  0  0  0  0  0  0  0
  -21.8870   -4.0640   23.6990 C   0  0  0  0  0  3  0  0  0  0  0  0
  -21.9930   -4.8800   22.5600 C   0  0  0  0  0  0  0  0  0  0  0  0
  -22.3790   -4.3400   21.3800 F   0  0  0  0  0  0  0  0  0  0  0  0
  -21.3590   -3.8260   26.0160 F   0  0  0  0  0  0  0  0  0  0  0  0
  -22.8560  -13.6340   21.1780 C   0  0  0  0  0  0  0  0  0  0  0  0
  -22.1270  -12.9400   22.0450 N   0  0  0  0  0  0  0  0  0  0  0  0
  -22.4210  -14.6640   20.6610 O   0  0  0  0  0  0  0  0  0  0  0  0
  -22.4910  -12.1070   22.4840 H   0  0  0  0  0  0  0  0  0  0  0  0
  -21.1910  -13.2450   22.2740 H   0  0  0  0  0  0  0  0  0  0  0  0
  -25.4940  -15.2890   20.3540 N   0  0  0  0  0  0  0  0  0  0  0  0
  -24.7310  -15.9470   20.4630 H   0  0  0  0  0  0  0  0  0  0  0  0
  -26.3440  -15.7200   20.0130 H   0  0  0  0  0  0  0  0  0  0  0  0
  -32.2260  -19.4020   20.6050 C   0  0  0  0  0  2  0  0  0  0  0  0
  -32.9400  -19.7910   21.9140 C   0  0  0  0  0  2  0  0  0  0  0  0
  -34.4030  -19.6900   21.7900 N   0  0  0  0  0  4  0  0  0  0  0  0
  -34.6800  -18.7540   21.5560 H   0  0  0  0  0  0  0  0  0  0  0  0
  -34.8390  -19.9340   22.6620 H   0  0  0  0  0  0  0  0  0  0  0  0
  -34.7460  -20.3160   21.0840 H   0  0  0  0  0  0  0  0  0  0  0  0
  2  5  1  0
  3  1  1  0
  4  2  1  0
  4  6  1  0
  5 51  1  0
  5  1  1  0
  6  7  1  1
  6  3  1  0
  8  6  1  0
  8  9  1  0
 10 12  1  0
 10  9  1  0
 11 22  2  0
 12 17  1  0
 13 21  1  0
 13 23  1  0
 14 20  1  0
 14 16  1  0
 15 21  1  0
 16 15  1  0
 17 16  2  0
 18 19  1  0
 18 12  2  0
 19 14  2  0
 20 13  1  0
 21 11  1  0
 23 25  2  0
 24 23  1  0
 26 24  1  0
 27 36  2  0
 27 32  1  0
 28 24  1  0
 28 32  1  0
 29 28  1  0
 30 31  1  0
 30 29  1  0
 31 27  1  0
 32 33  2  0
 33 34  1  0
 35 34  2  0
 36 35  1  0
 37 11  1  0
 37 42  1  0
 37 38  1  0
 38 41  1  1
 38 39  1  0
 40 38  1  0
 42 45  1  0
 43 47  1  0
 43 42  1  0
 44 43  2  0
 47 46  1  0
 49 47  1  0
 49 50  1  0
 49 48  1  0
 52 51  1  0
 52 53  1  0
 54 62  1  0
 55 60  1  0
 56 57  1  0
 56 55  1  0
 58 57  1  0
 58 67  1  0
 58 59  1  0
 60 54  1  0
 60 59  1  0
 61 54  2  0
 62 63  1  0
 62 53  1  0
 64 65  2  0
 65 84  1  0
 66 65  1  0
 66 69  1  0
 67 64  1  0
 67 68  1  0
 68 66  2  0
 69 70  1  0
 70 71  2  0
 72 75  1  0
 72 71  1  0
 73 72  2  0
 74 73  1  0
 74 69  2  0
 75 76  1  0
 76 77  1  0
 77 78  2  0
 79 78  1  0
 79 83  1  0
 80 79  2  0
 81 76  2  0
 81 80  1  0
 82 81  1  0
 84 85  1  0
 85 88  1  0
 85 87  1  0
 86 84  2  0
 89 90  1  0
 89 64  1  0
 91 89  1  0
 92 51  1  0
 92 93  1  0
 94 93  1  0
 94 96  1  0
 95 94  1  0
 97 94  1  0
M  ISO  4   9 101  10 101  54 100  62 100
M  END
>  <TORSDO>  (58) 
F 24

>  <SCORE>  (58) 
-12.952

>  <name>  (58) 
58

>  <ligand_id>  (58) 
58

>  <original_smiles>  (58) 
[H]c1c([H])c([H])c2c(c1[H])C([H])([H])C([H])([H])C([H])([H])C2([H])N([H])C(=O)C1([H])N(C(=O)C([H])(N([H])C(=O)C([H])(N([H])C([H])([H])[H])C([H])([H])[H])C(C([H])([H])[H])(C([H])([H])[H])C([H])([H])[H])C([H])([H])c2c([H])c(OC([H])([H])C([H])([H])[N+]3([H])C([H])([H])C([H])([H])C([H])(N(C([H])([H])C([H])([H])N([H])C(=O)N4C([H])([H])C([H])([H])C([H])([H])C([H])(n5nc(-c6c([H])c([H])c(Oc7c([H])c([H])c(F)c([H])c7F)c([H])c6[H])c(C(=O)N([H])[H])c5N([H])[H])C4([H])[H])C([H])([H])C([H])([H])[N+]([H])([H])[H])C([H])([H])C3([H])[H])c([H])c([H])c2C1([H])[H]

>  <smiles>  (58) 
[H]c1c([H])c([H])c2c(c1[H])C([H])([H])C([H])([H])C([H])([H])C2([H])N([H])C(=O)C1([H])N(C(=O)C([H])(N([H])C(=O)C([H])(N([H])C([H])([H])[H])C([H])([H])[H])C(C([H])([H])[H])(C([H])([H])[H])C([H])([H])[H])C([H])([H])c2c([H])c(OC([H])([H])C([H])([H])[N+]3([H])C([H])([H])C([H])([H])C([H])(N(C([H])([H])C([H])([H])N([H])C(=O)N4C([H])([H])C([H])([H])C([H])([H])C([H])(n5nc(-c6c([H])c([H])c(Oc7c([H])c([H])c(F)c([H])c7F)c([H])c6[H])c(C(=O)N([H])[H])c5N([H])[H])C4([H])[H])C([H])([H])C([H])([H])[N+]([H])([H])[H])C([H])([H])C3([H])[H])c([H])c([H])c2C1([H])[H]

$$$$
59:0:0
     RDKit          3D

 91 99  0  0  1  0  0  0  0  0999 V2000
  -29.1850  -21.3540   19.8220 C   0  0  0  0  0  2  0  0  0  0  0  0
  -30.2100  -21.1200   21.9730 C   0  0  0  0  0  2  0  0  0  0  0  0
  -29.8320  -20.0170   19.3710 C   0  0  0  0  0  2  0  0  0  0  0  0
  -30.8590  -19.7850   21.5420 C   0  0  0  0  0  2  0  0  0  0  0  0
  -30.0210  -22.0340   20.8310 N   0  0  0  0  0  0  0  0  0  0  0  0
  -29.9880  -19.1180   20.5420 N   0  0  2  0  0  4  0  0  0  0  0  0
  -29.0670  -19.0780   20.9530 H   0  0  0  0  0  0  0  0  0  0  0  0
  -29.3670  -23.2400   21.3620 C   0  0  0  0  0  2  0  0  0  0  0  0
  -29.2900  -24.4370   20.3880 C   0  0  0  0  0  2  0  0  0  0  0  0
  -28.4350  -25.5800   20.9810 C   0  0  0  0  0  2  0  0  0  0  0  0
  -28.4410  -26.7450   20.1510 O   0  0  0  0  0  0  0  0  0  0  0  0
  -24.5990  -31.8880   23.2430 C   0  0  0  0  0  0  0  0  0  0  0  0
  -27.2680  -27.4640   20.1770 C   0  0  0  0  0  0  0  0  0  0  0  0
  -23.4000  -30.4810   21.5970 C   0  0  0  0  0  3  0  0  0  0  0  0
  -24.8620  -28.9420   20.1820 C   0  0  0  0  0  0  0  0  0  0  0  0
  -25.9190  -30.8540   21.4020 C   0  0  0  0  0  2  0  0  0  0  0  0
  -26.0150  -29.4790   20.7690 C   0  0  0  0  0  0  0  0  0  0  0  0
  -27.2240  -28.7480   20.7660 C   0  0  0  0  0  3  0  0  0  0  0  0
  -26.0970  -26.9260   19.6050 C   0  0  0  0  0  3  0  0  0  0  0  0
  -24.8930  -27.6570   19.6060 C   0  0  0  0  0  3  0  0  0  0  0  0
  -23.6130  -29.7940   20.2210 C   0  0  0  0  0  2  0  0  0  0  0  0
  -24.6570  -31.0890   22.1390 N   0  0  0  0  0  0  0  0  0  0  0  0
  -23.5170  -32.1530   23.7830 O   0  0  0  0  0  0  0  0  0  0  0  0
  -22.7520  -29.4590   22.5590 C   0  0  0  0  0  0  0  0  0  0  0  0
  -21.4270  -29.2780   22.4310 N   0  0  0  0  0  0  0  0  0  0  0  0
  -23.4360  -28.8330   23.3740 O   0  0  0  0  0  0  0  0  0  0  0  0
  -20.9360  -29.8430   21.7540 H   0  0  0  0  0  0  0  0  0  0  0  0
  -18.0560  -28.0650   22.9050 C   0  0  0  0  0  0  0  0  0  0  0  0
  -20.6090  -28.3380   23.1930 C   0  0  0  0  0  3  0  0  0  0  0  0
  -20.7220  -26.9030   22.6290 C   0  0  0  0  0  2  0  0  0  0  0  0
  -19.6310  -26.5680   21.6070 C   0  0  0  0  0  2  0  0  0  0  0  0
  -18.2430  -26.7120   22.2410 C   0  0  0  0  0  2  0  0  0  0  0  0
  -19.1680  -28.8350   23.3400 C   0  0  0  0  0  0  0  0  0  0  0  0
  -18.9420  -30.1000   23.9230 C   0  0  0  0  0  3  0  0  0  0  0  0
  -17.6350  -30.5990   24.0770 C   0  0  0  0  0  3  0  0  0  0  0  0
  -16.5370  -29.8250   23.6620 C   0  0  0  0  0  3  0  0  0  0  0  0
  -16.7470  -28.5620   23.0790 C   0  0  0  0  0  3  0  0  0  0  0  0
  -25.8840  -32.5250   23.8640 C   0  0  0  0  0  3  0  0  0  0  0  0
  -25.5690  -33.9210   24.1930 N   0  0  0  0  0  0  0  0  0  0  0  0
  -25.9050  -34.9730   23.4330 C   0  0  0  0  0  0  0  0  0  0  0  0
  -26.5810  -34.8670   22.4050 O   0  0  0  0  0  0  0  0  0  0  0  0
  -24.9700  -34.0720   24.9920 H   0  0  0  0  0  0  0  0  0  0  0  0
  -24.1790  -36.7610   23.0670 C   0  0  0  0  0  1  0  0  0  0  0  0
  -25.4160  -36.3590   23.8840 C   0  0  0  0  0  3  0  0  0  0  0  0
  -27.5490  -37.2470   24.7210 C   0  0  0  0  0  1  0  0  0  0  0  0
  -26.4500  -37.4140   23.7750 N   0  0  0  0  0  0  0  0  0  0  0  0
  -26.0410  -38.3330   23.9220 H   0  0  0  0  0  0  0  0  0  0  0  0
  -26.4060  -31.7540   25.1400 C   0  0  1  0  0  0  0  0  0  0  0  0
  -25.3180  -31.5090   26.2120 C   0  0  0  0  0  1  0  0  0  0  0  0
  -26.9980  -30.3810   24.7420 C   0  0  0  0  0  1  0  0  0  0  0  0
  -27.5550  -32.5490   25.8020 C   0  0  0  0  0  1  0  0  0  0  0  0
  -30.3230  -17.7020   20.2120 C   0  0  0  0  0  2  0  0  0  0  0  0
  -30.2440  -16.7710   21.4530 C   0  0  0  0  0  2  0  0  0  0  0  0
  -30.6630  -14.4440   20.4820 C   0  0  0  0  0  0  0  0  0  0  0  0
  -30.3700  -12.3100   19.2780 C   0  0  0  0  0  2  0  0  0  0  0  0
  -29.4190  -12.5300   18.0840 C   0  0  0  0  0  2  0  0  0  0  0  0
  -27.9440  -12.4020   18.5200 C   0  0  0  0  0  2  0  0  0  0  0  0
  -27.6160  -13.2320   19.7910 C   0  0  0  0  0  3  0  0  0  0  0  0
  -28.6710  -12.9560   20.8860 C   0  0  0  0  0  2  0  0  0  0  0  0
  -30.0000  -13.2690   20.3240 N   0  0  0  0  0  0  0  0  0  0  0  0
  -31.7570  -14.6990   19.9720 O   0  0  0  0  0  0  0  0  0  0  0  0
  -29.9590  -15.3660   21.1520 N   0  0  0  0  0  0  0  0  0  0  0  0
  -29.0670  -15.0280   21.4830 H   0  0  0  0  0  0  0  0  0  0  0  0
  -25.2130  -13.8620   20.4910 C   0  0  0  0  0  0  0  0  0  0  0  0
  -24.1410  -13.0970   20.8680 C   0  0  0  0  0  0  0  0  0  0  0  0
  -24.5980  -11.7430   20.8440 C   0  0  0  0  0  0  0  0  0  0  0  0
  -26.2560  -12.9730   20.2670 N   0  0  0  0  0  0  0  0  0  0  0  0
  -25.8860  -11.6950   20.5340 N   0  0  0  0  0  0  0  0  0  0  0  0
  -23.8680  -10.4840   21.0430 C   0  0  0  0  0  0  0  0  0  0  0  0
  -24.3070   -9.5110   21.9700 C   0  0  0  0  0  3  0  0  0  0  0  0
  -23.5780   -8.3170   22.1520 C   0  0  0  0  0  3  0  0  0  0  0  0
  -22.3950   -8.0860   21.4090 C   0  0  0  0  0  0  0  0  0  0  0  0
  -21.9750   -9.0470   20.4730 C   0  0  0  0  0  3  0  0  0  0  0  0
  -22.7070  -10.2330   20.2870 C   0  0  0  0  0  3  0  0  0  0  0  0
  -21.6370   -6.9440   21.5040 O   0  0  0  0  0  0  0  0  0  0  0  0
  -21.6100   -6.1910   22.6510 C   0  0  0  0  0  0  0  0  0  0  0  0
  -21.2270   -6.7410   23.8940 C   0  0  0  0  0  3  0  0  0  0  0  0
  -21.1440   -5.9150   25.0320 C   0  0  0  0  0  3  0  0  0  0  0  0
  -21.4360   -4.5420   24.9320 C   0  0  0  0  0  0  0  0  0  0  0  0
  -21.8150   -3.9930   23.6930 C   0  0  0  0  0  3  0  0  0  0  0  0
  -21.8980   -4.8150   22.5560 C   0  0  0  0  0  0  0  0  0  0  0  0
  -22.2420   -4.2750   21.3620 F   0  0  0  0  0  0  0  0  0  0  0  0
  -21.3500   -3.7470   26.0230 F   0  0  0  0  0  0  0  0  0  0  0  0
  -22.7450  -13.5810   21.1390 C   0  0  0  0  0  0  0  0  0  0  0  0
  -22.0140  -12.8890   22.0090 N   0  0  0  0  0  0  0  0  0  0  0  0
  -22.3080  -14.6060   20.6200 O   0  0  0  0  0  0  0  0  0  0  0  0
  -22.3720  -12.0520   22.4420 H   0  0  0  0  0  0  0  0  0  0  0  0
  -21.0810  -13.1990   22.2380 H   0  0  0  0  0  0  0  0  0  0  0  0
  -25.3860  -15.2290   20.3000 N   0  0  0  0  0  0  0  0  0  0  0  0
  -24.6310  -15.8970   20.4060 H   0  0  0  0  0  0  0  0  0  0  0  0
  -26.2340  -15.6470   19.9360 H   0  0  0  0  0  0  0  0  0  0  0  0
  1  5  1  0
  3  1  1  0
  3  6  1  0
  4  2  1  0
  5  8  1  0
  5  2  1  0
  6  7  1  1
  6  4  1  0
  9 10  1  0
  9  8  1  0
 11 13  1  0
 11 10  1  0
 12 23  2  0
 13 18  1  0
 14 22  1  0
 14 24  1  0
 15 21  1  0
 15 17  1  0
 16 22  1  0
 17 16  1  0
 18 17  2  0
 19 20  1  0
 19 13  2  0
 20 15  2  0
 21 14  1  0
 22 12  1  0
 24 26  2  0
 25 24  1  0
 27 25  1  0
 28 37  2  0
 28 33  1  0
 29 25  1  0
 29 33  1  0
 30 29  1  0
 31 32  1  0
 31 30  1  0
 32 28  1  0
 33 34  2  0
 34 35  1  0
 36 35  2  0
 37 36  1  0
 38 12  1  0
 38 39  1  0
 38 48  1  0
 39 42  1  0
 40 44  1  0
 40 39  1  0
 41 40  2  0
 44 43  1  0
 46 44  1  0
 46 47  1  0
 46 45  1  0
 48 51  1  1
 48 49  1  0
 50 48  1  0
 52  6  1  0
 52 53  1  0
 54 62  1  0
 55 60  1  0
 56 57  1  0
 56 55  1  0
 58 57  1  0
 58 67  1  0
 58 59  1  0
 60 54  1  0
 60 59  1  0
 61 54  2  0
 62 53  1  0
 62 63  1  0
 64 65  2  0
 65 84  1  0
 66 65  1  0
 66 69  1  0
 67 64  1  0
 67 68  1  0
 68 66  2  0
 69 70  1  0
 70 71  2  0
 72 75  1  0
 72 71  1  0
 73 72  2  0
 74 73  1  0
 74 69  2  0
 75 76  1  0
 76 77  1  0
 77 78  2  0
 79 78  1  0
 79 83  1  0
 80 79  2  0
 81 76  2  0
 81 80  1  0
 82 81  1  0
 84 85  1  0
 85 88  1  0
 85 87  1  0
 86 84  2  0
 89 90  1  0
 89 64  1  0
 91 89  1  0
M  ISO  4  10 101  11 101  54 100  62 100
M  END
>  <TORSDO>  (59) 
F 21

>  <SCORE>  (59) 
-13.625

>  <name>  (59) 
59

>  <ligand_id>  (59) 
59

>  <original_smiles>  (59) 
[H]c1c([H])c([H])c2c(c1[H])C([H])([H])C([H])([H])C([H])([H])C2([H])N([H])C(=O)C1([H])N(C(=O)C([H])(N([H])C(=O)C([H])(N([H])C([H])([H])[H])C([H])([H])[H])C(C([H])([H])[H])(C([H])([H])[H])C([H])([H])[H])C([H])([H])c2c([H])c(OC([H])([H])C([H])([H])C([H])([H])N3C([H])([H])C([H])([H])[N+]([H])(C([H])([H])C([H])([H])N([H])C(=O)N4C([H])([H])C([H])([H])C([H])([H])C([H])(n5nc(-c6c([H])c([H])c(Oc7c([H])c([H])c(F)c([H])c7F)c([H])c6[H])c(C(=O)N([H])[H])c5N([H])[H])C4([H])[H])C([H])([H])C3([H])[H])c([H])c([H])c2C1([H])[H]

>  <smiles>  (59) 
[H]c1c([H])c([H])c2c(c1[H])C([H])([H])C([H])([H])C([H])([H])C2([H])N([H])C(=O)C1([H])N(C(=O)C([H])(N([H])C(=O)C([H])(N([H])C([H])([H])[H])C([H])([H])[H])C(C([H])([H])[H])(C([H])([H])[H])C([H])([H])[H])C([H])([H])c2c([H])c(OC([H])([H])C([H])([H])C([H])([H])N3C([H])([H])C([H])([H])[N+]([H])(C([H])([H])C([H])([H])N([H])C(=O)N4C([H])([H])C([H])([H])C([H])([H])C([H])(n5nc(-c6c([H])c([H])c(Oc7c([H])c([H])c(F)c([H])c7F)c([H])c6[H])c(C(=O)N([H])[H])c5N([H])[H])C4([H])[H])C([H])([H])C3([H])[H])c([H])c([H])c2C1([H])[H]

$$$$
60:0:0
     RDKit          3D

108116  0  0  1  0  0  0  0  0999 V2000
  -27.2140  -19.7780   17.3430 C   0  0  0  0  0  2  0  0  0  0  0  0
  -28.5790  -19.2060   17.4690 N   0  0  0  0  0  4  0  0  0  0  0  0
  -29.2920  -19.8720   17.2350 H   0  0  0  0  0  0  0  0  0  0  0  0
  -28.6760  -18.4500   16.8060 H   0  0  0  0  0  0  0  0  0  0  0  0
  -28.8680  -18.6720   18.8200 C   0  0  0  0  0  2  0  0  0  0  0  0
  -30.3100  -18.9830   19.2870 C   0  0  0  0  0  2  0  0  0  0  0  0
  -30.5730  -18.3820   20.6010 N   0  0  0  0  0  0  0  0  0  0  0  0
  -31.0350  -17.0110   20.3990 C   0  0  0  0  0  2  0  0  0  0  0  0
  -31.0480  -16.1900   21.7080 C   0  0  0  0  0  2  0  0  0  0  0  0
  -31.1150  -13.9720   20.5860 C   0  0  0  0  0  0  0  0  0  0  0  0
  -30.6320  -12.0480   19.1340 C   0  0  0  0  0  2  0  0  0  0  0  0
  -29.6880  -12.4680   17.9910 C   0  0  0  0  0  2  0  0  0  0  0  0
  -28.2160  -12.3590   18.4330 C   0  0  0  0  0  2  0  0  0  0  0  0
  -27.9480  -13.0550   19.7950 C   0  0  0  0  0  3  0  0  0  0  0  0
  -28.9990  -12.6230   20.8450 C   0  0  0  0  0  2  0  0  0  0  0  0
  -30.3420  -12.8960   20.2980 N   0  0  0  0  0  0  0  0  0  0  0  0
  -32.1820  -14.2140   20.0150 O   0  0  0  0  0  0  0  0  0  0  0  0
  -30.5920  -14.8250   21.4730 N   0  0  0  0  0  0  0  0  0  0  0  0
  -29.7280  -14.5440   21.9140 H   0  0  0  0  0  0  0  0  0  0  0  0
  -25.5360  -13.6910   20.4380 C   0  0  0  0  0  0  0  0  0  0  0  0
  -24.4640  -12.9330   20.8250 C   0  0  0  0  0  0  0  0  0  0  0  0
  -24.9270  -11.5820   20.8570 C   0  0  0  0  0  0  0  0  0  0  0  0
  -26.5860  -12.8030   20.2620 N   0  0  0  0  0  0  0  0  0  0  0  0
  -26.2210  -11.5310   20.5680 N   0  0  0  0  0  0  0  0  0  0  0  0
  -24.2010  -10.3270   21.0930 C   0  0  0  0  0  0  0  0  0  0  0  0
  -24.6010   -9.4210   22.1000 C   0  0  0  0  0  3  0  0  0  0  0  0
  -23.8760   -8.2300   22.3180 C   0  0  0  0  0  3  0  0  0  0  0  0
  -22.7390   -7.9350   21.5300 C   0  0  0  0  0  0  0  0  0  0  0  0
  -22.3580   -8.8310   20.5150 C   0  0  0  0  0  3  0  0  0  0  0  0
  -23.0830  -10.0130   20.2940 C   0  0  0  0  0  3  0  0  0  0  0  0
  -21.9900   -6.7910   21.6540 O   0  0  0  0  0  0  0  0  0  0  0  0
  -21.8900   -6.1210   22.8470 C   0  0  0  0  0  0  0  0  0  0  0  0
  -21.3540   -6.7310   24.0020 C   0  0  0  0  0  3  0  0  0  0  0  0
  -21.2060   -5.9850   25.1890 C   0  0  0  0  0  3  0  0  0  0  0  0
  -21.5840   -4.6290   25.2200 C   0  0  0  0  0  0  0  0  0  0  0  0
  -22.1130   -4.0190   24.0700 C   0  0  0  0  0  3  0  0  0  0  0  0
  -22.2630   -4.7620   22.8850 C   0  0  0  0  0  0  0  0  0  0  0  0
  -22.7540   -4.1630   21.7740 F   0  0  0  0  0  0  0  0  0  0  0  0
  -21.4350   -3.9100   26.3570 F   0  0  0  0  0  0  0  0  0  0  0  0
  -23.0620  -13.4180   21.0600 C   0  0  0  0  0  0  0  0  0  0  0  0
  -22.3260  -12.7590   21.9490 N   0  0  0  0  0  0  0  0  0  0  0  0
  -22.6270  -14.4180   20.4920 O   0  0  0  0  0  0  0  0  0  0  0  0
  -22.6900  -11.9510   22.4320 H   0  0  0  0  0  0  0  0  0  0  0  0
  -21.3860  -13.0680   22.1500 H   0  0  0  0  0  0  0  0  0  0  0  0
  -25.7020  -15.0530   20.2060 N   0  0  0  0  0  0  0  0  0  0  0  0
  -24.9360  -15.7130   20.2840 H   0  0  0  0  0  0  0  0  0  0  0  0
  -26.5660  -15.4810   19.9000 H   0  0  0  0  0  0  0  0  0  0  0  0
  -31.5870  -19.1410   21.3390 C   0  0  0  0  0  2  0  0  0  0  0  0
  -30.9240  -20.1810   22.2590 C   0  0  0  0  0  2  0  0  0  0  0  0
  -31.8990  -20.7160   23.3230 C   0  0  0  0  0  2  0  0  0  0  0  0
  -31.2410  -21.6170   24.3860 C   0  0  0  0  0  2  0  0  0  0  0  0
  -30.3430  -20.8740   25.2890 N   0  0  0  0  0  4  0  0  0  0  0  0
  -29.5690  -20.4730   24.7930 H   0  0  0  0  0  0  0  0  0  0  0  0
  -29.9760  -21.4950   25.9890 H   0  0  0  0  0  0  0  0  0  0  0  0
  -30.8410  -20.1410   25.7620 H   0  0  0  0  0  0  0  0  0  0  0  0
  -27.0630  -20.8900   16.2760 C   0  0  0  0  0  2  0  0  0  0  0  0
  -27.9960  -22.1310   16.3680 C   0  0  0  0  0  2  0  0  0  0  0  0
  -30.1050  -23.5640   19.0300 C   0  0  0  0  0  2  0  0  0  0  0  0
  -29.3630  -23.1340   20.3120 C   0  0  0  0  0  2  0  0  0  0  0  0
  -26.9630  -23.1240   19.8910 C   0  0  0  0  0  2  0  0  0  0  0  0
  -29.2310  -23.7630   17.7780 C   0  0  0  0  0  2  0  0  0  0  0  0
  -26.8940  -23.2530   18.3500 C   0  0  0  0  0  2  0  0  0  0  0  0
  -28.1000  -23.8630   20.4590 N   0  0  0  0  0  0  0  0  0  0  0  0
  -28.1430  -22.7530   17.7170 N   0  0  1  0  0  4  0  0  0  0  0  0
  -28.4730  -22.0500   18.3520 H   0  0  0  0  0  0  0  0  0  0  0  0
  -27.8620  -24.2290   21.8600 C   0  0  0  0  0  2  0  0  0  0  0  0
  -28.6400  -25.5140   22.2230 C   0  0  0  0  0  2  0  0  0  0  0  0
  -28.6700  -26.4330   21.1310 O   0  0  0  0  0  0  0  0  0  0  0  0
  -24.6750  -31.8530   23.3530 C   0  0  0  0  0  0  0  0  0  0  0  0
  -27.5160  -27.1490   20.9750 C   0  0  0  0  0  0  0  0  0  0  0  0
  -23.5980  -30.3090   21.7450 C   0  0  0  0  0  3  0  0  0  0  0  0
  -25.1490  -28.6320   20.6180 C   0  0  0  0  0  0  0  0  0  0  0  0
  -26.1330  -30.6350   21.7480 C   0  0  0  0  0  2  0  0  0  0  0  0
  -26.2520  -29.2100   21.2620 C   0  0  0  0  0  0  0  0  0  0  0  0
  -27.4380  -28.4740   21.4450 C   0  0  0  0  0  3  0  0  0  0  0  0
  -26.4090  -26.5790   20.3140 C   0  0  0  0  0  3  0  0  0  0  0  0
  -25.2200  -27.3110   20.1430 C   0  0  0  0  0  3  0  0  0  0  0  0
  -23.9190  -29.4960   20.4620 C   0  0  0  0  0  2  0  0  0  0  0  0
  -24.8140  -30.9520   22.3410 N   0  0  0  0  0  0  0  0  0  0  0  0
  -23.5550  -32.1870   23.7620 O   0  0  0  0  0  0  0  0  0  0  0  0
  -22.8460  -29.3900   22.7340 C   0  0  0  0  0  0  0  0  0  0  0  0
  -21.5290  -29.2380   22.5220 N   0  0  0  0  0  0  0  0  0  0  0  0
  -23.4470  -28.8130   23.6440 O   0  0  0  0  0  0  0  0  0  0  0  0
  -21.1100  -29.7540   21.7610 H   0  0  0  0  0  0  0  0  0  0  0  0
  -18.0710  -28.2740   22.9140 C   0  0  0  0  0  0  0  0  0  0  0  0
  -20.6230  -28.3950   23.3020 C   0  0  0  0  0  3  0  0  0  0  0  0
  -20.6660  -26.9310   22.8090 C   0  0  0  0  0  2  0  0  0  0  0  0
  -19.5940  -26.6160   21.7600 C   0  0  0  0  0  2  0  0  0  0  0  0
  -18.1950  -26.8790   22.3250 C   0  0  0  0  0  2  0  0  0  0  0  0
  -19.2130  -28.9920   23.3580 C   0  0  0  0  0  0  0  0  0  0  0  0
  -19.0460  -30.3010   23.8630 C   0  0  0  0  0  3  0  0  0  0  0  0
  -17.7690  -30.8880   23.9340 C   0  0  0  0  0  3  0  0  0  0  0  0
  -16.6400  -30.1660   23.5090 C   0  0  0  0  0  3  0  0  0  0  0  0
  -16.7910  -28.8610   23.0050 C   0  0  0  0  0  3  0  0  0  0  0  0
  -25.9140  -32.5270   24.0260 C   0  0  0  0  0  3  0  0  0  0  0  0
  -25.5790  -33.9370   24.2550 N   0  0  0  0  0  0  0  0  0  0  0  0
  -25.9360  -34.9440   23.4460 C   0  0  0  0  0  0  0  0  0  0  0  0
  -26.6530  -34.7840   22.4540 O   0  0  0  0  0  0  0  0  0  0  0  0
  -24.9510  -34.1360   25.0190 H   0  0  0  0  0  0  0  0  0  0  0  0
  -24.2010  -36.6820   22.9060 C   0  0  0  0  0  1  0  0  0  0  0  0
  -25.4140  -36.3510   23.7920 C   0  0  0  0  0  3  0  0  0  0  0  0
  -27.4990  -37.3210   24.6510 C   0  0  0  0  0  1  0  0  0  0  0  0
  -26.4380  -37.4100   23.6510 N   0  0  0  0  0  0  0  0  0  0  0  0
  -26.0140  -38.3310   23.7170 H   0  0  0  0  0  0  0  0  0  0  0  0
  -26.3460  -31.8270   25.3720 C   0  0  1  0  0  0  0  0  0  0  0  0
  -25.1780  -31.6090   26.3620 C   0  0  0  0  0  1  0  0  0  0  0  0
  -26.9900  -30.4490   25.0880 C   0  0  0  0  0  1  0  0  0  0  0  0
  -27.4210  -32.6800   26.0840 C   0  0  0  0  0  1  0  0  0  0  0  0
  1  2  1  0
  2  5  1  0
  3  2  1  0
  4  2  1  0
  5  6  1  0
  6  7  1  0
  7 48  1  0
  8  7  1  0
  8  9  1  0
 10 18  1  0
 11 16  1  0
 12 13  1  0
 12 11  1  0
 14 13  1  0
 14 23  1  0
 14 15  1  0
 16 10  1  0
 16 15  1  0
 17 10  2  0
 18  9  1  0
 18 19  1  0
 20 21  2  0
 21 22  1  0
 21 40  1  0
 22 25  1  0
 23 20  1  0
 23 24  1  0
 24 22  2  0
 25 26  1  0
 26 27  2  0
 28 31  1  0
 28 27  1  0
 29 28  2  0
 30 29  1  0
 30 25  2  0
 31 32  1  0
 32 37  2  0
 32 33  1  0
 33 34  2  0
 34 35  1  0
 35 39  1  0
 36 35  2  0
 37 36  1  0
 38 37  1  0
 40 41  1  0
 41 44  1  0
 41 43  1  0
 42 40  2  0
 45 46  1  0
 45 20  1  0
 47 45  1  0
 48 49  1  0
 49 50  1  0
 50 51  1  0
 51 52  1  0
 52 55  1  0
 52 54  1  0
 53 52  1  0
 56 57  1  0
 56  1  1  0
 57 64  1  0
 58 59  1  0
 59 63  1  0
 60 63  1  0
 61 58  1  0
 62 60  1  0
 63 66  1  0
 64 61  1  0
 64 62  1  0
 64 65  1  1
 66 67  1  0
 68 67  1  0
 69 80  2  0
 70 68  1  0
 70 75  1  0
 71 79  1  0
 71 81  1  0
 72 74  1  0
 73 79  1  0
 74 75  2  0
 74 73  1  0
 76 70  2  0
 77 76  1  0
 77 72  2  0
 78 72  1  0
 78 71  1  0
 79 69  1  0
 81 83  2  0
 82 81  1  0
 84 82  1  0
 85 94  2  0
 85 90  1  0
 86 82  1  0
 86 90  1  0
 87 86  1  0
 88 89  1  0
 88 87  1  0
 89 85  1  0
 90 91  2  0
 91 92  1  0
 93 92  2  0
 94 93  1  0
 95 69  1  0
 95 96  1  0
 95105  1  0
 96 99  1  0
 97101  1  0
 97 96  1  0
 98 97  2  0
101100  1  0
103104  1  0
103101  1  0
103102  1  0
105108  1  1
105106  1  0
107105  1  0
M  ISO  4  10 100  18 100  67 101  68 101
M  END
>  <TORSDO>  (60) 
F 32

>  <SCORE>  (60) 
-8.298

>  <name>  (60) 
60

>  <ligand_id>  (60) 
60

>  <original_smiles>  (60) 
[H]c1c([H])c([H])c2c(c1[H])C([H])([H])C([H])([H])C([H])([H])C2([H])N([H])C(=O)C1([H])N(C(=O)C([H])(N([H])C(=O)C([H])(N([H])C([H])([H])[H])C([H])([H])[H])C(C([H])([H])[H])(C([H])([H])[H])C([H])([H])[H])C([H])([H])c2c([H])c(OC([H])([H])C([H])([H])N3C([H])([H])C([H])([H])C([H])([H])[N+]([H])(C([H])([H])C([H])([H])C([H])([H])[N+]([H])([H])C([H])([H])C([H])([H])N(C([H])([H])C([H])([H])N([H])C(=O)N4C([H])([H])C([H])([H])C([H])([H])C([H])(n5nc(-c6c([H])c([H])c(Oc7c([H])c([H])c(F)c([H])c7F)c([H])c6[H])c(C(=O)N([H])[H])c5N([H])[H])C4([H])[H])C([H])([H])C([H])([H])C([H])([H])C([H])([H])[N+]([H])([H])[H])C([H])([H])C3([H])[H])c([H])c([H])c2C1([H])[H]

>  <smiles>  (60) 
[H]c1c([H])c([H])c2c(c1[H])C([H])([H])C([H])([H])C([H])([H])C2([H])N([H])C(=O)C1([H])N(C(=O)C([H])(N([H])C(=O)C([H])(N([H])C([H])([H])[H])C([H])([H])[H])C(C([H])([H])[H])(C([H])([H])[H])C([H])([H])[H])C([H])([H])c2c([H])c(OC([H])([H])C([H])([H])N3C([H])([H])C([H])([H])C([H])([H])[N+]([H])(C([H])([H])C([H])([H])C([H])([H])[N+]([H])([H])C([H])([H])C([H])([H])N(C([H])([H])C([H])([H])N([H])C(=O)N4C([H])([H])C([H])([H])C([H])([H])C([H])(n5nc(-c6c([H])c([H])c(Oc7c([H])c([H])c(F)c([H])c7F)c([H])c6[H])c(C(=O)N([H])[H])c5N([H])[H])C4([H])[H])C([H])([H])C([H])([H])C([H])([H])C([H])([H])[N+]([H])([H])[H])C([H])([H])C3([H])[H])c([H])c([H])c2C1([H])[H]

$$$$
61:0:0
     RDKit          3D

102110  0  0  1  0  0  0  0  0999 V2000
  -30.9510  -19.3910   20.4210 C   0  0  0  0  0  3  0  0  0  0  0  0
  -28.2690  -22.0670   21.3390 C   0  0  0  0  0  2  0  0  0  0  0  0
  -29.7740  -23.0370   19.8030 C   0  0  0  0  0  2  0  0  0  0  0  0
  -29.2170  -20.8490   21.5270 C   0  0  0  0  0  2  0  0  0  0  0  0
  -30.6870  -21.7850   19.9130 C   0  0  0  0  0  2  0  0  0  0  0  0
  -29.0170  -23.2960   21.0360 N   0  0  0  0  0  0  0  0  0  0  0  0
  -29.9850  -20.5330   20.3030 N   0  0  0  0  0  0  0  0  0  0  0  0
  -28.1460  -24.4900   20.9240 C   0  0  0  0  0  2  0  0  0  0  0  0
  -28.8650  -25.8710   21.0380 C   0  0  0  0  0  2  0  0  0  0  0  0
  -28.5430  -26.8210   20.0150 O   0  0  0  0  0  0  0  0  0  0  0  0
  -24.6310  -31.8920   23.2290 C   0  0  0  0  0  0  0  0  0  0  0  0
  -27.3590  -27.5150   20.1290 C   0  0  0  0  0  0  0  0  0  0  0  0
  -23.4540  -30.4870   21.5680 C   0  0  0  0  0  3  0  0  0  0  0  0
  -24.9410  -28.9780   20.1440 C   0  0  0  0  0  0  0  0  0  0  0  0
  -25.9740  -30.8830   21.3860 C   0  0  0  0  0  2  0  0  0  0  0  0
  -26.0850  -29.5150   20.7470 C   0  0  0  0  0  0  0  0  0  0  0  0
  -27.3000  -28.7870   20.7420 C   0  0  0  0  0  3  0  0  0  0  0  0
  -26.2020  -26.9910   19.5220 C   0  0  0  0  0  3  0  0  0  0  0  0
  -24.9920  -27.7130   19.5320 C   0  0  0  0  0  3  0  0  0  0  0  0
  -23.6820  -29.8160   20.1870 C   0  0  0  0  0  2  0  0  0  0  0  0
  -24.7040  -31.1050   22.1190 N   0  0  0  0  0  0  0  0  0  0  0  0
  -23.5440  -32.1430   23.7670 O   0  0  0  0  0  0  0  0  0  0  0  0
  -22.8130  -29.4480   22.5170 C   0  0  0  0  0  0  0  0  0  0  0  0
  -21.4920  -29.2530   22.3840 N   0  0  0  0  0  0  0  0  0  0  0  0
  -23.5020  -28.8200   23.3260 O   0  0  0  0  0  0  0  0  0  0  0  0
  -20.9980  -29.8110   21.7020 H   0  0  0  0  0  0  0  0  0  0  0  0
  -18.1240  -28.0500   22.8930 C   0  0  0  0  0  0  0  0  0  0  0  0
  -20.6850  -28.2970   23.1400 C   0  0  0  0  0  3  0  0  0  0  0  0
  -20.7800  -26.8820   22.5270 C   0  0  0  0  0  2  0  0  0  0  0  0
  -19.6670  -26.5880   21.5160 C   0  0  0  0  0  2  0  0  0  0  0  0
  -18.2910  -26.7200   22.1760 C   0  0  0  0  0  2  0  0  0  0  0  0
  -19.2490  -28.7990   23.3290 C   0  0  0  0  0  0  0  0  0  0  0  0
  -19.0410  -30.0470   23.9560 C   0  0  0  0  0  3  0  0  0  0  0  0
  -17.7400  -30.5480   24.1490 C   0  0  0  0  0  3  0  0  0  0  0  0
  -16.6290  -29.7950   23.7320 C   0  0  0  0  0  3  0  0  0  0  0  0
  -16.8220  -28.5490   23.1100 C   0  0  0  0  0  3  0  0  0  0  0  0
  -25.9060  -32.5380   23.8610 C   0  0  0  0  0  3  0  0  0  0  0  0
  -26.4170  -31.7730   25.1430 C   0  0  1  0  0  0  0  0  0  0  0  0
  -25.3120  -31.5170   26.1950 C   0  0  0  0  0  1  0  0  0  0  0  0
  -27.0250  -30.4060   24.7530 C   0  0  0  0  0  1  0  0  0  0  0  0
  -27.5490  -32.5830   25.8170 C   0  0  0  0  0  1  0  0  0  0  0  0
  -25.5810  -33.9330   24.1840 N   0  0  0  0  0  0  0  0  0  0  0  0
  -25.9210  -34.9860   23.4280 C   0  0  0  0  0  0  0  0  0  0  0  0
  -26.6110  -34.8840   22.4100 O   0  0  0  0  0  0  0  0  0  0  0  0
  -24.9750  -34.0870   24.9760 H   0  0  0  0  0  0  0  0  0  0  0  0
  -24.1950  -36.7710   23.0260 C   0  0  0  0  0  1  0  0  0  0  0  0
  -25.4140  -36.3710   23.8730 C   0  0  0  0  0  3  0  0  0  0  0  0
  -27.5160  -37.2620   24.7720 C   0  0  0  0  0  1  0  0  0  0  0  0
  -26.4440  -37.4290   23.7940 N   0  0  0  0  0  0  0  0  0  0  0  0
  -26.0290  -38.3460   23.9320 H   0  0  0  0  0  0  0  0  0  0  0  0
  -31.6890  -19.0930   19.0790 C   0  0  0  0  0  2  0  0  0  0  0  0
  -30.8210  -19.2570   17.8040 C   0  0  0  0  0  2  0  0  0  0  0  0
  -31.4990  -18.7460   16.5200 C   0  0  0  0  0  2  0  0  0  0  0  0
  -30.7420  -19.1720   15.2440 C   0  0  0  0  0  2  0  0  0  0  0  0
  -29.4740  -18.4400   15.0690 N   0  0  0  0  0  4  0  0  0  0  0  0
  -29.6370  -17.4500   15.0320 H   0  0  0  0  0  0  0  0  0  0  0  0
  -29.0390  -18.7100   14.2050 H   0  0  0  0  0  0  0  0  0  0  0  0
  -28.8340  -18.6440   15.8160 H   0  0  0  0  0  0  0  0  0  0  0  0
  -30.5000  -18.0400   21.1400 C   0  0  0  0  0  3  0  0  0  0  0  0
  -31.6020  -17.5080   21.9630 N   0  0  0  0  0  4  0  0  0  0  0  0
  -32.2120  -16.9320   21.4080 H   0  0  0  0  0  0  0  0  0  0  0  0
  -31.2300  -16.9470   22.7090 H   0  0  0  0  0  0  0  0  0  0  0  0
  -32.1370  -18.2550   22.3680 H   0  0  0  0  0  0  0  0  0  0  0  0
  -29.9060  -16.9150   20.2400 C   0  0  0  0  0  2  0  0  0  0  0  0
  -30.6360  -14.5440   20.4600 C   0  0  0  0  0  0  0  0  0  0  0  0
  -30.3770  -12.3900   19.3090 C   0  0  0  0  0  2  0  0  0  0  0  0
  -29.4220  -12.6130   18.1160 C   0  0  0  0  0  2  0  0  0  0  0  0
  -27.9520  -12.4540   18.5540 C   0  0  0  0  0  2  0  0  0  0  0  0
  -27.6210  -13.2770   19.8260 C   0  0  0  0  0  3  0  0  0  0  0  0
  -28.6800  -13.0350   20.9270 C   0  0  0  0  0  2  0  0  0  0  0  0
  -30.0020  -13.3460   20.3590 N   0  0  0  0  0  0  0  0  0  0  0  0
  -31.7690  -14.7580   20.0230 O   0  0  0  0  0  0  0  0  0  0  0  0
  -29.8410  -15.5640   20.8340 N   0  0  0  0  0  0  0  0  0  0  0  0
  -28.9410  -15.2890   21.1970 H   0  0  0  0  0  0  0  0  0  0  0  0
  -25.2280  -13.8850   20.5520 C   0  0  0  0  0  0  0  0  0  0  0  0
  -24.1610  -13.1080   20.9200 C   0  0  0  0  0  0  0  0  0  0  0  0
  -24.6210  -11.7570   20.8700 C   0  0  0  0  0  0  0  0  0  0  0  0
  -26.2690  -13.0030   20.3070 N   0  0  0  0  0  0  0  0  0  0  0  0
  -25.9090  -11.7200   20.5530 N   0  0  0  0  0  0  0  0  0  0  0  0
  -23.8980  -10.4930   21.0500 C   0  0  0  0  0  0  0  0  0  0  0  0
  -24.3250   -9.5280   21.9890 C   0  0  0  0  0  3  0  0  0  0  0  0
  -23.6050   -8.3250   22.1560 C   0  0  0  0  0  3  0  0  0  0  0  0
  -22.4440   -8.0830   21.3850 C   0  0  0  0  0  0  0  0  0  0  0  0
  -22.0360   -9.0360   20.4360 C   0  0  0  0  0  3  0  0  0  0  0  0
  -22.7570  -10.2290   20.2680 C   0  0  0  0  0  3  0  0  0  0  0  0
  -21.6930   -6.9340   21.4630 O   0  0  0  0  0  0  0  0  0  0  0  0
  -21.6160   -6.2020   22.6190 C   0  0  0  0  0  0  0  0  0  0  0  0
  -21.1360   -6.7610   23.8250 C   0  0  0  0  0  3  0  0  0  0  0  0
  -21.0070   -5.9550   24.9720 C   0  0  0  0  0  3  0  0  0  0  0  0
  -21.3470   -4.5890   24.9160 C   0  0  0  0  0  0  0  0  0  0  0  0
  -21.8190   -4.0300   23.7170 C   0  0  0  0  0  3  0  0  0  0  0  0
  -21.9500   -4.8340   22.5710 C   0  0  0  0  0  0  0  0  0  0  0  0
  -22.3860   -4.2850   21.4110 F   0  0  0  0  0  0  0  0  0  0  0  0
  -21.2170   -3.8120   26.0170 F   0  0  0  0  0  0  0  0  0  0  0  0
  -22.7660  -13.5820   21.2110 C   0  0  0  0  0  0  0  0  0  0  0  0
  -22.0410  -12.8650   22.0630 N   0  0  0  0  0  0  0  0  0  0  0  0
  -22.3270  -14.6200   20.7170 O   0  0  0  0  0  0  0  0  0  0  0  0
  -22.4110  -12.0240   22.4800 H   0  0  0  0  0  0  0  0  0  0  0  0
  -21.1040  -13.1600   22.3010 H   0  0  0  0  0  0  0  0  0  0  0  0
  -25.3930  -15.2570   20.3940 N   0  0  0  0  0  0  0  0  0  0  0  0
  -24.6290  -15.9100   20.5260 H   0  0  0  0  0  0  0  0  0  0  0  0
  -26.2430  -15.7010   20.0700 H   0  0  0  0  0  0  0  0  0  0  0  0
  1 51  1  0
  1 59  1  0
  2  4  1  0
  3  5  1  0
  3  6  1  0
  5  7  1  0
  6  2  1  0
  7  1  1  0
  7  4  1  0
  8  6  1  0
  8  9  1  0
 10 12  1  0
 10  9  1  0
 11 22  2  0
 12 17  1  0
 13 21  1  0
 13 23  1  0
 14 20  1  0
 14 16  1  0
 15 21  1  0
 16 15  1  0
 17 16  2  0
 18 19  1  0
 18 12  2  0
 19 14  2  0
 20 13  1  0
 21 11  1  0
 23 25  2  0
 24 23  1  0
 26 24  1  0
 27 36  2  0
 27 32  1  0
 28 24  1  0
 28 32  1  0
 29 28  1  0
 30 31  1  0
 30 29  1  0
 31 27  1  0
 32 33  2  0
 33 34  1  0
 35 34  2  0
 36 35  1  0
 37 11  1  0
 37 42  1  0
 37 38  1  0
 38 41  1  1
 38 39  1  0
 40 38  1  0
 42 45  1  0
 43 47  1  0
 43 42  1  0
 44 43  2  0
 47 46  1  0
 49 47  1  0
 49 50  1  0
 49 48  1  0
 52 51  1  0
 53 52  1  0
 54 53  1  0
 55 54  1  0
 55 58  1  0
 56 55  1  0
 57 55  1  0
 59 64  1  0
 59 60  1  0
 60 63  1  0
 60 62  1  0
 61 60  1  0
 64 73  1  0
 65 73  1  0
 66 71  1  0
 67 68  1  0
 67 66  1  0
 69 68  1  0
 69 78  1  0
 69 70  1  0
 71 65  1  0
 71 70  1  0
 72 65  2  0
 73 74  1  0
 75 76  2  0
 76 95  1  0
 77 76  1  0
 77 80  1  0
 78 75  1  0
 78 79  1  0
 79 77  2  0
 80 81  1  0
 81 82  2  0
 83 86  1  0
 83 82  1  0
 84 83  2  0
 85 84  1  0
 85 80  2  0
 86 87  1  0
 87 88  1  0
 88 89  2  0
 90 89  1  0
 90 94  1  0
 91 90  2  0
 92 87  2  0
 92 91  1  0
 93 92  1  0
 95 96  1  0
 96 99  1  0
 96 98  1  0
 97 95  2  0
100101  1  0
100 75  1  0
102100  1  0
M  ISO  4   9 101  10 101  65 100  73 100
M  END
>  <TORSDO>  (61) 
F 27

>  <SCORE>  (61) 
-12.142

>  <name>  (61) 
61

>  <ligand_id>  (61) 
61

>  <original_smiles>  (61) 
[H]c1c([H])c([H])c2c(c1[H])C([H])([H])C([H])([H])C([H])([H])C2([H])N([H])C(=O)C1([H])N(C(=O)C([H])(N([H])C(=O)C([H])(N([H])C([H])([H])[H])C([H])([H])[H])C(C([H])([H])[H])(C([H])([H])[H])C([H])([H])[H])C([H])([H])c2c([H])c(OC([H])([H])C([H])([H])N3C([H])([H])C([H])([H])N(C([H])(C([H])([H])C([H])([H])C([H])([H])C([H])([H])[N+]([H])([H])[H])C([H])(C([H])([H])N([H])C(=O)N4C([H])([H])C([H])([H])C([H])([H])C([H])(n5nc(-c6c([H])c([H])c(Oc7c([H])c([H])c(F)c([H])c7F)c([H])c6[H])c(C(=O)N([H])[H])c5N([H])[H])C4([H])[H])[N+]([H])([H])[H])C([H])([H])C3([H])[H])c([H])c([H])c2C1([H])[H]

>  <smiles>  (61) 
[H]c1c([H])c([H])c2c(c1[H])C([H])([H])C([H])([H])C([H])([H])C2([H])N([H])C(=O)C1([H])N(C(=O)C([H])(N([H])C(=O)C([H])(N([H])C([H])([H])[H])C([H])([H])[H])C(C([H])([H])[H])(C([H])([H])[H])C([H])([H])[H])C([H])([H])c2c([H])c(OC([H])([H])C([H])([H])N3C([H])([H])C([H])([H])N(C([H])(C([H])([H])C([H])([H])C([H])([H])C([H])([H])[N+]([H])([H])[H])C([H])(C([H])([H])N([H])C(=O)N4C([H])([H])C([H])([H])C([H])([H])C([H])(n5nc(-c6c([H])c([H])c(Oc7c([H])c([H])c(F)c([H])c7F)c([H])c6[H])c(C(=O)N([H])[H])c5N([H])[H])C4([H])[H])[N+]([H])([H])[H])C([H])([H])C3([H])[H])c([H])c([H])c2C1([H])[H]

$$$$
62:0:0
     RDKit          3D

 95103  0  0  1  0  0  0  0  0999 V2000
  -30.5270  -15.1920   20.2560 C   0  0  0  0  0  0  0  0  0  0  0  0
  -30.3890  -12.7510   19.4750 C   0  0  0  0  0  2  0  0  0  0  0  0
  -29.5080  -12.5160   18.2290 C   0  0  0  0  0  2  0  0  0  0  0  0
  -28.0470  -12.2920   18.6520 C   0  0  0  0  0  2  0  0  0  0  0  0
  -27.5780  -13.3240   19.7100 C   0  0  0  0  0  3  0  0  0  0  0  0
  -28.5990  -13.5340   20.8490 C   0  0  0  0  0  2  0  0  0  0  0  0
  -29.8520  -13.9530   20.2080 N   0  0  0  0  0  0  0  0  0  0  0  0
  -31.7510  -15.0720   20.1190 O   0  0  0  0  0  0  0  0  0  0  0  0
  -28.5610  -17.0920   20.3280 C   0  0  0  0  0  2  0  0  0  0  0  0
  -30.3820  -19.2590   19.6810 C   0  0  0  0  0  2  0  0  0  0  0  0
  -30.8830  -17.7820   20.2340 C   0  0  0  0  0  3  0  0  0  0  0  0
  -28.1390  -18.6420   19.9050 C   0  0  0  0  0  3  0  0  0  0  0  0
  -29.9660  -16.5530   20.2000 N   0  0  0  0  0  0  0  0  0  0  0  0
  -29.0570  -19.8720   20.1190 N   0  0  2  0  0  4  0  0  0  0  0  0
  -29.1430  -20.0160   21.1150 H   0  0  0  0  0  0  0  0  0  0  0  0
  -25.2040  -13.9320   20.4160 C   0  0  0  0  0  0  0  0  0  0  0  0
  -24.1250  -13.1750   20.7730 C   0  0  0  0  0  0  0  0  0  0  0  0
  -24.5750  -11.8180   20.7730 C   0  0  0  0  0  0  0  0  0  0  0  0
  -26.2380  -13.0390   20.2040 N   0  0  0  0  0  0  0  0  0  0  0  0
  -25.8730  -11.7630   20.4910 N   0  0  0  0  0  0  0  0  0  0  0  0
  -23.8280  -10.5690   20.9660 C   0  0  0  0  0  0  0  0  0  0  0  0
  -24.2250   -9.6090   21.9210 C   0  0  0  0  0  3  0  0  0  0  0  0
  -23.4740   -8.4270   22.1010 C   0  0  0  0  0  3  0  0  0  0  0  0
  -22.3130   -8.1980   21.3270 C   0  0  0  0  0  0  0  0  0  0  0  0
  -21.9350   -9.1480   20.3620 C   0  0  0  0  0  3  0  0  0  0  0  0
  -22.6850  -10.3210   20.1790 C   0  0  0  0  0  3  0  0  0  0  0  0
  -21.5360   -7.0690   21.4170 O   0  0  0  0  0  0  0  0  0  0  0  0
  -21.4490   -6.3470   22.5800 C   0  0  0  0  0  0  0  0  0  0  0  0
  -21.0080   -6.9290   23.7880 C   0  0  0  0  0  3  0  0  0  0  0  0
  -20.8680   -6.1340   24.9430 C   0  0  0  0  0  3  0  0  0  0  0  0
  -21.1570   -4.7580   24.8900 C   0  0  0  0  0  0  0  0  0  0  0  0
  -21.5900   -4.1740   23.6870 C   0  0  0  0  0  3  0  0  0  0  0  0
  -21.7340   -4.9670   22.5340 C   0  0  0  0  0  0  0  0  0  0  0  0
  -22.1330   -4.3960   21.3730 F   0  0  0  0  0  0  0  0  0  0  0  0
  -21.0140   -3.9910   25.9980 F   0  0  0  0  0  0  0  0  0  0  0  0
  -22.7300  -13.6770   21.0010 C   0  0  0  0  0  0  0  0  0  0  0  0
  -21.9760  -13.0150   21.8700 N   0  0  0  0  0  0  0  0  0  0  0  0
  -22.3190  -14.6940   20.4450 O   0  0  0  0  0  0  0  0  0  0  0  0
  -22.3230  -12.1940   22.3420 H   0  0  0  0  0  0  0  0  0  0  0  0
  -21.0390  -13.3360   22.0650 H   0  0  0  0  0  0  0  0  0  0  0  0
  -25.3800  -15.3000   20.2250 N   0  0  0  0  0  0  0  0  0  0  0  0
  -24.6150  -15.9550   20.3450 H   0  0  0  0  0  0  0  0  0  0  0  0
  -26.2370  -15.7520   19.9420 H   0  0  0  0  0  0  0  0  0  0  0  0
  -31.3190  -17.9810   21.6980 C   0  0  0  0  0  0  0  0  0  0  0  0
  -32.6130  -18.0980   21.9680 N   0  0  0  0  0  0  0  0  0  0  0  0
  -30.4800  -18.0550   22.5930 O   0  0  0  0  0  0  0  0  0  0  0  0
  -33.3070  -18.0260   21.2370 H   0  0  0  0  0  0  0  0  0  0  0  0
  -32.9210  -18.2350   22.9220 H   0  0  0  0  0  0  0  0  0  0  0  0
  -26.8240  -18.8560   20.4930 N   0  0  0  0  0  0  0  0  0  0  0  0
  -26.8750  -18.9080   21.5040 H   0  0  0  0  0  0  0  0  0  0  0  0
  -26.4130  -19.7330   20.2000 H   0  0  0  0  0  0  0  0  0  0  0  0
  -28.5630  -21.3100   19.4780 C   0  0  0  0  0  2  0  0  0  0  0  0
  -28.8280  -22.9760   19.9590 C   0  0  0  0  0  3  0  0  0  0  0  0
  -27.9770  -24.4260   19.4410 C   0  0  0  0  0  3  0  0  0  0  0  0
  -28.1840  -26.0030   19.7020 O   0  0  0  0  0  0  0  0  0  0  0  0
  -24.4850  -31.6540   22.8940 C   0  0  0  0  0  0  0  0  0  0  0  0
  -27.1340  -27.0310   19.6640 C   0  0  0  0  0  0  0  0  0  0  0  0
  -23.3040  -30.2840   21.2220 C   0  0  0  0  0  3  0  0  0  0  0  0
  -24.7770  -28.7890   19.7190 C   0  0  0  0  0  0  0  0  0  0  0  0
  -25.8560  -30.5970   21.0430 C   0  0  0  0  0  2  0  0  0  0  0  0
  -25.9560  -29.2220   20.3360 C   0  0  0  0  0  0  0  0  0  0  0  0
  -27.1320  -28.3610   20.2910 C   0  0  0  0  0  3  0  0  0  0  0  0
  -25.9250  -26.7350   18.9990 C   0  0  0  0  0  3  0  0  0  0  0  0
  -24.7780  -27.5650   19.0330 C   0  0  0  0  0  3  0  0  0  0  0  0
  -23.5310  -29.6630   19.8160 C   0  0  0  0  0  2  0  0  0  0  0  0
  -24.5700  -30.8680   21.7740 N   0  0  0  0  0  0  0  0  0  0  0  0
  -23.3970  -31.8920   23.4420 O   0  0  0  0  0  0  0  0  0  0  0  0
  -22.6610  -29.2290   22.1570 C   0  0  0  0  0  0  0  0  0  0  0  0
  -21.3290  -29.0590   22.0760 N   0  0  0  0  0  0  0  0  0  0  0  0
  -23.3640  -28.5660   22.9250 O   0  0  0  0  0  0  0  0  0  0  0  0
  -20.8130  -29.6470   21.4360 H   0  0  0  0  0  0  0  0  0  0  0  0
  -17.9710  -27.8270   22.6760 C   0  0  0  0  0  0  0  0  0  0  0  0
  -20.5420  -28.0780   22.8300 C   0  0  0  0  0  3  0  0  0  0  0  0
  -20.6120  -26.6810   22.1690 C   0  0  0  0  0  2  0  0  0  0  0  0
  -19.4610  -26.4170   21.1930 C   0  0  0  0  0  2  0  0  0  0  0  0
  -18.1140  -26.5210   21.9120 C   0  0  0  0  0  2  0  0  0  0  0  0
  -19.1110  -28.5650   23.0940 C   0  0  0  0  0  0  0  0  0  0  0  0
  -18.9210  -29.7870   23.7750 C   0  0  0  0  0  3  0  0  0  0  0  0
  -17.6260  -30.2710   24.0390 C   0  0  0  0  0  3  0  0  0  0  0  0
  -16.5020  -29.5290   23.6340 C   0  0  0  0  0  3  0  0  0  0  0  0
  -16.6760  -28.3090   22.9580 C   0  0  0  0  0  3  0  0  0  0  0  0
  -25.7490  -32.3090   23.5280 C   0  0  0  0  0  3  0  0  0  0  0  0
  -26.3090  -31.5030   24.7660 C   0  0  1  0  0  0  0  0  0  0  0  0
  -25.2440  -31.1930   25.8430 C   0  0  0  0  0  1  0  0  0  0  0  0
  -26.9240  -30.1580   24.3150 C   0  0  0  0  0  1  0  0  0  0  0  0
  -27.4490  -32.3040   25.4400 C   0  0  0  0  0  1  0  0  0  0  0  0
  -25.3930  -33.6800   23.9330 N   0  0  0  0  0  0  0  0  0  0  0  0
  -25.6950  -34.7860   23.2430 C   0  0  0  0  0  0  0  0  0  0  0  0
  -26.3670  -34.7620   22.2090 O   0  0  0  0  0  0  0  0  0  0  0  0
  -24.7950  -33.7700   24.7420 H   0  0  0  0  0  0  0  0  0  0  0  0
  -23.9170  -36.5530   23.0020 C   0  0  0  0  0  1  0  0  0  0  0  0
  -25.1720  -36.1330   23.7830 C   0  0  0  0  0  3  0  0  0  0  0  0
  -27.2840  -37.0310   24.6600 C   0  0  0  0  0  1  0  0  0  0  0  0
  -26.1740  -37.2190   23.7300 N   0  0  0  0  0  0  0  0  0  0  0  0
  -25.7420  -38.1180   23.9310 H   0  0  0  0  0  0  0  0  0  0  0  0
  2  7  1  0
  3  4  1  0
  3  2  1  0
  5  4  1  0
  5 19  1  0
  5  6  1  0
  7  1  1  0
  7  6  1  0
  8  1  2  0
 10 14  1  0
 10 11  1  0
 11 44  1  0
 12 14  1  0
 12  9  1  0
 12 49  1  0
 13 11  1  0
 13  1  1  0
 13  9  1  0
 14 15  1  1
 16 17  2  0
 17 36  1  0
 18 17  1  0
 18 21  1  0
 19 16  1  0
 19 20  1  0
 20 18  2  0
 21 22  1  0
 22 23  2  0
 24 27  1  0
 24 23  1  0
 25 24  2  0
 26 25  1  0
 26 21  2  0
 27 28  1  0
 28 29  1  0
 29 30  2  0
 31 30  1  0
 31 35  1  0
 32 31  2  0
 33 28  2  0
 33 32  1  0
 34 33  1  0
 36 37  1  0
 37 40  1  0
 37 39  1  0
 38 36  2  0
 41 42  1  0
 41 16  1  0
 43 41  1  0
 44 45  1  0
 44 46  2  0
 45 48  1  0
 47 45  1  0
 49 50  1  0
 51 49  1  0
 52 53  1  0
 52 14  1  0
 54 55  1  0
 54 53  2  0
 56 67  2  0
 57 55  1  0
 57 62  1  0
 58 66  1  0
 58 68  1  0
 59 65  1  0
 59 61  1  0
 60 66  1  0
 61 60  1  0
 62 61  2  0
 63 64  1  0
 63 57  2  0
 64 59  2  0
 65 58  1  0
 66 56  1  0
 68 70  2  0
 69 68  1  0
 71 69  1  0
 72 81  2  0
 72 77  1  0
 73 69  1  0
 73 77  1  0
 74 73  1  0
 75 76  1  0
 75 74  1  0
 76 72  1  0
 77 78  2  0
 78 79  1  0
 80 79  2  0
 81 80  1  0
 82 56  1  0
 82 87  1  0
 82 83  1  0
 83 86  1  1
 83 84  1  0
 85 83  1  0
 87 90  1  0
 88 92  1  0
 88 87  1  0
 89 88  2  0
 92 91  1  0
 94 92  1  0
 94 95  1  0
 94 93  1  0
M  ISO  4   1 100  13 100  54 101  55 101
M  END
>  <TORSDO>  (62) 
F 20

>  <SCORE>  (62) 
-13.584

>  <name>  (62) 
62

>  <ligand_id>  (62) 
62

>  <original_smiles>  (62) 
[H]c1c([H])c([H])c2c(c1[H])C([H])([H])C([H])([H])C([H])([H])C2([H])N([H])C(=O)C1([H])N(C(=O)C([H])(N([H])C(=O)C([H])(N([H])C([H])([H])[H])C([H])([H])[H])C(C([H])([H])[H])(C([H])([H])[H])C([H])([H])[H])C([H])([H])c2c([H])c(OC([H])([H])C([H])([H])C([H])([H])[N+]3([H])C([H])([H])C([H])(C(=O)N([H])[H])N(C(=O)N4C([H])([H])C([H])([H])C([H])([H])C([H])(n5nc(-c6c([H])c([H])c(Oc7c([H])c([H])c(F)c([H])c7F)c([H])c6[H])c(C(=O)N([H])[H])c5N([H])[H])C4([H])[H])C([H])([H])C3([H])N([H])[H])c([H])c([H])c2C1([H])[H]

>  <smiles>  (62) 
[H]c1c([H])c([H])c2c(c1[H])C([H])([H])C([H])([H])C([H])([H])C2([H])N([H])C(=O)C1([H])N(C(=O)C([H])(N([H])C(=O)C([H])(N([H])C([H])([H])[H])C([H])([H])[H])C(C([H])([H])[H])(C([H])([H])[H])C([H])([H])[H])C([H])([H])c2c([H])c(OC([H])([H])C([H])([H])C([H])([H])[N+]3([H])C([H])([H])C([H])(C(=O)N([H])[H])N(C(=O)N4C([H])([H])C([H])([H])C([H])([H])C([H])(n5nc(-c6c([H])c([H])c(Oc7c([H])c([H])c(F)c([H])c7F)c([H])c6[H])c(C(=O)N([H])[H])c5N([H])[H])C4([H])[H])C([H])([H])C3([H])N([H])[H])c([H])c([H])c2C1([H])[H]

$$$$
63:0:0
     RDKit          3D

105113  0  0  1  0  0  0  0  0999 V2000
  -28.9330  -17.1140   20.2280 C   0  0  0  0  0  3  0  0  0  0  0  0
  -27.3230  -20.5150   19.4430 C   0  0  0  0  0  2  0  0  0  0  0  0
  -28.6060  -20.8080   21.4520 C   0  0  0  0  0  2  0  0  0  0  0  0
  -28.1130  -19.2300   19.1120 C   0  0  0  0  0  2  0  0  0  0  0  0
  -29.4050  -19.4980   21.1440 C   0  0  0  0  0  2  0  0  0  0  0  0
  -28.0940  -21.4850   20.2370 N   0  0  0  0  0  0  0  0  0  0  0  0
  -28.5520  -18.5680   20.3670 N   0  0  2  0  0  4  0  0  0  0  0  0
  -27.7010  -18.5170   20.9030 H   0  0  0  0  0  0  0  0  0  0  0  0
  -27.1330  -22.5670   20.5540 C   0  0  0  0  0  2  0  0  0  0  0  0
  -27.6940  -23.9260   21.0410 C   0  0  0  0  0  2  0  0  0  0  0  0
  -28.2290  -24.8560   19.9230 C   0  0  0  0  0  2  0  0  0  0  0  0
  -28.2330  -26.2510   20.2920 O   0  0  0  0  0  0  0  0  0  0  0  0
  -24.5570  -31.5140   23.3660 C   0  0  0  0  0  0  0  0  0  0  0  0
  -27.0620  -26.9950   20.2720 C   0  0  0  0  0  0  0  0  0  0  0  0
  -23.3190  -30.1910   21.6900 C   0  0  0  0  0  3  0  0  0  0  0  0
  -24.7250  -28.6050   20.2740 C   0  0  0  0  0  0  0  0  0  0  0  0
  -25.8600  -30.4500   21.5250 C   0  0  0  0  0  2  0  0  0  0  0  0
  -25.8970  -29.0840   20.8660 C   0  0  0  0  0  0  0  0  0  0  0  0
  -27.0680  -28.2850   20.8570 C   0  0  0  0  0  3  0  0  0  0  0  0
  -25.8600  -26.5360   19.6860 C   0  0  0  0  0  3  0  0  0  0  0  0
  -24.6970  -27.3280   19.6890 C   0  0  0  0  0  3  0  0  0  0  0  0
  -23.5160  -29.5160   20.3090 C   0  0  0  0  0  2  0  0  0  0  0  0
  -24.5990  -30.7240   22.2580 N   0  0  0  0  0  0  0  0  0  0  0  0
  -23.4770  -31.8300   23.8860 O   0  0  0  0  0  0  0  0  0  0  0  0
  -22.6070  -29.1840   22.6250 C   0  0  0  0  0  0  0  0  0  0  0  0
  -21.2930  -29.0070   22.4290 N   0  0  0  0  0  0  0  0  0  0  0  0
  -23.2370  -28.5620   23.4840 O   0  0  0  0  0  0  0  0  0  0  0  0
  -20.8450  -29.5610   21.7140 H   0  0  0  0  0  0  0  0  0  0  0  0
  -17.8980  -27.8070   22.7170 C   0  0  0  0  0  0  0  0  0  0  0  0
  -20.4310  -28.0750   23.1530 C   0  0  0  0  0  3  0  0  0  0  0  0
  -20.5790  -26.6380   22.5980 C   0  0  0  0  0  2  0  0  0  0  0  0
  -19.5460  -26.3140   21.5120 C   0  0  0  0  0  2  0  0  0  0  0  0
  -18.1280  -26.4470   22.0770 C   0  0  0  0  0  2  0  0  0  0  0  0
  -18.9830  -28.5810   23.2030 C   0  0  0  0  0  0  0  0  0  0  0  0
  -18.7220  -29.8630   23.7370 C   0  0  0  0  0  3  0  0  0  0  0  0
  -17.4070  -30.3600   23.8110 C   0  0  0  0  0  3  0  0  0  0  0  0
  -16.3370  -29.5780   23.3470 C   0  0  0  0  0  3  0  0  0  0  0  0
  -16.5820  -28.3070   22.8020 C   0  0  0  0  0  3  0  0  0  0  0  0
  -25.8580  -32.0800   24.0150 C   0  0  0  0  0  3  0  0  0  0  0  0
  -26.2760  -31.3140   25.3310 C   0  0  1  0  0  0  0  0  0  0  0  0
  -25.1180  -31.1340   26.3430 C   0  0  0  0  0  1  0  0  0  0  0  0
  -26.8260  -29.9080   24.9880 C   0  0  0  0  0  1  0  0  0  0  0  0
  -27.4150  -32.0810   26.0460 C   0  0  0  0  0  1  0  0  0  0  0  0
  -25.6340  -33.5050   24.2880 N   0  0  0  0  0  0  0  0  0  0  0  0
  -26.1010  -34.5040   23.5250 C   0  0  0  0  0  0  0  0  0  0  0  0
  -26.8250  -34.3190   22.5470 O   0  0  0  0  0  0  0  0  0  0  0  0
  -25.0030  -33.7320   25.0420 H   0  0  0  0  0  0  0  0  0  0  0  0
  -24.5500  -36.4110   22.9910 C   0  0  0  0  0  1  0  0  0  0  0  0
  -25.6860  -35.9360   23.9100 C   0  0  0  0  0  3  0  0  0  0  0  0
  -27.8050  -36.6820   24.8990 C   0  0  0  0  0  1  0  0  0  0  0  0
  -26.8050  -36.8990   23.8600 N   0  0  0  0  0  0  0  0  0  0  0  0
  -26.4620  -37.8520   23.9430 H   0  0  0  0  0  0  0  0  0  0  0  0
  -28.1120  -16.2820   21.2370 C   0  0  0  0  0  2  0  0  0  0  0  0
  -26.6740  -15.9620   20.7620 C   0  0  0  0  0  2  0  0  0  0  0  0
  -26.2210  -14.5380   21.1420 C   0  0  0  0  0  2  0  0  0  0  0  0
  -24.7700  -14.4670   21.6530 C   0  0  0  0  0  2  0  0  0  0  0  0
  -24.6180  -14.4520   23.1870 C   0  0  0  0  0  2  0  0  0  0  0  0
  -23.2100  -14.3170   23.5960 N   0  0  0  0  0  4  0  0  0  0  0  0
  -22.6710  -15.1110   23.3020 H   0  0  0  0  0  0  0  0  0  0  0  0
  -23.1470  -14.2570   24.5980 H   0  0  0  0  0  0  0  0  0  0  0  0
  -22.7920  -13.4900   23.2090 H   0  0  0  0  0  0  0  0  0  0  0  0
  -30.4650  -16.7380   20.2950 C   0  0  0  0  0  2  0  0  0  0  0  0
  -31.4660  -14.4160   20.6200 C   0  0  0  0  0  0  0  0  0  0  0  0
  -31.5470  -11.9620   20.2890 C   0  0  0  0  0  2  0  0  0  0  0  0
  -30.9830  -11.5650   18.9010 C   0  0  0  0  0  2  0  0  0  0  0  0
  -29.4400  -11.5160   18.9010 C   0  0  0  0  0  2  0  0  0  0  0  0
  -28.7560  -12.6720   19.6820 C   0  0  0  0  0  3  0  0  0  0  0  0
  -29.4560  -12.9610   21.0270 C   0  0  0  0  0  2  0  0  0  0  0  0
  -30.8750  -13.1950   20.7370 N   0  0  0  0  0  0  0  0  0  0  0  0
  -32.6820  -14.5710   20.7540 O   0  0  0  0  0  0  0  0  0  0  0  0
  -30.7600  -15.3330   19.8740 N   0  0  0  0  0  0  0  0  0  0  0  0
  -26.2510  -13.1570   19.3920 C   0  0  0  0  0  0  0  0  0  0  0  0
  -25.1380  -12.4510   19.7490 C   0  0  0  0  0  0  0  0  0  0  0  0
  -25.6100  -11.2780   20.4100 C   0  0  0  0  0  0  0  0  0  0  0  0
  -27.3300  -12.4230   19.8530 N   0  0  0  0  0  0  0  0  0  0  0  0
  -26.9290  -11.3140   20.5230 N   0  0  0  0  0  0  0  0  0  0  0  0
  -24.8910  -10.0900   20.8810 C   0  0  0  0  0  0  0  0  0  0  0  0
  -24.8500   -9.7490   22.2510 C   0  0  0  0  0  3  0  0  0  0  0  0
  -24.1330   -8.6120   22.6830 C   0  0  0  0  0  3  0  0  0  0  0  0
  -23.4500   -7.8030   21.7440 C   0  0  0  0  0  0  0  0  0  0  0  0
  -23.5220   -8.1280   20.3780 C   0  0  0  0  0  3  0  0  0  0  0  0
  -24.2370   -9.2560   19.9480 C   0  0  0  0  0  3  0  0  0  0  0  0
  -22.7570   -6.6620   22.0760 O   0  0  0  0  0  0  0  0  0  0  0  0
  -21.9820   -6.5930   23.2080 C   0  0  0  0  0  0  0  0  0  0  0  0
  -20.9210   -7.4960   23.4370 C   0  0  0  0  0  3  0  0  0  0  0  0
  -20.1070   -7.3490   24.5770 C   0  0  0  0  0  3  0  0  0  0  0  0
  -20.3440   -6.2980   25.4840 C   0  0  0  0  0  0  0  0  0  0  0  0
  -21.3970   -5.3950   25.2530 C   0  0  0  0  0  3  0  0  0  0  0  0
  -22.2120   -5.5410   24.1160 C   0  0  0  0  0  0  0  0  0  0  0  0
  -23.2140   -4.6560   23.8880 F   0  0  0  0  0  0  0  0  0  0  0  0
  -19.5570   -6.1510   26.5740 F   0  0  0  0  0  0  0  0  0  0  0  0
  -23.7190  -12.7820   19.3980 C   0  0  0  0  0  0  0  0  0  0  0  0
  -22.7800  -12.3970   20.2580 N   0  0  0  0  0  0  0  0  0  0  0  0
  -23.4430  -13.4270   18.3870 O   0  0  0  0  0  0  0  0  0  0  0  0
  -23.0220  -11.8980   21.1000 H   0  0  0  0  0  0  0  0  0  0  0  0
  -21.8110  -12.6190   20.0840 H   0  0  0  0  0  0  0  0  0  0  0  0
  -26.4480  -14.3330   18.6790 N   0  0  0  0  0  0  0  0  0  0  0  0
  -25.6670  -14.7930   18.2280 H   0  0  0  0  0  0  0  0  0  0  0  0
  -27.3310  -14.5310   18.2340 H   0  0  0  0  0  0  0  0  0  0  0  0
  -30.9840  -15.2680   18.4040 C   0  0  0  0  0  2  0  0  0  0  0  0
  -32.0700  -16.2250   17.8260 C   0  0  0  0  0  2  0  0  0  0  0  0
  -32.3150  -15.9920   16.3910 N   0  0  0  0  0  4  0  0  0  0  0  0
  -32.7370  -15.0940   16.2340 H   0  0  0  0  0  0  0  0  0  0  0  0
  -32.9470  -16.6900   16.0380 H   0  0  0  0  0  0  0  0  0  0  0  0
  -31.4670  -16.0480   15.8560 H   0  0  0  0  0  0  0  0  0  0  0  0
  1 62  1  0
  1  7  1  0
  1 53  1  0
  2  6  1  0
  4  2  1  0
  4  7  1  0
  5  3  1  0
  6  9  1  0
  6  3  1  0
  7  8  1  1
  7  5  1  0
  9 10  1  0
 11 12  1  0
 11 10  1  0
 13 24  2  0
 14 12  1  0
 14 19  1  0
 15 23  1  0
 15 25  1  0
 16 22  1  0
 16 18  1  0
 17 23  1  0
 18 17  1  0
 19 18  2  0
 20 21  1  0
 20 14  2  0
 21 16  2  0
 22 15  1  0
 23 13  1  0
 25 27  2  0
 26 25  1  0
 28 26  1  0
 29 38  2  0
 29 34  1  0
 30 26  1  0
 30 34  1  0
 31 30  1  0
 32 33  1  0
 32 31  1  0
 33 29  1  0
 34 35  2  0
 35 36  1  0
 37 36  2  0
 38 37  1  0
 39 13  1  0
 39 44  1  0
 39 40  1  0
 40 43  1  1
 40 41  1  0
 42 40  1  0
 44 47  1  0
 45 49  1  0
 45 44  1  0
 46 45  2  0
 49 48  1  0
 51 49  1  0
 51 52  1  0
 51 50  1  0
 54 55  1  0
 54 53  1  0
 55 56  1  0
 56 57  1  0
 57 58  1  0
 58 60  1  0
 59 58  1  0
 61 58  1  0
 63 69  1  0
 63 70  2  0
 64 69  1  0
 65 64  1  0
 66 65  1  0
 67 66  1  0
 67 75  1  0
 67 68  1  0
 69 68  1  0
 71 62  1  0
 71 63  1  0
 72 73  2  0
 72 75  1  0
 73 74  1  0
 74 76  2  0
 74 77  1  0
 75 76  1  0
 77 78  1  0
 78 79  2  0
 80 83  1  0
 80 79  1  0
 81 80  2  0
 82 81  1  0
 82 77  2  0
 83 84  1  0
 84 85  2  0
 84 89  1  0
 85 86  1  0
 86 87  2  0
 87 91  1  0
 88 87  1  0
 89 88  2  0
 90 89  1  0
 92 73  1  0
 92 93  1  0
 93 95  1  0
 94 92  2  0
 96 93  1  0
 97 72  1  0
 98 97  1  0
 99 97  1  0
100 71  1  0
101100  1  0
102101  1  0
103102  1  0
104102  1  0
105102  1  0
M  ISO  4  11 101  12 101  63 100  71 100
M  END
>  <TORSDO>  (63) 
F 30

>  <SCORE>  (63) 
-1.634

>  <name>  (63) 
63

>  <ligand_id>  (63) 
63

>  <original_smiles>  (63) 
[H]c1c([H])c([H])c2c(c1[H])C([H])([H])C([H])([H])C([H])([H])C2([H])N([H])C(=O)C1([H])N(C(=O)C([H])(N([H])C(=O)C([H])(N([H])C([H])([H])[H])C([H])([H])[H])C(C([H])([H])[H])(C([H])([H])[H])C([H])([H])[H])C([H])([H])c2c([H])c(OC([H])([H])C([H])([H])C([H])([H])N3C([H])([H])C([H])([H])[N+]([H])(C([H])(C([H])([H])N(C(=O)N4C([H])([H])C([H])([H])C([H])([H])C([H])(n5nc(-c6c([H])c([H])c(Oc7c([H])c([H])c(F)c([H])c7F)c([H])c6[H])c(C(=O)N([H])[H])c5N([H])[H])C4([H])[H])C([H])([H])C([H])([H])[N+]([H])([H])[H])C([H])([H])C([H])([H])C([H])([H])C([H])([H])C([H])([H])[N+]([H])([H])[H])C([H])([H])C3([H])[H])c([H])c([H])c2C1([H])[H]

>  <smiles>  (63) 
[H]c1c([H])c([H])c2c(c1[H])C([H])([H])C([H])([H])C([H])([H])C2([H])N([H])C(=O)C1([H])N(C(=O)C([H])(N([H])C(=O)C([H])(N([H])C([H])([H])[H])C([H])([H])[H])C(C([H])([H])[H])(C([H])([H])[H])C([H])([H])[H])C([H])([H])c2c([H])c(OC([H])([H])C([H])([H])C([H])([H])N3C([H])([H])C([H])([H])[N+]([H])(C([H])(C([H])([H])N(C(=O)N4C([H])([H])C([H])([H])C([H])([H])C([H])(n5nc(-c6c([H])c([H])c(Oc7c([H])c([H])c(F)c([H])c7F)c([H])c6[H])c(C(=O)N([H])[H])c5N([H])[H])C4([H])[H])C([H])([H])C([H])([H])[N+]([H])([H])[H])C([H])([H])C([H])([H])C([H])([H])C([H])([H])C([H])([H])[N+]([H])([H])[H])C([H])([H])C3([H])[H])c([H])c([H])c2C1([H])[H]

$$$$
64:0:0
     RDKit          3D

105114  0  0  1  0  0  0  0  0999 V2000
  -30.7780  -18.0070   20.5980 C   0  0  0  0  0  0  0  0  0  0  0  0
  -28.8880  -21.3200   20.0920 C   0  0  0  0  0  2  0  0  0  0  0  0
  -30.7390  -22.6140   22.2020 C   0  0  0  0  0  2  0  0  0  0  0  0
  -29.2730  -19.8630   19.7770 C   0  0  0  0  0  2  0  0  0  0  0  0
  -31.3800  -20.3140   21.1470 C   0  0  0  0  0  2  0  0  0  0  0  0
  -29.8710  -23.7920   21.7220 C   0  0  0  0  0  2  0  0  0  0  0  0
  -31.1470  -21.8440   20.9350 C   0  0  0  0  0  3  0  0  0  0  0  0
  -30.0860  -22.2610   19.9190 C   0  0  0  0  0  3  0  0  0  0  0  0
  -30.4590  -19.3420   20.4970 N   0  0  0  0  0  0  0  0  0  0  0  0
  -29.7650  -23.6840   20.2450 N   0  0  2  0  0  4  0  0  0  0  0  0
  -31.7450  -17.6400   21.2710 O   0  0  0  0  0  0  0  0  0  0  0  0
  -28.8040  -23.8700   19.9910 H   0  0  0  0  0  0  0  0  0  0  0  0
  -30.6020  -24.6920   19.5140 C   0  0  0  0  0  2  0  0  0  0  0  0
  -29.7990  -25.5950   18.5280 C   0  0  0  0  0  3  0  0  0  0  0  0
  -30.5450  -25.8010   17.1750 C   0  0  0  0  0  2  0  0  0  0  0  0
  -31.7870  -26.6070   17.2370 N   0  0  0  0  0  4  0  0  0  0  0  0
  -31.6120  -27.5540   17.5210 H   0  0  0  0  0  0  0  0  0  0  0  0
  -32.1900  -26.6510   16.3170 H   0  0  0  0  0  0  0  0  0  0  0  0
  -32.4830  -26.2100   17.8390 H   0  0  0  0  0  0  0  0  0  0  0  0
  -29.3210  -26.9540   19.1190 C   0  0  0  0  0  2  0  0  0  0  0  0
  -28.4850  -26.7790   20.2610 O   0  0  0  0  0  0  0  0  0  0  0  0
  -24.5730  -31.9450   23.2530 C   0  0  0  0  0  0  0  0  0  0  0  0
  -27.3210  -27.5120   20.2520 C   0  0  0  0  0  0  0  0  0  0  0  0
  -23.4000  -30.4950   21.6260 C   0  0  0  0  0  3  0  0  0  0  0  0
  -24.8930  -28.9540   20.2390 C   0  0  0  0  0  0  0  0  0  0  0  0
  -25.9210  -30.8920   21.4420 C   0  0  0  0  0  2  0  0  0  0  0  0
  -26.0370  -29.5130   20.8270 C   0  0  0  0  0  0  0  0  0  0  0  0
  -27.2540  -28.7950   20.8370 C   0  0  0  0  0  3  0  0  0  0  0  0
  -26.1640  -26.9570   19.6700 C   0  0  0  0  0  3  0  0  0  0  0  0
  -24.9500  -27.6730   19.6620 C   0  0  0  0  0  3  0  0  0  0  0  0
  -23.6320  -29.7900   20.2620 C   0  0  0  0  0  2  0  0  0  0  0  0
  -24.6490  -31.1250   22.1670 N   0  0  0  0  0  0  0  0  0  0  0  0
  -23.4840  -32.2100   23.7820 O   0  0  0  0  0  0  0  0  0  0  0  0
  -22.7570  -29.4820   22.6010 C   0  0  0  0  0  0  0  0  0  0  0  0
  -21.4370  -29.2800   22.4650 N   0  0  0  0  0  0  0  0  0  0  0  0
  -23.4440  -28.8810   23.4310 O   0  0  0  0  0  0  0  0  0  0  0  0
  -20.9430  -29.8150   21.7650 H   0  0  0  0  0  0  0  0  0  0  0  0
  -18.0700  -28.0780   22.9840 C   0  0  0  0  0  0  0  0  0  0  0  0
  -20.6260  -28.3450   23.2470 C   0  0  0  0  0  3  0  0  0  0  0  0
  -20.7320  -26.9110   22.6770 C   0  0  0  0  0  2  0  0  0  0  0  0
  -19.6280  -26.5780   21.6700 C   0  0  0  0  0  2  0  0  0  0  0  0
  -18.2480  -26.7260   22.3170 C   0  0  0  0  0  2  0  0  0  0  0  0
  -19.1860  -28.8460   23.4050 C   0  0  0  0  0  0  0  0  0  0  0  0
  -18.9680  -30.1130   23.9880 C   0  0  0  0  0  3  0  0  0  0  0  0
  -17.6620  -30.6130   24.1530 C   0  0  0  0  0  3  0  0  0  0  0  0
  -16.5580  -29.8410   23.7490 C   0  0  0  0  0  3  0  0  0  0  0  0
  -16.7620  -28.5770   23.1710 C   0  0  0  0  0  3  0  0  0  0  0  0
  -25.8460  -32.6030   23.8710 C   0  0  0  0  0  3  0  0  0  0  0  0
  -26.3680  -31.8620   25.1630 C   0  0  1  0  0  0  0  0  0  0  0  0
  -25.2690  -31.6170   26.2230 C   0  0  0  0  0  1  0  0  0  0  0  0
  -26.9810  -30.4910   24.7950 C   0  0  0  0  0  1  0  0  0  0  0  0
  -27.4970  -32.6880   25.8230 C   0  0  0  0  0  1  0  0  0  0  0  0
  -25.5180  -34.0020   24.1710 N   0  0  0  0  0  0  0  0  0  0  0  0
  -25.8730  -35.0470   23.4110 C   0  0  0  0  0  0  0  0  0  0  0  0
  -26.5810  -34.9340   22.4060 O   0  0  0  0  0  0  0  0  0  0  0  0
  -24.8920  -34.1650   24.9470 H   0  0  0  0  0  0  0  0  0  0  0  0
  -24.1700  -36.8350   22.9430 C   0  0  0  0  0  1  0  0  0  0  0  0
  -25.3600  -36.4370   23.8310 C   0  0  0  0  0  3  0  0  0  0  0  0
  -27.4390  -37.3250   24.7870 C   0  0  0  0  0  1  0  0  0  0  0  0
  -26.3990  -37.4890   23.7750 N   0  0  0  0  0  0  0  0  0  0  0  0
  -25.9860  -38.4110   23.8930 H   0  0  0  0  0  0  0  0  0  0  0  0
  -29.9590  -16.8930   19.8700 C   0  0  0  0  0  3  0  0  0  0  0  0
  -30.7360  -14.5450   20.4660 C   0  0  0  0  0  0  0  0  0  0  0  0
  -30.4720  -12.3680   19.3670 C   0  0  0  0  0  2  0  0  0  0  0  0
  -29.5560  -12.5840   18.1430 C   0  0  0  0  0  2  0  0  0  0  0  0
  -28.0700  -12.4690   18.5380 C   0  0  0  0  0  2  0  0  0  0  0  0
  -27.7100  -13.2940   19.8030 C   0  0  0  0  0  3  0  0  0  0  0  0
  -28.7480  -13.0710   20.9300 C   0  0  0  0  0  2  0  0  0  0  0  0
  -30.0870  -13.3540   20.3890 N   0  0  0  0  0  0  0  0  0  0  0  0
  -31.9000  -14.7010   20.0980 O   0  0  0  0  0  0  0  0  0  0  0  0
  -29.9130  -15.6040   20.6140 N   0  0  0  0  0  0  0  0  0  0  0  0
  -29.0150  -15.3730   21.0080 H   0  0  0  0  0  0  0  0  0  0  0  0
  -25.3010  -13.9120   20.4660 C   0  0  0  0  0  0  0  0  0  0  0  0
  -24.2250  -13.1420   20.8160 C   0  0  0  0  0  0  0  0  0  0  0  0
  -24.6870  -11.7900   20.8060 C   0  0  0  0  0  0  0  0  0  0  0  0
  -26.3470  -13.0270   20.2560 N   0  0  0  0  0  0  0  0  0  0  0  0
  -25.9810  -11.7480   20.5230 N   0  0  0  0  0  0  0  0  0  0  0  0
  -23.9600  -10.5290   20.9950 C   0  0  0  0  0  0  0  0  0  0  0  0
  -24.3670   -9.5790   21.9580 C   0  0  0  0  0  3  0  0  0  0  0  0
  -23.6440   -8.3800   22.1310 C   0  0  0  0  0  3  0  0  0  0  0  0
  -22.4980   -8.1210   21.3410 C   0  0  0  0  0  0  0  0  0  0  0  0
  -22.1090   -9.0600   20.3700 C   0  0  0  0  0  3  0  0  0  0  0  0
  -22.8320  -10.2510   20.1960 C   0  0  0  0  0  3  0  0  0  0  0  0
  -21.7510   -6.9710   21.4210 O   0  0  0  0  0  0  0  0  0  0  0  0
  -21.6560   -6.2530   22.5860 C   0  0  0  0  0  0  0  0  0  0  0  0
  -21.1650   -6.8270   23.7790 C   0  0  0  0  0  3  0  0  0  0  0  0
  -21.0260   -6.0330   24.9350 C   0  0  0  0  0  3  0  0  0  0  0  0
  -21.3630   -4.6670   24.8970 C   0  0  0  0  0  0  0  0  0  0  0  0
  -21.8490   -4.0940   23.7090 C   0  0  0  0  0  3  0  0  0  0  0  0
  -21.9930   -4.8860   22.5550 C   0  0  0  0  0  0  0  0  0  0  0  0
  -22.4390   -4.3230   21.4060 F   0  0  0  0  0  0  0  0  0  0  0  0
  -21.2210   -3.9010   26.0040 F   0  0  0  0  0  0  0  0  0  0  0  0
  -22.8200  -13.6180   21.0520 C   0  0  0  0  0  0  0  0  0  0  0  0
  -22.0690  -12.9270   21.9020 N   0  0  0  0  0  0  0  0  0  0  0  0
  -22.3930  -14.6370   20.5100 O   0  0  0  0  0  0  0  0  0  0  0  0
  -22.4180  -12.1000   22.3640 H   0  0  0  0  0  0  0  0  0  0  0  0
  -21.1270  -13.2300   22.0960 H   0  0  0  0  0  0  0  0  0  0  0  0
  -25.4760  -15.2840   20.2880 N   0  0  0  0  0  0  0  0  0  0  0  0
  -24.7170  -15.9470   20.4030 H   0  0  0  0  0  0  0  0  0  0  0  0
  -26.3370  -15.7220   19.9910 H   0  0  0  0  0  0  0  0  0  0  0  0
  -30.2900  -16.6230   18.3600 C   0  0  0  0  0  2  0  0  0  0  0  0
  -30.2240  -17.7640   17.4270 N   0  0  0  0  0  4  0  0  0  0  0  0
  -29.3650  -18.2780   17.5130 H   0  0  0  0  0  0  0  0  0  0  0  0
  -30.2630  -17.4110   16.4860 H   0  0  0  0  0  0  0  0  0  0  0  0
  -31.0130  -18.3760   17.5400 H   0  0  0  0  0  0  0  0  0  0  0  0
  1 11  2  0
  4  2  1  0
  4  9  1  0
  6  3  1  0
  7  5  1  0
  7  3  1  0
  8  2  1  0
  8 10  1  0
  8  7  1  0
  9  1  1  0
  9  5  1  0
 10  6  1  0
 10 12  1  1
 13 10  1  0
 14 15  1  0
 14 20  1  0
 14 13  1  0
 15 16  1  0
 16 17  1  0
 16 19  1  0
 18 16  1  0
 20 21  1  0
 22 33  2  0
 23 21  1  0
 23 28  1  0
 24 32  1  0
 24 34  1  0
 25 31  1  0
 25 27  1  0
 26 32  1  0
 27 28  2  0
 27 26  1  0
 29 23  2  0
 30 29  1  0
 30 25  2  0
 31 24  1  0
 32 22  1  0
 34 36  2  0
 35 34  1  0
 37 35  1  0
 38 47  2  0
 38 43  1  0
 39 35  1  0
 39 43  1  0
 40 39  1  0
 41 42  1  0
 41 40  1  0
 42 38  1  0
 43 44  2  0
 44 45  1  0
 46 45  2  0
 47 46  1  0
 48 22  1  0
 48 53  1  0
 48 49  1  0
 49 52  1  1
 49 50  1  0
 51 49  1  0
 53 56  1  0
 54 58  1  0
 54 53  1  0
 55 54  2  0
 58 57  1  0
 60 58  1  0
 60 61  1  0
 60 59  1  0
 62101  1  0
 62  1  1  0
 62 71  1  0
 63 71  1  0
 64 69  1  0
 65 66  1  0
 65 64  1  0
 67 66  1  0
 67 76  1  0
 67 68  1  0
 69 63  1  0
 69 68  1  0
 70 63  2  0
 71 72  1  0
 73 74  2  0
 74 93  1  0
 75 74  1  0
 75 78  1  0
 76 73  1  0
 76 77  1  0
 77 75  2  0
 78 79  1  0
 79 80  2  0
 81 84  1  0
 81 80  1  0
 82 81  2  0
 83 82  1  0
 83 78  2  0
 84 85  1  0
 85 86  1  0
 86 87  2  0
 88 87  1  0
 88 92  1  0
 89 88  2  0
 90 85  2  0
 90 89  1  0
 91 90  1  0
 93 94  1  0
 94 97  1  0
 94 96  1  0
 95 93  2  0
 98 99  1  0
 98 73  1  0
100 98  1  0
102103  1  0
102105  1  0
102101  1  0
104102  1  0
M  ISO  4  20 101  21 101  63 100  71 100
M  END
>  <TORSDO>  (64) 
F 24

>  <SCORE>  (64) 
-13.035

>  <name>  (64) 
64

>  <ligand_id>  (64) 
64

>  <original_smiles>  (64) 
[H]c1c([H])c([H])c2c(c1[H])C([H])([H])C([H])([H])C([H])([H])C2([H])N([H])C(=O)C1([H])N(C(=O)C([H])(N([H])C(=O)C([H])(N([H])C([H])([H])[H])C([H])([H])[H])C(C([H])([H])[H])(C([H])([H])[H])C([H])([H])[H])C([H])([H])c2c([H])c(OC([H])([H])C([H])(C([H])([H])[N+]([H])([H])[H])C([H])([H])[N+]3([H])C([H])([H])C([H])([H])C4([H])C([H])([H])N(C(=O)C([H])(N([H])C(=O)N5C([H])([H])C([H])([H])C([H])([H])C([H])(n6nc(-c7c([H])c([H])c(Oc8c([H])c([H])c(F)c([H])c8F)c([H])c7[H])c(C(=O)N([H])[H])c6N([H])[H])C5([H])[H])C([H])([H])[N+]([H])([H])[H])C([H])([H])C([H])([H])C43[H])c([H])c([H])c2C1([H])[H]

>  <smiles>  (64) 
[H]c1c([H])c([H])c2c(c1[H])C([H])([H])C([H])([H])C([H])([H])C2([H])N([H])C(=O)C1([H])N(C(=O)C([H])(N([H])C(=O)C([H])(N([H])C([H])([H])[H])C([H])([H])[H])C(C([H])([H])[H])(C([H])([H])[H])C([H])([H])[H])C([H])([H])c2c([H])c(OC([H])([H])C([H])(C([H])([H])[N+]([H])([H])[H])C([H])([H])[N+]3([H])C([H])([H])C([H])([H])C4([H])C([H])([H])N(C(=O)C([H])(N([H])C(=O)N5C([H])([H])C([H])([H])C([H])([H])C([H])(n6nc(-c7c([H])c([H])c(Oc8c([H])c([H])c(F)c([H])c8F)c([H])c7[H])c(C(=O)N([H])[H])c6N([H])[H])C5([H])[H])C([H])([H])[N+]([H])([H])[H])C([H])([H])C([H])([H])C43[H])c([H])c([H])c2C1([H])[H]

$$$$
65:0:0
     RDKit          3D

102111  0  0  1  0  0  0  0  0999 V2000
  -32.0580  -22.9580   20.3720 C   0  0  0  0  0  2  0  0  0  0  0  0
  -29.8410  -22.1270   20.4450 C   0  0  0  0  0  2  0  0  0  0  0  0
  -31.5920  -24.3110   19.8080 C   0  0  0  0  0  2  0  0  0  0  0  0
  -29.2420  -23.5020   19.9950 C   0  0  0  0  0  3  0  0  0  0  0  0
  -31.1900  -21.8720   19.9220 N   0  0  0  0  0  0  0  0  0  0  0  0
  -30.2000  -24.6320   20.2280 N   0  0  1  0  0  4  0  0  0  0  0  0
  -29.8990  -25.3440   19.5790 H   0  0  0  0  0  0  0  0  0  0  0  0
  -28.7800  -23.5220   18.5180 C   0  0  0  0  0  2  0  0  0  0  0  0
  -24.6520  -22.2820   17.9780 C   0  0  0  0  0  3  0  0  0  0  0  0
  -25.6730  -21.3150   18.0610 C   0  0  0  0  0  3  0  0  0  0  0  0
  -24.9760  -23.6500   18.0500 C   0  0  0  0  0  3  0  0  0  0  0  0
  -27.0090  -21.7240   18.2460 C   0  0  0  0  0  3  0  0  0  0  0  0
  -26.3170  -24.0500   18.2080 C   0  0  0  0  0  3  0  0  0  0  0  0
  -27.3370  -23.0860   18.3260 C   0  0  0  0  0  0  0  0  0  0  0  0
  -31.7390  -20.5550   20.2870 C   0  0  0  0  0  2  0  0  0  0  0  0
  -31.4920  -19.4420   19.2380 C   0  0  0  0  0  2  0  0  0  0  0  0
  -30.4110  -18.4810   19.5250 N   0  0  0  0  0  0  0  0  0  0  0  0
  -29.1440  -18.6880   17.3120 C   0  0  0  0  0  1  0  0  0  0  0  0
  -29.9690  -17.8310   18.2740 C   0  0  0  0  0  2  0  0  0  0  0  0
  -30.9000  -17.4280   20.4340 C   0  0  0  0  0  2  0  0  0  0  0  0
  -29.7600  -16.6030   21.0940 C   0  0  0  0  0  2  0  0  0  0  0  0
  -30.6640  -14.2830   20.6710 C   0  0  0  0  0  0  0  0  0  0  0  0
  -30.2940  -12.2940   19.2790 C   0  0  0  0  0  2  0  0  0  0  0  0
  -29.3540  -12.6800   18.1180 C   0  0  0  0  0  2  0  0  0  0  0  0
  -27.8730  -12.5780   18.5360 C   0  0  0  0  0  2  0  0  0  0  0  0
  -27.5780  -13.2390   19.9130 C   0  0  0  0  0  3  0  0  0  0  0  0
  -28.6320  -12.8170   20.9660 C   0  0  0  0  0  2  0  0  0  0  0  0
  -29.9670  -13.1410   20.4330 N   0  0  0  0  0  0  0  0  0  0  0  0
  -31.7520  -14.5330   20.1530 O   0  0  0  0  0  0  0  0  0  0  0  0
  -29.9910  -15.1860   21.4010 N   0  0  0  0  0  0  0  0  0  0  0  0
  -29.2260  -14.7680   21.9100 H   0  0  0  0  0  0  0  0  0  0  0  0
  -25.1570  -13.8150   20.5720 C   0  0  0  0  0  0  0  0  0  0  0  0
  -24.0950  -13.0260   20.9280 C   0  0  0  0  0  0  0  0  0  0  0  0
  -24.5780  -11.6830   20.9110 C   0  0  0  0  0  0  0  0  0  0  0  0
  -26.2190  -12.9500   20.3660 N   0  0  0  0  0  0  0  0  0  0  0  0
  -25.8720  -11.6630   20.6230 N   0  0  0  0  0  0  0  0  0  0  0  0
  -23.8690  -10.4100   21.0930 C   0  0  0  0  0  0  0  0  0  0  0  0
  -24.3110   -9.4430   22.0220 C   0  0  0  0  0  3  0  0  0  0  0  0
  -23.5980   -8.2360   22.1940 C   0  0  0  0  0  3  0  0  0  0  0  0
  -22.4300   -7.9890   21.4360 C   0  0  0  0  0  0  0  0  0  0  0  0
  -22.0080   -8.9440   20.4960 C   0  0  0  0  0  3  0  0  0  0  0  0
  -22.7190  -10.1420   20.3240 C   0  0  0  0  0  3  0  0  0  0  0  0
  -21.6950   -6.8300   21.5140 O   0  0  0  0  0  0  0  0  0  0  0  0
  -21.6660   -6.0730   22.6570 C   0  0  0  0  0  0  0  0  0  0  0  0
  -21.2310   -6.6030   23.8920 C   0  0  0  0  0  3  0  0  0  0  0  0
  -21.1510   -5.7730   25.0250 C   0  0  0  0  0  3  0  0  0  0  0  0
  -21.4910   -4.4100   24.9270 C   0  0  0  0  0  0  0  0  0  0  0  0
  -21.9200   -3.8790   23.6980 C   0  0  0  0  0  3  0  0  0  0  0  0
  -22.0050   -4.7070   22.5660 C   0  0  0  0  0  0  0  0  0  0  0  0
  -22.3970   -4.1850   21.3800 F   0  0  0  0  0  0  0  0  0  0  0  0
  -21.4080   -3.6120   26.0160 F   0  0  0  0  0  0  0  0  0  0  0  0
  -22.6890  -13.4850   21.1780 C   0  0  0  0  0  0  0  0  0  0  0  0
  -21.9600  -12.7940   22.0470 N   0  0  0  0  0  0  0  0  0  0  0  0
  -22.2440  -14.4960   20.6360 O   0  0  0  0  0  0  0  0  0  0  0  0
  -22.3280  -11.9760   22.5080 H   0  0  0  0  0  0  0  0  0  0  0  0
  -21.0200  -13.0960   22.2580 H   0  0  0  0  0  0  0  0  0  0  0  0
  -25.2940  -15.1860   20.3910 N   0  0  0  0  0  0  0  0  0  0  0  0
  -24.5010  -15.8080   20.4960 H   0  0  0  0  0  0  0  0  0  0  0  0
  -26.1370  -15.6580   20.0870 H   0  0  0  0  0  0  0  0  0  0  0  0
  -30.1110  -25.3340   21.5390 C   0  0  0  0  0  2  0  0  0  0  0  0
  -28.8970  -26.2810   21.6520 C   0  0  0  0  0  2  0  0  0  0  0  0
  -28.7180  -27.0070   20.4330 O   0  0  0  0  0  0  0  0  0  0  0  0
  -24.7150  -32.0520   23.4180 C   0  0  0  0  0  0  0  0  0  0  0  0
  -27.5380  -27.7040   20.4070 C   0  0  0  0  0  0  0  0  0  0  0  0
  -23.5740  -30.6110   21.7610 C   0  0  0  0  0  3  0  0  0  0  0  0
  -25.0940  -29.1130   20.3680 C   0  0  0  0  0  0  0  0  0  0  0  0
  -26.0870  -31.0540   21.5950 C   0  0  0  0  0  2  0  0  0  0  0  0
  -26.2250  -29.6850   20.9660 C   0  0  0  0  0  0  0  0  0  0  0  0
  -27.4520  -28.9900   20.9780 C   0  0  0  0  0  3  0  0  0  0  0  0
  -26.3930  -27.1300   19.8170 C   0  0  0  0  0  3  0  0  0  0  0  0
  -25.1720  -27.8310   19.7910 C   0  0  0  0  0  3  0  0  0  0  0  0
  -23.8230  -29.9290   20.3870 C   0  0  0  0  0  2  0  0  0  0  0  0
  -24.8080  -31.2530   22.3170 N   0  0  0  0  0  0  0  0  0  0  0  0
  -23.6190  -32.2960   23.9410 O   0  0  0  0  0  0  0  0  0  0  0  0
  -22.9330  -29.5790   22.7130 C   0  0  0  0  0  0  0  0  0  0  0  0
  -21.6330  -29.3120   22.5190 N   0  0  0  0  0  0  0  0  0  0  0  0
  -23.6080  -29.0180   23.5820 O   0  0  0  0  0  0  0  0  0  0  0  0
  -21.1490  -29.8200   21.7920 H   0  0  0  0  0  0  0  0  0  0  0  0
  -18.3410  -27.8460   22.7960 C   0  0  0  0  0  0  0  0  0  0  0  0
  -20.8310  -28.3450   23.2690 C   0  0  0  0  0  3  0  0  0  0  0  0
  -21.1060  -26.9000   22.7890 C   0  0  0  0  0  2  0  0  0  0  0  0
  -20.1330  -26.4290   21.7040 C   0  0  0  0  0  2  0  0  0  0  0  0
  -18.6900  -26.4840   22.2150 C   0  0  0  0  0  2  0  0  0  0  0  0
  -19.3470  -28.7260   23.2720 C   0  0  0  0  0  0  0  0  0  0  0  0
  -18.9710  -29.9940   23.7660 C   0  0  0  0  0  3  0  0  0  0  0  0
  -17.6210  -30.3890   23.7860 C   0  0  0  0  0  3  0  0  0  0  0  0
  -16.6270  -29.5080   23.3270 C   0  0  0  0  0  3  0  0  0  0  0  0
  -16.9870  -28.2390   22.8410 C   0  0  0  0  0  3  0  0  0  0  0  0
  -25.9760  -32.7190   24.0550 C   0  0  0  0  0  3  0  0  0  0  0  0
  -26.4770  -31.9860   25.3590 C   0  0  1  0  0  0  0  0  0  0  0  0
  -25.3580  -31.7120   26.3910 C   0  0  0  0  0  1  0  0  0  0  0  0
  -27.1300  -30.6290   25.0030 C   0  0  0  0  0  1  0  0  0  0  0  0
  -27.5770  -32.8300   26.0470 C   0  0  0  0  0  1  0  0  0  0  0  0
  -25.6380  -34.1190   24.3460 N   0  0  0  0  0  0  0  0  0  0  0  0
  -25.9630  -35.1580   23.5610 C   0  0  0  0  0  0  0  0  0  0  0  0
  -26.6490  -35.0370   22.5440 O   0  0  0  0  0  0  0  0  0  0  0  0
  -25.0370  -34.2840   25.1400 H   0  0  0  0  0  0  0  0  0  0  0  0
  -24.1980  -36.8960   23.1380 C   0  0  0  0  0  1  0  0  0  0  0  0
  -25.4410  -36.5490   23.9730 C   0  0  0  0  0  3  0  0  0  0  0  0
  -27.5480  -37.5000   24.7940 C   0  0  0  0  0  1  0  0  0  0  0  0
  -26.4520  -37.6190   23.8370 N   0  0  0  0  0  0  0  0  0  0  0  0
  -26.0260  -38.5330   23.9560 H   0  0  0  0  0  0  0  0  0  0  0  0
  3  6  1  0
  3  1  1  0
  4  8  1  0
  4  6  1  0
  4  2  1  0
  5 15  1  0
  5  1  1  0
  5  2  1  0
  6 60  1  0
  6  7  1  6
  9 11  2  0
  9 10  1  0
 10 12  2  0
 11 13  1  0
 12 14  1  0
 13 14  2  0
 14  8  1  0
 16 17  1  0
 16 15  1  0
 17 20  1  0
 18 19  1  0
 19 17  1  0
 20 21  1  0
 21 30  1  0
 22 30  1  0
 23 28  1  0
 24 25  1  0
 24 23  1  0
 26 25  1  0
 26 35  1  0
 26 27  1  0
 28 22  1  0
 28 27  1  0
 29 22  2  0
 30 31  1  0
 32 33  2  0
 33 52  1  0
 34 33  1  0
 34 37  1  0
 35 32  1  0
 35 36  1  0
 36 34  2  0
 37 38  1  0
 38 39  2  0
 40 43  1  0
 40 39  1  0
 41 40  2  0
 42 41  1  0
 42 37  2  0
 43 44  1  0
 44 45  1  0
 45 46  2  0
 47 46  1  0
 47 51  1  0
 48 47  2  0
 49 44  2  0
 49 48  1  0
 50 49  1  0
 52 53  1  0
 53 56  1  0
 53 55  1  0
 54 52  2  0
 57 58  1  0
 57 32  1  0
 59 57  1  0
 60 61  1  0
 62 61  1  0
 63 74  2  0
 64 62  1  0
 64 69  1  0
 65 73  1  0
 65 75  1  0
 66 72  1  0
 66 68  1  0
 67 73  1  0
 68 69  2  0
 68 67  1  0
 70 64  2  0
 71 70  1  0
 71 66  2  0
 72 65  1  0
 73 63  1  0
 75 77  2  0
 76 75  1  0
 78 76  1  0
 79 88  2  0
 79 84  1  0
 80 76  1  0
 80 84  1  0
 81 80  1  0
 82 83  1  0
 82 81  1  0
 83 79  1  0
 84 85  2  0
 85 86  1  0
 87 86  2  0
 88 87  1  0
 89 63  1  0
 89 94  1  0
 89 90  1  0
 90 93  1  1
 90 91  1  0
 92 90  1  0
 94 97  1  0
 95 99  1  0
 95 94  1  0
 96 95  2  0
 99 98  1  0
101102  1  0
101 99  1  0
101100  1  0
M  ISO  4  22 100  30 100  61 101  62 101
M  END
>  <TORSDO>  (65) 
F 26

>  <SCORE>  (65) 
-12.295

>  <name>  (65) 
65

>  <ligand_id>  (65) 
65

>  <original_smiles>  (65) 
[H]c1c([H])c([H])c(C([H])([H])C2([H])C([H])([H])N(C([H])([H])C([H])([H])N(C([H])([H])C([H])([H])[H])C([H])([H])C([H])([H])N([H])C(=O)N3C([H])([H])C([H])([H])C([H])([H])C([H])(n4nc(-c5c([H])c([H])c(Oc6c([H])c([H])c(F)c([H])c6F)c([H])c5[H])c(C(=O)N([H])[H])c4N([H])[H])C3([H])[H])C([H])([H])C([H])([H])[N+]2([H])C([H])([H])C([H])([H])Oc2c([H])c([H])c3c(c2[H])C([H])([H])N(C(=O)C([H])(N([H])C(=O)C([H])(N([H])C([H])([H])[H])C([H])([H])[H])C(C([H])([H])[H])(C([H])([H])[H])C([H])([H])[H])C([H])(C(=O)N([H])C2([H])c4c([H])c([H])c([H])c([H])c4C([H])([H])C([H])([H])C2([H])[H])C3([H])[H])c([H])c1[H]

>  <smiles>  (65) 
[H]c1c([H])c([H])c(C([H])([H])C2([H])C([H])([H])N(C([H])([H])C([H])([H])N(C([H])([H])C([H])([H])[H])C([H])([H])C([H])([H])N([H])C(=O)N3C([H])([H])C([H])([H])C([H])([H])C([H])(n4nc(-c5c([H])c([H])c(Oc6c([H])c([H])c(F)c([H])c6F)c([H])c5[H])c(C(=O)N([H])[H])c4N([H])[H])C3([H])[H])C([H])([H])C([H])([H])[N+]2([H])C([H])([H])C([H])([H])Oc2c([H])c([H])c3c(c2[H])C([H])([H])N(C(=O)C([H])(N([H])C(=O)C([H])(N([H])C([H])([H])[H])C([H])([H])[H])C(C([H])([H])[H])(C([H])([H])[H])C([H])([H])[H])C([H])(C(=O)N([H])C2([H])c4c([H])c([H])c([H])c([H])c4C([H])([H])C([H])([H])C2([H])[H])C3([H])[H])c([H])c1[H]

$$$$
66:0:0
     RDKit          3D

 94104  0  0  1  0  0  0  0  0999 V2000
  -31.2130  -15.4780   19.5450 C   0  0  0  0  0  0  0  0  0  0  0  0
  -31.0700  -12.9310   18.8150 C   0  0  0  0  0  2  0  0  0  0  0  0
  -30.0610  -12.5600   17.6960 C   0  0  0  0  0  2  0  0  0  0  0  0
  -28.6650  -12.3120   18.2870 C   0  0  0  0  0  2  0  0  0  0  0  0
  -28.3040  -13.3730   19.3530 C   0  0  0  0  0  3  0  0  0  0  0  0
  -29.4420  -13.6570   20.3610 C   0  0  0  0  0  2  0  0  0  0  0  0
  -30.5840  -14.1680   19.5750 N   0  0  0  0  0  0  0  0  0  0  0  0
  -32.4220  -15.3180   19.2860 O   0  0  0  0  0  0  0  0  0  0  0  0
  -30.1970  -19.3390   24.5360 C   0  0  0  0  0  3  0  0  0  0  0  0
  -30.4580  -18.9810   23.2640 C   0  0  0  0  0  3  0  0  0  0  0  0
  -30.1120  -20.8180   19.7790 C   0  0  0  0  0  0  0  0  0  0  0  0
  -30.0610  -22.3710   19.8690 C   0  0  0  0  0  0  0  0  0  0  0  0
  -30.4550  -20.7240   25.0820 C   0  0  0  0  0  2  0  0  0  0  0  0
  -29.5590  -19.6450   18.7690 C   0  0  0  0  0  3  0  0  0  0  0  0
  -30.9550  -23.0780   20.8810 C   0  0  0  0  0  3  0  0  0  0  0  0
  -31.3600  -21.5190   24.1350 C   0  0  0  0  0  2  0  0  0  0  0  0
  -31.8250  -22.2110   21.7650 C   0  0  0  0  0  2  0  0  0  0  0  0
  -30.0740  -17.9610   18.6140 C   0  0  0  0  0  2  0  0  0  0  0  0
  -31.3020  -18.1110   20.4160 C   0  0  0  0  0  3  0  0  0  0  0  0
  -30.5580  -19.5980   20.8410 C   0  0  0  0  0  0  0  0  0  0  0  0
  -30.9420  -21.3480   22.6590 C   0  0  0  0  0  3  0  0  0  0  0  0
  -30.6250  -16.9110   19.6810 N   0  0  0  0  0  0  0  0  0  0  0  0
  -31.0270  -19.9340   22.2340 N   0  0  1  0  0  4  0  0  0  0  0  0
  -32.0210  -19.7630   22.2060 H   0  0  0  0  0  0  0  0  0  0  0  0
  -26.0920  -14.0500   20.3990 C   0  0  0  0  0  0  0  0  0  0  0  0
  -25.0130  -13.3360   20.8360 C   0  0  0  0  0  0  0  0  0  0  0  0
  -25.3630  -11.9580   20.6900 C   0  0  0  0  0  0  0  0  0  0  0  0
  -27.0270  -13.1150   19.9980 N   0  0  0  0  0  0  0  0  0  0  0  0
  -26.6090  -11.8450   20.2410 N   0  0  0  0  0  0  0  0  0  0  0  0
  -24.5550  -10.7490   20.8950 C   0  0  0  0  0  0  0  0  0  0  0  0
  -24.9340   -9.7530   21.8220 C   0  0  0  0  0  3  0  0  0  0  0  0
  -24.1270   -8.6110   22.0170 C   0  0  0  0  0  3  0  0  0  0  0  0
  -22.9260   -8.4560   21.2850 C   0  0  0  0  0  0  0  0  0  0  0  0
  -22.5640   -9.4390   20.3470 C   0  0  0  0  0  3  0  0  0  0  0  0
  -23.3710  -10.5720   20.1500 C   0  0  0  0  0  3  0  0  0  0  0  0
  -22.0930   -7.3680   21.3890 O   0  0  0  0  0  0  0  0  0  0  0  0
  -21.9510   -6.6810   22.5680 C   0  0  0  0  0  0  0  0  0  0  0  0
  -21.4320   -7.2920   23.7300 C   0  0  0  0  0  3  0  0  0  0  0  0
  -21.2370   -6.5300   24.8990 C   0  0  0  0  0  3  0  0  0  0  0  0
  -21.5540   -5.1590   24.9080 C   0  0  0  0  0  0  0  0  0  0  0  0
  -22.0660   -4.5470   23.7510 C   0  0  0  0  0  3  0  0  0  0  0  0
  -22.2620   -5.3060   22.5830 C   0  0  0  0  0  0  0  0  0  0  0  0
  -22.7350   -4.7060   21.4640 F   0  0  0  0  0  0  0  0  0  0  0  0
  -21.3620   -4.4250   26.0290 F   0  0  0  0  0  0  0  0  0  0  0  0
  -23.6950  -13.9070   21.2700 C   0  0  0  0  0  0  0  0  0  0  0  0
  -23.0410  -13.2700   22.2350 N   0  0  0  0  0  0  0  0  0  0  0  0
  -23.2630  -14.9520   20.7870 O   0  0  0  0  0  0  0  0  0  0  0  0
  -23.4080  -12.4240   22.6430 H   0  0  0  0  0  0  0  0  0  0  0  0
  -22.1590  -13.6350   22.5670 H   0  0  0  0  0  0  0  0  0  0  0  0
  -26.3500  -15.4130   20.2750 N   0  0  0  0  0  0  0  0  0  0  0  0
  -25.6600  -16.1150   20.5160 H   0  0  0  0  0  0  0  0  0  0  0  0
  -27.2030  -15.8080   19.9030 H   0  0  0  0  0  0  0  0  0  0  0  0
  -29.3010  -23.8870   19.1790 C   0  0  0  0  0  2  0  0  0  0  0  0
  -29.2170  -25.5440   19.7010 O   0  0  0  0  0  0  0  0  0  0  0  0
  -24.9340  -31.0600   22.9590 C   0  0  0  0  0  0  0  0  0  0  0  0
  -28.1230  -26.6290   19.6610 C   0  0  0  0  0  0  0  0  0  0  0  0
  -23.9700  -29.7040   21.1450 C   0  0  0  0  0  3  0  0  0  0  0  0
  -25.6470  -28.3720   19.6610 C   0  0  0  0  0  0  0  0  0  0  0  0
  -26.5150  -30.1460   21.1610 C   0  0  0  0  0  2  0  0  0  0  0  0
  -26.7620  -28.8020   20.3850 C   0  0  0  0  0  0  0  0  0  0  0  0
  -27.9850  -27.9560   20.3590 C   0  0  0  0  0  3  0  0  0  0  0  0
  -26.9560  -26.3960   18.8920 C   0  0  0  0  0  3  0  0  0  0  0  0
  -25.7760  -27.1990   18.8940 C   0  0  0  0  0  3  0  0  0  0  0  0
  -24.3380  -29.1720   19.7290 C   0  0  0  0  0  2  0  0  0  0  0  0
  -25.1570  -30.3320   21.8130 N   0  0  0  0  0  0  0  0  0  0  0  0
  -23.7960  -31.1900   23.4410 O   0  0  0  0  0  0  0  0  0  0  0  0
  -23.3340  -28.5660   21.9890 C   0  0  0  0  0  0  0  0  0  0  0  0
  -22.0360  -28.2750   21.7800 N   0  0  0  0  0  0  0  0  0  0  0  0
  -24.0210  -27.9480   22.8060 O   0  0  0  0  0  0  0  0  0  0  0  0
  -21.5230  -28.8350   21.1130 H   0  0  0  0  0  0  0  0  0  0  0  0
  -18.7900  -26.6560   22.0000 C   0  0  0  0  0  0  0  0  0  0  0  0
  -21.2900  -27.1860   22.4230 C   0  0  0  0  0  3  0  0  0  0  0  0
  -21.5800  -25.8300   21.7370 C   0  0  0  0  0  2  0  0  0  0  0  0
  -20.5710  -25.4810   20.6400 C   0  0  0  0  0  2  0  0  0  0  0  0
  -19.1540  -25.4080   21.2160 C   0  0  0  0  0  2  0  0  0  0  0  0
  -19.7930  -27.5000   22.5530 C   0  0  0  0  0  0  0  0  0  0  0  0
  -19.3990  -28.6640   23.2490 C   0  0  0  0  0  3  0  0  0  0  0  0
  -18.0380  -28.9890   23.3940 C   0  0  0  0  0  3  0  0  0  0  0  0
  -17.0500  -28.1460   22.8570 C   0  0  0  0  0  3  0  0  0  0  0  0
  -17.4270  -26.9800   22.1660 C   0  0  0  0  0  3  0  0  0  0  0  0
  -26.0950  -31.7750   23.7160 C   0  0  0  0  0  3  0  0  0  0  0  0
  -25.6450  -33.1340   24.0720 N   0  0  0  0  0  0  0  0  0  0  0  0
  -25.9310  -34.2470   23.3830 C   0  0  0  0  0  0  0  0  0  0  0  0
  -26.6620  -34.2430   22.3900 O   0  0  0  0  0  0  0  0  0  0  0  0
  -24.9990  -33.2060   24.8440 H   0  0  0  0  0  0  0  0  0  0  0  0
  -24.0810  -35.9170   23.0180 C   0  0  0  0  0  1  0  0  0  0  0  0
  -25.3120  -35.5740   23.8720 C   0  0  0  0  0  3  0  0  0  0  0  0
  -27.3170  -36.6000   24.8520 C   0  0  0  0  0  1  0  0  0  0  0  0
  -26.2590  -36.7110   23.8520 N   0  0  0  0  0  0  0  0  0  0  0  0
  -25.7690  -37.5890   24.0070 H   0  0  0  0  0  0  0  0  0  0  0  0
  -26.5520  -31.0040   25.0170 C   0  0  1  0  0  0  0  0  0  0  0  0
  -25.3900  -30.6760   25.9840 C   0  0  0  0  0  1  0  0  0  0  0  0
  -27.2520  -29.6740   24.6580 C   0  0  0  0  0  1  0  0  0  0  0  0
  -27.5930  -31.8500   25.7880 C   0  0  0  0  0  1  0  0  0  0  0  0
  1  7  1  0
  1 22  1  0
  2  7  1  0
  3  4  1  0
  3  2  1  0
  5  4  1  0
  5 28  1  0
  5  6  1  0
  7  6  1  0
  8  1  2  0
  9 13  1  0
 10  9  2  0
 11 12  1  0
 11 20  1  0
 12 15  2  0
 14 11  2  0
 15 17  1  0
 16 13  1  0
 18 14  1  0
 18 22  1  0
 19 20  2  0
 20 23  1  0
 21 17  1  0
 21 16  1  0
 22 19  1  0
 23 21  1  0
 23 10  1  0
 23 24  1  6
 25 26  2  0
 26 45  1  0
 27 26  1  0
 27 30  1  0
 28 29  1  0
 28 25  1  0
 29 27  2  0
 30 31  1  0
 31 32  2  0
 33 36  1  0
 33 32  1  0
 34 33  2  0
 35 34  1  0
 35 30  2  0
 36 37  1  0
 37 42  2  0
 37 38  1  0
 38 39  2  0
 39 40  1  0
 40 44  1  0
 41 40  2  0
 42 41  1  0
 43 42  1  0
 45 46  1  0
 46 49  1  0
 46 48  1  0
 47 45  2  0
 50 25  1  0
 50 51  1  0
 52 50  1  0
 53 54  1  0
 53 12  1  0
 55 66  2  0
 56 54  1  0
 56 61  1  0
 57 65  1  0
 57 67  1  0
 58 64  1  0
 58 60  1  0
 59 65  1  0
 60 59  1  0
 61 60  2  0
 62 63  1  0
 62 56  2  0
 63 58  2  0
 64 57  1  0
 65 55  1  0
 67 69  2  0
 68 67  1  0
 70 68  1  0
 71 80  2  0
 71 76  1  0
 72 68  1  0
 72 76  1  0
 73 72  1  0
 74 75  1  0
 74 73  1  0
 75 71  1  0
 76 77  2  0
 77 78  1  0
 79 78  2  0
 80 79  1  0
 81 55  1  0
 81 82  1  0
 81 91  1  0
 82 85  1  0
 83 87  1  0
 83 82  1  0
 84 83  2  0
 87 86  1  0
 89 87  1  0
 89 90  1  0
 89 88  1  0
 91 94  1  1
 91 92  1  0
 93 91  1  0
M  ISO  4   1 100  22 100  53 101  54 101
M  END
>  <TORSDO>  (66) 
F 16

>  <SCORE>  (66) 
-11.613

>  <name>  (66) 
66

>  <ligand_id>  (66) 
66

>  <original_smiles>  (66) 
[H]C1=C([H])[N+]2([H])C3([H])C(=C(C([H])([H])Oc4c([H])c([H])c5c(c4[H])C([H])([H])N(C(=O)C([H])(N([H])C(=O)C([H])(N([H])C([H])([H])[H])C([H])([H])[H])C(C([H])([H])[H])(C([H])([H])[H])C([H])([H])[H])C([H])(C(=O)N([H])C4([H])c6c([H])c([H])c([H])c([H])c6C([H])([H])C([H])([H])C4([H])[H])C5([H])[H])C([H])([H])C([H])([H])C2([H])C([H])([H])C1([H])[H])C([H])([H])C([H])([H])N(C(=O)N1C([H])([H])C([H])([H])C([H])([H])C([H])(n2nc(-c4c([H])c([H])c(Oc5c([H])c([H])c(F)c([H])c5F)c([H])c4[H])c(C(=O)N([H])[H])c2N([H])[H])C1([H])[H])C3([H])[H]

>  <smiles>  (66) 
[H]C1=C([H])[N+]2([H])C3([H])C(=C(C([H])([H])Oc4c([H])c([H])c5c(c4[H])C([H])([H])N(C(=O)C([H])(N([H])C(=O)C([H])(N([H])C([H])([H])[H])C([H])([H])[H])C(C([H])([H])[H])(C([H])([H])[H])C([H])([H])[H])C([H])(C(=O)N([H])C4([H])c6c([H])c([H])c([H])c([H])c6C([H])([H])C([H])([H])C4([H])[H])C5([H])[H])C([H])([H])C([H])([H])C2([H])C([H])([H])C1([H])[H])C([H])([H])C([H])([H])N(C(=O)N1C([H])([H])C([H])([H])C([H])([H])C([H])(n2nc(-c4c([H])c([H])c(Oc5c([H])c([H])c(F)c([H])c5F)c([H])c4[H])c(C(=O)N([H])[H])c2N([H])[H])C1([H])[H])C3([H])[H]

$$$$
67:0:0
     RDKit          3D

101106  0  0  1  0  0  0  0  0999 V2000
  -25.5450  -17.6420   22.4640 C   0  0  0  0  0  2  0  0  0  0  0  0
  -25.0250  -16.6950   23.4730 N   0  0  0  0  0  4  0  0  0  0  0  0
  -25.7080  -16.5620   24.2020 H   0  0  0  0  0  0  0  0  0  0  0  0
  -24.2260  -17.1250   23.9110 H   0  0  0  0  0  0  0  0  0  0  0  0
  -24.5700  -15.3780   22.9690 C   0  0  0  0  0  2  0  0  0  0  0  0
  -25.5800  -14.6230   22.1380 C   0  0  0  0  0  2  0  0  0  0  0  0
  -25.1420  -14.0370   21.0150 N   0  0  0  0  0  1  0  0  0  0  0  0
  -26.8720  -14.5200   22.5190 N   0  0  0  0  0  0  0  0  0  0  0  0
  -24.1660  -14.1060   20.7670 H   0  0  0  0  0 15  0  0  0  0  0  0
  -25.7080  -13.4140   20.4660 H   0  0  0  0  0  0  0  0  0  0  0  0
  -27.1510  -14.9030   23.4110 H   0  0  0  0  0  0  0  0  0  0  0  0
  -27.9590  -13.8150   21.8150 C   0  0  0  0  0  2  0  0  0  0  0  0
  -28.7230  -14.7330   20.8380 C   0  0  0  0  0  2  0  0  0  0  0  0
  -30.0000  -13.1130   19.3570 C   0  0  0  0  0  0  0  0  0  0  0  0
  -29.8890  -10.6950   18.8690 C   0  0  0  0  0  2  0  0  0  0  0  0
  -28.8300  -10.3500   17.8030 C   0  0  0  0  0  2  0  0  0  0  0  0
  -27.4330  -10.1740   18.4290 C   0  0  0  0  0  2  0  0  0  0  0  0
  -27.0750  -11.3300   19.3950 C   0  0  0  0  0  3  0  0  0  0  0  0
  -28.2320  -11.5970   20.3780 C   0  0  0  0  0  2  0  0  0  0  0  0
  -29.4550  -11.8910   19.6120 N   0  0  0  0  0  0  0  0  0  0  0  0
  -30.8270  -13.3020   18.4600 O   0  0  0  0  0  0  0  0  0  0  0  0
  -29.9070  -14.0440   20.3200 N   0  0  0  0  0  0  0  0  0  0  0  0
  -30.6830  -14.6860   20.2440 H   0  0  0  0  0  0  0  0  0  0  0  0
  -24.8430  -11.9590   20.5210 C   0  0  0  0  0  3  0  0  0  0  0  0
  -23.8470  -11.1970   21.0770 C   0  0  0  0  0  0  0  0  0  0  0  0
  -24.2840   -9.8430   20.9620 C   0  0  0  0  0  0  0  0  0  0  0  0
  -25.8210  -11.0700   20.1060 N   0  0  0  0  0  0  0  0  0  0  0  0
  -25.4990   -9.7910   20.4270 N   0  0  0  0  0  0  0  0  0  0  0  0
  -23.5910   -8.5870   21.2830 C   0  0  0  0  0  0  0  0  0  0  0  0
  -24.1410   -7.6510   22.1830 C   0  0  0  0  0  3  0  0  0  0  0  0
  -23.4490   -6.4570   22.4860 C   0  0  0  0  0  3  0  0  0  0  0  0
  -22.1930   -6.1930   21.8850 C   0  0  0  0  0  0  0  0  0  0  0  0
  -21.6610   -7.1190   20.9720 C   0  0  0  0  0  3  0  0  0  0  0  0
  -22.3510   -8.3050   20.6730 C   0  0  0  0  0  3  0  0  0  0  0  0
  -21.4660   -5.0480   22.0970 O   0  0  0  0  0  0  0  0  0  0  0  0
  -21.5590   -4.3440   23.2700 C   0  0  0  0  0  0  0  0  0  0  0  0
  -21.1900   -4.9070   24.5110 C   0  0  0  0  0  3  0  0  0  0  0  0
  -21.2530   -4.1300   25.6850 C   0  0  0  0  0  3  0  0  0  0  0  0
  -21.6610   -2.7850   25.6140 C   0  0  0  0  0  0  0  0  0  0  0  0
  -22.0120   -2.2150   24.3780 C   0  0  0  0  0  3  0  0  0  0  0  0
  -21.9660   -2.9960   23.2100 C   0  0  0  0  0  0  0  0  0  0  0  0
  -22.2980   -2.4400   22.0180 F   0  0  0  0  0  0  0  0  0  0  0  0
  -21.7080   -2.0310   26.7370 F   0  0  0  0  0  0  0  0  0  0  0  0
  -22.5250  -11.6860   21.6030 C   0  0  0  0  0  0  0  0  0  0  0  0
  -21.9730  -11.0010   22.6010 N   0  0  0  0  0  0  0  0  0  0  0  0
  -22.0010  -12.7090   21.1650 O   0  0  0  0  0  0  0  0  0  0  0  0
  -22.4130  -10.1800   22.9900 H   0  0  0  0  0  0  0  0  0  0  0  0
  -21.0960  -11.3040   23.0000 H   0  0  0  0  0  0  0  0  0  0  0  0
  -25.0000  -13.3240   20.3270 N   0  0  0  0  0  4  0  0  0  0  0  0
  -24.2410  -13.9790   20.4890 H   0  0  0  0  0  0  0  0  0  0  0  0
  -25.7520  -13.7150   19.7770 H   0  0  0  0  0  0  0  0  0  0  0  0
  -26.4890  -18.6800   23.1190 C   0  0  0  0  0  2  0  0  0  0  0  0
  -27.3060  -19.5000   22.0990 C   0  0  0  0  0  2  0  0  0  0  0  0
  -28.6560  -20.0450   22.6270 C   0  0  0  0  0  2  0  0  0  0  0  0
  -29.2820  -20.9420   21.6270 N   0  0  0  0  0  4  0  0  0  0  0  0
  -28.6590  -21.7010   21.4120 H   0  0  0  0  0  0  0  0  0  0  0  0
  -29.3820  -20.4010   20.7840 H   0  0  0  0  0  0  0  0  0  0  0  0
  -30.6330  -21.4810   21.9230 C   0  0  0  0  0  2  0  0  0  0  0  0
  -30.6340  -22.9940   22.2670 C   0  0  0  0  0  2  0  0  0  0  0  0
  -31.7790  -23.7650   21.5540 C   0  0  0  0  0  2  0  0  0  0  0  0
  -31.8060  -25.1900   21.7560 O   0  0  0  0  0  0  0  0  0  0  0  0
  -28.0950  -30.7910   23.9760 C   0  0  0  0  0  0  0  0  0  0  0  0
  -30.6970  -25.9720   21.5040 C   0  0  0  0  0  0  0  0  0  0  0  0
  -26.9750  -29.3890   22.2710 C   0  0  0  0  0  3  0  0  0  0  0  0
  -28.4540  -27.6590   21.1170 C   0  0  0  0  0  0  0  0  0  0  0  0
  -29.5300  -29.5420   22.3630 C   0  0  0  0  0  2  0  0  0  0  0  0
  -29.5720  -28.1310   21.8130 C   0  0  0  0  0  0  0  0  0  0  0  0
  -30.6930  -27.2940   22.0000 C   0  0  0  0  0  3  0  0  0  0  0  0
  -29.5690  -25.5170   20.7820 C   0  0  0  0  0  3  0  0  0  0  0  0
  -28.4500  -26.3520   20.5980 C   0  0  0  0  0  3  0  0  0  0  0  0
  -27.2860  -28.6060   20.9670 C   0  0  0  0  0  2  0  0  0  0  0  0
  -28.2130  -29.9250   22.9290 N   0  0  0  0  0  0  0  0  0  0  0  0
  -26.9840  -31.1780   24.3650 O   0  0  0  0  0  0  0  0  0  0  0  0
  -26.1310  -28.4870   23.1990 C   0  0  0  0  0  0  0  0  0  0  0  0
  -24.8210  -28.3910   22.9130 N   0  0  0  0  0  0  0  0  0  0  0  0
  -26.6560  -27.8680   24.1290 O   0  0  0  0  0  0  0  0  0  0  0  0
  -24.4650  -28.9300   22.1350 H   0  0  0  0  0  0  0  0  0  0  0  0
  -21.3080  -27.5730   23.1180 C   0  0  0  0  0  0  0  0  0  0  0  0
  -23.8430  -27.5680   23.6240 C   0  0  0  0  0  3  0  0  0  0  0  0
  -23.8440  -26.1180   23.0890 C   0  0  0  0  0  2  0  0  0  0  0  0
  -22.8100  -25.8820   21.9830 C   0  0  0  0  0  2  0  0  0  0  0  0
  -21.3990  -26.1920   22.4910 C   0  0  0  0  0  2  0  0  0  0  0  0
  -22.4580  -28.2250   23.6360 C   0  0  0  0  0  0  0  0  0  0  0  0
  -22.3230  -29.5210   24.1770 C   0  0  0  0  0  3  0  0  0  0  0  0
  -21.0720  -30.1630   24.2090 C   0  0  0  0  0  3  0  0  0  0  0  0
  -19.9330  -29.5070   23.7090 C   0  0  0  0  0  3  0  0  0  0  0  0
  -20.0520  -28.2130   23.1700 C   0  0  0  0  0  3  0  0  0  0  0  0
  -29.3480  -31.3570   24.7160 C   0  0  0  0  0  3  0  0  0  0  0  0
  -29.1010  -32.7810   24.9770 N   0  0  0  0  0  0  0  0  0  0  0  0
  -29.5930  -33.7840   24.2390 C   0  0  0  0  0  0  0  0  0  0  0  0
  -30.3700  -33.6040   23.2960 O   0  0  0  0  0  0  0  0  0  0  0  0
  -28.4270  -33.0010   25.6960 H   0  0  0  0  0  0  0  0  0  0  0  0
  -28.0580  -35.6830   23.6320 C   0  0  0  0  0  1  0  0  0  0  0  0
  -29.1540  -35.2160   24.6030 C   0  0  0  0  0  3  0  0  0  0  0  0
  -31.2260  -35.9750   25.6830 C   0  0  0  0  0  1  0  0  0  0  0  0
  -30.2670  -36.1910   24.6010 N   0  0  0  0  0  0  0  0  0  0  0  0
  -29.9130  -37.1420   24.6730 H   0  0  0  0  0  0  0  0  0  0  0  0
  -29.6740  -30.5940   26.0580 C   0  0  1  0  0  0  0  0  0  0  0  0
  -28.4480  -30.4150   26.9850 C   0  0  0  0  0  1  0  0  0  0  0  0
  -30.2490  -29.1890   25.7600 C   0  0  0  0  0  1  0  0  0  0  0  0
  -30.7650  -31.3600   26.8440 C   0  0  0  0  0  1  0  0  0  0  0  0
  1 52  1  0
  1  2  1  0
  2  4  1  0
  2  3  1  0
  5  2  1  0
  6  8  1  0
  6  5  1  0
  8 11  1  0
 12  8  1  0
 13 12  1  0
 14 20  1  0
 14 22  1  0
 15 20  1  0
 16 17  1  0
 16 15  1  0
 18 17  1  0
 18 27  1  0
 18 19  1  0
 20 19  1  0
 21 14  2  0
 22 13  1  0
 23 22  1  0
 24 25  2  0
 25 44  1  0
 26 25  1  0
 26 29  1  0
 27 28  1  0
 27 24  1  0
 28 26  2  0
 29 30  1  0
 30 31  2  0
 32 35  1  0
 32 31  1  0
 33 32  2  0
 34 33  1  0
 34 29  2  0
 35 36  1  0
 36 37  1  0
 37 38  2  0
 39 38  1  0
 39 43  1  0
 40 39  2  0
 41 36  2  0
 41 40  1  0
 42 41  1  0
 44 45  1  0
 45 47  1  0
 45 48  1  0
 46 44  2  0
 49 10  1  0
 49 50  1  0
 49  7  1  0
 51 49  1  0
 53 54  1  0
 53 52  1  0
 55 58  1  0
 55 54  1  0
 56 55  1  0
 57 55  1  0
 58 59  1  0
 60 61  1  0
 60 59  1  0
 62 73  2  0
 63 61  1  0
 63 68  1  0
 64 72  1  0
 64 74  1  0
 65 67  1  0
 66 72  1  0
 67 68  2  0
 67 66  1  0
 69 63  2  0
 70 69  1  0
 70 65  2  0
 71 65  1  0
 71 64  1  0
 72 62  1  0
 74 76  2  0
 75 74  1  0
 77 75  1  0
 78 87  2  0
 78 83  1  0
 79 75  1  0
 79 83  1  0
 80 79  1  0
 81 82  1  0
 81 80  1  0
 82 78  1  0
 83 84  2  0
 84 85  1  0
 86 85  2  0
 87 86  1  0
 88 62  1  0
 88 89  1  0
 88 98  1  0
 89 92  1  0
 90 94  1  0
 90 89  1  0
 91 90  2  0
 94 93  1  0
 96 94  1  0
 96 97  1  0
 96 95  1  0
 98101  1  1
 98 99  1  0
100 98  1  0
M  ISO  4  14 100  22 100  60 101  61 101
M  END
>  <TORSDO>  (67) 
F 28

>  <SCORE>  (67) 
27.264

>  <name>  (67) 
67

>  <ligand_id>  (67) 
67

>  <original_smiles>  (67) 
[H]c1c([H])c([H])c2c(c1[H])C([H])([H])C([H])([H])C([H])([H])C2([H])N([H])C(=O)C1([H])N(C(=O)C([H])(N([H])C(=O)C([H])(N([H])C([H])([H])[H])C([H])([H])[H])C(C([H])([H])[H])(C([H])([H])[H])C([H])([H])[H])C([H])([H])c2c([H])c(OC([H])([H])C([H])([H])C([H])([H])[N+]([H])([H])C([H])([H])C([H])([H])C([H])([H])C([H])([H])[N+]([H])([H])C([H])([H])C(N([H])[H])=[N+]([H])C([H])([H])C([H])([H])N([H])C(=O)N3C([H])([H])C([H])([H])C([H])([H])C([H])(n4nc(-c5c([H])c([H])c(Oc6c([H])c([H])c(F)c([H])c6F)c([H])c5[H])c(C(=O)N([H])[H])c4N([H])[H])C3([H])[H])c([H])c([H])c2C1([H])[H]

>  <smiles>  (67) 
[H]c1c([H])c([H])c2c(c1[H])C([H])([H])C([H])([H])C([H])([H])C2([H])N([H])C(=O)C1([H])N(C(=O)C([H])(N([H])C(=O)C([H])(N([H])C([H])([H])[H])C([H])([H])[H])C(C([H])([H])[H])(C([H])([H])[H])C([H])([H])[H])C([H])([H])c2c([H])c(OC([H])([H])C([H])([H])C([H])([H])[N+]([H])([H])C([H])([H])C([H])([H])C([H])([H])C([H])([H])[N+]([H])([H])C([H])([H])C(N([H])[H])=[N+]([H])C([H])([H])C([H])([H])N([H])C(=O)N3C([H])([H])C([H])([H])C([H])([H])C([H])(n4nc(-c5c([H])c([H])c(Oc6c([H])c([H])c(F)c([H])c6F)c([H])c5[H])c(C(=O)N([H])[H])c4N([H])[H])C3([H])[H])c([H])c([H])c2C1([H])[H]

$$$$
68:0:0
     RDKit          3D

103111  0  0  1  0  0  0  0  0999 V2000
  -29.6190  -18.6250   20.3850 C   0  0  0  0  0  3  0  0  0  0  0  0
  -28.4100  -22.3130   21.1760 C   0  0  0  0  0  2  0  0  0  0  0  0
  -30.7410  -22.3960   21.0230 C   0  0  0  0  0  2  0  0  0  0  0  0
  -28.3990  -20.8490   20.6140 C   0  0  0  0  0  2  0  0  0  0  0  0
  -30.8150  -20.9340   20.4550 C   0  0  0  0  0  2  0  0  0  0  0  0
  -29.5140  -23.1190   20.6220 N   0  0  0  0  0  0  0  0  0  0  0  0
  -29.6600  -20.0800   20.8860 N   0  0  2  0  0  4  0  0  0  0  0  0
  -29.7100  -20.0500   21.8920 H   0  0  0  0  0  0  0  0  0  0  0  0
  -29.5230  -24.5410   21.1000 C   0  0  0  0  0  3  0  0  0  0  0  0
  -28.4180  -25.5020   20.5120 C   0  0  0  0  0  3  0  0  0  0  0  0
  -28.5570  -26.9410   20.7800 O   0  0  0  0  0  0  0  0  0  0  0  0
  -24.7250  -32.3310   23.5970 C   0  0  0  0  0  0  0  0  0  0  0  0
  -27.4100  -27.7370   20.6960 C   0  0  0  0  0  0  0  0  0  0  0  0
  -23.5430  -30.8660   21.9980 C   0  0  0  0  0  3  0  0  0  0  0  0
  -25.0170  -29.2930   20.6300 C   0  0  0  0  0  0  0  0  0  0  0  0
  -26.0750  -31.2180   21.8100 C   0  0  0  0  0  2  0  0  0  0  0  0
  -26.1750  -29.8230   21.2110 C   0  0  0  0  0  0  0  0  0  0  0  0
  -27.3730  -29.0570   21.2350 C   0  0  0  0  0  3  0  0  0  0  0  0
  -26.2270  -27.2510   20.0900 C   0  0  0  0  0  3  0  0  0  0  0  0
  -25.0430  -28.0090   20.0620 C   0  0  0  0  0  3  0  0  0  0  0  0
  -23.7680  -30.1480   20.6430 C   0  0  0  0  0  2  0  0  0  0  0  0
  -24.8000  -31.4900   22.5260 N   0  0  0  0  0  0  0  0  0  0  0  0
  -23.6370  -32.6140   24.1190 O   0  0  0  0  0  0  0  0  0  0  0  0
  -22.8900  -29.8730   22.9880 C   0  0  0  0  0  0  0  0  0  0  0  0
  -21.6200  -29.5160   22.7360 N   0  0  0  0  0  0  0  0  0  0  0  0
  -23.5310  -29.4210   23.9410 O   0  0  0  0  0  0  0  0  0  0  0  0
  -21.1590  -29.9370   21.9400 H   0  0  0  0  0  0  0  0  0  0  0  0
  -18.3860  -27.9110   22.9470 C   0  0  0  0  0  0  0  0  0  0  0  0
  -20.8230  -28.5650   23.5110 C   0  0  0  0  0  3  0  0  0  0  0  0
  -21.1890  -27.1070   23.1500 C   0  0  0  0  0  2  0  0  0  0  0  0
  -20.2980  -26.5150   22.0540 C   0  0  0  0  0  2  0  0  0  0  0  0
  -18.8290  -26.5330   22.4870 C   0  0  0  0  0  2  0  0  0  0  0  0
  -19.3230  -28.8710   23.4120 C   0  0  0  0  0  0  0  0  0  0  0  0
  -18.8620  -30.1480   23.7960 C   0  0  0  0  0  3  0  0  0  0  0  0
  -17.4940  -30.4730   23.7220 C   0  0  0  0  0  3  0  0  0  0  0  0
  -16.5690  -29.5150   23.2740 C   0  0  0  0  0  3  0  0  0  0  0  0
  -17.0140  -28.2360   22.8920 C   0  0  0  0  0  3  0  0  0  0  0  0
  -25.9990  -32.9970   24.2030 C   0  0  0  0  0  3  0  0  0  0  0  0
  -26.4850  -32.3080   25.5380 C   0  0  1  0  0  0  0  0  0  0  0  0
  -25.3530  -32.0770   26.5640 C   0  0  0  0  0  1  0  0  0  0  0  0
  -27.1380  -30.9390   25.2400 C   0  0  0  0  0  1  0  0  0  0  0  0
  -27.5710  -33.1790   26.2110 C   0  0  0  0  0  1  0  0  0  0  0  0
  -25.6910  -34.4150   24.4330 N   0  0  0  0  0  0  0  0  0  0  0  0
  -26.0160  -35.4100   23.5970 C   0  0  0  0  0  0  0  0  0  0  0  0
  -26.6790  -35.2320   22.5710 O   0  0  0  0  0  0  0  0  0  0  0  0
  -25.1040  -34.6270   25.2260 H   0  0  0  0  0  0  0  0  0  0  0  0
  -24.2680  -37.1620   23.1490 C   0  0  0  0  0  1  0  0  0  0  0  0
  -25.5320  -36.8280   23.9570 C   0  0  0  0  0  3  0  0  0  0  0  0
  -27.6840  -37.7820   24.6570 C   0  0  0  0  0  1  0  0  0  0  0  0
  -26.5550  -37.8730   23.7350 N   0  0  0  0  0  0  0  0  0  0  0  0
  -26.1470  -38.8010   23.8240 H   0  0  0  0  0  0  0  0  0  0  0  0
  -29.6680  -18.5980   18.8230 C   0  0  0  0  0  2  0  0  0  0  0  0
  -28.4550  -18.0140   18.0750 C   0  0  0  0  0  2  0  0  0  0  0  0
  -28.3040  -18.6010   16.6590 C   0  0  0  0  0  2  0  0  0  0  0  0
  -26.9720  -18.2240   15.9840 C   0  0  0  0  0  2  0  0  0  0  0  0
  -26.8050  -18.8790   14.6750 N   0  0  0  0  0  4  0  0  0  0  0  0
  -26.8100  -19.8780   14.7680 H   0  0  0  0  0  0  0  0  0  0  0  0
  -25.9260  -18.6110   14.2660 H   0  0  0  0  0  0  0  0  0  0  0  0
  -27.5360  -18.6080   14.0410 H   0  0  0  0  0  0  0  0  0  0  0  0
  -30.6600  -17.5800   21.0350 C   0  0  0  0  0  3  0  0  0  0  0  0
  -31.0100  -15.0280   20.6920 C   0  0  0  0  0  0  0  0  0  0  0  0
  -30.7840  -12.7800   19.6690 C   0  0  0  0  0  2  0  0  0  0  0  0
  -29.8990  -12.8840   18.4090 C   0  0  0  0  0  2  0  0  0  0  0  0
  -28.4060  -12.7590   18.7760 C   0  0  0  0  0  2  0  0  0  0  0  0
  -28.0040  -13.6690   19.9670 C   0  0  0  0  0  3  0  0  0  0  0  0
  -29.0090  -13.5440   21.1340 C   0  0  0  0  0  2  0  0  0  0  0  0
  -30.3480  -13.8350   20.6010 N   0  0  0  0  0  0  0  0  0  0  0  0
  -32.1950  -15.1430   20.3740 O   0  0  0  0  0  0  0  0  0  0  0  0
  -30.2460  -16.1270   20.9670 N   0  0  0  0  0  0  0  0  0  0  0  0
  -29.2680  -15.9280   21.1070 H   0  0  0  0  0  0  0  0  0  0  0  0
  -25.6270  -14.3410   20.6790 C   0  0  0  0  0  0  0  0  0  0  0  0
  -24.5120  -13.6000   20.9560 C   0  0  0  0  0  0  0  0  0  0  0  0
  -24.9020  -12.2330   20.8230 C   0  0  0  0  0  0  0  0  0  0  0  0
  -26.6300  -13.4260   20.3960 N   0  0  0  0  0  0  0  0  0  0  0  0
  -26.1960  -12.1490   20.5430 N   0  0  0  0  0  0  0  0  0  0  0  0
  -24.1060  -11.0020   20.8880 C   0  0  0  0  0  0  0  0  0  0  0  0
  -24.4470   -9.9470   21.7630 C   0  0  0  0  0  3  0  0  0  0  0  0
  -23.6550   -8.7810   21.8200 C   0  0  0  0  0  3  0  0  0  0  0  0
  -22.5080   -8.6610   21.0010 C   0  0  0  0  0  0  0  0  0  0  0  0
  -22.1850   -9.7040   20.1150 C   0  0  0  0  0  3  0  0  0  0  0  0
  -22.9780  -10.8630   20.0550 C   0  0  0  0  0  3  0  0  0  0  0  0
  -21.6930   -7.5550   20.9720 O   0  0  0  0  0  0  0  0  0  0  0  0
  -21.5260   -6.7550   22.0740 C   0  0  0  0  0  0  0  0  0  0  0  0
  -21.0430   -7.2670   23.2980 C   0  0  0  0  0  3  0  0  0  0  0  0
  -20.8190   -6.3970   24.3850 C   0  0  0  0  0  3  0  0  0  0  0  0
  -21.0670   -5.0180   24.2470 C   0  0  0  0  0  0  0  0  0  0  0  0
  -21.5440   -4.5070   23.0260 C   0  0  0  0  0  3  0  0  0  0  0  0
  -21.7690   -5.3730   21.9420 C   0  0  0  0  0  0  0  0  0  0  0  0
  -22.2070   -4.8730   20.7620 F   0  0  0  0  0  0  0  0  0  0  0  0
  -20.8460   -4.1810   25.2870 F   0  0  0  0  0  0  0  0  0  0  0  0
  -23.1340  -14.1310   21.2330 C   0  0  0  0  0  0  0  0  0  0  0  0
  -22.3510  -13.4160   22.0330 N   0  0  0  0  0  0  0  0  0  0  0  0
  -22.7620  -15.2110   20.7780 O   0  0  0  0  0  0  0  0  0  0  0  0
  -22.6630  -12.5390   22.4240 H   0  0  0  0  0  0  0  0  0  0  0  0
  -21.4250  -13.7500   22.2590 H   0  0  0  0  0  0  0  0  0  0  0  0
  -25.8670  -15.7110   20.6210 N   0  0  0  0  0  0  0  0  0  0  0  0
  -25.1200  -16.3820   20.7620 H   0  0  0  0  0  0  0  0  0  0  0  0
  -26.7310  -16.1370   20.3220 H   0  0  0  0  0  0  0  0  0  0  0  0
  -31.1030  -17.9090   22.4920 C   0  0  0  0  0  2  0  0  0  0  0  0
  -30.2390  -17.3380   23.5490 N   0  0  0  0  0  4  0  0  0  0  0  0
  -29.2980  -17.6850   23.5100 H   0  0  0  0  0  0  0  0  0  0  0  0
  -30.6130  -17.5780   24.4500 H   0  0  0  0  0  0  0  0  0  0  0  0
  -30.2210  -16.3360   23.4940 H   0  0  0  0  0  0  0  0  0  0  0  0
  1 52  1  0
  1  7  1  0
  1 60  1  0
  4  7  1  0
  4  2  1  0
  5  7  1  0
  5  3  1  0
  6  3  1  0
  6  9  1  0
  6  2  1  0
  7  8  1  1
 10 11  1  0
 10  9  2  0
 12 23  2  0
 13 11  1  0
 13 18  1  0
 14 22  1  0
 14 24  1  0
 15 21  1  0
 15 17  1  0
 16 22  1  0
 17 18  2  0
 17 16  1  0
 19 13  2  0
 20 19  1  0
 20 15  2  0
 21 14  1  0
 22 12  1  0
 24 26  2  0
 25 24  1  0
 27 25  1  0
 28 33  1  0
 29 25  1  0
 30 29  1  0
 31 32  1  0
 31 30  1  0
 32 28  1  0
 33 29  1  0
 33 34  2  0
 35 34  1  0
 36 35  2  0
 37 28  2  0
 37 36  1  0
 38 12  1  0
 38 43  1  0
 38 39  1  0
 39 42  1  1
 39 40  1  0
 41 39  1  0
 43 46  1  0
 44 48  1  0
 44 43  1  0
 45 44  2  0
 48 47  1  0
 50 51  1  0
 50 48  1  0
 50 49  1  0
 53 52  1  0
 54 53  1  0
 55 54  1  0
 56 57  1  0
 56 55  1  0
 58 56  1  0
 59 56  1  0
 60 99  1  0
 61 69  1  0
 62 67  1  0
 63 64  1  0
 63 62  1  0
 65 64  1  0
 65 74  1  0
 65 66  1  0
 67 61  1  0
 67 66  1  0
 68 61  2  0
 69 60  1  0
 69 70  1  0
 71 72  2  0
 72 91  1  0
 73 76  1  0
 73 72  1  0
 74 75  1  0
 74 71  1  0
 75 73  2  0
 76 77  1  0
 77 78  2  0
 79 78  1  0
 80 79  2  0
 81 80  1  0
 81 76  2  0
 82 79  1  0
 82 83  1  0
 83 84  1  0
 84 85  2  0
 86 85  1  0
 86 90  1  0
 87 86  2  0
 88 83  2  0
 88 87  1  0
 89 88  1  0
 91 92  1  0
 92 95  1  0
 92 94  1  0
 93 91  2  0
 96 71  1  0
 96 97  1  0
 98 96  1  0
 99100  1  0
100102  1  0
101100  1  0
103100  1  0
M  ISO  4  10 101  11 101  61 100  69 100
M  END
>  <TORSDO>  (68) 
F 27

>  <SCORE>  (68) 
-8.440

>  <name>  (68) 
68

>  <ligand_id>  (68) 
68

>  <original_smiles>  (68) 
[H]c1c([H])c([H])c2c(c1[H])C([H])([H])C([H])([H])C([H])([H])C2([H])N([H])C(=O)C1([H])N(C(=O)C([H])(N([H])C(=O)C([H])(N([H])C([H])([H])[H])C([H])([H])[H])C(C([H])([H])[H])(C([H])([H])[H])C([H])([H])[H])C([H])([H])c2c([H])c(OC([H])([H])C([H])([H])N3C([H])([H])C([H])([H])[N+]([H])(C([H])(C([H])([H])C([H])([H])C([H])([H])C([H])([H])[N+]([H])([H])[H])C([H])(N([H])C(=O)N4C([H])([H])C([H])([H])C([H])([H])C([H])(n5nc(-c6c([H])c([H])c(Oc7c([H])c([H])c(F)c([H])c7F)c([H])c6[H])c(C(=O)N([H])[H])c5N([H])[H])C4([H])[H])C([H])([H])[N+]([H])([H])[H])C([H])([H])C3([H])[H])c([H])c([H])c2C1([H])[H]

>  <smiles>  (68) 
[H]c1c([H])c([H])c2c(c1[H])C([H])([H])C([H])([H])C([H])([H])C2([H])N([H])C(=O)C1([H])N(C(=O)C([H])(N([H])C(=O)C([H])(N([H])C([H])([H])[H])C([H])([H])[H])C(C([H])([H])[H])(C([H])([H])[H])C([H])([H])[H])C([H])([H])c2c([H])c(OC([H])([H])C([H])([H])N3C([H])([H])C([H])([H])[N+]([H])(C([H])(C([H])([H])C([H])([H])C([H])([H])C([H])([H])[N+]([H])([H])[H])C([H])(N([H])C(=O)N4C([H])([H])C([H])([H])C([H])([H])C([H])(n5nc(-c6c([H])c([H])c(Oc7c([H])c([H])c(F)c([H])c7F)c([H])c6[H])c(C(=O)N([H])[H])c5N([H])[H])C4([H])[H])C([H])([H])[N+]([H])([H])[H])C([H])([H])C3([H])[H])c([H])c([H])c2C1([H])[H]

$$$$
69:0:0
     RDKit          3D

 89 97  0  0  1  0  0  0  0  0999 V2000
  -28.7880  -23.0720   20.4970 C   0  0  0  0  0  3  0  0  0  0  0  0
  -28.1390  -24.5220   19.7840 C   0  0  0  0  0  0  0  0  0  0  0  0
  -27.6350  -24.3300   18.6420 N   0  0  0  0  0  0  0  0  0  0  0  0
  -27.6800  -23.3540   18.3730 H   0  0  0  0  0  0  0  0  0  0  0  0
  -28.1900  -25.9460   20.3130 O   0  0  0  0  0  0  0  0  0  0  0  0
  -24.6360  -31.8790   23.2320 C   0  0  0  0  0  0  0  0  0  0  0  0
  -27.1840  -27.0360   20.1970 C   0  0  0  0  0  0  0  0  0  0  0  0
  -23.4370  -30.4860   21.5980 C   0  0  0  0  0  3  0  0  0  0  0  0
  -24.8820  -28.8990   20.1680 C   0  0  0  0  0  0  0  0  0  0  0  0
  -26.0040  -30.7050   21.4470 C   0  0  0  0  0  2  0  0  0  0  0  0
  -26.0700  -29.3020   20.7870 C   0  0  0  0  0  0  0  0  0  0  0  0
  -27.2140  -28.3890   20.7850 C   0  0  0  0  0  3  0  0  0  0  0  0
  -25.9560  -26.7830   19.5370 C   0  0  0  0  0  3  0  0  0  0  0  0
  -24.8460  -27.6570   19.5250 C   0  0  0  0  0  3  0  0  0  0  0  0
  -23.6630  -29.8140   20.2190 C   0  0  0  0  0  2  0  0  0  0  0  0
  -24.7140  -31.0480   22.1460 N   0  0  0  0  0  0  0  0  0  0  0  0
  -23.5470  -32.1690   23.7550 O   0  0  0  0  0  0  0  0  0  0  0  0
  -22.7480  -29.4830   22.5600 C   0  0  0  0  0  0  0  0  0  0  0  0
  -21.4190  -29.3190   22.4360 N   0  0  0  0  0  0  0  0  0  0  0  0
  -23.4160  -28.8560   23.3870 O   0  0  0  0  0  0  0  0  0  0  0  0
  -20.9340  -29.8750   21.7470 H   0  0  0  0  0  0  0  0  0  0  0  0
  -18.0350  -28.1160   22.9470 C   0  0  0  0  0  0  0  0  0  0  0  0
  -20.5950  -28.3840   23.2100 C   0  0  0  0  0  3  0  0  0  0  0  0
  -20.6970  -26.9500   22.6400 C   0  0  0  0  0  2  0  0  0  0  0  0
  -19.5940  -26.6230   21.6260 C   0  0  0  0  0  2  0  0  0  0  0  0
  -18.2120  -26.7660   22.2700 C   0  0  0  0  0  2  0  0  0  0  0  0
  -19.1530  -28.8820   23.3730 C   0  0  0  0  0  0  0  0  0  0  0  0
  -18.9300  -30.1420   23.9690 C   0  0  0  0  0  3  0  0  0  0  0  0
  -17.6230  -30.6380   24.1400 C   0  0  0  0  0  3  0  0  0  0  0  0
  -16.5210  -29.8700   23.7270 C   0  0  0  0  0  3  0  0  0  0  0  0
  -16.7270  -28.6110   23.1370 C   0  0  0  0  0  3  0  0  0  0  0  0
  -25.9100  -32.5190   23.8620 C   0  0  0  0  0  3  0  0  0  0  0  0
  -25.5940  -33.9210   24.1900 N   0  0  0  0  0  0  0  0  0  0  0  0
  -25.9150  -34.9770   23.4320 C   0  0  0  0  0  0  0  0  0  0  0  0
  -26.5710  -34.8750   22.3920 O   0  0  0  0  0  0  0  0  0  0  0  0
  -25.0080  -34.0720   24.9980 H   0  0  0  0  0  0  0  0  0  0  0  0
  -24.1740  -36.7690   23.1160 C   0  0  0  0  0  1  0  0  0  0  0  0
  -25.4340  -36.3670   23.8990 C   0  0  0  0  0  3  0  0  0  0  0  0
  -27.5830  -37.2630   24.6830 C   0  0  0  0  0  1  0  0  0  0  0  0
  -26.4610  -37.4230   23.7610 N   0  0  0  0  0  0  0  0  0  0  0  0
  -26.0550  -38.3430   23.9120 H   0  0  0  0  0  0  0  0  0  0  0  0
  -26.4120  -31.7570   25.1500 C   0  0  1  0  0  0  0  0  0  0  0  0
  -25.3100  -31.5340   26.2120 C   0  0  0  0  0  1  0  0  0  0  0  0
  -26.9940  -30.3740   24.7830 C   0  0  0  0  0  1  0  0  0  0  0  0
  -27.5600  -32.5540   25.8140 C   0  0  0  0  0  1  0  0  0  0  0  0
  -28.6330  -21.4410   19.8370 C   0  0  0  0  0  3  0  0  0  0  0  0
  -30.5360  -15.2190   20.2370 C   0  0  0  0  0  0  0  0  0  0  0  0
  -30.3790  -12.8160   19.3350 C   0  0  0  0  0  2  0  0  0  0  0  0
  -29.4530  -12.6360   18.1110 C   0  0  0  0  0  2  0  0  0  0  0  0
  -28.0100  -12.3790   18.5710 C   0  0  0  0  0  2  0  0  0  0  0  0
  -27.5760  -13.3470   19.7020 C   0  0  0  0  0  3  0  0  0  0  0  0
  -28.6380  -13.5080   20.8110 C   0  0  0  0  0  2  0  0  0  0  0  0
  -29.8660  -13.9740   20.1490 N   0  0  0  0  0  0  0  0  0  0  0  0
  -31.7550  -15.1130   20.0470 O   0  0  0  0  0  0  0  0  0  0  0  0
  -30.4330  -19.4130   20.2830 C   0  0  0  0  0  0  0  0  0  0  0  0
  -30.8700  -17.8290   20.2930 C   0  0  0  0  0  2  0  0  0  0  0  0
  -28.2180  -18.7160   20.0470 C   0  0  0  0  0  2  0  0  0  0  0  0
  -28.5760  -17.1360   20.4260 C   0  0  0  0  0  2  0  0  0  0  0  0
  -29.1450  -19.9170   20.2360 N   0  0  0  0  0  0  0  0  0  0  0  0
  -29.9730  -16.5850   20.3000 N   0  0  0  0  0  0  0  0  0  0  0  0
  -31.3630  -20.2210   20.2910 O   0  0  0  0  0  0  0  0  0  0  0  0
  -25.2110  -13.8980   20.4780 C   0  0  0  0  0  0  0  0  0  0  0  0
  -24.1560  -13.1160   20.8550 C   0  0  0  0  0  0  0  0  0  0  0  0
  -24.6300  -11.7690   20.8240 C   0  0  0  0  0  0  0  0  0  0  0  0
  -26.2570  -13.0280   20.2290 N   0  0  0  0  0  0  0  0  0  0  0  0
  -25.9210  -11.7410   20.5060 N   0  0  0  0  0  0  0  0  0  0  0  0
  -23.9100  -10.5030   21.0170 C   0  0  0  0  0  0  0  0  0  0  0  0
  -24.3520   -9.5360   21.9470 C   0  0  0  0  0  3  0  0  0  0  0  0
  -23.6280   -8.3380   22.1310 C   0  0  0  0  0  3  0  0  0  0  0  0
  -22.4500   -8.0980   21.3850 C   0  0  0  0  0  0  0  0  0  0  0  0
  -22.0280   -9.0530   20.4440 C   0  0  0  0  0  3  0  0  0  0  0  0
  -22.7530  -10.2430   20.2580 C   0  0  0  0  0  3  0  0  0  0  0  0
  -21.6980   -6.9520   21.4790 O   0  0  0  0  0  0  0  0  0  0  0  0
  -21.6610   -6.2080   22.6310 C   0  0  0  0  0  0  0  0  0  0  0  0
  -21.2410   -6.7600   23.8610 C   0  0  0  0  0  3  0  0  0  0  0  0
  -21.1520   -5.9420   25.0050 C   0  0  0  0  0  3  0  0  0  0  0  0
  -21.4700   -4.5740   24.9210 C   0  0  0  0  0  0  0  0  0  0  0  0
  -21.8820   -4.0210   23.6960 C   0  0  0  0  0  3  0  0  0  0  0  0
  -21.9740   -4.8350   22.5530 C   0  0  0  0  0  0  0  0  0  0  0  0
  -22.3510   -4.2940   21.3700 F   0  0  0  0  0  0  0  0  0  0  0  0
  -21.3770   -3.7860   26.0180 F   0  0  0  0  0  0  0  0  0  0  0  0
  -22.7580  -13.5870   21.1270 C   0  0  0  0  0  0  0  0  0  0  0  0
  -22.0370  -12.8930   21.9990 N   0  0  0  0  0  0  0  0  0  0  0  0
  -22.3150  -14.6080   20.6010 O   0  0  0  0  0  0  0  0  0  0  0  0
  -22.4100  -12.0680   22.4460 H   0  0  0  0  0  0  0  0  0  0  0  0
  -21.0980  -13.1900   22.2250 H   0  0  0  0  0  0  0  0  0  0  0  0
  -25.3620  -15.2690   20.2980 N   0  0  0  0  0  0  0  0  0  0  0  0
  -24.5900  -15.9160   20.4160 H   0  0  0  0  0  0  0  0  0  0  0  0
  -26.2030  -15.7140   19.9550 H   0  0  0  0  0  0  0  0  0  0  0  0
  2  5  1  0
  2  1  1  0
  3  2  2  0
  4  3  1  0
  6 17  2  0
  7  5  1  0
  7 12  1  0
  8 16  1  0
  8 18  1  0
  9 15  1  0
  9 11  1  0
 10 16  1  0
 11 10  1  0
 12 11  2  0
 13  7  2  0
 14 13  1  0
 14  9  2  0
 15  8  1  0
 16  6  1  0
 18 20  2  0
 19 18  1  0
 21 19  1  0
 22 31  2  0
 22 27  1  0
 23 19  1  0
 23 27  1  0
 24 23  1  0
 25 26  1  0
 25 24  1  0
 26 22  1  0
 27 28  2  0
 28 29  1  0
 30 29  2  0
 31 30  1  0
 32  6  1  0
 32 33  1  0
 32 42  1  0
 33 36  1  0
 34 38  1  0
 34 33  1  0
 35 34  2  0
 38 37  1  0
 40 38  1  0
 40 41  1  0
 40 39  1  0
 42 45  1  1
 42 43  1  0
 44 42  1  0
 46 59  1  0
 46  1  2  0
 47 60  1  0
 48 53  1  0
 49 50  1  0
 49 48  1  0
 51 50  1  0
 51 65  1  0
 51 52  1  0
 53 47  1  0
 53 52  1  0
 54 47  2  0
 55 61  2  0
 55 56  1  0
 56 60  1  0
 57 59  1  0
 57 58  1  0
 59 55  1  0
 60 58  1  0
 62 63  2  0
 63 82  1  0
 64 63  1  0
 64 67  1  0
 65 62  1  0
 65 66  1  0
 66 64  2  0
 67 68  1  0
 68 69  2  0
 70 73  1  0
 70 69  1  0
 71 70  2  0
 72 71  1  0
 72 67  2  0
 73 74  1  0
 74 75  1  0
 75 76  2  0
 77 76  1  0
 77 81  1  0
 78 77  2  0
 79 74  2  0
 79 78  1  0
 80 79  1  0
 82 83  1  0
 83 86  1  0
 83 85  1  0
 84 82  2  0
 87 88  1  0
 87 62  1  0
 89 87  1  0
M  ISO  4   2 101   5 101  47 100  60 100
M  END
>  <TORSDO>  (69) 
F 18

>  <SCORE>  (69) 
-15.867

>  <name>  (69) 
69

>  <ligand_id>  (69) 
69

>  <original_smiles>  (69) 
[H]N=C(Oc1c([H])c([H])c2c(c1[H])C([H])([H])N(C(=O)C([H])(N([H])C(=O)C([H])(N([H])C([H])([H])[H])C([H])([H])[H])C(C([H])([H])[H])(C([H])([H])[H])C([H])([H])[H])C([H])(C(=O)N([H])C1([H])c3c([H])c([H])c([H])c([H])c3C([H])([H])C([H])([H])C1([H])[H])C2([H])[H])C([H])([H])C([H])([H])N1C(=O)C([H])([H])N(C(=O)N2C([H])([H])C([H])([H])C([H])([H])C([H])(n3nc(-c4c([H])c([H])c(Oc5c([H])c([H])c(F)c([H])c5F)c([H])c4[H])c(C(=O)N([H])[H])c3N([H])[H])C2([H])[H])C([H])([H])C1([H])[H]

>  <smiles>  (69) 
[H]N=C(Oc1c([H])c([H])c2c(c1[H])C([H])([H])N(C(=O)C([H])(N([H])C(=O)C([H])(N([H])C([H])([H])[H])C([H])([H])[H])C(C([H])([H])[H])(C([H])([H])[H])C([H])([H])[H])C([H])(C(=O)N([H])C1([H])c3c([H])c([H])c([H])c([H])c3C([H])([H])C([H])([H])C1([H])[H])C2([H])[H])C([H])([H])C([H])([H])N1C(=O)C([H])([H])N(C(=O)N2C([H])([H])C([H])([H])C([H])([H])C([H])(n3nc(-c4c([H])c([H])c(Oc5c([H])c([H])c(F)c([H])c5F)c([H])c4[H])c(C(=O)N([H])[H])c3N([H])[H])C2([H])[H])C([H])([H])C1([H])[H]

$$$$
70:0:0
     RDKit          3D

 94102  0  0  1  0  0  0  0  0999 V2000
  -30.8690  -22.0540   20.1860 C   0  0  0  0  0  2  0  0  0  0  0  0
  -28.6420  -21.7240   20.9600 C   0  0  0  0  0  2  0  0  0  0  0  0
  -31.0210  -20.5090   19.9190 C   0  0  0  0  0  2  0  0  0  0  0  0
  -28.8010  -20.1740   20.6890 C   0  0  0  0  0  2  0  0  0  0  0  0
  -29.4830  -22.5920   20.0960 N   0  0  0  0  0  0  0  0  0  0  0  0
  -30.2000  -19.7190   20.8570 N   0  0  0  0  0  0  0  0  0  0  0  0
  -29.4580  -24.0720   20.4460 C   0  0  0  0  0  3  0  0  0  0  0  0
  -28.1960  -24.9810   20.1260 C   0  0  0  0  0  3  0  0  0  0  0  0
  -28.3580  -26.4410   20.3120 O   0  0  0  0  0  0  0  0  0  0  0  0
  -24.6010  -31.8580   23.2240 C   0  0  0  0  0  0  0  0  0  0  0  0
  -27.2220  -27.2640   20.2480 C   0  0  0  0  0  0  0  0  0  0  0  0
  -23.4040  -30.4470   21.5900 C   0  0  0  0  0  3  0  0  0  0  0  0
  -24.8570  -28.8750   20.1940 C   0  0  0  0  0  0  0  0  0  0  0  0
  -25.9420  -30.7570   21.4170 C   0  0  0  0  0  2  0  0  0  0  0  0
  -26.0210  -29.3680   20.7980 C   0  0  0  0  0  0  0  0  0  0  0  0
  -27.2050  -28.5720   20.8200 C   0  0  0  0  0  3  0  0  0  0  0  0
  -26.0360  -26.8190   19.6190 C   0  0  0  0  0  3  0  0  0  0  0  0
  -24.8680  -27.6040   19.5940 C   0  0  0  0  0  3  0  0  0  0  0  0
  -23.6310  -29.7640   20.2150 C   0  0  0  0  0  2  0  0  0  0  0  0
  -24.6690  -31.0370   22.1350 N   0  0  0  0  0  0  0  0  0  0  0  0
  -23.5170  -32.1470   23.7470 O   0  0  0  0  0  0  0  0  0  0  0  0
  -22.7330  -29.4410   22.5550 C   0  0  0  0  0  0  0  0  0  0  0  0
  -21.4030  -29.2820   22.4380 N   0  0  0  0  0  0  0  0  0  0  0  0
  -23.4060  -28.8090   23.3750 O   0  0  0  0  0  0  0  0  0  0  0  0
  -20.9190  -29.8480   21.7530 H   0  0  0  0  0  0  0  0  0  0  0  0
  -18.0110  -28.1430   22.9630 C   0  0  0  0  0  0  0  0  0  0  0  0
  -20.5750  -28.3630   23.2200 C   0  0  0  0  0  3  0  0  0  0  0  0
  -20.6520  -26.9270   22.6510 C   0  0  0  0  0  2  0  0  0  0  0  0
  -19.5370  -26.6170   21.6470 C   0  0  0  0  0  2  0  0  0  0  0  0
  -18.1610  -26.7870   22.2950 C   0  0  0  0  0  2  0  0  0  0  0  0
  -19.1450  -28.8880   23.3850 C   0  0  0  0  0  0  0  0  0  0  0  0
  -18.9470  -30.1590   23.9710 C   0  0  0  0  0  3  0  0  0  0  0  0
  -17.6500  -30.6790   24.1420 C   0  0  0  0  0  3  0  0  0  0  0  0
  -16.5330  -29.9310   23.7320 C   0  0  0  0  0  3  0  0  0  0  0  0
  -16.7160  -28.6670   23.1450 C   0  0  0  0  0  3  0  0  0  0  0  0
  -25.8820  -32.4920   23.8480 C   0  0  0  0  0  3  0  0  0  0  0  0
  -25.5670  -33.8870   24.1870 N   0  0  0  0  0  0  0  0  0  0  0  0
  -25.8950  -34.9470   23.4350 C   0  0  0  0  0  0  0  0  0  0  0  0
  -26.5670  -34.8510   22.4040 O   0  0  0  0  0  0  0  0  0  0  0  0
  -24.9700  -34.0340   24.9870 H   0  0  0  0  0  0  0  0  0  0  0  0
  -24.1630  -36.7390   23.0880 C   0  0  0  0  0  1  0  0  0  0  0  0
  -25.4020  -36.3300   23.8990 C   0  0  0  0  0  3  0  0  0  0  0  0
  -27.5340  -37.2180   24.7360 C   0  0  0  0  0  1  0  0  0  0  0  0
  -26.4300  -37.3890   23.7960 N   0  0  0  0  0  0  0  0  0  0  0  0
  -26.0190  -38.3050   23.9490 H   0  0  0  0  0  0  0  0  0  0  0  0
  -26.4040  -31.7100   25.1150 C   0  0  1  0  0  0  0  0  0  0  0  0
  -25.3170  -31.4610   26.1860 C   0  0  0  0  0  1  0  0  0  0  0  0
  -26.9890  -30.3360   24.7070 C   0  0  0  0  0  1  0  0  0  0  0  0
  -27.5510  -32.5050   25.7820 C   0  0  0  0  0  1  0  0  0  0  0  0
  -30.5090  -18.2400   21.0610 C   0  0  0  0  0  3  0  0  0  0  0  0
  -30.0640  -17.1490   19.9880 C   0  0  0  0  0  2  0  0  0  0  0  0
  -30.7370  -14.6090   20.0780 C   0  0  0  0  0  0  0  0  0  0  0  0
  -30.4440  -12.3890   19.0220 C   0  0  0  0  0  2  0  0  0  0  0  0
  -29.4620  -12.5750   17.8440 C   0  0  0  0  0  2  0  0  0  0  0  0
  -27.9970  -12.4470   18.3140 C   0  0  0  0  0  2  0  0  0  0  0  0
  -27.7040  -13.2690   19.5980 C   0  0  0  0  0  3  0  0  0  0  0  0
  -28.8040  -13.0700   20.6680 C   0  0  0  0  0  2  0  0  0  0  0  0
  -30.0950  -13.3960   20.0410 N   0  0  0  0  0  0  0  0  0  0  0  0
  -31.8780  -14.7490   19.6380 O   0  0  0  0  0  0  0  0  0  0  0  0
  -29.9700  -15.6910   20.4050 N   0  0  0  0  0  0  0  0  0  0  0  0
  -29.0740  -15.4250   20.7780 H   0  0  0  0  0  0  0  0  0  0  0  0
  -25.3380  -13.8790   20.3970 C   0  0  0  0  0  0  0  0  0  0  0  0
  -24.2780  -13.1140   20.8020 C   0  0  0  0  0  0  0  0  0  0  0  0
  -24.7250  -11.7590   20.7490 C   0  0  0  0  0  0  0  0  0  0  0  0
  -26.3670  -12.9910   20.1250 N   0  0  0  0  0  0  0  0  0  0  0  0
  -26.0040  -11.7090   20.3950 N   0  0  0  0  0  0  0  0  0  0  0  0
  -23.9890  -10.5020   20.9630 C   0  0  0  0  0  0  0  0  0  0  0  0
  -24.4420   -9.5330   21.8870 C   0  0  0  0  0  3  0  0  0  0  0  0
  -23.7100   -8.3400   22.0880 C   0  0  0  0  0  3  0  0  0  0  0  0
  -22.5140   -8.1110   21.3670 C   0  0  0  0  0  0  0  0  0  0  0  0
  -22.0810   -9.0700   20.4330 C   0  0  0  0  0  3  0  0  0  0  0  0
  -22.8120  -10.2510   20.2310 C   0  0  0  0  0  3  0  0  0  0  0  0
  -21.7520   -6.9720   21.4780 O   0  0  0  0  0  0  0  0  0  0  0  0
  -21.7190   -6.2390   22.6390 C   0  0  0  0  0  0  0  0  0  0  0  0
  -21.3300   -6.8080   23.8700 C   0  0  0  0  0  3  0  0  0  0  0  0
  -21.2430   -6.0020   25.0240 C   0  0  0  0  0  3  0  0  0  0  0  0
  -21.5340   -4.6260   24.9430 C   0  0  0  0  0  0  0  0  0  0  0  0
  -21.9200   -4.0560   23.7170 C   0  0  0  0  0  3  0  0  0  0  0  0
  -22.0090   -4.8600   22.5680 C   0  0  0  0  0  0  0  0  0  0  0  0
  -22.3580   -4.3040   21.3830 F   0  0  0  0  0  0  0  0  0  0  0  0
  -21.4460   -3.8500   26.0470 F   0  0  0  0  0  0  0  0  0  0  0  0
  -22.8930  -13.6070   21.1280 C   0  0  0  0  0  0  0  0  0  0  0  0
  -22.1900  -12.9180   22.0200 N   0  0  0  0  0  0  0  0  0  0  0  0
  -22.4460  -14.6370   20.6270 O   0  0  0  0  0  0  0  0  0  0  0  0
  -22.5600  -12.0860   22.4530 H   0  0  0  0  0  0  0  0  0  0  0  0
  -21.2630  -13.2300   22.2770 H   0  0  0  0  0  0  0  0  0  0  0  0
  -25.5080  -15.2460   20.2140 N   0  0  0  0  0  0  0  0  0  0  0  0
  -24.7420  -15.9010   20.3270 H   0  0  0  0  0  0  0  0  0  0  0  0
  -26.3380  -15.6640   19.8110 H   0  0  0  0  0  0  0  0  0  0  0  0
  -30.1670  -17.8120   22.5170 C   0  0  0  0  0  2  0  0  0  0  0  0
  -31.3060  -18.0270   23.4300 N   0  0  0  0  0  4  0  0  0  0  0  0
  -32.1400  -17.5880   23.0810 H   0  0  0  0  0  0  0  0  0  0  0  0
  -31.0990  -17.6210   24.3240 H   0  0  0  0  0  0  0  0  0  0  0  0
  -31.4920  -19.0080   23.5600 H   0  0  0  0  0  0  0  0  0  0  0  0
  3  1  1  0
  3  6  1  0
  4  6  1  0
  4  2  1  0
  5  1  1  0
  5  7  1  0
  5  2  1  0
  6 50  1  0
  8  9  1  0
  8  7  2  0
 10 21  2  0
 11  9  1  0
 11 16  1  0
 12 20  1  0
 12 22  1  0
 13 19  1  0
 13 15  1  0
 14 20  1  0
 15 16  2  0
 15 14  1  0
 17 11  2  0
 18 17  1  0
 18 13  2  0
 19 12  1  0
 20 10  1  0
 22 24  2  0
 23 22  1  0
 25 23  1  0
 26 35  2  0
 26 31  1  0
 27 23  1  0
 27 31  1  0
 28 27  1  0
 29 30  1  0
 29 28  1  0
 30 26  1  0
 31 32  2  0
 32 33  1  0
 34 33  2  0
 35 34  1  0
 36 10  1  0
 36 37  1  0
 36 46  1  0
 37 40  1  0
 38 42  1  0
 38 37  1  0
 39 38  2  0
 42 41  1  0
 44 42  1  0
 44 45  1  0
 44 43  1  0
 46 49  1  1
 46 47  1  0
 48 46  1  0
 50 51  1  0
 50 90  1  0
 51 60  1  0
 52 60  1  0
 53 58  1  0
 54 55  1  0
 54 53  1  0
 56 55  1  0
 56 65  1  0
 56 57  1  0
 58 52  1  0
 58 57  1  0
 59 52  2  0
 60 61  1  0
 62 63  2  0
 63 82  1  0
 64 63  1  0
 64 67  1  0
 65 66  1  0
 65 62  1  0
 66 64  2  0
 67 68  1  0
 68 69  2  0
 70 73  1  0
 70 69  1  0
 71 70  2  0
 72 71  1  0
 72 67  2  0
 73 74  1  0
 74 75  1  0
 75 76  2  0
 77 76  1  0
 77 81  1  0
 78 77  2  0
 79 74  2  0
 79 78  1  0
 80 79  1  0
 82 83  1  0
 83 86  1  0
 83 85  1  0
 84 82  2  0
 87 88  1  0
 87 62  1  0
 89 87  1  0
 90 91  1  0
 91 94  1  0
 91 93  1  0
 92 91  1  0
M  ISO  4   8 101   9 101  52 100  60 100
M  END
>  <TORSDO>  (70) 
F 22

>  <SCORE>  (70) 
-12.805

>  <name>  (70) 
70

>  <ligand_id>  (70) 
70

>  <original_smiles>  (70) 
[H]c1c([H])c([H])c2c(c1[H])C([H])([H])C([H])([H])C([H])([H])C2([H])N([H])C(=O)C1([H])N(C(=O)C([H])(N([H])C(=O)C([H])(N([H])C([H])([H])[H])C([H])([H])[H])C(C([H])([H])[H])(C([H])([H])[H])C([H])([H])[H])C([H])([H])c2c([H])c(OC([H])([H])C([H])([H])N3C([H])([H])C([H])([H])N(C([H])(C([H])([H])N([H])C(=O)N4C([H])([H])C([H])([H])C([H])([H])C([H])(n5nc(-c6c([H])c([H])c(Oc7c([H])c([H])c(F)c([H])c7F)c([H])c6[H])c(C(=O)N([H])[H])c5N([H])[H])C4([H])[H])C([H])([H])[N+]([H])([H])[H])C([H])([H])C3([H])[H])c([H])c([H])c2C1([H])[H]

>  <smiles>  (70) 
[H]c1c([H])c([H])c2c(c1[H])C([H])([H])C([H])([H])C([H])([H])C2([H])N([H])C(=O)C1([H])N(C(=O)C([H])(N([H])C(=O)C([H])(N([H])C([H])([H])[H])C([H])([H])[H])C(C([H])([H])[H])(C([H])([H])[H])C([H])([H])[H])C([H])([H])c2c([H])c(OC([H])([H])C([H])([H])N3C([H])([H])C([H])([H])N(C([H])(C([H])([H])N([H])C(=O)N4C([H])([H])C([H])([H])C([H])([H])C([H])(n5nc(-c6c([H])c([H])c(Oc7c([H])c([H])c(F)c([H])c7F)c([H])c6[H])c(C(=O)N([H])[H])c5N([H])[H])C4([H])[H])C([H])([H])[N+]([H])([H])[H])C([H])([H])C3([H])[H])c([H])c([H])c2C1([H])[H]

$$$$
71:0:0
     RDKit          3D

102110  0  0  1  0  0  0  0  0999 V2000
  -29.6230  -22.9930   20.1950 N   0  0  0  0  0  0  0  0  0  0  0  0
  -30.7840  -23.1650   21.0890 C   0  0  0  0  0  2  0  0  0  0  0  0
  -30.6190  -24.4100   21.9800 C   0  0  0  0  0  2  0  0  0  0  0  0
  -29.3400  -24.3810   22.8400 C   0  0  0  0  0  2  0  0  0  0  0  0
  -29.0870  -25.7170   23.5630 C   0  0  0  0  0  2  0  0  0  0  0  0
  -27.7090  -25.8240   24.0720 N   0  0  0  0  0  4  0  0  0  0  0  0
  -27.0530  -25.8470   23.3110 H   0  0  0  0  0  0  0  0  0  0  0  0
  -27.6070  -26.6760   24.5960 H   0  0  0  0  0  0  0  0  0  0  0  0
  -27.4800  -25.0550   24.6760 H   0  0  0  0  0  0  0  0  0  0  0  0
  -29.5840  -21.6120   19.5820 C   0  0  0  0  0  3  0  0  0  0  0  0
  -29.5380  -20.3940   20.6230 C   0  0  0  0  0  3  0  0  0  0  0  0
  -30.7800  -14.7020   19.9820 C   0  0  0  0  0  0  0  0  0  0  0  0
  -30.3540  -12.4910   18.9360 C   0  0  0  0  0  2  0  0  0  0  0  0
  -29.3500  -12.6140   17.7720 C   0  0  0  0  0  2  0  0  0  0  0  0
  -27.9090  -12.4570   18.2920 C   0  0  0  0  0  2  0  0  0  0  0  0
  -27.6280  -13.3250   19.5500 C   0  0  0  0  0  3  0  0  0  0  0  0
  -28.7640  -13.2210   20.5930 C   0  0  0  0  0  2  0  0  0  0  0  0
  -30.0200  -13.5540   19.9090 N   0  0  0  0  0  0  0  0  0  0  0  0
  -31.9610  -14.6460   19.6450 O   0  0  0  0  0  0  0  0  0  0  0  0
  -29.1440  -16.4630   20.8590 C   0  0  0  0  0  2  0  0  0  0  0  0
  -30.7000  -16.9960   18.9940 C   0  0  0  0  0  2  0  0  0  0  0  0
  -29.2060  -17.9870   21.2440 C   0  0  0  0  0  2  0  0  0  0  0  0
  -30.7620  -18.4780   19.4910 C   0  0  0  0  0  2  0  0  0  0  0  0
  -30.1730  -15.9490   19.9290 N   0  0  0  0  0  0  0  0  0  0  0  0
  -29.5120  -18.9490   20.1380 N   0  0  2  0  0  4  0  0  0  0  0  0
  -28.7630  -18.8770   19.4650 H   0  0  0  0  0  0  0  0  0  0  0  0
  -25.2960  -13.9090   20.4480 C   0  0  0  0  0  0  0  0  0  0  0  0
  -24.2500  -13.1320   20.8660 C   0  0  0  0  0  0  0  0  0  0  0  0
  -24.7010  -11.7800   20.7720 C   0  0  0  0  0  0  0  0  0  0  0  0
  -26.3180  -13.0310   20.1270 N   0  0  0  0  0  0  0  0  0  0  0  0
  -25.9710  -11.7450   20.3850 N   0  0  0  0  0  0  0  0  0  0  0  0
  -23.9770  -10.5190   20.9740 C   0  0  0  0  0  0  0  0  0  0  0  0
  -24.4410   -9.5400   21.8800 C   0  0  0  0  0  3  0  0  0  0  0  0
  -23.7190   -8.3430   22.0730 C   0  0  0  0  0  3  0  0  0  0  0  0
  -22.5180   -8.1160   21.3610 C   0  0  0  0  0  0  0  0  0  0  0  0
  -22.0730   -9.0840   20.4440 C   0  0  0  0  0  3  0  0  0  0  0  0
  -22.7950  -10.2720   20.2480 C   0  0  0  0  0  3  0  0  0  0  0  0
  -21.7630   -6.9720   21.4660 O   0  0  0  0  0  0  0  0  0  0  0  0
  -21.7190   -6.2400   22.6250 C   0  0  0  0  0  0  0  0  0  0  0  0
  -21.2930   -6.8050   23.8480 C   0  0  0  0  0  3  0  0  0  0  0  0
  -21.2000   -5.9990   25.0000 C   0  0  0  0  0  3  0  0  0  0  0  0
  -21.5230   -4.6310   24.9310 C   0  0  0  0  0  0  0  0  0  0  0  0
  -21.9420   -4.0650   23.7140 C   0  0  0  0  0  3  0  0  0  0  0  0
  -22.0380   -4.8670   22.5630 C   0  0  0  0  0  0  0  0  0  0  0  0
  -22.4230   -4.3140   21.3890 F   0  0  0  0  0  0  0  0  0  0  0  0
  -21.4230   -3.8550   26.0350 F   0  0  0  0  0  0  0  0  0  0  0  0
  -22.8740  -13.6120   21.2290 C   0  0  0  0  0  0  0  0  0  0  0  0
  -22.1920  -12.9040   22.1240 N   0  0  0  0  0  0  0  0  0  0  0  0
  -22.4170  -14.6530   20.7580 O   0  0  0  0  0  0  0  0  0  0  0  0
  -22.5720  -12.0640   22.5310 H   0  0  0  0  0  0  0  0  0  0  0  0
  -21.2730  -13.2140   22.4030 H   0  0  0  0  0  0  0  0  0  0  0  0
  -25.4520  -15.2840   20.2840 N   0  0  0  0  0  0  0  0  0  0  0  0
  -24.6820  -15.9230   20.4360 H   0  0  0  0  0  0  0  0  0  0  0  0
  -26.2480  -15.7200   19.8390 H   0  0  0  0  0  0  0  0  0  0  0  0
  -29.4130  -24.2850   19.4270 C   0  0  0  0  0  3  0  0  0  0  0  0
  -29.3190  -24.1480   17.8810 C   0  0  0  0  0  2  0  0  0  0  0  0
  -30.6380  -24.0030   17.2370 N   0  0  0  0  0  4  0  0  0  0  0  0
  -31.2220  -24.7990   17.4240 H   0  0  0  0  0  0  0  0  0  0  0  0
  -30.5230  -23.9420   16.2400 H   0  0  0  0  0  0  0  0  0  0  0  0
  -31.1150  -23.1780   17.5480 H   0  0  0  0  0  0  0  0  0  0  0  0
  -28.2090  -25.1480   19.9880 C   0  0  0  0  0  2  0  0  0  0  0  0
  -28.3420  -26.6130   19.9240 O   0  0  0  0  0  0  0  0  0  0  0  0
  -24.5880  -31.8710   23.1900 C   0  0  0  0  0  0  0  0  0  0  0  0
  -27.1880  -27.4000   19.9910 C   0  0  0  0  0  0  0  0  0  0  0  0
  -23.3710  -30.4940   21.5430 C   0  0  0  0  0  3  0  0  0  0  0  0
  -24.8070  -28.9740   20.0780 C   0  0  0  0  0  0  0  0  0  0  0  0
  -25.9070  -30.8240   21.3390 C   0  0  0  0  0  2  0  0  0  0  0  0
  -25.9830  -29.4600   20.6640 C   0  0  0  0  0  0  0  0  0  0  0  0
  -27.1750  -28.6830   20.6140 C   0  0  0  0  0  3  0  0  0  0  0  0
  -25.9860  -26.9600   19.3910 C   0  0  0  0  0  3  0  0  0  0  0  0
  -24.8070  -27.7270   19.4400 C   0  0  0  0  0  3  0  0  0  0  0  0
  -23.5700  -29.8430   20.1510 C   0  0  0  0  0  2  0  0  0  0  0  0
  -24.6410  -31.0770   22.0800 N   0  0  0  0  0  0  0  0  0  0  0  0
  -23.5100  -32.1360   23.7400 O   0  0  0  0  0  0  0  0  0  0  0  0
  -22.7210  -29.4580   22.4900 C   0  0  0  0  0  0  0  0  0  0  0  0
  -21.3940  -29.2850   22.3770 N   0  0  0  0  0  0  0  0  0  0  0  0
  -23.4100  -28.8150   23.2860 O   0  0  0  0  0  0  0  0  0  0  0  0
  -20.8980  -29.8570   21.7090 H   0  0  0  0  0  0  0  0  0  0  0  0
  -18.0190  -28.0920   22.8990 C   0  0  0  0  0  0  0  0  0  0  0  0
  -20.5830  -28.3350   23.1400 C   0  0  0  0  0  3  0  0  0  0  0  0
  -20.6710  -26.9150   22.5370 C   0  0  0  0  0  2  0  0  0  0  0  0
  -19.5540  -26.6150   21.5310 C   0  0  0  0  0  2  0  0  0  0  0  0
  -18.1810  -26.7550   22.1970 C   0  0  0  0  0  2  0  0  0  0  0  0
  -19.1480  -28.8410   23.3280 C   0  0  0  0  0  0  0  0  0  0  0  0
  -18.9420  -30.0940   23.9460 C   0  0  0  0  0  3  0  0  0  0  0  0
  -17.6430  -30.5980   24.1390 C   0  0  0  0  0  3  0  0  0  0  0  0
  -16.5280  -29.8450   23.7280 C   0  0  0  0  0  3  0  0  0  0  0  0
  -16.7190  -28.5940   23.1130 C   0  0  0  0  0  3  0  0  0  0  0  0
  -25.8760  -32.4950   23.8090 C   0  0  0  0  0  3  0  0  0  0  0  0
  -26.3950  -31.7160   25.0810 C   0  0  1  0  0  0  0  0  0  0  0  0
  -25.3060  -31.4810   26.1520 C   0  0  0  0  0  1  0  0  0  0  0  0
  -26.9710  -30.3380   24.6840 C   0  0  0  0  0  1  0  0  0  0  0  0
  -27.5520  -32.5050   25.7390 C   0  0  0  0  0  1  0  0  0  0  0  0
  -25.5740  -33.8920   24.1450 N   0  0  0  0  0  0  0  0  0  0  0  0
  -25.9130  -34.9480   23.3920 C   0  0  0  0  0  0  0  0  0  0  0  0
  -26.5840  -34.8460   22.3610 O   0  0  0  0  0  0  0  0  0  0  0  0
  -24.9780  -34.0460   24.9450 H   0  0  0  0  0  0  0  0  0  0  0  0
  -24.2000  -36.7550   23.0370 C   0  0  0  0  0  1  0  0  0  0  0  0
  -25.4320  -36.3360   23.8560 C   0  0  0  0  0  3  0  0  0  0  0  0
  -27.5660  -37.1980   24.7120 C   0  0  0  0  0  1  0  0  0  0  0  0
  -26.4720  -37.3830   23.7600 N   0  0  0  0  0  0  0  0  0  0  0  0
  -26.0720  -38.3040   23.9120 H   0  0  0  0  0  0  0  0  0  0  0  0
  1  2  1  0
  2  3  1  0
  3  4  1  0
  4  5  1  0
  5  6  1  0
  6  8  1  0
  6  9  1  0
  7  6  1  0
 10  1  1  0
 10 11  2  0
 13 18  1  0
 14 15  1  0
 14 13  1  0
 16 15  1  0
 16 30  1  0
 16 17  1  0
 18 12  1  0
 18 17  1  0
 19 12  2  0
 20 22  1  0
 21 23  1  0
 21 24  1  0
 23 25  1  0
 24 12  1  0
 24 20  1  0
 25 11  1  0
 25 22  1  0
 25 26  1  6
 27 28  2  0
 28 47  1  0
 29 28  1  0
 29 32  1  0
 30 31  1  0
 30 27  1  0
 31 29  2  0
 32 33  1  0
 33 34  2  0
 35 38  1  0
 35 34  1  0
 36 35  2  0
 37 36  1  0
 37 32  2  0
 38 39  1  0
 39 40  1  0
 40 41  2  0
 42 41  1  0
 42 46  1  0
 43 42  2  0
 44 39  2  0
 44 43  1  0
 45 44  1  0
 47 48  1  0
 48 51  1  0
 48 50  1  0
 49 47  2  0
 52 53  1  0
 52 27  1  0
 54 52  1  0
 55 56  1  0
 55 61  1  0
 55  1  1  0
 57 58  1  0
 57 60  1  0
 57 56  1  0
 59 57  1  0
 62 61  1  0
 62 64  1  0
 63 74  2  0
 64 69  1  0
 65 73  1  0
 65 75  1  0
 66 72  1  0
 66 68  1  0
 67 73  1  0
 68 67  1  0
 69 68  2  0
 70 71  1  0
 70 64  2  0
 71 66  2  0
 72 65  1  0
 73 63  1  0
 75 77  2  0
 76 75  1  0
 78 76  1  0
 79 88  2  0
 79 84  1  0
 80 76  1  0
 80 84  1  0
 81 80  1  0
 82 83  1  0
 82 81  1  0
 83 79  1  0
 84 85  2  0
 85 86  1  0
 87 86  2  0
 88 87  1  0
 89 63  1  0
 89 94  1  0
 89 90  1  0
 90 93  1  1
 90 91  1  0
 92 90  1  0
 94 97  1  0
 95 99  1  0
 95 94  1  0
 96 95  2  0
 99 98  1  0
101 99  1  0
101102  1  0
101100  1  0
M  ISO  4  12 100  24 100  61 101  62 101
M  END
>  <TORSDO>  (71) 
F 27

>  <SCORE>  (71) 
-11.833

>  <name>  (71) 
71

>  <ligand_id>  (71) 
71

>  <original_smiles>  (71) 
[H]c1c([H])c([H])c2c(c1[H])C([H])([H])C([H])([H])C([H])([H])C2([H])N([H])C(=O)C1([H])N(C(=O)C([H])(N([H])C(=O)C([H])(N([H])C([H])([H])[H])C([H])([H])[H])C(C([H])([H])[H])(C([H])([H])[H])C([H])([H])[H])C([H])([H])c2c([H])c(OC([H])([H])C([H])(N(C([H])([H])C([H])([H])C([H])([H])C([H])([H])[N+]([H])([H])[H])C([H])([H])C([H])([H])[N+]3([H])C([H])([H])C([H])([H])N(C(=O)N4C([H])([H])C([H])([H])C([H])([H])C([H])(n5nc(-c6c([H])c([H])c(Oc7c([H])c([H])c(F)c([H])c7F)c([H])c6[H])c(C(=O)N([H])[H])c5N([H])[H])C4([H])[H])C([H])([H])C3([H])[H])C([H])([H])[N+]([H])([H])[H])c([H])c([H])c2C1([H])[H]

>  <smiles>  (71) 
[H]c1c([H])c([H])c2c(c1[H])C([H])([H])C([H])([H])C([H])([H])C2([H])N([H])C(=O)C1([H])N(C(=O)C([H])(N([H])C(=O)C([H])(N([H])C([H])([H])[H])C([H])([H])[H])C(C([H])([H])[H])(C([H])([H])[H])C([H])([H])[H])C([H])([H])c2c([H])c(OC([H])([H])C([H])(N(C([H])([H])C([H])([H])C([H])([H])C([H])([H])[N+]([H])([H])[H])C([H])([H])C([H])([H])[N+]3([H])C([H])([H])C([H])([H])N(C(=O)N4C([H])([H])C([H])([H])C([H])([H])C([H])(n5nc(-c6c([H])c([H])c(Oc7c([H])c([H])c(F)c([H])c7F)c([H])c6[H])c(C(=O)N([H])[H])c5N([H])[H])C4([H])[H])C([H])([H])C3([H])[H])C([H])([H])[N+]([H])([H])[H])c([H])c([H])c2C1([H])[H]

$$$$
72:0:0
     RDKit          3D

105116  0  0  1  0  0  0  0  0999 V2000
  -30.1850  -21.2430   20.9980 C   0  0  0  0  0  2  0  0  0  0  0  0
  -31.6330  -21.5360   20.6140 C   0  0  0  0  0  2  0  0  0  0  0  0
  -31.3360  -25.7500   19.7380 C   0  0  0  0  0  2  0  0  0  0  0  0
  -32.6940  -25.2190   20.2530 C   0  0  0  0  0  2  0  0  0  0  0  0
  -30.3660  -23.4720   19.9890 C   0  0  0  0  0  3  0  0  0  0  0  0
  -29.3250  -22.4030   20.4310 C   0  0  0  0  0  3  0  0  0  0  0  0
  -30.1170  -24.9670   20.2920 C   0  0  0  0  0  3  0  0  0  0  0  0
  -31.6720  -23.0590   20.6930 C   0  0  0  0  0  3  0  0  0  0  0  0
  -32.8420  -23.7460   20.0840 N   0  0  2  0  0  4  0  0  0  0  0  0
  -32.8130  -23.5470   19.0960 H   0  0  0  0  0  0  0  0  0  0  0  0
  -28.3510  -21.9890   19.2880 C   0  0  0  0  0  2  0  0  0  0  0  0
  -27.5690  -20.6710   19.5210 C   0  0  0  0  0  2  0  0  0  0  0  0
  -27.6180  -19.3870   17.3070 C   0  0  0  0  0  1  0  0  0  0  0  0
  -28.1510  -19.4500   18.7460 C   0  0  0  0  0  3  0  0  0  0  0  0
  -27.9070  -18.1700   19.4620 N   0  0  0  0  0  4  0  0  0  0  0  0
  -27.9350  -18.3710   20.4500 H   0  0  0  0  0  0  0  0  0  0  0  0
  -26.9760  -17.8360   19.2610 H   0  0  0  0  0  0  0  0  0  0  0  0
  -28.9050  -17.0940   19.2080 C   0  0  0  0  0  2  0  0  0  0  0  0
  -30.6920  -14.5000   19.3810 C   0  0  0  0  0  0  0  0  0  0  0  0
  -30.3460  -12.2180   18.4950 C   0  0  0  0  0  2  0  0  0  0  0  0
  -29.2660  -12.2330   17.3950 C   0  0  0  0  0  2  0  0  0  0  0  0
  -27.8600  -12.0910   18.0070 C   0  0  0  0  0  2  0  0  0  0  0  0
  -27.6310  -13.0690   19.1900 C   0  0  0  0  0  3  0  0  0  0  0  0
  -28.8090  -13.0050   20.1860 C   0  0  0  0  0  2  0  0  0  0  0  0
  -30.0450  -13.3010   19.4450 N   0  0  0  0  0  0  0  0  0  0  0  0
  -31.6300  -14.6940   18.6010 O   0  0  0  0  0  0  0  0  0  0  0  0
  -30.9170  -16.7390   22.2570 C   0  0  0  0  0  2  0  0  0  0  0  0
  -29.6280  -17.2720   21.6520 C   0  0  0  0  0  2  0  0  0  0  0  0
  -31.5520  -15.9680   21.1080 C   0  0  0  0  0  2  0  0  0  0  0  0
  -29.2620  -16.3060   20.5010 C   0  0  0  0  0  3  0  0  0  0  0  0
  -30.4300  -15.3930   20.3680 N   0  0  0  0  0  0  0  0  0  0  0  0
  -25.4020  -13.7320   20.2870 C   0  0  0  0  0  0  0  0  0  0  0  0
  -24.3670  -12.9810   20.7790 C   0  0  0  0  0  0  0  0  0  0  0  0
  -24.7460  -11.6160   20.5930 C   0  0  0  0  0  0  0  0  0  0  0  0
  -26.3520  -12.8230   19.8480 N   0  0  0  0  0  0  0  0  0  0  0  0
  -25.9680  -11.5420   20.0820 N   0  0  0  0  0  0  0  0  0  0  0  0
  -23.9940  -10.3750   20.8200 C   0  0  0  0  0  0  0  0  0  0  0  0
  -24.4210   -9.4170   21.7680 C   0  0  0  0  0  3  0  0  0  0  0  0
  -23.6730   -8.2390   21.9780 C   0  0  0  0  0  3  0  0  0  0  0  0
  -22.4870   -8.0090   21.2400 C   0  0  0  0  0  0  0  0  0  0  0  0
  -22.0820   -8.9530   20.2810 C   0  0  0  0  0  3  0  0  0  0  0  0
  -22.8290  -10.1240   20.0700 C   0  0  0  0  0  3  0  0  0  0  0  0
  -21.7110   -6.8800   21.3600 O   0  0  0  0  0  0  0  0  0  0  0  0
  -21.5610   -6.2320   22.5590 C   0  0  0  0  0  0  0  0  0  0  0  0
  -21.0050   -6.8740   23.6870 C   0  0  0  0  0  3  0  0  0  0  0  0
  -20.8110   -6.1530   24.8810 C   0  0  0  0  0  3  0  0  0  0  0  0
  -21.1570   -4.7890   24.9450 C   0  0  0  0  0  0  0  0  0  0  0  0
  -21.7040   -4.1470   23.8200 C   0  0  0  0  0  3  0  0  0  0  0  0
  -21.9020   -4.8660   22.6290 C   0  0  0  0  0  0  0  0  0  0  0  0
  -22.4120   -4.2380   21.5420 F   0  0  0  0  0  0  0  0  0  0  0  0
  -20.9580   -4.0940   26.0890 F   0  0  0  0  0  0  0  0  0  0  0  0
  -23.0550  -13.4980   21.2930 C   0  0  0  0  0  0  0  0  0  0  0  0
  -22.4840  -12.8360   22.2910 N   0  0  0  0  0  0  0  0  0  0  0  0
  -22.5520  -14.5270   20.8390 O   0  0  0  0  0  0  0  0  0  0  0  0
  -22.9130  -12.0090   22.6800 H   0  0  0  0  0  0  0  0  0  0  0  0
  -21.6120  -13.1630   22.6800 H   0  0  0  0  0  0  0  0  0  0  0  0
  -25.6040  -15.1030   20.1480 N   0  0  0  0  0  0  0  0  0  0  0  0
  -24.7720  -15.6710   20.2820 H   0  0  0  0  0  0  0  0  0  0  0  0
  -26.1160  -15.3800   19.3210 H   0  0  0  0  0  0  0  0  0  0  0  0
  -34.1610  -23.2500   20.5560 C   0  0  0  0  0  2  0  0  0  0  0  0
  -36.5490  -22.6780   19.6000 C   0  0  0  0  0  2  0  0  0  0  0  0
  -35.5480  -22.2650   18.5490 C   0  0  0  0  0  2  0  0  0  0  0  0
  -35.2290  -23.4090   19.4880 C   0  0  0  0  0  3  0  0  0  0  0  0
  -28.8000  -25.5470   19.7410 C   0  0  0  0  0  2  0  0  0  0  0  0
  -28.7150  -26.8880   20.2190 O   0  0  0  0  0  0  0  0  0  0  0  0
  -24.6290  -31.8100   23.2810 C   0  0  0  0  0  0  0  0  0  0  0  0
  -27.5080  -27.5490   20.1670 C   0  0  0  0  0  0  0  0  0  0  0  0
  -23.5410  -30.4800   21.5010 C   0  0  0  0  0  3  0  0  0  0  0  0
  -25.0940  -29.0190   20.1030 C   0  0  0  0  0  0  0  0  0  0  0  0
  -26.0670  -30.8700   21.4760 C   0  0  0  0  0  2  0  0  0  0  0  0
  -26.2060  -29.5310   20.7830 C   0  0  0  0  0  0  0  0  0  0  0  0
  -27.4130  -28.8020   20.8110 C   0  0  0  0  0  3  0  0  0  0  0  0
  -26.3750  -27.0420   19.4900 C   0  0  0  0  0  3  0  0  0  0  0  0
  -25.1730  -27.7730   19.4560 C   0  0  0  0  0  3  0  0  0  0  0  0
  -23.8410  -29.8650   20.1080 C   0  0  0  0  0  2  0  0  0  0  0  0
  -24.7600  -31.0650   22.1460 N   0  0  0  0  0  0  0  0  0  0  0  0
  -23.5130  -32.0490   23.7640 O   0  0  0  0  0  0  0  0  0  0  0  0
  -22.8420  -29.4100   22.3690 C   0  0  0  0  0  0  0  0  0  0  0  0
  -21.5140  -29.2860   22.2090 N   0  0  0  0  0  0  0  0  0  0  0  0
  -23.4910  -28.6970   23.1390 O   0  0  0  0  0  0  0  0  0  0  0  0
  -21.0550  -29.9130   21.5630 H   0  0  0  0  0  0  0  0  0  0  0  0
  -18.0800  -28.2560   22.6450 C   0  0  0  0  0  0  0  0  0  0  0  0
  -20.6520  -28.3220   22.8910 C   0  0  0  0  0  3  0  0  0  0  0  0
  -20.6550  -26.9600   22.1580 C   0  0  0  0  0  2  0  0  0  0  0  0
  -19.5200  -26.8200   21.1380 C   0  0  0  0  0  2  0  0  0  0  0  0
  -18.1590  -26.9810   21.8240 C   0  0  0  0  0  2  0  0  0  0  0  0
  -19.2510  -28.8950   23.1320 C   0  0  0  0  0  0  0  0  0  0  0  0
  -19.1240  -30.0980   23.8610 C   0  0  0  0  0  3  0  0  0  0  0  0
  -17.8570  -30.6590   24.1060 C   0  0  0  0  0  3  0  0  0  0  0  0
  -16.7000  -30.0140   23.6360 C   0  0  0  0  0  3  0  0  0  0  0  0
  -16.8130  -28.8150   22.9120 C   0  0  0  0  0  3  0  0  0  0  0  0
  -25.8670  -32.4180   24.0120 C   0  0  0  0  0  3  0  0  0  0  0  0
  -25.5670  -33.8270   24.2940 N   0  0  0  0  0  0  0  0  0  0  0  0
  -25.9980  -34.8590   23.5560 C   0  0  0  0  0  0  0  0  0  0  0  0
  -26.7600  -34.7230   22.5950 O   0  0  0  0  0  0  0  0  0  0  0  0
  -24.9020  -34.0090   25.0310 H   0  0  0  0  0  0  0  0  0  0  0  0
  -24.3830  -36.7010   22.9910 C   0  0  0  0  0  1  0  0  0  0  0  0
  -25.5040  -36.2660   23.9460 C   0  0  0  0  0  3  0  0  0  0  0  0
  -27.5430  -37.0990   25.0300 C   0  0  0  0  0  1  0  0  0  0  0  0
  -26.5780  -37.2840   23.9510 N   0  0  0  0  0  0  0  0  0  0  0  0
  -26.1850  -38.2190   24.0320 H   0  0  0  0  0  0  0  0  0  0  0  0
  -26.2460  -31.6500   25.3380 C   0  0  1  0  0  0  0  0  0  0  0  0
  -25.0520  -31.4420   26.2980 C   0  0  0  0  0  1  0  0  0  0  0  0
  -26.8380  -30.2600   25.0100 C   0  0  0  0  0  1  0  0  0  0  0  0
  -27.3430  -32.4310   26.1000 C   0  0  0  0  0  1  0  0  0  0  0  0
  2  8  1  0
  2  1  1  0
  3  4  1  0
  3  7  1  0
  5  7  1  0
  5  6  1  0
  5  8  1  0
  6  1  1  0
  9  4  1  0
  9 60  1  0
  9  8  1  0
  9 10  1  6
 11 12  1  0
 11  6  1  0
 13 14  1  0
 14 15  1  0
 14 12  1  0
 15 16  1  0
 17 15  1  0
 18 15  1  0
 18 30  1  0
 19 25  1  0
 19 31  1  0
 20 25  1  0
 21 22  1  0
 21 20  1  0
 22 23  1  0
 23 35  1  0
 23 24  1  0
 25 24  1  0
 26 19  2  0
 28 27  1  0
 29 27  1  0
 30 28  1  0
 31 30  1  0
 31 29  1  0
 32 33  2  0
 33 52  1  0
 34 33  1  0
 34 37  1  0
 35 36  1  0
 35 32  1  0
 36 34  2  0
 37 38  1  0
 38 39  2  0
 40 43  1  0
 40 39  1  0
 41 40  2  0
 42 41  1  0
 42 37  2  0
 43 44  1  0
 44 49  2  0
 44 45  1  0
 45 46  2  0
 46 47  1  0
 47 51  1  0
 48 47  2  0
 49 48  1  0
 50 49  1  0
 52 53  1  0
 53 56  1  0
 53 55  1  0
 54 52  2  0
 57 58  1  0
 57 32  1  0
 59 57  1  0
 62 63  1  0
 62 61  1  0
 63 61  1  0
 63 60  1  0
 64 65  1  0
 64  7  1  0
 66 77  2  0
 66 92  1  0
 67 65  1  0
 67 72  1  0
 68 76  1  0
 68 78  1  0
 69 75  1  0
 69 71  1  0
 70 76  1  0
 71 72  2  0
 71 70  1  0
 73 67  2  0
 74 73  1  0
 74 69  2  0
 75 68  1  0
 76 66  1  0
 78 80  2  0
 79 78  1  0
 79 83  1  0
 81 79  1  0
 82 91  2  0
 82 87  1  0
 83 87  1  0
 84 83  1  0
 85 86  1  0
 85 84  1  0
 86 82  1  0
 87 88  2  0
 88 89  1  0
 90 89  2  0
 91 90  1  0
 92 93  1  0
 92102  1  0
 93 96  1  0
 94 98  1  0
 94 93  1  0
 95 94  2  0
 97 98  1  0
 98100  1  0
100101  1  0
100 99  1  0
102105  1  1
102103  1  0
104102  1  0
M  ISO  4  19 100  31 100  64 101  65 101
M  END
>  <TORSDO>  (72) 
F 24

>  <SCORE>  (72) 
-11.450

>  <name>  (72) 
72

>  <ligand_id>  (72) 
72

>  <original_smiles>  (72) 
[H]c1c([H])c([H])c2c(c1[H])C([H])([H])C([H])([H])C([H])([H])C2([H])N([H])C(=O)C1([H])N(C(=O)C([H])(N([H])C(=O)C([H])(N([H])C([H])([H])[H])C([H])([H])[H])C(C([H])([H])[H])(C([H])([H])[H])C([H])([H])[H])C([H])([H])c2c([H])c(OC([H])([H])C3([H])C([H])([H])C([H])([H])[N+]([H])(C([H])([H])C4([H])C([H])([H])C4([H])[H])C4([H])C([H])([H])C([H])([H])C([H])(C([H])([H])C([H])([H])C([H])(C([H])([H])[H])[N+]([H])([H])C([H])([H])C5([H])N(C(=O)N6C([H])([H])C([H])([H])C([H])([H])C([H])(n7nc(-c8c([H])c([H])c(Oc9c([H])c([H])c(F)c([H])c9F)c([H])c8[H])c(C(=O)N([H])[H])c7N([H])[H])C6([H])[H])C([H])([H])C([H])([H])C5([H])[H])C34[H])c([H])c([H])c2C1([H])[H]

>  <smiles>  (72) 
[H]c1c([H])c([H])c2c(c1[H])C([H])([H])C([H])([H])C([H])([H])C2([H])N([H])C(=O)C1([H])N(C(=O)C([H])(N([H])C(=O)C([H])(N([H])C([H])([H])[H])C([H])([H])[H])C(C([H])([H])[H])(C([H])([H])[H])C([H])([H])[H])C([H])([H])c2c([H])c(OC([H])([H])C3([H])C([H])([H])C([H])([H])[N+]([H])(C([H])([H])C4([H])C([H])([H])C4([H])[H])C4([H])C([H])([H])C([H])([H])C([H])(C([H])([H])C([H])([H])C([H])(C([H])([H])[H])[N+]([H])([H])C([H])([H])C5([H])N(C(=O)N6C([H])([H])C([H])([H])C([H])([H])C([H])(n7nc(-c8c([H])c([H])c(Oc9c([H])c([H])c(F)c([H])c9F)c([H])c8[H])c(C(=O)N([H])[H])c7N([H])[H])C6([H])[H])C([H])([H])C([H])([H])C5([H])[H])C34[H])c([H])c([H])c2C1([H])[H]

$$$$
73:0:0
     RDKit          3D

 98106  0  0  1  0  0  0  0  0999 V2000
  -30.6550  -21.2880   21.0990 C   0  0  0  0  0  2  0  0  0  0  0  0
  -29.8600  -20.0660   21.2070 N   0  0  0  0  0  0  0  0  0  0  0  0
  -29.0380  -20.2280   21.7830 H   0  0  0  0  0  0  0  0  0  0  0  0
  -30.6910  -15.9720   23.3810 C   0  0  0  0  0  2  0  0  0  0  0  0
  -29.6930  -17.6900   21.6830 C   0  0  0  0  0  2  0  0  0  0  0  0
  -30.9470  -17.1240   24.3710 C   0  0  0  0  0  2  0  0  0  0  0  0
  -31.1330  -19.2840   23.1690 C   0  0  0  0  0  2  0  0  0  0  0  0
  -30.4350  -16.3480   21.9010 C   0  0  0  0  0  3  0  0  0  0  0  0
  -30.6190  -18.9330   21.7460 C   0  0  0  0  0  3  0  0  0  0  0  0
  -31.8380  -18.1760   23.8440 N   0  0  0  0  0  4  0  0  0  0  0  0
  -32.5580  -17.7880   23.2580 H   0  0  0  0  0  0  0  0  0  0  0  0
  -32.3010  -18.5850   24.6410 H   0  0  0  0  0  0  0  0  0  0  0  0
  -29.9720  -14.6560   20.0990 C   0  0  0  0  0  0  0  0  0  0  0  0
  -29.5830  -12.6430   18.7240 C   0  0  0  0  0  2  0  0  0  0  0  0
  -28.5050  -12.8600   17.6490 C   0  0  0  0  0  2  0  0  0  0  0  0
  -27.1010  -12.5910   18.2220 C   0  0  0  0  0  2  0  0  0  0  0  0
  -26.8540  -13.3390   19.5580 C   0  0  0  0  0  3  0  0  0  0  0  0
  -28.0250  -13.1120   20.5380 C   0  0  0  0  0  2  0  0  0  0  0  0
  -29.2810  -13.5100   19.8720 N   0  0  0  0  0  0  0  0  0  0  0  0
  -30.8520  -15.0810   19.3440 O   0  0  0  0  0  0  0  0  0  0  0  0
  -29.7050  -15.2410   21.2750 N   0  0  0  0  0  0  0  0  0  0  0  0
  -28.9780  -14.8020   21.8210 H   0  0  0  0  0  0  0  0  0  0  0  0
  -24.5140  -13.7580   20.5530 C   0  0  0  0  0  0  0  0  0  0  0  0
  -23.5330  -12.9000   20.9740 C   0  0  0  0  0  0  0  0  0  0  0  0
  -24.0580  -11.5830   20.7960 C   0  0  0  0  0  0  0  0  0  0  0  0
  -25.5730  -12.9570   20.1520 N   0  0  0  0  0  0  0  0  0  0  0  0
  -25.3060  -11.6400   20.3530 N   0  0  0  0  0  0  0  0  0  0  0  0
  -23.4230  -10.2690   20.9690 C   0  0  0  0  0  0  0  0  0  0  0  0
  -23.9110   -9.3310   21.9060 C   0  0  0  0  0  3  0  0  0  0  0  0
  -23.2740   -8.0820   22.0650 C   0  0  0  0  0  3  0  0  0  0  0  0
  -22.1340   -7.7620   21.2890 C   0  0  0  0  0  0  0  0  0  0  0  0
  -21.6670   -8.6920   20.3430 C   0  0  0  0  0  3  0  0  0  0  0  0
  -22.3060   -9.9310   20.1810 C   0  0  0  0  0  3  0  0  0  0  0  0
  -21.4660   -6.5640   21.3580 O   0  0  0  0  0  0  0  0  0  0  0  0
  -21.3730   -5.8580   22.5310 C   0  0  0  0  0  0  0  0  0  0  0  0
  -20.7930   -6.4140   23.6920 C   0  0  0  0  0  3  0  0  0  0  0  0
  -20.6550   -5.6300   24.8550 C   0  0  0  0  0  3  0  0  0  0  0  0
  -21.0860   -4.2910   24.8570 C   0  0  0  0  0  0  0  0  0  0  0  0
  -21.6600   -3.7330   23.7000 C   0  0  0  0  0  3  0  0  0  0  0  0
  -21.8000   -4.5150   22.5390 C   0  0  0  0  0  0  0  0  0  0  0  0
  -22.3330   -3.9660   21.4210 F   0  0  0  0  0  0  0  0  0  0  0  0
  -20.9470   -3.5340   25.9710 F   0  0  0  0  0  0  0  0  0  0  0  0
  -22.1510  -13.2730   21.4270 C   0  0  0  0  0  0  0  0  0  0  0  0
  -21.5790  -12.5050   22.3480 N   0  0  0  0  0  0  0  0  0  0  0  0
  -21.5880  -14.2810   21.0010 O   0  0  0  0  0  0  0  0  0  0  0  0
  -22.0470  -11.6890   22.7130 H   0  0  0  0  0  0  0  0  0  0  0  0
  -20.6580  -12.7370   22.6940 H   0  0  0  0  0  0  0  0  0  0  0  0
  -24.5870  -15.1450   20.4600 N   0  0  0  0  0  0  0  0  0  0  0  0
  -23.8070  -15.7480   20.6980 H   0  0  0  0  0  0  0  0  0  0  0  0
  -25.3840  -15.6520   20.0940 H   0  0  0  0  0  0  0  0  0  0  0  0
  -29.7270  -22.5010   20.9090 C   0  0  0  0  0  2  0  0  0  0  0  0
  -30.5010  -23.8210   20.7120 C   0  0  0  0  0  2  0  0  0  0  0  0
  -29.6010  -24.9950   20.7270 N   0  0  0  0  0  4  0  0  0  0  0  0
  -29.1700  -25.0600   21.6360 H   0  0  0  0  0  0  0  0  0  0  0  0
  -28.8630  -24.8560   20.0540 H   0  0  0  0  0  0  0  0  0  0  0  0
  -30.2620  -26.2850   20.4180 C   0  0  0  0  0  2  0  0  0  0  0  0
  -29.2670  -27.4530   20.5080 C   0  0  0  0  0  2  0  0  0  0  0  0
  -28.1510  -27.1140   19.6930 O   0  0  0  0  0  0  0  0  0  0  0  0
  -24.2090  -31.9640   23.1860 C   0  0  0  0  0  0  0  0  0  0  0  0
  -26.9860  -27.8340   19.8310 C   0  0  0  0  0  0  0  0  0  0  0  0
  -23.0210  -30.5820   21.5090 C   0  0  0  0  0  3  0  0  0  0  0  0
  -24.5080  -29.1840   19.9800 C   0  0  0  0  0  0  0  0  0  0  0  0
  -25.5140  -31.0830   21.2580 C   0  0  0  0  0  2  0  0  0  0  0  0
  -25.6490  -29.7460   20.5630 C   0  0  0  0  0  0  0  0  0  0  0  0
  -26.8890  -29.0800   20.4950 C   0  0  0  0  0  3  0  0  0  0  0  0
  -25.8280  -27.2790   19.2490 C   0  0  0  0  0  3  0  0  0  0  0  0
  -24.5890  -27.9440   19.3230 C   0  0  0  0  0  3  0  0  0  0  0  0
  -23.2240  -29.9740   20.0940 C   0  0  0  0  0  2  0  0  0  0  0  0
  -24.2670  -31.2210   22.0440 N   0  0  0  0  0  0  0  0  0  0  0  0
  -23.1330  -32.1580   23.7670 O   0  0  0  0  0  0  0  0  0  0  0  0
  -22.4480  -29.4880   22.4380 C   0  0  0  0  0  0  0  0  0  0  0  0
  -21.1390  -29.2170   22.3030 N   0  0  0  0  0  0  0  0  0  0  0  0
  -23.1750  -28.8860   23.2320 O   0  0  0  0  0  0  0  0  0  0  0  0
  -20.6110  -29.7600   21.6340 H   0  0  0  0  0  0  0  0  0  0  0  0
  -17.8630  -27.7590   22.7280 C   0  0  0  0  0  0  0  0  0  0  0  0
  -20.3910  -28.2020   23.0400 C   0  0  0  0  0  3  0  0  0  0  0  0
  -20.6080  -26.7980   22.4320 C   0  0  0  0  0  2  0  0  0  0  0  0
  -19.5460  -26.4170   21.3970 C   0  0  0  0  0  2  0  0  0  0  0  0
  -18.1500  -26.4420   22.0260 C   0  0  0  0  0  2  0  0  0  0  0  0
  -18.9160  -28.5920   23.1910 C   0  0  0  0  0  0  0  0  0  0  0  0
  -18.5960  -29.8220   23.8060 C   0  0  0  0  0  3  0  0  0  0  0  0
  -17.2550  -30.2210   23.9640 C   0  0  0  0  0  3  0  0  0  0  0  0
  -16.2160  -29.3840   23.5200 C   0  0  0  0  0  3  0  0  0  0  0  0
  -16.5210  -28.1560   22.9060 C   0  0  0  0  0  3  0  0  0  0  0  0
  -25.4840  -32.6220   23.8010 C   0  0  0  0  0  3  0  0  0  0  0  0
  -25.1530  -34.0180   24.1160 N   0  0  0  0  0  0  0  0  0  0  0  0
  -25.4910  -35.0680   23.3590 C   0  0  0  0  0  0  0  0  0  0  0  0
  -26.1870  -34.9670   22.3430 O   0  0  0  0  0  0  0  0  0  0  0  0
  -24.5390  -34.1710   24.9040 H   0  0  0  0  0  0  0  0  0  0  0  0
  -23.7700  -36.8490   22.9270 C   0  0  0  0  0  1  0  0  0  0  0  0
  -24.9750  -36.4530   23.7940 C   0  0  0  0  0  3  0  0  0  0  0  0
  -27.0620  -37.3500   24.7250 C   0  0  0  0  0  1  0  0  0  0  0  0
  -26.0060  -37.5110   23.7290 N   0  0  0  0  0  0  0  0  0  0  0  0
  -25.5870  -38.4300   23.8560 H   0  0  0  0  0  0  0  0  0  0  0  0
  -26.0180  -31.8700   25.0800 C   0  0  1  0  0  0  0  0  0  0  0  0
  -24.9290  -31.6040   26.1450 C   0  0  0  0  0  1  0  0  0  0  0  0
  -26.6400  -30.5090   24.6880 C   0  0  0  0  0  1  0  0  0  0  0  0
  -27.1440  -32.6970   25.7440 C   0  0  0  0  0  1  0  0  0  0  0  0
  1  2  1  0
  2  3  1  0
  4  6  1  0
  5  9  1  0
  5  8  1  0
  7 10  1  0
  8 21  1  0
  8  4  1  0
  9  2  1  0
  9  7  1  0
 10  6  1  0
 10 12  1  0
 11 10  1  0
 13 21  1  0
 14 19  1  0
 15 16  1  0
 15 14  1  0
 17 16  1  0
 17 26  1  0
 17 18  1  0
 19 13  1  0
 19 18  1  0
 20 13  2  0
 21 22  1  0
 23 24  2  0
 24 43  1  0
 25 28  1  0
 25 24  1  0
 26 27  1  0
 26 23  1  0
 27 25  2  0
 28 29  1  0
 29 30  2  0
 31 34  1  0
 31 30  1  0
 32 31  2  0
 33 32  1  0
 33 28  2  0
 34 35  1  0
 35 40  2  0
 35 36  1  0
 36 37  2  0
 37 38  1  0
 38 42  1  0
 39 38  2  0
 40 39  1  0
 41 40  1  0
 43 44  1  0
 44 47  1  0
 44 46  1  0
 45 43  2  0
 48 23  1  0
 48 49  1  0
 50 48  1  0
 51  1  1  0
 52 53  1  0
 52 51  1  0
 53 54  1  0
 55 53  1  0
 56 57  1  0
 56 53  1  0
 58 60  1  0
 58 57  1  0
 59 70  2  0
 60 65  1  0
 61 69  1  0
 61 71  1  0
 62 68  1  0
 62 64  1  0
 63 69  1  0
 64 63  1  0
 65 64  2  0
 66 67  1  0
 66 60  2  0
 67 62  2  0
 68 61  1  0
 69 59  1  0
 71 73  2  0
 72 71  1  0
 74 72  1  0
 75 84  2  0
 75 80  1  0
 76 72  1  0
 76 80  1  0
 77 76  1  0
 78 79  1  0
 78 77  1  0
 79 75  1  0
 80 81  2  0
 81 82  1  0
 83 82  2  0
 84 83  1  0
 85 59  1  0
 85 86  1  0
 85 95  1  0
 86 89  1  0
 87 91  1  0
 87 86  1  0
 88 87  2  0
 91 90  1  0
 93 91  1  0
 93 94  1  0
 93 92  1  0
 95 98  1  1
 95 96  1  0
 97 95  1  0
M  ISO  4  13 100  21 100  57 101  58 101
M  END
>  <TORSDO>  (73) 
F 23

>  <SCORE>  (73) 
-5.421

>  <name>  (73) 
73

>  <ligand_id>  (73) 
73

>  <original_smiles>  (73) 
[H]c1c([H])c([H])c2c(c1[H])C([H])([H])C([H])([H])C([H])([H])C2([H])N([H])C(=O)C1([H])N(C(=O)C([H])(N([H])C(=O)C([H])(N([H])C([H])([H])[H])C([H])([H])[H])C(C([H])([H])[H])(C([H])([H])[H])C([H])([H])[H])C([H])([H])c2c([H])c(OC([H])([H])C([H])([H])[N+]([H])([H])C([H])([H])C([H])([H])C([H])([H])N([H])C3([H])C([H])([H])C([H])(N([H])C(=O)N4C([H])([H])C([H])([H])C([H])([H])C([H])(n5nc(-c6c([H])c([H])c(Oc7c([H])c([H])c(F)c([H])c7F)c([H])c6[H])c(C(=O)N([H])[H])c5N([H])[H])C4([H])[H])C([H])([H])C([H])([H])[N+]([H])([H])C3([H])[H])c([H])c([H])c2C1([H])[H]

>  <smiles>  (73) 
[H]c1c([H])c([H])c2c(c1[H])C([H])([H])C([H])([H])C([H])([H])C2([H])N([H])C(=O)C1([H])N(C(=O)C([H])(N([H])C(=O)C([H])(N([H])C([H])([H])[H])C([H])([H])[H])C(C([H])([H])[H])(C([H])([H])[H])C([H])([H])[H])C([H])([H])c2c([H])c(OC([H])([H])C([H])([H])[N+]([H])([H])C([H])([H])C([H])([H])C([H])([H])N([H])C3([H])C([H])([H])C([H])(N([H])C(=O)N4C([H])([H])C([H])([H])C([H])([H])C([H])(n5nc(-c6c([H])c([H])c(Oc7c([H])c([H])c(F)c([H])c7F)c([H])c6[H])c(C(=O)N([H])[H])c5N([H])[H])C4([H])[H])C([H])([H])C([H])([H])[N+]([H])([H])C3([H])[H])c([H])c([H])c2C1([H])[H]

$$$$
74:0:0
     RDKit          3D

 91 99  0  0  1  0  0  0  0  0999 V2000
  -28.7860  -21.1420   20.7000 C   0  0  0  0  0  2  0  0  0  0  0  0
  -28.7960  -18.3500   20.4490 C   0  0  0  0  0  2  0  0  0  0  0  0
  -31.1360  -18.1130   20.6100 C   0  0  0  0  0  2  0  0  0  0  0  0
  -29.9230  -17.2920   20.1220 C   0  0  0  0  0  3  0  0  0  0  0  0
  -29.4010  -19.7700   20.0770 C   0  0  0  0  0  3  0  0  0  0  0  0
  -30.8470  -19.5610   20.3390 N   0  0  0  0  0  4  0  0  0  0  0  0
  -31.3570  -19.8680   19.5270 H   0  0  0  0  0  0  0  0  0  0  0  0
  -31.1480  -20.1230   21.1170 H   0  0  0  0  0  0  0  0  0  0  0  0
  -30.5690  -14.7330   20.3340 C   0  0  0  0  0  0  0  0  0  0  0  0
  -30.3550  -12.4640   19.3240 C   0  0  0  0  0  2  0  0  0  0  0  0
  -29.4060  -12.5670   18.1070 C   0  0  0  0  0  2  0  0  0  0  0  0
  -27.9390  -12.4010   18.5500 C   0  0  0  0  0  2  0  0  0  0  0  0
  -27.5840  -13.2810   19.7780 C   0  0  0  0  0  3  0  0  0  0  0  0
  -28.6510  -13.1660   20.8910 C   0  0  0  0  0  2  0  0  0  0  0  0
  -29.9510  -13.5050   20.2970 N   0  0  0  0  0  0  0  0  0  0  0  0
  -31.7310  -14.8610   19.9400 O   0  0  0  0  0  0  0  0  0  0  0  0
  -29.7800  -15.8400   20.5890 N   0  0  0  0  0  0  0  0  0  0  0  0
  -28.8670  -15.6010   20.9460 H   0  0  0  0  0  0  0  0  0  0  0  0
  -25.2010  -13.8840   20.5190 C   0  0  0  0  0  0  0  0  0  0  0  0
  -24.1350  -13.1150   20.8960 C   0  0  0  0  0  0  0  0  0  0  0  0
  -24.5920  -11.7610   20.8610 C   0  0  0  0  0  0  0  0  0  0  0  0
  -26.2400  -13.0000   20.2760 N   0  0  0  0  0  0  0  0  0  0  0  0
  -25.8800  -11.7190   20.5430 N   0  0  0  0  0  0  0  0  0  0  0  0
  -23.8610  -10.5020   21.0540 C   0  0  0  0  0  0  0  0  0  0  0  0
  -24.3020   -9.5260   21.9740 C   0  0  0  0  0  3  0  0  0  0  0  0
  -23.5720   -8.3310   22.1560 C   0  0  0  0  0  3  0  0  0  0  0  0
  -22.3860   -8.1050   21.4170 C   0  0  0  0  0  0  0  0  0  0  0  0
  -21.9640   -9.0700   20.4860 C   0  0  0  0  0  3  0  0  0  0  0  0
  -22.6950  -10.2560   20.3020 C   0  0  0  0  0  3  0  0  0  0  0  0
  -21.6260   -6.9640   21.5090 O   0  0  0  0  0  0  0  0  0  0  0  0
  -21.5990   -6.2070   22.6530 C   0  0  0  0  0  0  0  0  0  0  0  0
  -21.2130   -6.7510   23.8970 C   0  0  0  0  0  3  0  0  0  0  0  0
  -21.1330   -5.9220   25.0330 C   0  0  0  0  0  3  0  0  0  0  0  0
  -21.4280   -4.5500   24.9270 C   0  0  0  0  0  0  0  0  0  0  0  0
  -21.8080   -4.0050   23.6880 C   0  0  0  0  0  3  0  0  0  0  0  0
  -21.8900   -4.8320   22.5530 C   0  0  0  0  0  0  0  0  0  0  0  0
  -22.2350   -4.2990   21.3560 F   0  0  0  0  0  0  0  0  0  0  0  0
  -21.3440   -3.7500   26.0160 F   0  0  0  0  0  0  0  0  0  0  0  0
  -22.7410  -13.5980   21.1780 C   0  0  0  0  0  0  0  0  0  0  0  0
  -22.0170  -12.9030   22.0470 N   0  0  0  0  0  0  0  0  0  0  0  0
  -22.3060  -14.6270   20.6640 O   0  0  0  0  0  0  0  0  0  0  0  0
  -22.3820  -12.0690   22.4840 H   0  0  0  0  0  0  0  0  0  0  0  0
  -21.0820  -13.2090   22.2800 H   0  0  0  0  0  0  0  0  0  0  0  0
  -25.3700  -15.2540   20.3370 N   0  0  0  0  0  0  0  0  0  0  0  0
  -24.5980  -15.9050   20.4300 H   0  0  0  0  0  0  0  0  0  0  0  0
  -26.2060  -15.6840   19.9640 H   0  0  0  0  0  0  0  0  0  0  0  0
  -28.9650  -22.4540   19.9620 N   0  0  0  0  0  0  0  0  0  0  0  0
  -28.5780  -22.3440   19.0270 H   0  0  0  0  0  0  0  0  0  0  0  0
  -28.3930  -23.7310   20.5570 C   0  0  0  0  0  2  0  0  0  0  0  0
  -28.4580  -25.0880   19.6750 C   0  0  0  0  0  2  0  0  0  0  0  0
  -28.3460  -26.4610   20.2650 O   0  0  0  0  0  0  0  0  0  0  0  0
  -24.5990  -31.8860   23.2320 C   0  0  0  0  0  0  0  0  0  0  0  0
  -27.2090  -27.2930   20.1830 C   0  0  0  0  0  0  0  0  0  0  0  0
  -23.3970  -30.4870   21.5910 C   0  0  0  0  0  3  0  0  0  0  0  0
  -24.8480  -28.9300   20.1660 C   0  0  0  0  0  0  0  0  0  0  0  0
  -25.9390  -30.7950   21.4140 C   0  0  0  0  0  2  0  0  0  0  0  0
  -26.0160  -29.4140   20.7660 C   0  0  0  0  0  0  0  0  0  0  0  0
  -27.1950  -28.6060   20.7650 C   0  0  0  0  0  3  0  0  0  0  0  0
  -26.0130  -26.8650   19.5670 C   0  0  0  0  0  3  0  0  0  0  0  0
  -24.8500  -27.6630   19.5590 C   0  0  0  0  0  3  0  0  0  0  0  0
  -23.6140  -29.8100   20.2110 C   0  0  0  0  0  2  0  0  0  0  0  0
  -24.6640  -31.0740   22.1360 N   0  0  0  0  0  0  0  0  0  0  0  0
  -23.5150  -32.1660   23.7650 O   0  0  0  0  0  0  0  0  0  0  0  0
  -22.7320  -29.4730   22.5520 C   0  0  0  0  0  0  0  0  0  0  0  0
  -21.4050  -29.3010   22.4270 N   0  0  0  0  0  0  0  0  0  0  0  0
  -23.4090  -28.8430   23.3690 O   0  0  0  0  0  0  0  0  0  0  0  0
  -20.9170  -29.8640   21.7440 H   0  0  0  0  0  0  0  0  0  0  0  0
  -18.0200  -28.1250   22.9330 C   0  0  0  0  0  0  0  0  0  0  0  0
  -20.5810  -28.3680   23.1990 C   0  0  0  0  0  3  0  0  0  0  0  0
  -20.6730  -26.9370   22.6200 C   0  0  0  0  0  2  0  0  0  0  0  0
  -19.5660  -26.6240   21.6070 C   0  0  0  0  0  2  0  0  0  0  0  0
  -18.1860  -26.7760   22.2540 C   0  0  0  0  0  2  0  0  0  0  0  0
  -19.1440  -28.8800   23.3630 C   0  0  0  0  0  0  0  0  0  0  0  0
  -18.9350  -30.1420   23.9590 C   0  0  0  0  0  3  0  0  0  0  0  0
  -17.6350  -30.6510   24.1290 C   0  0  0  0  0  3  0  0  0  0  0  0
  -16.5240  -29.8940   23.7180 C   0  0  0  0  0  3  0  0  0  0  0  0
  -16.7180  -28.6330   23.1260 C   0  0  0  0  0  3  0  0  0  0  0  0
  -25.8800  -32.5190   23.8560 C   0  0  0  0  0  3  0  0  0  0  0  0
  -26.3920  -31.7510   25.1370 C   0  0  1  0  0  0  0  0  0  0  0  0
  -25.2950  -31.5210   26.2030 C   0  0  0  0  0  1  0  0  0  0  0  0
  -26.9730  -30.3700   24.7520 C   0  0  0  0  0  1  0  0  0  0  0  0
  -27.5440  -32.5440   25.7990 C   0  0  0  0  0  1  0  0  0  0  0  0
  -25.5700  -33.9180   24.1840 N   0  0  0  0  0  0  0  0  0  0  0  0
  -25.9080  -34.9720   23.4270 C   0  0  0  0  0  0  0  0  0  0  0  0
  -26.5800  -34.8660   22.3970 O   0  0  0  0  0  0  0  0  0  0  0  0
  -24.9710  -34.0730   24.9810 H   0  0  0  0  0  0  0  0  0  0  0  0
  -24.1830  -36.7680   23.0710 C   0  0  0  0  0  1  0  0  0  0  0  0
  -25.4230  -36.3610   23.8840 C   0  0  0  0  0  3  0  0  0  0  0  0
  -27.5580  -37.2410   24.7150 C   0  0  0  0  0  1  0  0  0  0  0  0
  -26.4580  -37.4120   23.7720 N   0  0  0  0  0  0  0  0  0  0  0  0
  -26.0520  -38.3330   23.9190 H   0  0  0  0  0  0  0  0  0  0  0  0
  4  2  1  0
  4 17  1  0
  4  3  1  0
  5  6  1  0
  5  2  1  0
  5  1  1  0
  6  3  1  0
  6  8  1  0
  7  6  1  0
  9 17  1  0
 10 15  1  0
 11 12  1  0
 11 10  1  0
 13 12  1  0
 13 22  1  0
 13 14  1  0
 15  9  1  0
 15 14  1  0
 16  9  2  0
 17 18  1  0
 19 20  2  0
 20 39  1  0
 21 20  1  0
 21 24  1  0
 22 19  1  0
 22 23  1  0
 23 21  2  0
 24 25  1  0
 25 26  2  0
 27 30  1  0
 27 26  1  0
 28 27  2  0
 29 28  1  0
 29 24  2  0
 30 31  1  0
 31 32  1  0
 32 33  2  0
 34 33  1  0
 34 38  1  0
 35 34  2  0
 36 31  2  0
 36 35  1  0
 37 36  1  0
 39 40  1  0
 40 43  1  0
 40 42  1  0
 41 39  2  0
 44 45  1  0
 44 19  1  0
 46 44  1  0
 47 49  1  0
 47  1  1  0
 48 47  1  0
 50 51  1  0
 50 49  1  0
 52 63  2  0
 53 51  1  0
 53 58  1  0
 54 62  1  0
 54 64  1  0
 55 61  1  0
 55 57  1  0
 56 62  1  0
 57 56  1  0
 58 57  2  0
 59 53  2  0
 60 59  1  0
 60 55  2  0
 61 54  1  0
 62 52  1  0
 64 66  2  0
 65 64  1  0
 67 65  1  0
 68 77  2  0
 68 73  1  0
 69 65  1  0
 69 73  1  0
 70 69  1  0
 71 72  1  0
 71 70  1  0
 72 68  1  0
 73 74  2  0
 74 75  1  0
 76 75  2  0
 77 76  1  0
 78 52  1  0
 78 83  1  0
 78 79  1  0
 79 82  1  1
 79 80  1  0
 81 79  1  0
 83 86  1  0
 84 88  1  0
 84 83  1  0
 85 84  2  0
 88 87  1  0
 90 88  1  0
 90 91  1  0
 90 89  1  0
M  ISO  4   9 100  17 100  50 101  51 101
M  END
>  <TORSDO>  (74) 
F 20

>  <SCORE>  (74) 
-13.832

>  <name>  (74) 
74

>  <ligand_id>  (74) 
74

>  <original_smiles>  (74) 
[H]c1c([H])c([H])c2c(c1[H])C([H])([H])C([H])([H])C([H])([H])C2([H])N([H])C(=O)C1([H])N(C(=O)C([H])(N([H])C(=O)C([H])(N([H])C([H])([H])[H])C([H])([H])[H])C(C([H])([H])[H])(C([H])([H])[H])C([H])([H])[H])C([H])([H])c2c([H])c(OC([H])([H])C([H])([H])N([H])C([H])([H])C3([H])C([H])([H])C([H])(N([H])C(=O)N4C([H])([H])C([H])([H])C([H])([H])C([H])(n5nc(-c6c([H])c([H])c(Oc7c([H])c([H])c(F)c([H])c7F)c([H])c6[H])c(C(=O)N([H])[H])c5N([H])[H])C4([H])[H])C([H])([H])[N+]3([H])[H])c([H])c([H])c2C1([H])[H]

>  <smiles>  (74) 
[H]c1c([H])c([H])c2c(c1[H])C([H])([H])C([H])([H])C([H])([H])C2([H])N([H])C(=O)C1([H])N(C(=O)C([H])(N([H])C(=O)C([H])(N([H])C([H])([H])[H])C([H])([H])[H])C(C([H])([H])[H])(C([H])([H])[H])C([H])([H])[H])C([H])([H])c2c([H])c(OC([H])([H])C([H])([H])N([H])C([H])([H])C3([H])C([H])([H])C([H])(N([H])C(=O)N4C([H])([H])C([H])([H])C([H])([H])C([H])(n5nc(-c6c([H])c([H])c(Oc7c([H])c([H])c(F)c([H])c7F)c([H])c6[H])c(C(=O)N([H])[H])c5N([H])[H])C4([H])[H])C([H])([H])[N+]3([H])[H])c([H])c([H])c2C1([H])[H]

$$$$
75:0:0
     RDKit          3D

 99107  0  0  1  0  0  0  0  0999 V2000
  -30.2440  -19.6300   21.1640 N   0  0  0  0  0  4  0  0  0  0  0  0
  -29.5690  -19.6630   21.9100 H   0  0  0  0  0  0  0  0  0  0  0  0
  -31.1520  -19.7060   21.5950 H   0  0  0  0  0  0  0  0  0  0  0  0
  -30.0680  -20.8690   20.3310 C   0  0  0  0  0  2  0  0  0  0  0  0
  -29.0530  -21.9340   20.8970 C   0  0  0  0  0  2  0  0  0  0  0  0
  -29.3450  -23.3390   20.5160 N   0  0  0  0  0  0  0  0  0  0  0  0
  -29.4260  -23.4290   19.5050 H   0  0  0  0  0  0  0  0  0  0  0  0
  -28.3180  -24.3020   20.9770 C   0  0  0  0  0  2  0  0  0  0  0  0
  -28.7830  -25.7970   21.0890 C   0  0  0  0  0  2  0  0  0  0  0  0
  -28.4880  -26.6780   19.9850 O   0  0  0  0  0  0  0  0  0  0  0  0
  -24.6320  -31.8540   23.1470 C   0  0  0  0  0  0  0  0  0  0  0  0
  -27.3270  -27.4260   20.0630 C   0  0  0  0  0  0  0  0  0  0  0  0
  -23.4450  -30.4450   21.4970 C   0  0  0  0  0  3  0  0  0  0  0  0
  -24.9190  -28.9230   20.0720 C   0  0  0  0  0  0  0  0  0  0  0  0
  -25.9680  -30.8260   21.3050 C   0  0  0  0  0  2  0  0  0  0  0  0
  -26.0720  -29.4520   20.6670 C   0  0  0  0  0  0  0  0  0  0  0  0
  -27.2810  -28.7110   20.6610 C   0  0  0  0  0  3  0  0  0  0  0  0
  -26.1600  -26.9190   19.4580 C   0  0  0  0  0  3  0  0  0  0  0  0
  -24.9580  -27.6550   19.4660 C   0  0  0  0  0  3  0  0  0  0  0  0
  -23.6660  -29.7710   20.1160 C   0  0  0  0  0  2  0  0  0  0  0  0
  -24.7000  -31.0580   22.0410 N   0  0  0  0  0  0  0  0  0  0  0  0
  -23.5490  -32.1100   23.6890 O   0  0  0  0  0  0  0  0  0  0  0  0
  -22.8030  -29.4130   22.4540 C   0  0  0  0  0  0  0  0  0  0  0  0
  -21.4800  -29.2180   22.3270 N   0  0  0  0  0  0  0  0  0  0  0  0
  -23.4930  -28.7920   23.2660 O   0  0  0  0  0  0  0  0  0  0  0  0
  -20.9830  -29.7730   21.6450 H   0  0  0  0  0  0  0  0  0  0  0  0
  -18.1150  -28.0020   22.8430 C   0  0  0  0  0  0  0  0  0  0  0  0
  -20.6750  -28.2670   23.0930 C   0  0  0  0  0  3  0  0  0  0  0  0
  -20.7780  -26.8440   22.4970 C   0  0  0  0  0  2  0  0  0  0  0  0
  -19.6670  -26.5300   21.4890 C   0  0  0  0  0  2  0  0  0  0  0  0
  -18.2900  -26.6620   22.1480 C   0  0  0  0  0  2  0  0  0  0  0  0
  -19.2350  -28.7620   23.2720 C   0  0  0  0  0  0  0  0  0  0  0  0
  -19.0170  -30.0180   23.8810 C   0  0  0  0  0  3  0  0  0  0  0  0
  -17.7130  -30.5110   24.0670 C   0  0  0  0  0  3  0  0  0  0  0  0
  -16.6080  -29.7480   23.6540 C   0  0  0  0  0  3  0  0  0  0  0  0
  -16.8090  -28.4950   23.0470 C   0  0  0  0  0  3  0  0  0  0  0  0
  -25.9110  -32.4980   23.7680 C   0  0  0  0  0  3  0  0  0  0  0  0
  -25.5860  -33.8930   24.1030 N   0  0  0  0  0  0  0  0  0  0  0  0
  -25.9180  -34.9510   23.3520 C   0  0  0  0  0  0  0  0  0  0  0  0
  -26.6010  -34.8580   22.3270 O   0  0  0  0  0  0  0  0  0  0  0  0
  -24.9840  -34.0370   24.8980 H   0  0  0  0  0  0  0  0  0  0  0  0
  -24.1860  -36.7350   22.9760 C   0  0  0  0  0  1  0  0  0  0  0  0
  -25.4140  -36.3340   23.8080 C   0  0  0  0  0  3  0  0  0  0  0  0
  -27.5260  -37.2250   24.6890 C   0  0  0  0  0  1  0  0  0  0  0  0
  -26.4430  -37.3930   23.7240 N   0  0  0  0  0  0  0  0  0  0  0  0
  -26.0280  -38.3100   23.8700 H   0  0  0  0  0  0  0  0  0  0  0  0
  -26.4390  -31.7290   25.0410 C   0  0  1  0  0  0  0  0  0  0  0  0
  -25.3450  -31.4540   26.0990 C   0  0  0  0  0  1  0  0  0  0  0  0
  -27.0580  -30.3690   24.6370 C   0  0  0  0  0  1  0  0  0  0  0  0
  -27.5640  -32.5440   25.7180 C   0  0  0  0  0  1  0  0  0  0  0  0
  -30.1610  -18.2820   20.4900 C   0  0  0  0  0  3  0  0  0  0  0  0
  -28.8060  -18.2230   19.8090 C   0  0  0  0  0  3  0  0  0  0  0  0
  -28.9760  -19.3560   16.2730 C   0  0  0  0  0  2  0  0  0  0  0  0
  -27.5370  -19.6940   16.6570 C   0  0  0  0  0  2  0  0  0  0  0  0
  -29.6750  -19.1370   17.6170 C   0  0  0  0  0  2  0  0  0  0  0  0
  -27.2930  -18.8640   17.9200 C   0  0  0  0  0  2  0  0  0  0  0  0
  -28.6180  -18.6890   18.5420 N   0  0  0  0  0  0  0  0  0  0  0  0
  -27.7590  -17.7310   20.5000 N   0  0  0  0  0  0  0  0  0  0  0  0
  -27.8440  -17.2930   21.4050 H   0  0  0  0  0  0  0  0  0  0  0  0
  -26.8540  -17.6440   20.0630 H   0  0  0  0  0  0  0  0  0  0  0  0
  -30.3950  -17.0770   21.4970 C   0  0  0  0  0  2  0  0  0  0  0  0
  -30.7700  -14.6830   20.6040 C   0  0  0  0  0  0  0  0  0  0  0  0
  -30.5360  -12.5270   19.3980 C   0  0  0  0  0  2  0  0  0  0  0  0
  -29.5990  -12.7330   18.1900 C   0  0  0  0  0  2  0  0  0  0  0  0
  -28.1220  -12.5690   18.6040 C   0  0  0  0  0  2  0  0  0  0  0  0
  -27.7660  -13.3740   19.8820 C   0  0  0  0  0  3  0  0  0  0  0  0
  -28.8130  -13.1410   20.9930 C   0  0  0  0  0  2  0  0  0  0  0  0
  -30.1310  -13.4890   20.4390 N   0  0  0  0  0  0  0  0  0  0  0  0
  -31.9230  -14.8770   20.2130 O   0  0  0  0  0  0  0  0  0  0  0  0
  -29.9970  -15.6970   21.0830 N   0  0  0  0  0  0  0  0  0  0  0  0
  -29.0580  -15.4140   21.3240 H   0  0  0  0  0  0  0  0  0  0  0  0
  -25.3710  -13.9630   20.6010 C   0  0  0  0  0  0  0  0  0  0  0  0
  -24.2980  -13.1870   20.9410 C   0  0  0  0  0  0  0  0  0  0  0  0
  -24.7550  -11.8370   20.8730 C   0  0  0  0  0  0  0  0  0  0  0  0
  -26.4120  -13.0870   20.3440 N   0  0  0  0  0  0  0  0  0  0  0  0
  -26.0470  -11.8000   20.5700 N   0  0  0  0  0  0  0  0  0  0  0  0
  -24.0230  -10.5750   21.0200 C   0  0  0  0  0  0  0  0  0  0  0  0
  -24.4230   -9.5960   21.9580 C   0  0  0  0  0  3  0  0  0  0  0  0
  -23.6910   -8.3980   22.0950 C   0  0  0  0  0  3  0  0  0  0  0  0
  -22.5470   -8.1690   21.2940 C   0  0  0  0  0  0  0  0  0  0  0  0
  -22.1670   -9.1360   20.3470 C   0  0  0  0  0  3  0  0  0  0  0  0
  -22.8990  -10.3260   20.2070 C   0  0  0  0  0  3  0  0  0  0  0  0
  -21.7910   -7.0230   21.3410 O   0  0  0  0  0  0  0  0  0  0  0  0
  -21.6730   -6.2850   22.4920 C   0  0  0  0  0  0  0  0  0  0  0  0
  -21.1680   -6.8440   23.6860 C   0  0  0  0  0  3  0  0  0  0  0  0
  -20.9970   -6.0320   24.8250 C   0  0  0  0  0  3  0  0  0  0  0  0
  -21.3240   -4.6630   24.7710 C   0  0  0  0  0  0  0  0  0  0  0  0
  -21.8240   -4.1060   23.5810 C   0  0  0  0  0  3  0  0  0  0  0  0
  -21.9950   -4.9140   22.4440 C   0  0  0  0  0  0  0  0  0  0  0  0
  -22.4580   -4.3670   21.2940 F   0  0  0  0  0  0  0  0  0  0  0  0
  -21.1540   -3.8820   25.8630 F   0  0  0  0  0  0  0  0  0  0  0  0
  -22.9000  -13.6670   21.2090 C   0  0  0  0  0  0  0  0  0  0  0  0
  -22.1640  -12.9660   22.0640 N   0  0  0  0  0  0  0  0  0  0  0  0
  -22.4700  -14.6990   20.6930 O   0  0  0  0  0  0  0  0  0  0  0  0
  -22.5250  -12.1330   22.5040 H   0  0  0  0  0  0  0  0  0  0  0  0
  -21.2270  -13.2700   22.2850 H   0  0  0  0  0  0  0  0  0  0  0  0
  -25.5400  -15.3340   20.4580 N   0  0  0  0  0  0  0  0  0  0  0  0
  -24.6880  -15.8790   20.4010 H   0  0  0  0  0  0  0  0  0  0  0  0
  -26.2660  -15.6560   19.8370 H   0  0  0  0  0  0  0  0  0  0  0  0
  1  3  1  0
  1  2  1  0
  4  5  1  0
  4  1  1  0
  6  5  1  0
  6  8  1  0
  7  6  1  0
  8  9  1  0
 10 12  1  0
 10  9  1  0
 11 22  2  0
 12 17  1  0
 13 21  1  0
 13 23  1  0
 14 20  1  0
 14 16  1  0
 15 21  1  0
 16 15  1  0
 17 16  2  0
 18 19  1  0
 18 12  2  0
 19 14  2  0
 20 13  1  0
 21 11  1  0
 23 25  2  0
 24 23  1  0
 26 24  1  0
 27 36  2  0
 27 32  1  0
 28 24  1  0
 28 32  1  0
 29 28  1  0
 30 31  1  0
 30 29  1  0
 31 27  1  0
 32 33  2  0
 33 34  1  0
 35 34  2  0
 36 35  1  0
 37 11  1  0
 37 38  1  0
 37 47  1  0
 38 41  1  0
 39 43  1  0
 39 38  1  0
 40 39  2  0
 43 42  1  0
 45 43  1  0
 45 46  1  0
 45 44  1  0
 47 50  1  1
 47 48  1  0
 49 47  1  0
 51  1  1  0
 51 61  1  0
 52 51  1  0
 52 58  1  0
 53 54  1  0
 53 55  1  0
 54 56  1  0
 55 57  1  0
 56 57  1  0
 57 52  1  0
 58 59  1  0
 60 58  1  0
 62 70  1  0
 63 68  1  0
 64 65  1  0
 64 63  1  0
 66 65  1  0
 66 75  1  0
 66 67  1  0
 68 62  1  0
 68 67  1  0
 69 62  2  0
 70 71  1  0
 70 61  1  0
 72 73  2  0
 73 92  1  0
 74 73  1  0
 74 77  1  0
 75 76  1  0
 75 72  1  0
 76 74  2  0
 77 78  1  0
 78 79  2  0
 80 83  1  0
 80 79  1  0
 81 80  2  0
 82 81  1  0
 82 77  2  0
 83 84  1  0
 84 85  1  0
 85 86  2  0
 87 86  1  0
 87 91  1  0
 88 87  2  0
 89 84  2  0
 89 88  1  0
 90 89  1  0
 92 93  1  0
 93 96  1  0
 93 95  1  0
 94 92  2  0
 97 72  1  0
 98 97  1  0
 99 97  1  0
M  ISO  4   9 101  10 101  62 100  70 100
M  END
>  <TORSDO>  (75) 
F 24

>  <SCORE>  (75) 
-12.678

>  <name>  (75) 
75

>  <ligand_id>  (75) 
75

>  <original_smiles>  (75) 
[H]c1c([H])c([H])c2c(c1[H])C([H])([H])C([H])([H])C([H])([H])C2([H])N([H])C(=O)C1([H])N(C(=O)C([H])(N([H])C(=O)C([H])(N([H])C([H])([H])[H])C([H])([H])[H])C(C([H])([H])[H])(C([H])([H])[H])C([H])([H])[H])C([H])([H])c2c([H])c(OC([H])([H])C([H])([H])N([H])C([H])([H])C([H])([H])[N+]([H])([H])C([H])(C(N3C([H])([H])C([H])([H])C([H])([H])C3([H])[H])=[N+]([H])[H])C([H])([H])N([H])C(=O)N3C([H])([H])C([H])([H])C([H])([H])C([H])(n4nc(-c5c([H])c([H])c(Oc6c([H])c([H])c(F)c([H])c6F)c([H])c5[H])c(C(=O)N([H])[H])c4N([H])[H])C3([H])[H])c([H])c([H])c2C1([H])[H]

>  <smiles>  (75) 
[H]c1c([H])c([H])c2c(c1[H])C([H])([H])C([H])([H])C([H])([H])C2([H])N([H])C(=O)C1([H])N(C(=O)C([H])(N([H])C(=O)C([H])(N([H])C([H])([H])[H])C([H])([H])[H])C(C([H])([H])[H])(C([H])([H])[H])C([H])([H])[H])C([H])([H])c2c([H])c(OC([H])([H])C([H])([H])N([H])C([H])([H])C([H])([H])[N+]([H])([H])C([H])(C(N3C([H])([H])C([H])([H])C([H])([H])C3([H])[H])=[N+]([H])[H])C([H])([H])N([H])C(=O)N3C([H])([H])C([H])([H])C([H])([H])C([H])(n4nc(-c5c([H])c([H])c(Oc6c([H])c([H])c(F)c([H])c6F)c([H])c5[H])c(C(=O)N([H])[H])c4N([H])[H])C3([H])[H])c([H])c([H])c2C1([H])[H]

$$$$
76:0:0
     RDKit          3D

 88 96  0  0  1  0  0  0  0  0999 V2000
  -30.3890  -15.5930   20.3260 C   0  0  0  0  0  0  0  0  0  0  0  0
  -30.4040  -13.0640   19.5280 C   0  0  0  0  0  2  0  0  0  0  0  0
  -29.5470  -12.6600   18.2990 C   0  0  0  0  0  2  0  0  0  0  0  0
  -28.1140  -12.3240   18.7310 C   0  0  0  0  0  2  0  0  0  0  0  0
  -27.5820  -13.3430   19.7660 C   0  0  0  0  0  3  0  0  0  0  0  0
  -28.5900  -13.6850   20.8910 C   0  0  0  0  0  2  0  0  0  0  0  0
  -29.7790  -14.2720   20.2350 N   0  0  0  0  0  0  0  0  0  0  0  0
  -31.6200  -15.4340   20.2040 O   0  0  0  0  0  0  0  0  0  0  0  0
  -29.0480  -22.4160   20.2910 C   0  0  0  0  0  0  0  0  0  0  0  0
  -30.3410  -19.9400   20.6350 C   0  0  0  0  0  3  0  0  0  0  0  0
  -28.1730  -19.5840   20.0070 C   0  0  0  0  0  3  0  0  0  0  0  0
  -30.6480  -18.3710   20.0080 C   0  0  0  0  0  3  0  0  0  0  0  0
  -28.5080  -17.9050   20.4670 C   0  0  0  0  0  3  0  0  0  0  0  0
  -29.1040  -20.8430   20.2680 N   0  0  0  0  0  0  0  0  0  0  0  0
  -29.8390  -17.0560   20.2890 N   0  0  0  0  0  0  0  0  0  0  0  0
  -30.2420  -22.9270   20.6290 N   0  0  0  0  0  0  0  0  0  0  0  0
  -30.3530  -23.9310   20.6770 H   0  0  0  0  0  0  0  0  0  0  0  0
  -31.0410  -22.3470   20.8290 H   0  0  0  0  0  0  0  0  0  0  0  0
  -25.2010  -13.8660   20.4710 C   0  0  0  0  0  0  0  0  0  0  0  0
  -24.1390  -13.0820   20.8210 C   0  0  0  0  0  0  0  0  0  0  0  0
  -24.6220  -11.7360   20.8230 C   0  0  0  0  0  0  0  0  0  0  0  0
  -26.2590  -13.0010   20.2640 N   0  0  0  0  0  0  0  0  0  0  0  0
  -25.9240  -11.7140   20.5450 N   0  0  0  0  0  0  0  0  0  0  0  0
  -23.9010  -10.4710   21.0110 C   0  0  0  0  0  0  0  0  0  0  0  0
  -24.3150   -9.5160   21.9660 C   0  0  0  0  0  3  0  0  0  0  0  0
  -23.5880   -8.3200   22.1440 C   0  0  0  0  0  3  0  0  0  0  0  0
  -22.4330   -8.0670   21.3670 C   0  0  0  0  0  0  0  0  0  0  0  0
  -22.0370   -9.0100   20.4030 C   0  0  0  0  0  3  0  0  0  0  0  0
  -22.7640  -10.1980   20.2220 C   0  0  0  0  0  3  0  0  0  0  0  0
  -21.6790   -6.9200   21.4540 O   0  0  0  0  0  0  0  0  0  0  0  0
  -21.6090   -6.1910   22.6140 C   0  0  0  0  0  0  0  0  0  0  0  0
  -21.1650   -6.7620   23.8260 C   0  0  0  0  0  3  0  0  0  0  0  0
  -21.0400   -5.9610   24.9790 C   0  0  0  0  0  3  0  0  0  0  0  0
  -21.3500   -4.5880   24.9190 C   0  0  0  0  0  0  0  0  0  0  0  0
  -21.7870   -4.0170   23.7100 C   0  0  0  0  0  3  0  0  0  0  0  0
  -21.9130   -4.8160   22.5610 C   0  0  0  0  0  0  0  0  0  0  0  0
  -22.3150   -4.2560   21.3950 F   0  0  0  0  0  0  0  0  0  0  0  0
  -21.2240   -3.8160   26.0230 F   0  0  0  0  0  0  0  0  0  0  0  0
  -22.7310  -13.5500   21.0400 C   0  0  0  0  0  0  0  0  0  0  0  0
  -21.9860  -12.8710   21.9030 N   0  0  0  0  0  0  0  0  0  0  0  0
  -22.3000  -14.5580   20.4810 O   0  0  0  0  0  0  0  0  0  0  0  0
  -22.3480  -12.0570   22.3780 H   0  0  0  0  0  0  0  0  0  0  0  0
  -21.0410  -13.1700   22.0950 H   0  0  0  0  0  0  0  0  0  0  0  0
  -25.3530  -15.2360   20.2780 N   0  0  0  0  0  0  0  0  0  0  0  0
  -24.5710  -15.8780   20.3570 H   0  0  0  0  0  0  0  0  0  0  0  0
  -26.2010  -15.6790   19.9530 H   0  0  0  0  0  0  0  0  0  0  0  0
  -27.9670  -23.8740   20.0310 C   0  0  0  0  0  3  0  0  0  0  0  0
  -28.1880  -25.5930   20.1870 O   0  0  0  0  0  0  0  0  0  0  0  0
  -24.6650  -31.8070   23.1310 C   0  0  0  0  0  0  0  0  0  0  0  0
  -27.2080  -26.7810   20.1270 C   0  0  0  0  0  0  0  0  0  0  0  0
  -23.4790  -30.4130   21.4880 C   0  0  0  0  0  3  0  0  0  0  0  0
  -24.9300  -28.7780   20.0720 C   0  0  0  0  0  0  0  0  0  0  0  0
  -26.0550  -30.5730   21.3660 C   0  0  0  0  0  2  0  0  0  0  0  0
  -26.1230  -29.1460   20.7050 C   0  0  0  0  0  0  0  0  0  0  0  0
  -27.2480  -28.1740   20.7010 C   0  0  0  0  0  3  0  0  0  0  0  0
  -25.9810  -26.6110   19.4400 C   0  0  0  0  0  3  0  0  0  0  0  0
  -24.8950  -27.5350   19.4160 C   0  0  0  0  0  3  0  0  0  0  0  0
  -23.7190  -29.7210   20.1150 C   0  0  0  0  0  2  0  0  0  0  0  0
  -24.7570  -30.9620   22.0480 N   0  0  0  0  0  0  0  0  0  0  0  0
  -23.5720  -32.1020   23.6420 O   0  0  0  0  0  0  0  0  0  0  0  0
  -22.7640  -29.4310   22.4550 C   0  0  0  0  0  0  0  0  0  0  0  0
  -21.4290  -29.2940   22.3430 N   0  0  0  0  0  0  0  0  0  0  0  0
  -23.4220  -28.7890   23.2770 O   0  0  0  0  0  0  0  0  0  0  0  0
  -20.9490  -29.8610   21.6570 H   0  0  0  0  0  0  0  0  0  0  0  0
  -18.0280  -28.1380   22.8930 C   0  0  0  0  0  0  0  0  0  0  0  0
  -20.5980  -28.3610   23.1130 C   0  0  0  0  0  3  0  0  0  0  0  0
  -20.6650  -26.9350   22.5150 C   0  0  0  0  0  2  0  0  0  0  0  0
  -19.5400  -26.6480   21.5150 C   0  0  0  0  0  2  0  0  0  0  0  0
  -18.1720  -26.8000   22.1860 C   0  0  0  0  0  2  0  0  0  0  0  0
  -19.1670  -28.8770   23.3130 C   0  0  0  0  0  0  0  0  0  0  0  0
  -18.9750  -30.1270   23.9420 C   0  0  0  0  0  3  0  0  0  0  0  0
  -17.6790  -30.6380   24.1480 C   0  0  0  0  0  3  0  0  0  0  0  0
  -16.5570  -29.8970   23.7400 C   0  0  0  0  0  3  0  0  0  0  0  0
  -16.7330  -28.6480   23.1180 C   0  0  0  0  0  3  0  0  0  0  0  0
  -25.9280  -32.4540   23.7750 C   0  0  0  0  0  3  0  0  0  0  0  0
  -25.5990  -33.8470   24.1340 N   0  0  0  0  0  0  0  0  0  0  0  0
  -25.9200  -34.9260   23.4070 C   0  0  0  0  0  0  0  0  0  0  0  0
  -26.5820  -34.8540   22.3680 O   0  0  0  0  0  0  0  0  0  0  0  0
  -25.0060  -33.9750   24.9400 H   0  0  0  0  0  0  0  0  0  0  0  0
  -24.1740  -36.7230   23.1350 C   0  0  0  0  0  1  0  0  0  0  0  0
  -25.4350  -36.3030   23.9090 C   0  0  0  0  0  3  0  0  0  0  0  0
  -27.5790  -37.1900   24.7140 C   0  0  0  0  0  1  0  0  0  0  0  0
  -26.4580  -37.3680   23.7970 N   0  0  0  0  0  0  0  0  0  0  0  0
  -26.0470  -38.2810   23.9680 H   0  0  0  0  0  0  0  0  0  0  0  0
  -26.4350  -31.6770   25.0540 C   0  0  1  0  0  0  0  0  0  0  0  0
  -25.3350  -31.4370   26.1170 C   0  0  0  0  0  1  0  0  0  0  0  0
  -27.0210  -30.2990   24.6730 C   0  0  0  0  0  1  0  0  0  0  0  0
  -27.5810  -32.4690   25.7270 C   0  0  0  0  0  1  0  0  0  0  0  0
  2  7  1  0
  3  4  1  0
  3  2  1  0
  5  4  1  0
  5 22  1  0
  5  6  1  0
  7  1  1  0
  7  6  1  0
  8  1  2  0
  9 16  1  0
 11 14  1  0
 11 13  2  0
 12 15  1  0
 12 10  2  0
 14  9  1  0
 14 10  1  0
 15  1  1  0
 15 13  1  0
 16 17  1  0
 16 18  1  0
 19 20  2  0
 20 21  1  0
 20 39  1  0
 21 24  1  0
 22 19  1  0
 22 23  1  0
 23 21  2  0
 24 25  1  0
 25 26  2  0
 27 30  1  0
 27 26  1  0
 28 27  2  0
 29 28  1  0
 29 24  2  0
 30 31  1  0
 31 32  1  0
 32 33  2  0
 34 33  1  0
 34 38  1  0
 35 34  2  0
 36 31  2  0
 36 35  1  0
 37 36  1  0
 39 40  1  0
 40 43  1  0
 40 42  1  0
 41 39  2  0
 44 45  1  0
 44 19  1  0
 46 44  1  0
 47 48  1  0
 47  9  2  0
 49 60  2  0
 50 48  1  0
 50 55  1  0
 51 59  1  0
 51 61  1  0
 52 58  1  0
 52 54  1  0
 53 59  1  0
 54 53  1  0
 55 54  2  0
 56 50  2  0
 57 56  1  0
 57 52  2  0
 58 51  1  0
 59 49  1  0
 61 63  2  0
 62 61  1  0
 64 62  1  0
 65 74  2  0
 65 70  1  0
 66 62  1  0
 66 70  1  0
 67 66  1  0
 68 69  1  0
 68 67  1  0
 69 65  1  0
 70 71  2  0
 71 72  1  0
 73 72  2  0
 74 73  1  0
 75 49  1  0
 75 76  1  0
 75 85  1  0
 76 79  1  0
 77 81  1  0
 77 76  1  0
 78 77  2  0
 81 80  1  0
 83 81  1  0
 83 84  1  0
 83 82  1  0
 85 88  1  1
 85 86  1  0
 87 85  1  0
M  ISO  4   1 100  15 100  47 101  48 101
M  END
>  <TORSDO>  (76) 
F 16

>  <SCORE>  (76) 
-16.513

>  <name>  (76) 
76

>  <ligand_id>  (76) 
76

>  <original_smiles>  (76) 
[H]c1c([H])c([H])c2c(c1[H])C([H])([H])C([H])([H])C([H])([H])C2([H])N([H])C(=O)C1([H])N(C(=O)C([H])(N([H])C(=O)C([H])(N([H])C([H])([H])[H])C([H])([H])[H])C(C([H])([H])[H])(C([H])([H])[H])C([H])([H])[H])C([H])([H])c2c([H])c(OC([H])([H])C(N3C([H])([H])C([H])([H])N(C(=O)N4C([H])([H])C([H])([H])C([H])([H])C([H])(n5nc(-c6c([H])c([H])c(Oc7c([H])c([H])c(F)c([H])c7F)c([H])c6[H])c(C(=O)N([H])[H])c5N([H])[H])C4([H])[H])C([H])([H])C3([H])[H])=[N+]([H])[H])c([H])c([H])c2C1([H])[H]

>  <smiles>  (76) 
[H]c1c([H])c([H])c2c(c1[H])C([H])([H])C([H])([H])C([H])([H])C2([H])N([H])C(=O)C1([H])N(C(=O)C([H])(N([H])C(=O)C([H])(N([H])C([H])([H])[H])C([H])([H])[H])C(C([H])([H])[H])(C([H])([H])[H])C([H])([H])[H])C([H])([H])c2c([H])c(OC([H])([H])C(N3C([H])([H])C([H])([H])N(C(=O)N4C([H])([H])C([H])([H])C([H])([H])C([H])(n5nc(-c6c([H])c([H])c(Oc7c([H])c([H])c(F)c([H])c7F)c([H])c6[H])c(C(=O)N([H])[H])c5N([H])[H])C4([H])[H])C([H])([H])C3([H])[H])=[N+]([H])[H])c([H])c([H])c2C1([H])[H]

$$$$
77:0:0
     RDKit          3D

 96104  0  0  1  0  0  0  0  0999 V2000
  -29.7520  -21.6030   20.6620 C   0  0  0  0  0  2  0  0  0  0  0  0
  -31.8760  -22.3090   19.5470 C   0  0  0  0  0  2  0  0  0  0  0  0
  -30.5710  -20.4060   18.5410 C   0  0  0  0  0  3  0  0  0  0  0  0
  -30.0050  -20.2170   19.9710 C   0  0  0  0  0  3  0  0  0  0  0  0
  -31.8580  -21.0870   18.7240 N   0  0  0  0  0  0  0  0  0  0  0  0
  -30.5330  -22.7270   20.0490 N   0  0  2  0  0  4  0  0  0  0  0  0
  -32.3630  -21.1850   17.8490 H   0  0  0  0  0  0  0  0  0  0  0  0
  -30.0260  -22.9880   19.2140 H   0  0  0  0  0  0  0  0  0  0  0  0
  -29.6330  -21.1450   17.5710 C   0  0  0  0  0  3  0  0  0  0  0  0
  -29.9900  -22.1530   16.8940 N   0  0  0  0  0  0  0  0  0  0  0  0
  -30.9700  -22.3680   17.0310 H   0  0  0  0  0  0  0  0  0  0  0  0
  -28.8010  -19.2230   20.0160 C   0  0  0  0  0  2  0  0  0  0  0  0
  -28.9890  -17.8770   20.7680 C   0  0  0  0  0  2  0  0  0  0  0  0
  -30.1090  -16.9400   20.2470 C   0  0  0  0  0  2  0  0  0  0  0  0
  -30.6510  -14.4940   20.3260 C   0  0  0  0  0  0  0  0  0  0  0  0
  -30.3610  -12.3140   19.2250 C   0  0  0  0  0  2  0  0  0  0  0  0
  -29.4100  -12.5170   18.0250 C   0  0  0  0  0  2  0  0  0  0  0  0
  -27.9380  -12.3920   18.4650 C   0  0  0  0  0  2  0  0  0  0  0  0
  -27.6130  -13.2320   19.7310 C   0  0  0  0  0  3  0  0  0  0  0  0
  -28.6750  -13.0190   20.8360 C   0  0  0  0  0  2  0  0  0  0  0  0
  -29.9980  -13.3060   20.2510 N   0  0  0  0  0  0  0  0  0  0  0  0
  -31.7990  -14.6650   19.9060 O   0  0  0  0  0  0  0  0  0  0  0  0
  -29.8690  -15.5420   20.6370 N   0  0  0  0  0  0  0  0  0  0  0  0
  -28.9330  -15.3100   20.9270 H   0  0  0  0  0  0  0  0  0  0  0  0
  -25.2200  -13.8500   20.4410 C   0  0  0  0  0  0  0  0  0  0  0  0
  -24.1490  -13.0820   20.8170 C   0  0  0  0  0  0  0  0  0  0  0  0
  -24.6070  -11.7300   20.8010 C   0  0  0  0  0  0  0  0  0  0  0  0
  -26.2620  -12.9630   20.2150 N   0  0  0  0  0  0  0  0  0  0  0  0
  -25.8980  -11.6850   20.4910 N   0  0  0  0  0  0  0  0  0  0  0  0
  -23.8800  -10.4710   21.0050 C   0  0  0  0  0  0  0  0  0  0  0  0
  -24.3230   -9.5070   21.9370 C   0  0  0  0  0  3  0  0  0  0  0  0
  -23.6010   -8.3100   22.1300 C   0  0  0  0  0  3  0  0  0  0  0  0
  -22.4210   -8.0680   21.3880 C   0  0  0  0  0  0  0  0  0  0  0  0
  -21.9950   -9.0190   20.4440 C   0  0  0  0  0  3  0  0  0  0  0  0
  -22.7180  -10.2080   20.2500 C   0  0  0  0  0  3  0  0  0  0  0  0
  -21.6680   -6.9210   21.4880 O   0  0  0  0  0  0  0  0  0  0  0  0
  -21.6420   -6.1760   22.6380 C   0  0  0  0  0  0  0  0  0  0  0  0
  -21.2460   -6.7300   23.8760 C   0  0  0  0  0  3  0  0  0  0  0  0
  -21.1670   -5.9120   25.0200 C   0  0  0  0  0  3  0  0  0  0  0  0
  -21.4710   -4.5400   24.9280 C   0  0  0  0  0  0  0  0  0  0  0  0
  -21.8620   -3.9860   23.6960 C   0  0  0  0  0  3  0  0  0  0  0  0
  -21.9420   -4.8010   22.5550 C   0  0  0  0  0  0  0  0  0  0  0  0
  -22.2990   -4.2590   21.3660 F   0  0  0  0  0  0  0  0  0  0  0  0
  -21.3880   -3.7510   26.0250 F   0  0  0  0  0  0  0  0  0  0  0  0
  -22.7520  -13.5630   21.0860 C   0  0  0  0  0  0  0  0  0  0  0  0
  -22.0310  -12.8720   21.9620 N   0  0  0  0  0  0  0  0  0  0  0  0
  -22.3140  -14.5830   20.5580 O   0  0  0  0  0  0  0  0  0  0  0  0
  -22.4090  -12.0510   22.4080 H   0  0  0  0  0  0  0  0  0  0  0  0
  -21.0910  -13.1660   22.1850 H   0  0  0  0  0  0  0  0  0  0  0  0
  -25.3900  -15.2170   20.2500 N   0  0  0  0  0  0  0  0  0  0  0  0
  -24.6220  -15.8710   20.3520 H   0  0  0  0  0  0  0  0  0  0  0  0
  -26.2310  -15.6380   19.8760 H   0  0  0  0  0  0  0  0  0  0  0  0
  -30.6280  -23.9820   20.8590 C   0  0  0  0  0  2  0  0  0  0  0  0
  -29.2880  -24.6510   21.2710 C   0  0  0  0  0  2  0  0  0  0  0  0
  -28.4220  -25.2820   20.1490 C   0  0  0  0  0  2  0  0  0  0  0  0
  -28.4380  -26.7210   20.2170 O   0  0  0  0  0  0  0  0  0  0  0  0
  -24.5890  -31.8860   23.2360 C   0  0  0  0  0  0  0  0  0  0  0  0
  -27.2430  -27.4190   20.1900 C   0  0  0  0  0  0  0  0  0  0  0  0
  -23.3840  -30.4780   21.5980 C   0  0  0  0  0  3  0  0  0  0  0  0
  -24.8390  -28.9300   20.1870 C   0  0  0  0  0  0  0  0  0  0  0  0
  -25.9120  -30.8290   21.4060 C   0  0  0  0  0  2  0  0  0  0  0  0
  -25.9960  -29.4560   20.7720 C   0  0  0  0  0  0  0  0  0  0  0  0
  -27.1980  -28.7090   20.7710 C   0  0  0  0  0  3  0  0  0  0  0  0
  -26.0670  -26.9140   19.5850 C   0  0  0  0  0  3  0  0  0  0  0  0
  -24.8700  -27.6560   19.5930 C   0  0  0  0  0  3  0  0  0  0  0  0
  -23.5950  -29.7890   20.2230 C   0  0  0  0  0  2  0  0  0  0  0  0
  -24.6460  -31.0790   22.1390 N   0  0  0  0  0  0  0  0  0  0  0  0
  -23.5070  -32.1640   23.7730 O   0  0  0  0  0  0  0  0  0  0  0  0
  -22.7280  -29.4650   22.5640 C   0  0  0  0  0  0  0  0  0  0  0  0
  -21.4030  -29.2870   22.4340 N   0  0  0  0  0  0  0  0  0  0  0  0
  -23.4070  -28.8400   23.3820 O   0  0  0  0  0  0  0  0  0  0  0  0
  -20.9170  -29.8420   21.7430 H   0  0  0  0  0  0  0  0  0  0  0  0
  -18.0220  -28.1170   22.9370 C   0  0  0  0  0  0  0  0  0  0  0  0
  -20.5810  -28.3580   23.2090 C   0  0  0  0  0  3  0  0  0  0  0  0
  -20.6740  -26.9260   22.6350 C   0  0  0  0  0  2  0  0  0  0  0  0
  -19.5700  -26.6080   21.6220 C   0  0  0  0  0  2  0  0  0  0  0  0
  -18.1900  -26.7650   22.2650 C   0  0  0  0  0  2  0  0  0  0  0  0
  -19.1450  -28.8720   23.3660 C   0  0  0  0  0  0  0  0  0  0  0  0
  -18.9360  -30.1390   23.9530 C   0  0  0  0  0  3  0  0  0  0  0  0
  -17.6350  -30.6490   24.1170 C   0  0  0  0  0  3  0  0  0  0  0  0
  -16.5250  -29.8910   23.7040 C   0  0  0  0  0  3  0  0  0  0  0  0
  -16.7200  -28.6270   23.1210 C   0  0  0  0  0  3  0  0  0  0  0  0
  -25.8770  -32.5140   23.8570 C   0  0  0  0  0  3  0  0  0  0  0  0
  -25.5690  -33.9130   24.1840 N   0  0  0  0  0  0  0  0  0  0  0  0
  -25.9080  -34.9640   23.4250 C   0  0  0  0  0  0  0  0  0  0  0  0
  -26.5830  -34.8590   22.3970 O   0  0  0  0  0  0  0  0  0  0  0  0
  -24.9670  -34.0700   24.9790 H   0  0  0  0  0  0  0  0  0  0  0  0
  -24.1850  -36.7600   23.0590 C   0  0  0  0  0  1  0  0  0  0  0  0
  -25.4220  -36.3550   23.8780 C   0  0  0  0  0  3  0  0  0  0  0  0
  -27.5540  -37.2330   24.7190 C   0  0  0  0  0  1  0  0  0  0  0  0
  -26.4580  -37.4050   23.7690 N   0  0  0  0  0  0  0  0  0  0  0  0
  -26.0550  -38.3260   23.9140 H   0  0  0  0  0  0  0  0  0  0  0  0
  -26.3960  -31.7430   25.1320 C   0  0  1  0  0  0  0  0  0  0  0  0
  -25.3030  -31.5080   26.2000 C   0  0  0  0  0  1  0  0  0  0  0  0
  -26.9750  -30.3640   24.7380 C   0  0  0  0  0  1  0  0  0  0  0  0
  -27.5490  -32.5360   25.7910 C   0  0  0  0  0  1  0  0  0  0  0  0
  2  6  1  0
  3  9  1  0
  3  5  1  0
  3  4  1  0
  4 12  1  0
  4  1  1  0
  5  2  1  0
  6  1  1  0
  6 53  1  0
  7  5  1  0
  6  8  1  6
 10 11  1  0
 10  9  2  0
 12 13  1  0
 14 23  1  0
 14 13  1  0
 15 23  1  0
 16 21  1  0
 17 18  1  0
 17 16  1  0
 19 18  1  0
 19 28  1  0
 19 20  1  0
 21 15  1  0
 21 20  1  0
 22 15  2  0
 23 24  1  0
 25 26  2  0
 26 45  1  0
 27 26  1  0
 27 30  1  0
 28 25  1  0
 28 29  1  0
 29 27  2  0
 30 31  1  0
 31 32  2  0
 33 36  1  0
 33 32  1  0
 34 33  2  0
 35 34  1  0
 35 30  2  0
 36 37  1  0
 37 38  1  0
 38 39  2  0
 40 39  1  0
 40 44  1  0
 41 40  2  0
 42 37  2  0
 42 41  1  0
 43 42  1  0
 45 46  1  0
 46 49  1  0
 46 48  1  0
 47 45  2  0
 50 51  1  0
 50 25  1  0
 52 50  1  0
 53 54  1  0
 55 56  1  0
 55 54  1  0
 57 68  2  0
 58 56  1  0
 58 63  1  0
 59 67  1  0
 59 69  1  0
 60 66  1  0
 60 62  1  0
 61 67  1  0
 62 61  1  0
 63 62  2  0
 64 65  1  0
 64 58  2  0
 65 60  2  0
 66 59  1  0
 67 57  1  0
 69 71  2  0
 70 69  1  0
 72 70  1  0
 73 82  2  0
 73 78  1  0
 74 70  1  0
 74 78  1  0
 75 74  1  0
 76 77  1  0
 76 75  1  0
 77 73  1  0
 78 79  2  0
 79 80  1  0
 81 80  2  0
 82 81  1  0
 83 57  1  0
 83 84  1  0
 83 93  1  0
 84 87  1  0
 85 89  1  0
 85 84  1  0
 86 85  2  0
 89 88  1  0
 91 89  1  0
 91 92  1  0
 91 90  1  0
 93 96  1  1
 93 94  1  0
 95 93  1  0
M  ISO  4  15 100  23 100  55 101  56 101
M  END
>  <TORSDO>  (77) 
F 23

>  <SCORE>  (77) 
-12.870

>  <name>  (77) 
77

>  <ligand_id>  (77) 
77

>  <original_smiles>  (77) 
[H]N=C([H])C1([H])N([H])C([H])([H])[N+]([H])(C([H])([H])C([H])([H])C([H])([H])Oc2c([H])c([H])c3c(c2[H])C([H])([H])N(C(=O)C([H])(N([H])C(=O)C([H])(N([H])C([H])([H])[H])C([H])([H])[H])C(C([H])([H])[H])(C([H])([H])[H])C([H])([H])[H])C([H])(C(=O)N([H])C2([H])c4c([H])c([H])c([H])c([H])c4C([H])([H])C([H])([H])C2([H])[H])C3([H])[H])C([H])([H])C1([H])C([H])([H])C([H])([H])C([H])([H])N([H])C(=O)N1C([H])([H])C([H])([H])C([H])([H])C([H])(n2nc(-c3c([H])c([H])c(Oc4c([H])c([H])c(F)c([H])c4F)c([H])c3[H])c(C(=O)N([H])[H])c2N([H])[H])C1([H])[H]

>  <smiles>  (77) 
[H]N=C([H])C1([H])N([H])C([H])([H])[N+]([H])(C([H])([H])C([H])([H])C([H])([H])Oc2c([H])c([H])c3c(c2[H])C([H])([H])N(C(=O)C([H])(N([H])C(=O)C([H])(N([H])C([H])([H])[H])C([H])([H])[H])C(C([H])([H])[H])(C([H])([H])[H])C([H])([H])[H])C([H])(C(=O)N([H])C2([H])c4c([H])c([H])c([H])c([H])c4C([H])([H])C([H])([H])C2([H])[H])C3([H])[H])C([H])([H])C1([H])C([H])([H])C([H])([H])C([H])([H])N([H])C(=O)N1C([H])([H])C([H])([H])C([H])([H])C([H])(n2nc(-c3c([H])c([H])c(Oc4c([H])c([H])c(F)c([H])c4F)c([H])c3[H])c(C(=O)N([H])[H])c2N([H])[H])C1([H])[H]

$$$$
78:0:0
     RDKit          3D

 95103  0  0  1  0  0  0  0  0999 V2000
  -29.2290  -21.1340   20.2420 N   0  0  0  0  0  0  0  0  0  0  0  0
  -30.3800  -15.3120   20.0740 C   0  0  0  0  0  0  0  0  0  0  0  0
  -30.3270  -12.8640   19.1810 C   0  0  0  0  0  2  0  0  0  0  0  0
  -29.3860  -12.6140   17.9780 C   0  0  0  0  0  2  0  0  0  0  0  0
  -27.9590  -12.3080   18.4630 C   0  0  0  0  0  2  0  0  0  0  0  0
  -27.5160  -13.2730   19.5910 C   0  0  0  0  0  3  0  0  0  0  0  0
  -28.5910  -13.4770   20.6820 C   0  0  0  0  0  2  0  0  0  0  0  0
  -29.7810  -14.0140   19.9980 N   0  0  0  0  0  0  0  0  0  0  0  0
  -31.6090  -15.2480   19.9060 O   0  0  0  0  0  0  0  0  0  0  0  0
  -30.1980  -18.1890   20.3520 C   0  0  0  0  0  2  0  0  0  0  0  0
  -28.2970  -17.0370   19.8670 C   0  0  0  0  0  2  0  0  0  0  0  0
  -29.0470  -19.4820   20.4040 C   0  0  0  0  0  3  0  0  0  0  0  0
  -28.1070  -18.6130   19.5230 C   0  0  0  0  0  3  0  0  0  0  0  0
  -29.7070  -16.6590   20.1680 N   0  0  0  0  0  0  0  0  0  0  0  0
  -25.1630  -13.8050   20.4090 C   0  0  0  0  0  0  0  0  0  0  0  0
  -24.1200  -13.0190   20.8030 C   0  0  0  0  0  0  0  0  0  0  0  0
  -24.6000  -11.6730   20.7590 C   0  0  0  0  0  0  0  0  0  0  0  0
  -26.2090  -12.9410   20.1400 N   0  0  0  0  0  0  0  0  0  0  0  0
  -25.8840  -11.6520   20.4190 N   0  0  0  0  0  0  0  0  0  0  0  0
  -23.8890  -10.4050   20.9610 C   0  0  0  0  0  0  0  0  0  0  0  0
  -24.3380   -9.4480   21.8970 C   0  0  0  0  0  3  0  0  0  0  0  0
  -23.6240   -8.2470   22.0910 C   0  0  0  0  0  3  0  0  0  0  0  0
  -22.4490   -7.9920   21.3460 C   0  0  0  0  0  0  0  0  0  0  0  0
  -22.0180   -8.9370   20.3980 C   0  0  0  0  0  3  0  0  0  0  0  0
  -22.7340  -10.1310   20.2030 C   0  0  0  0  0  3  0  0  0  0  0  0
  -21.7080   -6.8390   21.4460 O   0  0  0  0  0  0  0  0  0  0  0  0
  -21.6660   -6.1080   22.6060 C   0  0  0  0  0  0  0  0  0  0  0  0
  -21.2070   -6.6660   23.8210 C   0  0  0  0  0  3  0  0  0  0  0  0
  -21.1160   -5.8630   24.9740 C   0  0  0  0  0  3  0  0  0  0  0  0
  -21.4700   -4.5010   24.9150 C   0  0  0  0  0  0  0  0  0  0  0  0
  -21.9200   -3.9430   23.7060 C   0  0  0  0  0  3  0  0  0  0  0  0
  -22.0140   -4.7440   22.5540 C   0  0  0  0  0  0  0  0  0  0  0  0
  -22.4280   -4.1960   21.3860 F   0  0  0  0  0  0  0  0  0  0  0  0
  -21.3740   -3.7270   26.0210 F   0  0  0  0  0  0  0  0  0  0  0  0
  -22.7240  -13.4840   21.0990 C   0  0  0  0  0  0  0  0  0  0  0  0
  -22.0170  -12.7810   21.9760 N   0  0  0  0  0  0  0  0  0  0  0  0
  -22.2720  -14.5090   20.5900 O   0  0  0  0  0  0  0  0  0  0  0  0
  -22.3980  -11.9540   22.4110 H   0  0  0  0  0  0  0  0  0  0  0  0
  -21.0810  -13.0750   22.2160 H   0  0  0  0  0  0  0  0  0  0  0  0
  -25.3050  -15.1760   20.2190 N   0  0  0  0  0  0  0  0  0  0  0  0
  -24.5100  -15.8020   20.2900 H   0  0  0  0  0  0  0  0  0  0  0  0
  -26.1100  -15.5900   19.7760 H   0  0  0  0  0  0  0  0  0  0  0  0
  -26.7070  -19.0490   19.6340 N   0  0  0  0  0  4  0  0  0  0  0  0
  -26.3490  -18.8960   20.5610 H   0  0  0  0  0  0  0  0  0  0  0  0
  -26.1200  -18.5760   18.9710 H   0  0  0  0  0  0  0  0  0  0  0  0
  -26.6600  -20.0330   19.4450 H   0  0  0  0  0  0  0  0  0  0  0  0
  -30.6450  -21.4760   20.3500 C   0  0  0  0  0  2  0  0  0  0  0  0
  -31.0850  -21.6520   21.8150 C   0  0  0  0  0  2  0  0  0  0  0  0
  -32.3120  -22.4560   21.9160 N   0  0  0  0  0  4  0  0  0  0  0  0
  -33.0720  -22.0010   21.4430 H   0  0  0  0  0  0  0  0  0  0  0  0
  -32.5710  -22.5820   22.8770 H   0  0  0  0  0  0  0  0  0  0  0  0
  -32.1750  -23.3630   21.5090 H   0  0  0  0  0  0  0  0  0  0  0  0
  -28.3750  -22.5260   19.9050 C   0  0  0  0  0  2  0  0  0  0  0  0
  -28.2240  -24.2050   20.6100 C   0  0  0  0  0  2  0  0  0  0  0  0
  -28.2310  -25.8100   20.1580 O   0  0  0  0  0  0  0  0  0  0  0  0
  -24.6190  -31.8070   23.1590 C   0  0  0  0  0  0  0  0  0  0  0  0
  -27.1910  -26.8850   20.2010 C   0  0  0  0  0  0  0  0  0  0  0  0
  -23.4420  -30.4080   21.5110 C   0  0  0  0  0  3  0  0  0  0  0  0
  -24.9000  -28.7850   20.1190 C   0  0  0  0  0  0  0  0  0  0  0  0
  -26.0090  -30.6010   21.3980 C   0  0  0  0  0  2  0  0  0  0  0  0
  -26.0830  -29.1850   20.7520 C   0  0  0  0  0  0  0  0  0  0  0  0
  -27.2260  -28.2590   20.7580 C   0  0  0  0  0  3  0  0  0  0  0  0
  -25.9710  -26.6350   19.5310 C   0  0  0  0  0  3  0  0  0  0  0  0
  -24.8690  -27.5310   19.4890 C   0  0  0  0  0  3  0  0  0  0  0  0
  -23.6900  -29.7190   20.1400 C   0  0  0  0  0  2  0  0  0  0  0  0
  -24.7120  -30.9660   22.0770 N   0  0  0  0  0  0  0  0  0  0  0  0
  -23.5250  -32.1040   23.6640 O   0  0  0  0  0  0  0  0  0  0  0  0
  -22.7300  -29.4200   22.4690 C   0  0  0  0  0  0  0  0  0  0  0  0
  -21.3960  -29.2850   22.3470 N   0  0  0  0  0  0  0  0  0  0  0  0
  -23.3850  -28.7730   23.2920 O   0  0  0  0  0  0  0  0  0  0  0  0
  -20.9200  -29.8600   21.6660 H   0  0  0  0  0  0  0  0  0  0  0  0
  -17.9890  -28.1490   22.8790 C   0  0  0  0  0  0  0  0  0  0  0  0
  -20.5570  -28.3540   23.1110 C   0  0  0  0  0  3  0  0  0  0  0  0
  -20.6190  -26.9290   22.5120 C   0  0  0  0  0  2  0  0  0  0  0  0
  -19.4970  -26.6470   21.5060 C   0  0  0  0  0  2  0  0  0  0  0  0
  -18.1270  -26.8110   22.1720 C   0  0  0  0  0  2  0  0  0  0  0  0
  -19.1300  -28.8800   23.3050 C   0  0  0  0  0  0  0  0  0  0  0  0
  -18.9490  -30.1320   23.9290 C   0  0  0  0  0  3  0  0  0  0  0  0
  -17.6580  -30.6570   24.1300 C   0  0  0  0  0  3  0  0  0  0  0  0
  -16.5310  -29.9260   23.7160 C   0  0  0  0  0  3  0  0  0  0  0  0
  -16.6970  -28.6730   23.0980 C   0  0  0  0  0  3  0  0  0  0  0  0
  -25.8840  -32.4470   23.8080 C   0  0  0  0  0  3  0  0  0  0  0  0
  -25.5670  -33.8490   24.1330 N   0  0  0  0  0  0  0  0  0  0  0  0
  -25.9180  -34.9090   23.3920 C   0  0  0  0  0  0  0  0  0  0  0  0
  -26.6050  -34.8090   22.3730 O   0  0  0  0  0  0  0  0  0  0  0  0
  -24.9570  -34.0010   24.9230 H   0  0  0  0  0  0  0  0  0  0  0  0
  -24.2150  -36.7280   23.0240 C   0  0  0  0  0  1  0  0  0  0  0  0
  -25.4340  -36.2990   23.8550 C   0  0  0  0  0  3  0  0  0  0  0  0
  -27.5530  -37.1640   24.7470 C   0  0  0  0  0  1  0  0  0  0  0  0
  -26.4790  -37.3440   23.7750 N   0  0  0  0  0  0  0  0  0  0  0  0
  -26.0780  -38.2670   23.9140 H   0  0  0  0  0  0  0  0  0  0  0  0
  -26.3660  -31.6870   25.1070 C   0  0  1  0  0  0  0  0  0  0  0  0
  -25.2460  -31.4680   26.1520 C   0  0  0  0  0  1  0  0  0  0  0  0
  -26.9510  -30.3010   24.7530 C   0  0  0  0  0  1  0  0  0  0  0  0
  -27.5020  -32.4850   25.7880 C   0  0  0  0  0  1  0  0  0  0  0  0
  1 47  1  0
  2 14  1  0
  3  8  1  0
  4  5  1  0
  4  3  1  0
  6  5  1  0
  6 18  1  0
  6  7  1  0
  8  2  1  0
  8  7  1  0
  9  2  2  0
 10 12  1  0
 11 14  1  0
 12  1  1  0
 13 43  1  0
 13 11  1  0
 13 12  1  0
 14 10  1  0
 15 16  2  0
 16 35  1  0
 17 16  1  0
 17 20  1  0
 18 15  1  0
 18 19  1  0
 19 17  2  0
 20 21  1  0
 21 22  2  0
 23 26  1  0
 23 22  1  0
 24 23  2  0
 25 24  1  0
 25 20  2  0
 26 27  1  0
 27 28  1  0
 28 29  2  0
 30 29  1  0
 30 34  1  0
 31 30  2  0
 32 27  2  0
 32 31  1  0
 33 32  1  0
 35 36  1  0
 36 39  1  0
 36 38  1  0
 37 35  2  0
 40 41  1  0
 40 15  1  0
 42 40  1  0
 43 44  1  0
 45 43  1  0
 46 43  1  0
 47 48  1  0
 48 49  1  0
 49 51  1  0
 50 49  1  0
 52 49  1  0
 53  1  1  0
 53 54  1  0
 55 57  1  0
 55 54  1  0
 56 67  2  0
 57 62  1  0
 58 66  1  0
 58 68  1  0
 59 65  1  0
 59 61  1  0
 60 66  1  0
 61 62  2  0
 61 60  1  0
 63 57  2  0
 64 63  1  0
 64 59  2  0
 65 58  1  0
 66 56  1  0
 68 70  2  0
 69 68  1  0
 71 69  1  0
 72 81  2  0
 72 77  1  0
 73 69  1  0
 73 77  1  0
 74 73  1  0
 75 76  1  0
 75 74  1  0
 76 72  1  0
 77 78  2  0
 78 79  1  0
 80 79  2  0
 81 80  1  0
 82 56  1  0
 82 83  1  0
 82 92  1  0
 83 86  1  0
 84 88  1  0
 84 83  1  0
 85 84  2  0
 88 87  1  0
 90 88  1  0
 90 91  1  0
 90 89  1  0
 92 95  1  1
 92 93  1  0
 94 92  1  0
M  ISO  4   2 100  14 100  54 101  55 101
M  END
>  <TORSDO>  (78) 
F 22

>  <SCORE>  (78) 
-14.230

>  <name>  (78) 
78

>  <ligand_id>  (78) 
78

>  <original_smiles>  (78) 
[H]c1c([H])c([H])c2c(c1[H])C([H])([H])C([H])([H])C([H])([H])C2([H])N([H])C(=O)C1([H])N(C(=O)C([H])(N([H])C(=O)C([H])(N([H])C([H])([H])[H])C([H])([H])[H])C(C([H])([H])[H])(C([H])([H])[H])C([H])([H])[H])C([H])([H])c2c([H])c(OC([H])([H])C([H])([H])N(C([H])([H])C([H])([H])[N+]([H])([H])[H])C3([H])C([H])([H])N(C(=O)N4C([H])([H])C([H])([H])C([H])([H])C([H])(n5nc(-c6c([H])c([H])c(Oc7c([H])c([H])c(F)c([H])c7F)c([H])c6[H])c(C(=O)N([H])[H])c5N([H])[H])C4([H])[H])C([H])([H])C3([H])[N+]([H])([H])[H])c([H])c([H])c2C1([H])[H]

>  <smiles>  (78) 
[H]c1c([H])c([H])c2c(c1[H])C([H])([H])C([H])([H])C([H])([H])C2([H])N([H])C(=O)C1([H])N(C(=O)C([H])(N([H])C(=O)C([H])(N([H])C([H])([H])[H])C([H])([H])[H])C(C([H])([H])[H])(C([H])([H])[H])C([H])([H])[H])C([H])([H])c2c([H])c(OC([H])([H])C([H])([H])N(C([H])([H])C([H])([H])[N+]([H])([H])[H])C3([H])C([H])([H])N(C(=O)N4C([H])([H])C([H])([H])C([H])([H])C([H])(n5nc(-c6c([H])c([H])c(Oc7c([H])c([H])c(F)c([H])c7F)c([H])c6[H])c(C(=O)N([H])[H])c5N([H])[H])C4([H])[H])C([H])([H])C3([H])[N+]([H])([H])[H])c([H])c([H])c2C1([H])[H]

$$$$
79:0:0
     RDKit          3D

 95103  0  0  1  0  0  0  0  0999 V2000
  -31.2120  -15.1590   19.6810 C   0  0  0  0  0  0  0  0  0  0  0  0
  -30.8720  -12.7770   18.7970 C   0  0  0  0  0  2  0  0  0  0  0  0
  -29.8710  -12.6620   17.6260 C   0  0  0  0  0  2  0  0  0  0  0  0
  -28.4370  -12.4980   18.1580 C   0  0  0  0  0  2  0  0  0  0  0  0
  -28.1270  -13.4840   19.3120 C   0  0  0  0  0  3  0  0  0  0  0  0
  -29.2560  -13.5450   20.3670 C   0  0  0  0  0  2  0  0  0  0  0  0
  -30.4710  -13.9540   19.6470 N   0  0  0  0  0  0  0  0  0  0  0  0
  -32.4040  -14.9870   19.3950 O   0  0  0  0  0  0  0  0  0  0  0  0
  -31.6560  -17.7410   19.4630 C   0  0  0  0  0  2  0  0  0  0  0  0
  -29.1580  -18.7990   19.4070 C   0  0  0  0  0  2  0  0  0  0  0  0
  -29.3930  -17.2550   19.9870 C   0  0  0  0  0  3  0  0  0  0  0  0
  -31.4170  -19.3250   19.9120 C   0  0  0  0  0  3  0  0  0  0  0  0
  -30.7370  -16.5540   19.7920 N   0  0  0  0  0  0  0  0  0  0  0  0
  -30.0300  -19.9780   19.8660 N   0  0  1  0  0  4  0  0  0  0  0  0
  -29.7710  -20.0990   20.8340 H   0  0  0  0  0  0  0  0  0  0  0  0
  -25.8520  -14.1880   20.2210 C   0  0  0  0  0  0  0  0  0  0  0  0
  -24.7680  -13.4760   20.6540 C   0  0  0  0  0  0  0  0  0  0  0  0
  -25.1390  -12.1000   20.5640 C   0  0  0  0  0  0  0  0  0  0  0  0
  -26.8160  -13.2510   19.8990 N   0  0  0  0  0  0  0  0  0  0  0  0
  -26.4030  -11.9860   20.1700 N   0  0  0  0  0  0  0  0  0  0  0  0
  -24.3400  -10.8840   20.7690 C   0  0  0  0  0  0  0  0  0  0  0  0
  -24.7520   -9.8720   21.6620 C   0  0  0  0  0  3  0  0  0  0  0  0
  -23.9550   -8.7240   21.8610 C   0  0  0  0  0  3  0  0  0  0  0  0
  -22.7300   -8.5820   21.1660 C   0  0  0  0  0  0  0  0  0  0  0  0
  -22.3350   -9.5810   20.2600 C   0  0  0  0  0  3  0  0  0  0  0  0
  -23.1330  -10.7200   20.0590 C   0  0  0  0  0  3  0  0  0  0  0  0
  -21.9040   -7.4900   21.2770 O   0  0  0  0  0  0  0  0  0  0  0  0
  -21.8640   -6.7300   22.4190 C   0  0  0  0  0  0  0  0  0  0  0  0
  -21.4930   -7.2770   23.6660 C   0  0  0  0  0  3  0  0  0  0  0  0
  -21.3990   -6.4460   24.8000 C   0  0  0  0  0  3  0  0  0  0  0  0
  -21.6650   -5.0690   24.6880 C   0  0  0  0  0  0  0  0  0  0  0  0
  -22.0300   -4.5210   23.4460 C   0  0  0  0  0  3  0  0  0  0  0  0
  -22.1260   -5.3490   22.3150 C   0  0  0  0  0  0  0  0  0  0  0  0
  -22.4570   -4.8120   21.1160 F   0  0  0  0  0  0  0  0  0  0  0  0
  -21.5670   -4.2690   25.7750 F   0  0  0  0  0  0  0  0  0  0  0  0
  -23.4260  -14.0400   21.0150 C   0  0  0  0  0  0  0  0  0  0  0  0
  -22.7170  -13.3910   21.9310 N   0  0  0  0  0  0  0  0  0  0  0  0
  -23.0230  -15.0920   20.5220 O   0  0  0  0  0  0  0  0  0  0  0  0
  -23.0620  -12.5390   22.3480 H   0  0  0  0  0  0  0  0  0  0  0  0
  -21.8180  -13.7510   22.2190 H   0  0  0  0  0  0  0  0  0  0  0  0
  -26.0860  -15.5470   20.0370 N   0  0  0  0  0  0  0  0  0  0  0  0
  -25.2730  -16.1520   20.0830 H   0  0  0  0  0  0  0  0  0  0  0  0
  -26.7120  -15.8220   19.2920 H   0  0  0  0  0  0  0  0  0  0  0  0
  -32.3790  -20.1310   19.1800 N   0  0  0  0  0  0  0  0  0  0  0  0
  -33.2960  -19.7070   19.2780 H   0  0  0  0  0  0  0  0  0  0  0  0
  -32.4910  -21.0230   19.6490 H   0  0  0  0  0  0  0  0  0  0  0  0
  -28.8160  -17.1190   21.4290 C   0  0  0  0  0  2  0  0  0  0  0  0
  -29.8090  -16.9740   22.5180 N   0  0  0  0  0  4  0  0  0  0  0  0
  -30.3770  -16.1540   22.4160 H   0  0  0  0  0  0  0  0  0  0  0  0
  -29.3130  -16.8810   23.3890 H   0  0  0  0  0  0  0  0  0  0  0  0
  -30.4050  -17.7760   22.6150 H   0  0  0  0  0  0  0  0  0  0  0  0
  -29.7130  -21.4660   19.2400 C   0  0  0  0  0  2  0  0  0  0  0  0
  -29.7690  -23.0660   19.9450 C   0  0  0  0  0  3  0  0  0  0  0  0
  -28.9460  -24.5280   19.4360 C   0  0  0  0  0  3  0  0  0  0  0  0
  -29.0280  -26.0670   19.8990 O   0  0  0  0  0  0  0  0  0  0  0  0
  -24.8550  -31.3620   23.0870 C   0  0  0  0  0  0  0  0  0  0  0  0
  -27.9510  -27.0600   19.8210 C   0  0  0  0  0  0  0  0  0  0  0  0
  -23.8850  -30.0870   21.2170 C   0  0  0  0  0  3  0  0  0  0  0  0
  -25.5400  -28.7410   19.7650 C   0  0  0  0  0  0  0  0  0  0  0  0
  -26.4290  -30.4770   21.3110 C   0  0  0  0  0  2  0  0  0  0  0  0
  -26.6410  -29.1600   20.5240 C   0  0  0  0  0  0  0  0  0  0  0  0
  -27.8420  -28.3380   20.5350 C   0  0  0  0  0  3  0  0  0  0  0  0
  -26.8230  -26.7800   19.0170 C   0  0  0  0  0  3  0  0  0  0  0  0
  -25.6500  -27.5720   18.9960 C   0  0  0  0  0  3  0  0  0  0  0  0
  -24.2620  -29.5720   19.8020 C   0  0  0  0  0  2  0  0  0  0  0  0
  -25.0710  -30.6620   21.9290 N   0  0  0  0  0  0  0  0  0  0  0  0
  -23.7120  -31.5330   23.5400 O   0  0  0  0  0  0  0  0  0  0  0  0
  -23.1860  -28.9530   22.0100 C   0  0  0  0  0  0  0  0  0  0  0  0
  -21.8600  -28.8010   21.8330 N   0  0  0  0  0  0  0  0  0  0  0  0
  -23.8410  -28.2180   22.7520 O   0  0  0  0  0  0  0  0  0  0  0  0
  -21.3860  -29.4480   21.2210 H   0  0  0  0  0  0  0  0  0  0  0  0
  -18.4620  -27.5790   22.1700 C   0  0  0  0  0  0  0  0  0  0  0  0
  -21.0290  -27.7570   22.4430 C   0  0  0  0  0  3  0  0  0  0  0  0
  -21.1000  -26.4410   21.6320 C   0  0  0  0  0  2  0  0  0  0  0  0
  -19.9820  -26.3130   20.5910 C   0  0  0  0  0  2  0  0  0  0  0  0
  -18.6090  -26.3650   21.2680 C   0  0  0  0  0  2  0  0  0  0  0  0
  -19.5980  -28.2420   22.7090 C   0  0  0  0  0  0  0  0  0  0  0  0
  -19.4030  -29.3840   23.5150 C   0  0  0  0  0  3  0  0  0  0  0  0
  -18.1070  -29.8640   23.7850 C   0  0  0  0  0  3  0  0  0  0  0  0
  -16.9880  -29.1960   23.2600 C   0  0  0  0  0  3  0  0  0  0  0  0
  -17.1660  -28.0530   22.4590 C   0  0  0  0  0  3  0  0  0  0  0  0
  -26.0300  -31.9990   23.8880 C   0  0  0  0  0  3  0  0  0  0  0  0
  -25.6220  -33.3560   24.2870 N   0  0  0  0  0  0  0  0  0  0  0  0
  -25.9940  -34.4830   23.6650 C   0  0  0  0  0  0  0  0  0  0  0  0
  -26.7790  -34.4900   22.7130 O   0  0  0  0  0  0  0  0  0  0  0  0
  -24.9320  -33.4210   25.0210 H   0  0  0  0  0  0  0  0  0  0  0  0
  -24.2290  -36.2390   23.2820 C   0  0  0  0  0  1  0  0  0  0  0  0
  -25.4040  -35.8130   24.1780 C   0  0  0  0  0  3  0  0  0  0  0  0
  -27.3960  -36.7160   25.2930 C   0  0  0  0  0  1  0  0  0  0  0  0
  -26.3940  -36.9090   24.2490 N   0  0  0  0  0  0  0  0  0  0  0  0
  -25.9360  -37.8010   24.4120 H   0  0  0  0  0  0  0  0  0  0  0  0
  -26.4410  -31.1580   25.1600 C   0  0  1  0  0  0  0  0  0  0  0  0
  -25.2550  -30.8200   26.0950 C   0  0  0  0  0  1  0  0  0  0  0  0
  -27.1060  -29.8240   24.7480 C   0  0  0  0  0  1  0  0  0  0  0  0
  -27.4930  -31.9370   25.9850 C   0  0  0  0  0  1  0  0  0  0  0  0
  1 13  1  0
  2  7  1  0
  3  4  1  0
  3  2  1  0
  5  4  1  0
  5 19  1  0
  5  6  1  0
  7  1  1  0
  7  6  1  0
  8  1  2  0
  9 13  1  0
  9 12  1  0
 10 14  1  0
 10 11  1  0
 11 47  1  0
 12 44  1  0
 13 11  1  0
 14 12  1  0
 14 15  1  1
 16 17  2  0
 17 36  1  0
 18 17  1  0
 18 21  1  0
 19 20  1  0
 19 16  1  0
 20 18  2  0
 21 22  1  0
 22 23  2  0
 24 27  1  0
 24 23  1  0
 25 24  2  0
 26 25  1  0
 26 21  2  0
 27 28  1  0
 28 29  1  0
 29 30  2  0
 31 30  1  0
 31 35  1  0
 32 31  2  0
 33 28  2  0
 33 32  1  0
 34 33  1  0
 36 37  1  0
 37 40  1  0
 37 39  1  0
 38 36  2  0
 41 42  1  0
 41 16  1  0
 43 41  1  0
 44 45  1  0
 44 46  1  0
 47 48  1  0
 48 51  1  0
 48 50  1  0
 49 48  1  0
 52 14  1  0
 52 53  1  0
 54 55  1  0
 54 53  2  0
 56 67  2  0
 57 55  1  0
 57 62  1  0
 58 66  1  0
 58 68  1  0
 59 65  1  0
 59 61  1  0
 60 66  1  0
 61 62  2  0
 61 60  1  0
 63 57  2  0
 64 63  1  0
 64 59  2  0
 65 58  1  0
 66 56  1  0
 68 70  2  0
 69 68  1  0
 71 69  1  0
 72 81  2  0
 72 77  1  0
 73 69  1  0
 73 77  1  0
 74 73  1  0
 75 76  1  0
 75 74  1  0
 76 72  1  0
 77 78  2  0
 78 79  1  0
 80 79  2  0
 81 80  1  0
 82 56  1  0
 82 83  1  0
 82 92  1  0
 83 86  1  0
 84 88  1  0
 84 83  1  0
 85 84  2  0
 88 87  1  0
 88 90  1  0
 90 91  1  0
 90 89  1  0
 92 95  1  1
 92 93  1  0
 94 92  1  0
M  ISO  4   1 100  13 100  54 101  55 101
M  END
>  <TORSDO>  (79) 
F 21

>  <SCORE>  (79) 
-12.060

>  <name>  (79) 
79

>  <ligand_id>  (79) 
79

>  <original_smiles>  (79) 
[H]c1c([H])c([H])c2c(c1[H])C([H])([H])C([H])([H])C([H])([H])C2([H])N([H])C(=O)C1([H])N(C(=O)C([H])(N([H])C(=O)C([H])(N([H])C([H])([H])[H])C([H])([H])[H])C(C([H])([H])[H])(C([H])([H])[H])C([H])([H])[H])C([H])([H])c2c([H])c(OC([H])([H])C([H])([H])C([H])([H])[N+]3([H])C([H])([H])C([H])(C([H])([H])[N+]([H])([H])[H])N(C(=O)N4C([H])([H])C([H])([H])C([H])([H])C([H])(n5nc(-c6c([H])c([H])c(Oc7c([H])c([H])c(F)c([H])c7F)c([H])c6[H])c(C(=O)N([H])[H])c5N([H])[H])C4([H])[H])C([H])([H])C3([H])N([H])[H])c([H])c([H])c2C1([H])[H]

>  <smiles>  (79) 
[H]c1c([H])c([H])c2c(c1[H])C([H])([H])C([H])([H])C([H])([H])C2([H])N([H])C(=O)C1([H])N(C(=O)C([H])(N([H])C(=O)C([H])(N([H])C([H])([H])[H])C([H])([H])[H])C(C([H])([H])[H])(C([H])([H])[H])C([H])([H])[H])C([H])([H])c2c([H])c(OC([H])([H])C([H])([H])C([H])([H])[N+]3([H])C([H])([H])C([H])(C([H])([H])[N+]([H])([H])[H])N(C(=O)N4C([H])([H])C([H])([H])C([H])([H])C([H])(n5nc(-c6c([H])c([H])c(Oc7c([H])c([H])c(F)c([H])c7F)c([H])c6[H])c(C(=O)N([H])[H])c5N([H])[H])C4([H])[H])C([H])([H])C3([H])N([H])[H])c([H])c([H])c2C1([H])[H]

$$$$
80:0:0
     RDKit          3D

108115  0  0  1  0  0  0  0  0999 V2000
  -28.8590  -20.1180   18.2910 C   0  0  0  0  0  2  0  0  0  0  0  0
  -30.2110  -19.4420   17.9920 C   0  0  0  0  0  2  0  0  0  0  0  0
  -30.8580  -18.8930   19.1950 N   0  0  0  0  0  0  0  0  0  0  0  0
  -30.2760  -17.5840   19.5210 C   0  0  0  0  0  2  0  0  0  0  0  0
  -30.7680  -17.0280   20.8890 C   0  0  0  0  0  3  0  0  0  0  0  0
  -31.0460  -14.6090   20.4520 C   0  0  0  0  0  0  0  0  0  0  0  0
  -30.6950  -12.4690   19.3000 C   0  0  0  0  0  2  0  0  0  0  0  0
  -29.7720  -12.7050   18.0870 C   0  0  0  0  0  2  0  0  0  0  0  0
  -28.2900  -12.6060   18.5010 C   0  0  0  0  0  2  0  0  0  0  0  0
  -27.9610  -13.4580   19.7560 C   0  0  0  0  0  3  0  0  0  0  0  0
  -28.9970  -13.2070   20.8760 C   0  0  0  0  0  2  0  0  0  0  0  0
  -30.3400  -13.4580   20.3250 N   0  0  0  0  0  0  0  0  0  0  0  0
  -32.1610  -14.7850   19.9540 O   0  0  0  0  0  0  0  0  0  0  0  0
  -30.3730  -15.6220   21.0130 N   0  0  0  0  0  0  0  0  0  0  0  0
  -29.4370  -15.4090   21.3230 H   0  0  0  0  0  0  0  0  0  0  0  0
  -25.5830  -14.1350   20.4730 C   0  0  0  0  0  0  0  0  0  0  0  0
  -24.4850  -13.3920   20.8150 C   0  0  0  0  0  0  0  0  0  0  0  0
  -24.8950  -12.0260   20.7420 C   0  0  0  0  0  0  0  0  0  0  0  0
  -26.5950  -13.2230   20.2200 N   0  0  0  0  0  0  0  0  0  0  0  0
  -26.1840  -11.9470   20.4350 N   0  0  0  0  0  0  0  0  0  0  0  0
  -24.1230  -10.7850   20.8900 C   0  0  0  0  0  0  0  0  0  0  0  0
  -24.5180   -9.7720   21.7920 C   0  0  0  0  0  3  0  0  0  0  0  0
  -23.7490   -8.5970   21.9290 C   0  0  0  0  0  3  0  0  0  0  0  0
  -22.5710   -8.4260   21.1640 C   0  0  0  0  0  0  0  0  0  0  0  0
  -22.1960   -9.4270   20.2510 C   0  0  0  0  0  3  0  0  0  0  0  0
  -22.9640  -10.5940   20.1120 C   0  0  0  0  0  3  0  0  0  0  0  0
  -21.7760   -7.3070   21.2120 O   0  0  0  0  0  0  0  0  0  0  0  0
  -21.6820   -6.5380   22.3440 C   0  0  0  0  0  0  0  0  0  0  0  0
  -21.2710   -7.0800   23.5810 C   0  0  0  0  0  3  0  0  0  0  0  0
  -21.1220   -6.2410   24.7040 C   0  0  0  0  0  3  0  0  0  0  0  0
  -21.3750   -4.8610   24.5900 C   0  0  0  0  0  0  0  0  0  0  0  0
  -21.7790   -4.3180   23.3570 C   0  0  0  0  0  3  0  0  0  0  0  0
  -21.9290   -5.1540   22.2370 C   0  0  0  0  0  0  0  0  0  0  0  0
  -22.2990   -4.6220   21.0470 F   0  0  0  0  0  0  0  0  0  0  0  0
  -21.2240   -4.0520   25.6650 F   0  0  0  0  0  0  0  0  0  0  0  0
  -23.1050  -13.9120   21.1020 C   0  0  0  0  0  0  0  0  0  0  0  0
  -22.3540  -13.2200   21.9510 N   0  0  0  0  0  0  0  0  0  0  0  0
  -22.7040  -14.9640   20.6080 O   0  0  0  0  0  0  0  0  0  0  0  0
  -22.6900  -12.3660   22.3710 H   0  0  0  0  0  0  0  0  0  0  0  0
  -21.4260  -13.5480   22.1830 H   0  0  0  0  0  0  0  0  0  0  0  0
  -25.8000  -15.5020   20.3380 N   0  0  0  0  0  0  0  0  0  0  0  0
  -25.0500  -16.1770   20.4410 H   0  0  0  0  0  0  0  0  0  0  0  0
  -26.6560  -15.9150   19.9910 H   0  0  0  0  0  0  0  0  0  0  0  0
  -30.2400  -17.8440   22.0870 C   0  0  0  0  0  2  0  0  0  0  0  0
  -30.7700  -17.3490   23.3720 N   0  0  0  0  0  4  0  0  0  0  0  0
  -30.4960  -16.3980   23.5350 H   0  0  0  0  0  0  0  0  0  0  0  0
  -30.4290  -17.9110   24.1310 H   0  0  0  0  0  0  0  0  0  0  0  0
  -31.7740  -17.3960   23.3770 H   0  0  0  0  0  0  0  0  0  0  0  0
  -32.2930  -18.7350   18.9040 C   0  0  0  0  0  2  0  0  0  0  0  0
  -33.0740  -20.0400   19.1630 C   0  0  0  0  0  2  0  0  0  0  0  0
  -34.5300  -19.8340   19.0780 N   0  0  0  0  0  4  0  0  0  0  0  0
  -34.8350  -19.1580   19.7540 H   0  0  0  0  0  0  0  0  0  0  0  0
  -35.0080  -20.6980   19.2610 H   0  0  0  0  0  0  0  0  0  0  0  0
  -34.7910  -19.5180   18.1620 H   0  0  0  0  0  0  0  0  0  0  0  0
  -28.9990  -21.5060   18.9370 C   0  0  0  0  0  2  0  0  0  0  0  0
  -27.6900  -22.3210   18.8320 C   0  0  0  0  0  2  0  0  0  0  0  0
  -27.6990  -23.6150   19.5770 N   0  0  2  0  0  4  0  0  0  0  0  0
  -26.7320  -23.9090   19.5570 H   0  0  0  0  0  0  0  0  0  0  0  0
  -28.4230  -24.6920   18.8370 C   0  0  0  0  0  2  0  0  0  0  0  0
  -28.4020  -26.0600   19.5530 C   0  0  0  0  0  2  0  0  0  0  0  0
  -28.2000  -27.1350   18.6290 O   0  0  0  0  0  0  0  0  0  0  0  0
  -24.4920  -31.5700   22.7410 C   0  0  0  0  0  0  0  0  0  0  0  0
  -27.0140  -27.8000   18.8160 C   0  0  0  0  0  0  0  0  0  0  0  0
  -23.1920  -30.3530   21.0220 C   0  0  0  0  0  3  0  0  0  0  0  0
  -24.5670  -29.1240   19.2590 C   0  0  0  0  0  0  0  0  0  0  0  0
  -25.6640  -30.8900   20.6520 C   0  0  0  0  0  2  0  0  0  0  0  0
  -25.7490  -29.6340   19.8130 C   0  0  0  0  0  0  0  0  0  0  0  0
  -26.9790  -28.9800   19.5860 C   0  0  0  0  0  3  0  0  0  0  0  0
  -25.8190  -27.2950   18.2590 C   0  0  0  0  0  3  0  0  0  0  0  0
  -24.5960  -27.9550   18.4780 C   0  0  0  0  0  3  0  0  0  0  0  0
  -23.2950  -29.8900   19.5440 C   0  0  0  0  0  2  0  0  0  0  0  0
  -24.4720  -30.9430   21.5310 N   0  0  0  0  0  0  0  0  0  0  0  0
  -23.4590  -31.6990   23.4120 O   0  0  0  0  0  0  0  0  0  0  0  0
  -22.6810  -29.1700   21.8750 C   0  0  0  0  0  0  0  0  0  0  0  0
  -21.3620  -28.9220   21.8230 N   0  0  0  0  0  0  0  0  0  0  0  0
  -23.4640  -28.4830   22.5360 O   0  0  0  0  0  0  0  0  0  0  0  0
  -20.7870  -29.5390   21.2670 H   0  0  0  0  0  0  0  0  0  0  0  0
  -18.1160  -27.4260   22.3430 C   0  0  0  0  0  0  0  0  0  0  0  0
  -20.6630  -27.8360   22.5090 C   0  0  0  0  0  3  0  0  0  0  0  0
  -20.8250  -26.5000   21.7490 C   0  0  0  0  0  2  0  0  0  0  0  0
  -19.6870  -26.2250   20.7620 C   0  0  0  0  0  2  0  0  0  0  0  0
  -18.3400  -26.1870   21.4920 C   0  0  0  0  0  2  0  0  0  0  0  0
  -19.2060  -28.2100   22.8070 C   0  0  0  0  0  0  0  0  0  0  0  0
  -18.9420  -29.3730   23.5630 C   0  0  0  0  0  3  0  0  0  0  0  0
  -17.6200  -29.7510   23.8620 C   0  0  0  0  0  3  0  0  0  0  0  0
  -16.5450  -28.9630   23.4150 C   0  0  0  0  0  3  0  0  0  0  0  0
  -16.7940  -27.8030   22.6620 C   0  0  0  0  0  3  0  0  0  0  0  0
  -25.8060  -32.1740   23.3290 C   0  0  0  0  0  3  0  0  0  0  0  0
  -25.4720  -33.4800   23.9100 N   0  0  0  0  0  0  0  0  0  0  0  0
  -25.7140  -34.6580   23.3200 C   0  0  0  0  0  0  0  0  0  0  0  0
  -26.3140  -34.7600   22.2460 O   0  0  0  0  0  0  0  0  0  0  0  0
  -24.9350  -33.4720   24.7650 H   0  0  0  0  0  0  0  0  0  0  0  0
  -23.9100  -36.4080   23.3630 C   0  0  0  0  0  1  0  0  0  0  0  0
  -25.2050  -35.9250   24.0330 C   0  0  0  0  0  3  0  0  0  0  0  0
  -27.3570  -36.7400   24.8930 C   0  0  0  0  0  1  0  0  0  0  0  0
  -26.1940  -37.0250   24.0560 N   0  0  0  0  0  0  0  0  0  0  0  0
  -25.7670  -37.8840   24.3930 H   0  0  0  0  0  0  0  0  0  0  0  0
  -26.4920  -31.2430   24.4030 C   0  0  1  0  0  0  0  0  0  0  0  0
  -25.5330  -30.7740   25.5220 C   0  0  0  0  0  1  0  0  0  0  0  0
  -27.0860  -29.9830   23.7300 C   0  0  0  0  0  1  0  0  0  0  0  0
  -27.6710  -31.9890   25.0700 C   0  0  0  0  0  1  0  0  0  0  0  0
  -28.0780  -23.5140   21.0250 C   0  0  0  0  0  2  0  0  0  0  0  0
  -27.1420  -22.6490   21.9140 C   0  0  0  0  0  2  0  0  0  0  0  0
  -25.6280  -22.9690   21.8350 C   0  0  0  0  0  2  0  0  0  0  0  0
  -25.2550  -24.2580   22.4520 N   0  0  0  0  0  4  0  0  0  0  0  0
  -25.4640  -24.2620   23.4350 H   0  0  0  0  0  0  0  0  0  0  0  0
  -24.2640  -24.3950   22.3590 H   0  0  0  0  0  0  0  0  0  0  0  0
  -25.7100  -25.0430   22.0230 H   0  0  0  0  0  0  0  0  0  0  0  0
  1 55  1  0
  2  1  1  0
  2  3  1  0
  3  4  1  0
  5  4  1  0
  5 14  1  0
  5 44  1  0
  6 14  1  0
  7 12  1  0
  8  9  1  0
  8  7  1  0
 10  9  1  0
 10 19  1  0
 10 11  1  0
 12  6  1  0
 12 11  1  0
 13  6  2  0
 14 15  1  0
 16 17  2  0
 17 36  1  0
 18 17  1  0
 18 21  1  0
 19 20  1  0
 19 16  1  0
 20 18  2  0
 21 22  1  0
 22 23  2  0
 24 27  1  0
 24 23  1  0
 25 24  2  0
 26 25  1  0
 26 21  2  0
 27 28  1  0
 28 29  1  0
 29 30  2  0
 31 30  1  0
 31 35  1  0
 32 31  2  0
 33 28  2  0
 33 32  1  0
 34 33  1  0
 36 37  1  0
 37 40  1  0
 37 39  1  0
 38 36  2  0
 41 42  1  0
 41 16  1  0
 43 41  1  0
 44 45  1  0
 45 48  1  0
 45 46  1  0
 45 47  1  0
 49 50  1  0
 49  3  1  0
 51 50  1  0
 51 53  1  0
 51 52  1  0
 54 51  1  0
 56 55  1  0
 56 57  1  0
 57102  1  0
 57 58  1  1
 59 60  1  0
 59 57  1  0
 61 63  1  0
 61 60  1  0
 62 73  2  0
 63 68  1  0
 64 72  1  0
 64 74  1  0
 65 71  1  0
 65 67  1  0
 66 72  1  0
 67 66  1  0
 68 67  2  0
 69 70  1  0
 69 63  2  0
 70 65  2  0
 71 64  1  0
 72 62  1  0
 74 76  2  0
 75 74  1  0
 77 75  1  0
 78 87  2  0
 78 83  1  0
 79 75  1  0
 79 83  1  0
 80 79  1  0
 81 82  1  0
 81 80  1  0
 82 78  1  0
 83 84  2  0
 84 85  1  0
 86 85  2  0
 87 86  1  0
 88 62  1  0
 88 89  1  0
 88 98  1  0
 89 92  1  0
 90 89  1  0
 90 94  1  0
 91 90  2  0
 94 93  1  0
 94 96  1  0
 96 97  1  0
 96 95  1  0
 98101  1  1
 98 99  1  0
100 98  1  0
102103  1  0
104103  1  0
104105  1  0
105106  1  0
107105  1  0
108105  1  0
M  ISO  4   6 100  14 100  60 101  61 101
M  END
>  <TORSDO>  (80) 
F 34

>  <SCORE>  (80) 
-8.491

>  <name>  (80) 
80

>  <ligand_id>  (80) 
80

>  <original_smiles>  (80) 
[H]c1c([H])c([H])c2c(c1[H])C([H])([H])C([H])([H])C([H])([H])C2([H])N([H])C(=O)C1([H])N(C(=O)C([H])(N([H])C(=O)C([H])(N([H])C([H])([H])[H])C([H])([H])[H])C(C([H])([H])[H])(C([H])([H])[H])C([H])([H])[H])C([H])([H])c2c([H])c(OC([H])([H])C([H])([H])[N+]([H])(C([H])([H])C([H])([H])C([H])([H])C([H])([H])N(C([H])([H])C([H])(N([H])C(=O)N3C([H])([H])C([H])([H])C([H])([H])C([H])(n4nc(-c5c([H])c([H])c(Oc6c([H])c([H])c(F)c([H])c6F)c([H])c5[H])c(C(=O)N([H])[H])c4N([H])[H])C3([H])[H])C([H])([H])[N+]([H])([H])[H])C([H])([H])C([H])([H])[N+]([H])([H])[H])C([H])([H])C([H])([H])C([H])([H])[N+]([H])([H])[H])c([H])c([H])c2C1([H])[H]

>  <smiles>  (80) 
[H]c1c([H])c([H])c2c(c1[H])C([H])([H])C([H])([H])C([H])([H])C2([H])N([H])C(=O)C1([H])N(C(=O)C([H])(N([H])C(=O)C([H])(N([H])C([H])([H])[H])C([H])([H])[H])C(C([H])([H])[H])(C([H])([H])[H])C([H])([H])[H])C([H])([H])c2c([H])c(OC([H])([H])C([H])([H])[N+]([H])(C([H])([H])C([H])([H])C([H])([H])C([H])([H])N(C([H])([H])C([H])(N([H])C(=O)N3C([H])([H])C([H])([H])C([H])([H])C([H])(n4nc(-c5c([H])c([H])c(Oc6c([H])c([H])c(F)c([H])c6F)c([H])c5[H])c(C(=O)N([H])[H])c4N([H])[H])C3([H])[H])C([H])([H])[N+]([H])([H])[H])C([H])([H])C([H])([H])[N+]([H])([H])[H])C([H])([H])C([H])([H])C([H])([H])[N+]([H])([H])[H])c([H])c([H])c2C1([H])[H]

$$$$
81:0:0
     RDKit          3D

108117  0  0  1  0  0  0  0  0999 V2000
  -28.9800  -20.6530   20.4830 N   0  0  1  0  0  4  0  0  0  0  0  0
  -28.6280  -20.8710   19.5620 H   0  0  0  0  0  0  0  0  0  0  0  0
  -27.9010  -21.1030   21.4110 C   0  0  0  0  0  2  0  0  0  0  0  0
  -26.2050  -24.1960   19.8820 C   0  0  0  0  0  2  0  0  0  0  0  0
  -25.7490  -24.2710   21.3450 C   0  0  0  0  0  2  0  0  0  0  0  0
  -27.0620  -22.9300   19.7610 C   0  0  0  0  0  2  0  0  0  0  0  0
  -26.2850  -23.0070   22.0260 C   0  0  0  0  0  2  0  0  0  0  0  0
  -27.4970  -22.5830   21.1930 C   0  0  0  0  0  3  0  0  0  0  0  0
  -30.2570  -21.4230   20.6250 C   0  0  0  0  0  2  0  0  0  0  0  0
  -30.6650  -22.1780   19.3310 C   0  0  0  0  0  2  0  0  0  0  0  0
  -29.9430  -23.5280   19.1080 C   0  0  0  0  0  2  0  0  0  0  0  0
  -30.4570  -24.6110   19.9830 N   0  0  0  0  0  4  0  0  0  0  0  0
  -31.1120  -24.2390   20.6540 H   0  0  0  0  0  0  0  0  0  0  0  0
  -29.6900  -25.0030   20.5120 H   0  0  0  0  0  0  0  0  0  0  0  0
  -31.0890  -25.7530   19.2850 C   0  0  0  0  0  2  0  0  0  0  0  0
  -30.0380  -26.8120   18.9340 C   0  0  0  0  0  2  0  0  0  0  0  0
  -29.4170  -27.1820   20.1690 O   0  0  0  0  0  0  0  0  0  0  0  0
  -24.7550  -31.4630   23.3880 C   0  0  0  0  0  0  0  0  0  0  0  0
  -28.1580  -27.7330   20.1180 C   0  0  0  0  0  0  0  0  0  0  0  0
  -23.8650  -30.1490   21.4920 C   0  0  0  0  0  3  0  0  0  0  0  0
  -25.6050  -28.9410   20.0680 C   0  0  0  0  0  0  0  0  0  0  0  0
  -26.3400  -30.7820   21.5930 C   0  0  0  0  0  2  0  0  0  0  0  0
  -26.6350  -29.5100   20.8280 C   0  0  0  0  0  0  0  0  0  0  0  0
  -27.9080  -28.9040   20.8650 C   0  0  0  0  0  3  0  0  0  0  0  0
  -27.1020  -27.1520   19.3790 C   0  0  0  0  0  3  0  0  0  0  0  0
  -25.8320  -27.7570   19.3460 C   0  0  0  0  0  3  0  0  0  0  0  0
  -24.2690  -29.6500   20.0770 C   0  0  0  0  0  2  0  0  0  0  0  0
  -24.9980  -30.8070   22.2190 N   0  0  0  0  0  0  0  0  0  0  0  0
  -23.6060  -31.5640   23.8380 O   0  0  0  0  0  0  0  0  0  0  0  0
  -23.2500  -28.9630   22.2660 C   0  0  0  0  0  0  0  0  0  0  0  0
  -21.9700  -28.6660   21.9850 N   0  0  0  0  0  0  0  0  0  0  0  0
  -23.9230  -28.3160   23.0720 O   0  0  0  0  0  0  0  0  0  0  0  0
  -21.4810  -29.2530   21.3230 H   0  0  0  0  0  0  0  0  0  0  0  0
  -18.7280  -27.0760   21.9750 C   0  0  0  0  0  0  0  0  0  0  0  0
  -21.1960  -27.5690   22.5630 C   0  0  0  0  0  3  0  0  0  0  0  0
  -21.5230  -26.2280   21.8660 C   0  0  0  0  0  2  0  0  0  0  0  0
  -20.5780  -25.9030   20.7050 C   0  0  0  0  0  2  0  0  0  0  0  0
  -19.1290  -25.8330   21.1980 C   0  0  0  0  0  2  0  0  0  0  0  0
  -19.7010  -27.8980   22.6030 C   0  0  0  0  0  0  0  0  0  0  0  0
  -19.2790  -29.0620   23.2810 C   0  0  0  0  0  3  0  0  0  0  0  0
  -17.9140  -29.4070   23.3390 C   0  0  0  0  0  3  0  0  0  0  0  0
  -16.9540  -28.5790   22.7270 C   0  0  0  0  0  3  0  0  0  0  0  0
  -17.3620  -27.4150   22.0520 C   0  0  0  0  0  3  0  0  0  0  0  0
  -25.9010  -32.1440   24.1990 C   0  0  0  0  0  3  0  0  0  0  0  0
  -25.4990  -33.5360   24.4460 N   0  0  0  0  0  0  0  0  0  0  0  0
  -25.9510  -34.5920   23.7580 C   0  0  0  0  0  0  0  0  0  0  0  0
  -26.8160  -34.5010   22.8820 O   0  0  0  0  0  0  0  0  0  0  0  0
  -24.7390  -33.6790   25.0960 H   0  0  0  0  0  0  0  0  0  0  0  0
  -24.2950  -36.3460   23.0430 C   0  0  0  0  0  1  0  0  0  0  0  0
  -25.3490  -35.9700   24.0970 C   0  0  0  0  0  3  0  0  0  0  0  0
  -27.2460  -36.8970   25.3490 C   0  0  0  0  0  1  0  0  0  0  0  0
  -26.3600  -37.0450   24.1960 N   0  0  0  0  0  0  0  0  0  0  0  0
  -25.9130  -37.9560   24.2560 H   0  0  0  0  0  0  0  0  0  0  0  0
  -26.2280  -31.4030   25.5550 C   0  0  1  0  0  0  0  0  0  0  0  0
  -24.9850  -31.1510   26.4400 C   0  0  0  0  0  1  0  0  0  0  0  0
  -26.8940  -30.0340   25.2840 C   0  0  0  0  0  1  0  0  0  0  0  0
  -27.2460  -32.2310   26.3740 C   0  0  0  0  0  1  0  0  0  0  0  0
  -29.1920  -19.1690   20.4230 C   0  0  0  0  0  3  0  0  0  0  0  0
  -27.9220  -18.4550   19.9000 C   0  0  0  0  0  2  0  0  0  0  0  0
  -26.4040  -20.0570   16.1570 C   0  0  0  0  0  3  0  0  0  0  0  0
  -25.6560  -20.2010   17.3400 C   0  0  0  0  0  3  0  0  0  0  0  0
  -27.6350  -19.3740   16.1830 C   0  0  0  0  0  3  0  0  0  0  0  0
  -26.1430  -19.6740   18.5510 C   0  0  0  0  0  3  0  0  0  0  0  0
  -28.1250  -18.8490   17.3930 C   0  0  0  0  0  3  0  0  0  0  0  0
  -27.3910  -19.0140   18.5890 C   0  0  0  0  0  0  0  0  0  0  0  0
  -29.7170  -18.5290   21.7450 C   0  0  0  0  0  2  0  0  0  0  0  0
  -31.0640  -15.0200   20.8950 C   0  0  0  0  0  0  0  0  0  0  0  0
  -30.9350  -12.7420   19.9680 C   0  0  0  0  0  2  0  0  0  0  0  0
  -30.1450  -12.7440   18.6440 C   0  0  0  0  0  2  0  0  0  0  0  0
  -28.6310  -12.6200   18.9030 C   0  0  0  0  0  2  0  0  0  0  0  0
  -28.1210  -13.6070   19.9860 C   0  0  0  0  0  3  0  0  0  0  0  0
  -29.0310  -13.5690   21.2380 C   0  0  0  0  0  2  0  0  0  0  0  0
  -30.4140  -13.8310   20.8100 N   0  0  0  0  0  0  0  0  0  0  0  0
  -32.2090  -15.2110   20.4630 O   0  0  0  0  0  0  0  0  0  0  0  0
  -30.7160  -17.4390   21.4270 C   0  0  0  0  0  0  0  0  0  0  0  0
  -30.3010  -16.1380   21.3900 N   0  0  0  0  0  0  0  0  0  0  0  0
  -31.9820  -17.8330   21.1520 N   0  0  0  0  0  4  0  0  0  0  0  0
  -29.3660  -15.9800   21.7300 H   0  0  0  0  0  0  0  0  0  0  0  0
  -32.3190  -18.7780   21.2760 H   0  0  0  0  0  0  0  0  0  0  0  0
  -32.6640  -17.1320   20.8660 H   0  0  0  0  0  0  0  0  0  0  0  0
  -25.6630  -14.2400   20.4130 C   0  0  0  0  0  0  0  0  0  0  0  0
  -24.5610  -13.4820   20.6990 C   0  0  0  0  0  0  0  0  0  0  0  0
  -25.0170  -12.1290   20.7600 C   0  0  0  0  0  0  0  0  0  0  0  0
  -26.7240  -13.3510   20.3240 N   0  0  0  0  0  0  0  0  0  0  0  0
  -26.3320  -12.0800   20.5890 N   0  0  0  0  0  0  0  0  0  0  0  0
  -24.2700  -10.8740   20.9120 C   0  0  0  0  0  0  0  0  0  0  0  0
  -24.6070   -9.9310   21.9080 C   0  0  0  0  0  3  0  0  0  0  0  0
  -23.8620   -8.7410   22.0480 C   0  0  0  0  0  3  0  0  0  0  0  0
  -22.7680   -8.4840   21.1890 C   0  0  0  0  0  0  0  0  0  0  0  0
  -22.4520   -9.4150   20.1830 C   0  0  0  0  0  3  0  0  0  0  0  0
  -23.1960  -10.5980   20.0420 C   0  0  0  0  0  3  0  0  0  0  0  0
  -22.0040   -7.3440   21.2340 O   0  0  0  0  0  0  0  0  0  0  0  0
  -21.8210   -6.6450   22.4010 C   0  0  0  0  0  0  0  0  0  0  0  0
  -21.2730   -7.2500   23.5530 C   0  0  0  0  0  3  0  0  0  0  0  0
  -21.0390   -6.4780   24.7090 C   0  0  0  0  0  3  0  0  0  0  0  0
  -21.3430   -5.1040   24.7130 C   0  0  0  0  0  0  0  0  0  0  0  0
  -21.8850   -4.4990   23.5660 C   0  0  0  0  0  3  0  0  0  0  0  0
  -22.1210   -5.2680   22.4120 C   0  0  0  0  0  0  0  0  0  0  0  0
  -22.6230   -4.6760   21.3020 F   0  0  0  0  0  0  0  0  0  0  0  0
  -21.1120   -4.3610   25.8210 F   0  0  0  0  0  0  0  0  0  0  0  0
  -23.1450  -13.9680   20.8070 C   0  0  0  0  0  0  0  0  0  0  0  0
  -22.3380  -13.3250   21.6430 N   0  0  0  0  0  0  0  0  0  0  0  0
  -22.7600  -14.9560   20.1810 O   0  0  0  0  0  0  0  0  0  0  0  0
  -22.6610  -12.5260   22.1670 H   0  0  0  0  0  0  0  0  0  0  0  0
  -21.3830  -13.6340   21.7590 H   0  0  0  0  0  0  0  0  0  0  0  0
  -25.8480  -15.6010   20.1960 N   0  0  0  0  0  0  0  0  0  0  0  0
  -25.0280  -16.1890   20.0980 H   0  0  0  0  0  0  0  0  0  0  0  0
  -26.6290  -15.9360   19.6490 H   0  0  0  0  0  0  0  0  0  0  0  0
  1  9  1  0
  1  3  1  0
  1  2  1  6
  4  5  1  0
  5  7  1  0
  6  4  1  0
  6  8  1  0
  8  3  1  0
  8  7  1  0
 10  9  1  0
 11 10  1  0
 11 12  1  0
 12 14  1  0
 12 13  1  0
 15 12  1  0
 16 15  1  0
 16 17  1  0
 18 29  2  0
 19 17  1  0
 19 24  1  0
 20 28  1  0
 20 30  1  0
 21 27  1  0
 21 23  1  0
 22 28  1  0
 23 24  2  0
 23 22  1  0
 25 19  2  0
 26 25  1  0
 26 21  2  0
 27 20  1  0
 28 18  1  0
 30 32  2  0
 31 30  1  0
 33 31  1  0
 34 43  2  0
 34 39  1  0
 35 31  1  0
 35 39  1  0
 36 35  1  0
 37 38  1  0
 37 36  1  0
 38 34  1  0
 39 40  2  0
 40 41  1  0
 42 41  2  0
 43 42  1  0
 44 18  1  0
 44 45  1  0
 44 54  1  0
 45 48  1  0
 46 50  1  0
 46 45  1  0
 47 46  2  0
 50 49  1  0
 50 52  1  0
 52 53  1  0
 52 51  1  0
 54 57  1  1
 54 55  1  0
 56 54  1  0
 58 59  1  0
 58  1  1  0
 58 66  1  0
 60 62  2  0
 60 61  1  0
 61 63  2  0
 62 64  1  0
 63 65  1  0
 64 65  2  0
 65 59  1  0
 67 76  1  0
 68 73  1  0
 69 70  1  0
 69 68  1  0
 71 70  1  0
 71 84  1  0
 71 72  1  0
 73 67  1  0
 73 72  1  0
 74 67  2  0
 75 66  1  0
 76 75  1  0
 76 78  1  0
 77 79  1  0
 77 75  2  0
 80 77  1  0
 81 82  2  0
 82 83  1  0
 82101  1  0
 83 86  1  0
 84 81  1  0
 84 85  1  0
 85 83  2  0
 86 87  1  0
 87 88  2  0
 89 92  1  0
 89 88  1  0
 90 89  2  0
 91 90  1  0
 91 86  2  0
 92 93  1  0
 93 98  2  0
 93 94  1  0
 94 95  2  0
 95 96  1  0
 96100  1  0
 97 96  2  0
 98 97  1  0
 99 98  1  0
101102  1  0
102105  1  0
102104  1  0
103101  2  0
106 81  1  0
107106  1  0
108106  1  0
M  ISO  4  16 101  17 101  67 100  76 100
M  END
>  <TORSDO>  (81) 
F 28

>  <SCORE>  (81) 
-8.232

>  <name>  (81) 
81

>  <ligand_id>  (81) 
81

>  <original_smiles>  (81) 
[H]c1c([H])c([H])c(C([H])([H])C([H])(C([H])([H])C(N([H])C(=O)N2C([H])([H])C([H])([H])C([H])([H])C([H])(n3nc(-c4c([H])c([H])c(Oc5c([H])c([H])c(F)c([H])c5F)c([H])c4[H])c(C(=O)N([H])[H])c3N([H])[H])C2([H])[H])=[N+]([H])[H])[N+]([H])(C([H])([H])C([H])([H])C([H])([H])[N+]([H])([H])C([H])([H])C([H])([H])Oc2c([H])c([H])c3c(c2[H])C([H])([H])N(C(=O)C([H])(N([H])C(=O)C([H])(N([H])C([H])([H])[H])C([H])([H])[H])C(C([H])([H])[H])(C([H])([H])[H])C([H])([H])[H])C([H])(C(=O)N([H])C2([H])c4c([H])c([H])c([H])c([H])c4C([H])([H])C([H])([H])C2([H])[H])C3([H])[H])C([H])([H])C2([H])C([H])([H])C([H])([H])C([H])([H])C2([H])[H])c([H])c1[H]

>  <smiles>  (81) 
[H]c1c([H])c([H])c(C([H])([H])C([H])(C([H])([H])C(N([H])C(=O)N2C([H])([H])C([H])([H])C([H])([H])C([H])(n3nc(-c4c([H])c([H])c(Oc5c([H])c([H])c(F)c([H])c5F)c([H])c4[H])c(C(=O)N([H])[H])c3N([H])[H])C2([H])[H])=[N+]([H])[H])[N+]([H])(C([H])([H])C([H])([H])C([H])([H])[N+]([H])([H])C([H])([H])C([H])([H])Oc2c([H])c([H])c3c(c2[H])C([H])([H])N(C(=O)C([H])(N([H])C(=O)C([H])(N([H])C([H])([H])[H])C([H])([H])[H])C(C([H])([H])[H])(C([H])([H])[H])C([H])([H])[H])C([H])(C(=O)N([H])C2([H])c4c([H])c([H])c([H])c([H])c4C([H])([H])C([H])([H])C2([H])[H])C3([H])[H])C([H])([H])C2([H])C([H])([H])C([H])([H])C([H])([H])C2([H])[H])c([H])c1[H]

$$$$
82:0:0
     RDKit          3D

104113  0  0  1  0  0  0  0  0999 V2000
  -29.3230  -18.7600   19.4690 N   0  0  0  0  0  0  0  0  0  0  0  0
  -27.8490  -19.1630   16.4270 C   0  0  0  0  0  2  0  0  0  0  0  0
  -30.0370  -19.3850   17.1220 C   0  0  0  0  0  2  0  0  0  0  0  0
  -29.2980  -18.3850   18.0390 C   0  0  0  0  0  3  0  0  0  0  0  0
  -27.9370  -18.3560   17.4890 N   0  0  0  0  0  0  0  0  0  0  0  0
  -28.9950  -19.8060   16.1850 N   0  0  0  0  0  0  0  0  0  0  0  0
  -27.3760  -17.5130   17.5330 H   0  0  0  0  0  0  0  0  0  0  0  0
  -29.1600  -20.4240   15.4020 H   0  0  0  0  0  0  0  0  0  0  0  0
  -28.1440  -19.5480   19.8900 C   0  0  0  0  0  2  0  0  0  0  0  0
  -28.5140  -20.7610   20.7830 C   0  0  0  0  0  2  0  0  0  0  0  0
  -28.2840  -22.0680   20.1120 N   0  0  0  0  0  4  0  0  0  0  0  0
  -28.7040  -22.0560   19.1950 H   0  0  0  0  0  0  0  0  0  0  0  0
  -27.2900  -22.1850   20.0010 H   0  0  0  0  0  0  0  0  0  0  0  0
  -28.8040  -23.2440   20.8530 C   0  0  0  0  0  2  0  0  0  0  0  0
  -27.9780  -24.5450   20.6460 C   0  0  0  0  0  2  0  0  0  0  0  0
  -28.5540  -25.5380   19.6120 C   0  0  0  0  0  2  0  0  0  0  0  0
  -28.4450  -26.8840   20.0810 O   0  0  0  0  0  0  0  0  0  0  0  0
  -24.6130  -31.8790   23.3640 C   0  0  0  0  0  0  0  0  0  0  0  0
  -27.2340  -27.5430   20.1180 C   0  0  0  0  0  0  0  0  0  0  0  0
  -23.4010  -30.5610   21.6540 C   0  0  0  0  0  3  0  0  0  0  0  0
  -24.8440  -29.0600   20.1830 C   0  0  0  0  0  0  0  0  0  0  0  0
  -25.9290  -30.8980   21.4870 C   0  0  0  0  0  2  0  0  0  0  0  0
  -26.0020  -29.5530   20.7950 C   0  0  0  0  0  0  0  0  0  0  0  0
  -27.1940  -28.8020   20.7550 C   0  0  0  0  0  3  0  0  0  0  0  0
  -26.0530  -27.0510   19.5130 C   0  0  0  0  0  3  0  0  0  0  0  0
  -24.8640  -27.8080   19.5430 C   0  0  0  0  0  3  0  0  0  0  0  0
  -23.6110  -29.9320   20.2500 C   0  0  0  0  0  2  0  0  0  0  0  0
  -24.6660  -31.1260   22.2280 N   0  0  0  0  0  0  0  0  0  0  0  0
  -23.5310  -32.1450   23.9050 O   0  0  0  0  0  0  0  0  0  0  0  0
  -22.7300  -29.5110   22.5670 C   0  0  0  0  0  0  0  0  0  0  0  0
  -21.4070  -29.3410   22.4090 N   0  0  0  0  0  0  0  0  0  0  0  0
  -23.3960  -28.8510   23.3700 O   0  0  0  0  0  0  0  0  0  0  0  0
  -20.9310  -29.9280   21.7370 H   0  0  0  0  0  0  0  0  0  0  0  0
  -18.0160  -28.1590   22.8050 C   0  0  0  0  0  0  0  0  0  0  0  0
  -20.5720  -28.3830   23.1280 C   0  0  0  0  0  3  0  0  0  0  0  0
  -20.6700  -26.9760   22.4970 C   0  0  0  0  0  2  0  0  0  0  0  0
  -19.5830  -26.7030   21.4530 C   0  0  0  0  0  2  0  0  0  0  0  0
  -18.1910  -26.8350   22.0810 C   0  0  0  0  0  2  0  0  0  0  0  0
  -19.1340  -28.8930   23.2830 C   0  0  0  0  0  0  0  0  0  0  0  0
  -18.9190  -30.1360   23.9180 C   0  0  0  0  0  3  0  0  0  0  0  0
  -17.6170  -30.6430   24.0820 C   0  0  0  0  0  3  0  0  0  0  0  0
  -16.5120  -29.9060   23.6220 C   0  0  0  0  0  3  0  0  0  0  0  0
  -16.7130  -28.6660   22.9890 C   0  0  0  0  0  3  0  0  0  0  0  0
  -25.9030  -32.4640   24.0190 C   0  0  0  0  0  3  0  0  0  0  0  0
  -25.6470  -33.8790   24.3150 N   0  0  0  0  0  0  0  0  0  0  0  0
  -26.0370  -34.9000   23.5400 C   0  0  0  0  0  0  0  0  0  0  0  0
  -26.7230  -34.7490   22.5270 O   0  0  0  0  0  0  0  0  0  0  0  0
  -25.0430  -34.0750   25.1000 H   0  0  0  0  0  0  0  0  0  0  0  0
  -24.3610  -36.7340   23.1440 C   0  0  0  0  0  1  0  0  0  0  0  0
  -25.5950  -36.3160   23.9590 C   0  0  0  0  0  3  0  0  0  0  0  0
  -27.7440  -37.1800   24.7740 C   0  0  0  0  0  1  0  0  0  0  0  0
  -26.6590  -37.3330   23.8090 N   0  0  0  0  0  0  0  0  0  0  0  0
  -26.2780  -38.2700   23.9070 H   0  0  0  0  0  0  0  0  0  0  0  0
  -26.3460  -31.6930   25.3240 C   0  0  1  0  0  0  0  0  0  0  0  0
  -25.2160  -31.5450   26.3710 C   0  0  0  0  0  1  0  0  0  0  0  0
  -26.8530  -30.2750   24.9720 C   0  0  0  0  0  1  0  0  0  0  0  0
  -27.5250  -32.4330   25.9970 C   0  0  0  0  0  1  0  0  0  0  0  0
  -29.4790  -17.5430   20.2950 C   0  0  0  0  0  2  0  0  0  0  0  0
  -30.9000  -16.8980   20.2320 C   0  0  0  0  0  3  0  0  0  0  0  0
  -31.4260  -14.4180   20.1580 C   0  0  0  0  0  0  0  0  0  0  0  0
  -31.0370  -12.1470   19.2760 C   0  0  0  0  0  2  0  0  0  0  0  0
  -30.1230  -12.2500   18.0360 C   0  0  0  0  0  2  0  0  0  0  0  0
  -28.6380  -12.2450   18.4480 C   0  0  0  0  0  2  0  0  0  0  0  0
  -28.3320  -13.2490   19.5910 C   0  0  0  0  0  3  0  0  0  0  0  0
  -29.3540  -13.1010   20.7430 C   0  0  0  0  0  2  0  0  0  0  0  0
  -30.7080  -13.2620   20.1800 N   0  0  0  0  0  0  0  0  0  0  0  0
  -32.5170  -14.5130   19.5890 O   0  0  0  0  0  0  0  0  0  0  0  0
  -30.7920  -15.4910   20.6710 N   0  0  0  0  0  0  0  0  0  0  0  0
  -29.9500  -15.2610   21.1780 H   0  0  0  0  0  0  0  0  0  0  0  0
  -26.0000  -14.0920   20.2840 C   0  0  0  0  0  0  0  0  0  0  0  0
  -24.8630  -13.4380   20.6700 C   0  0  0  0  0  0  0  0  0  0  0  0
  -25.1880  -12.0470   20.6460 C   0  0  0  0  0  0  0  0  0  0  0  0
  -26.9560  -13.1130   20.0660 N   0  0  0  0  0  0  0  0  0  0  0  0
  -26.4680  -11.8770   20.3350 N   0  0  0  0  0  0  0  0  0  0  0  0
  -24.3400  -10.8650   20.8400 C   0  0  0  0  0  0  0  0  0  0  0  0
  -24.7030   -9.8390   21.7380 C   0  0  0  0  0  3  0  0  0  0  0  0
  -23.8630   -8.7220   21.9250 C   0  0  0  0  0  3  0  0  0  0  0  0
  -22.6460   -8.6220   21.2110 C   0  0  0  0  0  0  0  0  0  0  0  0
  -22.3000   -9.6360   20.2980 C   0  0  0  0  0  3  0  0  0  0  0  0
  -23.1420  -10.7450   20.1100 C   0  0  0  0  0  3  0  0  0  0  0  0
  -21.7790   -7.5620   21.3080 O   0  0  0  0  0  0  0  0  0  0  0  0
  -21.6680   -6.8260   22.4610 C   0  0  0  0  0  0  0  0  0  0  0  0
  -21.2740   -7.4110   23.6830 C   0  0  0  0  0  3  0  0  0  0  0  0
  -21.1070   -6.6070   24.8280 C   0  0  0  0  0  3  0  0  0  0  0  0
  -21.3230   -5.2180   24.7500 C   0  0  0  0  0  0  0  0  0  0  0  0
  -21.7110   -4.6330   23.5330 C   0  0  0  0  0  3  0  0  0  0  0  0
  -21.8810   -5.4340   22.3910 C   0  0  0  0  0  0  0  0  0  0  0  0
  -22.2350   -4.8630   21.2150 F   0  0  0  0  0  0  0  0  0  0  0  0
  -21.1540   -4.4430   25.8470 F   0  0  0  0  0  0  0  0  0  0  0  0
  -23.5230  -14.0570   20.9400 C   0  0  0  0  0  0  0  0  0  0  0  0
  -22.7570  -13.4840   21.8600 N   0  0  0  0  0  0  0  0  0  0  0  0
  -23.1700  -15.0890   20.3660 O   0  0  0  0  0  0  0  0  0  0  0  0
  -23.0590  -12.6510   22.3460 H   0  0  0  0  0  0  0  0  0  0  0  0
  -21.8550  -13.8800   22.0830 H   0  0  0  0  0  0  0  0  0  0  0  0
  -26.2910  -15.4330   20.0630 N   0  0  0  0  0  0  0  0  0  0  0  0
  -25.4400  -15.9570   19.8890 H   0  0  0  0  0  0  0  0  0  0  0  0
  -26.9490  -15.5520   19.3040 H   0  0  0  0  0  0  0  0  0  0  0  0
  -31.9220  -17.7380   21.0640 C   0  0  0  0  0  2  0  0  0  0  0  0
  -34.9470  -19.9480   18.8230 C   0  0  0  0  0  3  0  0  0  0  0  0
  -35.2400  -19.4170   20.0940 C   0  0  0  0  0  3  0  0  0  0  0  0
  -33.6690  -19.7590   18.2670 C   0  0  0  0  0  3  0  0  0  0  0  0
  -34.2580  -18.6980   20.8030 C   0  0  0  0  0  3  0  0  0  0  0  0
  -32.6860  -19.0450   18.9780 C   0  0  0  0  0  3  0  0  0  0  0  0
  -32.9720  -18.5000   20.2530 C   0  0  0  0  0  0  0  0  0  0  0  0
  1  9  1  0
  1 58  1  0
  2  5  1  0
  3  4  1  0
  4  1  1  0
  5  7  1  0
  5  4  1  0
  6  2  1  0
  6  3  1  0
  8  6  1  0
  9 10  1  0
 11 10  1  0
 11 14  1  0
 12 11  1  0
 13 11  1  0
 15 14  1  0
 16 17  1  0
 16 15  1  0
 17 19  1  0
 18 29  2  0
 19 24  1  0
 20 28  1  0
 20 30  1  0
 21 27  1  0
 21 23  1  0
 22 28  1  0
 23 22  1  0
 24 23  2  0
 25 26  1  0
 25 19  2  0
 26 21  2  0
 27 20  1  0
 28 18  1  0
 30 32  2  0
 31 30  1  0
 33 31  1  0
 34 43  2  0
 34 39  1  0
 35 31  1  0
 35 39  1  0
 36 35  1  0
 37 38  1  0
 37 36  1  0
 38 34  1  0
 39 40  2  0
 40 41  1  0
 42 41  2  0
 43 42  1  0
 44 18  1  0
 44 45  1  0
 44 54  1  0
 45 48  1  0
 46 50  1  0
 46 45  1  0
 47 46  2  0
 50 49  1  0
 52 53  1  0
 52 50  1  0
 52 51  1  0
 54 57  1  1
 54 55  1  0
 56 54  1  0
 59 58  1  0
 59 68  1  0
 59 98  1  0
 60 66  1  0
 60 68  1  0
 61 66  1  0
 62 63  1  0
 62 61  1  0
 64 63  1  0
 64 73  1  0
 64 65  1  0
 66 65  1  0
 67 60  2  0
 68 69  1  0
 70 71  2  0
 71 90  1  0
 72 71  1  0
 72 75  1  0
 73 70  1  0
 73 74  1  0
 74 72  2  0
 75 76  1  0
 76 77  2  0
 78 81  1  0
 78 77  1  0
 79 78  2  0
 80 79  1  0
 80 75  2  0
 81 82  1  0
 82 83  1  0
 83 84  2  0
 85 84  1  0
 85 89  1  0
 86 85  2  0
 87 82  2  0
 87 86  1  0
 88 87  1  0
 90 91  1  0
 91 94  1  0
 91 93  1  0
 92 90  2  0
 95 70  1  0
 96 95  1  0
 97 95  1  0
 99100  1  0
100102  2  0
101 99  2  0
101103  1  0
103104  2  0
104102  1  0
104 98  1  0
M  ISO  4  16 101  17 101  60 100  68 100
M  END
>  <TORSDO>  (82) 
F 27

>  <SCORE>  (82) 
-11.578

>  <name>  (82) 
82

>  <ligand_id>  (82) 
82

>  <original_smiles>  (82) 
[H]C1=[N+]([H])C([H])([H])C([H])(N(C([H])([H])C([H])(N([H])C(=O)N2C([H])([H])C([H])([H])C([H])([H])C([H])(n3nc(-c4c([H])c([H])c(Oc5c([H])c([H])c(F)c([H])c5F)c([H])c4[H])c(C(=O)N([H])[H])c3N([H])[H])C2([H])[H])C([H])([H])c2c([H])c([H])c([H])c([H])c2[H])C([H])([H])C([H])([H])[N+]([H])([H])C([H])([H])C([H])([H])C([H])([H])Oc2c([H])c([H])c3c(c2[H])C([H])([H])N(C(=O)C([H])(N([H])C(=O)C([H])(N([H])C([H])([H])[H])C([H])([H])[H])C(C([H])([H])[H])(C([H])([H])[H])C([H])([H])[H])C([H])(C(=O)N([H])C2([H])c4c([H])c([H])c([H])c([H])c4C([H])([H])C([H])([H])C2([H])[H])C3([H])[H])N1[H]

>  <smiles>  (82) 
[H]C1=[N+]([H])C([H])([H])C([H])(N(C([H])([H])C([H])(N([H])C(=O)N2C([H])([H])C([H])([H])C([H])([H])C([H])(n3nc(-c4c([H])c([H])c(Oc5c([H])c([H])c(F)c([H])c5F)c([H])c4[H])c(C(=O)N([H])[H])c3N([H])[H])C2([H])[H])C([H])([H])c2c([H])c([H])c([H])c([H])c2[H])C([H])([H])C([H])([H])[N+]([H])([H])C([H])([H])C([H])([H])C([H])([H])Oc2c([H])c([H])c3c(c2[H])C([H])([H])N(C(=O)C([H])(N([H])C(=O)C([H])(N([H])C([H])([H])[H])C([H])([H])[H])C(C([H])([H])[H])(C([H])([H])[H])C([H])([H])[H])C([H])(C(=O)N([H])C2([H])c4c([H])c([H])c([H])c([H])c4C([H])([H])C([H])([H])C2([H])[H])C3([H])[H])N1[H]

$$$$
83:0:0
     RDKit          3D

103111  0  0  1  0  0  0  0  0999 V2000
  -30.0640  -20.7980   19.5780 N   0  0  1  0  0  4  0  0  0  0  0  0
  -30.4730  -20.8730   20.4980 H   0  0  0  0  0  0  0  0  0  0  0  0
  -29.6430  -19.2520   19.5570 C   0  0  0  0  0  2  0  0  0  0  0  0
  -33.0550  -18.1270   18.5260 C   0  0  0  0  0  3  0  0  0  0  0  0
  -32.2400  -17.9620   17.2400 C   0  0  0  0  0  3  0  0  0  0  0  0
  -32.0670  -18.2150   19.6970 C   0  0  0  0  0  3  0  0  0  0  0  0
  -30.7640  -17.8190   17.6400 C   0  0  0  0  0  3  0  0  0  0  0  0
  -30.6390  -17.8930   19.1860 C   0  0  2  0  0  0  0  0  0  0  0  0
  -31.0280  -15.1520   19.3500 C   0  0  0  0  0  0  0  0  0  0  0  0
  -30.8430  -12.7960   18.4090 C   0  0  0  0  0  2  0  0  0  0  0  0
  -29.6890  -12.6740   17.3860 C   0  0  0  0  0  2  0  0  0  0  0  0
  -28.3450  -12.3880   18.0870 C   0  0  0  0  0  2  0  0  0  0  0  0
  -28.1330  -13.2870   19.3300 C   0  0  0  0  0  3  0  0  0  0  0  0
  -29.3960  -13.2870   20.2230 C   0  0  0  0  0  2  0  0  0  0  0  0
  -30.4750  -13.8610   19.3970 N   0  0  0  0  0  0  0  0  0  0  0  0
  -32.1310  -15.2070   18.7990 O   0  0  0  0  0  0  0  0  0  0  0  0
  -30.3100  -16.3830   19.6500 N   0  0  0  0  0  0  0  0  0  0  0  0
  -26.0030  -13.7840   20.6640 C   0  0  0  0  0  0  0  0  0  0  0  0
  -25.0180  -12.9750   21.1540 C   0  0  0  0  0  0  0  0  0  0  0  0
  -25.4010  -11.6380   20.8180 C   0  0  0  0  0  0  0  0  0  0  0  0
  -26.9260  -12.9410   20.0680 N   0  0  0  0  0  0  0  0  0  0  0  0
  -26.5850  -11.6360   20.2190 N   0  0  0  0  0  0  0  0  0  0  0  0
  -24.6810  -10.3700   20.9820 C   0  0  0  0  0  0  0  0  0  0  0  0
  -25.0160   -9.4580   22.0060 C   0  0  0  0  0  3  0  0  0  0  0  0
  -24.2970   -8.2530   22.1530 C   0  0  0  0  0  3  0  0  0  0  0  0
  -23.2290   -7.9520   21.2750 C   0  0  0  0  0  0  0  0  0  0  0  0
  -22.9130   -8.8540   20.2440 C   0  0  0  0  0  3  0  0  0  0  0  0
  -23.6340  -10.0510   20.0950 C   0  0  0  0  0  3  0  0  0  0  0  0
  -22.4930   -6.7930   21.3260 O   0  0  0  0  0  0  0  0  0  0  0  0
  -21.9650   -6.3280   22.5020 C   0  0  0  0  0  0  0  0  0  0  0  0
  -21.1290   -7.1270   23.3140 C   0  0  0  0  0  3  0  0  0  0  0  0
  -20.5540   -6.5840   24.4810 C   0  0  0  0  0  3  0  0  0  0  0  0
  -20.8040   -5.2450   24.8330 C   0  0  0  0  0  0  0  0  0  0  0  0
  -21.6340   -4.4470   24.0240 C   0  0  0  0  0  3  0  0  0  0  0  0
  -22.2100   -4.9870   22.8620 C   0  0  0  0  0  0  0  0  0  0  0  0
  -22.9900   -4.2080   22.0740 F   0  0  0  0  0  0  0  0  0  0  0  0
  -20.2470   -4.7210   25.9500 F   0  0  0  0  0  0  0  0  0  0  0  0
  -23.7390  -13.4180   21.8050 C   0  0  0  0  0  0  0  0  0  0  0  0
  -23.2320  -12.6360   22.7500 N   0  0  0  0  0  0  0  0  0  0  0  0
  -23.2100  -14.4890   21.5090 O   0  0  0  0  0  0  0  0  0  0  0  0
  -23.6790  -11.7680   23.0060 H   0  0  0  0  0  0  0  0  0  0  0  0
  -22.3820  -12.9060   23.2240 H   0  0  0  0  0  0  0  0  0  0  0  0
  -26.1780  -15.1670   20.6530 N   0  0  0  0  0  0  0  0  0  0  0  0
  -25.4350  -15.7790   20.9720 H   0  0  0  0  0  0  0  0  0  0  0  0
  -26.8330  -15.6360   20.0440 H   0  0  0  0  0  0  0  0  0  0  0  0
  -29.3040  -16.4040   20.7320 C   0  0  0  0  0  2  0  0  0  0  0  0
  -29.9340  -16.4950   22.1430 C   0  0  0  0  0  2  0  0  0  0  0  0
  -28.9250  -16.4390   23.2180 N   0  0  0  0  0  4  0  0  0  0  0  0
  -28.2500  -17.1770   23.1240 H   0  0  0  0  0  0  0  0  0  0  0  0
  -29.3750  -16.5510   24.1100 H   0  0  0  0  0  0  0  0  0  0  0  0
  -28.4410  -15.5590   23.2290 H   0  0  0  0  0  0  0  0  0  0  0  0
  -31.2030  -21.1640   18.6940 C   0  0  0  0  0  2  0  0  0  0  0  0
  -30.8470  -21.3200   17.1940 C   0  0  0  0  0  2  0  0  0  0  0  0
  -30.8780  -22.7710   16.6800 C   0  0  0  0  0  2  0  0  0  0  0  0
  -30.7370  -22.8730   15.1520 C   0  0  0  0  0  2  0  0  0  0  0  0
  -30.8220  -24.2680   14.6880 N   0  0  0  0  0  4  0  0  0  0  0  0
  -30.1040  -24.8350   15.1030 H   0  0  0  0  0  0  0  0  0  0  0  0
  -30.7100  -24.3080   13.6900 H   0  0  0  0  0  0  0  0  0  0  0  0
  -31.7180  -24.6650   14.9120 H   0  0  0  0  0  0  0  0  0  0  0  0
  -28.9810  -21.9570   19.5910 C   0  0  0  0  0  2  0  0  0  0  0  0
  -29.3600  -23.5980   19.6950 C   0  0  0  0  0  3  0  0  0  0  0  0
  -28.2590  -24.8410   19.4880 C   0  0  0  0  0  3  0  0  0  0  0  0
  -28.4770  -26.3520   19.7410 O   0  0  0  0  0  0  0  0  0  0  0  0
  -24.6620  -31.6530   23.0990 C   0  0  0  0  0  0  0  0  0  0  0  0
  -27.3790  -27.2820   19.7350 C   0  0  0  0  0  0  0  0  0  0  0  0
  -23.5010  -30.3550   21.3530 C   0  0  0  0  0  3  0  0  0  0  0  0
  -24.9940  -28.9350   19.8200 C   0  0  0  0  0  0  0  0  0  0  0  0
  -26.0440  -30.7090   21.2170 C   0  0  0  0  0  2  0  0  0  0  0  0
  -26.1580  -29.3750   20.4640 C   0  0  0  0  0  0  0  0  0  0  0  0
  -27.3490  -28.5650   20.4080 C   0  0  0  0  0  3  0  0  0  0  0  0
  -26.1870  -26.9370   19.0580 C   0  0  0  0  0  3  0  0  0  0  0  0
  -25.0200  -27.7290   19.1030 C   0  0  0  0  0  3  0  0  0  0  0  0
  -23.7400  -29.7880   19.9290 C   0  0  0  0  0  2  0  0  0  0  0  0
  -24.7550  -30.9230   21.9460 N   0  0  0  0  0  0  0  0  0  0  0  0
  -23.5690  -31.8680   23.6440 O   0  0  0  0  0  0  0  0  0  0  0  0
  -22.8510  -29.2610   22.2340 C   0  0  0  0  0  0  0  0  0  0  0  0
  -21.5310  -29.0560   22.0830 N   0  0  0  0  0  0  0  0  0  0  0  0
  -23.5360  -28.6000   23.0190 O   0  0  0  0  0  0  0  0  0  0  0  0
  -21.0320  -29.6440   21.4290 H   0  0  0  0  0  0  0  0  0  0  0  0
  -18.1660  -27.8090   22.5720 C   0  0  0  0  0  0  0  0  0  0  0  0
  -20.7340  -28.0420   22.7780 C   0  0  0  0  0  3  0  0  0  0  0  0
  -20.8100  -26.6800   22.0510 C   0  0  0  0  0  2  0  0  0  0  0  0
  -19.6730  -26.4650   21.0470 C   0  0  0  0  0  2  0  0  0  0  0  0
  -18.3140  -26.5400   21.7500 C   0  0  0  0  0  2  0  0  0  0  0  0
  -19.3010  -28.5230   23.0420 C   0  0  0  0  0  0  0  0  0  0  0  0
  -19.1060  -29.7130   23.7760 C   0  0  0  0  0  3  0  0  0  0  0  0
  -17.8080  -30.1910   24.0410 C   0  0  0  0  0  3  0  0  0  0  0  0
  -16.6890  -29.4740   23.5850 C   0  0  0  0  0  3  0  0  0  0  0  0
  -16.8680  -28.2840   22.8580 C   0  0  0  0  0  3  0  0  0  0  0  0
  -25.9250  -32.2720   23.7750 C   0  0  0  0  0  3  0  0  0  0  0  0
  -25.5900  -33.6490   24.1700 N   0  0  0  0  0  0  0  0  0  0  0  0
  -25.8400  -34.7390   23.4310 C   0  0  0  0  0  0  0  0  0  0  0  0
  -26.4440  -34.6910   22.3560 O   0  0  0  0  0  0  0  0  0  0  0  0
  -25.0420  -33.7560   25.0110 H   0  0  0  0  0  0  0  0  0  0  0  0
  -24.0110  -36.4630   23.2930 C   0  0  0  0  0  1  0  0  0  0  0  0
  -25.3420  -36.0950   23.9680 C   0  0  0  0  0  3  0  0  0  0  0  0
  -27.4970  -37.0730   24.6240 C   0  0  0  0  0  1  0  0  0  0  0  0
  -26.3120  -37.1940   23.7790 N   0  0  0  0  0  0  0  0  0  0  0  0
  -25.8780  -38.0950   23.9670 H   0  0  0  0  0  0  0  0  0  0  0  0
  -26.4250  -31.4470   25.0250 C   0  0  1  0  0  0  0  0  0  0  0  0
  -25.3120  -31.1330   26.0500 C   0  0  0  0  0  1  0  0  0  0  0  0
  -27.0480  -30.1010   24.5840 C   0  0  0  0  0  1  0  0  0  0  0  0
  -27.5400  -32.2300   25.7570 C   0  0  0  0  0  1  0  0  0  0  0  0
  1 60  1  0
  1  2  1  1
  3  1  1  0
  4  6  2  0
  5  7  2  0
  5  4  1  0
  7  8  1  0
  8  3  1  6
  8 17  1  0
  8  6  1  0
  9 15  1  0
  9 17  1  0
 10 15  1  0
 11 12  1  0
 11 10  1  0
 13 12  1  0
 13 21  1  0
 13 14  1  0
 15 14  1  0
 16  9  2  0
 17 46  1  0
 18 19  2  0
 19 38  1  0
 20 23  1  0
 20 19  1  0
 21 22  1  0
 21 18  1  0
 22 20  2  0
 23 24  1  0
 24 25  2  0
 26 29  1  0
 26 25  1  0
 27 26  2  0
 28 27  1  0
 28 23  2  0
 29 30  1  0
 30 35  2  0
 30 31  1  0
 31 32  2  0
 32 33  1  0
 33 37  1  0
 34 33  2  0
 35 34  1  0
 36 35  1  0
 38 39  1  0
 39 41  1  0
 39 42  1  0
 40 38  2  0
 43 18  1  0
 43 44  1  0
 45 43  1  0
 46 47  1  0
 47 48  1  0
 48 51  1  0
 48 50  1  0
 49 48  1  0
 52  1  1  0
 53 52  1  0
 54 53  1  0
 55 54  1  0
 56 59  1  0
 56 57  1  0
 56 55  1  0
 58 56  1  0
 60 61  1  0
 62 61  2  0
 62 63  1  0
 64 75  2  0
 65 63  1  0
 65 70  1  0
 66 74  1  0
 66 76  1  0
 67 73  1  0
 67 69  1  0
 68 74  1  0
 69 68  1  0
 70 69  2  0
 71 72  1  0
 71 65  2  0
 72 67  2  0
 73 66  1  0
 74 64  1  0
 76 78  2  0
 77 76  1  0
 79 77  1  0
 80 89  2  0
 80 85  1  0
 81 77  1  0
 81 85  1  0
 82 81  1  0
 83 84  1  0
 83 82  1  0
 84 80  1  0
 85 86  2  0
 86 87  1  0
 88 87  2  0
 89 88  1  0
 90 64  1  0
 90 91  1  0
 90100  1  0
 91 94  1  0
 92 96  1  0
 92 91  1  0
 93 92  2  0
 96 95  1  0
 98 99  1  0
 98 96  1  0
 98 97  1  0
100103  1  1
100101  1  0
102100  1  0
M  ISO  4   9 100  17 100  62 101  63 101
M  END
>  <TORSDO>  (83) 
F 29

>  <SCORE>  (83) 
-5.678

>  <name>  (83) 
83

>  <ligand_id>  (83) 
83

>  <original_smiles>  (83) 
[H]c1c([H])c([H])c2c(c1[H])C([H])([H])C([H])([H])C([H])([H])C2([H])N([H])C(=O)C1([H])N(C(=O)C([H])(N([H])C(=O)C([H])(N([H])C([H])([H])[H])C([H])([H])[H])C(C([H])([H])[H])(C([H])([H])[H])C([H])([H])[H])C([H])([H])c2c([H])c(OC([H])([H])C([H])([H])C([H])([H])[N+]([H])(C([H])([H])C([H])([H])C([H])([H])C([H])([H])[N+]([H])([H])[H])C([H])([H])C3(N(C(=O)N4C([H])([H])C([H])([H])C([H])([H])C([H])(n5nc(-c6c([H])c([H])c(Oc7c([H])c([H])c(F)c([H])c7F)c([H])c6[H])c(C(=O)N([H])[H])c5N([H])[H])C4([H])[H])C([H])([H])C([H])([H])[N+]([H])([H])[H])C([H])([H])C([H])([H])C([H])([H])C3([H])[H])c([H])c([H])c2C1([H])[H]

>  <smiles>  (83) 
[H]c1c([H])c([H])c2c(c1[H])C([H])([H])C([H])([H])C([H])([H])C2([H])N([H])C(=O)C1([H])N(C(=O)C([H])(N([H])C(=O)C([H])(N([H])C([H])([H])[H])C([H])([H])[H])C(C([H])([H])[H])(C([H])([H])[H])C([H])([H])[H])C([H])([H])c2c([H])c(OC([H])([H])C([H])([H])C([H])([H])[N+]([H])(C([H])([H])C([H])([H])C([H])([H])C([H])([H])[N+]([H])([H])[H])C([H])([H])C3(N(C(=O)N4C([H])([H])C([H])([H])C([H])([H])C([H])(n5nc(-c6c([H])c([H])c(Oc7c([H])c([H])c(F)c([H])c7F)c([H])c6[H])c(C(=O)N([H])[H])c5N([H])[H])C4([H])[H])C([H])([H])C([H])([H])[N+]([H])([H])[H])C([H])([H])C([H])([H])C([H])([H])C3([H])[H])c([H])c([H])c2C1([H])[H]

$$$$
84:0:0
     RDKit          3D

 98106  0  0  1  0  0  0  0  0999 V2000
  -28.1920  -22.5260   19.4620 C   0  0  0  0  0  2  0  0  0  0  0  0
  -28.5190  -21.3020   20.3540 C   0  0  0  0  0  2  0  0  0  0  0  0
  -28.3300  -19.9720   19.5800 C   0  0  0  0  0  2  0  0  0  0  0  0
  -28.5920  -18.7460   20.3900 N   0  0  0  0  0  4  0  0  0  0  0  0
  -27.9650  -18.7600   21.1730 H   0  0  0  0  0  0  0  0  0  0  0  0
  -29.5330  -18.7770   20.7530 H   0  0  0  0  0  0  0  0  0  0  0  0
  -27.7580  -17.4350   18.3600 C   0  0  0  0  0  1  0  0  0  0  0  0
  -28.4590  -17.3990   19.7370 C   0  0  0  0  0  3  0  0  0  0  0  0
  -30.7460  -14.5100   20.4500 C   0  0  0  0  0  0  0  0  0  0  0  0
  -30.4130  -12.3800   19.2750 C   0  0  0  0  0  2  0  0  0  0  0  0
  -29.4760  -12.6140   18.0790 C   0  0  0  0  0  2  0  0  0  0  0  0
  -28.0140  -12.4630   18.5170 C   0  0  0  0  0  2  0  0  0  0  0  0
  -27.6750  -13.2800   19.7900 C   0  0  0  0  0  3  0  0  0  0  0  0
  -28.7300  -13.0640   20.8960 C   0  0  0  0  0  2  0  0  0  0  0  0
  -30.0460  -13.3540   20.3150 N   0  0  0  0  0  0  0  0  0  0  0  0
  -31.9210  -14.5980   20.0820 O   0  0  0  0  0  0  0  0  0  0  0  0
  -31.5270  -17.5040   21.1810 C   0  0  0  0  0  2  0  0  0  0  0  0
  -31.0540  -17.5590   19.7200 C   0  0  0  0  0  2  0  0  0  0  0  0
  -30.6100  -16.4590   21.8550 C   0  0  0  0  0  2  0  0  0  0  0  0
  -29.8260  -16.6280   19.6750 C   0  0  0  0  0  3  0  0  0  0  0  0
  -30.0440  -15.6410   20.7690 N   0  0  0  0  0  0  0  0  0  0  0  0
  -25.2690  -13.8640   20.4930 C   0  0  0  0  0  0  0  0  0  0  0  0
  -24.2030  -13.0790   20.8470 C   0  0  0  0  0  0  0  0  0  0  0  0
  -24.6800  -11.7360   20.8220 C   0  0  0  0  0  0  0  0  0  0  0  0
  -26.3240  -12.9930   20.2720 N   0  0  0  0  0  0  0  0  0  0  0  0
  -25.9760  -11.7070   20.5300 N   0  0  0  0  0  0  0  0  0  0  0  0
  -23.9640  -10.4650   21.0170 C   0  0  0  0  0  0  0  0  0  0  0  0
  -24.3980   -9.5110   21.9670 C   0  0  0  0  0  3  0  0  0  0  0  0
  -23.6840   -8.3060   22.1440 C   0  0  0  0  0  3  0  0  0  0  0  0
  -22.5230   -8.0470   21.3720 C   0  0  0  0  0  0  0  0  0  0  0  0
  -22.1090   -8.9930   20.4170 C   0  0  0  0  0  3  0  0  0  0  0  0
  -22.8250  -10.1900   20.2390 C   0  0  0  0  0  3  0  0  0  0  0  0
  -21.7830   -6.8950   21.4600 O   0  0  0  0  0  0  0  0  0  0  0  0
  -21.7200   -6.1660   22.6210 C   0  0  0  0  0  0  0  0  0  0  0  0
  -21.2430   -6.7260   23.8260 C   0  0  0  0  0  3  0  0  0  0  0  0
  -21.1210   -5.9210   24.9750 C   0  0  0  0  0  3  0  0  0  0  0  0
  -21.4800   -4.5580   24.9250 C   0  0  0  0  0  0  0  0  0  0  0  0
  -21.9520   -3.9990   23.7240 C   0  0  0  0  0  3  0  0  0  0  0  0
  -22.0700   -4.8000   22.5750 C   0  0  0  0  0  0  0  0  0  0  0  0
  -22.5050   -4.2520   21.4150 F   0  0  0  0  0  0  0  0  0  0  0  0
  -21.3600   -3.7860   26.0270 F   0  0  0  0  0  0  0  0  0  0  0  0
  -22.7990  -13.5450   21.1020 C   0  0  0  0  0  0  0  0  0  0  0  0
  -22.0730  -12.8460   21.9600 N   0  0  0  0  0  0  0  0  0  0  0  0
  -22.3590  -14.5670   20.5750 O   0  0  0  0  0  0  0  0  0  0  0  0
  -22.4600  -12.0310   22.4100 H   0  0  0  0  0  0  0  0  0  0  0  0
  -21.1290  -13.1330   22.1830 H   0  0  0  0  0  0  0  0  0  0  0  0
  -25.4110  -15.2350   20.3310 N   0  0  0  0  0  0  0  0  0  0  0  0
  -24.6230  -15.8690   20.4100 H   0  0  0  0  0  0  0  0  0  0  0  0
  -26.2690  -15.6860   20.0610 H   0  0  0  0  0  0  0  0  0  0  0  0
  -27.8550  -23.8660   20.1670 C   0  0  0  0  0  2  0  0  0  0  0  0
  -28.8310  -24.4890   21.2000 C   0  0  0  0  0  3  0  0  0  0  0  0
  -30.3390  -24.2250   20.9300 C   0  0  0  0  0  2  0  0  0  0  0  0
  -30.9600  -23.3700   21.9670 N   0  0  0  0  0  4  0  0  0  0  0  0
  -31.9520  -23.3220   21.8360 H   0  0  0  0  0  0  0  0  0  0  0  0
  -30.6060  -22.4280   21.9460 H   0  0  0  0  0  0  0  0  0  0  0  0
  -30.8090  -23.7480   22.8840 H   0  0  0  0  0  0  0  0  0  0  0  0
  -28.5300  -26.0110   21.3950 C   0  0  0  0  0  2  0  0  0  0  0  0
  -28.4080  -26.7680   20.1800 O   0  0  0  0  0  0  0  0  0  0  0  0
  -24.5840  -31.9130   23.2330 C   0  0  0  0  0  0  0  0  0  0  0  0
  -27.2610  -27.5250   20.1330 C   0  0  0  0  0  0  0  0  0  0  0  0
  -23.3920  -30.5160   21.5740 C   0  0  0  0  0  3  0  0  0  0  0  0
  -24.8560  -29.0110   20.1300 C   0  0  0  0  0  0  0  0  0  0  0  0
  -25.9090  -30.8990   21.3860 C   0  0  0  0  0  2  0  0  0  0  0  0
  -26.0070  -29.5360   20.7360 C   0  0  0  0  0  0  0  0  0  0  0  0
  -27.2090  -28.7970   20.7420 C   0  0  0  0  0  3  0  0  0  0  0  0
  -26.0990  -27.0160   19.5140 C   0  0  0  0  0  3  0  0  0  0  0  0
  -24.9000  -27.7530   19.5080 C   0  0  0  0  0  3  0  0  0  0  0  0
  -23.6080  -29.8570   20.1850 C   0  0  0  0  0  2  0  0  0  0  0  0
  -24.6460  -31.1250   22.1250 N   0  0  0  0  0  0  0  0  0  0  0  0
  -23.5040  -32.1790   23.7720 O   0  0  0  0  0  0  0  0  0  0  0  0
  -22.7490  -29.4830   22.5240 C   0  0  0  0  0  0  0  0  0  0  0  0
  -21.4280  -29.2980   22.3910 N   0  0  0  0  0  0  0  0  0  0  0  0
  -23.4350  -28.8580   23.3390 O   0  0  0  0  0  0  0  0  0  0  0  0
  -20.9420  -29.8540   21.7030 H   0  0  0  0  0  0  0  0  0  0  0  0
  -18.0550  -28.0790   22.8430 C   0  0  0  0  0  0  0  0  0  0  0  0
  -20.6090  -28.3470   23.1430 C   0  0  0  0  0  3  0  0  0  0  0  0
  -20.7270  -26.9210   22.5570 C   0  0  0  0  0  2  0  0  0  0  0  0
  -19.6330  -26.5970   21.5340 C   0  0  0  0  0  2  0  0  0  0  0  0
  -18.2450  -26.7330   22.1640 C   0  0  0  0  0  2  0  0  0  0  0  0
  -19.1660  -28.8440   23.2880 C   0  0  0  0  0  0  0  0  0  0  0  0
  -18.9330  -30.1040   23.8840 C   0  0  0  0  0  3  0  0  0  0  0  0
  -17.6240  -30.5940   24.0480 C   0  0  0  0  0  3  0  0  0  0  0  0
  -16.5300  -29.8260   23.6170 C   0  0  0  0  0  3  0  0  0  0  0  0
  -16.7440  -28.5720   23.0170 C   0  0  0  0  0  3  0  0  0  0  0  0
  -25.8670  -32.5440   23.8610 C   0  0  0  0  0  3  0  0  0  0  0  0
  -26.3740  -31.7790   25.1470 C   0  0  1  0  0  0  0  0  0  0  0  0
  -25.2730  -31.5460   26.2070 C   0  0  0  0  0  1  0  0  0  0  0  0
  -26.9540  -30.3960   24.7690 C   0  0  0  0  0  1  0  0  0  0  0  0
  -27.5220  -32.5740   25.8160 C   0  0  0  0  0  1  0  0  0  0  0  0
  -25.5610  -33.9480   24.1720 N   0  0  0  0  0  0  0  0  0  0  0  0
  -25.9210  -34.9910   23.4080 C   0  0  0  0  0  0  0  0  0  0  0  0
  -26.6130  -34.8700   22.3960 O   0  0  0  0  0  0  0  0  0  0  0  0
  -24.9560  -34.1140   24.9630 H   0  0  0  0  0  0  0  0  0  0  0  0
  -24.2230  -36.7960   22.9890 C   0  0  0  0  0  1  0  0  0  0  0  0
  -25.4330  -36.3850   23.8430 C   0  0  0  0  0  3  0  0  0  0  0  0
  -27.5480  -37.2540   24.7380 C   0  0  0  0  0  1  0  0  0  0  0  0
  -26.4790  -37.4250   23.7570 N   0  0  0  0  0  0  0  0  0  0  0  0
  -26.0760  -38.3500   23.8840 H   0  0  0  0  0  0  0  0  0  0  0  0
  1 50  1  0
  1  2  1  0
  3  2  1  0
  3  4  1  0
  4  6  1  0
  4  5  1  0
  8  7  1  0
  8  4  1  0
  9 21  1  0
 10 15  1  0
 11 12  1  0
 11 10  1  0
 13 12  1  0
 13 25  1  0
 13 14  1  0
 15  9  1  0
 15 14  1  0
 16  9  2  0
 17 19  1  0
 18 17  1  0
 20 18  1  0
 20  8  1  0
 20 21  1  0
 21 19  1  0
 22 23  2  0
 23 42  1  0
 24 23  1  0
 24 27  1  0
 25 22  1  0
 25 26  1  0
 26 24  2  0
 27 28  1  0
 28 29  2  0
 30 33  1  0
 30 29  1  0
 31 30  2  0
 32 31  1  0
 32 27  2  0
 33 34  1  0
 34 35  1  0
 35 36  2  0
 37 36  1  0
 37 41  1  0
 38 37  2  0
 39 34  2  0
 39 38  1  0
 40 39  1  0
 42 43  1  0
 43 46  1  0
 43 45  1  0
 44 42  2  0
 47 48  1  0
 47 22  1  0
 49 47  1  0
 51 50  1  0
 51 57  1  0
 52 51  1  0
 52 53  1  0
 53 56  1  0
 54 53  1  0
 55 53  1  0
 58 57  1  0
 59 70  2  0
 60 58  1  0
 60 65  1  0
 61 69  1  0
 61 71  1  0
 62 68  1  0
 62 64  1  0
 63 69  1  0
 64 65  2  0
 64 63  1  0
 66 60  2  0
 67 66  1  0
 67 62  2  0
 68 61  1  0
 69 59  1  0
 71 73  2  0
 72 71  1  0
 74 72  1  0
 75 84  2  0
 75 80  1  0
 76 72  1  0
 76 80  1  0
 77 76  1  0
 78 79  1  0
 78 77  1  0
 79 75  1  0
 80 81  2  0
 81 82  1  0
 83 82  2  0
 84 83  1  0
 85 59  1  0
 85 90  1  0
 85 86  1  0
 86 89  1  1
 86 87  1  0
 88 86  1  0
 90 93  1  0
 91 95  1  0
 91 90  1  0
 92 91  2  0
 95 94  1  0
 97 95  1  0
 97 98  1  0
 97 96  1  0
M  ISO  4   9 100  21 100  57 101  58 101
M  END
>  <TORSDO>  (84) 
F 25

>  <SCORE>  (84) 
-12.974

>  <name>  (84) 
84

>  <ligand_id>  (84) 
84

>  <original_smiles>  (84) 
[H]c1c([H])c([H])c2c(c1[H])C([H])([H])C([H])([H])C([H])([H])C2([H])N([H])C(=O)C1([H])N(C(=O)C([H])(N([H])C(=O)C([H])(N([H])C([H])([H])[H])C([H])([H])[H])C(C([H])([H])[H])(C([H])([H])[H])C([H])([H])[H])C([H])([H])c2c([H])c(OC([H])([H])C([H])(C([H])([H])C([H])([H])C([H])([H])C([H])([H])[N+]([H])([H])C([H])(C([H])([H])[H])C3([H])N(C(=O)N4C([H])([H])C([H])([H])C([H])([H])C([H])(n5nc(-c6c([H])c([H])c(Oc7c([H])c([H])c(F)c([H])c7F)c([H])c6[H])c(C(=O)N([H])[H])c5N([H])[H])C4([H])[H])C([H])([H])C([H])([H])C3([H])[H])C([H])([H])[N+]([H])([H])[H])c([H])c([H])c2C1([H])[H]

>  <smiles>  (84) 
[H]c1c([H])c([H])c2c(c1[H])C([H])([H])C([H])([H])C([H])([H])C2([H])N([H])C(=O)C1([H])N(C(=O)C([H])(N([H])C(=O)C([H])(N([H])C([H])([H])[H])C([H])([H])[H])C(C([H])([H])[H])(C([H])([H])[H])C([H])([H])[H])C([H])([H])c2c([H])c(OC([H])([H])C([H])(C([H])([H])C([H])([H])C([H])([H])C([H])([H])[N+]([H])([H])C([H])(C([H])([H])[H])C3([H])N(C(=O)N4C([H])([H])C([H])([H])C([H])([H])C([H])(n5nc(-c6c([H])c([H])c(Oc7c([H])c([H])c(F)c([H])c7F)c([H])c6[H])c(C(=O)N([H])[H])c5N([H])[H])C4([H])[H])C([H])([H])C([H])([H])C3([H])[H])C([H])([H])[N+]([H])([H])[H])c([H])c([H])c2C1([H])[H]

$$$$
85:0:0
     RDKit          3D

104112  0  0  1  0  0  0  0  0999 V2000
  -26.9700  -23.6840   20.3330 C   0  0  0  0  0  0  0  0  0  0  0  0
  -25.3050  -21.3260   18.0960 C   0  0  0  0  0  2  0  0  0  0  0  0
  -26.7500  -21.4280   17.5820 C   0  0  0  0  0  2  0  0  0  0  0  0
  -25.3050  -22.0680   19.4400 C   0  0  0  0  0  2  0  0  0  0  0  0
  -27.6040  -21.6680   18.8420 C   0  0  0  0  0  3  0  0  0  0  0  0
  -26.6880  -22.5410   19.6260 N   0  0  0  0  0  0  0  0  0  0  0  0
  -25.9800  -24.2910   21.0250 N   0  0  0  0  0  0  0  0  0  0  0  0
  -25.0390  -23.9180   21.0480 H   0  0  0  0  0  0  0  0  0  0  0  0
  -26.1460  -25.1270   21.5700 H   0  0  0  0  0  0  0  0  0  0  0  0
  -28.3720  -24.2770   20.3710 C   0  0  0  0  0  3  0  0  0  0  0  0
  -28.5050  -25.6830   21.0520 C   0  0  0  0  0  2  0  0  0  0  0  0
  -28.4470  -26.8360   20.1900 O   0  0  0  0  0  0  0  0  0  0  0  0
  -24.5920  -31.9900   23.2960 C   0  0  0  0  0  0  0  0  0  0  0  0
  -27.2860  -27.5730   20.2240 C   0  0  0  0  0  0  0  0  0  0  0  0
  -23.4140  -30.6020   21.6240 C   0  0  0  0  0  3  0  0  0  0  0  0
  -24.8920  -29.0730   20.2130 C   0  0  0  0  0  0  0  0  0  0  0  0
  -25.9370  -30.9690   21.4570 C   0  0  0  0  0  2  0  0  0  0  0  0
  -26.0390  -29.5950   20.8230 C   0  0  0  0  0  0  0  0  0  0  0  0
  -27.2420  -28.8540   20.8260 C   0  0  0  0  0  3  0  0  0  0  0  0
  -26.1280  -27.0700   19.5980 C   0  0  0  0  0  3  0  0  0  0  0  0
  -24.9290  -27.8080   19.6000 C   0  0  0  0  0  3  0  0  0  0  0  0
  -23.6480  -29.9350   20.2410 C   0  0  0  0  0  2  0  0  0  0  0  0
  -24.6670  -31.2020   22.1860 N   0  0  0  0  0  0  0  0  0  0  0  0
  -23.5020  -32.2550   23.8230 O   0  0  0  0  0  0  0  0  0  0  0  0
  -22.7480  -29.5710   22.5650 C   0  0  0  0  0  0  0  0  0  0  0  0
  -21.4260  -29.3900   22.4170 N   0  0  0  0  0  0  0  0  0  0  0  0
  -23.4220  -28.9370   23.3820 O   0  0  0  0  0  0  0  0  0  0  0  0
  -20.9440  -29.9580   21.7340 H   0  0  0  0  0  0  0  0  0  0  0  0
  -18.0380  -28.2250   22.8880 C   0  0  0  0  0  0  0  0  0  0  0  0
  -20.5990  -28.4430   23.1640 C   0  0  0  0  0  3  0  0  0  0  0  0
  -20.6820  -27.0270   22.5500 C   0  0  0  0  0  2  0  0  0  0  0  0
  -19.5760  -26.7460   21.5270 C   0  0  0  0  0  2  0  0  0  0  0  0
  -18.1980  -26.8920   22.1780 C   0  0  0  0  0  2  0  0  0  0  0  0
  -19.1680  -28.9610   23.3360 C   0  0  0  0  0  0  0  0  0  0  0  0
  -18.9670  -30.2120   23.9590 C   0  0  0  0  0  3  0  0  0  0  0  0
  -17.6710  -30.7290   24.1380 C   0  0  0  0  0  3  0  0  0  0  0  0
  -16.5550  -29.9910   23.7040 C   0  0  0  0  0  3  0  0  0  0  0  0
  -16.7400  -28.7400   23.0880 C   0  0  0  0  0  3  0  0  0  0  0  0
  -25.8680  -32.6180   23.9430 C   0  0  0  0  0  3  0  0  0  0  0  0
  -26.3520  -31.8470   25.2310 C   0  0  1  0  0  0  0  0  0  0  0  0
  -25.2330  -31.5990   26.2690 C   0  0  0  0  0  1  0  0  0  0  0  0
  -26.9500  -30.4760   24.8430 C   0  0  0  0  0  1  0  0  0  0  0  0
  -27.4800  -32.6450   25.9270 C   0  0  0  0  0  1  0  0  0  0  0  0
  -25.5630  -34.0210   24.2560 N   0  0  0  0  0  0  0  0  0  0  0  0
  -25.9070  -35.0620   23.4880 C   0  0  0  0  0  0  0  0  0  0  0  0
  -26.5870  -34.9440   22.4640 O   0  0  0  0  0  0  0  0  0  0  0  0
  -24.9610  -34.1890   25.0490 H   0  0  0  0  0  0  0  0  0  0  0  0
  -24.1850  -36.8520   23.0960 C   0  0  0  0  0  1  0  0  0  0  0  0
  -25.4200  -36.4580   23.9230 C   0  0  0  0  0  3  0  0  0  0  0  0
  -27.5520  -37.3470   24.7550 C   0  0  0  0  0  1  0  0  0  0  0  0
  -26.4560  -37.5080   23.8020 N   0  0  0  0  0  0  0  0  0  0  0  0
  -26.0510  -38.4300   23.9390 H   0  0  0  0  0  0  0  0  0  0  0  0
  -27.9180  -20.3000   19.5690 C   0  0  0  0  0  2  0  0  0  0  0  0
  -29.3650  -19.5370   17.6120 C   0  0  0  0  0  1  0  0  0  0  0  0
  -29.0470  -19.4290   19.0630 N   0  0  2  0  0  4  0  0  0  0  0  0
  -29.8630  -19.8010   19.5260 H   0  0  0  0  0  0  0  0  0  0  0  0
  -28.9430  -17.9900   19.5030 C   0  0  0  0  0  2  0  0  0  0  0  0
  -30.3130  -17.2450   19.6910 C   0  0  0  0  0  3  0  0  0  0  0  0
  -30.9070  -14.7980   19.9500 C   0  0  0  0  0  0  0  0  0  0  0  0
  -30.7750  -12.4050   19.3780 C   0  0  0  0  0  2  0  0  0  0  0  0
  -29.8680  -12.2570   18.1390 C   0  0  0  0  0  2  0  0  0  0  0  0
  -28.3820  -12.1640   18.5420 C   0  0  0  0  0  2  0  0  0  0  0  0
  -27.9630  -13.2500   19.5700 C   0  0  0  0  0  3  0  0  0  0  0  0
  -28.9910  -13.3480   20.7220 C   0  0  0  0  0  2  0  0  0  0  0  0
  -30.3170  -13.5840   20.1260 N   0  0  0  0  0  0  0  0  0  0  0  0
  -32.0240  -14.9310   19.4460 O   0  0  0  0  0  0  0  0  0  0  0  0
  -30.1130  -15.8630   20.1870 N   0  0  0  0  0  0  0  0  0  0  0  0
  -29.2230  -15.6500   20.6130 H   0  0  0  0  0  0  0  0  0  0  0  0
  -25.5970  -13.9470   20.3120 C   0  0  0  0  0  0  0  0  0  0  0  0
  -24.5110  -13.2120   20.7120 C   0  0  0  0  0  0  0  0  0  0  0  0
  -24.9270  -11.8450   20.6800 C   0  0  0  0  0  0  0  0  0  0  0  0
  -26.6080  -13.0270   20.0700 N   0  0  0  0  0  0  0  0  0  0  0  0
  -26.2080  -11.7590   20.3460 N   0  0  0  0  0  0  0  0  0  0  0  0
  -24.1620  -10.6090   20.8880 C   0  0  0  0  0  0  0  0  0  0  0  0
  -24.5570   -9.6470   21.8410 C   0  0  0  0  0  3  0  0  0  0  0  0
  -23.7930   -8.4750   22.0370 C   0  0  0  0  0  3  0  0  0  0  0  0
  -22.6190   -8.2590   21.2790 C   0  0  0  0  0  0  0  0  0  0  0  0
  -22.2400   -9.2090   20.3140 C   0  0  0  0  0  3  0  0  0  0  0  0
  -23.0060  -10.3720   20.1160 C   0  0  0  0  0  3  0  0  0  0  0  0
  -21.8270   -7.1400   21.3830 O   0  0  0  0  0  0  0  0  0  0  0  0
  -21.7190   -6.4440   22.5610 C   0  0  0  0  0  0  0  0  0  0  0  0
  -21.2410   -7.0510   23.7450 C   0  0  0  0  0  3  0  0  0  0  0  0
  -21.0780   -6.2810   24.9130 C   0  0  0  0  0  3  0  0  0  0  0  0
  -21.3800   -4.9050   24.9010 C   0  0  0  0  0  0  0  0  0  0  0  0
  -21.8510   -4.2990   23.7220 C   0  0  0  0  0  3  0  0  0  0  0  0
  -22.0160   -5.0670   22.5560 C   0  0  0  0  0  0  0  0  0  0  0  0
  -22.4480   -4.4730   21.4180 F   0  0  0  0  0  0  0  0  0  0  0  0
  -21.2150   -4.1640   26.0210 F   0  0  0  0  0  0  0  0  0  0  0  0
  -23.1380  -13.7380   21.0060 C   0  0  0  0  0  0  0  0  0  0  0  0
  -22.4100  -13.0860   21.9070 N   0  0  0  0  0  0  0  0  0  0  0  0
  -22.7180  -14.7650   20.4730 O   0  0  0  0  0  0  0  0  0  0  0  0
  -22.7610  -12.2590   22.3640 H   0  0  0  0  0  0  0  0  0  0  0  0
  -21.4860  -13.4200   22.1430 H   0  0  0  0  0  0  0  0  0  0  0  0
  -25.7980  -15.3090   20.1150 N   0  0  0  0  0  0  0  0  0  0  0  0
  -25.0270  -15.9630   20.1830 H   0  0  0  0  0  0  0  0  0  0  0  0
  -26.6040  -15.6990   19.6480 H   0  0  0  0  0  0  0  0  0  0  0  0
  -31.2230  -18.0290   20.6660 C   0  0  0  0  0  2  0  0  0  0  0  0
  -32.7200  -18.0680   20.3040 C   0  0  0  0  0  2  0  0  0  0  0  0
  -33.4280  -19.2450   21.0020 C   0  0  0  0  0  2  0  0  0  0  0  0
  -34.8230  -19.5710   20.4400 C   0  0  0  0  0  2  0  0  0  0  0  0
  -35.4100  -20.7570   21.0910 N   0  0  0  0  0  4  0  0  0  0  0  0
  -34.8290  -21.5640   20.9500 H   0  0  0  0  0  0  0  0  0  0  0  0
  -36.3150  -20.9570   20.7020 H   0  0  0  0  0  0  0  0  0  0  0  0
  -35.5210  -20.6120   22.0770 H   0  0  0  0  0  0  0  0  0  0  0  0
  1 10  2  0
  1  7  1  0
  2  4  1  0
  3  2  1  0
  3  5  1  0
  4  6  1  0
  5 53  1  0
  5  6  1  0
  6  1  1  0
  7  8  1  0
  7  9  1  0
 10 11  1  0
 12 14  1  0
 12 11  1  0
 13 24  2  0
 14 19  1  0
 15 23  1  0
 15 25  1  0
 16 22  1  0
 16 18  1  0
 17 23  1  0
 18 19  2  0
 18 17  1  0
 20 21  1  0
 20 14  2  0
 21 16  2  0
 22 15  1  0
 23 13  1  0
 25 27  2  0
 26 25  1  0
 28 26  1  0
 29 38  2  0
 29 34  1  0
 30 26  1  0
 30 34  1  0
 31 30  1  0
 32 33  1  0
 32 31  1  0
 33 29  1  0
 34 35  2  0
 35 36  1  0
 37 36  2  0
 38 37  1  0
 39 13  1  0
 39 44  1  0
 39 40  1  0
 40 43  1  1
 40 41  1  0
 42 40  1  0
 44 47  1  0
 45 49  1  0
 45 44  1  0
 46 45  2  0
 49 48  1  0
 51 49  1  0
 51 52  1  0
 51 50  1  0
 54 55  1  0
 55 57  1  0
 55 56  1  1
 55 53  1  0
 58 57  1  0
 58 67  1  0
 58 97  1  0
 59 65  1  0
 59 67  1  0
 60 65  1  0
 61 62  1  0
 61 60  1  0
 63 62  1  0
 63 72  1  0
 63 64  1  0
 65 64  1  0
 66 59  2  0
 67 68  1  0
 69 70  2  0
 70 89  1  0
 71 70  1  0
 71 74  1  0
 72 69  1  0
 72 73  1  0
 73 71  2  0
 74 75  1  0
 75 76  2  0
 77 80  1  0
 77 76  1  0
 78 77  2  0
 79 78  1  0
 79 74  2  0
 80 81  1  0
 81 82  1  0
 82 83  2  0
 84 83  1  0
 84 88  1  0
 85 84  2  0
 86 81  2  0
 86 85  1  0
 87 86  1  0
 89 90  1  0
 90 93  1  0
 90 92  1  0
 91 89  2  0
 94 95  1  0
 94 69  1  0
 96 94  1  0
 98 97  1  0
 98 99  1  0
100 99  1  0
100101  1  0
101104  1  0
102101  1  0
103101  1  0
M  ISO  4  11 101  12 101  59 100  67 100
M  END
>  <TORSDO>  (85) 
F 27

>  <SCORE>  (85) 
-11.774

>  <name>  (85) 
85

>  <ligand_id>  (85) 
85

>  <original_smiles>  (85) 
[H]c1c([H])c([H])c2c(c1[H])C([H])([H])C([H])([H])C([H])([H])C2([H])N([H])C(=O)C1([H])N(C(=O)C([H])(N([H])C(=O)C([H])(N([H])C([H])([H])[H])C([H])([H])[H])C(C([H])([H])[H])(C([H])([H])[H])C([H])([H])[H])C([H])([H])c2c([H])c(OC([H])([H])C([H])([H])C(N3C([H])([H])C([H])([H])C([H])([H])C3([H])C([H])([H])[N+]([H])(C([H])([H])[H])C([H])([H])C([H])(N([H])C(=O)N3C([H])([H])C([H])([H])C([H])([H])C([H])(n4nc(-c5c([H])c([H])c(Oc6c([H])c([H])c(F)c([H])c6F)c([H])c5[H])c(C(=O)N([H])[H])c4N([H])[H])C3([H])[H])C([H])([H])C([H])([H])C([H])([H])C([H])([H])[N+]([H])([H])[H])=[N+]([H])[H])c([H])c([H])c2C1([H])[H]

>  <smiles>  (85) 
[H]c1c([H])c([H])c2c(c1[H])C([H])([H])C([H])([H])C([H])([H])C2([H])N([H])C(=O)C1([H])N(C(=O)C([H])(N([H])C(=O)C([H])(N([H])C([H])([H])[H])C([H])([H])[H])C(C([H])([H])[H])(C([H])([H])[H])C([H])([H])[H])C([H])([H])c2c([H])c(OC([H])([H])C([H])([H])C(N3C([H])([H])C([H])([H])C([H])([H])C3([H])C([H])([H])[N+]([H])(C([H])([H])[H])C([H])([H])C([H])(N([H])C(=O)N3C([H])([H])C([H])([H])C([H])([H])C([H])(n4nc(-c5c([H])c([H])c(Oc6c([H])c([H])c(F)c([H])c6F)c([H])c5[H])c(C(=O)N([H])[H])c4N([H])[H])C3([H])[H])C([H])([H])C([H])([H])C([H])([H])C([H])([H])[N+]([H])([H])[H])=[N+]([H])[H])c([H])c([H])c2C1([H])[H]

$$$$
86:0:0
     RDKit          3D

103111  0  0  1  0  0  0  0  0999 V2000
  -27.4240  -20.0570   19.4810 C   0  0  0  0  0  2  0  0  0  0  0  0
  -27.4900  -21.5250   19.9090 C   0  0  0  0  0  2  0  0  0  0  0  0
  -28.6790  -19.6950   18.6690 C   0  0  0  0  0  2  0  0  0  0  0  0
  -30.0690  -21.1960   20.0330 C   0  0  0  0  0  2  0  0  0  0  0  0
  -28.7840  -21.8190   20.6960 C   0  0  0  0  0  3  0  0  0  0  0  0
  -29.9260  -19.7890   19.4890 N   0  0  1  0  0  4  0  0  0  0  0  0
  -30.6630  -19.7780   18.8000 H   0  0  0  0  0  0  0  0  0  0  0  0
  -29.9000  -23.5400   22.0190 C   0  0  0  0  0  1  0  0  0  0  0  0
  -28.8360  -23.2660   21.0530 N   0  0  0  0  0  0  0  0  0  0  0  0
  -28.7920  -24.3360   20.0210 C   0  0  0  0  0  2  0  0  0  0  0  0
  -28.0910  -25.6260   20.5720 C   0  0  0  0  0  2  0  0  0  0  0  0
  -28.1010  -26.7840   19.7060 O   0  0  0  0  0  0  0  0  0  0  0  0
  -24.5050  -31.9230   23.1560 C   0  0  0  0  0  0  0  0  0  0  0  0
  -26.9640  -27.5670   19.7910 C   0  0  0  0  0  0  0  0  0  0  0  0
  -23.2120  -30.5840   21.5310 C   0  0  0  0  0  3  0  0  0  0  0  0
  -24.5850  -29.0930   19.9760 C   0  0  0  0  0  0  0  0  0  0  0  0
  -25.7290  -30.9380   21.2160 C   0  0  0  0  0  2  0  0  0  0  0  0
  -25.7770  -29.5910   20.5170 C   0  0  0  0  0  0  0  0  0  0  0  0
  -26.9750  -28.8400   20.4130 C   0  0  0  0  0  3  0  0  0  0  0  0
  -25.7550  -27.0900   19.2430 C   0  0  0  0  0  3  0  0  0  0  0  0
  -24.5700  -27.8440   19.3340 C   0  0  0  0  0  3  0  0  0  0  0  0
  -23.3470  -29.9510   20.1210 C   0  0  0  0  0  2  0  0  0  0  0  0
  -24.5030  -31.1620   22.0250 N   0  0  0  0  0  0  0  0  0  0  0  0
  -23.4530  -32.1790   23.7590 O   0  0  0  0  0  0  0  0  0  0  0  0
  -22.6020  -29.5340   22.4870 C   0  0  0  0  0  0  0  0  0  0  0  0
  -21.2790  -29.3200   22.3790 N   0  0  0  0  0  0  0  0  0  0  0  0
  -23.3140  -28.9140   23.2810 O   0  0  0  0  0  0  0  0  0  0  0  0
  -20.7660  -29.8730   21.7080 H   0  0  0  0  0  0  0  0  0  0  0  0
  -17.9590  -27.9740   22.8550 C   0  0  0  0  0  0  0  0  0  0  0  0
  -20.5000  -28.3510   23.1470 C   0  0  0  0  0  3  0  0  0  0  0  0
  -20.6720  -26.9240   22.5780 C   0  0  0  0  0  2  0  0  0  0  0  0
  -19.5950  -26.5460   21.5570 C   0  0  0  0  0  2  0  0  0  0  0  0
  -18.2020  -26.6320   22.1880 C   0  0  0  0  0  2  0  0  0  0  0  0
  -19.0380  -28.7890   23.2910 C   0  0  0  0  0  0  0  0  0  0  0  0
  -18.7560  -30.0450   23.8720 C   0  0  0  0  0  3  0  0  0  0  0  0
  -17.4290  -30.4870   24.0240 C   0  0  0  0  0  3  0  0  0  0  0  0
  -16.3630  -29.6690   23.6080 C   0  0  0  0  0  3  0  0  0  0  0  0
  -16.6300  -28.4150   23.0290 C   0  0  0  0  0  3  0  0  0  0  0  0
  -25.8220  -32.5280   23.7330 C   0  0  0  0  0  3  0  0  0  0  0  0
  -26.3880  -31.7270   24.9680 C   0  0  1  0  0  0  0  0  0  0  0  0
  -25.3450  -31.4740   26.0820 C   0  0  0  0  0  1  0  0  0  0  0  0
  -26.9400  -30.3530   24.5200 C   0  0  0  0  0  1  0  0  0  0  0  0
  -27.5770  -32.4970   25.5910 C   0  0  0  0  0  1  0  0  0  0  0  0
  -25.5460  -33.9230   24.1030 N   0  0  0  0  0  0  0  0  0  0  0  0
  -25.8790  -34.9880   23.3620 C   0  0  0  0  0  0  0  0  0  0  0  0
  -26.5240  -34.8980   22.3130 O   0  0  0  0  0  0  0  0  0  0  0  0
  -24.9720  -34.0680   24.9220 H   0  0  0  0  0  0  0  0  0  0  0  0
  -24.1790  -36.8210   23.0830 C   0  0  0  0  0  1  0  0  0  0  0  0
  -25.4250  -36.3730   23.8640 C   0  0  0  0  0  3  0  0  0  0  0  0
  -27.5880  -37.1950   24.6820 C   0  0  0  0  0  1  0  0  0  0  0  0
  -26.4750  -37.4100   23.7600 N   0  0  0  0  0  0  0  0  0  0  0  0
  -26.0900  -38.3310   23.9420 H   0  0  0  0  0  0  0  0  0  0  0  0
  -30.2110  -18.5700   20.3790 C   0  0  0  0  0  3  0  0  0  0  0  0
  -31.3280  -18.7580   21.4590 C   0  0  0  0  0  2  0  0  0  0  0  0
  -32.7610  -19.1220   20.9890 C   0  0  0  0  0  2  0  0  0  0  0  0
  -33.6620  -19.4500   22.1130 N   0  0  0  0  0  4  0  0  0  0  0  0
  -33.3280  -20.2320   22.6480 H   0  0  0  0  0  0  0  0  0  0  0  0
  -34.5720  -19.6940   21.7640 H   0  0  0  0  0  0  0  0  0  0  0  0
  -33.7780  -18.6650   22.7290 H   0  0  0  0  0  0  0  0  0  0  0  0
  -30.3220  -17.1770   19.5960 C   0  0  0  0  0  0  0  0  0  0  0  0
  -31.0520  -14.8490   20.4970 C   0  0  0  0  0  0  0  0  0  0  0  0
  -30.8290  -12.5700   19.5960 C   0  0  0  0  0  2  0  0  0  0  0  0
  -29.9540  -12.6390   18.3240 C   0  0  0  0  0  2  0  0  0  0  0  0
  -28.4570  -12.5560   18.6780 C   0  0  0  0  0  2  0  0  0  0  0  0
  -28.0500  -13.4890   19.8500 C   0  0  0  0  0  3  0  0  0  0  0  0
  -29.0520  -13.3970   21.0270 C   0  0  0  0  0  2  0  0  0  0  0  0
  -30.4020  -13.6520   20.4970 N   0  0  0  0  0  0  0  0  0  0  0  0
  -32.2350  -14.9660   20.1830 O   0  0  0  0  0  0  0  0  0  0  0  0
  -30.2350  -15.9290   20.4320 N   0  0  0  0  0  4  0  0  0  0  0  0
  -29.3130  -15.7420   20.7980 H   0  0  0  0  0  0  0  0  0  0  0  0
  -25.6350  -14.1430   20.4500 C   0  0  0  0  0  0  0  0  0  0  0  0
  -24.5400  -13.3880   20.7770 C   0  0  0  0  0  0  0  0  0  0  0  0
  -24.9840  -12.0310   20.7830 C   0  0  0  0  0  0  0  0  0  0  0  0
  -26.6750  -13.2430   20.2770 N   0  0  0  0  0  0  0  0  0  0  0  0
  -26.2860  -11.9700   20.5400 N   0  0  0  0  0  0  0  0  0  0  0  0
  -24.2320  -10.7800   20.9500 C   0  0  0  0  0  0  0  0  0  0  0  0
  -24.6060   -9.8160   21.9130 C   0  0  0  0  0  3  0  0  0  0  0  0
  -23.8560   -8.6310   22.0670 C   0  0  0  0  0  3  0  0  0  0  0  0
  -22.7190   -8.4000   21.2570 C   0  0  0  0  0  0  0  0  0  0  0  0
  -22.3660   -9.3500   20.2820 C   0  0  0  0  0  3  0  0  0  0  0  0
  -23.1170  -10.5270   20.1270 C   0  0  0  0  0  3  0  0  0  0  0  0
  -21.9450   -7.2660   21.3180 O   0  0  0  0  0  0  0  0  0  0  0  0
  -21.7920   -6.5620   22.4860 C   0  0  0  0  0  0  0  0  0  0  0  0
  -21.2910   -7.1670   23.6590 C   0  0  0  0  0  3  0  0  0  0  0  0
  -21.0850   -6.3910   24.8170 C   0  0  0  0  0  3  0  0  0  0  0  0
  -21.3690   -5.0120   24.8010 C   0  0  0  0  0  0  0  0  0  0  0  0
  -21.8630   -4.4080   23.6310 C   0  0  0  0  0  3  0  0  0  0  0  0
  -22.0710   -5.1800   22.4770 C   0  0  0  0  0  0  0  0  0  0  0  0
  -22.5270   -4.5900   21.3450 F   0  0  0  0  0  0  0  0  0  0  0  0
  -21.1620   -4.2640   25.9100 F   0  0  0  0  0  0  0  0  0  0  0  0
  -23.1380  -13.8860   20.9760 C   0  0  0  0  0  0  0  0  0  0  0  0
  -22.3720  -13.2230   21.8350 N   0  0  0  0  0  0  0  0  0  0  0  0
  -22.7310  -14.8970   20.4070 O   0  0  0  0  0  0  0  0  0  0  0  0
  -22.7190  -12.4060   22.3150 H   0  0  0  0  0  0  0  0  0  0  0  0
  -21.4280  -13.5360   22.0140 H   0  0  0  0  0  0  0  0  0  0  0  0
  -25.8300  -15.5090   20.2640 N   0  0  0  0  0  0  0  0  0  0  0  0
  -25.0650  -16.1720   20.3290 H   0  0  0  0  0  0  0  0  0  0  0  0
  -26.6860  -15.9260   19.9320 H   0  0  0  0  0  0  0  0  0  0  0  0
  -31.3920  -17.1500   18.4460 C   0  0  0  0  0  2  0  0  0  0  0  0
  -31.3020  -15.9870   17.5400 N   0  0  0  0  0  4  0  0  0  0  0  0
  -31.5580  -15.1390   18.0130 H   0  0  0  0  0  0  0  0  0  0  0  0
  -31.9550  -16.1020   16.7810 H   0  0  0  0  0  0  0  0  0  0  0  0
  -30.3860  -15.8950   17.1330 H   0  0  0  0  0  0  0  0  0  0  0  0
  1  2  1  0
  2  5  1  0
  3  1  1  0
  3  6  1  0
  4  5  1  0
  5  9  1  0
  6  4  1  0
  6 53  1  0
  6  7  1  6
  9  8  1  0
 10 11  1  0
 10  9  1  0
 12 14  1  0
 12 11  1  0
 13 24  2  0
 14 19  1  0
 15 23  1  0
 15 25  1  0
 16 22  1  0
 16 18  1  0
 17 23  1  0
 18 17  1  0
 19 18  2  0
 20 21  1  0
 20 14  2  0
 21 16  2  0
 22 15  1  0
 23 13  1  0
 25 27  2  0
 26 25  1  0
 28 26  1  0
 29 38  2  0
 29 34  1  0
 30 26  1  0
 30 34  1  0
 31 30  1  0
 32 33  1  0
 32 31  1  0
 33 29  1  0
 34 35  2  0
 35 36  1  0
 37 36  2  0
 38 37  1  0
 39 13  1  0
 39 44  1  0
 39 40  1  0
 40 43  1  1
 40 41  1  0
 42 40  1  0
 44 47  1  0
 45 49  1  0
 45 44  1  0
 46 45  2  0
 49 48  1  0
 51 49  1  0
 51 52  1  0
 51 50  1  0
 53 54  1  0
 55 54  1  0
 55 56  1  0
 56 57  1  0
 56 59  1  0
 58 56  1  0
 60 53  1  0
 60 69  2  0
 62 67  1  0
 63 64  1  0
 63 62  1  0
 65 64  1  0
 65 74  1  0
 65 66  1  0
 67 61  1  0
 67 66  1  0
 68 61  2  0
 69 61  1  0
 69 70  1  0
 71 72  2  0
 72 73  1  0
 72 91  1  0
 73 76  1  0
 74 71  1  0
 74 75  1  0
 75 73  2  0
 76 77  1  0
 77 78  2  0
 79 82  1  0
 79 78  1  0
 80 79  2  0
 81 80  1  0
 81 76  2  0
 82 83  1  0
 83 84  1  0
 84 85  2  0
 86 85  1  0
 86 90  1  0
 87 86  2  0
 88 83  2  0
 88 87  1  0
 89 88  1  0
 91 92  1  0
 92 95  1  0
 92 94  1  0
 93 91  2  0
 96 97  1  0
 96 71  1  0
 98 96  1  0
 99 60  1  0
100101  1  0
100 99  1  0
102100  1  0
103100  1  0
M  ISO  4  11 101  12 101  61 100  69 100
M  END
>  <TORSDO>  (86) 
F 26

>  <SCORE>  (86) 
-11.980

>  <name>  (86) 
86

>  <ligand_id>  (86) 
86

>  <original_smiles>  (86) 
[H]c1c([H])c([H])c2c(c1[H])C([H])([H])C([H])([H])C([H])([H])C2([H])N([H])C(=O)C1([H])N(C(=O)C([H])(N([H])C(=O)C([H])(N([H])C([H])([H])[H])C([H])([H])[H])C(C([H])([H])[H])(C([H])([H])[H])C([H])([H])[H])C([H])([H])c2c([H])c(OC([H])([H])C([H])([H])N(C([H])([H])[H])C3([H])C([H])([H])C([H])([H])C([H])([H])[N+]([H])(C([H])(C([H])([H])C([H])([H])[N+]([H])([H])[H])C([H])(N([H])C(=O)N4C([H])([H])C([H])([H])C([H])([H])C([H])(n5nc(-c6c([H])c([H])c(Oc7c([H])c([H])c(F)c([H])c7F)c([H])c6[H])c(C(=O)N([H])[H])c5N([H])[H])C4([H])[H])C([H])([H])[N+]([H])([H])[H])C3([H])[H])c([H])c([H])c2C1([H])[H]

>  <smiles>  (86) 
[H]c1c([H])c([H])c2c(c1[H])C([H])([H])C([H])([H])C([H])([H])C2([H])N([H])C(=O)C1([H])N(C(=O)C([H])(N([H])C(=O)C([H])(N([H])C([H])([H])[H])C([H])([H])[H])C(C([H])([H])[H])(C([H])([H])[H])C([H])([H])[H])C([H])([H])c2c([H])c(OC([H])([H])C([H])([H])N(C([H])([H])[H])C3([H])C([H])([H])C([H])([H])C([H])([H])[N+]([H])(C([H])(C([H])([H])C([H])([H])[N+]([H])([H])[H])C([H])(N([H])C(=O)N4C([H])([H])C([H])([H])C([H])([H])C([H])(n5nc(-c6c([H])c([H])c(Oc7c([H])c([H])c(F)c([H])c7F)c([H])c6[H])c(C(=O)N([H])[H])c5N([H])[H])C4([H])[H])C([H])([H])[N+]([H])([H])[H])C3([H])[H])c([H])c([H])c2C1([H])[H]

$$$$
87:0:0
     RDKit          3D

101109  0  0  1  0  0  0  0  0999 V2000
  -32.2690  -21.0670   21.2070 C   0  0  0  0  0  3  0  0  0  0  0  0
  -30.6310  -22.9100   21.1030 C   0  0  0  0  0  2  0  0  0  0  0  0
  -31.9900  -22.4380   19.1800 C   0  0  0  0  0  2  0  0  0  0  0  0
  -30.3960  -24.3540   20.6100 C   0  0  0  0  0  2  0  0  0  0  0  0
  -31.7860  -23.8660   18.6520 C   0  0  0  0  0  2  0  0  0  0  0  0
  -31.9190  -22.3790   20.6420 N   0  0  0  0  0  0  0  0  0  0  0  0
  -30.4940  -24.4260   19.1250 N   0  0  2  0  0  4  0  0  0  0  0  0
  -29.7810  -23.8110   18.7650 H   0  0  0  0  0  0  0  0  0  0  0  0
  -30.2400  -25.7770   18.5590 C   0  0  0  0  0  2  0  0  0  0  0  0
  -28.7680  -26.2090   18.6650 C   0  0  0  0  0  2  0  0  0  0  0  0
  -28.5320  -26.8740   19.9130 O   0  0  0  0  0  0  0  0  0  0  0  0
  -24.6760  -31.8960   23.2110 C   0  0  0  0  0  0  0  0  0  0  0  0
  -27.3320  -27.5460   20.0040 C   0  0  0  0  0  0  0  0  0  0  0  0
  -23.4710  -30.5250   21.5460 C   0  0  0  0  0  3  0  0  0  0  0  0
  -24.9230  -29.0190   20.0970 C   0  0  0  0  0  0  0  0  0  0  0  0
  -25.9960  -30.8940   21.3500 C   0  0  0  0  0  2  0  0  0  0  0  0
  -26.0820  -29.5350   20.6900 C   0  0  0  0  0  0  0  0  0  0  0  0
  -27.2880  -28.8000   20.6540 C   0  0  0  0  0  3  0  0  0  0  0  0
  -26.1440  -27.0250   19.4440 C   0  0  0  0  0  3  0  0  0  0  0  0
  -24.9440  -27.7590   19.4810 C   0  0  0  0  0  3  0  0  0  0  0  0
  -23.6810  -29.8770   20.1530 C   0  0  0  0  0  2  0  0  0  0  0  0
  -24.7340  -31.1180   22.0960 N   0  0  0  0  0  0  0  0  0  0  0  0
  -23.5930  -32.1540   23.7550 O   0  0  0  0  0  0  0  0  0  0  0  0
  -22.8260  -29.4810   22.4810 C   0  0  0  0  0  0  0  0  0  0  0  0
  -21.4990  -29.3100   22.3630 N   0  0  0  0  0  0  0  0  0  0  0  0
  -23.5140  -28.8240   23.2670 O   0  0  0  0  0  0  0  0  0  0  0  0
  -21.0060  -29.8890   21.6980 H   0  0  0  0  0  0  0  0  0  0  0  0
  -18.1160  -28.1530   22.8860 C   0  0  0  0  0  0  0  0  0  0  0  0
  -20.6830  -28.3620   23.1190 C   0  0  0  0  0  3  0  0  0  0  0  0
  -20.7530  -26.9490   22.4960 C   0  0  0  0  0  2  0  0  0  0  0  0
  -19.6300  -26.6750   21.4920 C   0  0  0  0  0  2  0  0  0  0  0  0
  -18.2610  -26.8220   22.1650 C   0  0  0  0  0  2  0  0  0  0  0  0
  -19.2550  -28.8830   23.3200 C   0  0  0  0  0  0  0  0  0  0  0  0
  -19.0670  -30.1300   23.9540 C   0  0  0  0  0  3  0  0  0  0  0  0
  -17.7750  -30.6480   24.1600 C   0  0  0  0  0  3  0  0  0  0  0  0
  -16.6510  -29.9140   23.7410 C   0  0  0  0  0  3  0  0  0  0  0  0
  -16.8230  -28.6690   23.1120 C   0  0  0  0  0  3  0  0  0  0  0  0
  -25.9590  -32.5210   23.8420 C   0  0  0  0  0  3  0  0  0  0  0  0
  -26.4600  -31.7480   25.1220 C   0  0  1  0  0  0  0  0  0  0  0  0
  -25.3550  -31.5200   26.1800 C   0  0  0  0  0  1  0  0  0  0  0  0
  -27.0390  -30.3690   24.7310 C   0  0  0  0  0  1  0  0  0  0  0  0
  -27.6100  -32.5360   25.7930 C   0  0  0  0  0  1  0  0  0  0  0  0
  -25.6560  -33.9200   24.1610 N   0  0  0  0  0  0  0  0  0  0  0  0
  -26.0040  -34.9680   23.4010 C   0  0  0  0  0  0  0  0  0  0  0  0
  -26.6860  -34.8550   22.3790 O   0  0  0  0  0  0  0  0  0  0  0  0
  -25.0500  -34.0820   24.9520 H   0  0  0  0  0  0  0  0  0  0  0  0
  -24.2940  -36.7730   23.0150 C   0  0  0  0  0  1  0  0  0  0  0  0
  -25.5210  -36.3620   23.8450 C   0  0  0  0  0  3  0  0  0  0  0  0
  -27.6510  -37.2360   24.7010 C   0  0  0  0  0  1  0  0  0  0  0  0
  -26.5610  -37.4080   23.7420 N   0  0  0  0  0  0  0  0  0  0  0  0
  -26.1590  -38.3300   23.8840 H   0  0  0  0  0  0  0  0  0  0  0  0
  -34.6820  -21.8520   21.6310 C   0  0  0  0  0  1  0  0  0  0  0  0
  -33.7720  -20.7430   21.0860 C   0  0  0  0  0  2  0  0  0  0  0  0
  -31.4400  -19.8730   20.6580 C   0  0  0  0  0  2  0  0  0  0  0  0
  -31.1530  -18.8410   21.6570 N   0  0  0  0  0  0  0  0  0  0  0  0
  -30.6980  -17.5970   21.0270 C   0  0  0  0  0  2  0  0  0  0  0  0
  -31.0790  -16.3440   21.8400 C   0  0  0  0  0  2  0  0  0  0  0  0
  -30.8190  -14.4270   20.2720 C   0  0  0  0  0  0  0  0  0  0  0  0
  -30.4000  -12.3820   18.9630 C   0  0  0  0  0  2  0  0  0  0  0  0
  -29.4040  -12.6480   17.8230 C   0  0  0  0  0  2  0  0  0  0  0  0
  -27.9520  -12.4910   18.3190 C   0  0  0  0  0  2  0  0  0  0  0  0
  -27.6810  -13.2930   19.6190 C   0  0  0  0  0  3  0  0  0  0  0  0
  -28.7750  -13.0050   20.6680 C   0  0  0  0  0  2  0  0  0  0  0  0
  -30.0920  -13.3020   20.0660 N   0  0  0  0  0  0  0  0  0  0  0  0
  -31.7840  -14.7610   19.5810 O   0  0  0  0  0  0  0  0  0  0  0  0
  -30.4380  -15.1400   21.3360 N   0  0  0  0  0  0  0  0  0  0  0  0
  -29.6700  -14.7660   21.8720 H   0  0  0  0  0  0  0  0  0  0  0  0
  -25.3270  -13.8970   20.4800 C   0  0  0  0  0  0  0  0  0  0  0  0
  -24.2690  -13.1180   20.8680 C   0  0  0  0  0  0  0  0  0  0  0  0
  -24.7100  -11.7650   20.7510 C   0  0  0  0  0  0  0  0  0  0  0  0
  -26.3470  -13.0160   20.1510 N   0  0  0  0  0  0  0  0  0  0  0  0
  -25.9800  -11.7280   20.3700 N   0  0  0  0  0  0  0  0  0  0  0  0
  -23.9810  -10.5020   20.9240 C   0  0  0  0  0  0  0  0  0  0  0  0
  -24.4320   -9.5040   21.8160 C   0  0  0  0  0  3  0  0  0  0  0  0
  -23.7060   -8.3050   21.9760 C   0  0  0  0  0  3  0  0  0  0  0  0
  -22.5130   -8.0940   21.2440 C   0  0  0  0  0  0  0  0  0  0  0  0
  -22.0810   -9.0810   20.3420 C   0  0  0  0  0  3  0  0  0  0  0  0
  -22.8070  -10.2730   20.1790 C   0  0  0  0  0  3  0  0  0  0  0  0
  -21.7550   -6.9510   21.3180 O   0  0  0  0  0  0  0  0  0  0  0  0
  -21.7070   -6.1890   22.4580 C   0  0  0  0  0  0  0  0  0  0  0  0
  -21.2770   -6.7230   23.6920 C   0  0  0  0  0  3  0  0  0  0  0  0
  -21.1760   -5.8910   24.8240 C   0  0  0  0  0  3  0  0  0  0  0  0
  -21.4940   -4.5220   24.7230 C   0  0  0  0  0  0  0  0  0  0  0  0
  -21.9140   -3.9860   23.4930 C   0  0  0  0  0  3  0  0  0  0  0  0
  -22.0190   -4.8180   22.3640 C   0  0  0  0  0  0  0  0  0  0  0  0
  -22.4060   -4.2920   21.1770 F   0  0  0  0  0  0  0  0  0  0  0  0
  -21.3890   -3.7200   25.8070 F   0  0  0  0  0  0  0  0  0  0  0  0
  -22.8950  -13.5960   21.2390 C   0  0  0  0  0  0  0  0  0  0  0  0
  -22.2040  -12.8670   22.1090 N   0  0  0  0  0  0  0  0  0  0  0  0
  -22.4420  -14.6490   20.7910 O   0  0  0  0  0  0  0  0  0  0  0  0
  -22.5790  -12.0120   22.4950 H   0  0  0  0  0  0  0  0  0  0  0  0
  -21.2830  -13.1670   22.3940 H   0  0  0  0  0  0  0  0  0  0  0  0
  -25.5060  -15.2730   20.3550 N   0  0  0  0  0  0  0  0  0  0  0  0
  -24.7660  -15.9420   20.5310 H   0  0  0  0  0  0  0  0  0  0  0  0
  -26.3540  -15.7020   20.0050 H   0  0  0  0  0  0  0  0  0  0  0  0
  -30.2100  -19.3110   22.6840 C   0  0  0  0  0  2  0  0  0  0  0  0
  -30.8620  -19.5210   24.0670 C   0  0  0  0  0  2  0  0  0  0  0  0
  -30.2190  -20.6030   24.8330 N   0  0  0  0  0  4  0  0  0  0  0  0
  -30.2490  -21.4720   24.3320 H   0  0  0  0  0  0  0  0  0  0  0  0
  -30.7000  -20.7350   25.7050 H   0  0  0  0  0  0  0  0  0  0  0  0
  -29.2610  -20.3800   25.0320 H   0  0  0  0  0  0  0  0  0  0  0  0
  1 54  1  0
  3  6  1  0
  4  2  1  0
  5  7  1  0
  5  3  1  0
  6  2  1  0
  6  1  1  0
  7  4  1  0
  7  8  1  6
  9 10  1  0
  9  7  1  0
 10 11  1  0
 11 13  1  0
 12 23  2  0
 13 18  1  0
 14 22  1  0
 14 24  1  0
 15 21  1  0
 15 17  1  0
 16 22  1  0
 17 16  1  0
 18 17  2  0
 19 20  1  0
 19 13  2  0
 20 15  2  0
 21 14  1  0
 22 12  1  0
 24 26  2  0
 25 24  1  0
 27 25  1  0
 28 37  2  0
 28 33  1  0
 29 25  1  0
 29 33  1  0
 30 29  1  0
 31 32  1  0
 31 30  1  0
 32 28  1  0
 33 34  2  0
 34 35  1  0
 36 35  2  0
 37 36  1  0
 38 12  1  0
 38 43  1  0
 38 39  1  0
 39 42  1  1
 39 40  1  0
 41 39  1  0
 43 46  1  0
 44 48  1  0
 44 43  1  0
 45 44  2  0
 48 47  1  0
 50 48  1  0
 50 51  1  0
 50 49  1  0
 53  1  1  0
 53 52  1  0
 54 55  1  0
 55 96  1  0
 56 55  1  0
 56 57  1  0
 58 66  1  0
 59 64  1  0
 60 61  1  0
 60 59  1  0
 62 61  1  0
 62 71  1  0
 62 63  1  0
 64 58  1  0
 64 63  1  0
 65 58  2  0
 66 57  1  0
 66 67  1  0
 68 69  2  0
 69 88  1  0
 70 69  1  0
 70 73  1  0
 71 72  1  0
 71 68  1  0
 72 70  2  0
 73 74  1  0
 74 75  2  0
 76 79  1  0
 76 75  1  0
 77 76  2  0
 78 77  1  0
 78 73  2  0
 79 80  1  0
 80 81  1  0
 81 82  2  0
 83 82  1  0
 83 87  1  0
 84 83  2  0
 85 80  2  0
 85 84  1  0
 86 85  1  0
 88 89  1  0
 89 92  1  0
 89 91  1  0
 90 88  2  0
 93 68  1  0
 93 94  1  0
 95 93  1  0
 96 97  1  0
 97 98  1  0
 98101  1  0
 98100  1  0
 99 98  1  0
M  ISO  4  10 101  11 101  58 100  66 100
M  END
>  <TORSDO>  (87) 
F 27

>  <SCORE>  (87) 
-10.913

>  <name>  (87) 
87

>  <ligand_id>  (87) 
87

>  <original_smiles>  (87) 
[H]c1c([H])c([H])c2c(c1[H])C([H])([H])C([H])([H])C([H])([H])C2([H])N([H])C(=O)C1([H])N(C(=O)C([H])(N([H])C(=O)C([H])(N([H])C([H])([H])[H])C([H])([H])[H])C(C([H])([H])[H])(C([H])([H])[H])C([H])([H])[H])C([H])([H])c2c([H])c(OC([H])([H])C([H])([H])[N+]3([H])C([H])([H])C([H])([H])N(C([H])(C([H])([H])N(C([H])([H])C([H])([H])N([H])C(=O)N4C([H])([H])C([H])([H])C([H])([H])C([H])(n5nc(-c6c([H])c([H])c(Oc7c([H])c([H])c(F)c([H])c7F)c([H])c6[H])c(C(=O)N([H])[H])c5N([H])[H])C4([H])[H])C([H])([H])C([H])([H])[N+]([H])([H])[H])C([H])([H])C([H])([H])[H])C([H])([H])C3([H])[H])c([H])c([H])c2C1([H])[H]

>  <smiles>  (87) 
[H]c1c([H])c([H])c2c(c1[H])C([H])([H])C([H])([H])C([H])([H])C2([H])N([H])C(=O)C1([H])N(C(=O)C([H])(N([H])C(=O)C([H])(N([H])C([H])([H])[H])C([H])([H])[H])C(C([H])([H])[H])(C([H])([H])[H])C([H])([H])[H])C([H])([H])c2c([H])c(OC([H])([H])C([H])([H])[N+]3([H])C([H])([H])C([H])([H])N(C([H])(C([H])([H])N(C([H])([H])C([H])([H])N([H])C(=O)N4C([H])([H])C([H])([H])C([H])([H])C([H])(n5nc(-c6c([H])c([H])c(Oc7c([H])c([H])c(F)c([H])c7F)c([H])c6[H])c(C(=O)N([H])[H])c5N([H])[H])C4([H])[H])C([H])([H])C([H])([H])[N+]([H])([H])[H])C([H])([H])C([H])([H])[H])C([H])([H])C3([H])[H])c([H])c([H])c2C1([H])[H]

$$$$
88:0:0
     RDKit          3D

103111  0  0  1  0  0  0  0  0999 V2000
  -29.3570  -20.5250   19.6590 N   0  0  0  0  0  0  0  0  0  0  0  0
  -30.3530  -19.2970   19.7200 C   0  0  0  0  0  2  0  0  0  0  0  0
  -30.1990  -17.8760   20.6270 C   0  0  0  0  0  2  0  0  0  0  0  0
  -30.9430  -15.2140   20.1220 C   0  0  0  0  0  0  0  0  0  0  0  0
  -30.8450  -12.8480   19.2030 C   0  0  0  0  0  2  0  0  0  0  0  0
  -29.8990  -12.7870   17.9840 C   0  0  0  0  0  2  0  0  0  0  0  0
  -28.4350  -12.5810   18.4300 C   0  0  0  0  0  2  0  0  0  0  0  0
  -28.0370  -13.5130   19.6040 C   0  0  0  0  0  3  0  0  0  0  0  0
  -29.1070  -13.5350   20.7130 C   0  0  0  0  0  2  0  0  0  0  0  0
  -30.3640  -13.9480   20.0800 N   0  0  0  0  0  0  0  0  0  0  0  0
  -32.1600  -15.2930   19.9270 O   0  0  0  0  0  0  0  0  0  0  0  0
  -30.1070  -16.3610   20.1680 N   0  0  0  0  0  0  0  0  0  0  0  0
  -29.1460  -16.0610   20.1340 H   0  0  0  0  0  0  0  0  0  0  0  0
  -25.7030  -14.1120   20.4650 C   0  0  0  0  0  0  0  0  0  0  0  0
  -24.6270  -13.3440   20.8150 C   0  0  0  0  0  0  0  0  0  0  0  0
  -25.0440  -11.9860   20.6720 C   0  0  0  0  0  0  0  0  0  0  0  0
  -26.7080  -13.2170   20.1240 N   0  0  0  0  0  0  0  0  0  0  0  0
  -26.3220  -11.9290   20.3130 N   0  0  0  0  0  0  0  0  0  0  0  0
  -24.2780  -10.7390   20.7880 C   0  0  0  0  0  0  0  0  0  0  0  0
  -24.7250   -9.6720   21.5970 C   0  0  0  0  0  3  0  0  0  0  0  0
  -23.9630   -8.4890   21.7100 C   0  0  0  0  0  3  0  0  0  0  0  0
  -22.7400   -8.3650   21.0130 C   0  0  0  0  0  0  0  0  0  0  0  0
  -22.3110   -9.4190   20.1850 C   0  0  0  0  0  3  0  0  0  0  0  0
  -23.0730  -10.5930   20.0720 C   0  0  0  0  0  3  0  0  0  0  0  0
  -21.9400   -7.2480   21.0450 O   0  0  0  0  0  0  0  0  0  0  0  0
  -21.9410   -6.3910   22.1160 C   0  0  0  0  0  0  0  0  0  0  0  0
  -21.6100   -6.8270   23.4190 C   0  0  0  0  0  3  0  0  0  0  0  0
  -21.5580   -5.9000   24.4790 C   0  0  0  0  0  3  0  0  0  0  0  0
  -21.8250   -4.5390   24.2400 C   0  0  0  0  0  0  0  0  0  0  0  0
  -22.1460   -4.1020   22.9430 C   0  0  0  0  0  3  0  0  0  0  0  0
  -22.2020   -5.0260   21.8840 C   0  0  0  0  0  0  0  0  0  0  0  0
  -22.4920   -4.5950   20.6330 F   0  0  0  0  0  0  0  0  0  0  0  0
  -21.7650   -3.6490   25.2570 F   0  0  0  0  0  0  0  0  0  0  0  0
  -23.2540  -13.8430   21.1610 C   0  0  0  0  0  0  0  0  0  0  0  0
  -22.5330  -13.1220   22.0140 N   0  0  0  0  0  0  0  0  0  0  0  0
  -22.8320  -14.9040   20.7080 O   0  0  0  0  0  0  0  0  0  0  0  0
  -22.8860  -12.2610   22.4040 H   0  0  0  0  0  0  0  0  0  0  0  0
  -21.6120  -13.4390   22.2840 H   0  0  0  0  0  0  0  0  0  0  0  0
  -25.9040  -15.4860   20.3810 N   0  0  0  0  0  0  0  0  0  0  0  0
  -25.1470  -16.1460   20.5280 H   0  0  0  0  0  0  0  0  0  0  0  0
  -26.7210  -15.9150   19.9670 H   0  0  0  0  0  0  0  0  0  0  0  0
  -29.7420  -22.0690   19.6830 C   0  0  0  0  0  3  0  0  0  0  0  0
  -30.8560  -22.4400   18.6590 C   0  0  0  0  0  2  0  0  0  0  0  0
  -32.3550  -26.5240   19.0170 C   0  0  0  0  0  3  0  0  0  0  0  0
  -32.0500  -25.9880   17.7510 C   0  0  0  0  0  3  0  0  0  0  0  0
  -32.2280  -25.7240   20.1660 C   0  0  0  0  0  3  0  0  0  0  0  0
  -31.5810  -24.6630   17.6410 C   0  0  0  0  0  3  0  0  0  0  0  0
  -31.7770  -24.3940   20.0520 C   0  0  0  0  0  3  0  0  0  0  0  0
  -31.4130  -23.8610   18.7920 C   0  0  0  0  0  0  0  0  0  0  0  0
  -28.8200  -23.4380   20.1460 C   0  0  0  0  0  2  0  0  0  0  0  0
  -28.4610  -24.8580   19.2960 C   0  0  0  0  0  2  0  0  0  0  0  0
  -28.3930  -26.3270   19.8160 O   0  0  0  0  0  0  0  0  0  0  0  0
  -24.5310  -31.6470   23.0810 C   0  0  0  0  0  0  0  0  0  0  0  0
  -27.2780  -27.2390   19.7630 C   0  0  0  0  0  0  0  0  0  0  0  0
  -23.3780  -30.3050   21.3620 C   0  0  0  0  0  3  0  0  0  0  0  0
  -24.8790  -28.8790   19.8400 C   0  0  0  0  0  0  0  0  0  0  0  0
  -25.9140  -30.6870   21.2040 C   0  0  0  0  0  2  0  0  0  0  0  0
  -26.0410  -29.3410   20.4690 C   0  0  0  0  0  0  0  0  0  0  0  0
  -27.2370  -28.5360   20.4150 C   0  0  0  0  0  3  0  0  0  0  0  0
  -26.0840  -26.8770   19.1000 C   0  0  0  0  0  3  0  0  0  0  0  0
  -24.9130  -27.6650   19.1410 C   0  0  0  0  0  3  0  0  0  0  0  0
  -23.6150  -29.7150   19.9440 C   0  0  0  0  0  2  0  0  0  0  0  0
  -24.6270  -30.8990   21.9370 N   0  0  0  0  0  0  0  0  0  0  0  0
  -23.4380  -31.8570   23.6280 O   0  0  0  0  0  0  0  0  0  0  0  0
  -22.7480  -29.2160   22.2660 C   0  0  0  0  0  0  0  0  0  0  0  0
  -21.4230  -29.0190   22.1510 N   0  0  0  0  0  0  0  0  0  0  0  0
  -23.4510  -28.5540   23.0320 O   0  0  0  0  0  0  0  0  0  0  0  0
  -20.9120  -29.6090   21.5110 H   0  0  0  0  0  0  0  0  0  0  0  0
  -18.0810  -27.6980   22.6280 C   0  0  0  0  0  0  0  0  0  0  0  0
  -20.6380  -28.0090   22.8660 C   0  0  0  0  0  3  0  0  0  0  0  0
  -20.7630  -26.6230   22.1910 C   0  0  0  0  0  2  0  0  0  0  0  0
  -19.6490  -26.3420   21.1770 C   0  0  0  0  0  2  0  0  0  0  0  0
  -18.2780  -26.4050   21.8550 C   0  0  0  0  0  2  0  0  0  0  0  0
  -19.1900  -28.4590   23.0880 C   0  0  0  0  0  0  0  0  0  0  0  0
  -18.9500  -29.6700   23.7750 C   0  0  0  0  0  3  0  0  0  0  0  0
  -17.6370  -30.1200   24.0040 C   0  0  0  0  0  3  0  0  0  0  0  0
  -16.5430  -29.3570   23.5570 C   0  0  0  0  0  3  0  0  0  0  0  0
  -16.7680  -28.1480   22.8760 C   0  0  0  0  0  3  0  0  0  0  0  0
  -25.7880  -32.2920   23.7430 C   0  0  0  0  0  3  0  0  0  0  0  0
  -26.2950  -31.5010   25.0110 C   0  0  1  0  0  0  0  0  0  0  0  0
  -25.1910  -31.2380   26.0610 C   0  0  0  0  0  1  0  0  0  0  0  0
  -26.8970  -30.1350   24.6090 C   0  0  0  0  0  1  0  0  0  0  0  0
  -27.4300  -32.2950   25.7030 C   0  0  0  0  0  1  0  0  0  0  0  0
  -25.4410  -33.6760   24.1050 N   0  0  0  0  0  0  0  0  0  0  0  0
  -25.7920  -34.7610   23.4030 C   0  0  0  0  0  0  0  0  0  0  0  0
  -26.5070  -34.7040   22.3980 O   0  0  0  0  0  0  0  0  0  0  0  0
  -24.8060  -33.7930   24.8820 H   0  0  0  0  0  0  0  0  0  0  0  0
  -24.0670  -36.5580   23.0310 C   0  0  0  0  0  1  0  0  0  0  0  0
  -25.2680  -36.1270   23.8890 C   0  0  0  0  0  3  0  0  0  0  0  0
  -27.3430  -37.0020   24.8680 C   0  0  0  0  0  1  0  0  0  0  0  0
  -26.2930  -37.1930   23.8710 N   0  0  0  0  0  0  0  0  0  0  0  0
  -25.8680  -38.1030   24.0270 H   0  0  0  0  0  0  0  0  0  0  0  0
  -28.1310  -20.0840   18.9380 C   0  0  0  0  0  3  0  0  0  0  0  0
  -26.8930  -20.2290   19.8550 C   0  0  0  0  0  2  0  0  0  0  0  0
  -26.8350  -21.5450   20.5000 N   0  0  0  0  0  4  0  0  0  0  0  0
  -27.7520  -21.7400   20.8640 H   0  0  0  0  0  0  0  0  0  0  0  0
  -26.1750  -21.5270   21.2580 H   0  0  0  0  0  0  0  0  0  0  0  0
  -26.5600  -22.2630   19.8550 H   0  0  0  0  0  0  0  0  0  0  0  0
  -27.8910  -20.6350   17.5070 C   0  0  0  0  0  2  0  0  0  0  0  0
  -28.8860  -20.1380   16.5470 N   0  0  0  0  0  4  0  0  0  0  0  0
  -29.8140  -20.3620   16.8560 H   0  0  0  0  0  0  0  0  0  0  0  0
  -28.7340  -20.5540   15.6440 H   0  0  0  0  0  0  0  0  0  0  0  0
  -28.8140  -19.1410   16.4460 H   0  0  0  0  0  0  0  0  0  0  0  0
  1 42  1  0
  1  2  1  0
  2  3  1  0
  4 12  1  0
  5 10  1  0
  6  7  1  0
  6  5  1  0
  8  7  1  0
  8 17  1  0
  8  9  1  0
 10  4  1  0
 10  9  1  0
 11  4  2  0
 12  3  1  0
 13 12  1  0
 14 15  2  0
 15 34  1  0
 16 19  1  0
 16 15  1  0
 17 18  1  0
 17 14  1  0
 18 16  2  0
 19 20  1  0
 20 21  2  0
 22 25  1  0
 22 21  1  0
 23 22  2  0
 24 23  1  0
 24 19  2  0
 25 26  1  0
 26 27  1  0
 27 28  2  0
 29 28  1  0
 29 33  1  0
 30 29  2  0
 31 26  2  0
 31 30  1  0
 32 31  1  0
 34 35  1  0
 35 38  1  0
 35 37  1  0
 36 34  2  0
 39 14  1  0
 39 40  1  0
 41 39  1  0
 42 43  1  0
 42 50  1  0
 43 49  1  0
 44 46  1  0
 45 44  2  0
 47 45  1  0
 47 49  2  0
 48 46  2  0
 49 48  1  0
 51 52  1  0
 51 50  1  0
 53 64  2  0
 54 52  1  0
 54 59  1  0
 55 63  1  0
 55 65  1  0
 56 62  1  0
 56 58  1  0
 57 63  1  0
 58 57  1  0
 59 58  2  0
 60 61  1  0
 60 54  2  0
 61 56  2  0
 62 55  1  0
 63 53  1  0
 65 67  2  0
 66 65  1  0
 68 66  1  0
 69 78  2  0
 69 74  1  0
 70 66  1  0
 70 74  1  0
 71 70  1  0
 72 73  1  0
 72 71  1  0
 73 69  1  0
 74 75  2  0
 75 76  1  0
 77 76  2  0
 78 77  1  0
 79 53  1  0
 79 84  1  0
 79 80  1  0
 80 83  1  1
 80 81  1  0
 82 80  1  0
 84 87  1  0
 85 89  1  0
 85 84  1  0
 86 85  2  0
 89 88  1  0
 91 89  1  0
 91 92  1  0
 91 90  1  0
 93  1  1  0
 93 94  1  0
 94 95  1  0
 95 96  1  0
 95 97  1  0
 98 95  1  0
 99 93  1  0
100101  1  0
100 99  1  0
102100  1  0
103100  1  0
M  ISO  4   4 100  12 100  51 101  52 101
M  END
>  <TORSDO>  (88) 
F 28

>  <SCORE>  (88) 
-10.651

>  <name>  (88) 
88

>  <ligand_id>  (88) 
88

>  <original_smiles>  (88) 
[H]c1c([H])c([H])c(C([H])([H])C([H])(N(C([H])([H])C([H])([H])N([H])C(=O)N2C([H])([H])C([H])([H])C([H])([H])C([H])(n3nc(-c4c([H])c([H])c(Oc5c([H])c([H])c(F)c([H])c5F)c([H])c4[H])c(C(=O)N([H])[H])c3N([H])[H])C2([H])[H])C([H])(C([H])([H])[N+]([H])([H])[H])C([H])([H])[N+]([H])([H])[H])C([H])([H])C([H])([H])Oc2c([H])c([H])c3c(c2[H])C([H])([H])N(C(=O)C([H])(N([H])C(=O)C([H])(N([H])C([H])([H])[H])C([H])([H])[H])C(C([H])([H])[H])(C([H])([H])[H])C([H])([H])[H])C([H])(C(=O)N([H])C2([H])c4c([H])c([H])c([H])c([H])c4C([H])([H])C([H])([H])C2([H])[H])C3([H])[H])c([H])c1[H]

>  <smiles>  (88) 
[H]c1c([H])c([H])c(C([H])([H])C([H])(N(C([H])([H])C([H])([H])N([H])C(=O)N2C([H])([H])C([H])([H])C([H])([H])C([H])(n3nc(-c4c([H])c([H])c(Oc5c([H])c([H])c(F)c([H])c5F)c([H])c4[H])c(C(=O)N([H])[H])c3N([H])[H])C2([H])[H])C([H])(C([H])([H])[N+]([H])([H])[H])C([H])([H])[N+]([H])([H])[H])C([H])([H])C([H])([H])Oc2c([H])c([H])c3c(c2[H])C([H])([H])N(C(=O)C([H])(N([H])C(=O)C([H])(N([H])C([H])([H])[H])C([H])([H])[H])C(C([H])([H])[H])(C([H])([H])[H])C([H])([H])[H])C([H])(C(=O)N([H])C2([H])c4c([H])c([H])c([H])c([H])c4C([H])([H])C([H])([H])C2([H])[H])C3([H])[H])c([H])c1[H]

$$$$
89:0:0
     RDKit          3D

102109  0  0  1  0  0  0  0  0999 V2000
  -28.9830  -18.5210   20.2420 N   0  0  0  0  0  0  0  0  0  0  0  0
  -28.7360  -17.6360   21.4000 C   0  0  0  0  0  2  0  0  0  0  0  0
  -27.5590  -16.6480   21.1600 C   0  0  0  0  0  3  0  0  0  0  0  0
  -26.4110  -17.0060   22.0170 N   0  0  0  0  0  4  0  0  0  0  0  0
  -26.6490  -16.9390   22.9910 H   0  0  0  0  0  0  0  0  0  0  0  0
  -25.6220  -16.4100   21.8440 H   0  0  0  0  0  0  0  0  0  0  0  0
  -26.1220  -17.9480   21.8260 H   0  0  0  0  0  0  0  0  0  0  0  0
  -28.0100  -15.1810   21.3880 C   0  0  0  0  0  2  0  0  0  0  0  0
  -26.8790  -14.1510   21.6030 C   0  0  0  0  0  2  0  0  0  0  0  0
  -27.4140  -12.8070   22.1470 C   0  0  0  0  0  2  0  0  0  0  0  0
  -26.3650  -11.9780   22.7680 N   0  0  0  0  0  4  0  0  0  0  0  0
  -25.9380  -12.4610   23.5390 H   0  0  0  0  0  0  0  0  0  0  0  0
  -26.7700  -11.1310   23.1280 H   0  0  0  0  0  0  0  0  0  0  0  0
  -25.6520  -11.7260   22.1080 H   0  0  0  0  0  0  0  0  0  0  0  0
  -29.5050  -19.8840   20.5480 C   0  0  0  0  0  2  0  0  0  0  0  0
  -28.8250  -21.0860   19.7810 C   0  0  0  0  0  2  0  0  0  0  0  0
  -28.8530  -22.3880   20.5270 N   0  0  0  0  0  4  0  0  0  0  0  0
  -29.7680  -22.4840   20.9400 H   0  0  0  0  0  0  0  0  0  0  0  0
  -28.1920  -22.3210   21.2840 H   0  0  0  0  0  0  0  0  0  0  0  0
  -28.5700  -23.6540   19.7580 C   0  0  0  0  0  2  0  0  0  0  0  0
  -28.5680  -24.9440   20.6490 C   0  0  0  0  0  2  0  0  0  0  0  0
  -28.6270  -26.2200   19.9580 O   0  0  0  0  0  0  0  0  0  0  0  0
  -25.1390  -31.4010   23.4860 C   0  0  0  0  0  0  0  0  0  0  0  0
  -27.5210  -27.0450   20.0500 C   0  0  0  0  0  0  0  0  0  0  0  0
  -23.8710  -30.2360   21.7150 C   0  0  0  0  0  3  0  0  0  0  0  0
  -25.2390  -28.7250   20.1760 C   0  0  0  0  0  0  0  0  0  0  0  0
  -26.4190  -30.4280   21.5720 C   0  0  0  0  0  2  0  0  0  0  0  0
  -26.4240  -29.1120   20.8150 C   0  0  0  0  0  0  0  0  0  0  0  0
  -27.5710  -28.2830   20.7410 C   0  0  0  0  0  3  0  0  0  0  0  0
  -26.3190  -26.6800   19.4080 C   0  0  0  0  0  3  0  0  0  0  0  0
  -25.1830  -27.5110   19.4680 C   0  0  0  0  0  3  0  0  0  0  0  0
  -24.0580  -29.6670   20.2840 C   0  0  0  0  0  2  0  0  0  0  0  0
  -25.1630  -30.6960   22.3180 N   0  0  0  0  0  0  0  0  0  0  0  0
  -24.0670  -31.7010   24.0310 O   0  0  0  0  0  0  0  0  0  0  0  0
  -23.1340  -29.1810   22.5710 C   0  0  0  0  0  0  0  0  0  0  0  0
  -21.8000  -29.1170   22.4280 N   0  0  0  0  0  0  0  0  0  0  0  0
  -23.7600  -28.4290   23.3230 O   0  0  0  0  0  0  0  0  0  0  0  0
  -21.3560  -29.7820   21.8090 H   0  0  0  0  0  0  0  0  0  0  0  0
  -18.3310  -28.2040   22.8830 C   0  0  0  0  0  0  0  0  0  0  0  0
  -20.9070  -28.1740   23.1040 C   0  0  0  0  0  3  0  0  0  0  0  0
  -20.8520  -26.8210   22.3570 C   0  0  0  0  0  2  0  0  0  0  0  0
  -19.7020  -26.7370   21.3450 C   0  0  0  0  0  2  0  0  0  0  0  0
  -18.3560  -26.9380   22.0450 C   0  0  0  0  0  2  0  0  0  0  0  0
  -19.5290  -28.7920   23.3690 C   0  0  0  0  0  0  0  0  0  0  0  0
  -19.4500  -29.9900   24.1110 C   0  0  0  0  0  3  0  0  0  0  0  0
  -18.2040  -30.5910   24.3760 C   0  0  0  0  0  3  0  0  0  0  0  0
  -17.0220  -29.9960   23.9070 C   0  0  0  0  0  3  0  0  0  0  0  0
  -17.0880  -28.8040   23.1660 C   0  0  0  0  0  3  0  0  0  0  0  0
  -26.4550  -31.8830   24.1760 C   0  0  0  0  0  3  0  0  0  0  0  0
  -26.1910  -33.2090   24.7490 N   0  0  0  0  0  0  0  0  0  0  0  0
  -26.5550  -34.3660   24.1800 C   0  0  0  0  0  0  0  0  0  0  0  0
  -27.2170  -34.4230   23.1400 O   0  0  0  0  0  0  0  0  0  0  0  0
  -25.6000  -33.2440   25.5660 H   0  0  0  0  0  0  0  0  0  0  0  0
  -24.8870  -36.2510   24.1590 C   0  0  0  0  0  1  0  0  0  0  0  0
  -26.1160  -35.6680   24.8760 C   0  0  0  0  0  3  0  0  0  0  0  0
  -28.2810  -36.3230   25.8350 C   0  0  0  0  0  1  0  0  0  0  0  0
  -27.1820  -36.6910   24.9430 N   0  0  0  0  0  0  0  0  0  0  0  0
  -26.8050  -37.5830   25.2500 H   0  0  0  0  0  0  0  0  0  0  0  0
  -26.9770  -30.8890   25.2850 C   0  0  1  0  0  0  0  0  0  0  0  0
  -25.8890  -30.4550   26.2950 C   0  0  0  0  0  1  0  0  0  0  0  0
  -27.5620  -29.6080   24.6440 C   0  0  0  0  0  1  0  0  0  0  0  0
  -28.1310  -31.5500   26.0770 C   0  0  0  0  0  1  0  0  0  0  0  0
  -29.6080  -17.7790   19.1150 C   0  0  0  0  0  2  0  0  0  0  0  0
  -30.8190  -16.8250   19.4360 C   0  0  0  0  0  2  0  0  0  0  0  0
  -31.2440  -14.3830   20.0150 C   0  0  0  0  0  0  0  0  0  0  0  0
  -31.2630  -11.9880   19.4220 C   0  0  0  0  0  2  0  0  0  0  0  0
  -30.6530  -11.8270   18.0120 C   0  0  0  0  0  2  0  0  0  0  0  0
  -29.1160  -11.7170   18.0850 C   0  0  0  0  0  2  0  0  0  0  0  0
  -28.4700  -12.8010   18.9910 C   0  0  0  0  0  3  0  0  0  0  0  0
  -29.2150  -12.9220   20.3400 C   0  0  0  0  0  2  0  0  0  0  0  0
  -30.6350  -13.1650   20.0460 N   0  0  0  0  0  0  0  0  0  0  0  0
  -32.4680  -14.5100   19.9230 O   0  0  0  0  0  0  0  0  0  0  0  0
  -30.4230  -15.4480   19.8430 N   0  0  0  0  0  0  0  0  0  0  0  0
  -29.4360  -15.2500   19.8820 H   0  0  0  0  0  0  0  0  0  0  0  0
  -25.9630  -13.2510   18.6400 C   0  0  0  0  0  0  0  0  0  0  0  0
  -24.8460  -12.5820   19.0610 C   0  0  0  0  0  0  0  0  0  0  0  0
  -25.3150  -11.4900   19.8540 C   0  0  0  0  0  0  0  0  0  0  0  0
  -27.0410  -12.5650   19.1760 N   0  0  0  0  0  0  0  0  0  0  0  0
  -26.6360  -11.5350   19.9600 N   0  0  0  0  0  0  0  0  0  0  0  0
  -24.5870  -10.3740   20.4700 C   0  0  0  0  0  0  0  0  0  0  0  0
  -24.7500  -10.0490   21.8350 C   0  0  0  0  0  3  0  0  0  0  0  0
  -24.0250   -8.9830   22.4080 C   0  0  0  0  0  3  0  0  0  0  0  0
  -23.1240   -8.2300   21.6180 C   0  0  0  0  0  0  0  0  0  0  0  0
  -22.9830   -8.5430   20.2540 C   0  0  0  0  0  3  0  0  0  0  0  0
  -23.7100   -9.6020   19.6830 C   0  0  0  0  0  3  0  0  0  0  0  0
  -22.3960   -7.1610   22.0820 O   0  0  0  0  0  0  0  0  0  0  0  0
  -21.9990   -7.0770   23.3930 C   0  0  0  0  0  0  0  0  0  0  0  0
  -21.2110   -8.0800   23.9990 C   0  0  0  0  0  3  0  0  0  0  0  0
  -20.7650   -7.9190   25.3260 C   0  0  0  0  0  3  0  0  0  0  0  0
  -21.0980   -6.7560   26.0450 C   0  0  0  0  0  0  0  0  0  0  0  0
  -21.8770   -5.7540   25.4430 C   0  0  0  0  0  3  0  0  0  0  0  0
  -22.3250   -5.9130   24.1190 C   0  0  0  0  0  0  0  0  0  0  0  0
  -23.0560   -4.9340   23.5350 F   0  0  0  0  0  0  0  0  0  0  0  0
  -20.6630   -6.5990   27.3180 F   0  0  0  0  0  0  0  0  0  0  0  0
  -23.4280  -12.8760   18.6690 C   0  0  0  0  0  0  0  0  0  0  0  0
  -22.4740  -12.5480   19.5330 N   0  0  0  0  0  0  0  0  0  0  0  0
  -23.1620  -13.4480   17.6140 O   0  0  0  0  0  0  0  0  0  0  0  0
  -22.6940  -12.0850   20.4030 H   0  0  0  0  0  0  0  0  0  0  0  0
  -21.5060  -12.7360   19.3090 H   0  0  0  0  0  0  0  0  0  0  0  0
  -26.1550  -14.3650   17.8290 N   0  0  0  0  0  0  0  0  0  0  0  0
  -25.3810  -14.7850   17.3260 H   0  0  0  0  0  0  0  0  0  0  0  0
  -27.0560  -14.6210   17.4440 H   0  0  0  0  0  0  0  0  0  0  0  0
  1 15  1  0
  1  2  1  0
  3  8  1  0
  3  2  1  0
  3  4  1  0
  4  5  1  0
  6  4  1  0
  7  4  1  0
  8  9  1  0
  9 10  1  0
 10 11  1  0
 11 13  1  0
 11 12  1  0
 14 11  1  0
 16 17  1  0
 16 15  1  0
 17 18  1  0
 17 19  1  0
 20 17  1  0
 20 21  1  0
 22 24  1  0
 22 21  1  0
 23 34  2  0
 24 29  1  0
 25 33  1  0
 25 35  1  0
 26 32  1  0
 26 28  1  0
 27 33  1  0
 28 27  1  0
 29 28  2  0
 30 31  1  0
 30 24  2  0
 31 26  2  0
 32 25  1  0
 33 23  1  0
 35 37  2  0
 36 35  1  0
 38 36  1  0
 39 48  2  0
 39 44  1  0
 40 36  1  0
 40 44  1  0
 41 40  1  0
 42 43  1  0
 42 41  1  0
 43 39  1  0
 44 45  2  0
 45 46  1  0
 47 46  2  0
 48 47  1  0
 49 23  1  0
 49 50  1  0
 49 59  1  0
 50 53  1  0
 51 50  1  0
 51 55  1  0
 52 51  2  0
 55 54  1  0
 55 57  1  0
 57 58  1  0
 57 56  1  0
 59 62  1  1
 59 60  1  0
 61 59  1  0
 63 64  1  0
 63  1  1  0
 64 73  1  0
 65 71  1  0
 66 71  1  0
 67 68  1  0
 67 66  1  0
 69 68  1  0
 69 78  1  0
 69 70  1  0
 71 70  1  0
 72 65  2  0
 73 74  1  0
 73 65  1  0
 75 76  2  0
 75 78  1  0
 76 77  1  0
 77 79  2  0
 77 80  1  0
 78 79  1  0
 80 81  1  0
 81 82  2  0
 83 86  1  0
 83 82  1  0
 84 83  2  0
 85 84  1  0
 85 80  2  0
 86 87  1  0
 87 88  2  0
 87 92  1  0
 88 89  1  0
 89 90  2  0
 90 94  1  0
 91 90  1  0
 92 91  2  0
 93 92  1  0
 95 76  1  0
 95 96  1  0
 96 98  1  0
 97 95  2  0
 99 96  1  0
100 75  1  0
101100  1  0
102100  1  0
M  ISO  4  21 101  22 101  65 100  73 100
M  END
>  <TORSDO>  (89) 
F 30

>  <SCORE>  (89) 
7.841

>  <name>  (89) 
89

>  <ligand_id>  (89) 
89

>  <original_smiles>  (89) 
[H]c1c([H])c([H])c2c(c1[H])C([H])([H])C([H])([H])C([H])([H])C2([H])N([H])C(=O)C1([H])N(C(=O)C([H])(N([H])C(=O)C([H])(N([H])C([H])([H])[H])C([H])([H])[H])C(C([H])([H])[H])(C([H])([H])[H])C([H])([H])[H])C([H])([H])c2c([H])c(OC([H])([H])C([H])([H])[N+]([H])([H])C([H])([H])C([H])([H])N(C([H])([H])C([H])([H])N([H])C(=O)N3C([H])([H])C([H])([H])C([H])([H])C([H])(n4nc(-c5c([H])c([H])c(Oc6c([H])c([H])c(F)c([H])c6F)c([H])c5[H])c(C(=O)N([H])[H])c4N([H])[H])C3([H])[H])C([H])([H])C([H])(C([H])([H])C([H])([H])C([H])([H])[N+]([H])([H])[H])[N+]([H])([H])[H])c([H])c([H])c2C1([H])[H]

>  <smiles>  (89) 
[H]c1c([H])c([H])c2c(c1[H])C([H])([H])C([H])([H])C([H])([H])C2([H])N([H])C(=O)C1([H])N(C(=O)C([H])(N([H])C(=O)C([H])(N([H])C([H])([H])[H])C([H])([H])[H])C(C([H])([H])[H])(C([H])([H])[H])C([H])([H])[H])C([H])([H])c2c([H])c(OC([H])([H])C([H])([H])[N+]([H])([H])C([H])([H])C([H])([H])N(C([H])([H])C([H])([H])N([H])C(=O)N3C([H])([H])C([H])([H])C([H])([H])C([H])(n4nc(-c5c([H])c([H])c(Oc6c([H])c([H])c(F)c([H])c6F)c([H])c5[H])c(C(=O)N([H])[H])c4N([H])[H])C3([H])[H])C([H])([H])C([H])(C([H])([H])C([H])([H])C([H])([H])[N+]([H])([H])[H])[N+]([H])([H])[H])c([H])c([H])c2C1([H])[H]

$$$$
90:0:0
     RDKit          3D

102110  0  0  1  0  0  0  0  0999 V2000
  -29.9710  -20.6630   19.4750 C   0  0  0  0  0  2  0  0  0  0  0  0
  -29.4080  -20.8550   21.8200 C   0  0  0  0  0  2  0  0  0  0  0  0
  -29.5840  -22.1810   19.2770 C   0  0  0  0  0  2  0  0  0  0  0  0
  -29.0150  -22.3640   21.5970 C   0  0  0  0  0  2  0  0  0  0  0  0
  -29.2580  -20.0240   20.6040 N   0  0  0  0  0  0  0  0  0  0  0  0
  -29.7760  -22.9950   20.5000 N   0  0  0  0  0  0  0  0  0  0  0  0
  -29.1690  -18.5040   20.7130 C   0  0  0  0  0  3  0  0  0  0  0  0
  -28.2870  -17.9580   19.5600 C   0  0  0  0  0  2  0  0  0  0  0  0
  -26.2170  -18.2620   18.0930 C   0  0  0  0  0  1  0  0  0  0  0  0
  -26.9850  -18.7470   19.3290 C   0  0  0  0  0  2  0  0  0  0  0  0
  -30.4570  -17.5480   20.8450 C   0  0  0  0  0  3  0  0  0  0  0  0
  -30.9040  -14.9940   20.5800 C   0  0  0  0  0  0  0  0  0  0  0  0
  -30.7200  -12.7750   19.4770 C   0  0  0  0  0  2  0  0  0  0  0  0
  -29.8130  -12.9130   18.2360 C   0  0  0  0  0  2  0  0  0  0  0  0
  -28.3320  -12.7340   18.6210 C   0  0  0  0  0  2  0  0  0  0  0  0
  -27.9290  -13.5820   19.8570 C   0  0  0  0  0  3  0  0  0  0  0  0
  -28.9560  -13.4330   21.0030 C   0  0  0  0  0  2  0  0  0  0  0  0
  -30.2790  -13.7820   20.4640 N   0  0  0  0  0  0  0  0  0  0  0  0
  -32.0750  -15.1500   20.2270 O   0  0  0  0  0  0  0  0  0  0  0  0
  -30.1260  -16.0700   20.9230 N   0  0  0  0  0  0  0  0  0  0  0  0
  -29.1690  -15.8420   21.1450 H   0  0  0  0  0  0  0  0  0  0  0  0
  -25.5140  -14.1540   20.5160 C   0  0  0  0  0  0  0  0  0  0  0  0
  -24.4430  -13.3690   20.8460 C   0  0  0  0  0  0  0  0  0  0  0  0
  -24.9170  -12.0230   20.8120 C   0  0  0  0  0  0  0  0  0  0  0  0
  -26.5710  -13.2840   20.3000 N   0  0  0  0  0  0  0  0  0  0  0  0
  -26.2150  -11.9970   20.5400 N   0  0  0  0  0  0  0  0  0  0  0  0
  -24.1950  -10.7530   20.9670 C   0  0  0  0  0  0  0  0  0  0  0  0
  -24.5760   -9.8010   21.9380 C   0  0  0  0  0  3  0  0  0  0  0  0
  -23.8540   -8.5950   22.0790 C   0  0  0  0  0  3  0  0  0  0  0  0
  -22.7380   -8.3340   21.2490 C   0  0  0  0  0  0  0  0  0  0  0  0
  -22.3780   -9.2760   20.2680 C   0  0  0  0  0  3  0  0  0  0  0  0
  -23.1020  -10.4720   20.1250 C   0  0  0  0  0  3  0  0  0  0  0  0
  -21.9940   -7.1810   21.2970 O   0  0  0  0  0  0  0  0  0  0  0  0
  -21.8040   -6.4950   22.4700 C   0  0  0  0  0  0  0  0  0  0  0  0
  -21.1740   -7.0880   23.5870 C   0  0  0  0  0  3  0  0  0  0  0  0
  -20.9360   -6.3270   24.7480 C   0  0  0  0  0  3  0  0  0  0  0  0
  -21.3180   -4.9720   24.7930 C   0  0  0  0  0  0  0  0  0  0  0  0
  -21.9400   -4.3780   23.6810 C   0  0  0  0  0  3  0  0  0  0  0  0
  -22.1800   -5.1370   22.5220 C   0  0  0  0  0  0  0  0  0  0  0  0
  -22.7600   -4.5550   21.4450 F   0  0  0  0  0  0  0  0  0  0  0  0
  -21.0830   -4.2390   25.9060 F   0  0  0  0  0  0  0  0  0  0  0  0
  -23.0350  -13.8340   21.0810 C   0  0  0  0  0  0  0  0  0  0  0  0
  -22.2870  -13.1270   21.9210 N   0  0  0  0  0  0  0  0  0  0  0  0
  -22.6040  -14.8590   20.5550 O   0  0  0  0  0  0  0  0  0  0  0  0
  -22.6460  -12.2960   22.3690 H   0  0  0  0  0  0  0  0  0  0  0  0
  -21.3410  -13.4200   22.1200 H   0  0  0  0  0  0  0  0  0  0  0  0
  -25.6700  -15.5270   20.3580 N   0  0  0  0  0  0  0  0  0  0  0  0
  -24.8790  -16.1590   20.4290 H   0  0  0  0  0  0  0  0  0  0  0  0
  -26.4940  -15.9730   19.9810 H   0  0  0  0  0  0  0  0  0  0  0  0
  -31.4210  -17.9260   21.9950 C   0  0  0  0  0  2  0  0  0  0  0  0
  -30.9200  -17.5450   23.3300 N   0  0  0  0  0  4  0  0  0  0  0  0
  -30.0750  -18.0370   23.5590 H   0  0  0  0  0  0  0  0  0  0  0  0
  -31.6100  -17.7680   24.0250 H   0  0  0  0  0  0  0  0  0  0  0  0
  -30.7440  -16.5580   23.3730 H   0  0  0  0  0  0  0  0  0  0  0  0
  -29.7850  -24.5180   20.3970 C   0  0  0  0  0  3  0  0  0  0  0  0
  -31.0240  -25.0180   19.6110 C   0  0  0  0  0  2  0  0  0  0  0  0
  -31.6660  -26.1760   20.2550 N   0  0  0  0  0  4  0  0  0  0  0  0
  -31.0150  -26.9400   20.3180 H   0  0  0  0  0  0  0  0  0  0  0  0
  -32.4570  -26.4740   19.7150 H   0  0  0  0  0  0  0  0  0  0  0  0
  -31.9820  -25.9360   21.1770 H   0  0  0  0  0  0  0  0  0  0  0  0
  -28.5180  -25.3620   19.9380 C   0  0  0  0  0  2  0  0  0  0  0  0
  -28.6150  -26.8190   20.2050 O   0  0  0  0  0  0  0  0  0  0  0  0
  -24.6320  -31.9060   23.3920 C   0  0  0  0  0  0  0  0  0  0  0  0
  -27.4600  -27.6130   20.1630 C   0  0  0  0  0  0  0  0  0  0  0  0
  -23.5140  -30.5740   21.6370 C   0  0  0  0  0  3  0  0  0  0  0  0
  -25.0470  -29.1480   20.1690 C   0  0  0  0  0  0  0  0  0  0  0  0
  -26.0450  -30.9750   21.5470 C   0  0  0  0  0  2  0  0  0  0  0  0
  -26.1820  -29.6390   20.8260 C   0  0  0  0  0  0  0  0  0  0  0  0
  -27.3920  -28.8840   20.8120 C   0  0  0  0  0  3  0  0  0  0  0  0
  -26.3010  -27.1710   19.4860 C   0  0  0  0  0  3  0  0  0  0  0  0
  -25.1090  -27.9210   19.4910 C   0  0  0  0  0  3  0  0  0  0  0  0
  -23.7850  -29.9840   20.2280 C   0  0  0  0  0  2  0  0  0  0  0  0
  -24.7470  -31.1650   22.2510 N   0  0  0  0  0  0  0  0  0  0  0  0
  -23.5270  -32.1240   23.9100 O   0  0  0  0  0  0  0  0  0  0  0  0
  -22.8530  -29.4860   22.5190 C   0  0  0  0  0  0  0  0  0  0  0  0
  -21.5430  -29.2660   22.3230 N   0  0  0  0  0  0  0  0  0  0  0  0
  -23.5210  -28.8480   23.3350 O   0  0  0  0  0  0  0  0  0  0  0  0
  -21.0630  -29.8360   21.6400 H   0  0  0  0  0  0  0  0  0  0  0  0
  -18.1930  -27.9360   22.6230 C   0  0  0  0  0  0  0  0  0  0  0  0
  -20.7280  -28.2630   23.0100 C   0  0  0  0  0  3  0  0  0  0  0  0
  -20.9010  -26.8680   22.3650 C   0  0  0  0  0  2  0  0  0  0  0  0
  -19.8510  -26.5640   21.2910 C   0  0  0  0  0  2  0  0  0  0  0  0
  -18.4410  -26.6300   21.8860 C   0  0  0  0  0  2  0  0  0  0  0  0
  -19.2670  -28.7090   23.1370 C   0  0  0  0  0  0  0  0  0  0  0  0
  -18.9820  -29.9300   23.7850 C   0  0  0  0  0  3  0  0  0  0  0  0
  -17.6550  -30.3790   23.9260 C   0  0  0  0  0  3  0  0  0  0  0  0
  -16.5950  -29.6030   23.4280 C   0  0  0  0  0  3  0  0  0  0  0  0
  -16.8640  -28.3810   22.7830 C   0  0  0  0  0  3  0  0  0  0  0  0
  -25.8790  -32.5330   24.0880 C   0  0  0  0  0  3  0  0  0  0  0  0
  -26.3320  -31.7460   25.3780 C   0  0  1  0  0  0  0  0  0  0  0  0
  -25.1850  -31.4820   26.3810 C   0  0  0  0  0  1  0  0  0  0  0  0
  -26.9480  -30.3800   24.9970 C   0  0  0  0  0  1  0  0  0  0  0  0
  -27.4380  -32.5380   26.1140 C   0  0  0  0  0  1  0  0  0  0  0  0
  -25.5480  -33.9260   24.4220 N   0  0  0  0  0  0  0  0  0  0  0  0
  -25.8750  -34.9870   23.6710 C   0  0  0  0  0  0  0  0  0  0  0  0
  -26.5560  -34.8970   22.6460 O   0  0  0  0  0  0  0  0  0  0  0  0
  -24.9440  -34.0680   25.2170 H   0  0  0  0  0  0  0  0  0  0  0  0
  -24.1060  -36.7440   23.3360 C   0  0  0  0  0  1  0  0  0  0  0  0
  -25.3650  -36.3660   24.1320 C   0  0  0  0  0  3  0  0  0  0  0  0
  -27.4840  -37.3070   24.9420 C   0  0  0  0  0  1  0  0  0  0  0  0
  -26.3750  -37.4390   24.0010 N   0  0  0  0  0  0  0  0  0  0  0  0
  -25.9490  -38.3530   24.1390 H   0  0  0  0  0  0  0  0  0  0  0  0
  1  5  1  0
  3  1  1  0
  3  6  1  0
  4  2  1  0
  5  7  1  0
  5  2  1  0
  6  4  1  0
  7  8  1  0
  7 11  1  0
  9 10  1  0
 10  8  1  0
 11 20  1  0
 11 50  1  0
 12 20  1  0
 13 18  1  0
 14 15  1  0
 14 13  1  0
 16 15  1  0
 16 25  1  0
 16 17  1  0
 18 12  1  0
 18 17  1  0
 19 12  2  0
 20 21  1  0
 22 23  2  0
 23 42  1  0
 24 23  1  0
 24 27  1  0
 25 22  1  0
 25 26  1  0
 26 24  2  0
 27 28  1  0
 28 29  2  0
 30 33  1  0
 30 29  1  0
 31 30  2  0
 32 31  1  0
 32 27  2  0
 33 34  1  0
 34 39  2  0
 34 35  1  0
 35 36  2  0
 36 37  1  0
 37 41  1  0
 38 37  2  0
 39 38  1  0
 40 39  1  0
 42 43  1  0
 43 46  1  0
 43 45  1  0
 44 42  2  0
 47 48  1  0
 47 22  1  0
 49 47  1  0
 50 51  1  0
 51 54  1  0
 51 52  1  0
 51 53  1  0
 55 56  1  0
 55  6  1  0
 56 57  1  0
 57 58  1  0
 57 60  1  0
 59 57  1  0
 61 62  1  0
 61 55  1  0
 63 74  2  0
 64 62  1  0
 64 69  1  0
 65 73  1  0
 65 75  1  0
 66 72  1  0
 66 68  1  0
 67 73  1  0
 68 67  1  0
 69 68  2  0
 70 71  1  0
 70 64  2  0
 71 66  2  0
 72 65  1  0
 73 63  1  0
 75 77  2  0
 76 75  1  0
 78 76  1  0
 79 88  2  0
 79 84  1  0
 80 76  1  0
 80 84  1  0
 81 80  1  0
 82 83  1  0
 82 81  1  0
 83 79  1  0
 84 85  2  0
 85 86  1  0
 87 86  2  0
 88 87  1  0
 89 63  1  0
 89 94  1  0
 89 90  1  0
 90 93  1  1
 90 91  1  0
 92 90  1  0
 94 97  1  0
 95 99  1  0
 95 94  1  0
 96 95  2  0
 99 98  1  0
101 99  1  0
101102  1  0
101100  1  0
M  ISO  4  12 100  20 100  61 101  62 101
M  END
>  <TORSDO>  (90) 
F 26

>  <SCORE>  (90) 
-10.940

>  <name>  (90) 
90

>  <ligand_id>  (90) 
90

>  <original_smiles>  (90) 
[H]c1c([H])c([H])c2c(c1[H])C([H])([H])C([H])([H])C([H])([H])C2([H])N([H])C(=O)C1([H])N(C(=O)C([H])(N([H])C(=O)C([H])(N([H])C([H])([H])[H])C([H])([H])[H])C(C([H])([H])[H])(C([H])([H])[H])C([H])([H])[H])C([H])([H])c2c([H])c(OC([H])([H])C([H])(N3C([H])([H])C([H])([H])N(C([H])(C([H])([H])C([H])([H])C([H])([H])[H])C([H])(N([H])C(=O)N4C([H])([H])C([H])([H])C([H])([H])C([H])(n5nc(-c6c([H])c([H])c(Oc7c([H])c([H])c(F)c([H])c7F)c([H])c6[H])c(C(=O)N([H])[H])c5N([H])[H])C4([H])[H])C([H])([H])[N+]([H])([H])[H])C([H])([H])C3([H])[H])C([H])([H])[N+]([H])([H])[H])c([H])c([H])c2C1([H])[H]

>  <smiles>  (90) 
[H]c1c([H])c([H])c2c(c1[H])C([H])([H])C([H])([H])C([H])([H])C2([H])N([H])C(=O)C1([H])N(C(=O)C([H])(N([H])C(=O)C([H])(N([H])C([H])([H])[H])C([H])([H])[H])C(C([H])([H])[H])(C([H])([H])[H])C([H])([H])[H])C([H])([H])c2c([H])c(OC([H])([H])C([H])(N3C([H])([H])C([H])([H])N(C([H])(C([H])([H])C([H])([H])C([H])([H])[H])C([H])(N([H])C(=O)N4C([H])([H])C([H])([H])C([H])([H])C([H])(n5nc(-c6c([H])c([H])c(Oc7c([H])c([H])c(F)c([H])c7F)c([H])c6[H])c(C(=O)N([H])[H])c5N([H])[H])C4([H])[H])C([H])([H])[N+]([H])([H])[H])C([H])([H])C3([H])[H])C([H])([H])[N+]([H])([H])[H])c([H])c([H])c2C1([H])[H]

$$$$
91:0:0
     RDKit          3D

108117  0  0  1  0  0  0  0  0999 V2000
  -31.0960  -23.0400   21.4270 C   0  0  0  0  0  2  0  0  0  0  0  0
  -29.3780  -21.7910   20.2640 C   0  0  0  0  0  2  0  0  0  0  0  0
  -32.2190  -22.3230   20.6690 C   0  0  0  0  0  2  0  0  0  0  0  0
  -30.4140  -20.5790   20.4060 C   0  0  0  0  0  3  0  0  0  0  0  0
  -29.9200  -23.1550   20.5720 N   0  0  0  0  0  0  0  0  0  0  0  0
  -31.8070  -21.0220   20.0560 N   0  0  2  0  0  4  0  0  0  0  0  0
  -31.7560  -21.2170   19.0680 H   0  0  0  0  0  0  0  0  0  0  0  0
  -30.0450  -19.4240   19.5320 N   0  0  0  0  0  0  0  0  0  0  0  0
  -29.3130  -19.7240   18.8790 H   0  0  0  0  0  0  0  0  0  0  0  0
  -29.4650  -18.1600   20.0770 C   0  0  0  0  0  3  0  0  0  0  0  0
  -28.6470  -17.5740   18.9070 C   0  0  0  0  0  2  0  0  0  0  0  0
  -27.9400  -18.6130   18.1210 N   0  0  0  0  0  0  0  0  0  0  0  0
  -27.1780  -18.1720   17.5970 H   0  0  0  0  0  0  0  0  0  0  0  0
  -28.5600  -18.9230   17.3660 H   0  0  0  0  0  0  0  0  0  0  0  0
  -30.5110  -17.0880   20.5760 C   0  0  0  0  0  2  0  0  0  0  0  0
  -30.6760  -14.5560   20.4200 C   0  0  0  0  0  0  0  0  0  0  0  0
  -30.3600  -12.3520   19.3590 C   0  0  0  0  0  2  0  0  0  0  0  0
  -29.4320  -12.5060   18.1400 C   0  0  0  0  0  2  0  0  0  0  0  0
  -27.9580  -12.3730   18.5670 C   0  0  0  0  0  2  0  0  0  0  0  0
  -27.6030  -13.2430   19.8040 C   0  0  0  0  0  3  0  0  0  0  0  0
  -28.6580  -13.0930   20.9220 C   0  0  0  0  0  2  0  0  0  0  0  0
  -29.9770  -13.3860   20.3400 N   0  0  0  0  0  0  0  0  0  0  0  0
  -31.8360  -14.6410   20.0170 O   0  0  0  0  0  0  0  0  0  0  0  0
  -29.9970  -15.6880   20.7530 N   0  0  0  0  0  0  0  0  0  0  0  0
  -29.0530  -15.5750   21.0880 H   0  0  0  0  0  0  0  0  0  0  0  0
  -25.2030  -13.8400   20.5060 C   0  0  0  0  0  0  0  0  0  0  0  0
  -24.1350  -13.0670   20.8740 C   0  0  0  0  0  0  0  0  0  0  0  0
  -24.5990  -11.7160   20.8550 C   0  0  0  0  0  0  0  0  0  0  0  0
  -26.2510  -12.9600   20.2860 N   0  0  0  0  0  0  0  0  0  0  0  0
  -25.8920  -11.6790   20.5550 N   0  0  0  0  0  0  0  0  0  0  0  0
  -23.8730  -10.4540   21.0480 C   0  0  0  0  0  0  0  0  0  0  0  0
  -24.3070   -9.4830   21.9770 C   0  0  0  0  0  3  0  0  0  0  0  0
  -23.5790   -8.2880   22.1590 C   0  0  0  0  0  3  0  0  0  0  0  0
  -22.4020   -8.0540   21.4090 C   0  0  0  0  0  0  0  0  0  0  0  0
  -21.9860   -9.0140   20.4690 C   0  0  0  0  0  3  0  0  0  0  0  0
  -22.7150  -10.2010   20.2870 C   0  0  0  0  0  3  0  0  0  0  0  0
  -21.6460   -6.9090   21.4990 O   0  0  0  0  0  0  0  0  0  0  0  0
  -21.6140   -6.1570   22.6460 C   0  0  0  0  0  0  0  0  0  0  0  0
  -21.2180   -6.7050   23.8850 C   0  0  0  0  0  3  0  0  0  0  0  0
  -21.1300   -5.8800   25.0240 C   0  0  0  0  0  3  0  0  0  0  0  0
  -21.4310   -4.5090   24.9270 C   0  0  0  0  0  0  0  0  0  0  0  0
  -21.8210   -3.9590   23.6910 C   0  0  0  0  0  3  0  0  0  0  0  0
  -21.9100   -4.7810   22.5550 C   0  0  0  0  0  0  0  0  0  0  0  0
  -22.2650   -4.2430   21.3630 F   0  0  0  0  0  0  0  0  0  0  0  0
  -21.3390   -3.7140   26.0180 F   0  0  0  0  0  0  0  0  0  0  0  0
  -22.7370  -13.5460   21.1350 C   0  0  0  0  0  0  0  0  0  0  0  0
  -22.0050  -12.8560   22.0030 N   0  0  0  0  0  0  0  0  0  0  0  0
  -22.3020  -14.5680   20.6050 O   0  0  0  0  0  0  0  0  0  0  0  0
  -22.3650  -12.0310   22.4580 H   0  0  0  0  0  0  0  0  0  0  0  0
  -21.0680  -13.1620   22.2210 H   0  0  0  0  0  0  0  0  0  0  0  0
  -25.3640  -15.2080   20.3170 N   0  0  0  0  0  0  0  0  0  0  0  0
  -24.5920  -15.8590   20.4220 H   0  0  0  0  0  0  0  0  0  0  0  0
  -26.2030  -15.6450   19.9640 H   0  0  0  0  0  0  0  0  0  0  0  0
  -32.8680  -19.9800   20.2040 C   0  0  0  0  0  2  0  0  0  0  0  0
  -35.3460  -20.8570   16.6010 C   0  0  0  0  0  2  0  0  0  0  0  0
  -34.3570  -19.6800   16.5590 C   0  0  0  0  0  2  0  0  0  0  0  0
  -35.9840  -20.9960   17.9920 C   0  0  0  0  0  2  0  0  0  0  0  0
  -33.2830  -19.7950   17.6590 C   0  0  0  0  0  2  0  0  0  0  0  0
  -34.9040  -21.1580   19.0740 C   0  0  0  0  0  2  0  0  0  0  0  0
  -33.9150  -19.9710   19.0580 C   0  0  0  0  0  3  0  0  0  0  0  0
  -29.0280  -24.3240   20.9270 C   0  0  0  0  0  3  0  0  0  0  0  0
  -28.0500  -24.1080   22.1140 C   0  0  0  0  0  2  0  0  0  0  0  0
  -25.6110  -23.9980   21.5220 C   0  0  0  0  0  1  0  0  0  0  0  0
  -26.8640  -23.2720   21.8160 N   0  0  0  0  0  4  0  0  0  0  0  0
  -27.0710  -22.6260   21.0750 H   0  0  0  0  0  0  0  0  0  0  0  0
  -26.6840  -22.7210   22.6410 H   0  0  0  0  0  0  0  0  0  0  0  0
  -28.4730  -25.2110   19.7540 C   0  0  0  0  0  2  0  0  0  0  0  0
  -28.4110  -26.6340   20.0910 O   0  0  0  0  0  0  0  0  0  0  0  0
  -24.6140  -31.8550   23.1780 C   0  0  0  0  0  0  0  0  0  0  0  0
  -27.2320  -27.3770   20.0550 C   0  0  0  0  0  0  0  0  0  0  0  0
  -23.4010  -30.4660   21.5350 C   0  0  0  0  0  3  0  0  0  0  0  0
  -24.8450  -28.9350   20.0870 C   0  0  0  0  0  0  0  0  0  0  0  0
  -25.9320  -30.8060   21.3310 C   0  0  0  0  0  2  0  0  0  0  0  0
  -26.0090  -29.4350   20.6800 C   0  0  0  0  0  0  0  0  0  0  0  0
  -27.1990  -28.6620   20.6620 C   0  0  0  0  0  3  0  0  0  0  0  0
  -26.0500  -26.9220   19.4260 C   0  0  0  0  0  3  0  0  0  0  0  0
  -24.8650  -27.6810   19.4530 C   0  0  0  0  0  3  0  0  0  0  0  0
  -23.6030  -29.8000   20.1490 C   0  0  0  0  0  2  0  0  0  0  0  0
  -24.6690  -31.0570   22.0720 N   0  0  0  0  0  0  0  0  0  0  0  0
  -23.5340  -32.1250   23.7220 O   0  0  0  0  0  0  0  0  0  0  0  0
  -22.7500  -29.4370   22.4910 C   0  0  0  0  0  0  0  0  0  0  0  0
  -21.4230  -29.2680   22.3790 N   0  0  0  0  0  0  0  0  0  0  0  0
  -23.4380  -28.7950   23.2900 O   0  0  0  0  0  0  0  0  0  0  0  0
  -20.9260  -29.8370   21.7070 H   0  0  0  0  0  0  0  0  0  0  0  0
  -18.0450  -28.1010   22.9150 C   0  0  0  0  0  0  0  0  0  0  0  0
  -20.6100  -28.3280   23.1490 C   0  0  0  0  0  3  0  0  0  0  0  0
  -20.6870  -26.9040   22.5480 C   0  0  0  0  0  2  0  0  0  0  0  0
  -19.5660  -26.6100   21.5480 C   0  0  0  0  0  2  0  0  0  0  0  0
  -18.1960  -26.7600   22.2170 C   0  0  0  0  0  2  0  0  0  0  0  0
  -19.1790  -28.8440   23.3390 C   0  0  0  0  0  0  0  0  0  0  0  0
  -18.9840  -30.1000   23.9530 C   0  0  0  0  0  3  0  0  0  0  0  0
  -17.6880  -30.6150   24.1460 C   0  0  0  0  0  3  0  0  0  0  0  0
  -16.5680  -29.8690   23.7390 C   0  0  0  0  0  3  0  0  0  0  0  0
  -16.7490  -28.6130   23.1310 C   0  0  0  0  0  3  0  0  0  0  0  0
  -25.9020  -32.4840   23.7960 C   0  0  0  0  0  3  0  0  0  0  0  0
  -25.5880  -33.8760   24.1480 N   0  0  0  0  0  0  0  0  0  0  0  0
  -25.9080  -34.9390   23.3980 C   0  0  0  0  0  0  0  0  0  0  0  0
  -26.5700  -34.8530   22.3590 O   0  0  0  0  0  0  0  0  0  0  0  0
  -25.0010  -34.0200   24.9560 H   0  0  0  0  0  0  0  0  0  0  0  0
  -24.1680  -36.7270   23.0850 C   0  0  0  0  0  1  0  0  0  0  0  0
  -25.4190  -36.3200   23.8780 C   0  0  0  0  0  3  0  0  0  0  0  0
  -27.5600  -37.2030   24.6950 C   0  0  0  0  0  1  0  0  0  0  0  0
  -26.4460  -37.3790   23.7670 N   0  0  0  0  0  0  0  0  0  0  0  0
  -26.0380  -38.2950   23.9320 H   0  0  0  0  0  0  0  0  0  0  0  0
  -26.4340  -31.6970   25.0550 C   0  0  1  0  0  0  0  0  0  0  0  0
  -25.3530  -31.4400   26.1320 C   0  0  0  0  0  1  0  0  0  0  0  0
  -27.0150  -30.3250   24.6360 C   0  0  0  0  0  1  0  0  0  0  0  0
  -27.5900  -32.4850   25.7160 C   0  0  0  0  0  1  0  0  0  0  0  0
  2  4  1  0
  2  5  1  0
  3  1  1  0
  4  8  1  0
  5 61  1  0
  5  1  1  0
  6 54  1  0
  6  4  1  0
  6  3  1  0
  6  7  1  6
  8 10  1  0
  9  8  1  0
 10 11  1  0
 10 15  1  0
 12 11  1  0
 13 12  1  0
 14 12  1  0
 15 24  1  0
 16 24  1  0
 17 22  1  0
 18 19  1  0
 18 17  1  0
 20 19  1  0
 20 29  1  0
 20 21  1  0
 22 16  1  0
 22 21  1  0
 23 16  2  0
 24 25  1  0
 26 27  2  0
 27 46  1  0
 28 27  1  0
 28 31  1  0
 29 26  1  0
 29 30  1  0
 30 28  2  0
 31 32  1  0
 32 33  2  0
 34 37  1  0
 34 33  1  0
 35 34  2  0
 36 35  1  0
 36 31  2  0
 37 38  1  0
 38 39  1  0
 39 40  2  0
 41 40  1  0
 41 45  1  0
 42 41  2  0
 43 38  2  0
 43 42  1  0
 44 43  1  0
 46 47  1  0
 47 50  1  0
 47 49  1  0
 48 46  2  0
 51 52  1  0
 51 26  1  0
 53 51  1  0
 55 57  1  0
 56 55  1  0
 56 58  1  0
 57 59  1  0
 58 60  1  0
 60 59  1  0
 60 54  1  0
 61 67  1  0
 61 62  1  0
 63 64  1  0
 64 62  1  0
 64 66  1  0
 65 64  1  0
 67 68  1  0
 69 80  2  0
 70 68  1  0
 70 75  1  0
 71 79  1  0
 71 81  1  0
 72 78  1  0
 72 74  1  0
 73 79  1  0
 74 73  1  0
 75 74  2  0
 76 77  1  0
 76 70  2  0
 77 72  2  0
 78 71  1  0
 79 69  1  0
 81 83  2  0
 82 81  1  0
 84 82  1  0
 85 94  2  0
 85 90  1  0
 86 82  1  0
 86 90  1  0
 87 86  1  0
 88 89  1  0
 88 87  1  0
 89 85  1  0
 90 91  2  0
 91 92  1  0
 93 92  2  0
 94 93  1  0
 95 69  1  0
 95 96  1  0
 95105  1  0
 96 99  1  0
 97101  1  0
 97 96  1  0
 98 97  2  0
101100  1  0
103101  1  0
103104  1  0
103102  1  0
105108  1  1
105106  1  0
107105  1  0
M  ISO  4  16 100  24 100  67 101  68 101
M  END
>  <TORSDO>  (91) 
F 27

>  <SCORE>  (91) 
-12.129

>  <name>  (91) 
91

>  <ligand_id>  (91) 
91

>  <original_smiles>  (91) 
[H]c1c([H])c([H])c2c(c1[H])C([H])([H])C([H])([H])C([H])([H])C2([H])N([H])C(=O)C1([H])N(C(=O)C([H])(N([H])C(=O)C([H])(N([H])C([H])([H])[H])C([H])([H])[H])C(C([H])([H])[H])(C([H])([H])[H])C([H])([H])[H])C([H])([H])c2c([H])c(OC([H])([H])C([H])(N3C([H])([H])C([H])([H])[N+]([H])(C([H])([H])C4([H])C([H])([H])C([H])([H])C([H])([H])C([H])([H])C4([H])[H])C([H])(N([H])C([H])(C([H])([H])N([H])[H])C([H])([H])N([H])C(=O)N4C([H])([H])C([H])([H])C([H])([H])C([H])(n5nc(-c6c([H])c([H])c(Oc7c([H])c([H])c(F)c([H])c7F)c([H])c6[H])c(C(=O)N([H])[H])c5N([H])[H])C4([H])[H])C3([H])[H])C([H])([H])[N+]([H])([H])C([H])([H])[H])c([H])c([H])c2C1([H])[H]

>  <smiles>  (91) 
[H]c1c([H])c([H])c2c(c1[H])C([H])([H])C([H])([H])C([H])([H])C2([H])N([H])C(=O)C1([H])N(C(=O)C([H])(N([H])C(=O)C([H])(N([H])C([H])([H])[H])C([H])([H])[H])C(C([H])([H])[H])(C([H])([H])[H])C([H])([H])[H])C([H])([H])c2c([H])c(OC([H])([H])C([H])(N3C([H])([H])C([H])([H])[N+]([H])(C([H])([H])C4([H])C([H])([H])C([H])([H])C([H])([H])C([H])([H])C4([H])[H])C([H])(N([H])C([H])(C([H])([H])N([H])[H])C([H])([H])N([H])C(=O)N4C([H])([H])C([H])([H])C([H])([H])C([H])(n5nc(-c6c([H])c([H])c(Oc7c([H])c([H])c(F)c([H])c7F)c([H])c6[H])c(C(=O)N([H])[H])c5N([H])[H])C4([H])[H])C3([H])[H])C([H])([H])[N+]([H])([H])C([H])([H])[H])c([H])c([H])c2C1([H])[H]

$$$$
92:0:0
     RDKit          3D

108116  0  0  1  0  0  0  0  0999 V2000
  -30.6910  -18.7480   19.6240 N   0  0  1  0  0  4  0  0  0  0  0  0
  -31.2330  -19.1080   20.3940 H   0  0  0  0  0  0  0  0  0  0  0  0
  -31.6340  -18.7920   18.4490 C   0  0  0  0  0  2  0  0  0  0  0  0
  -29.7640  -20.5570   15.4530 C   0  0  0  0  0  2  0  0  0  0  0  0
  -30.1100  -19.6110   14.2800 C   0  0  0  0  0  2  0  0  0  0  0  0
  -30.7870  -20.4850   16.6050 C   0  0  0  0  0  2  0  0  0  0  0  0
  -30.5180  -18.1860   14.7230 C   0  0  0  0  0  2  0  0  0  0  0  0
  -30.9520  -19.0140   17.0540 C   0  0  0  0  0  3  0  0  0  0  0  0
  -31.5450  -18.1820   15.8770 C   0  0  0  0  0  3  0  0  0  0  0  0
  -32.8610  -18.6680   15.4020 N   0  0  0  0  0  4  0  0  0  0  0  0
  -32.8090  -19.6180   15.0800 H   0  0  0  0  0  0  0  0  0  0  0  0
  -33.1790  -18.1070   14.6320 H   0  0  0  0  0  0  0  0  0  0  0  0
  -33.5670  -18.6150   16.1130 H   0  0  0  0  0  0  0  0  0  0  0  0
  -29.5170  -19.6670   19.4700 C   0  0  0  0  0  2  0  0  0  0  0  0
  -30.2220  -21.5210   21.0510 C   0  0  0  0  0  1  0  0  0  0  0  0
  -29.8610  -21.1820   19.5910 C   0  0  0  0  0  3  0  0  0  0  0  0
  -28.6870  -22.0640   19.0860 C   0  0  0  0  0  2  0  0  0  0  0  0
  -29.0880  -23.4680   18.8080 N   0  0  0  0  0  4  0  0  0  0  0  0
  -29.6120  -23.8140   19.5980 H   0  0  0  0  0  0  0  0  0  0  0  0
  -29.7020  -23.4820   18.0060 H   0  0  0  0  0  0  0  0  0  0  0  0
  -27.9440  -24.3880   18.5710 C   0  0  0  0  0  2  0  0  0  0  0  0
  -28.3590  -25.8740   18.4210 C   0  0  0  0  0  2  0  0  0  0  0  0
  -28.1250  -26.6410   19.6110 O   0  0  0  0  0  0  0  0  0  0  0  0
  -24.4860  -31.6930   23.0770 C   0  0  0  0  0  0  0  0  0  0  0  0
  -26.9370  -27.3370   19.7090 C   0  0  0  0  0  0  0  0  0  0  0  0
  -23.1850  -30.3570   21.4480 C   0  0  0  0  0  3  0  0  0  0  0  0
  -24.5520  -28.8470   19.9160 C   0  0  0  0  0  0  0  0  0  0  0  0
  -25.7040  -30.6860   21.1520 C   0  0  0  0  0  2  0  0  0  0  0  0
  -25.7390  -29.3320   20.4760 C   0  0  0  0  0  0  0  0  0  0  0  0
  -26.9250  -28.5730   20.3950 C   0  0  0  0  0  3  0  0  0  0  0  0
  -25.7260  -26.8650   19.1450 C   0  0  0  0  0  3  0  0  0  0  0  0
  -24.5390  -27.6070   19.2570 C   0  0  0  0  0  3  0  0  0  0  0  0
  -23.3210  -29.7130   20.0430 C   0  0  0  0  0  2  0  0  0  0  0  0
  -24.4800  -30.9250   21.9500 N   0  0  0  0  0  0  0  0  0  0  0  0
  -23.4340  -31.9640   23.6720 O   0  0  0  0  0  0  0  0  0  0  0  0
  -22.5640  -29.3170   22.4050 C   0  0  0  0  0  0  0  0  0  0  0  0
  -21.2440  -29.1100   22.2860 N   0  0  0  0  0  0  0  0  0  0  0  0
  -23.2660  -28.6980   23.2100 O   0  0  0  0  0  0  0  0  0  0  0  0
  -20.7380  -29.6630   21.6070 H   0  0  0  0  0  0  0  0  0  0  0  0
  -17.9080  -27.8070   22.7490 C   0  0  0  0  0  0  0  0  0  0  0  0
  -20.4510  -28.1520   23.0530 C   0  0  0  0  0  3  0  0  0  0  0  0
  -20.6080  -26.7210   22.4890 C   0  0  0  0  0  2  0  0  0  0  0  0
  -19.5310  -26.3520   21.4630 C   0  0  0  0  0  2  0  0  0  0  0  0
  -18.1370  -26.4580   22.0870 C   0  0  0  0  0  2  0  0  0  0  0  0
  -18.9930  -28.6080   23.1870 C   0  0  0  0  0  0  0  0  0  0  0  0
  -18.7260  -29.8700   23.7630 C   0  0  0  0  0  3  0  0  0  0  0  0
  -17.4040  -30.3290   23.9040 C   0  0  0  0  0  3  0  0  0  0  0  0
  -16.3310  -29.5250   23.4840 C   0  0  0  0  0  3  0  0  0  0  0  0
  -16.5840  -28.2650   22.9110 C   0  0  0  0  0  3  0  0  0  0  0  0
  -25.8090  -32.2830   23.6560 C   0  0  0  0  0  3  0  0  0  0  0  0
  -25.5320  -33.6680   24.0610 N   0  0  0  0  0  0  0  0  0  0  0  0
  -25.8600  -34.7510   23.3440 C   0  0  0  0  0  0  0  0  0  0  0  0
  -26.5000  -34.6880   22.2910 O   0  0  0  0  0  0  0  0  0  0  0  0
  -24.9600  -33.7910   24.8830 H   0  0  0  0  0  0  0  0  0  0  0  0
  -24.1510  -36.5830   23.1200 C   0  0  0  0  0  1  0  0  0  0  0  0
  -25.4050  -36.1220   23.8810 C   0  0  0  0  0  3  0  0  0  0  0  0
  -27.5760  -36.9290   24.6950 C   0  0  0  0  0  1  0  0  0  0  0  0
  -26.4510  -37.1640   23.7930 N   0  0  0  0  0  0  0  0  0  0  0  0
  -26.0640  -38.0810   24.0000 H   0  0  0  0  0  0  0  0  0  0  0  0
  -26.3860  -31.4500   24.8640 C   0  0  1  0  0  0  0  0  0  0  0  0
  -25.3420  -31.1460   25.9630 C   0  0  0  0  0  1  0  0  0  0  0  0
  -26.9610  -30.1010   24.3730 C   0  0  0  0  0  1  0  0  0  0  0  0
  -27.5590  -32.2190   25.5190 C   0  0  0  0  0  1  0  0  0  0  0  0
  -30.2890  -17.3430   19.9960 C   0  0  0  0  0  2  0  0  0  0  0  0
  -30.8270  -16.7510   21.3480 C   0  0  0  0  0  3  0  0  0  0  0  0
  -30.9970  -14.4260   20.4830 C   0  0  0  0  0  0  0  0  0  0  0  0
  -30.5600  -12.4330   19.1080 C   0  0  0  0  0  2  0  0  0  0  0  0
  -29.6070  -12.8050   17.9570 C   0  0  0  0  0  2  0  0  0  0  0  0
  -28.1370  -12.6750   18.3930 C   0  0  0  0  0  2  0  0  0  0  0  0
  -27.8550  -13.3920   19.7380 C   0  0  0  0  0  3  0  0  0  0  0  0
  -28.9190  -13.0350   20.8030 C   0  0  0  0  0  2  0  0  0  0  0  0
  -30.2570  -13.3130   20.2490 N   0  0  0  0  0  0  0  0  0  0  0  0
  -32.0320  -14.6910   19.8640 O   0  0  0  0  0  0  0  0  0  0  0  0
  -30.4590  -15.3210   21.3220 N   0  0  0  0  0  0  0  0  0  0  0  0
  -29.6530  -15.0210   21.8520 H   0  0  0  0  0  0  0  0  0  0  0  0
  -25.4620  -14.0040   20.4610 C   0  0  0  0  0  0  0  0  0  0  0  0
  -24.3950  -13.2310   20.8310 C   0  0  0  0  0  0  0  0  0  0  0  0
  -24.8510  -11.8780   20.7840 C   0  0  0  0  0  0  0  0  0  0  0  0
  -26.5020  -13.1210   20.2160 N   0  0  0  0  0  0  0  0  0  0  0  0
  -26.1380  -11.8360   20.4620 N   0  0  0  0  0  0  0  0  0  0  0  0
  -24.1200  -10.6190   20.9690 C   0  0  0  0  0  0  0  0  0  0  0  0
  -24.5340   -9.6590   21.9170 C   0  0  0  0  0  3  0  0  0  0  0  0
  -23.8050   -8.4630   22.0920 C   0  0  0  0  0  3  0  0  0  0  0  0
  -22.6460   -8.2190   21.3160 C   0  0  0  0  0  0  0  0  0  0  0  0
  -22.2510   -9.1670   20.3570 C   0  0  0  0  0  3  0  0  0  0  0  0
  -22.9800  -10.3540   20.1810 C   0  0  0  0  0  3  0  0  0  0  0  0
  -21.8900   -7.0750   21.3960 O   0  0  0  0  0  0  0  0  0  0  0  0
  -21.8040   -6.3510   22.5580 C   0  0  0  0  0  0  0  0  0  0  0  0
  -21.3370   -6.9250   23.7620 C   0  0  0  0  0  3  0  0  0  0  0  0
  -21.2040   -6.1270   24.9160 C   0  0  0  0  0  3  0  0  0  0  0  0
  -21.5210   -4.7550   24.8640 C   0  0  0  0  0  0  0  0  0  0  0  0
  -21.9820   -4.1820   23.6650 C   0  0  0  0  0  3  0  0  0  0  0  0
  -22.1200   -4.9780   22.5150 C   0  0  0  0  0  0  0  0  0  0  0  0
  -22.5410   -4.4170   21.3560 F   0  0  0  0  0  0  0  0  0  0  0  0
  -21.3820   -3.9860   25.9680 F   0  0  0  0  0  0  0  0  0  0  0  0
  -23.0040  -13.7100   21.1210 C   0  0  0  0  0  0  0  0  0  0  0  0
  -22.2960  -13.0300   22.0140 N   0  0  0  0  0  0  0  0  0  0  0  0
  -22.5530  -14.7250   20.5880 O   0  0  0  0  0  0  0  0  0  0  0  0
  -22.6740  -12.2110   22.4700 H   0  0  0  0  0  0  0  0  0  0  0  0
  -21.3600  -13.3240   22.2510 H   0  0  0  0  0  0  0  0  0  0  0  0
  -25.6270  -15.3760   20.2890 N   0  0  0  0  0  0  0  0  0  0  0  0
  -24.8630  -16.0270   20.4330 H   0  0  0  0  0  0  0  0  0  0  0  0
  -26.4360  -15.8100   19.8680 H   0  0  0  0  0  0  0  0  0  0  0  0
  -30.2260  -17.3510   22.6580 C   0  0  0  0  0  2  0  0  0  0  0  0
  -30.8760  -18.5830   23.1420 N   0  0  0  0  0  4  0  0  0  0  0  0
  -30.6000  -19.4080   22.6490 H   0  0  0  0  0  0  0  0  0  0  0  0
  -31.8790  -18.4970   23.1410 H   0  0  0  0  0  0  0  0  0  0  0  0
  -30.6150  -18.7280   24.1010 H   0  0  0  0  0  0  0  0  0  0  0  0
  1 64  1  0
  1  2  1  1
  3  1  1  0
  4  6  1  0
  5  7  1  0
  5  4  1  0
  6  8  1  0
  7  9  1  0
  8  3  1  0
  9 10  1  0
  9  8  1  0
 10 13  1  0
 11 10  1  0
 12 10  1  0
 14 16  1  0
 14  1  1  0
 16 15  1  0
 17 16  1  0
 18 17  1  0
 18 19  1  0
 20 18  1  0
 21 18  1  0
 22 21  1  0
 22 23  1  0
 23 25  1  0
 24 35  2  0
 25 30  1  0
 26 34  1  0
 26 36  1  0
 27 33  1  0
 27 29  1  0
 28 34  1  0
 29 28  1  0
 30 29  2  0
 31 32  1  0
 31 25  2  0
 32 27  2  0
 33 26  1  0
 34 24  1  0
 36 38  2  0
 37 36  1  0
 39 37  1  0
 40 49  2  0
 40 45  1  0
 41 37  1  0
 41 45  1  0
 42 41  1  0
 43 44  1  0
 43 42  1  0
 44 40  1  0
 45 46  2  0
 46 47  1  0
 48 47  2  0
 49 48  1  0
 50 24  1  0
 50 51  1  0
 50 60  1  0
 51 54  1  0
 52 56  1  0
 52 51  1  0
 53 52  2  0
 56 55  1  0
 58 56  1  0
 58 59  1  0
 58 57  1  0
 60 63  1  1
 60 61  1  0
 62 60  1  0
 65 64  1  0
 65104  1  0
 66 74  1  0
 67 72  1  0
 68 69  1  0
 68 67  1  0
 70 69  1  0
 70 79  1  0
 70 71  1  0
 72 66  1  0
 72 71  1  0
 73 66  2  0
 74 65  1  0
 74 75  1  0
 76 77  2  0
 77 96  1  0
 78 77  1  0
 78 81  1  0
 79 76  1  0
 79 80  1  0
 80 78  2  0
 81 82  1  0
 82 83  2  0
 84 87  1  0
 84 83  1  0
 85 84  2  0
 86 85  1  0
 86 81  2  0
 87 88  1  0
 88 89  1  0
 89 90  2  0
 91 90  1  0
 91 95  1  0
 92 91  2  0
 93 88  2  0
 93 92  1  0
 94 93  1  0
 96 97  1  0
 97100  1  0
 97 99  1  0
 98 96  2  0
101102  1  0
101 76  1  0
103101  1  0
104105  1  0
105108  1  0
106105  1  0
107105  1  0
M  ISO  4  22 101  23 101  66 100  74 100
M  END
>  <TORSDO>  (92) 
F 29

>  <SCORE>  (92) 
-11.195

>  <name>  (92) 
92

>  <ligand_id>  (92) 
92

>  <original_smiles>  (92) 
[H]c1c([H])c([H])c2c(c1[H])C([H])([H])C([H])([H])C([H])([H])C2([H])N([H])C(=O)C1([H])N(C(=O)C([H])(N([H])C(=O)C([H])(N([H])C([H])([H])[H])C([H])([H])[H])C(C([H])([H])[H])(C([H])([H])[H])C([H])([H])[H])C([H])([H])c2c([H])c(OC([H])([H])C([H])([H])[N+]([H])([H])C([H])([H])C([H])(C([H])([H])[H])C([H])([H])[N+]([H])(C([H])([H])C([H])(N([H])C(=O)N3C([H])([H])C([H])([H])C([H])([H])C([H])(n4nc(-c5c([H])c([H])c(Oc6c([H])c([H])c(F)c([H])c6F)c([H])c5[H])c(C(=O)N([H])[H])c4N([H])[H])C3([H])[H])C([H])([H])[N+]([H])([H])[H])C([H])([H])C3([H])C([H])([H])C([H])([H])C([H])([H])C([H])([H])C3([H])[N+]([H])([H])[H])c([H])c([H])c2C1([H])[H]

>  <smiles>  (92) 
[H]c1c([H])c([H])c2c(c1[H])C([H])([H])C([H])([H])C([H])([H])C2([H])N([H])C(=O)C1([H])N(C(=O)C([H])(N([H])C(=O)C([H])(N([H])C([H])([H])[H])C([H])([H])[H])C(C([H])([H])[H])(C([H])([H])[H])C([H])([H])[H])C([H])([H])c2c([H])c(OC([H])([H])C([H])([H])[N+]([H])([H])C([H])([H])C([H])(C([H])([H])[H])C([H])([H])[N+]([H])(C([H])([H])C([H])(N([H])C(=O)N3C([H])([H])C([H])([H])C([H])([H])C([H])(n4nc(-c5c([H])c([H])c(Oc6c([H])c([H])c(F)c([H])c6F)c([H])c5[H])c(C(=O)N([H])[H])c4N([H])[H])C3([H])[H])C([H])([H])[N+]([H])([H])[H])C([H])([H])C3([H])C([H])([H])C([H])([H])C([H])([H])C([H])([H])C3([H])[N+]([H])([H])[H])c([H])c([H])c2C1([H])[H]

$$$$
93:0:0
     RDKit          3D

 99107  0  0  1  0  0  0  0  0999 V2000
  -29.4600  -22.0180   19.9690 N   0  0  0  0  0  0  0  0  0  0  0  0
  -30.8540  -22.4180   19.7830 C   0  0  0  0  0  2  0  0  0  0  0  0
  -31.4560  -22.0200   18.4180 C   0  0  0  0  0  2  0  0  0  0  0  0
  -32.7910  -22.6020   18.2070 N   0  0  0  0  0  4  0  0  0  0  0  0
  -32.7560  -23.6050   18.2650 H   0  0  0  0  0  0  0  0  0  0  0  0
  -33.1290  -22.3570   17.2930 H   0  0  0  0  0  0  0  0  0  0  0  0
  -33.4480  -22.2600   18.8860 H   0  0  0  0  0  0  0  0  0  0  0  0
  -28.4930  -23.1870   20.4770 C   0  0  0  0  0  2  0  0  0  0  0  0
  -28.2880  -24.6950   19.7250 C   0  0  0  0  0  2  0  0  0  0  0  0
  -28.1630  -26.1340   20.3110 O   0  0  0  0  0  0  0  0  0  0  0  0
  -24.5690  -31.8630   23.1570 C   0  0  0  0  0  0  0  0  0  0  0  0
  -27.0810  -27.0790   20.1870 C   0  0  0  0  0  0  0  0  0  0  0  0
  -23.3330  -30.4370   21.5670 C   0  0  0  0  0  3  0  0  0  0  0  0
  -24.7520  -28.8210   20.1510 C   0  0  0  0  0  0  0  0  0  0  0  0
  -25.8810  -30.6890   21.3530 C   0  0  0  0  0  2  0  0  0  0  0  0
  -25.9380  -29.2820   20.7330 C   0  0  0  0  0  0  0  0  0  0  0  0
  -27.0980  -28.4230   20.7370 C   0  0  0  0  0  3  0  0  0  0  0  0
  -25.8690  -26.7100   19.5660 C   0  0  0  0  0  3  0  0  0  0  0  0
  -24.7290  -27.5480   19.5540 C   0  0  0  0  0  3  0  0  0  0  0  0
  -23.5280  -29.7230   20.2000 C   0  0  0  0  0  2  0  0  0  0  0  0
  -24.6150  -31.0200   22.0800 N   0  0  0  0  0  0  0  0  0  0  0  0
  -23.4930  -32.1650   23.6990 O   0  0  0  0  0  0  0  0  0  0  0  0
  -22.6670  -29.4570   22.5650 C   0  0  0  0  0  0  0  0  0  0  0  0
  -21.3370  -29.2890   22.4630 N   0  0  0  0  0  0  0  0  0  0  0  0
  -23.3500  -28.8470   23.3910 O   0  0  0  0  0  0  0  0  0  0  0  0
  -20.8410  -29.8330   21.7700 H   0  0  0  0  0  0  0  0  0  0  0  0
  -17.9640  -28.0960   23.0220 C   0  0  0  0  0  0  0  0  0  0  0  0
  -20.5230  -28.3750   23.2680 C   0  0  0  0  0  3  0  0  0  0  0  0
  -20.6260  -26.9260   22.7390 C   0  0  0  0  0  2  0  0  0  0  0  0
  -19.5210  -26.5690   21.7400 C   0  0  0  0  0  2  0  0  0  0  0  0
  -18.1420  -26.7280   22.3860 C   0  0  0  0  0  2  0  0  0  0  0  0
  -19.0820  -28.8750   23.4220 C   0  0  0  0  0  0  0  0  0  0  0  0
  -18.8590  -30.1540   23.9800 C   0  0  0  0  0  3  0  0  0  0  0  0
  -17.5530  -30.6520   24.1430 C   0  0  0  0  0  3  0  0  0  0  0  0
  -16.4500  -29.8700   23.7590 C   0  0  0  0  0  3  0  0  0  0  0  0
  -16.6560  -28.5930   23.2030 C   0  0  0  0  0  3  0  0  0  0  0  0
  -25.8600  -32.5050   23.7490 C   0  0  0  0  0  3  0  0  0  0  0  0
  -26.4270  -31.7220   24.9970 C   0  0  1  0  0  0  0  0  0  0  0  0
  -25.3710  -31.4560   26.0950 C   0  0  0  0  0  1  0  0  0  0  0  0
  -27.0160  -30.3570   24.5700 C   0  0  0  0  0  1  0  0  0  0  0  0
  -27.5890  -32.5210   25.6340 C   0  0  0  0  0  1  0  0  0  0  0  0
  -25.5430  -33.8940   24.1170 N   0  0  0  0  0  0  0  0  0  0  0  0
  -25.8420  -34.9700   23.3750 C   0  0  0  0  0  0  0  0  0  0  0  0
  -26.4790  -34.8970   22.3230 O   0  0  0  0  0  0  0  0  0  0  0  0
  -24.9720  -34.0220   24.9390 H   0  0  0  0  0  0  0  0  0  0  0  0
  -24.0830  -36.7530   23.1260 C   0  0  0  0  0  1  0  0  0  0  0  0
  -25.3570  -36.3420   23.8830 C   0  0  0  0  0  3  0  0  0  0  0  0
  -27.5120  -37.2340   24.6540 C   0  0  0  0  0  1  0  0  0  0  0  0
  -26.3740  -37.4110   23.7560 N   0  0  0  0  0  0  0  0  0  0  0  0
  -25.9630  -38.3220   23.9400 H   0  0  0  0  0  0  0  0  0  0  0  0
  -29.2020  -20.4390   19.9910 C   0  0  0  0  0  2  0  0  0  0  0  0
  -30.3460  -19.1680   20.0100 C   0  0  0  0  0  3  0  0  0  0  0  0
  -30.1210  -18.5850   22.3980 C   0  0  0  0  0  2  0  0  0  0  0  0
  -31.7230  -20.2470   21.7450 C   0  0  0  0  0  2  0  0  0  0  0  0
  -30.9090  -18.2900   23.6920 C   0  0  0  0  0  2  0  0  0  0  0  0
  -32.5360  -20.0170   23.0390 C   0  0  0  0  0  2  0  0  0  0  0  0
  -31.0090  -19.0330   21.3170 N   0  0  0  0  0  0  0  0  0  0  0  0
  -31.6670  -19.4880   24.1140 N   0  0  0  0  0  4  0  0  0  0  0  0
  -32.2330  -19.2620   24.9160 H   0  0  0  0  0  0  0  0  0  0  0  0
  -31.0170  -20.2050   24.3900 H   0  0  0  0  0  0  0  0  0  0  0  0
  -30.0540  -17.6220   19.3790 C   0  0  0  0  0  2  0  0  0  0  0  0
  -30.8600  -15.0570   20.0400 C   0  0  0  0  0  0  0  0  0  0  0  0
  -30.7880  -12.6130   19.3750 C   0  0  0  0  0  2  0  0  0  0  0  0
  -29.8770  -12.4460   18.1350 C   0  0  0  0  0  2  0  0  0  0  0  0
  -28.4070  -12.2700   18.5600 C   0  0  0  0  0  2  0  0  0  0  0  0
  -27.9780  -13.2980   19.6390 C   0  0  0  0  0  3  0  0  0  0  0  0
  -29.0140  -13.4260   20.7780 C   0  0  0  0  0  2  0  0  0  0  0  0
  -30.2960  -13.7870   20.1590 N   0  0  0  0  0  0  0  0  0  0  0  0
  -32.0350  -15.1200   19.6630 O   0  0  0  0  0  0  0  0  0  0  0  0
  -30.0590  -16.2280   20.1390 N   0  0  0  0  0  0  0  0  0  0  0  0
  -29.1720  -16.0310   20.5770 H   0  0  0  0  0  0  0  0  0  0  0  0
  -25.6150  -13.9370   20.3850 C   0  0  0  0  0  0  0  0  0  0  0  0
  -24.5360  -13.1900   20.7740 C   0  0  0  0  0  0  0  0  0  0  0  0
  -24.9710  -11.8290   20.7530 C   0  0  0  0  0  0  0  0  0  0  0  0
  -26.6360  -13.0330   20.1460 N   0  0  0  0  0  0  0  0  0  0  0  0
  -26.2580  -11.7610   20.4320 N   0  0  0  0  0  0  0  0  0  0  0  0
  -24.2170  -10.5850   20.9620 C   0  0  0  0  0  0  0  0  0  0  0  0
  -24.5980   -9.6440   21.9430 C   0  0  0  0  0  3  0  0  0  0  0  0
  -23.8450   -8.4670   22.1380 C   0  0  0  0  0  3  0  0  0  0  0  0
  -22.6940   -8.2220   21.3530 C   0  0  0  0  0  0  0  0  0  0  0  0
  -22.3310   -9.1510   20.3610 C   0  0  0  0  0  3  0  0  0  0  0  0
  -23.0860  -10.3190   20.1640 C   0  0  0  0  0  3  0  0  0  0  0  0
  -21.9170   -7.0930   21.4540 O   0  0  0  0  0  0  0  0  0  0  0  0
  -21.7710   -6.4250   22.6440 C   0  0  0  0  0  0  0  0  0  0  0  0
  -21.2600   -7.0590   23.7980 C   0  0  0  0  0  3  0  0  0  0  0  0
  -21.0590   -6.3160   24.9790 C   0  0  0  0  0  3  0  0  0  0  0  0
  -21.3590   -4.9420   25.0060 C   0  0  0  0  0  0  0  0  0  0  0  0
  -21.8650   -4.3080   23.8570 C   0  0  0  0  0  3  0  0  0  0  0  0
  -22.0670   -5.0480   22.6790 C   0  0  0  0  0  0  0  0  0  0  0  0
  -22.5310   -4.4270   21.5680 F   0  0  0  0  0  0  0  0  0  0  0  0
  -21.1610   -4.2270   26.1380 F   0  0  0  0  0  0  0  0  0  0  0  0
  -23.1520  -13.7030   21.0460 C   0  0  0  0  0  0  0  0  0  0  0  0
  -22.4230  -13.0520   21.9460 N   0  0  0  0  0  0  0  0  0  0  0  0
  -22.7270  -14.7180   20.4960 O   0  0  0  0  0  0  0  0  0  0  0  0
  -22.7790  -12.2330   22.4150 H   0  0  0  0  0  0  0  0  0  0  0  0
  -21.4950  -13.3810   22.1700 H   0  0  0  0  0  0  0  0  0  0  0  0
  -25.8060  -15.3000   20.1890 N   0  0  0  0  0  0  0  0  0  0  0  0
  -25.0340  -15.9560   20.2550 H   0  0  0  0  0  0  0  0  0  0  0  0
  -26.6190  -15.6940   19.7350 H   0  0  0  0  0  0  0  0  0  0  0  0
  1 51  1  0
  1  8  1  0
  2  1  1  0
  3  2  1  0
  4  5  1  0
  4  3  1  0
  4  7  1  0
  6  4  1  0
  9 10  1  0
  9  8  1  0
 11 22  2  0
 12 10  1  0
 12 17  1  0
 13 21  1  0
 13 23  1  0
 14 20  1  0
 14 16  1  0
 15 21  1  0
 16 17  2  0
 16 15  1  0
 18 12  2  0
 19 18  1  0
 19 14  2  0
 20 13  1  0
 21 11  1  0
 23 25  2  0
 24 23  1  0
 26 24  1  0
 27 36  2  0
 27 32  1  0
 28 24  1  0
 28 32  1  0
 29 28  1  0
 30 31  1  0
 30 29  1  0
 31 27  1  0
 32 33  2  0
 33 34  1  0
 35 34  2  0
 36 35  1  0
 37 11  1  0
 37 42  1  0
 37 38  1  0
 38 41  1  1
 38 39  1  0
 40 38  1  0
 42 45  1  0
 43 47  1  0
 43 42  1  0
 44 43  2  0
 47 46  1  0
 49 47  1  0
 49 50  1  0
 49 48  1  0
 51 52  1  0
 52 61  1  0
 52 57  1  0
 53 55  1  0
 54 56  1  0
 55 58  1  0
 56 58  1  0
 57 54  1  0
 57 53  1  0
 58 60  1  0
 58 59  1  0
 61 70  1  0
 62 70  1  0
 62 68  1  0
 63 68  1  0
 64 65  1  0
 64 63  1  0
 66 65  1  0
 66 75  1  0
 66 67  1  0
 68 67  1  0
 69 62  2  0
 70 71  1  0
 72 73  2  0
 73 92  1  0
 74 73  1  0
 74 77  1  0
 75 72  1  0
 75 76  1  0
 76 74  2  0
 77 78  1  0
 78 79  2  0
 80 83  1  0
 80 79  1  0
 81 80  2  0
 82 81  1  0
 82 77  2  0
 83 84  1  0
 84 89  2  0
 84 85  1  0
 85 86  2  0
 86 87  1  0
 87 91  1  0
 88 87  2  0
 89 88  1  0
 90 89  1  0
 92 93  1  0
 93 96  1  0
 93 95  1  0
 94 92  2  0
 97 98  1  0
 97 72  1  0
 99 97  1  0
M  ISO  4   9 101  10 101  62 100  70 100
M  END
>  <TORSDO>  (93) 
F 25

>  <SCORE>  (93) 
-12.504

>  <name>  (93) 
93

>  <ligand_id>  (93) 
93

>  <original_smiles>  (93) 
[H]c1c([H])c([H])c2c(c1[H])C([H])([H])C([H])([H])C([H])([H])C2([H])N([H])C(=O)C1([H])N(C(=O)C([H])(N([H])C(=O)C([H])(N([H])C([H])([H])[H])C([H])([H])[H])C(C([H])([H])[H])(C([H])([H])[H])C([H])([H])[H])C([H])([H])c2c([H])c(OC([H])([H])C([H])([H])N(C([H])([H])C([H])(N3C([H])([H])C([H])([H])[N+]([H])([H])C([H])([H])C3([H])[H])C([H])([H])N([H])C(=O)N3C([H])([H])C([H])([H])C([H])([H])C([H])(n4nc(-c5c([H])c([H])c(Oc6c([H])c([H])c(F)c([H])c6F)c([H])c5[H])c(C(=O)N([H])[H])c4N([H])[H])C3([H])[H])C([H])([H])C([H])([H])[N+]([H])([H])[H])c([H])c([H])c2C1([H])[H]

>  <smiles>  (93) 
[H]c1c([H])c([H])c2c(c1[H])C([H])([H])C([H])([H])C([H])([H])C2([H])N([H])C(=O)C1([H])N(C(=O)C([H])(N([H])C(=O)C([H])(N([H])C([H])([H])[H])C([H])([H])[H])C(C([H])([H])[H])(C([H])([H])[H])C([H])([H])[H])C([H])([H])c2c([H])c(OC([H])([H])C([H])([H])N(C([H])([H])C([H])(N3C([H])([H])C([H])([H])[N+]([H])([H])C([H])([H])C3([H])[H])C([H])([H])N([H])C(=O)N3C([H])([H])C([H])([H])C([H])([H])C([H])(n4nc(-c5c([H])c([H])c(Oc6c([H])c([H])c(F)c([H])c6F)c([H])c5[H])c(C(=O)N([H])[H])c4N([H])[H])C3([H])[H])C([H])([H])C([H])([H])[N+]([H])([H])[H])c([H])c([H])c2C1([H])[H]

$$$$
94:0:0
     RDKit          3D

 98106  0  0  1  0  0  0  0  0999 V2000
  -30.7480  -20.9420   20.7690 C   0  0  0  0  0  2  0  0  0  0  0  0
  -30.1110  -19.8010   21.4230 N   0  0  0  0  0  0  0  0  0  0  0  0
  -29.1350  -19.7480   21.1290 H   0  0  0  0  0  0  0  0  0  0  0  0
  -30.7600  -18.5150   21.1690 C   0  0  0  0  0  2  0  0  0  0  0  0
  -30.5120  -17.9820   19.7350 C   0  0  0  0  0  2  0  0  0  0  0  0
  -31.6590  -17.1550   19.3430 N   0  0  0  0  0  4  0  0  0  0  0  0
  -32.4950  -17.7150   19.2910 H   0  0  0  0  0  0  0  0  0  0  0  0
  -31.7590  -16.5000   20.1170 H   0  0  0  0  0  0  0  0  0  0  0  0
  -31.5440  -16.2800   18.1580 C   0  0  0  0  0  2  0  0  0  0  0  0
  -31.1790  -14.0640   20.2740 C   0  0  0  0  0  0  0  0  0  0  0  0
  -30.2130  -12.0080   19.3980 C   0  0  0  0  0  2  0  0  0  0  0  0
  -29.4000  -12.3940   18.1690 C   0  0  0  0  0  2  0  0  0  0  0  0
  -27.9390  -12.4260   18.6060 C   0  0  0  0  0  2  0  0  0  0  0  0
  -27.6850  -13.2970   19.8680 C   0  0  0  0  0  3  0  0  0  0  0  0
  -28.8160  -13.1910   20.9580 C   0  0  0  0  0  2  0  0  0  0  0  0
  -30.1620  -13.1460   20.3080 N   0  0  0  0  0  0  0  0  0  0  0  0
  -31.2960  -15.0690   20.9290 O   0  0  0  0  0  0  0  0  0  0  0  0
  -33.6240  -13.0680   17.7210 C   0  0  0  0  0  2  0  0  0  0  0  0
  -33.0090  -14.3460   17.1260 C   0  0  0  0  0  2  0  0  0  0  0  0
  -33.2180  -13.0950   19.2050 C   0  0  0  0  0  2  0  0  0  0  0  0
  -32.5140  -15.0860   18.3690 C   0  0  0  0  0  3  0  0  0  0  0  0
  -32.0480  -13.9780   19.2280 N   0  0  0  0  0  0  0  0  0  0  0  0
  -25.2540  -13.9080   20.5110 C   0  0  0  0  0  0  0  0  0  0  0  0
  -24.1690  -13.1460   20.8500 C   0  0  0  0  0  0  0  0  0  0  0  0
  -24.6270  -11.7910   20.8660 C   0  0  0  0  0  0  0  0  0  0  0  0
  -26.3200  -13.0330   20.3580 N   0  0  0  0  0  0  0  0  0  0  0  0
  -25.9340  -11.7510   20.6250 N   0  0  0  0  0  0  0  0  0  0  0  0
  -23.8820  -10.5320   21.0500 C   0  0  0  0  0  0  0  0  0  0  0  0
  -24.2880   -9.5640   21.9960 C   0  0  0  0  0  3  0  0  0  0  0  0
  -23.5440   -8.3780   22.1750 C   0  0  0  0  0  3  0  0  0  0  0  0
  -22.3760   -8.1460   21.4080 C   0  0  0  0  0  0  0  0  0  0  0  0
  -21.9860   -9.1020   20.4540 C   0  0  0  0  0  3  0  0  0  0  0  0
  -22.7320  -10.2800   20.2750 C   0  0  0  0  0  3  0  0  0  0  0  0
  -21.6110   -7.0070   21.4950 O   0  0  0  0  0  0  0  0  0  0  0  0
  -21.5630   -6.2570   22.6430 C   0  0  0  0  0  0  0  0  0  0  0  0
  -21.1840   -6.8170   23.8830 C   0  0  0  0  0  3  0  0  0  0  0  0
  -21.0830   -5.9970   25.0260 C   0  0  0  0  0  3  0  0  0  0  0  0
  -21.3530   -4.6190   24.9310 C   0  0  0  0  0  0  0  0  0  0  0  0
  -21.7240   -4.0590   23.6950 C   0  0  0  0  0  3  0  0  0  0  0  0
  -21.8270   -4.8760   22.5560 C   0  0  0  0  0  0  0  0  0  0  0  0
  -22.1670   -4.3280   21.3650 F   0  0  0  0  0  0  0  0  0  0  0  0
  -21.2410   -3.8280   26.0240 F   0  0  0  0  0  0  0  0  0  0  0  0
  -22.7600  -13.6310   21.0500 C   0  0  0  0  0  0  0  0  0  0  0  0
  -21.9920  -12.9640   21.9070 N   0  0  0  0  0  0  0  0  0  0  0  0
  -22.3450  -14.6400   20.4830 O   0  0  0  0  0  0  0  0  0  0  0  0
  -22.3310  -12.1460   22.3910 H   0  0  0  0  0  0  0  0  0  0  0  0
  -21.0460  -13.2780   22.0740 H   0  0  0  0  0  0  0  0  0  0  0  0
  -25.4210  -15.2720   20.2900 N   0  0  0  0  0  0  0  0  0  0  0  0
  -24.6510  -15.9320   20.3560 H   0  0  0  0  0  0  0  0  0  0  0  0
  -26.2930  -15.7040   20.0130 H   0  0  0  0  0  0  0  0  0  0  0  0
  -29.7420  -22.0880   20.6720 C   0  0  0  0  0  2  0  0  0  0  0  0
  -30.2850  -23.2020   19.9060 N   0  0  0  0  0  0  0  0  0  0  0  0
  -30.5960  -22.8650   18.9930 H   0  0  0  0  0  0  0  0  0  0  0  0
  -29.2990  -24.2630   19.7260 C   0  0  0  0  0  2  0  0  0  0  0  0
  -29.8720  -25.4570   18.9390 C   0  0  0  0  0  2  0  0  0  0  0  0
  -28.8770  -26.5090   18.7760 N   0  0  0  0  0  0  0  0  0  0  0  0
  -28.0680  -26.1320   18.2910 H   0  0  0  0  0  0  0  0  0  0  0  0
  -28.4240  -26.8030   20.1120 O   0  0  0  0  0  0  0  0  0  0  0  0
  -24.5890  -31.8840   23.2210 C   0  0  0  0  0  0  0  0  0  0  0  0
  -27.2430  -27.4960   20.1040 C   0  0  0  0  0  0  0  0  0  0  0  0
  -23.3710  -30.4730   21.5900 C   0  0  0  0  0  3  0  0  0  0  0  0
  -24.8220  -28.9360   20.1580 C   0  0  0  0  0  0  0  0  0  0  0  0
  -25.8870  -30.8560   21.3610 C   0  0  0  0  0  2  0  0  0  0  0  0
  -25.9770  -29.4850   20.7280 C   0  0  0  0  0  0  0  0  0  0  0  0
  -27.1920  -28.7710   20.6990 C   0  0  0  0  0  3  0  0  0  0  0  0
  -26.0710  -26.9340   19.5560 C   0  0  0  0  0  3  0  0  0  0  0  0
  -24.8610  -27.6560   19.5710 C   0  0  0  0  0  3  0  0  0  0  0  0
  -23.5690  -29.7800   20.2120 C   0  0  0  0  0  2  0  0  0  0  0  0
  -24.6350  -31.0850   22.1170 N   0  0  0  0  0  0  0  0  0  0  0  0
  -23.5130  -32.1550   23.7710 O   0  0  0  0  0  0  0  0  0  0  0  0
  -22.7300  -29.4580   22.5610 C   0  0  0  0  0  0  0  0  0  0  0  0
  -21.4040  -29.2770   22.4470 N   0  0  0  0  0  0  0  0  0  0  0  0
  -23.4210  -28.8340   23.3700 O   0  0  0  0  0  0  0  0  0  0  0  0
  -20.9100  -29.8330   21.7640 H   0  0  0  0  0  0  0  0  0  0  0  0
  -18.0350  -28.0830   22.9630 C   0  0  0  0  0  0  0  0  0  0  0  0
  -20.5940  -28.3420   23.2240 C   0  0  0  0  0  3  0  0  0  0  0  0
  -20.6960  -26.9100   22.6500 C   0  0  0  0  0  2  0  0  0  0  0  0
  -19.5890  -26.5830   21.6430 C   0  0  0  0  0  2  0  0  0  0  0  0
  -18.2100  -26.7310   22.2910 C   0  0  0  0  0  2  0  0  0  0  0  0
  -19.1550  -28.8470   23.3860 C   0  0  0  0  0  0  0  0  0  0  0  0
  -18.9400  -30.1130   23.9710 C   0  0  0  0  0  3  0  0  0  0  0  0
  -17.6360  -30.6150   24.1400 C   0  0  0  0  0  3  0  0  0  0  0  0
  -16.5300  -29.8470   23.7360 C   0  0  0  0  0  3  0  0  0  0  0  0
  -16.7300  -28.5830   23.1520 C   0  0  0  0  0  3  0  0  0  0  0  0
  -25.8820  -32.5170   23.8300 C   0  0  0  0  0  3  0  0  0  0  0  0
  -26.4240  -31.7340   25.0900 C   0  0  1  0  0  0  0  0  0  0  0  0
  -25.3480  -31.4830   26.1720 C   0  0  0  0  0  1  0  0  0  0  0  0
  -27.0040  -30.3640   24.6700 C   0  0  0  0  0  1  0  0  0  0  0  0
  -27.5820  -32.5250   25.7400 C   0  0  0  0  0  1  0  0  0  0  0  0
  -25.5720  -33.9100   24.1750 N   0  0  0  0  0  0  0  0  0  0  0  0
  -25.8930  -34.9700   23.4180 C   0  0  0  0  0  0  0  0  0  0  0  0
  -26.5520  -34.8760   22.3790 O   0  0  0  0  0  0  0  0  0  0  0  0
  -24.9890  -34.0570   24.9860 H   0  0  0  0  0  0  0  0  0  0  0  0
  -24.1510  -36.7540   23.0950 C   0  0  0  0  0  1  0  0  0  0  0  0
  -25.4050  -36.3510   23.8900 C   0  0  0  0  0  3  0  0  0  0  0  0
  -27.5490  -37.2380   24.6940 C   0  0  0  0  0  1  0  0  0  0  0  0
  -26.4300  -37.4100   23.7720 N   0  0  0  0  0  0  0  0  0  0  0  0
  -26.0220  -38.3270   23.9350 H   0  0  0  0  0  0  0  0  0  0  0  0
  1  2  1  0
  3  2  1  0
  4  2  1  0
  5  4  1  0
  6  5  1  0
  6  8  1  0
  7  6  1  0
  9  6  1  0
 10 16  1  0
 10 17  2  0
 11 16  1  0
 12 13  1  0
 12 11  1  0
 14 13  1  0
 14 26  1  0
 14 15  1  0
 16 15  1  0
 18 20  1  0
 19 18  1  0
 19 21  1  0
 20 22  1  0
 21  9  1  0
 21 22  1  0
 22 10  1  0
 23 24  2  0
 24 25  1  0
 24 43  1  0
 25 28  1  0
 26 23  1  0
 26 27  1  0
 27 25  2  0
 28 29  1  0
 29 30  2  0
 31 34  1  0
 31 30  1  0
 32 31  2  0
 33 32  1  0
 33 28  2  0
 34 35  1  0
 35 36  1  0
 36 37  2  0
 38 37  1  0
 38 42  1  0
 39 38  2  0
 40 35  2  0
 40 39  1  0
 41 40  1  0
 43 44  1  0
 44 47  1  0
 44 46  1  0
 45 43  2  0
 48 49  1  0
 48 23  1  0
 50 48  1  0
 51  1  1  0
 52 51  1  0
 53 52  1  0
 54 52  1  0
 55 54  1  0
 56 55  1  0
 56 58  1  0
 57 56  1  0
 59 70  2  0
 60 58  1  0
 60 65  1  0
 61 69  1  0
 61 71  1  0
 62 68  1  0
 62 64  1  0
 63 69  1  0
 64 63  1  0
 65 64  2  0
 66 67  1  0
 66 60  2  0
 67 62  2  0
 68 61  1  0
 69 59  1  0
 71 73  2  0
 72 71  1  0
 74 72  1  0
 75 84  2  0
 75 80  1  0
 76 72  1  0
 76 80  1  0
 77 76  1  0
 78 79  1  0
 78 77  1  0
 79 75  1  0
 80 81  2  0
 81 82  1  0
 83 82  2  0
 84 83  1  0
 85 59  1  0
 85 90  1  0
 85 86  1  0
 86 89  1  1
 86 87  1  0
 88 86  1  0
 90 93  1  0
 91 95  1  0
 91 90  1  0
 92 91  2  0
 95 94  1  0
 97 95  1  0
 97 98  1  0
 97 96  1  0
M  ISO  4  10 100  22 100  56 101  58 101
M  END
>  <TORSDO>  (94) 
F 26

>  <SCORE>  (94) 
-11.952

>  <name>  (94) 
94

>  <ligand_id>  (94) 
94

>  <original_smiles>  (94) 
[H]c1c([H])c([H])c2c(c1[H])C([H])([H])C([H])([H])C([H])([H])C2([H])N([H])C(=O)C1([H])N(C(=O)C([H])(N([H])C(=O)C([H])(N([H])C([H])([H])[H])C([H])([H])[H])C(C([H])([H])[H])(C([H])([H])[H])C([H])([H])[H])C([H])([H])c2c([H])c(ON([H])C([H])([H])C([H])([H])N([H])C([H])([H])C([H])([H])N([H])C([H])([H])C([H])([H])[N+]([H])([H])C([H])([H])C3([H])N(C(=O)N4C([H])([H])C([H])([H])C([H])([H])C([H])(n5nc(-c6c([H])c([H])c(Oc7c([H])c([H])c(F)c([H])c7F)c([H])c6[H])c(C(=O)N([H])[H])c5N([H])[H])C4([H])[H])C([H])([H])C([H])([H])C3([H])[H])c([H])c([H])c2C1([H])[H]

>  <smiles>  (94) 
[H]c1c([H])c([H])c2c(c1[H])C([H])([H])C([H])([H])C([H])([H])C2([H])N([H])C(=O)C1([H])N(C(=O)C([H])(N([H])C(=O)C([H])(N([H])C([H])([H])[H])C([H])([H])[H])C(C([H])([H])[H])(C([H])([H])[H])C([H])([H])[H])C([H])([H])c2c([H])c(ON([H])C([H])([H])C([H])([H])N([H])C([H])([H])C([H])([H])N([H])C([H])([H])C([H])([H])[N+]([H])([H])C([H])([H])C3([H])N(C(=O)N4C([H])([H])C([H])([H])C([H])([H])C([H])(n5nc(-c6c([H])c([H])c(Oc7c([H])c([H])c(F)c([H])c7F)c([H])c6[H])c(C(=O)N([H])[H])c5N([H])[H])C4([H])[H])C([H])([H])C([H])([H])C3([H])[H])c([H])c([H])c2C1([H])[H]

$$$$
95:0:0
     RDKit          3D

106114  0  0  1  0  0  0  0  0999 V2000
  -28.4670  -20.5510   19.8420 C   0  0  0  0  0  3  0  0  0  0  0  0
  -29.9640  -20.9110   20.0620 C   0  0  0  0  0  2  0  0  0  0  0  0
  -30.4690  -20.9080   21.5230 C   0  0  0  0  0  2  0  0  0  0  0  0
  -31.8920  -21.4900   21.6310 C   0  0  0  0  0  2  0  0  0  0  0  0
  -32.3920  -21.6960   23.0750 C   0  0  0  0  0  2  0  0  0  0  0  0
  -32.6040  -20.4310   23.7970 N   0  0  0  0  0  4  0  0  0  0  0  0
  -31.7380  -19.9430   23.9360 H   0  0  0  0  0  0  0  0  0  0  0  0
  -32.9970  -20.6260   24.7010 H   0  0  0  0  0  0  0  0  0  0  0  0
  -33.2460  -19.8390   23.3010 H   0  0  0  0  0  0  0  0  0  0  0  0
  -28.1200  -19.1340   20.3790 C   0  0  0  0  0  2  0  0  0  0  0  0
  -31.1360  -14.4280   19.3180 C   0  0  0  0  0  0  0  0  0  0  0  0
  -30.7550  -12.1170   18.5680 C   0  0  0  0  0  2  0  0  0  0  0  0
  -29.6910  -12.1040   17.4510 C   0  0  0  0  0  2  0  0  0  0  0  0
  -28.2720  -12.0300   18.0500 C   0  0  0  0  0  2  0  0  0  0  0  0
  -28.0420  -13.0670   19.1840 C   0  0  0  0  0  3  0  0  0  0  0  0
  -29.2100  -13.0560   20.1970 C   0  0  0  0  0  2  0  0  0  0  0  0
  -30.4630  -13.2560   19.4490 N   0  0  0  0  0  0  0  0  0  0  0  0
  -32.1980  -14.5290   18.7010 O   0  0  0  0  0  0  0  0  0  0  0  0
  -29.9980  -16.3660   18.4990 C   0  0  0  0  0  2  0  0  0  0  0  0
  -28.8370  -17.2970   18.8760 C   0  0  0  0  0  2  0  0  0  0  0  0
  -29.6080  -17.3030   21.2020 C   0  0  0  0  0  2  0  0  0  0  0  0
  -30.7650  -16.3120   20.8610 C   0  0  0  0  0  3  0  0  0  0  0  0
  -30.4400  -15.5440   19.6380 N   0  0  0  0  0  0  0  0  0  0  0  0
  -29.1820  -18.1410   20.0470 N   0  0  2  0  0  4  0  0  0  0  0  0
  -29.9780  -18.6980   19.7810 H   0  0  0  0  0  0  0  0  0  0  0  0
  -25.8310  -13.8030   20.2800 C   0  0  0  0  0  0  0  0  0  0  0  0
  -24.7700  -13.0920   20.7630 C   0  0  0  0  0  0  0  0  0  0  0  0
  -25.1010  -11.7150   20.5810 C   0  0  0  0  0  0  0  0  0  0  0  0
  -26.7540  -12.8650   19.8420 N   0  0  0  0  0  0  0  0  0  0  0  0
  -26.3240  -11.5990   20.0790 N   0  0  0  0  0  0  0  0  0  0  0  0
  -24.3030  -10.5030   20.7980 C   0  0  0  0  0  0  0  0  0  0  0  0
  -24.6290   -9.5770   21.8140 C   0  0  0  0  0  3  0  0  0  0  0  0
  -23.8380   -8.4270   22.0170 C   0  0  0  0  0  3  0  0  0  0  0  0
  -22.7050   -8.1950   21.2010 C   0  0  0  0  0  0  0  0  0  0  0  0
  -22.3980   -9.1040   20.1740 C   0  0  0  0  0  3  0  0  0  0  0  0
  -23.1910  -10.2460   19.9710 C   0  0  0  0  0  3  0  0  0  0  0  0
  -21.8910   -7.0930   21.3090 O   0  0  0  0  0  0  0  0  0  0  0  0
  -21.5740   -6.5490   22.5270 C   0  0  0  0  0  0  0  0  0  0  0  0
  -20.8990   -7.2910   23.5220 C   0  0  0  0  0  3  0  0  0  0  0  0
  -20.5310   -6.6720   24.7320 C   0  0  0  0  0  3  0  0  0  0  0  0
  -20.8280   -5.3130   24.9490 C   0  0  0  0  0  0  0  0  0  0  0  0
  -21.4960   -4.5710   23.9580 C   0  0  0  0  0  3  0  0  0  0  0  0
  -21.8650   -5.1880   22.7500 C   0  0  0  0  0  0  0  0  0  0  0  0
  -22.4900   -4.4630   21.7910 F   0  0  0  0  0  0  0  0  0  0  0  0
  -20.4660   -4.7170   26.1090 F   0  0  0  0  0  0  0  0  0  0  0  0
  -23.4700  -13.6540   21.2650 C   0  0  0  0  0  0  0  0  0  0  0  0
  -22.8380  -12.9820   22.2200 N   0  0  0  0  0  0  0  0  0  0  0  0
  -23.0340  -14.7240   20.8410 O   0  0  0  0  0  0  0  0  0  0  0  0
  -23.2080  -12.1160   22.5840 H   0  0  0  0  0  0  0  0  0  0  0  0
  -21.9750  -13.3430   22.6000 H   0  0  0  0  0  0  0  0  0  0  0  0
  -26.0760  -15.1670   20.1470 N   0  0  0  0  0  0  0  0  0  0  0  0
  -25.2890  -15.7940   20.2740 H   0  0  0  0  0  0  0  0  0  0  0  0
  -26.7070  -15.4820   19.4240 H   0  0  0  0  0  0  0  0  0  0  0  0
  -32.1880  -16.9630   20.7930 C   0  0  0  0  0  2  0  0  0  0  0  0
  -32.5120  -17.8600   21.9210 N   0  0  0  0  0  4  0  0  0  0  0  0
  -31.9500  -18.6920   21.9430 H   0  0  0  0  0  0  0  0  0  0  0  0
  -33.4680  -18.1580   21.8330 H   0  0  0  0  0  0  0  0  0  0  0  0
  -32.4380  -17.3890   22.8060 H   0  0  0  0  0  0  0  0  0  0  0  0
  -27.4740  -21.6340   20.3480 C   0  0  0  0  0  2  0  0  0  0  0  0
  -26.4920  -23.5170   19.0580 C   0  0  0  0  0  1  0  0  0  0  0  0
  -27.7070  -22.9560   19.6980 N   0  0  1  0  0  4  0  0  0  0  0  0
  -28.3360  -22.7680   18.9300 H   0  0  0  0  0  0  0  0  0  0  0  0
  -28.3870  -23.9530   20.5650 C   0  0  0  0  0  2  0  0  0  0  0  0
  -29.4850  -24.7210   19.8110 C   0  0  0  0  0  2  0  0  0  0  0  0
  -30.1140  -25.8230   20.6760 C   0  0  0  0  0  2  0  0  0  0  0  0
  -30.0230  -27.0810   20.0270 O   0  0  0  0  0  0  0  0  0  0  0  0
  -25.9600  -31.1170   24.2290 C   0  0  0  0  0  0  0  0  0  0  0  0
  -28.8280  -27.7270   20.1970 C   0  0  0  0  0  0  0  0  0  0  0  0
  -24.8640  -30.2430   22.1900 C   0  0  0  0  0  3  0  0  0  0  0  0
  -26.4130  -29.1470   20.4900 C   0  0  0  0  0  0  0  0  0  0  0  0
  -27.3920  -30.6230   22.2550 C   0  0  0  0  0  2  0  0  0  0  0  0
  -27.5250  -29.4830   21.2720 C   0  0  0  0  0  0  0  0  0  0  0  0
  -28.7340  -28.7750   21.1310 C   0  0  0  0  0  3  0  0  0  0  0  0
  -27.7020  -27.3920   19.4130 C   0  0  0  0  0  3  0  0  0  0  0  0
  -26.4930  -28.0940   19.5630 C   0  0  0  0  0  3  0  0  0  0  0  0
  -25.1620  -29.9700   20.6920 C   0  0  0  0  0  2  0  0  0  0  0  0
  -26.0860  -30.6570   22.9520 N   0  0  0  0  0  0  0  0  0  0  0  0
  -24.8460  -31.2410   24.7560 O   0  0  0  0  0  0  0  0  0  0  0  0
  -24.1660  -29.0000   22.7850 C   0  0  0  0  0  0  0  0  0  0  0  0
  -22.8780  -28.8220   22.4490 N   0  0  0  0  0  0  0  0  0  0  0  0
  -24.7840  -28.2120   23.5050 O   0  0  0  0  0  0  0  0  0  0  0  0
  -22.4420  -29.5190   21.8610 H   0  0  0  0  0  0  0  0  0  0  0  0
  -19.5630  -27.4240   22.1340 C   0  0  0  0  0  0  0  0  0  0  0  0
  -22.0280  -27.7060   22.8590 C   0  0  0  0  0  3  0  0  0  0  0  0
  -22.3180  -26.4470   22.0090 C   0  0  0  0  0  2  0  0  0  0  0  0
  -21.4000  -26.3160   20.7890 C   0  0  0  0  0  2  0  0  0  0  0  0
  -19.9320  -26.2660   21.2240 C   0  0  0  0  0  2  0  0  0  0  0  0
  -20.5500  -28.1090   22.8910 C   0  0  0  0  0  0  0  0  0  0  0  0
  -20.1600  -29.2020   23.6960 C   0  0  0  0  0  3  0  0  0  0  0  0
  -18.8130  -29.6060   23.7570 C   0  0  0  0  0  3  0  0  0  0  0  0
  -17.8380  -28.9150   23.0180 C   0  0  0  0  0  3  0  0  0  0  0  0
  -18.2140  -27.8240   22.2110 C   0  0  0  0  0  3  0  0  0  0  0  0
  -27.2040  -31.5360   25.0760 C   0  0  0  0  0  3  0  0  0  0  0  0
  -27.5840  -30.4820   26.1870 C   0  0  1  0  0  0  0  0  0  0  0  0
  -26.3910  -30.0640   27.0770 C   0  0  0  0  0  1  0  0  0  0  0  0
  -28.1660  -29.2000   25.5450 C   0  0  0  0  0  1  0  0  0  0  0  0
  -28.6880  -31.0600   27.1020 C   0  0  0  0  0  1  0  0  0  0  0  0
  -26.9100  -32.8440   25.6750 N   0  0  0  0  0  0  0  0  0  0  0  0
  -27.3690  -34.0140   25.2100 C   0  0  0  0  0  0  0  0  0  0  0  0
  -28.1530  -34.0960   24.2590 O   0  0  0  0  0  0  0  0  0  0  0  0
  -26.2350  -32.8570   26.4250 H   0  0  0  0  0  0  0  0  0  0  0  0
  -25.7900  -35.9630   25.0550 C   0  0  0  0  0  1  0  0  0  0  0  0
  -26.8800  -35.2960   25.9080 C   0  0  0  0  0  3  0  0  0  0  0  0
  -28.9050  -35.8110   27.2000 C   0  0  0  0  0  1  0  0  0  0  0  0
  -27.9630  -36.2670   26.1810 N   0  0  0  0  0  0  0  0  0  0  0  0
  -27.5800  -37.1600   26.4810 H   0  0  0  0  0  0  0  0  0  0  0  0
  1  2  1  0
  1 59  1  0
  1 10  1  0
  2  3  1  0
  3  4  1  0
  4  5  1  0
  5  6  1  0
  6  7  1  0
  6  8  1  0
  9  6  1  0
 11 17  1  0
 11 23  1  0
 12 17  1  0
 13 14  1  0
 13 12  1  0
 15 14  1  0
 15 29  1  0
 15 16  1  0
 17 16  1  0
 18 11  2  0
 19 20  1  0
 19 23  1  0
 20 24  1  0
 22 54  1  0
 22 21  1  0
 23 22  1  0
 24 10  1  0
 24 21  1  0
 24 25  1  6
 26 27  2  0
 27 46  1  0
 28 27  1  0
 28 31  1  0
 29 30  1  0
 29 26  1  0
 30 28  2  0
 31 32  1  0
 32 33  2  0
 34 37  1  0
 34 33  1  0
 35 34  2  0
 36 35  1  0
 36 31  2  0
 37 38  1  0
 38 43  2  0
 38 39  1  0
 39 40  2  0
 40 41  1  0
 41 45  1  0
 42 41  2  0
 43 42  1  0
 44 43  1  0
 46 47  1  0
 47 49  1  0
 47 50  1  0
 48 46  2  0
 51 52  1  0
 51 26  1  0
 53 51  1  0
 54 55  1  0
 55 56  1  0
 55 58  1  0
 57 55  1  0
 60 61  1  0
 61 59  1  0
 61 63  1  0
 61 62  1  6
 64 63  1  0
 64 65  1  0
 66 68  1  0
 66 65  1  0
 67 78  2  0
 68 73  1  0
 69 79  1  0
 69 77  1  0
 70 76  1  0
 70 72  1  0
 71 77  1  0
 72 71  1  0
 73 72  2  0
 74 75  1  0
 74 68  2  0
 75 70  2  0
 76 69  1  0
 77 67  1  0
 79 81  2  0
 80 79  1  0
 82 80  1  0
 83 92  2  0
 83 88  1  0
 84 80  1  0
 84 88  1  0
 85 84  1  0
 86 87  1  0
 86 85  1  0
 87 83  1  0
 88 89  2  0
 89 90  1  0
 91 90  2  0
 92 91  1  0
 93 67  1  0
 93 98  1  0
 93 94  1  0
 94 95  1  1
 94 97  1  0
 96 94  1  0
 98101  1  0
 99 98  1  0
 99103  1  0
100 99  2  0
103102  1  0
103105  1  0
105106  1  0
105104  1  0
M  ISO  4  11 100  23 100  65 101  66 101
M  END
>  <TORSDO>  (95) 
F 29

>  <SCORE>  (95) 
-6.587

>  <name>  (95) 
95

>  <ligand_id>  (95) 
95

>  <original_smiles>  (95) 
[H]c1c([H])c([H])c2c(c1[H])C([H])([H])C([H])([H])C([H])([H])C2([H])N([H])C(=O)C1([H])N(C(=O)C([H])(N([H])C(=O)C([H])(N([H])C([H])([H])[H])C([H])([H])[H])C(C([H])([H])[H])(C([H])([H])[H])C([H])([H])[H])C([H])([H])c2c([H])c(OC([H])([H])C([H])([H])C([H])([H])[N+]([H])(C([H])([H])[H])C([H])([H])C([H])(C([H])([H])C([H])([H])C([H])([H])C([H])([H])[N+]([H])([H])[H])C([H])([H])[N+]3([H])C([H])([H])C([H])([H])N(C(=O)N4C([H])([H])C([H])([H])C([H])([H])C([H])(n5nc(-c6c([H])c([H])c(Oc7c([H])c([H])c(F)c([H])c7F)c([H])c6[H])c(C(=O)N([H])[H])c5N([H])[H])C4([H])[H])C([H])(C([H])([H])[N+]([H])([H])[H])C3([H])[H])c([H])c([H])c2C1([H])[H]

>  <smiles>  (95) 
[H]c1c([H])c([H])c2c(c1[H])C([H])([H])C([H])([H])C([H])([H])C2([H])N([H])C(=O)C1([H])N(C(=O)C([H])(N([H])C(=O)C([H])(N([H])C([H])([H])[H])C([H])([H])[H])C(C([H])([H])[H])(C([H])([H])[H])C([H])([H])[H])C([H])([H])c2c([H])c(OC([H])([H])C([H])([H])C([H])([H])[N+]([H])(C([H])([H])[H])C([H])([H])C([H])(C([H])([H])C([H])([H])C([H])([H])C([H])([H])[N+]([H])([H])[H])C([H])([H])[N+]3([H])C([H])([H])C([H])([H])N(C(=O)N4C([H])([H])C([H])([H])C([H])([H])C([H])(n5nc(-c6c([H])c([H])c(Oc7c([H])c([H])c(F)c([H])c7F)c([H])c6[H])c(C(=O)N([H])[H])c5N([H])[H])C4([H])[H])C([H])(C([H])([H])[N+]([H])([H])[H])C3([H])[H])c([H])c([H])c2C1([H])[H]

$$$$
96:0:0
     RDKit          3D

 97 96  0  0  1  0  0  0  0  0999 V2000
  -32.6270  -22.6170   21.2080 N   0  0  0  0  0  0  0  0  0  0  0  0
  -33.4090  -21.5810   20.5180 C   0  0  0  0  0  2  0  0  0  0  0  0
  -34.8740  -21.5880   20.9630 C   0  0  0  0  0  2  0  0  0  0  0  0
  -35.1190  -20.7390   22.2300 C   0  0  0  0  0  2  0  0  0  0  0  0
  -36.4090  -19.8970   22.1690 C   0  0  0  0  0  2  0  0  0  0  0  0
  -37.6300  -20.7170   22.1160 N   0  0  0  0  0  4  0  0  0  0  0  0
  -37.5970  -21.3640   21.3490 H   0  0  0  0  0  0  0  0  0  0  0  0
  -38.4260  -20.1190   21.9850 H   0  0  0  0  0  0  0  0  0  0  0  0
  -37.7600  -21.2280   22.9710 H   0  0  0  0  0  0  0  0  0  0  0  0
  -32.4040  -23.7720   20.3280 C   0  0  0  0  0  2  0  0  0  0  0  0
  -31.1620  -24.5810   20.7260 C   0  0  0  0  0  2  0  0  0  0  0  0
  -29.7060  -17.2160   20.0460 C   0  0  0  0  0  2  0  0  0  0  0  0
  -30.2070  -14.2510   19.4290 C   0  0  0  0  0  2  0  0  0  0  0  0
  -29.6030  -13.1500   18.4100 C   0  0  0  0  0  2  0  0  0  0  0  0
  -28.3330  -12.4660   18.9130 C   0  0  0  0  0  2  0  0  0  0  0  0
  -27.5680  -13.5260   19.7050 C   0  0  0  0  0  3  0  0  0  0  0  0
  -28.4140  -14.4910   20.6840 C   0  0  0  0  0  2  0  0  0  0  0  0
  -29.3310  -15.5640   19.9600 N   0  0  0  0  0  0  0  0  0  0  0  0
  -30.9470  -16.8470   20.0140 O   0  0  0  0  0  1  0  0  0  0  0  0
  -28.3210  -20.5160   21.0860 C   0  0  0  0  0 15  0  0  0  0  0  0
  -29.1030  -20.5920   18.7000 C   0  0  0  0  0 15  0  0  0  0  0  0
  -28.6690  -22.7040   21.6030 C   0  0  0  0  0 15  0  0  0  0  0  0
  -29.5980  -22.8120   18.5820 C   0  0  0  0  0 15  0  0  0  0  0  0
  -29.0930  -19.0840   19.9600 N   0  0  0  0  0 15  0  0  0  0  0  0
  -29.8970  -23.8990   20.3430 N   0  0  0  0  0  2  0  0  0  0  0  0
  -29.2700  -24.6730   20.1820 H   0  0  0  0  0  0  0  0  0  0  0  0
  -25.1710  -13.8680   20.3580 C   0  0  0  0  0  0  0  0  0  0  0  0
  -24.1270  -13.0610   20.6950 C   0  0  0  0  0  0  0  0  0  0  0  0
  -24.6390  -11.7250   20.7220 C   0  0  0  0  0  0  0  0  0  0  0  0
  -26.2700  -13.0550   20.2110 N   0  0  0  0  0  0  0  0  0  0  0  0
  -25.9570  -11.7410   20.4650 N   0  0  0  0  0  0  0  0  0  0  0  0
  -23.9110  -10.4530   20.9220 C   0  0  0  0  0  0  0  0  0  0  0  0
  -24.2980   -9.5140   21.9050 C   0  0  0  0  0  3  0  0  0  0  0  0
  -23.5550   -8.3280   22.1040 C   0  0  0  0  0  3  0  0  0  0  0  0
  -22.4060   -8.0650   21.3220 C   0  0  0  0  0  0  0  0  0  0  0  0
  -22.0310   -8.9920   20.3330 C   0  0  0  0  0  3  0  0  0  0  0  0
  -22.7740  -10.1690   20.1330 C   0  0  0  0  0  3  0  0  0  0  0  0
  -21.6410   -6.9250   21.4250 O   0  0  0  0  0  0  0  0  0  0  0  0
  -21.5680   -6.2050   22.5910 C   0  0  0  0  0  0  0  0  0  0  0  0
  -21.1310   -6.7900   23.8000 C   0  0  0  0  0  3  0  0  0  0  0  0
  -21.0040   -6.0000   24.9610 C   0  0  0  0  0  3  0  0  0  0  0  0
  -21.3010   -4.6250   24.9140 C   0  0  0  0  0  0  0  0  0  0  0  0
  -21.7280   -4.0380   23.7110 C   0  0  0  0  0  3  0  0  0  0  0  0
  -21.8570   -4.8250   22.5520 C   0  0  0  0  0  0  0  0  0  0  0  0
  -22.2470   -4.2490   21.3900 F   0  0  0  0  0  0  0  0  0  0  0  0
  -21.1730   -3.8640   26.0270 F   0  0  0  0  0  0  0  0  0  0  0  0
  -22.7080  -13.5150   20.8750 C   0  0  0  0  0  0  0  0  0  0  0  0
  -21.9550  -12.8500   21.7430 N   0  0  0  0  0  0  0  0  0  0  0  0
  -22.2800  -14.5090   20.2880 O   0  0  0  0  0  0  0  0  0  0  0  0
  -22.3150  -12.0520   22.2440 H   0  0  0  0  0  0  0  0  0  0  0  0
  -21.0030  -13.1440   21.9090 H   0  0  0  0  0  0  0  0  0  0  0  0
  -25.2760  -15.2350   20.1200 N   0  0  0  0  0  0  0  0  0  0  0  0
  -24.4720  -15.8520   20.1460 H   0  0  0  0  0  0  0  0  0  0  0  0
  -26.1210  -15.6930   19.8020 H   0  0  0  0  0  0  0  0  0  0  0  0
  -31.3740  -22.0820   21.7610 C   0  0  0  0  0  2  0  0  0  0  0  0
  -30.1970  -21.8470   20.6700 C   0  0  0  0  0  1  0  0  0  0  0  0
  -27.8470  -23.7850   20.1640 O   0  0  0  0  0 15  0  0  0  0  0  0
  -24.6110  -31.6390   22.9830 C   0  0  0  0  0  0  0  0  0  0  0  0
  -27.2080  -25.5890   20.2190 C   0  0  0  0  0  3  0  0  0  0  0  0
  -23.5060  -30.1600   21.3760 C   0  0  0  0  0  3  0  0  0  0  0  0
  -25.0050  -28.2790   20.0900 C   0  0  0  0  0  0  0  0  0  0  0  0
  -26.1160  -30.0070   21.4270 C   0  0  0  0  0  2  0  0  0  0  0  0
  -26.2050  -28.4440   20.7950 C   0  0  0  0  0  0  0  0  0  0  0  0
  -27.2310  -27.1720   20.8110 C   0  0  0  0  0  3  0  0  0  0  0  0
  -25.9830  -25.9340   19.4540 C   0  0  0  0  0  3  0  0  0  0  0  0
  -24.9980  -27.0470   19.3900 C   0  0  0  0  0  3  0  0  0  0  0  0
  -23.8310  -29.3440   20.0670 C   0  0  0  0  0  2  0  0  0  0  0  0
  -24.7830  -30.6620   21.9820 N   0  0  0  0  0  0  0  0  0  0  0  0
  -23.4840  -31.9820   23.4040 O   0  0  0  0  0  0  0  0  0  0  0  0
  -22.6740  -29.3050   22.3810 C   0  0  0  0  0  0  0  0  0  0  0  0
  -21.3290  -29.2400   22.2690 N   0  0  0  0  0  0  0  0  0  0  0  0
  -23.2760  -28.6820   23.2560 O   0  0  0  0  0  0  0  0  0  0  0  0
  -20.8770  -29.7920   21.5540 H   0  0  0  0  0  0  0  0  0  0  0  0
  -17.8900  -28.1270   22.8690 C   0  0  0  0  0  0  0  0  0  0  0  0
  -20.4680  -28.3320   23.0530 C   0  0  0  0  0  3  0  0  0  0  0  0
  -20.5060  -26.8990   22.4690 C   0  0  0  0  0  2  0  0  0  0  0  0
  -19.3740  -26.6240   21.4750 C   0  0  0  0  0  2  0  0  0  0  0  0
  -18.0130  -26.7910   22.1550 C   0  0  0  0  0  2  0  0  0  0  0  0
  -19.0410  -28.8590   23.2740 C   0  0  0  0  0  0  0  0  0  0  0  0
  -18.8610  -30.1020   23.9180 C   0  0  0  0  0  3  0  0  0  0  0  0
  -17.5710  -30.6170   24.1480 C   0  0  0  0  0  3  0  0  0  0  0  0
  -16.4390  -29.8860   23.7480 C   0  0  0  0  0  3  0  0  0  0  0  0
  -16.6000  -28.6410   23.1160 C   0  0  0  0  0  3  0  0  0  0  0  0
  -25.7960  -32.3870   23.6760 C   0  0  0  0  0  3  0  0  0  0  0  0
  -26.2750  -31.6700   25.0010 C   0  0  1  0  0  0  0  0  0  0  0  0
  -25.1460  -31.4370   26.0340 C   0  0  0  0  0  1  0  0  0  0  0  0
  -26.9030  -30.2980   24.6960 C   0  0  0  0  0  1  0  0  0  0  0  0
  -27.3850  -32.5060   25.6810 C   0  0  0  0  0  1  0  0  0  0  0  0
  -25.3940  -33.7810   24.0190 N   0  0  0  0  0  0  0  0  0  0  0  0
  -25.7310  -34.8940   23.3490 C   0  0  0  0  0  0  0  0  0  0  0  0
  -26.4390  -34.8610   22.3410 O   0  0  0  0  0  0  0  0  0  0  0  0
  -24.7590  -33.8770   24.7980 H   0  0  0  0  0  0  0  0  0  0  0  0
  -23.9760  -36.6940   23.0610 C   0  0  0  0  0  1  0  0  0  0  0  0
  -25.2130  -36.2620   23.8670 C   0  0  0  0  0  3  0  0  0  0  0  0
  -27.3160  -37.1700   24.7690 C   0  0  0  0  0  1  0  0  0  0  0  0
  -26.2250  -37.3450   23.8150 N   0  0  0  0  0  0  0  0  0  0  0  0
  -25.7940  -38.2490   23.9910 H   0  0  0  0  0  0  0  0  0  0  0  0
  1 55  1  0
  2  3  1  0
  2  1  1  0
  3  4  1  0
  5  4  1  0
  6  5  1  0
  6  9  1  0
  7  6  1  0
  8  6  1  0
 10 11  1  0
 10  1  1  0
 13 18  1  0
 14 15  1  0
 14 13  1  0
 16 15  1  0
 16 30  1  0
 16 17  1  0
 18 12  1  0
 18 17  1  0
 19 12  1  0
 25 11  1  0
 26 25  1  0
 27 28  2  0
 28 29  1  0
 28 47  1  0
 29 32  1  0
 30 27  1  0
 30 31  1  0
 31 29  2  0
 32 33  1  0
 33 34  2  0
 35 38  1  0
 35 34  1  0
 36 35  2  0
 37 36  1  0
 37 32  2  0
 38 39  1  0
 39 40  1  0
 40 41  2  0
 42 41  1  0
 42 46  1  0
 43 42  2  0
 44 39  2  0
 44 43  1  0
 45 44  1  0
 47 48  1  0
 48 51  1  0
 48 50  1  0
 49 47  2  0
 52 53  1  0
 52 27  1  0
 54 52  1  0
 56 55  1  0
 58 69  2  0
 59 64  1  0
 60 68  1  0
 60 70  1  0
 61 63  1  0
 62 68  1  0
 63 64  2  0
 63 62  1  0
 65 59  2  0
 66 65  1  0
 66 61  2  0
 67 61  1  0
 67 60  1  0
 68 58  1  0
 70 72  2  0
 71 70  1  0
 73 71  1  0
 74 83  2  0
 74 79  1  0
 75 71  1  0
 75 79  1  0
 76 75  1  0
 77 78  1  0
 77 76  1  0
 78 74  1  0
 79 80  2  0
 80 81  1  0
 82 81  2  0
 83 82  1  0
 84 58  1  0
 84 89  1  0
 84 85  1  0
 85 88  1  1
 85 86  1  0
 87 85  1  0
 89 92  1  0
 90 94  1  0
 90 89  1  0
 91 90  2  0
 94 93  1  0
 96 94  1  0
 96 97  1  0
 96 95  1  0
M  ISO  4  12 100  24 100  56 101  57 101
M  END
>  <TORSDO>  (96) 
F 25

>  <SCORE>  (96) 
-11.900

>  <name>  (96) 
96

>  <ligand_id>  (96) 
96

>  <original_smiles>  (96) 
[H]c1c([H])c([H])c2c(c1[H])C([H])([H])C([H])([H])C([H])([H])C2([H])N([H])C(=O)C1([H])N(C(=O)C([H])(N([H])C(=O)C([H])(N([H])C([H])([H])[H])C([H])([H])[H])C(C([H])([H])[H])(C([H])([H])[H])C([H])([H])[H])C([H])([H])c2c([H])c(OC([H])([H])C([H])([H])N(C([H])([H])C([H])([H])C([H])([H])C([H])([H])[N+]([H])([H])[H])C([H])([H])C([H])([H])[N+]3([H])C([H])([H])C([H])([H])N(C(=O)N4C([H])([H])C([H])([H])C([H])([H])C([H])(n5nc(-c6c([H])c([H])c(Oc7c([H])c([H])c(F)c([H])c7F)c([H])c6[H])c(C(=O)N([H])[H])c5N([H])[H])C4([H])[H])C([H])([H])C3([H])[H])c([H])c([H])c2C1([H])[H]

>  <smiles>  (96) 
[H]c1c([H])c([H])c2c(c1[H])C([H])([H])C([H])([H])C([H])([H])C2([H])N([H])C(=O)C1([H])N(C(=O)C([H])(N([H])C(=O)C([H])(N([H])C([H])([H])[H])C([H])([H])[H])C(C([H])([H])[H])(C([H])([H])[H])C([H])([H])[H])C([H])([H])c2c([H])c(OC([H])([H])C([H])([H])N(C([H])([H])C([H])([H])C([H])([H])C([H])([H])[N+]([H])([H])[H])C([H])([H])C([H])([H])[N+]3([H])C([H])([H])C([H])([H])N(C(=O)N4C([H])([H])C([H])([H])C([H])([H])C([H])(n5nc(-c6c([H])c([H])c(Oc7c([H])c([H])c(F)c([H])c7F)c([H])c6[H])c(C(=O)N([H])[H])c5N([H])[H])C4([H])[H])C([H])([H])C3([H])[H])c([H])c([H])c2C1([H])[H]

$$$$
97:0:0
     RDKit          3D

 95103  0  0  1  0  0  0  0  0999 V2000
  -30.7360  -17.6600   20.5620 C   0  0  0  0  0  3  0  0  0  0  0  0
  -29.6770  -19.5120   21.8860 C   0  0  0  0  0  2  0  0  0  0  0  0
  -30.2040  -19.7990   19.4410 C   0  0  0  0  0  2  0  0  0  0  0  0
  -28.4800  -20.4640   21.6950 C   0  0  0  0  0  2  0  0  0  0  0  0
  -28.9460  -20.6680   19.3040 C   0  0  0  0  0  2  0  0  0  0  0  0
  -30.1630  -18.9000   20.6230 N   0  0  0  0  0  0  0  0  0  0  0  0
  -31.2660  -17.1980   19.4120 N   0  0  0  0  0  0  0  0  0  0  0  0
  -28.6550  -21.3980   20.5570 N   0  0  1  0  0  4  0  0  0  0  0  0
  -31.6680  -16.2560   19.4230 H   0  0  0  0  0  0  0  0  0  0  0  0
  -31.2910  -17.7180   18.5470 H   0  0  0  0  0  0  0  0  0  0  0  0
  -29.4710  -21.9570   20.7560 H   0  0  0  0  0  0  0  0  0  0  0  0
  -30.8600  -16.7180   21.7470 C   0  0  0  0  0  2  0  0  0  0  0  0
  -30.8500  -14.4850   20.6590 C   0  0  0  0  0  0  0  0  0  0  0  0
  -30.5320  -12.3420   19.4900 C   0  0  0  0  0  2  0  0  0  0  0  0
  -29.6300  -12.5250   18.2540 C   0  0  0  0  0  2  0  0  0  0  0  0
  -28.1440  -12.4080   18.6410 C   0  0  0  0  0  2  0  0  0  0  0  0
  -27.7740  -13.2900   19.8630 C   0  0  0  0  0  3  0  0  0  0  0  0
  -28.7840  -13.0810   21.0140 C   0  0  0  0  0  2  0  0  0  0  0  0
  -30.1390  -13.3400   20.4950 N   0  0  0  0  0  0  0  0  0  0  0  0
  -31.9130  -14.7170   20.0730 O   0  0  0  0  0  0  0  0  0  0  0  0
  -30.2980  -15.4000   21.4590 N   0  0  0  0  0  0  0  0  0  0  0  0
  -29.4270  -15.1600   21.9050 H   0  0  0  0  0  0  0  0  0  0  0  0
  -25.3670  -13.9440   20.5060 C   0  0  0  0  0  0  0  0  0  0  0  0
  -24.2740  -13.1910   20.8410 C   0  0  0  0  0  0  0  0  0  0  0  0
  -24.7090  -11.8300   20.8140 C   0  0  0  0  0  0  0  0  0  0  0  0
  -26.4010  -13.0430   20.2990 N   0  0  0  0  0  0  0  0  0  0  0  0
  -26.0050  -11.7660   20.5390 N   0  0  0  0  0  0  0  0  0  0  0  0
  -23.9540  -10.5810   20.9780 C   0  0  0  0  0  0  0  0  0  0  0  0
  -24.3620   -9.5870   21.8940 C   0  0  0  0  0  3  0  0  0  0  0  0
  -23.6100   -8.4020   22.0460 C   0  0  0  0  0  3  0  0  0  0  0  0
  -22.4350   -8.2040   21.2820 C   0  0  0  0  0  0  0  0  0  0  0  0
  -22.0460   -9.1880   20.3550 C   0  0  0  0  0  3  0  0  0  0  0  0
  -22.7980  -10.3640   20.2010 C   0  0  0  0  0  3  0  0  0  0  0  0
  -21.6560   -7.0740   21.3440 O   0  0  0  0  0  0  0  0  0  0  0  0
  -21.6080   -6.2940   22.4720 C   0  0  0  0  0  0  0  0  0  0  0  0
  -21.2220   -6.8200   23.7250 C   0  0  0  0  0  3  0  0  0  0  0  0
  -21.1190   -5.9680   24.8430 C   0  0  0  0  0  3  0  0  0  0  0  0
  -21.3900   -4.5940   24.7090 C   0  0  0  0  0  0  0  0  0  0  0  0
  -21.7690   -4.0690   23.4610 C   0  0  0  0  0  3  0  0  0  0  0  0
  -21.8740   -4.9160   22.3450 C   0  0  0  0  0  0  0  0  0  0  0  0
  -22.2180   -4.4020   21.1410 F   0  0  0  0  0  0  0  0  0  0  0  0
  -21.2840   -3.7740   25.7820 F   0  0  0  0  0  0  0  0  0  0  0  0
  -22.8790  -13.6940   21.0820 C   0  0  0  0  0  0  0  0  0  0  0  0
  -22.1190  -13.0110   21.9310 N   0  0  0  0  0  0  0  0  0  0  0  0
  -22.4720  -14.7270   20.5540 O   0  0  0  0  0  0  0  0  0  0  0  0
  -22.4610  -12.1740   22.3800 H   0  0  0  0  0  0  0  0  0  0  0  0
  -21.1820  -13.3290   22.1330 H   0  0  0  0  0  0  0  0  0  0  0  0
  -25.5640  -15.3120   20.3410 N   0  0  0  0  0  0  0  0  0  0  0  0
  -24.8050  -15.9800   20.4230 H   0  0  0  0  0  0  0  0  0  0  0  0
  -26.4300  -15.7300   20.0260 H   0  0  0  0  0  0  0  0  0  0  0  0
  -27.5330  -22.3650   20.4260 C   0  0  0  0  0  2  0  0  0  0  0  0
  -27.8690  -23.7170   21.0820 C   0  0  0  0  0  2  0  0  0  0  0  0
  -28.6410  -24.6760   20.1590 C   0  0  0  0  0  2  0  0  0  0  0  0
  -28.8980  -26.0440   20.8150 C   0  0  0  0  0  2  0  0  0  0  0  0
  -28.8310  -27.0980   19.8570 O   0  0  0  0  0  0  0  0  0  0  0  0
  -24.7270  -31.8050   23.2340 C   0  0  0  0  0  0  0  0  0  0  0  0
  -27.6330  -27.7650   19.8820 C   0  0  0  0  0  0  0  0  0  0  0  0
  -23.6130  -30.4720   21.4720 C   0  0  0  0  0  3  0  0  0  0  0  0
  -25.1620  -29.1160   19.9680 C   0  0  0  0  0  0  0  0  0  0  0  0
  -26.1170  -30.9730   21.3440 C   0  0  0  0  0  2  0  0  0  0  0  0
  -26.2810  -29.6610   20.6110 C   0  0  0  0  0  0  0  0  0  0  0  0
  -27.5220  -28.9920   20.5680 C   0  0  0  0  0  3  0  0  0  0  0  0
  -26.5030  -27.2240   19.2350 C   0  0  0  0  0  3  0  0  0  0  0  0
  -25.2650  -27.8940   19.2790 C   0  0  0  0  0  3  0  0  0  0  0  0
  -23.8750  -29.9040   20.0520 C   0  0  0  0  0  2  0  0  0  0  0  0
  -24.8360  -31.0930   22.0780 N   0  0  0  0  0  0  0  0  0  0  0  0
  -23.6270  -31.9850   23.7740 O   0  0  0  0  0  0  0  0  0  0  0  0
  -23.0010  -29.3530   22.3440 C   0  0  0  0  0  0  0  0  0  0  0  0
  -21.6840  -29.1360   22.1990 N   0  0  0  0  0  0  0  0  0  0  0  0
  -23.7070  -28.6860   23.1060 O   0  0  0  0  0  0  0  0  0  0  0  0
  -21.1760  -29.7320   21.5600 H   0  0  0  0  0  0  0  0  0  0  0  0
  -18.3500  -27.8060   22.5970 C   0  0  0  0  0  0  0  0  0  0  0  0
  -20.9000  -28.1130   22.8870 C   0  0  0  0  0  3  0  0  0  0  0  0
  -21.0410  -26.7400   22.1880 C   0  0  0  0  0  2  0  0  0  0  0  0
  -19.9450  -26.4750   21.1510 C   0  0  0  0  0  2  0  0  0  0  0  0
  -18.5620  -26.5250   21.8070 C   0  0  0  0  0  2  0  0  0  0  0  0
  -19.4480  -28.5590   23.0890 C   0  0  0  0  0  0  0  0  0  0  0  0
  -19.1960  -29.7620   23.7860 C   0  0  0  0  0  3  0  0  0  0  0  0
  -17.8790  -30.2100   23.9940 C   0  0  0  0  0  3  0  0  0  0  0  0
  -16.7950  -29.4530   23.5180 C   0  0  0  0  0  3  0  0  0  0  0  0
  -17.0310  -28.2520   22.8250 C   0  0  0  0  0  3  0  0  0  0  0  0
  -25.9730  -32.4470   23.9200 C   0  0  0  0  0  3  0  0  0  0  0  0
  -25.6060  -33.8130   24.3140 N   0  0  0  0  0  0  0  0  0  0  0  0
  -25.9210  -34.9150   23.6180 C   0  0  0  0  0  0  0  0  0  0  0  0
  -26.6220  -34.8880   22.6030 O   0  0  0  0  0  0  0  0  0  0  0  0
  -24.9840  -33.9050   25.1040 H   0  0  0  0  0  0  0  0  0  0  0  0
  -24.1330  -36.6550   23.3080 C   0  0  0  0  0  1  0  0  0  0  0  0
  -25.3690  -36.2580   24.1300 C   0  0  0  0  0  3  0  0  0  0  0  0
  -27.4490  -37.1770   25.0550 C   0  0  0  0  0  1  0  0  0  0  0  0
  -26.3630  -37.3530   24.0960 N   0  0  0  0  0  0  0  0  0  0  0  0
  -25.9180  -38.2480   24.2790 H   0  0  0  0  0  0  0  0  0  0  0  0
  -26.4910  -31.6260   25.1650 C   0  0  1  0  0  0  0  0  0  0  0  0
  -25.3850  -31.2950   26.1940 C   0  0  0  0  0  1  0  0  0  0  0  0
  -27.1290  -30.2920   24.7110 C   0  0  0  0  0  1  0  0  0  0  0  0
  -27.5990  -32.4220   25.8940 C   0  0  0  0  0  1  0  0  0  0  0  0
  1  6  1  0
  1 12  1  0
  3  6  1  0
  4  2  1  0
  5  3  1  0
  5  8  1  0
  6  2  1  0
  7  9  1  0
  7  1  1  0
  8 11  1  1
  8  4  1  0
 10  7  1  0
 13 21  1  0
 14 19  1  0
 15 16  1  0
 15 14  1  0
 17 16  1  0
 17 26  1  0
 17 18  1  0
 19 13  1  0
 19 18  1  0
 20 13  2  0
 21 12  1  0
 21 22  1  0
 23 24  2  0
 24 43  1  0
 25 24  1  0
 25 28  1  0
 26 23  1  0
 26 27  1  0
 27 25  2  0
 28 29  1  0
 29 30  2  0
 31 34  1  0
 31 30  1  0
 32 31  2  0
 33 32  1  0
 33 28  2  0
 34 35  1  0
 35 36  1  0
 36 37  2  0
 38 37  1  0
 38 42  1  0
 39 38  2  0
 40 35  2  0
 40 39  1  0
 41 40  1  0
 43 44  1  0
 44 47  1  0
 44 46  1  0
 45 43  2  0
 48 49  1  0
 48 23  1  0
 50 48  1  0
 51  8  1  0
 51 52  1  0
 53 54  1  0
 53 52  1  0
 55 57  1  0
 55 54  1  0
 56 67  2  0
 57 62  1  0
 58 66  1  0
 58 68  1  0
 59 65  1  0
 59 61  1  0
 60 66  1  0
 61 60  1  0
 62 61  2  0
 63 64  1  0
 63 57  2  0
 64 59  2  0
 65 58  1  0
 66 56  1  0
 68 70  2  0
 69 68  1  0
 71 69  1  0
 72 81  2  0
 72 77  1  0
 73 69  1  0
 73 77  1  0
 74 73  1  0
 75 76  1  0
 75 74  1  0
 76 72  1  0
 77 78  2  0
 78 79  1  0
 80 79  2  0
 81 80  1  0
 82 56  1  0
 82 83  1  0
 82 92  1  0
 83 86  1  0
 84 88  1  0
 84 83  1  0
 85 84  2  0
 88 87  1  0
 90 88  1  0
 90 91  1  0
 90 89  1  0
 92 95  1  1
 92 93  1  0
 94 92  1  0
M  ISO  4  13 100  21 100  54 101  55 101
M  END
>  <TORSDO>  (97) 
F 21

>  <SCORE>  (97) 
-11.658

>  <name>  (97) 
97

>  <ligand_id>  (97) 
97

>  <original_smiles>  (97) 
[H]c1c([H])c([H])c2c(c1[H])C([H])([H])C([H])([H])C([H])([H])C2([H])N([H])C(=O)C1([H])N(C(=O)C([H])(N([H])C(=O)C([H])(N([H])C([H])([H])[H])C([H])([H])[H])C(C([H])([H])[H])(C([H])([H])[H])C([H])([H])[H])C([H])([H])c2c([H])c(OC([H])([H])C([H])([H])C([H])([H])C([H])([H])[N+]3([H])C([H])([H])C([H])([H])N(C(=[N+]([H])[H])C([H])([H])N([H])C(=O)N4C([H])([H])C([H])([H])C([H])([H])C([H])(n5nc(-c6c([H])c([H])c(Oc7c([H])c([H])c(F)c([H])c7F)c([H])c6[H])c(C(=O)N([H])[H])c5N([H])[H])C4([H])[H])C([H])([H])C3([H])[H])c([H])c([H])c2C1([H])[H]

>  <smiles>  (97) 
[H]c1c([H])c([H])c2c(c1[H])C([H])([H])C([H])([H])C([H])([H])C2([H])N([H])C(=O)C1([H])N(C(=O)C([H])(N([H])C(=O)C([H])(N([H])C([H])([H])[H])C([H])([H])[H])C(C([H])([H])[H])(C([H])([H])[H])C([H])([H])[H])C([H])([H])c2c([H])c(OC([H])([H])C([H])([H])C([H])([H])C([H])([H])[N+]3([H])C([H])([H])C([H])([H])N(C(=[N+]([H])[H])C([H])([H])N([H])C(=O)N4C([H])([H])C([H])([H])C([H])([H])C([H])(n5nc(-c6c([H])c([H])c(Oc7c([H])c([H])c(F)c([H])c7F)c([H])c6[H])c(C(=O)N([H])[H])c5N([H])[H])C4([H])[H])C([H])([H])C3([H])[H])c([H])c([H])c2C1([H])[H]

$$$$
98:0:0
     RDKit          3D

100108  0  0  1  0  0  0  0  0999 V2000
  -29.8650  -19.3180   20.6230 C   0  0  0  0  0  2  0  0  0  0  0  0
  -29.2000  -20.3900   20.0950 N   0  0  0  0  0  2  0  0  0  0  0  0
  -29.3650  -21.9350   20.4650 C   0  0  0  0  0  2  0  0  0  0  0  0
  -28.1440  -23.1220   20.3660 C   0  0  0  0  0  3  0  0  0  0  0  0
  -26.9780  -22.4480   19.7600 N   0  0  0  0  0  4  0  0  0  0  0  0
  -27.1090  -22.3190   18.7720 H   0  0  0  0  0  0  0  0  0  0  0  0
  -26.1280  -22.9610   19.9160 H   0  0  0  0  0  0  0  0  0  0  0  0
  -26.8850  -21.5350   20.1710 H   0  0  0  0  0  0  0  0  0  0  0  0
  -28.2810  -24.7100   19.7250 C   0  0  0  0  0  2  0  0  0  0  0  0
  -28.1370  -26.1550   20.3330 O   0  0  0  0  0  0  0  0  0  0  0  0
  -24.5630  -31.9160   23.2050 C   0  0  0  0  0  0  0  0  0  0  0  0
  -27.0720  -27.1260   20.2020 C   0  0  0  0  0  0  0  0  0  0  0  0
  -23.3350  -30.5120   21.5920 C   0  0  0  0  0  3  0  0  0  0  0  0
  -24.7550  -28.9010   20.1670 C   0  0  0  0  0  0  0  0  0  0  0  0
  -25.8880  -30.7460   21.4000 C   0  0  0  0  0  2  0  0  0  0  0  0
  -25.9400  -29.3440   20.7630 C   0  0  0  0  0  0  0  0  0  0  0  0
  -27.0930  -28.4700   20.7680 C   0  0  0  0  0  3  0  0  0  0  0  0
  -25.8620  -26.7880   19.5580 C   0  0  0  0  0  3  0  0  0  0  0  0
  -24.7310  -27.6380   19.5480 C   0  0  0  0  0  3  0  0  0  0  0  0
  -23.5360  -29.8110   20.2190 C   0  0  0  0  0  2  0  0  0  0  0  0
  -24.6170  -31.0810   22.1200 N   0  0  0  0  0  0  0  0  0  0  0  0
  -23.4850  -32.2160   23.7400 O   0  0  0  0  0  0  0  0  0  0  0  0
  -22.6560  -29.5250   22.5750 C   0  0  0  0  0  0  0  0  0  0  0  0
  -21.3270  -29.3580   22.4580 N   0  0  0  0  0  0  0  0  0  0  0  0
  -23.3280  -28.9100   23.4070 O   0  0  0  0  0  0  0  0  0  0  0  0
  -20.8390  -29.9060   21.7630 H   0  0  0  0  0  0  0  0  0  0  0  0
  -17.9440  -28.1700   22.9870 C   0  0  0  0  0  0  0  0  0  0  0  0
  -20.5040  -28.4360   23.2470 C   0  0  0  0  0  3  0  0  0  0  0  0
  -20.6040  -26.9930   22.7000 C   0  0  0  0  0  2  0  0  0  0  0  0
  -19.5020  -26.6530   21.6920 C   0  0  0  0  0  2  0  0  0  0  0  0
  -18.1210  -26.8090   22.3340 C   0  0  0  0  0  2  0  0  0  0  0  0
  -19.0630  -28.9400   23.4000 C   0  0  0  0  0  0  0  0  0  0  0  0
  -18.8430  -30.2130   23.9730 C   0  0  0  0  0  3  0  0  0  0  0  0
  -17.5380  -30.7140   24.1340 C   0  0  0  0  0  3  0  0  0  0  0  0
  -16.4340  -29.9410   23.7340 C   0  0  0  0  0  3  0  0  0  0  0  0
  -16.6380  -28.6710   23.1670 C   0  0  0  0  0  3  0  0  0  0  0  0
  -25.8520  -32.5490   23.8120 C   0  0  0  0  0  3  0  0  0  0  0  0
  -26.3770  -31.7810   25.0890 C   0  0  1  0  0  0  0  0  0  0  0  0
  -25.2920  -31.5520   26.1680 C   0  0  0  0  0  1  0  0  0  0  0  0
  -26.9540  -30.4010   24.7020 C   0  0  0  0  0  1  0  0  0  0  0  0
  -27.5360  -32.5750   25.7390 C   0  0  0  0  0  1  0  0  0  0  0  0
  -25.5510  -33.9500   24.1480 N   0  0  0  0  0  0  0  0  0  0  0  0
  -25.8960  -35.0070   23.4030 C   0  0  0  0  0  0  0  0  0  0  0  0
  -26.5670  -34.9060   22.3720 O   0  0  0  0  0  0  0  0  0  0  0  0
  -24.9550  -34.1020   24.9490 H   0  0  0  0  0  0  0  0  0  0  0  0
  -24.1900  -36.8270   23.0570 C   0  0  0  0  0  1  0  0  0  0  0  0
  -25.4220  -36.3990   23.8710 C   0  0  0  0  0  3  0  0  0  0  0  0
  -27.5610  -37.2550   24.7230 C   0  0  0  0  0  1  0  0  0  0  0  0
  -26.4680  -37.4410   23.7730 N   0  0  0  0  0  0  0  0  0  0  0  0
  -26.0700  -38.3640   23.9250 H   0  0  0  0  0  0  0  0  0  0  0  0
  -30.2320  -17.7920   19.9590 C   0  0  0  0  0  3  0  0  0  0  0  0
  -30.9500  -15.1490   20.4300 C   0  0  0  0  0  0  0  0  0  0  0  0
  -30.7960  -12.8170   19.4440 C   0  0  0  0  0  2  0  0  0  0  0  0
  -29.8930  -12.8360   18.1860 C   0  0  0  0  0  2  0  0  0  0  0  0
  -28.4150  -12.6560   18.5770 C   0  0  0  0  0  2  0  0  0  0  0  0
  -28.0100  -13.5480   19.7790 C   0  0  0  0  0  3  0  0  0  0  0  0
  -29.0380  -13.4940   20.9320 C   0  0  0  0  0  2  0  0  0  0  0  0
  -30.3360  -13.8950   20.3750 N   0  0  0  0  0  0  0  0  0  0  0  0
  -32.1200  -15.2140   20.0410 O   0  0  0  0  0  0  0  0  0  0  0  0
  -30.2140  -16.3550   20.6590 N   0  0  0  0  0  0  0  0  0  0  0  0
  -29.3390  -16.1860   21.1310 H   0  0  0  0  0  0  0  0  0  0  0  0
  -25.6190  -14.1670   20.4490 C   0  0  0  0  0  0  0  0  0  0  0  0
  -24.5320  -13.4110   20.7910 C   0  0  0  0  0  0  0  0  0  0  0  0
  -24.9730  -12.0520   20.7710 C   0  0  0  0  0  0  0  0  0  0  0  0
  -26.6530  -13.2710   20.2360 N   0  0  0  0  0  0  0  0  0  0  0  0
  -26.2720  -11.9920   20.4950 N   0  0  0  0  0  0  0  0  0  0  0  0
  -24.2190  -10.8030   20.9410 C   0  0  0  0  0  0  0  0  0  0  0  0
  -24.5990   -9.8330   21.8940 C   0  0  0  0  0  3  0  0  0  0  0  0
  -23.8440   -8.6500   22.0520 C   0  0  0  0  0  3  0  0  0  0  0  0
  -22.6940   -8.4300   21.2560 C   0  0  0  0  0  0  0  0  0  0  0  0
  -22.3340   -9.3880   20.2930 C   0  0  0  0  0  3  0  0  0  0  0  0
  -23.0890  -10.5620   20.1330 C   0  0  0  0  0  3  0  0  0  0  0  0
  -21.9150   -7.3000   21.3230 O   0  0  0  0  0  0  0  0  0  0  0  0
  -21.7920   -6.5790   22.4830 C   0  0  0  0  0  0  0  0  0  0  0  0
  -21.3060   -7.1600   23.6740 C   0  0  0  0  0  3  0  0  0  0  0  0
  -21.1300   -6.3650   24.8240 C   0  0  0  0  0  3  0  0  0  0  0  0
  -21.4280   -4.9890   24.7830 C   0  0  0  0  0  0  0  0  0  0  0  0
  -21.9060   -4.4080   23.5950 C   0  0  0  0  0  3  0  0  0  0  0  0
  -22.0840   -5.1990   22.4480 C   0  0  0  0  0  0  0  0  0  0  0  0
  -22.5240   -4.6300   21.3010 F   0  0  0  0  0  0  0  0  0  0  0  0
  -21.2510   -4.2240   25.8850 F   0  0  0  0  0  0  0  0  0  0  0  0
  -23.1380  -13.9150   21.0230 C   0  0  0  0  0  0  0  0  0  0  0  0
  -22.3820  -13.2490   21.8890 N   0  0  0  0  0  0  0  0  0  0  0  0
  -22.7280  -14.9340   20.4720 O   0  0  0  0  0  0  0  0  0  0  0  0
  -22.7260  -12.4250   22.3590 H   0  0  0  0  0  0  0  0  0  0  0  0
  -21.4440  -13.5680   22.0860 H   0  0  0  0  0  0  0  0  0  0  0  0
  -25.8110  -15.5350   20.2760 N   0  0  0  0  0  0  0  0  0  0  0  0
  -25.0440  -16.1940   20.3610 H   0  0  0  0  0  0  0  0  0  0  0  0
  -26.6570  -15.9570   19.9220 H   0  0  0  0  0  0  0  0  0  0  0  0
  -33.3150  -19.0400   17.8750 C   0  0  0  0  0  2  0  0  0  0  0  0
  -32.1170  -17.1860   16.6430 C   0  0  0  0  0  2  0  0  0  0  0  0
  -32.0890  -19.1780   18.8030 C   0  0  0  0  0  2  0  0  0  0  0  0
  -30.9190  -17.3830   17.5940 C   0  0  0  0  0  2  0  0  0  0  0  0
  -32.9830  -18.4540   16.4840 C   0  0  0  0  0  3  0  0  0  0  0  0
  -31.3370  -17.8910   18.9330 N   0  0  2  0  0  4  0  0  0  0  0  0
  -32.0260  -17.2400   19.2870 H   0  0  0  0  0  0  0  0  0  0  0  0
  -32.4020  -19.4460   15.5490 N   0  0  0  0  0  4  0  0  0  0  0  0
  -31.5210  -19.8230   15.8480 H   0  0  0  0  0  0  0  0  0  0  0  0
  -32.2700  -19.0320   14.6420 H   0  0  0  0  0  0  0  0  0  0  0  0
  -33.0380  -20.2140   15.4200 H   0  0  0  0  0  0  0  0  0  0  0  0
  2  3  1  0
  2  1  1  0
  4  9  1  0
  4  3  1  0
  5  7  1  0
  5  8  1  0
  5  4  1  0
  6  5  1  0
  9 10  1  0
 11 22  2  0
 12 10  1  0
 12 17  1  0
 13 21  1  0
 13 23  1  0
 14 20  1  0
 14 16  1  0
 15 21  1  0
 16 17  2  0
 16 15  1  0
 18 12  2  0
 19 18  1  0
 19 14  2  0
 20 13  1  0
 21 11  1  0
 23 25  2  0
 24 23  1  0
 26 24  1  0
 27 36  2  0
 27 32  1  0
 28 24  1  0
 28 32  1  0
 29 28  1  0
 30 31  1  0
 30 29  1  0
 31 27  1  0
 32 33  2  0
 33 34  1  0
 35 34  2  0
 36 35  1  0
 37 11  1  0
 37 42  1  0
 37 38  1  0
 38 41  1  1
 38 39  1  0
 40 38  1  0
 42 45  1  0
 43 47  1  0
 43 42  1  0
 44 43  2  0
 47 46  1  0
 49 47  1  0
 49 50  1  0
 49 48  1  0
 51  1  1  0
 51 60  1  0
 52 60  1  0
 53 58  1  0
 54 55  1  0
 54 53  1  0
 56 55  1  0
 56 65  1  0
 56 57  1  0
 58 52  1  0
 58 57  1  0
 59 52  2  0
 60 61  1  0
 62 63  2  0
 63 82  1  0
 64 63  1  0
 64 67  1  0
 65 62  1  0
 65 66  1  0
 66 64  2  0
 67 68  1  0
 68 69  2  0
 70 73  1  0
 70 69  1  0
 71 70  2  0
 72 71  1  0
 72 67  2  0
 73 74  1  0
 74 75  1  0
 75 76  2  0
 77 76  1  0
 77 81  1  0
 78 77  2  0
 79 74  2  0
 79 78  1  0
 80 79  1  0
 82 83  1  0
 83 86  1  0
 83 85  1  0
 84 82  2  0
 87 88  1  0
 87 62  1  0
 89 87  1  0
 90 92  1  0
 91 93  1  0
 92 95  1  0
 93 95  1  0
 94 97  1  0
 94 91  1  0
 94 90  1  0
 95 96  1  1
 95 51  1  0
 97 98  1  0
 99 97  1  0
100 97  1  0
M  ISO  4   9 101  10 101  52 100  60 100
M  END
>  <TORSDO>  (98) 
F 23

>  <SCORE>  (98) 
-14.555

>  <name>  (98) 
98

>  <ligand_id>  (98) 
98

>  <original_smiles>  (98) 
[H]C(=NC([H])([H])C([H])(C([H])([H])Oc1c([H])c([H])c2c(c1[H])C([H])([H])N(C(=O)C([H])(N([H])C(=O)C([H])(N([H])C([H])([H])[H])C([H])([H])[H])C(C([H])([H])[H])(C([H])([H])[H])C([H])([H])[H])C([H])(C(=O)N([H])C1([H])c3c([H])c([H])c([H])c([H])c3C([H])([H])C([H])([H])C1([H])[H])C2([H])[H])[N+]([H])([H])[H])C([H])(N([H])C(=O)N1C([H])([H])C([H])([H])C([H])([H])C([H])(n2nc(-c3c([H])c([H])c(Oc4c([H])c([H])c(F)c([H])c4F)c([H])c3[H])c(C(=O)N([H])[H])c2N([H])[H])C1([H])[H])[N+]1([H])C([H])([H])C([H])([H])C([H])([N+]([H])([H])[H])C([H])([H])C1([H])[H]

>  <smiles>  (98) 
[H]C(=NC([H])([H])C([H])(C([H])([H])Oc1c([H])c([H])c2c(c1[H])C([H])([H])N(C(=O)C([H])(N([H])C(=O)C([H])(N([H])C([H])([H])[H])C([H])([H])[H])C(C([H])([H])[H])(C([H])([H])[H])C([H])([H])[H])C([H])(C(=O)N([H])C1([H])c3c([H])c([H])c([H])c([H])c3C([H])([H])C([H])([H])C1([H])[H])C2([H])[H])[N+]([H])([H])[H])C([H])(N([H])C(=O)N1C([H])([H])C([H])([H])C([H])([H])C([H])(n2nc(-c3c([H])c([H])c(Oc4c([H])c([H])c(F)c([H])c4F)c([H])c3[H])c(C(=O)N([H])[H])c2N([H])[H])C1([H])[H])[N+]1([H])C([H])([H])C([H])([H])C([H])([N+]([H])([H])[H])C([H])([H])C1([H])[H]

$$$$
99:0:0
     RDKit          3D

111121  0  0  1  0  0  0  0  0999 V2000
  -28.4710  -21.8100   21.0320 C   0  0  0  0  0  2  0  0  0  0  0  0
  -27.7560  -20.7180   20.2410 C   0  0  0  0  0  2  0  0  0  0  0  0
  -26.5960  -19.9600   18.1410 C   0  0  0  0  0  2  0  0  0  0  0  0
  -28.0310  -21.9230   17.8900 C   0  0  0  0  0  2  0  0  0  0  0  0
  -25.5290  -24.3710   20.7810 C   0  0  0  0  0  2  0  0  0  0  0  0
  -25.9290  -22.1670   19.3770 C   0  0  0  0  0  2  0  0  0  0  0  0
  -27.7270  -19.1820   17.3880 C   0  0  0  0  0  2  0  0  0  0  0  0
  -29.2710  -21.1070   17.4950 C   0  0  0  0  0  2  0  0  0  0  0  0
  -26.0690  -25.2120   21.9680 C   0  0  0  0  0  2  0  0  0  0  0  0
  -28.2190  -24.0890   22.0030 C   0  0  0  0  0  2  0  0  0  0  0  0
  -27.7960  -23.1720   20.8610 C   0  0  0  0  0  3  0  0  0  0  0  0
  -26.2620  -23.0110   20.6670 C   0  0  0  0  0  3  0  0  0  0  0  0
  -27.0890  -21.2130   18.9220 C   0  0  2  0  0  0  0  0  0  0  0  0
  -29.0470  -19.6960   17.7740 N   0  0  0  0  0  0  0  0  0  0  0  0
  -27.5390  -25.3750   21.8330 N   0  0  2  0  0  4  0  0  0  0  0  0
  -27.6890  -25.6380   20.8670 H   0  0  0  0  0  0  0  0  0  0  0  0
  -30.2250  -18.8690   17.5890 C   0  0  0  0  0  2  0  0  0  0  0  0
  -31.4360  -19.4910   18.3330 C   0  0  0  0  0  2  0  0  0  0  0  0
  -31.9310  -18.5900   19.4000 N   0  0  2  0  0  4  0  0  0  0  0  0
  -31.1560  -17.9770   19.5930 H   0  0  0  0  0  0  0  0  0  0  0  0
  -32.1890  -19.2530   20.7100 C   0  0  0  0  0  2  0  0  0  0  0  0
  -32.6090  -20.6930   20.5880 C   0  0  0  0  0  0  0  0  0  0  0  0
  -31.8070  -21.6600   21.0520 N   0  0  0  0  0  0  0  0  0  0  0  0
  -33.7800  -21.0120   20.0200 N   0  0  0  0  0  4  0  0  0  0  0  0
  -30.9390  -21.4410   21.5200 H   0  0  0  0  0  0  0  0  0  0  0  0
  -32.0780  -22.6300   21.0560 H   0  0  0  0  0  0  0  0  0  0  0  0
  -34.4320  -20.3060   19.7150 H   0  0  0  0  0  0  0  0  0  0  0  0
  -34.1090  -21.9650   19.9820 H   0  0  0  0  0  0  0  0  0  0  0  0
  -32.9990  -17.6720   18.9340 C   0  0  0  0  0  2  0  0  0  0  0  0
  -33.0680  -16.4120   19.8100 C   0  0  0  0  0  2  0  0  0  0  0  0
  -31.7540  -14.6480   18.6260 C   0  0  0  0  0  0  0  0  0  0  0  0
  -31.4330  -12.2290   18.6370 C   0  0  0  0  0  2  0  0  0  0  0  0
  -30.3850  -11.6410   17.6880 C   0  0  0  0  0  2  0  0  0  0  0  0
  -29.0000  -11.6590   18.3490 C   0  0  0  0  0  2  0  0  0  0  0  0
  -28.6270  -13.0590   18.8950 C   0  0  0  0  0  3  0  0  0  0  0  0
  -29.7630  -13.6480   19.7630 C   0  0  0  0  0  2  0  0  0  0  0  0
  -31.0330  -13.5840   19.0170 N   0  0  0  0  0  0  0  0  0  0  0  0
  -32.4280  -14.7080   17.5930 O   0  0  0  0  0  0  0  0  0  0  0  0
  -31.9240  -15.5120   19.6360 N   0  0  0  0  0  0  0  0  0  0  0  0
  -31.4210  -15.2620   20.4790 H   0  0  0  0  0  0  0  0  0  0  0  0
  -26.5680  -14.0480   20.0870 C   0  0  0  0  0  0  0  0  0  0  0  0
  -25.4520  -13.4610   20.6280 C   0  0  0  0  0  0  0  0  0  0  0  0
  -25.6200  -12.0560   20.4440 C   0  0  0  0  0  0  0  0  0  0  0  0
  -27.3580  -13.0090   19.6240 N   0  0  0  0  0  0  0  0  0  0  0  0
  -26.7980  -11.8010   19.8880 N   0  0  0  0  0  0  0  0  0  0  0  0
  -24.7020  -10.9400   20.7110 C   0  0  0  0  0  0  0  0  0  0  0  0
  -25.0480   -9.8950   21.5950 C   0  0  0  0  0  3  0  0  0  0  0  0
  -24.1410   -8.8440   21.8510 C   0  0  0  0  0  3  0  0  0  0  0  0
  -22.8730   -8.8320   21.2240 C   0  0  0  0  0  0  0  0  0  0  0  0
  -22.5420   -9.8620   20.3270 C   0  0  0  0  0  3  0  0  0  0  0  0
  -23.4480  -10.9060   20.0690 C   0  0  0  0  0  3  0  0  0  0  0  0
  -21.9380   -7.8400   21.3940 O   0  0  0  0  0  0  0  0  0  0  0  0
  -21.8580   -7.1180   22.5570 C   0  0  0  0  0  0  0  0  0  0  0  0
  -21.5260   -7.7230   23.7890 C   0  0  0  0  0  3  0  0  0  0  0  0
  -21.3860   -6.9330   24.9470 C   0  0  0  0  0  3  0  0  0  0  0  0
  -21.5680   -5.5400   24.8760 C   0  0  0  0  0  0  0  0  0  0  0  0
  -21.8920   -4.9330   23.6490 C   0  0  0  0  0  3  0  0  0  0  0  0
  -22.0340   -5.7210   22.4930 C   0  0  0  0  0  0  0  0  0  0  0  0
  -22.3270   -5.1300   21.3100 F   0  0  0  0  0  0  0  0  0  0  0  0
  -21.4250   -4.7790   25.9860 F   0  0  0  0  0  0  0  0  0  0  0  0
  -24.2540  -14.1680   21.1910 C   0  0  0  0  0  0  0  0  0  0  0  0
  -23.6350  -13.5960   22.2190 N   0  0  0  0  0  0  0  0  0  0  0  0
  -23.8900  -15.2590   20.7560 O   0  0  0  0  0  0  0  0  0  0  0  0
  -23.9460  -12.7100   22.5870 H   0  0  0  0  0  0  0  0  0  0  0  0
  -22.8380  -14.0500   22.6430 H   0  0  0  0  0  0  0  0  0  0  0  0
  -26.9620  -15.3710   19.9340 N   0  0  0  0  0  0  0  0  0  0  0  0
  -26.3570  -16.1460   20.1840 H   0  0  0  0  0  0  0  0  0  0  0  0
  -27.7700  -15.6550   19.3970 H   0  0  0  0  0  0  0  0  0  0  0  0
  -28.1900  -26.4670   22.5860 C   0  0  0  0  0  2  0  0  0  0  0  0
  -29.3330  -27.0590   21.7140 C   0  0  0  0  0  2  0  0  0  0  0  0
  -28.9480  -27.1140   20.3270 O   0  0  0  0  0  0  0  0  0  0  0  0
  -24.6310  -31.7660   23.3500 C   0  0  0  0  0  0  0  0  0  0  0  0
  -27.8130  -27.8540   20.1350 C   0  0  0  0  0  0  0  0  0  0  0  0
  -23.6550  -30.4480   21.5000 C   0  0  0  0  0  3  0  0  0  0  0  0
  -25.3140  -29.1370   20.0760 C   0  0  0  0  0  0  0  0  0  0  0  0
  -26.1480  -30.9900   21.5460 C   0  0  0  0  0  2  0  0  0  0  0  0
  -26.3750  -29.7040   20.7860 C   0  0  0  0  0  0  0  0  0  0  0  0
  -27.6290  -29.0830   20.8020 C   0  0  0  0  0  3  0  0  0  0  0  0
  -26.7530  -27.2970   19.3920 C   0  0  0  0  0  3  0  0  0  0  0  0
  -25.4950  -27.9290   19.3750 C   0  0  0  0  0  3  0  0  0  0  0  0
  -24.0110  -29.9010   20.0930 C   0  0  0  0  0  2  0  0  0  0  0  0
  -24.8240  -31.0750   22.1930 N   0  0  0  0  0  0  0  0  0  0  0  0
  -23.4930  -31.9300   23.8100 O   0  0  0  0  0  0  0  0  0  0  0  0
  -22.9930  -29.3140   22.3090 C   0  0  0  0  0  0  0  0  0  0  0  0
  -21.6730  -29.1540   22.1310 N   0  0  0  0  0  0  0  0  0  0  0  0
  -23.6650  -28.5860   23.0430 O   0  0  0  0  0  0  0  0  0  0  0  0
  -21.1960  -29.8060   21.5240 H   0  0  0  0  0  0  0  0  0  0  0  0
  -18.2610  -28.0930   22.6270 C   0  0  0  0  0  0  0  0  0  0  0  0
  -20.8400  -28.1290   22.7550 C   0  0  0  0  0  3  0  0  0  0  0  0
  -20.7990  -26.8430   21.8960 C   0  0  0  0  0  2  0  0  0  0  0  0
  -19.6130  -26.8020   20.9280 C   0  0  0  0  0  2  0  0  0  0  0  0
  -18.2920  -26.8960   21.6940 C   0  0  0  0  0  2  0  0  0  0  0  0
  -19.4580  -28.6780   23.1180 C   0  0  0  0  0  0  0  0  0  0  0  0
  -19.3740  -29.8070   23.9620 C   0  0  0  0  0  3  0  0  0  0  0  0
  -18.1260  -30.3520   24.3160 C   0  0  0  0  0  3  0  0  0  0  0  0
  -16.9430  -29.7620   23.8360 C   0  0  0  0  0  3  0  0  0  0  0  0
  -17.0120  -28.6320   23.0010 C   0  0  0  0  0  3  0  0  0  0  0  0
  -25.8180  -32.4070   24.1340 C   0  0  0  0  0  3  0  0  0  0  0  0
  -26.1600  -31.6500   25.4780 C   0  0  1  0  0  0  0  0  0  0  0  0
  -24.9080  -31.2500   26.2990 C   0  0  0  0  0  1  0  0  0  0  0  0
  -26.9700  -30.3620   25.1960 C   0  0  0  0  0  1  0  0  0  0  0  0
  -27.0540  -32.5470   26.3690 C   0  0  0  0  0  1  0  0  0  0  0  0
  -25.4600  -33.8060   24.3970 N   0  0  0  0  0  0  0  0  0  0  0  0
  -25.8210  -34.8420   23.6270 C   0  0  0  0  0  0  0  0  0  0  0  0
  -26.5530  -34.7220   22.6410 O   0  0  0  0  0  0  0  0  0  0  0  0
  -24.7830  -33.9680   25.1300 H   0  0  0  0  0  0  0  0  0  0  0  0
  -24.0500  -36.5700   23.1600 C   0  0  0  0  0  1  0  0  0  0  0  0
  -25.2820  -36.2320   24.0150 C   0  0  0  0  0  3  0  0  0  0  0  0
  -27.3920  -37.1760   24.8360 C   0  0  0  0  0  1  0  0  0  0  0  0
  -26.2880  -37.3070   23.8900 N   0  0  0  0  0  0  0  0  0  0  0  0
  -25.8620  -38.2200   24.0270 H   0  0  0  0  0  0  0  0  0  0  0  0
  2  1  1  0
 13  3  1  6
  5  9  1  0
  7 14  1  0
  7  3  1  0
  8 14  1  0
  8  4  1  0
 11  1  1  0
 11 10  1  0
 12  6  1  0
 12  5  1  0
 12 11  1  0
 13  4  1  0
 13  6  1  0
 13  2  1  0
 15  9  1  0
 15 10  1  0
 15 69  1  0
 15 16  1  6
 17 14  1  0
 17 18  1  0
 18 19  1  0
 19 20  1  1
 19 21  1  0
 22 21  1  0
 22 23  1  0
 23 26  1  0
 23 25  1  0
 24 22  2  0
 27 24  1  0
 28 24  1  0
 29 19  1  0
 29 30  1  0
 31 37  1  0
 31 39  1  0
 32 37  1  0
 33 34  1  0
 33 32  1  0
 35 34  1  0
 35 44  1  0
 35 36  1  0
 37 36  1  0
 38 31  2  0
 39 30  1  0
 39 40  1  0
 41 42  2  0
 42 61  1  0
 43 42  1  0
 43 46  1  0
 44 45  1  0
 44 41  1  0
 45 43  2  0
 46 47  1  0
 47 48  2  0
 49 52  1  0
 49 48  1  0
 50 49  2  0
 51 50  1  0
 51 46  2  0
 52 53  1  0
 53 54  1  0
 54 55  2  0
 56 55  1  0
 56 60  1  0
 57 56  2  0
 58 53  2  0
 58 57  1  0
 59 58  1  0
 61 62  1  0
 62 64  1  0
 62 65  1  0
 63 61  2  0
 66 41  1  0
 66 67  1  0
 68 66  1  0
 70 69  1  0
 71 70  1  0
 72 83  2  0
 73 71  1  0
 73 78  1  0
 74 82  1  0
 74 84  1  0
 75 81  1  0
 75 77  1  0
 76 82  1  0
 77 78  2  0
 77 76  1  0
 79 73  2  0
 80 79  1  0
 80 75  2  0
 81 74  1  0
 82 72  1  0
 84 86  2  0
 85 84  1  0
 87 85  1  0
 88 97  2  0
 88 93  1  0
 89 85  1  0
 89 93  1  0
 90 89  1  0
 91 92  1  0
 91 90  1  0
 92 88  1  0
 93 94  2  0
 94 95  1  0
 96 95  2  0
 97 96  1  0
 98 72  1  0
 98103  1  0
 98 99  1  0
 99100  1  1
 99102  1  0
101 99  1  0
103106  1  0
104108  1  0
104103  1  0
105104  2  0
108107  1  0
110108  1  0
110111  1  0
110109  1  0
M  ISO  4  31 100  39 100  70 101  71 101
M  END
>  <TORSDO>  (99) 
F 25

>  <SCORE>  (99) 
-10.742

>  <name>  (99) 
99

>  <ligand_id>  (99) 
99

>  <original_smiles>  (99) 
[H]c1c([H])c([H])c2c(c1[H])C([H])([H])C([H])([H])C([H])([H])C2([H])N([H])C(=O)C1([H])N(C(=O)C([H])(N([H])C(=O)C([H])(N([H])C([H])([H])[H])C([H])([H])[H])C(C([H])([H])[H])(C([H])([H])[H])C([H])([H])[H])C([H])([H])c2c([H])c(OC([H])([H])C([H])([H])[N+]3([H])C([H])([H])C([H])([H])C4([H])C([H])([H])C5(C([H])([H])C([H])([H])N(C([H])([H])C([H])([H])[N+]([H])(C([H])([H])C(N([H])[H])=[N+]([H])[H])C([H])([H])C([H])([H])N([H])C(=O)N6C([H])([H])C([H])([H])C([H])([H])C([H])(n7nc(-c8c([H])c([H])c(Oc9c([H])c([H])c(F)c([H])c9F)c([H])c8[H])c(C(=O)N([H])[H])c7N([H])[H])C6([H])[H])C([H])([H])C5([H])[H])C([H])([H])C([H])([H])C4([H])C3([H])[H])c([H])c([H])c2C1([H])[H]

>  <smiles>  (99) 
[H]c1c([H])c([H])c2c(c1[H])C([H])([H])C([H])([H])C([H])([H])C2([H])N([H])C(=O)C1([H])N(C(=O)C([H])(N([H])C(=O)C([H])(N([H])C([H])([H])[H])C([H])([H])[H])C(C([H])([H])[H])(C([H])([H])[H])C([H])([H])[H])C([H])([H])c2c([H])c(OC([H])([H])C([H])([H])[N+]3([H])C([H])([H])C([H])([H])C4([H])C([H])([H])C5(C([H])([H])C([H])([H])N(C([H])([H])C([H])([H])[N+]([H])(C([H])([H])C(N([H])[H])=[N+]([H])[H])C([H])([H])C([H])([H])N([H])C(=O)N6C([H])([H])C([H])([H])C([H])([H])C([H])(n7nc(-c8c([H])c([H])c(Oc9c([H])c([H])c(F)c([H])c9F)c([H])c8[H])c(C(=O)N([H])[H])c7N([H])[H])C6([H])[H])C([H])([H])C5([H])[H])C([H])([H])C([H])([H])C4([H])C3([H])[H])c([H])c([H])c2C1([H])[H]

$$$$
