0:0:0
     RDKit          3D

 89 97  0  0  1  0  0  0  0  0999 V2000
  -28.6090  -22.0430   20.4280 C   0  0  0  0  0  0  0  0  0  0  0  0
  -29.0050  -20.7440   20.6050 N   0  0  0  0  0  0  0  0  0  0  0  0
  -27.2800  -23.0370   22.3580 C   0  0  0  0  0  1  0  0  0  0  0  0
  -27.2330  -22.1920   21.0720 C   0  0  0  0  0  2  0  0  0  0  0  0
  -29.0940  -23.5440   19.8230 C   0  0  0  0  0  2  0  0  0  0  0  0
  -28.0600  -24.9140   19.6980 C   0  0  0  0  0  2  0  0  0  0  0  0
  -28.3320  -26.4640   19.5940 O   0  0  0  0  0  0  0  0  0  0  0  0
  -24.7190  -31.8880   23.1360 C   0  0  0  0  0  0  0  0  0  0  0  0
  -27.2620  -27.4450   19.6590 C   0  0  0  0  0  0  0  0  0  0  0  0
  -23.4810  -30.5940   21.4410 C   0  0  0  0  0  3  0  0  0  0  0  0
  -24.9030  -29.1550   19.8550 C   0  0  0  0  0  0  0  0  0  0  0  0
  -26.0250  -30.9190   21.2040 C   0  0  0  0  0  2  0  0  0  0  0  0
  -26.1010  -29.5770   20.4460 C   0  0  0  0  0  0  0  0  0  0  0  0
  -27.2780  -28.7390   20.3330 C   0  0  0  0  0  3  0  0  0  0  0  0
  -26.0300  -27.1390   19.0360 C   0  0  0  0  0  3  0  0  0  0  0  0
  -24.8800  -27.9520   19.1360 C   0  0  0  0  0  3  0  0  0  0  0  0
  -23.6650  -30.0240   20.0100 C   0  0  0  0  0  2  0  0  0  0  0  0
  -24.7630  -31.1520   21.9830 N   0  0  0  0  0  0  0  0  0  0  0  0
  -23.6500  -32.1060   23.7280 O   0  0  0  0  0  0  0  0  0  0  0  0
  -22.8580  -29.5040   22.3510 C   0  0  0  0  0  0  0  0  0  0  0  0
  -21.5320  -29.3040   22.2510 N   0  0  0  0  0  0  0  0  0  0  0  0
  -23.5700  -28.8450   23.1110 O   0  0  0  0  0  0  0  0  0  0  0  0
  -21.0090  -29.8930   21.6170 H   0  0  0  0  0  0  0  0  0  0  0  0
  -18.2050  -27.9650   22.7650 C   0  0  0  0  0  0  0  0  0  0  0  0
  -20.7620  -28.2920   22.9790 C   0  0  0  0  0  3  0  0  0  0  0  0
  -20.8890  -26.9050   22.3070 C   0  0  0  0  0  2  0  0  0  0  0  0
  -19.7700  -26.6140   21.3020 C   0  0  0  0  0  2  0  0  0  0  0  0
  -18.4030  -26.6710   21.9920 C   0  0  0  0  0  2  0  0  0  0  0  0
  -19.3110  -28.7320   23.2140 C   0  0  0  0  0  0  0  0  0  0  0  0
  -19.0710  -29.9420   23.9030 C   0  0  0  0  0  3  0  0  0  0  0  0
  -17.7570  -30.3860   24.1390 C   0  0  0  0  0  3  0  0  0  0  0  0
  -16.6650  -29.6150   23.7040 C   0  0  0  0  0  3  0  0  0  0  0  0
  -16.8910  -28.4050   23.0230 C   0  0  0  0  0  3  0  0  0  0  0  0
  -26.0090  -32.5040   23.7610 C   0  0  0  0  0  3  0  0  0  0  0  0
  -26.5670  -31.6700   24.9790 C   0  0  1  0  0  0  0  0  0  0  0  0
  -25.5080  -31.3630   26.0630 C   0  0  0  0  0  1  0  0  0  0  0  0
  -27.1480  -30.3180   24.5020 C   0  0  0  0  0  1  0  0  0  0  0  0
  -27.7340  -32.4340   25.6480 C   0  0  0  0  0  1  0  0  0  0  0  0
  -25.6920  -33.8790   24.1840 N   0  0  0  0  0  0  0  0  0  0  0  0
  -25.9700  -34.9800   23.4730 C   0  0  0  0  0  0  0  0  0  0  0  0
  -26.5860  -34.9470   22.4040 O   0  0  0  0  0  0  0  0  0  0  0  0
  -25.1360  -33.9770   25.0210 H   0  0  0  0  0  0  0  0  0  0  0  0
  -24.1880  -36.7520   23.3340 C   0  0  0  0  0  1  0  0  0  0  0  0
  -25.4900  -36.3330   24.0360 C   0  0  0  0  0  3  0  0  0  0  0  0
  -27.6560  -37.2270   24.7750 C   0  0  0  0  0  1  0  0  0  0  0  0
  -26.4940  -37.4130   23.9090 N   0  0  0  0  0  0  0  0  0  0  0  0
  -26.0810  -38.3160   24.1230 H   0  0  0  0  0  0  0  0  0  0  0  0
  -30.1270  -19.6670   20.3690 C   0  0  0  0  0  2  0  0  0  0  0  0
  -30.9910  -15.4880   20.5280 C   0  0  0  0  0  0  0  0  0  0  0  0
  -30.8740  -13.1040   19.6460 C   0  0  0  0  0  2  0  0  0  0  0  0
  -29.9930  -12.9350   18.3880 C   0  0  0  0  0  2  0  0  0  0  0  0
  -28.5110  -12.7530   18.7650 C   0  0  0  0  0  2  0  0  0  0  0  0
  -28.0390  -13.7320   19.8700 C   0  0  0  0  0  3  0  0  0  0  0  0
  -29.0550  -13.8490   21.0270 C   0  0  0  0  0  2  0  0  0  0  0  0
  -30.3370  -14.2550   20.4300 N   0  0  0  0  0  0  0  0  0  0  0  0
  -32.2260  -15.4510   20.4920 O   0  0  0  0  0  0  0  0  0  0  0  0
  -28.6210  -17.4530   18.6620 C   0  0  0  0  0  2  0  0  0  0  0  0
  -28.3340  -17.8220   20.1210 C   0  0  0  0  0  2  0  0  0  0  0  0
  -30.0220  -16.8250   18.6910 C   0  0  0  0  0  2  0  0  0  0  0  0
  -29.7240  -18.0340   20.7120 C   0  0  0  0  0  3  0  0  0  0  0  0
  -30.3640  -16.7130   20.1060 N   0  0  0  0  0  0  0  0  0  0  0  0
  -25.6330  -14.2960   20.5440 C   0  0  0  0  0  0  0  0  0  0  0  0
  -24.5560  -13.5180   20.8580 C   0  0  0  0  0  0  0  0  0  0  0  0
  -25.0190  -12.1680   20.8130 C   0  0  0  0  0  0  0  0  0  0  0  0
  -26.6880  -13.4260   20.3280 N   0  0  0  0  0  0  0  0  0  0  0  0
  -26.3230  -12.1360   20.5590 N   0  0  0  0  0  0  0  0  0  0  0  0
  -24.2800  -10.9060   20.9370 C   0  0  0  0  0  0  0  0  0  0  0  0
  -24.6450   -9.9240   21.8840 C   0  0  0  0  0  3  0  0  0  0  0  0
  -23.9020   -8.7310   22.0000 C   0  0  0  0  0  3  0  0  0  0  0  0
  -22.7790   -8.5100   21.1670 C   0  0  0  0  0  0  0  0  0  0  0  0
  -22.4350   -9.4800   20.2100 C   0  0  0  0  0  3  0  0  0  0  0  0
  -23.1780  -10.6660   20.0930 C   0  0  0  0  0  3  0  0  0  0  0  0
  -22.0150   -7.3700   21.1900 O   0  0  0  0  0  0  0  0  0  0  0  0
  -21.8490   -6.6390   22.3390 C   0  0  0  0  0  0  0  0  0  0  0  0
  -21.2670   -7.1960   23.4980 C   0  0  0  0  0  3  0  0  0  0  0  0
  -21.0510   -6.3900   24.6350 C   0  0  0  0  0  3  0  0  0  0  0  0
  -21.4100   -5.0280   24.6100 C   0  0  0  0  0  0  0  0  0  0  0  0
  -21.9870   -4.4720   23.4550 C   0  0  0  0  0  3  0  0  0  0  0  0
  -22.2020   -5.2750   22.3210 C   0  0  0  0  0  0  0  0  0  0  0  0
  -22.7380   -4.7290   21.2030 F   0  0  0  0  0  0  0  0  0  0  0  0
  -21.1970   -4.2510   25.6980 F   0  0  0  0  0  0  0  0  0  0  0  0
  -23.1520  -13.9980   21.0790 C   0  0  0  0  0  0  0  0  0  0  0  0
  -22.3860  -13.2930   21.9010 N   0  0  0  0  0  0  0  0  0  0  0  0
  -22.7430  -15.0390   20.5620 O   0  0  0  0  0  0  0  0  0  0  0  0
  -22.7340  -12.4540   22.3420 H   0  0  0  0  0  0  0  0  0  0  0  0
  -21.4410  -13.5960   22.0940 H   0  0  0  0  0  0  0  0  0  0  0  0
  -25.7860  -15.6660   20.3900 N   0  0  0  0  0  0  0  0  0  0  0  0
  -24.9980  -16.3000   20.4630 H   0  0  0  0  0  0  0  0  0  0  0  0
  -26.6320  -16.1150   20.0640 H   0  0  0  0  0  0  0  0  0  0  0  0
  1  2  2  0
  1  4  1  0
  4  3  1  0
  5  1  1  0
  6  5  1  0
  7  9  1  0
  7  6  1  0
  8 19  2  0
  9 14  1  0
 10 18  1  0
 10 20  1  0
 11 17  1  0
 11 13  1  0
 12 18  1  0
 13 12  1  0
 14 13  2  0
 15 16  1  0
 15  9  2  0
 16 11  2  0
 17 10  1  0
 18  8  1  0
 20 22  2  0
 21 20  1  0
 23 21  1  0
 24 33  2  0
 24 29  1  0
 25 21  1  0
 25 29  1  0
 26 25  1  0
 27 28  1  0
 27 26  1  0
 28 24  1  0
 29 30  2  0
 30 31  1  0
 32 31  2  0
 33 32  1  0
 34  8  1  0
 34 39  1  0
 34 35  1  0
 35 38  1  1
 35 36  1  0
 37 35  1  0
 39 42  1  0
 40 44  1  0
 40 39  1  0
 41 40  2  0
 44 43  1  0
 46 44  1  0
 46 47  1  0
 46 45  1  0
 48  2  1  0
 50 55  1  0
 51 52  1  0
 51 50  1  0
 53 52  1  0
 53 65  1  0
 53 54  1  0
 55 49  1  0
 55 54  1  0
 56 49  2  0
 57 59  1  0
 57 58  1  0
 58 60  1  0
 59 61  1  0
 60 48  1  0
 61 49  1  0
 61 60  1  0
 62 63  2  0
 63 82  1  0
 64 63  1  0
 64 67  1  0
 65 62  1  0
 65 66  1  0
 66 64  2  0
 67 68  1  0
 68 69  2  0
 70 73  1  0
 70 69  1  0
 71 70  2  0
 72 71  1  0
 72 67  2  0
 73 74  1  0
 74 75  1  0
 75 76  2  0
 77 76  1  0
 77 81  1  0
 78 77  2  0
 79 74  2  0
 79 78  1  0
 80 79  1  0
 82 83  1  0
 83 86  1  0
 83 85  1  0
 84 82  2  0
 87 88  1  0
 87 62  1  0
 89 87  1  0
M  ISO  4   6 101   7 101  49 100  61 100
M  END
>  <TORSDO>  (1) 
F 20

>  <SCORE>  (1) 
-13.780

>  <name>  (1) 
0

>  <ligand_id>  (1) 
0

>  <original_smiles>  (1) 
[H]c1c([H])c([H])c2c(c1[H])C([H])([H])C([H])([H])C([H])([H])C2([H])N([H])C(=O)C1([H])N(C(=O)C([H])(N([H])C(=O)C([H])(N([H])C([H])([H])[H])C([H])([H])[H])C(C([H])([H])[H])(C([H])([H])[H])C([H])([H])[H])C([H])([H])c2c([H])c(OC([H])([H])C([H])([H])C(=NC([H])([H])C3([H])N(C(=O)N4C([H])([H])C([H])([H])C([H])([H])C([H])(n5nc(-c6c([H])c([H])c(Oc7c([H])c([H])c(F)c([H])c7F)c([H])c6[H])c(C(=O)N([H])[H])c5N([H])[H])C4([H])[H])C([H])([H])C([H])([H])C3([H])[H])C([H])([H])C([H])([H])[H])c([H])c([H])c2C1([H])[H]

>  <smiles>  (1) 
[H]c1c([H])c([H])c2c(c1[H])C([H])([H])C([H])([H])C([H])([H])C2([H])N([H])C(=O)C1([H])N(C(=O)C([H])(N([H])C(=O)C([H])(N([H])C([H])([H])[H])C([H])([H])[H])C(C([H])([H])[H])(C([H])([H])[H])C([H])([H])[H])C([H])([H])c2c([H])c(OC([H])([H])C([H])([H])C(=NC([H])([H])C3([H])N(C(=O)N4C([H])([H])C([H])([H])C([H])([H])C([H])(n5nc(-c6c([H])c([H])c(Oc7c([H])c([H])c(F)c([H])c7F)c([H])c6[H])c(C(=O)N([H])[H])c5N([H])[H])C4([H])[H])C([H])([H])C([H])([H])C3([H])[H])C([H])([H])C([H])([H])[H])c([H])c([H])c2C1([H])[H]

$$$$
1:0:0
     RDKit          3D

 90 97  0  0  1  0  0  0  0  0999 V2000
  -29.2930  -20.0330   20.0660 C   0  0  0  0  0  2  0  0  0  0  0  0
  -29.3340  -21.5690   22.0770 C   0  0  0  0  0  1  0  0  0  0  0  0
  -28.8810  -21.4790   20.6940 N   0  0  0  0  0  0  0  0  0  0  0  0
  -28.8830  -22.9800   20.0610 C   0  0  0  0  0  3  0  0  0  0  0  0
  -28.0230  -24.4700   20.5200 C   0  0  0  0  0  3  0  0  0  0  0  0
  -28.2290  -26.0560   20.2220 O   0  0  0  0  0  0  0  0  0  0  0  0
  -24.6090  -31.9190   23.2320 C   0  0  0  0  0  0  0  0  0  0  0  0
  -27.1850  -27.0990   20.2150 C   0  0  0  0  0  0  0  0  0  0  0  0
  -23.4120  -30.5130   21.6040 C   0  0  0  0  0  3  0  0  0  0  0  0
  -24.8620  -28.9200   20.1800 C   0  0  0  0  0  0  0  0  0  0  0  0
  -25.9740  -30.7570   21.4350 C   0  0  0  0  0  2  0  0  0  0  0  0
  -26.0490  -29.3510   20.7850 C   0  0  0  0  0  0  0  0  0  0  0  0
  -27.2090  -28.4610   20.7760 C   0  0  0  0  0  3  0  0  0  0  0  0
  -25.9660  -26.8050   19.5650 C   0  0  0  0  0  3  0  0  0  0  0  0
  -24.8400  -27.6650   19.5510 C   0  0  0  0  0  3  0  0  0  0  0  0
  -23.6350  -29.8270   20.2290 C   0  0  0  0  0  2  0  0  0  0  0  0
  -24.6860  -31.0890   22.1430 N   0  0  0  0  0  0  0  0  0  0  0  0
  -23.5230  -32.2010   23.7620 O   0  0  0  0  0  0  0  0  0  0  0  0
  -22.7360  -29.5110   22.5760 C   0  0  0  0  0  0  0  0  0  0  0  0
  -21.4090  -29.3260   22.4490 N   0  0  0  0  0  0  0  0  0  0  0  0
  -23.4100  -28.9020   23.4090 O   0  0  0  0  0  0  0  0  0  0  0  0
  -20.9190  -29.8680   21.7530 H   0  0  0  0  0  0  0  0  0  0  0  0
  -18.0430  -28.0750   22.9600 C   0  0  0  0  0  0  0  0  0  0  0  0
  -20.5980  -28.3820   23.2260 C   0  0  0  0  0  3  0  0  0  0  0  0
  -20.7230  -26.9460   22.6630 C   0  0  0  0  0  2  0  0  0  0  0  0
  -19.6280  -26.5980   21.6500 C   0  0  0  0  0  2  0  0  0  0  0  0
  -18.2430  -26.7240   22.2920 C   0  0  0  0  0  2  0  0  0  0  0  0
  -19.1490  -28.8600   23.3840 C   0  0  0  0  0  0  0  0  0  0  0  0
  -18.9060  -30.1200   23.9720 C   0  0  0  0  0  3  0  0  0  0  0  0
  -17.5910  -30.5960   24.1380 C   0  0  0  0  0  3  0  0  0  0  0  0
  -16.5020  -29.8090   23.7260 C   0  0  0  0  0  3  0  0  0  0  0  0
  -16.7280  -28.5500   23.1440 C   0  0  0  0  0  3  0  0  0  0  0  0
  -25.8820  -32.5690   23.8550 C   0  0  0  0  0  3  0  0  0  0  0  0
  -26.3880  -31.8220   25.1500 C   0  0  1  0  0  0  0  0  0  0  0  0
  -25.2860  -31.6040   26.2150 C   0  0  0  0  0  1  0  0  0  0  0  0
  -26.9730  -30.4370   24.7950 C   0  0  0  0  0  1  0  0  0  0  0  0
  -27.5350  -32.6280   25.8050 C   0  0  0  0  0  1  0  0  0  0  0  0
  -25.5630  -33.9720   24.1710 N   0  0  0  0  0  0  0  0  0  0  0  0
  -25.9080  -35.0250   23.4180 C   0  0  0  0  0  0  0  0  0  0  0  0
  -26.5880  -34.9180   22.3940 O   0  0  0  0  0  0  0  0  0  0  0  0
  -24.9570  -34.1290   24.9620 H   0  0  0  0  0  0  0  0  0  0  0  0
  -24.1980  -36.8350   23.0330 C   0  0  0  0  0  1  0  0  0  0  0  0
  -25.4210  -36.4190   23.8670 C   0  0  0  0  0  3  0  0  0  0  0  0
  -27.5420  -37.2930   24.7440 C   0  0  0  0  0  1  0  0  0  0  0  0
  -26.4630  -37.4650   23.7750 N   0  0  0  0  0  0  0  0  0  0  0  0
  -26.0600  -38.3890   23.9100 H   0  0  0  0  0  0  0  0  0  0  0  0
  -29.8140  -18.4760   20.7730 C   0  0  0  0  0  3  0  0  0  0  0  0
  -31.2210  -18.6520   21.1760 N   0  0  0  0  0  4  0  0  0  0  0  0
  -31.8310  -18.6420   20.3780 H   0  0  0  0  0  0  0  0  0  0  0  0
  -31.5110  -17.9220   21.8040 H   0  0  0  0  0  0  0  0  0  0  0  0
  -31.3390  -19.5290   21.6490 H   0  0  0  0  0  0  0  0  0  0  0  0
  -29.6180  -16.8050   20.1900 C   0  0  0  0  0  3  0  0  0  0  0  0
  -30.5020  -15.3150   20.3970 C   0  0  0  0  0  0  0  0  0  0  0  0
  -30.5370  -12.8730   19.5720 C   0  0  0  0  0  2  0  0  0  0  0  0
  -29.6500  -12.7120   18.3090 C   0  0  0  0  0  2  0  0  0  0  0  0
  -28.1810  -12.4550   18.6950 C   0  0  0  0  0  2  0  0  0  0  0  0
  -27.7000  -13.4000   19.8250 C   0  0  0  0  0  3  0  0  0  0  0  0
  -28.7170  -13.5220   20.9760 C   0  0  0  0  0  2  0  0  0  0  0  0
  -29.9820  -13.9990   20.4000 N   0  0  0  0  0  0  0  0  0  0  0  0
  -31.7350  -15.3430   20.2760 O   0  0  0  0  0  0  0  0  0  0  0  0
  -25.3000  -13.9300   20.5080 C   0  0  0  0  0  0  0  0  0  0  0  0
  -24.2400  -13.1400   20.8540 C   0  0  0  0  0  0  0  0  0  0  0  0
  -24.7280  -11.7980   20.8510 C   0  0  0  0  0  0  0  0  0  0  0  0
  -26.3620  -13.0690   20.2990 N   0  0  0  0  0  0  0  0  0  0  0  0
  -26.0290  -11.7810   20.5750 N   0  0  0  0  0  0  0  0  0  0  0  0
  -24.0150  -10.5260   21.0330 C   0  0  0  0  0  0  0  0  0  0  0  0
  -24.4250   -9.5770   21.9950 C   0  0  0  0  0  3  0  0  0  0  0  0
  -23.7090   -8.3710   22.1640 C   0  0  0  0  0  3  0  0  0  0  0  0
  -22.5680   -8.1070   21.3700 C   0  0  0  0  0  0  0  0  0  0  0  0
  -22.1770   -9.0450   20.3970 C   0  0  0  0  0  3  0  0  0  0  0  0
  -22.8940  -10.2400   20.2270 C   0  0  0  0  0  3  0  0  0  0  0  0
  -21.8250   -6.9530   21.4450 O   0  0  0  0  0  0  0  0  0  0  0  0
  -21.7340   -6.2300   22.6090 C   0  0  0  0  0  0  0  0  0  0  0  0
  -21.2310   -6.7970   23.8000 C   0  0  0  0  0  3  0  0  0  0  0  0
  -21.0920   -6.0000   24.9540 C   0  0  0  0  0  3  0  0  0  0  0  0
  -21.4440   -4.6370   24.9170 C   0  0  0  0  0  0  0  0  0  0  0  0
  -21.9400   -4.0700   23.7290 C   0  0  0  0  0  3  0  0  0  0  0  0
  -22.0820   -4.8650   22.5780 C   0  0  0  0  0  0  0  0  0  0  0  0
  -22.5410   -4.3090   21.4310 F   0  0  0  0  0  0  0  0  0  0  0  0
  -21.3030   -3.8690   26.0220 F   0  0  0  0  0  0  0  0  0  0  0  0
  -22.8280  -13.5970   21.0750 C   0  0  0  0  0  0  0  0  0  0  0  0
  -22.0850  -12.8990   21.9260 N   0  0  0  0  0  0  0  0  0  0  0  0
  -22.3930  -14.6100   20.5300 O   0  0  0  0  0  0  0  0  0  0  0  0
  -22.4520  -12.0790   22.3860 H   0  0  0  0  0  0  0  0  0  0  0  0
  -21.1370  -13.1890   22.1200 H   0  0  0  0  0  0  0  0  0  0  0  0
  -25.4440  -15.3020   20.3220 N   0  0  0  0  0  0  0  0  0  0  0  0
  -24.6580  -15.9390   20.3960 H   0  0  0  0  0  0  0  0  0  0  0  0
  -26.2890  -15.7540   19.9940 H   0  0  0  0  0  0  0  0  0  0  0  0
  -30.5130  -17.4390   17.8220 C   0  0  0  0  0  1  0  0  0  0  0  0
  -29.3380  -16.9230   18.6720 C   0  0  0  0  0  2  0  0  0  0  0  0
  1  3  1  0
  3  2  1  0
  4  5  2  0
  4  3  1  0
  6  5  1  0
  7 18  2  0
  8  6  1  0
  8 13  1  0
  9 17  1  0
  9 19  1  0
 10 16  1  0
 10 12  1  0
 11 17  1  0
 12 11  1  0
 13 12  2  0
 14  8  2  0
 15 14  1  0
 15 10  2  0
 16  9  1  0
 17  7  1  0
 19 21  2  0
 20 19  1  0
 22 20  1  0
 23 32  2  0
 23 28  1  0
 24 20  1  0
 24 28  1  0
 25 24  1  0
 26 27  1  0
 26 25  1  0
 27 23  1  0
 28 29  2  0
 29 30  1  0
 31 30  2  0
 32 31  1  0
 33  7  1  0
 33 38  1  0
 33 34  1  0
 34 37  1  1
 34 35  1  0
 36 34  1  0
 38 41  1  0
 39 43  1  0
 39 38  1  0
 40 39  2  0
 43 42  1  0
 45 43  1  0
 45 46  1  0
 45 44  1  0
 47  1  1  0
 47 48  1  0
 48 51  1  0
 48 50  1  0
 49 48  1  0
 52 90  1  0
 52 53  1  0
 52 47  1  0
 53 59  1  0
 54 59  1  0
 55 56  1  0
 55 54  1  0
 57 56  1  0
 57 64  1  0
 57 58  1  0
 59 58  1  0
 60 53  2  0
 61 62  2  0
 62 81  1  0
 63 62  1  0
 63 66  1  0
 64 61  1  0
 64 65  1  0
 65 63  2  0
 66 67  1  0
 67 68  2  0
 69 72  1  0
 69 68  1  0
 70 69  2  0
 71 70  1  0
 71 66  2  0
 72 73  1  0
 73 74  1  0
 74 75  2  0
 76 75  1  0
 76 80  1  0
 77 76  2  0
 78 73  2  0
 78 77  1  0
 79 78  1  0
 81 82  1  0
 82 85  1  0
 82 84  1  0
 83 81  2  0
 86 87  1  0
 86 61  1  0
 88 86  1  0
 89 90  1  0
M  ISO  4   5 101   6 101  52 100  53 100
M  END
>  <TORSDO>  (2) 
F 23

>  <SCORE>  (2) 
-15.079

>  <name>  (2) 
1

>  <ligand_id>  (2) 
1

>  <original_smiles>  (2) 
[H]c1c([H])c([H])c2c(c1[H])C([H])([H])C([H])([H])C([H])([H])C2([H])N([H])C(=O)C1([H])N(C(=O)C([H])(N([H])C(=O)C([H])(N([H])C([H])([H])[H])C([H])([H])[H])C(C([H])([H])[H])(C([H])([H])[H])C([H])([H])[H])C([H])([H])c2c([H])c(OC([H])([H])C([H])([H])N(C([H])([H])[H])C([H])([H])C([H])(C([H])(C(=O)N3C([H])([H])C([H])([H])C([H])([H])C([H])(n4nc(-c5c([H])c([H])c(Oc6c([H])c([H])c(F)c([H])c6F)c([H])c5[H])c(C(=O)N([H])[H])c4N([H])[H])C3([H])[H])C([H])([H])C([H])([H])[H])[N+]([H])([H])[H])c([H])c([H])c2C1([H])[H]

>  <smiles>  (2) 
[H]c1c([H])c([H])c2c(c1[H])C([H])([H])C([H])([H])C([H])([H])C2([H])N([H])C(=O)C1([H])N(C(=O)C([H])(N([H])C(=O)C([H])(N([H])C([H])([H])[H])C([H])([H])[H])C(C([H])([H])[H])(C([H])([H])[H])C([H])([H])[H])C([H])([H])c2c([H])c(OC([H])([H])C([H])([H])N(C([H])([H])[H])C([H])([H])C([H])(C([H])(C(=O)N3C([H])([H])C([H])([H])C([H])([H])C([H])(n4nc(-c5c([H])c([H])c(Oc6c([H])c([H])c(F)c([H])c6F)c([H])c5[H])c(C(=O)N([H])[H])c4N([H])[H])C3([H])[H])C([H])([H])C([H])([H])[H])[N+]([H])([H])[H])c([H])c([H])c2C1([H])[H]

$$$$
2:0:0
     RDKit          3D

 90 97  0  0  1  0  0  0  0  0999 V2000
  -29.5560  -21.7000   19.8770 C   0  0  0  0  0  3  0  0  0  0  0  0
  -29.3950  -19.9800   20.3700 C   0  0  0  0  0  3  0  0  0  0  0  0
  -30.4240  -18.5260   20.1630 C   0  0  0  0  0  0  0  0  0  0  0  0
  -30.7950  -15.6280   20.2790 C   0  0  0  0  0  0  0  0  0  0  0  0
  -30.7210  -13.1840   19.4280 C   0  0  0  0  0  2  0  0  0  0  0  0
  -29.8180  -13.0120   18.1800 C   0  0  0  0  0  2  0  0  0  0  0  0
  -28.3580  -12.7820   18.5960 C   0  0  0  0  0  2  0  0  0  0  0  0
  -27.9100  -13.7480   19.7190 C   0  0  0  0  0  3  0  0  0  0  0  0
  -28.9450  -13.8750   20.8590 C   0  0  0  0  0  2  0  0  0  0  0  0
  -30.1960  -14.3390   20.2410 N   0  0  0  0  0  0  0  0  0  0  0  0
  -32.0150  -15.6000   20.0670 O   0  0  0  0  0  0  0  0  0  0  0  0
  -30.0670  -16.9110   20.3490 N   0  0  0  0  0  4  0  0  0  0  0  0
  -29.0770  -16.7540   20.4710 H   0  0  0  0  0  0  0  0  0  0  0  0
  -25.5290  -14.3220   20.4180 C   0  0  0  0  0  0  0  0  0  0  0  0
  -24.4590  -13.5500   20.7730 C   0  0  0  0  0  0  0  0  0  0  0  0
  -24.9220  -12.1980   20.7650 C   0  0  0  0  0  0  0  0  0  0  0  0
  -26.5740  -13.4400   20.2070 N   0  0  0  0  0  0  0  0  0  0  0  0
  -26.2180  -12.1570   20.4820 N   0  0  0  0  0  0  0  0  0  0  0  0
  -24.1870  -10.9400   20.9550 C   0  0  0  0  0  0  0  0  0  0  0  0
  -24.5810   -9.9930   21.9260 C   0  0  0  0  0  3  0  0  0  0  0  0
  -23.8460   -8.8030   22.1070 C   0  0  0  0  0  3  0  0  0  0  0  0
  -22.7030   -8.5480   21.3140 C   0  0  0  0  0  0  0  0  0  0  0  0
  -22.3260   -9.4830   20.3320 C   0  0  0  0  0  3  0  0  0  0  0  0
  -23.0620  -10.6650   20.1520 C   0  0  0  0  0  3  0  0  0  0  0  0
  -21.9430   -7.4060   21.4000 O   0  0  0  0  0  0  0  0  0  0  0  0
  -21.8490   -6.6910   22.5680 C   0  0  0  0  0  0  0  0  0  0  0  0
  -21.3300   -7.2620   23.7490 C   0  0  0  0  0  3  0  0  0  0  0  0
  -21.1860   -6.4740   24.9080 C   0  0  0  0  0  3  0  0  0  0  0  0
  -21.5490   -5.1140   24.8860 C   0  0  0  0  0  0  0  0  0  0  0  0
  -22.0550   -4.5400   23.7060 C   0  0  0  0  0  3  0  0  0  0  0  0
  -22.2020   -5.3270   22.5510 C   0  0  0  0  0  0  0  0  0  0  0  0
  -22.6750   -4.7650   21.4120 F   0  0  0  0  0  0  0  0  0  0  0  0
  -21.3990   -4.3520   25.9950 F   0  0  0  0  0  0  0  0  0  0  0  0
  -23.0600  -14.0310   21.0130 C   0  0  0  0  0  0  0  0  0  0  0  0
  -22.3240  -13.3430   21.8810 N   0  0  0  0  0  0  0  0  0  0  0  0
  -22.6280  -15.0450   20.4670 O   0  0  0  0  0  0  0  0  0  0  0  0
  -22.6960  -12.5250   22.3400 H   0  0  0  0  0  0  0  0  0  0  0  0
  -21.3800  -13.6330   22.0900 H   0  0  0  0  0  0  0  0  0  0  0  0
  -25.7010  -15.6910   20.2260 N   0  0  0  0  0  0  0  0  0  0  0  0
  -24.9350  -16.3500   20.3140 H   0  0  0  0  0  0  0  0  0  0  0  0
  -26.5480  -16.1140   19.8670 H   0  0  0  0  0  0  0  0  0  0  0  0
  -30.4020  -18.6940   17.6030 C   0  0  0  0  0  1  0  0  0  0  0  0
  -31.2800  -18.6570   18.8650 C   0  0  0  0  0  3  0  0  0  0  0  0
  -33.2960  -19.8180   20.0280 C   0  0  0  0  0  1  0  0  0  0  0  0
  -32.3230  -19.8040   18.8370 C   0  0  0  0  0  2  0  0  0  0  0  0
  -28.8350  -23.2660   20.3700 C   0  0  0  0  0  3  0  0  0  0  0  0
  -27.1580  -22.1550   22.0530 C   0  0  0  0  0  1  0  0  0  0  0  0
  -27.3760  -23.0780   20.8440 C   0  0  0  0  0  2  0  0  0  0  0  0
  -28.7950  -24.8350   19.5320 C   0  0  0  0  0  2  0  0  0  0  0  0
  -28.6600  -26.4000   19.9650 O   0  0  0  0  0  0  0  0  0  0  0  0
  -24.7160  -31.8810   23.1560 C   0  0  0  0  0  0  0  0  0  0  0  0
  -27.5590  -27.3840   19.8820 C   0  0  0  0  0  0  0  0  0  0  0  0
  -23.6040  -30.5230   21.4280 C   0  0  0  0  0  3  0  0  0  0  0  0
  -25.1450  -29.0970   19.9150 C   0  0  0  0  0  0  0  0  0  0  0  0
  -26.1510  -30.8980   21.3060 C   0  0  0  0  0  2  0  0  0  0  0  0
  -26.3010  -29.5410   20.5680 C   0  0  0  0  0  0  0  0  0  0  0  0
  -27.4960  -28.7040   20.5310 C   0  0  0  0  0  3  0  0  0  0  0  0
  -26.3690  -27.0720   19.1850 C   0  0  0  0  0  3  0  0  0  0  0  0
  -25.2020  -27.8830   19.2050 C   0  0  0  0  0  3  0  0  0  0  0  0
  -23.8720  -29.9390   20.0130 C   0  0  0  0  0  2  0  0  0  0  0  0
  -24.8440  -31.1240   22.0210 N   0  0  0  0  0  0  0  0  0  0  0  0
  -23.6100  -32.0800   23.6850 O   0  0  0  0  0  0  0  0  0  0  0  0
  -22.9680  -29.4330   22.3270 C   0  0  0  0  0  0  0  0  0  0  0  0
  -21.6510  -29.2010   22.1810 N   0  0  0  0  0  0  0  0  0  0  0  0
  -23.6650  -28.7950   23.1220 O   0  0  0  0  0  0  0  0  0  0  0  0
  -21.1440  -29.7630   21.5130 H   0  0  0  0  0  0  0  0  0  0  0  0
  -18.3320  -27.8090   22.6140 C   0  0  0  0  0  0  0  0  0  0  0  0
  -20.8760  -28.1780   22.8910 C   0  0  0  0  0  3  0  0  0  0  0  0
  -21.0430  -26.7930   22.2190 C   0  0  0  0  0  2  0  0  0  0  0  0
  -19.9510  -26.4870   21.1900 C   0  0  0  0  0  2  0  0  0  0  0  0
  -18.5670  -26.5210   21.8440 C   0  0  0  0  0  2  0  0  0  0  0  0
  -19.4120  -28.5950   23.0920 C   0  0  0  0  0  0  0  0  0  0  0  0
  -19.1310  -29.8000   23.7730 C   0  0  0  0  0  3  0  0  0  0  0  0
  -17.8020  -30.2170   23.9810 C   0  0  0  0  0  3  0  0  0  0  0  0
  -16.7370  -29.4270   23.5170 C   0  0  0  0  0  3  0  0  0  0  0  0
  -17.0020  -28.2250   22.8380 C   0  0  0  0  0  3  0  0  0  0  0  0
  -25.9470  -32.5510   23.8360 C   0  0  0  0  0  3  0  0  0  0  0  0
  -25.5670  -33.9270   24.2060 N   0  0  0  0  0  0  0  0  0  0  0  0
  -25.9020  -35.0250   23.5190 C   0  0  0  0  0  0  0  0  0  0  0  0
  -26.6230  -34.9910   22.5190 O   0  0  0  0  0  0  0  0  0  0  0  0
  -24.9250  -34.0250   24.9790 H   0  0  0  0  0  0  0  0  0  0  0  0
  -24.1470  -36.7940   23.1500 C   0  0  0  0  0  1  0  0  0  0  0  0
  -25.3480  -36.3780   24.0150 C   0  0  0  0  0  3  0  0  0  0  0  0
  -27.3980  -37.2720   25.0320 C   0  0  0  0  0  1  0  0  0  0  0  0
  -26.3590  -37.4600   24.0230 N   0  0  0  0  0  0  0  0  0  0  0  0
  -25.9190  -38.3630   24.1850 H   0  0  0  0  0  0  0  0  0  0  0  0
  -26.4540  -31.7680   25.1090 C   0  0  1  0  0  0  0  0  0  0  0  0
  -25.3340  -31.4600   26.1320 C   0  0  0  0  0  1  0  0  0  0  0  0
  -27.1020  -30.4280   24.7000 C   0  0  0  0  0  1  0  0  0  0  0  0
  -27.5600  -32.5840   25.8200 C   0  0  0  0  0  1  0  0  0  0  0  0
  1  2  2  0
  1 46  1  0
  3 12  2  0
  3  2  1  0
  4 12  1  0
  5 10  1  0
  6  7  1  0
  6  5  1  0
  8  7  1  0
  8 17  1  0
  8  9  1  0
 10  4  1  0
 10  9  1  0
 11  4  2  0
 12 13  1  0
 14 15  2  0
 15 34  1  0
 16 15  1  0
 16 19  1  0
 17 14  1  0
 17 18  1  0
 18 16  2  0
 19 20  1  0
 20 21  2  0
 22 25  1  0
 22 21  1  0
 23 22  2  0
 24 23  1  0
 24 19  2  0
 25 26  1  0
 26 27  1  0
 27 28  2  0
 29 28  1  0
 29 33  1  0
 30 29  2  0
 31 26  2  0
 31 30  1  0
 32 31  1  0
 34 35  1  0
 35 38  1  0
 35 37  1  0
 36 34  2  0
 39 40  1  0
 39 14  1  0
 41 39  1  0
 43 42  1  0
 43  3  1  0
 45 43  1  0
 45 44  1  0
 46 49  1  0
 46 48  1  0
 48 47  1  0
 49 50  1  0
 51 62  2  0
 52 50  1  0
 52 57  1  0
 53 61  1  0
 53 63  1  0
 54 60  1  0
 54 56  1  0
 55 61  1  0
 56 55  1  0
 57 56  2  0
 58 59  1  0
 58 52  2  0
 59 54  2  0
 60 53  1  0
 61 51  1  0
 63 65  2  0
 64 63  1  0
 66 64  1  0
 67 76  2  0
 67 72  1  0
 68 64  1  0
 68 72  1  0
 69 68  1  0
 70 71  1  0
 70 69  1  0
 71 67  1  0
 72 73  2  0
 73 74  1  0
 75 74  2  0
 76 75  1  0
 77 51  1  0
 77 78  1  0
 77 87  1  0
 78 81  1  0
 79 83  1  0
 79 78  1  0
 80 79  2  0
 83 82  1  0
 83 85  1  0
 85 86  1  0
 85 84  1  0
 87 90  1  1
 87 88  1  0
 89 87  1  0
M  ISO  4   4 100  12 100  49 101  50 101
M  END
>  <TORSDO>  (3) 
F 23

>  <SCORE>  (3) 
-12.969

>  <name>  (3) 
2

>  <ligand_id>  (3) 
2

>  <original_smiles>  (3) 
[H]c1c([H])c([H])c2c(c1[H])C([H])([H])C([H])([H])C([H])([H])C2([H])N([H])C(=O)C1([H])N(C(=O)C([H])(N([H])C(=O)C([H])(N([H])C([H])([H])[H])C([H])([H])[H])C(C([H])([H])[H])(C([H])([H])[H])C([H])([H])[H])C([H])([H])c2c([H])c(OC([H])([H])C([H])(C([H])([H])C([H])([H])[H])C([H])([H])C([H])([H])C([H])(N([H])C(=O)N3C([H])([H])C([H])([H])C([H])([H])C([H])(n4nc(-c5c([H])c([H])c(Oc6c([H])c([H])c(F)c([H])c6F)c([H])c5[H])c(C(=O)N([H])[H])c4N([H])[H])C3([H])[H])C([H])(C([H])([H])[H])C([H])([H])C([H])([H])[H])c([H])c([H])c2C1([H])[H]

>  <smiles>  (3) 
[H]c1c([H])c([H])c2c(c1[H])C([H])([H])C([H])([H])C([H])([H])C2([H])N([H])C(=O)C1([H])N(C(=O)C([H])(N([H])C(=O)C([H])(N([H])C([H])([H])[H])C([H])([H])[H])C(C([H])([H])[H])(C([H])([H])[H])C([H])([H])[H])C([H])([H])c2c([H])c(OC([H])([H])C([H])(C([H])([H])C([H])([H])[H])C([H])([H])C([H])([H])C([H])(N([H])C(=O)N3C([H])([H])C([H])([H])C([H])([H])C([H])(n4nc(-c5c([H])c([H])c(Oc6c([H])c([H])c(F)c([H])c6F)c([H])c5[H])c(C(=O)N([H])[H])c4N([H])[H])C3([H])[H])C([H])(C([H])([H])[H])C([H])([H])C([H])([H])[H])c([H])c([H])c2C1([H])[H]

$$$$
3:0:0
     RDKit          3D

101109  0  0  1  0  0  0  0  0999 V2000
  -31.7730  -16.0490   21.1020 C   0  0  0  0  0  3  0  0  0  0  0  0
  -30.4160  -16.8080   21.0250 C   0  0  0  0  0  2  0  0  0  0  0  0
  -30.5980  -18.3390   20.8310 C   0  0  0  0  0  2  0  0  0  0  0  0
  -29.3720  -19.1190   20.3010 C   0  0  0  0  0  2  0  0  0  0  0  0
  -29.7680  -20.4810   19.6650 C   0  0  0  0  0  2  0  0  0  0  0  0
  -28.6180  -21.3910   19.4370 N   0  0  0  0  0  4  0  0  0  0  0  0
  -28.1680  -21.5380   20.3270 H   0  0  0  0  0  0  0  0  0  0  0  0
  -27.9500  -20.9280   18.8380 H   0  0  0  0  0  0  0  0  0  0  0  0
  -28.9630  -22.7210   18.8510 C   0  0  0  0  0  2  0  0  0  0  0  0
  -27.8870  -23.7880   19.1650 C   0  0  0  0  0  2  0  0  0  0  0  0
  -28.3300  -25.1400   18.9150 O   0  0  0  0  0  0  0  0  0  0  0  0
  -25.5760  -30.0450   23.2860 C   0  0  0  0  0  0  0  0  0  0  0  0
  -27.3550  -26.0990   19.1110 C   0  0  0  0  0  0  0  0  0  0  0  0
  -24.1480  -29.3530   21.3870 C   0  0  0  0  0  3  0  0  0  0  0  0
  -25.3030  -27.9880   19.5690 C   0  0  0  0  0  0  0  0  0  0  0  0
  -26.7000  -29.2730   21.1920 C   0  0  0  0  0  2  0  0  0  0  0  0
  -26.5310  -28.1150   20.2300 C   0  0  0  0  0  0  0  0  0  0  0  0
  -27.5670  -27.1790   19.9990 C   0  0  0  0  0  3  0  0  0  0  0  0
  -26.1210  -26.0050   18.4300 C   0  0  0  0  0  3  0  0  0  0  0  0
  -25.0950  -26.9390   18.6610 C   0  0  0  0  0  3  0  0  0  0  0  0
  -24.2430  -29.0210   19.8720 C   0  0  0  0  0  2  0  0  0  0  0  0
  -25.4950  -29.5550   22.0150 N   0  0  0  0  0  0  0  0  0  0  0  0
  -24.5580  -30.3590   23.9170 O   0  0  0  0  0  0  0  0  0  0  0  0
  -23.3050  -28.2600   22.0860 C   0  0  0  0  0  0  0  0  0  0  0  0
  -21.9740  -28.3350   21.9250 N   0  0  0  0  0  0  0  0  0  0  0  0
  -23.8500  -27.3570   22.7250 O   0  0  0  0  0  0  0  0  0  0  0  0
  -21.6040  -29.1100   21.3930 H   0  0  0  0  0  0  0  0  0  0  0  0
  -18.4350  -27.6180   22.1040 C   0  0  0  0  0  0  0  0  0  0  0  0
  -20.9860  -27.3930   22.4580 C   0  0  0  0  0  3  0  0  0  0  0  0
  -20.8950  -26.1250   21.5770 C   0  0  0  0  0  2  0  0  0  0  0  0
  -19.8050  -26.2140   20.5050 C   0  0  0  0  0  2  0  0  0  0  0  0
  -18.4320  -26.4380   21.1490 C   0  0  0  0  0  2  0  0  0  0  0  0
  -19.6360  -28.0780   22.7080 C   0  0  0  0  0  0  0  0  0  0  0  0
  -19.5870  -29.2050   23.5580 C   0  0  0  0  0  3  0  0  0  0  0  0
  -18.3690  -29.8600   23.8150 C   0  0  0  0  0  3  0  0  0  0  0  0
  -17.1810  -29.3910   23.2280 C   0  0  0  0  0  3  0  0  0  0  0  0
  -17.2140  -28.2720   22.3770 C   0  0  0  0  0  3  0  0  0  0  0  0
  -26.9490  -30.2510   23.9980 C   0  0  0  0  0  3  0  0  0  0  0  0
  -26.8960  -31.5380   24.7040 N   0  0  0  0  0  0  0  0  0  0  0  0
  -27.5140  -32.6550   24.2960 C   0  0  0  0  0  0  0  0  0  0  0  0
  -28.2530  -32.6880   23.3090 O   0  0  0  0  0  0  0  0  0  0  0  0
  -26.2750  -31.5930   25.4980 H   0  0  0  0  0  0  0  0  0  0  0  0
  -26.2580  -34.8300   24.3710 C   0  0  0  0  0  1  0  0  0  0  0  0
  -27.2700  -33.9390   25.1100 C   0  0  0  0  0  3  0  0  0  0  0  0
  -29.4130  -34.0220   26.3060 C   0  0  0  0  0  1  0  0  0  0  0  0
  -28.5040  -34.7070   25.3880 N   0  0  0  0  0  0  0  0  0  0  0  0
  -28.2810  -35.6180   25.7800 H   0  0  0  0  0  0  0  0  0  0  0  0
  -27.3150  -29.0840   24.9940 C   0  0  1  0  0  0  0  0  0  0  0  0
  -26.1870  -28.7370   25.9930 C   0  0  0  0  0  1  0  0  0  0  0  0
  -27.6680  -27.7960   24.2170 C   0  0  0  0  0  1  0  0  0  0  0  0
  -28.5720  -29.4670   25.8100 C   0  0  0  0  0  1  0  0  0  0  0  0
  -33.0160  -16.9040   20.7280 C   0  0  0  0  0  2  0  0  0  0  0  0
  -32.9440  -17.5120   19.3890 N   0  0  0  0  0  4  0  0  0  0  0  0
  -32.8520  -16.7750   18.6890 H   0  0  0  0  0  0  0  0  0  0  0  0
  -33.7890  -18.0250   19.2010 H   0  0  0  0  0  0  0  0  0  0  0  0
  -32.1670  -18.1400   19.3110 H   0  0  0  0  0  0  0  0  0  0  0  0
  -31.8290  -14.5980   20.4940 C   0  0  0  0  0  3  0  0  0  0  0  0
  -30.3410  -13.6130   18.7670 C   0  0  0  0  0  0  0  0  0  0  0  0
  -29.2680  -11.8940   17.3710 C   0  0  0  0  0  2  0  0  0  0  0  0
  -28.0190  -12.4230   16.6450 C   0  0  0  0  0  2  0  0  0  0  0  0
  -26.7760  -12.2660   17.5370 C   0  0  0  0  0  2  0  0  0  0  0  0
  -26.9940  -12.8420   18.9600 C   0  0  0  0  0  3  0  0  0  0  0  0
  -28.3180  -12.3320   19.5730 C   0  0  0  0  0  2  0  0  0  0  0  0
  -29.4150  -12.6300   18.6370 N   0  0  0  0  0  0  0  0  0  0  0  0
  -31.0700  -13.9820   17.8420 O   0  0  0  0  0  0  0  0  0  0  0  0
  -30.5340  -14.0880   20.0070 N   0  0  0  0  0  0  0  0  0  0  0  0
  -29.8800  -13.7720   20.7060 H   0  0  0  0  0  0  0  0  0  0  0  0
  -25.0150  -13.4330   20.4990 C   0  0  0  0  0  0  0  0  0  0  0  0
  -24.0640  -12.6560   21.1050 C   0  0  0  0  0  0  0  0  0  0  0  0
  -24.3740  -11.3060   20.7530 C   0  0  0  0  0  0  0  0  0  0  0  0
  -25.8510  -12.5540   19.8260 N   0  0  0  0  0  0  0  0  0  0  0  0
  -25.4850  -11.2620   20.0300 N   0  0  0  0  0  0  0  0  0  0  0  0
  -23.6440  -10.0580   21.0200 C   0  0  0  0  0  0  0  0  0  0  0  0
  -24.1900   -9.0410   21.8320 C   0  0  0  0  0  3  0  0  0  0  0  0
  -23.4600   -7.8590   22.0860 C   0  0  0  0  0  3  0  0  0  0  0  0
  -22.1700   -7.6870   21.5300 C   0  0  0  0  0  0  0  0  0  0  0  0
  -21.6420   -8.6950   20.7030 C   0  0  0  0  0  3  0  0  0  0  0  0
  -22.3700   -9.8660   20.4470 C   0  0  0  0  0  3  0  0  0  0  0  0
  -21.4000   -6.5640   21.7030 O   0  0  0  0  0  0  0  0  0  0  0  0
  -21.3970   -5.8680   22.8850 C   0  0  0  0  0  0  0  0  0  0  0  0
  -21.0960   -6.4920   24.1150 C   0  0  0  0  0  3  0  0  0  0  0  0
  -21.0350   -5.7250   25.2980 C   0  0  0  0  0  3  0  0  0  0  0  0
  -21.2660   -4.3370   25.2490 C   0  0  0  0  0  0  0  0  0  0  0  0
  -21.5600   -3.7140   24.0250 C   0  0  0  0  0  3  0  0  0  0  0  0
  -21.6220   -4.4770   22.8450 C   0  0  0  0  0  0  0  0  0  0  0  0
  -21.8860   -3.8680   21.6640 F   0  0  0  0  0  0  0  0  0  0  0  0
  -21.2000   -3.6000   26.3820 F   0  0  0  0  0  0  0  0  0  0  0  0
  -22.8780  -13.1430   21.8880 C   0  0  0  0  0  0  0  0  0  0  0  0
  -22.4840  -12.4110   22.9220 N   0  0  0  0  0  0  0  0  0  0  0  0
  -22.3230  -14.2050   21.6110 O   0  0  0  0  0  0  0  0  0  0  0  0
  -22.9510  -11.5480   23.1600 H   0  0  0  0  0  0  0  0  0  0  0  0
  -21.7040  -12.7160   23.4870 H   0  0  0  0  0  0  0  0  0  0  0  0
  -25.2300  -14.8070   20.4480 N   0  0  0  0  0  0  0  0  0  0  0  0
  -24.6040  -15.4710   20.8920 H   0  0  0  0  0  0  0  0  0  0  0  0
  -25.9740  -15.2520   19.9260 H   0  0  0  0  0  0  0  0  0  0  0  0
  -34.6430  -11.3960   21.7600 C   0  0  0  0  0  2  0  0  0  0  0  0
  -33.1560  -11.0450   21.6570 C   0  0  0  0  0  2  0  0  0  0  0  0
  -34.8230  -12.7960   22.3550 C   0  0  0  0  0  2  0  0  0  0  0  0
  -32.3910  -12.0950   20.8350 C   0  0  0  0  0  2  0  0  0  0  0  0
  -34.0620  -13.8540   21.5410 C   0  0  0  0  0  2  0  0  0  0  0  0
  -32.5460  -13.5390   21.3900 C   0  0  0  0  0  3  0  0  0  0  0  0
  1 52  1  0
  2  1  1  0
  3  2  1  0
  4  3  1  0
  5  4  1  0
  6  5  1  0
  6  7  1  0
  8  6  1  0
  9 10  1  0
  9  6  1  0
 11 13  1  0
 11 10  1  0
 12 23  2  0
 13 18  1  0
 14 22  1  0
 14 24  1  0
 15 21  1  0
 15 17  1  0
 16 22  1  0
 17 16  1  0
 18 17  2  0
 19 20  1  0
 19 13  2  0
 20 15  2  0
 21 14  1  0
 22 12  1  0
 24 26  2  0
 25 24  1  0
 27 25  1  0
 28 37  2  0
 28 33  1  0
 29 25  1  0
 29 33  1  0
 30 29  1  0
 31 32  1  0
 31 30  1  0
 32 28  1  0
 33 34  2  0
 34 35  1  0
 36 35  2  0
 37 36  1  0
 38 12  1  0
 38 39  1  0
 38 48  1  0
 39 42  1  0
 40 39  1  0
 40 44  1  0
 41 40  2  0
 44 43  1  0
 44 46  1  0
 46 47  1  0
 46 45  1  0
 48 51  1  1
 48 49  1  0
 50 48  1  0
 53 52  1  0
 54 53  1  0
 55 53  1  0
 56 53  1  0
 57 66  1  0
 57  1  1  0
 57101  1  0
 58 66  1  0
 59 64  1  0
 60 59  1  0
 60 61  1  0
 62 61  1  0
 62 63  1  0
 62 71  1  0
 64 58  1  0
 64 63  1  0
 65 58  2  0
 66 67  1  0
 68 69  2  0
 69 88  1  0
 70 73  1  0
 70 69  1  0
 71 72  1  0
 71 68  1  0
 72 70  2  0
 73 74  1  0
 74 75  2  0
 76 79  1  0
 76 75  1  0
 77 76  2  0
 78 77  1  0
 78 73  2  0
 79 80  1  0
 80 81  1  0
 81 82  2  0
 83 82  1  0
 83 87  1  0
 84 83  2  0
 85 80  2  0
 85 84  1  0
 86 85  1  0
 88 89  1  0
 89 91  1  0
 89 92  1  0
 90 88  2  0
 93 68  1  0
 93 94  1  0
 95 93  1  0
 96 98  1  0
 97 96  1  0
 99101  1  0
 99 97  1  0
100 98  1  0
101100  1  0
M  ISO  4  10 101  11 101  58 100  66 100
M  END
>  <TORSDO>  (4) 
F 27

>  <SCORE>  (4) 
-3.280

>  <name>  (4) 
3

>  <ligand_id>  (4) 
3

>  <original_smiles>  (4) 
[H]c1c([H])c([H])c2c(c1[H])C([H])([H])C([H])([H])C([H])([H])C2([H])N([H])C(=O)C1([H])N(C(=O)C([H])(N([H])C(=O)C([H])(N([H])C([H])([H])[H])C([H])([H])[H])C(C([H])([H])[H])(C([H])([H])[H])C([H])([H])[H])C([H])([H])c2c([H])c(OC([H])([H])C([H])([H])[N+]([H])([H])C([H])([H])C([H])([H])C([H])([H])C([H])([H])C([H])(C([H])(N([H])C(=O)N3C([H])([H])C([H])([H])C([H])([H])C([H])(n4nc(-c5c([H])c([H])c(Oc6c([H])c([H])c(F)c([H])c6F)c([H])c5[H])c(C(=O)N([H])[H])c4N([H])[H])C3([H])[H])C3([H])C([H])([H])C([H])([H])C([H])([H])C([H])([H])C3([H])[H])C([H])([H])[N+]([H])([H])[H])c([H])c([H])c2C1([H])[H]

>  <smiles>  (4) 
[H]c1c([H])c([H])c2c(c1[H])C([H])([H])C([H])([H])C([H])([H])C2([H])N([H])C(=O)C1([H])N(C(=O)C([H])(N([H])C(=O)C([H])(N([H])C([H])([H])[H])C([H])([H])[H])C(C([H])([H])[H])(C([H])([H])[H])C([H])([H])[H])C([H])([H])c2c([H])c(OC([H])([H])C([H])([H])[N+]([H])([H])C([H])([H])C([H])([H])C([H])([H])C([H])([H])C([H])(C([H])(N([H])C(=O)N3C([H])([H])C([H])([H])C([H])([H])C([H])(n4nc(-c5c([H])c([H])c(Oc6c([H])c([H])c(F)c([H])c6F)c([H])c5[H])c(C(=O)N([H])[H])c4N([H])[H])C3([H])[H])C3([H])C([H])([H])C([H])([H])C([H])([H])C([H])([H])C3([H])[H])C([H])([H])[N+]([H])([H])[H])c([H])c([H])c2C1([H])[H]

$$$$
4:0:0
     RDKit          3D

 92 99  0  0  1  0  0  0  0  0999 V2000
  -29.0940  -18.5920   20.2070 C   0  0  0  0  0  0  0  0  0  0  0  0
  -29.3350  -19.9520   20.2280 N   0  0  0  0  0  0  0  0  0  0  0  0
  -27.9490  -18.1640   20.0560 O   0  0  0  0  0  0  0  0  0  0  0  0
  -30.3060  -20.1920   20.3810 H   0  0  0  0  0  0  0  0  0  0  0  0
  -28.4170  -21.1430   19.9800 C   0  0  0  0  0  2  0  0  0  0  0  0
  -28.4400  -22.6130   20.6650 C   0  0  0  0  0  2  0  0  0  0  0  0
  -28.1770  -23.9560   19.8210 C   0  0  0  0  0  3  0  0  0  0  0  0
  -27.9370  -25.3080   20.6520 C   0  0  0  0  0  3  0  0  0  0  0  0
  -28.0690  -26.6570   20.0430 O   0  0  0  0  0  0  0  0  0  0  0  0
  -24.5950  -32.0540   23.3930 C   0  0  0  0  0  0  0  0  0  0  0  0
  -26.9740  -27.5270   20.1170 C   0  0  0  0  0  0  0  0  0  0  0  0
  -23.2920  -30.7230   21.7710 C   0  0  0  0  0  3  0  0  0  0  0  0
  -24.6470  -29.1770   20.2490 C   0  0  0  0  0  0  0  0  0  0  0  0
  -25.8270  -30.9980   21.4850 C   0  0  0  0  0  2  0  0  0  0  0  0
  -25.8510  -29.6350   20.8000 C   0  0  0  0  0  0  0  0  0  0  0  0
  -27.0220  -28.8230   20.7170 C   0  0  0  0  0  3  0  0  0  0  0  0
  -25.7500  -27.1150   19.5540 C   0  0  0  0  0  3  0  0  0  0  0  0
  -24.5970  -27.9240   19.6170 C   0  0  0  0  0  3  0  0  0  0  0  0
  -23.4320  -30.0750   20.3680 C   0  0  0  0  0  2  0  0  0  0  0  0
  -24.5930  -31.2740   22.2720 N   0  0  0  0  0  0  0  0  0  0  0  0
  -23.5410  -32.3380   23.9820 O   0  0  0  0  0  0  0  0  0  0  0  0
  -22.6510  -29.6950   22.7340 C   0  0  0  0  0  0  0  0  0  0  0  0
  -21.3290  -29.4920   22.6080 N   0  0  0  0  0  0  0  0  0  0  0  0
  -23.3420  -29.0840   23.5530 O   0  0  0  0  0  0  0  0  0  0  0  0
  -20.8270  -30.0410   21.9240 H   0  0  0  0  0  0  0  0  0  0  0  0
  -17.9910  -28.1670   23.0450 C   0  0  0  0  0  0  0  0  0  0  0  0
  -20.5270  -28.5410   23.3810 C   0  0  0  0  0  3  0  0  0  0  0  0
  -20.7070  -27.1000   22.8490 C   0  0  0  0  0  2  0  0  0  0  0  0
  -19.6510  -26.7040   21.8130 C   0  0  0  0  0  2  0  0  0  0  0  0
  -18.2450  -26.8070   22.4130 C   0  0  0  0  0  2  0  0  0  0  0  0
  -19.0650  -28.9850   23.4850 C   0  0  0  0  0  0  0  0  0  0  0  0
  -18.7760  -30.2540   24.0370 C   0  0  0  0  0  3  0  0  0  0  0  0
  -17.4470  -30.7020   24.1530 C   0  0  0  0  0  3  0  0  0  0  0  0
  -16.3880  -29.8810   23.7300 C   0  0  0  0  0  3  0  0  0  0  0  0
  -16.6610  -28.6150   23.1810 C   0  0  0  0  0  3  0  0  0  0  0  0
  -25.9160  -32.6460   23.9740 C   0  0  0  0  0  3  0  0  0  0  0  0
  -25.6580  -34.0500   24.3220 N   0  0  0  0  0  0  0  0  0  0  0  0
  -26.0050  -35.1000   23.5660 C   0  0  0  0  0  0  0  0  0  0  0  0
  -26.6450  -34.9850   22.5170 O   0  0  0  0  0  0  0  0  0  0  0  0
  -25.0850  -34.2140   25.1370 H   0  0  0  0  0  0  0  0  0  0  0  0
  -24.3280  -36.9530   23.2740 C   0  0  0  0  0  1  0  0  0  0  0  0
  -25.5750  -36.4980   24.0500 C   0  0  0  0  0  3  0  0  0  0  0  0
  -27.7530  -37.3090   24.8420 C   0  0  0  0  0  1  0  0  0  0  0  0
  -26.6380  -37.5190   23.9230 N   0  0  0  0  0  0  0  0  0  0  0  0
  -26.2650  -38.4500   24.0870 H   0  0  0  0  0  0  0  0  0  0  0  0
  -26.4530  -31.8530   25.2290 C   0  0  1  0  0  0  0  0  0  0  0  0
  -25.3880  -31.6380   26.3300 C   0  0  0  0  0  1  0  0  0  0  0  0
  -26.9870  -30.4630   24.8120 C   0  0  0  0  0  1  0  0  0  0  0  0
  -27.6420  -32.6120   25.8610 C   0  0  0  0  0  1  0  0  0  0  0  0
  -30.2690  -17.5250   20.3530 C   0  0  0  0  0  3  0  0  0  0  0  0
  -30.6520  -14.9510   20.3710 C   0  0  0  0  0  0  0  0  0  0  0  0
  -30.5340  -12.6000   19.5630 C   0  0  0  0  0  2  0  0  0  0  0  0
  -29.6220  -12.5390   18.3200 C   0  0  0  0  0  2  0  0  0  0  0  0
  -28.1520  -12.3480   18.7410 C   0  0  0  0  0  2  0  0  0  0  0  0
  -27.7190  -13.3280   19.8660 C   0  0  0  0  0  3  0  0  0  0  0  0
  -28.7580  -13.3810   21.0080 C   0  0  0  0  0  2  0  0  0  0  0  0
  -30.0550  -13.7150   20.4080 N   0  0  0  0  0  0  0  0  0  0  0  0
  -31.8260  -15.0640   20.0140 O   0  0  0  0  0  0  0  0  0  0  0  0
  -29.8720  -16.0700   20.5560 N   0  0  0  0  0  0  0  0  0  0  0  0
  -28.8980  -15.9160   20.7680 H   0  0  0  0  0  0  0  0  0  0  0  0
  -25.3360  -13.8960   20.6280 C   0  0  0  0  0  0  0  0  0  0  0  0
  -24.2740  -13.1110   20.9870 C   0  0  0  0  0  0  0  0  0  0  0  0
  -24.7400  -11.7620   20.9200 C   0  0  0  0  0  0  0  0  0  0  0  0
  -26.3800  -13.0260   20.3600 N   0  0  0  0  0  0  0  0  0  0  0  0
  -26.0280  -11.7360   20.6010 N   0  0  0  0  0  0  0  0  0  0  0  0
  -24.0200  -10.4930   21.0860 C   0  0  0  0  0  0  0  0  0  0  0  0
  -24.4440   -9.5180   22.0160 C   0  0  0  0  0  3  0  0  0  0  0  0
  -23.7210   -8.3150   22.1700 C   0  0  0  0  0  3  0  0  0  0  0  0
  -22.5620   -8.0780   21.3930 C   0  0  0  0  0  0  0  0  0  0  0  0
  -22.1590   -9.0410   20.4510 C   0  0  0  0  0  3  0  0  0  0  0  0
  -22.8820  -10.2360   20.2960 C   0  0  0  0  0  3  0  0  0  0  0  0
  -21.8130   -6.9270   21.4560 O   0  0  0  0  0  0  0  0  0  0  0  0
  -21.7150   -6.1950   22.6120 C   0  0  0  0  0  0  0  0  0  0  0  0
  -21.1890   -6.7470   23.8010 C   0  0  0  0  0  3  0  0  0  0  0  0
  -21.0410   -5.9380   24.9460 C   0  0  0  0  0  3  0  0  0  0  0  0
  -21.4090   -4.5800   24.9010 C   0  0  0  0  0  0  0  0  0  0  0  0
  -21.9260   -4.0290   23.7170 C   0  0  0  0  0  3  0  0  0  0  0  0
  -22.0760   -4.8340   22.5740 C   0  0  0  0  0  0  0  0  0  0  0  0
  -22.5560   -4.2920   21.4290 F   0  0  0  0  0  0  0  0  0  0  0  0
  -21.2590   -3.8020   26.0000 F   0  0  0  0  0  0  0  0  0  0  0  0
  -22.8770  -13.5780   21.2770 C   0  0  0  0  0  0  0  0  0  0  0  0
  -22.1590  -12.8670   22.1390 N   0  0  0  0  0  0  0  0  0  0  0  0
  -22.4300  -14.6090   20.7750 O   0  0  0  0  0  0  0  0  0  0  0  0
  -22.5350  -12.0350   22.5710 H   0  0  0  0  0  0  0  0  0  0  0  0
  -21.2220  -13.1610   22.3720 H   0  0  0  0  0  0  0  0  0  0  0  0
  -25.4930  -15.2720   20.4840 N   0  0  0  0  0  0  0  0  0  0  0  0
  -24.7220  -15.9150   20.6270 H   0  0  0  0  0  0  0  0  0  0  0  0
  -26.3380  -15.7380   20.1750 H   0  0  0  0  0  0  0  0  0  0  0  0
  -31.3760  -17.9070   21.3810 C   0  0  0  0  0  2  0  0  0  0  0  0
  -32.8920  -19.2720   19.7930 C   0  0  0  0  0  1  0  0  0  0  0  0
  -33.1730  -19.4400   22.2930 C   0  0  0  0  0  1  0  0  0  0  0  0
  -32.1670  -19.2230   21.1530 C   0  0  0  0  0  3  0  0  0  0  0  0
  1  2  1  0
  1 50  1  0
  2  4  1  0
  3  1  2  0
  5  2  1  0
  5  6  1  0
  7  8  2  0
  7  6  1  0
  9 11  1  0
  9  8  1  0
 10 21  2  0
 11 16  1  0
 12 20  1  0
 12 22  1  0
 13 19  1  0
 13 15  1  0
 14 20  1  0
 15 14  1  0
 16 15  2  0
 17 18  1  0
 17 11  2  0
 18 13  2  0
 19 12  1  0
 20 10  1  0
 22 24  2  0
 23 22  1  0
 25 23  1  0
 26 35  2  0
 26 31  1  0
 27 23  1  0
 27 31  1  0
 28 27  1  0
 29 30  1  0
 29 28  1  0
 30 26  1  0
 31 32  2  0
 32 33  1  0
 34 33  2  0
 35 34  1  0
 36 10  1  0
 36 37  1  0
 36 46  1  0
 37 40  1  0
 38 42  1  0
 38 37  1  0
 39 38  2  0
 42 41  1  0
 44 42  1  0
 44 45  1  0
 44 43  1  0
 46 49  1  1
 46 47  1  0
 48 46  1  0
 50 59  1  0
 50 89  1  0
 51 57  1  0
 51 59  1  0
 52 57  1  0
 53 54  1  0
 53 52  1  0
 55 54  1  0
 55 64  1  0
 55 56  1  0
 57 56  1  0
 58 51  2  0
 59 60  1  0
 61 62  2  0
 62 81  1  0
 63 62  1  0
 63 66  1  0
 64 65  1  0
 64 61  1  0
 65 63  2  0
 66 67  1  0
 67 68  2  0
 69 72  1  0
 69 68  1  0
 70 69  2  0
 71 70  1  0
 71 66  2  0
 72 73  1  0
 73 74  1  0
 74 75  2  0
 76 75  1  0
 76 80  1  0
 77 76  2  0
 78 73  2  0
 78 77  1  0
 79 78  1  0
 81 82  1  0
 82 85  1  0
 82 84  1  0
 83 81  2  0
 86 87  1  0
 86 61  1  0
 88 86  1  0
 90 92  1  0
 92 89  1  0
 92 91  1  0
M  ISO  4   8 101   9 101  51 100  59 100
M  END
>  <TORSDO>  (5) 
F 23

>  <SCORE>  (5) 
-12.562

>  <name>  (5) 
4

>  <ligand_id>  (5) 
4

>  <original_smiles>  (5) 
[H]c1c([H])c([H])c2c(c1[H])C([H])([H])C([H])([H])C([H])([H])C2([H])N([H])C(=O)C1([H])N(C(=O)C([H])(N([H])C(=O)C([H])(N([H])C([H])([H])[H])C([H])([H])[H])C(C([H])([H])[H])(C([H])([H])[H])C([H])([H])[H])C([H])([H])c2c([H])c(OC([H])([H])C([H])([H])C([H])([H])C([H])([H])N([H])C(=O)C([H])(N([H])C(=O)N3C([H])([H])C([H])([H])C([H])([H])C([H])(n4nc(-c5c([H])c([H])c(Oc6c([H])c([H])c(F)c([H])c6F)c([H])c5[H])c(C(=O)N([H])[H])c4N([H])[H])C3([H])[H])C([H])([H])C([H])(C([H])([H])[H])C([H])([H])[H])c([H])c([H])c2C1([H])[H]

>  <smiles>  (5) 
[H]c1c([H])c([H])c2c(c1[H])C([H])([H])C([H])([H])C([H])([H])C2([H])N([H])C(=O)C1([H])N(C(=O)C([H])(N([H])C(=O)C([H])(N([H])C([H])([H])[H])C([H])([H])[H])C(C([H])([H])[H])(C([H])([H])[H])C([H])([H])[H])C([H])([H])c2c([H])c(OC([H])([H])C([H])([H])C([H])([H])C([H])([H])N([H])C(=O)C([H])(N([H])C(=O)N3C([H])([H])C([H])([H])C([H])([H])C([H])(n4nc(-c5c([H])c([H])c(Oc6c([H])c([H])c(F)c([H])c6F)c([H])c5[H])c(C(=O)N([H])[H])c4N([H])[H])C3([H])[H])C([H])([H])C([H])(C([H])([H])[H])C([H])([H])[H])c([H])c([H])c2C1([H])[H]

$$$$
5:0:0
     RDKit          3D

 87 94  0  0  1  0  0  0  0  0999 V2000
  -30.3480  -15.9000   20.4590 C   0  0  0  0  0  0  0  0  0  0  0  0
  -30.4370  -13.3430   19.5460 C   0  0  0  0  0  2  0  0  0  0  0  0
  -29.5860  -12.8670   18.3320 C   0  0  0  0  0  2  0  0  0  0  0  0
  -28.1790  -12.4560   18.7790 C   0  0  0  0  0  2  0  0  0  0  0  0
  -27.6280  -13.4540   19.8210 C   0  0  0  0  0  3  0  0  0  0  0  0
  -28.6340  -13.8330   20.9390 C   0  0  0  0  0  2  0  0  0  0  0  0
  -29.7720  -14.5370   20.2850 N   0  0  0  0  0  0  0  0  0  0  0  0
  -31.5840  -15.6970   20.3990 O   0  0  0  0  0  0  0  0  0  0  0  0
  -30.0890  -20.5170   21.1260 C   0  0  0  0  0  2  0  0  0  0  0  0
  -28.0960  -20.0690   20.5190 C   0  0  0  0  0  2  0  0  0  0  0  0
  -30.5880  -18.8300   20.7440 C   0  0  0  0  0  2  0  0  0  0  0  0
  -28.5190  -18.3450   20.1810 C   0  0  0  0  0  2  0  0  0  0  0  0
  -28.9410  -21.5930   20.4030 C   0  0  0  0  0  3  0  0  0  0  0  0
  -29.7930  -17.4270   20.5680 N   0  0  0  0  0  0  0  0  0  0  0  0
  -25.2570  -13.9620   20.5450 C   0  0  0  0  0  0  0  0  0  0  0  0
  -24.1910  -13.1780   20.8820 C   0  0  0  0  0  0  0  0  0  0  0  0
  -24.6680  -11.8310   20.8580 C   0  0  0  0  0  0  0  0  0  0  0  0
  -26.3100  -13.0980   20.3230 N   0  0  0  0  0  0  0  0  0  0  0  0
  -25.9700  -11.8060   20.5790 N   0  0  0  0  0  0  0  0  0  0  0  0
  -23.9380  -10.5650   21.0260 C   0  0  0  0  0  0  0  0  0  0  0  0
  -24.3400   -9.6000   21.9760 C   0  0  0  0  0  3  0  0  0  0  0  0
  -23.6050   -8.4050   22.1380 C   0  0  0  0  0  3  0  0  0  0  0  0
  -22.4550   -8.1650   21.3490 C   0  0  0  0  0  0  0  0  0  0  0  0
  -22.0720   -9.1180   20.3890 C   0  0  0  0  0  3  0  0  0  0  0  0
  -22.8090  -10.3050   20.2250 C   0  0  0  0  0  3  0  0  0  0  0  0
  -21.6980   -7.0210   21.4180 O   0  0  0  0  0  0  0  0  0  0  0  0
  -21.6030   -6.2860   22.5730 C   0  0  0  0  0  0  0  0  0  0  0  0
  -21.1030   -6.8420   23.7710 C   0  0  0  0  0  3  0  0  0  0  0  0
  -20.9590   -6.0330   24.9150 C   0  0  0  0  0  3  0  0  0  0  0  0
  -21.3050   -4.6700   24.8620 C   0  0  0  0  0  0  0  0  0  0  0  0
  -21.7990   -4.1130   23.6690 C   0  0  0  0  0  3  0  0  0  0  0  0
  -21.9450   -4.9200   22.5260 C   0  0  0  0  0  0  0  0  0  0  0  0
  -22.4020   -4.3740   21.3730 F   0  0  0  0  0  0  0  0  0  0  0  0
  -21.1610   -3.8900   25.9590 F   0  0  0  0  0  0  0  0  0  0  0  0
  -22.7850  -13.6520   21.1030 C   0  0  0  0  0  0  0  0  0  0  0  0
  -22.0380  -12.9710   21.9630 N   0  0  0  0  0  0  0  0  0  0  0  0
  -22.3600  -14.6660   20.5500 O   0  0  0  0  0  0  0  0  0  0  0  0
  -22.3940  -12.1520   22.4310 H   0  0  0  0  0  0  0  0  0  0  0  0
  -21.0940  -13.2770   22.1550 H   0  0  0  0  0  0  0  0  0  0  0  0
  -25.4130  -15.3340   20.3720 N   0  0  0  0  0  0  0  0  0  0  0  0
  -24.6380  -15.9800   20.4600 H   0  0  0  0  0  0  0  0  0  0  0  0
  -26.2710  -15.7790   20.0710 H   0  0  0  0  0  0  0  0  0  0  0  0
  -29.3810  -21.6970   18.9260 C   0  0  0  0  0  2  0  0  0  0  0  0
  -28.6980  -21.7300   16.4740 C   0  0  0  0  0  1  0  0  0  0  0  0
  -28.2480  -21.9740   17.9180 C   0  0  0  0  0  2  0  0  0  0  0  0
  -28.2540  -23.4940   20.8130 C   0  0  0  0  0  1  0  0  0  0  0  0
  -28.3960  -25.3300   20.6800 O   0  0  0  0  0  0  0  0  0  0  0  0
  -24.7730  -31.9010   23.2810 C   0  0  0  0  0  0  0  0  0  0  0  0
  -27.4270  -26.6040   20.5970 C   0  0  0  0  0  0  0  0  0  0  0  0
  -23.6580  -30.4290   21.6620 C   0  0  0  0  0  3  0  0  0  0  0  0
  -25.1660  -28.7130   20.3780 C   0  0  0  0  0  0  0  0  0  0  0  0
  -26.2460  -30.5520   21.6360 C   0  0  0  0  0  2  0  0  0  0  0  0
  -26.3410  -29.0760   21.0430 C   0  0  0  0  0  0  0  0  0  0  0  0
  -27.4530  -28.0540   21.1090 C   0  0  0  0  0  3  0  0  0  0  0  0
  -26.2100  -26.4880   19.8670 C   0  0  0  0  0  3  0  0  0  0  0  0
  -25.1500  -27.4480   19.7640 C   0  0  0  0  0  3  0  0  0  0  0  0
  -23.9590  -29.6720   20.3340 C   0  0  0  0  0  2  0  0  0  0  0  0
  -24.9160  -31.0010   22.2440 N   0  0  0  0  0  0  0  0  0  0  0  0
  -23.6570  -32.2120   23.7390 O   0  0  0  0  0  0  0  0  0  0  0  0
  -22.9040  -29.4940   22.6460 C   0  0  0  0  0  0  0  0  0  0  0  0
  -21.5770  -29.3250   22.4790 N   0  0  0  0  0  0  0  0  0  0  0  0
  -23.5280  -28.9130   23.5370 O   0  0  0  0  0  0  0  0  0  0  0  0
  -21.1210  -29.8410   21.7390 H   0  0  0  0  0  0  0  0  0  0  0  0
  -18.1740  -28.1190   22.9370 C   0  0  0  0  0  0  0  0  0  0  0  0
  -20.7280  -28.4120   23.2570 C   0  0  0  0  0  3  0  0  0  0  0  0
  -20.8490  -26.9630   22.7330 C   0  0  0  0  0  2  0  0  0  0  0  0
  -19.7780  -26.6050   21.6980 C   0  0  0  0  0  2  0  0  0  0  0  0
  -18.3780  -26.7550   22.2990 C   0  0  0  0  0  2  0  0  0  0  0  0
  -19.2770  -28.9040   23.3720 C   0  0  0  0  0  0  0  0  0  0  0  0
  -19.0300  -30.1740   23.9350 C   0  0  0  0  0  3  0  0  0  0  0  0
  -17.7160  -30.6640   24.0620 C   0  0  0  0  0  3  0  0  0  0  0  0
  -16.6300  -29.8800   23.6410 C   0  0  0  0  0  3  0  0  0  0  0  0
  -16.8590  -28.6080   23.0840 C   0  0  0  0  0  3  0  0  0  0  0  0
  -26.0000  -32.5950   23.9460 C   0  0  0  0  0  3  0  0  0  0  0  0
  -25.6480  -34.0030   24.2240 N   0  0  0  0  0  0  0  0  0  0  0  0
  -25.9640  -35.0490   23.4460 C   0  0  0  0  0  0  0  0  0  0  0  0
  -26.6380  -34.9290   22.4210 O   0  0  0  0  0  0  0  0  0  0  0  0
  -25.0510  -34.1660   25.0220 H   0  0  0  0  0  0  0  0  0  0  0  0
  -24.1920  -36.8030   23.0720 C   0  0  0  0  0  1  0  0  0  0  0  0
  -25.4590  -36.4470   23.8680 C   0  0  0  0  0  3  0  0  0  0  0  0
  -27.5810  -37.4220   24.6300 C   0  0  0  0  0  1  0  0  0  0  0  0
  -26.4640  -37.5190   23.6950 N   0  0  0  0  0  0  0  0  0  0  0  0
  -26.0370  -38.4360   23.8050 H   0  0  0  0  0  0  0  0  0  0  0  0
  -26.4520  -31.8900   25.2860 C   0  0  1  0  0  0  0  0  0  0  0  0
  -25.3000  -31.6790   26.2970 C   0  0  0  0  0  1  0  0  0  0  0  0
  -27.0800  -30.5080   25.0030 C   0  0  0  0  0  1  0  0  0  0  0  0
  -27.5490  -32.7330   25.9780 C   0  0  0  0  0  1  0  0  0  0  0  0
  1 14  1  0
  2  7  1  0
  3  4  1  0
  3  2  1  0
  5  4  1  0
  5 18  1  0
  5  6  1  0
  7  1  1  0
  7  6  1  0
  8  1  2  0
 11  9  1  0
 12 10  1  0
 12 14  1  0
 13 43  1  0
 13 10  1  0
 13  9  1  0
 14 11  1  0
 15 16  2  0
 16 35  1  0
 17 16  1  0
 17 20  1  0
 18 15  1  0
 18 19  1  0
 19 17  2  0
 20 21  1  0
 21 22  2  0
 23 26  1  0
 23 22  1  0
 24 23  2  0
 25 24  1  0
 25 20  2  0
 26 27  1  0
 27 28  1  0
 28 29  2  0
 30 29  1  0
 30 34  1  0
 31 30  2  0
 32 27  2  0
 32 31  1  0
 33 32  1  0
 35 36  1  0
 36 39  1  0
 36 38  1  0
 37 35  2  0
 40 41  1  0
 40 15  1  0
 42 40  1  0
 44 45  1  0
 45 43  1  0
 47 46  1  0
 48 59  2  0
 49 47  1  0
 49 54  1  0
 50 58  1  0
 50 60  1  0
 51 53  1  0
 52 58  1  0
 53 54  2  0
 53 52  1  0
 55 49  2  0
 56 55  1  0
 56 51  2  0
 57 51  1  0
 57 50  1  0
 58 48  1  0
 60 62  2  0
 61 60  1  0
 63 61  1  0
 64 73  2  0
 64 69  1  0
 65 61  1  0
 65 69  1  0
 66 65  1  0
 67 68  1  0
 67 66  1  0
 68 64  1  0
 69 70  2  0
 70 71  1  0
 72 71  2  0
 73 72  1  0
 74 48  1  0
 74 75  1  0
 74 84  1  0
 75 78  1  0
 76 80  1  0
 76 75  1  0
 77 76  2  0
 80 79  1  0
 82 83  1  0
 82 80  1  0
 82 81  1  0
 84 87  1  1
 84 85  1  0
 86 84  1  0
M  ISO  4   1 100  14 100  46 101  47 101
M  END
>  <TORSDO>  (6) 
F 18

>  <SCORE>  (6) 
-15.195

>  <name>  (6) 
5

>  <ligand_id>  (6) 
5

>  <original_smiles>  (6) 
[H]c1c([H])c([H])c2c(c1[H])C([H])([H])C([H])([H])C([H])([H])C2([H])N([H])C(=O)C1([H])N(C(=O)C([H])(N([H])C(=O)C([H])(N([H])C([H])([H])[H])C([H])([H])[H])C(C([H])([H])[H])(C([H])([H])[H])C([H])([H])[H])C([H])([H])c2c([H])c(OC([H])([H])C3(C([H])([H])C([H])([H])C([H])([H])[H])C([H])([H])C([H])([H])N(C(=O)N4C([H])([H])C([H])([H])C([H])([H])C([H])(n5nc(-c6c([H])c([H])c(Oc7c([H])c([H])c(F)c([H])c7F)c([H])c6[H])c(C(=O)N([H])[H])c5N([H])[H])C4([H])[H])C([H])([H])C3([H])[H])c([H])c([H])c2C1([H])[H]

>  <smiles>  (6) 
[H]c1c([H])c([H])c2c(c1[H])C([H])([H])C([H])([H])C([H])([H])C2([H])N([H])C(=O)C1([H])N(C(=O)C([H])(N([H])C(=O)C([H])(N([H])C([H])([H])[H])C([H])([H])[H])C(C([H])([H])[H])(C([H])([H])[H])C([H])([H])[H])C([H])([H])c2c([H])c(OC([H])([H])C3(C([H])([H])C([H])([H])C([H])([H])[H])C([H])([H])C([H])([H])N(C(=O)N4C([H])([H])C([H])([H])C([H])([H])C([H])(n5nc(-c6c([H])c([H])c(Oc7c([H])c([H])c(F)c([H])c7F)c([H])c6[H])c(C(=O)N([H])[H])c5N([H])[H])C4([H])[H])C([H])([H])C3([H])[H])c([H])c([H])c2C1([H])[H]

$$$$
6:0:0
     RDKit          3D

 92 99  0  0  1  0  0  0  0  0999 V2000
  -28.7150  -21.7320   20.0370 C   0  0  0  0  0  0  0  0  0  0  0  0
  -29.5220  -20.5820   20.2980 N   0  0  0  0  0  0  0  0  0  0  0  0
  -27.7310  -21.5700   19.3170 O   0  0  0  0  0  0  0  0  0  0  0  0
  -30.2730  -20.7430   20.9550 H   0  0  0  0  0  0  0  0  0  0  0  0
  -28.9200  -23.2890   20.6020 C   0  0  0  0  0  2  0  0  0  0  0  0
  -28.5220  -24.6900   18.4530 C   0  0  0  0  0  1  0  0  0  0  0  0
  -28.1580  -24.6670   19.9440 C   0  0  0  0  0  3  0  0  0  0  0  0
  -28.2720  -26.1770   20.3730 O   0  0  0  0  0  0  0  0  0  0  0  0
  -24.5770  -31.9180   23.2090 C   0  0  0  0  0  0  0  0  0  0  0  0
  -27.2080  -27.1620   20.2500 C   0  0  0  0  0  0  0  0  0  0  0  0
  -23.3930  -30.4960   21.5730 C   0  0  0  0  0  3  0  0  0  0  0  0
  -24.8660  -28.9050   20.1800 C   0  0  0  0  0  0  0  0  0  0  0  0
  -25.9500  -30.7610   21.4340 C   0  0  0  0  0  2  0  0  0  0  0  0
  -26.0350  -29.3590   20.8020 C   0  0  0  0  0  0  0  0  0  0  0  0
  -27.1990  -28.4980   20.8360 C   0  0  0  0  0  3  0  0  0  0  0  0
  -26.0200  -26.8280   19.5700 C   0  0  0  0  0  3  0  0  0  0  0  0
  -24.8700  -27.6500   19.5500 C   0  0  0  0  0  3  0  0  0  0  0  0
  -23.6250  -29.7820   20.2140 C   0  0  0  0  0  2  0  0  0  0  0  0
  -24.6580  -31.0840   22.1240 N   0  0  0  0  0  0  0  0  0  0  0  0
  -23.4860  -32.2080   23.7260 O   0  0  0  0  0  0  0  0  0  0  0  0
  -22.7050  -29.5070   22.5470 C   0  0  0  0  0  0  0  0  0  0  0  0
  -21.3750  -29.3490   22.4310 N   0  0  0  0  0  0  0  0  0  0  0  0
  -23.3730  -28.8790   23.3730 O   0  0  0  0  0  0  0  0  0  0  0  0
  -20.8830  -29.9250   21.7610 H   0  0  0  0  0  0  0  0  0  0  0  0
  -17.9870  -28.1720   22.9520 C   0  0  0  0  0  0  0  0  0  0  0  0
  -20.5510  -28.4160   23.2070 C   0  0  0  0  0  3  0  0  0  0  0  0
  -20.6360  -26.9800   22.6340 C   0  0  0  0  0  2  0  0  0  0  0  0
  -19.5280  -26.6650   21.6270 C   0  0  0  0  0  2  0  0  0  0  0  0
  -18.1490  -26.8230   22.2740 C   0  0  0  0  0  2  0  0  0  0  0  0
  -19.1160  -28.9270   23.3740 C   0  0  0  0  0  0  0  0  0  0  0  0
  -18.9090  -30.1930   23.9640 C   0  0  0  0  0  3  0  0  0  0  0  0
  -17.6100  -30.7010   24.1390 C   0  0  0  0  0  3  0  0  0  0  0  0
  -16.4950  -29.9390   23.7390 C   0  0  0  0  0  3  0  0  0  0  0  0
  -16.6870  -28.6790   23.1460 C   0  0  0  0  0  3  0  0  0  0  0  0
  -25.8520  -32.5580   23.8410 C   0  0  0  0  0  3  0  0  0  0  0  0
  -25.5390  -33.9640   24.1510 N   0  0  0  0  0  0  0  0  0  0  0  0
  -25.8880  -35.0140   23.4020 C   0  0  0  0  0  0  0  0  0  0  0  0
  -26.5690  -34.9060   22.3780 O   0  0  0  0  0  0  0  0  0  0  0  0
  -24.9380  -34.1260   24.9460 H   0  0  0  0  0  0  0  0  0  0  0  0
  -24.1850  -36.8340   23.0200 C   0  0  0  0  0  1  0  0  0  0  0  0
  -25.4030  -36.4080   23.8520 C   0  0  0  0  0  3  0  0  0  0  0  0
  -27.5250  -37.2800   24.7250 C   0  0  0  0  0  1  0  0  0  0  0  0
  -26.4460  -37.4540   23.7590 N   0  0  0  0  0  0  0  0  0  0  0  0
  -26.0400  -38.3760   23.9060 H   0  0  0  0  0  0  0  0  0  0  0  0
  -26.3460  -31.8080   25.1400 C   0  0  1  0  0  0  0  0  0  0  0  0
  -25.2320  -31.5990   26.1980 C   0  0  0  0  0  1  0  0  0  0  0  0
  -26.9270  -30.4180   24.7850 C   0  0  0  0  0  1  0  0  0  0  0  0
  -27.4890  -32.6170   25.7980 C   0  0  0  0  0  1  0  0  0  0  0  0
  -29.5780  -19.1110   19.6780 C   0  0  0  0  0  3  0  0  0  0  0  0
  -29.8080  -20.0450   17.2200 C   0  0  0  0  0  1  0  0  0  0  0  0
  -30.5080  -17.7710   17.6460 C   0  0  0  0  0  1  0  0  0  0  0  0
  -31.8800  -19.6440   18.5940 C   0  0  0  0  0  1  0  0  0  0  0  0
  -30.4310  -19.1530   18.3280 C   0  0  2  0  0  0  0  0  0  0  0  0
  -30.0410  -17.7810   20.6320 C   0  0  0  0  0  2  0  0  0  0  0  0
  -30.5480  -15.0550   20.2990 C   0  0  0  0  0  0  0  0  0  0  0  0
  -30.4280  -12.7130   19.3290 C   0  0  0  0  0  2  0  0  0  0  0  0
  -29.4790  -12.6310   18.1130 C   0  0  0  0  0  2  0  0  0  0  0  0
  -28.0350  -12.3840   18.5830 C   0  0  0  0  0  2  0  0  0  0  0  0
  -27.6150  -13.3460   19.7210 C   0  0  0  0  0  3  0  0  0  0  0  0
  -28.6750  -13.3980   20.8420 C   0  0  0  0  0  2  0  0  0  0  0  0
  -29.9380  -13.8050   20.2130 N   0  0  0  0  0  0  0  0  0  0  0  0
  -31.7660  -15.1060   20.1210 O   0  0  0  0  0  0  0  0  0  0  0  0
  -29.7620  -16.2420   20.3650 N   0  0  0  0  0  0  0  0  0  0  0  0
  -28.7760  -16.0340   20.3450 H   0  0  0  0  0  0  0  0  0  0  0  0
  -25.2240  -13.9250   20.4440 C   0  0  0  0  0  0  0  0  0  0  0  0
  -24.1590  -13.1500   20.8120 C   0  0  0  0  0  0  0  0  0  0  0  0
  -24.6320  -11.8000   20.8000 C   0  0  0  0  0  0  0  0  0  0  0  0
  -26.2770  -13.0490   20.2250 N   0  0  0  0  0  0  0  0  0  0  0  0
  -25.9260  -11.7670   20.5070 N   0  0  0  0  0  0  0  0  0  0  0  0
  -23.9150  -10.5370   20.9970 C   0  0  0  0  0  0  0  0  0  0  0  0
  -24.3410   -9.5790   21.9450 C   0  0  0  0  0  3  0  0  0  0  0  0
  -23.6180   -8.3780   22.1240 C   0  0  0  0  0  3  0  0  0  0  0  0
  -22.4560   -8.1280   21.3550 C   0  0  0  0  0  0  0  0  0  0  0  0
  -22.0530   -9.0740   20.3970 C   0  0  0  0  0  3  0  0  0  0  0  0
  -22.7750  -10.2650   20.2140 C   0  0  0  0  0  3  0  0  0  0  0  0
  -21.7060   -6.9800   21.4430 O   0  0  0  0  0  0  0  0  0  0  0  0
  -21.6450   -6.2500   22.6030 C   0  0  0  0  0  0  0  0  0  0  0  0
  -21.1910   -6.8140   23.8160 C   0  0  0  0  0  3  0  0  0  0  0  0
  -21.0750   -6.0110   24.9670 C   0  0  0  0  0  3  0  0  0  0  0  0
  -21.4060   -4.6450   24.9090 C   0  0  0  0  0  0  0  0  0  0  0  0
  -21.8500   -4.0790   23.7010 C   0  0  0  0  0  3  0  0  0  0  0  0
  -21.9670   -4.8790   22.5500 C   0  0  0  0  0  0  0  0  0  0  0  0
  -22.3770   -4.3230   21.3840 F   0  0  0  0  0  0  0  0  0  0  0  0
  -21.2880   -3.8700   26.0150 F   0  0  0  0  0  0  0  0  0  0  0  0
  -22.7560  -13.6220   21.0560 C   0  0  0  0  0  0  0  0  0  0  0  0
  -22.0130  -12.9290   21.9150 N   0  0  0  0  0  0  0  0  0  0  0  0
  -22.3220  -14.6400   20.5200 O   0  0  0  0  0  0  0  0  0  0  0  0
  -22.3740  -12.1020   22.3660 H   0  0  0  0  0  0  0  0  0  0  0  0
  -21.0730  -13.2340   22.1220 H   0  0  0  0  0  0  0  0  0  0  0  0
  -25.3810  -15.2950   20.2550 N   0  0  0  0  0  0  0  0  0  0  0  0
  -24.6140  -15.9500   20.3620 H   0  0  0  0  0  0  0  0  0  0  0  0
  -26.2200  -15.7330   19.9000 H   0  0  0  0  0  0  0  0  0  0  0  0
  1  2  1  0
  1  5  1  0
  2  4  1  0
  3  1  2  0
  7  6  1  0
  7  8  1  0
  7  5  1  0
  9 20  2  0
 10  8  1  0
 10 15  1  0
 11 19  1  0
 11 21  1  0
 12 18  1  0
 12 14  1  0
 13 19  1  0
 14 15  2  0
 14 13  1  0
 16 10  2  0
 17 16  1  0
 17 12  2  0
 18 11  1  0
 19  9  1  0
 21 23  2  0
 22 21  1  0
 24 22  1  0
 25 34  2  0
 25 30  1  0
 26 22  1  0
 26 30  1  0
 27 26  1  0
 28 29  1  0
 28 27  1  0
 29 25  1  0
 30 31  2  0
 31 32  1  0
 33 32  2  0
 34 33  1  0
 35  9  1  0
 35 36  1  0
 35 45  1  0
 36 39  1  0
 37 41  1  0
 37 36  1  0
 38 37  2  0
 41 40  1  0
 43 41  1  0
 43 44  1  0
 43 42  1  0
 45 48  1  1
 45 46  1  0
 47 45  1  0
 49  2  1  0
 49 54  1  0
 53 50  1  6
 51 53  1  0
 53 52  1  0
 53 49  1  0
 55 63  1  0
 56 61  1  0
 57 58  1  0
 57 56  1  0
 59 58  1  0
 59 68  1  0
 59 60  1  0
 61 55  1  0
 61 60  1  0
 62 55  2  0
 63 54  1  0
 64 63  1  0
 65 66  2  0
 66 85  1  0
 67 66  1  0
 67 70  1  0
 68 65  1  0
 68 69  1  0
 69 67  2  0
 70 71  1  0
 71 72  2  0
 73 76  1  0
 73 72  1  0
 74 73  2  0
 75 74  1  0
 75 70  2  0
 76 77  1  0
 77 78  1  0
 78 79  2  0
 80 79  1  0
 80 84  1  0
 81 80  2  0
 82 77  2  0
 82 81  1  0
 83 82  1  0
 85 86  1  0
 86 89  1  0
 86 88  1  0
 87 85  2  0
 90 91  1  0
 90 65  1  0
 92 90  1  0
M  ISO  4   7 101   8 101  55 100  63 100
M  END
>  <TORSDO>  (7) 
F 21

>  <SCORE>  (7) 
-14.526

>  <name>  (7) 
6

>  <ligand_id>  (7) 
6

>  <original_smiles>  (7) 
[H]c1c([H])c([H])c2c(c1[H])C([H])([H])C([H])([H])C([H])([H])C2([H])N([H])C(=O)C1([H])N(C(=O)C([H])(N([H])C(=O)C([H])(N([H])C([H])([H])[H])C([H])([H])[H])C(C([H])([H])[H])(C([H])([H])[H])C([H])([H])[H])C([H])([H])c2c([H])c(OC([H])(C([H])([H])[H])C([H])([H])C(=O)N([H])C([H])(C([H])([H])N([H])C(=O)N3C([H])([H])C([H])([H])C([H])([H])C([H])(n4nc(-c5c([H])c([H])c(Oc6c([H])c([H])c(F)c([H])c6F)c([H])c5[H])c(C(=O)N([H])[H])c4N([H])[H])C3([H])[H])C(C([H])([H])[H])(C([H])([H])[H])C([H])([H])[H])c([H])c([H])c2C1([H])[H]

>  <smiles>  (7) 
[H]c1c([H])c([H])c2c(c1[H])C([H])([H])C([H])([H])C([H])([H])C2([H])N([H])C(=O)C1([H])N(C(=O)C([H])(N([H])C(=O)C([H])(N([H])C([H])([H])[H])C([H])([H])[H])C(C([H])([H])[H])(C([H])([H])[H])C([H])([H])[H])C([H])([H])c2c([H])c(OC([H])(C([H])([H])[H])C([H])([H])C(=O)N([H])C([H])(C([H])([H])N([H])C(=O)N3C([H])([H])C([H])([H])C([H])([H])C([H])(n4nc(-c5c([H])c([H])c(Oc6c([H])c([H])c(F)c([H])c6F)c([H])c5[H])c(C(=O)N([H])[H])c4N([H])[H])C3([H])[H])C(C([H])([H])[H])(C([H])([H])[H])C([H])([H])[H])c([H])c([H])c2C1([H])[H]

$$$$
7:0:0
     RDKit          3D

 97104  0  0  1  0  0  0  0  0999 V2000
  -29.6850  -20.0380   20.9630 C   0  0  0  0  0  3  0  0  0  0  0  0
  -29.2920  -18.4730   20.7910 C   0  0  0  0  0  2  0  0  0  0  0  0
  -30.4020  -17.3900   20.3390 C   0  0  0  0  0  3  0  0  0  0  0  0
  -30.9700  -14.8180   20.4920 C   0  0  0  0  0  0  0  0  0  0  0  0
  -30.7460  -12.6110   19.3680 C   0  0  0  0  0  2  0  0  0  0  0  0
  -29.8350  -12.7930   18.1320 C   0  0  0  0  0  2  0  0  0  0  0  0
  -28.3490  -12.6570   18.5180 C   0  0  0  0  0  2  0  0  0  0  0  0
  -27.9870  -13.4890   19.7780 C   0  0  0  0  0  3  0  0  0  0  0  0
  -29.0100  -13.2790   20.9140 C   0  0  0  0  0  2  0  0  0  0  0  0
  -30.3340  -13.6090   20.3760 N   0  0  0  0  0  0  0  0  0  0  0  0
  -32.1620  -14.9250   20.1910 O   0  0  0  0  0  0  0  0  0  0  0  0
  -30.1720  -15.9290   20.7160 N   0  0  0  0  0  0  0  0  0  0  0  0
  -29.2270  -15.6980   20.9850 H   0  0  0  0  0  0  0  0  0  0  0  0
  -25.5860  -14.1310   20.4170 C   0  0  0  0  0  0  0  0  0  0  0  0
  -24.4990  -13.3800   20.7670 C   0  0  0  0  0  0  0  0  0  0  0  0
  -24.9430  -12.0210   20.7740 C   0  0  0  0  0  0  0  0  0  0  0  0
  -26.6230  -13.2330   20.2270 N   0  0  0  0  0  0  0  0  0  0  0  0
  -26.2410  -11.9600   20.5040 N   0  0  0  0  0  0  0  0  0  0  0  0
  -24.1950  -10.7730   20.9620 C   0  0  0  0  0  0  0  0  0  0  0  0
  -24.5850   -9.8190   21.9270 C   0  0  0  0  0  3  0  0  0  0  0  0
  -23.8380   -8.6330   22.1020 C   0  0  0  0  0  3  0  0  0  0  0  0
  -22.6880   -8.3950   21.3120 C   0  0  0  0  0  0  0  0  0  0  0  0
  -22.3190   -9.3380   20.3370 C   0  0  0  0  0  3  0  0  0  0  0  0
  -23.0660  -10.5150   20.1610 C   0  0  0  0  0  3  0  0  0  0  0  0
  -21.9170   -7.2610   21.3950 O   0  0  0  0  0  0  0  0  0  0  0  0
  -21.8010   -6.5540   22.5640 C   0  0  0  0  0  0  0  0  0  0  0  0
  -21.3260   -7.1490   23.7520 C   0  0  0  0  0  3  0  0  0  0  0  0
  -21.1570   -6.3670   24.9130 C   0  0  0  0  0  3  0  0  0  0  0  0
  -21.4520   -4.9920   24.8850 C   0  0  0  0  0  0  0  0  0  0  0  0
  -21.9210   -4.3960   23.7000 C   0  0  0  0  0  3  0  0  0  0  0  0
  -22.0910   -5.1740   22.5430 C   0  0  0  0  0  0  0  0  0  0  0  0
  -22.5230   -4.5900   21.3980 F   0  0  0  0  0  0  0  0  0  0  0  0
  -21.2830   -4.2380   25.9970 F   0  0  0  0  0  0  0  0  0  0  0  0
  -23.1000  -13.8800   20.9860 C   0  0  0  0  0  0  0  0  0  0  0  0
  -22.3480  -13.2270   21.8640 N   0  0  0  0  0  0  0  0  0  0  0  0
  -22.6860  -14.8870   20.4140 O   0  0  0  0  0  0  0  0  0  0  0  0
  -22.6990  -12.4130   22.3470 H   0  0  0  0  0  0  0  0  0  0  0  0
  -21.4080  -13.5430   22.0520 H   0  0  0  0  0  0  0  0  0  0  0  0
  -25.7740  -15.4970   20.2220 N   0  0  0  0  0  0  0  0  0  0  0  0
  -25.0060  -16.1540   20.2950 H   0  0  0  0  0  0  0  0  0  0  0  0
  -26.6230  -15.9220   19.8730 H   0  0  0  0  0  0  0  0  0  0  0  0
  -30.5150  -17.4740   18.7900 C   0  0  0  0  0  2  0  0  0  0  0  0
  -32.4350  -19.0730   18.3610 C   0  0  0  0  0  1  0  0  0  0  0  0
  -32.0240  -17.1570   16.7680 C   0  0  0  0  0  1  0  0  0  0  0  0
  -31.9430  -17.6210   18.2310 C   0  0  0  0  0  3  0  0  0  0  0  0
  -28.6410  -21.1740   20.4470 C   0  0  0  0  0  2  0  0  0  0  0  0
  -28.9540  -22.6550   20.7350 N   0  0  0  0  0  4  0  0  0  0  0  0
  -28.8770  -22.7890   21.7310 H   0  0  0  0  0  0  0  0  0  0  0  0
  -29.9200  -22.8160   20.4960 H   0  0  0  0  0  0  0  0  0  0  0  0
  -28.1470  -23.7930   20.0880 C   0  0  0  0  0  2  0  0  0  0  0  0
  -28.2660  -25.2440   20.7780 C   0  0  0  0  0  2  0  0  0  0  0  0
  -28.2200  -26.5260   20.0270 O   0  0  0  0  0  0  0  0  0  0  0  0
  -24.5600  -31.9000   23.2130 C   0  0  0  0  0  0  0  0  0  0  0  0
  -27.0900  -27.3480   20.0960 C   0  0  0  0  0  0  0  0  0  0  0  0
  -23.3160  -30.5160   21.5880 C   0  0  0  0  0  3  0  0  0  0  0  0
  -24.7320  -28.9590   20.1340 C   0  0  0  0  0  0  0  0  0  0  0  0
  -25.8490  -30.8300   21.3520 C   0  0  0  0  0  2  0  0  0  0  0  0
  -25.9140  -29.4500   20.7040 C   0  0  0  0  0  0  0  0  0  0  0  0
  -27.1020  -28.6590   20.6660 C   0  0  0  0  0  3  0  0  0  0  0  0
  -25.8900  -26.8960   19.5180 C   0  0  0  0  0  3  0  0  0  0  0  0
  -24.7220  -27.6870   19.5320 C   0  0  0  0  0  3  0  0  0  0  0  0
  -23.5020  -29.8440   20.2020 C   0  0  0  0  0  2  0  0  0  0  0  0
  -24.5940  -31.1010   22.1070 N   0  0  0  0  0  0  0  0  0  0  0  0
  -23.4890  -32.1760   23.7730 O   0  0  0  0  0  0  0  0  0  0  0  0
  -22.6720  -29.4960   22.5580 C   0  0  0  0  0  0  0  0  0  0  0  0
  -21.3470  -29.3060   22.4440 N   0  0  0  0  0  0  0  0  0  0  0  0
  -23.3620  -28.8790   23.3750 O   0  0  0  0  0  0  0  0  0  0  0  0
  -20.8490  -29.8610   21.7610 H   0  0  0  0  0  0  0  0  0  0  0  0
  -17.9880  -28.0620   22.9540 C   0  0  0  0  0  0  0  0  0  0  0  0
  -20.5420  -28.3600   23.2200 C   0  0  0  0  0  3  0  0  0  0  0  0
  -20.6640  -26.9270   22.6550 C   0  0  0  0  0  2  0  0  0  0  0  0
  -19.5650  -26.5790   21.6440 C   0  0  0  0  0  2  0  0  0  0  0  0
  -18.1820  -26.7090   22.2880 C   0  0  0  0  0  2  0  0  0  0  0  0
  -19.0960  -28.8430   23.3760 C   0  0  0  0  0  0  0  0  0  0  0  0
  -18.8620  -30.1070   23.9590 C   0  0  0  0  0  3  0  0  0  0  0  0
  -17.5500  -30.5910   24.1260 C   0  0  0  0  0  3  0  0  0  0  0  0
  -16.4570  -29.8080   23.7170 C   0  0  0  0  0  3  0  0  0  0  0  0
  -16.6760  -28.5460   23.1360 C   0  0  0  0  0  3  0  0  0  0  0  0
  -25.8570  -32.5230   23.8130 C   0  0  0  0  0  3  0  0  0  0  0  0
  -26.3880  -31.7520   25.0820 C   0  0  1  0  0  0  0  0  0  0  0  0
  -25.3120  -31.5240   26.1690 C   0  0  0  0  0  1  0  0  0  0  0  0
  -26.9580  -30.3690   24.6830 C   0  0  0  0  0  1  0  0  0  0  0  0
  -27.5460  -32.5470   25.7290 C   0  0  0  0  0  1  0  0  0  0  0  0
  -25.5560  -33.9220   24.1470 N   0  0  0  0  0  0  0  0  0  0  0  0
  -25.8970  -34.9780   23.3980 C   0  0  0  0  0  0  0  0  0  0  0  0
  -26.5670  -34.8770   22.3660 O   0  0  0  0  0  0  0  0  0  0  0  0
  -24.9560  -34.0730   24.9450 H   0  0  0  0  0  0  0  0  0  0  0  0
  -24.1890  -36.7970   23.0560 C   0  0  0  0  0  1  0  0  0  0  0  0
  -25.4210  -36.3660   23.8680 C   0  0  0  0  0  3  0  0  0  0  0  0
  -27.5580  -37.2240   24.7210 C   0  0  0  0  0  1  0  0  0  0  0  0
  -26.4630  -37.4110   23.7720 N   0  0  0  0  0  0  0  0  0  0  0  0
  -26.0630  -38.3320   23.9260 H   0  0  0  0  0  0  0  0  0  0  0  0
  -30.0290  -20.2840   22.4630 C   0  0  0  0  0  2  0  0  0  0  0  0
  -31.1620  -19.4840   22.9620 N   0  0  0  0  0  4  0  0  0  0  0  0
  -30.9780  -18.4980   22.9130 H   0  0  0  0  0  0  0  0  0  0  0  0
  -31.3240  -19.7180   23.9260 H   0  0  0  0  0  0  0  0  0  0  0  0
  -32.0050  -19.6910   22.4560 H   0  0  0  0  0  0  0  0  0  0  0  0
  1 46  1  0
  1 93  1  0
  2  1  1  0
  3 42  1  0
  3 12  1  0
  3  2  1  0
  4 12  1  0
  5 10  1  0
  6  7  1  0
  6  5  1  0
  8  7  1  0
  8 17  1  0
  8  9  1  0
 10  4  1  0
 10  9  1  0
 11  4  2  0
 12 13  1  0
 14 15  2  0
 15 16  1  0
 15 34  1  0
 16 19  1  0
 17 14  1  0
 17 18  1  0
 18 16  2  0
 19 20  1  0
 20 21  2  0
 22 25  1  0
 22 21  1  0
 23 22  2  0
 24 23  1  0
 24 19  2  0
 25 26  1  0
 26 27  1  0
 27 28  2  0
 29 28  1  0
 29 33  1  0
 30 29  2  0
 31 26  2  0
 31 30  1  0
 32 31  1  0
 34 35  1  0
 35 38  1  0
 35 37  1  0
 36 34  2  0
 39 40  1  0
 39 14  1  0
 41 39  1  0
 44 45  1  0
 45 43  1  0
 45 42  1  0
 46 47  1  0
 47 48  1  0
 49 47  1  0
 50 47  1  0
 50 51  1  0
 52 54  1  0
 52 51  1  0
 53 64  2  0
 54 59  1  0
 55 63  1  0
 55 65  1  0
 56 62  1  0
 56 58  1  0
 57 63  1  0
 58 57  1  0
 59 58  2  0
 60 61  1  0
 60 54  2  0
 61 56  2  0
 62 55  1  0
 63 53  1  0
 65 67  2  0
 66 65  1  0
 68 66  1  0
 69 78  2  0
 69 74  1  0
 70 66  1  0
 70 74  1  0
 71 70  1  0
 72 73  1  0
 72 71  1  0
 73 69  1  0
 74 75  2  0
 75 76  1  0
 77 76  2  0
 78 77  1  0
 79 53  1  0
 79 84  1  0
 79 80  1  0
 80 83  1  1
 80 81  1  0
 82 80  1  0
 84 87  1  0
 85 89  1  0
 85 84  1  0
 86 85  2  0
 89 88  1  0
 91 89  1  0
 91 92  1  0
 91 90  1  0
 93 94  1  0
 94 96  1  0
 95 94  1  0
 97 94  1  0
M  ISO  4   4 100  12 100  51 101  52 101
M  END
>  <TORSDO>  (8) 
F 26

>  <SCORE>  (8) 
-11.697

>  <name>  (8) 
7

>  <ligand_id>  (8) 
7

>  <original_smiles>  (8) 
[H]c1c([H])c([H])c2c(c1[H])C([H])([H])C([H])([H])C([H])([H])C2([H])N([H])C(=O)C1([H])N(C(=O)C([H])(N([H])C(=O)C([H])(N([H])C([H])([H])[H])C([H])([H])[H])C(C([H])([H])[H])(C([H])([H])[H])C([H])([H])[H])C([H])([H])c2c([H])c(OC([H])([H])C([H])([H])[N+]([H])([H])C([H])([H])C([H])(C([H])([H])C([H])(N([H])C(=O)N3C([H])([H])C([H])([H])C([H])([H])C([H])(n4nc(-c5c([H])c([H])c(Oc6c([H])c([H])c(F)c([H])c6F)c([H])c5[H])c(C(=O)N([H])[H])c4N([H])[H])C3([H])[H])C([H])([H])C([H])(C([H])([H])[H])C([H])([H])[H])C([H])([H])[N+]([H])([H])[H])c([H])c([H])c2C1([H])[H]

>  <smiles>  (8) 
[H]c1c([H])c([H])c2c(c1[H])C([H])([H])C([H])([H])C([H])([H])C2([H])N([H])C(=O)C1([H])N(C(=O)C([H])(N([H])C(=O)C([H])(N([H])C([H])([H])[H])C([H])([H])[H])C(C([H])([H])[H])(C([H])([H])[H])C([H])([H])[H])C([H])([H])c2c([H])c(OC([H])([H])C([H])([H])[N+]([H])([H])C([H])([H])C([H])(C([H])([H])C([H])(N([H])C(=O)N3C([H])([H])C([H])([H])C([H])([H])C([H])(n4nc(-c5c([H])c([H])c(Oc6c([H])c([H])c(F)c([H])c6F)c([H])c5[H])c(C(=O)N([H])[H])c4N([H])[H])C3([H])[H])C([H])([H])C([H])(C([H])([H])[H])C([H])([H])[H])C([H])([H])[N+]([H])([H])[H])c([H])c([H])c2C1([H])[H]

$$$$
8:0:0
     RDKit          3D

 92 99  0  0  1  0  0  0  0  0999 V2000
  -29.2730  -22.6510   20.5400 C   0  0  0  0  0  3  0  0  0  0  0  0
  -30.3760  -22.8830   19.4940 C   0  0  0  0  0  0  0  0  0  0  0  0
  -31.6040  -23.1440   19.9150 N   0  0  0  0  0  0  0  0  0  0  0  0
  -30.1230  -22.8180   18.2910 O   0  0  0  0  0  0  0  0  0  0  0  0
  -31.8140  -23.1910   20.9030 H   0  0  0  0  0  0  0  0  0  0  0  0
  -32.3460  -23.2910   19.2470 H   0  0  0  0  0  0  0  0  0  0  0  0
  -28.7490  -21.1280   20.4590 C   0  0  0  0  0  3  0  0  0  0  0  0
  -29.7710  -19.8990   20.6120 C   0  0  0  0  0  3  0  0  0  0  0  0
  -29.2340  -18.3910   20.6090 C   0  0  0  0  0  3  0  0  0  0  0  0
  -30.3160  -17.2170   20.7180 C   0  0  0  0  0  3  0  0  0  0  0  0
  -30.6060  -14.6680   20.4330 C   0  0  0  0  0  0  0  0  0  0  0  0
  -30.3830  -12.4350   19.3670 C   0  0  0  0  0  2  0  0  0  0  0  0
  -29.4480  -12.5410   18.1430 C   0  0  0  0  0  2  0  0  0  0  0  0
  -27.9720  -12.3920   18.5630 C   0  0  0  0  0  2  0  0  0  0  0  0
  -27.6060  -13.2570   19.7980 C   0  0  0  0  0  3  0  0  0  0  0  0
  -28.6550  -13.1220   20.9200 C   0  0  0  0  0  2  0  0  0  0  0  0
  -29.9610  -13.4620   20.3430 N   0  0  0  0  0  0  0  0  0  0  0  0
  -31.7800  -14.7860   20.0750 O   0  0  0  0  0  0  0  0  0  0  0  0
  -29.8530  -15.7780   20.7360 N   0  0  0  0  0  0  0  0  0  0  0  0
  -28.8930  -15.6070   20.9920 H   0  0  0  0  0  0  0  0  0  0  0  0
  -25.2110  -13.8530   20.4940 C   0  0  0  0  0  0  0  0  0  0  0  0
  -24.1410  -13.0810   20.8590 C   0  0  0  0  0  0  0  0  0  0  0  0
  -24.6060  -11.7310   20.8420 C   0  0  0  0  0  0  0  0  0  0  0  0
  -26.2570  -12.9710   20.2740 N   0  0  0  0  0  0  0  0  0  0  0  0
  -25.8990  -11.6900   20.5460 N   0  0  0  0  0  0  0  0  0  0  0  0
  -23.8790  -10.4680   21.0330 C   0  0  0  0  0  0  0  0  0  0  0  0
  -24.3070   -9.5040   21.9720 C   0  0  0  0  0  3  0  0  0  0  0  0
  -23.5820   -8.3060   22.1510 C   0  0  0  0  0  3  0  0  0  0  0  0
  -22.4130   -8.0660   21.3890 C   0  0  0  0  0  0  0  0  0  0  0  0
  -22.0040   -9.0180   20.4390 C   0  0  0  0  0  3  0  0  0  0  0  0
  -22.7320  -10.2060   20.2590 C   0  0  0  0  0  3  0  0  0  0  0  0
  -21.6560   -6.9230   21.4780 O   0  0  0  0  0  0  0  0  0  0  0  0
  -21.6040   -6.1830   22.6320 C   0  0  0  0  0  0  0  0  0  0  0  0
  -21.1710   -6.7380   23.8560 C   0  0  0  0  0  3  0  0  0  0  0  0
  -21.0670   -5.9230   25.0000 C   0  0  0  0  0  3  0  0  0  0  0  0
  -21.3840   -4.5530   24.9210 C   0  0  0  0  0  0  0  0  0  0  0  0
  -21.8080   -3.9980   23.7030 C   0  0  0  0  0  3  0  0  0  0  0  0
  -21.9140   -4.8090   22.5600 C   0  0  0  0  0  0  0  0  0  0  0  0
  -22.3030   -4.2640   21.3830 F   0  0  0  0  0  0  0  0  0  0  0  0
  -21.2740   -3.7690   26.0190 F   0  0  0  0  0  0  0  0  0  0  0  0
  -22.7410  -13.5580   21.1120 C   0  0  0  0  0  0  0  0  0  0  0  0
  -22.0050  -12.8630   21.9720 N   0  0  0  0  0  0  0  0  0  0  0  0
  -22.3080  -14.5810   20.5840 O   0  0  0  0  0  0  0  0  0  0  0  0
  -22.3710  -12.0360   22.4190 H   0  0  0  0  0  0  0  0  0  0  0  0
  -21.0640  -13.1640   22.1870 H   0  0  0  0  0  0  0  0  0  0  0  0
  -25.3780  -15.2220   20.3050 N   0  0  0  0  0  0  0  0  0  0  0  0
  -24.6160  -15.8850   20.4080 H   0  0  0  0  0  0  0  0  0  0  0  0
  -26.2220  -15.6460   19.9440 H   0  0  0  0  0  0  0  0  0  0  0  0
  -28.1680  -23.8120   20.3890 C   0  0  0  0  0  2  0  0  0  0  0  0
  -29.4880  -25.4010   22.0200 C   0  0  0  0  0  1  0  0  0  0  0  0
  -28.3150  -25.2790   21.0390 C   0  0  0  0  0  3  0  0  0  0  0  0
  -28.3550  -26.4990   20.2030 O   0  0  0  0  0  0  0  0  0  0  0  0
  -24.6080  -31.8810   23.2370 C   0  0  0  0  0  0  0  0  0  0  0  0
  -27.2360  -27.3370   20.2060 C   0  0  0  0  0  0  0  0  0  0  0  0
  -23.4080  -30.4750   21.5980 C   0  0  0  0  0  3  0  0  0  0  0  0
  -24.8650  -28.9230   20.1790 C   0  0  0  0  0  0  0  0  0  0  0  0
  -25.9450  -30.8100   21.4090 C   0  0  0  0  0  2  0  0  0  0  0  0
  -26.0300  -29.4290   20.7720 C   0  0  0  0  0  0  0  0  0  0  0  0
  -27.2220  -28.6470   20.7730 C   0  0  0  0  0  3  0  0  0  0  0  0
  -26.0530  -26.8730   19.6000 C   0  0  0  0  0  3  0  0  0  0  0  0
  -24.8780  -27.6510   19.5820 C   0  0  0  0  0  3  0  0  0  0  0  0
  -23.6250  -29.7950   20.2200 C   0  0  0  0  0  2  0  0  0  0  0  0
  -24.6730  -31.0730   22.1390 N   0  0  0  0  0  0  0  0  0  0  0  0
  -23.5230  -32.1550   23.7700 O   0  0  0  0  0  0  0  0  0  0  0  0
  -22.7460  -29.4600   22.5600 C   0  0  0  0  0  0  0  0  0  0  0  0
  -21.4210  -29.2820   22.4330 N   0  0  0  0  0  0  0  0  0  0  0  0
  -23.4280  -28.8330   23.3760 O   0  0  0  0  0  0  0  0  0  0  0  0
  -20.9330  -29.8360   21.7420 H   0  0  0  0  0  0  0  0  0  0  0  0
  -18.0430  -28.0930   22.9450 C   0  0  0  0  0  0  0  0  0  0  0  0
  -20.6040  -28.3450   23.2050 C   0  0  0  0  0  3  0  0  0  0  0  0
  -20.7000  -26.9150   22.6240 C   0  0  0  0  0  2  0  0  0  0  0  0
  -19.5910  -26.5980   21.6140 C   0  0  0  0  0  2  0  0  0  0  0  0
  -18.2130  -26.7450   22.2630 C   0  0  0  0  0  2  0  0  0  0  0  0
  -19.1650  -28.8500   23.3730 C   0  0  0  0  0  0  0  0  0  0  0  0
  -18.9520  -30.1130   23.9670 C   0  0  0  0  0  3  0  0  0  0  0  0
  -17.6500  -30.6180   24.1380 C   0  0  0  0  0  3  0  0  0  0  0  0
  -16.5420  -29.8580   23.7270 C   0  0  0  0  0  3  0  0  0  0  0  0
  -16.7400  -28.5960   23.1370 C   0  0  0  0  0  3  0  0  0  0  0  0
  -25.8880  -32.5170   23.8590 C   0  0  0  0  0  3  0  0  0  0  0  0
  -25.5770  -33.9170   24.1860 N   0  0  0  0  0  0  0  0  0  0  0  0
  -25.9090  -34.9670   23.4240 C   0  0  0  0  0  0  0  0  0  0  0  0
  -26.5820  -34.8600   22.3950 O   0  0  0  0  0  0  0  0  0  0  0  0
  -24.9800  -34.0730   24.9860 H   0  0  0  0  0  0  0  0  0  0  0  0
  -24.1830  -36.7580   23.0560 C   0  0  0  0  0  1  0  0  0  0  0  0
  -25.4200  -36.3570   23.8750 C   0  0  0  0  0  3  0  0  0  0  0  0
  -27.5530  -37.2400   24.7130 C   0  0  0  0  0  1  0  0  0  0  0  0
  -26.4540  -37.4100   23.7660 N   0  0  0  0  0  0  0  0  0  0  0  0
  -26.0480  -38.3300   23.9140 H   0  0  0  0  0  0  0  0  0  0  0  0
  -26.4010  -31.7490   25.1380 C   0  0  1  0  0  0  0  0  0  0  0  0
  -25.3060  -31.5140   26.2040 C   0  0  0  0  0  1  0  0  0  0  0  0
  -26.9830  -30.3700   24.7490 C   0  0  0  0  0  1  0  0  0  0  0  0
  -27.5530  -32.5430   25.7990 C   0  0  0  0  0  1  0  0  0  0  0  0
  1 49  1  0
  2  3  1  0
  2  1  1  0
  3  5  1  0
  4  2  2  0
  6  3  1  0
  7  1  1  0
  7  8  2  0
  9  8  1  0
  9 10  2  0
 10 19  1  0
 11 19  1  0
 12 17  1  0
 13 14  1  0
 13 12  1  0
 15 14  1  0
 15 24  1  0
 15 16  1  0
 17 11  1  0
 17 16  1  0
 18 11  2  0
 19 20  1  0
 21 22  2  0
 22 41  1  0
 23 22  1  0
 23 26  1  0
 24 21  1  0
 24 25  1  0
 25 23  2  0
 26 27  1  0
 27 28  2  0
 29 32  1  0
 29 28  1  0
 30 29  2  0
 31 30  1  0
 31 26  2  0
 32 33  1  0
 33 34  1  0
 34 35  2  0
 36 35  1  0
 36 40  1  0
 37 36  2  0
 38 33  2  0
 38 37  1  0
 39 38  1  0
 41 42  1  0
 42 45  1  0
 42 44  1  0
 43 41  2  0
 46 47  1  0
 46 21  1  0
 48 46  1  0
 49 51  1  0
 51 50  1  0
 52 54  1  0
 52 51  1  0
 53 64  2  0
 54 59  1  0
 55 63  1  0
 55 65  1  0
 56 62  1  0
 56 58  1  0
 57 63  1  0
 58 59  2  0
 58 57  1  0
 60 54  2  0
 61 60  1  0
 61 56  2  0
 62 55  1  0
 63 53  1  0
 65 67  2  0
 66 65  1  0
 68 66  1  0
 69 78  2  0
 69 74  1  0
 70 66  1  0
 70 74  1  0
 71 70  1  0
 72 73  1  0
 72 71  1  0
 73 69  1  0
 74 75  2  0
 75 76  1  0
 77 76  2  0
 78 77  1  0
 79 53  1  0
 79 80  1  0
 79 89  1  0
 80 83  1  0
 81 85  1  0
 81 80  1  0
 82 81  2  0
 85 84  1  0
 87 85  1  0
 87 88  1  0
 87 86  1  0
 89 92  1  1
 89 90  1  0
 91 89  1  0
M  ISO  4  11 100  19 100  51 101  52 101
M  END
>  <TORSDO>  (9) 
F 23

>  <SCORE>  (9) 
-12.739

>  <name>  (9) 
8

>  <ligand_id>  (9) 
8

>  <original_smiles>  (9) 
[H]c1c([H])c([H])c2c(c1[H])C([H])([H])C([H])([H])C([H])([H])C2([H])N([H])C(=O)C1([H])N(C(=O)C([H])(N([H])C(=O)C([H])(N([H])C([H])([H])[H])C([H])([H])[H])C(C([H])([H])[H])(C([H])([H])[H])C([H])([H])[H])C([H])([H])c2c([H])c(OC([H])(C([H])([H])[H])C([H])([H])C([H])(C(=O)N([H])[H])C([H])([H])C([H])([H])C([H])([H])C([H])([H])N([H])C(=O)N3C([H])([H])C([H])([H])C([H])([H])C([H])(n4nc(-c5c([H])c([H])c(Oc6c([H])c([H])c(F)c([H])c6F)c([H])c5[H])c(C(=O)N([H])[H])c4N([H])[H])C3([H])[H])c([H])c([H])c2C1([H])[H]

>  <smiles>  (9) 
[H]c1c([H])c([H])c2c(c1[H])C([H])([H])C([H])([H])C([H])([H])C2([H])N([H])C(=O)C1([H])N(C(=O)C([H])(N([H])C(=O)C([H])(N([H])C([H])([H])[H])C([H])([H])[H])C(C([H])([H])[H])(C([H])([H])[H])C([H])([H])[H])C([H])([H])c2c([H])c(OC([H])(C([H])([H])[H])C([H])([H])C([H])(C(=O)N([H])[H])C([H])([H])C([H])([H])C([H])([H])C([H])([H])N([H])C(=O)N3C([H])([H])C([H])([H])C([H])([H])C([H])(n4nc(-c5c([H])c([H])c(Oc6c([H])c([H])c(F)c([H])c6F)c([H])c5[H])c(C(=O)N([H])[H])c4N([H])[H])C3([H])[H])c([H])c([H])c2C1([H])[H]

$$$$
9:0:0
     RDKit          3D

 90 93  0  0  1  0  0  0  0  0999 V2000
  -28.7910  -21.4080   20.4900 C   0  0  0  0  0  1  0  0  0  0  0  0
  -27.7210  -21.0710   21.4480 N   0  0  0  0  0  4  0  0  0  0  0  0
  -26.8630  -20.8630   20.9660 H   0  0  0  0  0  0  0  0  0  0  0  0
  -27.5470  -21.8390   22.0740 H   0  0  0  0  0  0  0  0  0  0  0  0
  -27.9770  -20.2730   22.0020 H   0  0  0  0  0  0  0  0  0  0  0  0
  -28.2840  -23.3810   19.9340 C   0  0  0  0  0 15  0  0  0  0  0  0
  -28.1840  -25.2380   20.3290 O   0  0  0  0  0  1  0  0  0  0  0  0
  -24.6790  -31.8640   23.1140 C   0  0  0  0  0  0  0  0  0  0  0  0
  -27.2440  -26.5630   20.2050 C   0  0  0  0  0  0  0  0  0  0  0  0
  -23.5210  -30.4420   21.4800 C   0  0  0  0  0  3  0  0  0  0  0  0
  -24.9910  -28.7440   20.1030 C   0  0  0  0  0  0  0  0  0  0  0  0
  -26.1100  -30.5230   21.4110 C   0  0  0  0  0  2  0  0  0  0  0  0
  -26.1820  -29.0590   20.7650 C   0  0  0  0  0  0  0  0  0  0  0  0
  -27.2760  -28.0040   20.7800 C   0  0  0  0  0  3  0  0  0  0  0  0
  -26.0210  -26.5260   19.4690 C   0  0  0  0  0  3  0  0  0  0  0  0
  -24.9650  -27.5060   19.4300 C   0  0  0  0  0  3  0  0  0  0  0  0
  -23.7900  -29.7180   20.1240 C   0  0  0  0  0  2  0  0  0  0  0  0
  -24.7970  -30.9830   22.0530 N   0  0  0  0  0  0  0  0  0  0  0  0
  -23.5760  -32.1730   23.6000 O   0  0  0  0  0  0  0  0  0  0  0  0
  -22.7790  -29.4910   22.4580 C   0  0  0  0  0  0  0  0  0  0  0  0
  -21.4420  -29.3660   22.3440 N   0  0  0  0  0  0  0  0  0  0  0  0
  -23.4230  -28.8580   23.2990 O   0  0  0  0  0  0  0  0  0  0  0  0
  -20.9670  -29.9260   21.6490 H   0  0  0  0  0  0  0  0  0  0  0  0
  -18.0350  -28.2070   22.8990 C   0  0  0  0  0  0  0  0  0  0  0  0
  -20.6050  -28.4390   23.1200 C   0  0  0  0  0  3  0  0  0  0  0  0
  -20.6720  -27.0090   22.5340 C   0  0  0  0  0  2  0  0  0  0  0  0
  -19.5530  -26.7130   21.5320 C   0  0  0  0  0  2  0  0  0  0  0  0
  -18.1830  -26.8680   22.1980 C   0  0  0  0  0  2  0  0  0  0  0  0
  -19.1710  -28.9530   23.3160 C   0  0  0  0  0  0  0  0  0  0  0  0
  -18.9740  -30.2040   23.9400 C   0  0  0  0  0  3  0  0  0  0  0  0
  -17.6760  -30.7120   24.1440 C   0  0  0  0  0  3  0  0  0  0  0  0
  -16.5570  -29.9650   23.7370 C   0  0  0  0  0  3  0  0  0  0  0  0
  -16.7370  -28.7150   23.1200 C   0  0  0  0  0  3  0  0  0  0  0  0
  -25.9230  -32.5380   23.7710 C   0  0  0  0  0  3  0  0  0  0  0  0
  -25.5780  -33.9370   24.1040 N   0  0  0  0  0  0  0  0  0  0  0  0
  -25.9170  -35.0150   23.3800 C   0  0  0  0  0  0  0  0  0  0  0  0
  -26.6010  -34.9360   22.3590 O   0  0  0  0  0  0  0  0  0  0  0  0
  -24.9670  -34.0700   24.8950 H   0  0  0  0  0  0  0  0  0  0  0  0
  -24.1880  -36.8230   23.0490 C   0  0  0  0  0  1  0  0  0  0  0  0
  -25.4210  -36.3970   23.8620 C   0  0  0  0  0  3  0  0  0  0  0  0
  -27.5400  -37.2860   24.7370 C   0  0  0  0  0  1  0  0  0  0  0  0
  -26.4510  -37.4590   23.7790 N   0  0  0  0  0  0  0  0  0  0  0  0
  -26.0380  -38.3750   23.9300 H   0  0  0  0  0  0  0  0  0  0  0  0
  -26.4080  -31.7930   25.0780 C   0  0  1  0  0  0  0  0  0  0  0  0
  -25.2900  -31.5720   26.1230 C   0  0  0  0  0  1  0  0  0  0  0  0
  -27.0080  -30.4100   24.7410 C   0  0  0  0  0  1  0  0  0  0  0  0
  -27.5390  -32.6040   25.7540 C   0  0  0  0  0  1  0  0  0  0  0  0
  -29.4220  -19.5000   19.8600 C   0  0  0  0  0  1  0  0  0  0  0  0
  -30.2180  -16.1420   20.0960 C   0  0  0  0  0  0  0  0  0  0  0  0
  -30.4040  -13.4990   19.3240 C   0  0  0  0  0  2  0  0  0  0  0  0
  -29.5450  -12.9360   18.1430 C   0  0  0  0  0  2  0  0  0  0  0  0
  -28.1580  -12.4980   18.6230 C   0  0  0  0  0  2  0  0  0  0  0  0
  -27.6060  -13.5140   19.6430 C   0  0  0  0  0  3  0  0  0  0  0  0
  -28.6210  -13.9740   20.7300 C   0  0  0  0  0  2  0  0  0  0  0  0
  -29.7340  -14.7100   20.0520 N   0  0  0  0  0  0  0  0  0  0  0  0
  -31.4440  -16.0100   19.8640 O   0  0  0  0  0  0  0  0  0  0  0  0
  -29.4830  -17.6140   20.2200 N   0  0  0  0  0  2  0  0  0  0  0  0
  -28.5410  -17.3700   20.4970 H   0  0  0  0  0  0  0  0  0  0  0  0
  -25.2540  -13.9980   20.4340 C   0  0  0  0  0  0  0  0  0  0  0  0
  -24.2070  -13.2080   20.8120 C   0  0  0  0  0  0  0  0  0  0  0  0
  -24.6920  -11.8630   20.7780 C   0  0  0  0  0  0  0  0  0  0  0  0
  -26.3060  -13.1410   20.1830 N   0  0  0  0  0  0  0  0  0  0  0  0
  -25.9830  -11.8460   20.4530 N   0  0  0  0  0  0  0  0  0  0  0  0
  -23.9740  -10.5950   20.9760 C   0  0  0  0  0  0  0  0  0  0  0  0
  -24.4090   -9.6360   21.9160 C   0  0  0  0  0  3  0  0  0  0  0  0
  -23.6860   -8.4380   22.1070 C   0  0  0  0  0  3  0  0  0  0  0  0
  -22.5100   -8.1920   21.3580 C   0  0  0  0  0  0  0  0  0  0  0  0
  -22.0920   -9.1400   20.4090 C   0  0  0  0  0  3  0  0  0  0  0  0
  -22.8170  -10.3290   20.2160 C   0  0  0  0  0  3  0  0  0  0  0  0
  -21.7570   -7.0460   21.4580 O   0  0  0  0  0  0  0  0  0  0  0  0
  -21.7090   -6.3130   22.6170 C   0  0  0  0  0  0  0  0  0  0  0  0
  -21.2640   -6.8730   23.8340 C   0  0  0  0  0  3  0  0  0  0  0  0
  -21.1640   -6.0670   24.9860 C   0  0  0  0  0  3  0  0  0  0  0  0
  -21.5000   -4.7020   24.9210 C   0  0  0  0  0  0  0  0  0  0  0  0
  -21.9370   -4.1410   23.7090 C   0  0  0  0  0  3  0  0  0  0  0  0
  -22.0390   -4.9440   22.5600 C   0  0  0  0  0  0  0  0  0  0  0  0
  -22.4400   -4.3920   21.3890 F   0  0  0  0  0  0  0  0  0  0  0  0
  -21.3970   -3.9260   26.0250 F   0  0  0  0  0  0  0  0  0  0  0  0
  -22.8080  -13.6750   21.0830 C   0  0  0  0  0  0  0  0  0  0  0  0
  -22.0890  -12.9790   21.9550 N   0  0  0  0  0  0  0  0  0  0  0  0
  -22.3640  -14.6950   20.5580 O   0  0  0  0  0  0  0  0  0  0  0  0
  -22.4640  -12.1550   22.4040 H   0  0  0  0  0  0  0  0  0  0  0  0
  -21.1500  -13.2740   22.1810 H   0  0  0  0  0  0  0  0  0  0  0  0
  -25.3960  -15.3700   20.2480 N   0  0  0  0  0  0  0  0  0  0  0  0
  -24.6190  -16.0130   20.3490 H   0  0  0  0  0  0  0  0  0  0  0  0
  -26.2300  -15.8100   19.8790 H   0  0  0  0  0  0  0  0  0  0  0  0
  -30.6790  -19.7590   18.9950 C   0  0  0  0  0  2  0  0  0  0  0  0
  -32.2130  -19.5110   21.0710 C   0  0  0  0  0  1  0  0  0  0  0  0
  -32.2340  -21.6910   19.7600 C   0  0  0  0  0  1  0  0  0  0  0  0
  -32.0000  -20.1690   19.7010 C   0  0  0  0  0  3  0  0  0  0  0  0
  1  2  1  0
  2  5  1  0
  2  4  1  0
  3  2  1  0
  8 19  2  0
  9  7  1  0
  9 14  1  0
 10 18  1  0
 10 20  1  0
 11 17  1  0
 11 13  1  0
 12 18  1  0
 13 14  2  0
 13 12  1  0
 15  9  2  0
 16 15  1  0
 16 11  2  0
 17 10  1  0
 18  8  1  0
 20 22  2  0
 21 20  1  0
 23 21  1  0
 24 33  2  0
 24 29  1  0
 25 21  1  0
 25 29  1  0
 26 25  1  0
 27 28  1  0
 27 26  1  0
 28 24  1  0
 29 30  2  0
 30 31  1  0
 32 31  2  0
 33 32  1  0
 34  8  1  0
 34 35  1  0
 34 44  1  0
 35 38  1  0
 36 40  1  0
 36 35  1  0
 37 36  2  0
 40 39  1  0
 42 40  1  0
 42 43  1  0
 42 41  1  0
 44 47  1  1
 44 45  1  0
 46 44  1  0
 49 57  1  0
 50 55  1  0
 51 52  1  0
 51 50  1  0
 53 52  1  0
 53 62  1  0
 53 54  1  0
 55 49  1  0
 55 54  1  0
 56 49  2  0
 57 58  1  0
 59 60  2  0
 60 79  1  0
 61 60  1  0
 61 64  1  0
 62 59  1  0
 62 63  1  0
 63 61  2  0
 64 65  1  0
 65 66  2  0
 67 70  1  0
 67 66  1  0
 68 67  2  0
 69 68  1  0
 69 64  2  0
 70 71  1  0
 71 72  1  0
 72 73  2  0
 74 73  1  0
 74 78  1  0
 75 74  2  0
 76 71  2  0
 76 75  1  0
 77 76  1  0
 79 80  1  0
 80 83  1  0
 80 82  1  0
 81 79  2  0
 84 85  1  0
 84 59  1  0
 86 84  1  0
 87 90  1  0
 87 48  1  0
 90 89  1  0
 90 88  1  0
M  ISO  4   6 101   7 101  49 100  57 100
M  END
>  <TORSDO>  (10) 
F 21

>  <SCORE>  (10) 
-15.693

>  <name>  (10) 
9

>  <ligand_id>  (10) 
9

>  <original_smiles>  (10) 
[H]c1c([H])c([H])c2c(c1[H])C([H])([H])C([H])([H])C([H])([H])C2([H])N([H])C(=O)C1([H])N(C(=O)C([H])(N([H])C(=O)C([H])(N([H])C([H])([H])[H])C([H])([H])[H])C(C([H])([H])[H])(C([H])([H])[H])C([H])([H])[H])C([H])([H])c2c([H])c(OC([H])([H])C([H])(C([H])(N([H])C(=O)N3C([H])([H])C([H])([H])C([H])([H])C([H])(n4nc(-c5c([H])c([H])c(Oc6c([H])c([H])c(F)c([H])c6F)c([H])c5[H])c(C(=O)N([H])[H])c4N([H])[H])C3([H])[H])C([H])([H])C([H])(C([H])([H])[H])C([H])([H])[H])[N+]([H])([H])[H])c([H])c([H])c2C1([H])[H]

>  <smiles>  (10) 
[H]c1c([H])c([H])c2c(c1[H])C([H])([H])C([H])([H])C([H])([H])C2([H])N([H])C(=O)C1([H])N(C(=O)C([H])(N([H])C(=O)C([H])(N([H])C([H])([H])[H])C([H])([H])[H])C(C([H])([H])[H])(C([H])([H])[H])C([H])([H])[H])C([H])([H])c2c([H])c(OC([H])([H])C([H])(C([H])(N([H])C(=O)N3C([H])([H])C([H])([H])C([H])([H])C([H])(n4nc(-c5c([H])c([H])c(Oc6c([H])c([H])c(F)c([H])c6F)c([H])c5[H])c(C(=O)N([H])[H])c4N([H])[H])C3([H])[H])C([H])([H])C([H])(C([H])([H])[H])C([H])([H])[H])[N+]([H])([H])[H])c([H])c([H])c2C1([H])[H]

$$$$
10:0:0
     RDKit          3D

 85 93  0  0  1  0  0  0  0  0999 V2000
  -29.1000  -22.3180   20.1230 C   0  0  0  0  0  3  0  0  0  0  0  0
  -30.4510  -15.7790   19.9030 C   0  0  0  0  0  0  0  0  0  0  0  0
  -30.5050  -13.2480   19.0460 C   0  0  0  0  0  2  0  0  0  0  0  0
  -29.5620  -12.8680   17.8690 C   0  0  0  0  0  2  0  0  0  0  0  0
  -28.1530  -12.5180   18.3720 C   0  0  0  0  0  2  0  0  0  0  0  0
  -27.6960  -13.4910   19.4830 C   0  0  0  0  0  3  0  0  0  0  0  0
  -28.7830  -13.7700   20.5510 C   0  0  0  0  0  2  0  0  0  0  0  0
  -29.9170  -14.4160   19.8440 N   0  0  0  0  0  0  0  0  0  0  0  0
  -31.6720  -15.7130   19.6620 O   0  0  0  0  0  0  0  0  0  0  0  0
  -27.3900  -18.3480   20.0600 C   0  0  0  0  0  2  0  0  0  0  0  0
  -27.7050  -19.8130   20.5170 C   0  0  0  0  0  2  0  0  0  0  0  0
  -28.3290  -17.1700   20.5190 C   0  0  0  0  0  2  0  0  0  0  0  0
  -30.0430  -18.8670   19.9670 C   0  0  0  0  0  2  0  0  0  0  0  0
  -28.9590  -20.4090   19.8490 C   0  0  0  0  0  3  0  0  0  0  0  0
  -29.7140  -17.1610   20.0100 N   0  0  0  0  0  0  0  0  0  0  0  0
  -25.3650  -13.9880   20.3690 C   0  0  0  0  0  0  0  0  0  0  0  0
  -24.3330  -13.1930   20.7730 C   0  0  0  0  0  0  0  0  0  0  0  0
  -24.8120  -11.8500   20.6800 C   0  0  0  0  0  0  0  0  0  0  0  0
  -26.4060  -13.1340   20.0580 N   0  0  0  0  0  0  0  0  0  0  0  0
  -26.0890  -11.8360   20.3100 N   0  0  0  0  0  0  0  0  0  0  0  0
  -24.1000  -10.5800   20.8630 C   0  0  0  0  0  0  0  0  0  0  0  0
  -24.5010   -9.6400   21.8350 C   0  0  0  0  0  3  0  0  0  0  0  0
  -23.7820   -8.4380   22.0080 C   0  0  0  0  0  3  0  0  0  0  0  0
  -22.6450   -8.1700   21.2100 C   0  0  0  0  0  0  0  0  0  0  0  0
  -22.2630   -9.1010   20.2290 C   0  0  0  0  0  3  0  0  0  0  0  0
  -22.9840  -10.2920   20.0530 C   0  0  0  0  0  3  0  0  0  0  0  0
  -21.8980   -7.0180   21.2920 O   0  0  0  0  0  0  0  0  0  0  0  0
  -21.6870   -6.3830   22.4890 C   0  0  0  0  0  0  0  0  0  0  0  0
  -20.9920   -7.0030   23.5510 C   0  0  0  0  0  3  0  0  0  0  0  0
  -20.7350   -6.2900   24.7380 C   0  0  0  0  0  3  0  0  0  0  0  0
  -21.1590   -4.9540   24.8630 C   0  0  0  0  0  0  0  0  0  0  0  0
  -21.8460   -4.3300   23.8050 C   0  0  0  0  0  3  0  0  0  0  0  0
  -22.1050   -5.0420   22.6210 C   0  0  0  0  0  0  0  0  0  0  0  0
  -22.7460   -4.4300   21.5960 F   0  0  0  0  0  0  0  0  0  0  0  0
  -20.9080   -4.2670   26.0010 F   0  0  0  0  0  0  0  0  0  0  0  0
  -22.9480  -13.6560   21.1110 C   0  0  0  0  0  0  0  0  0  0  0  0
  -22.2640  -12.9480   22.0030 N   0  0  0  0  0  0  0  0  0  0  0  0
  -22.4820  -14.6840   20.6200 O   0  0  0  0  0  0  0  0  0  0  0  0
  -22.6550  -12.1190   22.4240 H   0  0  0  0  0  0  0  0  0  0  0  0
  -21.3350  -13.2400   22.2710 H   0  0  0  0  0  0  0  0  0  0  0  0
  -25.4730  -15.3630   20.2040 N   0  0  0  0  0  0  0  0  0  0  0  0
  -24.6720  -15.9670   20.3480 H   0  0  0  0  0  0  0  0  0  0  0  0
  -26.2560  -15.8450   19.7860 H   0  0  0  0  0  0  0  0  0  0  0  0
  -28.1230  -23.9740   19.9280 C   0  0  0  0  0  3  0  0  0  0  0  0
  -28.2810  -25.7000   20.1780 O   0  0  0  0  0  0  0  0  0  0  0  0
  -24.7320  -31.8490   23.2550 C   0  0  0  0  0  0  0  0  0  0  0  0
  -27.2990  -26.8940   20.1390 C   0  0  0  0  0  0  0  0  0  0  0  0
  -23.5600  -30.4960   21.5710 C   0  0  0  0  0  3  0  0  0  0  0  0
  -25.0200  -28.9010   20.1200 C   0  0  0  0  0  0  0  0  0  0  0  0
  -26.1360  -30.6610   21.4680 C   0  0  0  0  0  2  0  0  0  0  0  0
  -26.2090  -29.2510   20.7710 C   0  0  0  0  0  0  0  0  0  0  0  0
  -27.3340  -28.2770   20.7480 C   0  0  0  0  0  3  0  0  0  0  0  0
  -26.0740  -26.7460   19.4400 C   0  0  0  0  0  3  0  0  0  0  0  0
  -24.9910  -27.6760   19.4300 C   0  0  0  0  0  3  0  0  0  0  0  0
  -23.8080  -29.8440   20.1810 C   0  0  0  0  0  2  0  0  0  0  0  0
  -24.8330  -31.0330   22.1510 N   0  0  0  0  0  0  0  0  0  0  0  0
  -23.6360  -32.1300   23.7660 O   0  0  0  0  0  0  0  0  0  0  0  0
  -22.8430  -29.4870   22.5080 C   0  0  0  0  0  0  0  0  0  0  0  0
  -21.5130  -29.3240   22.3640 N   0  0  0  0  0  0  0  0  0  0  0  0
  -23.4950  -28.8490   23.3380 O   0  0  0  0  0  0  0  0  0  0  0  0
  -21.0370  -29.8870   21.6730 H   0  0  0  0  0  0  0  0  0  0  0  0
  -18.1190  -28.1180   22.8470 C   0  0  0  0  0  0  0  0  0  0  0  0
  -20.6830  -28.3640   23.1040 C   0  0  0  0  0  3  0  0  0  0  0  0
  -20.7740  -26.9530   22.4770 C   0  0  0  0  0  2  0  0  0  0  0  0
  -19.6660  -26.6750   21.4570 C   0  0  0  0  0  2  0  0  0  0  0  0
  -18.2880  -26.7970   22.1130 C   0  0  0  0  0  2  0  0  0  0  0  0
  -19.2430  -28.8600   23.2980 C   0  0  0  0  0  0  0  0  0  0  0  0
  -19.0270  -30.0940   23.9490 C   0  0  0  0  0  3  0  0  0  0  0  0
  -17.7240  -30.5850   24.1510 C   0  0  0  0  0  3  0  0  0  0  0  0
  -16.6160  -29.8400   23.7130 C   0  0  0  0  0  3  0  0  0  0  0  0
  -16.8140  -28.6070   23.0650 C   0  0  0  0  0  3  0  0  0  0  0  0
  -25.9900  -32.4840   23.9210 C   0  0  0  0  0  3  0  0  0  0  0  0
  -25.6780  -33.8910   24.2460 N   0  0  0  0  0  0  0  0  0  0  0  0
  -25.9970  -34.9470   23.4850 C   0  0  0  0  0  0  0  0  0  0  0  0
  -26.6420  -34.8410   22.4400 O   0  0  0  0  0  0  0  0  0  0  0  0
  -25.0990  -34.0480   25.0560 H   0  0  0  0  0  0  0  0  0  0  0  0
  -24.2560  -36.7450   23.2000 C   0  0  0  0  0  1  0  0  0  0  0  0
  -25.5310  -36.3410   23.9570 C   0  0  0  0  0  3  0  0  0  0  0  0
  -27.6840  -37.2550   24.7100 C   0  0  0  0  0  1  0  0  0  0  0  0
  -26.5570  -37.3950   23.7920 N   0  0  0  0  0  0  0  0  0  0  0  0
  -26.1510  -38.3180   23.9260 H   0  0  0  0  0  0  0  0  0  0  0  0
  -26.4470  -31.7230   25.2270 C   0  0  1  0  0  0  0  0  0  0  0  0
  -25.3140  -31.5090   26.2590 C   0  0  0  0  0  1  0  0  0  0  0  0
  -27.0290  -30.3320   24.8830 C   0  0  0  0  0  1  0  0  0  0  0  0
  -27.5820  -32.5110   25.9230 C   0  0  0  0  0  1  0  0  0  0  0  0
  2 15  1  0
  3  8  1  0
  4  5  1  0
  4  3  1  0
  6  5  1  0
  6 19  1  0
  6  7  1  0
  8  2  1  0
  8  7  1  0
  9  2  2  0
 10 11  1  0
 10 12  1  0
 13 15  1  0
 14 13  1  0
 14  1  1  0
 14 11  1  0
 15 12  1  0
 16 17  2  0
 17 36  1  0
 18 17  1  0
 18 21  1  0
 19 20  1  0
 19 16  1  0
 20 18  2  0
 21 22  1  0
 22 23  2  0
 24 27  1  0
 24 23  1  0
 25 24  2  0
 26 25  1  0
 26 21  2  0
 27 28  1  0
 28 33  2  0
 28 29  1  0
 29 30  2  0
 30 31  1  0
 31 35  1  0
 32 31  2  0
 33 32  1  0
 34 33  1  0
 36 37  1  0
 37 40  1  0
 37 39  1  0
 38 36  2  0
 41 42  1  0
 41 16  1  0
 43 41  1  0
 44  1  2  0
 44 45  1  0
 46 57  2  0
 47 45  1  0
 47 52  1  0
 48 56  1  0
 48 58  1  0
 49 55  1  0
 49 51  1  0
 50 56  1  0
 51 50  1  0
 52 51  2  0
 53 47  2  0
 54 53  1  0
 54 49  2  0
 55 48  1  0
 56 46  1  0
 58 60  2  0
 59 58  1  0
 61 59  1  0
 62 71  2  0
 62 67  1  0
 63 59  1  0
 63 67  1  0
 64 63  1  0
 65 66  1  0
 65 64  1  0
 66 62  1  0
 67 68  2  0
 68 69  1  0
 70 69  2  0
 71 70  1  0
 72 46  1  0
 72 73  1  0
 72 82  1  0
 73 76  1  0
 74 78  1  0
 74 73  1  0
 75 74  2  0
 78 77  1  0
 80 81  1  0
 80 78  1  0
 80 79  1  0
 82 85  1  1
 82 83  1  0
 84 82  1  0
M  ISO  4   2 100  15 100  44 101  45 101
M  END
>  <TORSDO>  (11) 
F 17

>  <SCORE>  (11) 
-15.922

>  <name>  (11) 
10

>  <ligand_id>  (11) 
10

>  <original_smiles>  (11) 
[H]c1c([H])c([H])c2c(c1[H])C([H])([H])C([H])([H])C([H])([H])C2([H])N([H])C(=O)C1([H])N(C(=O)C([H])(N([H])C(=O)C([H])(N([H])C([H])([H])[H])C([H])([H])[H])C(C([H])([H])[H])(C([H])([H])[H])C([H])([H])[H])C([H])([H])c2c([H])c(OC([H])([H])C([H])([H])C3([H])C([H])([H])N(C(=O)N4C([H])([H])C([H])([H])C([H])([H])C([H])(n5nc(-c6c([H])c([H])c(Oc7c([H])c([H])c(F)c([H])c7F)c([H])c6[H])c(C(=O)N([H])[H])c5N([H])[H])C4([H])[H])C([H])([H])C([H])([H])C3([H])[H])c([H])c([H])c2C1([H])[H]

>  <smiles>  (11) 
[H]c1c([H])c([H])c2c(c1[H])C([H])([H])C([H])([H])C([H])([H])C2([H])N([H])C(=O)C1([H])N(C(=O)C([H])(N([H])C(=O)C([H])(N([H])C([H])([H])[H])C([H])([H])[H])C(C([H])([H])[H])(C([H])([H])[H])C([H])([H])[H])C([H])([H])c2c([H])c(OC([H])([H])C([H])([H])C3([H])C([H])([H])N(C(=O)N4C([H])([H])C([H])([H])C([H])([H])C([H])(n5nc(-c6c([H])c([H])c(Oc7c([H])c([H])c(F)c([H])c7F)c([H])c6[H])c(C(=O)N([H])[H])c5N([H])[H])C4([H])[H])C([H])([H])C([H])([H])C3([H])[H])c([H])c([H])c2C1([H])[H]

$$$$
11:0:0
     RDKit          3D

 87 90  0  0  1  0  0  0  0  0999 V2000
  -28.7670  -21.3810   20.5830 C   0  0  0  0  0  2  0  0  0  0  0  0
  -28.4860  -21.3540   21.7860 O   0  0  0  0  0  0  0  0  0  0  0  0
  -28.2930  -23.2230   19.9050 C   0  0  0  0  0 15  0  0  0  0  0  0
  -28.1760  -25.0730   20.3810 O   0  0  0  0  0  1  0  0  0  0  0  0
  -24.7120  -31.7630   23.1230 C   0  0  0  0  0  0  0  0  0  0  0  0
  -27.2580  -26.4210   20.2290 C   0  0  0  0  0  0  0  0  0  0  0  0
  -23.5540  -30.3490   21.4840 C   0  0  0  0  0  3  0  0  0  0  0  0
  -25.0200  -28.6360   20.1080 C   0  0  0  0  0  0  0  0  0  0  0  0
  -26.1430  -30.4050   21.4310 C   0  0  0  0  0  2  0  0  0  0  0  0
  -26.2080  -28.9400   20.7820 C   0  0  0  0  0  0  0  0  0  0  0  0
  -27.2890  -27.8660   20.8070 C   0  0  0  0  0  3  0  0  0  0  0  0
  -26.0370  -26.4050   19.4780 C   0  0  0  0  0  3  0  0  0  0  0  0
  -24.9910  -27.3980   19.4320 C   0  0  0  0  0  3  0  0  0  0  0  0
  -23.8240  -29.6240   20.1260 C   0  0  0  0  0  2  0  0  0  0  0  0
  -24.8300  -30.8780   22.0660 N   0  0  0  0  0  0  0  0  0  0  0  0
  -23.6080  -32.0830   23.6000 O   0  0  0  0  0  0  0  0  0  0  0  0
  -22.7910  -29.4060   22.4610 C   0  0  0  0  0  0  0  0  0  0  0  0
  -21.4520  -29.2960   22.3430 N   0  0  0  0  0  0  0  0  0  0  0  0
  -23.4220  -28.7710   23.3090 O   0  0  0  0  0  0  0  0  0  0  0  0
  -20.9910  -29.8700   21.6530 H   0  0  0  0  0  0  0  0  0  0  0  0
  -18.0350  -28.1400   22.8410 C   0  0  0  0  0  0  0  0  0  0  0  0
  -20.6000  -28.3750   23.1090 C   0  0  0  0  0  3  0  0  0  0  0  0
  -20.6800  -26.9370   22.5400 C   0  0  0  0  0  2  0  0  0  0  0  0
  -19.5770  -26.6300   21.5220 C   0  0  0  0  0  2  0  0  0  0  0  0
  -18.1950  -26.7910   22.1590 C   0  0  0  0  0  2  0  0  0  0  0  0
  -19.1620  -28.8900   23.2730 C   0  0  0  0  0  0  0  0  0  0  0  0
  -18.9550  -30.1490   23.8780 C   0  0  0  0  0  3  0  0  0  0  0  0
  -17.6530  -30.6590   24.0520 C   0  0  0  0  0  3  0  0  0  0  0  0
  -16.5410  -29.9050   23.6360 C   0  0  0  0  0  3  0  0  0  0  0  0
  -16.7340  -28.6480   23.0370 C   0  0  0  0  0  3  0  0  0  0  0  0
  -25.9550  -32.4280   23.7920 C   0  0  0  0  0  3  0  0  0  0  0  0
  -26.4610  -31.6500   25.0710 C   0  0  1  0  0  0  0  0  0  0  0  0
  -25.3580  -31.3960   26.1290 C   0  0  0  0  0  1  0  0  0  0  0  0
  -27.0520  -30.2780   24.6810 C   0  0  0  0  0  1  0  0  0  0  0  0
  -27.6010  -32.4440   25.7500 C   0  0  0  0  0  1  0  0  0  0  0  0
  -25.6020  -33.8130   24.1770 N   0  0  0  0  0  0  0  0  0  0  0  0
  -25.9130  -34.9170   23.4840 C   0  0  0  0  0  0  0  0  0  0  0  0
  -26.5780  -34.8800   22.4470 O   0  0  0  0  0  0  0  0  0  0  0  0
  -25.0150  -33.9170   24.9900 H   0  0  0  0  0  0  0  0  0  0  0  0
  -24.1490  -36.7060   23.2680 C   0  0  0  0  0  1  0  0  0  0  0  0
  -25.4110  -36.2740   24.0280 C   0  0  0  0  0  3  0  0  0  0  0  0
  -27.5510  -37.1660   24.8460 C   0  0  0  0  0  1  0  0  0  0  0  0
  -26.4190  -37.3570   23.9450 N   0  0  0  0  0  0  0  0  0  0  0  0
  -25.9930  -38.2550   24.1520 H   0  0  0  0  0  0  0  0  0  0  0  0
  -29.5950  -19.4650   20.0590 C   0  0  0  0  0  1  0  0  0  0  0  0
  -30.1890  -16.0490   20.2920 C   0  0  0  0  0  0  0  0  0  0  0  0
  -30.3920  -13.3960   19.5350 C   0  0  0  0  0  2  0  0  0  0  0  0
  -29.5680  -12.7630   18.3650 C   0  0  0  0  0  2  0  0  0  0  0  0
  -28.1750  -12.3210   18.8270 C   0  0  0  0  0  2  0  0  0  0  0  0
  -27.5840  -13.3620   19.7970 C   0  0  0  0  0  3  0  0  0  0  0  0
  -28.5690  -13.8700   20.8900 C   0  0  0  0  0  2  0  0  0  0  0  0
  -29.6840  -14.6170   20.2160 N   0  0  0  0  0  0  0  0  0  0  0  0
  -31.4230  -15.8710   20.1640 O   0  0  0  0  0  0  0  0  0  0  0  0
  -29.4910  -17.5570   20.3370 N   0  0  0  0  0  2  0  0  0  0  0  0
  -28.5060  -17.3660   20.4640 H   0  0  0  0  0  0  0  0  0  0  0  0
  -25.2250  -13.8340   20.5790 C   0  0  0  0  0  0  0  0  0  0  0  0
  -24.1720  -13.0410   20.9260 C   0  0  0  0  0  0  0  0  0  0  0  0
  -24.6490  -11.6950   20.8700 C   0  0  0  0  0  0  0  0  0  0  0  0
  -26.2780  -12.9800   20.3200 N   0  0  0  0  0  0  0  0  0  0  0  0
  -25.9450  -11.6800   20.5590 N   0  0  0  0  0  0  0  0  0  0  0  0
  -23.9190  -10.4290   21.0350 C   0  0  0  0  0  0  0  0  0  0  0  0
  -24.3680   -9.4210   21.9150 C   0  0  0  0  0  3  0  0  0  0  0  0
  -23.6310   -8.2270   22.0760 C   0  0  0  0  0  3  0  0  0  0  0  0
  -22.4280   -8.0310   21.3550 C   0  0  0  0  0  0  0  0  0  0  0  0
  -21.9940   -9.0290   20.4650 C   0  0  0  0  0  3  0  0  0  0  0  0
  -22.7320  -10.2140   20.3030 C   0  0  0  0  0  3  0  0  0  0  0  0
  -21.6650   -6.8890   21.4250 O   0  0  0  0  0  0  0  0  0  0  0  0
  -21.6850   -6.0720   22.5270 C   0  0  0  0  0  0  0  0  0  0  0  0
  -21.4030   -6.5630   23.8200 C   0  0  0  0  0  3  0  0  0  0  0  0
  -21.3680   -5.6780   24.9160 C   0  0  0  0  0  3  0  0  0  0  0  0
  -21.6050   -4.3030   24.7210 C   0  0  0  0  0  0  0  0  0  0  0  0
  -21.8810   -3.8130   23.4310 C   0  0  0  0  0  3  0  0  0  0  0  0
  -21.9190   -4.6960   22.3380 C   0  0  0  0  0  0  0  0  0  0  0  0
  -22.1650   -4.2140   21.0960 F   0  0  0  0  0  0  0  0  0  0  0  0
  -21.5640   -3.4510   25.7730 F   0  0  0  0  0  0  0  0  0  0  0  0
  -22.7700  -13.5120   21.1880 C   0  0  0  0  0  0  0  0  0  0  0  0
  -22.0350  -12.8130   22.0450 N   0  0  0  0  0  0  0  0  0  0  0  0
  -22.3380  -14.5400   20.6690 O   0  0  0  0  0  0  0  0  0  0  0  0
  -22.3930  -11.9860   22.4980 H   0  0  0  0  0  0  0  0  0  0  0  0
  -21.0980  -13.1200   22.2600 H   0  0  0  0  0  0  0  0  0  0  0  0
  -25.3740  -15.2100   20.4260 N   0  0  0  0  0  0  0  0  0  0  0  0
  -24.5960  -15.8500   20.5420 H   0  0  0  0  0  0  0  0  0  0  0  0
  -26.2210  -15.6680   20.1160 H   0  0  0  0  0  0  0  0  0  0  0  0
  -31.0920  -19.7800   20.4220 C   0  0  0  0  0  2  0  0  0  0  0  0
  -32.0440  -19.1860   18.0760 C   0  0  0  0  0  1  0  0  0  0  0  0
  -33.6420  -19.6660   19.9560 C   0  0  0  0  0  1  0  0  0  0  0  0
  -32.2420  -19.1160   19.5980 C   0  0  0  0  0  3  0  0  0  0  0  0
  1  2  2  0
  5 16  2  0
  6  4  1  0
  6 11  1  0
  7 15  1  0
  7 17  1  0
  8 14  1  0
  8 10  1  0
  9 15  1  0
 10 11  2  0
 10  9  1  0
 12  6  2  0
 13 12  1  0
 13  8  2  0
 14  7  1  0
 15  5  1  0
 17 19  2  0
 18 17  1  0
 20 18  1  0
 21 30  2  0
 21 26  1  0
 22 18  1  0
 22 26  1  0
 23 22  1  0
 24 25  1  0
 24 23  1  0
 25 21  1  0
 26 27  2  0
 27 28  1  0
 29 28  2  0
 30 29  1  0
 31  5  1  0
 31 36  1  0
 31 32  1  0
 32 35  1  1
 32 33  1  0
 34 32  1  0
 36 39  1  0
 37 41  1  0
 37 36  1  0
 38 37  2  0
 41 40  1  0
 43 41  1  0
 43 44  1  0
 43 42  1  0
 45 84  1  0
 46 54  1  0
 47 52  1  0
 48 49  1  0
 48 47  1  0
 50 49  1  0
 50 59  1  0
 50 51  1  0
 52 46  1  0
 52 51  1  0
 53 46  2  0
 54 55  1  0
 56 57  2  0
 57 76  1  0
 58 57  1  0
 58 61  1  0
 59 60  1  0
 59 56  1  0
 60 58  2  0
 61 62  1  0
 62 63  2  0
 64 67  1  0
 64 63  1  0
 65 64  2  0
 66 65  1  0
 66 61  2  0
 67 68  1  0
 68 69  1  0
 69 70  2  0
 71 70  1  0
 71 75  1  0
 72 71  2  0
 73 68  2  0
 73 72  1  0
 74 73  1  0
 76 77  1  0
 77 80  1  0
 77 79  1  0
 78 76  2  0
 81 82  1  0
 81 56  1  0
 83 81  1  0
 85 87  1  0
 87 86  1  0
 87 84  1  0
M  ISO  4   3 101   4 101  46 100  54 100
M  END
>  <TORSDO>  (12) 
F 20

>  <SCORE>  (12) 
-15.423

>  <name>  (12) 
11

>  <ligand_id>  (12) 
11

>  <original_smiles>  (12) 
[H]c1c([H])c([H])c2c(c1[H])C([H])([H])C([H])([H])C([H])([H])C2([H])N([H])C(=O)C1([H])N(C(=O)C([H])(N([H])C(=O)C([H])(N([H])C([H])([H])[H])C([H])([H])[H])C(C([H])([H])[H])(C([H])([H])[H])C([H])([H])[H])C([H])([H])c2c([H])c(OC([H])([H])C(=O)C([H])(N([H])C(=O)N3C([H])([H])C([H])([H])C([H])([H])C([H])(n4nc(-c5c([H])c([H])c(Oc6c([H])c([H])c(F)c([H])c6F)c([H])c5[H])c(C(=O)N([H])[H])c4N([H])[H])C3([H])[H])C([H])([H])C([H])(C([H])([H])[H])C([H])([H])[H])c([H])c([H])c2C1([H])[H]

>  <smiles>  (12) 
[H]c1c([H])c([H])c2c(c1[H])C([H])([H])C([H])([H])C([H])([H])C2([H])N([H])C(=O)C1([H])N(C(=O)C([H])(N([H])C(=O)C([H])(N([H])C([H])([H])[H])C([H])([H])[H])C(C([H])([H])[H])(C([H])([H])[H])C([H])([H])[H])C([H])([H])c2c([H])c(OC([H])([H])C(=O)C([H])(N([H])C(=O)N3C([H])([H])C([H])([H])C([H])([H])C([H])(n4nc(-c5c([H])c([H])c(Oc6c([H])c([H])c(F)c([H])c6F)c([H])c5[H])c(C(=O)N([H])[H])c4N([H])[H])C3([H])[H])C([H])([H])C([H])(C([H])([H])[H])C([H])([H])[H])c([H])c([H])c2C1([H])[H]

$$$$
12:0:0
     RDKit          3D

104112  0  0  1  0  0  0  0  0999 V2000
  -30.0460  -19.8250   20.7240 C   0  0  0  0  0  2  0  0  0  0  0  0
  -30.1260  -21.1180   19.8290 C   0  0  0  0  0  2  0  0  0  0  0  0
  -29.9870  -22.4830   20.6170 C   0  0  0  0  0  3  0  0  0  0  0  0
  -29.8510  -23.6790   19.7230 N   0  0  0  0  0  4  0  0  0  0  0  0
  -30.6900  -24.2280   19.7990 H   0  0  0  0  0  0  0  0  0  0  0  0
  -29.8440  -23.3270   18.7770 H   0  0  0  0  0  0  0  0  0  0  0  0
  -28.6450  -24.5830   19.8350 C   0  0  0  0  0  2  0  0  0  0  0  0
  -28.6890  -25.6970   20.9330 C   0  0  0  0  0  2  0  0  0  0  0  0
  -28.7020  -27.0610   20.4320 O   0  0  0  0  0  0  0  0  0  0  0  0
  -24.7900  -32.1220   23.6350 C   0  0  0  0  0  0  0  0  0  0  0  0
  -27.5250  -27.7890   20.4640 C   0  0  0  0  0  0  0  0  0  0  0  0
  -23.6150  -30.7620   21.9380 C   0  0  0  0  0  3  0  0  0  0  0  0
  -25.1070  -29.2800   20.4860 C   0  0  0  0  0  0  0  0  0  0  0  0
  -26.1410  -31.1550   21.7750 C   0  0  0  0  0  2  0  0  0  0  0  0
  -26.2540  -29.8020   21.0980 C   0  0  0  0  0  0  0  0  0  0  0  0
  -27.4680  -29.0680   21.0740 C   0  0  0  0  0  3  0  0  0  0  0  0
  -26.3620  -27.2900   19.8370 C   0  0  0  0  0  3  0  0  0  0  0  0
  -25.1610  -28.0270   19.8490 C   0  0  0  0  0  3  0  0  0  0  0  0
  -23.8510  -30.1260   20.5420 C   0  0  0  0  0  2  0  0  0  0  0  0
  -24.8670  -31.3580   22.5080 N   0  0  0  0  0  0  0  0  0  0  0  0
  -23.6980  -32.3600   24.1720 O   0  0  0  0  0  0  0  0  0  0  0  0
  -22.9710  -29.7000   22.8590 C   0  0  0  0  0  0  0  0  0  0  0  0
  -21.6670  -29.4420   22.6560 N   0  0  0  0  0  0  0  0  0  0  0  0
  -23.6430  -29.1170   23.7110 O   0  0  0  0  0  0  0  0  0  0  0  0
  -21.1870  -29.9710   21.9390 H   0  0  0  0  0  0  0  0  0  0  0  0
  -18.3570  -28.0190   22.9180 C   0  0  0  0  0  0  0  0  0  0  0  0
  -20.8620  -28.4570   23.3790 C   0  0  0  0  0  3  0  0  0  0  0  0
  -21.1100  -27.0320   22.8330 C   0  0  0  0  0  2  0  0  0  0  0  0
  -20.1150  -26.6200   21.7470 C   0  0  0  0  0  2  0  0  0  0  0  0
  -18.6800  -26.6790   22.2800 C   0  0  0  0  0  2  0  0  0  0  0  0
  -19.3830  -28.8600   23.4210 C   0  0  0  0  0  0  0  0  0  0  0  0
  -19.0370  -30.1110   23.9740 C   0  0  0  0  0  3  0  0  0  0  0  0
  -17.6940  -30.5220   24.0410 C   0  0  0  0  0  3  0  0  0  0  0  0
  -16.6790  -29.6760   23.5600 C   0  0  0  0  0  3  0  0  0  0  0  0
  -17.0090  -28.4310   22.9980 C   0  0  0  0  0  3  0  0  0  0  0  0
  -26.0590  -32.7530   24.2860 C   0  0  0  0  0  3  0  0  0  0  0  0
  -25.7770  -34.1740   24.5200 N   0  0  0  0  0  0  0  0  0  0  0  0
  -26.1700  -35.1720   23.7190 C   0  0  0  0  0  0  0  0  0  0  0  0
  -26.8800  -34.9930   22.7250 O   0  0  0  0  0  0  0  0  0  0  0  0
  -25.1620  -34.3930   25.2930 H   0  0  0  0  0  0  0  0  0  0  0  0
  -24.5090  -36.9780   23.1960 C   0  0  0  0  0  1  0  0  0  0  0  0
  -25.7040  -36.5920   24.0780 C   0  0  0  0  0  3  0  0  0  0  0  0
  -27.8300  -37.4690   24.9390 C   0  0  0  0  0  1  0  0  0  0  0  0
  -26.7690  -37.6100   23.9490 N   0  0  0  0  0  0  0  0  0  0  0  0
  -26.3800  -38.5470   24.0340 H   0  0  0  0  0  0  0  0  0  0  0  0
  -26.4890  -32.0430   25.6290 C   0  0  1  0  0  0  0  0  0  0  0  0
  -25.3170  -31.8390   26.6180 C   0  0  0  0  0  1  0  0  0  0  0  0
  -27.1170  -30.6600   25.3320 C   0  0  0  0  0  1  0  0  0  0  0  0
  -27.5680  -32.8840   26.3480 C   0  0  0  0  0  1  0  0  0  0  0  0
  -31.2040  -22.6850   21.5700 C   0  0  0  0  0  2  0  0  0  0  0  0
  -30.8650  -22.4880   22.9700 N   0  0  0  0  0  0  0  0  0  0  0  0
  -29.9270  -22.8240   23.1700 H   0  0  0  0  0  0  0  0  0  0  0  0
  -30.8260  -21.4930   23.1740 H   0  0  0  0  0  0  0  0  0  0  0  0
  -30.3520  -18.3880   20.1250 C   0  0  0  0  0  3  0  0  0  0  0  0
  -31.2830  -17.5930   21.1060 C   0  0  0  0  0  2  0  0  0  0  0  0
  -31.6500  -13.2350   21.9270 C   0  0  0  0  0  2  0  0  0  0  0  0
  -32.6030  -13.9060   20.9270 C   0  0  0  0  0  2  0  0  0  0  0  0
  -30.2450  -13.8580   21.8720 C   0  0  0  0  0  2  0  0  0  0  0  0
  -32.6260  -15.4310   21.1200 C   0  0  0  0  0  2  0  0  0  0  0  0
  -30.2790  -15.3900   22.0130 C   0  0  0  0  0  2  0  0  0  0  0  0
  -31.2190  -16.0490   20.9810 C   0  0  0  0  0  3  0  0  0  0  0  0
  -29.1410  -17.5240   19.5450 C   0  0  0  0  0  3  0  0  0  0  0  0
  -30.0270  -15.1120   19.2360 C   0  0  0  0  0  0  0  0  0  0  0  0
  -29.7360  -12.9520   18.0820 C   0  0  0  0  0  2  0  0  0  0  0  0
  -28.5460  -13.1100   17.1110 C   0  0  0  0  0  2  0  0  0  0  0  0
  -27.2120  -12.8110   17.8250 C   0  0  0  0  0  2  0  0  0  0  0  0
  -27.0800  -13.5450   19.1860 C   0  0  0  0  0  3  0  0  0  0  0  0
  -28.3650  -13.3940   20.0350 C   0  0  0  0  0  2  0  0  0  0  0  0
  -29.5010  -13.8550   19.2200 N   0  0  0  0  0  0  0  0  0  0  0  0
  -31.0480  -15.4160   18.6140 O   0  0  0  0  0  0  0  0  0  0  0  0
  -29.2200  -16.0530   19.7810 N   0  0  0  0  0  0  0  0  0  0  0  0
  -28.4230  -15.6670   20.2580 H   0  0  0  0  0  0  0  0  0  0  0  0
  -24.8560  -13.9010   20.4260 C   0  0  0  0  0  0  0  0  0  0  0  0
  -23.9480  -13.0180   20.9430 C   0  0  0  0  0  0  0  0  0  0  0  0
  -24.4820  -11.7150   20.7040 C   0  0  0  0  0  0  0  0  0  0  0  0
  -25.8850  -13.1260   19.9110 N   0  0  0  0  0  0  0  0  0  0  0  0
  -25.6760  -11.8050   20.1330 N   0  0  0  0  0  0  0  0  0  0  0  0
  -23.9010  -10.3870   20.9350 C   0  0  0  0  0  0  0  0  0  0  0  0
  -24.4250   -9.5150   21.9130 C   0  0  0  0  0  3  0  0  0  0  0  0
  -23.8380   -8.2490   22.1320 C   0  0  0  0  0  3  0  0  0  0  0  0
  -22.7150   -7.8480   21.3710 C   0  0  0  0  0  0  0  0  0  0  0  0
  -22.2100   -8.7120   20.3840 C   0  0  0  0  0  3  0  0  0  0  0  0
  -22.7990   -9.9690   20.1640 C   0  0  0  0  0  3  0  0  0  0  0  0
  -22.0930   -6.6280   21.4950 O   0  0  0  0  0  0  0  0  0  0  0  0
  -21.9390   -6.0220   22.7160 C   0  0  0  0  0  0  0  0  0  0  0  0
  -21.2460   -6.6450   23.7750 C   0  0  0  0  0  3  0  0  0  0  0  0
  -21.0530   -5.9580   24.9910 C   0  0  0  0  0  3  0  0  0  0  0  0
  -21.5410   -4.6470   25.1420 C   0  0  0  0  0  0  0  0  0  0  0  0
  -22.2250   -4.0210   24.0860 C   0  0  0  0  0  3  0  0  0  0  0  0
  -22.4210   -4.7080   22.8760 C   0  0  0  0  0  0  0  0  0  0  0  0
  -23.0650   -4.0940   21.8530 F   0  0  0  0  0  0  0  0  0  0  0  0
  -21.3480   -3.9820   26.3050 F   0  0  0  0  0  0  0  0  0  0  0  0
  -22.6110  -13.3570   21.5380 C   0  0  0  0  0  0  0  0  0  0  0  0
  -22.1760  -12.5960   22.5360 N   0  0  0  0  0  0  0  0  0  0  0  0
  -21.9700  -14.3340   21.1540 O   0  0  0  0  0  0  0  0  0  0  0  0
  -22.7130  -11.8060   22.8620 H   0  0  0  0  0  0  0  0  0  0  0  0
  -21.2910  -12.8070   22.9790 H   0  0  0  0  0  0  0  0  0  0  0  0
  -24.8800  -15.2890   20.3350 N   0  0  0  0  0  0  0  0  0  0  0  0
  -24.0980  -15.8500   20.6560 H   0  0  0  0  0  0  0  0  0  0  0  0
  -25.5860  -15.8300   19.8520 H   0  0  0  0  0  0  0  0  0  0  0  0
  -27.7560  -18.0270   20.0380 C   0  0  0  0  0  2  0  0  0  0  0  0
  -25.4040  -18.8520   19.6370 C   0  0  0  0  0  1  0  0  0  0  0  0
  -27.1380  -19.1120   17.8020 C   0  0  0  0  0  1  0  0  0  0  0  0
  -26.6550  -18.2460   18.9770 C   0  0  0  0  0  3  0  0  0  0  0  0
  2  1  1  0
  3  2  1  0
  3 50  1  0
  4  5  1  0
  4  7  1  0
  4  3  1  0
  6  4  1  0
  7  8  1  0
  9 11  1  0
  9  8  1  0
 10 21  2  0
 11 16  1  0
 12 20  1  0
 12 22  1  0
 13 19  1  0
 13 15  1  0
 14 20  1  0
 15 14  1  0
 16 15  2  0
 17 18  1  0
 17 11  2  0
 18 13  2  0
 19 12  1  0
 20 10  1  0
 22 24  2  0
 23 22  1  0
 25 23  1  0
 26 35  2  0
 26 31  1  0
 27 23  1  0
 27 31  1  0
 28 27  1  0
 29 30  1  0
 29 28  1  0
 30 26  1  0
 31 32  2  0
 32 33  1  0
 34 33  2  0
 35 34  1  0
 36 10  1  0
 36 37  1  0
 36 46  1  0
 37 40  1  0
 38 42  1  0
 38 37  1  0
 39 38  2  0
 42 41  1  0
 44 45  1  0
 44 42  1  0
 44 43  1  0
 46 49  1  1
 46 47  1  0
 48 46  1  0
 50 51  1  0
 51 52  1  0
 51 53  1  0
 54  1  1  0
 54 55  1  0
 57 59  1  0
 57 56  1  0
 58 56  1  0
 58 60  1  0
 61 55  1  0
 61 59  1  0
 61 60  1  0
 62 71  1  0
 62101  1  0
 62 54  1  0
 63 71  1  0
 64 69  1  0
 65 66  1  0
 65 64  1  0
 67 66  1  0
 67 76  1  0
 67 68  1  0
 69 63  1  0
 69 68  1  0
 70 63  2  0
 71 72  1  0
 73 74  2  0
 74 93  1  0
 75 78  1  0
 75 74  1  0
 76 77  1  0
 76 73  1  0
 77 75  2  0
 78 79  1  0
 79 80  2  0
 81 84  1  0
 81 80  1  0
 82 81  2  0
 83 82  1  0
 83 78  2  0
 84 85  1  0
 85 90  2  0
 85 86  1  0
 86 87  2  0
 87 88  1  0
 88 92  1  0
 89 88  2  0
 90 89  1  0
 91 90  1  0
 93 94  1  0
 94 96  1  0
 94 97  1  0
 95 93  2  0
 98 73  1  0
 98 99  1  0
100 98  1  0
103104  1  0
104102  1  0
104101  1  0
M  ISO  4   8 101   9 101  63 100  71 100
M  END
>  <TORSDO>  (13) 
F 29

>  <SCORE>  (13) 
-6.713

>  <name>  (13) 
12

>  <ligand_id>  (13) 
12

>  <original_smiles>  (13) 
[H]c1c([H])c([H])c2c(c1[H])C([H])([H])C([H])([H])C([H])([H])C2([H])N([H])C(=O)C1([H])N(C(=O)C([H])(N([H])C(=O)C([H])(N([H])C([H])([H])[H])C([H])([H])[H])C(C([H])([H])[H])(C([H])([H])[H])C([H])([H])[H])C([H])([H])c2c([H])c(OC([H])([H])C([H])([H])[N+]([H])([H])C([H])(C([H])([H])N([H])[H])C([H])([H])C([H])([H])C([H])(C([H])([H])C3([H])C([H])([H])C([H])([H])C([H])([H])C([H])([H])C3([H])[H])C([H])(N([H])C(=O)N3C([H])([H])C([H])([H])C([H])([H])C([H])(n4nc(-c5c([H])c([H])c(Oc6c([H])c([H])c(F)c([H])c6F)c([H])c5[H])c(C(=O)N([H])[H])c4N([H])[H])C3([H])[H])C([H])([H])C([H])(C([H])([H])[H])C([H])([H])[H])c([H])c([H])c2C1([H])[H]

>  <smiles>  (13) 
[H]c1c([H])c([H])c2c(c1[H])C([H])([H])C([H])([H])C([H])([H])C2([H])N([H])C(=O)C1([H])N(C(=O)C([H])(N([H])C(=O)C([H])(N([H])C([H])([H])[H])C([H])([H])[H])C(C([H])([H])[H])(C([H])([H])[H])C([H])([H])[H])C([H])([H])c2c([H])c(OC([H])([H])C([H])([H])[N+]([H])([H])C([H])(C([H])([H])N([H])[H])C([H])([H])C([H])([H])C([H])(C([H])([H])C3([H])C([H])([H])C([H])([H])C([H])([H])C([H])([H])C3([H])[H])C([H])(N([H])C(=O)N3C([H])([H])C([H])([H])C([H])([H])C([H])(n4nc(-c5c([H])c([H])c(Oc6c([H])c([H])c(F)c([H])c6F)c([H])c5[H])c(C(=O)N([H])[H])c4N([H])[H])C3([H])[H])C([H])([H])C([H])(C([H])([H])[H])C([H])([H])[H])c([H])c([H])c2C1([H])[H]

$$$$
13:0:0
     RDKit          3D

 93101  0  0  1  0  0  0  0  0999 V2000
  -29.5680  -18.1950   20.4230 C   0  0  0  0  0  0  0  0  0  0  0  0
  -28.7660  -22.1920   21.0620 C   0  0  0  0  0  3  0  0  0  0  0  0
  -29.1550  -22.0370   18.7250 C   0  0  0  0  0  3  0  0  0  0  0  0
  -28.5930  -20.5620   21.1140 C   0  0  0  0  0  2  0  0  0  0  0  0
  -29.1620  -20.3770   18.8170 C   0  0  0  0  0  3  0  0  0  0  0  0
  -28.3260  -22.9540   19.7480 C   0  0  0  0  0  0  0  0  0  0  0  0
  -29.2730  -19.6090   20.1260 N   0  0  0  0  0  0  0  0  0  0  0  0
  -29.1460  -17.7660   21.5000 O   0  0  0  0  0  0  0  0  0  0  0  0
  -27.8190  -24.6330   19.5270 C   0  0  0  0  0  2  0  0  0  0  0  0
  -28.1620  -26.1540   19.9040 O   0  0  0  0  0  0  0  0  0  0  0  0
  -24.6040  -31.8860   23.1510 C   0  0  0  0  0  0  0  0  0  0  0  0
  -27.1530  -27.2260   19.8800 C   0  0  0  0  0  0  0  0  0  0  0  0
  -23.3970  -30.5370   21.4860 C   0  0  0  0  0  3  0  0  0  0  0  0
  -24.8360  -29.0300   19.9690 C   0  0  0  0  0  0  0  0  0  0  0  0
  -25.9550  -30.8010   21.3030 C   0  0  0  0  0  2  0  0  0  0  0  0
  -26.0260  -29.4290   20.5890 C   0  0  0  0  0  0  0  0  0  0  0  0
  -27.1820  -28.5430   20.5330 C   0  0  0  0  0  3  0  0  0  0  0  0
  -25.9400  -26.9790   19.1990 C   0  0  0  0  0  3  0  0  0  0  0  0
  -24.8120  -27.8250   19.2570 C   0  0  0  0  0  3  0  0  0  0  0  0
  -23.6050  -29.9230   20.0780 C   0  0  0  0  0  2  0  0  0  0  0  0
  -24.6740  -31.0970   22.0340 N   0  0  0  0  0  0  0  0  0  0  0  0
  -23.5210  -32.1390   23.7030 O   0  0  0  0  0  0  0  0  0  0  0  0
  -22.7430  -29.4850   22.4200 C   0  0  0  0  0  0  0  0  0  0  0  0
  -21.4200  -29.2790   22.2900 N   0  0  0  0  0  0  0  0  0  0  0  0
  -23.4310  -28.8580   23.2290 O   0  0  0  0  0  0  0  0  0  0  0  0
  -20.9150  -29.8360   21.6130 H   0  0  0  0  0  0  0  0  0  0  0  0
  -18.0800  -27.9480   22.7490 C   0  0  0  0  0  0  0  0  0  0  0  0
  -20.6260  -28.2990   23.0380 C   0  0  0  0  0  3  0  0  0  0  0  0
  -20.7820  -26.8810   22.4390 C   0  0  0  0  0  2  0  0  0  0  0  0
  -19.7010  -26.5390   21.4100 C   0  0  0  0  0  2  0  0  0  0  0  0
  -18.3110  -26.6200   22.0460 C   0  0  0  0  0  2  0  0  0  0  0  0
  -19.1660  -28.7430   23.2000 C   0  0  0  0  0  0  0  0  0  0  0  0
  -18.8950  -29.9830   23.8190 C   0  0  0  0  0  3  0  0  0  0  0  0
  -17.5700  -30.4300   23.9850 C   0  0  0  0  0  3  0  0  0  0  0  0
  -16.4990  -29.6330   23.5480 C   0  0  0  0  0  3  0  0  0  0  0  0
  -16.7530  -28.3920   22.9380 C   0  0  0  0  0  3  0  0  0  0  0  0
  -25.8800  -32.5190   23.7800 C   0  0  0  0  0  3  0  0  0  0  0  0
  -25.5680  -33.9150   24.1250 N   0  0  0  0  0  0  0  0  0  0  0  0
  -25.8970  -34.9810   23.3830 C   0  0  0  0  0  0  0  0  0  0  0  0
  -26.5650  -34.8910   22.3500 O   0  0  0  0  0  0  0  0  0  0  0  0
  -24.9750  -34.0580   24.9300 H   0  0  0  0  0  0  0  0  0  0  0  0
  -24.1810  -36.7910   23.0500 C   0  0  0  0  0  1  0  0  0  0  0  0
  -25.4140  -36.3650   23.8610 C   0  0  0  0  0  3  0  0  0  0  0  0
  -27.5380  -37.2370   24.7350 C   0  0  0  0  0  1  0  0  0  0  0  0
  -26.4520  -37.4150   23.7750 N   0  0  0  0  0  0  0  0  0  0  0  0
  -26.0490  -38.3370   23.9210 H   0  0  0  0  0  0  0  0  0  0  0  0
  -26.3920  -31.7420   25.0560 C   0  0  1  0  0  0  0  0  0  0  0  0
  -25.2960  -31.5050   26.1210 C   0  0  0  0  0  1  0  0  0  0  0  0
  -26.9690  -30.3620   24.6690 C   0  0  0  0  0  1  0  0  0  0  0  0
  -27.5470  -32.5280   25.7190 C   0  0  0  0  0  1  0  0  0  0  0  0
  -30.5010  -17.0710   19.5810 C   0  0  0  0  0  3  0  0  0  0  0  0
  -30.7680  -15.3640   19.8980 C   0  0  0  0  0  0  0  0  0  0  0  0
  -30.4920  -12.9620   19.0510 C   0  0  0  0  0  2  0  0  0  0  0  0
  -29.5190  -12.7430   17.8770 C   0  0  0  0  0  2  0  0  0  0  0  0
  -28.1070  -12.4760   18.4150 C   0  0  0  0  0  2  0  0  0  0  0  0
  -27.7060  -13.4820   19.5240 C   0  0  0  0  0  3  0  0  0  0  0  0
  -28.8180  -13.7370   20.5660 C   0  0  0  0  0  2  0  0  0  0  0  0
  -30.0190  -14.1640   19.8320 N   0  0  0  0  0  0  0  0  0  0  0  0
  -31.9660  -15.0690   19.8610 O   0  0  0  0  0  0  0  0  0  0  0  0
  -25.4050  -14.0110   20.4830 C   0  0  0  0  0  0  0  0  0  0  0  0
  -24.3610  -13.2180   20.8820 C   0  0  0  0  0  0  0  0  0  0  0  0
  -24.8220  -11.8710   20.7720 C   0  0  0  0  0  0  0  0  0  0  0  0
  -26.4230  -13.1450   20.1300 N   0  0  0  0  0  0  0  0  0  0  0  0
  -26.0920  -11.8490   20.3770 N   0  0  0  0  0  0  0  0  0  0  0  0
  -24.1050  -10.6010   20.9590 C   0  0  0  0  0  0  0  0  0  0  0  0
  -24.5470   -9.6300   21.8860 C   0  0  0  0  0  3  0  0  0  0  0  0
  -23.8250   -8.4300   22.0660 C   0  0  0  0  0  3  0  0  0  0  0  0
  -22.6460   -8.1920   21.3190 C   0  0  0  0  0  0  0  0  0  0  0  0
  -22.2200   -9.1530   20.3840 C   0  0  0  0  0  3  0  0  0  0  0  0
  -22.9450  -10.3430   20.2000 C   0  0  0  0  0  3  0  0  0  0  0  0
  -21.8960   -7.0440   21.4090 O   0  0  0  0  0  0  0  0  0  0  0  0
  -21.7970   -6.3370   22.5800 C   0  0  0  0  0  0  0  0  0  0  0  0
  -21.2560   -6.9080   23.7520 C   0  0  0  0  0  3  0  0  0  0  0  0
  -21.1050   -6.1240   24.9130 C   0  0  0  0  0  3  0  0  0  0  0  0
  -21.4920   -4.7700   24.9040 C   0  0  0  0  0  0  0  0  0  0  0  0
  -22.0320   -4.1990   23.7380 C   0  0  0  0  0  3  0  0  0  0  0  0
  -22.1810   -4.9810   22.5780 C   0  0  0  0  0  0  0  0  0  0  0  0
  -22.6790   -4.4180   21.4510 F   0  0  0  0  0  0  0  0  0  0  0  0
  -21.3440   -4.0150   26.0180 F   0  0  0  0  0  0  0  0  0  0  0  0
  -22.9830  -13.6860   21.2460 C   0  0  0  0  0  0  0  0  0  0  0  0
  -22.3090  -12.9690   22.1390 N   0  0  0  0  0  0  0  0  0  0  0  0
  -22.5140  -14.7200   20.7770 O   0  0  0  0  0  0  0  0  0  0  0  0
  -22.7010  -12.1300   22.5390 H   0  0  0  0  0  0  0  0  0  0  0  0
  -21.3860  -13.2640   22.4250 H   0  0  0  0  0  0  0  0  0  0  0  0
  -25.5720  -15.3860   20.3670 N   0  0  0  0  0  0  0  0  0  0  0  0
  -24.8750  -16.0450   20.6930 H   0  0  0  0  0  0  0  0  0  0  0  0
  -26.4470  -15.8270   20.1120 H   0  0  0  0  0  0  0  0  0  0  0  0
  -31.9850  -17.6660   19.5970 C   0  0  0  0  0  3  0  0  0  0  0  0
  -32.3960  -19.0420   18.9940 C   0  0  0  0  0  3  0  0  0  0  0  0
  -34.8950  -18.4300   18.8540 C   0  0  0  0  0  1  0  0  0  0  0  0
  -34.0730  -19.8110   20.7800 C   0  0  0  0  0  1  0  0  0  0  0  0
  -34.1520  -20.7820   18.4860 C   0  0  0  0  0  1  0  0  0  0  0  0
  -33.8640  -19.4940   19.2840 C   0  0  2  0  0  0  0  0  0  0  0  0
  1  8  2  0
  2  4  1  0
  3  5  2  0
  3  6  1  0
  5  7  1  0
  6  2  2  0
  7  1  1  0
  7  4  1  0
  9  6  1  0
  9 10  1  0
 11 22  2  0
 12 10  1  0
 12 17  1  0
 13 21  1  0
 13 23  1  0
 14 20  1  0
 14 16  1  0
 15 21  1  0
 16 15  1  0
 17 16  2  0
 18 19  1  0
 18 12  2  0
 19 14  2  0
 20 13  1  0
 21 11  1  0
 23 25  2  0
 24 23  1  0
 26 24  1  0
 27 36  2  0
 27 32  1  0
 28 24  1  0
 28 32  1  0
 29 28  1  0
 30 31  1  0
 30 29  1  0
 31 27  1  0
 32 33  2  0
 33 34  1  0
 35 34  2  0
 36 35  1  0
 37 11  1  0
 37 38  1  0
 37 47  1  0
 38 41  1  0
 39 43  1  0
 39 38  1  0
 40 39  2  0
 43 42  1  0
 45 43  1  0
 45 46  1  0
 45 44  1  0
 47 50  1  1
 47 48  1  0
 49 47  1  0
 51 88  1  0
 51 52  1  0
 51  1  1  0
 53 58  1  0
 54 55  1  0
 54 53  1  0
 56 55  1  0
 56 63  1  0
 56 57  1  0
 58 52  1  0
 58 57  1  0
 59 52  2  0
 60 61  2  0
 61 80  1  0
 62 61  1  0
 62 65  1  0
 63 64  1  0
 63 60  1  0
 64 62  2  0
 65 66  1  0
 66 67  2  0
 68 71  1  0
 68 67  1  0
 69 68  2  0
 70 69  1  0
 70 65  2  0
 71 72  1  0
 72 73  1  0
 73 74  2  0
 75 74  1  0
 75 79  1  0
 76 75  2  0
 77 72  2  0
 77 76  1  0
 78 77  1  0
 80 81  1  0
 81 84  1  0
 81 83  1  0
 82 80  2  0
 85 60  1  0
 85 86  1  0
 87 85  1  0
 89 93  1  0
 89 88  2  0
 93 90  1  6
 92 93  1  0
 93 91  1  0
M  ISO  4   9 101  10 101  51 100  52 100
M  END
>  <TORSDO>  (14) 
F 21

>  <SCORE>  (14) 
-14.245

>  <name>  (14) 
13

>  <ligand_id>  (14) 
13

>  <original_smiles>  (14) 
[H]c1c([H])c([H])c2c(c1[H])C([H])([H])C([H])([H])C([H])([H])C2([H])N([H])C(=O)C1([H])N(C(=O)C([H])(N([H])C(=O)C([H])(N([H])C([H])([H])[H])C([H])([H])[H])C(C([H])([H])[H])(C([H])([H])[H])C([H])([H])[H])C([H])([H])c2c([H])c(OC([H])([H])C3([H])C([H])([H])C([H])([H])N(C(=O)C([H])(C(=O)N4C([H])([H])C([H])([H])C([H])([H])C([H])(n5nc(-c6c([H])c([H])c(Oc7c([H])c([H])c(F)c([H])c7F)c([H])c6[H])c(C(=O)N([H])[H])c5N([H])[H])C4([H])[H])C([H])([H])C([H])([H])C(C([H])([H])[H])(C([H])([H])[H])C([H])([H])[H])C([H])([H])C3([H])[H])c([H])c([H])c2C1([H])[H]

>  <smiles>  (14) 
[H]c1c([H])c([H])c2c(c1[H])C([H])([H])C([H])([H])C([H])([H])C2([H])N([H])C(=O)C1([H])N(C(=O)C([H])(N([H])C(=O)C([H])(N([H])C([H])([H])[H])C([H])([H])[H])C(C([H])([H])[H])(C([H])([H])[H])C([H])([H])[H])C([H])([H])c2c([H])c(OC([H])([H])C3([H])C([H])([H])C([H])([H])N(C(=O)C([H])(C(=O)N4C([H])([H])C([H])([H])C([H])([H])C([H])(n5nc(-c6c([H])c([H])c(Oc7c([H])c([H])c(F)c([H])c7F)c([H])c6[H])c(C(=O)N([H])[H])c5N([H])[H])C4([H])[H])C([H])([H])C([H])([H])C(C([H])([H])[H])(C([H])([H])[H])C([H])([H])[H])C([H])([H])C3([H])[H])c([H])c([H])c2C1([H])[H]

$$$$
14:0:0
     RDKit          3D

 97105  0  0  1  0  0  0  0  0999 V2000
  -30.1160  -20.2570   20.5990 C   0  0  0  0  0  3  0  0  0  0  0  0
  -29.0220  -21.6960   20.6980 C   0  0  0  0  0  2  0  0  0  0  0  0
  -29.2850  -23.4260   20.7810 C   0  0  0  0  0  0  0  0  0  0  0  0
  -30.4350  -23.7670   21.0720 O   0  0  0  0  0  0  0  0  0  0  0  0
  -28.1850  -24.7540   20.5240 C   0  0  0  0  0  2  0  0  0  0  0  0
  -28.4980  -26.3650   20.5140 O   0  0  0  0  0  0  0  0  0  0  0  0
  -24.9990  -32.3030   23.5800 C   0  0  0  0  0  0  0  0  0  0  0  0
  -27.4840  -27.4520   20.4780 C   0  0  0  0  0  0  0  0  0  0  0  0
  -23.7650  -30.9000   21.9770 C   0  0  0  0  0  3  0  0  0  0  0  0
  -25.1780  -29.3080   20.5110 C   0  0  0  0  0  0  0  0  0  0  0  0
  -26.3250  -31.1290   21.7560 C   0  0  0  0  0  2  0  0  0  0  0  0
  -26.3820  -29.7210   21.0940 C   0  0  0  0  0  0  0  0  0  0  0  0
  -27.5290  -28.8130   21.0530 C   0  0  0  0  0  3  0  0  0  0  0  0
  -26.2470  -27.1860   19.8480 C   0  0  0  0  0  3  0  0  0  0  0  0
  -25.1340  -28.0620   19.8690 C   0  0  0  0  0  3  0  0  0  0  0  0
  -23.9570  -30.2210   20.5950 C   0  0  0  0  0  2  0  0  0  0  0  0
  -25.0530  -31.4700   22.4910 N   0  0  0  0  0  0  0  0  0  0  0  0
  -23.9230  -32.5910   24.1290 O   0  0  0  0  0  0  0  0  0  0  0  0
  -23.1040  -29.9020   22.9630 C   0  0  0  0  0  0  0  0  0  0  0  0
  -21.8250  -29.5530   22.7270 N   0  0  0  0  0  0  0  0  0  0  0  0
  -23.7500  -29.4410   23.9080 O   0  0  0  0  0  0  0  0  0  0  0  0
  -21.3560  -29.9780   21.9410 H   0  0  0  0  0  0  0  0  0  0  0  0
  -18.6280  -27.8470   22.9300 C   0  0  0  0  0  0  0  0  0  0  0  0
  -21.0430  -28.5790   23.5000 C   0  0  0  0  0  3  0  0  0  0  0  0
  -21.4520  -27.1310   23.1420 C   0  0  0  0  0  2  0  0  0  0  0  0
  -20.5840  -26.5120   22.0420 C   0  0  0  0  0  2  0  0  0  0  0  0
  -19.1140  -26.4830   22.4700 C   0  0  0  0  0  2  0  0  0  0  0  0
  -19.5330  -28.8370   23.3970 C   0  0  0  0  0  0  0  0  0  0  0  0
  -19.0280  -30.0960   23.7830 C   0  0  0  0  0  3  0  0  0  0  0  0
  -17.6500  -30.3760   23.7070 C   0  0  0  0  0  3  0  0  0  0  0  0
  -16.7580  -29.3870   23.2560 C   0  0  0  0  0  3  0  0  0  0  0  0
  -17.2460  -28.1260   22.8740 C   0  0  0  0  0  3  0  0  0  0  0  0
  -26.2850  -32.9490   24.1790 C   0  0  0  0  0  3  0  0  0  0  0  0
  -25.9660  -34.3420   24.5390 N   0  0  0  0  0  0  0  0  0  0  0  0
  -26.2760  -35.4170   23.8020 C   0  0  0  0  0  0  0  0  0  0  0  0
  -26.9240  -35.3390   22.7540 O   0  0  0  0  0  0  0  0  0  0  0  0
  -25.3870  -34.4720   25.3570 H   0  0  0  0  0  0  0  0  0  0  0  0
  -24.5420  -37.2180   23.5150 C   0  0  0  0  0  1  0  0  0  0  0  0
  -25.7940  -36.7940   24.3010 C   0  0  0  0  0  3  0  0  0  0  0  0
  -27.9440  -37.6580   25.1170 C   0  0  0  0  0  1  0  0  0  0  0  0
  -26.8250  -37.8510   24.1990 N   0  0  0  0  0  0  0  0  0  0  0  0
  -26.4220  -38.7680   24.3750 H   0  0  0  0  0  0  0  0  0  0  0  0
  -26.8360  -32.1730   25.4380 C   0  0  1  0  0  0  0  0  0  0  0  0
  -25.7440  -31.7960   26.4680 C   0  0  0  0  0  1  0  0  0  0  0  0
  -27.5430  -30.8660   25.0140 C   0  0  0  0  0  1  0  0  0  0  0  0
  -27.9030  -33.0330   26.1550 C   0  0  0  0  0  1  0  0  0  0  0  0
  -31.2740  -20.8330   19.7210 C   0  0  0  0  0  2  0  0  0  0  0  0
  -35.2710  -19.1880   18.7120 C   0  0  0  0  0  2  0  0  0  0  0  0
  -34.4250  -19.8350   17.6040 C   0  0  0  0  0  2  0  0  0  0  0  0
  -34.3860  -18.4260   19.7110 C   0  0  0  0  0  2  0  0  0  0  0  0
  -33.3080  -20.7160   18.1960 C   0  0  0  0  0  2  0  0  0  0  0  0
  -33.2720  -19.3170   20.2850 C   0  0  0  0  0  2  0  0  0  0  0  0
  -32.4040  -19.9270   19.1710 C   0  0  0  0  0  3  0  0  0  0  0  0
  -29.7840  -18.5700   20.0480 C   0  0  0  0  0  0  0  0  0  0  0  0
  -30.7950  -15.8020   20.5120 C   0  0  0  0  0  0  0  0  0  0  0  0
  -30.8530  -13.3580   19.6570 C   0  0  0  0  0  2  0  0  0  0  0  0
  -30.0020  -13.1850   18.3720 C   0  0  0  0  0  2  0  0  0  0  0  0
  -28.5300  -12.9060   18.7270 C   0  0  0  0  0  2  0  0  0  0  0  0
  -28.0200  -13.8140   19.8750 C   0  0  0  0  0  3  0  0  0  0  0  0
  -29.0140  -13.9520   21.0480 C   0  0  0  0  0  2  0  0  0  0  0  0
  -30.2690  -14.4770   20.4850 N   0  0  0  0  0  0  0  0  0  0  0  0
  -31.9990  -15.8460   20.2350 O   0  0  0  0  0  0  0  0  0  0  0  0
  -29.9900  -17.0290   20.6750 N   0  0  0  0  0  4  0  0  0  0  0  0
  -29.1190  -16.7490   21.0990 H   0  0  0  0  0  0  0  0  0  0  0  0
  -25.5960  -14.3120   20.4920 C   0  0  0  0  0  0  0  0  0  0  0  0
  -24.5330  -13.5100   20.8040 C   0  0  0  0  0  0  0  0  0  0  0  0
  -25.0370  -12.1700   20.7950 C   0  0  0  0  0  0  0  0  0  0  0  0
  -26.6740  -13.4640   20.3070 N   0  0  0  0  0  0  0  0  0  0  0  0
  -26.3450  -12.1700   20.5570 N   0  0  0  0  0  0  0  0  0  0  0  0
  -24.3340  -10.8910   20.9400 C   0  0  0  0  0  0  0  0  0  0  0  0
  -24.7060   -9.9550   21.9300 C   0  0  0  0  0  3  0  0  0  0  0  0
  -24.0000   -8.7410   22.0680 C   0  0  0  0  0  3  0  0  0  0  0  0
  -22.9080   -8.4560   21.2150 C   0  0  0  0  0  0  0  0  0  0  0  0
  -22.5540   -9.3800   20.2170 C   0  0  0  0  0  3  0  0  0  0  0  0
  -23.2610  -10.5850   20.0780 C   0  0  0  0  0  3  0  0  0  0  0  0
  -22.1780   -7.2930   21.2600 O   0  0  0  0  0  0  0  0  0  0  0  0
  -21.9800   -6.6110   22.4320 C   0  0  0  0  0  0  0  0  0  0  0  0
  -21.3300   -7.2020   23.5380 C   0  0  0  0  0  3  0  0  0  0  0  0
  -21.0860   -6.4410   24.6990 C   0  0  0  0  0  3  0  0  0  0  0  0
  -21.4790   -5.0920   24.7530 C   0  0  0  0  0  0  0  0  0  0  0  0
  -22.1180   -4.5000   23.6500 C   0  0  0  0  0  3  0  0  0  0  0  0
  -22.3650   -5.2550   22.4910 C   0  0  0  0  0  0  0  0  0  0  0  0
  -22.9640   -4.6730   21.4240 F   0  0  0  0  0  0  0  0  0  0  0  0
  -21.2400   -4.3600   25.8670 F   0  0  0  0  0  0  0  0  0  0  0  0
  -23.1140  -13.9500   20.9970 C   0  0  0  0  0  0  0  0  0  0  0  0
  -22.3700  -13.2640   21.8580 N   0  0  0  0  0  0  0  0  0  0  0  0
  -22.6680  -14.9420   20.4200 O   0  0  0  0  0  0  0  0  0  0  0  0
  -22.7420  -12.4640   22.3480 H   0  0  0  0  0  0  0  0  0  0  0  0
  -21.4150  -13.5410   22.0300 H   0  0  0  0  0  0  0  0  0  0  0  0
  -25.7290  -15.6870   20.3230 N   0  0  0  0  0  0  0  0  0  0  0  0
  -24.9350  -16.3120   20.4030 H   0  0  0  0  0  0  0  0  0  0  0  0
  -26.5730  -16.1450   20.0060 H   0  0  0  0  0  0  0  0  0  0  0  0
  -28.3350  -18.6130   19.4830 C   0  0  0  0  0  2  0  0  0  0  0  0
  -29.0230  -20.2660   17.6230 C   0  0  0  0  0  1  0  0  0  0  0  0
  -26.6680  -19.5250   17.8330 C   0  0  0  0  0  1  0  0  0  0  0  0
  -28.3910  -17.9080   17.0380 C   0  0  0  0  0  1  0  0  0  0  0  0
  -28.1310  -19.0700   18.0090 C   0  0  2  0  0  0  0  0  0  0  0  0
  1 47  1  0
  1  2  1  0
  2  3  1  0
  3  4  2  0
  5  3  1  0
  6  5  1  0
  7 18  2  0
  8  6  1  0
  8 13  1  0
  9 17  1  0
  9 19  1  0
 10 16  1  0
 10 12  1  0
 11 17  1  0
 12 11  1  0
 13 12  2  0
 14 15  1  0
 14  8  2  0
 15 10  2  0
 16  9  1  0
 17  7  1  0
 19 21  2  0
 20 19  1  0
 22 20  1  0
 23 28  1  0
 24 20  1  0
 25 24  1  0
 26 27  1  0
 26 25  1  0
 27 23  1  0
 28 24  1  0
 28 29  2  0
 30 29  1  0
 31 30  2  0
 32 23  2  0
 32 31  1  0
 33  7  1  0
 33 34  1  0
 33 43  1  0
 34 37  1  0
 35 39  1  0
 35 34  1  0
 36 35  2  0
 39 38  1  0
 41 39  1  0
 41 42  1  0
 41 40  1  0
 43 46  1  1
 43 44  1  0
 45 43  1  0
 48 50  1  0
 49 51  1  0
 49 48  1  0
 50 52  1  0
 51 53  1  0
 53 47  1  0
 53 52  1  0
 54  1  1  0
 54 63  2  3
 55 63  1  0
 56 61  1  0
 57 58  1  0
 57 56  1  0
 59 58  1  0
 59 68  1  0
 59 60  1  0
 61 55  1  0
 61 60  1  0
 62 55  2  0
 63 64  1  0
 65 66  2  0
 66 85  1  0
 67 66  1  0
 67 70  1  0
 68 65  1  0
 68 69  1  0
 69 67  2  0
 70 71  1  0
 71 72  2  0
 73 76  1  0
 73 72  1  0
 74 73  2  0
 75 74  1  0
 75 70  2  0
 76 77  1  0
 77 82  2  0
 77 78  1  0
 78 79  2  0
 79 80  1  0
 80 84  1  0
 81 80  2  0
 82 81  1  0
 83 82  1  0
 85 86  1  0
 86 89  1  0
 86 88  1  0
 87 85  2  0
 90 91  1  0
 90 65  1  0
 92 90  1  0
 93 54  1  0
 97 94  1  6
 95 97  1  0
 96 97  1  0
 97 93  1  0
M  ISO  4   5 101   6 101  55 100  63 100
M  END
>  <TORSDO>  (15) 
F 24

>  <SCORE>  (15) 
-13.161

>  <name>  (15) 
14

>  <ligand_id>  (15) 
14

>  <original_smiles>  (15) 
[H]c1c([H])c([H])c2c(c1[H])C([H])([H])C([H])([H])C([H])([H])C2([H])N([H])C(=O)C1([H])N(C(=O)C([H])(N([H])C(=O)C([H])(N([H])C([H])([H])[H])C([H])([H])[H])C(C([H])([H])[H])(C([H])([H])[H])C([H])([H])[H])C([H])([H])c2c([H])c(OC([H])([H])C(=O)C([H])([H])C([H])(C([H])([H])C3([H])C([H])([H])C([H])([H])C([H])([H])C([H])([H])C3([H])[H])C([H])(N([H])C(=O)N3C([H])([H])C([H])([H])C([H])([H])C([H])(n4nc(-c5c([H])c([H])c(Oc6c([H])c([H])c(F)c([H])c6F)c([H])c5[H])c(C(=O)N([H])[H])c4N([H])[H])C3([H])[H])C([H])([H])C(C([H])([H])[H])(C([H])([H])[H])C([H])([H])[H])c([H])c([H])c2C1([H])[H]

>  <smiles>  (15) 
[H]c1c([H])c([H])c2c(c1[H])C([H])([H])C([H])([H])C([H])([H])C2([H])N([H])C(=O)C1([H])N(C(=O)C([H])(N([H])C(=O)C([H])(N([H])C([H])([H])[H])C([H])([H])[H])C(C([H])([H])[H])(C([H])([H])[H])C([H])([H])[H])C([H])([H])c2c([H])c(OC([H])([H])C(=O)C([H])([H])C([H])(C([H])([H])C3([H])C([H])([H])C([H])([H])C([H])([H])C([H])([H])C3([H])[H])C([H])(N([H])C(=O)N3C([H])([H])C([H])([H])C([H])([H])C([H])(n4nc(-c5c([H])c([H])c(Oc6c([H])c([H])c(F)c([H])c6F)c([H])c5[H])c(C(=O)N([H])[H])c4N([H])[H])C3([H])[H])C([H])([H])C(C([H])([H])[H])(C([H])([H])[H])C([H])([H])[H])c([H])c([H])c2C1([H])[H]

$$$$
15:0:0
     RDKit          3D

109117  0  0  1  0  0  0  0  0999 V2000
  -31.6350  -20.7910   21.5250 C   0  0  0  0  0  1  0  0  0  0  0  0
  -30.6520  -20.4380   20.3860 C   0  0  0  0  0  3  0  0  0  0  0  0
  -30.1260  -21.7260   19.5840 C   0  0  0  0  0  2  0  0  0  0  0  0
  -29.7640  -23.0580   20.4060 C   0  0  0  0  0  3  0  0  0  0  0  0
  -31.0180  -23.8730   20.8700 C   0  0  0  0  0  2  0  0  0  0  0  0
  -32.1240  -23.8790   19.8870 N   0  0  0  0  0  4  0  0  0  0  0  0
  -32.2850  -22.9470   19.5490 H   0  0  0  0  0  0  0  0  0  0  0  0
  -32.9770  -24.2020   20.3140 H   0  0  0  0  0  0  0  0  0  0  0  0
  -31.9330  -24.4710   19.0980 H   0  0  0  0  0  0  0  0  0  0  0  0
  -28.5320  -24.0090   19.9830 C   0  0  0  0  0  3  0  0  0  0  0  0
  -27.4420  -23.2320   19.3380 N   0  0  0  0  0  4  0  0  0  0  0  0
  -27.7000  -22.9160   18.4180 H   0  0  0  0  0  0  0  0  0  0  0  0
  -26.6140  -23.7940   19.2410 H   0  0  0  0  0  0  0  0  0  0  0  0
  -27.1830  -22.4330   19.8900 H   0  0  0  0  0  0  0  0  0  0  0  0
  -28.7500  -25.3960   19.2340 C   0  0  0  0  0  2  0  0  0  0  0  0
  -28.5370  -26.6320   20.0010 O   0  0  0  0  0  0  0  0  0  0  0  0
  -24.6180  -31.7840   23.1250 C   0  0  0  0  0  0  0  0  0  0  0  0
  -27.3430  -27.3620   19.9770 C   0  0  0  0  0  0  0  0  0  0  0  0
  -23.4400  -30.3950   21.4530 C   0  0  0  0  0  3  0  0  0  0  0  0
  -24.9230  -28.8890   20.0080 C   0  0  0  0  0  0  0  0  0  0  0  0
  -25.9690  -30.7630   21.2880 C   0  0  0  0  0  2  0  0  0  0  0  0
  -26.0740  -29.3990   20.6190 C   0  0  0  0  0  0  0  0  0  0  0  0
  -27.2790  -28.6410   20.6060 C   0  0  0  0  0  3  0  0  0  0  0  0
  -26.1600  -26.8850   19.3660 C   0  0  0  0  0  3  0  0  0  0  0  0
  -24.9650  -27.6330   19.3830 C   0  0  0  0  0  3  0  0  0  0  0  0
  -23.6700  -29.7420   20.0630 C   0  0  0  0  0  2  0  0  0  0  0  0
  -24.6930  -30.9960   22.0130 N   0  0  0  0  0  0  0  0  0  0  0  0
  -23.5290  -32.0350   23.6590 O   0  0  0  0  0  0  0  0  0  0  0  0
  -22.7900  -29.3540   22.3920 C   0  0  0  0  0  0  0  0  0  0  0  0
  -21.4640  -29.1780   22.2700 N   0  0  0  0  0  0  0  0  0  0  0  0
  -23.4770  -28.7040   23.1860 O   0  0  0  0  0  0  0  0  0  0  0  0
  -20.9680  -29.7520   21.6010 H   0  0  0  0  0  0  0  0  0  0  0  0
  -18.0880  -27.9870   22.7760 C   0  0  0  0  0  0  0  0  0  0  0  0
  -20.6520  -28.2220   23.0220 C   0  0  0  0  0  3  0  0  0  0  0  0
  -20.7370  -26.8080   22.4030 C   0  0  0  0  0  2  0  0  0  0  0  0
  -19.6210  -26.5240   21.3920 C   0  0  0  0  0  2  0  0  0  0  0  0
  -18.2480  -26.6580   22.0580 C   0  0  0  0  0  2  0  0  0  0  0  0
  -19.2180  -28.7300   23.2150 C   0  0  0  0  0  0  0  0  0  0  0  0
  -19.0120  -29.9770   23.8440 C   0  0  0  0  0  3  0  0  0  0  0  0
  -17.7140  -30.4810   24.0410 C   0  0  0  0  0  3  0  0  0  0  0  0
  -16.5990  -29.7330   23.6200 C   0  0  0  0  0  3  0  0  0  0  0  0
  -16.7870  -28.4900   22.9900 C   0  0  0  0  0  3  0  0  0  0  0  0
  -25.8930  -32.4190   23.7620 C   0  0  0  0  0  3  0  0  0  0  0  0
  -26.4070  -31.6380   25.0330 C   0  0  1  0  0  0  0  0  0  0  0  0
  -25.3090  -31.3820   26.0900 C   0  0  0  0  0  1  0  0  0  0  0  0
  -27.0020  -30.2680   24.6310 C   0  0  0  0  0  1  0  0  0  0  0  0
  -27.5480  -32.4340   25.7100 C   0  0  0  0  0  1  0  0  0  0  0  0
  -25.5670  -33.8100   24.1050 N   0  0  0  0  0  0  0  0  0  0  0  0
  -25.9000  -34.8750   23.3640 C   0  0  0  0  0  0  0  0  0  0  0  0
  -26.5840  -34.7930   22.3420 O   0  0  0  0  0  0  0  0  0  0  0  0
  -24.9610  -33.9500   24.9000 H   0  0  0  0  0  0  0  0  0  0  0  0
  -24.1610  -36.6570   23.0130 C   0  0  0  0  0  1  0  0  0  0  0  0
  -25.3950  -36.2520   23.8340 C   0  0  0  0  0  3  0  0  0  0  0  0
  -27.5110  -37.1440   24.7030 C   0  0  0  0  0  1  0  0  0  0  0  0
  -26.4170  -37.3180   23.7500 N   0  0  0  0  0  0  0  0  0  0  0  0
  -26.0010  -38.2320   23.9130 H   0  0  0  0  0  0  0  0  0  0  0  0
  -31.2540  -19.2070   19.5680 C   0  0  0  0  0  3  0  0  0  0  0  0
  -32.0440  -19.7150   18.3360 C   0  0  0  0  0  2  0  0  0  0  0  0
  -34.9230  -16.9390   16.6450 C   0  0  0  0  0  3  0  0  0  0  0  0
  -35.3150  -17.8070   17.6790 C   0  0  0  0  0  3  0  0  0  0  0  0
  -33.5980  -16.9680   16.1670 C   0  0  0  0  0  3  0  0  0  0  0  0
  -34.3820  -18.7050   18.2450 C   0  0  0  0  0  3  0  0  0  0  0  0
  -32.6740  -17.8790   16.7120 C   0  0  0  0  0  3  0  0  0  0  0  0
  -33.0570  -18.7350   17.7650 C   0  0  0  0  0  0  0  0  0  0  0  0
  -30.3370  -17.9640   19.2300 C   0  0  0  0  0  2  0  0  0  0  0  0
  -29.6420  -17.1770   20.4080 C   0  0  0  0  0  3  0  0  0  0  0  0
  -30.6250  -14.7200   20.1270 C   0  0  0  0  0  0  0  0  0  0  0  0
  -30.4530  -12.4480   19.1780 C   0  0  0  0  0  2  0  0  0  0  0  0
  -29.4740  -12.5360   17.9870 C   0  0  0  0  0  2  0  0  0  0  0  0
  -28.0030  -12.3960   18.4390 C   0  0  0  0  0  2  0  0  0  0  0  0
  -27.6650  -13.3030   19.6490 C   0  0  0  0  0  3  0  0  0  0  0  0
  -28.7480  -13.1630   20.7470 C   0  0  0  0  0  2  0  0  0  0  0  0
  -30.0520  -13.4820   20.1380 N   0  0  0  0  0  0  0  0  0  0  0  0
  -31.7760  -14.9360   19.7460 O   0  0  0  0  0  0  0  0  0  0  0  0
  -29.7160  -15.6900   20.3620 N   0  0  0  0  0  0  0  0  0  0  0  0
  -28.8410  -15.2510   20.6070 H   0  0  0  0  0  0  0  0  0  0  0  0
  -25.2900  -13.9410   20.4160 C   0  0  0  0  0  0  0  0  0  0  0  0
  -24.2300  -13.1920   20.8390 C   0  0  0  0  0  0  0  0  0  0  0  0
  -24.6680  -11.8350   20.7900 C   0  0  0  0  0  0  0  0  0  0  0  0
  -26.3210  -13.0480   20.1670 N   0  0  0  0  0  0  0  0  0  0  0  0
  -25.9490  -11.7740   20.4490 N   0  0  0  0  0  0  0  0  0  0  0  0
  -23.9180  -10.5900   20.9910 C   0  0  0  0  0  0  0  0  0  0  0  0
  -24.3680   -9.6070   21.8990 C   0  0  0  0  0  3  0  0  0  0  0  0
  -23.6290   -8.4220   22.0920 C   0  0  0  0  0  3  0  0  0  0  0  0
  -22.4240   -8.2120   21.3800 C   0  0  0  0  0  0  0  0  0  0  0  0
  -21.9910   -9.1820   20.4600 C   0  0  0  0  0  3  0  0  0  0  0  0
  -22.7320  -10.3610   20.2630 C   0  0  0  0  0  3  0  0  0  0  0  0
  -21.6540   -7.0800   21.4840 O   0  0  0  0  0  0  0  0  0  0  0  0
  -21.6420   -6.3210   22.6270 C   0  0  0  0  0  0  0  0  0  0  0  0
  -21.2860   -6.8670   23.8780 C   0  0  0  0  0  3  0  0  0  0  0  0
  -21.2230   -6.0360   25.0160 C   0  0  0  0  0  3  0  0  0  0  0  0
  -21.5010   -4.6620   24.9000 C   0  0  0  0  0  0  0  0  0  0  0  0
  -21.8510   -4.1150   23.6530 C   0  0  0  0  0  3  0  0  0  0  0  0
  -21.9190   -4.9430   22.5190 C   0  0  0  0  0  0  0  0  0  0  0  0
  -22.2340   -4.4070   21.3140 F   0  0  0  0  0  0  0  0  0  0  0  0
  -21.4320   -3.8620   25.9910 F   0  0  0  0  0  0  0  0  0  0  0  0
  -22.8460  -13.6960   21.1440 C   0  0  0  0  0  0  0  0  0  0  0  0
  -22.1360  -13.0260   22.0440 N   0  0  0  0  0  0  0  0  0  0  0  0
  -22.4110  -14.7210   20.6200 O   0  0  0  0  0  0  0  0  0  0  0  0
  -22.5050  -12.1950   22.4870 H   0  0  0  0  0  0  0  0  0  0  0  0
  -21.2110  -13.3420   22.2920 H   0  0  0  0  0  0  0  0  0  0  0  0
  -25.4420  -15.3010   20.1830 N   0  0  0  0  0  0  0  0  0  0  0  0
  -24.5220  -15.7340   20.1580 H   0  0  0  0  0  0  0  0  0  0  0  0
  -25.9050  -15.4580   19.2950 H   0  0  0  0  0  0  0  0  0  0  0  0
  -28.1020  -17.3990   20.3510 C   0  0  0  0  0  2  0  0  0  0  0  0
  -27.6600  -18.8010   20.3660 N   0  0  0  0  0  4  0  0  0  0  0  0
  -27.7860  -19.1990   21.2800 H   0  0  0  0  0  0  0  0  0  0  0  0
  -26.6790  -18.8370   20.1420 H   0  0  0  0  0  0  0  0  0  0  0  0
  -28.1630  -19.3380   19.6840 H   0  0  0  0  0  0  0  0  0  0  0  0
  2  1  1  0
  3  2  1  0
  4  3  1  0
  4  5  1  0
  6  8  1  0
  6  5  1  0
  7  6  1  0
  9  6  1  0
 10 15  1  0
 10  4  1  0
 11 14  1  0
 11 10  1  0
 12 11  1  0
 13 11  1  0
 15 16  1  0
 17 28  2  0
 18 16  1  0
 18 23  1  0
 19 27  1  0
 19 29  1  0
 20 26  1  0
 20 22  1  0
 21 27  1  0
 22 21  1  0
 23 22  2  0
 24 25  1  0
 24 18  2  0
 25 20  2  0
 26 19  1  0
 27 17  1  0
 29 31  2  0
 30 29  1  0
 32 30  1  0
 33 42  2  0
 33 38  1  0
 34 30  1  0
 34 38  1  0
 35 34  1  0
 36 37  1  0
 36 35  1  0
 37 33  1  0
 38 39  2  0
 39 40  1  0
 41 40  2  0
 42 41  1  0
 43 17  1  0
 43 48  1  0
 43 44  1  0
 44 47  1  1
 44 45  1  0
 46 44  1  0
 48 51  1  0
 49 53  1  0
 49 48  1  0
 50 49  2  0
 53 52  1  0
 55 53  1  0
 55 56  1  0
 55 54  1  0
 57 58  1  0
 57  2  1  0
 59 60  1  0
 60 62  2  0
 61 59  2  0
 61 63  1  0
 63 64  2  0
 64 62  1  0
 64 58  1  0
 65 57  1  0
 66 65  1  0
 67 73  1  0
 67 75  1  0
 68 73  1  0
 69 70  1  0
 69 68  1  0
 71 70  1  0
 71 80  1  0
 71 72  1  0
 73 72  1  0
 74 67  2  0
 75 66  1  0
 75 76  1  0
 77 78  2  0
 78 97  1  0
 79 78  1  0
 79 82  1  0
 80 77  1  0
 80 81  1  0
 81 79  2  0
 82 83  1  0
 83 84  2  0
 85 88  1  0
 85 84  1  0
 86 85  2  0
 87 86  1  0
 87 82  2  0
 88 89  1  0
 89 90  1  0
 90 91  2  0
 92 91  1  0
 92 96  1  0
 93 92  2  0
 94 89  2  0
 94 93  1  0
 95 94  1  0
 97 98  1  0
 98101  1  0
 98100  1  0
 99 97  2  0
102 77  1  0
103102  1  0
104102  1  0
105106  1  0
105 66  1  0
106107  1  0
108106  1  0
109106  1  0
M  ISO  4  15 101  16 101  67 100  75 100
M  END
>  <TORSDO>  (16) 
F 30

>  <SCORE>  (16) 
-11.653

>  <name>  (16) 
15

>  <ligand_id>  (16) 
15

>  <original_smiles>  (16) 
[H]c1c([H])c([H])c(C([H])([H])C([H])(C([H])([H])C([H])(N([H])C(=O)N2C([H])([H])C([H])([H])C([H])([H])C([H])(n3nc(-c4c([H])c([H])c(Oc5c([H])c([H])c(F)c([H])c5F)c([H])c4[H])c(C(=O)N([H])[H])c3N([H])[H])C2([H])[H])C([H])([H])[N+]([H])([H])[H])C([H])(C([H])([H])[H])C([H])([H])C([H])(C([H])([H])[N+]([H])([H])[H])C([H])(C([H])([H])Oc2c([H])c([H])c3c(c2[H])C([H])([H])N(C(=O)C([H])(N([H])C(=O)C([H])(N([H])C([H])([H])[H])C([H])([H])[H])C(C([H])([H])[H])(C([H])([H])[H])C([H])([H])[H])C([H])(C(=O)N([H])C2([H])c4c([H])c([H])c([H])c([H])c4C([H])([H])C([H])([H])C2([H])[H])C3([H])[H])[N+]([H])([H])[H])c([H])c1[H]

>  <smiles>  (16) 
[H]c1c([H])c([H])c(C([H])([H])C([H])(C([H])([H])C([H])(N([H])C(=O)N2C([H])([H])C([H])([H])C([H])([H])C([H])(n3nc(-c4c([H])c([H])c(Oc5c([H])c([H])c(F)c([H])c5F)c([H])c4[H])c(C(=O)N([H])[H])c3N([H])[H])C2([H])[H])C([H])([H])[N+]([H])([H])[H])C([H])(C([H])([H])[H])C([H])([H])C([H])(C([H])([H])[N+]([H])([H])[H])C([H])(C([H])([H])Oc2c([H])c([H])c3c(c2[H])C([H])([H])N(C(=O)C([H])(N([H])C(=O)C([H])(N([H])C([H])([H])[H])C([H])([H])[H])C(C([H])([H])[H])(C([H])([H])[H])C([H])([H])[H])C([H])(C(=O)N([H])C2([H])c4c([H])c([H])c([H])c([H])c4C([H])([H])C([H])([H])C2([H])[H])C3([H])[H])[N+]([H])([H])[H])c([H])c1[H]

$$$$
16:0:0
     RDKit          3D

 90 97  0  0  1  0  0  0  0  0999 V2000
  -28.7950  -21.1830   20.5170 C   0  0  0  0  0  2  0  0  0  0  0  0
  -28.8160  -22.9000   19.9630 C   0  0  0  0  0  0  0  0  0  0  0  0
  -30.0170  -24.2170   18.1090 C   0  0  0  0  0  1  0  0  0  0  0  0
  -30.1620  -23.3420   19.3700 C   0  0  0  0  0  2  0  0  0  0  0  0
  -27.9930  -24.3660   20.5410 C   0  0  0  0  0  3  0  0  0  0  0  0
  -28.2260  -25.9660   20.3200 O   0  0  0  0  0  0  0  0  0  0  0  0
  -24.6240  -31.8800   23.2340 C   0  0  0  0  0  0  0  0  0  0  0  0
  -27.1940  -27.0230   20.2860 C   0  0  0  0  0  0  0  0  0  0  0  0
  -23.4330  -30.4720   21.5970 C   0  0  0  0  0  3  0  0  0  0  0  0
  -24.8890  -28.8630   20.2040 C   0  0  0  0  0  0  0  0  0  0  0  0
  -25.9980  -30.7000   21.4610 C   0  0  0  0  0  2  0  0  0  0  0  0
  -26.0710  -29.2880   20.8250 C   0  0  0  0  0  0  0  0  0  0  0  0
  -27.2210  -28.3870   20.8410 C   0  0  0  0  0  3  0  0  0  0  0  0
  -25.9880  -26.7380   19.6080 C   0  0  0  0  0  3  0  0  0  0  0  0
  -24.8700  -27.6100   19.5730 C   0  0  0  0  0  3  0  0  0  0  0  0
  -23.6640  -29.7730   20.2270 C   0  0  0  0  0  2  0  0  0  0  0  0
  -24.7040  -31.0440   22.1510 N   0  0  0  0  0  0  0  0  0  0  0  0
  -23.5340  -32.1680   23.7550 O   0  0  0  0  0  0  0  0  0  0  0  0
  -22.7500  -29.4760   22.5660 C   0  0  0  0  0  0  0  0  0  0  0  0
  -21.4210  -29.3030   22.4370 N   0  0  0  0  0  0  0  0  0  0  0  0
  -23.4160  -28.8550   23.3960 O   0  0  0  0  0  0  0  0  0  0  0  0
  -20.9450  -29.8460   21.7320 H   0  0  0  0  0  0  0  0  0  0  0  0
  -18.0390  -28.0880   22.9370 C   0  0  0  0  0  0  0  0  0  0  0  0
  -20.5980  -28.3690   23.2130 C   0  0  0  0  0  3  0  0  0  0  0  0
  -20.7060  -26.9300   22.6540 C   0  0  0  0  0  2  0  0  0  0  0  0
  -19.6110  -26.5920   21.6360 C   0  0  0  0  0  2  0  0  0  0  0  0
  -18.2260  -26.7360   22.2710 C   0  0  0  0  0  2  0  0  0  0  0  0
  -19.1520  -28.8620   23.3660 C   0  0  0  0  0  0  0  0  0  0  0  0
  -18.9210  -30.1260   23.9490 C   0  0  0  0  0  3  0  0  0  0  0  0
  -17.6120  -30.6180   24.1120 C   0  0  0  0  0  3  0  0  0  0  0  0
  -16.5150  -29.8410   23.6980 C   0  0  0  0  0  3  0  0  0  0  0  0
  -16.7300  -28.5800   23.1150 C   0  0  0  0  0  3  0  0  0  0  0  0
  -25.8960  -32.5270   23.8610 C   0  0  0  0  0  3  0  0  0  0  0  0
  -25.5760  -33.9300   24.1780 N   0  0  0  0  0  0  0  0  0  0  0  0
  -25.9100  -34.9830   23.4200 C   0  0  0  0  0  0  0  0  0  0  0  0
  -26.5860  -34.8760   22.3940 O   0  0  0  0  0  0  0  0  0  0  0  0
  -24.9690  -34.0830   24.9690 H   0  0  0  0  0  0  0  0  0  0  0  0
  -24.1870  -36.7840   23.0440 C   0  0  0  0  0  1  0  0  0  0  0  0
  -25.4210  -36.3770   23.8680 C   0  0  0  0  0  3  0  0  0  0  0  0
  -27.5480  -37.2650   24.7190 C   0  0  0  0  0  1  0  0  0  0  0  0
  -26.4560  -37.4320   23.7620 N   0  0  0  0  0  0  0  0  0  0  0  0
  -26.0500  -38.3530   23.9000 H   0  0  0  0  0  0  0  0  0  0  0  0
  -26.3930  -31.7780   25.1590 C   0  0  1  0  0  0  0  0  0  0  0  0
  -25.2860  -31.5620   26.2180 C   0  0  0  0  0  1  0  0  0  0  0  0
  -26.9800  -30.3910   24.8130 C   0  0  0  0  0  1  0  0  0  0  0  0
  -27.5340  -32.5860   25.8230 C   0  0  0  0  0  1  0  0  0  0  0  0
  -29.8640  -19.7490   20.3140 C   0  0  0  0  0  3  0  0  0  0  0  0
  -31.4500  -21.1840   21.8050 C   0  0  0  0  0  1  0  0  0  0  0  0
  -31.0030  -18.8630   22.4560 C   0  0  0  0  0  1  0  0  0  0  0  0
  -32.3720  -19.3370   20.4050 C   0  0  0  0  0  1  0  0  0  0  0  0
  -31.1450  -19.7890   21.2320 C   0  0  1  0  0  0  0  0  0  0  0  0
  -29.6010  -18.0510   19.7930 C   0  0  0  0  0  2  0  0  0  0  0  0
  -30.4740  -15.2580   20.1120 C   0  0  0  0  0  0  0  0  0  0  0  0
  -30.3880  -12.8320   19.2300 C   0  0  0  0  0  2  0  0  0  0  0  0
  -29.4410  -12.7010   18.0100 C   0  0  0  0  0  2  0  0  0  0  0  0
  -27.9920  -12.4430   18.4570 C   0  0  0  0  0  2  0  0  0  0  0  0
  -27.5800  -13.3670   19.6300 C   0  0  0  0  0  3  0  0  0  0  0  0
  -28.6590  -13.4580   20.7360 C   0  0  0  0  0  2  0  0  0  0  0  0
  -29.8990  -13.9550   20.1080 N   0  0  0  0  0  0  0  0  0  0  0  0
  -31.6450  -15.2800   19.7110 O   0  0  0  0  0  0  0  0  0  0  0  0
  -29.7540  -16.5090   20.3960 N   0  0  0  0  0  0  0  0  0  0  0  0
  -28.9390  -16.2850   20.9500 H   0  0  0  0  0  0  0  0  0  0  0  0
  -25.2150  -13.9040   20.4270 C   0  0  0  0  0  0  0  0  0  0  0  0
  -24.1640  -13.1200   20.8190 C   0  0  0  0  0  0  0  0  0  0  0  0
  -24.6400  -11.7710   20.7720 C   0  0  0  0  0  0  0  0  0  0  0  0
  -26.2590  -13.0380   20.1620 N   0  0  0  0  0  0  0  0  0  0  0  0
  -25.9260  -11.7470   20.4350 N   0  0  0  0  0  0  0  0  0  0  0  0
  -23.9250  -10.5020   20.9740 C   0  0  0  0  0  0  0  0  0  0  0  0
  -24.3740   -9.5390   21.9040 C   0  0  0  0  0  3  0  0  0  0  0  0
  -23.6580   -8.3380   22.0960 C   0  0  0  0  0  3  0  0  0  0  0  0
  -22.4770   -8.0880   21.3580 C   0  0  0  0  0  0  0  0  0  0  0  0
  -22.0490   -9.0390   20.4140 C   0  0  0  0  0  3  0  0  0  0  0  0
  -22.7650  -10.2310   20.2200 C   0  0  0  0  0  3  0  0  0  0  0  0
  -21.7320   -6.9380   21.4560 O   0  0  0  0  0  0  0  0  0  0  0  0
  -21.6920   -6.2030   22.6140 C   0  0  0  0  0  0  0  0  0  0  0  0
  -21.2510   -6.7600   23.8340 C   0  0  0  0  0  3  0  0  0  0  0  0
  -21.1620   -5.9520   24.9860 C   0  0  0  0  0  3  0  0  0  0  0  0
  -21.5000   -4.5870   24.9190 C   0  0  0  0  0  0  0  0  0  0  0  0
  -21.9300   -4.0290   23.7010 C   0  0  0  0  0  3  0  0  0  0  0  0
  -22.0240   -4.8330   22.5530 C   0  0  0  0  0  0  0  0  0  0  0  0
  -22.4220   -4.2870   21.3800 F   0  0  0  0  0  0  0  0  0  0  0  0
  -21.4070   -3.8090   26.0210 F   0  0  0  0  0  0  0  0  0  0  0  0
  -22.7700  -13.5840   21.1230 C   0  0  0  0  0  0  0  0  0  0  0  0
  -22.0650  -12.8790   21.9990 N   0  0  0  0  0  0  0  0  0  0  0  0
  -22.3120  -14.6080   20.6130 O   0  0  0  0  0  0  0  0  0  0  0  0
  -22.4480  -12.0550   22.4370 H   0  0  0  0  0  0  0  0  0  0  0  0
  -21.1240  -13.1670   22.2360 H   0  0  0  0  0  0  0  0  0  0  0  0
  -25.3670  -15.2770   20.2470 N   0  0  0  0  0  0  0  0  0  0  0  0
  -24.6060  -15.9390   20.3660 H   0  0  0  0  0  0  0  0  0  0  0  0
  -26.2170  -15.7140   19.9110 H   0  0  0  0  0  0  0  0  0  0  0  0
  2  1  1  0
  2  5  2  0
  3  4  1  0
  4  2  1  0
  6  5  1  0
  7 18  2  0
  8  6  1  0
  8 13  1  0
  9 17  1  0
  9 19  1  0
 10 16  1  0
 10 12  1  0
 11 17  1  0
 12 13  2  0
 12 11  1  0
 14  8  2  0
 15 14  1  0
 15 10  2  0
 16  9  1  0
 17  7  1  0
 19 21  2  0
 20 19  1  0
 22 20  1  0
 23 32  2  0
 23 28  1  0
 24 20  1  0
 24 28  1  0
 25 24  1  0
 26 27  1  0
 26 25  1  0
 27 23  1  0
 28 29  2  0
 29 30  1  0
 31 30  2  0
 32 31  1  0
 33  7  1  0
 33 34  1  0
 33 43  1  0
 34 37  1  0
 35 39  1  0
 35 34  1  0
 36 35  2  0
 39 38  1  0
 41 39  1  0
 41 42  1  0
 41 40  1  0
 43 46  1  1
 43 44  1  0
 45 43  1  0
 47 52  1  0
 47  1  1  0
 47 51  1  0
 51 50  1  6
 51 48  1  0
 51 49  1  0
 52 61  1  0
 53 61  1  0
 54 59  1  0
 55 56  1  0
 55 54  1  0
 57 56  1  0
 57 66  1  0
 57 58  1  0
 59 53  1  0
 59 58  1  0
 60 53  2  0
 61 62  1  0
 63 64  2  0
 64 83  1  0
 65 64  1  0
 65 68  1  0
 66 63  1  0
 66 67  1  0
 67 65  2  0
 68 69  1  0
 69 70  2  0
 71 74  1  0
 71 70  1  0
 72 71  2  0
 73 72  1  0
 73 68  2  0
 74 75  1  0
 75 76  1  0
 76 77  2  0
 78 77  1  0
 78 82  1  0
 79 78  2  0
 80 75  2  0
 80 79  1  0
 81 80  1  0
 83 84  1  0
 84 87  1  0
 84 86  1  0
 85 83  2  0
 88 89  1  0
 88 63  1  0
 90 88  1  0
M  ISO  4   5 101   6 101  53 100  61 100
M  END
>  <TORSDO>  (17) 
F 22

>  <SCORE>  (17) 
-15.503

>  <name>  (17) 
16

>  <ligand_id>  (17) 
16

>  <original_smiles>  (17) 
[H]c1c([H])c([H])c2c(c1[H])C([H])([H])C([H])([H])C([H])([H])C2([H])N([H])C(=O)C1([H])N(C(=O)C([H])(N([H])C(=O)C([H])(N([H])C([H])([H])[H])C([H])([H])[H])C(C([H])([H])[H])(C([H])([H])[H])C([H])([H])[H])C([H])([H])c2c([H])c(OC([H])([H])C([H])(C([H])([H])C([H])([H])[H])C([H])([H])C([H])(C([H])([H])N([H])C(=O)N3C([H])([H])C([H])([H])C([H])([H])C([H])(n4nc(-c5c([H])c([H])c(Oc6c([H])c([H])c(F)c([H])c6F)c([H])c5[H])c(C(=O)N([H])[H])c4N([H])[H])C3([H])[H])C(C([H])([H])[H])(C([H])([H])[H])C([H])([H])[H])c([H])c([H])c2C1([H])[H]

>  <smiles>  (17) 
[H]c1c([H])c([H])c2c(c1[H])C([H])([H])C([H])([H])C([H])([H])C2([H])N([H])C(=O)C1([H])N(C(=O)C([H])(N([H])C(=O)C([H])(N([H])C([H])([H])[H])C([H])([H])[H])C(C([H])([H])[H])(C([H])([H])[H])C([H])([H])[H])C([H])([H])c2c([H])c(OC([H])([H])C([H])(C([H])([H])C([H])([H])[H])C([H])([H])C([H])(C([H])([H])N([H])C(=O)N3C([H])([H])C([H])([H])C([H])([H])C([H])(n4nc(-c5c([H])c([H])c(Oc6c([H])c([H])c(F)c([H])c6F)c([H])c5[H])c(C(=O)N([H])[H])c4N([H])[H])C3([H])[H])C(C([H])([H])[H])(C([H])([H])[H])C([H])([H])[H])c([H])c([H])c2C1([H])[H]

$$$$
17:0:0
     RDKit          3D

 92 99  0  0  1  0  0  0  0  0999 V2000
  -29.3490  -21.3640   19.9580 C   0  0  0  0  0  3  0  0  0  0  0  0
  -29.1630  -22.7040   20.6920 N   0  0  0  0  0  4  0  0  0  0  0  0
  -30.0230  -23.2060   20.5390 H   0  0  0  0  0  0  0  0  0  0  0  0
  -29.1570  -22.5250   21.6840 H   0  0  0  0  0  0  0  0  0  0  0  0
  -28.0300  -23.7130   20.4090 C   0  0  0  0  0  2  0  0  0  0  0  0
  -28.3240  -25.0400   19.5310 C   0  0  0  0  0  2  0  0  0  0  0  0
  -28.2730  -26.4490   20.0490 O   0  0  0  0  0  0  0  0  0  0  0  0
  -24.6420  -31.8700   23.1340 C   0  0  0  0  0  0  0  0  0  0  0  0
  -27.1450  -27.2890   20.0030 C   0  0  0  0  0  0  0  0  0  0  0  0
  -23.3920  -30.4880   21.5160 C   0  0  0  0  0  3  0  0  0  0  0  0
  -24.7920  -28.9400   20.0440 C   0  0  0  0  0  0  0  0  0  0  0  0
  -25.9260  -30.7930   21.2720 C   0  0  0  0  0  2  0  0  0  0  0  0
  -25.9820  -29.4160   20.6150 C   0  0  0  0  0  0  0  0  0  0  0  0
  -27.1580  -28.6060   20.5760 C   0  0  0  0  0  3  0  0  0  0  0  0
  -25.9250  -26.8620   19.4280 C   0  0  0  0  0  3  0  0  0  0  0  0
  -24.7690  -27.6730   19.4400 C   0  0  0  0  0  3  0  0  0  0  0  0
  -23.5690  -29.8300   20.1260 C   0  0  0  0  0  2  0  0  0  0  0  0
  -24.6740  -31.0670   22.0320 N   0  0  0  0  0  0  0  0  0  0  0  0
  -23.5740  -32.1530   23.6960 O   0  0  0  0  0  0  0  0  0  0  0  0
  -22.7450  -29.4690   22.4880 C   0  0  0  0  0  0  0  0  0  0  0  0
  -21.4150  -29.2900   22.3800 N   0  0  0  0  0  0  0  0  0  0  0  0
  -23.4390  -28.8470   23.2990 O   0  0  0  0  0  0  0  0  0  0  0  0
  -20.9120  -29.8430   21.7000 H   0  0  0  0  0  0  0  0  0  0  0  0
  -18.0550  -28.0730   22.9440 C   0  0  0  0  0  0  0  0  0  0  0  0
  -20.6140  -28.3510   23.1630 C   0  0  0  0  0  3  0  0  0  0  0  0
  -20.7160  -26.9150   22.5990 C   0  0  0  0  0  2  0  0  0  0  0  0
  -19.5950  -26.5600   21.6180 C   0  0  0  0  0  2  0  0  0  0  0  0
  -18.2220  -26.7210   22.2750 C   0  0  0  0  0  2  0  0  0  0  0  0
  -19.1750  -28.8440   23.3470 C   0  0  0  0  0  0  0  0  0  0  0  0
  -18.9590  -30.1060   23.9440 C   0  0  0  0  0  3  0  0  0  0  0  0
  -17.6540  -30.5990   24.1380 C   0  0  0  0  0  3  0  0  0  0  0  0
  -16.5500  -29.8260   23.7450 C   0  0  0  0  0  3  0  0  0  0  0  0
  -16.7500  -28.5650   23.1550 C   0  0  0  0  0  3  0  0  0  0  0  0
  -25.9460  -32.4990   23.7300 C   0  0  0  0  0  3  0  0  0  0  0  0
  -25.6280  -33.8810   24.1240 N   0  0  0  0  0  0  0  0  0  0  0  0
  -25.9270  -34.9650   23.3970 C   0  0  0  0  0  0  0  0  0  0  0  0
  -26.5600  -34.9120   22.3390 O   0  0  0  0  0  0  0  0  0  0  0  0
  -25.0600  -34.0000   24.9500 H   0  0  0  0  0  0  0  0  0  0  0  0
  -24.1660  -36.7430   23.1840 C   0  0  0  0  0  1  0  0  0  0  0  0
  -25.4480  -36.3300   23.9280 C   0  0  0  0  0  3  0  0  0  0  0  0
  -27.6130  -37.2000   24.6970 C   0  0  0  0  0  1  0  0  0  0  0  0
  -26.4700  -37.3940   23.8080 N   0  0  0  0  0  0  0  0  0  0  0  0
  -26.0620  -38.3050   24.0040 H   0  0  0  0  0  0  0  0  0  0  0  0
  -26.5210  -31.6900   24.9550 C   0  0  1  0  0  0  0  0  0  0  0  0
  -25.4720  -31.3970   26.0530 C   0  0  0  0  0  1  0  0  0  0  0  0
  -27.1030  -30.3330   24.4950 C   0  0  0  0  0  1  0  0  0  0  0  0
  -27.6910  -32.4700   25.5990 C   0  0  0  0  0  1  0  0  0  0  0  0
  -29.4940  -19.9780   20.7880 C   0  0  0  0  0  3  0  0  0  0  0  0
  -30.0830  -18.6070   20.1180 C   0  0  0  0  0  2  0  0  0  0  0  0
  -30.2870  -17.2650   21.0060 C   0  0  0  0  0  0  0  0  0  0  0  0
  -31.3890  -14.8410   20.4080 C   0  0  0  0  0  0  0  0  0  0  0  0
  -31.2180  -12.5610   19.4120 C   0  0  0  0  0  2  0  0  0  0  0  0
  -30.3190  -12.6740   18.1590 C   0  0  0  0  0  2  0  0  0  0  0  0
  -28.8240  -12.5810   18.5390 C   0  0  0  0  0  2  0  0  0  0  0  0
  -28.4570  -13.5050   19.7290 C   0  0  0  0  0  3  0  0  0  0  0  0
  -29.4570  -13.3360   20.8920 C   0  0  0  0  0  2  0  0  0  0  0  0
  -30.7920  -13.6150   20.3470 N   0  0  0  0  0  0  0  0  0  0  0  0
  -32.6110  -14.9730   20.2560 O   0  0  0  0  0  0  0  0  0  0  0  0
  -30.4800  -15.8850   20.3820 N   0  0  0  0  0  4  0  0  0  0  0  0
  -29.5750  -15.4680   20.1950 H   0  0  0  0  0  0  0  0  0  0  0  0
  -26.1020  -14.2930   20.3620 C   0  0  0  0  0  0  0  0  0  0  0  0
  -24.9670  -13.6030   20.6960 C   0  0  0  0  0  0  0  0  0  0  0  0
  -25.3350  -12.2230   20.7000 C   0  0  0  0  0  0  0  0  0  0  0  0
  -27.0830  -13.3320   20.1700 N   0  0  0  0  0  0  0  0  0  0  0  0
  -26.6260  -12.0850   20.4370 N   0  0  0  0  0  0  0  0  0  0  0  0
  -24.5150  -11.0170   20.8670 C   0  0  0  0  0  0  0  0  0  0  0  0
  -24.8240  -10.0480   21.8450 C   0  0  0  0  0  3  0  0  0  0  0  0
  -24.0130   -8.9050   22.0020 C   0  0  0  0  0  3  0  0  0  0  0  0
  -22.8740   -8.7250   21.1790 C   0  0  0  0  0  0  0  0  0  0  0  0
  -22.5850   -9.6840   20.1920 C   0  0  0  0  0  3  0  0  0  0  0  0
  -23.3980  -10.8180   20.0340 C   0  0  0  0  0  3  0  0  0  0  0  0
  -22.0410   -7.6390   21.2420 O   0  0  0  0  0  0  0  0  0  0  0  0
  -21.8320   -6.9600   22.4170 C   0  0  0  0  0  0  0  0  0  0  0  0
  -21.3570   -7.6060   23.5770 C   0  0  0  0  0  3  0  0  0  0  0  0
  -21.0980   -6.8600   24.7440 C   0  0  0  0  0  3  0  0  0  0  0  0
  -21.2960   -5.4660   24.7460 C   0  0  0  0  0  0  0  0  0  0  0  0
  -21.7650   -4.8180   23.5890 C   0  0  0  0  0  3  0  0  0  0  0  0
  -22.0310   -5.5650   22.4260 C   0  0  0  0  0  0  0  0  0  0  0  0
  -22.4620   -4.9340   21.3080 F   0  0  0  0  0  0  0  0  0  0  0  0
  -21.0360   -4.7430   25.8610 F   0  0  0  0  0  0  0  0  0  0  0  0
  -23.6000  -14.1840   20.8960 C   0  0  0  0  0  0  0  0  0  0  0  0
  -22.8010  -13.5710   21.7650 N   0  0  0  0  0  0  0  0  0  0  0  0
  -23.2490  -15.2160   20.3230 O   0  0  0  0  0  0  0  0  0  0  0  0
  -23.1020  -12.7370   22.2440 H   0  0  0  0  0  0  0  0  0  0  0  0
  -21.8800  -13.9440   21.9490 H   0  0  0  0  0  0  0  0  0  0  0  0
  -26.3700  -15.6460   20.1830 N   0  0  0  0  0  0  0  0  0  0  0  0
  -25.6370  -16.3410   20.2730 H   0  0  0  0  0  0  0  0  0  0  0  0
  -27.2530  -16.0360   19.8870 H   0  0  0  0  0  0  0  0  0  0  0  0
  -31.2200  -17.3580   22.2370 C   0  0  0  0  0  2  0  0  0  0  0  0
  -30.5170  -18.0210   24.6100 C   0  0  0  0  0  1  0  0  0  0  0  0
  -32.1330  -19.4760   23.3120 C   0  0  0  0  0  1  0  0  0  0  0  0
  -30.9350  -18.5250   23.2130 C   0  0  0  0  0  3  0  0  0  0  0  0
  1  2  1  0
  1 48  2  0
  2  4  1  0
  3  2  1  0
  5  2  1  0
  6  7  1  0
  6  5  1  0
  8 19  2  0
  9  7  1  0
  9 14  1  0
 10 18  1  0
 10 20  1  0
 11 17  1  0
 11 13  1  0
 12 18  1  0
 13 12  1  0
 14 13  2  0
 15 16  1  0
 15  9  2  0
 16 11  2  0
 17 10  1  0
 18  8  1  0
 20 22  2  0
 21 20  1  0
 23 21  1  0
 24 33  2  0
 24 29  1  0
 25 21  1  0
 25 29  1  0
 26 25  1  0
 27 28  1  0
 27 26  1  0
 28 24  1  0
 29 30  2  0
 30 31  1  0
 32 31  2  0
 33 32  1  0
 34  8  1  0
 34 35  1  0
 34 44  1  0
 35 38  1  0
 36 40  1  0
 36 35  1  0
 37 36  2  0
 40 39  1  0
 42 40  1  0
 42 43  1  0
 42 41  1  0
 44 47  1  1
 44 45  1  0
 46 44  1  0
 49 48  1  0
 49 50  1  0
 50 89  1  0
 52 57  1  0
 53 54  1  0
 53 52  1  0
 55 54  1  0
 55 64  1  0
 55 56  1  0
 57 51  1  0
 57 56  1  0
 58 51  2  0
 59 51  1  0
 59 50  2  0
 60 59  1  0
 61 62  2  0
 62 63  1  0
 62 81  1  0
 63 66  1  0
 64 61  1  0
 64 65  1  0
 65 63  2  0
 66 67  1  0
 67 68  2  0
 69 72  1  0
 69 68  1  0
 70 69  2  0
 71 70  1  0
 71 66  2  0
 72 73  1  0
 73 78  2  0
 73 74  1  0
 74 75  2  0
 75 76  1  0
 76 80  1  0
 77 76  2  0
 78 77  1  0
 79 78  1  0
 81 82  1  0
 82 85  1  0
 82 84  1  0
 83 81  2  0
 86 87  1  0
 86 61  1  0
 88 86  1  0
 89 92  1  0
 92 91  1  0
 92 90  1  0
M  ISO  4   6 101   7 101  51 100  59 100
M  END
>  <TORSDO>  (18) 
F 24

>  <SCORE>  (18) 
-9.869

>  <name>  (18) 
17

>  <ligand_id>  (18) 
17

>  <original_smiles>  (18) 
[H]c1c([H])c([H])c2c(c1[H])C([H])([H])C([H])([H])C([H])([H])C2([H])N([H])C(=O)C1([H])N(C(=O)C([H])(N([H])C(=O)C([H])(N([H])C([H])([H])[H])C([H])([H])[H])C(C([H])([H])[H])(C([H])([H])[H])C([H])([H])[H])C([H])([H])c2c([H])c(OC([H])([H])C([H])([H])[N+]([H])([H])C([H])([H])C([H])([H])C([H])([H])C([H])(N([H])C(=O)N3C([H])([H])C([H])([H])C([H])([H])C([H])(n4nc(-c5c([H])c([H])c(Oc6c([H])c([H])c(F)c([H])c6F)c([H])c5[H])c(C(=O)N([H])[H])c4N([H])[H])C3([H])[H])C([H])([H])C([H])(C([H])([H])[H])C([H])([H])[H])c([H])c([H])c2C1([H])[H]

>  <smiles>  (18) 
[H]c1c([H])c([H])c2c(c1[H])C([H])([H])C([H])([H])C([H])([H])C2([H])N([H])C(=O)C1([H])N(C(=O)C([H])(N([H])C(=O)C([H])(N([H])C([H])([H])[H])C([H])([H])[H])C(C([H])([H])[H])(C([H])([H])[H])C([H])([H])[H])C([H])([H])c2c([H])c(OC([H])([H])C([H])([H])[N+]([H])([H])C([H])([H])C([H])([H])C([H])([H])C([H])(N([H])C(=O)N3C([H])([H])C([H])([H])C([H])([H])C([H])(n4nc(-c5c([H])c([H])c(Oc6c([H])c([H])c(F)c([H])c6F)c([H])c5[H])c(C(=O)N([H])[H])c4N([H])[H])C3([H])[H])C([H])([H])C([H])(C([H])([H])[H])C([H])([H])[H])c([H])c([H])c2C1([H])[H]

$$$$
18:0:0
     RDKit          3D

105115  0  0  1  0  0  0  0  0999 V2000
  -27.9750  -23.3020   20.0950 C   0  0  0  0  0  3  0  0  0  0  0  0
  -30.1920  -20.1830   19.0110 C   0  0  0  0  0  2  0  0  0  0  0  0
  -29.2960  -21.4310   18.8400 C   0  0  0  0  0  2  0  0  0  0  0  0
  -30.2700  -22.3980   20.9630 C   0  0  0  0  0  2  0  0  0  0  0  0
  -32.4760  -19.3330   19.9040 C   0  0  0  0  0  2  0  0  0  0  0  0
  -31.8370  -19.0780   22.4160 C   0  0  0  0  0  2  0  0  0  0  0  0
  -31.4800  -20.5110   19.7950 C   0  0  0  0  0  3  0  0  0  0  0  0
  -31.1810  -21.1620   21.1650 C   0  0  0  0  0  3  0  0  0  0  0  0
  -28.9610  -22.0840   20.2000 C   0  0  0  0  0  3  0  0  0  0  0  0
  -30.6910  -20.0940   22.1880 C   0  0  0  0  0  3  0  0  0  0  0  0
  -32.3410  -18.3840   21.1320 C   0  0  0  0  0  3  0  0  0  0  0  0
  -32.2510  -15.9570   20.5460 C   0  0  0  0  0  0  0  0  0  0  0  0
  -31.9910  -13.5280   20.1860 C   0  0  0  0  0  2  0  0  0  0  0  0
  -31.2590  -13.2450   18.8600 C   0  0  0  0  0  2  0  0  0  0  0  0
  -29.7340  -13.2530   19.0750 C   0  0  0  0  0  2  0  0  0  0  0  0
  -29.2460  -14.5060   19.8490 C   0  0  0  0  0  3  0  0  0  0  0  0
  -30.1040  -14.7460   21.1110 C   0  0  0  0  0  2  0  0  0  0  0  0
  -31.5150  -14.8240   20.6960 N   0  0  0  0  0  0  0  0  0  0  0  0
  -33.4110  -15.9450   20.1260 O   0  0  0  0  0  0  0  0  0  0  0  0
  -31.6460  -17.1110   20.8810 N   0  0  0  0  0  0  0  0  0  0  0  0
  -30.6830  -17.0440   21.1720 H   0  0  0  0  0  0  0  0  0  0  0  0
  -26.8660  -15.4120   20.2230 C   0  0  0  0  0  0  0  0  0  0  0  0
  -25.6820  -14.7850   20.4990 C   0  0  0  0  0  0  0  0  0  0  0  0
  -25.9870  -13.3920   20.6020 C   0  0  0  0  0  0  0  0  0  0  0  0
  -27.8240  -14.4110   20.1730 N   0  0  0  0  0  0  0  0  0  0  0  0
  -27.2910  -13.1960   20.4560 N   0  0  0  0  0  0  0  0  0  0  0  0
  -25.1040  -12.2310   20.7700 C   0  0  0  0  0  0  0  0  0  0  0  0
  -25.3980  -11.2090   21.7000 C   0  0  0  0  0  3  0  0  0  0  0  0
  -24.5240  -10.1120   21.8580 C   0  0  0  0  0  3  0  0  0  0  0  0
  -23.3420  -10.0280   21.0840 C   0  0  0  0  0  0  0  0  0  0  0  0
  -23.0670  -11.0360   20.1430 C   0  0  0  0  0  3  0  0  0  0  0  0
  -23.9390  -12.1250   19.9830 C   0  0  0  0  0  3  0  0  0  0  0  0
  -22.4470   -8.9880   21.1510 O   0  0  0  0  0  0  0  0  0  0  0  0
  -22.2860   -8.2500   22.2950 C   0  0  0  0  0  0  0  0  0  0  0  0
  -21.9450   -8.8520   23.5260 C   0  0  0  0  0  3  0  0  0  0  0  0
  -21.7190   -8.0510   24.6640 C   0  0  0  0  0  3  0  0  0  0  0  0
  -21.8240   -6.6500   24.5700 C   0  0  0  0  0  0  0  0  0  0  0  0
  -22.1580   -6.0480   23.3450 C   0  0  0  0  0  3  0  0  0  0  0  0
  -22.3850   -6.8460   22.2090 C   0  0  0  0  0  0  0  0  0  0  0  0
  -22.6850   -6.2610   21.0250 F   0  0  0  0  0  0  0  0  0  0  0  0
  -21.6000   -5.8780   25.6600 F   0  0  0  0  0  0  0  0  0  0  0  0
  -24.3250  -15.4250   20.5730 C   0  0  0  0  0  0  0  0  0  0  0  0
  -23.4160  -14.8480   21.3510 N   0  0  0  0  0  0  0  0  0  0  0  0
  -24.0810  -16.4720   19.9750 O   0  0  0  0  0  0  0  0  0  0  0  0
  -23.6250  -14.0000   21.8560 H   0  0  0  0  0  0  0  0  0  0  0  0
  -22.4990  -15.2600   21.4430 H   0  0  0  0  0  0  0  0  0  0  0  0
  -27.2070  -16.7410   19.9910 N   0  0  0  0  0  0  0  0  0  0  0  0
  -26.5150  -17.4820   19.9680 H   0  0  0  0  0  0  0  0  0  0  0  0
  -28.1370  -17.0630   19.7570 H   0  0  0  0  0  0  0  0  0  0  0  0
  -29.8020  -19.5710   24.5390 C   0  0  0  0  0  1  0  0  0  0  0  0
  -30.1260  -20.6770   23.5180 C   0  0  0  0  0  3  0  0  0  0  0  0
  -30.3060  -22.5990   25.2320 C   0  0  0  0  0  1  0  0  0  0  0  0
  -31.0100  -21.7850   24.1380 C   0  0  0  0  0  2  0  0  0  0  0  0
  -24.7780  -24.7830   22.8760 C   0  0  0  0  0  2  0  0  0  0  0  0
  -26.2420  -25.1140   23.1790 C   0  0  0  0  0  2  0  0  0  0  0  0
  -24.6620  -23.3560   22.3310 C   0  0  0  0  0  2  0  0  0  0  0  0
  -27.1200  -24.9220   21.9330 C   0  0  0  0  0  2  0  0  0  0  0  0
  -25.5600  -23.1370   21.0970 C   0  0  0  0  0  2  0  0  0  0  0  0
  -27.0550  -23.4810   21.3580 C   0  0  0  0  0  3  0  0  0  0  0  0
  -28.7470  -24.5520   19.8260 N   0  0  0  0  0  4  0  0  0  0  0  0
  -28.9630  -24.9670   20.7190 H   0  0  0  0  0  0  0  0  0  0  0  0
  -29.6280  -24.2840   19.4130 H   0  0  0  0  0  0  0  0  0  0  0  0
  -28.1230  -25.5770   18.9400 C   0  0  0  0  0  2  0  0  0  0  0  0
  -28.6000  -27.0110   19.2990 C   0  0  0  0  0  2  0  0  0  0  0  0
  -28.0630  -28.0570   18.4750 O   0  0  0  0  0  0  0  0  0  0  0  0
  -24.4620  -31.6140   23.5100 C   0  0  0  0  0  0  0  0  0  0  0  0
  -26.8710  -28.5970   18.8980 C   0  0  0  0  0  0  0  0  0  0  0  0
  -23.1050  -30.6040   21.7070 C   0  0  0  0  0  3  0  0  0  0  0  0
  -24.4090  -29.7250   19.6990 C   0  0  0  0  0  0  0  0  0  0  0  0
  -25.5280  -31.3120   21.2760 C   0  0  0  0  0  2  0  0  0  0  0  0
  -25.6070  -30.2010   20.2480 C   0  0  0  0  0  0  0  0  0  0  0  0
  -26.8430  -29.6450   19.8470 C   0  0  0  0  0  3  0  0  0  0  0  0
  -25.6580  -28.1370   18.3450 C   0  0  0  0  0  3  0  0  0  0  0  0
  -24.4280  -28.6910   18.7490 C   0  0  0  0  0  3  0  0  0  0  0  0
  -23.1290  -30.3750   20.1740 C   0  0  0  0  0  2  0  0  0  0  0  0
  -24.3920  -31.1760   22.2210 N   0  0  0  0  0  0  0  0  0  0  0  0
  -23.4690  -31.5880   24.2500 O   0  0  0  0  0  0  0  0  0  0  0  0
  -22.7060  -29.2790   22.3940 C   0  0  0  0  0  0  0  0  0  0  0  0
  -21.4270  -28.8920   22.2510 N   0  0  0  0  0  0  0  0  0  0  0  0
  -23.5380  -28.6100   23.0120 O   0  0  0  0  0  0  0  0  0  0  0  0
  -20.8050  -29.4970   21.7340 H   0  0  0  0  0  0  0  0  0  0  0  0
  -18.4100  -26.9040   22.3070 C   0  0  0  0  0  0  0  0  0  0  0  0
  -20.8360  -27.6630   22.7780 C   0  0  0  0  0  3  0  0  0  0  0  0
  -21.2740  -26.4340   21.9470 C   0  0  0  0  0  2  0  0  0  0  0  0
  -20.2910  -26.0850   20.8250 C   0  0  0  0  0  2  0  0  0  0  0  0
  -18.9010  -25.7890   21.3990 C   0  0  0  0  0  2  0  0  0  0  0  0
  -19.3170  -27.7930   22.9420 C   0  0  0  0  0  0  0  0  0  0  0  0
  -18.8060  -28.8350   23.7470 C   0  0  0  0  0  3  0  0  0  0  0  0
  -17.4190  -28.9940   23.9230 C   0  0  0  0  0  3  0  0  0  0  0  0
  -16.5260  -28.1000   23.3070 C   0  0  0  0  0  3  0  0  0  0  0  0
  -17.0210  -27.0560   22.5050 C   0  0  0  0  0  3  0  0  0  0  0  0
  -25.7830  -32.1920   24.1070 C   0  0  0  0  0  3  0  0  0  0  0  0
  -25.5280  -33.5930   24.4670 N   0  0  0  0  0  0  0  0  0  0  0  0
  -25.9880  -34.6490   23.7820 C   0  0  0  0  0  0  0  0  0  0  0  0
  -26.7400  -34.5410   22.8090 O   0  0  0  0  0  0  0  0  0  0  0  0
  -24.8710  -33.7550   25.2160 H   0  0  0  0  0  0  0  0  0  0  0  0
  -24.4540  -36.5860   23.3080 C   0  0  0  0  0  1  0  0  0  0  0  0
  -25.5420  -36.0480   24.2510 C   0  0  0  0  0  3  0  0  0  0  0  0
  -27.6110  -36.7100   25.3950 C   0  0  0  0  0  1  0  0  0  0  0  0
  -26.6530  -37.0210   24.3370 N   0  0  0  0  0  0  0  0  0  0  0  0
  -26.3000  -37.9610   24.4960 H   0  0  0  0  0  0  0  0  0  0  0  0
  -26.3090  -31.3820   25.3550 C   0  0  1  0  0  0  0  0  0  0  0  0
  -25.2420  -31.1660   26.4520 C   0  0  0  0  0  1  0  0  0  0  0  0
  -26.8300  -29.9910   24.9240 C   0  0  0  0  0  1  0  0  0  0  0  0
  -27.5110  -32.1220   25.9880 C   0  0  0  0  0  1  0  0  0  0  0  0
  1 60  1  0
  1 59  1  0
  3  2  1  0
  3  9  1  0
  5 11  1  0
  7  2  1  0
  7  5  1  0
  7  8  1  0
  8  4  1  0
  8 10  1  0
  9  1  1  0
  9  4  1  0
 10  6  1  0
 10 51  1  0
 11 20  1  0
 11  6  1  0
 12 18  1  0
 12 20  1  0
 13 18  1  0
 14 15  1  0
 14 13  1  0
 16 15  1  0
 16 25  1  0
 16 17  1  0
 18 17  1  0
 19 12  2  0
 20 21  1  0
 22 23  2  0
 23 42  1  0
 23 24  1  0
 24 27  1  0
 25 22  1  0
 25 26  1  0
 26 24  2  0
 27 28  1  0
 28 29  2  0
 30 33  1  0
 30 29  1  0
 31 30  2  0
 32 31  1  0
 32 27  2  0
 33 34  1  0
 34 35  1  0
 35 36  2  0
 37 36  1  0
 37 41  1  0
 38 37  2  0
 39 34  2  0
 39 38  1  0
 40 39  1  0
 42 43  1  0
 43 46  1  0
 43 45  1  0
 44 42  2  0
 47 22  1  0
 48 47  1  0
 49 47  1  0
 51 53  1  0
 51 50  1  0
 53 52  1  0
 54 55  1  0
 56 54  1  0
 57 55  1  0
 58 59  1  0
 58 56  1  0
 59 57  1  0
 60 61  1  0
 62 60  1  0
 63 64  1  0
 63 60  1  0
 65 67  1  0
 65 64  1  0
 66 77  2  0
 67 72  1  0
 68 76  1  0
 68 78  1  0
 69 75  1  0
 69 71  1  0
 70 76  1  0
 71 70  1  0
 72 71  2  0
 73 74  1  0
 73 67  2  0
 74 69  2  0
 75 68  1  0
 76 66  1  0
 78 80  2  0
 79 78  1  0
 81 79  1  0
 82 91  2  0
 82 87  1  0
 83 79  1  0
 83 87  1  0
 84 83  1  0
 85 86  1  0
 85 84  1  0
 86 82  1  0
 87 88  2  0
 88 89  1  0
 90 89  2  0
 91 90  1  0
 92 66  1  0
 92 93  1  0
 92102  1  0
 93 96  1  0
 94 98  1  0
 94 93  1  0
 95 94  2  0
 98 97  1  0
 98100  1  0
100101  1  0
100 99  1  0
102105  1  1
102103  1  0
104102  1  0
M  ISO  4  12 100  20 100  64 101  65 101
M  END
>  <TORSDO>  (19) 
F 23

>  <SCORE>  (19) 
-4.610

>  <name>  (19) 
18

>  <ligand_id>  (19) 
18

>  <original_smiles>  (19) 
[H]c1c([H])c([H])c2c(c1[H])C([H])([H])C([H])([H])C([H])([H])C2([H])N([H])C(=O)C1([H])N(C(=O)C([H])(N([H])C(=O)C([H])(N([H])C([H])([H])[H])C([H])([H])[H])C(C([H])([H])[H])(C([H])([H])[H])C([H])([H])[H])C([H])([H])c2c([H])c(OC([H])([H])C([H])([H])[N+]([H])([H])C([H])(C3([H])C([H])([H])C([H])([H])C([H])([H])C([H])([H])C3([H])[H])C3([H])C([H])([H])C([H])([H])C4([H])C([H])([H])C([H])(N([H])C(=O)N5C([H])([H])C([H])([H])C([H])([H])C([H])(n6nc(-c7c([H])c([H])c(Oc8c([H])c([H])c(F)c([H])c8F)c([H])c7[H])c(C(=O)N([H])[H])c6N([H])[H])C5([H])[H])C([H])([H])C([H])(C([H])(C([H])([H])[H])C([H])([H])C([H])([H])[H])C4([H])C3([H])[H])c([H])c([H])c2C1([H])[H]

>  <smiles>  (19) 
[H]c1c([H])c([H])c2c(c1[H])C([H])([H])C([H])([H])C([H])([H])C2([H])N([H])C(=O)C1([H])N(C(=O)C([H])(N([H])C(=O)C([H])(N([H])C([H])([H])[H])C([H])([H])[H])C(C([H])([H])[H])(C([H])([H])[H])C([H])([H])[H])C([H])([H])c2c([H])c(OC([H])([H])C([H])([H])[N+]([H])([H])C([H])(C3([H])C([H])([H])C([H])([H])C([H])([H])C([H])([H])C3([H])[H])C3([H])C([H])([H])C([H])([H])C4([H])C([H])([H])C([H])(N([H])C(=O)N5C([H])([H])C([H])([H])C([H])([H])C([H])(n6nc(-c7c([H])c([H])c(Oc8c([H])c([H])c(F)c([H])c8F)c([H])c7[H])c(C(=O)N([H])[H])c6N([H])[H])C5([H])[H])C([H])([H])C([H])(C([H])(C([H])([H])[H])C([H])([H])C([H])([H])[H])C4([H])C3([H])[H])c([H])c([H])c2C1([H])[H]

$$$$
19:0:0
     RDKit          3D

 87 96  0  0  1  0  0  0  0  0999 V2000
  -30.4960  -15.3890   20.2900 C   0  0  0  0  0  0  0  0  0  0  0  0
  -30.4830  -12.8850   19.5330 C   0  0  0  0  0  2  0  0  0  0  0  0
  -29.6110  -12.5660   18.2910 C   0  0  0  0  0  2  0  0  0  0  0  0
  -28.1500  -12.3160   18.7000 C   0  0  0  0  0  2  0  0  0  0  0  0
  -27.6530  -13.3520   19.7370 C   0  0  0  0  0  3  0  0  0  0  0  0
  -28.6610  -13.5770   20.8870 C   0  0  0  0  0  2  0  0  0  0  0  0
  -29.9000  -14.0820   20.2680 N   0  0  0  0  0  0  0  0  0  0  0  0
  -31.7140  -15.3080   20.0600 O   0  0  0  0  0  0  0  0  0  0  0  0
  -27.7180  -18.4830   20.4210 C   0  0  0  0  0  2  0  0  0  0  0  0
  -27.7450  -21.3450   20.4560 C   0  0  0  0  0  2  0  0  0  0  0  0
  -29.8570  -21.3540   19.6310 C   0  0  0  0  0  2  0  0  0  0  0  0
  -28.4430  -17.0740   20.8010 C   0  0  0  0  0  2  0  0  0  0  0  0
  -30.3550  -18.2220   19.8400 C   0  0  0  0  0  2  0  0  0  0  0  0
  -28.3730  -19.8650   20.8540 C   0  0  0  0  0  3  0  0  0  0  0  0
  -29.8070  -19.8110   20.3630 C   0  0  0  0  0  3  0  0  0  0  0  0
  -28.8100  -22.5560   20.2150 C   0  0  0  0  0  3  0  0  0  0  0  0
  -29.8300  -16.7540   20.3060 N   0  0  0  0  0  0  0  0  0  0  0  0
  -25.2760  -13.9680   20.4220 C   0  0  0  0  0  0  0  0  0  0  0  0
  -24.1910  -13.2220   20.7820 C   0  0  0  0  0  0  0  0  0  0  0  0
  -24.6270  -11.8610   20.7780 C   0  0  0  0  0  0  0  0  0  0  0  0
  -26.3070  -13.0680   20.2150 N   0  0  0  0  0  0  0  0  0  0  0  0
  -25.9250  -11.7950   20.4960 N   0  0  0  0  0  0  0  0  0  0  0  0
  -23.8640  -10.6210   20.9630 C   0  0  0  0  0  0  0  0  0  0  0  0
  -24.2620   -9.6380   21.8950 C   0  0  0  0  0  3  0  0  0  0  0  0
  -23.4960   -8.4660   22.0670 C   0  0  0  0  0  3  0  0  0  0  0  0
  -22.3160   -8.2680   21.3110 C   0  0  0  0  0  0  0  0  0  0  0  0
  -21.9370   -9.2380   20.3670 C   0  0  0  0  0  3  0  0  0  0  0  0
  -22.7030  -10.4010   20.1910 C   0  0  0  0  0  3  0  0  0  0  0  0
  -21.5240   -7.1480   21.3960 O   0  0  0  0  0  0  0  0  0  0  0  0
  -21.4670   -6.3930   22.5400 C   0  0  0  0  0  0  0  0  0  0  0  0
  -21.0900   -6.9480   23.7830 C   0  0  0  0  0  3  0  0  0  0  0  0
  -20.9750   -6.1220   24.9170 C   0  0  0  0  0  3  0  0  0  0  0  0
  -21.2280   -4.7400   24.8120 C   0  0  0  0  0  0  0  0  0  0  0  0
  -21.5970   -4.1840   23.5740 C   0  0  0  0  0  3  0  0  0  0  0  0
  -21.7140   -5.0090   22.4420 C   0  0  0  0  0  0  0  0  0  0  0  0
  -22.0500   -4.4640   21.2470 F   0  0  0  0  0  0  0  0  0  0  0  0
  -21.1110   -3.9430   25.9000 F   0  0  0  0  0  0  0  0  0  0  0  0
  -22.8010  -13.7390   21.0090 C   0  0  0  0  0  0  0  0  0  0  0  0
  -22.0320  -13.0880   21.8740 N   0  0  0  0  0  0  0  0  0  0  0  0
  -22.4040  -14.7640   20.4550 O   0  0  0  0  0  0  0  0  0  0  0  0
  -22.3580  -12.2600   22.3540 H   0  0  0  0  0  0  0  0  0  0  0  0
  -21.0980  -13.4240   22.0610 H   0  0  0  0  0  0  0  0  0  0  0  0
  -25.4600  -15.3320   20.2250 N   0  0  0  0  0  0  0  0  0  0  0  0
  -24.7060  -15.9990   20.3330 H   0  0  0  0  0  0  0  0  0  0  0  0
  -26.3140  -15.7490   19.8810 H   0  0  0  0  0  0  0  0  0  0  0  0
  -28.2520  -24.1740   19.5280 C   0  0  0  0  0  2  0  0  0  0  0  0
  -28.3990  -25.8200   19.7760 O   0  0  0  0  0  0  0  0  0  0  0  0
  -24.6670  -31.5950   22.9150 C   0  0  0  0  0  0  0  0  0  0  0  0
  -27.3590  -26.9070   19.7070 C   0  0  0  0  0  0  0  0  0  0  0  0
  -23.5030  -30.2190   21.2360 C   0  0  0  0  0  3  0  0  0  0  0  0
  -24.9970  -28.7230   19.7320 C   0  0  0  0  0  0  0  0  0  0  0  0
  -26.0570  -30.5280   21.0700 C   0  0  0  0  0  2  0  0  0  0  0  0
  -26.1740  -29.1430   20.3630 C   0  0  0  0  0  0  0  0  0  0  0  0
  -27.3440  -28.2570   20.3280 C   0  0  0  0  0  3  0  0  0  0  0  0
  -26.1510  -26.6530   19.0170 C   0  0  0  0  0  3  0  0  0  0  0  0
  -25.0120  -27.5030   19.0360 C   0  0  0  0  0  3  0  0  0  0  0  0
  -23.7430  -29.5940   19.8320 C   0  0  0  0  0  2  0  0  0  0  0  0
  -24.7640  -30.8090   21.7930 N   0  0  0  0  0  0  0  0  0  0  0  0
  -23.5760  -31.8230   23.4630 O   0  0  0  0  0  0  0  0  0  0  0  0
  -22.8610  -29.1620   22.1750 C   0  0  0  0  0  0  0  0  0  0  0  0
  -21.5310  -28.9750   22.0840 N   0  0  0  0  0  0  0  0  0  0  0  0
  -23.5670  -28.5130   22.9520 O   0  0  0  0  0  0  0  0  0  0  0  0
  -21.0140  -29.5530   21.4380 H   0  0  0  0  0  0  0  0  0  0  0  0
  -18.1900  -27.6840   22.6660 C   0  0  0  0  0  0  0  0  0  0  0  0
  -20.7550  -27.9820   22.8340 C   0  0  0  0  0  3  0  0  0  0  0  0
  -20.8520  -26.5890   22.1700 C   0  0  0  0  0  2  0  0  0  0  0  0
  -19.7120  -26.3040   21.1880 C   0  0  0  0  0  2  0  0  0  0  0  0
  -18.3590  -26.3830   21.8990 C   0  0  0  0  0  2  0  0  0  0  0  0
  -19.3130  -28.4420   23.0910 C   0  0  0  0  0  0  0  0  0  0  0  0
  -19.1000  -29.6590   23.7750 C   0  0  0  0  0  3  0  0  0  0  0  0
  -17.7940  -30.1180   24.0350 C   0  0  0  0  0  3  0  0  0  0  0  0
  -16.6860  -29.3570   23.6240 C   0  0  0  0  0  3  0  0  0  0  0  0
  -16.8840  -28.1420   22.9460 C   0  0  0  0  0  3  0  0  0  0  0  0
  -25.9230  -32.2630   23.5570 C   0  0  0  0  0  3  0  0  0  0  0  0
  -25.5400  -33.6170   23.9980 N   0  0  0  0  0  0  0  0  0  0  0  0
  -25.7910  -34.7470   23.3230 C   0  0  0  0  0  0  0  0  0  0  0  0
  -26.4290  -34.7610   22.2680 O   0  0  0  0  0  0  0  0  0  0  0  0
  -24.9630  -33.6720   24.8240 H   0  0  0  0  0  0  0  0  0  0  0  0
  -23.9570  -36.4670   23.1830 C   0  0  0  0  0  1  0  0  0  0  0  0
  -25.2530  -36.0680   23.9080 C   0  0  0  0  0  3  0  0  0  0  0  0
  -27.3730  -37.0120   24.7160 C   0  0  0  0  0  1  0  0  0  0  0  0
  -26.2220  -37.1840   23.8350 N   0  0  0  0  0  0  0  0  0  0  0  0
  -25.7730  -38.0680   24.0640 H   0  0  0  0  0  0  0  0  0  0  0  0
  -26.5080  -31.4420   24.7720 C   0  0  1  0  0  0  0  0  0  0  0  0
  -25.4590  -31.0900   25.8530 C   0  0  0  0  0  1  0  0  0  0  0  0
  -27.1420  -30.1170   24.2940 C   0  0  0  0  0  1  0  0  0  0  0  0
  -27.6390  -32.2490   25.4530 C   0  0  0  0  0  1  0  0  0  0  0  0
  1 17  1  0
  2  7  1  0
  3  4  1  0
  3  2  1  0
  5  4  1  0
  5 21  1  0
  5  6  1  0
  7  1  1  0
  7  6  1  0
  8  1  2  0
  9 12  1  0
 10 14  1  0
 11 16  1  0
 13 17  1  0
 13 15  1  0
 14  9  1  0
 15 11  1  0
 15 14  1  0
 16 46  1  0
 16 10  1  0
 17 12  1  0
 18 19  2  0
 19 38  1  0
 20 19  1  0
 20 23  1  0
 21 18  1  0
 21 22  1  0
 22 20  2  0
 23 24  1  0
 24 25  2  0
 26 29  1  0
 26 25  1  0
 27 26  2  0
 28 27  1  0
 28 23  2  0
 29 30  1  0
 30 31  1  0
 31 32  2  0
 33 32  1  0
 33 37  1  0
 34 33  2  0
 35 30  2  0
 35 34  1  0
 36 35  1  0
 38 39  1  0
 39 42  1  0
 39 41  1  0
 40 38  2  0
 43 44  1  0
 43 18  1  0
 45 43  1  0
 46 47  1  0
 48 59  2  0
 49 47  1  0
 49 54  1  0
 50 58  1  0
 50 60  1  0
 51 57  1  0
 51 53  1  0
 52 58  1  0
 53 52  1  0
 54 53  2  0
 55 56  1  0
 55 49  2  0
 56 51  2  0
 57 50  1  0
 58 48  1  0
 60 62  2  0
 61 60  1  0
 63 61  1  0
 64 73  2  0
 64 69  1  0
 65 61  1  0
 65 69  1  0
 66 65  1  0
 67 68  1  0
 67 66  1  0
 68 64  1  0
 69 70  2  0
 70 71  1  0
 72 71  2  0
 73 72  1  0
 74 48  1  0
 74 75  1  0
 74 84  1  0
 75 78  1  0
 76 80  1  0
 76 75  1  0
 77 76  2  0
 80 79  1  0
 82 80  1  0
 82 83  1  0
 82 81  1  0
 84 87  1  1
 84 85  1  0
 86 84  1  0
M  ISO  4   1 100  17 100  46 101  47 101
M  END
>  <TORSDO>  (20) 
F 16

>  <SCORE>  (20) 
-15.341

>  <name>  (20) 
19

>  <ligand_id>  (20) 
19

>  <original_smiles>  (20) 
[H]c1c([H])c([H])c2c(c1[H])C([H])([H])C([H])([H])C([H])([H])C2([H])N([H])C(=O)C1([H])N(C(=O)C([H])(N([H])C(=O)C([H])(N([H])C([H])([H])[H])C([H])([H])[H])C(C([H])([H])[H])(C([H])([H])[H])C([H])([H])[H])C([H])([H])c2c([H])c(OC([H])([H])C3([H])C([H])([H])C4([H])C([H])([H])N(C(=O)N5C([H])([H])C([H])([H])C([H])([H])C([H])(n6nc(-c7c([H])c([H])c(Oc8c([H])c([H])c(F)c([H])c8F)c([H])c7[H])c(C(=O)N([H])[H])c6N([H])[H])C5([H])[H])C([H])([H])C([H])([H])C4([H])C3([H])[H])c([H])c([H])c2C1([H])[H]

>  <smiles>  (20) 
[H]c1c([H])c([H])c2c(c1[H])C([H])([H])C([H])([H])C([H])([H])C2([H])N([H])C(=O)C1([H])N(C(=O)C([H])(N([H])C(=O)C([H])(N([H])C([H])([H])[H])C([H])([H])[H])C(C([H])([H])[H])(C([H])([H])[H])C([H])([H])[H])C([H])([H])c2c([H])c(OC([H])([H])C3([H])C([H])([H])C4([H])C([H])([H])N(C(=O)N5C([H])([H])C([H])([H])C([H])([H])C([H])(n6nc(-c7c([H])c([H])c(Oc8c([H])c([H])c(F)c([H])c8F)c([H])c7[H])c(C(=O)N([H])[H])c6N([H])[H])C5([H])[H])C([H])([H])C([H])([H])C4([H])C3([H])[H])c([H])c([H])c2C1([H])[H]

$$$$
20:0:0
     RDKit          3D

 87 95  0  0  1  0  0  0  0  0999 V2000
  -28.4030  -21.3220   20.2450 C   0  0  0  0  0  2  0  0  0  0  0  0
  -30.5070  -15.1840   20.2380 C   0  0  0  0  0  0  0  0  0  0  0  0
  -30.3910  -12.7830   19.3440 C   0  0  0  0  0  2  0  0  0  0  0  0
  -29.4500  -12.6340   18.1250 C   0  0  0  0  0  2  0  0  0  0  0  0
  -28.0080  -12.3800   18.5940 C   0  0  0  0  0  2  0  0  0  0  0  0
  -27.5860  -13.3390   19.7380 C   0  0  0  0  0  3  0  0  0  0  0  0
  -28.6540  -13.4630   20.8430 C   0  0  0  0  0  2  0  0  0  0  0  0
  -29.8850  -13.9190   20.1860 N   0  0  0  0  0  0  0  0  0  0  0  0
  -31.7240  -15.1540   20.0100 O   0  0  0  0  0  0  0  0  0  0  0  0
  -29.2130  -17.2560   19.2380 C   0  0  0  0  0  2  0  0  0  0  0  0
  -30.4780  -17.6630   21.1220 C   0  0  0  0  0  2  0  0  0  0  0  0
  -28.5220  -18.7510   19.4030 C   0  0  0  0  0  2  0  0  0  0  0  0
  -29.7730  -19.1530   21.3100 C   0  0  0  0  0  2  0  0  0  0  0  0
  -29.8330  -16.4790   20.3900 N   0  0  0  0  0  0  0  0  0  0  0  0
  -29.2440  -19.9140   20.0970 N   0  0  2  0  0  4  0  0  0  0  0  0
  -30.0400  -20.1270   19.5140 H   0  0  0  0  0  0  0  0  0  0  0  0
  -25.2340  -13.8880   20.5610 C   0  0  0  0  0  0  0  0  0  0  0  0
  -24.1780  -13.1040   20.9350 C   0  0  0  0  0  0  0  0  0  0  0  0
  -24.6450  -11.7550   20.8640 C   0  0  0  0  0  0  0  0  0  0  0  0
  -26.2690  -13.0170   20.2730 N   0  0  0  0  0  0  0  0  0  0  0  0
  -25.9290  -11.7270   20.5240 N   0  0  0  0  0  0  0  0  0  0  0  0
  -23.9230  -10.4880   21.0410 C   0  0  0  0  0  0  0  0  0  0  0  0
  -24.3520   -9.5150   21.9700 C   0  0  0  0  0  3  0  0  0  0  0  0
  -23.6270   -8.3150   22.1380 C   0  0  0  0  0  3  0  0  0  0  0  0
  -22.4580   -8.0810   21.3750 C   0  0  0  0  0  0  0  0  0  0  0  0
  -22.0480   -9.0420   20.4360 C   0  0  0  0  0  3  0  0  0  0  0  0
  -22.7740  -10.2330   20.2660 C   0  0  0  0  0  3  0  0  0  0  0  0
  -21.7030   -6.9350   21.4510 O   0  0  0  0  0  0  0  0  0  0  0  0
  -21.6140   -6.2080   22.6110 C   0  0  0  0  0  0  0  0  0  0  0  0
  -21.1240   -6.7740   23.8090 C   0  0  0  0  0  3  0  0  0  0  0  0
  -20.9830   -5.9730   24.9600 C   0  0  0  0  0  3  0  0  0  0  0  0
  -21.3220   -4.6070   24.9130 C   0  0  0  0  0  0  0  0  0  0  0  0
  -21.8060   -4.0420   23.7200 C   0  0  0  0  0  3  0  0  0  0  0  0
  -21.9480   -4.8390   22.5720 C   0  0  0  0  0  0  0  0  0  0  0  0
  -22.3930   -4.2840   21.4200 F   0  0  0  0  0  0  0  0  0  0  0  0
  -21.1800   -3.8350   26.0170 F   0  0  0  0  0  0  0  0  0  0  0  0
  -22.7870  -13.5760   21.2400 C   0  0  0  0  0  0  0  0  0  0  0  0
  -22.0770  -12.8670   22.1100 N   0  0  0  0  0  0  0  0  0  0  0  0
  -22.3400  -14.6080   20.7430 O   0  0  0  0  0  0  0  0  0  0  0  0
  -22.4530  -12.0330   22.5370 H   0  0  0  0  0  0  0  0  0  0  0  0
  -21.1460  -13.1690   22.3590 H   0  0  0  0  0  0  0  0  0  0  0  0
  -25.3940  -15.2640   20.4130 N   0  0  0  0  0  0  0  0  0  0  0  0
  -24.6320  -15.9150   20.5730 H   0  0  0  0  0  0  0  0  0  0  0  0
  -26.2450  -15.7150   20.1060 H   0  0  0  0  0  0  0  0  0  0  0  0
  -28.9020  -23.0030   20.2450 C   0  0  0  0  0  3  0  0  0  0  0  0
  -27.9120  -24.4510   20.1180 C   0  0  0  0  0  3  0  0  0  0  0  0
  -28.2070  -26.0310   20.2460 O   0  0  0  0  0  0  0  0  0  0  0  0
  -24.6500  -31.8880   23.2520 C   0  0  0  0  0  0  0  0  0  0  0  0
  -27.1840  -27.0860   20.1970 C   0  0  0  0  0  0  0  0  0  0  0  0
  -23.4430  -30.5070   21.6100 C   0  0  0  0  0  3  0  0  0  0  0  0
  -24.8800  -28.9170   20.1750 C   0  0  0  0  0  0  0  0  0  0  0  0
  -26.0060  -30.7310   21.4500 C   0  0  0  0  0  2  0  0  0  0  0  0
  -26.0690  -29.3330   20.7860 C   0  0  0  0  0  0  0  0  0  0  0  0
  -27.2200  -28.4370   20.7740 C   0  0  0  0  0  3  0  0  0  0  0  0
  -25.9630  -26.8000   19.5470 C   0  0  0  0  0  3  0  0  0  0  0  0
  -24.8460  -27.6680   19.5380 C   0  0  0  0  0  3  0  0  0  0  0  0
  -23.6630  -29.8340   20.2280 C   0  0  0  0  0  2  0  0  0  0  0  0
  -24.7210  -31.0670   22.1580 N   0  0  0  0  0  0  0  0  0  0  0  0
  -23.5650  -32.1780   23.7800 O   0  0  0  0  0  0  0  0  0  0  0  0
  -22.7550  -29.5030   22.5700 C   0  0  0  0  0  0  0  0  0  0  0  0
  -21.4250  -29.3370   22.4420 N   0  0  0  0  0  0  0  0  0  0  0  0
  -23.4210  -28.8740   23.3950 O   0  0  0  0  0  0  0  0  0  0  0  0
  -20.9430  -29.8950   21.7520 H   0  0  0  0  0  0  0  0  0  0  0  0
  -18.0410  -28.1350   22.9430 C   0  0  0  0  0  0  0  0  0  0  0  0
  -20.6010  -28.3990   23.2100 C   0  0  0  0  0  3  0  0  0  0  0  0
  -20.7010  -26.9670   22.6340 C   0  0  0  0  0  2  0  0  0  0  0  0
  -19.6000  -26.6460   21.6190 C   0  0  0  0  0  2  0  0  0  0  0  0
  -18.2180  -26.7880   22.2620 C   0  0  0  0  0  2  0  0  0  0  0  0
  -19.1590  -28.8980   23.3740 C   0  0  0  0  0  0  0  0  0  0  0  0
  -18.9370  -30.1560   23.9730 C   0  0  0  0  0  3  0  0  0  0  0  0
  -17.6310  -30.6530   24.1460 C   0  0  0  0  0  3  0  0  0  0  0  0
  -16.5290  -29.8880   23.7280 C   0  0  0  0  0  3  0  0  0  0  0  0
  -16.7340  -28.6310   23.1320 C   0  0  0  0  0  3  0  0  0  0  0  0
  -25.9290  -32.5180   23.8820 C   0  0  0  0  0  3  0  0  0  0  0  0
  -25.6210  -33.9190   24.2190 N   0  0  0  0  0  0  0  0  0  0  0  0
  -25.9290  -34.9760   23.4580 C   0  0  0  0  0  0  0  0  0  0  0  0
  -26.5680  -34.8770   22.4070 O   0  0  0  0  0  0  0  0  0  0  0  0
  -25.0480  -34.0690   25.0370 H   0  0  0  0  0  0  0  0  0  0  0  0
  -24.1770  -36.7640   23.1830 C   0  0  0  0  0  1  0  0  0  0  0  0
  -25.4580  -36.3650   23.9340 C   0  0  0  0  0  3  0  0  0  0  0  0
  -27.6220  -37.2680   24.6640 C   0  0  0  0  0  1  0  0  0  0  0  0
  -26.4780  -37.4240   23.7690 N   0  0  0  0  0  0  0  0  0  0  0  0
  -26.0730  -38.3430   23.9280 H   0  0  0  0  0  0  0  0  0  0  0  0
  -26.4320  -31.7480   25.1660 C   0  0  1  0  0  0  0  0  0  0  0  0
  -25.3310  -31.5220   26.2290 C   0  0  0  0  0  1  0  0  0  0  0  0
  -27.0090  -30.3640   24.7890 C   0  0  0  0  0  1  0  0  0  0  0  0
  -27.5840  -32.5370   25.8320 C   0  0  0  0  0  1  0  0  0  0  0  0
  1 45  1  0
  2 14  1  0
  3  8  1  0
  4  5  1  0
  4  3  1  0
  6  5  1  0
  6 20  1  0
  6  7  1  0
  8  2  1  0
  8  7  1  0
  9  2  2  0
 10 12  1  0
 10 14  1  0
 11 13  1  0
 12 15  1  0
 14 11  1  0
 15  1  1  0
 15 13  1  0
 15 16  1  6
 17 18  2  0
 18 37  1  0
 19 18  1  0
 19 22  1  0
 20 21  1  0
 20 17  1  0
 21 19  2  0
 22 23  1  0
 23 24  2  0
 25 28  1  0
 25 24  1  0
 26 25  2  0
 27 26  1  0
 27 22  2  0
 28 29  1  0
 29 30  1  0
 30 31  2  0
 32 31  1  0
 32 36  1  0
 33 32  2  0
 34 29  2  0
 34 33  1  0
 35 34  1  0
 37 38  1  0
 38 41  1  0
 38 40  1  0
 39 37  2  0
 42 17  1  0
 42 43  1  0
 44 42  1  0
 46 45  2  0
 46 47  1  0
 48 59  2  0
 49 47  1  0
 49 54  1  0
 50 58  1  0
 50 60  1  0
 51 57  1  0
 51 53  1  0
 52 58  1  0
 53 52  1  0
 54 53  2  0
 55 49  2  0
 56 55  1  0
 56 51  2  0
 57 50  1  0
 58 48  1  0
 60 62  2  0
 61 60  1  0
 63 61  1  0
 64 73  2  0
 64 69  1  0
 65 61  1  0
 65 69  1  0
 66 65  1  0
 67 68  1  0
 67 66  1  0
 68 64  1  0
 69 70  2  0
 70 71  1  0
 72 71  2  0
 73 72  1  0
 74 48  1  0
 74 75  1  0
 74 84  1  0
 75 78  1  0
 76 80  1  0
 76 75  1  0
 77 76  2  0
 80 79  1  0
 82 83  1  0
 82 80  1  0
 82 81  1  0
 84 87  1  1
 84 85  1  0
 86 84  1  0
M  ISO  4   2 100  14 100  46 101  47 101
M  END
>  <TORSDO>  (21) 
F 18

>  <SCORE>  (21) 
-15.663

>  <name>  (21) 
20

>  <ligand_id>  (21) 
20

>  <original_smiles>  (21) 
[H]c1c([H])c([H])c2c(c1[H])C([H])([H])C([H])([H])C([H])([H])C2([H])N([H])C(=O)C1([H])N(C(=O)C([H])(N([H])C(=O)C([H])(N([H])C([H])([H])[H])C([H])([H])[H])C(C([H])([H])[H])(C([H])([H])[H])C([H])([H])[H])C([H])([H])c2c([H])c(OC([H])([H])C([H])([H])C([H])([H])[N+]3([H])C([H])([H])C([H])([H])N(C(=O)N4C([H])([H])C([H])([H])C([H])([H])C([H])(n5nc(-c6c([H])c([H])c(Oc7c([H])c([H])c(F)c([H])c7F)c([H])c6[H])c(C(=O)N([H])[H])c5N([H])[H])C4([H])[H])C([H])([H])C3([H])[H])c([H])c([H])c2C1([H])[H]

>  <smiles>  (21) 
[H]c1c([H])c([H])c2c(c1[H])C([H])([H])C([H])([H])C([H])([H])C2([H])N([H])C(=O)C1([H])N(C(=O)C([H])(N([H])C(=O)C([H])(N([H])C([H])([H])[H])C([H])([H])[H])C(C([H])([H])[H])(C([H])([H])[H])C([H])([H])[H])C([H])([H])c2c([H])c(OC([H])([H])C([H])([H])C([H])([H])[N+]3([H])C([H])([H])C([H])([H])N(C(=O)N4C([H])([H])C([H])([H])C([H])([H])C([H])(n5nc(-c6c([H])c([H])c(Oc7c([H])c([H])c(F)c([H])c7F)c([H])c6[H])c(C(=O)N([H])[H])c5N([H])[H])C4([H])[H])C([H])([H])C3([H])[H])c([H])c([H])c2C1([H])[H]

$$$$
21:0:0
     RDKit          3D

103110  0  0  1  0  0  0  0  0999 V2000
  -30.0590  -17.7860   19.2840 C   0  0  0  0  0  3  0  0  0  0  0  0
  -29.5840  -16.3310   19.5930 C   0  0  0  0  0  2  0  0  0  0  0  0
  -30.9190  -14.4350   20.4540 C   0  0  0  0  0  0  0  0  0  0  0  0
  -30.6190  -12.1990   19.4820 C   0  0  0  0  0  2  0  0  0  0  0  0
  -29.7140  -12.3660   18.2470 C   0  0  0  0  0  2  0  0  0  0  0  0
  -28.2220  -12.3020   18.6170 C   0  0  0  0  0  2  0  0  0  0  0  0
  -27.8720  -13.1830   19.8430 C   0  0  0  0  0  3  0  0  0  0  0  0
  -28.9000  -13.0030   20.9890 C   0  0  0  0  0  2  0  0  0  0  0  0
  -30.2470  -13.2470   20.4460 N   0  0  0  0  0  0  0  0  0  0  0  0
  -32.0710  -14.5620   20.0460 O   0  0  0  0  0  0  0  0  0  0  0  0
  -30.1600  -15.5230   20.6910 N   0  0  0  0  0  0  0  0  0  0  0  0
  -29.4660  -15.3470   21.4040 H   0  0  0  0  0  0  0  0  0  0  0  0
  -25.4800  -13.8700   20.4930 C   0  0  0  0  0  0  0  0  0  0  0  0
  -24.3800  -13.1310   20.8320 C   0  0  0  0  0  0  0  0  0  0  0  0
  -24.7990  -11.7660   20.8140 C   0  0  0  0  0  0  0  0  0  0  0  0
  -26.5020  -12.9550   20.2920 N   0  0  0  0  0  0  0  0  0  0  0  0
  -26.0960  -11.6860   20.5440 N   0  0  0  0  0  0  0  0  0  0  0  0
  -24.0310  -10.5270   20.9850 C   0  0  0  0  0  0  0  0  0  0  0  0
  -24.4300   -9.5360   21.9100 C   0  0  0  0  0  3  0  0  0  0  0  0
  -23.6700   -8.3580   22.0700 C   0  0  0  0  0  3  0  0  0  0  0  0
  -22.4950   -8.1640   21.3060 C   0  0  0  0  0  0  0  0  0  0  0  0
  -22.1160   -9.1420   20.3700 C   0  0  0  0  0  3  0  0  0  0  0  0
  -22.8770  -10.3110   20.2080 C   0  0  0  0  0  3  0  0  0  0  0  0
  -21.7070   -7.0420   21.3770 O   0  0  0  0  0  0  0  0  0  0  0  0
  -21.6340   -6.2840   22.5180 C   0  0  0  0  0  0  0  0  0  0  0  0
  -21.2340   -6.8370   23.7530 C   0  0  0  0  0  3  0  0  0  0  0  0
  -21.1020   -6.0080   24.8850 C   0  0  0  0  0  3  0  0  0  0  0  0
  -21.3640   -4.6290   24.7830 C   0  0  0  0  0  0  0  0  0  0  0  0
  -21.7580   -4.0760   23.5530 C   0  0  0  0  0  3  0  0  0  0  0  0
  -21.8910   -4.9020   22.4220 C   0  0  0  0  0  0  0  0  0  0  0  0
  -22.2510   -4.3610   21.2340 F   0  0  0  0  0  0  0  0  0  0  0  0
  -21.2310   -3.8310   25.8690 F   0  0  0  0  0  0  0  0  0  0  0  0
  -22.9920  -13.6510   21.0700 C   0  0  0  0  0  0  0  0  0  0  0  0
  -22.2300  -12.9900   21.9340 N   0  0  0  0  0  0  0  0  0  0  0  0
  -22.5920  -14.6790   20.5240 O   0  0  0  0  0  0  0  0  0  0  0  0
  -22.5670  -12.1580   22.3960 H   0  0  0  0  0  0  0  0  0  0  0  0
  -21.2970  -13.3190   22.1360 H   0  0  0  0  0  0  0  0  0  0  0  0
  -25.6900  -15.2350   20.3190 N   0  0  0  0  0  0  0  0  0  0  0  0
  -24.9380  -15.9100   20.4000 H   0  0  0  0  0  0  0  0  0  0  0  0
  -26.5660  -15.6480   20.0310 H   0  0  0  0  0  0  0  0  0  0  0  0
  -31.4640  -17.9100   18.6200 C   0  0  0  0  0  2  0  0  0  0  0  0
  -31.6390  -17.0810   17.3050 C   0  0  0  0  0  3  0  0  0  0  0  0
  -31.8940  -17.9600   16.1250 N   0  0  0  0  0  4  0  0  0  0  0  0
  -31.1740  -18.6650   16.1060 H   0  0  0  0  0  0  0  0  0  0  0  0
  -32.7800  -18.4300   16.2330 H   0  0  0  0  0  0  0  0  0  0  0  0
  -31.8650  -17.2650   14.8150 C   0  0  0  0  0  2  0  0  0  0  0  0
  -31.8970  -18.1920   13.5900 C   0  0  0  0  0  2  0  0  0  0  0  0
  -31.7550  -17.3500   12.3040 C   0  0  0  0  0  2  0  0  0  0  0  0
  -31.9770  -18.1090   10.9940 C   0  0  0  0  0  0  0  0  0  0  0  0
  -32.0250  -19.3410   10.9560 O   0  0  0  0  0  0  0  0  0  0  0  0
  -33.0390  -17.8880    8.6780 C   0  0  0  0  0  1  0  0  0  0  0  0
  -30.7400  -16.9050    9.1360 C   0  0  0  0  0  1  0  0  0  0  0  0
  -32.1150  -17.2490    9.7300 C   0  0  0  0  0  3  0  0  0  0  0  0
  -32.7250  -15.9820   17.4410 C   0  0  0  0  0  2  0  0  0  0  0  0
  -33.7020  -13.8570   16.3970 C   0  0  0  0  0  1  0  0  0  0  0  0
  -32.4370  -14.6900   16.6410 C   0  0  0  0  0  2  0  0  0  0  0  0
  -29.7690  -18.8810   20.3580 C   0  0  0  0  0  2  0  0  0  0  0  0
  -29.4880  -20.2690   19.6940 C   0  0  0  0  0  2  0  0  0  0  0  0
  -29.4500  -21.5440   20.5840 C   0  0  0  0  0  2  0  0  0  0  0  0
  -28.8920  -22.7630   19.7890 C   0  0  0  0  0  2  0  0  0  0  0  0
  -29.1350  -24.2020   20.3450 C   0  0  0  0  0  2  0  0  0  0  0  0
  -28.1050  -25.2090   19.7590 C   0  0  0  0  0  2  0  0  0  0  0  0
  -28.2600  -26.6130   20.0860 O   0  0  0  0  0  0  0  0  0  0  0  0
  -24.5540  -31.8690   23.2160 C   0  0  0  0  0  0  0  0  0  0  0  0
  -27.1090  -27.3970   20.0570 C   0  0  0  0  0  0  0  0  0  0  0  0
  -23.3140  -30.4940   21.5800 C   0  0  0  0  0  3  0  0  0  0  0  0
  -24.7330  -28.9620   20.1160 C   0  0  0  0  0  0  0  0  0  0  0  0
  -25.8450  -30.8200   21.3560 C   0  0  0  0  0  2  0  0  0  0  0  0
  -25.9070  -29.4520   20.7020 C   0  0  0  0  0  0  0  0  0  0  0  0
  -27.0940  -28.6770   20.6730 C   0  0  0  0  0  3  0  0  0  0  0  0
  -25.9120  -26.9510   19.4390 C   0  0  0  0  0  3  0  0  0  0  0  0
  -24.7340  -27.7140   19.4800 C   0  0  0  0  0  3  0  0  0  0  0  0
  -23.4980  -29.8310   20.1910 C   0  0  0  0  0  2  0  0  0  0  0  0
  -24.5900  -31.0760   22.1080 N   0  0  0  0  0  0  0  0  0  0  0  0
  -23.4830  -32.1470   23.7730 O   0  0  0  0  0  0  0  0  0  0  0  0
  -22.6660  -29.4690   22.5400 C   0  0  0  0  0  0  0  0  0  0  0  0
  -21.3390  -29.2980   22.4290 N   0  0  0  0  0  0  0  0  0  0  0  0
  -23.3540  -28.8310   23.3430 O   0  0  0  0  0  0  0  0  0  0  0  0
  -20.8450  -29.8610   21.7510 H   0  0  0  0  0  0  0  0  0  0  0  0
  -17.9620  -28.1140   22.9470 C   0  0  0  0  0  0  0  0  0  0  0  0
  -20.5230  -28.3620   23.2020 C   0  0  0  0  0  3  0  0  0  0  0  0
  -20.6150  -26.9320   22.6210 C   0  0  0  0  0  2  0  0  0  0  0  0
  -19.5050  -26.6180   21.6130 C   0  0  0  0  0  2  0  0  0  0  0  0
  -18.1280  -26.7670   22.2670 C   0  0  0  0  0  2  0  0  0  0  0  0
  -19.0860  -28.8700   23.3710 C   0  0  0  0  0  0  0  0  0  0  0  0
  -18.8750  -30.1330   23.9660 C   0  0  0  0  0  3  0  0  0  0  0  0
  -17.5740  -30.6390   24.1440 C   0  0  0  0  0  3  0  0  0  0  0  0
  -16.4640  -29.8790   23.7340 C   0  0  0  0  0  3  0  0  0  0  0  0
  -16.6590  -28.6200   23.1410 C   0  0  0  0  0  3  0  0  0  0  0  0
  -25.8550  -32.4830   23.8230 C   0  0  0  0  0  3  0  0  0  0  0  0
  -25.5660  -33.8820   24.1630 N   0  0  0  0  0  0  0  0  0  0  0  0
  -25.9130  -34.9340   23.4100 C   0  0  0  0  0  0  0  0  0  0  0  0
  -26.5820  -34.8270   22.3780 O   0  0  0  0  0  0  0  0  0  0  0  0
  -24.9750  -34.0410   24.9660 H   0  0  0  0  0  0  0  0  0  0  0  0
  -24.2090  -36.7520   23.0650 C   0  0  0  0  0  1  0  0  0  0  0  0
  -25.4440  -36.3260   23.8740 C   0  0  0  0  0  3  0  0  0  0  0  0
  -27.5930  -37.1760   24.7080 C   0  0  0  0  0  1  0  0  0  0  0  0
  -26.4910  -37.3660   23.7670 N   0  0  0  0  0  0  0  0  0  0  0  0
  -26.0960  -38.2900   23.9230 H   0  0  0  0  0  0  0  0  0  0  0  0
  -26.3800  -31.6980   25.0880 C   0  0  1  0  0  0  0  0  0  0  0  0
  -25.3010  -31.4750   26.1730 C   0  0  0  0  0  1  0  0  0  0  0  0
  -26.9380  -30.3130   24.6820 C   0  0  0  0  0  1  0  0  0  0  0  0
  -27.5510  -32.4760   25.7350 C   0  0  0  0  0  1  0  0  0  0  0  0
  1 41  1  0
  1  2  1  0
  1 57  1  0
  2 11  1  0
  3 11  1  0
  4  9  1  0
  5  6  1  0
  5  4  1  0
  7  6  1  0
  7 16  1  0
  7  8  1  0
  9  3  1  0
  9  8  1  0
 10  3  2  0
 11 12  1  0
 13 14  2  0
 14 33  1  0
 15 14  1  0
 15 18  1  0
 16 13  1  0
 16 17  1  0
 17 15  2  0
 18 19  1  0
 19 20  2  0
 21 24  1  0
 21 20  1  0
 22 21  2  0
 23 22  1  0
 23 18  2  0
 24 25  1  0
 25 26  1  0
 26 27  2  0
 28 27  1  0
 28 32  1  0
 29 28  2  0
 30 25  2  0
 30 29  1  0
 31 30  1  0
 33 34  1  0
 34 37  1  0
 34 36  1  0
 35 33  2  0
 38 39  1  0
 38 13  1  0
 40 38  1  0
 42 54  1  0
 42 41  1  0
 43 45  1  0
 43 42  1  0
 44 43  1  0
 46 43  1  0
 47 46  1  0
 48 47  1  0
 49 48  1  0
 50 49  2  0
 51 53  1  0
 52 53  1  0
 53 49  1  0
 55 56  1  0
 56 54  1  0
 58 57  1  0
 58 59  1  0
 60 61  1  0
 60 59  1  0
 62 63  1  0
 62 61  1  0
 64 75  2  0
 65 63  1  0
 65 70  1  0
 66 74  1  0
 66 76  1  0
 67 73  1  0
 67 69  1  0
 68 74  1  0
 69 68  1  0
 70 69  2  0
 71 72  1  0
 71 65  2  0
 72 67  2  0
 73 66  1  0
 74 64  1  0
 76 78  2  0
 77 76  1  0
 79 77  1  0
 80 89  2  0
 80 85  1  0
 81 77  1  0
 81 85  1  0
 82 81  1  0
 83 84  1  0
 83 82  1  0
 84 80  1  0
 85 86  2  0
 86 87  1  0
 88 87  2  0
 89 88  1  0
 90 64  1  0
 90 91  1  0
 90100  1  0
 91 94  1  0
 92 96  1  0
 92 91  1  0
 93 92  2  0
 96 95  1  0
 98 96  1  0
 98 99  1  0
 98 97  1  0
100103  1  1
100101  1  0
102100  1  0
M  ISO  4   3 100  11 100  62 101  63 101
M  END
>  <TORSDO>  (22) 
F 33

>  <SCORE>  (22) 
-10.417

>  <name>  (22) 
21

>  <ligand_id>  (22) 
21

>  <original_smiles>  (22) 
[H]c1c([H])c([H])c2c(c1[H])C([H])([H])C([H])([H])C([H])([H])C2([H])N([H])C(=O)C1([H])N(C(=O)C([H])(N([H])C(=O)C([H])(N([H])C([H])([H])[H])C([H])([H])[H])C(C([H])([H])[H])(C([H])([H])[H])C([H])([H])[H])C([H])([H])c2c([H])c(OC([H])([H])C([H])([H])C([H])([H])C([H])([H])C([H])([H])C([H])([H])C([H])(C([H])([H])N([H])C(=O)N3C([H])([H])C([H])([H])C([H])([H])C([H])(n4nc(-c5c([H])c([H])c(Oc6c([H])c([H])c(F)c([H])c6F)c([H])c5[H])c(C(=O)N([H])[H])c4N([H])[H])C3([H])[H])C([H])([H])C([H])(C([H])([H])C([H])([H])C([H])([H])[H])[N+]([H])([H])C([H])([H])C([H])([H])C([H])([H])C(=O)C([H])(C([H])([H])[H])C([H])([H])[H])c([H])c([H])c2C1([H])[H]

>  <smiles>  (22) 
[H]c1c([H])c([H])c2c(c1[H])C([H])([H])C([H])([H])C([H])([H])C2([H])N([H])C(=O)C1([H])N(C(=O)C([H])(N([H])C(=O)C([H])(N([H])C([H])([H])[H])C([H])([H])[H])C(C([H])([H])[H])(C([H])([H])[H])C([H])([H])[H])C([H])([H])c2c([H])c(OC([H])([H])C([H])([H])C([H])([H])C([H])([H])C([H])([H])C([H])([H])C([H])(C([H])([H])N([H])C(=O)N3C([H])([H])C([H])([H])C([H])([H])C([H])(n4nc(-c5c([H])c([H])c(Oc6c([H])c([H])c(F)c([H])c6F)c([H])c5[H])c(C(=O)N([H])[H])c4N([H])[H])C3([H])[H])C([H])([H])C([H])(C([H])([H])C([H])([H])C([H])([H])[H])[N+]([H])([H])C([H])([H])C([H])([H])C([H])([H])C(=O)C([H])(C([H])([H])[H])C([H])([H])[H])c([H])c([H])c2C1([H])[H]

$$$$
22:0:0
     RDKit          3D

 93102  0  0  1  0  0  0  0  0999 V2000
  -28.5140  -22.2210   20.0540 C   0  0  0  0  0  3  0  0  0  0  0  0
  -26.1650  -22.4960   19.0420 C   0  0  0  0  0  1  0  0  0  0  0  0
  -27.6450  -22.1640   18.7770 C   0  0  0  0  0  2  0  0  0  0  0  0
  -30.1900  -23.8930   21.2170 C   0  0  0  0  0  1  0  0  0  0  0  0
  -28.8260  -23.7760   20.5200 C   0  0  0  0  0  3  0  0  0  0  0  0
  -28.6060  -25.0800   19.5740 C   0  0  0  0  0  2  0  0  0  0  0  0
  -28.4630  -26.4590   20.1660 O   0  0  0  0  0  0  0  0  0  0  0  0
  -24.4640  -31.7190   23.1730 C   0  0  0  0  0  0  0  0  0  0  0  0
  -27.2990  -27.2610   20.0950 C   0  0  0  0  0  0  0  0  0  0  0  0
  -23.3480  -30.3140   21.4750 C   0  0  0  0  0  3  0  0  0  0  0  0
  -24.8820  -28.8270   20.0650 C   0  0  0  0  0  0  0  0  0  0  0  0
  -25.8850  -30.7000   21.3700 C   0  0  0  0  0  2  0  0  0  0  0  0
  -26.0230  -29.3330   20.6990 C   0  0  0  0  0  0  0  0  0  0  0  0
  -27.2290  -28.5620   20.7040 C   0  0  0  0  0  3  0  0  0  0  0  0
  -26.1210  -26.8130   19.4520 C   0  0  0  0  0  3  0  0  0  0  0  0
  -24.9360  -27.5740   19.4370 C   0  0  0  0  0  3  0  0  0  0  0  0
  -23.6220  -29.6670   20.0920 C   0  0  0  0  0  2  0  0  0  0  0  0
  -24.5830  -30.9300   22.0630 N   0  0  0  0  0  0  0  0  0  0  0  0
  -23.3580  -31.9540   23.6820 O   0  0  0  0  0  0  0  0  0  0  0  0
  -22.6880  -29.2640   22.4020 C   0  0  0  0  0  0  0  0  0  0  0  0
  -21.3670  -29.0650   22.2490 N   0  0  0  0  0  0  0  0  0  0  0  0
  -23.3650  -28.6310   23.2160 O   0  0  0  0  0  0  0  0  0  0  0  0
  -20.8800  -29.6290   21.5670 H   0  0  0  0  0  0  0  0  0  0  0  0
  -18.0050  -27.8010   22.6800 C   0  0  0  0  0  0  0  0  0  0  0  0
  -20.5560  -28.0930   22.9830 C   0  0  0  0  0  3  0  0  0  0  0  0
  -20.6860  -26.6800   22.3670 C   0  0  0  0  0  2  0  0  0  0  0  0
  -19.6000  -26.3720   21.3320 C   0  0  0  0  0  2  0  0  0  0  0  0
  -18.2100  -26.4760   21.9650 C   0  0  0  0  0  2  0  0  0  0  0  0
  -19.1070  -28.5670   23.1440 C   0  0  0  0  0  0  0  0  0  0  0  0
  -18.8620  -29.8060   23.7720 C   0  0  0  0  0  3  0  0  0  0  0  0
  -17.5490  -30.2820   23.9420 C   0  0  0  0  0  3  0  0  0  0  0  0
  -16.4600  -29.5130   23.4950 C   0  0  0  0  0  3  0  0  0  0  0  0
  -16.6880  -28.2750   22.8680 C   0  0  0  0  0  3  0  0  0  0  0  0
  -25.7090  -32.3810   23.8410 C   0  0  0  0  0  3  0  0  0  0  0  0
  -26.1940  -31.6210   25.1360 C   0  0  1  0  0  0  0  0  0  0  0  0
  -25.0660  -31.3600   26.1640 C   0  0  0  0  0  1  0  0  0  0  0  0
  -26.8220  -30.2560   24.7700 C   0  0  0  0  0  1  0  0  0  0  0  0
  -27.3000  -32.4410   25.8420 C   0  0  0  0  0  1  0  0  0  0  0  0
  -25.3540  -33.7710   24.1630 N   0  0  0  0  0  0  0  0  0  0  0  0
  -25.6830  -34.8350   23.4180 C   0  0  0  0  0  0  0  0  0  0  0  0
  -26.3840  -34.7510   22.4060 O   0  0  0  0  0  0  0  0  0  0  0  0
  -24.7330  -33.9070   24.9470 H   0  0  0  0  0  0  0  0  0  0  0  0
  -23.9210  -36.5870   23.0240 C   0  0  0  0  0  1  0  0  0  0  0  0
  -25.1510  -36.2110   23.8650 C   0  0  0  0  0  3  0  0  0  0  0  0
  -27.2410  -37.1480   24.7510 C   0  0  0  0  0  1  0  0  0  0  0  0
  -26.1600  -37.2890   23.7780 N   0  0  0  0  0  0  0  0  0  0  0  0
  -25.7270  -38.1980   23.9140 H   0  0  0  0  0  0  0  0  0  0  0  0
  -29.6640  -21.0620   20.0330 C   0  0  0  0  0  2  0  0  0  0  0  0
  -30.5880  -14.7590   19.7760 C   0  0  0  0  0  0  0  0  0  0  0  0
  -30.2380  -12.5150   18.7260 C   0  0  0  0  0  2  0  0  0  0  0  0
  -29.1940  -12.6360   17.5940 C   0  0  0  0  0  2  0  0  0  0  0  0
  -27.7670  -12.4790   18.1530 C   0  0  0  0  0  2  0  0  0  0  0  0
  -27.5260  -13.3290   19.4290 C   0  0  0  0  0  3  0  0  0  0  0  0
  -28.6820  -13.1800   20.4390 C   0  0  0  0  0  2  0  0  0  0  0  0
  -29.9180  -13.5520   19.7370 N   0  0  0  0  0  0  0  0  0  0  0  0
  -31.7250  -14.8170   19.2960 O   0  0  0  0  0  0  0  0  0  0  0  0
  -30.9130  -18.2620   21.1490 C   0  0  0  0  0  2  0  0  0  0  0  0
  -29.2680  -16.3520   21.2660 C   0  0  0  0  0  2  0  0  0  0  0  0
  -30.0030  -17.1690   19.0670 C   0  0  0  0  0  2  0  0  0  0  0  0
  -28.6320  -18.9710   21.1610 C   0  0  0  0  0  2  0  0  0  0  0  0
  -29.5700  -17.8370   21.7160 C   0  0  0  0  0  3  0  0  0  0  0  0
  -30.4250  -18.5710   19.7380 C   0  0  0  0  0  3  0  0  0  0  0  0
  -29.8700  -15.9490   19.9650 N   0  0  0  0  0  0  0  0  0  0  0  0
  -29.2860  -19.5550   19.9500 N   0  0  2  0  0  4  0  0  0  0  0  0
  -28.6580  -19.4590   19.1660 H   0  0  0  0  0  0  0  0  0  0  0  0
  -25.2330  -13.9350   20.4050 C   0  0  0  0  0  0  0  0  0  0  0  0
  -24.1930  -13.1670   20.8490 C   0  0  0  0  0  0  0  0  0  0  0  0
  -24.6210  -11.8090   20.7260 C   0  0  0  0  0  0  0  0  0  0  0  0
  -26.2300  -13.0470   20.0370 N   0  0  0  0  0  0  0  0  0  0  0  0
  -25.8750  -11.7600   20.2920 N   0  0  0  0  0  0  0  0  0  0  0  0
  -23.8890  -10.5540   20.9400 C   0  0  0  0  0  0  0  0  0  0  0  0
  -24.3500   -9.5740   21.8450 C   0  0  0  0  0  3  0  0  0  0  0  0
  -23.6160   -8.3850   22.0480 C   0  0  0  0  0  3  0  0  0  0  0  0
  -22.4080   -8.1670   21.3430 C   0  0  0  0  0  0  0  0  0  0  0  0
  -21.9670   -9.1360   20.4250 C   0  0  0  0  0  3  0  0  0  0  0  0
  -22.7000  -10.3170   20.2210 C   0  0  0  0  0  3  0  0  0  0  0  0
  -21.6440   -7.0300   21.4560 O   0  0  0  0  0  0  0  0  0  0  0  0
  -21.5860   -6.3160   22.6250 C   0  0  0  0  0  0  0  0  0  0  0  0
  -21.1620   -6.9040   23.8370 C   0  0  0  0  0  3  0  0  0  0  0  0
  -21.0490   -6.1160   25.0010 C   0  0  0  0  0  3  0  0  0  0  0  0
  -21.3490   -4.7410   24.9530 C   0  0  0  0  0  0  0  0  0  0  0  0
  -21.7650   -4.1530   23.7460 C   0  0  0  0  0  3  0  0  0  0  0  0
  -21.8790   -4.9390   22.5840 C   0  0  0  0  0  0  0  0  0  0  0  0
  -22.2600   -4.3620   21.4190 F   0  0  0  0  0  0  0  0  0  0  0  0
  -21.2340   -3.9830   26.0670 F   0  0  0  0  0  0  0  0  0  0  0  0
  -22.8380  -13.6590   21.2690 C   0  0  0  0  0  0  0  0  0  0  0  0
  -22.1910  -12.9610   22.1960 N   0  0  0  0  0  0  0  0  0  0  0  0
  -22.3660  -14.6990   20.8100 O   0  0  0  0  0  0  0  0  0  0  0  0
  -22.5880  -12.1210   22.5900 H   0  0  0  0  0  0  0  0  0  0  0  0
  -21.2840  -13.2700   22.5140 H   0  0  0  0  0  0  0  0  0  0  0  0
  -25.4080  -15.3080   20.2540 N   0  0  0  0  0  0  0  0  0  0  0  0
  -24.6540  -15.9650   20.4270 H   0  0  0  0  0  0  0  0  0  0  0  0
  -26.2100  -15.7320   19.8070 H   0  0  0  0  0  0  0  0  0  0  0  0
  1  3  1  0
  1  5  1  0
  3  2  1  0
  5  4  1  0
  6  7  1  0
  6  5  1  0
  8 19  2  0
  9  7  1  0
  9 14  1  0
 10 18  1  0
 10 20  1  0
 11 17  1  0
 11 13  1  0
 12 18  1  0
 13 14  2  0
 13 12  1  0
 15  9  2  0
 16 15  1  0
 16 11  2  0
 17 10  1  0
 18  8  1  0
 20 22  2  0
 21 20  1  0
 23 21  1  0
 24 33  2  0
 24 29  1  0
 25 21  1  0
 25 29  1  0
 26 25  1  0
 27 28  1  0
 27 26  1  0
 28 24  1  0
 29 30  2  0
 30 31  1  0
 32 31  2  0
 33 32  1  0
 34  8  1  0
 34 39  1  0
 34 35  1  0
 35 38  1  1
 35 36  1  0
 37 35  1  0
 39 42  1  0
 40 44  1  0
 40 39  1  0
 41 40  2  0
 44 43  1  0
 46 44  1  0
 46 47  1  0
 46 45  1  0
 48  1  1  0
 49 63  1  0
 50 55  1  0
 51 52  1  0
 51 50  1  0
 53 52  1  0
 53 69  1  0
 53 54  1  0
 55 49  1  0
 55 54  1  0
 56 49  2  0
 58 61  1  0
 59 63  1  0
 60 61  1  0
 61 57  1  0
 62 59  1  0
 62 64  1  0
 62 57  1  0
 63 58  1  0
 64 48  1  0
 64 60  1  0
 64 65  1  6
 66 67  2  0
 67 86  1  0
 68 67  1  0
 68 71  1  0
 69 70  1  0
 69 66  1  0
 70 68  2  0
 71 72  1  0
 72 73  2  0
 74 77  1  0
 74 73  1  0
 75 74  2  0
 76 75  1  0
 76 71  2  0
 77 78  1  0
 78 79  1  0
 79 80  2  0
 81 80  1  0
 81 85  1  0
 82 81  2  0
 83 78  2  0
 83 82  1  0
 84 83  1  0
 86 87  1  0
 87 90  1  0
 87 89  1  0
 88 86  2  0
 91 66  1  0
 91 92  1  0
 93 91  1  0
M  ISO  4   6 101   7 101  49 100  63 100
M  END
>  <TORSDO>  (23) 
F 20

>  <SCORE>  (23) 
-12.597

>  <name>  (23) 
22

>  <ligand_id>  (23) 
22

>  <original_smiles>  (23) 
[H]c1c([H])c([H])c2c(c1[H])C([H])([H])C([H])([H])C([H])([H])C2([H])N([H])C(=O)C1([H])N(C(=O)C([H])(N([H])C(=O)C([H])(N([H])C([H])([H])[H])C([H])([H])[H])C(C([H])([H])[H])(C([H])([H])[H])C([H])([H])[H])C([H])([H])c2c([H])c(OC([H])([H])C([H])(C([H])([H])[H])C([H])(C([H])([H])C([H])([H])[H])C([H])([H])[N+]3([H])C([H])([H])C4([H])C([H])([H])N(C(=O)N5C([H])([H])C([H])([H])C([H])([H])C([H])(n6nc(-c7c([H])c([H])c(Oc8c([H])c([H])c(F)c([H])c8F)c([H])c7[H])c(C(=O)N([H])[H])c6N([H])[H])C5([H])[H])C([H])([H])C3([H])C4([H])[H])c([H])c([H])c2C1([H])[H]

>  <smiles>  (23) 
[H]c1c([H])c([H])c2c(c1[H])C([H])([H])C([H])([H])C([H])([H])C2([H])N([H])C(=O)C1([H])N(C(=O)C([H])(N([H])C(=O)C([H])(N([H])C([H])([H])[H])C([H])([H])[H])C(C([H])([H])[H])(C([H])([H])[H])C([H])([H])[H])C([H])([H])c2c([H])c(OC([H])([H])C([H])(C([H])([H])[H])C([H])(C([H])([H])C([H])([H])[H])C([H])([H])[N+]3([H])C([H])([H])C4([H])C([H])([H])N(C(=O)N5C([H])([H])C([H])([H])C([H])([H])C([H])(n6nc(-c7c([H])c([H])c(Oc8c([H])c([H])c(F)c([H])c8F)c([H])c7[H])c(C(=O)N([H])[H])c6N([H])[H])C5([H])[H])C([H])([H])C3([H])C4([H])[H])c([H])c([H])c2C1([H])[H]

$$$$
23:0:0
     RDKit          3D

 90 98  0  0  1  0  0  0  0  0999 V2000
  -29.2440  -21.5010   19.2680 C   0  0  0  0  0  2  0  0  0  0  0  0
  -30.7830  -15.1070   19.4900 C   0  0  0  0  0  0  0  0  0  0  0  0
  -30.5410  -12.7330   18.5870 C   0  0  0  0  0  2  0  0  0  0  0  0
  -29.4940  -12.6420   17.4550 C   0  0  0  0  0  2  0  0  0  0  0  0
  -28.0830  -12.4420   18.0390 C   0  0  0  0  0  2  0  0  0  0  0  0
  -27.7950  -13.3860   19.2360 C   0  0  0  0  0  3  0  0  0  0  0  0
  -28.9590  -13.4340   20.2460 C   0  0  0  0  0  2  0  0  0  0  0  0
  -30.1450  -13.8580   19.4920 N   0  0  0  0  0  0  0  0  0  0  0  0
  -31.9690  -15.0840   19.1270 O   0  0  0  0  0  0  0  0  0  0  0  0
  -28.9180  -18.7270   18.6700 C   0  0  0  0  0  2  0  0  0  0  0  0
  -30.5550  -19.0810   20.3430 C   0  0  0  0  0  2  0  0  0  0  0  0
  -29.6140  -17.2340   18.5240 C   0  0  0  0  0  2  0  0  0  0  0  0
  -30.6020  -17.4570   20.6520 C   0  0  0  0  0  2  0  0  0  0  0  0
  -29.2450  -19.8350   19.8000 C   0  0  1  0  0  0  0  0  0  0  0  0
  -30.1150  -16.3870   19.6800 N   0  0  0  0  0  0  0  0  0  0  0  0
  -25.5500  -13.9900   20.2880 C   0  0  0  0  0  0  0  0  0  0  0  0
  -24.5010  -13.2310   20.7280 C   0  0  0  0  0  0  0  0  0  0  0  0
  -24.9020  -11.8690   20.5600 C   0  0  0  0  0  0  0  0  0  0  0  0
  -26.5180  -13.0940   19.8730 N   0  0  0  0  0  0  0  0  0  0  0  0
  -26.1470  -11.8080   20.1030 N   0  0  0  0  0  0  0  0  0  0  0  0
  -24.1470  -10.6240   20.7520 C   0  0  0  0  0  0  0  0  0  0  0  0
  -24.5740   -9.6310   21.6600 C   0  0  0  0  0  3  0  0  0  0  0  0
  -23.8190   -8.4530   21.8430 C   0  0  0  0  0  3  0  0  0  0  0  0
  -22.6190   -8.2600   21.1160 C   0  0  0  0  0  0  0  0  0  0  0  0
  -22.2100   -9.2420   20.1960 C   0  0  0  0  0  3  0  0  0  0  0  0
  -22.9670  -10.4110   20.0120 C   0  0  0  0  0  3  0  0  0  0  0  0
  -21.8330   -7.1380   21.2110 O   0  0  0  0  0  0  0  0  0  0  0  0
  -21.6980   -6.4490   22.3900 C   0  0  0  0  0  0  0  0  0  0  0  0
  -21.1730   -7.0570   23.5510 C   0  0  0  0  0  3  0  0  0  0  0  0
  -20.9860   -6.2950   24.7220 C   0  0  0  0  0  3  0  0  0  0  0  0
  -21.3150   -4.9250   24.7310 C   0  0  0  0  0  0  0  0  0  0  0  0
  -21.8310   -4.3170   23.5730 C   0  0  0  0  0  3  0  0  0  0  0  0
  -22.0190   -5.0760   22.4050 C   0  0  0  0  0  0  0  0  0  0  0  0
  -22.4970   -4.4800   21.2870 F   0  0  0  0  0  0  0  0  0  0  0  0
  -21.1290   -4.1910   25.8520 F   0  0  0  0  0  0  0  0  0  0  0  0
  -23.1660  -13.7390   21.1850 C   0  0  0  0  0  0  0  0  0  0  0  0
  -22.5270  -13.0350   22.1120 N   0  0  0  0  0  0  0  0  0  0  0  0
  -22.7060  -14.7970   20.7570 O   0  0  0  0  0  0  0  0  0  0  0  0
  -22.9130  -12.1770   22.4770 H   0  0  0  0  0  0  0  0  0  0  0  0
  -21.6360  -13.3590   22.4610 H   0  0  0  0  0  0  0  0  0  0  0  0
  -25.7530  -15.3620   20.1750 N   0  0  0  0  0  0  0  0  0  0  0  0
  -25.0460  -16.0440   20.4260 H   0  0  0  0  0  0  0  0  0  0  0  0
  -26.5940  -15.7860   19.8030 H   0  0  0  0  0  0  0  0  0  0  0  0
  -27.1800  -18.6070   20.9680 C   0  0  0  0  0  1  0  0  0  0  0  0
  -28.0860  -19.8410   20.8400 C   0  0  0  0  0  2  0  0  0  0  0  0
  -29.0220  -23.0050   20.1020 C   0  0  0  0  0  3  0  0  0  0  0  0
  -30.3400  -22.6500   22.3190 C   0  0  0  0  0  1  0  0  0  0  0  0
  -30.3190  -23.2720   20.9140 C   0  0  0  0  0  2  0  0  0  0  0  0
  -28.4360  -24.5480   19.5030 C   0  0  0  0  0  2  0  0  0  0  0  0
  -28.4700  -26.1210   19.7780 O   0  0  0  0  0  0  0  0  0  0  0  0
  -24.5740  -31.5710   22.9680 C   0  0  0  0  0  0  0  0  0  0  0  0
  -27.3650  -27.0690   19.7400 C   0  0  0  0  0  0  0  0  0  0  0  0
  -23.4420  -30.1820   21.2770 C   0  0  0  0  0  3  0  0  0  0  0  0
  -24.9600  -28.7350   19.7770 C   0  0  0  0  0  0  0  0  0  0  0  0
  -25.9800  -30.5690   21.1160 C   0  0  0  0  0  2  0  0  0  0  0  0
  -26.1200  -29.2050   20.4040 C   0  0  0  0  0  0  0  0  0  0  0  0
  -27.3190  -28.3900   20.3640 C   0  0  0  0  0  3  0  0  0  0  0  0
  -26.1730  -26.7090   19.0780 C   0  0  0  0  0  3  0  0  0  0  0  0
  -25.0020  -27.5060   19.0970 C   0  0  0  0  0  3  0  0  0  0  0  0
  -23.6910  -29.5740   19.8680 C   0  0  0  0  0  2  0  0  0  0  0  0
  -24.6850  -30.7960   21.8430 N   0  0  0  0  0  0  0  0  0  0  0  0
  -23.4760  -31.7780   23.5080 O   0  0  0  0  0  0  0  0  0  0  0  0
  -22.8170  -29.1060   22.1990 C   0  0  0  0  0  0  0  0  0  0  0  0
  -21.4990  -28.8700   22.0670 N   0  0  0  0  0  0  0  0  0  0  0  0
  -23.5210  -28.4850   22.9990 O   0  0  0  0  0  0  0  0  0  0  0  0
  -20.9830  -29.4280   21.4020 H   0  0  0  0  0  0  0  0  0  0  0  0
  -18.1880  -27.4750   22.5310 C   0  0  0  0  0  0  0  0  0  0  0  0
  -20.7310  -27.8600   22.8010 C   0  0  0  0  0  3  0  0  0  0  0  0
  -20.9050  -26.4600   22.1660 C   0  0  0  0  0  2  0  0  0  0  0  0
  -19.8150  -26.1250   21.1430 C   0  0  0  0  0  2  0  0  0  0  0  0
  -18.4300  -26.1680   21.7960 C   0  0  0  0  0  2  0  0  0  0  0  0
  -19.2670  -28.2770   22.9880 C   0  0  0  0  0  0  0  0  0  0  0  0
  -18.9840  -29.4960   23.6400 C   0  0  0  0  0  3  0  0  0  0  0  0
  -17.6550  -29.9170   23.8380 C   0  0  0  0  0  3  0  0  0  0  0  0
  -16.5910  -29.1130   23.3960 C   0  0  0  0  0  3  0  0  0  0  0  0
  -16.8570  -27.8950   22.7470 C   0  0  0  0  0  3  0  0  0  0  0  0
  -25.8170  -32.2470   23.6200 C   0  0  0  0  0  3  0  0  0  0  0  0
  -26.3680  -31.4580   24.8710 C   0  0  1  0  0  0  0  0  0  0  0  0
  -25.2840  -31.1240   25.9250 C   0  0  0  0  0  1  0  0  0  0  0  0
  -27.0240  -30.1270   24.4360 C   0  0  0  0  0  1  0  0  0  0  0  0
  -27.4750  -32.2840   25.5660 C   0  0  0  0  0  1  0  0  0  0  0  0
  -25.4330  -33.6140   24.0090 N   0  0  0  0  0  0  0  0  0  0  0  0
  -25.7080  -34.7170   23.3000 C   0  0  0  0  0  0  0  0  0  0  0  0
  -26.3730  -34.6940   22.2620 O   0  0  0  0  0  0  0  0  0  0  0  0
  -24.8360  -33.7030   24.8180 H   0  0  0  0  0  0  0  0  0  0  0  0
  -23.8800  -36.4330   23.0550 C   0  0  0  0  0  1  0  0  0  0  0  0
  -25.1570  -36.0600   23.8250 C   0  0  0  0  0  3  0  0  0  0  0  0
  -27.2500  -37.0340   24.6650 C   0  0  0  0  0  1  0  0  0  0  0  0
  -26.1300  -37.1710   23.7360 N   0  0  0  0  0  0  0  0  0  0  0  0
  -25.6770  -38.0640   23.9160 H   0  0  0  0  0  0  0  0  0  0  0  0
  2  8  1  0
  2 15  1  0
  3  8  1  0
  4  5  1  0
  4  3  1  0
  6  5  1  0
  6 19  1  0
  6  7  1  0
  8  7  1  0
  9  2  2  0
 10 14  1  0
 11 13  1  0
 12 10  1  0
 12 15  1  0
 14  1  1  6
 14 11  1  0
 14 45  1  0
 15 13  1  0
 16 17  2  0
 17 36  1  0
 18 17  1  0
 18 21  1  0
 19 20  1  0
 19 16  1  0
 20 18  2  0
 21 22  1  0
 22 23  2  0
 24 27  1  0
 24 23  1  0
 25 24  2  0
 26 25  1  0
 26 21  2  0
 27 28  1  0
 28 33  2  0
 28 29  1  0
 29 30  2  0
 30 31  1  0
 31 35  1  0
 32 31  2  0
 33 32  1  0
 34 33  1  0
 36 37  1  0
 37 40  1  0
 37 39  1  0
 38 36  2  0
 41 16  1  0
 41 42  1  0
 43 41  1  0
 45 44  1  0
 46  1  1  0
 46 48  1  0
 48 47  1  0
 49 50  1  0
 49 46  1  0
 51 62  2  0
 52 50  1  0
 52 57  1  0
 53 61  1  0
 53 63  1  0
 54 60  1  0
 54 56  1  0
 55 61  1  0
 56 55  1  0
 57 56  2  0
 58 59  1  0
 58 52  2  0
 59 54  2  0
 60 53  1  0
 61 51  1  0
 63 65  2  0
 64 63  1  0
 66 64  1  0
 67 76  2  0
 67 72  1  0
 68 64  1  0
 68 72  1  0
 69 68  1  0
 70 71  1  0
 70 69  1  0
 71 67  1  0
 72 73  2  0
 73 74  1  0
 75 74  2  0
 76 75  1  0
 77 51  1  0
 77 82  1  0
 77 78  1  0
 78 81  1  1
 78 79  1  0
 80 78  1  0
 82 85  1  0
 83 87  1  0
 83 82  1  0
 84 83  2  0
 87 86  1  0
 89 87  1  0
 89 90  1  0
 89 88  1  0
M  ISO  4   2 100  15 100  49 101  50 101
M  END
>  <TORSDO>  (24) 
F 20

>  <SCORE>  (24) 
-12.442

>  <name>  (24) 
23

>  <ligand_id>  (24) 
23

>  <original_smiles>  (24) 
[H]c1c([H])c([H])c2c(c1[H])C([H])([H])C([H])([H])C([H])([H])C2([H])N([H])C(=O)C1([H])N(C(=O)C([H])(N([H])C(=O)C([H])(N([H])C([H])([H])[H])C([H])([H])[H])C(C([H])([H])[H])(C([H])([H])[H])C([H])([H])[H])C([H])([H])c2c([H])c(OC([H])([H])C([H])(C([H])([H])C([H])([H])[H])C([H])([H])C3(C([H])([H])C([H])([H])[H])C([H])([H])C([H])([H])N(C(=O)N4C([H])([H])C([H])([H])C([H])([H])C([H])(n5nc(-c6c([H])c([H])c(Oc7c([H])c([H])c(F)c([H])c7F)c([H])c6[H])c(C(=O)N([H])[H])c5N([H])[H])C4([H])[H])C([H])([H])C3([H])[H])c([H])c([H])c2C1([H])[H]

>  <smiles>  (24) 
[H]c1c([H])c([H])c2c(c1[H])C([H])([H])C([H])([H])C([H])([H])C2([H])N([H])C(=O)C1([H])N(C(=O)C([H])(N([H])C(=O)C([H])(N([H])C([H])([H])[H])C([H])([H])[H])C(C([H])([H])[H])(C([H])([H])[H])C([H])([H])[H])C([H])([H])c2c([H])c(OC([H])([H])C([H])(C([H])([H])C([H])([H])[H])C([H])([H])C3(C([H])([H])C([H])([H])[H])C([H])([H])C([H])([H])N(C(=O)N4C([H])([H])C([H])([H])C([H])([H])C([H])(n5nc(-c6c([H])c([H])c(Oc7c([H])c([H])c(F)c([H])c7F)c([H])c6[H])c(C(=O)N([H])[H])c5N([H])[H])C4([H])[H])C([H])([H])C3([H])[H])c([H])c([H])c2C1([H])[H]

$$$$
24:0:0
     RDKit          3D

 90 94  0  0  1  0  0  0  0  0999 V2000
  -29.7680  -19.2760   19.7140 C   0  0  0  0  0  2  0  0  0  0  0  0
  -30.7150  -15.9860   19.2550 C   0  0  0  0  0  0  0  0  0  0  0  0
  -30.9210  -13.3520   18.4540 C   0  0  0  0  0  2  0  0  0  0  0  0
  -29.9590  -12.6690   17.4250 C   0  0  0  0  0  2  0  0  0  0  0  0
  -28.6540  -12.2030   18.0870 C   0  0  0  0  0  2  0  0  0  0  0  0
  -28.1740  -13.2410   19.1210 C   0  0  0  0  0  3  0  0  0  0  0  0
  -29.2940  -13.7830   20.0510 C   0  0  0  0  0  2  0  0  0  0  0  0
  -30.2570  -14.5500   19.1950 N   0  0  0  0  0  0  0  0  0  0  0  0
  -31.9570  -15.8830   19.1100 O   0  0  0  0  0  0  0  0  0  0  0  0
  -29.9200  -17.4270   19.2520 N   0  0  0  0  0  0  0  0  0  0  0  0
  -28.9720  -17.1400   19.0500 H   0  0  0  0  0  0  0  0  0  0  0  0
  -25.9750  -13.6930   20.2830 C   0  0  0  0  0  0  0  0  0  0  0  0
  -24.9780  -12.8890   20.7540 C   0  0  0  0  0  0  0  0  0  0  0  0
  -25.4230  -11.5440   20.5570 C   0  0  0  0  0  0  0  0  0  0  0  0
  -26.9640  -12.8450   19.8260 N   0  0  0  0  0  0  0  0  0  0  0  0
  -26.6550  -11.5380   20.0500 N   0  0  0  0  0  0  0  0  0  0  0  0
  -24.7150  -10.2730   20.7610 C   0  0  0  0  0  0  0  0  0  0  0  0
  -25.1500   -9.3250   21.7120 C   0  0  0  0  0  3  0  0  0  0  0  0
  -24.4340   -8.1240   21.9070 C   0  0  0  0  0  3  0  0  0  0  0  0
  -23.2660   -7.8630   21.1520 C   0  0  0  0  0  0  0  0  0  0  0  0
  -22.8490   -8.7990   20.1890 C   0  0  0  0  0  3  0  0  0  0  0  0
  -23.5660   -9.9910   19.9930 C   0  0  0  0  0  3  0  0  0  0  0  0
  -22.5220   -6.7120   21.2560 O   0  0  0  0  0  0  0  0  0  0  0  0
  -22.2130   -6.1620   22.4760 C   0  0  0  0  0  0  0  0  0  0  0  0
  -21.5090   -6.8860   23.4620 C   0  0  0  0  0  3  0  0  0  0  0  0
  -21.1490   -6.2620   24.6720 C   0  0  0  0  0  3  0  0  0  0  0  0
  -21.4840   -4.9130   24.8970 C   0  0  0  0  0  0  0  0  0  0  0  0
  -22.1820   -4.1880   23.9150 C   0  0  0  0  0  3  0  0  0  0  0  0
  -22.5410   -4.8100   22.7060 C   0  0  0  0  0  0  0  0  0  0  0  0
  -23.1930   -4.1000   21.7540 F   0  0  0  0  0  0  0  0  0  0  0  0
  -21.1350   -4.3090   26.0580 F   0  0  0  0  0  0  0  0  0  0  0  0
  -23.6410  -13.3500   21.2560 C   0  0  0  0  0  0  0  0  0  0  0  0
  -23.0520  -12.6140   22.1910 N   0  0  0  0  0  0  0  0  0  0  0  0
  -23.1370  -14.3980   20.8560 O   0  0  0  0  0  0  0  0  0  0  0  0
  -23.4780  -11.7690   22.5380 H   0  0  0  0  0  0  0  0  0  0  0  0
  -22.1590  -12.9000   22.5670 H   0  0  0  0  0  0  0  0  0  0  0  0
  -26.1160  -15.0720   20.1600 N   0  0  0  0  0  0  0  0  0  0  0  0
  -25.3090  -15.6720   20.2830 H   0  0  0  0  0  0  0  0  0  0  0  0
  -26.8060  -15.4640   19.5320 H   0  0  0  0  0  0  0  0  0  0  0  0
  -28.5580  -19.2060   20.6600 C   0  0  0  0  0  0  0  0  0  0  0  0
  -28.6730  -19.3560   21.8830 O   0  0  0  0  0  0  0  0  0  0  0  0
  -27.1870  -18.8810   20.0470 C   0  0  0  0  0  2  0  0  0  0  0  0
  -26.3460  -18.2140   21.0560 N   0  0  0  0  0  4  0  0  0  0  0  0
  -26.7480  -17.3310   21.3110 H   0  0  0  0  0  0  0  0  0  0  0  0
  -25.4160  -18.0710   20.7050 H   0  0  0  0  0  0  0  0  0  0  0  0
  -26.3060  -18.7850   21.8810 H   0  0  0  0  0  0  0  0  0  0  0  0
  -31.0460  -21.6890   19.0080 C   0  0  0  0  0  1  0  0  0  0  0  0
  -29.5730  -21.2590   19.0220 C   0  0  0  0  0  1  0  0  0  0  0  0
  -28.6050  -23.1300   19.2270 C   0  0  0  0  0 15  0  0  0  0  0  0
  -28.5150  -25.0020   18.8910 O   0  0  0  0  0  1  0  0  0  0  0  0
  -24.9400  -31.2590   22.4750 C   0  0  0  0  0  0  0  0  0  0  0  0
  -27.5340  -26.2990   19.0390 C   0  0  0  0  0  0  0  0  0  0  0  0
  -23.7830  -30.0010   20.7130 C   0  0  0  0  0  3  0  0  0  0  0  0
  -25.2570  -28.4590   19.1720 C   0  0  0  0  0  0  0  0  0  0  0  0
  -26.3730  -30.1170   20.6330 C   0  0  0  0  0  2  0  0  0  0  0  0
  -26.4560  -28.7240   19.8450 C   0  0  0  0  0  0  0  0  0  0  0  0
  -27.5660  -27.6860   19.7380 C   0  0  0  0  0  3  0  0  0  0  0  0
  -26.2920  -26.3160   18.3310 C   0  0  0  0  0  3  0  0  0  0  0  0
  -25.2270  -27.2860   18.3940 C   0  0  0  0  0  3  0  0  0  0  0  0
  -24.0490  -29.4190   19.2920 C   0  0  0  0  0  2  0  0  0  0  0  0
  -25.0590  -30.4950   21.3280 N   0  0  0  0  0  0  0  0  0  0  0  0
  -23.8370  -31.5050   22.9970 O   0  0  0  0  0  0  0  0  0  0  0  0
  -23.0590  -28.9440   21.5940 C   0  0  0  0  0  0  0  0  0  0  0  0
  -21.7200  -28.8240   21.4830 N   0  0  0  0  0  0  0  0  0  0  0  0
  -23.7170  -28.2290   22.3530 O   0  0  0  0  0  0  0  0  0  0  0  0
  -21.2380  -29.4510   20.8560 H   0  0  0  0  0  0  0  0  0  0  0  0
  -18.3110  -27.6920   22.0820 C   0  0  0  0  0  0  0  0  0  0  0  0
  -20.8960  -27.8140   22.1630 C   0  0  0  0  0  3  0  0  0  0  0  0
  -20.8730  -26.4890   21.3670 C   0  0  0  0  0  2  0  0  0  0  0  0
  -19.6820  -26.3810   20.4100 C   0  0  0  0  0  2  0  0  0  0  0  0
  -18.3620  -26.4690   21.1810 C   0  0  0  0  0  2  0  0  0  0  0  0
  -19.4970  -28.3340   22.5290 C   0  0  0  0  0  0  0  0  0  0  0  0
  -19.3850  -29.4820   23.3420 C   0  0  0  0  0  3  0  0  0  0  0  0
  -18.1220  -29.9900   23.7030 C   0  0  0  0  0  3  0  0  0  0  0  0
  -16.9530  -29.3450   23.2640 C   0  0  0  0  0  3  0  0  0  0  0  0
  -17.0480  -28.1960   22.4600 C   0  0  0  0  0  3  0  0  0  0  0  0
  -26.1810  -31.8760   23.1920 C   0  0  0  0  0  3  0  0  0  0  0  0
  -25.7810  -33.1650   23.8010 N   0  0  0  0  0  0  0  0  0  0  0  0
  -26.0370  -34.3790   23.2910 C   0  0  0  0  0  0  0  0  0  0  0  0
  -26.6830  -34.5350   22.2530 O   0  0  0  0  0  0  0  0  0  0  0  0
  -25.2040  -33.1070   24.6260 H   0  0  0  0  0  0  0  0  0  0  0  0
  -24.2030  -36.1080   23.3690 C   0  0  0  0  0  1  0  0  0  0  0  0
  -25.4930  -35.6120   24.0460 C   0  0  0  0  0  3  0  0  0  0  0  0
  -27.5960  -36.4390   25.0130 C   0  0  0  0  0  1  0  0  0  0  0  0
  -26.4620  -36.7280   24.1350 N   0  0  0  0  0  0  0  0  0  0  0  0
  -26.0100  -37.5730   24.4710 H   0  0  0  0  0  0  0  0  0  0  0  0
  -26.7800  -30.9330   24.3080 C   0  0  1  0  0  0  0  0  0  0  0  0
  -25.7360  -30.4530   25.3460 C   0  0  0  0  0  1  0  0  0  0  0  0
  -27.4230  -29.6740   23.6890 C   0  0  0  0  0  1  0  0  0  0  0  0
  -27.9080  -31.6690   25.0690 C   0  0  0  0  0  1  0  0  0  0  0  0
  1 40  1  0
  3  8  1  0
  4  5  1  0
  4  3  1  0
  6  5  1  0
  6 15  1  0
  6  7  1  0
  8  2  1  0
  8  7  1  0
  9  2  2  0
 10  2  1  0
 10  1  1  0
 11 10  1  0
 12 13  2  0
 13 32  1  0
 14 13  1  0
 14 17  1  0
 15 16  1  0
 15 12  1  0
 16 14  2  0
 17 18  1  0
 18 19  2  0
 20 23  1  0
 20 19  1  0
 21 20  2  0
 22 21  1  0
 22 17  2  0
 23 24  1  0
 24 29  2  0
 24 25  1  0
 25 26  2  0
 26 27  1  0
 27 31  1  0
 28 27  2  0
 29 28  1  0
 30 29  1  0
 32 33  1  0
 33 35  1  0
 33 36  1  0
 34 32  2  0
 37 12  1  0
 37 38  1  0
 39 37  1  0
 40 41  2  0
 42 40  1  0
 42 43  1  0
 43 44  1  0
 43 46  1  0
 45 43  1  0
 47 48  1  0
 50 52  1  0
 51 62  2  0
 52 57  1  0
 53 61  1  0
 53 63  1  0
 54 60  1  0
 54 56  1  0
 55 61  1  0
 56 55  1  0
 57 56  2  0
 58 59  1  0
 58 52  2  0
 59 54  2  0
 60 53  1  0
 61 51  1  0
 63 65  2  0
 64 63  1  0
 66 64  1  0
 67 76  2  0
 67 72  1  0
 68 64  1  0
 68 72  1  0
 69 68  1  0
 70 71  1  0
 70 69  1  0
 71 67  1  0
 72 73  2  0
 73 74  1  0
 75 74  2  0
 76 75  1  0
 77 51  1  0
 77 78  1  0
 77 87  1  0
 78 81  1  0
 79 78  1  0
 79 83  1  0
 80 79  2  0
 83 82  1  0
 83 85  1  0
 85 86  1  0
 85 84  1  0
 87 90  1  1
 87 88  1  0
 89 87  1  0
M  ISO  4   2 100  10 100  49 101  50 101
M  END
>  <TORSDO>  (25) 
F 21

>  <SCORE>  (25) 
-8.335

>  <name>  (25) 
24

>  <ligand_id>  (25) 
24

>  <original_smiles>  (25) 
[H]c1c([H])c([H])c2c(c1[H])C([H])([H])C([H])([H])C([H])([H])C2([H])N([H])C(=O)C1([H])N(C(=O)C([H])(N([H])C(=O)C([H])(N([H])C([H])([H])[H])C([H])([H])[H])C(C([H])([H])[H])(C([H])([H])[H])C([H])([H])[H])C([H])([H])c2c([H])c(OC([H])([H])C([H])(C([H])([H])[H])C([H])(C(=O)C([H])([H])[N+]([H])([H])[H])N([H])C(=O)N3C([H])([H])C([H])([H])C([H])([H])C([H])(n4nc(-c5c([H])c([H])c(Oc6c([H])c([H])c(F)c([H])c6F)c([H])c5[H])c(C(=O)N([H])[H])c4N([H])[H])C3([H])[H])c([H])c([H])c2C1([H])[H]

>  <smiles>  (25) 
[H]c1c([H])c([H])c2c(c1[H])C([H])([H])C([H])([H])C([H])([H])C2([H])N([H])C(=O)C1([H])N(C(=O)C([H])(N([H])C(=O)C([H])(N([H])C([H])([H])[H])C([H])([H])[H])C(C([H])([H])[H])(C([H])([H])[H])C([H])([H])[H])C([H])([H])c2c([H])c(OC([H])([H])C([H])(C([H])([H])[H])C([H])(C(=O)C([H])([H])[N+]([H])([H])[H])N([H])C(=O)N3C([H])([H])C([H])([H])C([H])([H])C([H])(n4nc(-c5c([H])c([H])c(Oc6c([H])c([H])c(F)c([H])c6F)c([H])c5[H])c(C(=O)N([H])[H])c4N([H])[H])C3([H])[H])c([H])c([H])c2C1([H])[H]

$$$$
25:0:0
     RDKit          3D

 96103  0  0  1  0  0  0  0  0999 V2000
  -28.8120  -20.2870   20.3290 C   0  0  0  0  0  2  0  0  0  0  0  0
  -29.7710  -18.9140   20.0920 C   0  0  0  0  0  3  0  0  0  0  0  0
  -31.2550  -19.3300   20.0900 C   0  0  0  0  0  2  0  0  0  0  0  0
  -31.8520  -19.5070   21.5040 C   0  0  0  0  0  2  0  0  0  0  0  0
  -33.1870  -20.2680   21.5150 C   0  0  0  0  0  2  0  0  0  0  0  0
  -33.7800  -20.3770   22.9330 C   0  0  0  0  0  2  0  0  0  0  0  0
  -35.0880  -21.0510   22.9450 N   0  0  0  0  0  4  0  0  0  0  0  0
  -35.7520  -20.5560   22.3760 H   0  0  0  0  0  0  0  0  0  0  0  0
  -35.4450  -21.0840   23.8830 H   0  0  0  0  0  0  0  0  0  0  0  0
  -35.0090  -21.9940   22.6080 H   0  0  0  0  0  0  0  0  0  0  0  0
  -29.6050  -17.4580   20.9120 C   0  0  0  0  0  2  0  0  0  0  0  0
  -30.4580  -14.8580   20.3150 C   0  0  0  0  0  0  0  0  0  0  0  0
  -30.3440  -12.5210   19.3400 C   0  0  0  0  0  2  0  0  0  0  0  0
  -29.3840  -12.4890   18.1290 C   0  0  0  0  0  2  0  0  0  0  0  0
  -27.9230  -12.2920   18.5860 C   0  0  0  0  0  2  0  0  0  0  0  0
  -27.5390  -13.2190   19.7690 C   0  0  0  0  0  3  0  0  0  0  0  0
  -28.6120  -13.1980   20.8760 C   0  0  0  0  0  2  0  0  0  0  0  0
  -29.8750  -13.6010   20.2440 N   0  0  0  0  0  0  0  0  0  0  0  0
  -31.6740  -14.9550   20.1300 O   0  0  0  0  0  0  0  0  0  0  0  0
  -29.6070  -15.9850   20.3600 N   0  0  0  0  0  0  0  0  0  0  0  0
  -28.6580  -15.6690   20.2250 H   0  0  0  0  0  0  0  0  0  0  0  0
  -25.1740  -13.8240   20.5420 C   0  0  0  0  0  0  0  0  0  0  0  0
  -24.1060  -13.0580   20.9200 C   0  0  0  0  0  0  0  0  0  0  0  0
  -24.5570  -11.7020   20.8750 C   0  0  0  0  0  0  0  0  0  0  0  0
  -26.2050  -12.9360   20.2830 N   0  0  0  0  0  0  0  0  0  0  0  0
  -25.8440  -11.6540   20.5500 N   0  0  0  0  0  0  0  0  0  0  0  0
  -23.8200  -10.4460   21.0640 C   0  0  0  0  0  0  0  0  0  0  0  0
  -24.2420   -9.4760   21.9990 C   0  0  0  0  0  3  0  0  0  0  0  0
  -23.5040   -8.2850   22.1760 C   0  0  0  0  0  3  0  0  0  0  0  0
  -22.3310   -8.0570   21.4170 C   0  0  0  0  0  0  0  0  0  0  0  0
  -21.9290   -9.0170   20.4720 C   0  0  0  0  0  3  0  0  0  0  0  0
  -22.6670  -10.1990   20.2930 C   0  0  0  0  0  3  0  0  0  0  0  0
  -21.5660   -6.9190   21.5030 O   0  0  0  0  0  0  0  0  0  0  0  0
  -21.5030   -6.1800   22.6570 C   0  0  0  0  0  0  0  0  0  0  0  0
  -21.0630   -6.7390   23.8780 C   0  0  0  0  0  3  0  0  0  0  0  0
  -20.9480   -5.9260   25.0230 C   0  0  0  0  0  3  0  0  0  0  0  0
  -21.2630   -4.5550   24.9490 C   0  0  0  0  0  0  0  0  0  0  0  0
  -21.6970   -3.9970   23.7340 C   0  0  0  0  0  3  0  0  0  0  0  0
  -21.8130   -4.8070   22.5910 C   0  0  0  0  0  0  0  0  0  0  0  0
  -22.2110   -4.2590   21.4180 F   0  0  0  0  0  0  0  0  0  0  0  0
  -21.1450   -3.7730   26.0470 F   0  0  0  0  0  0  0  0  0  0  0  0
  -22.7160  -13.5470   21.2060 C   0  0  0  0  0  0  0  0  0  0  0  0
  -21.9900  -12.8540   22.0750 N   0  0  0  0  0  0  0  0  0  0  0  0
  -22.2850  -14.5810   20.6950 O   0  0  0  0  0  0  0  0  0  0  0  0
  -22.3500  -12.0170   22.5080 H   0  0  0  0  0  0  0  0  0  0  0  0
  -21.0570  -13.1640   22.3090 H   0  0  0  0  0  0  0  0  0  0  0  0
  -25.3450  -15.1950   20.3710 N   0  0  0  0  0  0  0  0  0  0  0  0
  -24.5780  -15.8450   20.4950 H   0  0  0  0  0  0  0  0  0  0  0  0
  -26.1760  -15.6360   20.0000 H   0  0  0  0  0  0  0  0  0  0  0  0
  -29.2480  -21.8870   20.6660 C   0  0  0  0  0  2  0  0  0  0  0  0
  -28.8210  -23.3310   19.8980 C   0  0  0  0  0  3  0  0  0  0  0  0
  -28.1470  -24.1120   17.5400 C   0  0  0  0  0  1  0  0  0  0  0  0
  -26.5250  -22.7070   18.9180 C   0  0  0  0  0  1  0  0  0  0  0  0
  -28.0010  -23.0270   18.6200 C   0  0  0  0  0  3  0  0  0  0  0  0
  -28.2850  -24.7230   20.6840 C   0  0  0  0  0  2  0  0  0  0  0  0
  -28.4370  -26.2070   20.2610 O   0  0  0  0  0  0  0  0  0  0  0  0
  -24.5940  -31.7950   23.1510 C   0  0  0  0  0  0  0  0  0  0  0  0
  -27.3380  -27.1300   20.2330 C   0  0  0  0  0  0  0  0  0  0  0  0
  -23.4650  -30.3740   21.4830 C   0  0  0  0  0  3  0  0  0  0  0  0
  -24.9780  -28.8120   20.1190 C   0  0  0  0  0  0  0  0  0  0  0  0
  -26.0160  -30.6890   21.3870 C   0  0  0  0  0  2  0  0  0  0  0  0
  -26.1330  -29.2950   20.7500 C   0  0  0  0  0  0  0  0  0  0  0  0
  -27.3180  -28.4730   20.7790 C   0  0  0  0  0  3  0  0  0  0  0  0
  -26.1510  -26.7300   19.5870 C   0  0  0  0  0  3  0  0  0  0  0  0
  -24.9980  -27.5410   19.5240 C   0  0  0  0  0  3  0  0  0  0  0  0
  -23.7370  -29.6890   20.1180 C   0  0  0  0  0  2  0  0  0  0  0  0
  -24.7110  -30.9740   22.0640 N   0  0  0  0  0  0  0  0  0  0  0  0
  -23.4870  -32.0640   23.6430 O   0  0  0  0  0  0  0  0  0  0  0  0
  -22.7740  -29.3590   22.4290 C   0  0  0  0  0  0  0  0  0  0  0  0
  -21.4490  -29.1840   22.2750 N   0  0  0  0  0  0  0  0  0  0  0  0
  -23.4320  -28.7330   23.2620 O   0  0  0  0  0  0  0  0  0  0  0  0
  -20.9740  -29.7430   21.5800 H   0  0  0  0  0  0  0  0  0  0  0  0
  -18.0570  -27.9960   22.7250 C   0  0  0  0  0  0  0  0  0  0  0  0
  -20.6140  -28.2420   23.0250 C   0  0  0  0  0  3  0  0  0  0  0  0
  -20.7160  -26.8160   22.4370 C   0  0  0  0  0  2  0  0  0  0  0  0
  -19.6250  -26.5100   21.4060 C   0  0  0  0  0  2  0  0  0  0  0  0
  -18.2360  -26.6530   22.0350 C   0  0  0  0  0  2  0  0  0  0  0  0
  -19.1740  -28.7490   23.1750 C   0  0  0  0  0  0  0  0  0  0  0  0
  -18.9520  -30.0050   23.7800 C   0  0  0  0  0  3  0  0  0  0  0  0
  -17.6470  -30.5090   23.9360 C   0  0  0  0  0  3  0  0  0  0  0  0
  -16.5450  -29.7510   23.5020 C   0  0  0  0  0  3  0  0  0  0  0  0
  -16.7510  -28.4970   22.9030 C   0  0  0  0  0  3  0  0  0  0  0  0
  -25.8420  -32.4520   23.8150 C   0  0  0  0  0  3  0  0  0  0  0  0
  -26.3310  -31.6870   25.1060 C   0  0  1  0  0  0  0  0  0  0  0  0
  -25.2100  -31.4280   26.1400 C   0  0  0  0  0  1  0  0  0  0  0  0
  -26.9470  -30.3200   24.7320 C   0  0  0  0  0  1  0  0  0  0  0  0
  -27.4490  -32.4980   25.8030 C   0  0  0  0  0  1  0  0  0  0  0  0
  -25.4940  -33.8440   24.1430 N   0  0  0  0  0  0  0  0  0  0  0  0
  -25.8330  -34.9100   23.4040 C   0  0  0  0  0  0  0  0  0  0  0  0
  -26.5350  -34.8240   22.3930 O   0  0  0  0  0  0  0  0  0  0  0  0
  -24.8720  -33.9820   24.9260 H   0  0  0  0  0  0  0  0  0  0  0  0
  -24.0890  -36.6810   23.0090 C   0  0  0  0  0  1  0  0  0  0  0  0
  -25.3090  -36.2870   23.8570 C   0  0  0  0  0  3  0  0  0  0  0  0
  -27.4010  -37.1990   24.7660 C   0  0  0  0  0  1  0  0  0  0  0  0
  -26.3280  -37.3560   23.7880 N   0  0  0  0  0  0  0  0  0  0  0  0
  -25.9030  -38.2680   23.9290 H   0  0  0  0  0  0  0  0  0  0  0  0
  1 50  1  0
  2  3  1  0
  2  1  1  0
  2 11  1  0
  3  4  1  0
  4  5  1  0
  5  6  1  0
  6  7  1  0
  7  9  1  0
  8  7  1  0
 10  7  1  0
 12 20  1  0
 13 18  1  0
 14 15  1  0
 14 13  1  0
 16 15  1  0
 16 25  1  0
 16 17  1  0
 18 12  1  0
 18 17  1  0
 19 12  2  0
 20 11  1  0
 21 20  1  0
 22 23  2  0
 23 42  1  0
 24 23  1  0
 24 27  1  0
 25 22  1  0
 25 26  1  0
 26 24  2  0
 27 28  1  0
 28 29  2  0
 30 33  1  0
 30 29  1  0
 31 30  2  0
 32 31  1  0
 32 27  2  0
 33 34  1  0
 34 35  1  0
 35 36  2  0
 37 36  1  0
 37 41  1  0
 38 37  2  0
 39 34  2  0
 39 38  1  0
 40 39  1  0
 42 43  1  0
 43 46  1  0
 43 45  1  0
 44 42  2  0
 47 48  1  0
 47 22  1  0
 49 47  1  0
 51 50  1  0
 51 55  1  0
 52 54  1  0
 54 53  1  0
 54 51  1  0
 56 55  1  0
 57 68  2  0
 58 56  1  0
 58 63  1  0
 59 67  1  0
 59 69  1  0
 60 62  1  0
 61 67  1  0
 62 63  2  0
 62 61  1  0
 64 58  2  0
 65 64  1  0
 65 60  2  0
 66 60  1  0
 66 59  1  0
 67 57  1  0
 69 71  2  0
 70 69  1  0
 72 70  1  0
 73 82  2  0
 73 78  1  0
 74 70  1  0
 74 78  1  0
 75 74  1  0
 76 77  1  0
 76 75  1  0
 77 73  1  0
 78 79  2  0
 79 80  1  0
 81 80  2  0
 82 81  1  0
 83 57  1  0
 83 88  1  0
 83 84  1  0
 84 87  1  1
 84 85  1  0
 86 84  1  0
 88 91  1  0
 89 93  1  0
 89 88  1  0
 90 89  2  0
 93 92  1  0
 95 93  1  0
 95 96  1  0
 95 94  1  0
M  ISO  4  12 100  20 100  55 101  56 101
M  END
>  <TORSDO>  (26) 
F 27

>  <SCORE>  (26) 
-12.108

>  <name>  (26) 
25

>  <ligand_id>  (26) 
25

>  <original_smiles>  (26) 
[H]c1c([H])c([H])c2c(c1[H])C([H])([H])C([H])([H])C([H])([H])C2([H])N([H])C(=O)C1([H])N(C(=O)C([H])(N([H])C(=O)C([H])(N([H])C([H])([H])[H])C([H])([H])[H])C(C([H])([H])[H])(C([H])([H])[H])C([H])([H])[H])C([H])([H])c2c([H])c(OC([H])([H])C([H])(C([H])([H])C([H])([H])C([H])(C([H])([H])N([H])C(=O)N3C([H])([H])C([H])([H])C([H])([H])C([H])(n4nc(-c5c([H])c([H])c(Oc6c([H])c([H])c(F)c([H])c6F)c([H])c5[H])c(C(=O)N([H])[H])c4N([H])[H])C3([H])[H])C([H])([H])C([H])([H])C([H])([H])C([H])([H])[N+]([H])([H])[H])C([H])(C([H])([H])[H])C([H])([H])[H])c([H])c([H])c2C1([H])[H]

>  <smiles>  (26) 
[H]c1c([H])c([H])c2c(c1[H])C([H])([H])C([H])([H])C([H])([H])C2([H])N([H])C(=O)C1([H])N(C(=O)C([H])(N([H])C(=O)C([H])(N([H])C([H])([H])[H])C([H])([H])[H])C(C([H])([H])[H])(C([H])([H])[H])C([H])([H])[H])C([H])([H])c2c([H])c(OC([H])([H])C([H])(C([H])([H])C([H])([H])C([H])(C([H])([H])N([H])C(=O)N3C([H])([H])C([H])([H])C([H])([H])C([H])(n4nc(-c5c([H])c([H])c(Oc6c([H])c([H])c(F)c([H])c6F)c([H])c5[H])c(C(=O)N([H])[H])c4N([H])[H])C3([H])[H])C([H])([H])C([H])([H])C([H])([H])C([H])([H])[N+]([H])([H])[H])C([H])(C([H])([H])[H])C([H])([H])[H])c([H])c([H])c2C1([H])[H]

$$$$
26:0:0
     RDKit          3D

 95102  0  0  1  0  0  0  0  0999 V2000
  -29.9210  -19.0810   20.4440 C   0  0  0  0  0  3  0  0  0  0  0  0
  -29.3660  -17.5380   20.0700 C   0  0  0  0  0  2  0  0  0  0  0  0
  -30.4980  -14.9850   20.2630 C   0  0  0  0  0  0  0  0  0  0  0  0
  -30.3520  -12.6420   19.3010 C   0  0  0  0  0  2  0  0  0  0  0  0
  -29.3970  -12.6700   18.0830 C   0  0  0  0  0  2  0  0  0  0  0  0
  -27.9440  -12.4510   18.5370 C   0  0  0  0  0  2  0  0  0  0  0  0
  -27.5710  -13.3400   19.7510 C   0  0  0  0  0  3  0  0  0  0  0  0
  -28.6520  -13.3030   20.8590 C   0  0  0  0  0  2  0  0  0  0  0  0
  -29.9260  -13.7090   20.2560 N   0  0  0  0  0  0  0  0  0  0  0  0
  -31.6320  -15.1030   19.7920 O   0  0  0  0  0  0  0  0  0  0  0  0
  -29.7430  -16.1170   20.6650 N   0  0  0  0  0  0  0  0  0  0  0  0
  -29.0010  -15.8060   21.2750 H   0  0  0  0  0  0  0  0  0  0  0  0
  -25.2010  -13.9000   20.5340 C   0  0  0  0  0  0  0  0  0  0  0  0
  -24.1500  -13.1160   20.9170 C   0  0  0  0  0  0  0  0  0  0  0  0
  -24.6160  -11.7660   20.8550 C   0  0  0  0  0  0  0  0  0  0  0  0
  -26.2430  -13.0280   20.2650 N   0  0  0  0  0  0  0  0  0  0  0  0
  -25.9010  -11.7400   20.5250 N   0  0  0  0  0  0  0  0  0  0  0  0
  -23.8960  -10.5000   21.0420 C   0  0  0  0  0  0  0  0  0  0  0  0
  -24.3370   -9.5320   21.9720 C   0  0  0  0  0  3  0  0  0  0  0  0
  -23.6220   -8.3260   22.1470 C   0  0  0  0  0  3  0  0  0  0  0  0
  -22.4520   -8.0810   21.3910 C   0  0  0  0  0  0  0  0  0  0  0  0
  -22.0290   -9.0350   20.4490 C   0  0  0  0  0  3  0  0  0  0  0  0
  -22.7440  -10.2330   20.2730 C   0  0  0  0  0  3  0  0  0  0  0  0
  -21.7030   -6.9310   21.4800 O   0  0  0  0  0  0  0  0  0  0  0  0
  -21.6430   -6.1990   22.6390 C   0  0  0  0  0  0  0  0  0  0  0  0
  -21.1760   -6.7530   23.8500 C   0  0  0  0  0  3  0  0  0  0  0  0
  -21.0670   -5.9430   24.9990 C   0  0  0  0  0  3  0  0  0  0  0  0
  -21.4140   -4.5780   24.9400 C   0  0  0  0  0  0  0  0  0  0  0  0
  -21.8700   -4.0230   23.7310 C   0  0  0  0  0  3  0  0  0  0  0  0
  -21.9840   -4.8310   22.5860 C   0  0  0  0  0  0  0  0  0  0  0  0
  -22.4070   -4.2830   21.4190 F   0  0  0  0  0  0  0  0  0  0  0  0
  -21.2990   -3.8000   26.0410 F   0  0  0  0  0  0  0  0  0  0  0  0
  -22.7560  -13.5760   21.2260 C   0  0  0  0  0  0  0  0  0  0  0  0
  -22.0490  -12.8540   22.0890 N   0  0  0  0  0  0  0  0  0  0  0  0
  -22.3050  -14.6110   20.7350 O   0  0  0  0  0  0  0  0  0  0  0  0
  -22.4380  -12.0190   22.5020 H   0  0  0  0  0  0  0  0  0  0  0  0
  -21.1120  -13.1330   22.3390 H   0  0  0  0  0  0  0  0  0  0  0  0
  -25.3620  -15.2740   20.3670 N   0  0  0  0  0  0  0  0  0  0  0  0
  -24.5930  -15.9280   20.4460 H   0  0  0  0  0  0  0  0  0  0  0  0
  -26.2100  -15.6960   20.0090 H   0  0  0  0  0  0  0  0  0  0  0  0
  -31.4090  -19.0540   19.9680 C   0  0  0  0  0  2  0  0  0  0  0  0
  -32.2190  -20.3870   19.8660 C   0  0  0  0  0  3  0  0  0  0  0  0
  -33.3990  -20.3440   20.7570 N   0  0  0  0  0  4  0  0  0  0  0  0
  -34.0260  -19.6050   20.4910 H   0  0  0  0  0  0  0  0  0  0  0  0
  -33.1140  -20.1770   21.7080 H   0  0  0  0  0  0  0  0  0  0  0  0
  -33.9040  -21.2130   20.7360 H   0  0  0  0  0  0  0  0  0  0  0  0
  -32.6160  -20.7480   18.3930 C   0  0  0  0  0  2  0  0  0  0  0  0
  -32.3560  -22.2940   16.3920 C   0  0  0  0  0  1  0  0  0  0  0  0
  -33.2530  -23.2500   18.5210 C   0  0  0  0  0  1  0  0  0  0  0  0
  -32.3110  -22.1940   17.9250 C   0  0  0  0  0  3  0  0  0  0  0  0
  -29.1350  -20.4720   19.8850 C   0  0  0  0  0  2  0  0  0  0  0  0
  -29.0070  -21.9660   20.6620 C   0  0  0  0  0  2  0  0  0  0  0  0
  -28.7580  -23.4690   19.9440 C   0  0  0  0  0  3  0  0  0  0  0  0
  -28.2330  -24.8440   20.7470 C   0  0  0  0  0  3  0  0  0  0  0  0
  -28.3730  -26.3160   20.3020 O   0  0  0  0  0  0  0  0  0  0  0  0
  -24.6100  -31.9160   23.2500 C   0  0  0  0  0  0  0  0  0  0  0  0
  -27.2750  -27.2370   20.2940 C   0  0  0  0  0  0  0  0  0  0  0  0
  -23.4440  -30.4980   21.6010 C   0  0  0  0  0  3  0  0  0  0  0  0
  -24.9250  -28.9230   20.2150 C   0  0  0  0  0  0  0  0  0  0  0  0
  -25.9950  -30.7990   21.4590 C   0  0  0  0  0  2  0  0  0  0  0  0
  -26.0910  -29.4040   20.8240 C   0  0  0  0  0  0  0  0  0  0  0  0
  -27.2750  -28.5800   20.8340 C   0  0  0  0  0  3  0  0  0  0  0  0
  -26.0810  -26.8350   19.6640 C   0  0  0  0  0  3  0  0  0  0  0  0
  -24.9300  -27.6530   19.6150 C   0  0  0  0  0  3  0  0  0  0  0  0
  -23.6860  -29.8050   20.2340 C   0  0  0  0  0  2  0  0  0  0  0  0
  -24.7030  -31.0940   22.1600 N   0  0  0  0  0  0  0  0  0  0  0  0
  -23.5150  -32.1930   23.7610 O   0  0  0  0  0  0  0  0  0  0  0  0
  -22.7610  -29.4940   22.5660 C   0  0  0  0  0  0  0  0  0  0  0  0
  -21.4350  -29.3200   22.4300 N   0  0  0  0  0  0  0  0  0  0  0  0
  -23.4270  -28.8720   23.3990 O   0  0  0  0  0  0  0  0  0  0  0  0
  -20.9540  -29.8750   21.7360 H   0  0  0  0  0  0  0  0  0  0  0  0
  -18.0470  -28.1340   22.9320 C   0  0  0  0  0  0  0  0  0  0  0  0
  -20.6070  -28.3840   23.1990 C   0  0  0  0  0  3  0  0  0  0  0  0
  -20.7010  -26.9510   22.6260 C   0  0  0  0  0  2  0  0  0  0  0  0
  -19.5980  -26.6340   21.6110 C   0  0  0  0  0  2  0  0  0  0  0  0
  -18.2160  -26.7850   22.2530 C   0  0  0  0  0  2  0  0  0  0  0  0
  -19.1680  -28.8910   23.3620 C   0  0  0  0  0  0  0  0  0  0  0  0
  -18.9530  -30.1510   23.9610 C   0  0  0  0  0  3  0  0  0  0  0  0
  -17.6490  -30.6550   24.1300 C   0  0  0  0  0  3  0  0  0  0  0  0
  -16.5420  -29.8960   23.7140 C   0  0  0  0  0  3  0  0  0  0  0  0
  -16.7410  -28.6370   23.1200 C   0  0  0  0  0  3  0  0  0  0  0  0
  -25.8730  -32.5700   23.8900 C   0  0  0  0  0  3  0  0  0  0  0  0
  -26.3650  -31.8230   25.1910 C   0  0  1  0  0  0  0  0  0  0  0  0
  -25.2490  -31.6000   26.2400 C   0  0  0  0  0  1  0  0  0  0  0  0
  -26.9580  -30.4410   24.8410 C   0  0  0  0  0  1  0  0  0  0  0  0
  -27.5030  -32.6320   25.8560 C   0  0  0  0  0  1  0  0  0  0  0  0
  -25.5490  -33.9730   24.1940 N   0  0  0  0  0  0  0  0  0  0  0  0
  -25.8960  -35.0190   23.4340 C   0  0  0  0  0  0  0  0  0  0  0  0
  -26.5900  -34.9060   22.4180 O   0  0  0  0  0  0  0  0  0  0  0  0
  -24.9350  -34.1330   24.9800 H   0  0  0  0  0  0  0  0  0  0  0  0
  -24.1900  -36.8180   23.0110 C   0  0  0  0  0  1  0  0  0  0  0  0
  -25.4030  -36.4160   23.8640 C   0  0  0  0  0  3  0  0  0  0  0  0
  -27.5150  -37.3010   24.7550 C   0  0  0  0  0  1  0  0  0  0  0  0
  -26.4460  -37.4630   23.7720 N   0  0  0  0  0  0  0  0  0  0  0  0
  -26.0400  -38.3870   23.8920 H   0  0  0  0  0  0  0  0  0  0  0  0
  1 51  1  0
  2  1  1  0
  2 11  1  0
  3 11  1  0
  4  9  1  0
  5  6  1  0
  5  4  1  0
  7  6  1  0
  7 16  1  0
  7  8  1  0
  9  3  1  0
  9  8  1  0
 10  3  2  0
 11 12  1  0
 13 14  2  0
 14 33  1  0
 15 14  1  0
 15 18  1  0
 16 17  1  0
 16 13  1  0
 17 15  2  0
 18 19  1  0
 19 20  2  0
 21 24  1  0
 21 20  1  0
 22 21  2  0
 23 22  1  0
 23 18  2  0
 24 25  1  0
 25 26  1  0
 26 27  2  0
 28 27  1  0
 28 32  1  0
 29 28  2  0
 30 25  2  0
 30 29  1  0
 31 30  1  0
 33 34  1  0
 34 37  1  0
 34 36  1  0
 35 33  2  0
 38 39  1  0
 38 13  1  0
 40 38  1  0
 41  1  1  0
 42 47  1  0
 42 41  1  0
 42 43  1  0
 43 45  1  0
 44 43  1  0
 46 43  1  0
 48 50  1  0
 50 47  1  0
 50 49  1  0
 51 52  1  0
 53 52  1  0
 53 54  2  0
 55 54  1  0
 56 67  2  0
 57 55  1  0
 57 62  1  0
 58 66  1  0
 58 68  1  0
 59 65  1  0
 59 61  1  0
 60 66  1  0
 61 62  2  0
 61 60  1  0
 63 57  2  0
 64 63  1  0
 64 59  2  0
 65 58  1  0
 66 56  1  0
 68 70  2  0
 69 68  1  0
 71 69  1  0
 72 81  2  0
 72 77  1  0
 73 69  1  0
 73 77  1  0
 74 73  1  0
 75 76  1  0
 75 74  1  0
 76 72  1  0
 77 78  2  0
 78 79  1  0
 80 79  2  0
 81 80  1  0
 82 56  1  0
 82 87  1  0
 82 83  1  0
 83 86  1  1
 83 84  1  0
 85 83  1  0
 87 90  1  0
 88 92  1  0
 88 87  1  0
 89 88  2  0
 92 91  1  0
 94 92  1  0
 94 95  1  0
 94 93  1  0
M  ISO  4   3 100  11 100  54 101  55 101
M  END
>  <TORSDO>  (27) 
F 26

>  <SCORE>  (27) 
-12.023

>  <name>  (27) 
26

>  <ligand_id>  (27) 
26

>  <original_smiles>  (27) 
[H]c1c([H])c([H])c2c(c1[H])C([H])([H])C([H])([H])C([H])([H])C2([H])N([H])C(=O)C1([H])N(C(=O)C([H])(N([H])C(=O)C([H])(N([H])C([H])([H])[H])C([H])([H])[H])C(C([H])([H])[H])(C([H])([H])[H])C([H])([H])[H])C([H])([H])c2c([H])c(OC([H])([H])C([H])([H])C([H])([H])C([H])([H])C([H])(C([H])([H])N([H])C(=O)N3C([H])([H])C([H])([H])C([H])([H])C([H])(n4nc(-c5c([H])c([H])c(Oc6c([H])c([H])c(F)c([H])c6F)c([H])c5[H])c(C(=O)N([H])[H])c4N([H])[H])C3([H])[H])C([H])([H])C([H])(C([H])([H])C([H])(C([H])([H])[H])C([H])([H])[H])[N+]([H])([H])[H])c([H])c([H])c2C1([H])[H]

>  <smiles>  (27) 
[H]c1c([H])c([H])c2c(c1[H])C([H])([H])C([H])([H])C([H])([H])C2([H])N([H])C(=O)C1([H])N(C(=O)C([H])(N([H])C(=O)C([H])(N([H])C([H])([H])[H])C([H])([H])[H])C(C([H])([H])[H])(C([H])([H])[H])C([H])([H])[H])C([H])([H])c2c([H])c(OC([H])([H])C([H])([H])C([H])([H])C([H])([H])C([H])(C([H])([H])N([H])C(=O)N3C([H])([H])C([H])([H])C([H])([H])C([H])(n4nc(-c5c([H])c([H])c(Oc6c([H])c([H])c(F)c([H])c6F)c([H])c5[H])c(C(=O)N([H])[H])c4N([H])[H])C3([H])[H])C([H])([H])C([H])(C([H])([H])C([H])(C([H])([H])[H])C([H])([H])[H])[N+]([H])([H])[H])c([H])c([H])c2C1([H])[H]

$$$$
27:0:0
     RDKit          3D

 92100  0  0  1  0  0  0  0  0999 V2000
  -29.3410  -20.8800   19.6750 C   0  0  0  0  0  2  0  0  0  0  0  0
  -26.2100  -17.7440   19.5080 C   0  0  0  0  0  3  0  0  0  0  0  0
  -26.0090  -19.0780   19.1600 C   0  0  0  0  0  3  0  0  0  0  0  0
  -27.5040  -17.2930   19.7970 C   0  0  0  0  0  3  0  0  0  0  0  0
  -27.0900  -19.9650   19.1940 C   0  0  0  0  0  3  0  0  0  0  0  0
  -28.6540  -18.1330   19.7840 C   0  0  0  0  0  0  0  0  0  0  0  0
  -28.4070  -19.5890   19.5780 C   0  0  0  0  0  0  0  0  0  0  0  0
  -29.9980  -17.2880   19.9710 C   0  0  0  0  0  2  0  0  0  0  0  0
  -30.6850  -14.6770   20.1440 C   0  0  0  0  0  0  0  0  0  0  0  0
  -30.5430  -12.2850   19.4240 C   0  0  0  0  0  2  0  0  0  0  0  0
  -29.5970  -12.1950   18.2040 C   0  0  0  0  0  2  0  0  0  0  0  0
  -28.1300  -12.0610   18.6570 C   0  0  0  0  0  2  0  0  0  0  0  0
  -27.7480  -13.0890   19.7560 C   0  0  0  0  0  3  0  0  0  0  0  0
  -28.8090  -13.1340   20.8790 C   0  0  0  0  0  2  0  0  0  0  0  0
  -30.1000  -13.4350   20.2450 N   0  0  0  0  0  0  0  0  0  0  0  0
  -31.8630  -14.7840   19.7850 O   0  0  0  0  0  0  0  0  0  0  0  0
  -29.8490  -15.7770   20.2450 N   0  0  0  0  0  0  0  0  0  0  0  0
  -28.9100  -15.5160   20.4990 H   0  0  0  0  0  0  0  0  0  0  0  0
  -25.4090  -13.7740   20.5530 C   0  0  0  0  0  0  0  0  0  0  0  0
  -24.3210  -13.0460   20.9490 C   0  0  0  0  0  0  0  0  0  0  0  0
  -24.7250  -11.6760   20.8930 C   0  0  0  0  0  0  0  0  0  0  0  0
  -26.4070  -12.8540   20.2810 N   0  0  0  0  0  0  0  0  0  0  0  0
  -26.0040  -11.5850   20.5480 N   0  0  0  0  0  0  0  0  0  0  0  0
  -23.9500  -10.4450   21.0920 C   0  0  0  0  0  0  0  0  0  0  0  0
  -24.3810   -9.4360   21.9810 C   0  0  0  0  0  3  0  0  0  0  0  0
  -23.6070   -8.2700   22.1690 C   0  0  0  0  0  3  0  0  0  0  0  0
  -22.3890   -8.1060   21.4670 C   0  0  0  0  0  0  0  0  0  0  0  0
  -21.9760   -9.1030   20.5650 C   0  0  0  0  0  3  0  0  0  0  0  0
  -22.7500  -10.2610   20.3760 C   0  0  0  0  0  3  0  0  0  0  0  0
  -21.5840   -6.9960   21.5670 O   0  0  0  0  0  0  0  0  0  0  0  0
  -21.5730   -6.2150   22.6950 C   0  0  0  0  0  0  0  0  0  0  0  0
  -21.2560   -6.7450   23.9640 C   0  0  0  0  0  3  0  0  0  0  0  0
  -21.1880   -5.8930   25.0860 C   0  0  0  0  0  3  0  0  0  0  0  0
  -21.4260   -4.5130   24.9380 C   0  0  0  0  0  0  0  0  0  0  0  0
  -21.7360   -3.9830   23.6720 C   0  0  0  0  0  3  0  0  0  0  0  0
  -21.8070   -4.8310   22.5540 C   0  0  0  0  0  0  0  0  0  0  0  0
  -22.0840   -4.3130   21.3340 F   0  0  0  0  0  0  0  0  0  0  0  0
  -21.3520   -3.6940   26.0130 F   0  0  0  0  0  0  0  0  0  0  0  0
  -22.9550  -13.5800   21.2660 C   0  0  0  0  0  0  0  0  0  0  0  0
  -22.2280  -12.9130   22.1560 N   0  0  0  0  0  0  0  0  0  0  0  0
  -22.5440  -14.6240   20.7610 O   0  0  0  0  0  0  0  0  0  0  0  0
  -22.5770  -12.0680   22.5840 H   0  0  0  0  0  0  0  0  0  0  0  0
  -21.3130  -13.2510   22.4130 H   0  0  0  0  0  0  0  0  0  0  0  0
  -25.6210  -15.1380   20.3800 N   0  0  0  0  0  0  0  0  0  0  0  0
  -24.8800  -15.8140   20.5210 H   0  0  0  0  0  0  0  0  0  0  0  0
  -26.4670  -15.5570   20.0160 H   0  0  0  0  0  0  0  0  0  0  0  0
  -28.6660  -22.1340   20.2920 N   0  0  0  0  0  4  0  0  0  0  0  0
  -28.7230  -22.0230   21.2930 H   0  0  0  0  0  0  0  0  0  0  0  0
  -27.6930  -22.0210   20.0610 H   0  0  0  0  0  0  0  0  0  0  0  0
  -29.0310  -23.5960   19.9410 C   0  0  0  0  0  3  0  0  0  0  0  0
  -28.1220  -24.7740   20.6060 C   0  0  0  0  0  3  0  0  0  0  0  0
  -28.3740  -26.2520   20.4330 O   0  0  0  0  0  0  0  0  0  0  0  0
  -24.5850  -31.7850   23.2800 C   0  0  0  0  0  0  0  0  0  0  0  0
  -27.2750  -27.1390   20.3790 C   0  0  0  0  0  0  0  0  0  0  0  0
  -23.4340  -30.3720   21.6150 C   0  0  0  0  0  3  0  0  0  0  0  0
  -24.9270  -28.7910   20.2620 C   0  0  0  0  0  0  0  0  0  0  0  0
  -25.9840  -30.6660   21.5210 C   0  0  0  0  0  2  0  0  0  0  0  0
  -26.0790  -29.2750   20.8930 C   0  0  0  0  0  0  0  0  0  0  0  0
  -27.2600  -28.4630   20.9360 C   0  0  0  0  0  3  0  0  0  0  0  0
  -26.1010  -26.7210   19.7180 C   0  0  0  0  0  3  0  0  0  0  0  0
  -24.9420  -27.5210   19.6620 C   0  0  0  0  0  3  0  0  0  0  0  0
  -23.6940  -29.6750   20.2540 C   0  0  0  0  0  2  0  0  0  0  0  0
  -24.6860  -30.9600   22.1940 N   0  0  0  0  0  0  0  0  0  0  0  0
  -23.4840  -32.0750   23.7710 O   0  0  0  0  0  0  0  0  0  0  0  0
  -22.7300  -29.3740   22.5640 C   0  0  0  0  0  0  0  0  0  0  0  0
  -21.4010  -29.2340   22.4190 N   0  0  0  0  0  0  0  0  0  0  0  0
  -23.3790  -28.7270   23.3910 O   0  0  0  0  0  0  0  0  0  0  0  0
  -20.9370  -29.8150   21.7340 H   0  0  0  0  0  0  0  0  0  0  0  0
  -17.9800  -28.1510   22.8960 C   0  0  0  0  0  0  0  0  0  0  0  0
  -20.5460  -28.3130   23.1710 C   0  0  0  0  0  3  0  0  0  0  0  0
  -20.5990  -26.8890   22.5730 C   0  0  0  0  0  2  0  0  0  0  0  0
  -19.4860  -26.6210   21.5540 C   0  0  0  0  0  2  0  0  0  0  0  0
  -18.1090  -26.8070   22.1970 C   0  0  0  0  0  2  0  0  0  0  0  0
  -19.1250  -28.8650   23.3370 C   0  0  0  0  0  0  0  0  0  0  0  0
  -18.9520  -30.1260   23.9460 C   0  0  0  0  0  3  0  0  0  0  0  0
  -17.6660  -30.6720   24.1200 C   0  0  0  0  0  3  0  0  0  0  0  0
  -16.5350  -29.9530   23.6940 C   0  0  0  0  0  3  0  0  0  0  0  0
  -16.6930  -28.6950   23.0880 C   0  0  0  0  0  3  0  0  0  0  0  0
  -25.8480  -32.4180   23.9420 C   0  0  0  0  0  3  0  0  0  0  0  0
  -25.5380  -33.8260   24.2300 N   0  0  0  0  0  0  0  0  0  0  0  0
  -25.8990  -34.8610   23.4580 C   0  0  0  0  0  0  0  0  0  0  0  0
  -26.5950  -34.7300   22.4480 O   0  0  0  0  0  0  0  0  0  0  0  0
  -24.9240  -34.0020   25.0130 H   0  0  0  0  0  0  0  0  0  0  0  0
  -24.1880  -36.6550   23.0280 C   0  0  0  0  0  1  0  0  0  0  0  0
  -25.4110  -36.2630   23.8730 C   0  0  0  0  0  3  0  0  0  0  0  0
  -27.5360  -37.1530   24.7220 C   0  0  0  0  0  1  0  0  0  0  0  0
  -26.4530  -37.3070   23.7560 N   0  0  0  0  0  0  0  0  0  0  0  0
  -26.0490  -38.2330   23.8750 H   0  0  0  0  0  0  0  0  0  0  0  0
  -26.3010  -31.6710   25.2560 C   0  0  1  0  0  0  0  0  0  0  0  0
  -25.1590  -31.4560   26.2770 C   0  0  0  0  0  1  0  0  0  0  0  0
  -26.8970  -30.2840   24.9200 C   0  0  0  0  0  1  0  0  0  0  0  0
  -27.4220  -32.4750   25.9550 C   0  0  0  0  0  1  0  0  0  0  0  0
  1 47  1  0
  2  4  1  0
  3  5  1  0
  3  2  2  0
  5  7  2  0
  6  4  2  0
  6  8  1  0
  7  1  1  0
  7  6  1  0
  8 17  1  0
  9 15  1  0
  9 17  1  0
 10 15  1  0
 11 12  1  0
 11 10  1  0
 13 12  1  0
 13 22  1  0
 13 14  1  0
 15 14  1  0
 16  9  2  0
 17 18  1  0
 19 20  2  0
 20 39  1  0
 21 20  1  0
 21 24  1  0
 22 23  1  0
 22 19  1  0
 23 21  2  0
 24 25  1  0
 25 26  2  0
 27 30  1  0
 27 26  1  0
 28 27  2  0
 29 28  1  0
 29 24  2  0
 30 31  1  0
 31 32  1  0
 32 33  2  0
 34 33  1  0
 34 38  1  0
 35 34  2  0
 36 31  2  0
 36 35  1  0
 37 36  1  0
 39 40  1  0
 40 43  1  0
 40 42  1  0
 41 39  2  0
 44 45  1  0
 44 19  1  0
 46 44  1  0
 47 48  1  0
 49 47  1  0
 50 47  1  0
 50 51  2  0
 52 51  1  0
 53 64  2  0
 54 52  1  0
 54 59  1  0
 55 63  1  0
 55 65  1  0
 56 58  1  0
 57 63  1  0
 58 59  2  0
 58 57  1  0
 60 54  2  0
 61 60  1  0
 61 56  2  0
 62 56  1  0
 62 55  1  0
 63 53  1  0
 65 67  2  0
 66 65  1  0
 68 66  1  0
 69 78  2  0
 69 74  1  0
 70 66  1  0
 70 74  1  0
 71 70  1  0
 72 73  1  0
 72 71  1  0
 73 69  1  0
 74 75  2  0
 75 76  1  0
 77 76  2  0
 78 77  1  0
 79 53  1  0
 79 80  1  0
 79 89  1  0
 80 83  1  0
 81 85  1  0
 81 80  1  0
 82 81  2  0
 85 84  1  0
 87 85  1  0
 87 88  1  0
 87 86  1  0
 89 92  1  1
 89 90  1  0
 91 89  1  0
M  ISO  4   9 100  17 100  51 101  52 101
M  END
>  <TORSDO>  (28) 
F 21

>  <SCORE>  (28) 
-12.620

>  <name>  (28) 
27

>  <ligand_id>  (28) 
27

>  <original_smiles>  (28) 
[H]c1c([H])c([H])c(C([H])([H])[N+]([H])([H])C([H])([H])C([H])([H])Oc2c([H])c([H])c3c(c2[H])C([H])([H])N(C(=O)C([H])(N([H])C(=O)C([H])(N([H])C([H])([H])[H])C([H])([H])[H])C(C([H])([H])[H])(C([H])([H])[H])C([H])([H])[H])C([H])(C(=O)N([H])C2([H])c4c([H])c([H])c([H])c([H])c4C([H])([H])C([H])([H])C2([H])[H])C3([H])[H])c(C([H])([H])N([H])C(=O)N2C([H])([H])C([H])([H])C([H])([H])C([H])(n3nc(-c4c([H])c([H])c(Oc5c([H])c([H])c(F)c([H])c5F)c([H])c4[H])c(C(=O)N([H])[H])c3N([H])[H])C2([H])[H])c1[H]

>  <smiles>  (28) 
[H]c1c([H])c([H])c(C([H])([H])[N+]([H])([H])C([H])([H])C([H])([H])Oc2c([H])c([H])c3c(c2[H])C([H])([H])N(C(=O)C([H])(N([H])C(=O)C([H])(N([H])C([H])([H])[H])C([H])([H])[H])C(C([H])([H])[H])(C([H])([H])[H])C([H])([H])[H])C([H])(C(=O)N([H])C2([H])c4c([H])c([H])c([H])c([H])c4C([H])([H])C([H])([H])C2([H])[H])C3([H])[H])c(C([H])([H])N([H])C(=O)N2C([H])([H])C([H])([H])C([H])([H])C([H])(n3nc(-c4c([H])c([H])c(Oc5c([H])c([H])c(F)c([H])c5F)c([H])c4[H])c(C(=O)N([H])[H])c3N([H])[H])C2([H])[H])c1[H]

$$$$
28:0:0
     RDKit          3D

 87 95  0  0  1  0  0  0  0  0999 V2000
  -28.4030  -21.3220   20.2450 C   0  0  0  0  0  2  0  0  0  0  0  0
  -30.5070  -15.1840   20.2380 C   0  0  0  0  0  0  0  0  0  0  0  0
  -30.3910  -12.7830   19.3440 C   0  0  0  0  0  2  0  0  0  0  0  0
  -29.4500  -12.6340   18.1250 C   0  0  0  0  0  2  0  0  0  0  0  0
  -28.0080  -12.3800   18.5940 C   0  0  0  0  0  2  0  0  0  0  0  0
  -27.5860  -13.3390   19.7380 C   0  0  0  0  0  3  0  0  0  0  0  0
  -28.6540  -13.4630   20.8430 C   0  0  0  0  0  2  0  0  0  0  0  0
  -29.8850  -13.9190   20.1860 N   0  0  0  0  0  0  0  0  0  0  0  0
  -31.7240  -15.1540   20.0100 O   0  0  0  0  0  0  0  0  0  0  0  0
  -29.2130  -17.2560   19.2380 C   0  0  0  0  0  2  0  0  0  0  0  0
  -30.4780  -17.6630   21.1220 C   0  0  0  0  0  2  0  0  0  0  0  0
  -28.5220  -18.7510   19.4030 C   0  0  0  0  0  2  0  0  0  0  0  0
  -29.7730  -19.1530   21.3100 C   0  0  0  0  0  2  0  0  0  0  0  0
  -29.8330  -16.4790   20.3900 N   0  0  0  0  0  0  0  0  0  0  0  0
  -29.2440  -19.9140   20.0970 N   0  0  2  0  0  4  0  0  0  0  0  0
  -30.0400  -20.1270   19.5140 H   0  0  0  0  0  0  0  0  0  0  0  0
  -25.2340  -13.8880   20.5610 C   0  0  0  0  0  0  0  0  0  0  0  0
  -24.1780  -13.1040   20.9350 C   0  0  0  0  0  0  0  0  0  0  0  0
  -24.6450  -11.7550   20.8640 C   0  0  0  0  0  0  0  0  0  0  0  0
  -26.2690  -13.0170   20.2730 N   0  0  0  0  0  0  0  0  0  0  0  0
  -25.9290  -11.7270   20.5240 N   0  0  0  0  0  0  0  0  0  0  0  0
  -23.9230  -10.4880   21.0410 C   0  0  0  0  0  0  0  0  0  0  0  0
  -24.3520   -9.5150   21.9700 C   0  0  0  0  0  3  0  0  0  0  0  0
  -23.6270   -8.3150   22.1380 C   0  0  0  0  0  3  0  0  0  0  0  0
  -22.4580   -8.0810   21.3750 C   0  0  0  0  0  0  0  0  0  0  0  0
  -22.0480   -9.0420   20.4360 C   0  0  0  0  0  3  0  0  0  0  0  0
  -22.7740  -10.2330   20.2660 C   0  0  0  0  0  3  0  0  0  0  0  0
  -21.7030   -6.9350   21.4510 O   0  0  0  0  0  0  0  0  0  0  0  0
  -21.6140   -6.2080   22.6110 C   0  0  0  0  0  0  0  0  0  0  0  0
  -21.1240   -6.7740   23.8090 C   0  0  0  0  0  3  0  0  0  0  0  0
  -20.9830   -5.9730   24.9600 C   0  0  0  0  0  3  0  0  0  0  0  0
  -21.3220   -4.6070   24.9130 C   0  0  0  0  0  0  0  0  0  0  0  0
  -21.8060   -4.0420   23.7200 C   0  0  0  0  0  3  0  0  0  0  0  0
  -21.9480   -4.8390   22.5720 C   0  0  0  0  0  0  0  0  0  0  0  0
  -22.3930   -4.2840   21.4200 F   0  0  0  0  0  0  0  0  0  0  0  0
  -21.1800   -3.8350   26.0170 F   0  0  0  0  0  0  0  0  0  0  0  0
  -22.7870  -13.5760   21.2400 C   0  0  0  0  0  0  0  0  0  0  0  0
  -22.0770  -12.8670   22.1100 N   0  0  0  0  0  0  0  0  0  0  0  0
  -22.3400  -14.6080   20.7430 O   0  0  0  0  0  0  0  0  0  0  0  0
  -22.4530  -12.0330   22.5370 H   0  0  0  0  0  0  0  0  0  0  0  0
  -21.1460  -13.1690   22.3590 H   0  0  0  0  0  0  0  0  0  0  0  0
  -25.3940  -15.2640   20.4130 N   0  0  0  0  0  0  0  0  0  0  0  0
  -24.6320  -15.9150   20.5730 H   0  0  0  0  0  0  0  0  0  0  0  0
  -26.2450  -15.7150   20.1060 H   0  0  0  0  0  0  0  0  0  0  0  0
  -28.9020  -23.0030   20.2450 C   0  0  0  0  0  3  0  0  0  0  0  0
  -27.9120  -24.4510   20.1180 C   0  0  0  0  0  3  0  0  0  0  0  0
  -28.2070  -26.0310   20.2460 O   0  0  0  0  0  0  0  0  0  0  0  0
  -24.6500  -31.8880   23.2520 C   0  0  0  0  0  0  0  0  0  0  0  0
  -27.1840  -27.0860   20.1970 C   0  0  0  0  0  0  0  0  0  0  0  0
  -23.4430  -30.5070   21.6100 C   0  0  0  0  0  3  0  0  0  0  0  0
  -24.8800  -28.9170   20.1750 C   0  0  0  0  0  0  0  0  0  0  0  0
  -26.0060  -30.7310   21.4500 C   0  0  0  0  0  2  0  0  0  0  0  0
  -26.0690  -29.3330   20.7860 C   0  0  0  0  0  0  0  0  0  0  0  0
  -27.2200  -28.4370   20.7740 C   0  0  0  0  0  3  0  0  0  0  0  0
  -25.9630  -26.8000   19.5470 C   0  0  0  0  0  3  0  0  0  0  0  0
  -24.8460  -27.6680   19.5380 C   0  0  0  0  0  3  0  0  0  0  0  0
  -23.6630  -29.8340   20.2280 C   0  0  0  0  0  2  0  0  0  0  0  0
  -24.7210  -31.0670   22.1580 N   0  0  0  0  0  0  0  0  0  0  0  0
  -23.5650  -32.1780   23.7800 O   0  0  0  0  0  0  0  0  0  0  0  0
  -22.7550  -29.5030   22.5700 C   0  0  0  0  0  0  0  0  0  0  0  0
  -21.4250  -29.3370   22.4420 N   0  0  0  0  0  0  0  0  0  0  0  0
  -23.4210  -28.8740   23.3950 O   0  0  0  0  0  0  0  0  0  0  0  0
  -20.9430  -29.8950   21.7520 H   0  0  0  0  0  0  0  0  0  0  0  0
  -18.0410  -28.1350   22.9430 C   0  0  0  0  0  0  0  0  0  0  0  0
  -20.6010  -28.3990   23.2100 C   0  0  0  0  0  3  0  0  0  0  0  0
  -20.7010  -26.9670   22.6340 C   0  0  0  0  0  2  0  0  0  0  0  0
  -19.6000  -26.6460   21.6190 C   0  0  0  0  0  2  0  0  0  0  0  0
  -18.2180  -26.7880   22.2620 C   0  0  0  0  0  2  0  0  0  0  0  0
  -19.1590  -28.8980   23.3740 C   0  0  0  0  0  0  0  0  0  0  0  0
  -18.9370  -30.1560   23.9730 C   0  0  0  0  0  3  0  0  0  0  0  0
  -17.6310  -30.6530   24.1460 C   0  0  0  0  0  3  0  0  0  0  0  0
  -16.5290  -29.8880   23.7280 C   0  0  0  0  0  3  0  0  0  0  0  0
  -16.7340  -28.6310   23.1320 C   0  0  0  0  0  3  0  0  0  0  0  0
  -25.9290  -32.5180   23.8820 C   0  0  0  0  0  3  0  0  0  0  0  0
  -25.6210  -33.9190   24.2190 N   0  0  0  0  0  0  0  0  0  0  0  0
  -25.9290  -34.9760   23.4580 C   0  0  0  0  0  0  0  0  0  0  0  0
  -26.5680  -34.8770   22.4070 O   0  0  0  0  0  0  0  0  0  0  0  0
  -25.0480  -34.0690   25.0370 H   0  0  0  0  0  0  0  0  0  0  0  0
  -24.1770  -36.7640   23.1830 C   0  0  0  0  0  1  0  0  0  0  0  0
  -25.4580  -36.3650   23.9340 C   0  0  0  0  0  3  0  0  0  0  0  0
  -27.6220  -37.2680   24.6640 C   0  0  0  0  0  1  0  0  0  0  0  0
  -26.4780  -37.4240   23.7690 N   0  0  0  0  0  0  0  0  0  0  0  0
  -26.0730  -38.3430   23.9280 H   0  0  0  0  0  0  0  0  0  0  0  0
  -26.4320  -31.7480   25.1660 C   0  0  1  0  0  0  0  0  0  0  0  0
  -25.3310  -31.5220   26.2290 C   0  0  0  0  0  1  0  0  0  0  0  0
  -27.0090  -30.3640   24.7890 C   0  0  0  0  0  1  0  0  0  0  0  0
  -27.5840  -32.5370   25.8320 C   0  0  0  0  0  1  0  0  0  0  0  0
  1 45  1  0
  2 14  1  0
  3  8  1  0
  4  5  1  0
  4  3  1  0
  6  5  1  0
  6 20  1  0
  6  7  1  0
  8  2  1  0
  8  7  1  0
  9  2  2  0
 10 12  1  0
 10 14  1  0
 11 13  1  0
 12 15  1  0
 14 11  1  0
 15  1  1  0
 15 13  1  0
 15 16  1  6
 17 18  2  0
 18 37  1  0
 19 18  1  0
 19 22  1  0
 20 21  1  0
 20 17  1  0
 21 19  2  0
 22 23  1  0
 23 24  2  0
 25 28  1  0
 25 24  1  0
 26 25  2  0
 27 26  1  0
 27 22  2  0
 28 29  1  0
 29 30  1  0
 30 31  2  0
 32 31  1  0
 32 36  1  0
 33 32  2  0
 34 29  2  0
 34 33  1  0
 35 34  1  0
 37 38  1  0
 38 41  1  0
 38 40  1  0
 39 37  2  0
 42 17  1  0
 42 43  1  0
 44 42  1  0
 46 45  2  0
 46 47  1  0
 48 59  2  0
 49 47  1  0
 49 54  1  0
 50 58  1  0
 50 60  1  0
 51 57  1  0
 51 53  1  0
 52 58  1  0
 53 52  1  0
 54 53  2  0
 55 49  2  0
 56 55  1  0
 56 51  2  0
 57 50  1  0
 58 48  1  0
 60 62  2  0
 61 60  1  0
 63 61  1  0
 64 73  2  0
 64 69  1  0
 65 61  1  0
 65 69  1  0
 66 65  1  0
 67 68  1  0
 67 66  1  0
 68 64  1  0
 69 70  2  0
 70 71  1  0
 72 71  2  0
 73 72  1  0
 74 48  1  0
 74 75  1  0
 74 84  1  0
 75 78  1  0
 76 80  1  0
 76 75  1  0
 77 76  2  0
 80 79  1  0
 82 83  1  0
 82 80  1  0
 82 81  1  0
 84 87  1  1
 84 85  1  0
 86 84  1  0
M  ISO  4   2 100  14 100  46 101  47 101
M  END
>  <TORSDO>  (29) 
F 18

>  <SCORE>  (29) 
-15.663

>  <name>  (29) 
28

>  <ligand_id>  (29) 
28

>  <original_smiles>  (29) 
[H]c1c([H])c([H])c2c(c1[H])C([H])([H])C([H])([H])C([H])([H])C2([H])N([H])C(=O)C1([H])N(C(=O)C([H])(N([H])C(=O)C([H])(N([H])C([H])([H])[H])C([H])([H])[H])C(C([H])([H])[H])(C([H])([H])[H])C([H])([H])[H])C([H])([H])c2c([H])c(OC([H])([H])C([H])([H])C([H])([H])[N+]3([H])C([H])([H])C([H])([H])N(C(=O)N4C([H])([H])C([H])([H])C([H])([H])C([H])(n5nc(-c6c([H])c([H])c(Oc7c([H])c([H])c(F)c([H])c7F)c([H])c6[H])c(C(=O)N([H])[H])c5N([H])[H])C4([H])[H])C([H])([H])C3([H])[H])c([H])c([H])c2C1([H])[H]

>  <smiles>  (29) 
[H]c1c([H])c([H])c2c(c1[H])C([H])([H])C([H])([H])C([H])([H])C2([H])N([H])C(=O)C1([H])N(C(=O)C([H])(N([H])C(=O)C([H])(N([H])C([H])([H])[H])C([H])([H])[H])C(C([H])([H])[H])(C([H])([H])[H])C([H])([H])[H])C([H])([H])c2c([H])c(OC([H])([H])C([H])([H])C([H])([H])[N+]3([H])C([H])([H])C([H])([H])N(C(=O)N4C([H])([H])C([H])([H])C([H])([H])C([H])(n5nc(-c6c([H])c([H])c(Oc7c([H])c([H])c(F)c([H])c7F)c([H])c6[H])c(C(=O)N([H])[H])c5N([H])[H])C4([H])[H])C([H])([H])C3([H])[H])c([H])c([H])c2C1([H])[H]

$$$$
29:0:0
     RDKit          3D

 91 98  0  0  1  0  0  0  0  0999 V2000
  -29.6500  -20.3970   19.4970 C   0  0  0  0  0  3  0  0  0  0  0  0
  -30.0520  -18.8900   20.0910 C   0  0  0  0  0  0  0  0  0  0  0  0
  -31.0620  -18.8680   20.7990 O   0  0  0  0  0  0  0  0  0  0  0  0
  -29.2300  -17.4290   19.8700 C   0  0  0  0  0  0  0  0  0  0  0  0
  -30.5780  -14.8930   20.4290 C   0  0  0  0  0  0  0  0  0  0  0  0
  -30.6430  -12.3660   20.1580 C   0  0  0  0  0  2  0  0  0  0  0  0
  -29.8570  -11.9670   18.8820 C   0  0  0  0  0  2  0  0  0  0  0  0
  -28.3470  -11.8380   19.1710 C   0  0  0  0  0  2  0  0  0  0  0  0
  -27.8000  -13.0210   20.0090 C   0  0  0  0  0  3  0  0  0  0  0  0
  -28.7110  -13.3380   21.2160 C   0  0  0  0  0  2  0  0  0  0  0  0
  -30.0510  -13.6260   20.6790 N   0  0  0  0  0  0  0  0  0  0  0  0
  -31.7970  -15.0030   20.2650 O   0  0  0  0  0  0  0  0  0  0  0  0
  -29.6320  -15.9160   20.1910 N   0  0  0  0  0  4  0  0  0  0  0  0
  -28.7610  -15.4390   20.3490 H   0  0  0  0  0  0  0  0  0  0  0  0
  -25.4150  -13.7790   20.5550 C   0  0  0  0  0  0  0  0  0  0  0  0
  -24.2720  -13.0970   20.8660 C   0  0  0  0  0  0  0  0  0  0  0  0
  -24.6370  -11.7150   20.8700 C   0  0  0  0  0  0  0  0  0  0  0  0
  -26.4070  -12.8260   20.4030 N   0  0  0  0  0  0  0  0  0  0  0  0
  -25.9410  -11.5770   20.6550 N   0  0  0  0  0  0  0  0  0  0  0  0
  -23.8030  -10.5160   21.0050 C   0  0  0  0  0  0  0  0  0  0  0  0
  -24.1380   -9.4800   21.9050 C   0  0  0  0  0  3  0  0  0  0  0  0
  -23.3070   -8.3450   22.0290 C   0  0  0  0  0  3  0  0  0  0  0  0
  -22.1280   -8.2420   21.2540 C   0  0  0  0  0  0  0  0  0  0  0  0
  -21.8110   -9.2670   20.3460 C   0  0  0  0  0  3  0  0  0  0  0  0
  -22.6410  -10.3920   20.2180 C   0  0  0  0  0  3  0  0  0  0  0  0
  -21.2750   -7.1670   21.2930 O   0  0  0  0  0  0  0  0  0  0  0  0
  -21.1810   -6.3630   22.4010 C   0  0  0  0  0  0  0  0  0  0  0  0
  -20.8060   -6.8760   23.6630 C   0  0  0  0  0  3  0  0  0  0  0  0
  -20.6480   -6.0020   24.7570 C   0  0  0  0  0  3  0  0  0  0  0  0
  -20.8570   -4.6210   24.5920 C   0  0  0  0  0  0  0  0  0  0  0  0
  -21.2270   -4.1090   23.3360 C   0  0  0  0  0  3  0  0  0  0  0  0
  -21.3850   -4.9770   22.2430 C   0  0  0  0  0  0  0  0  0  0  0  0
  -21.7190   -4.4760   21.0290 F   0  0  0  0  0  0  0  0  0  0  0  0
  -20.7020   -3.7820   25.6430 F   0  0  0  0  0  0  0  0  0  0  0  0
  -22.9020  -13.6870   21.0370 C   0  0  0  0  0  0  0  0  0  0  0  0
  -22.0700  -13.0760   21.8710 N   0  0  0  0  0  0  0  0  0  0  0  0
  -22.5790  -14.7280   20.4640 O   0  0  0  0  0  0  0  0  0  0  0  0
  -22.3470  -12.2380   22.3610 H   0  0  0  0  0  0  0  0  0  0  0  0
  -21.1460  -13.4560   22.0240 H   0  0  0  0  0  0  0  0  0  0  0  0
  -25.6750  -15.1240   20.3560 N   0  0  0  0  0  0  0  0  0  0  0  0
  -24.9230  -15.8030   20.3490 H   0  0  0  0  0  0  0  0  0  0  0  0
  -26.5310  -15.4930   19.9660 H   0  0  0  0  0  0  0  0  0  0  0  0
  -28.3250  -17.3340   18.5690 C   0  0  0  0  0  2  0  0  0  0  0  0
  -27.2370  -18.3000   16.4350 C   0  0  0  0  0  1  0  0  0  0  0  0
  -27.0150  -19.6280   18.6050 C   0  0  0  0  0  1  0  0  0  0  0  0
  -27.1680  -18.2290   17.9760 C   0  0  0  0  0  3  0  0  0  0  0  0
  -29.1750  -21.7900   20.3200 C   0  0  0  0  0  3  0  0  0  0  0  0
  -28.4470  -23.2530   18.2890 C   0  0  0  0  0  1  0  0  0  0  0  0
  -29.0990  -23.3540   19.6790 C   0  0  0  0  0  3  0  0  0  0  0  0
  -28.4320  -24.6770   20.4900 C   0  0  0  0  0  2  0  0  0  0  0  0
  -28.5680  -26.2050   20.2190 O   0  0  0  0  0  0  0  0  0  0  0  0
  -24.7200  -31.7860   23.2130 C   0  0  0  0  0  0  0  0  0  0  0  0
  -27.4610  -27.1270   20.2330 C   0  0  0  0  0  0  0  0  0  0  0  0
  -23.5870  -30.3870   21.5280 C   0  0  0  0  0  3  0  0  0  0  0  0
  -25.0980  -28.8190   20.1570 C   0  0  0  0  0  0  0  0  0  0  0  0
  -26.1400  -30.6800   21.4420 C   0  0  0  0  0  2  0  0  0  0  0  0
  -26.2530  -29.2900   20.7930 C   0  0  0  0  0  0  0  0  0  0  0  0
  -27.4390  -28.4620   20.8060 C   0  0  0  0  0  3  0  0  0  0  0  0
  -26.2720  -26.7420   19.5820 C   0  0  0  0  0  3  0  0  0  0  0  0
  -25.1160  -27.5570   19.5420 C   0  0  0  0  0  3  0  0  0  0  0  0
  -23.8630  -29.7090   20.1580 C   0  0  0  0  0  2  0  0  0  0  0  0
  -24.8340  -30.9720   22.1180 N   0  0  0  0  0  0  0  0  0  0  0  0
  -23.6140  -32.0580   23.7060 O   0  0  0  0  0  0  0  0  0  0  0  0
  -22.8840  -29.3720   22.4640 C   0  0  0  0  0  0  0  0  0  0  0  0
  -21.5540  -29.2240   22.3180 N   0  0  0  0  0  0  0  0  0  0  0  0
  -23.5350  -28.7220   23.2850 O   0  0  0  0  0  0  0  0  0  0  0  0
  -21.0870  -29.8030   21.6330 H   0  0  0  0  0  0  0  0  0  0  0  0
  -18.1460  -28.1030   22.7960 C   0  0  0  0  0  0  0  0  0  0  0  0
  -20.7110  -28.2830   23.0600 C   0  0  0  0  0  3  0  0  0  0  0  0
  -20.7700  -26.8700   22.4340 C   0  0  0  0  0  2  0  0  0  0  0  0
  -19.6560  -26.6130   21.4140 C   0  0  0  0  0  2  0  0  0  0  0  0
  -18.2820  -26.7730   22.0710 C   0  0  0  0  0  2  0  0  0  0  0  0
  -19.2860  -28.8190   23.2480 C   0  0  0  0  0  0  0  0  0  0  0  0
  -19.1050  -30.0620   23.8910 C   0  0  0  0  0  3  0  0  0  0  0  0
  -17.8150  -30.5920   24.0830 C   0  0  0  0  0  3  0  0  0  0  0  0
  -16.6900  -29.8740   23.6460 C   0  0  0  0  0  3  0  0  0  0  0  0
  -16.8550  -28.6290   23.0110 C   0  0  0  0  0  3  0  0  0  0  0  0
  -25.9690  -32.4300   23.8880 C   0  0  0  0  0  3  0  0  0  0  0  0
  -25.6460  -33.8350   24.1810 N   0  0  0  0  0  0  0  0  0  0  0  0
  -26.0050  -34.8770   23.4200 C   0  0  0  0  0  0  0  0  0  0  0  0
  -26.7070  -34.7580   22.4120 O   0  0  0  0  0  0  0  0  0  0  0  0
  -25.0200  -34.0010   24.9560 H   0  0  0  0  0  0  0  0  0  0  0  0
  -24.2800  -36.6650   23.0020 C   0  0  0  0  0  1  0  0  0  0  0  0
  -25.5060  -36.2730   23.8420 C   0  0  0  0  0  3  0  0  0  0  0  0
  -27.6190  -37.1850   24.7020 C   0  0  0  0  0  1  0  0  0  0  0  0
  -26.5390  -37.3270   23.7300 N   0  0  0  0  0  0  0  0  0  0  0  0
  -26.1250  -38.2490   23.8480 H   0  0  0  0  0  0  0  0  0  0  0  0
  -26.4170  -31.6830   25.2030 C   0  0  1  0  0  0  0  0  0  0  0  0
  -25.2710  -31.4670   26.2190 C   0  0  0  0  0  1  0  0  0  0  0  0
  -27.0150  -30.2980   24.8670 C   0  0  0  0  0  1  0  0  0  0  0  0
  -27.5360  -32.4860   25.9080 C   0  0  0  0  0  1  0  0  0  0  0  0
  1  2  1  0
  1 47  2  0
  2  3  2  0
  4  2  1  0
  4 13  2  0
  5 11  1  0
  6 11  1  0
  7  8  1  0
  7  6  1  0
  9  8  1  0
  9 18  1  0
  9 10  1  0
 11 10  1  0
 12  5  2  0
 13 14  1  0
 13  5  1  0
 15 16  2  0
 16 17  1  0
 16 35  1  0
 17 20  1  0
 18 15  1  0
 18 19  1  0
 19 17  2  0
 20 21  1  0
 21 22  2  0
 23 26  1  0
 23 22  1  0
 24 23  2  0
 25 24  1  0
 25 20  2  0
 26 27  1  0
 27 28  1  0
 28 29  2  0
 30 29  1  0
 30 34  1  0
 31 30  2  0
 32 27  2  0
 32 31  1  0
 33 32  1  0
 35 36  1  0
 36 39  1  0
 36 38  1  0
 37 35  2  0
 40 15  1  0
 41 40  1  0
 42 40  1  0
 43  4  1  0
 44 46  1  0
 46 43  1  0
 46 45  1  0
 49 48  1  0
 49 47  1  0
 49 50  1  0
 51 53  1  0
 51 50  1  0
 52 63  2  0
 53 58  1  0
 54 62  1  0
 54 64  1  0
 55 61  1  0
 55 57  1  0
 56 62  1  0
 57 58  2  0
 57 56  1  0
 59 53  2  0
 60 59  1  0
 60 55  2  0
 61 54  1  0
 62 52  1  0
 64 66  2  0
 65 64  1  0
 67 65  1  0
 68 77  2  0
 68 73  1  0
 69 65  1  0
 69 73  1  0
 70 69  1  0
 71 72  1  0
 71 70  1  0
 72 68  1  0
 73 74  2  0
 74 75  1  0
 76 75  2  0
 77 76  1  0
 78 52  1  0
 78 79  1  0
 78 88  1  0
 79 82  1  0
 80 84  1  0
 80 79  1  0
 81 80  2  0
 84 83  1  0
 86 84  1  0
 86 87  1  0
 86 85  1  0
 88 91  1  1
 88 89  1  0
 90 88  1  0
M  ISO  4   5 100  13 100  50 101  51 101
M  END
>  <TORSDO>  (30) 
F 23

>  <SCORE>  (30) 
-11.006

>  <name>  (30) 
29

>  <ligand_id>  (30) 
29

>  <original_smiles>  (30) 
[H]c1c([H])c([H])c2c(c1[H])C([H])([H])C([H])([H])C([H])([H])C2([H])N([H])C(=O)C1([H])N(C(=O)C([H])(N([H])C(=O)C([H])(N([H])C([H])([H])[H])C([H])([H])[H])C(C([H])([H])[H])(C([H])([H])[H])C([H])([H])[H])C([H])([H])c2c([H])c(OC([H])([H])C([H])(C([H])([H])[H])C([H])([H])C([H])([H])C(=O)C([H])(N([H])C(=O)N3C([H])([H])C([H])([H])C([H])([H])C([H])(n4nc(-c5c([H])c([H])c(Oc6c([H])c([H])c(F)c([H])c6F)c([H])c5[H])c(C(=O)N([H])[H])c4N([H])[H])C3([H])[H])C([H])([H])C([H])(C([H])([H])[H])C([H])([H])[H])c([H])c([H])c2C1([H])[H]

>  <smiles>  (30) 
[H]c1c([H])c([H])c2c(c1[H])C([H])([H])C([H])([H])C([H])([H])C2([H])N([H])C(=O)C1([H])N(C(=O)C([H])(N([H])C(=O)C([H])(N([H])C([H])([H])[H])C([H])([H])[H])C(C([H])([H])[H])(C([H])([H])[H])C([H])([H])[H])C([H])([H])c2c([H])c(OC([H])([H])C([H])(C([H])([H])[H])C([H])([H])C([H])([H])C(=O)C([H])(N([H])C(=O)N3C([H])([H])C([H])([H])C([H])([H])C([H])(n4nc(-c5c([H])c([H])c(Oc6c([H])c([H])c(F)c([H])c6F)c([H])c5[H])c(C(=O)N([H])[H])c4N([H])[H])C3([H])[H])C([H])([H])C([H])(C([H])([H])[H])C([H])([H])[H])c([H])c([H])c2C1([H])[H]

$$$$
30:0:0
     RDKit          3D

 93101  0  0  1  0  0  0  0  0999 V2000
  -30.1930  -19.1160   21.1990 C   0  0  0  0  0  2  0  0  0  0  0  0
  -28.4130  -18.8860   19.7410 C   0  0  0  0  0  2  0  0  0  0  0  0
  -30.1830  -20.7560   20.9490 C   0  0  0  0  0  2  0  0  0  0  0  0
  -28.3220  -20.5370   19.5110 C   0  0  0  0  0  2  0  0  0  0  0  0
  -29.7960  -18.0680   20.0360 C   0  0  2  0  0  0  0  0  0  0  0  0
  -28.8990  -21.5100   20.5500 N   0  0  2  0  0  4  0  0  0  0  0  0
  -28.2950  -21.4540   21.3590 H   0  0  0  0  0  0  0  0  0  0  0  0
  -30.4310  -15.2000   20.2770 C   0  0  0  0  0  0  0  0  0  0  0  0
  -30.3540  -12.8010   19.3710 C   0  0  0  0  0  2  0  0  0  0  0  0
  -29.4140  -12.6740   18.1480 C   0  0  0  0  0  2  0  0  0  0  0  0
  -27.9640  -12.4270   18.5980 C   0  0  0  0  0  2  0  0  0  0  0  0
  -27.5420  -13.3590   19.7630 C   0  0  0  0  0  3  0  0  0  0  0  0
  -28.6080  -13.4500   20.8740 C   0  0  0  0  0  2  0  0  0  0  0  0
  -29.8450  -13.9190   20.2340 N   0  0  0  0  0  0  0  0  0  0  0  0
  -31.6470  -15.2050   20.0470 O   0  0  0  0  0  0  0  0  0  0  0  0
  -29.6650  -16.4440   20.3460 N   0  0  0  0  0  0  0  0  0  0  0  0
  -28.7040  -16.2120   20.5430 H   0  0  0  0  0  0  0  0  0  0  0  0
  -25.1760  -13.9010   20.5540 C   0  0  0  0  0  0  0  0  0  0  0  0
  -24.1230  -13.1160   20.9290 C   0  0  0  0  0  0  0  0  0  0  0  0
  -24.5950  -11.7670   20.8740 C   0  0  0  0  0  0  0  0  0  0  0  0
  -26.2200  -13.0350   20.2840 N   0  0  0  0  0  0  0  0  0  0  0  0
  -25.8830  -11.7440   20.5450 N   0  0  0  0  0  0  0  0  0  0  0  0
  -23.8760  -10.4980   21.0550 C   0  0  0  0  0  0  0  0  0  0  0  0
  -24.3110   -9.5270   21.9830 C   0  0  0  0  0  3  0  0  0  0  0  0
  -23.5880   -8.3250   22.1540 C   0  0  0  0  0  3  0  0  0  0  0  0
  -22.4160   -8.0890   21.3970 C   0  0  0  0  0  0  0  0  0  0  0  0
  -22.0000   -9.0500   20.4580 C   0  0  0  0  0  3  0  0  0  0  0  0
  -22.7240  -10.2400   20.2850 C   0  0  0  0  0  3  0  0  0  0  0  0
  -21.6650   -6.9410   21.4770 O   0  0  0  0  0  0  0  0  0  0  0  0
  -21.6020   -6.2010   22.6310 C   0  0  0  0  0  0  0  0  0  0  0  0
  -21.1270   -6.7500   23.8420 C   0  0  0  0  0  3  0  0  0  0  0  0
  -21.0130   -5.9350   24.9860 C   0  0  0  0  0  3  0  0  0  0  0  0
  -21.3640   -4.5740   24.9210 C   0  0  0  0  0  0  0  0  0  0  0  0
  -21.8330   -4.0250   23.7140 C   0  0  0  0  0  3  0  0  0  0  0  0
  -21.9480   -4.8360   22.5720 C   0  0  0  0  0  0  0  0  0  0  0  0
  -22.3810   -4.2970   21.4060 F   0  0  0  0  0  0  0  0  0  0  0  0
  -21.2470   -3.7890   26.0180 F   0  0  0  0  0  0  0  0  0  0  0  0
  -22.7260  -13.5820   21.2180 C   0  0  0  0  0  0  0  0  0  0  0  0
  -22.0070  -12.8710   22.0770 N   0  0  0  0  0  0  0  0  0  0  0  0
  -22.2820  -14.6160   20.7180 O   0  0  0  0  0  0  0  0  0  0  0  0
  -22.3800  -12.0350   22.5050 H   0  0  0  0  0  0  0  0  0  0  0  0
  -21.0720  -13.1660   22.3150 H   0  0  0  0  0  0  0  0  0  0  0  0
  -25.3270  -15.2750   20.3910 N   0  0  0  0  0  0  0  0  0  0  0  0
  -24.5460  -15.9130   20.5050 H   0  0  0  0  0  0  0  0  0  0  0  0
  -26.1490  -15.7210   20.0060 H   0  0  0  0  0  0  0  0  0  0  0  0
  -30.7570  -18.3090   18.8330 C   0  0  0  0  0  0  0  0  0  0  0  0
  -31.7630  -17.4800   18.6160 N   0  0  0  0  0  0  0  0  0  0  0  0
  -30.6180  -19.2640   18.0770 O   0  0  0  0  0  0  0  0  0  0  0  0
  -31.8820  -16.6580   19.2170 H   0  0  0  0  0  0  0  0  0  0  0  0
  -32.3980  -17.6290   17.8470 H   0  0  0  0  0  0  0  0  0  0  0  0
  -29.0580  -23.1160   20.2240 C   0  0  0  0  0  3  0  0  0  0  0  0
  -27.9660  -24.4610   20.4470 C   0  0  0  0  0  3  0  0  0  0  0  0
  -28.2110  -26.0550   20.3410 O   0  0  0  0  0  0  0  0  0  0  0  0
  -24.5790  -31.9170   23.2530 C   0  0  0  0  0  0  0  0  0  0  0  0
  -27.1660  -27.0860   20.2930 C   0  0  0  0  0  0  0  0  0  0  0  0
  -23.3920  -30.4980   21.6280 C   0  0  0  0  0  3  0  0  0  0  0  0
  -24.8490  -28.8970   20.2290 C   0  0  0  0  0  0  0  0  0  0  0  0
  -25.9530  -30.7410   21.4780 C   0  0  0  0  0  2  0  0  0  0  0  0
  -26.0320  -29.3330   20.8400 C   0  0  0  0  0  0  0  0  0  0  0  0
  -27.1890  -28.4470   20.8460 C   0  0  0  0  0  3  0  0  0  0  0  0
  -25.9540  -26.7800   19.6370 C   0  0  0  0  0  3  0  0  0  0  0  0
  -24.8300  -27.6390   19.6080 C   0  0  0  0  0  3  0  0  0  0  0  0
  -23.6250  -29.8040   20.2600 C   0  0  0  0  0  2  0  0  0  0  0  0
  -24.6620  -31.0770   22.1740 N   0  0  0  0  0  0  0  0  0  0  0  0
  -23.4880  -32.2070   23.7710 O   0  0  0  0  0  0  0  0  0  0  0  0
  -22.7060  -29.5040   22.6010 C   0  0  0  0  0  0  0  0  0  0  0  0
  -21.3790  -29.3230   22.4660 N   0  0  0  0  0  0  0  0  0  0  0  0
  -23.3710  -28.8990   23.4440 O   0  0  0  0  0  0  0  0  0  0  0  0
  -20.8950  -29.8640   21.7640 H   0  0  0  0  0  0  0  0  0  0  0  0
  -18.0000  -28.1070   22.9740 C   0  0  0  0  0  0  0  0  0  0  0  0
  -20.5570  -28.3910   23.2440 C   0  0  0  0  0  3  0  0  0  0  0  0
  -20.6690  -26.9520   22.6890 C   0  0  0  0  0  2  0  0  0  0  0  0
  -19.5740  -26.6100   21.6740 C   0  0  0  0  0  2  0  0  0  0  0  0
  -18.1890  -26.7530   22.3120 C   0  0  0  0  0  2  0  0  0  0  0  0
  -19.1120  -28.8830   23.3970 C   0  0  0  0  0  0  0  0  0  0  0  0
  -18.8810  -30.1480   23.9800 C   0  0  0  0  0  3  0  0  0  0  0  0
  -17.5720  -30.6400   24.1400 C   0  0  0  0  0  3  0  0  0  0  0  0
  -16.4740  -29.8610   23.7290 C   0  0  0  0  0  3  0  0  0  0  0  0
  -16.6900  -28.5970   23.1540 C   0  0  0  0  0  3  0  0  0  0  0  0
  -25.8480  -32.5690   23.8810 C   0  0  0  0  0  3  0  0  0  0  0  0
  -26.3460  -31.8280   25.1830 C   0  0  1  0  0  0  0  0  0  0  0  0
  -25.2360  -31.6090   26.2390 C   0  0  0  0  0  1  0  0  0  0  0  0
  -26.9410  -30.4440   24.8370 C   0  0  0  0  0  1  0  0  0  0  0  0
  -27.4840  -32.6400   25.8460 C   0  0  0  0  0  1  0  0  0  0  0  0
  -25.5310  -33.9740   24.1860 N   0  0  0  0  0  0  0  0  0  0  0  0
  -25.8760  -35.0200   23.4230 C   0  0  0  0  0  0  0  0  0  0  0  0
  -26.5560  -34.9030   22.4010 O   0  0  0  0  0  0  0  0  0  0  0  0
  -24.9270  -34.1390   24.9770 H   0  0  0  0  0  0  0  0  0  0  0  0
  -24.1650  -36.8240   23.0250 C   0  0  0  0  0  1  0  0  0  0  0  0
  -25.3890  -36.4170   23.8610 C   0  0  0  0  0  3  0  0  0  0  0  0
  -27.5080  -37.3020   24.7300 C   0  0  0  0  0  1  0  0  0  0  0  0
  -26.4300  -37.4630   23.7580 N   0  0  0  0  0  0  0  0  0  0  0  0
  -26.0260  -38.3870   23.8840 H   0  0  0  0  0  0  0  0  0  0  0  0
  2  5  1  0
  3  1  1  0
  4  2  1  0
  4  6  1  0
  5 46  1  0
  5 16  1  1
  5  1  1  0
  6  3  1  0
  6  7  1  1
  8 16  1  0
  9 14  1  0
 10 11  1  0
 10  9  1  0
 12 11  1  0
 12 21  1  0
 12 13  1  0
 14  8  1  0
 14 13  1  0
 15  8  2  0
 16 17  1  0
 18 19  2  0
 19 38  1  0
 20 19  1  0
 20 23  1  0
 21 22  1  0
 21 18  1  0
 22 20  2  0
 23 24  1  0
 24 25  2  0
 26 29  1  0
 26 25  1  0
 27 26  2  0
 28 27  1  0
 28 23  2  0
 29 30  1  0
 30 31  1  0
 31 32  2  0
 33 32  1  0
 33 37  1  0
 34 33  2  0
 35 30  2  0
 35 34  1  0
 36 35  1  0
 38 39  1  0
 39 42  1  0
 39 41  1  0
 40 38  2  0
 43 44  1  0
 43 18  1  0
 45 43  1  0
 47 46  1  0
 47 49  1  0
 48 46  2  0
 50 47  1  0
 51 52  2  0
 51  6  1  0
 53 52  1  0
 54 65  2  0
 55 53  1  0
 55 60  1  0
 56 64  1  0
 56 66  1  0
 57 63  1  0
 57 59  1  0
 58 64  1  0
 59 60  2  0
 59 58  1  0
 61 55  2  0
 62 61  1  0
 62 57  2  0
 63 56  1  0
 64 54  1  0
 66 68  2  0
 67 66  1  0
 69 67  1  0
 70 79  2  0
 70 75  1  0
 71 67  1  0
 71 75  1  0
 72 71  1  0
 73 74  1  0
 73 72  1  0
 74 70  1  0
 75 76  2  0
 76 77  1  0
 78 77  2  0
 79 78  1  0
 80 54  1  0
 80 85  1  0
 80 81  1  0
 81 84  1  1
 81 82  1  0
 83 81  1  0
 85 88  1  0
 86 90  1  0
 86 85  1  0
 87 86  2  0
 90 89  1  0
 92 90  1  0
 92 93  1  0
 92 91  1  0
M  ISO  4   8 100  16 100  52 101  53 101
M  END
>  <TORSDO>  (31) 
F 19

>  <SCORE>  (31) 
-15.082

>  <name>  (31) 
30

>  <ligand_id>  (31) 
30

>  <original_smiles>  (31) 
[H]c1c([H])c([H])c2c(c1[H])C([H])([H])C([H])([H])C([H])([H])C2([H])N([H])C(=O)C1([H])N(C(=O)C([H])(N([H])C(=O)C([H])(N([H])C([H])([H])[H])C([H])([H])[H])C(C([H])([H])[H])(C([H])([H])[H])C([H])([H])[H])C([H])([H])c2c([H])c(OC([H])([H])C([H])([H])[N+]3([H])C([H])([H])C([H])([H])C(C(=O)N([H])[H])(N([H])C(=O)N4C([H])([H])C([H])([H])C([H])([H])C([H])(n5nc(-c6c([H])c([H])c(Oc7c([H])c([H])c(F)c([H])c7F)c([H])c6[H])c(C(=O)N([H])[H])c5N([H])[H])C4([H])[H])C([H])([H])C3([H])[H])c([H])c([H])c2C1([H])[H]

>  <smiles>  (31) 
[H]c1c([H])c([H])c2c(c1[H])C([H])([H])C([H])([H])C([H])([H])C2([H])N([H])C(=O)C1([H])N(C(=O)C([H])(N([H])C(=O)C([H])(N([H])C([H])([H])[H])C([H])([H])[H])C(C([H])([H])[H])(C([H])([H])[H])C([H])([H])[H])C([H])([H])c2c([H])c(OC([H])([H])C([H])([H])[N+]3([H])C([H])([H])C([H])([H])C(C(=O)N([H])[H])(N([H])C(=O)N4C([H])([H])C([H])([H])C([H])([H])C([H])(n5nc(-c6c([H])c([H])c(Oc7c([H])c([H])c(F)c([H])c7F)c([H])c6[H])c(C(=O)N([H])[H])c5N([H])[H])C4([H])[H])C([H])([H])C3([H])[H])c([H])c([H])c2C1([H])[H]

$$$$
31:0:0
     RDKit          3D

 84 88  0  0  1  0  0  0  0  0999 V2000
  -28.4440  -22.7110   19.6580 C   0  0  0  0  0 15  0  0  0  0  0  0
  -28.7610  -20.4020   18.3350 C   0  0  0  0  0  1  0  0  0  0  0  0
  -29.3360  -20.5020   19.7750 C   0  0  0  0  0  3  0  0  0  0  0  0
  -30.2900  -16.7930   19.5990 C   0  0  0  0  0  0  0  0  0  0  0  0
  -30.6340  -14.0370   18.8040 C   0  0  0  0  0  2  0  0  0  0  0  0
  -29.7860  -13.2010   17.7600 C   0  0  0  0  0  2  0  0  0  0  0  0
  -28.5080  -12.6200   18.3700 C   0  0  0  0  0  2  0  0  0  0  0  0
  -27.9360  -13.6330   19.3730 C   0  0  0  0  0  3  0  0  0  0  0  0
  -28.9730  -14.3340   20.3250 C   0  0  0  0  0  2  0  0  0  0  0  0
  -29.8900  -15.2610   19.5270 N   0  0  0  0  0  0  0  0  0  0  0  0
  -31.5300  -16.6030   19.4000 O   0  0  0  0  0  0  0  0  0  0  0  0
  -29.5200  -18.3920   19.7080 N   0  0  0  0  0  2  0  0  0  0  0  0
  -28.5600  -18.0970   19.8180 H   0  0  0  0  0  0  0  0  0  0  0  0
  -25.7000  -14.0120   20.4670 C   0  0  0  0  0  0  0  0  0  0  0  0
  -24.6950  -13.1930   20.8880 C   0  0  0  0  0  0  0  0  0  0  0  0
  -25.1570  -11.8550   20.6860 C   0  0  0  0  0  0  0  0  0  0  0  0
  -26.7140  -13.1860   20.0320 N   0  0  0  0  0  0  0  0  0  0  0  0
  -26.4070  -11.8680   20.2140 N   0  0  0  0  0  0  0  0  0  0  0  0
  -24.4430  -10.5780   20.8600 C   0  0  0  0  0  0  0  0  0  0  0  0
  -24.8410   -9.6280   21.8270 C   0  0  0  0  0  3  0  0  0  0  0  0
  -24.1160   -8.4270   21.9970 C   0  0  0  0  0  3  0  0  0  0  0  0
  -22.9760   -8.1660   21.2000 C   0  0  0  0  0  0  0  0  0  0  0  0
  -22.5940   -9.1050   20.2260 C   0  0  0  0  0  3  0  0  0  0  0  0
  -23.3190  -10.2970   20.0550 C   0  0  0  0  0  3  0  0  0  0  0  0
  -22.2290   -7.0150   21.2740 O   0  0  0  0  0  0  0  0  0  0  0  0
  -21.9510   -6.4110   22.4750 C   0  0  0  0  0  0  0  0  0  0  0  0
  -21.2350   -7.0770   23.4950 C   0  0  0  0  0  3  0  0  0  0  0  0
  -20.9100   -6.3970   24.6870 C   0  0  0  0  0  3  0  0  0  0  0  0
  -21.2900   -5.0520   24.8560 C   0  0  0  0  0  0  0  0  0  0  0  0
  -21.9960   -4.3860   23.8390 C   0  0  0  0  0  3  0  0  0  0  0  0
  -22.3220   -5.0620   22.6510 C   0  0  0  0  0  0  0  0  0  0  0  0
  -22.9820   -4.4070   21.6660 F   0  0  0  0  0  0  0  0  0  0  0  0
  -20.9710   -4.3980   25.9980 F   0  0  0  0  0  0  0  0  0  0  0  0
  -23.3420  -13.6420   21.3510 C   0  0  0  0  0  0  0  0  0  0  0  0
  -22.7220  -12.8920   22.2550 N   0  0  0  0  0  0  0  0  0  0  0  0
  -22.8490  -14.6960   20.9530 O   0  0  0  0  0  0  0  0  0  0  0  0
  -23.1390  -12.0410   22.6030 H   0  0  0  0  0  0  0  0  0  0  0  0
  -21.8180  -13.1760   22.6060 H   0  0  0  0  0  0  0  0  0  0  0  0
  -25.8290  -15.3960   20.3800 N   0  0  0  0  0  0  0  0  0  0  0  0
  -25.0730  -16.0210   20.6390 H   0  0  0  0  0  0  0  0  0  0  0  0
  -26.6200  -15.8730   19.9710 H   0  0  0  0  0  0  0  0  0  0  0  0
  -27.0950  -19.7370   20.9030 C   0  0  0  0  0  1  0  0  0  0  0  0
  -28.5110  -20.3230   21.0770 C   0  0  0  0  0  3  0  0  0  0  0  0
  -28.3740  -24.7940   19.8850 O   0  0  0  0  0  1  0  0  0  0  0  0
  -24.8680  -31.7460   23.0030 C   0  0  0  0  0  0  0  0  0  0  0  0
  -27.4390  -26.2660   19.8950 C   0  0  0  0  0  0  0  0  0  0  0  0
  -23.7110  -30.3490   21.3520 C   0  0  0  0  0  3  0  0  0  0  0  0
  -25.1780  -28.6420   19.9160 C   0  0  0  0  0  0  0  0  0  0  0  0
  -26.3100  -30.3680   21.2700 C   0  0  0  0  0  2  0  0  0  0  0  0
  -26.3870  -28.8870   20.5750 C   0  0  0  0  0  0  0  0  0  0  0  0
  -27.4630  -27.7510   20.5180 C   0  0  0  0  0  3  0  0  0  0  0  0
  -26.1810  -26.3930   19.1840 C   0  0  0  0  0  3  0  0  0  0  0  0
  -25.1500  -27.4280   19.1930 C   0  0  0  0  0  3  0  0  0  0  0  0
  -23.9780  -29.6420   19.9820 C   0  0  0  0  0  2  0  0  0  0  0  0
  -24.9950  -30.8680   21.9290 N   0  0  0  0  0  0  0  0  0  0  0  0
  -23.7620  -32.0380   23.5000 O   0  0  0  0  0  0  0  0  0  0  0  0
  -22.9670  -29.3890   22.3260 C   0  0  0  0  0  0  0  0  0  0  0  0
  -21.6320  -29.2310   22.2030 N   0  0  0  0  0  0  0  0  0  0  0  0
  -23.6160  -28.7770   23.1770 O   0  0  0  0  0  0  0  0  0  0  0  0
  -21.1480  -29.7730   21.5000 H   0  0  0  0  0  0  0  0  0  0  0  0
  -18.2620  -27.9370   22.7380 C   0  0  0  0  0  0  0  0  0  0  0  0
  -20.8230  -28.2650   22.9640 C   0  0  0  0  0  3  0  0  0  0  0  0
  -20.9430  -26.8460   22.3590 C   0  0  0  0  0  2  0  0  0  0  0  0
  -19.8360  -26.5250   21.3500 C   0  0  0  0  0  2  0  0  0  0  0  0
  -18.4600  -26.6160   22.0160 C   0  0  0  0  0  2  0  0  0  0  0  0
  -19.3690  -28.7190   23.1690 C   0  0  0  0  0  0  0  0  0  0  0  0
  -19.1210  -29.9490   23.8150 C   0  0  0  0  0  3  0  0  0  0  0  0
  -17.8040  -30.4000   24.0290 C   0  0  0  0  0  3  0  0  0  0  0  0
  -16.7140  -29.6170   23.6090 C   0  0  0  0  0  3  0  0  0  0  0  0
  -16.9460  -28.3860   22.9690 C   0  0  0  0  0  3  0  0  0  0  0  0
  -26.0950  -32.4380   23.6740 C   0  0  0  0  0  3  0  0  0  0  0  0
  -25.7240  -33.8230   24.0570 N   0  0  0  0  0  0  0  0  0  0  0  0
  -26.0050  -34.9320   23.3580 C   0  0  0  0  0  0  0  0  0  0  0  0
  -26.6430  -34.9010   22.3040 O   0  0  0  0  0  0  0  0  0  0  0  0
  -25.1500  -33.9180   24.8810 H   0  0  0  0  0  0  0  0  0  0  0  0
  -24.1980  -36.6910   23.2050 C   0  0  0  0  0  1  0  0  0  0  0  0
  -25.5070  -36.2910   23.9060 C   0  0  0  0  0  3  0  0  0  0  0  0
  -27.6530  -37.2500   24.6350 C   0  0  0  0  0  1  0  0  0  0  0  0
  -26.4900  -37.3900   23.7610 N   0  0  0  0  0  0  0  0  0  0  0  0
  -26.0580  -38.2880   23.9520 H   0  0  0  0  0  0  0  0  0  0  0  0
  -26.6040  -31.6710   24.9600 C   0  0  1  0  0  0  0  0  0  0  0  0
  -25.4980  -31.3970   26.0070 C   0  0  0  0  0  1  0  0  0  0  0  0
  -27.2280  -30.3110   24.5870 C   0  0  0  0  0  1  0  0  0  0  0  0
  -27.7270  -32.4870   25.6470 C   0  0  0  0  0  1  0  0  0  0  0  0
  2  3  1  0
  3 43  2  0
  4 12  1  0
  5 10  1  0
  6  7  1  0
  6  5  1  0
  8  7  1  0
  8 17  1  0
  8  9  1  0
 10  4  1  0
 10  9  1  0
 11  4  2  0
 12 13  1  0
 14 15  2  0
 15 34  1  0
 16 19  1  0
 16 15  1  0
 17 18  1  0
 17 14  1  0
 18 16  2  0
 19 20  1  0
 20 21  2  0
 22 25  1  0
 22 21  1  0
 23 22  2  0
 24 23  1  0
 24 19  2  0
 25 26  1  0
 26 31  2  0
 26 27  1  0
 27 28  2  0
 28 29  1  0
 29 33  1  0
 30 29  2  0
 31 30  1  0
 32 31  1  0
 34 35  1  0
 35 37  1  0
 35 38  1  0
 36 34  2  0
 39 14  1  0
 39 40  1  0
 41 39  1  0
 42 43  1  0
 44 46  1  0
 45 56  2  0
 46 51  1  0
 47 55  1  0
 47 57  1  0
 48 54  1  0
 48 50  1  0
 49 55  1  0
 50 49  1  0
 51 50  2  0
 52 53  1  0
 52 46  2  0
 53 48  2  0
 54 47  1  0
 55 45  1  0
 57 59  2  0
 58 57  1  0
 60 58  1  0
 61 70  2  0
 61 66  1  0
 62 58  1  0
 62 66  1  0
 63 62  1  0
 64 65  1  0
 64 63  1  0
 65 61  1  0
 66 67  2  0
 67 68  1  0
 69 68  2  0
 70 69  1  0
 71 45  1  0
 71 72  1  0
 71 81  1  0
 72 75  1  0
 73 77  1  0
 73 72  1  0
 74 73  2  0
 77 76  1  0
 79 77  1  0
 79 80  1  0
 79 78  1  0
 81 84  1  1
 81 82  1  0
 83 81  1  0
M  ISO  4   1 101   4 100  12 100  44 101
M  END
>  <TORSDO>  (32) 
F 18

>  <SCORE>  (32) 
-12.555

>  <name>  (32) 
31

>  <ligand_id>  (32) 
31

>  <original_smiles>  (32) 
[H]c1c([H])c([H])c2c(c1[H])C([H])([H])C([H])([H])C([H])([H])C2([H])N([H])C(=O)C1([H])N(C(=O)C([H])(N([H])C(=O)C([H])(N([H])C([H])([H])[H])C([H])([H])[H])C(C([H])([H])[H])(C([H])([H])[H])C([H])([H])[H])C([H])([H])c2c([H])c(OC([H])([H])C(N([H])C(=O)N3C([H])([H])C([H])([H])C([H])([H])C([H])(n4nc(-c5c([H])c([H])c(Oc6c([H])c([H])c(F)c([H])c6F)c([H])c5[H])c(C(=O)N([H])[H])c4N([H])[H])C3([H])[H])(C([H])([H])[H])C([H])([H])C([H])([H])[H])c([H])c([H])c2C1([H])[H]

>  <smiles>  (32) 
[H]c1c([H])c([H])c2c(c1[H])C([H])([H])C([H])([H])C([H])([H])C2([H])N([H])C(=O)C1([H])N(C(=O)C([H])(N([H])C(=O)C([H])(N([H])C([H])([H])[H])C([H])([H])[H])C(C([H])([H])[H])(C([H])([H])[H])C([H])([H])[H])C([H])([H])c2c([H])c(OC([H])([H])C(N([H])C(=O)N3C([H])([H])C([H])([H])C([H])([H])C([H])(n4nc(-c5c([H])c([H])c(Oc6c([H])c([H])c(F)c([H])c6F)c([H])c5[H])c(C(=O)N([H])[H])c4N([H])[H])C3([H])[H])(C([H])([H])[H])C([H])([H])C([H])([H])[H])c([H])c([H])c2C1([H])[H]

$$$$
32:0:0
     RDKit          3D

 92 99  0  0  1  0  0  0  0  0999 V2000
  -29.3570  -20.8260   19.9450 C   0  0  0  0  0  2  0  0  0  0  0  0
  -29.2440  -22.6120   20.5400 C   0  0  0  0  0  3  0  0  0  0  0  0
  -31.4120  -23.4110   19.3220 C   0  0  0  0  0  1  0  0  0  0  0  0
  -30.7090  -23.1120   20.6630 C   0  0  0  0  0  2  0  0  0  0  0  0
  -28.2660  -24.1490   20.0790 C   0  0  0  0  0  2  0  0  0  0  0  0
  -28.3220  -25.8290   20.3470 O   0  0  0  0  0  0  0  0  0  0  0  0
  -24.6420  -31.8950   23.1780 C   0  0  0  0  0  0  0  0  0  0  0  0
  -27.2890  -26.9380   20.2380 C   0  0  0  0  0  0  0  0  0  0  0  0
  -23.4710  -30.4580   21.5620 C   0  0  0  0  0  3  0  0  0  0  0  0
  -24.9480  -28.8270   20.1650 C   0  0  0  0  0  0  0  0  0  0  0  0
  -26.0430  -30.6740   21.4190 C   0  0  0  0  0  2  0  0  0  0  0  0
  -26.1330  -29.2490   20.7800 C   0  0  0  0  0  0  0  0  0  0  0  0
  -27.2860  -28.3270   20.7850 C   0  0  0  0  0  3  0  0  0  0  0  0
  -26.0630  -26.6900   19.5650 C   0  0  0  0  0  3  0  0  0  0  0  0
  -24.9400  -27.5700   19.5360 C   0  0  0  0  0  3  0  0  0  0  0  0
  -23.7150  -29.7400   20.2010 C   0  0  0  0  0  2  0  0  0  0  0  0
  -24.7430  -31.0400   22.1050 N   0  0  0  0  0  0  0  0  0  0  0  0
  -23.5460  -32.1770   23.6880 O   0  0  0  0  0  0  0  0  0  0  0  0
  -22.7720  -29.4760   22.5430 C   0  0  0  0  0  0  0  0  0  0  0  0
  -21.4410  -29.3030   22.4250 N   0  0  0  0  0  0  0  0  0  0  0  0
  -23.4420  -28.8680   23.3810 O   0  0  0  0  0  0  0  0  0  0  0  0
  -20.9490  -29.8480   21.7300 H   0  0  0  0  0  0  0  0  0  0  0  0
  -18.0710  -28.0600   22.9670 C   0  0  0  0  0  0  0  0  0  0  0  0
  -20.6270  -28.3620   23.2090 C   0  0  0  0  0  3  0  0  0  0  0  0
  -20.7410  -26.9220   22.6540 C   0  0  0  0  0  2  0  0  0  0  0  0
  -19.6420  -26.5750   21.6460 C   0  0  0  0  0  2  0  0  0  0  0  0
  -18.2610  -26.7070   22.2970 C   0  0  0  0  0  2  0  0  0  0  0  0
  -19.1830  -28.8460   23.3790 C   0  0  0  0  0  0  0  0  0  0  0  0
  -18.9510  -30.1060   23.9700 C   0  0  0  0  0  3  0  0  0  0  0  0
  -17.6400  -30.5890   24.1450 C   0  0  0  0  0  3  0  0  0  0  0  0
  -16.5420  -29.8030   23.7510 C   0  0  0  0  0  3  0  0  0  0  0  0
  -16.7590  -28.5410   23.1690 C   0  0  0  0  0  3  0  0  0  0  0  0
  -25.8990  -32.5680   23.8090 C   0  0  0  0  0  3  0  0  0  0  0  0
  -26.4170  -31.8310   25.1060 C   0  0  1  0  0  0  0  0  0  0  0  0
  -25.3230  -31.5850   26.1690 C   0  0  0  0  0  1  0  0  0  0  0  0
  -27.0350  -30.4580   24.7570 C   0  0  0  0  0  1  0  0  0  0  0  0
  -27.5430  -32.6620   25.7650 C   0  0  0  0  0  1  0  0  0  0  0  0
  -25.5550  -33.9680   24.1310 N   0  0  0  0  0  0  0  0  0  0  0  0
  -25.8900  -35.0360   23.3960 C   0  0  0  0  0  0  0  0  0  0  0  0
  -26.5870  -34.9480   22.3810 O   0  0  0  0  0  0  0  0  0  0  0  0
  -24.9390  -34.1060   24.9190 H   0  0  0  0  0  0  0  0  0  0  0  0
  -24.1760  -36.8410   23.0140 C   0  0  0  0  0  1  0  0  0  0  0  0
  -25.3880  -36.4200   23.8590 C   0  0  0  0  0  3  0  0  0  0  0  0
  -27.4880  -37.3020   24.7780 C   0  0  0  0  0  1  0  0  0  0  0  0
  -26.4220  -37.4780   23.7970 N   0  0  0  0  0  0  0  0  0  0  0  0
  -26.0070  -38.3960   23.9360 H   0  0  0  0  0  0  0  0  0  0  0  0
  -30.1070  -19.1630   20.4690 C   0  0  0  0  0  3  0  0  0  0  0  0
  -29.5810  -18.9500   21.8270 N   0  0  0  0  0  4  0  0  0  0  0  0
  -28.5880  -18.8040   21.7920 H   0  0  0  0  0  0  0  0  0  0  0  0
  -29.7510  -19.7650   22.3910 H   0  0  0  0  0  0  0  0  0  0  0  0
  -29.9950  -18.1620   22.2850 H   0  0  0  0  0  0  0  0  0  0  0  0
  -30.2610  -17.4440   19.6630 C   0  0  1  0  0  0  0  0  0  0  0  0
  -30.9130  -15.7350   20.0150 C   0  0  0  0  0  0  0  0  0  0  0  0
  -30.8480  -13.2010   19.2380 C   0  0  0  0  0  2  0  0  0  0  0  0
  -29.9240  -12.8770   18.0320 C   0  0  0  0  0  2  0  0  0  0  0  0
  -28.4720  -12.6020   18.4710 C   0  0  0  0  0  2  0  0  0  0  0  0
  -28.0250  -13.5970   19.5650 C   0  0  0  0  0  3  0  0  0  0  0  0
  -29.0930  -13.8630   20.6590 C   0  0  0  0  0  2  0  0  0  0  0  0
  -30.3090  -14.4080   19.9970 N   0  0  0  0  0  0  0  0  0  0  0  0
  -32.1470  -15.5820   19.9590 O   0  0  0  0  0  0  0  0  0  0  0  0
  -25.6910  -14.2100   20.3850 C   0  0  0  0  0  0  0  0  0  0  0  0
  -24.6140  -13.4560   20.7660 C   0  0  0  0  0  0  0  0  0  0  0  0
  -25.0400  -12.0930   20.6970 C   0  0  0  0  0  0  0  0  0  0  0  0
  -26.7030  -13.3040   20.1120 N   0  0  0  0  0  0  0  0  0  0  0  0
  -26.3270  -12.0260   20.3690 N   0  0  0  0  0  0  0  0  0  0  0  0
  -24.2760  -10.8490   20.8800 C   0  0  0  0  0  0  0  0  0  0  0  0
  -24.6690   -9.8640   21.8130 C   0  0  0  0  0  3  0  0  0  0  0  0
  -23.9020   -8.6880   21.9800 C   0  0  0  0  0  3  0  0  0  0  0  0
  -22.7280   -8.4960   21.2150 C   0  0  0  0  0  0  0  0  0  0  0  0
  -22.3550   -9.4660   20.2670 C   0  0  0  0  0  3  0  0  0  0  0  0
  -23.1220  -10.6310   20.1000 C   0  0  0  0  0  3  0  0  0  0  0  0
  -21.9360   -7.3750   21.2910 O   0  0  0  0  0  0  0  0  0  0  0  0
  -21.8180   -6.6510   22.4500 C   0  0  0  0  0  0  0  0  0  0  0  0
  -21.3130   -7.2280   23.6380 C   0  0  0  0  0  3  0  0  0  0  0  0
  -21.1430   -6.4320   24.7890 C   0  0  0  0  0  3  0  0  0  0  0  0
  -21.4670   -5.0630   24.7510 C   0  0  0  0  0  0  0  0  0  0  0  0
  -21.9640   -4.4880   23.5690 C   0  0  0  0  0  3  0  0  0  0  0  0
  -22.1370   -5.2770   22.4200 C   0  0  0  0  0  0  0  0  0  0  0  0
  -22.5950   -4.7120   21.2760 F   0  0  0  0  0  0  0  0  0  0  0  0
  -21.2960   -4.2970   25.8540 F   0  0  0  0  0  0  0  0  0  0  0  0
  -23.2380  -13.9710   21.0600 C   0  0  0  0  0  0  0  0  0  0  0  0
  -22.5080  -13.2940   21.9420 N   0  0  0  0  0  0  0  0  0  0  0  0
  -22.8090  -14.9990   20.5420 O   0  0  0  0  0  0  0  0  0  0  0  0
  -22.8660  -12.4570   22.3750 H   0  0  0  0  0  0  0  0  0  0  0  0
  -21.5790  -13.6120   22.1760 H   0  0  0  0  0  0  0  0  0  0  0  0
  -25.8890  -15.5790   20.2120 N   0  0  0  0  0  0  0  0  0  0  0  0
  -25.1540  -16.2650   20.3480 H   0  0  0  0  0  0  0  0  0  0  0  0
  -26.7410  -15.9900   19.8460 H   0  0  0  0  0  0  0  0  0  0  0  0
  -27.9890  -18.2740   18.5940 C   0  0  0  0  0  1  0  0  0  0  0  0
  -28.8470  -17.1240   19.1260 C   0  0  0  0  0  2  0  0  0  0  0  0
  -31.2130  -17.1290   17.1790 C   0  0  0  0  0  1  0  0  0  0  0  0
  -31.2300  -17.8990   18.5140 C   0  0  0  0  0  2  0  0  0  0  0  0
  2  1  1  0
  2  4  1  0
  3  4  1  0
  5  6  1  0
  5  2  1  0
  7 18  2  0
  8  6  1  0
  8 13  1  0
  9 17  1  0
  9 19  1  0
 10 16  1  0
 10 12  1  0
 11 17  1  0
 12 13  2  0
 12 11  1  0
 14  8  2  0
 15 14  1  0
 15 10  2  0
 16  9  1  0
 17  7  1  0
 19 21  2  0
 20 19  1  0
 22 20  1  0
 23 32  2  0
 23 28  1  0
 24 20  1  0
 24 28  1  0
 25 24  1  0
 26 27  1  0
 26 25  1  0
 27 23  1  0
 28 29  2  0
 29 30  1  0
 31 30  2  0
 32 31  1  0
 33  7  1  0
 33 38  1  0
 33 34  1  0
 34 37  1  1
 34 35  1  0
 36 34  1  0
 38 41  1  0
 39 43  1  0
 39 38  1  0
 40 39  2  0
 43 42  1  0
 45 43  1  0
 45 46  1  0
 45 44  1  0
 47  1  1  0
 47 48  1  0
 48 51  1  0
 48 50  1  0
 49 48  1  0
 52 53  1  0
 52 47  1  0
 54 59  1  0
 55 56  1  0
 55 54  1  0
 57 56  1  0
 57 64  1  0
 57 58  1  0
 59 53  1  0
 59 58  1  0
 60 53  2  0
 61 62  2  0
 62 81  1  0
 63 62  1  0
 63 66  1  0
 64 65  1  0
 64 61  1  0
 65 63  2  0
 66 67  1  0
 67 68  2  0
 69 72  1  0
 69 68  1  0
 70 69  2  0
 71 70  1  0
 71 66  2  0
 72 73  1  0
 73 74  1  0
 74 75  2  0
 76 75  1  0
 76 80  1  0
 77 76  2  0
 78 73  2  0
 78 77  1  0
 79 78  1  0
 81 82  1  0
 82 85  1  0
 82 84  1  0
 83 81  2  0
 86 87  1  0
 86 61  1  0
 88 86  1  0
 89 90  1  0
 52 90  1  6
 91 92  1  0
 92 52  1  0
M  ISO  4   5 101   6 101  52 100  53 100
M  END
>  <TORSDO>  (33) 
F 24

>  <SCORE>  (33) 
-14.686

>  <name>  (33) 
32

>  <ligand_id>  (33) 
32

>  <original_smiles>  (33) 
[H]c1c([H])c([H])c2c(c1[H])C([H])([H])C([H])([H])C([H])([H])C2([H])N([H])C(=O)C1([H])N(C(=O)C([H])(N([H])C(=O)C([H])(N([H])C([H])([H])[H])C([H])([H])[H])C(C([H])([H])[H])(C([H])([H])[H])C([H])([H])[H])C([H])([H])c2c([H])c(OC([H])([H])C([H])(C([H])([H])C([H])([H])[H])C([H])([H])C([H])(C(C(=O)N3C([H])([H])C([H])([H])C([H])([H])C([H])(n4nc(-c5c([H])c([H])c(Oc6c([H])c([H])c(F)c([H])c6F)c([H])c5[H])c(C(=O)N([H])[H])c4N([H])[H])C3([H])[H])(C([H])([H])C([H])([H])[H])C([H])([H])C([H])([H])[H])[N+]([H])([H])[H])c([H])c([H])c2C1([H])[H]

>  <smiles>  (33) 
[H]c1c([H])c([H])c2c(c1[H])C([H])([H])C([H])([H])C([H])([H])C2([H])N([H])C(=O)C1([H])N(C(=O)C([H])(N([H])C(=O)C([H])(N([H])C([H])([H])[H])C([H])([H])[H])C(C([H])([H])[H])(C([H])([H])[H])C([H])([H])[H])C([H])([H])c2c([H])c(OC([H])([H])C([H])(C([H])([H])C([H])([H])[H])C([H])([H])C([H])(C(C(=O)N3C([H])([H])C([H])([H])C([H])([H])C([H])(n4nc(-c5c([H])c([H])c(Oc6c([H])c([H])c(F)c([H])c6F)c([H])c5[H])c(C(=O)N([H])[H])c4N([H])[H])C3([H])[H])(C([H])([H])C([H])([H])[H])C([H])([H])C([H])([H])[H])[N+]([H])([H])[H])c([H])c([H])c2C1([H])[H]

$$$$
33:0:0
     RDKit          3D

 93102  0  0  1  0  0  0  0  0999 V2000
  -28.8910  -22.4880   20.2140 C   0  0  0  0  0  3  0  0  0  0  0  0
  -30.4030  -15.6760   20.2460 C   0  0  0  0  0  0  0  0  0  0  0  0
  -30.4360  -13.1370   19.5260 C   0  0  0  0  0  2  0  0  0  0  0  0
  -29.5630  -12.7210   18.3140 C   0  0  0  0  0  2  0  0  0  0  0  0
  -28.1360  -12.3900   18.7720 C   0  0  0  0  0  2  0  0  0  0  0  0
  -27.6130  -13.4280   19.7930 C   0  0  0  0  0  3  0  0  0  0  0  0
  -28.6310  -13.7890   20.9010 C   0  0  0  0  0  2  0  0  0  0  0  0
  -29.8140  -14.3520   20.2180 N   0  0  0  0  0  0  0  0  0  0  0  0
  -31.6310  -15.5510   20.0780 O   0  0  0  0  0  0  0  0  0  0  0  0
  -28.4930  -17.8950   20.4820 C   0  0  0  0  0  2  0  0  0  0  0  0
  -30.4930  -18.3390   19.4750 C   0  0  0  0  0  2  0  0  0  0  0  0
  -28.2770  -19.6080   20.7310 C   0  0  0  0  0  2  0  0  0  0  0  0
  -30.2630  -20.0180   19.7360 C   0  0  0  0  0  2  0  0  0  0  0  0
  -29.8060  -17.1010   20.1430 N   0  0  0  0  0  0  0  0  0  0  0  0
  -28.8970  -20.7720   19.8610 N   0  0  2  0  0  4  0  0  0  0  0  0
  -28.4680  -20.6950   18.9500 H   0  0  0  0  0  0  0  0  0  0  0  0
  -25.2540  -13.9570   20.5670 C   0  0  0  0  0  0  0  0  0  0  0  0
  -24.1970  -13.1730   20.9330 C   0  0  0  0  0  0  0  0  0  0  0  0
  -24.6720  -11.8250   20.8990 C   0  0  0  0  0  0  0  0  0  0  0  0
  -26.2990  -13.0890   20.3170 N   0  0  0  0  0  0  0  0  0  0  0  0
  -25.9650  -11.7990   20.5850 N   0  0  0  0  0  0  0  0  0  0  0  0
  -23.9510  -10.5590   21.0840 C   0  0  0  0  0  0  0  0  0  0  0  0
  -24.4000   -9.5750   21.9930 C   0  0  0  0  0  3  0  0  0  0  0  0
  -23.6730   -8.3780   22.1710 C   0  0  0  0  0  3  0  0  0  0  0  0
  -22.4820   -8.1550   21.4390 C   0  0  0  0  0  0  0  0  0  0  0  0
  -22.0510   -9.1260   20.5180 C   0  0  0  0  0  3  0  0  0  0  0  0
  -22.7780  -10.3150   20.3390 C   0  0  0  0  0  3  0  0  0  0  0  0
  -21.7260   -7.0100   21.5270 O   0  0  0  0  0  0  0  0  0  0  0  0
  -21.7080   -6.2460   22.6660 C   0  0  0  0  0  0  0  0  0  0  0  0
  -21.3290   -6.7800   23.9160 C   0  0  0  0  0  3  0  0  0  0  0  0
  -21.2560   -5.9420   25.0480 C   0  0  0  0  0  3  0  0  0  0  0  0
  -21.5530   -4.5710   24.9290 C   0  0  0  0  0  0  0  0  0  0  0  0
  -21.9260   -4.0370   23.6830 C   0  0  0  0  0  3  0  0  0  0  0  0
  -22.0000   -4.8710   22.5540 C   0  0  0  0  0  0  0  0  0  0  0  0
  -22.3390   -4.3460   21.3520 F   0  0  0  0  0  0  0  0  0  0  0  0
  -21.4780   -3.7650   26.0140 F   0  0  0  0  0  0  0  0  0  0  0  0
  -22.7990  -13.6440   21.1990 C   0  0  0  0  0  0  0  0  0  0  0  0
  -22.0740  -12.9550   22.0720 N   0  0  0  0  0  0  0  0  0  0  0  0
  -22.3570  -14.6610   20.6650 O   0  0  0  0  0  0  0  0  0  0  0  0
  -22.4440  -12.1340   22.5270 H   0  0  0  0  0  0  0  0  0  0  0  0
  -21.1350  -13.2560   22.2920 H   0  0  0  0  0  0  0  0  0  0  0  0
  -25.4110  -15.3290   20.3930 N   0  0  0  0  0  0  0  0  0  0  0  0
  -24.6410  -15.9790   20.5050 H   0  0  0  0  0  0  0  0  0  0  0  0
  -26.2560  -15.7680   20.0500 H   0  0  0  0  0  0  0  0  0  0  0  0
  -29.1010  -22.6200   21.7440 C   0  0  0  0  0  2  0  0  0  0  0  0
  -29.9960  -26.3600   23.9300 C   0  0  0  0  0  2  0  0  0  0  0  0
  -29.0230  -25.3490   24.5530 C   0  0  0  0  0  2  0  0  0  0  0  0
  -29.7900  -26.4480   22.4120 C   0  0  0  0  0  2  0  0  0  0  0  0
  -29.1540  -23.9690   23.8880 C   0  0  0  0  0  2  0  0  0  0  0  0
  -29.9210  -25.0690   21.7460 C   0  0  0  0  0  2  0  0  0  0  0  0
  -28.9490  -24.0340   22.3590 C   0  0  0  0  0  3  0  0  0  0  0  0
  -27.9520  -24.0390   19.6570 C   0  0  0  0  0  2  0  0  0  0  0  0
  -28.1550  -25.7560   19.7050 O   0  0  0  0  0  0  0  0  0  0  0  0
  -24.8190  -31.8200   23.0490 C   0  0  0  0  0  0  0  0  0  0  0  0
  -27.1790  -26.9360   19.7230 C   0  0  0  0  0  0  0  0  0  0  0  0
  -23.5510  -30.5130   21.3960 C   0  0  0  0  0  3  0  0  0  0  0  0
  -24.9230  -28.9360   19.8480 C   0  0  0  0  0  0  0  0  0  0  0  0
  -26.1200  -30.6620   21.1720 C   0  0  0  0  0  2  0  0  0  0  0  0
  -26.1430  -29.2700   20.4480 C   0  0  0  0  0  0  0  0  0  0  0  0
  -27.2570  -28.2960   20.3560 C   0  0  0  0  0  3  0  0  0  0  0  0
  -25.9260  -26.7950   19.0780 C   0  0  0  0  0  3  0  0  0  0  0  0
  -24.8480  -27.7240   19.1390 C   0  0  0  0  0  3  0  0  0  0  0  0
  -23.7250  -29.8840   19.9850 C   0  0  0  0  0  2  0  0  0  0  0  0
  -24.8550  -31.0260   21.9250 N   0  0  0  0  0  0  0  0  0  0  0  0
  -23.7520  -32.1030   23.6200 O   0  0  0  0  0  0  0  0  0  0  0  0
  -22.8690  -29.4910   22.3460 C   0  0  0  0  0  0  0  0  0  0  0  0
  -21.5330  -29.3500   22.2660 N   0  0  0  0  0  0  0  0  0  0  0  0
  -23.5540  -28.8250   23.1270 O   0  0  0  0  0  0  0  0  0  0  0  0
  -21.0310  -29.9390   21.6150 H   0  0  0  0  0  0  0  0  0  0  0  0
  -18.1650  -28.1050   22.8080 C   0  0  0  0  0  0  0  0  0  0  0  0
  -20.7280  -28.3860   23.0250 C   0  0  0  0  0  3  0  0  0  0  0  0
  -20.8260  -26.9710   22.4070 C   0  0  0  0  0  2  0  0  0  0  0  0
  -19.7070  -26.6700   21.4070 C   0  0  0  0  0  2  0  0  0  0  0  0
  -18.3370  -26.7810   22.0830 C   0  0  0  0  0  2  0  0  0  0  0  0
  -19.2850  -28.8660   23.2360 C   0  0  0  0  0  0  0  0  0  0  0  0
  -19.0650  -30.1020   23.8810 C   0  0  0  0  0  3  0  0  0  0  0  0
  -17.7580  -30.5800   24.0970 C   0  0  0  0  0  3  0  0  0  0  0  0
  -16.6540  -29.8170   23.6820 C   0  0  0  0  0  3  0  0  0  0  0  0
  -16.8570  -28.5810   23.0440 C   0  0  0  0  0  3  0  0  0  0  0  0
  -26.1170  -32.4250   23.6660 C   0  0  0  0  0  3  0  0  0  0  0  0
  -26.6930  -31.5650   24.8590 C   0  0  1  0  0  0  0  0  0  0  0  0
  -25.6540  -31.2500   25.9620 C   0  0  0  0  0  1  0  0  0  0  0  0
  -27.2530  -30.2170   24.3510 C   0  0  0  0  0  1  0  0  0  0  0  0
  -27.8780  -32.3100   25.5190 C   0  0  0  0  0  1  0  0  0  0  0  0
  -25.8080  -33.7900   24.1360 N   0  0  0  0  0  0  0  0  0  0  0  0
  -26.1700  -34.9200   23.5140 C   0  0  0  0  0  0  0  0  0  0  0  0
  -26.8580  -34.9220   22.4900 O   0  0  0  0  0  0  0  0  0  0  0  0
  -25.1970  -33.8610   24.9370 H   0  0  0  0  0  0  0  0  0  0  0  0
  -24.4800  -36.7810   23.3430 C   0  0  0  0  0  1  0  0  0  0  0  0
  -25.6990  -36.2590   24.1210 C   0  0  0  0  0  3  0  0  0  0  0  0
  -27.8340  -37.0090   25.0790 C   0  0  0  0  0  1  0  0  0  0  0  0
  -26.7510  -37.3000   24.1440 N   0  0  0  0  0  0  0  0  0  0  0  0
  -26.3570  -38.2050   24.3860 H   0  0  0  0  0  0  0  0  0  0  0  0
  1 52  1  0
  1 45  1  0
  3  8  1  0
  4  5  1  0
  4  3  1  0
  6  5  1  0
  6 20  1  0
  6  7  1  0
  8  2  1  0
  8  7  1  0
  9  2  2  0
 10 12  1  0
 11 13  1  0
 11 14  1  0
 13 15  1  0
 14  2  1  0
 14 10  1  0
 15  1  1  0
 15 12  1  0
 15 16  1  6
 17 18  2  0
 18 37  1  0
 19 18  1  0
 19 22  1  0
 20 17  1  0
 20 21  1  0
 21 19  2  0
 22 23  1  0
 23 24  2  0
 25 28  1  0
 25 24  1  0
 26 25  2  0
 27 26  1  0
 27 22  2  0
 28 29  1  0
 29 30  1  0
 30 31  2  0
 32 31  1  0
 32 36  1  0
 33 32  2  0
 34 29  2  0
 34 33  1  0
 35 34  1  0
 37 38  1  0
 38 41  1  0
 38 40  1  0
 39 37  2  0
 42 43  1  0
 42 17  1  0
 44 42  1  0
 45 51  1  0
 46 47  1  0
 48 46  1  0
 49 47  1  0
 50 51  1  0
 50 48  1  0
 51 49  1  0
 52 53  1  0
 53 55  1  0
 54 65  2  0
 55 60  1  0
 56 64  1  0
 56 66  1  0
 57 63  1  0
 57 59  1  0
 58 64  1  0
 59 58  1  0
 60 59  2  0
 61 62  1  0
 61 55  2  0
 62 57  2  0
 63 56  1  0
 64 54  1  0
 66 68  2  0
 67 66  1  0
 69 67  1  0
 70 79  2  0
 70 75  1  0
 71 67  1  0
 71 75  1  0
 72 71  1  0
 73 74  1  0
 73 72  1  0
 74 70  1  0
 75 76  2  0
 76 77  1  0
 78 77  2  0
 79 78  1  0
 80 54  1  0
 80 85  1  0
 80 81  1  0
 81 84  1  1
 81 82  1  0
 83 81  1  0
 85 88  1  0
 86 90  1  0
 86 85  1  0
 87 86  2  0
 90 89  1  0
 90 92  1  0
 92 93  1  0
 92 91  1  0
M  ISO  4   2 100  14 100  52 101  53 101
M  END
>  <TORSDO>  (34) 
F 19

>  <SCORE>  (34) 
-14.274

>  <name>  (34) 
33

>  <ligand_id>  (34) 
33

>  <original_smiles>  (34) 
[H]c1c([H])c([H])c2c(c1[H])C([H])([H])C([H])([H])C([H])([H])C2([H])N([H])C(=O)C1([H])N(C(=O)C([H])(N([H])C(=O)C([H])(N([H])C([H])([H])[H])C([H])([H])[H])C(C([H])([H])[H])(C([H])([H])[H])C([H])([H])[H])C([H])([H])c2c([H])c(OC([H])([H])C([H])(C([H])([H])C3([H])C([H])([H])C([H])([H])C([H])([H])C([H])([H])C3([H])[H])[N+]3([H])C([H])([H])C([H])([H])N(C(=O)N4C([H])([H])C([H])([H])C([H])([H])C([H])(n5nc(-c6c([H])c([H])c(Oc7c([H])c([H])c(F)c([H])c7F)c([H])c6[H])c(C(=O)N([H])[H])c5N([H])[H])C4([H])[H])C([H])([H])C3([H])[H])c([H])c([H])c2C1([H])[H]

>  <smiles>  (34) 
[H]c1c([H])c([H])c2c(c1[H])C([H])([H])C([H])([H])C([H])([H])C2([H])N([H])C(=O)C1([H])N(C(=O)C([H])(N([H])C(=O)C([H])(N([H])C([H])([H])[H])C([H])([H])[H])C(C([H])([H])[H])(C([H])([H])[H])C([H])([H])[H])C([H])([H])c2c([H])c(OC([H])([H])C([H])(C([H])([H])C3([H])C([H])([H])C([H])([H])C([H])([H])C([H])([H])C3([H])[H])[N+]3([H])C([H])([H])C([H])([H])N(C(=O)N4C([H])([H])C([H])([H])C([H])([H])C([H])(n5nc(-c6c([H])c([H])c(Oc7c([H])c([H])c(F)c([H])c7F)c([H])c6[H])c(C(=O)N([H])[H])c5N([H])[H])C4([H])[H])C([H])([H])C3([H])[H])c([H])c([H])c2C1([H])[H]

$$$$
34:0:0
     RDKit          3D

 98105  0  0  1  0  0  0  0  0999 V2000
  -29.2800  -19.7650   19.8470 C   0  0  0  0  0  3  0  0  0  0  0  0
  -27.9110  -19.3250   19.2820 C   0  0  0  0  0  2  0  0  0  0  0  0
  -26.9890  -18.6290   20.3050 C   0  0  0  0  0  2  0  0  0  0  0  0
  -25.7680  -18.0990   19.6740 N   0  0  0  0  0  4  0  0  0  0  0  0
  -25.1830  -18.8500   19.3560 H   0  0  0  0  0  0  0  0  0  0  0  0
  -25.2440  -17.5610   20.3420 H   0  0  0  0  0  0  0  0  0  0  0  0
  -25.9920  -17.5000   18.8980 H   0  0  0  0  0  0  0  0  0  0  0  0
  -30.0610  -18.2750   20.4020 C   0  0  0  0  0  2  0  0  0  0  0  0
  -30.2460  -16.6990   19.6180 C   0  0  0  0  0  3  0  0  0  0  0  0
  -30.9110  -15.2010   20.1870 C   0  0  0  0  0  0  0  0  0  0  0  0
  -30.8140  -12.7440   19.4680 C   0  0  0  0  0  2  0  0  0  0  0  0
  -29.9230  -12.5390   18.2200 C   0  0  0  0  0  2  0  0  0  0  0  0
  -28.4490  -12.3500   18.6230 C   0  0  0  0  0  2  0  0  0  0  0  0
  -27.9910  -13.3670   19.6980 C   0  0  0  0  0  3  0  0  0  0  0  0
  -29.0170  -13.5380   20.8350 C   0  0  0  0  0  2  0  0  0  0  0  0
  -30.2960  -13.9300   20.2220 N   0  0  0  0  0  0  0  0  0  0  0  0
  -32.1470  -15.1320   20.2030 O   0  0  0  0  0  0  0  0  0  0  0  0
  -25.6200  -13.9870   20.4160 C   0  0  0  0  0  0  0  0  0  0  0  0
  -24.5370  -13.2390   20.7830 C   0  0  0  0  0  0  0  0  0  0  0  0
  -24.9750  -11.8780   20.7740 C   0  0  0  0  0  0  0  0  0  0  0  0
  -26.6480  -13.0890   20.1970 N   0  0  0  0  0  0  0  0  0  0  0  0
  -26.2700  -11.8150   20.4840 N   0  0  0  0  0  0  0  0  0  0  0  0
  -24.2140  -10.6340   20.9620 C   0  0  0  0  0  0  0  0  0  0  0  0
  -24.5960   -9.6740   21.9230 C   0  0  0  0  0  3  0  0  0  0  0  0
  -23.8360   -8.4960   22.0990 C   0  0  0  0  0  3  0  0  0  0  0  0
  -22.6800   -8.2710   21.3140 C   0  0  0  0  0  0  0  0  0  0  0  0
  -22.3180   -9.2210   20.3420 C   0  0  0  0  0  3  0  0  0  0  0  0
  -23.0790  -10.3900   20.1630 C   0  0  0  0  0  3  0  0  0  0  0  0
  -21.8960   -7.1470   21.3980 O   0  0  0  0  0  0  0  0  0  0  0  0
  -21.7700   -6.4440   22.5710 C   0  0  0  0  0  0  0  0  0  0  0  0
  -21.2900   -7.0490   23.7540 C   0  0  0  0  0  3  0  0  0  0  0  0
  -21.1090   -6.2730   24.9170 C   0  0  0  0  0  3  0  0  0  0  0  0
  -21.3990   -4.8950   24.8980 C   0  0  0  0  0  0  0  0  0  0  0  0
  -21.8710   -4.2910   23.7190 C   0  0  0  0  0  3  0  0  0  0  0  0
  -22.0540   -5.0640   22.5590 C   0  0  0  0  0  0  0  0  0  0  0  0
  -22.4880   -4.4730   21.4190 F   0  0  0  0  0  0  0  0  0  0  0  0
  -21.2190   -4.1480   26.0120 F   0  0  0  0  0  0  0  0  0  0  0  0
  -23.1460  -13.7510   21.0140 C   0  0  0  0  0  0  0  0  0  0  0  0
  -22.3930  -13.1060   21.8980 N   0  0  0  0  0  0  0  0  0  0  0  0
  -22.7370  -14.7610   20.4440 O   0  0  0  0  0  0  0  0  0  0  0  0
  -22.7360  -12.2880   22.3810 H   0  0  0  0  0  0  0  0  0  0  0  0
  -21.4560  -13.4310   22.0930 H   0  0  0  0  0  0  0  0  0  0  0  0
  -25.8060  -15.3520   20.2050 N   0  0  0  0  0  0  0  0  0  0  0  0
  -24.9520  -15.8830   20.0770 H   0  0  0  0  0  0  0  0  0  0  0  0
  -26.5440  -15.6410   19.5780 H   0  0  0  0  0  0  0  0  0  0  0  0
  -31.1530  -16.8590   18.3340 C   0  0  0  0  0  2  0  0  0  0  0  0
  -29.7100  -18.4470   16.8270 C   0  0  0  0  0  1  0  0  0  0  0  0
  -31.1080  -18.0210   17.3050 C   0  0  0  0  0  3  0  0  0  0  0  0
  -33.5480  -18.8650   17.2600 C   0  0  0  0  0  1  0  0  0  0  0  0
  -32.0850  -19.1880   17.5970 C   0  0  0  0  0  2  0  0  0  0  0  0
  -29.0340  -21.3320   20.6150 C   0  0  0  0  0  2  0  0  0  0  0  0
  -28.9510  -22.9860   20.0040 C   0  0  0  0  0  3  0  0  0  0  0  0
  -28.9610  -22.9370   18.5280 N   0  0  0  0  0  4  0  0  0  0  0  0
  -29.7500  -22.4090   18.1960 H   0  0  0  0  0  0  0  0  0  0  0  0
  -28.1170  -22.5320   18.1650 H   0  0  0  0  0  0  0  0  0  0  0  0
  -29.0380  -23.8640   18.1470 H   0  0  0  0  0  0  0  0  0  0  0  0
  -28.0060  -24.3780   20.5000 C   0  0  0  0  0  2  0  0  0  0  0  0
  -28.2440  -25.9620   20.3560 O   0  0  0  0  0  0  0  0  0  0  0  0
  -24.6850  -31.8870   23.2370 C   0  0  0  0  0  0  0  0  0  0  0  0
  -27.2000  -26.9960   20.3300 C   0  0  0  0  0  0  0  0  0  0  0  0
  -23.4740  -30.4770   21.6210 C   0  0  0  0  0  3  0  0  0  0  0  0
  -24.9030  -28.8290   20.2460 C   0  0  0  0  0  0  0  0  0  0  0  0
  -26.0380  -30.6770   21.4670 C   0  0  0  0  0  2  0  0  0  0  0  0
  -26.0930  -29.2580   20.8490 C   0  0  0  0  0  0  0  0  0  0  0  0
  -27.2400  -28.3600   20.8640 C   0  0  0  0  0  3  0  0  0  0  0  0
  -25.9840  -26.6900   19.6790 C   0  0  0  0  0  3  0  0  0  0  0  0
  -24.8680  -27.5620   19.6440 C   0  0  0  0  0  3  0  0  0  0  0  0
  -23.6950  -29.7580   20.2630 C   0  0  0  0  0  2  0  0  0  0  0  0
  -24.7530  -31.0410   22.1630 N   0  0  0  0  0  0  0  0  0  0  0  0
  -23.5990  -32.1990   23.7520 O   0  0  0  0  0  0  0  0  0  0  0  0
  -22.7690  -29.5080   22.6040 C   0  0  0  0  0  0  0  0  0  0  0  0
  -21.4390  -29.3520   22.4710 N   0  0  0  0  0  0  0  0  0  0  0  0
  -23.4250  -28.8940   23.4500 O   0  0  0  0  0  0  0  0  0  0  0  0
  -20.9650  -29.8990   21.7640 H   0  0  0  0  0  0  0  0  0  0  0  0
  -18.0420  -28.1920   22.9800 C   0  0  0  0  0  0  0  0  0  0  0  0
  -20.6010  -28.4450   23.2610 C   0  0  0  0  0  3  0  0  0  0  0  0
  -20.6950  -26.9970   22.7290 C   0  0  0  0  0  2  0  0  0  0  0  0
  -19.6000  -26.6560   21.7120 C   0  0  0  0  0  2  0  0  0  0  0  0
  -18.2150  -26.8260   22.3380 C   0  0  0  0  0  2  0  0  0  0  0  0
  -19.1620  -28.9590   23.4000 C   0  0  0  0  0  0  0  0  0  0  0  0
  -18.9430  -30.2350   23.9620 C   0  0  0  0  0  3  0  0  0  0  0  0
  -17.6400  -30.7470   24.1050 C   0  0  0  0  0  3  0  0  0  0  0  0
  -16.5350  -29.9790   23.6970 C   0  0  0  0  0  3  0  0  0  0  0  0
  -16.7370  -28.7030   23.1410 C   0  0  0  0  0  3  0  0  0  0  0  0
  -25.9650  -32.5210   23.8620 C   0  0  0  0  0  3  0  0  0  0  0  0
  -26.4710  -31.7520   25.1450 C   0  0  1  0  0  0  0  0  0  0  0  0
  -25.3740  -31.5230   26.2120 C   0  0  0  0  0  1  0  0  0  0  0  0
  -27.0500  -30.3710   24.7630 C   0  0  0  0  0  1  0  0  0  0  0  0
  -27.6230  -32.5460   25.8070 C   0  0  0  0  0  1  0  0  0  0  0  0
  -25.6600  -33.9220   24.1960 N   0  0  0  0  0  0  0  0  0  0  0  0
  -25.9870  -34.9780   23.4380 C   0  0  0  0  0  0  0  0  0  0  0  0
  -26.6430  -34.8720   22.3980 O   0  0  0  0  0  0  0  0  0  0  0  0
  -25.0750  -34.0760   25.0040 H   0  0  0  0  0  0  0  0  0  0  0  0
  -24.2570  -36.7780   23.1200 C   0  0  0  0  0  1  0  0  0  0  0  0
  -25.5140  -36.3700   23.9050 C   0  0  0  0  0  3  0  0  0  0  0  0
  -27.6670  -37.2510   24.6920 C   0  0  0  0  0  1  0  0  0  0  0  0
  -26.5470  -37.4210   23.7700 N   0  0  0  0  0  0  0  0  0  0  0  0
  -26.1460  -38.3420   23.9220 H   0  0  0  0  0  0  0  0  0  0  0  0
  1  2  1  0
  1  8  1  0
  1 51  1  0
  2  3  1  0
  4  3  1  0
  4  6  1  0
  5  4  1  0
  7  4  1  0
  9 46  1  0
  9 10  1  0
  9  8  1  0
 10 17  2  0
 10 16  1  0
 11 16  1  0
 12 13  1  0
 12 11  1  0
 14 13  1  0
 14 21  1  0
 14 15  1  0
 16 15  1  0
 18 19  2  0
 19 38  1  0
 20 19  1  0
 20 23  1  0
 21 18  1  0
 21 22  1  0
 22 20  2  0
 23 24  1  0
 24 25  2  0
 26 29  1  0
 26 25  1  0
 27 26  2  0
 28 27  1  0
 28 23  2  0
 29 30  1  0
 30 31  1  0
 31 32  2  0
 33 32  1  0
 33 37  1  0
 34 33  2  0
 35 30  2  0
 35 34  1  0
 36 35  1  0
 38 39  1  0
 39 42  1  0
 39 41  1  0
 40 38  2  0
 43 18  1  0
 44 43  1  0
 45 43  1  0
 48 47  1  0
 48 50  1  0
 48 46  1  0
 49 50  1  0
 52 57  1  0
 52 51  1  0
 53 52  1  0
 54 53  1  0
 55 53  1  0
 56 53  1  0
 58 57  1  0
 59 70  2  0
 60 58  1  0
 60 65  1  0
 61 69  1  0
 61 71  1  0
 62 68  1  0
 62 64  1  0
 63 69  1  0
 64 65  2  0
 64 63  1  0
 66 60  2  0
 67 66  1  0
 67 62  2  0
 68 61  1  0
 69 59  1  0
 71 73  2  0
 72 71  1  0
 74 72  1  0
 75 84  2  0
 75 80  1  0
 76 72  1  0
 76 80  1  0
 77 76  1  0
 78 79  1  0
 78 77  1  0
 79 75  1  0
 80 81  2  0
 81 82  1  0
 83 82  2  0
 84 83  1  0
 85 59  1  0
 85 90  1  0
 85 86  1  0
 86 89  1  1
 86 87  1  0
 88 86  1  0
 90 93  1  0
 91 95  1  0
 91 90  1  0
 92 91  2  0
 95 94  1  0
 97 95  1  0
 97 98  1  0
 97 96  1  0
M  ISO  4   9 100  10 100  57 101  58 101
M  END
>  <TORSDO>  (35) 
F 28

>  <SCORE>  (35) 
-13.773

>  <name>  (35) 
34

>  <ligand_id>  (35) 
34

>  <original_smiles>  (35) 
[H]c1c([H])c([H])c2c(c1[H])C([H])([H])C([H])([H])C([H])([H])C2([H])N([H])C(=O)C1([H])N(C(=O)C([H])(N([H])C(=O)C([H])(N([H])C([H])([H])[H])C([H])([H])[H])C(C([H])([H])[H])(C([H])([H])[H])C([H])([H])[H])C([H])([H])c2c([H])c(OC([H])([H])C([H])(C([H])([H])C([H])(C([H])([H])C([H])(C(=O)N3C([H])([H])C([H])([H])C([H])([H])C([H])(n4nc(-c5c([H])c([H])c(Oc6c([H])c([H])c(F)c([H])c6F)c([H])c5[H])c(C(=O)N([H])[H])c4N([H])[H])C3([H])[H])C([H])([H])C([H])(C([H])([H])[H])C([H])([H])C([H])([H])[H])C([H])([H])C([H])([H])[N+]([H])([H])[H])[N+]([H])([H])[H])c([H])c([H])c2C1([H])[H]

>  <smiles>  (35) 
[H]c1c([H])c([H])c2c(c1[H])C([H])([H])C([H])([H])C([H])([H])C2([H])N([H])C(=O)C1([H])N(C(=O)C([H])(N([H])C(=O)C([H])(N([H])C([H])([H])[H])C([H])([H])[H])C(C([H])([H])[H])(C([H])([H])[H])C([H])([H])[H])C([H])([H])c2c([H])c(OC([H])([H])C([H])(C([H])([H])C([H])(C([H])([H])C([H])(C(=O)N3C([H])([H])C([H])([H])C([H])([H])C([H])(n4nc(-c5c([H])c([H])c(Oc6c([H])c([H])c(F)c([H])c6F)c([H])c5[H])c(C(=O)N([H])[H])c4N([H])[H])C3([H])[H])C([H])([H])C([H])(C([H])([H])[H])C([H])([H])C([H])([H])[H])C([H])([H])C([H])([H])[N+]([H])([H])[H])[N+]([H])([H])[H])c([H])c([H])c2C1([H])[H]

$$$$
35:0:0
     RDKit          3D

 96103  0  0  1  0  0  0  0  0999 V2000
  -29.5670  -18.9860   20.6900 C   0  0  0  0  0  0  0  0  0  0  0  0
  -28.7920  -18.8320   21.6360 O   0  0  0  0  0  0  0  0  0  0  0  0
  -30.3350  -17.6340   20.0500 C   0  0  0  0  0  3  0  0  0  0  0  0
  -30.8500  -14.9810   20.4010 C   0  0  0  0  0  0  0  0  0  0  0  0
  -30.6760  -12.6700   19.4060 C   0  0  0  0  0  2  0  0  0  0  0  0
  -29.7440  -12.7200   18.1720 C   0  0  0  0  0  2  0  0  0  0  0  0
  -28.2750  -12.5330   18.5980 C   0  0  0  0  0  2  0  0  0  0  0  0
  -27.8950  -13.4050   19.8250 C   0  0  0  0  0  3  0  0  0  0  0  0
  -28.9540  -13.3440   20.9460 C   0  0  0  0  0  2  0  0  0  0  0  0
  -30.2360  -13.7360   20.3490 N   0  0  0  0  0  0  0  0  0  0  0  0
  -32.0430  -15.0440   20.0840 O   0  0  0  0  0  0  0  0  0  0  0  0
  -30.0850  -16.1600   20.5500 N   0  0  0  0  0  0  0  0  0  0  0  0
  -29.1470  -16.0030   20.8840 H   0  0  0  0  0  0  0  0  0  0  0  0
  -25.5210  -13.9920   20.5770 C   0  0  0  0  0  0  0  0  0  0  0  0
  -24.4480  -13.2210   20.9280 C   0  0  0  0  0  0  0  0  0  0  0  0
  -24.8970  -11.8660   20.8630 C   0  0  0  0  0  0  0  0  0  0  0  0
  -26.5540  -13.1090   20.3150 N   0  0  0  0  0  0  0  0  0  0  0  0
  -26.1870  -11.8220   20.5500 N   0  0  0  0  0  0  0  0  0  0  0  0
  -24.1550  -10.6070   21.0210 C   0  0  0  0  0  0  0  0  0  0  0  0
  -24.5430   -9.6360   21.9690 C   0  0  0  0  0  3  0  0  0  0  0  0
  -23.8040   -8.4420   22.1170 C   0  0  0  0  0  3  0  0  0  0  0  0
  -22.6600   -8.2130   21.3150 C   0  0  0  0  0  0  0  0  0  0  0  0
  -22.2900   -9.1720   20.3570 C   0  0  0  0  0  3  0  0  0  0  0  0
  -23.0320  -10.3570   20.2080 C   0  0  0  0  0  3  0  0  0  0  0  0
  -21.8960   -7.0740   21.3700 O   0  0  0  0  0  0  0  0  0  0  0  0
  -21.7490   -6.3600   22.5330 C   0  0  0  0  0  0  0  0  0  0  0  0
  -21.2230   -6.9460   23.7040 C   0  0  0  0  0  3  0  0  0  0  0  0
  -21.0250   -6.1590   24.8570 C   0  0  0  0  0  3  0  0  0  0  0  0
  -21.3420   -4.7870   24.8370 C   0  0  0  0  0  0  0  0  0  0  0  0
  -21.8610   -4.2010   23.6680 C   0  0  0  0  0  3  0  0  0  0  0  0
  -22.0590   -4.9850   22.5180 C   0  0  0  0  0  0  0  0  0  0  0  0
  -22.5390   -4.4100   21.3890 F   0  0  0  0  0  0  0  0  0  0  0  0
  -21.1450   -4.0290   25.9410 F   0  0  0  0  0  0  0  0  0  0  0  0
  -23.0570  -13.7070   21.2090 C   0  0  0  0  0  0  0  0  0  0  0  0
  -22.3340  -13.0210   22.0890 N   0  0  0  0  0  0  0  0  0  0  0  0
  -22.6180  -14.7290   20.6830 O   0  0  0  0  0  0  0  0  0  0  0  0
  -22.7030  -12.1940   22.5340 H   0  0  0  0  0  0  0  0  0  0  0  0
  -21.4000  -13.3270   22.3190 H   0  0  0  0  0  0  0  0  0  0  0  0
  -25.6980  -15.3660   20.4340 N   0  0  0  0  0  0  0  0  0  0  0  0
  -24.9420  -16.0220   20.5910 H   0  0  0  0  0  0  0  0  0  0  0  0
  -26.5570  -15.8120   20.1460 H   0  0  0  0  0  0  0  0  0  0  0  0
  -30.2330  -17.6330   18.5030 C   0  0  0  0  0  2  0  0  0  0  0  0
  -28.8670  -18.0920   17.9480 C   0  0  0  0  0  2  0  0  0  0  0  0
  -28.9510  -18.6120   16.4990 C   0  0  0  0  0  2  0  0  0  0  0  0
  -27.6550  -19.2760   15.9830 C   0  0  0  0  0  2  0  0  0  0  0  0
  -27.3260  -20.5290   16.6870 N   0  0  0  0  0  4  0  0  0  0  0  0
  -27.1640  -20.3690   17.6650 H   0  0  0  0  0  0  0  0  0  0  0  0
  -26.4860  -20.9220   16.2970 H   0  0  0  0  0  0  0  0  0  0  0  0
  -28.0580  -21.2080   16.5800 H   0  0  0  0  0  0  0  0  0  0  0  0
  -29.7670  -20.5310   20.1460 C   0  0  0  0  0  3  0  0  0  0  0  0
  -28.9850  -21.9030   20.7230 C   0  0  0  0  0  3  0  0  0  0  0  0
  -29.2670  -23.4840   20.2190 C   0  0  0  0  0  3  0  0  0  0  0  0
  -31.3770  -24.8820   19.6520 C   0  0  0  0  0  1  0  0  0  0  0  0
  -30.7420  -23.8090   20.5470 C   0  0  0  0  0  2  0  0  0  0  0  0
  -28.2860  -24.7800   20.6530 C   0  0  0  0  0  2  0  0  0  0  0  0
  -28.4830  -26.2810   20.3230 O   0  0  0  0  0  0  0  0  0  0  0  0
  -24.6840  -31.8940   23.2050 C   0  0  0  0  0  0  0  0  0  0  0  0
  -27.3860  -27.2080   20.2810 C   0  0  0  0  0  0  0  0  0  0  0  0
  -23.5270  -30.4510   21.5720 C   0  0  0  0  0  3  0  0  0  0  0  0
  -25.0200  -28.8810   20.1940 C   0  0  0  0  0  0  0  0  0  0  0  0
  -26.0750  -30.7690   21.4270 C   0  0  0  0  0  2  0  0  0  0  0  0
  -26.1810  -29.3680   20.8060 C   0  0  0  0  0  0  0  0  0  0  0  0
  -27.3660  -28.5470   20.8320 C   0  0  0  0  0  3  0  0  0  0  0  0
  -26.2000  -26.8130   19.6250 C   0  0  0  0  0  3  0  0  0  0  0  0
  -25.0400  -27.6140   19.5890 C   0  0  0  0  0  3  0  0  0  0  0  0
  -23.7740  -29.7510   20.2080 C   0  0  0  0  0  2  0  0  0  0  0  0
  -24.7810  -31.0620   22.1220 N   0  0  0  0  0  0  0  0  0  0  0  0
  -23.5870  -32.1640   23.7190 O   0  0  0  0  0  0  0  0  0  0  0  0
  -22.8580  -29.4470   22.5450 C   0  0  0  0  0  0  0  0  0  0  0  0
  -21.5380  -29.2380   22.3970 N   0  0  0  0  0  0  0  0  0  0  0  0
  -23.5320  -28.8550   23.3930 O   0  0  0  0  0  0  0  0  0  0  0  0
  -21.0540  -29.7640   21.6830 H   0  0  0  0  0  0  0  0  0  0  0  0
  -18.1780  -27.9670   22.8640 C   0  0  0  0  0  0  0  0  0  0  0  0
  -20.7250  -28.2970   23.1730 C   0  0  0  0  0  3  0  0  0  0  0  0
  -20.8720  -26.8570   22.6290 C   0  0  0  0  0  2  0  0  0  0  0  0
  -19.7970  -26.4870   21.6020 C   0  0  0  0  0  2  0  0  0  0  0  0
  -18.3990  -26.6110   22.2170 C   0  0  0  0  0  2  0  0  0  0  0  0
  -19.2700  -28.7660   23.2970 C   0  0  0  0  0  0  0  0  0  0  0  0
  -19.0090  -30.0340   23.8610 C   0  0  0  0  0  3  0  0  0  0  0  0
  -17.6890  -30.5030   23.9980 C   0  0  0  0  0  3  0  0  0  0  0  0
  -16.6110  -29.7030   23.5810 C   0  0  0  0  0  3  0  0  0  0  0  0
  -16.8570  -28.4370   23.0190 C   0  0  0  0  0  3  0  0  0  0  0  0
  -25.9430  -32.5620   23.8340 C   0  0  0  0  0  3  0  0  0  0  0  0
  -26.4650  -31.8130   25.1220 C   0  0  1  0  0  0  0  0  0  0  0  0
  -25.3590  -31.5210   26.1640 C   0  0  0  0  0  1  0  0  0  0  0  0
  -27.1190  -30.4640   24.7470 C   0  0  0  0  0  1  0  0  0  0  0  0
  -27.5630  -32.6570   25.8110 C   0  0  0  0  0  1  0  0  0  0  0  0
  -25.5980  -33.9570   24.1560 N   0  0  0  0  0  0  0  0  0  0  0  0
  -25.9220  -35.0180   23.4050 C   0  0  0  0  0  0  0  0  0  0  0  0
  -26.6120  -34.9280   22.3870 O   0  0  0  0  0  0  0  0  0  0  0  0
  -24.9900  -34.0970   24.9490 H   0  0  0  0  0  0  0  0  0  0  0  0
  -24.1710  -36.7800   23.0170 C   0  0  0  0  0  1  0  0  0  0  0  0
  -25.4000  -36.3960   23.8540 C   0  0  0  0  0  3  0  0  0  0  0  0
  -27.5060  -37.3140   24.7240 C   0  0  0  0  0  1  0  0  0  0  0  0
  -26.4160  -37.4690   23.7660 N   0  0  0  0  0  0  0  0  0  0  0  0
  -25.9890  -38.3800   23.9150 H   0  0  0  0  0  0  0  0  0  0  0  0
  1  2  2  0
  3 42  1  0
  3 12  1  0
  3  1  1  0
  4 12  1  0
  5 10  1  0
  6  7  1  0
  6  5  1  0
  8  7  1  0
  8 17  1  0
  8  9  1  0
 10  4  1  0
 10  9  1  0
 11  4  2  0
 12 13  1  0
 14 15  2  0
 15 34  1  0
 16 15  1  0
 16 19  1  0
 17 18  1  0
 17 14  1  0
 18 16  2  0
 19 20  1  0
 20 21  2  0
 22 25  1  0
 22 21  1  0
 23 22  2  0
 24 23  1  0
 24 19  2  0
 25 26  1  0
 26 27  1  0
 27 28  2  0
 29 28  1  0
 29 33  1  0
 30 29  2  0
 31 26  2  0
 31 30  1  0
 32 31  1  0
 34 35  1  0
 35 38  1  0
 35 37  1  0
 36 34  2  0
 39 14  1  0
 39 40  1  0
 41 39  1  0
 43 42  1  0
 44 43  1  0
 45 44  1  0
 45 46  1  0
 46 47  1  0
 48 46  1  0
 49 46  1  0
 50  1  1  0
 50 51  2  0
 52 54  1  0
 52 55  1  0
 52 51  1  0
 53 54  1  0
 56 55  1  0
 57 68  2  0
 58 56  1  0
 58 63  1  0
 59 67  1  0
 59 69  1  0
 60 66  1  0
 60 62  1  0
 61 67  1  0
 62 63  2  0
 62 61  1  0
 64 58  2  0
 65 64  1  0
 65 60  2  0
 66 59  1  0
 67 57  1  0
 69 71  2  0
 70 69  1  0
 72 70  1  0
 73 82  2  0
 73 78  1  0
 74 70  1  0
 74 78  1  0
 75 74  1  0
 76 77  1  0
 76 75  1  0
 77 73  1  0
 78 79  2  0
 79 80  1  0
 81 80  2  0
 82 81  1  0
 83 57  1  0
 83 88  1  0
 83 84  1  0
 84 87  1  1
 84 85  1  0
 86 84  1  0
 88 91  1  0
 89 93  1  0
 89 88  1  0
 90 89  2  0
 93 92  1  0
 95 93  1  0
 95 96  1  0
 95 94  1  0
M  ISO  4   4 100  12 100  55 101  56 101
M  END
>  <TORSDO>  (36) 
F 27

>  <SCORE>  (36) 
-10.600

>  <name>  (36) 
35

>  <ligand_id>  (36) 
35

>  <original_smiles>  (36) 
[H]c1c([H])c([H])c2c(c1[H])C([H])([H])C([H])([H])C([H])([H])C2([H])N([H])C(=O)C1([H])N(C(=O)C([H])(N([H])C(=O)C([H])(N([H])C([H])([H])[H])C([H])([H])[H])C(C([H])([H])[H])(C([H])([H])[H])C([H])([H])[H])C([H])([H])c2c([H])c(OC([H])([H])C([H])(C([H])([H])C([H])([H])[H])C([H])([H])C([H])([H])C(=O)C([H])(N([H])C(=O)N3C([H])([H])C([H])([H])C([H])([H])C([H])(n4nc(-c5c([H])c([H])c(Oc6c([H])c([H])c(F)c([H])c6F)c([H])c5[H])c(C(=O)N([H])[H])c4N([H])[H])C3([H])[H])C([H])([H])C([H])([H])C([H])([H])C([H])([H])[N+]([H])([H])[H])c([H])c([H])c2C1([H])[H]

>  <smiles>  (36) 
[H]c1c([H])c([H])c2c(c1[H])C([H])([H])C([H])([H])C([H])([H])C2([H])N([H])C(=O)C1([H])N(C(=O)C([H])(N([H])C(=O)C([H])(N([H])C([H])([H])[H])C([H])([H])[H])C(C([H])([H])[H])(C([H])([H])[H])C([H])([H])[H])C([H])([H])c2c([H])c(OC([H])([H])C([H])(C([H])([H])C([H])([H])[H])C([H])([H])C([H])([H])C(=O)C([H])(N([H])C(=O)N3C([H])([H])C([H])([H])C([H])([H])C([H])(n4nc(-c5c([H])c([H])c(Oc6c([H])c([H])c(F)c([H])c6F)c([H])c5[H])c(C(=O)N([H])[H])c4N([H])[H])C3([H])[H])C([H])([H])C([H])([H])C([H])([H])C([H])([H])[N+]([H])([H])[H])c([H])c([H])c2C1([H])[H]

$$$$
36:0:0
     RDKit          3D

 90 98  0  0  1  0  0  0  0  0999 V2000
  -29.4140  -21.6060   21.2130 C   0  0  0  0  0  3  0  0  0  0  0  0
  -28.2000  -21.3700   19.3800 C   0  0  0  0  0  3  0  0  0  0  0  0
  -29.0810  -23.1000   21.2380 C   0  0  0  0  0  3  0  0  0  0  0  0
  -27.8660  -22.8760   19.4050 C   0  0  0  0  0  3  0  0  0  0  0  0
  -29.0320  -20.5070   20.2810 C   0  0  0  0  0  0  0  0  0  0  0  0
  -28.2610  -23.9730   20.3460 C   0  0  0  0  0  0  0  0  0  0  0  0
  -28.1770  -25.5950   20.3260 O   0  0  0  0  0  0  0  0  0  0  0  0
  -24.6500  -31.8900   23.2320 C   0  0  0  0  0  0  0  0  0  0  0  0
  -27.1580  -26.7670   20.3040 C   0  0  0  0  0  0  0  0  0  0  0  0
  -23.4560  -30.4730   21.6150 C   0  0  0  0  0  3  0  0  0  0  0  0
  -24.8940  -28.8000   20.2240 C   0  0  0  0  0  0  0  0  0  0  0  0
  -26.0320  -30.6060   21.4890 C   0  0  0  0  0  2  0  0  0  0  0  0
  -26.0890  -29.1630   20.8550 C   0  0  0  0  0  0  0  0  0  0  0  0
  -27.2030  -28.1730   20.8630 C   0  0  0  0  0  3  0  0  0  0  0  0
  -25.9310  -26.6130   19.6110 C   0  0  0  0  0  3  0  0  0  0  0  0
  -24.8520  -27.5490   19.5800 C   0  0  0  0  0  3  0  0  0  0  0  0
  -23.6910  -29.7570   20.2540 C   0  0  0  0  0  2  0  0  0  0  0  0
  -24.7370  -31.0250   22.1630 N   0  0  0  0  0  0  0  0  0  0  0  0
  -23.5590  -32.2000   23.7400 O   0  0  0  0  0  0  0  0  0  0  0  0
  -22.7390  -29.5110   22.6000 C   0  0  0  0  0  0  0  0  0  0  0  0
  -21.4070  -29.3510   22.4730 N   0  0  0  0  0  0  0  0  0  0  0  0
  -23.3920  -28.9050   23.4530 O   0  0  0  0  0  0  0  0  0  0  0  0
  -20.9310  -29.8910   21.7630 H   0  0  0  0  0  0  0  0  0  0  0  0
  -18.0250  -28.1210   22.9710 C   0  0  0  0  0  0  0  0  0  0  0  0
  -20.5790  -28.4270   23.2570 C   0  0  0  0  0  3  0  0  0  0  0  0
  -20.7020  -26.9810   22.7210 C   0  0  0  0  0  2  0  0  0  0  0  0
  -19.6180  -26.6210   21.7000 C   0  0  0  0  0  2  0  0  0  0  0  0
  -18.2260  -26.7610   22.3240 C   0  0  0  0  0  2  0  0  0  0  0  0
  -19.1280  -28.9090   23.3940 C   0  0  0  0  0  0  0  0  0  0  0  0
  -18.8830  -30.1770   23.9630 C   0  0  0  0  0  3  0  0  0  0  0  0
  -17.5680  -30.6590   24.1100 C   0  0  0  0  0  3  0  0  0  0  0  0
  -16.4800  -29.8690   23.7000 C   0  0  0  0  0  3  0  0  0  0  0  0
  -16.7090  -28.6010   23.1380 C   0  0  0  0  0  3  0  0  0  0  0  0
  -25.9170  -32.5440   23.8640 C   0  0  0  0  0  3  0  0  0  0  0  0
  -26.4210  -31.7900   25.1580 C   0  0  1  0  0  0  0  0  0  0  0  0
  -25.3200  -31.5740   26.2240 C   0  0  0  0  0  1  0  0  0  0  0  0
  -27.0010  -30.4030   24.8030 C   0  0  0  0  0  1  0  0  0  0  0  0
  -27.5720  -32.5900   25.8150 C   0  0  0  0  0  1  0  0  0  0  0  0
  -25.5940  -33.9460   24.1980 N   0  0  0  0  0  0  0  0  0  0  0  0
  -25.9020  -35.0090   23.4430 C   0  0  0  0  0  0  0  0  0  0  0  0
  -26.5440  -34.9130   22.3940 O   0  0  0  0  0  0  0  0  0  0  0  0
  -25.0170  -34.0910   25.0130 H   0  0  0  0  0  0  0  0  0  0  0  0
  -24.1440  -36.7950   23.1720 C   0  0  0  0  0  1  0  0  0  0  0  0
  -25.4260  -36.3970   23.9220 C   0  0  0  0  0  3  0  0  0  0  0  0
  -27.5850  -37.3120   24.6550 C   0  0  0  0  0  1  0  0  0  0  0  0
  -26.4430  -37.4610   23.7580 N   0  0  0  0  0  0  0  0  0  0  0  0
  -26.0340  -38.3790   23.9160 H   0  0  0  0  0  0  0  0  0  0  0  0
  -29.7870  -18.7970   20.0800 C   0  0  0  0  0  0  0  0  0  0  0  0
  -30.2410  -15.6790   20.1600 C   0  0  0  0  0  0  0  0  0  0  0  0
  -30.2990  -13.1580   19.2890 C   0  0  0  0  0  2  0  0  0  0  0  0
  -29.3740  -12.7980   18.0920 C   0  0  0  0  0  2  0  0  0  0  0  0
  -27.9630  -12.4390   18.5780 C   0  0  0  0  0  2  0  0  0  0  0  0
  -27.4880  -13.4120   19.6810 C   0  0  0  0  0  3  0  0  0  0  0  0
  -28.5490  -13.6910   20.7710 C   0  0  0  0  0  2  0  0  0  0  0  0
  -29.7050  -14.3200   20.0920 N   0  0  0  0  0  0  0  0  0  0  0  0
  -31.4660  -15.6080   19.9370 O   0  0  0  0  0  0  0  0  0  0  0  0
  -29.5100  -17.0530   20.2770 N   0  0  0  0  0  4  0  0  0  0  0  0
  -28.5330  -16.8820   20.4610 H   0  0  0  0  0  0  0  0  0  0  0  0
  -25.1470  -13.9200   20.5170 C   0  0  0  0  0  0  0  0  0  0  0  0
  -24.1020  -13.1280   20.8990 C   0  0  0  0  0  0  0  0  0  0  0  0
  -24.5780  -11.7820   20.8320 C   0  0  0  0  0  0  0  0  0  0  0  0
  -26.1880  -13.0580   20.2300 N   0  0  0  0  0  0  0  0  0  0  0  0
  -25.8620  -11.7630   20.4860 N   0  0  0  0  0  0  0  0  0  0  0  0
  -23.8620  -10.5120   21.0170 C   0  0  0  0  0  0  0  0  0  0  0  0
  -24.3220   -9.5270   21.9180 C   0  0  0  0  0  3  0  0  0  0  0  0
  -23.6010   -8.3270   22.0970 C   0  0  0  0  0  3  0  0  0  0  0  0
  -22.4060   -8.1020   21.3730 C   0  0  0  0  0  0  0  0  0  0  0  0
  -21.9650   -9.0750   20.4590 C   0  0  0  0  0  3  0  0  0  0  0  0
  -22.6850  -10.2670   20.2800 C   0  0  0  0  0  3  0  0  0  0  0  0
  -21.6550   -6.9550   21.4620 O   0  0  0  0  0  0  0  0  0  0  0  0
  -21.6530   -6.1800   22.5950 C   0  0  0  0  0  0  0  0  0  0  0  0
  -21.2590   -6.6960   23.8490 C   0  0  0  0  0  3  0  0  0  0  0  0
  -21.2080   -5.8480   24.9730 C   0  0  0  0  0  3  0  0  0  0  0  0
  -21.5380   -4.4850   24.8440 C   0  0  0  0  0  0  0  0  0  0  0  0
  -21.9250   -3.9700   23.5950 C   0  0  0  0  0  3  0  0  0  0  0  0
  -21.9800   -4.8140   22.4730 C   0  0  0  0  0  0  0  0  0  0  0  0
  -22.3330   -4.3080   21.2670 F   0  0  0  0  0  0  0  0  0  0  0  0
  -21.4800   -3.6680   25.9220 F   0  0  0  0  0  0  0  0  0  0  0  0
  -22.7080  -13.5930   21.2020 C   0  0  0  0  0  0  0  0  0  0  0  0
  -22.0040  -12.8820   22.0760 N   0  0  0  0  0  0  0  0  0  0  0  0
  -22.2550  -14.6210   20.7010 O   0  0  0  0  0  0  0  0  0  0  0  0
  -22.3880  -12.0530   22.5040 H   0  0  0  0  0  0  0  0  0  0  0  0
  -21.0680  -13.1730   22.3210 H   0  0  0  0  0  0  0  0  0  0  0  0
  -25.2940  -15.2940   20.3580 N   0  0  0  0  0  0  0  0  0  0  0  0
  -24.5210  -15.9370   20.4920 H   0  0  0  0  0  0  0  0  0  0  0  0
  -26.1160  -15.7410   19.9730 H   0  0  0  0  0  0  0  0  0  0  0  0
  -30.4920  -18.8400   18.6950 C   0  0  0  0  0  2  0  0  0  0  0  0
  -31.8860  -20.0060   16.9310 C   0  0  0  0  0  1  0  0  0  0  0  0
  -32.6850  -20.0090   19.3210 C   0  0  0  0  0  1  0  0  0  0  0  0
  -31.4500  -20.0230   18.4050 C   0  0  0  0  0  3  0  0  0  0  0  0
  1  3  1  0
  2  4  2  0
  2  5  1  0
  4  6  1  0
  5  1  2  0
  6  3  2  0
  7  6  1  0
  8 19  2  0
  9  7  1  0
  9 14  1  0
 10 18  1  0
 10 20  1  0
 11 17  1  0
 11 13  1  0
 12 18  1  0
 13 14  2  0
 13 12  1  0
 15  9  2  0
 16 15  1  0
 16 11  2  0
 17 10  1  0
 18  8  1  0
 20 22  2  0
 21 20  1  0
 23 21  1  0
 24 33  2  0
 24 29  1  0
 25 21  1  0
 25 29  1  0
 26 25  1  0
 27 28  1  0
 27 26  1  0
 28 24  1  0
 29 30  2  0
 30 31  1  0
 32 31  2  0
 33 32  1  0
 34  8  1  0
 34 39  1  0
 34 35  1  0
 35 38  1  1
 35 36  1  0
 37 35  1  0
 39 42  1  0
 40 44  1  0
 40 39  1  0
 41 40  2  0
 44 43  1  0
 46 47  1  0
 46 44  1  0
 46 45  1  0
 48 57  2  0
 48  5  1  0
 49 57  1  0
 50 55  1  0
 51 52  1  0
 51 50  1  0
 53 52  1  0
 53 62  1  0
 53 54  1  0
 55 49  1  0
 55 54  1  0
 56 49  2  0
 57 58  1  0
 59 60  2  0
 60 79  1  0
 61 60  1  0
 61 64  1  0
 62 63  1  0
 62 59  1  0
 63 61  2  0
 64 65  1  0
 65 66  2  0
 67 70  1  0
 67 66  1  0
 68 67  2  0
 69 68  1  0
 69 64  2  0
 70 71  1  0
 71 72  1  0
 72 73  2  0
 74 73  1  0
 74 78  1  0
 75 74  2  0
 76 71  2  0
 76 75  1  0
 77 76  1  0
 79 80  1  0
 80 83  1  0
 80 82  1  0
 81 79  2  0
 84 85  1  0
 84 59  1  0
 86 84  1  0
 87 48  1  0
 88 90  1  0
 90 87  1  0
 90 89  1  0
M  ISO  4   6 101   7 101  49 100  57 100
M  END
>  <TORSDO>  (37) 
F 19

>  <SCORE>  (37) 
-15.237

>  <name>  (37) 
36

>  <ligand_id>  (37) 
36

>  <original_smiles>  (37) 
[H]c1c([H])c([H])c2c(c1[H])C([H])([H])C([H])([H])C([H])([H])C2([H])N([H])C(=O)C1([H])N(C(=O)C([H])(N([H])C(=O)C([H])(N([H])C([H])([H])[H])C([H])([H])[H])C(C([H])([H])[H])(C([H])([H])[H])C([H])([H])[H])C([H])([H])c2c([H])c(Oc3c([H])c([H])c(C([H])(N([H])C(=O)N4C([H])([H])C([H])([H])C([H])([H])C([H])(n5nc(-c6c([H])c([H])c(Oc7c([H])c([H])c(F)c([H])c7F)c([H])c6[H])c(C(=O)N([H])[H])c5N([H])[H])C4([H])[H])C([H])([H])C([H])(C([H])([H])[H])C([H])([H])[H])c([H])c3[H])c([H])c([H])c2C1([H])[H]

>  <smiles>  (37) 
[H]c1c([H])c([H])c2c(c1[H])C([H])([H])C([H])([H])C([H])([H])C2([H])N([H])C(=O)C1([H])N(C(=O)C([H])(N([H])C(=O)C([H])(N([H])C([H])([H])[H])C([H])([H])[H])C(C([H])([H])[H])(C([H])([H])[H])C([H])([H])[H])C([H])([H])c2c([H])c(Oc3c([H])c([H])c(C([H])(N([H])C(=O)N4C([H])([H])C([H])([H])C([H])([H])C([H])(n5nc(-c6c([H])c([H])c(Oc7c([H])c([H])c(F)c([H])c7F)c([H])c6[H])c(C(=O)N([H])[H])c5N([H])[H])C4([H])[H])C([H])([H])C([H])(C([H])([H])[H])C([H])([H])[H])c([H])c3[H])c([H])c([H])c2C1([H])[H]

$$$$
37:0:0
     RDKit          3D

 96103  0  0  1  0  0  0  0  0999 V2000
  -29.2240  -21.8610   20.5920 C   0  0  0  0  0  3  0  0  0  0  0  0
  -28.0560  -21.8780   21.4880 N   0  0  0  0  0  4  0  0  0  0  0  0
  -27.2070  -21.7370   20.9690 H   0  0  0  0  0  0  0  0  0  0  0  0
  -27.9950  -22.7550   21.9760 H   0  0  0  0  0  0  0  0  0  0  0  0
  -28.1360  -21.1470   22.1730 H   0  0  0  0  0  0  0  0  0  0  0  0
  -29.0470  -22.9870   19.4830 C   0  0  0  0  0  2  0  0  0  0  0  0
  -29.3470  -24.5420   19.7210 C   0  0  0  0  0  3  0  0  0  0  0  0
  -31.9010  -24.2110   19.4820 C   0  0  0  0  0  1  0  0  0  0  0  0
  -30.7500  -24.8120   20.3060 C   0  0  0  0  0  2  0  0  0  0  0  0
  -28.2400  -25.4620   20.3850 C   0  0  0  0  0  2  0  0  0  0  0  0
  -28.3600  -26.9240   20.1830 O   0  0  0  0  0  0  0  0  0  0  0  0
  -24.5630  -32.1400   23.4700 C   0  0  0  0  0  0  0  0  0  0  0  0
  -27.2060  -27.7230   20.2280 C   0  0  0  0  0  0  0  0  0  0  0  0
  -23.3630  -30.7910   21.7870 C   0  0  0  0  0  3  0  0  0  0  0  0
  -24.8200  -29.2970   20.3080 C   0  0  0  0  0  0  0  0  0  0  0  0
  -25.8980  -31.1350   21.6050 C   0  0  0  0  0  2  0  0  0  0  0  0
  -25.9880  -29.7790   20.9130 C   0  0  0  0  0  0  0  0  0  0  0  0
  -27.1850  -29.0030   20.8640 C   0  0  0  0  0  3  0  0  0  0  0  0
  -26.0140  -27.3000   19.5960 C   0  0  0  0  0  3  0  0  0  0  0  0
  -24.8320  -28.0600   19.6490 C   0  0  0  0  0  3  0  0  0  0  0  0
  -23.5740  -30.1540   20.3890 C   0  0  0  0  0  2  0  0  0  0  0  0
  -24.6280  -31.3690   22.3460 N   0  0  0  0  0  0  0  0  0  0  0  0
  -23.4790  -32.3940   24.0150 O   0  0  0  0  0  0  0  0  0  0  0  0
  -22.7080  -29.7420   22.7150 C   0  0  0  0  0  0  0  0  0  0  0  0
  -21.3880  -29.5380   22.5610 N   0  0  0  0  0  0  0  0  0  0  0  0
  -23.3870  -29.1110   23.5290 O   0  0  0  0  0  0  0  0  0  0  0  0
  -20.8990  -30.1000   21.8750 H   0  0  0  0  0  0  0  0  0  0  0  0
  -18.0330  -28.2520   22.9720 C   0  0  0  0  0  0  0  0  0  0  0  0
  -20.5770  -28.5690   23.2980 C   0  0  0  0  0  3  0  0  0  0  0  0
  -20.7260  -27.1510   22.7000 C   0  0  0  0  0  2  0  0  0  0  0  0
  -19.6540  -26.8190   21.6590 C   0  0  0  0  0  2  0  0  0  0  0  0
  -18.2560  -26.9200   22.2760 C   0  0  0  0  0  2  0  0  0  0  0  0
  -19.1240  -29.0330   23.4360 C   0  0  0  0  0  0  0  0  0  0  0  0
  -18.8630  -30.2790   24.0470 C   0  0  0  0  0  3  0  0  0  0  0  0
  -17.5450  -30.7480   24.1930 C   0  0  0  0  0  3  0  0  0  0  0  0
  -16.4670  -29.9640   23.7460 C   0  0  0  0  0  3  0  0  0  0  0  0
  -16.7120  -28.7170   23.1420 C   0  0  0  0  0  3  0  0  0  0  0  0
  -25.8450  -32.7560   24.1110 C   0  0  0  0  0  3  0  0  0  0  0  0
  -26.3090  -32.0020   25.4160 C   0  0  1  0  0  0  0  0  0  0  0  0
  -25.1810  -31.8090   26.4560 C   0  0  0  0  0  1  0  0  0  0  0  0
  -26.8760  -30.6040   25.0710 C   0  0  0  0  0  1  0  0  0  0  0  0
  -27.4590  -32.7870   26.0930 C   0  0  0  0  0  1  0  0  0  0  0  0
  -25.5600  -34.1680   24.4010 N   0  0  0  0  0  0  0  0  0  0  0  0
  -25.9530  -35.1950   23.6380 C   0  0  0  0  0  0  0  0  0  0  0  0
  -26.6610  -35.0560   22.6380 O   0  0  0  0  0  0  0  0  0  0  0  0
  -24.9230  -34.3530   25.1620 H   0  0  0  0  0  0  0  0  0  0  0  0
  -24.3020  -37.0370   23.1800 C   0  0  0  0  0  1  0  0  0  0  0  0
  -25.4900  -36.6050   24.0530 C   0  0  0  0  0  3  0  0  0  0  0  0
  -27.6050  -37.4410   24.9810 C   0  0  0  0  0  1  0  0  0  0  0  0
  -26.5620  -37.6230   23.9750 N   0  0  0  0  0  0  0  0  0  0  0  0
  -26.1780  -38.5580   24.0840 H   0  0  0  0  0  0  0  0  0  0  0  0
  -29.4490  -20.3850   20.0180 C   0  0  0  0  0  3  0  0  0  0  0  0
  -29.6850  -19.1610   21.0220 C   0  0  0  0  0  3  0  0  0  0  0  0
  -29.8170  -17.6710   20.4380 C   0  0  0  0  0  3  0  0  0  0  0  0
  -28.7170  -17.4230   19.3730 C   0  0  0  0  0  2  0  0  0  0  0  0
  -26.2110  -17.0370   19.0000 C   0  0  0  0  0  1  0  0  0  0  0  0
  -27.2830  -17.7430   19.8370 C   0  0  0  0  0  2  0  0  0  0  0  0
  -29.9090  -16.4320   21.4770 C   0  0  0  0  0  3  0  0  0  0  0  0
  -30.6980  -15.1330   20.9880 C   0  0  0  0  0  0  0  0  0  0  0  0
  -30.6200  -12.8830   19.9210 C   0  0  0  0  0  2  0  0  0  0  0  0
  -29.7620  -12.9770   18.6420 C   0  0  0  0  0  2  0  0  0  0  0  0
  -28.2690  -12.7620   18.9660 C   0  0  0  0  0  2  0  0  0  0  0  0
  -27.7960  -13.6080   20.1780 C   0  0  0  0  0  3  0  0  0  0  0  0
  -28.7830  -13.5100   21.3600 C   0  0  0  0  0  2  0  0  0  0  0  0
  -30.1130  -13.8970   20.8690 N   0  0  0  0  0  0  0  0  0  0  0  0
  -31.8630  -15.2940   20.6080 O   0  0  0  0  0  0  0  0  0  0  0  0
  -25.3370  -14.1230   20.7300 C   0  0  0  0  0  0  0  0  0  0  0  0
  -24.2760  -13.3140   21.0270 C   0  0  0  0  0  0  0  0  0  0  0  0
  -24.7860  -11.9800   21.0260 C   0  0  0  0  0  0  0  0  0  0  0  0
  -26.4270  -13.2830   20.5690 N   0  0  0  0  0  0  0  0  0  0  0  0
  -26.0950  -11.9870   20.8040 N   0  0  0  0  0  0  0  0  0  0  0  0
  -24.0920  -10.6950   21.1680 C   0  0  0  0  0  0  0  0  0  0  0  0
  -24.4570   -9.7640   22.1650 C   0  0  0  0  0  3  0  0  0  0  0  0
  -23.7600   -8.5440   22.2930 C   0  0  0  0  0  3  0  0  0  0  0  0
  -22.6860   -8.2460   21.4210 C   0  0  0  0  0  0  0  0  0  0  0  0
  -22.3400   -9.1660   20.4170 C   0  0  0  0  0  3  0  0  0  0  0  0
  -23.0380  -10.3790   20.2860 C   0  0  0  0  0  3  0  0  0  0  0  0
  -21.9680   -7.0740   21.4560 O   0  0  0  0  0  0  0  0  0  0  0  0
  -21.7820   -6.3770   22.6220 C   0  0  0  0  0  0  0  0  0  0  0  0
  -21.1110   -6.9400   23.7290 C   0  0  0  0  0  3  0  0  0  0  0  0
  -20.8810   -6.1650   24.8830 C   0  0  0  0  0  3  0  0  0  0  0  0
  -21.3150   -4.8260   24.9310 C   0  0  0  0  0  0  0  0  0  0  0  0
  -21.9820   -4.2630   23.8280 C   0  0  0  0  0  3  0  0  0  0  0  0
  -22.2130   -5.0340   22.6760 C   0  0  0  0  0  0  0  0  0  0  0  0
  -22.8350   -4.4810   21.6080 F   0  0  0  0  0  0  0  0  0  0  0  0
  -21.0900   -4.0790   26.0350 F   0  0  0  0  0  0  0  0  0  0  0  0
  -22.8480  -13.7450   21.2070 C   0  0  0  0  0  0  0  0  0  0  0  0
  -22.0870  -13.0220   22.0190 N   0  0  0  0  0  0  0  0  0  0  0  0
  -22.4130  -14.7590   20.6620 O   0  0  0  0  0  0  0  0  0  0  0  0
  -22.4490  -12.2010   22.4850 H   0  0  0  0  0  0  0  0  0  0  0  0
  -21.1280  -13.2950   22.1840 H   0  0  0  0  0  0  0  0  0  0  0  0
  -25.4530  -15.4970   20.5640 N   0  0  0  0  0  0  0  0  0  0  0  0
  -24.6470  -16.1110   20.5840 H   0  0  0  0  0  0  0  0  0  0  0  0
  -26.2960  -15.9570   20.2470 H   0  0  0  0  0  0  0  0  0  0  0  0
  -31.6800  -17.7330   22.9280 C   0  0  0  0  0  1  0  0  0  0  0  0
  -30.4130  -16.8570   22.8820 C   0  0  0  0  0  2  0  0  0  0  0  0
  1  6  1  0
  1  2  1  0
  2  4  1  0
  2  5  1  0
  3  2  1  0
  7  6  1  0
  7  9  1  0
  7 10  1  0
  8  9  1  0
 11 13  1  0
 11 10  1  0
 12 23  2  0
 13 18  1  0
 14 22  1  0
 14 24  1  0
 15 21  1  0
 15 17  1  0
 16 22  1  0
 17 16  1  0
 18 17  2  0
 19 20  1  0
 19 13  2  0
 20 15  2  0
 21 14  1  0
 22 12  1  0
 24 26  2  0
 25 24  1  0
 27 25  1  0
 28 37  2  0
 28 33  1  0
 29 25  1  0
 29 33  1  0
 30 29  1  0
 31 32  1  0
 31 30  1  0
 32 28  1  0
 33 34  2  0
 34 35  1  0
 36 35  2  0
 37 36  1  0
 38 12  1  0
 38 43  1  0
 38 39  1  0
 39 42  1  1
 39 40  1  0
 41 39  1  0
 43 46  1  0
 44 48  1  0
 44 43  1  0
 45 44  2  0
 48 47  1  0
 50 48  1  0
 50 51  1  0
 50 49  1  0
 52  1  1  0
 52 53  2  0
 54 55  1  0
 54 53  1  0
 54 58  1  0
 55 57  1  0
 56 57  1  0
 58 96  1  0
 59 58  1  0
 60 65  1  0
 61 62  1  0
 61 60  1  0
 63 62  1  0
 63 70  1  0
 63 64  1  0
 65 59  1  0
 65 64  1  0
 66 59  2  0
 67 68  2  0
 68 87  1  0
 69 68  1  0
 69 72  1  0
 70 67  1  0
 70 71  1  0
 71 69  2  0
 72 73  1  0
 73 74  2  0
 75 78  1  0
 75 74  1  0
 76 75  2  0
 77 76  1  0
 77 72  2  0
 78 79  1  0
 79 84  2  0
 79 80  1  0
 80 81  2  0
 81 82  1  0
 82 86  1  0
 83 82  2  0
 84 83  1  0
 85 84  1  0
 87 88  1  0
 88 91  1  0
 88 90  1  0
 89 87  2  0
 92 93  1  0
 92 67  1  0
 94 92  1  0
 96 95  1  0
M  ISO  4  10 101  11 101  58 100  59 100
M  END
>  <TORSDO>  (38) 
F 28

>  <SCORE>  (38) 
-9.661

>  <name>  (38) 
37

>  <ligand_id>  (38) 
37

>  <original_smiles>  (38) 
[H]c1c([H])c([H])c2c(c1[H])C([H])([H])C([H])([H])C([H])([H])C2([H])N([H])C(=O)C1([H])N(C(=O)C([H])(N([H])C(=O)C([H])(N([H])C([H])([H])[H])C([H])([H])[H])C(C([H])([H])[H])(C([H])([H])[H])C([H])([H])[H])C([H])([H])c2c([H])c(OC([H])([H])C([H])(C([H])([H])C([H])([H])[H])C([H])([H])C([H])(C([H])([H])C([H])([H])C([H])(C([H])([H])C([H])([H])C([H])([H])[H])C([H])(C(=O)N3C([H])([H])C([H])([H])C([H])([H])C([H])(n4nc(-c5c([H])c([H])c(Oc6c([H])c([H])c(F)c([H])c6F)c([H])c5[H])c(C(=O)N([H])[H])c4N([H])[H])C3([H])[H])C([H])([H])C([H])([H])[H])[N+]([H])([H])[H])c([H])c([H])c2C1([H])[H]

>  <smiles>  (38) 
[H]c1c([H])c([H])c2c(c1[H])C([H])([H])C([H])([H])C([H])([H])C2([H])N([H])C(=O)C1([H])N(C(=O)C([H])(N([H])C(=O)C([H])(N([H])C([H])([H])[H])C([H])([H])[H])C(C([H])([H])[H])(C([H])([H])[H])C([H])([H])[H])C([H])([H])c2c([H])c(OC([H])([H])C([H])(C([H])([H])C([H])([H])[H])C([H])([H])C([H])(C([H])([H])C([H])([H])C([H])(C([H])([H])C([H])([H])C([H])([H])[H])C([H])(C(=O)N3C([H])([H])C([H])([H])C([H])([H])C([H])(n4nc(-c5c([H])c([H])c(Oc6c([H])c([H])c(F)c([H])c6F)c([H])c5[H])c(C(=O)N([H])[H])c4N([H])[H])C3([H])[H])C([H])([H])C([H])([H])[H])[N+]([H])([H])[H])c([H])c([H])c2C1([H])[H]

$$$$
38:0:0
     RDKit          3D

 95102  0  0  1  0  0  0  0  0999 V2000
  -29.4940  -22.2780   20.2520 C   0  0  0  0  0  2  0  0  0  0  0  0
  -29.8890  -19.5620   20.7730 C   0  0  0  0  0  0  0  0  0  0  0  0
  -29.1800  -20.7120   20.3080 N   0  0  0  0  0  0  0  0  0  0  0  0
  -30.7190  -19.7290   21.6640 O   0  0  0  0  0  0  0  0  0  0  0  0
  -28.4850  -20.4440   19.6210 H   0  0  0  0  0  0  0  0  0  0  0  0
  -29.8150  -18.0180   20.1360 C   0  0  0  0  0  0  0  0  0  0  0  0
  -30.7180  -15.4330   20.6860 C   0  0  0  0  0  0  0  0  0  0  0  0
  -30.6910  -13.0490   19.8220 C   0  0  0  0  0  2  0  0  0  0  0  0
  -29.8620  -13.0030   18.5150 C   0  0  0  0  0  2  0  0  0  0  0  0
  -28.3740  -12.7700   18.8350 C   0  0  0  0  0  2  0  0  0  0  0  0
  -27.8760  -13.6950   19.9770 C   0  0  0  0  0  3  0  0  0  0  0  0
  -28.8430  -13.7340   21.1820 C   0  0  0  0  0  2  0  0  0  0  0  0
  -30.1530  -14.1540   20.6710 N   0  0  0  0  0  0  0  0  0  0  0  0
  -31.9140  -15.5120   20.3810 O   0  0  0  0  0  0  0  0  0  0  0  0
  -29.9270  -16.6050   20.8710 N   0  0  0  0  0  4  0  0  0  0  0  0
  -29.0630  -16.3820   21.3410 H   0  0  0  0  0  0  0  0  0  0  0  0
  -25.4510  -14.2610   20.5530 C   0  0  0  0  0  0  0  0  0  0  0  0
  -24.3680  -13.4830   20.8540 C   0  0  0  0  0  0  0  0  0  0  0  0
  -24.8390  -12.1330   20.8600 C   0  0  0  0  0  0  0  0  0  0  0  0
  -26.5110  -13.3850   20.3820 N   0  0  0  0  0  0  0  0  0  0  0  0
  -26.1480  -12.1000   20.6360 N   0  0  0  0  0  0  0  0  0  0  0  0
  -24.1050  -10.8720   21.0060 C   0  0  0  0  0  0  0  0  0  0  0  0
  -24.4680   -9.9180   21.9800 C   0  0  0  0  0  3  0  0  0  0  0  0
  -23.7390   -8.7170   22.1190 C   0  0  0  0  0  3  0  0  0  0  0  0
  -22.6290   -8.4630   21.2770 C   0  0  0  0  0  0  0  0  0  0  0  0
  -22.2830   -9.4040   20.2920 C   0  0  0  0  0  3  0  0  0  0  0  0
  -23.0150  -10.5960   20.1550 C   0  0  0  0  0  3  0  0  0  0  0  0
  -21.8760   -7.3150   21.3180 O   0  0  0  0  0  0  0  0  0  0  0  0
  -21.7270   -6.5940   22.4740 C   0  0  0  0  0  0  0  0  0  0  0  0
  -21.1720   -7.1630   23.6410 C   0  0  0  0  0  3  0  0  0  0  0  0
  -20.9700   -6.3640   24.7840 C   0  0  0  0  0  3  0  0  0  0  0  0
  -21.3110   -4.9980   24.7620 C   0  0  0  0  0  0  0  0  0  0  0  0
  -21.8600   -4.4300   23.5990 C   0  0  0  0  0  3  0  0  0  0  0  0
  -22.0640   -5.2250   22.4570 C   0  0  0  0  0  0  0  0  0  0  0  0
  -22.5700   -4.6650   21.3320 F   0  0  0  0  0  0  0  0  0  0  0  0
  -21.1140   -4.2310   25.8600 F   0  0  0  0  0  0  0  0  0  0  0  0
  -22.9530  -13.9560   21.0190 C   0  0  0  0  0  0  0  0  0  0  0  0
  -22.1710  -13.2690   21.8420 N   0  0  0  0  0  0  0  0  0  0  0  0
  -22.5460  -14.9720   20.4570 O   0  0  0  0  0  0  0  0  0  0  0  0
  -22.5140  -12.4510   22.3260 H   0  0  0  0  0  0  0  0  0  0  0  0
  -21.2170  -13.5660   21.9920 H   0  0  0  0  0  0  0  0  0  0  0  0
  -25.6150  -15.6330   20.3860 N   0  0  0  0  0  0  0  0  0  0  0  0
  -24.8250  -16.2690   20.4180 H   0  0  0  0  0  0  0  0  0  0  0  0
  -26.4710  -16.0700   20.0730 H   0  0  0  0  0  0  0  0  0  0  0  0
  -28.6860  -17.8850   19.0750 C   0  0  0  0  0  2  0  0  0  0  0  0
  -29.4140  -19.8480   17.6190 C   0  0  0  0  0  1  0  0  0  0  0  0
  -27.9020  -18.0730   16.6760 C   0  0  0  0  0  1  0  0  0  0  0  0
  -29.0590  -18.3530   17.6490 C   0  0  0  0  0  3  0  0  0  0  0  0
  -28.5920  -23.6230   20.8040 C   0  0  0  0  0  3  0  0  0  0  0  0
  -27.2300  -23.1710   21.1540 N   0  0  0  0  0  4  0  0  0  0  0  0
  -26.7260  -22.8620   20.3410 H   0  0  0  0  0  0  0  0  0  0  0  0
  -26.7130  -23.9170   21.5930 H   0  0  0  0  0  0  0  0  0  0  0  0
  -27.2740  -22.4030   21.8020 H   0  0  0  0  0  0  0  0  0  0  0  0
  -28.5100  -25.1350   20.0170 C   0  0  0  0  0  2  0  0  0  0  0  0
  -28.3910  -26.5940   20.5760 O   0  0  0  0  0  0  0  0  0  0  0  0
  -24.7020  -32.2440   23.4830 C   0  0  0  0  0  0  0  0  0  0  0  0
  -27.3070  -27.5410   20.4540 C   0  0  0  0  0  0  0  0  0  0  0  0
  -23.5100  -30.8460   21.8370 C   0  0  0  0  0  3  0  0  0  0  0  0
  -24.9670  -29.2700   20.4140 C   0  0  0  0  0  0  0  0  0  0  0  0
  -26.0630  -31.1200   21.6760 C   0  0  0  0  0  2  0  0  0  0  0  0
  -26.1390  -29.7290   21.0250 C   0  0  0  0  0  0  0  0  0  0  0  0
  -27.3060  -28.8780   21.0310 C   0  0  0  0  0  3  0  0  0  0  0  0
  -26.1080  -27.1810   19.8120 C   0  0  0  0  0  3  0  0  0  0  0  0
  -24.9600  -28.0090   19.7980 C   0  0  0  0  0  3  0  0  0  0  0  0
  -23.7350  -30.1600   20.4620 C   0  0  0  0  0  2  0  0  0  0  0  0
  -24.7780  -31.4260   22.3880 N   0  0  0  0  0  0  0  0  0  0  0  0
  -23.6130  -32.5290   24.0090 O   0  0  0  0  0  0  0  0  0  0  0  0
  -22.8290  -29.8390   22.8000 C   0  0  0  0  0  0  0  0  0  0  0  0
  -21.5100  -29.6290   22.6330 N   0  0  0  0  0  0  0  0  0  0  0  0
  -23.4940  -29.2540   23.6600 O   0  0  0  0  0  0  0  0  0  0  0  0
  -21.0320  -30.1600   21.9170 H   0  0  0  0  0  0  0  0  0  0  0  0
  -18.1640  -28.3010   23.0160 C   0  0  0  0  0  0  0  0  0  0  0  0
  -20.6920  -28.6820   23.3950 C   0  0  0  0  0  3  0  0  0  0  0  0
  -20.8820  -27.2370   22.8760 C   0  0  0  0  0  2  0  0  0  0  0  0
  -19.8460  -26.8340   21.8230 C   0  0  0  0  0  2  0  0  0  0  0  0
  -18.4290  -26.9400   22.3950 C   0  0  0  0  0  2  0  0  0  0  0  0
  -19.2270  -29.1250   23.4720 C   0  0  0  0  0  0  0  0  0  0  0  0
  -18.9260  -30.3910   24.0190 C   0  0  0  0  0  3  0  0  0  0  0  0
  -17.5940  -30.8380   24.1120 C   0  0  0  0  0  3  0  0  0  0  0  0
  -16.5430  -30.0140   23.6720 C   0  0  0  0  0  3  0  0  0  0  0  0
  -16.8310  -28.7470   23.1330 C   0  0  0  0  0  3  0  0  0  0  0  0
  -25.9740  -32.8850   24.1180 C   0  0  0  0  0  3  0  0  0  0  0  0
  -26.4470  -32.1560   25.4380 C   0  0  1  0  0  0  0  0  0  0  0  0
  -25.3210  -31.9610   26.4790 C   0  0  0  0  0  1  0  0  0  0  0  0
  -27.0310  -30.7610   25.1110 C   0  0  0  0  0  1  0  0  0  0  0  0
  -27.5850  -32.9630   26.1070 C   0  0  0  0  0  1  0  0  0  0  0  0
  -25.6780  -34.3000   24.3920 N   0  0  0  0  0  0  0  0  0  0  0  0
  -26.0610  -35.3260   23.6220 C   0  0  0  0  0  0  0  0  0  0  0  0
  -26.7610  -35.1820   22.6160 O   0  0  0  0  0  0  0  0  0  0  0  0
  -25.0640  -34.4860   25.1720 H   0  0  0  0  0  0  0  0  0  0  0  0
  -24.3830  -37.1450   23.1670 C   0  0  0  0  0  1  0  0  0  0  0  0
  -25.5910  -36.7370   24.0280 C   0  0  0  0  0  3  0  0  0  0  0  0
  -27.7140  -37.6010   24.9040 C   0  0  0  0  0  1  0  0  0  0  0  0
  -26.6490  -37.7640   23.9160 N   0  0  0  0  0  0  0  0  0  0  0  0
  -26.2540  -38.6920   24.0310 H   0  0  0  0  0  0  0  0  0  0  0  0
  1  3  1  0
  1 49  1  0
  2  4  2  0
  3  2  1  0
  5  3  1  0
  6  2  1  0
  6 15  2  3
  7 15  1  0
  8 13  1  0
  9 10  1  0
  9  8  1  0
 11 10  1  0
 11 20  1  0
 11 12  1  0
 13  7  1  0
 13 12  1  0
 14  7  2  0
 15 16  1  0
 17 18  2  0
 18 19  1  0
 18 37  1  0
 19 22  1  0
 20 17  1  0
 20 21  1  0
 21 19  2  0
 22 23  1  0
 23 24  2  0
 25 28  1  0
 25 24  1  0
 26 25  2  0
 27 26  1  0
 27 22  2  0
 28 29  1  0
 29 30  1  0
 30 31  2  0
 32 31  1  0
 32 36  1  0
 33 32  2  0
 34 29  2  0
 34 33  1  0
 35 34  1  0
 37 38  1  0
 38 41  1  0
 38 40  1  0
 39 37  2  0
 42 43  1  0
 42 17  1  0
 44 42  1  0
 45  6  1  0
 46 48  1  0
 47 48  1  0
 48 45  1  0
 49 54  1  0
 49 50  1  0
 50 52  1  0
 50 53  1  0
 51 50  1  0
 54 55  1  0
 56 67  2  0
 57 55  1  0
 57 62  1  0
 58 66  1  0
 58 68  1  0
 59 65  1  0
 59 61  1  0
 60 66  1  0
 61 62  2  0
 61 60  1  0
 63 57  2  0
 64 63  1  0
 64 59  2  0
 65 58  1  0
 66 56  1  0
 68 70  2  0
 69 68  1  0
 71 69  1  0
 72 81  2  0
 72 77  1  0
 73 69  1  0
 73 77  1  0
 74 73  1  0
 75 76  1  0
 75 74  1  0
 76 72  1  0
 77 78  2  0
 78 79  1  0
 80 79  2  0
 81 80  1  0
 82 56  1  0
 82 87  1  0
 82 83  1  0
 83 86  1  1
 83 84  1  0
 85 83  1  0
 87 90  1  0
 88 92  1  0
 88 87  1  0
 89 88  2  0
 92 91  1  0
 94 92  1  0
 94 95  1  0
 94 93  1  0
M  ISO  4   7 100  15 100  54 101  55 101
M  END
>  <TORSDO>  (39) 
F 23

>  <SCORE>  (39) 
-12.973

>  <name>  (39) 
38

>  <ligand_id>  (39) 
38

>  <original_smiles>  (39) 
[H]c1c([H])c([H])c2c(c1[H])C([H])([H])C([H])([H])C([H])([H])C2([H])N([H])C(=O)C1([H])N(C(=O)C([H])(N([H])C(=O)C([H])(N([H])C([H])([H])[H])C([H])([H])[H])C(C([H])([H])[H])(C([H])([H])[H])C([H])([H])[H])C([H])([H])c2c([H])c(OC([H])([H])C([H])(C([H])([H])N([H])C(=O)C([H])(N([H])C(=O)N3C([H])([H])C([H])([H])C([H])([H])C([H])(n4nc(-c5c([H])c([H])c(Oc6c([H])c([H])c(F)c([H])c6F)c([H])c5[H])c(C(=O)N([H])[H])c4N([H])[H])C3([H])[H])C([H])([H])C([H])(C([H])([H])[H])C([H])([H])[H])[N+]([H])([H])[H])c([H])c([H])c2C1([H])[H]

>  <smiles>  (39) 
[H]c1c([H])c([H])c2c(c1[H])C([H])([H])C([H])([H])C([H])([H])C2([H])N([H])C(=O)C1([H])N(C(=O)C([H])(N([H])C(=O)C([H])(N([H])C([H])([H])[H])C([H])([H])[H])C(C([H])([H])[H])(C([H])([H])[H])C([H])([H])[H])C([H])([H])c2c([H])c(OC([H])([H])C([H])(C([H])([H])N([H])C(=O)C([H])(N([H])C(=O)N3C([H])([H])C([H])([H])C([H])([H])C([H])(n4nc(-c5c([H])c([H])c(Oc6c([H])c([H])c(F)c([H])c6F)c([H])c5[H])c(C(=O)N([H])[H])c4N([H])[H])C3([H])[H])C([H])([H])C([H])(C([H])([H])[H])C([H])([H])[H])[N+]([H])([H])[H])c([H])c([H])c2C1([H])[H]

$$$$
39:0:0
     RDKit          3D

 97105  0  0  1  0  0  0  0  0999 V2000
  -30.0190  -19.2310   19.0620 C   0  0  0  0  0  3  0  0  0  0  0  0
  -29.1370  -20.4410   21.1480 C   0  0  0  0  0  2  0  0  0  0  0  0
  -27.6390  -19.0580   19.8220 C   0  0  0  0  0  2  0  0  0  0  0  0
  -28.3460  -21.7080   20.7370 C   0  0  0  0  0  2  0  0  0  0  0  0
  -26.8910  -20.3110   19.3330 C   0  0  0  0  0  2  0  0  0  0  0  0
  -26.1700  -22.5830   19.9590 C   0  0  0  0  0  1  0  0  0  0  0  0
  -29.0340  -19.3700   20.1470 N   0  0  0  0  0  0  0  0  0  0  0  0
  -26.9470  -21.3850   20.3540 N   0  0  2  0  0  4  0  0  0  0  0  0
  -26.5060  -21.0080   21.1790 H   0  0  0  0  0  0  0  0  0  0  0  0
  -30.4740  -20.6770   18.3180 C   0  0  0  0  0  2  0  0  0  0  0  0
  -29.4660  -21.8920   17.7500 C   0  0  0  0  0  2  0  0  0  0  0  0
  -29.8670  -23.5140   17.6230 C   0  0  0  0  0  2  0  0  0  0  0  0
  -28.7560  -24.7590   17.6120 C   0  0  0  0  0  2  0  0  0  0  0  0
  -28.9790  -26.2430   17.9860 O   0  0  0  0  0  0  0  0  0  0  0  0
  -25.5190  -29.9830   23.2880 C   0  0  0  0  0  0  0  0  0  0  0  0
  -27.8850  -27.0700   18.4100 C   0  0  0  0  0  0  0  0  0  0  0  0
  -24.1860  -29.2550   21.3480 C   0  0  0  0  0  3  0  0  0  0  0  0
  -25.5100  -28.4830   19.2900 C   0  0  0  0  0  0  0  0  0  0  0  0
  -26.6920  -29.7610   21.0690 C   0  0  0  0  0  2  0  0  0  0  0  0
  -26.7350  -28.7470   19.9170 C   0  0  0  0  0  0  0  0  0  0  0  0
  -27.9210  -28.0570   19.4710 C   0  0  0  0  0  3  0  0  0  0  0  0
  -26.6260  -26.9060   17.7920 C   0  0  0  0  0  3  0  0  0  0  0  0
  -25.4640  -27.5790   18.2200 C   0  0  0  0  0  3  0  0  0  0  0  0
  -24.2670  -29.1910   19.8010 C   0  0  0  0  0  2  0  0  0  0  0  0
  -25.4910  -29.6660   21.9580 N   0  0  0  0  0  0  0  0  0  0  0  0
  -24.4920  -29.9580   23.9820 O   0  0  0  0  0  0  0  0  0  0  0  0
  -23.6580  -27.9020   21.8870 C   0  0  0  0  0  0  0  0  0  0  0  0
  -22.3540  -27.6340   21.6920 N   0  0  0  0  0  0  0  0  0  0  0  0
  -24.4200  -27.1090   22.4450 O   0  0  0  0  0  0  0  0  0  0  0  0
  -21.7880  -28.3360   21.2350 H   0  0  0  0  0  0  0  0  0  0  0  0
  -19.1820  -25.8890   21.5620 C   0  0  0  0  0  0  0  0  0  0  0  0
  -21.6650  -26.4000   22.0770 C   0  0  0  0  0  3  0  0  0  0  0  0
  -21.9960  -25.2500   21.0960 C   0  0  0  0  0  2  0  0  0  0  0  0
  -20.9790  -25.1170   19.9580 C   0  0  0  0  0  2  0  0  0  0  0  0
  -19.5780  -24.8610   20.5150 C   0  0  0  0  0  2  0  0  0  0  0  0
  -20.1620  -26.6230   22.2830 C   0  0  0  0  0  0  0  0  0  0  0  0
  -19.7400  -27.5900   23.2210 C   0  0  0  0  0  3  0  0  0  0  0  0
  -18.3700  -27.8270   23.4450 C   0  0  0  0  0  3  0  0  0  0  0  0
  -17.4050  -27.0880   22.7380 C   0  0  0  0  0  3  0  0  0  0  0  0
  -17.8120  -26.1200   21.8030 C   0  0  0  0  0  3  0  0  0  0  0  0
  -26.8390  -30.4170   23.9970 C   0  0  0  0  0  3  0  0  0  0  0  0
  -26.5310  -31.5770   24.8470 N   0  0  0  0  0  0  0  0  0  0  0  0
  -26.8370  -32.8470   24.5500 C   0  0  0  0  0  0  0  0  0  0  0  0
  -27.4750  -33.1600   23.5410 O   0  0  0  0  0  0  0  0  0  0  0  0
  -25.9600  -31.4000   25.6620 H   0  0  0  0  0  0  0  0  0  0  0  0
  -25.1090  -34.6310   24.9550 C   0  0  0  0  0  1  0  0  0  0  0  0
  -26.3600  -33.9420   25.5220 C   0  0  0  0  0  3  0  0  0  0  0  0
  -28.5070  -34.4390   26.6090 C   0  0  0  0  0  1  0  0  0  0  0  0
  -27.3950  -34.9580   25.8180 N   0  0  0  0  0  0  0  0  0  0  0  0
  -26.9930  -35.7480   26.3150 H   0  0  0  0  0  0  0  0  0  0  0  0
  -27.4890  -29.2620   24.8540 C   0  0  1  0  0  0  0  0  0  0  0  0
  -26.5090  -28.5990   25.8500 C   0  0  0  0  0  1  0  0  0  0  0  0
  -28.0560  -28.1510   23.9420 C   0  0  0  0  0  1  0  0  0  0  0  0
  -28.6870  -29.8200   25.6600 C   0  0  0  0  0  1  0  0  0  0  0  0
  -31.1100  -18.1000   19.6400 C   0  0  0  0  0  3  0  0  0  0  0  0
  -31.3510  -15.7270   21.0030 C   0  0  0  0  0  0  0  0  0  0  0  0
  -31.3500  -13.2080   21.0120 C   0  0  0  0  0  2  0  0  0  0  0  0
  -30.7730  -12.6830   19.6790 C   0  0  0  0  0  2  0  0  0  0  0  0
  -29.2380  -12.5670   19.7620 C   0  0  0  0  0  2  0  0  0  0  0  0
  -28.5800  -13.8290   20.3780 C   0  0  0  0  0  3  0  0  0  0  0  0
  -29.3110  -14.3140   21.6480 C   0  0  0  0  0  2  0  0  0  0  0  0
  -30.7140  -14.5260   21.2790 N   0  0  0  0  0  0  0  0  0  0  0  0
  -32.5800  -15.7510   21.1070 O   0  0  0  0  0  0  0  0  0  0  0  0
  -30.6470  -16.7980   20.4030 N   0  0  0  0  0  0  0  0  0  0  0  0
  -29.6450  -16.6950   20.4290 H   0  0  0  0  0  0  0  0  0  0  0  0
  -26.1640  -14.6210   20.6690 C   0  0  0  0  0  0  0  0  0  0  0  0
  -24.9810  -13.9480   20.7990 C   0  0  0  0  0  0  0  0  0  0  0  0
  -25.3180  -12.5590   20.8090 C   0  0  0  0  0  0  0  0  0  0  0  0
  -27.1490  -13.6510   20.6000 N   0  0  0  0  0  0  0  0  0  0  0  0
  -26.6350  -12.4030   20.7520 N   0  0  0  0  0  0  0  0  0  0  0  0
  -24.4540  -11.3700   20.8060 C   0  0  0  0  0  0  0  0  0  0  0  0
  -24.6580  -10.3100   21.7160 C   0  0  0  0  0  3  0  0  0  0  0  0
  -23.8030   -9.1870   21.7110 C   0  0  0  0  0  3  0  0  0  0  0  0
  -22.7300   -9.1160   20.7910 C   0  0  0  0  0  0  0  0  0  0  0  0
  -22.5450  -10.1640   19.8730 C   0  0  0  0  0  3  0  0  0  0  0  0
  -23.3990  -11.2790   19.8760 C   0  0  0  0  0  3  0  0  0  0  0  0
  -21.8640   -8.0540   20.6960 O   0  0  0  0  0  0  0  0  0  0  0  0
  -21.6290   -7.2180   21.7570 C   0  0  0  0  0  0  0  0  0  0  0  0
  -21.1550   -7.7020   22.9960 C   0  0  0  0  0  3  0  0  0  0  0  0
  -20.8610   -6.8000   24.0380 C   0  0  0  0  0  3  0  0  0  0  0  0
  -21.0310   -5.4170   23.8430 C   0  0  0  0  0  0  0  0  0  0  0  0
  -21.4960   -4.9330   22.6060 C   0  0  0  0  0  3  0  0  0  0  0  0
  -21.7920   -5.8300   21.5670 C   0  0  0  0  0  0  0  0  0  0  0  0
  -22.2200   -5.3570   20.3720 F   0  0  0  0  0  0  0  0  0  0  0  0
  -20.7420   -4.5500   24.8400 F   0  0  0  0  0  0  0  0  0  0  0  0
  -23.6090  -14.5560   20.8080 C   0  0  0  0  0  0  0  0  0  0  0  0
  -22.6720  -13.9360   21.5170 N   0  0  0  0  0  0  0  0  0  0  0  0
  -23.3760  -15.6140   20.2280 O   0  0  0  0  0  0  0  0  0  0  0  0
  -22.8740  -13.0800   22.0100 H   0  0  0  0  0  0  0  0  0  0  0  0
  -21.7400  -14.3240   21.5650 H   0  0  0  0  0  0  0  0  0  0  0  0
  -26.4820  -15.9710   20.5680 N   0  0  0  0  0  0  0  0  0  0  0  0
  -25.7550  -16.6700   20.4790 H   0  0  0  0  0  0  0  0  0  0  0  0
  -27.3940  -16.2990   20.2780 H   0  0  0  0  0  0  0  0  0  0  0  0
  -31.9370  -17.7110   18.3790 C   0  0  0  0  0  2  0  0  0  0  0  0
  -34.2990  -18.1910   19.2530 C   0  0  0  0  0  1  0  0  0  0  0  0
  -33.9580  -16.8420   17.1500 C   0  0  0  0  0  1  0  0  0  0  0  0
  -33.3810  -17.1890   18.5330 C   0  0  0  0  0  3  0  0  0  0  0  0
  1 10  1  0
  1 55  1  0
  1  7  1  0
  3  7  1  0
  4  2  1  0
  5  3  1  0
  5  8  1  0
  6  8  1  0
  7  2  1  0
  8  4  1  0
  8  9  1  1
 11 10  1  0
 12 11  1  0
 13 12  1  0
 13 14  1  0
 14 16  1  0
 15 26  2  0
 16 21  1  0
 17 27  1  0
 17 25  1  0
 18 24  1  0
 18 20  1  0
 19 25  1  0
 20 19  1  0
 21 20  2  0
 22 23  1  0
 22 16  2  0
 23 18  2  0
 24 17  1  0
 25 15  1  0
 27 29  2  0
 28 27  1  0
 30 28  1  0
 31 40  2  0
 31 36  1  0
 32 28  1  0
 32 36  1  0
 33 32  1  0
 34 35  1  0
 34 33  1  0
 35 31  1  0
 36 37  2  0
 37 38  1  0
 39 38  2  0
 40 39  1  0
 41 15  1  0
 41 42  1  0
 41 51  1  0
 42 45  1  0
 43 42  1  0
 43 47  1  0
 44 43  2  0
 47 46  1  0
 47 49  1  0
 49 50  1  0
 49 48  1  0
 51 54  1  1
 51 52  1  0
 53 51  1  0
 55 94  1  0
 55 64  1  0
 56 63  2  0
 56 62  1  0
 57 62  1  0
 58 59  1  0
 58 57  1  0
 60 59  1  0
 60 69  1  0
 60 61  1  0
 62 61  1  0
 64 65  1  0
 64 56  1  0
 66 67  2  0
 67 86  1  0
 67 68  1  0
 69 66  1  0
 69 70  1  0
 70 68  2  0
 71 68  1  0
 71 72  1  0
 73 72  2  0
 74 73  1  0
 75 76  1  0
 75 74  2  0
 76 71  2  0
 77 74  1  0
 77 78  1  0
 78 79  1  0
 79 80  2  0
 81 80  1  0
 81 85  1  0
 82 81  2  0
 83 78  2  0
 83 82  1  0
 84 83  1  0
 86 87  1  0
 87 90  1  0
 87 89  1  0
 88 86  2  0
 91 66  1  0
 92 91  1  0
 93 91  1  0
 94 97  1  0
 96 97  1  0
 97 95  1  0
M  ISO  4  13 101  14 101  56 100  64 100
M  END
>  <TORSDO>  (40) 
F 24

>  <SCORE>  (40) 
-6.086

>  <name>  (40) 
39

>  <ligand_id>  (40) 
39

>  <original_smiles>  (40) 
[H]c1c([H])c([H])c2c(c1[H])C([H])([H])C([H])([H])C([H])([H])C2([H])N([H])C(=O)C1([H])N(C(=O)C([H])(N([H])C(=O)C([H])(N([H])C([H])([H])[H])C([H])([H])[H])C(C([H])([H])[H])(C([H])([H])[H])C([H])([H])[H])C([H])([H])c2c([H])c(OC([H])([H])C([H])([H])C([H])([H])C([H])([H])C([H])(N3C([H])([H])C([H])([H])[N+]([H])(C([H])([H])[H])C([H])([H])C3([H])[H])C([H])(N([H])C(=O)N3C([H])([H])C([H])([H])C([H])([H])C([H])(n4nc(-c5c([H])c([H])c(Oc6c([H])c([H])c(F)c([H])c6F)c([H])c5[H])c(C(=O)N([H])[H])c4N([H])[H])C3([H])[H])C([H])([H])C([H])(C([H])([H])[H])C([H])([H])[H])c([H])c([H])c2C1([H])[H]

>  <smiles>  (40) 
[H]c1c([H])c([H])c2c(c1[H])C([H])([H])C([H])([H])C([H])([H])C2([H])N([H])C(=O)C1([H])N(C(=O)C([H])(N([H])C(=O)C([H])(N([H])C([H])([H])[H])C([H])([H])[H])C(C([H])([H])[H])(C([H])([H])[H])C([H])([H])[H])C([H])([H])c2c([H])c(OC([H])([H])C([H])([H])C([H])([H])C([H])([H])C([H])(N3C([H])([H])C([H])([H])[N+]([H])(C([H])([H])[H])C([H])([H])C3([H])[H])C([H])(N([H])C(=O)N3C([H])([H])C([H])([H])C([H])([H])C([H])(n4nc(-c5c([H])c([H])c(Oc6c([H])c([H])c(F)c([H])c6F)c([H])c5[H])c(C(=O)N([H])[H])c4N([H])[H])C3([H])[H])C([H])([H])C([H])(C([H])([H])[H])C([H])([H])[H])c([H])c([H])c2C1([H])[H]

$$$$
40:0:0
     RDKit          3D

 95102  0  0  1  0  0  0  0  0999 V2000
  -28.3500  -23.3530   20.7040 C   0  0  0  0  0  3  0  0  0  0  0  0
  -26.8470  -23.0250   20.4900 C   0  0  0  0  0  2  0  0  0  0  0  0
  -26.1140  -21.6140   18.4680 C   0  0  0  0  0  1  0  0  0  0  0  0
  -26.9680  -23.9160   18.0850 C   0  0  0  0  0  1  0  0  0  0  0  0
  -24.7150  -23.5070   19.2620 C   0  0  0  0  0  1  0  0  0  0  0  0
  -26.1840  -23.0310   19.0770 C   0  0  2  0  0  0  0  0  0  0  0  0
  -28.6140  -25.0380   20.9210 C   0  0  0  0  0  2  0  0  0  0  0  0
  -28.3790  -26.3670   20.1520 O   0  0  0  0  0  0  0  0  0  0  0  0
  -24.6240  -31.9460   23.2670 C   0  0  0  0  0  0  0  0  0  0  0  0
  -27.2690  -27.2730   20.2640 C   0  0  0  0  0  0  0  0  0  0  0  0
  -23.4470  -30.5370   21.6180 C   0  0  0  0  0  3  0  0  0  0  0  0
  -24.9210  -28.9890   20.2060 C   0  0  0  0  0  0  0  0  0  0  0  0
  -25.9920  -30.8470   21.4580 C   0  0  0  0  0  2  0  0  0  0  0  0
  -26.0900  -29.4490   20.8250 C   0  0  0  0  0  0  0  0  0  0  0  0
  -27.2630  -28.6040   20.8410 C   0  0  0  0  0  3  0  0  0  0  0  0
  -26.0700  -26.9140   19.6080 C   0  0  0  0  0  3  0  0  0  0  0  0
  -24.9210  -27.7310   19.5910 C   0  0  0  0  0  3  0  0  0  0  0  0
  -23.6870  -29.8740   20.2360 C   0  0  0  0  0  2  0  0  0  0  0  0
  -24.7090  -31.1330   22.1720 N   0  0  0  0  0  0  0  0  0  0  0  0
  -23.5370  -32.2150   23.7990 O   0  0  0  0  0  0  0  0  0  0  0  0
  -22.7820  -29.5180   22.5760 C   0  0  0  0  0  0  0  0  0  0  0  0
  -21.4540  -29.3270   22.4500 N   0  0  0  0  0  0  0  0  0  0  0  0
  -23.4630  -28.9010   23.3990 O   0  0  0  0  0  0  0  0  0  0  0  0
  -20.9620  -29.8820   21.7650 H   0  0  0  0  0  0  0  0  0  0  0  0
  -18.0940  -28.0680   22.9400 C   0  0  0  0  0  0  0  0  0  0  0  0
  -20.6470  -28.3740   23.2180 C   0  0  0  0  0  3  0  0  0  0  0  0
  -20.7760  -26.9450   22.6410 C   0  0  0  0  0  2  0  0  0  0  0  0
  -19.6830  -26.6040   21.6240 C   0  0  0  0  0  2  0  0  0  0  0  0
  -18.2980  -26.7240   22.2640 C   0  0  0  0  0  2  0  0  0  0  0  0
  -19.1960  -28.8510   23.3750 C   0  0  0  0  0  0  0  0  0  0  0  0
  -18.9500  -30.1060   23.9710 C   0  0  0  0  0  3  0  0  0  0  0  0
  -17.6340  -30.5800   24.1360 C   0  0  0  0  0  3  0  0  0  0  0  0
  -16.5470  -29.7960   23.7150 C   0  0  0  0  0  3  0  0  0  0  0  0
  -16.7780  -28.5420   23.1230 C   0  0  0  0  0  3  0  0  0  0  0  0
  -25.8960  -32.5960   23.8940 C   0  0  0  0  0  3  0  0  0  0  0  0
  -25.5780  -34.0000   24.2000 N   0  0  0  0  0  0  0  0  0  0  0  0
  -25.9060  -35.0440   23.4290 C   0  0  0  0  0  0  0  0  0  0  0  0
  -26.5820  -34.9290   22.4020 O   0  0  0  0  0  0  0  0  0  0  0  0
  -24.9780  -34.1660   24.9950 H   0  0  0  0  0  0  0  0  0  0  0  0
  -24.1820  -36.8400   23.0440 C   0  0  0  0  0  1  0  0  0  0  0  0
  -25.4150  -36.4390   23.8690 C   0  0  0  0  0  3  0  0  0  0  0  0
  -27.5380  -37.3420   24.7140 C   0  0  0  0  0  1  0  0  0  0  0  0
  -26.4480  -37.4940   23.7540 N   0  0  0  0  0  0  0  0  0  0  0  0
  -26.0380  -38.4140   23.8880 H   0  0  0  0  0  0  0  0  0  0  0  0
  -26.3960  -31.8500   25.1900 C   0  0  1  0  0  0  0  0  0  0  0  0
  -25.2880  -31.6290   26.2460 C   0  0  0  0  0  1  0  0  0  0  0  0
  -26.9890  -30.4670   24.8290 C   0  0  0  0  0  1  0  0  0  0  0  0
  -27.5330  -32.6600   25.8580 C   0  0  0  0  0  1  0  0  0  0  0  0
  -29.4170  -22.0540   20.3760 C   0  0  0  0  0  3  0  0  0  0  0  0
  -31.7330  -23.2340   20.5700 C   0  0  0  0  0  1  0  0  0  0  0  0
  -30.7470  -22.2210   21.1690 C   0  0  0  0  0  2  0  0  0  0  0  0
  -28.9970  -20.4160   20.5690 C   0  0  0  0  0  3  0  0  0  0  0  0
  -29.8840  -19.0040   20.2070 C   0  0  0  0  0  3  0  0  0  0  0  0
  -30.5140  -15.0550   20.1050 C   0  0  0  0  0  0  0  0  0  0  0  0
  -30.4710  -12.6980   19.1420 C   0  0  0  0  0  2  0  0  0  0  0  0
  -29.4890  -12.6860   17.9380 C   0  0  0  0  0  2  0  0  0  0  0  0
  -28.0310  -12.4670   18.4060 C   0  0  0  0  0  2  0  0  0  0  0  0
  -27.6680  -13.3430   19.6360 C   0  0  0  0  0  3  0  0  0  0  0  0
  -28.7770  -13.2970   20.7170 C   0  0  0  0  0  2  0  0  0  0  0  0
  -30.0220  -13.7530   20.0870 N   0  0  0  0  0  0  0  0  0  0  0  0
  -31.6700  -15.2790   19.7130 O   0  0  0  0  0  0  0  0  0  0  0  0
  -29.1540  -17.5590   20.4120 C   0  0  0  0  0  0  0  0  0  0  0  0
  -29.4740  -16.1540   20.3980 N   0  0  0  0  0  0  0  0  0  0  0  0
  -27.8400  -17.7600   20.6670 N   0  0  0  0  0  4  0  0  0  0  0  0
  -28.6260  -15.7230   20.7090 H   0  0  0  0  0  0  0  0  0  0  0  0
  -27.5120  -18.7110   20.7410 H   0  0  0  0  0  0  0  0  0  0  0  0
  -27.1210  -17.0440   20.7380 H   0  0  0  0  0  0  0  0  0  0  0  0
  -25.3150  -13.9260   20.4860 C   0  0  0  0  0  0  0  0  0  0  0  0
  -24.2670  -13.1500   20.8910 C   0  0  0  0  0  0  0  0  0  0  0  0
  -24.7190  -11.7940   20.7960 C   0  0  0  0  0  0  0  0  0  0  0  0
  -26.3430  -13.0470   20.1730 N   0  0  0  0  0  0  0  0  0  0  0  0
  -25.9940  -11.7610   20.4210 N   0  0  0  0  0  0  0  0  0  0  0  0
  -23.9950  -10.5310   20.9850 C   0  0  0  0  0  0  0  0  0  0  0  0
  -24.4290   -9.5630   21.9180 C   0  0  0  0  0  3  0  0  0  0  0  0
  -23.7040   -8.3630   22.0940 C   0  0  0  0  0  3  0  0  0  0  0  0
  -22.5330   -8.1220   21.3390 C   0  0  0  0  0  0  0  0  0  0  0  0
  -22.1160   -9.0800   20.3960 C   0  0  0  0  0  3  0  0  0  0  0  0
  -22.8410  -10.2700   20.2180 C   0  0  0  0  0  3  0  0  0  0  0  0
  -21.7880   -6.9710   21.4230 O   0  0  0  0  0  0  0  0  0  0  0  0
  -21.6970   -6.2560   22.5890 C   0  0  0  0  0  0  0  0  0  0  0  0
  -21.1810   -6.8290   23.7740 C   0  0  0  0  0  3  0  0  0  0  0  0
  -21.0420   -6.0390   24.9320 C   0  0  0  0  0  3  0  0  0  0  0  0
  -21.4010   -4.6780   24.9040 C   0  0  0  0  0  0  0  0  0  0  0  0
  -21.9020   -4.1050   23.7230 C   0  0  0  0  0  3  0  0  0  0  0  0
  -22.0460   -4.8910   22.5680 C   0  0  0  0  0  0  0  0  0  0  0  0
  -22.5110   -4.3290   21.4250 F   0  0  0  0  0  0  0  0  0  0  0  0
  -21.2570   -3.9170   26.0140 F   0  0  0  0  0  0  0  0  0  0  0  0
  -22.8810  -13.6200   21.2370 C   0  0  0  0  0  0  0  0  0  0  0  0
  -22.1810  -12.9010   22.1020 N   0  0  0  0  0  0  0  0  0  0  0  0
  -22.4300  -14.6690   20.7720 O   0  0  0  0  0  0  0  0  0  0  0  0
  -22.5550  -12.0480   22.4980 H   0  0  0  0  0  0  0  0  0  0  0  0
  -21.2520  -13.2000   22.3710 H   0  0  0  0  0  0  0  0  0  0  0  0
  -25.4850  -15.3020   20.3130 N   0  0  0  0  0  0  0  0  0  0  0  0
  -24.6140  -15.8000   20.4670 H   0  0  0  0  0  0  0  0  0  0  0  0
  -25.8100  -15.5260   19.3790 H   0  0  0  0  0  0  0  0  0  0  0  0
  1  2  1  0
  1  7  1  0
  6  3  1  6
  4  6  1  0
  6  5  1  0
  6  2  1  0
  8 10  1  0
  8  7  1  0
  9 20  2  0
 10 15  1  0
 11 19  1  0
 11 21  1  0
 12 18  1  0
 12 14  1  0
 13 19  1  0
 14 15  2  0
 14 13  1  0
 16 10  2  0
 17 16  1  0
 17 12  2  0
 18 11  1  0
 19  9  1  0
 21 23  2  0
 22 21  1  0
 24 22  1  0
 25 34  2  0
 25 30  1  0
 26 22  1  0
 26 30  1  0
 27 26  1  0
 28 29  1  0
 28 27  1  0
 29 25  1  0
 30 31  2  0
 31 32  1  0
 33 32  2  0
 34 33  1  0
 35  9  1  0
 35 36  1  0
 35 45  1  0
 36 39  1  0
 37 41  1  0
 37 36  1  0
 38 37  2  0
 41 40  1  0
 43 41  1  0
 43 44  1  0
 43 42  1  0
 45 48  1  1
 45 46  1  0
 47 45  1  0
 49 52  1  0
 49  1  1  0
 49 51  1  0
 50 51  1  0
 53 62  1  0
 53 52  2  0
 54 63  1  0
 55 60  1  0
 56 57  1  0
 56 55  1  0
 58 57  1  0
 58 71  1  0
 58 59  1  0
 60 54  1  0
 60 59  1  0
 61 54  2  0
 62 64  2  0
 63 62  1  0
 63 65  1  0
 64 67  1  0
 64 66  1  0
 68 69  2  0
 69 88  1  0
 70 69  1  0
 70 73  1  0
 71 72  1  0
 71 68  1  0
 72 70  2  0
 73 74  1  0
 74 75  2  0
 76 79  1  0
 76 75  1  0
 77 76  2  0
 78 77  1  0
 78 73  2  0
 79 80  1  0
 80 81  1  0
 81 82  2  0
 83 82  1  0
 83 87  1  0
 84 83  2  0
 85 80  2  0
 85 84  1  0
 86 85  1  0
 88 89  1  0
 89 92  1  0
 89 91  1  0
 90 88  2  0
 93 94  1  0
 93 68  1  0
 95 93  1  0
M  ISO  4   7 101   8 101  54 100  63 100
M  END
>  <TORSDO>  (41) 
F 23

>  <SCORE>  (41) 
-15.354

>  <name>  (41) 
40

>  <ligand_id>  (41) 
40

>  <original_smiles>  (41) 
[H]c1c([H])c([H])c2c(c1[H])C([H])([H])C([H])([H])C([H])([H])C2([H])N([H])C(=O)C1([H])N(C(=O)C([H])(N([H])C(=O)C([H])(N([H])C([H])([H])[H])C([H])([H])[H])C(C([H])([H])[H])(C([H])([H])[H])C([H])([H])[H])C([H])([H])c2c([H])c(OC([H])([H])C([H])(C([H])([H])C(C([H])([H])[H])(C([H])([H])[H])C([H])([H])[H])C([H])(C([H])([H])C([H])([H])[H])C([H])([H])C([H])([H])C(N([H])C(=O)N3C([H])([H])C([H])([H])C([H])([H])C([H])(n4nc(-c5c([H])c([H])c(Oc6c([H])c([H])c(F)c([H])c6F)c([H])c5[H])c(C(=O)N([H])[H])c4N([H])[H])C3([H])[H])=[N+]([H])[H])c([H])c([H])c2C1([H])[H]

>  <smiles>  (41) 
[H]c1c([H])c([H])c2c(c1[H])C([H])([H])C([H])([H])C([H])([H])C2([H])N([H])C(=O)C1([H])N(C(=O)C([H])(N([H])C(=O)C([H])(N([H])C([H])([H])[H])C([H])([H])[H])C(C([H])([H])[H])(C([H])([H])[H])C([H])([H])[H])C([H])([H])c2c([H])c(OC([H])([H])C([H])(C([H])([H])C(C([H])([H])[H])(C([H])([H])[H])C([H])([H])[H])C([H])(C([H])([H])C([H])([H])[H])C([H])([H])C([H])([H])C(N([H])C(=O)N3C([H])([H])C([H])([H])C([H])([H])C([H])(n4nc(-c5c([H])c([H])c(Oc6c([H])c([H])c(F)c([H])c6F)c([H])c5[H])c(C(=O)N([H])[H])c4N([H])[H])C3([H])[H])=[N+]([H])[H])c([H])c([H])c2C1([H])[H]

$$$$
41:0:0
     RDKit          3D

 83 89  0  0  1  0  0  0  0  0999 V2000
  -28.3100  -22.3500   20.5520 C   0  0  0  0  0  0  0  0  0  0  0  0
  -28.0160  -23.8940   20.6320 C   0  0  0  0  0  0  0  0  0  0  0  0
  -28.1990  -25.4560   20.2130 O   0  0  0  0  0  0  0  0  0  0  0  0
  -24.6690  -31.8540   23.1400 C   0  0  0  0  0  0  0  0  0  0  0  0
  -27.2370  -26.6980   20.2510 C   0  0  0  0  0  0  0  0  0  0  0  0
  -23.5060  -30.4360   21.5050 C   0  0  0  0  0  3  0  0  0  0  0  0
  -24.9740  -28.7640   20.1410 C   0  0  0  0  0  0  0  0  0  0  0  0
  -26.0890  -30.5640   21.4230 C   0  0  0  0  0  2  0  0  0  0  0  0
  -26.1630  -29.1170   20.7900 C   0  0  0  0  0  0  0  0  0  0  0  0
  -27.2800  -28.1140   20.8090 C   0  0  0  0  0  3  0  0  0  0  0  0
  -26.0110  -26.5740   19.5440 C   0  0  0  0  0  3  0  0  0  0  0  0
  -24.9390  -27.5170   19.4940 C   0  0  0  0  0  3  0  0  0  0  0  0
  -23.7690  -29.7210   20.1500 C   0  0  0  0  0  2  0  0  0  0  0  0
  -24.7790  -30.9870   22.0750 N   0  0  0  0  0  0  0  0  0  0  0  0
  -23.5670  -32.1600   23.6300 O   0  0  0  0  0  0  0  0  0  0  0  0
  -22.7730  -29.4720   22.4790 C   0  0  0  0  0  0  0  0  0  0  0  0
  -21.4370  -29.3460   22.3630 N   0  0  0  0  0  0  0  0  0  0  0  0
  -23.4210  -28.8330   23.3120 O   0  0  0  0  0  0  0  0  0  0  0  0
  -20.9640  -29.9110   21.6710 H   0  0  0  0  0  0  0  0  0  0  0  0
  -18.0260  -28.2120   22.9150 C   0  0  0  0  0  0  0  0  0  0  0  0
  -20.5970  -28.4230   23.1380 C   0  0  0  0  0  3  0  0  0  0  0  0
  -20.6560  -26.9930   22.5510 C   0  0  0  0  0  2  0  0  0  0  0  0
  -19.5320  -26.7050   21.5510 C   0  0  0  0  0  2  0  0  0  0  0  0
  -18.1640  -26.8700   22.2180 C   0  0  0  0  0  2  0  0  0  0  0  0
  -19.1680  -28.9490   23.3330 C   0  0  0  0  0  0  0  0  0  0  0  0
  -18.9810  -30.2030   23.9530 C   0  0  0  0  0  3  0  0  0  0  0  0
  -17.6880  -30.7230   24.1540 C   0  0  0  0  0  3  0  0  0  0  0  0
  -16.5630  -29.9850   23.7480 C   0  0  0  0  0  3  0  0  0  0  0  0
  -16.7330  -28.7320   23.1360 C   0  0  0  0  0  3  0  0  0  0  0  0
  -25.9200  -32.5160   23.7920 C   0  0  0  0  0  3  0  0  0  0  0  0
  -25.5830  -33.9150   24.1240 N   0  0  0  0  0  0  0  0  0  0  0  0
  -25.9200  -34.9870   23.3950 C   0  0  0  0  0  0  0  0  0  0  0  0
  -26.6050  -34.9030   22.3720 O   0  0  0  0  0  0  0  0  0  0  0  0
  -24.9740  -34.0520   24.9170 H   0  0  0  0  0  0  0  0  0  0  0  0
  -24.1930  -36.7910   23.0560 C   0  0  0  0  0  1  0  0  0  0  0  0
  -25.4260  -36.3700   23.8720 C   0  0  0  0  0  3  0  0  0  0  0  0
  -27.5480  -37.2540   24.7400 C   0  0  0  0  0  1  0  0  0  0  0  0
  -26.4570  -37.4290   23.7860 N   0  0  0  0  0  0  0  0  0  0  0  0
  -26.0450  -38.3460   23.9400 H   0  0  0  0  0  0  0  0  0  0  0  0
  -26.4100  -31.7620   25.0910 C   0  0  1  0  0  0  0  0  0  0  0  0
  -25.2960  -31.5350   26.1390 C   0  0  0  0  0  1  0  0  0  0  0  0
  -27.0070  -30.3810   24.7430 C   0  0  0  0  0  1  0  0  0  0  0  0
  -27.5440  -32.5700   25.7680 C   0  0  0  0  0  1  0  0  0  0  0  0
  -29.0140  -20.7160   19.9260 C   0  0  0  0  0  1  0  0  0  0  0  0
  -29.5320  -18.9180   20.5730 C   0  0  0  0  0  1  0  0  0  0  0  0
  -30.2640  -15.7620   20.1750 C   0  0  0  0  0  0  0  0  0  0  0  0
  -30.3840  -13.2130   19.3160 C   0  0  0  0  0  2  0  0  0  0  0  0
  -29.4800  -12.7560   18.1340 C   0  0  0  0  0  2  0  0  0  0  0  0
  -28.0730  -12.3800   18.6190 C   0  0  0  0  0  2  0  0  0  0  0  0
  -27.5620  -13.3820   19.6770 C   0  0  0  0  0  3  0  0  0  0  0  0
  -28.6090  -13.7320   20.7620 C   0  0  0  0  0  2  0  0  0  0  0  0
  -29.7430  -14.3910   20.0660 N   0  0  0  0  0  0  0  0  0  0  0  0
  -31.5060  -15.6810   20.0830 O   0  0  0  0  0  0  0  0  0  0  0  0
  -29.5030  -17.1460   20.1910 N   0  0  0  0  0  0  0  0  0  0  0  0
  -28.5330  -16.8990   20.0480 H   0  0  0  0  0  0  0  0  0  0  0  0
  -25.2110  -13.8880   20.4880 C   0  0  0  0  0  0  0  0  0  0  0  0
  -24.1640  -13.0980   20.8670 C   0  0  0  0  0  0  0  0  0  0  0  0
  -24.6470  -11.7530   20.8230 C   0  0  0  0  0  0  0  0  0  0  0  0
  -26.2600  -13.0280   20.2230 N   0  0  0  0  0  0  0  0  0  0  0  0
  -25.9370  -11.7350   20.4930 N   0  0  0  0  0  0  0  0  0  0  0  0
  -23.9320  -10.4830   21.0160 C   0  0  0  0  0  0  0  0  0  0  0  0
  -24.3760   -9.5170   21.9460 C   0  0  0  0  0  3  0  0  0  0  0  0
  -23.6550   -8.3180   22.1300 C   0  0  0  0  0  3  0  0  0  0  0  0
  -22.4780   -8.0730   21.3840 C   0  0  0  0  0  0  0  0  0  0  0  0
  -22.0540   -9.0270   20.4420 C   0  0  0  0  0  3  0  0  0  0  0  0
  -22.7750  -10.2190   20.2570 C   0  0  0  0  0  3  0  0  0  0  0  0
  -21.7300   -6.9240   21.4780 O   0  0  0  0  0  0  0  0  0  0  0  0
  -21.6890   -6.1830   22.6320 C   0  0  0  0  0  0  0  0  0  0  0  0
  -21.2610   -6.7370   23.8580 C   0  0  0  0  0  3  0  0  0  0  0  0
  -21.1680   -5.9220   25.0040 C   0  0  0  0  0  3  0  0  0  0  0  0
  -21.4930   -4.5550   24.9250 C   0  0  0  0  0  0  0  0  0  0  0  0
  -21.9150   -4.0010   23.7030 C   0  0  0  0  0  3  0  0  0  0  0  0
  -22.0090   -4.8130   22.5600 C   0  0  0  0  0  0  0  0  0  0  0  0
  -22.3960   -4.2680   21.3810 F   0  0  0  0  0  0  0  0  0  0  0  0
  -21.3980   -3.7700   26.0230 F   0  0  0  0  0  0  0  0  0  0  0  0
  -22.7660  -13.5610   21.1470 C   0  0  0  0  0  0  0  0  0  0  0  0
  -22.0510  -12.8570   22.0170 N   0  0  0  0  0  0  0  0  0  0  0  0
  -22.3180  -14.5850   20.6330 O   0  0  0  0  0  0  0  0  0  0  0  0
  -22.4280  -12.0290   22.4550 H   0  0  0  0  0  0  0  0  0  0  0  0
  -21.1120  -13.1500   22.2490 H   0  0  0  0  0  0  0  0  0  0  0  0
  -25.3550  -15.2620   20.3120 N   0  0  0  0  0  0  0  0  0  0  0  0
  -24.5790  -15.9040   20.4350 H   0  0  0  0  0  0  0  0  0  0  0  0
  -26.1870  -15.7100   19.9550 H   0  0  0  0  0  0  0  0  0  0  0  0
  1  2  3  0
  3  5  1  0
  3  2  1  0
  4 15  2  0
  5 10  1  0
  6 14  1  0
  6 16  1  0
  7 13  1  0
  7  9  1  0
  8 14  1  0
  9 10  2  0
  9  8  1  0
 11  5  2  0
 12 11  1  0
 12  7  2  0
 13  6  1  0
 14  4  1  0
 16 18  2  0
 17 16  1  0
 19 17  1  0
 20 29  2  0
 20 25  1  0
 21 17  1  0
 21 25  1  0
 22 21  1  0
 23 24  1  0
 23 22  1  0
 24 20  1  0
 25 26  2  0
 26 27  1  0
 28 27  2  0
 29 28  1  0
 30  4  1  0
 30 31  1  0
 30 40  1  0
 31 34  1  0
 32 36  1  0
 32 31  1  0
 33 32  2  0
 36 35  1  0
 38 36  1  0
 38 39  1  0
 38 37  1  0
 40 43  1  1
 40 41  1  0
 42 40  1  0
 44  1  1  0
 46 54  1  0
 47 52  1  0
 48 49  1  0
 48 47  1  0
 50 49  1  0
 50 59  1  0
 50 51  1  0
 52 46  1  0
 52 51  1  0
 53 46  2  0
 54 45  1  0
 55 54  1  0
 56 57  2  0
 57 76  1  0
 58 57  1  0
 58 61  1  0
 59 56  1  0
 59 60  1  0
 60 58  2  0
 61 62  1  0
 62 63  2  0
 64 67  1  0
 64 63  1  0
 65 64  2  0
 66 65  1  0
 66 61  2  0
 67 68  1  0
 68 69  1  0
 69 70  2  0
 71 70  1  0
 71 75  1  0
 72 71  2  0
 73 68  2  0
 73 72  1  0
 74 73  1  0
 76 77  1  0
 77 80  1  0
 77 79  1  0
 78 76  2  0
 81 82  1  0
 81 56  1  0
 83 81  1  0
M  ISO  4   2 101   3 101  46 100  54 100
M  END
>  <TORSDO>  (42) 
F 18

>  <SCORE>  (42) 
-15.456

>  <name>  (42) 
41

>  <ligand_id>  (42) 
41

>  <original_smiles>  (42) 
[H]C(Oc1c([H])c([H])c2c(c1[H])C([H])([H])N(C(=O)C([H])(N([H])C(=O)C([H])(N([H])C([H])([H])[H])C([H])([H])[H])C(C([H])([H])[H])(C([H])([H])[H])C([H])([H])[H])C([H])(C(=O)N([H])C1([H])c3c([H])c([H])c([H])c([H])c3C([H])([H])C([H])([H])C1([H])[H])C2([H])[H])=C([H])C([H])([H])C([H])([H])N([H])C(=O)N1C([H])([H])C([H])([H])C([H])([H])C([H])(n2nc(-c3c([H])c([H])c(Oc4c([H])c([H])c(F)c([H])c4F)c([H])c3[H])c(C(=O)N([H])[H])c2N([H])[H])C1([H])[H]

>  <smiles>  (42) 
[H]C(Oc1c([H])c([H])c2c(c1[H])C([H])([H])N(C(=O)C([H])(N([H])C(=O)C([H])(N([H])C([H])([H])[H])C([H])([H])[H])C(C([H])([H])[H])(C([H])([H])[H])C([H])([H])[H])C([H])(C(=O)N([H])C1([H])c3c([H])c([H])c([H])c([H])c3C([H])([H])C([H])([H])C1([H])[H])C2([H])[H])=C([H])C([H])([H])C([H])([H])N([H])C(=O)N1C([H])([H])C([H])([H])C([H])([H])C([H])(n2nc(-c3c([H])c([H])c(Oc4c([H])c([H])c(F)c([H])c4F)c([H])c3[H])c(C(=O)N([H])[H])c2N([H])[H])C1([H])[H]

$$$$
42:0:0
     RDKit          3D

 88 96  0  0  1  0  0  0  0  0999 V2000
  -29.1620  -21.2640   20.5860 N   0  0  0  0  0  4  0  0  0  0  0  0
  -30.1600  -21.4120   20.5670 H   0  0  0  0  0  0  0  0  0  0  0  0
  -28.9250  -21.2880   21.5670 H   0  0  0  0  0  0  0  0  0  0  0  0
  -30.4480  -15.3510   20.2990 C   0  0  0  0  0  0  0  0  0  0  0  0
  -30.4460  -12.8980   19.4410 C   0  0  0  0  0  2  0  0  0  0  0  0
  -29.5490  -12.6860   18.1990 C   0  0  0  0  0  2  0  0  0  0  0  0
  -28.0890  -12.4190   18.6120 C   0  0  0  0  0  2  0  0  0  0  0  0
  -27.6140  -13.3650   19.7480 C   0  0  0  0  0  3  0  0  0  0  0  0
  -28.6540  -13.5340   20.8740 C   0  0  0  0  0  2  0  0  0  0  0  0
  -29.8760  -14.0470   20.2330 N   0  0  0  0  0  0  0  0  0  0  0  0
  -31.6870  -15.3270   20.2460 O   0  0  0  0  0  0  0  0  0  0  0  0
  -28.2950  -17.9760   18.3820 C   0  0  0  0  0  2  0  0  0  0  0  0
  -28.8070  -19.4210   18.6550 C   0  0  0  0  0  2  0  0  0  0  0  0
  -29.2560  -16.7900   18.7210 C   0  0  0  0  0  2  0  0  0  0  0  0
  -29.9070  -18.2070   20.6400 C   0  0  0  0  0  2  0  0  0  0  0  0
  -28.9730  -19.6490   20.1610 C   0  0  0  0  0  3  0  0  0  0  0  0
  -29.7060  -16.6410   20.1300 N   0  0  0  0  0  0  0  0  0  0  0  0
  -25.2340  -13.9050   20.4830 C   0  0  0  0  0  0  0  0  0  0  0  0
  -24.1740  -13.1200   20.8410 C   0  0  0  0  0  0  0  0  0  0  0  0
  -24.6560  -11.7720   20.8230 C   0  0  0  0  0  0  0  0  0  0  0  0
  -26.2880  -13.0370   20.2510 N   0  0  0  0  0  0  0  0  0  0  0  0
  -25.9520  -11.7510   20.5280 N   0  0  0  0  0  0  0  0  0  0  0  0
  -23.9400  -10.5030   21.0050 C   0  0  0  0  0  0  0  0  0  0  0  0
  -24.3540   -9.5530   21.9640 C   0  0  0  0  0  3  0  0  0  0  0  0
  -23.6330   -8.3510   22.1380 C   0  0  0  0  0  3  0  0  0  0  0  0
  -22.4860   -8.0910   21.3530 C   0  0  0  0  0  0  0  0  0  0  0  0
  -22.0930   -9.0290   20.3820 C   0  0  0  0  0  3  0  0  0  0  0  0
  -22.8140  -10.2230   20.2060 C   0  0  0  0  0  3  0  0  0  0  0  0
  -21.7410   -6.9390   21.4320 O   0  0  0  0  0  0  0  0  0  0  0  0
  -21.6490   -6.2190   22.5970 C   0  0  0  0  0  0  0  0  0  0  0  0
  -21.1360   -6.7880   23.7850 C   0  0  0  0  0  3  0  0  0  0  0  0
  -20.9940   -5.9950   24.9410 C   0  0  0  0  0  3  0  0  0  0  0  0
  -21.3510   -4.6330   24.9110 C   0  0  0  0  0  0  0  0  0  0  0  0
  -21.8570   -4.0650   23.7280 C   0  0  0  0  0  3  0  0  0  0  0  0
  -22.0020   -4.8560   22.5740 C   0  0  0  0  0  0  0  0  0  0  0  0
  -22.4670   -4.2970   21.4310 F   0  0  0  0  0  0  0  0  0  0  0  0
  -21.2100   -3.8700   26.0190 F   0  0  0  0  0  0  0  0  0  0  0  0
  -22.7680  -13.5820   21.0810 C   0  0  0  0  0  0  0  0  0  0  0  0
  -22.0250  -12.8800   21.9290 N   0  0  0  0  0  0  0  0  0  0  0  0
  -22.3330  -14.6030   20.5500 O   0  0  0  0  0  0  0  0  0  0  0  0
  -22.3890  -12.0610   22.3950 H   0  0  0  0  0  0  0  0  0  0  0  0
  -21.0760  -13.1690   22.1180 H   0  0  0  0  0  0  0  0  0  0  0  0
  -25.3900  -15.2780   20.3050 N   0  0  0  0  0  0  0  0  0  0  0  0
  -24.6230  -15.9330   20.4170 H   0  0  0  0  0  0  0  0  0  0  0  0
  -26.2520  -15.7230   20.0200 H   0  0  0  0  0  0  0  0  0  0  0  0
  -28.5360  -22.6850   19.9460 C   0  0  0  0  0  2  0  0  0  0  0  0
  -28.1800  -24.3050   20.6860 C   0  0  0  0  0  2  0  0  0  0  0  0
  -28.2430  -25.9170   20.2810 O   0  0  0  0  0  0  0  0  0  0  0  0
  -24.5930  -31.8860   23.2450 C   0  0  0  0  0  0  0  0  0  0  0  0
  -27.1970  -26.9850   20.3040 C   0  0  0  0  0  0  0  0  0  0  0  0
  -23.4210  -30.4710   21.6040 C   0  0  0  0  0  3  0  0  0  0  0  0
  -24.8870  -28.8540   20.2190 C   0  0  0  0  0  0  0  0  0  0  0  0
  -25.9850  -30.6900   21.4820 C   0  0  0  0  0  2  0  0  0  0  0  0
  -26.0680  -29.2720   20.8450 C   0  0  0  0  0  0  0  0  0  0  0  0
  -27.2180  -28.3600   20.8590 C   0  0  0  0  0  3  0  0  0  0  0  0
  -25.9800  -26.7140   19.6400 C   0  0  0  0  0  3  0  0  0  0  0  0
  -24.8660  -27.5950   19.5970 C   0  0  0  0  0  3  0  0  0  0  0  0
  -23.6670  -29.7740   20.2380 C   0  0  0  0  0  2  0  0  0  0  0  0
  -24.6870  -31.0450   22.1640 N   0  0  0  0  0  0  0  0  0  0  0  0
  -23.4980  -32.1750   23.7560 O   0  0  0  0  0  0  0  0  0  0  0  0
  -22.7230  -29.4840   22.5740 C   0  0  0  0  0  0  0  0  0  0  0  0
  -21.3930  -29.3110   22.4400 N   0  0  0  0  0  0  0  0  0  0  0  0
  -23.3820  -28.8700   23.4180 O   0  0  0  0  0  0  0  0  0  0  0  0
  -20.9130  -29.8560   21.7350 H   0  0  0  0  0  0  0  0  0  0  0  0
  -18.0150  -28.0810   22.9280 C   0  0  0  0  0  0  0  0  0  0  0  0
  -20.5700  -28.3750   23.2120 C   0  0  0  0  0  3  0  0  0  0  0  0
  -20.6900  -26.9380   22.6530 C   0  0  0  0  0  2  0  0  0  0  0  0
  -19.5990  -26.5940   21.6330 C   0  0  0  0  0  2  0  0  0  0  0  0
  -18.2110  -26.7280   22.2640 C   0  0  0  0  0  2  0  0  0  0  0  0
  -19.1210  -28.8590   23.3610 C   0  0  0  0  0  0  0  0  0  0  0  0
  -18.8800  -30.1210   23.9460 C   0  0  0  0  0  3  0  0  0  0  0  0
  -17.5670  -30.6030   24.1050 C   0  0  0  0  0  3  0  0  0  0  0  0
  -16.4760  -29.8220   23.6870 C   0  0  0  0  0  3  0  0  0  0  0  0
  -16.7010  -28.5620   23.1030 C   0  0  0  0  0  3  0  0  0  0  0  0
  -25.8570  -32.5420   23.8820 C   0  0  0  0  0  3  0  0  0  0  0  0
  -25.5350  -33.9480   24.1860 N   0  0  0  0  0  0  0  0  0  0  0  0
  -25.8850  -34.9980   23.4280 C   0  0  0  0  0  0  0  0  0  0  0  0
  -26.5740  -34.8820   22.4120 O   0  0  0  0  0  0  0  0  0  0  0  0
  -24.9230  -34.1080   24.9730 H   0  0  0  0  0  0  0  0  0  0  0  0
  -24.1790  -36.8060   23.0240 C   0  0  0  0  0  1  0  0  0  0  0  0
  -25.3970  -36.3940   23.8670 C   0  0  0  0  0  3  0  0  0  0  0  0
  -27.5140  -37.2770   24.7460 C   0  0  0  0  0  1  0  0  0  0  0  0
  -26.4380  -37.4410   23.7730 N   0  0  0  0  0  0  0  0  0  0  0  0
  -26.0310  -38.3630   23.9010 H   0  0  0  0  0  0  0  0  0  0  0  0
  -26.3420  -31.8020   25.1920 C   0  0  1  0  0  0  0  0  0  0  0  0
  -25.2270  -31.5960   26.2430 C   0  0  0  0  0  1  0  0  0  0  0  0
  -26.9300  -30.4120   24.8590 C   0  0  0  0  0  1  0  0  0  0  0  0
  -27.4820  -32.6100   25.8550 C   0  0  0  0  0  1  0  0  0  0  0  0
  1  3  1  0
  2  1  1  0
  5 10  1  0
  6  7  1  0
  6  5  1  0
  8  7  1  0
  8 21  1  0
  8  9  1  0
 10  4  1  0
 10  9  1  0
 11  4  2  0
 12 13  1  0
 12 14  1  0
 13 16  1  0
 14 17  1  0
 16  1  1  0
 16 15  1  0
 17  4  1  0
 17 15  1  0
 18 19  2  0
 19 38  1  0
 20 19  1  0
 20 23  1  0
 21 18  1  0
 21 22  1  0
 22 20  2  0
 23 24  1  0
 24 25  2  0
 26 29  1  0
 26 25  1  0
 27 26  2  0
 28 27  1  0
 28 23  2  0
 29 30  1  0
 30 31  1  0
 31 32  2  0
 33 32  1  0
 33 37  1  0
 34 33  2  0
 35 30  2  0
 35 34  1  0
 36 35  1  0
 38 39  1  0
 39 42  1  0
 39 41  1  0
 40 38  2  0
 43 44  1  0
 43 18  1  0
 45 43  1  0
 46  1  1  0
 46 47  1  0
 48 50  1  0
 48 47  1  0
 49 60  2  0
 50 55  1  0
 51 59  1  0
 51 61  1  0
 52 58  1  0
 52 54  1  0
 53 59  1  0
 54 55  2  0
 54 53  1  0
 56 50  2  0
 57 56  1  0
 57 52  2  0
 58 51  1  0
 59 49  1  0
 61 63  2  0
 62 61  1  0
 64 62  1  0
 65 74  2  0
 65 70  1  0
 66 62  1  0
 66 70  1  0
 67 66  1  0
 68 69  1  0
 68 67  1  0
 69 65  1  0
 70 71  2  0
 71 72  1  0
 73 72  2  0
 74 73  1  0
 75 49  1  0
 75 76  1  0
 75 85  1  0
 76 79  1  0
 77 81  1  0
 77 76  1  0
 78 77  2  0
 81 80  1  0
 83 81  1  0
 83 84  1  0
 83 82  1  0
 85 88  1  1
 85 86  1  0
 87 85  1  0
M  ISO  4   4 100  17 100  47 101  48 101
M  END
>  <TORSDO>  (43) 
F 18

>  <SCORE>  (43) 
-16.560

>  <name>  (43) 
42

>  <ligand_id>  (43) 
42

>  <original_smiles>  (43) 
[H]c1c([H])c([H])c2c(c1[H])C([H])([H])C([H])([H])C([H])([H])C2([H])N([H])C(=O)C1([H])N(C(=O)C([H])(N([H])C(=O)C([H])(N([H])C([H])([H])[H])C([H])([H])[H])C(C([H])([H])[H])(C([H])([H])[H])C([H])([H])[H])C([H])([H])c2c([H])c(OC([H])([H])C([H])([H])[N+]([H])([H])C3([H])C([H])([H])N(C(=O)N4C([H])([H])C([H])([H])C([H])([H])C([H])(n5nc(-c6c([H])c([H])c(Oc7c([H])c([H])c(F)c([H])c7F)c([H])c6[H])c(C(=O)N([H])[H])c5N([H])[H])C4([H])[H])C([H])([H])C([H])([H])C3([H])[H])c([H])c([H])c2C1([H])[H]

>  <smiles>  (43) 
[H]c1c([H])c([H])c2c(c1[H])C([H])([H])C([H])([H])C([H])([H])C2([H])N([H])C(=O)C1([H])N(C(=O)C([H])(N([H])C(=O)C([H])(N([H])C([H])([H])[H])C([H])([H])[H])C(C([H])([H])[H])(C([H])([H])[H])C([H])([H])[H])C([H])([H])c2c([H])c(OC([H])([H])C([H])([H])[N+]([H])([H])C3([H])C([H])([H])N(C(=O)N4C([H])([H])C([H])([H])C([H])([H])C([H])(n5nc(-c6c([H])c([H])c(Oc7c([H])c([H])c(F)c([H])c7F)c([H])c6[H])c(C(=O)N([H])[H])c5N([H])[H])C4([H])[H])C([H])([H])C([H])([H])C3([H])[H])c([H])c([H])c2C1([H])[H]

$$$$
43:0:0
     RDKit          3D

 96103  0  0  1  0  0  0  0  0999 V2000
  -29.0740  -20.3560   19.7470 C   0  0  0  0  0  3  0  0  0  0  0  0
  -26.6520  -19.6760   19.1980 C   0  0  0  0  0  1  0  0  0  0  0  0
  -27.6890  -19.9420   20.2960 C   0  0  0  0  0  2  0  0  0  0  0  0
  -30.1300  -19.0730   20.0750 C   0  0  0  0  0  3  0  0  0  0  0  0
  -29.8010  -17.4580   19.7080 C   0  0  0  0  0  2  0  0  0  0  0  0
  -31.0400  -15.0050   20.0390 C   0  0  0  0  0  0  0  0  0  0  0  0
  -30.8850  -12.6250   19.1870 C   0  0  0  0  0  2  0  0  0  0  0  0
  -29.9240  -12.5550   17.9760 C   0  0  0  0  0  2  0  0  0  0  0  0
  -28.4690  -12.3750   18.4480 C   0  0  0  0  0  2  0  0  0  0  0  0
  -28.0990  -13.3410   19.6040 C   0  0  0  0  0  3  0  0  0  0  0  0
  -29.1790  -13.3600   20.7060 C   0  0  0  0  0  2  0  0  0  0  0  0
  -30.4450  -13.7450   20.0660 N   0  0  0  0  0  0  0  0  0  0  0  0
  -32.1700  -15.0860   19.5420 O   0  0  0  0  0  0  0  0  0  0  0  0
  -30.2450  -16.3580   21.9040 C   0  0  0  0  0  1  0  0  0  0  0  0
  -30.3440  -16.1750   20.4550 N   0  0  0  0  0  0  0  0  0  0  0  0
  -25.7620  -13.9680   20.4450 C   0  0  0  0  0  0  0  0  0  0  0  0
  -24.6910  -13.2120   20.8340 C   0  0  0  0  0  0  0  0  0  0  0  0
  -25.1150  -11.8490   20.7490 C   0  0  0  0  0  0  0  0  0  0  0  0
  -26.7710  -13.0690   20.1410 N   0  0  0  0  0  0  0  0  0  0  0  0
  -26.3910  -11.7860   20.3880 N   0  0  0  0  0  0  0  0  0  0  0  0
  -24.3600  -10.6010   20.9330 C   0  0  0  0  0  0  0  0  0  0  0  0
  -24.7410   -9.6410   21.8960 C   0  0  0  0  0  3  0  0  0  0  0  0
  -23.9870   -8.4610   22.0690 C   0  0  0  0  0  3  0  0  0  0  0  0
  -22.8370   -8.2310   21.2780 C   0  0  0  0  0  0  0  0  0  0  0  0
  -22.4740   -9.1790   20.3050 C   0  0  0  0  0  3  0  0  0  0  0  0
  -23.2290  -10.3510   20.1310 C   0  0  0  0  0  3  0  0  0  0  0  0
  -22.0600   -7.1000   21.3560 O   0  0  0  0  0  0  0  0  0  0  0  0
  -21.8710   -6.4370   22.5430 C   0  0  0  0  0  0  0  0  0  0  0  0
  -21.2950   -7.0690   23.6660 C   0  0  0  0  0  3  0  0  0  0  0  0
  -21.0560   -6.3310   24.8440 C   0  0  0  0  0  3  0  0  0  0  0  0
  -21.3860   -4.9630   24.8970 C   0  0  0  0  0  0  0  0  0  0  0  0
  -21.9560   -4.3320   23.7770 C   0  0  0  0  0  3  0  0  0  0  0  0
  -22.1950   -5.0670   22.6030 C   0  0  0  0  0  0  0  0  0  0  0  0
  -22.7260   -4.4490   21.5200 F   0  0  0  0  0  0  0  0  0  0  0  0
  -21.1490   -4.2530   26.0240 F   0  0  0  0  0  0  0  0  0  0  0  0
  -23.3190  -13.7180   21.1720 C   0  0  0  0  0  0  0  0  0  0  0  0
  -22.6150  -13.0340   22.0660 N   0  0  0  0  0  0  0  0  0  0  0  0
  -22.8820  -14.7560   20.6770 O   0  0  0  0  0  0  0  0  0  0  0  0
  -22.9810  -12.1940   22.4890 H   0  0  0  0  0  0  0  0  0  0  0  0
  -21.6960  -13.3580   22.3310 H   0  0  0  0  0  0  0  0  0  0  0  0
  -25.9590  -15.3370   20.3010 N   0  0  0  0  0  0  0  0  0  0  0  0
  -25.2200  -16.0100   20.4770 H   0  0  0  0  0  0  0  0  0  0  0  0
  -26.8170  -15.7650   19.9760 H   0  0  0  0  0  0  0  0  0  0  0  0
  -31.5140  -19.3670   19.4560 C   0  0  0  0  0  2  0  0  0  0  0  0
  -32.4960  -20.1200   20.3650 C   0  0  0  0  0  2  0  0  0  0  0  0
  -32.9330  -19.2950   21.5910 C   0  0  0  0  0  2  0  0  0  0  0  0
  -34.2640  -19.7560   22.2040 C   0  0  0  0  0  2  0  0  0  0  0  0
  -34.1790  -21.1060   22.7830 N   0  0  0  0  0  4  0  0  0  0  0  0
  -34.0300  -21.7970   22.0700 H   0  0  0  0  0  0  0  0  0  0  0  0
  -35.0400  -21.3260   23.2510 H   0  0  0  0  0  0  0  0  0  0  0  0
  -33.4360  -21.1610   23.4550 H   0  0  0  0  0  0  0  0  0  0  0  0
  -29.3640  -22.0040   20.0540 C   0  0  0  0  0  2  0  0  0  0  0  0
  -27.7590  -23.5370   21.5060 C   0  0  0  0  0  1  0  0  0  0  0  0
  -28.2760  -23.3100   20.0720 C   0  0  0  0  0  3  0  0  0  0  0  0
  -28.5710  -24.8410   19.4470 C   0  0  0  0  0  2  0  0  0  0  0  0
  -28.4250  -26.2390   20.0980 O   0  0  0  0  0  0  0  0  0  0  0  0
  -24.7910  -31.7810   23.2110 C   0  0  0  0  0  0  0  0  0  0  0  0
  -27.3330  -27.1670   20.0210 C   0  0  0  0  0  0  0  0  0  0  0  0
  -23.5660  -30.4200   21.5580 C   0  0  0  0  0  3  0  0  0  0  0  0
  -24.9930  -28.8830   20.0660 C   0  0  0  0  0  0  0  0  0  0  0  0
  -26.1130  -30.7010   21.3580 C   0  0  0  0  0  2  0  0  0  0  0  0
  -26.1760  -29.3270   20.6700 C   0  0  0  0  0  0  0  0  0  0  0  0
  -27.3410  -28.4800   20.6370 C   0  0  0  0  0  3  0  0  0  0  0  0
  -26.1270  -26.8120   19.3840 C   0  0  0  0  0  3  0  0  0  0  0  0
  -24.9780  -27.6380   19.4120 C   0  0  0  0  0  3  0  0  0  0  0  0
  -23.7640  -29.7750   20.1590 C   0  0  0  0  0  2  0  0  0  0  0  0
  -24.8450  -30.9890   22.0960 N   0  0  0  0  0  0  0  0  0  0  0  0
  -23.7150  -32.0540   23.7610 O   0  0  0  0  0  0  0  0  0  0  0  0
  -22.9050  -29.3900   22.5070 C   0  0  0  0  0  0  0  0  0  0  0  0
  -21.5790  -29.2080   22.3830 N   0  0  0  0  0  0  0  0  0  0  0  0
  -23.5870  -28.7560   23.3150 O   0  0  0  0  0  0  0  0  0  0  0  0
  -21.0870  -29.7720   21.7050 H   0  0  0  0  0  0  0  0  0  0  0  0
  -18.2110  -27.9610   22.8630 C   0  0  0  0  0  0  0  0  0  0  0  0
  -20.7660  -28.2510   23.1380 C   0  0  0  0  0  3  0  0  0  0  0  0
  -20.8880  -26.8290   22.5440 C   0  0  0  0  0  2  0  0  0  0  0  0
  -19.7930  -26.5070   21.5240 C   0  0  0  0  0  2  0  0  0  0  0  0
  -18.4080  -26.6240   22.1670 C   0  0  0  0  0  2  0  0  0  0  0  0
  -19.3200  -28.7330   23.3030 C   0  0  0  0  0  0  0  0  0  0  0  0
  -19.0850  -29.9850   23.9120 C   0  0  0  0  0  3  0  0  0  0  0  0
  -17.7750  -30.4640   24.0870 C   0  0  0  0  0  3  0  0  0  0  0  0
  -16.6800  -29.6900   23.6650 C   0  0  0  0  0  3  0  0  0  0  0  0
  -16.9000  -28.4390   23.0590 C   0  0  0  0  0  3  0  0  0  0  0  0
  -26.0800  -32.4010   23.8350 C   0  0  0  0  0  3  0  0  0  0  0  0
  -26.6190  -31.5940   25.0810 C   0  0  1  0  0  0  0  0  0  0  0  0
  -25.5410  -31.3150   26.1550 C   0  0  0  0  0  1  0  0  0  0  0  0
  -27.2070  -30.2330   24.6430 C   0  0  0  0  0  1  0  0  0  0  0  0
  -27.7750  -32.3750   25.7500 C   0  0  0  0  0  1  0  0  0  0  0  0
  -25.7730  -33.7890   24.2170 N   0  0  0  0  0  0  0  0  0  0  0  0
  -26.0960  -34.8700   23.4950 C   0  0  0  0  0  0  0  0  0  0  0  0
  -26.7510  -34.8030   22.4500 O   0  0  0  0  0  0  0  0  0  0  0  0
  -25.1900  -33.9150   25.0310 H   0  0  0  0  0  0  0  0  0  0  0  0
  -24.3680  -36.6800   23.2320 C   0  0  0  0  0  1  0  0  0  0  0  0
  -25.6180  -36.2410   24.0110 C   0  0  0  0  0  3  0  0  0  0  0  0
  -27.7600  -37.0960   24.8550 C   0  0  0  0  0  1  0  0  0  0  0  0
  -26.6510  -37.2970   23.9260 N   0  0  0  0  0  0  0  0  0  0  0  0
  -26.2500  -38.2120   24.1070 H   0  0  0  0  0  0  0  0  0  0  0  0
  1 52  1  0
  1  4  1  0
  1  3  1  0
  2  3  1  0
  4 44  1  0
  5  4  1  0
  5 15  1  0
  6 12  1  0
  6 15  1  0
  7 12  1  0
  8  9  1  0
  8  7  1  0
 10  9  1  0
 10 19  1  0
 10 11  1  0
 12 11  1  0
 13  6  2  0
 15 14  1  0
 16 17  2  0
 17 36  1  0
 18 17  1  0
 18 21  1  0
 19 20  1  0
 19 16  1  0
 20 18  2  0
 21 22  1  0
 22 23  2  0
 24 27  1  0
 24 23  1  0
 25 24  2  0
 26 25  1  0
 26 21  2  0
 27 28  1  0
 28 33  2  0
 28 29  1  0
 29 30  2  0
 30 31  1  0
 31 35  1  0
 32 31  2  0
 33 32  1  0
 34 33  1  0
 36 37  1  0
 37 40  1  0
 37 39  1  0
 38 36  2  0
 41 16  1  0
 41 42  1  0
 43 41  1  0
 44 45  1  0
 45 46  1  0
 46 47  1  0
 47 48  1  0
 48 50  1  0
 48 51  1  0
 49 48  1  0
 52 54  1  0
 54 53  1  0
 55 54  1  0
 55 56  1  0
 57 68  2  0
 58 56  1  0
 58 63  1  0
 59 67  1  0
 59 69  1  0
 60 66  1  0
 60 62  1  0
 61 67  1  0
 62 61  1  0
 63 62  2  0
 64 65  1  0
 64 58  2  0
 65 60  2  0
 66 59  1  0
 67 57  1  0
 69 71  2  0
 70 69  1  0
 72 70  1  0
 73 82  2  0
 73 78  1  0
 74 70  1  0
 74 78  1  0
 75 74  1  0
 76 77  1  0
 76 75  1  0
 77 73  1  0
 78 79  2  0
 79 80  1  0
 81 80  2  0
 82 81  1  0
 83 57  1  0
 83 88  1  0
 83 84  1  0
 84 87  1  1
 84 85  1  0
 86 84  1  0
 88 91  1  0
 89 93  1  0
 89 88  1  0
 90 89  2  0
 93 92  1  0
 95 93  1  0
 95 96  1  0
 95 94  1  0
M  ISO  4   6 100  15 100  55 101  56 101
M  END
>  <TORSDO>  (44) 
F 27

>  <SCORE>  (44) 
-12.246

>  <name>  (44) 
43

>  <ligand_id>  (44) 
43

>  <original_smiles>  (44) 
[H]c1c([H])c([H])c2c(c1[H])C([H])([H])C([H])([H])C([H])([H])C2([H])N([H])C(=O)C1([H])N(C(=O)C([H])(N([H])C(=O)C([H])(N([H])C([H])([H])[H])C([H])([H])[H])C(C([H])([H])[H])(C([H])([H])[H])C([H])([H])[H])C([H])([H])c2c([H])c(OC([H])([H])C([H])(C([H])([H])[H])C([H])([H])C([H])(C([H])([H])C([H])([H])[H])C([H])(C([H])([H])N(C(=O)N3C([H])([H])C([H])([H])C([H])([H])C([H])(n4nc(-c5c([H])c([H])c(Oc6c([H])c([H])c(F)c([H])c6F)c([H])c5[H])c(C(=O)N([H])[H])c4N([H])[H])C3([H])[H])C([H])([H])[H])C([H])([H])C([H])([H])C([H])([H])C([H])([H])[N+]([H])([H])[H])c([H])c([H])c2C1([H])[H]

>  <smiles>  (44) 
[H]c1c([H])c([H])c2c(c1[H])C([H])([H])C([H])([H])C([H])([H])C2([H])N([H])C(=O)C1([H])N(C(=O)C([H])(N([H])C(=O)C([H])(N([H])C([H])([H])[H])C([H])([H])[H])C(C([H])([H])[H])(C([H])([H])[H])C([H])([H])[H])C([H])([H])c2c([H])c(OC([H])([H])C([H])(C([H])([H])[H])C([H])([H])C([H])(C([H])([H])C([H])([H])[H])C([H])(C([H])([H])N(C(=O)N3C([H])([H])C([H])([H])C([H])([H])C([H])(n4nc(-c5c([H])c([H])c(Oc6c([H])c([H])c(F)c([H])c6F)c([H])c5[H])c(C(=O)N([H])[H])c4N([H])[H])C3([H])[H])C([H])([H])[H])C([H])([H])C([H])([H])C([H])([H])C([H])([H])[N+]([H])([H])[H])c([H])c([H])c2C1([H])[H]

$$$$
44:0:0
     RDKit          3D

 90 97  0  0  1  0  0  0  0  0999 V2000
  -28.9210  -23.5530   20.5600 C   0  0  0  0  0  3  0  0  0  0  0  0
  -28.6960  -21.9630   20.0590 C   0  0  0  0  0  3  0  0  0  0  0  0
  -29.6280  -20.6370   20.4800 C   0  0  0  0  0  3  0  0  0  0  0  0
  -29.2760  -19.0530   20.0810 C   0  0  0  0  0  3  0  0  0  0  0  0
  -30.3000  -17.7500   20.3230 C   0  0  0  0  0  3  0  0  0  0  0  0
  -30.6080  -15.0670   19.9440 C   0  0  0  0  0  0  0  0  0  0  0  0
  -30.3880  -12.7480   18.9540 C   0  0  0  0  0  2  0  0  0  0  0  0
  -29.3800  -12.7260   17.7830 C   0  0  0  0  0  2  0  0  0  0  0  0
  -27.9490  -12.5180   18.3140 C   0  0  0  0  0  2  0  0  0  0  0  0
  -27.6230  -13.4390   19.5190 C   0  0  0  0  0  3  0  0  0  0  0  0
  -28.7440  -13.4310   20.5800 C   0  0  0  0  0  2  0  0  0  0  0  0
  -29.9820  -13.8270   19.8970 N   0  0  0  0  0  0  0  0  0  0  0  0
  -31.7840  -15.1330   19.5740 O   0  0  0  0  0  0  0  0  0  0  0  0
  -29.8730  -16.2420   20.2230 N   0  0  0  0  0  0  0  0  0  0  0  0
  -28.9080  -16.0700   20.4570 H   0  0  0  0  0  0  0  0  0  0  0  0
  -25.3030  -14.0190   20.4280 C   0  0  0  0  0  0  0  0  0  0  0  0
  -24.2590  -13.2450   20.8490 C   0  0  0  0  0  0  0  0  0  0  0  0
  -24.7080  -11.8910   20.7530 C   0  0  0  0  0  0  0  0  0  0  0  0
  -26.3190  -13.1390   20.0950 N   0  0  0  0  0  0  0  0  0  0  0  0
  -25.9740  -11.8510   20.3560 N   0  0  0  0  0  0  0  0  0  0  0  0
  -23.9830  -10.6300   20.9630 C   0  0  0  0  0  0  0  0  0  0  0  0
  -24.4440   -9.6570   21.8760 C   0  0  0  0  0  3  0  0  0  0  0  0
  -23.7220   -8.4610   22.0710 C   0  0  0  0  0  3  0  0  0  0  0  0
  -22.5250   -8.2300   21.3540 C   0  0  0  0  0  0  0  0  0  0  0  0
  -22.0830   -9.1900   20.4270 C   0  0  0  0  0  3  0  0  0  0  0  0
  -22.8050  -10.3790   20.2310 C   0  0  0  0  0  3  0  0  0  0  0  0
  -21.7700   -7.0880   21.4610 O   0  0  0  0  0  0  0  0  0  0  0  0
  -21.7340   -6.3540   22.6190 C   0  0  0  0  0  0  0  0  0  0  0  0
  -21.2660   -6.9030   23.8330 C   0  0  0  0  0  3  0  0  0  0  0  0
  -21.1830   -6.0930   24.9840 C   0  0  0  0  0  3  0  0  0  0  0  0
  -21.5580   -4.7380   24.9220 C   0  0  0  0  0  0  0  0  0  0  0  0
  -22.0150   -4.1880   23.7120 C   0  0  0  0  0  3  0  0  0  0  0  0
  -22.1010   -4.9950   22.5640 C   0  0  0  0  0  0  0  0  0  0  0  0
  -22.5250   -4.4560   21.3950 F   0  0  0  0  0  0  0  0  0  0  0  0
  -21.4690   -3.9590   26.0250 F   0  0  0  0  0  0  0  0  0  0  0  0
  -22.8880  -13.7270   21.2240 C   0  0  0  0  0  0  0  0  0  0  0  0
  -22.2170  -13.0200   22.1270 N   0  0  0  0  0  0  0  0  0  0  0  0
  -22.4230  -14.7640   20.7510 O   0  0  0  0  0  0  0  0  0  0  0  0
  -22.6100  -12.1810   22.5290 H   0  0  0  0  0  0  0  0  0  0  0  0
  -21.2990  -13.3180   22.4200 H   0  0  0  0  0  0  0  0  0  0  0  0
  -25.4710  -15.3920   20.2710 N   0  0  0  0  0  0  0  0  0  0  0  0
  -24.7160  -16.0510   20.4350 H   0  0  0  0  0  0  0  0  0  0  0  0
  -26.2910  -15.8250   19.8680 H   0  0  0  0  0  0  0  0  0  0  0  0
  -28.8430  -23.6180   22.1120 C   0  0  0  0  0  2  0  0  0  0  0  0
  -27.4930  -23.3550   22.6620 N   0  0  0  0  0  4  0  0  0  0  0  0
  -26.7910  -23.9470   22.2500 H   0  0  0  0  0  0  0  0  0  0  0  0
  -27.4970  -23.5320   23.6520 H   0  0  0  0  0  0  0  0  0  0  0  0
  -27.2300  -22.3930   22.5340 H   0  0  0  0  0  0  0  0  0  0  0  0
  -28.0620  -24.8520   19.9340 C   0  0  0  0  0  2  0  0  0  0  0  0
  -28.3130  -26.3640   20.1490 O   0  0  0  0  0  0  0  0  0  0  0  0
  -24.5620  -31.8470   23.1840 C   0  0  0  0  0  0  0  0  0  0  0  0
  -27.2470  -27.3170   20.0430 C   0  0  0  0  0  0  0  0  0  0  0  0
  -23.3990  -30.4860   21.4830 C   0  0  0  0  0  3  0  0  0  0  0  0
  -24.8880  -29.0010   20.0090 C   0  0  0  0  0  0  0  0  0  0  0  0
  -25.9430  -30.8150   21.3510 C   0  0  0  0  0  2  0  0  0  0  0  0
  -26.0450  -29.4510   20.6580 C   0  0  0  0  0  0  0  0  0  0  0  0
  -27.2220  -28.6230   20.6620 C   0  0  0  0  0  3  0  0  0  0  0  0
  -26.0740  -26.9680   19.3310 C   0  0  0  0  0  3  0  0  0  0  0  0
  -24.9170  -27.7770   19.3230 C   0  0  0  0  0  3  0  0  0  0  0  0
  -23.6430  -29.8670   20.0800 C   0  0  0  0  0  2  0  0  0  0  0  0
  -24.6530  -31.0720   22.0620 N   0  0  0  0  0  0  0  0  0  0  0  0
  -23.4670  -32.0910   23.7150 O   0  0  0  0  0  0  0  0  0  0  0  0
  -22.7400  -29.4310   22.4050 C   0  0  0  0  0  0  0  0  0  0  0  0
  -21.4140  -29.2550   22.2820 N   0  0  0  0  0  0  0  0  0  0  0  0
  -23.4210  -28.7740   23.1960 O   0  0  0  0  0  0  0  0  0  0  0  0
  -20.9180  -29.8410   21.6260 H   0  0  0  0  0  0  0  0  0  0  0  0
  -18.0380  -28.0380   22.7880 C   0  0  0  0  0  0  0  0  0  0  0  0
  -20.6040  -28.2770   23.0140 C   0  0  0  0  0  3  0  0  0  0  0  0
  -20.6870  -26.8810   22.3550 C   0  0  0  0  0  2  0  0  0  0  0  0
  -19.5610  -26.6220   21.3500 C   0  0  0  0  0  2  0  0  0  0  0  0
  -18.1940  -26.7290   22.0300 C   0  0  0  0  0  2  0  0  0  0  0  0
  -19.1700  -28.7720   23.2350 C   0  0  0  0  0  0  0  0  0  0  0  0
  -18.9680  -29.9970   23.9060 C   0  0  0  0  0  3  0  0  0  0  0  0
  -17.6700  -30.4870   24.1410 C   0  0  0  0  0  3  0  0  0  0  0  0
  -16.5530  -29.7500   23.7060 C   0  0  0  0  0  3  0  0  0  0  0  0
  -16.7390  -28.5300   23.0320 C   0  0  0  0  0  3  0  0  0  0  0  0
  -25.8240  -32.4790   23.8440 C   0  0  0  0  0  3  0  0  0  0  0  0
  -26.2910  -31.7230   25.1490 C   0  0  1  0  0  0  0  0  0  0  0  0
  -25.1590  -31.5050   26.1820 C   0  0  0  0  0  1  0  0  0  0  0  0
  -26.8820  -30.3380   24.7990 C   0  0  0  0  0  1  0  0  0  0  0  0
  -27.4230  -32.5250   25.8340 C   0  0  0  0  0  1  0  0  0  0  0  0
  -25.5150  -33.8830   24.1500 N   0  0  0  0  0  0  0  0  0  0  0  0
  -25.8480  -34.9260   23.3770 C   0  0  0  0  0  0  0  0  0  0  0  0
  -26.5170  -34.8080   22.3460 O   0  0  0  0  0  0  0  0  0  0  0  0
  -24.9320  -34.0560   24.9560 H   0  0  0  0  0  0  0  0  0  0  0  0
  -24.1100  -36.7110   23.0180 C   0  0  0  0  0  1  0  0  0  0  0  0
  -25.3640  -36.3240   23.8170 C   0  0  0  0  0  3  0  0  0  0  0  0
  -27.5020  -37.2400   24.6040 C   0  0  0  0  0  1  0  0  0  0  0  0
  -26.3900  -37.3790   23.6680 N   0  0  0  0  0  0  0  0  0  0  0  0
  -25.9800  -38.3000   23.7990 H   0  0  0  0  0  0  0  0  0  0  0  0
  1 49  1  0
  1 44  1  0
  2  3  2  0
  2  1  1  0
  4  5  2  0
  4  3  1  0
  6 14  1  0
  7 12  1  0
  8  9  1  0
  8  7  1  0
 10  9  1  0
 10 19  1  0
 10 11  1  0
 12  6  1  0
 12 11  1  0
 13  6  2  0
 14  5  1  0
 14 15  1  0
 16 17  2  0
 17 36  1  0
 18 17  1  0
 18 21  1  0
 19 20  1  0
 19 16  1  0
 20 18  2  0
 21 22  1  0
 22 23  2  0
 24 27  1  0
 24 23  1  0
 25 24  2  0
 26 25  1  0
 26 21  2  0
 27 28  1  0
 28 29  1  0
 29 30  2  0
 31 30  1  0
 31 35  1  0
 32 31  2  0
 33 28  2  0
 33 32  1  0
 34 33  1  0
 36 37  1  0
 37 40  1  0
 37 39  1  0
 38 36  2  0
 41 16  1  0
 41 42  1  0
 43 41  1  0
 44 45  1  0
 45 47  1  0
 46 45  1  0
 48 45  1  0
 49 50  1  0
 51 62  2  0
 52 50  1  0
 52 57  1  0
 53 61  1  0
 53 63  1  0
 54 60  1  0
 54 56  1  0
 55 61  1  0
 56 57  2  0
 56 55  1  0
 58 52  2  0
 59 58  1  0
 59 54  2  0
 60 53  1  0
 61 51  1  0
 63 65  2  0
 64 63  1  0
 66 64  1  0
 67 76  2  0
 67 72  1  0
 68 64  1  0
 68 72  1  0
 69 68  1  0
 70 71  1  0
 70 69  1  0
 71 67  1  0
 72 73  2  0
 73 74  1  0
 75 74  2  0
 76 75  1  0
 77 51  1  0
 77 82  1  0
 77 78  1  0
 78 81  1  1
 78 79  1  0
 80 78  1  0
 82 85  1  0
 83 87  1  0
 83 82  1  0
 84 83  2  0
 87 86  1  0
 89 90  1  0
 89 87  1  0
 89 88  1  0
M  ISO  4   6 100  14 100  49 101  50 101
M  END
>  <TORSDO>  (45) 
F 23

>  <SCORE>  (45) 
-12.177

>  <name>  (45) 
44

>  <ligand_id>  (45) 
44

>  <original_smiles>  (45) 
[H]c1c([H])c([H])c2c(c1[H])C([H])([H])C([H])([H])C([H])([H])C2([H])N([H])C(=O)C1([H])N(C(=O)C([H])(N([H])C(=O)C([H])(N([H])C([H])([H])[H])C([H])([H])[H])C(C([H])([H])[H])(C([H])([H])[H])C([H])([H])[H])C([H])([H])c2c([H])c(OC([H])([H])C([H])(C([H])([H])C([H])([H])C([H])([H])C([H])([H])N([H])C(=O)N3C([H])([H])C([H])([H])C([H])([H])C([H])(n4nc(-c5c([H])c([H])c(Oc6c([H])c([H])c(F)c([H])c6F)c([H])c5[H])c(C(=O)N([H])[H])c4N([H])[H])C3([H])[H])C([H])([H])[N+]([H])([H])[H])c([H])c([H])c2C1([H])[H]

>  <smiles>  (45) 
[H]c1c([H])c([H])c2c(c1[H])C([H])([H])C([H])([H])C([H])([H])C2([H])N([H])C(=O)C1([H])N(C(=O)C([H])(N([H])C(=O)C([H])(N([H])C([H])([H])[H])C([H])([H])[H])C(C([H])([H])[H])(C([H])([H])[H])C([H])([H])[H])C([H])([H])c2c([H])c(OC([H])([H])C([H])(C([H])([H])C([H])([H])C([H])([H])C([H])([H])N([H])C(=O)N3C([H])([H])C([H])([H])C([H])([H])C([H])(n4nc(-c5c([H])c([H])c(Oc6c([H])c([H])c(F)c([H])c6F)c([H])c5[H])c(C(=O)N([H])[H])c4N([H])[H])C3([H])[H])C([H])([H])[N+]([H])([H])[H])c([H])c([H])c2C1([H])[H]

$$$$
45:0:0
     RDKit          3D

 96103  0  0  1  0  0  0  0  0999 V2000
  -30.4660  -19.6510   21.7580 C   0  0  0  0  0  3  0  0  0  0  0  0
  -30.3270  -18.1800   22.2870 C   0  0  0  0  0  3  0  0  0  0  0  0
  -30.8820  -17.0830   21.4390 N   0  0  0  0  0  0  0  0  0  0  0  0
  -32.3570  -17.9710   19.6270 C   0  0  0  0  0  1  0  0  0  0  0  0
  -32.2700  -17.2890   21.0030 C   0  0  0  0  0  2  0  0  0  0  0  0
  -29.9640  -16.0590   20.7710 C   0  0  0  0  0  3  0  0  0  0  0  0
  -30.6300  -14.7270   20.1990 C   0  0  0  0  0  0  0  0  0  0  0  0
  -30.3440  -12.5320   19.0950 C   0  0  0  0  0  2  0  0  0  0  0  0
  -29.3770  -12.6340   17.8960 C   0  0  0  0  0  2  0  0  0  0  0  0
  -27.8970  -12.5730   18.3360 C   0  0  0  0  0  2  0  0  0  0  0  0
  -27.5810  -13.3730   19.6240 C   0  0  0  0  0  3  0  0  0  0  0  0
  -28.6690  -13.2000   20.7010 C   0  0  0  0  0  2  0  0  0  0  0  0
  -29.9610  -13.5410   20.1020 N   0  0  0  0  0  0  0  0  0  0  0  0
  -31.7530  -14.8130   19.7000 O   0  0  0  0  0  0  0  0  0  0  0  0
  -25.2060  -13.9200   20.4210 C   0  0  0  0  0  0  0  0  0  0  0  0
  -24.1810  -13.1340   20.8560 C   0  0  0  0  0  0  0  0  0  0  0  0
  -24.6690  -11.7900   20.8040 C   0  0  0  0  0  0  0  0  0  0  0  0
  -26.2610  -13.0650   20.1550 N   0  0  0  0  0  0  0  0  0  0  0  0
  -25.9460  -11.7780   20.4490 N   0  0  0  0  0  0  0  0  0  0  0  0
  -23.9740  -10.5160   21.0000 C   0  0  0  0  0  0  0  0  0  0  0  0
  -24.4290   -9.5630   21.9380 C   0  0  0  0  0  3  0  0  0  0  0  0
  -23.7350   -8.3490   22.1200 C   0  0  0  0  0  3  0  0  0  0  0  0
  -22.5710   -8.0780   21.3620 C   0  0  0  0  0  0  0  0  0  0  0  0
  -22.1370   -9.0150   20.4050 C   0  0  0  0  0  3  0  0  0  0  0  0
  -22.8340  -10.2210   20.2230 C   0  0  0  0  0  3  0  0  0  0  0  0
  -21.8430   -6.9170   21.4610 O   0  0  0  0  0  0  0  0  0  0  0  0
  -21.7860   -6.2000   22.6310 C   0  0  0  0  0  0  0  0  0  0  0  0
  -21.2940   -6.7680   23.8270 C   0  0  0  0  0  3  0  0  0  0  0  0
  -21.1830   -5.9790   24.9870 C   0  0  0  0  0  3  0  0  0  0  0  0
  -21.5540   -4.6200   24.9550 C   0  0  0  0  0  0  0  0  0  0  0  0
  -22.0410   -4.0530   23.7660 C   0  0  0  0  0  3  0  0  0  0  0  0
  -22.1540   -4.8400   22.6050 C   0  0  0  0  0  0  0  0  0  0  0  0
  -22.6020   -4.2810   21.4550 F   0  0  0  0  0  0  0  0  0  0  0  0
  -21.4440   -3.8600   26.0690 F   0  0  0  0  0  0  0  0  0  0  0  0
  -22.7800  -13.5760   21.1780 C   0  0  0  0  0  0  0  0  0  0  0  0
  -22.0950  -12.8640   22.0600 N   0  0  0  0  0  0  0  0  0  0  0  0
  -22.3130  -14.6060   20.6840 O   0  0  0  0  0  0  0  0  0  0  0  0
  -22.4870  -12.0320   22.4810 H   0  0  0  0  0  0  0  0  0  0  0  0
  -21.1570  -13.1400   22.3140 H   0  0  0  0  0  0  0  0  0  0  0  0
  -25.3120  -15.2830   20.1580 N   0  0  0  0  0  0  0  0  0  0  0  0
  -24.4640  -15.6920   20.5420 H   0  0  0  0  0  0  0  0  0  0  0  0
  -25.1470  -15.3070   19.1530 H   0  0  0  0  0  0  0  0  0  0  0  0
  -29.1110  -16.3740   18.2090 C   0  0  0  0  0  1  0  0  0  0  0  0
  -29.0420  -16.8000   19.6990 C   0  0  0  0  0  3  0  0  0  0  0  0
  -27.6210  -16.9390   20.1110 N   0  0  0  0  0  4  0  0  0  0  0  0
  -27.1470  -16.0760   20.3520 H   0  0  0  0  0  0  0  0  0  0  0  0
  -27.0970  -17.3290   19.3470 H   0  0  0  0  0  0  0  0  0  0  0  0
  -27.4940  -17.5550   20.8950 H   0  0  0  0  0  0  0  0  0  0  0  0
  -29.8470  -20.7660   22.6750 C   0  0  0  0  0  2  0  0  0  0  0  0
  -30.1260  -22.1520   22.1830 N   0  0  0  0  0  4  0  0  0  0  0  0
  -30.3290  -22.0780   21.2030 H   0  0  0  0  0  0  0  0  0  0  0  0
  -30.9590  -22.4970   22.6370 H   0  0  0  0  0  0  0  0  0  0  0  0
  -29.0670  -23.1990   22.3170 C   0  0  0  0  0  2  0  0  0  0  0  0
  -29.2390  -24.3130   21.2240 C   0  0  0  0  0  3  0  0  0  0  0  0
  -28.1190  -25.3960   21.1280 C   0  0  0  0  0  3  0  0  0  0  0  0
  -28.4490  -26.6210   20.3990 O   0  0  0  0  0  0  0  0  0  0  0  0
  -24.6610  -31.9300   23.2700 C   0  0  0  0  0  0  0  0  0  0  0  0
  -27.3570  -27.4660   20.2590 C   0  0  0  0  0  0  0  0  0  0  0  0
  -23.4930  -30.5180   21.6120 C   0  0  0  0  0  3  0  0  0  0  0  0
  -24.9780  -29.0120   20.1860 C   0  0  0  0  0  0  0  0  0  0  0  0
  -26.0220  -30.8940   21.4520 C   0  0  0  0  0  2  0  0  0  0  0  0
  -26.1280  -29.5260   20.8030 C   0  0  0  0  0  0  0  0  0  0  0  0
  -27.3240  -28.7640   20.8320 C   0  0  0  0  0  3  0  0  0  0  0  0
  -26.2000  -26.9930   19.6060 C   0  0  0  0  0  3  0  0  0  0  0  0
  -25.0140  -27.7480   19.5750 C   0  0  0  0  0  3  0  0  0  0  0  0
  -23.7290  -29.8630   20.2250 C   0  0  0  0  0  2  0  0  0  0  0  0
  -24.7430  -31.1310   22.1690 N   0  0  0  0  0  0  0  0  0  0  0  0
  -23.5720  -32.1900   23.7960 O   0  0  0  0  0  0  0  0  0  0  0  0
  -22.8420  -29.4850   22.5590 C   0  0  0  0  0  0  0  0  0  0  0  0
  -21.5240  -29.2770   22.4120 N   0  0  0  0  0  0  0  0  0  0  0  0
  -23.5190  -28.8720   23.3900 O   0  0  0  0  0  0  0  0  0  0  0  0
  -21.0370  -29.8270   21.7190 H   0  0  0  0  0  0  0  0  0  0  0  0
  -18.1620  -28.0150   22.8500 C   0  0  0  0  0  0  0  0  0  0  0  0
  -20.7100  -28.3270   23.1710 C   0  0  0  0  0  3  0  0  0  0  0  0
  -20.8530  -26.8960   22.6040 C   0  0  0  0  0  2  0  0  0  0  0  0
  -19.7780  -26.5470   21.5690 C   0  0  0  0  0  2  0  0  0  0  0  0
  -18.3800  -26.6670   22.1830 C   0  0  0  0  0  2  0  0  0  0  0  0
  -19.2560  -28.8010   23.2990 C   0  0  0  0  0  0  0  0  0  0  0  0
  -19.0030  -30.0620   23.8820 C   0  0  0  0  0  3  0  0  0  0  0  0
  -17.6860  -30.5390   24.0190 C   0  0  0  0  0  3  0  0  0  0  0  0
  -16.6050  -29.7500   23.5840 C   0  0  0  0  0  3  0  0  0  0  0  0
  -16.8430  -28.4910   23.0080 C   0  0  0  0  0  3  0  0  0  0  0  0
  -25.9310  -32.5760   23.9050 C   0  0  0  0  0  3  0  0  0  0  0  0
  -25.6010  -33.9700   24.2230 N   0  0  0  0  0  0  0  0  0  0  0  0
  -25.9350  -35.0260   23.4680 C   0  0  0  0  0  0  0  0  0  0  0  0
  -26.6240  -34.9280   22.4480 O   0  0  0  0  0  0  0  0  0  0  0  0
  -24.9860  -34.1210   25.0100 H   0  0  0  0  0  0  0  0  0  0  0  0
  -24.1930  -36.7990   23.0830 C   0  0  0  0  0  1  0  0  0  0  0  0
  -25.4250  -36.4080   23.9140 C   0  0  0  0  0  3  0  0  0  0  0  0
  -27.5350  -37.3200   24.7810 C   0  0  0  0  0  1  0  0  0  0  0  0
  -26.4490  -37.4720   23.8150 N   0  0  0  0  0  0  0  0  0  0  0  0
  -26.0320  -38.3870   23.9560 H   0  0  0  0  0  0  0  0  0  0  0  0
  -26.4400  -31.8130   25.1900 C   0  0  1  0  0  0  0  0  0  0  0  0
  -25.3350  -31.5680   26.2420 C   0  0  0  0  0  1  0  0  0  0  0  0
  -27.0500  -30.4440   24.8100 C   0  0  0  0  0  1  0  0  0  0  0  0
  -27.5680  -32.6280   25.8690 C   0  0  0  0  0  1  0  0  0  0  0  0
  1  2  2  0
  1 49  1  0
  3  2  1  0
  4  5  1  0
  5  3  1  0
  6  7  1  0
  6  3  1  0
  8 13  1  0
  9 10  1  0
  9  8  1  0
 11 10  1  0
 11 18  1  0
 11 12  1  0
 13  7  1  0
 13 12  1  0
 14  7  2  0
 15 16  2  0
 16 35  1  0
 17 16  1  0
 17 20  1  0
 18 15  1  0
 18 19  1  0
 19 17  2  0
 20 21  1  0
 21 22  2  0
 23 26  1  0
 23 22  1  0
 24 23  2  0
 25 24  1  0
 25 20  2  0
 26 27  1  0
 27 28  1  0
 28 29  2  0
 30 29  1  0
 30 34  1  0
 31 30  2  0
 32 27  2  0
 32 31  1  0
 33 32  1  0
 35 36  1  0
 36 39  1  0
 36 38  1  0
 37 35  2  0
 40 15  1  0
 40 41  1  0
 42 40  1  0
 44 43  1  0
 44 45  1  0
 44  6  1  0
 45 46  1  0
 45 48  1  0
 47 45  1  0
 50 53  1  0
 50 52  1  0
 50 49  1  0
 51 50  1  0
 54 53  1  0
 55 54  2  0
 56 55  1  0
 57 68  2  0
 58 56  1  0
 58 63  1  0
 59 67  1  0
 59 69  1  0
 60 66  1  0
 60 62  1  0
 61 67  1  0
 62 63  2  0
 62 61  1  0
 64 58  2  0
 65 64  1  0
 65 60  2  0
 66 59  1  0
 67 57  1  0
 69 71  2  0
 70 69  1  0
 72 70  1  0
 73 82  2  0
 73 78  1  0
 74 70  1  0
 74 78  1  0
 75 74  1  0
 76 77  1  0
 76 75  1  0
 77 73  1  0
 78 79  2  0
 79 80  1  0
 81 80  2  0
 82 81  1  0
 83 57  1  0
 83 84  1  0
 83 93  1  0
 84 87  1  0
 85 89  1  0
 85 84  1  0
 86 85  2  0
 89 88  1  0
 91 89  1  0
 91 92  1  0
 91 90  1  0
 93 96  1  1
 93 94  1  0
 95 93  1  0
M  ISO  4   6 100   7 100  55 101  56 101
M  END
>  <TORSDO>  (46) 
F 27

>  <SCORE>  (46) 
-10.520

>  <name>  (46) 
45

>  <ligand_id>  (46) 
45

>  <original_smiles>  (46) 
[H]c1c([H])c([H])c2c(c1[H])C([H])([H])C([H])([H])C([H])([H])C2([H])N([H])C(=O)C1([H])N(C(=O)C([H])(N([H])C(=O)C([H])(N([H])C([H])([H])[H])C([H])([H])[H])C(C([H])([H])[H])(C([H])([H])[H])C([H])([H])[H])C([H])([H])c2c([H])c(OC([H])([H])C([H])([H])C([H])([H])[N+]([H])([H])C([H])([H])C([H])([H])C([H])([H])N(C([H])([H])C([H])([H])[H])C([H])(C(=O)N3C([H])([H])C([H])([H])C([H])([H])C([H])(n4nc(-c5c([H])c([H])c(Oc6c([H])c([H])c(F)c([H])c6F)c([H])c5[H])c(C(=O)N([H])[H])c4N([H])[H])C3([H])[H])C([H])(C([H])([H])[H])[N+]([H])([H])[H])c([H])c([H])c2C1([H])[H]

>  <smiles>  (46) 
[H]c1c([H])c([H])c2c(c1[H])C([H])([H])C([H])([H])C([H])([H])C2([H])N([H])C(=O)C1([H])N(C(=O)C([H])(N([H])C(=O)C([H])(N([H])C([H])([H])[H])C([H])([H])[H])C(C([H])([H])[H])(C([H])([H])[H])C([H])([H])[H])C([H])([H])c2c([H])c(OC([H])([H])C([H])([H])C([H])([H])[N+]([H])([H])C([H])([H])C([H])([H])C([H])([H])N(C([H])([H])C([H])([H])[H])C([H])(C(=O)N3C([H])([H])C([H])([H])C([H])([H])C([H])(n4nc(-c5c([H])c([H])c(Oc6c([H])c([H])c(F)c([H])c6F)c([H])c5[H])c(C(=O)N([H])[H])c4N([H])[H])C3([H])[H])C([H])(C([H])([H])[H])[N+]([H])([H])[H])c([H])c([H])c2C1([H])[H]

$$$$
46:0:0
     RDKit          3D

106114  0  0  1  0  0  0  0  0999 V2000
  -28.9640  -19.1830   19.9930 C   0  0  0  0  0  3  0  0  0  0  0  0
  -29.3790  -18.7940   18.6300 N   0  0  0  0  0  4  0  0  0  0  0  0
  -30.3480  -19.0340   18.4610 H   0  0  0  0  0  0  0  0  0  0  0  0
  -29.2480  -17.7970   18.5260 H   0  0  0  0  0  0  0  0  0  0  0  0
  -28.6540  -19.3940   17.5020 C   0  0  0  0  0  3  0  0  0  0  0  0
  -27.1510  -19.3360   17.8510 C   0  0  0  0  0  0  0  0  0  0  0  0
  -26.7080  -18.6180   18.7570 O   0  0  0  0  0  0  0  0  0  0  0  0
  -26.2060  -20.2030   17.0080 C   0  0  0  0  0  2  0  0  0  0  0  0
  -24.1320  -23.4160   19.0870 C   0  0  0  0  0  3  0  0  0  0  0  0
  -23.4060  -22.3420   18.5370 C   0  0  0  0  0  3  0  0  0  0  0  0
  -25.5360  -23.4400   18.9860 C   0  0  0  0  0  3  0  0  0  0  0  0
  -24.0830  -21.2930   17.8850 C   0  0  0  0  0  3  0  0  0  0  0  0
  -26.2140  -22.3980   18.3250 C   0  0  0  0  0  3  0  0  0  0  0  0
  -25.4920  -21.3140   17.7730 C   0  0  0  0  0  0  0  0  0  0  0  0
  -28.9880  -18.5480   16.2570 C   0  0  0  0  0  2  0  0  0  0  0  0
  -30.4390  -18.4610   16.0970 N   0  0  0  0  0  0  0  0  0  0  0  0
  -30.8010  -19.3510   15.7630 H   0  0  0  0  0  0  0  0  0  0  0  0
  -30.6490  -17.8260   15.3310 H   0  0  0  0  0  0  0  0  0  0  0  0
  -29.2950  -20.8190   20.2550 C   0  0  0  0  0  3  0  0  0  0  0  0
  -28.4710  -22.1530   19.6480 C   0  0  0  0  0  3  0  0  0  0  0  0
  -28.8610  -23.7670   19.9110 C   0  0  0  0  0  3  0  0  0  0  0  0
  -27.9060  -25.0690   19.4640 C   0  0  0  0  0  3  0  0  0  0  0  0
  -28.1530  -26.5690   19.7530 O   0  0  0  0  0  0  0  0  0  0  0  0
  -24.6650  -32.0100   23.2320 C   0  0  0  0  0  0  0  0  0  0  0  0
  -27.0850  -27.5310   19.7800 C   0  0  0  0  0  0  0  0  0  0  0  0
  -23.3800  -30.7170   21.5750 C   0  0  0  0  0  3  0  0  0  0  0  0
  -24.7510  -29.2440   19.9760 C   0  0  0  0  0  0  0  0  0  0  0  0
  -25.9190  -31.0070   21.2900 C   0  0  0  0  0  2  0  0  0  0  0  0
  -25.9580  -29.6610   20.5530 C   0  0  0  0  0  0  0  0  0  0  0  0
  -27.1220  -28.8200   20.4430 C   0  0  0  0  0  3  0  0  0  0  0  0
  -25.8530  -27.2170   19.1610 C   0  0  0  0  0  3  0  0  0  0  0  0
  -24.7090  -28.0360   19.2670 C   0  0  0  0  0  3  0  0  0  0  0  0
  -23.5280  -30.1320   20.1450 C   0  0  0  0  0  2  0  0  0  0  0  0
  -24.6780  -31.2630   22.0880 N   0  0  0  0  0  0  0  0  0  0  0  0
  -23.6090  -32.2570   23.8350 O   0  0  0  0  0  0  0  0  0  0  0  0
  -22.7540  -29.6470   22.5020 C   0  0  0  0  0  0  0  0  0  0  0  0
  -21.4280  -29.4430   22.3960 N   0  0  0  0  0  0  0  0  0  0  0  0
  -23.4590  -29.0060   23.2860 O   0  0  0  0  0  0  0  0  0  0  0  0
  -20.9120  -30.0150   21.7410 H   0  0  0  0  0  0  0  0  0  0  0  0
  -18.0930  -28.1230   22.8930 C   0  0  0  0  0  0  0  0  0  0  0  0
  -20.6470  -28.4540   23.1410 C   0  0  0  0  0  3  0  0  0  0  0  0
  -20.7850  -27.0480   22.5110 C   0  0  0  0  0  2  0  0  0  0  0  0
  -19.6790  -26.7310   21.5000 C   0  0  0  0  0  2  0  0  0  0  0  0
  -18.3020  -26.8070   22.1660 C   0  0  0  0  0  2  0  0  0  0  0  0
  -19.1930  -28.9030   23.3380 C   0  0  0  0  0  0  0  0  0  0  0  0
  -18.9400  -30.1350   23.9810 C   0  0  0  0  0  3  0  0  0  0  0  0
  -17.6230  -30.5830   24.1900 C   0  0  0  0  0  3  0  0  0  0  0  0
  -16.5370  -29.7990   23.7610 C   0  0  0  0  0  3  0  0  0  0  0  0
  -16.7750  -28.5710   23.1150 C   0  0  0  0  0  3  0  0  0  0  0  0
  -25.9770  -32.6060   23.8310 C   0  0  0  0  0  3  0  0  0  0  0  0
  -25.6890  -33.9860   24.2510 N   0  0  0  0  0  0  0  0  0  0  0  0
  -25.9910  -35.0780   23.5360 C   0  0  0  0  0  0  0  0  0  0  0  0
  -26.6110  -35.0290   22.4710 O   0  0  0  0  0  0  0  0  0  0  0  0
  -25.1370  -34.0990   25.0880 H   0  0  0  0  0  0  0  0  0  0  0  0
  -24.2540  -36.8910   23.3830 C   0  0  0  0  0  1  0  0  0  0  0  0
  -25.5400  -36.4430   24.0950 C   0  0  0  0  0  3  0  0  0  0  0  0
  -27.7250  -37.2820   24.8410 C   0  0  0  0  0  1  0  0  0  0  0  0
  -26.5680  -37.5000   23.9750 N   0  0  0  0  0  0  0  0  0  0  0  0
  -26.1740  -38.4110   24.1940 H   0  0  0  0  0  0  0  0  0  0  0  0
  -26.5390  -31.7670   25.0450 C   0  0  1  0  0  0  0  0  0  0  0  0
  -25.4810  -31.4560   26.1300 C   0  0  0  0  0  1  0  0  0  0  0  0
  -27.1270  -30.4230   24.5580 C   0  0  0  0  0  1  0  0  0  0  0  0
  -27.7010  -32.5370   25.7180 C   0  0  0  0  0  1  0  0  0  0  0  0
  -29.5230  -17.9590   20.9890 C   0  0  0  0  0  0  0  0  0  0  0  0
  -30.3380  -15.3230   20.5470 C   0  0  0  0  0  0  0  0  0  0  0  0
  -30.4240  -12.9400   19.7120 C   0  0  0  0  0  2  0  0  0  0  0  0
  -29.5310  -12.7760   18.4610 C   0  0  0  0  0  2  0  0  0  0  0  0
  -28.0760  -12.4700   18.8710 C   0  0  0  0  0  2  0  0  0  0  0  0
  -27.5640  -13.4230   19.9830 C   0  0  0  0  0  3  0  0  0  0  0  0
  -28.5800  -13.5630   21.1350 C   0  0  0  0  0  2  0  0  0  0  0  0
  -29.8390  -14.0290   20.5380 N   0  0  0  0  0  0  0  0  0  0  0  0
  -31.5390  -15.4820   20.3080 O   0  0  0  0  0  0  0  0  0  0  0  0
  -29.4470  -16.4190   20.6510 N   0  0  0  0  0  4  0  0  0  0  0  0
  -28.4960  -16.0860   20.6750 H   0  0  0  0  0  0  0  0  0  0  0  0
  -25.1480  -13.8640   20.7130 C   0  0  0  0  0  0  0  0  0  0  0  0
  -24.1220  -13.0270   21.0550 C   0  0  0  0  0  0  0  0  0  0  0  0
  -24.6540  -11.7020   20.9920 C   0  0  0  0  0  0  0  0  0  0  0  0
  -26.2370  -13.0470   20.4590 N   0  0  0  0  0  0  0  0  0  0  0  0
  -25.9480  -11.7400   20.6920 N   0  0  0  0  0  0  0  0  0  0  0  0
  -23.9910  -10.4010   21.1420 C   0  0  0  0  0  0  0  0  0  0  0  0
  -24.4350   -9.4490   22.0860 C   0  0  0  0  0  3  0  0  0  0  0  0
  -23.7680   -8.2110   22.2230 C   0  0  0  0  0  3  0  0  0  0  0  0
  -22.6450   -7.9160   21.4150 C   0  0  0  0  0  0  0  0  0  0  0  0
  -22.2220   -8.8580   20.4590 C   0  0  0  0  0  3  0  0  0  0  0  0
  -22.8890  -10.0870   20.3200 C   0  0  0  0  0  3  0  0  0  0  0  0
  -21.9510   -6.7300   21.4610 O   0  0  0  0  0  0  0  0  0  0  0  0
  -21.8600   -5.9960   22.6140 C   0  0  0  0  0  0  0  0  0  0  0  0
  -21.3010   -6.5290   23.7970 C   0  0  0  0  0  3  0  0  0  0  0  0
  -21.1630   -5.7160   24.9380 C   0  0  0  0  0  3  0  0  0  0  0  0
  -21.5710   -4.3690   24.9000 C   0  0  0  0  0  0  0  0  0  0  0  0
  -22.1220   -3.8350   23.7230 C   0  0  0  0  0  3  0  0  0  0  0  0
  -22.2630   -4.6450   22.5830 C   0  0  0  0  0  0  0  0  0  0  0  0
  -22.7750   -4.1200   21.4440 F   0  0  0  0  0  0  0  0  0  0  0  0
  -21.4300   -3.5860   25.9960 F   0  0  0  0  0  0  0  0  0  0  0  0
  -22.6990  -13.4250   21.3210 C   0  0  0  0  0  0  0  0  0  0  0  0
  -22.0060  -12.6860   22.1810 N   0  0  0  0  0  0  0  0  0  0  0  0
  -22.2090  -14.4270   20.8020 O   0  0  0  0  0  0  0  0  0  0  0  0
  -22.4140  -11.8770   22.6250 H   0  0  0  0  0  0  0  0  0  0  0  0
  -21.0520  -12.9340   22.4010 H   0  0  0  0  0  0  0  0  0  0  0  0
  -25.2410  -15.2440   20.5700 N   0  0  0  0  0  0  0  0  0  0  0  0
  -24.4310  -15.8430   20.6710 H   0  0  0  0  0  0  0  0  0  0  0  0
  -26.0470  -15.7280   20.1980 H   0  0  0  0  0  0  0  0  0  0  0  0
  -30.8840  -18.3280   21.6300 C   0  0  0  0  0  2  0  0  0  0  0  0
  -30.1470  -19.2840   23.8920 C   0  0  0  0  0  1  0  0  0  0  0  0
  -32.3920  -18.1550   23.6740 C   0  0  0  0  0  1  0  0  0  0  0  0
  -30.9410  -18.1800   23.1710 C   0  0  0  0  0  3  0  0  0  0  0  0
  1 19  1  0
  1 64  1  0
  2  1  1  0
  3  2  1  0
  4  2  1  0
  5 15  1  0
  5  6  1  0
  5  2  1  0
  6  7  2  0
  8 14  1  0
  8  6  1  0
 10  9  2  0
 11  9  1  0
 12 10  1  0
 13 11  2  0
 14 12  2  0
 14 13  1  0
 16 15  1  0
 17 16  1  0
 18 16  1  0
 20 21  1  0
 20 19  2  0
 22 23  1  0
 22 21  2  0
 23 25  1  0
 24 35  2  0
 25 30  1  0
 26 34  1  0
 26 36  1  0
 27 33  1  0
 27 29  1  0
 28 34  1  0
 29 28  1  0
 30 29  2  0
 31 32  1  0
 31 25  2  0
 32 27  2  0
 33 26  1  0
 34 24  1  0
 36 38  2  0
 37 36  1  0
 39 37  1  0
 40 49  2  0
 40 45  1  0
 41 37  1  0
 41 45  1  0
 42 41  1  0
 43 44  1  0
 43 42  1  0
 44 40  1  0
 45 46  2  0
 46 47  1  0
 48 47  2  0
 49 48  1  0
 50 24  1  0
 50 51  1  0
 50 60  1  0
 51 54  1  0
 52 56  1  0
 52 51  1  0
 53 52  2  0
 56 55  1  0
 58 56  1  0
 58 59  1  0
 58 57  1  0
 60 63  1  1
 60 61  1  0
 62 60  1  0
 64103  1  0
 65 73  1  0
 66 71  1  0
 67 68  1  0
 67 66  1  0
 69 68  1  0
 69 78  1  0
 69 70  1  0
 71 65  1  0
 71 70  1  0
 72 65  2  0
 73 74  1  0
 73 64  2  0
 75 76  2  0
 76 95  1  0
 77 76  1  0
 77 80  1  0
 78 79  1  0
 78 75  1  0
 79 77  2  0
 80 81  1  0
 81 82  2  0
 83 86  1  0
 83 82  1  0
 84 83  2  0
 85 84  1  0
 85 80  2  0
 86 87  1  0
 87 88  1  0
 88 89  2  0
 90 89  1  0
 90 94  1  0
 91 90  2  0
 92 87  2  0
 92 91  1  0
 93 92  1  0
 95 96  1  0
 96 99  1  0
 96 98  1  0
 97 95  2  0
100101  1  0
100 75  1  0
102100  1  0
103106  1  0
106105  1  0
106104  1  0
M  ISO  4  22 101  23 101  65 100  73 100
M  END
>  <TORSDO>  (47) 
F 30

>  <SCORE>  (47) 
-6.925

>  <name>  (47) 
46

>  <ligand_id>  (47) 
46

>  <original_smiles>  (47) 
[H]c1c([H])c([H])c(C([H])([H])C(=O)C([H])(C([H])([H])N([H])[H])[N+]([H])([H])C([H])(C([H])([H])C([H])([H])C([H])([H])C([H])([H])Oc2c([H])c([H])c3c(c2[H])C([H])([H])N(C(=O)C([H])(N([H])C(=O)C([H])(N([H])C([H])([H])[H])C([H])([H])[H])C(C([H])([H])[H])(C([H])([H])[H])C([H])([H])[H])C([H])(C(=O)N([H])C2([H])c4c([H])c([H])c([H])c([H])c4C([H])([H])C([H])([H])C2([H])[H])C3([H])[H])C([H])(N([H])C(=O)N2C([H])([H])C([H])([H])C([H])([H])C([H])(n3nc(-c4c([H])c([H])c(Oc5c([H])c([H])c(F)c([H])c5F)c([H])c4[H])c(C(=O)N([H])[H])c3N([H])[H])C2([H])[H])C([H])([H])C([H])(C([H])([H])[H])C([H])([H])[H])c([H])c1[H]

>  <smiles>  (47) 
[H]c1c([H])c([H])c(C([H])([H])C(=O)C([H])(C([H])([H])N([H])[H])[N+]([H])([H])C([H])(C([H])([H])C([H])([H])C([H])([H])C([H])([H])Oc2c([H])c([H])c3c(c2[H])C([H])([H])N(C(=O)C([H])(N([H])C(=O)C([H])(N([H])C([H])([H])[H])C([H])([H])[H])C(C([H])([H])[H])(C([H])([H])[H])C([H])([H])[H])C([H])(C(=O)N([H])C2([H])c4c([H])c([H])c([H])c([H])c4C([H])([H])C([H])([H])C2([H])[H])C3([H])[H])C([H])(N([H])C(=O)N2C([H])([H])C([H])([H])C([H])([H])C([H])(n3nc(-c4c([H])c([H])c(Oc5c([H])c([H])c(F)c([H])c5F)c([H])c4[H])c(C(=O)N([H])[H])c3N([H])[H])C2([H])[H])C([H])([H])C([H])(C([H])([H])[H])C([H])([H])[H])c([H])c1[H]

$$$$
47:0:0
     RDKit          3D

 91 99  0  0  1  0  0  0  0  0999 V2000
  -29.8020  -19.5650   19.9640 C   0  0  0  0  0  0  0  0  0  0  0  0
  -30.3170  -21.6090   22.7680 C   0  0  0  0  0  2  0  0  0  0  0  0
  -30.2650  -22.8170   21.8470 C   0  0  0  0  0  2  0  0  0  0  0  0
  -29.3360  -20.6320   22.1380 C   0  0  0  0  0  2  0  0  0  0  0  0
  -29.8330  -22.3120   20.4470 C   0  0  0  0  0  3  0  0  0  0  0  0
  -29.5490  -20.7600   20.6990 N   0  0  0  0  0  0  0  0  0  0  0  0
  -29.6030  -19.6150   18.7490 O   0  0  0  0  0  0  0  0  0  0  0  0
  -31.4550  -18.3920   21.7010 C   0  0  0  0  0  1  0  0  0  0  0  0
  -30.5240  -18.1490   20.4950 C   0  0  0  0  0  3  0  0  0  0  0  0
  -29.9200  -16.5780   20.5070 C   0  0  0  0  0  2  0  0  0  0  0  0
  -30.7930  -15.1730   20.3450 C   0  0  0  0  0  0  0  0  0  0  0  0
  -30.6960  -12.8340   19.3750 C   0  0  0  0  0  2  0  0  0  0  0  0
  -29.7760  -12.8510   18.1310 C   0  0  0  0  0  2  0  0  0  0  0  0
  -28.3000  -12.6580   18.5270 C   0  0  0  0  0  2  0  0  0  0  0  0
  -27.8950  -13.5510   19.7270 C   0  0  0  0  0  3  0  0  0  0  0  0
  -28.9320  -13.5050   20.8650 C   0  0  0  0  0  2  0  0  0  0  0  0
  -30.2260  -13.9020   20.3000 N   0  0  0  0  0  0  0  0  0  0  0  0
  -31.9990  -15.2460   20.0720 O   0  0  0  0  0  0  0  0  0  0  0  0
  -25.5050  -14.1510   20.4220 C   0  0  0  0  0  0  0  0  0  0  0  0
  -24.4300  -13.3850   20.7760 C   0  0  0  0  0  0  0  0  0  0  0  0
  -24.8840  -12.0300   20.7610 C   0  0  0  0  0  0  0  0  0  0  0  0
  -26.5460  -13.2640   20.2000 N   0  0  0  0  0  0  0  0  0  0  0  0
  -26.1800  -11.9820   20.4700 N   0  0  0  0  0  0  0  0  0  0  0  0
  -24.1460  -10.7750   20.9490 C   0  0  0  0  0  0  0  0  0  0  0  0
  -24.5550   -9.8110   21.8970 C   0  0  0  0  0  3  0  0  0  0  0  0
  -23.8190   -8.6190   22.0710 C   0  0  0  0  0  3  0  0  0  0  0  0
  -22.6570   -8.3850   21.2960 C   0  0  0  0  0  0  0  0  0  0  0  0
  -22.2670   -9.3350   20.3350 C   0  0  0  0  0  3  0  0  0  0  0  0
  -23.0060  -10.5190   20.1600 C   0  0  0  0  0  3  0  0  0  0  0  0
  -21.8900   -7.2480   21.3780 O   0  0  0  0  0  0  0  0  0  0  0  0
  -21.8150   -6.5120   22.5330 C   0  0  0  0  0  0  0  0  0  0  0  0
  -21.3670   -7.0760   23.7480 C   0  0  0  0  0  3  0  0  0  0  0  0
  -21.2420   -6.2680   24.8960 C   0  0  0  0  0  3  0  0  0  0  0  0
  -21.5560   -4.8970   24.8290 C   0  0  0  0  0  0  0  0  0  0  0  0
  -21.9980   -4.3320   23.6180 C   0  0  0  0  0  3  0  0  0  0  0  0
  -22.1260   -5.1390   22.4740 C   0  0  0  0  0  0  0  0  0  0  0  0
  -22.5330   -4.5870   21.3050 F   0  0  0  0  0  0  0  0  0  0  0  0
  -21.4290   -4.1180   25.9270 F   0  0  0  0  0  0  0  0  0  0  0  0
  -23.0310  -13.8740   21.0230 C   0  0  0  0  0  0  0  0  0  0  0  0
  -22.2890  -13.1910   21.8880 N   0  0  0  0  0  0  0  0  0  0  0  0
  -22.6050  -14.8940   20.4830 O   0  0  0  0  0  0  0  0  0  0  0  0
  -22.6470  -12.3670   22.3470 H   0  0  0  0  0  0  0  0  0  0  0  0
  -21.3470  -13.4950   22.0950 H   0  0  0  0  0  0  0  0  0  0  0  0
  -25.6800  -15.5220   20.2440 N   0  0  0  0  0  0  0  0  0  0  0  0
  -24.9120  -16.1810   20.3140 H   0  0  0  0  0  0  0  0  0  0  0  0
  -26.5450  -15.9510   19.9390 H   0  0  0  0  0  0  0  0  0  0  0  0
  -28.8400  -23.5070   19.7740 C   0  0  0  0  0  3  0  0  0  0  0  0
  -27.7870  -23.9090   17.4540 C   0  0  0  0  0  1  0  0  0  0  0  0
  -29.0310  -23.4840   18.2470 C   0  0  0  0  0  2  0  0  0  0  0  0
  -28.8330  -25.1100   20.3450 C   0  0  0  0  0  2  0  0  0  0  0  0
  -28.6720  -26.4870   19.6510 O   0  0  0  0  0  0  0  0  0  0  0  0
  -24.6510  -31.6840   23.0250 C   0  0  0  0  0  0  0  0  0  0  0  0
  -27.5200  -27.3340   19.7620 C   0  0  0  0  0  0  0  0  0  0  0  0
  -23.5310  -30.2900   21.3260 C   0  0  0  0  0  3  0  0  0  0  0  0
  -25.0710  -28.8880   19.8230 C   0  0  0  0  0  0  0  0  0  0  0  0
  -26.0560  -30.7550   21.1480 C   0  0  0  0  0  2  0  0  0  0  0  0
  -26.2210  -29.4020   20.4340 C   0  0  0  0  0  0  0  0  0  0  0  0
  -27.4500  -28.6470   20.3760 C   0  0  0  0  0  3  0  0  0  0  0  0
  -26.3330  -26.9010   19.1380 C   0  0  0  0  0  3  0  0  0  0  0  0
  -25.1350  -27.6490   19.1620 C   0  0  0  0  0  3  0  0  0  0  0  0
  -23.7850  -29.6940   19.9150 C   0  0  0  0  0  2  0  0  0  0  0  0
  -24.7650  -30.9300   21.8900 N   0  0  0  0  0  0  0  0  0  0  0  0
  -23.5550  -31.8650   23.5760 O   0  0  0  0  0  0  0  0  0  0  0  0
  -22.9360  -29.1930   22.2430 C   0  0  0  0  0  0  0  0  0  0  0  0
  -21.6230  -28.9300   22.1140 N   0  0  0  0  0  0  0  0  0  0  0  0
  -23.6580  -28.5790   23.0320 O   0  0  0  0  0  0  0  0  0  0  0  0
  -21.0920  -29.4860   21.4580 H   0  0  0  0  0  0  0  0  0  0  0  0
  -18.3460  -27.4520   22.5620 C   0  0  0  0  0  0  0  0  0  0  0  0
  -20.8770  -27.9000   22.8420 C   0  0  0  0  0  3  0  0  0  0  0  0
  -21.0870  -26.5050   22.2100 C   0  0  0  0  0  2  0  0  0  0  0  0
  -20.0120  -26.1410   21.1810 C   0  0  0  0  0  2  0  0  0  0  0  0
  -18.6240  -26.1510   21.8290 C   0  0  0  0  0  2  0  0  0  0  0  0
  -19.4030  -28.2820   23.0240 C   0  0  0  0  0  0  0  0  0  0  0  0
  -19.0860  -29.4950   23.6720 C   0  0  0  0  0  3  0  0  0  0  0  0
  -17.7470  -29.8860   23.8570 C   0  0  0  0  0  3  0  0  0  0  0  0
  -16.7050  -29.0550   23.4090 C   0  0  0  0  0  3  0  0  0  0  0  0
  -17.0050  -27.8400   22.7690 C   0  0  0  0  0  3  0  0  0  0  0  0
  -25.8900  -32.3770   23.6720 C   0  0  0  0  0  3  0  0  0  0  0  0
  -25.4870  -33.7340   24.0710 N   0  0  0  0  0  0  0  0  0  0  0  0
  -25.7420  -34.8450   23.3660 C   0  0  0  0  0  0  0  0  0  0  0  0
  -26.4090  -34.8380   22.3290 O   0  0  0  0  0  0  0  0  0  0  0  0
  -24.8900  -33.8080   24.8810 H   0  0  0  0  0  0  0  0  0  0  0  0
  -23.8880  -36.5310   23.1260 C   0  0  0  0  0  1  0  0  0  0  0  0
  -25.1680  -36.1730   23.8990 C   0  0  0  0  0  3  0  0  0  0  0  0
  -27.2510  -37.1670   24.7410 C   0  0  0  0  0  1  0  0  0  0  0  0
  -26.1240  -37.3010   23.8220 N   0  0  0  0  0  0  0  0  0  0  0  0
  -25.6550  -38.1810   24.0210 H   0  0  0  0  0  0  0  0  0  0  0  0
  -26.4640  -31.5860   24.9130 C   0  0  1  0  0  0  0  0  0  0  0  0
  -25.3980  -31.2330   25.9770 C   0  0  0  0  0  1  0  0  0  0  0  0
  -27.1310  -30.2660   24.4640 C   0  0  0  0  0  1  0  0  0  0  0  0
  -27.5660  -32.4250   25.6040 C   0  0  0  0  0  1  0  0  0  0  0  0
  1  9  1  0
  1  6  1  0
  3  2  1  0
  4  2  1  0
  5 47  1  0
  5  6  1  0
  5  3  1  0
  6  4  1  0
  7  1  2  0
  9 10  1  0
  9  8  1  0
 11 10  1  0
 12 17  1  0
 13 14  1  0
 13 12  1  0
 15 14  1  0
 15 22  1  0
 15 16  1  0
 17 11  1  0
 17 16  1  0
 18 11  2  0
 19 20  2  0
 20 39  1  0
 21 20  1  0
 21 24  1  0
 22 19  1  0
 22 23  1  0
 23 21  2  0
 24 25  1  0
 25 26  2  0
 27 30  1  0
 27 26  1  0
 28 27  2  0
 29 28  1  0
 29 24  2  0
 30 31  1  0
 31 32  1  0
 32 33  2  0
 34 33  1  0
 34 38  1  0
 35 34  2  0
 36 31  2  0
 36 35  1  0
 37 36  1  0
 39 40  1  0
 40 43  1  0
 40 42  1  0
 41 39  2  0
 44 45  1  0
 44 19  1  0
 46 44  1  0
 47 49  1  0
 47 50  1  0
 48 49  1  0
 51 53  1  0
 51 50  1  0
 52 63  2  0
 53 58  1  0
 54 62  1  0
 54 64  1  0
 55 61  1  0
 55 57  1  0
 56 62  1  0
 57 56  1  0
 58 57  2  0
 59 60  1  0
 59 53  2  0
 60 55  2  0
 61 54  1  0
 62 52  1  0
 64 66  2  0
 65 64  1  0
 67 65  1  0
 68 77  2  0
 68 73  1  0
 69 65  1  0
 69 73  1  0
 70 69  1  0
 71 72  1  0
 71 70  1  0
 72 68  1  0
 73 74  2  0
 74 75  1  0
 76 75  2  0
 77 76  1  0
 78 52  1  0
 78 79  1  0
 78 88  1  0
 79 82  1  0
 80 84  1  0
 80 79  1  0
 81 80  2  0
 84 83  1  0
 86 84  1  0
 86 87  1  0
 86 85  1  0
 88 91  1  1
 88 89  1  0
 90 88  1  0
M  ISO  4  10 100  11 100  50 101  51 101
M  END
>  <TORSDO>  (48) 
F 21

>  <SCORE>  (48) 
-12.960

>  <name>  (48) 
47

>  <ligand_id>  (48) 
47

>  <original_smiles>  (48) 
[H]c1c([H])c([H])c2c(c1[H])C([H])([H])C([H])([H])C([H])([H])C2([H])N([H])C(=O)C1([H])N(C(=O)C([H])(N([H])C(=O)C([H])(N([H])C([H])([H])[H])C([H])([H])[H])C(C([H])([H])[H])(C([H])([H])[H])C([H])([H])[H])C([H])([H])c2c([H])c(OC([H])([H])C([H])(C([H])([H])C([H])([H])[H])C3([H])N(C(=O)C([H])(C([H])([H])[H])C([H])([H])C(=O)N4C([H])([H])C([H])([H])C([H])([H])C([H])(n5nc(-c6c([H])c([H])c(Oc7c([H])c([H])c(F)c([H])c7F)c([H])c6[H])c(C(=O)N([H])[H])c5N([H])[H])C4([H])[H])C([H])([H])C([H])([H])C3([H])[H])c([H])c([H])c2C1([H])[H]

>  <smiles>  (48) 
[H]c1c([H])c([H])c2c(c1[H])C([H])([H])C([H])([H])C([H])([H])C2([H])N([H])C(=O)C1([H])N(C(=O)C([H])(N([H])C(=O)C([H])(N([H])C([H])([H])[H])C([H])([H])[H])C(C([H])([H])[H])(C([H])([H])[H])C([H])([H])[H])C([H])([H])c2c([H])c(OC([H])([H])C([H])(C([H])([H])C([H])([H])[H])C3([H])N(C(=O)C([H])(C([H])([H])[H])C([H])([H])C(=O)N4C([H])([H])C([H])([H])C([H])([H])C([H])(n5nc(-c6c([H])c([H])c(Oc7c([H])c([H])c(F)c([H])c7F)c([H])c6[H])c(C(=O)N([H])[H])c5N([H])[H])C4([H])[H])C([H])([H])C([H])([H])C3([H])[H])c([H])c([H])c2C1([H])[H]

$$$$
48:0:0
     RDKit          3D

 95103  0  0  1  0  0  0  0  0999 V2000
  -28.8100  -20.7330   20.5140 C   0  0  0  0  0  2  0  0  0  0  0  0
  -30.6790  -14.8210   19.9710 C   0  0  0  0  0  0  0  0  0  0  0  0
  -30.3770  -12.5600   18.9430 C   0  0  0  0  0  2  0  0  0  0  0  0
  -29.3720  -12.6160   17.7720 C   0  0  0  0  0  2  0  0  0  0  0  0
  -27.9380  -12.4300   18.2960 C   0  0  0  0  0  2  0  0  0  0  0  0
  -27.6360  -13.3060   19.5440 C   0  0  0  0  0  3  0  0  0  0  0  0
  -28.7600  -13.2300   20.5960 C   0  0  0  0  0  2  0  0  0  0  0  0
  -29.9980  -13.6200   19.9100 N   0  0  0  0  0  0  0  0  0  0  0  0
  -31.8620  -14.8250   19.6090 O   0  0  0  0  0  0  0  0  0  0  0  0
  -29.7780  -18.5800   19.1010 C   0  0  0  0  0  2  0  0  0  0  0  0
  -28.9140  -18.1550   21.2730 C   0  0  0  0  0  2  0  0  0  0  0  0
  -30.5140  -17.1690   19.1290 C   0  0  0  0  0  2  0  0  0  0  0  0
  -29.4730  -16.6560   21.2670 C   0  0  0  0  0  2  0  0  0  0  0  0
  -29.6510  -19.3140   20.4760 C   0  0  2  0  0  0  0  0  0  0  0  0
  -29.9960  -16.0570   20.0040 N   0  0  0  0  0  0  0  0  0  0  0  0
  -25.3060  -13.8810   20.4350 C   0  0  0  0  0  0  0  0  0  0  0  0
  -24.2670  -13.1010   20.8540 C   0  0  0  0  0  0  0  0  0  0  0  0
  -24.7230  -11.7500   20.7540 C   0  0  0  0  0  0  0  0  0  0  0  0
  -26.3300  -13.0080   20.1130 N   0  0  0  0  0  0  0  0  0  0  0  0
  -25.9910  -11.7190   20.3670 N   0  0  0  0  0  0  0  0  0  0  0  0
  -24.0090  -10.4850   20.9510 C   0  0  0  0  0  0  0  0  0  0  0  0
  -24.4630   -9.5210   21.8780 C   0  0  0  0  0  3  0  0  0  0  0  0
  -23.7520   -8.3160   22.0630 C   0  0  0  0  0  3  0  0  0  0  0  0
  -22.5670   -8.0710   21.3250 C   0  0  0  0  0  0  0  0  0  0  0  0
  -22.1340   -9.0250   20.3870 C   0  0  0  0  0  3  0  0  0  0  0  0
  -22.8470  -10.2200   20.1980 C   0  0  0  0  0  3  0  0  0  0  0  0
  -21.8200   -6.9220   21.4270 O   0  0  0  0  0  0  0  0  0  0  0  0
  -21.7420   -6.2150   22.5980 C   0  0  0  0  0  0  0  0  0  0  0  0
  -21.2700   -6.7960   23.7970 C   0  0  0  0  0  3  0  0  0  0  0  0
  -21.1430   -6.0080   24.9580 C   0  0  0  0  0  3  0  0  0  0  0  0
  -21.4760   -4.6410   24.9230 C   0  0  0  0  0  0  0  0  0  0  0  0
  -21.9400   -4.0610   23.7280 C   0  0  0  0  0  3  0  0  0  0  0  0
  -22.0720   -4.8460   22.5700 C   0  0  0  0  0  0  0  0  0  0  0  0
  -22.5000   -4.2740   21.4180 F   0  0  0  0  0  0  0  0  0  0  0  0
  -21.3490   -3.8810   26.0380 F   0  0  0  0  0  0  0  0  0  0  0  0
  -22.8890  -13.5710   21.2240 C   0  0  0  0  0  0  0  0  0  0  0  0
  -22.2100  -12.8530   22.1070 N   0  0  0  0  0  0  0  0  0  0  0  0
  -22.4270  -14.6140   20.7610 O   0  0  0  0  0  0  0  0  0  0  0  0
  -22.5930  -12.0050   22.4990 H   0  0  0  0  0  0  0  0  0  0  0  0
  -21.2910  -13.1540   22.3960 H   0  0  0  0  0  0  0  0  0  0  0  0
  -25.4670  -15.2550   20.2800 N   0  0  0  0  0  0  0  0  0  0  0  0
  -24.7110  -15.9070   20.4530 H   0  0  0  0  0  0  0  0  0  0  0  0
  -26.3010  -15.7040   19.9240 H   0  0  0  0  0  0  0  0  0  0  0  0
  -31.0680  -19.6080   21.0370 C   0  0  0  0  0  0  0  0  0  0  0  0
  -31.3790  -19.2510   22.2770 N   0  0  0  0  0  0  0  0  0  0  0  0
  -31.9060  -20.1810   20.3450 O   0  0  0  0  0  0  0  0  0  0  0  0
  -30.7170  -18.7570   22.8600 H   0  0  0  0  0  0  0  0  0  0  0  0
  -32.2940  -19.4620   22.6440 H   0  0  0  0  0  0  0  0  0  0  0  0
  -28.9160  -22.2090   18.3900 C   0  0  0  0  0  1  0  0  0  0  0  0
  -29.2440  -22.1920   19.8930 C   0  0  0  0  0  3  0  0  0  0  0  0
  -28.7600  -23.6060   20.6100 C   0  0  0  0  0  3  0  0  0  0  0  0
  -29.9440  -23.0310   22.8960 C   0  0  0  0  0  1  0  0  0  0  0  0
  -29.7710  -24.0130   21.7200 C   0  0  0  0  0  2  0  0  0  0  0  0
  -28.4350  -24.9490   19.7070 C   0  0  0  0  0  2  0  0  0  0  0  0
  -28.3400  -26.3700   20.2470 O   0  0  0  0  0  0  0  0  0  0  0  0
  -24.6310  -31.8870   23.2160 C   0  0  0  0  0  0  0  0  0  0  0  0
  -27.2210  -27.2460   20.1580 C   0  0  0  0  0  0  0  0  0  0  0  0
  -23.4230  -30.4840   21.5820 C   0  0  0  0  0  3  0  0  0  0  0  0
  -24.8650  -28.9200   20.1480 C   0  0  0  0  0  0  0  0  0  0  0  0
  -25.9640  -30.7800   21.3910 C   0  0  0  0  0  2  0  0  0  0  0  0
  -26.0370  -29.3900   20.7530 C   0  0  0  0  0  0  0  0  0  0  0  0
  -27.2080  -28.5630   20.7490 C   0  0  0  0  0  3  0  0  0  0  0  0
  -26.0190  -26.8550   19.5190 C   0  0  0  0  0  3  0  0  0  0  0  0
  -24.8660  -27.6660   19.5180 C   0  0  0  0  0  3  0  0  0  0  0  0
  -23.6310  -29.8000   20.2040 C   0  0  0  0  0  2  0  0  0  0  0  0
  -24.6940  -31.0720   22.1200 N   0  0  0  0  0  0  0  0  0  0  0  0
  -23.5480  -32.1670   23.7520 O   0  0  0  0  0  0  0  0  0  0  0  0
  -22.7550  -29.4770   22.5510 C   0  0  0  0  0  0  0  0  0  0  0  0
  -21.4260  -29.3080   22.4350 N   0  0  0  0  0  0  0  0  0  0  0  0
  -23.4330  -28.8520   23.3700 O   0  0  0  0  0  0  0  0  0  0  0  0
  -20.9370  -29.8640   21.7470 H   0  0  0  0  0  0  0  0  0  0  0  0
  -18.0500  -28.1090   22.9570 C   0  0  0  0  0  0  0  0  0  0  0  0
  -20.6100  -28.3710   23.2100 C   0  0  0  0  0  3  0  0  0  0  0  0
  -20.7110  -26.9390   22.6370 C   0  0  0  0  0  2  0  0  0  0  0  0
  -19.6030  -26.6150   21.6300 C   0  0  0  0  0  2  0  0  0  0  0  0
  -18.2230  -26.7600   22.2810 C   0  0  0  0  0  2  0  0  0  0  0  0
  -19.1700  -28.8720   23.3780 C   0  0  0  0  0  0  0  0  0  0  0  0
  -18.9520  -30.1350   23.9730 C   0  0  0  0  0  3  0  0  0  0  0  0
  -17.6480  -30.6330   24.1500 C   0  0  0  0  0  3  0  0  0  0  0  0
  -16.5430  -29.8670   23.7420 C   0  0  0  0  0  3  0  0  0  0  0  0
  -16.7430  -28.6070   23.1500 C   0  0  0  0  0  3  0  0  0  0  0  0
  -25.9130  -32.5250   23.8320 C   0  0  0  0  0  3  0  0  0  0  0  0
  -25.6010  -33.9200   24.1780 N   0  0  0  0  0  0  0  0  0  0  0  0
  -25.9140  -34.9820   23.4230 C   0  0  0  0  0  0  0  0  0  0  0  0
  -26.5660  -34.8900   22.3800 O   0  0  0  0  0  0  0  0  0  0  0  0
  -25.0270  -34.0660   24.9950 H   0  0  0  0  0  0  0  0  0  0  0  0
  -24.1740  -36.7750   23.1130 C   0  0  0  0  0  1  0  0  0  0  0  0
  -25.4320  -36.3670   23.8990 C   0  0  0  0  0  3  0  0  0  0  0  0
  -27.5750  -37.2590   24.7000 C   0  0  0  0  0  1  0  0  0  0  0  0
  -26.4580  -37.4250   23.7750 N   0  0  0  0  0  0  0  0  0  0  0  0
  -26.0490  -38.3420   23.9330 H   0  0  0  0  0  0  0  0  0  0  0  0
  -26.4410  -31.7480   25.1010 C   0  0  1  0  0  0  0  0  0  0  0  0
  -25.3560  -31.4980   26.1750 C   0  0  0  0  0  1  0  0  0  0  0  0
  -27.0260  -30.3750   24.6970 C   0  0  0  0  0  1  0  0  0  0  0  0
  -27.5940  -32.5410   25.7610 C   0  0  0  0  0  1  0  0  0  0  0  0
  2 15  1  0
  3  8  1  0
  4  5  1  0
  4  3  1  0
  6  5  1  0
  6 19  1  0
  6  7  1  0
  8  2  1  0
  8  7  1  0
  9  2  2  0
 10 12  1  0
 10 14  1  0
 12 15  1  0
 13 11  1  0
 14  1  1  6
 14 44  1  0
 14 11  1  0
 15 13  1  0
 16 17  2  0
 17 36  1  0
 18 17  1  0
 18 21  1  0
 19 20  1  0
 19 16  1  0
 20 18  2  0
 21 22  1  0
 22 23  2  0
 24 27  1  0
 24 23  1  0
 25 24  2  0
 26 25  1  0
 26 21  2  0
 27 28  1  0
 28 29  1  0
 29 30  2  0
 31 30  1  0
 31 35  1  0
 32 31  2  0
 33 28  2  0
 33 32  1  0
 34 33  1  0
 36 37  1  0
 37 40  1  0
 37 39  1  0
 38 36  2  0
 41 16  1  0
 41 42  1  0
 43 41  1  0
 44 45  1  0
 45 48  1  0
 45 47  1  0
 46 44  2  0
 50 49  1  0
 50  1  1  0
 50 51  1  0
 51 54  1  0
 51 53  1  0
 53 52  1  0
 54 55  1  0
 56 67  2  0
 57 55  1  0
 57 62  1  0
 58 66  1  0
 58 68  1  0
 59 65  1  0
 59 61  1  0
 60 66  1  0
 61 60  1  0
 62 61  2  0
 63 57  2  0
 64 63  1  0
 64 59  2  0
 65 58  1  0
 66 56  1  0
 68 70  2  0
 69 68  1  0
 71 69  1  0
 72 81  2  0
 72 77  1  0
 73 69  1  0
 73 77  1  0
 74 73  1  0
 75 76  1  0
 75 74  1  0
 76 72  1  0
 77 78  2  0
 78 79  1  0
 80 79  2  0
 81 80  1  0
 82 56  1  0
 82 83  1  0
 82 92  1  0
 83 86  1  0
 84 88  1  0
 84 83  1  0
 85 84  2  0
 88 87  1  0
 90 88  1  0
 90 91  1  0
 90 89  1  0
 92 95  1  1
 92 93  1  0
 94 92  1  0
M  ISO  4   2 100  15 100  54 101  55 101
M  END
>  <TORSDO>  (49) 
F 21

>  <SCORE>  (49) 
-13.453

>  <name>  (49) 
48

>  <ligand_id>  (49) 
48

>  <original_smiles>  (49) 
[H]c1c([H])c([H])c2c(c1[H])C([H])([H])C([H])([H])C([H])([H])C2([H])N([H])C(=O)C1([H])N(C(=O)C([H])(N([H])C(=O)C([H])(N([H])C([H])([H])[H])C([H])([H])[H])C(C([H])([H])[H])(C([H])([H])[H])C([H])([H])[H])C([H])([H])c2c([H])c(OC([H])([H])C([H])(C([H])([H])C([H])([H])[H])C([H])(C([H])([H])[H])C([H])([H])C3(C(=O)N([H])[H])C([H])([H])C([H])([H])N(C(=O)N4C([H])([H])C([H])([H])C([H])([H])C([H])(n5nc(-c6c([H])c([H])c(Oc7c([H])c([H])c(F)c([H])c7F)c([H])c6[H])c(C(=O)N([H])[H])c5N([H])[H])C4([H])[H])C([H])([H])C3([H])[H])c([H])c([H])c2C1([H])[H]

>  <smiles>  (49) 
[H]c1c([H])c([H])c2c(c1[H])C([H])([H])C([H])([H])C([H])([H])C2([H])N([H])C(=O)C1([H])N(C(=O)C([H])(N([H])C(=O)C([H])(N([H])C([H])([H])[H])C([H])([H])[H])C(C([H])([H])[H])(C([H])([H])[H])C([H])([H])[H])C([H])([H])c2c([H])c(OC([H])([H])C([H])(C([H])([H])C([H])([H])[H])C([H])(C([H])([H])[H])C([H])([H])C3(C(=O)N([H])[H])C([H])([H])C([H])([H])N(C(=O)N4C([H])([H])C([H])([H])C([H])([H])C([H])(n5nc(-c6c([H])c([H])c(Oc7c([H])c([H])c(F)c([H])c7F)c([H])c6[H])c(C(=O)N([H])[H])c5N([H])[H])C4([H])[H])C([H])([H])C3([H])[H])c([H])c([H])c2C1([H])[H]

$$$$
49:0:0
     RDKit          3D

101109  0  0  1  0  0  0  0  0999 V2000
  -30.3450  -18.8050   20.1820 C   0  0  0  0  0  3  0  0  0  0  0  0
  -32.8230  -22.3350   19.2640 C   0  0  0  0  0  2  0  0  0  0  0  0
  -32.3650  -21.4430   18.1040 C   0  0  0  0  0  2  0  0  0  0  0  0
  -33.1370  -21.4720   20.4910 C   0  0  0  0  0  2  0  0  0  0  0  0
  -31.1790  -20.5430   18.5110 C   0  0  0  0  0  2  0  0  0  0  0  0
  -31.9270  -20.6140   20.9040 C   0  0  0  0  0  2  0  0  0  0  0  0
  -31.4160  -19.7780   19.7810 N   0  0  1  0  0  4  0  0  0  0  0  0
  -32.1880  -19.1600   19.5660 H   0  0  0  0  0  0  0  0  0  0  0  0
  -28.9160  -19.5400   19.9440 C   0  0  0  0  0  2  0  0  0  0  0  0
  -28.4790  -20.9970   20.5660 C   0  0  0  0  0  2  0  0  0  0  0  0
  -28.7460  -22.4310   19.8500 C   0  0  0  0  0  2  0  0  0  0  0  0
  -27.8330  -23.7560   20.0480 C   0  0  0  0  0  2  0  0  0  0  0  0
  -28.3470  -25.0870   20.7920 C   0  0  0  0  0  2  0  0  0  0  0  0
  -28.3600  -26.4580   20.1970 O   0  0  0  0  0  0  0  0  0  0  0  0
  -24.6200  -31.9030   23.2090 C   0  0  0  0  0  0  0  0  0  0  0  0
  -27.2310  -27.2890   20.2300 C   0  0  0  0  0  0  0  0  0  0  0  0
  -23.4200  -30.4810   21.5850 C   0  0  0  0  0  3  0  0  0  0  0  0
  -24.8730  -28.9050   20.1890 C   0  0  0  0  0  0  0  0  0  0  0  0
  -25.9590  -30.7990   21.3980 C   0  0  0  0  0  2  0  0  0  0  0  0
  -26.0420  -29.4070   20.7740 C   0  0  0  0  0  0  0  0  0  0  0  0
  -27.2290  -28.6130   20.7760 C   0  0  0  0  0  3  0  0  0  0  0  0
  -26.0390  -26.8330   19.6350 C   0  0  0  0  0  3  0  0  0  0  0  0
  -24.8740  -27.6240   19.6090 C   0  0  0  0  0  3  0  0  0  0  0  0
  -23.6370  -29.7850   20.2160 C   0  0  0  0  0  2  0  0  0  0  0  0
  -24.6860  -31.0800   22.1200 N   0  0  0  0  0  0  0  0  0  0  0  0
  -23.5360  -32.1830   23.7400 O   0  0  0  0  0  0  0  0  0  0  0  0
  -22.7590  -29.4760   22.5580 C   0  0  0  0  0  0  0  0  0  0  0  0
  -21.4360  -29.2830   22.4230 N   0  0  0  0  0  0  0  0  0  0  0  0
  -23.4350  -28.8720   23.3950 O   0  0  0  0  0  0  0  0  0  0  0  0
  -20.9470  -29.8220   21.7210 H   0  0  0  0  0  0  0  0  0  0  0  0
  -18.0690  -28.0520   22.9050 C   0  0  0  0  0  0  0  0  0  0  0  0
  -20.6200  -28.3510   23.2030 C   0  0  0  0  0  3  0  0  0  0  0  0
  -20.7470  -26.9090   22.6600 C   0  0  0  0  0  2  0  0  0  0  0  0
  -19.6630  -26.5510   21.6380 C   0  0  0  0  0  2  0  0  0  0  0  0
  -18.2710  -26.6920   22.2620 C   0  0  0  0  0  2  0  0  0  0  0  0
  -19.1710  -28.8380   23.3340 C   0  0  0  0  0  0  0  0  0  0  0  0
  -18.9280  -30.1100   23.8970 C   0  0  0  0  0  3  0  0  0  0  0  0
  -17.6150  -30.5970   24.0360 C   0  0  0  0  0  3  0  0  0  0  0  0
  -16.5260  -29.8090   23.6230 C   0  0  0  0  0  3  0  0  0  0  0  0
  -16.7530  -28.5390   23.0650 C   0  0  0  0  0  3  0  0  0  0  0  0
  -25.9010  -32.5460   23.8240 C   0  0  0  0  0  3  0  0  0  0  0  0
  -26.4350  -31.7760   25.0960 C   0  0  1  0  0  0  0  0  0  0  0  0
  -25.3510  -31.5230   26.1690 C   0  0  0  0  0  1  0  0  0  0  0  0
  -27.0310  -30.4060   24.6950 C   0  0  0  0  0  1  0  0  0  0  0  0
  -27.5790  -32.5820   25.7550 C   0  0  0  0  0  1  0  0  0  0  0  0
  -25.5780  -33.9400   24.1640 N   0  0  0  0  0  0  0  0  0  0  0  0
  -25.8930  -35.0000   23.4080 C   0  0  0  0  0  0  0  0  0  0  0  0
  -26.5540  -34.9100   22.3700 O   0  0  0  0  0  0  0  0  0  0  0  0
  -24.9910  -34.0840   24.9720 H   0  0  0  0  0  0  0  0  0  0  0  0
  -24.1570  -36.7890   23.0640 C   0  0  0  0  0  1  0  0  0  0  0  0
  -25.3960  -36.3820   23.8780 C   0  0  0  0  0  3  0  0  0  0  0  0
  -27.5170  -37.2730   24.7340 C   0  0  0  0  0  1  0  0  0  0  0  0
  -26.4230  -37.4410   23.7820 N   0  0  0  0  0  0  0  0  0  0  0  0
  -26.0100  -38.3580   23.9330 H   0  0  0  0  0  0  0  0  0  0  0  0
  -30.6920  -17.3170   19.5240 C   0  0  0  0  0  3  0  0  0  0  0  0
  -30.6910  -14.7400   20.3320 C   0  0  0  0  0  0  0  0  0  0  0  0
  -30.3640  -12.4850   19.3540 C   0  0  0  0  0  2  0  0  0  0  0  0
  -29.4340  -12.5350   18.1270 C   0  0  0  0  0  2  0  0  0  0  0  0
  -27.9680  -12.3860   18.5710 C   0  0  0  0  0  2  0  0  0  0  0  0
  -27.5990  -13.3020   19.7710 C   0  0  0  0  0  3  0  0  0  0  0  0
  -28.6650  -13.2770   20.8840 C   0  0  0  0  0  2  0  0  0  0  0  0
  -29.9480  -13.5890   20.2490 N   0  0  0  0  0  0  0  0  0  0  0  0
  -31.9090  -14.6060   20.3020 O   0  0  0  0  0  0  0  0  0  0  0  0
  -30.1000  -15.9980   20.1220 N   0  0  0  0  0  0  0  0  0  0  0  0
  -29.0920  -15.9770   20.1590 H   0  0  0  0  0  0  0  0  0  0  0  0
  -25.2200  -13.8870   20.5170 C   0  0  0  0  0  0  0  0  0  0  0  0
  -24.1530  -13.1120   20.8800 C   0  0  0  0  0  0  0  0  0  0  0  0
  -24.6170  -11.7610   20.8510 C   0  0  0  0  0  0  0  0  0  0  0  0
  -26.2630  -13.0100   20.2790 N   0  0  0  0  0  0  0  0  0  0  0  0
  -25.9100  -11.7250   20.5490 N   0  0  0  0  0  0  0  0  0  0  0  0
  -23.8900  -10.4990   21.0340 C   0  0  0  0  0  0  0  0  0  0  0  0
  -24.3070   -9.5340   21.9780 C   0  0  0  0  0  3  0  0  0  0  0  0
  -23.5760   -8.3380   22.1510 C   0  0  0  0  0  3  0  0  0  0  0  0
  -22.4140   -8.1000   21.3790 C   0  0  0  0  0  0  0  0  0  0  0  0
  -22.0170   -9.0510   20.4250 C   0  0  0  0  0  3  0  0  0  0  0  0
  -22.7470  -10.2390   20.2500 C   0  0  0  0  0  3  0  0  0  0  0  0
  -21.6550   -6.9560   21.4630 O   0  0  0  0  0  0  0  0  0  0  0  0
  -21.5780   -6.2260   22.6220 C   0  0  0  0  0  0  0  0  0  0  0  0
  -21.1090   -6.7910   23.8280 C   0  0  0  0  0  3  0  0  0  0  0  0
  -20.9770   -5.9860   24.9780 C   0  0  0  0  0  3  0  0  0  0  0  0
  -21.3080   -4.6190   24.9220 C   0  0  0  0  0  0  0  0  0  0  0  0
  -21.7720   -4.0550   23.7210 C   0  0  0  0  0  3  0  0  0  0  0  0
  -21.9040   -4.8570   22.5740 C   0  0  0  0  0  0  0  0  0  0  0  0
  -22.3310   -4.3020   21.4120 F   0  0  0  0  0  0  0  0  0  0  0  0
  -21.1770   -3.8440   26.0230 F   0  0  0  0  0  0  0  0  0  0  0  0
  -22.7550  -13.5910   21.1400 C   0  0  0  0  0  0  0  0  0  0  0  0
  -22.0140  -12.8890   21.9910 N   0  0  0  0  0  0  0  0  0  0  0  0
  -22.3260  -14.6220   20.6250 O   0  0  0  0  0  0  0  0  0  0  0  0
  -22.3720  -12.0570   22.4340 H   0  0  0  0  0  0  0  0  0  0  0  0
  -21.0740  -13.1940   22.2050 H   0  0  0  0  0  0  0  0  0  0  0  0
  -25.3800  -15.2580   20.3400 N   0  0  0  0  0  0  0  0  0  0  0  0
  -24.6060  -15.9040   20.4520 H   0  0  0  0  0  0  0  0  0  0  0  0
  -26.2200  -15.7040   20.0000 H   0  0  0  0  0  0  0  0  0  0  0  0
  -32.2270  -17.0680   19.1980 C   0  0  0  0  0  2  0  0  0  0  0  0
  -33.1380  -17.8780   18.2480 C   0  0  0  0  0  2  0  0  0  0  0  0
  -34.4270  -17.0950   17.9090 C   0  0  0  0  0  2  0  0  0  0  0  0
  -35.5140  -17.9170   17.1890 C   0  0  0  0  0  2  0  0  0  0  0  0
  -35.2040  -18.1650   15.7700 N   0  0  0  0  0  4  0  0  0  0  0  0
  -35.1550  -17.3020   15.2600 H   0  0  0  0  0  0  0  0  0  0  0  0
  -35.9370  -18.7180   15.3610 H   0  0  0  0  0  0  0  0  0  0  0  0
  -34.3400  -18.6610   15.6540 H   0  0  0  0  0  0  0  0  0  0  0  0
  1  9  1  0
  2  4  1  0
  3  5  1  0
  3  2  1  0
  4  6  1  0
  5  7  1  0
  7  1  1  0
  7  6  1  0
  7  8  1  6
  9 10  1  0
 11 12  1  0
 11 10  1  0
 12 13  1  0
 14 16  1  0
 14 13  1  0
 15 26  2  0
 16 21  1  0
 17 25  1  0
 17 27  1  0
 18 24  1  0
 18 20  1  0
 19 25  1  0
 20 21  2  0
 20 19  1  0
 22 16  2  0
 23 22  1  0
 23 18  2  0
 24 17  1  0
 25 15  1  0
 27 29  2  0
 28 27  1  0
 30 28  1  0
 31 40  2  0
 31 36  1  0
 32 28  1  0
 32 36  1  0
 33 32  1  0
 34 35  1  0
 34 33  1  0
 35 31  1  0
 36 37  2  0
 37 38  1  0
 39 38  2  0
 40 39  1  0
 41 15  1  0
 41 46  1  0
 41 42  1  0
 42 45  1  1
 42 43  1  0
 44 42  1  0
 46 49  1  0
 47 51  1  0
 47 46  1  0
 48 47  2  0
 51 50  1  0
 53 51  1  0
 53 54  1  0
 53 52  1  0
 55 94  1  0
 55 64  1  0
 55  1  1  0
 57 62  1  0
 58 59  1  0
 58 57  1  0
 60 59  1  0
 60 69  1  0
 60 61  1  0
 62 56  1  0
 62 61  1  0
 63 56  2  0
 64 65  1  0
 64 56  1  0
 66 67  2  0
 67 86  1  0
 68 67  1  0
 68 71  1  0
 69 66  1  0
 69 70  1  0
 70 68  2  0
 71 72  1  0
 72 73  2  0
 74 77  1  0
 74 73  1  0
 75 74  2  0
 76 75  1  0
 76 71  2  0
 77 78  1  0
 78 79  1  0
 79 80  2  0
 81 80  1  0
 81 85  1  0
 82 81  2  0
 83 78  2  0
 83 82  1  0
 84 83  1  0
 86 87  1  0
 87 90  1  0
 87 89  1  0
 88 86  2  0
 91 92  1  0
 91 66  1  0
 93 91  1  0
 95 94  1  0
 96 95  1  0
 97 96  1  0
 98 97  1  0
 99 98  1  0
100 98  1  0
101 98  1  0
M  ISO  4  13 101  14 101  56 100  64 100
M  END
>  <TORSDO>  (50) 
F 28

>  <SCORE>  (50) 
-11.703

>  <name>  (50) 
49

>  <ligand_id>  (50) 
49

>  <original_smiles>  (50) 
[H]c1c([H])c([H])c2c(c1[H])C([H])([H])C([H])([H])C([H])([H])C2([H])N([H])C(=O)C1([H])N(C(=O)C([H])(N([H])C(=O)C([H])(N([H])C([H])([H])[H])C([H])([H])[H])C(C([H])([H])[H])(C([H])([H])[H])C([H])([H])[H])C([H])([H])c2c([H])c(OC([H])([H])C([H])([H])C([H])([H])C([H])([H])C([H])([H])C([H])(C([H])(N([H])C(=O)N3C([H])([H])C([H])([H])C([H])([H])C([H])(n4nc(-c5c([H])c([H])c(Oc6c([H])c([H])c(F)c([H])c6F)c([H])c5[H])c(C(=O)N([H])[H])c4N([H])[H])C3([H])[H])C([H])([H])C([H])([H])C([H])([H])C([H])([H])[N+]([H])([H])[H])[N+]3([H])C([H])([H])C([H])([H])C([H])([H])C([H])([H])C3([H])[H])c([H])c([H])c2C1([H])[H]

>  <smiles>  (50) 
[H]c1c([H])c([H])c2c(c1[H])C([H])([H])C([H])([H])C([H])([H])C2([H])N([H])C(=O)C1([H])N(C(=O)C([H])(N([H])C(=O)C([H])(N([H])C([H])([H])[H])C([H])([H])[H])C(C([H])([H])[H])(C([H])([H])[H])C([H])([H])[H])C([H])([H])c2c([H])c(OC([H])([H])C([H])([H])C([H])([H])C([H])([H])C([H])([H])C([H])(C([H])(N([H])C(=O)N3C([H])([H])C([H])([H])C([H])([H])C([H])(n4nc(-c5c([H])c([H])c(Oc6c([H])c([H])c(F)c([H])c6F)c([H])c5[H])c(C(=O)N([H])[H])c4N([H])[H])C3([H])[H])C([H])([H])C([H])([H])C([H])([H])C([H])([H])[N+]([H])([H])[H])[N+]3([H])C([H])([H])C([H])([H])C([H])([H])C([H])([H])C3([H])[H])c([H])c([H])c2C1([H])[H]

$$$$
50:0:0
     RDKit          3D

 97105  0  0  1  0  0  0  0  0999 V2000
  -29.2790  -19.2820   19.8980 C   0  0  0  0  0  3  0  0  0  0  0  0
  -30.1840  -19.1370   16.1550 C   0  0  0  0  0  2  0  0  0  0  0  0
  -29.3180  -17.8960   16.3730 C   0  0  0  0  0  2  0  0  0  0  0  0
  -30.4980  -19.6130   17.5730 C   0  0  0  0  0  2  0  0  0  0  0  0
  -28.5170  -18.1810   17.6500 C   0  0  0  0  0  2  0  0  0  0  0  0
  -29.1840  -19.3920   18.3450 C   0  0  0  0  0  3  0  0  0  0  0  0
  -29.1490  -21.9700   20.4700 C   0  0  0  0  0  3  0  0  0  0  0  0
  -30.5500  -22.3160   20.0210 C   0  0  0  0  0  1  0  0  0  0  0  0
  -28.8100  -20.6570   20.5980 N   0  0  0  0  0  2  0  0  0  0  0  0
  -26.8490  -22.9080   21.2480 C   0  0  0  0  0  1  0  0  0  0  0  0
  -27.7740  -23.6700   19.0800 C   0  0  0  0  0  1  0  0  0  0  0  0
  -28.1470  -23.3670   20.5450 C   0  0  2  0  0  0  0  0  0  0  0  0
  -28.5220  -24.8980   21.2190 C   0  0  0  0  0  2  0  0  0  0  0  0
  -28.4520  -26.3890   20.6910 O   0  0  0  0  0  0  0  0  0  0  0  0
  -24.6600  -32.1720   23.4100 C   0  0  0  0  0  0  0  0  0  0  0  0
  -27.3470  -27.3230   20.6900 C   0  0  0  0  0  0  0  0  0  0  0  0
  -23.5130  -30.6920   21.8050 C   0  0  0  0  0  3  0  0  0  0  0  0
  -25.0080  -29.0540   20.5050 C   0  0  0  0  0  0  0  0  0  0  0  0
  -26.0680  -30.9730   21.6900 C   0  0  0  0  0  2  0  0  0  0  0  0
  -26.1700  -29.5460   21.1110 C   0  0  0  0  0  0  0  0  0  0  0  0
  -27.3430  -28.6990   21.1750 C   0  0  0  0  0  3  0  0  0  0  0  0
  -26.1540  -26.9280   20.0550 C   0  0  0  0  0  3  0  0  0  0  0  0
  -25.0130  -27.7580   19.9610 C   0  0  0  0  0  3  0  0  0  0  0  0
  -23.7740  -29.9440   20.4700 C   0  0  0  0  0  2  0  0  0  0  0  0
  -24.7660  -31.3050   22.3550 N   0  0  0  0  0  0  0  0  0  0  0  0
  -23.5580  -32.4670   23.8980 O   0  0  0  0  0  0  0  0  0  0  0  0
  -22.8170  -29.7270   22.7980 C   0  0  0  0  0  0  0  0  0  0  0  0
  -21.5080  -29.4860   22.6030 N   0  0  0  0  0  0  0  0  0  0  0  0
  -23.4610  -29.1910   23.7040 O   0  0  0  0  0  0  0  0  0  0  0  0
  -21.0420  -29.9660   21.8460 H   0  0  0  0  0  0  0  0  0  0  0  0
  -18.1750  -28.1120   22.9500 C   0  0  0  0  0  0  0  0  0  0  0  0
  -20.6820  -28.5640   23.3890 C   0  0  0  0  0  3  0  0  0  0  0  0
  -20.9160  -27.0990   22.9550 C   0  0  0  0  0  2  0  0  0  0  0  0
  -19.9220  -26.6200   21.8910 C   0  0  0  0  0  2  0  0  0  0  0  0
  -18.4860  -26.7260   22.4090 C   0  0  0  0  0  2  0  0  0  0  0  0
  -19.2070  -28.9800   23.3940 C   0  0  0  0  0  0  0  0  0  0  0  0
  -18.8640  -30.2690   23.8570 C   0  0  0  0  0  3  0  0  0  0  0  0
  -17.5220  -30.6930   23.8790 C   0  0  0  0  0  3  0  0  0  0  0  0
  -16.5030  -29.8240   23.4520 C   0  0  0  0  0  3  0  0  0  0  0  0
  -16.8300  -28.5360   22.9930 C   0  0  0  0  0  3  0  0  0  0  0  0
  -25.9140  -32.8500   24.0410 C   0  0  0  0  0  3  0  0  0  0  0  0
  -26.3900  -32.1510   25.3740 C   0  0  1  0  0  0  0  0  0  0  0  0
  -25.2520  -31.9150   26.3930 C   0  0  0  0  0  1  0  0  0  0  0  0
  -27.0450  -30.7830   25.0750 C   0  0  0  0  0  1  0  0  0  0  0  0
  -27.4740  -33.0160   26.0590 C   0  0  0  0  0  1  0  0  0  0  0  0
  -25.5800  -34.2600   24.2980 N   0  0  0  0  0  0  0  0  0  0  0  0
  -25.9140  -35.2860   23.5020 C   0  0  0  0  0  0  0  0  0  0  0  0
  -26.6050  -35.1450   22.4900 O   0  0  0  0  0  0  0  0  0  0  0  0
  -24.9740  -34.4400   25.0860 H   0  0  0  0  0  0  0  0  0  0  0  0
  -24.1710  -37.0420   23.0520 C   0  0  0  0  0  1  0  0  0  0  0  0
  -25.4090  -36.6890   23.8920 C   0  0  0  0  0  3  0  0  0  0  0  0
  -27.5200  -37.6410   24.7060 C   0  0  0  0  0  1  0  0  0  0  0  0
  -26.4300  -37.7490   23.7380 N   0  0  0  0  0  0  0  0  0  0  0  0
  -26.0100  -38.6690   23.8380 H   0  0  0  0  0  0  0  0  0  0  0  0
  -30.3880  -18.0860   20.4190 C   0  0  0  0  0  3  0  0  0  0  0  0
  -30.9090  -15.3390   20.0760 C   0  0  0  0  0  0  0  0  0  0  0  0
  -30.7860  -12.9560   19.1860 C   0  0  0  0  0  2  0  0  0  0  0  0
  -29.8300  -12.8640   17.9750 C   0  0  0  0  0  2  0  0  0  0  0  0
  -28.3720  -12.6680   18.4370 C   0  0  0  0  0  2  0  0  0  0  0  0
  -27.9880  -13.6320   19.5930 C   0  0  0  0  0  3  0  0  0  0  0  0
  -29.0610  -13.6730   20.7000 C   0  0  0  0  0  2  0  0  0  0  0  0
  -30.3160  -14.0770   20.0530 N   0  0  0  0  0  0  0  0  0  0  0  0
  -32.1160  -15.3880   19.8060 O   0  0  0  0  0  0  0  0  0  0  0  0
  -30.1170  -16.5200   20.2210 N   0  0  0  0  0  0  0  0  0  0  0  0
  -29.1390  -16.2950   20.3080 H   0  0  0  0  0  0  0  0  0  0  0  0
  -25.6650  -14.2660   20.4540 C   0  0  0  0  0  0  0  0  0  0  0  0
  -24.5830  -13.5170   20.8200 C   0  0  0  0  0  0  0  0  0  0  0  0
  -24.9860  -12.1510   20.7000 C   0  0  0  0  0  0  0  0  0  0  0  0
  -26.6590  -13.3610   20.1250 N   0  0  0  0  0  0  0  0  0  0  0  0
  -26.2640  -12.0780   20.3400 N   0  0  0  0  0  0  0  0  0  0  0  0
  -24.2120  -10.9110   20.8500 C   0  0  0  0  0  0  0  0  0  0  0  0
  -24.5990   -9.9010   21.7600 C   0  0  0  0  0  3  0  0  0  0  0  0
  -23.8270   -8.7280   21.8990 C   0  0  0  0  0  3  0  0  0  0  0  0
  -22.6530   -8.5550   21.1270 C   0  0  0  0  0  0  0  0  0  0  0  0
  -22.2860   -9.5520   20.2050 C   0  0  0  0  0  3  0  0  0  0  0  0
  -23.0580  -10.7180   20.0650 C   0  0  0  0  0  3  0  0  0  0  0  0
  -21.8550   -7.4380   21.1770 O   0  0  0  0  0  0  0  0  0  0  0  0
  -21.7210   -6.6980   22.3250 C   0  0  0  0  0  0  0  0  0  0  0  0
  -21.2120   -7.2600   23.5160 C   0  0  0  0  0  3  0  0  0  0  0  0
  -21.0230   -6.4490   24.6540 C   0  0  0  0  0  3  0  0  0  0  0  0
  -21.3360   -5.0770   24.5990 C   0  0  0  0  0  0  0  0  0  0  0  0
  -21.8360   -4.5150   23.4130 C   0  0  0  0  0  3  0  0  0  0  0  0
  -22.0270   -5.3230   22.2780 C   0  0  0  0  0  0  0  0  0  0  0  0
  -22.4910   -4.7720   21.1300 F   0  0  0  0  0  0  0  0  0  0  0  0
  -21.1470   -4.2950   25.6890 F   0  0  0  0  0  0  0  0  0  0  0  0
  -23.2170  -14.0370   21.1620 C   0  0  0  0  0  0  0  0  0  0  0  0
  -22.4940  -13.3340   22.0280 N   0  0  0  0  0  0  0  0  0  0  0  0
  -22.8010  -15.0970   20.6970 O   0  0  0  0  0  0  0  0  0  0  0  0
  -22.8440  -12.4770   22.4280 H   0  0  0  0  0  0  0  0  0  0  0  0
  -21.5770  -13.6620   22.2970 H   0  0  0  0  0  0  0  0  0  0  0  0
  -25.8780  -15.6370   20.3420 N   0  0  0  0  0  0  0  0  0  0  0  0
  -25.1330  -16.3040   20.5090 H   0  0  0  0  0  0  0  0  0  0  0  0
  -26.7130  -16.0610   19.9630 H   0  0  0  0  0  0  0  0  0  0  0  0
  -30.7530  -18.2760   21.9120 C   0  0  0  0  0  2  0  0  0  0  0  0
  -31.6920  -19.6880   23.7970 C   0  0  0  0  0  1  0  0  0  0  0  0
  -32.9080  -19.6400   21.5940 C   0  0  0  0  0  1  0  0  0  0  0  0
  -31.5290  -19.5660   22.2730 C   0  0  0  0  0  3  0  0  0  0  0  0
  1 55  1  0
  1  9  1  0
  2  3  1  0
  2  4  1  0
  3  5  1  0
  4  6  1  0
  5  6  1  0
  6  1  1  0
  7  8  1  0
  7 12  1  0
  7  9  1  0
 12 11  1  6
 12 13  1  0
 12 10  1  0
 14 13  1  0
 15 26  2  0
 16 14  1  0
 16 21  1  0
 17 25  1  0
 17 27  1  0
 18 20  1  0
 19 25  1  0
 20 21  2  0
 20 19  1  0
 22 16  2  0
 23 22  1  0
 23 18  2  0
 24 18  1  0
 24 17  1  0
 25 15  1  0
 27 29  2  0
 28 27  1  0
 30 28  1  0
 31 40  2  0
 31 36  1  0
 32 28  1  0
 32 36  1  0
 33 32  1  0
 34 35  1  0
 34 33  1  0
 35 31  1  0
 36 37  2  0
 37 38  1  0
 39 38  2  0
 40 39  1  0
 41 15  1  0
 41 46  1  0
 41 42  1  0
 42 45  1  1
 42 43  1  0
 44 42  1  0
 46 49  1  0
 47 51  1  0
 47 46  1  0
 48 47  2  0
 51 50  1  0
 53 54  1  0
 53 51  1  0
 53 52  1  0
 55 94  1  0
 56 64  1  0
 57 62  1  0
 58 59  1  0
 58 57  1  0
 60 59  1  0
 60 69  1  0
 60 61  1  0
 62 56  1  0
 62 61  1  0
 63 56  2  0
 64 65  1  0
 64 55  1  0
 66 67  2  0
 67 86  1  0
 68 67  1  0
 68 71  1  0
 69 70  1  0
 69 66  1  0
 70 68  2  0
 71 72  1  0
 72 73  2  0
 74 77  1  0
 74 73  1  0
 75 74  2  0
 76 75  1  0
 76 71  2  0
 77 78  1  0
 78 79  1  0
 79 80  2  0
 81 80  1  0
 81 85  1  0
 82 81  2  0
 83 78  2  0
 83 82  1  0
 84 83  1  0
 86 87  1  0
 87 90  1  0
 87 89  1  0
 88 86  2  0
 91 66  1  0
 91 92  1  0
 93 91  1  0
 94 97  1  0
 96 97  1  0
 97 95  1  0
M  ISO  4  13 101  14 101  56 100  64 100
M  END
>  <TORSDO>  (51) 
F 23

>  <SCORE>  (51) 
-12.927

>  <name>  (51) 
50

>  <ligand_id>  (51) 
50

>  <original_smiles>  (51) 
[H]c1c([H])c([H])c2c(c1[H])C([H])([H])C([H])([H])C([H])([H])C2([H])N([H])C(=O)C1([H])N(C(=O)C([H])(N([H])C(=O)C([H])(N([H])C([H])([H])[H])C([H])([H])[H])C(C([H])([H])[H])(C([H])([H])[H])C([H])([H])[H])C([H])([H])c2c([H])c(OC([H])([H])C(C(=NC([H])(C([H])(N([H])C(=O)N3C([H])([H])C([H])([H])C([H])([H])C([H])(n4nc(-c5c([H])c([H])c(Oc6c([H])c([H])c(F)c([H])c6F)c([H])c5[H])c(C(=O)N([H])[H])c4N([H])[H])C3([H])[H])C([H])([H])C([H])(C([H])([H])[H])C([H])([H])[H])C3([H])C([H])([H])C([H])([H])C([H])([H])C3([H])[H])C([H])([H])[H])(C([H])([H])[H])C([H])([H])[H])c([H])c([H])c2C1([H])[H]

>  <smiles>  (51) 
[H]c1c([H])c([H])c2c(c1[H])C([H])([H])C([H])([H])C([H])([H])C2([H])N([H])C(=O)C1([H])N(C(=O)C([H])(N([H])C(=O)C([H])(N([H])C([H])([H])[H])C([H])([H])[H])C(C([H])([H])[H])(C([H])([H])[H])C([H])([H])[H])C([H])([H])c2c([H])c(OC([H])([H])C(C(=NC([H])(C([H])(N([H])C(=O)N3C([H])([H])C([H])([H])C([H])([H])C([H])(n4nc(-c5c([H])c([H])c(Oc6c([H])c([H])c(F)c([H])c6F)c([H])c5[H])c(C(=O)N([H])[H])c4N([H])[H])C3([H])[H])C([H])([H])C([H])(C([H])([H])[H])C([H])([H])[H])C3([H])C([H])([H])C([H])([H])C([H])([H])C3([H])[H])C([H])([H])[H])(C([H])([H])[H])C([H])([H])[H])c([H])c([H])c2C1([H])[H]

$$$$
51:0:0
     RDKit          3D

 94101  0  0  1  0  0  0  0  0999 V2000
  -28.9440  -21.9260   19.7420 C   0  0  0  0  0  3  0  0  0  0  0  0
  -28.8670  -23.3340   21.9810 C   0  0  0  0  0  1  0  0  0  0  0  0
  -29.0150  -23.4550   20.4560 C   0  0  0  0  0  3  0  0  0  0  0  0
  -28.0790  -24.7600   19.9900 C   0  0  0  0  0  2  0  0  0  0  0  0
  -28.2720  -26.2350   20.4090 O   0  0  0  0  0  0  0  0  0  0  0  0
  -24.6780  -31.9480   23.2980 C   0  0  0  0  0  0  0  0  0  0  0  0
  -27.2160  -27.2060   20.3100 C   0  0  0  0  0  0  0  0  0  0  0  0
  -23.4680  -30.5520   21.6650 C   0  0  0  0  0  3  0  0  0  0  0  0
  -24.9040  -28.9540   20.2590 C   0  0  0  0  0  0  0  0  0  0  0  0
  -26.0240  -30.7980   21.5040 C   0  0  0  0  0  2  0  0  0  0  0  0
  -26.0850  -29.4000   20.8670 C   0  0  0  0  0  0  0  0  0  0  0  0
  -27.2420  -28.5410   20.8760 C   0  0  0  0  0  3  0  0  0  0  0  0
  -26.0140  -26.8590   19.6580 C   0  0  0  0  0  3  0  0  0  0  0  0
  -24.8770  -27.6930   19.6440 C   0  0  0  0  0  3  0  0  0  0  0  0
  -23.6890  -29.8650   20.2920 C   0  0  0  0  0  2  0  0  0  0  0  0
  -24.7440  -31.1190   22.2120 N   0  0  0  0  0  0  0  0  0  0  0  0
  -23.5940  -32.2500   23.8200 O   0  0  0  0  0  0  0  0  0  0  0  0
  -22.7750  -29.5600   22.6320 C   0  0  0  0  0  0  0  0  0  0  0  0
  -21.4500  -29.3840   22.4810 N   0  0  0  0  0  0  0  0  0  0  0  0
  -23.4310  -28.9540   23.4820 O   0  0  0  0  0  0  0  0  0  0  0  0
  -20.9800  -29.9320   21.7760 H   0  0  0  0  0  0  0  0  0  0  0  0
  -18.0660  -28.1660   22.9100 C   0  0  0  0  0  0  0  0  0  0  0  0
  -20.6140  -28.4580   23.2510 C   0  0  0  0  0  3  0  0  0  0  0  0
  -20.7450  -27.0130   22.7180 C   0  0  0  0  0  2  0  0  0  0  0  0
  -19.6760  -26.6510   21.6820 C   0  0  0  0  0  2  0  0  0  0  0  0
  -18.2730  -26.7990   22.2800 C   0  0  0  0  0  2  0  0  0  0  0  0
  -19.1650  -28.9490   23.3540 C   0  0  0  0  0  0  0  0  0  0  0  0
  -18.9180  -30.2220   23.9110 C   0  0  0  0  0  3  0  0  0  0  0  0
  -17.6050  -30.7170   24.0260 C   0  0  0  0  0  3  0  0  0  0  0  0
  -16.5190  -29.9300   23.6040 C   0  0  0  0  0  3  0  0  0  0  0  0
  -16.7510  -28.6580   23.0510 C   0  0  0  0  0  3  0  0  0  0  0  0
  -25.9610  -32.5730   23.9260 C   0  0  0  0  0  3  0  0  0  0  0  0
  -25.6750  -33.9870   24.2160 N   0  0  0  0  0  0  0  0  0  0  0  0
  -26.0130  -35.0130   23.4230 C   0  0  0  0  0  0  0  0  0  0  0  0
  -26.6640  -34.8680   22.3860 O   0  0  0  0  0  0  0  0  0  0  0  0
  -25.0940  -34.1740   25.0190 H   0  0  0  0  0  0  0  0  0  0  0  0
  -24.2970  -36.8180   23.0640 C   0  0  0  0  0  1  0  0  0  0  0  0
  -25.5560  -36.4210   23.8500 C   0  0  0  0  0  3  0  0  0  0  0  0
  -27.7230  -37.3080   24.5870 C   0  0  0  0  0  1  0  0  0  0  0  0
  -26.5950  -37.4570   23.6720 N   0  0  0  0  0  0  0  0  0  0  0  0
  -26.2040  -38.3860   23.8090 H   0  0  0  0  0  0  0  0  0  0  0  0
  -26.4380  -31.8290   25.2350 C   0  0  1  0  0  0  0  0  0  0  0  0
  -25.3180  -31.6340   26.2840 C   0  0  0  0  0  1  0  0  0  0  0  0
  -27.0110  -30.4330   24.8960 C   0  0  0  0  0  1  0  0  0  0  0  0
  -27.5840  -32.6250   25.9030 C   0  0  0  0  0  1  0  0  0  0  0  0
  -27.5130  -21.5750   19.3330 C   0  0  0  0  0  0  0  0  0  0  0  0
  -26.6000  -21.5320   20.1600 O   0  0  0  0  0  0  0  0  0  0  0  0
  -26.0740  -20.3560   17.5880 C   0  0  0  0  0  1  0  0  0  0  0  0
  -27.2770  -21.2750   17.8480 C   0  0  0  0  0  2  0  0  0  0  0  0
  -29.6990  -20.5470   20.3290 C   0  0  0  0  0  3  0  0  0  0  0  0
  -29.5410  -18.9550   19.7920 C   0  0  0  0  0  3  0  0  0  0  0  0
  -30.5820  -17.6580   20.1080 C   0  0  0  0  0  3  0  0  0  0  0  0
  -30.8450  -14.9580   19.6950 C   0  0  0  0  0  0  0  0  0  0  0  0
  -30.5830  -12.5770   18.8900 C   0  0  0  0  0  2  0  0  0  0  0  0
  -29.5620  -12.5020   17.7320 C   0  0  0  0  0  2  0  0  0  0  0  0
  -28.1270  -12.3670   18.2750 C   0  0  0  0  0  2  0  0  0  0  0  0
  -27.8310  -13.3700   19.4200 C   0  0  0  0  0  3  0  0  0  0  0  0
  -28.9620  -13.4090   20.4690 C   0  0  0  0  0  2  0  0  0  0  0  0
  -30.2020  -13.7290   19.7510 N   0  0  0  0  0  0  0  0  0  0  0  0
  -32.0190  -14.9770   19.3120 O   0  0  0  0  0  0  0  0  0  0  0  0
  -30.1300  -16.1620   19.9140 N   0  0  0  0  0  0  0  0  0  0  0  0
  -29.1570  -16.0050   20.1260 H   0  0  0  0  0  0  0  0  0  0  0  0
  -25.5770  -14.0680   20.4130 C   0  0  0  0  0  0  0  0  0  0  0  0
  -24.4960  -13.3470   20.8390 C   0  0  0  0  0  0  0  0  0  0  0  0
  -24.8530  -11.9720   20.6880 C   0  0  0  0  0  0  0  0  0  0  0  0
  -26.5260  -13.1360   20.0260 N   0  0  0  0  0  0  0  0  0  0  0  0
  -26.1040  -11.8650   20.2550 N   0  0  0  0  0  0  0  0  0  0  0  0
  -24.0520  -10.7540   20.8740 C   0  0  0  0  0  0  0  0  0  0  0  0
  -24.4590   -9.7280   21.7550 C   0  0  0  0  0  3  0  0  0  0  0  0
  -23.6600   -8.5770   21.9310 C   0  0  0  0  0  3  0  0  0  0  0  0
  -22.4400   -8.4450   21.2280 C   0  0  0  0  0  0  0  0  0  0  0  0
  -22.0510   -9.4580   20.3340 C   0  0  0  0  0  3  0  0  0  0  0  0
  -22.8490  -10.6000   20.1550 C   0  0  0  0  0  3  0  0  0  0  0  0
  -21.6130   -7.3520   21.3190 O   0  0  0  0  0  0  0  0  0  0  0  0
  -21.5230   -6.6090   22.4680 C   0  0  0  0  0  0  0  0  0  0  0  0
  -21.1390   -7.1840   23.6980 C   0  0  0  0  0  3  0  0  0  0  0  0
  -20.9920   -6.3720   24.8410 C   0  0  0  0  0  3  0  0  0  0  0  0
  -21.2190   -4.9860   24.7540 C   0  0  0  0  0  0  0  0  0  0  0  0
  -21.5980   -4.4100   23.5280 C   0  0  0  0  0  3  0  0  0  0  0  0
  -21.7460   -5.2200   22.3890 C   0  0  0  0  0  0  0  0  0  0  0  0
  -22.0890   -4.6560   21.2060 F   0  0  0  0  0  0  0  0  0  0  0  0
  -21.0710   -4.2050   25.8490 F   0  0  0  0  0  0  0  0  0  0  0  0
  -23.1690  -13.9020   21.2690 C   0  0  0  0  0  0  0  0  0  0  0  0
  -22.4850  -13.2200   22.1810 N   0  0  0  0  0  0  0  0  0  0  0  0
  -22.7540  -14.9750   20.8320 O   0  0  0  0  0  0  0  0  0  0  0  0
  -22.8330  -12.3480   22.5530 H   0  0  0  0  0  0  0  0  0  0  0  0
  -21.6000  -13.5740   22.5170 H   0  0  0  0  0  0  0  0  0  0  0  0
  -25.8240  -15.4340   20.2960 N   0  0  0  0  0  0  0  0  0  0  0  0
  -25.1150  -16.1280   20.5030 H   0  0  0  0  0  0  0  0  0  0  0  0
  -26.6580  -15.8350   19.8870 H   0  0  0  0  0  0  0  0  0  0  0  0
  -32.3340  -18.9140   21.5400 C   0  0  0  0  0  1  0  0  0  0  0  0
  -32.0610  -16.5010   21.9250 C   0  0  0  0  0  1  0  0  0  0  0  0
  -30.2510  -18.0330   22.6370 C   0  0  0  0  0  1  0  0  0  0  0  0
  -31.2850  -17.7800   21.5220 C   0  0  2  0  0  0  0  0  0  0  0  0
  1 50  1  0
  1  3  1  0
  3  2  1  0
  4  5  1  0
  4  3  1  0
  6 17  2  0
  7  5  1  0
  7 12  1  0
  8 16  1  0
  8 18  1  0
  9 15  1  0
  9 11  1  0
 10 16  1  0
 11 12  2  0
 11 10  1  0
 13  7  2  0
 14 13  1  0
 14  9  2  0
 15  8  1  0
 16  6  1  0
 18 20  2  0
 19 18  1  0
 21 19  1  0
 22 31  2  0
 22 27  1  0
 23 19  1  0
 23 27  1  0
 24 23  1  0
 25 26  1  0
 25 24  1  0
 26 22  1  0
 27 28  2  0
 28 29  1  0
 30 29  2  0
 31 30  1  0
 32  6  1  0
 32 33  1  0
 32 42  1  0
 33 36  1  0
 34 38  1  0
 34 33  1  0
 35 34  2  0
 38 37  1  0
 40 41  1  0
 40 38  1  0
 40 39  1  0
 42 45  1  1
 42 43  1  0
 44 42  1  0
 46  1  1  0
 46 47  2  0
 48 49  1  0
 49 46  1  0
 51 50  2  0
 52 51  1  0
 52 94  1  0
 53 59  1  0
 53 61  1  0
 54 59  1  0
 55 56  1  0
 55 54  1  0
 57 56  1  0
 57 66  1  0
 57 58  1  0
 59 58  1  0
 60 53  2  0
 61 52  1  0
 61 62  1  0
 63 64  2  0
 64 83  1  0
 65 64  1  0
 65 68  1  0
 66 67  1  0
 66 63  1  0
 67 65  2  0
 68 69  1  0
 69 70  2  0
 71 74  1  0
 71 70  1  0
 72 71  2  0
 73 72  1  0
 73 68  2  0
 74 75  1  0
 75 76  1  0
 76 77  2  0
 78 77  1  0
 78 82  1  0
 79 78  2  0
 80 75  2  0
 80 79  1  0
 81 80  1  0
 83 84  1  0
 84 87  1  0
 84 86  1  0
 85 83  2  0
 88 63  1  0
 88 89  1  0
 90 88  1  0
 94 91  1  6
 94 92  1  0
 94 93  1  0
M  ISO  4   4 101   5 101  53 100  61 100
M  END
>  <TORSDO>  (52) 
F 24

>  <SCORE>  (52) 
-10.297

>  <name>  (52) 
51

>  <ligand_id>  (52) 
51

>  <original_smiles>  (52) 
[H]c1c([H])c([H])c2c(c1[H])C([H])([H])C([H])([H])C([H])([H])C2([H])N([H])C(=O)C1([H])N(C(=O)C([H])(N([H])C(=O)C([H])(N([H])C([H])([H])[H])C([H])([H])[H])C(C([H])([H])[H])(C([H])([H])[H])C([H])([H])[H])C([H])([H])c2c([H])c(OC([H])([H])C([H])(C([H])([H])[H])C([H])(C(=O)C([H])([H])C([H])([H])[H])C([H])([H])C([H])([H])C([H])(N([H])C(=O)N3C([H])([H])C([H])([H])C([H])([H])C([H])(n4nc(-c5c([H])c([H])c(Oc6c([H])c([H])c(F)c([H])c6F)c([H])c5[H])c(C(=O)N([H])[H])c4N([H])[H])C3([H])[H])C(C([H])([H])[H])(C([H])([H])[H])C([H])([H])[H])c([H])c([H])c2C1([H])[H]

>  <smiles>  (52) 
[H]c1c([H])c([H])c2c(c1[H])C([H])([H])C([H])([H])C([H])([H])C2([H])N([H])C(=O)C1([H])N(C(=O)C([H])(N([H])C(=O)C([H])(N([H])C([H])([H])[H])C([H])([H])[H])C(C([H])([H])[H])(C([H])([H])[H])C([H])([H])[H])C([H])([H])c2c([H])c(OC([H])([H])C([H])(C([H])([H])[H])C([H])(C(=O)C([H])([H])C([H])([H])[H])C([H])([H])C([H])([H])C([H])(N([H])C(=O)N3C([H])([H])C([H])([H])C([H])([H])C([H])(n4nc(-c5c([H])c([H])c(Oc6c([H])c([H])c(F)c([H])c6F)c([H])c5[H])c(C(=O)N([H])[H])c4N([H])[H])C3([H])[H])C(C([H])([H])[H])(C([H])([H])[H])C([H])([H])[H])c([H])c([H])c2C1([H])[H]

$$$$
52:0:0
     RDKit          3D

 98105  0  0  1  0  0  0  0  0999 V2000
  -29.0340  -21.1540   20.6010 C   0  0  0  0  0  0  0  0  0  0  0  0
  -29.6370  -21.0660   21.7930 N   0  0  0  0  0  4  0  0  0  0  0  0
  -28.6740  -22.4120   20.1180 N   0  0  0  0  0  0  0  0  0  0  0  0
  -29.8740  -20.1620   22.1790 H   0  0  0  0  0  0  0  0  0  0  0  0
  -29.8630  -21.8670   22.3630 H   0  0  0  0  0  0  0  0  0  0  0  0
  -28.2300  -22.4070   19.2090 H   0  0  0  0  0  0  0  0  0  0  0  0
  -28.8880  -23.8370   20.6550 C   0  0  0  0  0  3  0  0  0  0  0  0
  -27.9280  -24.9950   20.0890 C   0  0  0  0  0  3  0  0  0  0  0  0
  -28.1690  -26.4590   20.3260 O   0  0  0  0  0  0  0  0  0  0  0  0
  -24.5270  -31.9820   23.2420 C   0  0  0  0  0  0  0  0  0  0  0  0
  -27.0810  -27.3540   20.2210 C   0  0  0  0  0  0  0  0  0  0  0  0
  -23.3050  -30.5800   21.6160 C   0  0  0  0  0  3  0  0  0  0  0  0
  -24.7390  -29.0120   20.1880 C   0  0  0  0  0  0  0  0  0  0  0  0
  -25.8480  -30.8760   21.4180 C   0  0  0  0  0  2  0  0  0  0  0  0
  -25.9180  -29.4940   20.7740 C   0  0  0  0  0  0  0  0  0  0  0  0
  -27.0920  -28.6800   20.7700 C   0  0  0  0  0  3  0  0  0  0  0  0
  -25.8850  -26.9440   19.5920 C   0  0  0  0  0  3  0  0  0  0  0  0
  -24.7300  -27.7500   19.5780 C   0  0  0  0  0  3  0  0  0  0  0  0
  -23.5090  -29.8950   20.2380 C   0  0  0  0  0  2  0  0  0  0  0  0
  -24.5800  -31.1670   22.1460 N   0  0  0  0  0  0  0  0  0  0  0  0
  -23.4500  -32.2750   23.7810 O   0  0  0  0  0  0  0  0  0  0  0  0
  -22.6390  -29.5760   22.5910 C   0  0  0  0  0  0  0  0  0  0  0  0
  -21.3130  -29.4020   22.4680 N   0  0  0  0  0  0  0  0  0  0  0  0
  -23.3160  -28.9540   23.4140 O   0  0  0  0  0  0  0  0  0  0  0  0
  -20.8260  -29.9550   21.7780 H   0  0  0  0  0  0  0  0  0  0  0  0
  -17.9330  -28.2150   22.9590 C   0  0  0  0  0  0  0  0  0  0  0  0
  -20.4900  -28.4750   23.2440 C   0  0  0  0  0  3  0  0  0  0  0  0
  -20.5920  -27.0340   22.6910 C   0  0  0  0  0  2  0  0  0  0  0  0
  -19.4970  -26.7010   21.6710 C   0  0  0  0  0  2  0  0  0  0  0  0
  -18.1110  -26.8580   22.3040 C   0  0  0  0  0  2  0  0  0  0  0  0
  -19.0490  -28.9820   23.3870 C   0  0  0  0  0  0  0  0  0  0  0  0
  -18.8250  -30.2540   23.9580 C   0  0  0  0  0  3  0  0  0  0  0  0
  -17.5180  -30.7560   24.1110 C   0  0  0  0  0  3  0  0  0  0  0  0
  -16.4160  -29.9810   23.7010 C   0  0  0  0  0  3  0  0  0  0  0  0
  -16.6250  -28.7150   23.1270 C   0  0  0  0  0  3  0  0  0  0  0  0
  -25.8190  -32.6080   23.8550 C   0  0  0  0  0  3  0  0  0  0  0  0
  -26.3280  -31.8450   25.1390 C   0  0  1  0  0  0  0  0  0  0  0  0
  -25.2320  -31.6210   26.2090 C   0  0  0  0  0  1  0  0  0  0  0  0
  -26.9070  -30.4650   24.7600 C   0  0  0  0  0  1  0  0  0  0  0  0
  -27.4770  -32.6420   25.8000 C   0  0  0  0  0  1  0  0  0  0  0  0
  -25.5260  -34.0090   24.1780 N   0  0  0  0  0  0  0  0  0  0  0  0
  -25.8580  -35.0550   23.4110 C   0  0  0  0  0  0  0  0  0  0  0  0
  -26.5190  -34.9390   22.3740 O   0  0  0  0  0  0  0  0  0  0  0  0
  -24.9360  -34.1720   24.9820 H   0  0  0  0  0  0  0  0  0  0  0  0
  -24.1430  -36.8580   23.0700 C   0  0  0  0  0  1  0  0  0  0  0  0
  -25.3890  -36.4480   23.8670 C   0  0  0  0  0  3  0  0  0  0  0  0
  -27.5370  -37.3190   24.6730 C   0  0  0  0  0  1  0  0  0  0  0  0
  -26.4280  -37.4930   23.7440 N   0  0  0  0  0  0  0  0  0  0  0  0
  -26.0250  -38.4140   23.9010 H   0  0  0  0  0  0  0  0  0  0  0  0
  -28.7750  -19.8100   19.8100 C   0  0  0  0  0  3  0  0  0  0  0  0
  -27.3420  -19.9380   19.1930 C   0  0  0  0  0  2  0  0  0  0  0  0
  -27.6940  -19.4800   16.6940 C   0  0  0  0  0  1  0  0  0  0  0  0
  -25.8300  -21.0200   17.4580 C   0  0  0  0  0  1  0  0  0  0  0  0
  -27.2590  -20.5110   17.7560 C   0  0  0  0  0  3  0  0  0  0  0  0
  -28.9310  -18.3790   20.5840 C   0  0  0  0  0  2  0  0  0  0  0  0
  -30.1350  -17.3420   20.2900 C   0  0  0  0  0  3  0  0  0  0  0  0
  -30.5570  -14.7390   20.1500 C   0  0  0  0  0  0  0  0  0  0  0  0
  -30.3260  -12.4510   19.1860 C   0  0  0  0  0  2  0  0  0  0  0  0
  -29.3660  -12.5320   17.9800 C   0  0  0  0  0  2  0  0  0  0  0  0
  -27.9020  -12.3740   18.4330 C   0  0  0  0  0  2  0  0  0  0  0  0
  -27.5560  -13.2600   19.6600 C   0  0  0  0  0  3  0  0  0  0  0  0
  -28.6410  -13.1720   20.7600 C   0  0  0  0  0  2  0  0  0  0  0  0
  -29.9280  -13.5120   20.1400 N   0  0  0  0  0  0  0  0  0  0  0  0
  -31.6850  -14.8450   19.6720 O   0  0  0  0  0  0  0  0  0  0  0  0
  -29.8350  -15.8560   20.5270 N   0  0  0  0  0  0  0  0  0  0  0  0
  -28.9240  -15.6560   20.9060 H   0  0  0  0  0  0  0  0  0  0  0  0
  -25.1950  -13.8440   20.4860 C   0  0  0  0  0  0  0  0  0  0  0  0
  -24.1380  -13.0710   20.8840 C   0  0  0  0  0  0  0  0  0  0  0  0
  -24.5910  -11.7180   20.8010 C   0  0  0  0  0  0  0  0  0  0  0  0
  -26.2230  -12.9670   20.1890 N   0  0  0  0  0  0  0  0  0  0  0  0
  -25.8670  -11.6800   20.4340 N   0  0  0  0  0  0  0  0  0  0  0  0
  -23.8620  -10.4560   20.9950 C   0  0  0  0  0  0  0  0  0  0  0  0
  -24.2950   -9.4900   21.9280 C   0  0  0  0  0  3  0  0  0  0  0  0
  -23.5670   -8.2930   22.1110 C   0  0  0  0  0  3  0  0  0  0  0  0
  -22.3890   -8.0530   21.3620 C   0  0  0  0  0  0  0  0  0  0  0  0
  -21.9740   -9.0100   20.4210 C   0  0  0  0  0  3  0  0  0  0  0  0
  -22.7030  -10.1990   20.2360 C   0  0  0  0  0  3  0  0  0  0  0  0
  -21.6350   -6.9100   21.4540 O   0  0  0  0  0  0  0  0  0  0  0  0
  -21.5630   -6.1900   22.6190 C   0  0  0  0  0  0  0  0  0  0  0  0
  -21.1020   -6.7650   23.8230 C   0  0  0  0  0  3  0  0  0  0  0  0
  -20.9700   -5.9710   24.9770 C   0  0  0  0  0  3  0  0  0  0  0  0
  -21.2860   -4.5980   24.9310 C   0  0  0  0  0  0  0  0  0  0  0  0
  -21.7400   -4.0260   23.7310 C   0  0  0  0  0  3  0  0  0  0  0  0
  -21.8740   -4.8170   22.5790 C   0  0  0  0  0  0  0  0  0  0  0  0
  -22.2900   -4.2520   21.4210 F   0  0  0  0  0  0  0  0  0  0  0  0
  -21.1540   -3.8360   26.0410 F   0  0  0  0  0  0  0  0  0  0  0  0
  -22.7550  -13.5540   21.2180 C   0  0  0  0  0  0  0  0  0  0  0  0
  -22.0550  -12.8480   22.0980 N   0  0  0  0  0  0  0  0  0  0  0  0
  -22.3090  -14.5910   20.7320 O   0  0  0  0  0  0  0  0  0  0  0  0
  -22.4200  -12.0090   22.5210 H   0  0  0  0  0  0  0  0  0  0  0  0
  -21.1260  -13.1560   22.3560 H   0  0  0  0  0  0  0  0  0  0  0  0
  -25.3540  -15.2190   20.3360 N   0  0  0  0  0  0  0  0  0  0  0  0
  -24.5840  -15.8600   20.4800 H   0  0  0  0  0  0  0  0  0  0  0  0
  -26.1750  -15.6730   19.9600 H   0  0  0  0  0  0  0  0  0  0  0  0
  -31.4920  -17.2590   22.4960 C   0  0  0  0  0  1  0  0  0  0  0  0
  -31.3950  -17.8420   21.0710 C   0  0  0  0  0  3  0  0  0  0  0  0
  -33.7300  -18.8390   20.6540 C   0  0  0  0  0  1  0  0  0  0  0  0
  -32.7410  -17.7040   20.3250 C   0  0  0  0  0  2  0  0  0  0  0  0
  1  2  2  0
  2  4  1  0
  2  5  1  0
  3  1  1  0
  3  7  1  0
  6  3  1  0
  8  9  1  0
  8  7  2  0
 10 21  2  0
 11  9  1  0
 11 16  1  0
 12 20  1  0
 12 22  1  0
 13 19  1  0
 13 15  1  0
 14 20  1  0
 15 14  1  0
 16 15  2  0
 17 11  2  0
 18 17  1  0
 18 13  2  0
 19 12  1  0
 20 10  1  0
 22 24  2  0
 23 22  1  0
 25 23  1  0
 26 35  2  0
 26 31  1  0
 27 23  1  0
 27 31  1  0
 28 27  1  0
 29 30  1  0
 29 28  1  0
 30 26  1  0
 31 32  2  0
 32 33  1  0
 34 33  2  0
 35 34  1  0
 36 10  1  0
 36 41  1  0
 36 37  1  0
 37 40  1  1
 37 38  1  0
 39 37  1  0
 41 44  1  0
 42 46  1  0
 42 41  1  0
 43 42  2  0
 46 45  1  0
 48 46  1  0
 48 49  1  0
 48 47  1  0
 50 51  1  0
 50 55  1  0
 50  1  1  0
 52 54  1  0
 53 54  1  0
 54 51  1  0
 56 65  1  0
 56 55  1  0
 56 96  1  0
 57 65  1  0
 58 63  1  0
 59 60  1  0
 59 58  1  0
 61 60  1  0
 61 70  1  0
 61 62  1  0
 63 57  1  0
 63 62  1  0
 64 57  2  0
 65 66  1  0
 67 68  2  0
 68 87  1  0
 69 68  1  0
 69 72  1  0
 70 71  1  0
 70 67  1  0
 71 69  2  0
 72 73  1  0
 73 74  2  0
 75 78  1  0
 75 74  1  0
 76 75  2  0
 77 76  1  0
 77 72  2  0
 78 79  1  0
 79 80  1  0
 80 81  2  0
 82 81  1  0
 82 86  1  0
 83 82  2  0
 84 79  2  0
 84 83  1  0
 85 84  1  0
 87 88  1  0
 88 91  1  0
 88 90  1  0
 89 87  2  0
 92 93  1  0
 92 67  1  0
 94 92  1  0
 96 95  1  0
 98 97  1  0
 98 96  1  0
M  ISO  4   8 101   9 101  57 100  65 100
M  END
>  <TORSDO>  (53) 
F 25

>  <SCORE>  (53) 
-12.123

>  <name>  (53) 
52

>  <ligand_id>  (53) 
52

>  <original_smiles>  (53) 
[H]c1c([H])c([H])c2c(c1[H])C([H])([H])C([H])([H])C([H])([H])C2([H])N([H])C(=O)C1([H])N(C(=O)C([H])(N([H])C(=O)C([H])(N([H])C([H])([H])[H])C([H])([H])[H])C(C([H])([H])[H])(C([H])([H])[H])C([H])([H])[H])C([H])([H])c2c([H])c(OC([H])([H])C([H])([H])[N+]([H])=C(N([H])[H])C([H])(C([H])([H])C([H])(N([H])C(=O)N3C([H])([H])C([H])([H])C([H])([H])C([H])(n4nc(-c5c([H])c([H])c(Oc6c([H])c([H])c(F)c([H])c6F)c([H])c5[H])c(C(=O)N([H])[H])c4N([H])[H])C3([H])[H])C([H])(C([H])([H])[H])C([H])([H])C([H])([H])[H])C([H])([H])C([H])(C([H])([H])[H])C([H])([H])[H])c([H])c([H])c2C1([H])[H]

>  <smiles>  (53) 
[H]c1c([H])c([H])c2c(c1[H])C([H])([H])C([H])([H])C([H])([H])C2([H])N([H])C(=O)C1([H])N(C(=O)C([H])(N([H])C(=O)C([H])(N([H])C([H])([H])[H])C([H])([H])[H])C(C([H])([H])[H])(C([H])([H])[H])C([H])([H])[H])C([H])([H])c2c([H])c(OC([H])([H])C([H])([H])[N+]([H])=C(N([H])[H])C([H])(C([H])([H])C([H])(N([H])C(=O)N3C([H])([H])C([H])([H])C([H])([H])C([H])(n4nc(-c5c([H])c([H])c(Oc6c([H])c([H])c(F)c([H])c6F)c([H])c5[H])c(C(=O)N([H])[H])c4N([H])[H])C3([H])[H])C([H])(C([H])([H])[H])C([H])([H])C([H])([H])[H])C([H])([H])C([H])(C([H])([H])[H])C([H])([H])[H])c([H])c([H])c2C1([H])[H]

$$$$
53:0:0
     RDKit          3D

 95102  0  0  1  0  0  0  0  0999 V2000
  -29.1130  -22.6820   20.6500 C   0  0  0  0  0  3  0  0  0  0  0  0
  -28.7080  -24.0200   19.8280 C   0  0  0  0  0  3  0  0  0  0  0  0
  -28.4500  -25.3580   20.6810 C   0  0  0  0  0  2  0  0  0  0  0  0
  -28.5210  -26.6980   20.0660 O   0  0  0  0  0  0  0  0  0  0  0  0
  -24.6810  -31.8560   23.3030 C   0  0  0  0  0  0  0  0  0  0  0  0
  -27.3780  -27.4980   20.0830 C   0  0  0  0  0  0  0  0  0  0  0  0
  -23.5050  -30.5120   21.5920 C   0  0  0  0  0  3  0  0  0  0  0  0
  -24.9900  -29.0480   20.1110 C   0  0  0  0  0  0  0  0  0  0  0  0
  -26.0370  -30.8870   21.4350 C   0  0  0  0  0  2  0  0  0  0  0  0
  -26.1410  -29.5400   20.7340 C   0  0  0  0  0  0  0  0  0  0  0  0
  -27.3460  -28.7790   20.7050 C   0  0  0  0  0  3  0  0  0  0  0  0
  -26.2080  -27.0430   19.4450 C   0  0  0  0  0  3  0  0  0  0  0  0
  -25.0230  -27.8050   19.4550 C   0  0  0  0  0  3  0  0  0  0  0  0
  -23.7370  -29.8990   20.1850 C   0  0  0  0  0  2  0  0  0  0  0  0
  -24.7590  -31.1000   22.1680 N   0  0  0  0  0  0  0  0  0  0  0  0
  -23.5920  -32.0920   23.8460 O   0  0  0  0  0  0  0  0  0  0  0  0
  -22.8560  -29.4450   22.5040 C   0  0  0  0  0  0  0  0  0  0  0  0
  -21.5410  -29.2250   22.3300 N   0  0  0  0  0  0  0  0  0  0  0  0
  -23.5320  -28.8210   23.3260 O   0  0  0  0  0  0  0  0  0  0  0  0
  -21.0570  -29.7800   21.6380 H   0  0  0  0  0  0  0  0  0  0  0  0
  -18.2000  -27.8780   22.6700 C   0  0  0  0  0  0  0  0  0  0  0  0
  -20.7330  -28.2370   23.0460 C   0  0  0  0  0  3  0  0  0  0  0  0
  -20.9190  -26.8260   22.4440 C   0  0  0  0  0  2  0  0  0  0  0  0
  -19.8700  -26.4810   21.3810 C   0  0  0  0  0  2  0  0  0  0  0  0
  -18.4600  -26.5530   21.9720 C   0  0  0  0  0  2  0  0  0  0  0  0
  -19.2700  -28.6770   23.1600 C   0  0  0  0  0  0  0  0  0  0  0  0
  -18.9750  -29.9140   23.7720 C   0  0  0  0  0  3  0  0  0  0  0  0
  -17.6460  -30.3560   23.8980 C   0  0  0  0  0  3  0  0  0  0  0  0
  -16.5920  -29.5570   23.4270 C   0  0  0  0  0  3  0  0  0  0  0  0
  -16.8690  -28.3190   22.8210 C   0  0  0  0  0  3  0  0  0  0  0  0
  -25.9490  -32.4790   23.9630 C   0  0  0  0  0  3  0  0  0  0  0  0
  -26.4530  -31.6790   25.2270 C   0  0  1  0  0  0  0  0  0  0  0  0
  -25.3450  -31.3890   26.2680 C   0  0  0  0  0  1  0  0  0  0  0  0
  -27.0660  -30.3240   24.8040 C   0  0  0  0  0  1  0  0  0  0  0  0
  -27.5810  -32.4700   25.9320 C   0  0  0  0  0  1  0  0  0  0  0  0
  -25.6250  -33.8660   24.3260 N   0  0  0  0  0  0  0  0  0  0  0  0
  -25.9710  -34.9430   23.6080 C   0  0  0  0  0  0  0  0  0  0  0  0
  -26.6660  -34.8710   22.5900 O   0  0  0  0  0  0  0  0  0  0  0  0
  -25.0200  -33.9960   25.1230 H   0  0  0  0  0  0  0  0  0  0  0  0
  -24.2470  -36.7400   23.2560 C   0  0  0  0  0  1  0  0  0  0  0  0
  -25.4650  -36.3140   24.0920 C   0  0  0  0  0  3  0  0  0  0  0  0
  -27.5620  -37.1800   25.0260 C   0  0  0  0  0  1  0  0  0  0  0  0
  -26.4950  -37.3740   24.0480 N   0  0  0  0  0  0  0  0  0  0  0  0
  -26.0790  -38.2870   24.2100 H   0  0  0  0  0  0  0  0  0  0  0  0
  -29.7920  -24.3150   18.7620 C   0  0  0  0  0  2  0  0  0  0  0  0
  -28.5330  -24.1560   16.5400 C   0  0  0  0  0  1  0  0  0  0  0  0
  -30.4480  -25.7890   16.7860 C   0  0  0  0  0  1  0  0  0  0  0  0
  -29.2940  -25.0740   17.5090 C   0  0  0  0  0  3  0  0  0  0  0  0
  -28.4420  -22.6670   22.0540 C   0  0  0  0  0  2  0  0  0  0  0  0
  -29.0800  -21.7340   22.9980 N   0  0  0  0  0  4  0  0  0  0  0  0
  -28.9550  -20.7840   22.7020 H   0  0  0  0  0  0  0  0  0  0  0  0
  -28.6720  -21.8280   23.9140 H   0  0  0  0  0  0  0  0  0  0  0  0
  -30.0610  -21.9310   23.0730 H   0  0  0  0  0  0  0  0  0  0  0  0
  -28.8820  -21.2560   19.9340 C   0  0  0  0  0  2  0  0  0  0  0  0
  -29.8960  -20.0460   20.2170 C   0  0  0  0  0  2  0  0  0  0  0  0
  -29.4010  -18.5300   20.1020 C   0  0  0  0  0  3  0  0  0  0  0  0
  -30.4940  -17.3850   20.2980 C   0  0  0  0  0  3  0  0  0  0  0  0
  -30.7920  -14.8360   19.9960 C   0  0  0  0  0  0  0  0  0  0  0  0
  -30.5050  -12.6080   18.9410 C   0  0  0  0  0  2  0  0  0  0  0  0
  -29.4900  -12.7190   17.7830 C   0  0  0  0  0  2  0  0  0  0  0  0
  -28.0480  -12.5560   18.3030 C   0  0  0  0  0  2  0  0  0  0  0  0
  -27.7570  -13.4330   19.5480 C   0  0  0  0  0  3  0  0  0  0  0  0
  -28.8780  -13.3000   20.6020 C   0  0  0  0  0  2  0  0  0  0  0  0
  -30.1450  -13.6310   19.9410 N   0  0  0  0  0  0  0  0  0  0  0  0
  -31.9530  -14.9570   19.5980 O   0  0  0  0  0  0  0  0  0  0  0  0
  -30.0420  -15.9450   20.2990 N   0  0  0  0  0  0  0  0  0  0  0  0
  -29.0840  -15.7700   20.5590 H   0  0  0  0  0  0  0  0  0  0  0  0
  -25.4180  -14.0330   20.4230 C   0  0  0  0  0  0  0  0  0  0  0  0
  -24.3660  -13.2580   20.8320 C   0  0  0  0  0  0  0  0  0  0  0  0
  -24.8160  -11.9040   20.7430 C   0  0  0  0  0  0  0  0  0  0  0  0
  -26.4390  -13.1500   20.1100 N   0  0  0  0  0  0  0  0  0  0  0  0
  -26.0860  -11.8640   20.3660 N   0  0  0  0  0  0  0  0  0  0  0  0
  -24.0910  -10.6430   20.9420 C   0  0  0  0  0  0  0  0  0  0  0  0
  -24.5320   -9.6750   21.8730 C   0  0  0  0  0  3  0  0  0  0  0  0
  -23.8090   -8.4780   22.0580 C   0  0  0  0  0  3  0  0  0  0  0  0
  -22.6280   -8.2390   21.3130 C   0  0  0  0  0  0  0  0  0  0  0  0
  -22.2060   -9.1950   20.3720 C   0  0  0  0  0  3  0  0  0  0  0  0
  -22.9310  -10.3840   20.1850 C   0  0  0  0  0  3  0  0  0  0  0  0
  -21.8730   -7.0950   21.4100 O   0  0  0  0  0  0  0  0  0  0  0  0
  -21.8010   -6.3780   22.5770 C   0  0  0  0  0  0  0  0  0  0  0  0
  -21.2870   -6.9380   23.7670 C   0  0  0  0  0  3  0  0  0  0  0  0
  -21.1670   -6.1440   24.9250 C   0  0  0  0  0  3  0  0  0  0  0  0
  -21.5470   -4.7910   24.8940 C   0  0  0  0  0  0  0  0  0  0  0  0
  -22.0510   -4.2290   23.7080 C   0  0  0  0  0  3  0  0  0  0  0  0
  -22.1750   -5.0190   22.5520 C   0  0  0  0  0  0  0  0  0  0  0  0
  -22.6410   -4.4660   21.4060 F   0  0  0  0  0  0  0  0  0  0  0  0
  -21.4240   -4.0250   26.0040 F   0  0  0  0  0  0  0  0  0  0  0  0
  -22.9890  -13.7360   21.1900 C   0  0  0  0  0  0  0  0  0  0  0  0
  -22.3030  -13.0220   22.0750 N   0  0  0  0  0  0  0  0  0  0  0  0
  -22.5310  -14.7780   20.7220 O   0  0  0  0  0  0  0  0  0  0  0  0
  -22.6850  -12.1760   22.4730 H   0  0  0  0  0  0  0  0  0  0  0  0
  -21.3810  -13.3230   22.3580 H   0  0  0  0  0  0  0  0  0  0  0  0
  -25.5840  -15.4060   20.2660 N   0  0  0  0  0  0  0  0  0  0  0  0
  -24.8270  -16.0620   20.4230 H   0  0  0  0  0  0  0  0  0  0  0  0
  -26.4070  -15.8410   19.8710 H   0  0  0  0  0  0  0  0  0  0  0  0
  1 54  1  0
  1 49  1  0
  2 45  1  0
  2  1  1  0
  2  3  1  0
  4  6  1  0
  4  3  1  0
  5 16  2  0
  6 11  1  0
  7 15  1  0
  7 17  1  0
  8 14  1  0
  8 10  1  0
  9 15  1  0
 10  9  1  0
 11 10  2  0
 12 13  1  0
 12  6  2  0
 13  8  2  0
 14  7  1  0
 15  5  1  0
 17 19  2  0
 18 17  1  0
 20 18  1  0
 21 30  2  0
 21 26  1  0
 22 18  1  0
 22 26  1  0
 23 22  1  0
 24 25  1  0
 24 23  1  0
 25 21  1  0
 26 27  2  0
 27 28  1  0
 29 28  2  0
 30 29  1  0
 31  5  1  0
 31 36  1  0
 31 32  1  0
 32 35  1  1
 32 33  1  0
 34 32  1  0
 36 39  1  0
 37 41  1  0
 37 36  1  0
 38 37  2  0
 41 40  1  0
 43 41  1  0
 43 44  1  0
 43 42  1  0
 46 48  1  0
 47 48  1  0
 48 45  1  0
 49 50  1  0
 50 53  1  0
 50 52  1  0
 51 50  1  0
 54 55  1  0
 56 55  1  0
 56 57  2  0
 57 66  1  0
 58 66  1  0
 59 64  1  0
 60 61  1  0
 60 59  1  0
 62 61  1  0
 62 71  1  0
 62 63  1  0
 64 58  1  0
 64 63  1  0
 65 58  2  0
 66 67  1  0
 68 69  2  0
 69 88  1  0
 70 69  1  0
 70 73  1  0
 71 72  1  0
 71 68  1  0
 72 70  2  0
 73 74  1  0
 74 75  2  0
 76 79  1  0
 76 75  1  0
 77 76  2  0
 78 77  1  0
 78 73  2  0
 79 80  1  0
 80 81  1  0
 81 82  2  0
 83 82  1  0
 83 87  1  0
 84 83  2  0
 85 80  2  0
 85 84  1  0
 86 85  1  0
 88 89  1  0
 89 92  1  0
 89 91  1  0
 90 88  2  0
 93 68  1  0
 93 94  1  0
 95 93  1  0
M  ISO  4   3 101   4 101  58 100  66 100
M  END
>  <TORSDO>  (54) 
F 26

>  <SCORE>  (54) 
-11.728

>  <name>  (54) 
53

>  <ligand_id>  (54) 
53

>  <original_smiles>  (54) 
[H]c1c([H])c([H])c2c(c1[H])C([H])([H])C([H])([H])C([H])([H])C2([H])N([H])C(=O)C1([H])N(C(=O)C([H])(N([H])C(=O)C([H])(N([H])C([H])([H])[H])C([H])([H])[H])C(C([H])([H])[H])(C([H])([H])[H])C([H])([H])[H])C([H])([H])c2c([H])c(OC([H])([H])C([H])(C([H])([H])C([H])(C([H])([H])[H])C([H])([H])[H])C([H])(C([H])([H])C([H])([H])C([H])([H])C([H])([H])N([H])C(=O)N3C([H])([H])C([H])([H])C([H])([H])C([H])(n4nc(-c5c([H])c([H])c(Oc6c([H])c([H])c(F)c([H])c6F)c([H])c5[H])c(C(=O)N([H])[H])c4N([H])[H])C3([H])[H])C([H])([H])[N+]([H])([H])[H])c([H])c([H])c2C1([H])[H]

>  <smiles>  (54) 
[H]c1c([H])c([H])c2c(c1[H])C([H])([H])C([H])([H])C([H])([H])C2([H])N([H])C(=O)C1([H])N(C(=O)C([H])(N([H])C(=O)C([H])(N([H])C([H])([H])[H])C([H])([H])[H])C(C([H])([H])[H])(C([H])([H])[H])C([H])([H])[H])C([H])([H])c2c([H])c(OC([H])([H])C([H])(C([H])([H])C([H])(C([H])([H])[H])C([H])([H])[H])C([H])(C([H])([H])C([H])([H])C([H])([H])C([H])([H])N([H])C(=O)N3C([H])([H])C([H])([H])C([H])([H])C([H])(n4nc(-c5c([H])c([H])c(Oc6c([H])c([H])c(F)c([H])c6F)c([H])c5[H])c(C(=O)N([H])[H])c4N([H])[H])C3([H])[H])C([H])([H])[N+]([H])([H])[H])c([H])c([H])c2C1([H])[H]

$$$$
54:0:0
     RDKit          3D

 86 94  0  0  1  0  0  0  0  0999 V2000
  -29.3570  -22.1110   18.6470 C   0  0  0  0  0  1  0  0  0  0  0  0
  -30.2470  -22.4370   20.9570 C   0  0  0  0  0  1  0  0  0  0  0  0
  -28.9970  -22.0770   20.1390 C   0  0  2  0  0  0  0  0  0  0  0  0
  -30.2560  -15.6620   20.1540 C   0  0  0  0  0  0  0  0  0  0  0  0
  -30.2890  -13.1280   19.3010 C   0  0  0  0  0  2  0  0  0  0  0  0
  -29.3710  -12.7310   18.1100 C   0  0  0  0  0  2  0  0  0  0  0  0
  -27.9580  -12.3790   18.5990 C   0  0  0  0  0  2  0  0  0  0  0  0
  -27.4780  -13.3700   19.6830 C   0  0  0  0  0  3  0  0  0  0  0  0
  -28.5390  -13.6850   20.7650 C   0  0  0  0  0  2  0  0  0  0  0  0
  -29.6870  -14.3140   20.0690 N   0  0  0  0  0  0  0  0  0  0  0  0
  -31.4870  -15.5410   19.9890 O   0  0  0  0  0  0  0  0  0  0  0  0
  -27.8540  -19.1250   19.9190 C   0  0  0  0  0  3  0  0  0  0  0  0
  -28.1570  -17.5240   20.2100 C   0  0  0  0  0  3  0  0  0  0  0  0
  -30.0450  -18.7200   20.2410 C   0  0  0  0  0  3  0  0  0  0  0  0
  -28.9320  -20.1430   20.4640 C   0  0  0  0  0  0  0  0  0  0  0  0
  -29.5980  -17.0930   20.2270 N   0  0  0  0  0  0  0  0  0  0  0  0
  -25.1410  -13.8850   20.5240 C   0  0  0  0  0  0  0  0  0  0  0  0
  -24.0950  -13.0990   20.9090 C   0  0  0  0  0  0  0  0  0  0  0  0
  -24.5680  -11.7510   20.8490 C   0  0  0  0  0  0  0  0  0  0  0  0
  -26.1810  -13.0200   20.2390 N   0  0  0  0  0  0  0  0  0  0  0  0
  -25.8520  -11.7280   20.5030 N   0  0  0  0  0  0  0  0  0  0  0  0
  -23.8480  -10.4850   21.0410 C   0  0  0  0  0  0  0  0  0  0  0  0
  -24.2970   -9.5070   21.9560 C   0  0  0  0  0  3  0  0  0  0  0  0
  -23.5690   -8.3100   22.1390 C   0  0  0  0  0  3  0  0  0  0  0  0
  -22.3800   -8.0820   21.4070 C   0  0  0  0  0  0  0  0  0  0  0  0
  -21.9510   -9.0480   20.4790 C   0  0  0  0  0  3  0  0  0  0  0  0
  -22.6780  -10.2360   20.2940 C   0  0  0  0  0  3  0  0  0  0  0  0
  -21.6240   -6.9390   21.5010 O   0  0  0  0  0  0  0  0  0  0  0  0
  -21.5900   -6.1900   22.6500 C   0  0  0  0  0  0  0  0  0  0  0  0
  -21.1710   -6.7370   23.8840 C   0  0  0  0  0  3  0  0  0  0  0  0
  -21.0850   -5.9150   25.0250 C   0  0  0  0  0  3  0  0  0  0  0  0
  -21.4080   -4.5470   24.9340 C   0  0  0  0  0  0  0  0  0  0  0  0
  -21.8210   -4.0000   23.7060 C   0  0  0  0  0  3  0  0  0  0  0  0
  -21.9090   -4.8200   22.5670 C   0  0  0  0  0  0  0  0  0  0  0  0
  -22.2860   -4.2840   21.3810 F   0  0  0  0  0  0  0  0  0  0  0  0
  -21.3180   -3.7560   26.0270 F   0  0  0  0  0  0  0  0  0  0  0  0
  -22.7030  -13.5690   21.2130 C   0  0  0  0  0  0  0  0  0  0  0  0
  -21.9990  -12.8680   22.0920 N   0  0  0  0  0  0  0  0  0  0  0  0
  -22.2520  -14.5960   20.7070 O   0  0  0  0  0  0  0  0  0  0  0  0
  -22.3810  -12.0400   22.5240 H   0  0  0  0  0  0  0  0  0  0  0  0
  -21.0650  -13.1640   22.3410 H   0  0  0  0  0  0  0  0  0  0  0  0
  -25.2920  -15.2590   20.3580 N   0  0  0  0  0  0  0  0  0  0  0  0
  -24.5220  -15.9050   20.4890 H   0  0  0  0  0  0  0  0  0  0  0  0
  -26.1260  -15.7010   19.9980 H   0  0  0  0  0  0  0  0  0  0  0  0
  -27.9830  -23.7390   20.3490 C   0  0  0  0  0  2  0  0  0  0  0  0
  -28.1500  -25.5010   20.2560 O   0  0  0  0  0  0  0  0  0  0  0  0
  -24.6380  -31.8240   23.1570 C   0  0  0  0  0  0  0  0  0  0  0  0
  -27.1670  -26.7100   20.2210 C   0  0  0  0  0  0  0  0  0  0  0  0
  -23.4520  -30.4120   21.5310 C   0  0  0  0  0  3  0  0  0  0  0  0
  -24.9000  -28.7500   20.1370 C   0  0  0  0  0  0  0  0  0  0  0  0
  -26.0310  -30.5520   21.4090 C   0  0  0  0  0  2  0  0  0  0  0  0
  -26.0960  -29.1120   20.7670 C   0  0  0  0  0  0  0  0  0  0  0  0
  -27.2150  -28.1230   20.7710 C   0  0  0  0  0  3  0  0  0  0  0  0
  -25.9330  -26.5590   19.5360 C   0  0  0  0  0  3  0  0  0  0  0  0
  -24.8590  -27.5000   19.4950 C   0  0  0  0  0  3  0  0  0  0  0  0
  -23.6930  -29.7030   20.1680 C   0  0  0  0  0  2  0  0  0  0  0  0
  -24.7320  -30.9630   22.0850 N   0  0  0  0  0  0  0  0  0  0  0  0
  -23.5440  -32.1280   23.6630 O   0  0  0  0  0  0  0  0  0  0  0  0
  -22.7340  -29.4430   22.5100 C   0  0  0  0  0  0  0  0  0  0  0  0
  -21.4000  -29.2990   22.3930 N   0  0  0  0  0  0  0  0  0  0  0  0
  -23.3900  -28.8190   23.3470 O   0  0  0  0  0  0  0  0  0  0  0  0
  -20.9200  -29.8510   21.6950 H   0  0  0  0  0  0  0  0  0  0  0  0
  -18.0060  -28.1200   22.9390 C   0  0  0  0  0  0  0  0  0  0  0  0
  -20.5720  -28.3720   23.1750 C   0  0  0  0  0  3  0  0  0  0  0  0
  -20.6560  -26.9370   22.6030 C   0  0  0  0  0  2  0  0  0  0  0  0
  -19.5420  -26.6200   21.5990 C   0  0  0  0  0  2  0  0  0  0  0  0
  -18.1670  -26.7720   22.2560 C   0  0  0  0  0  2  0  0  0  0  0  0
  -19.1340  -28.8780   23.3550 C   0  0  0  0  0  0  0  0  0  0  0  0
  -18.9240  -30.1370   23.9590 C   0  0  0  0  0  3  0  0  0  0  0  0
  -17.6220  -30.6380   24.1480 C   0  0  0  0  0  3  0  0  0  0  0  0
  -16.5100  -29.8790   23.7440 C   0  0  0  0  0  3  0  0  0  0  0  0
  -16.7030  -28.6210   23.1460 C   0  0  0  0  0  3  0  0  0  0  0  0
  -25.9000  -32.4810   23.7930 C   0  0  0  0  0  3  0  0  0  0  0  0
  -25.5680  -33.8780   24.1380 N   0  0  0  0  0  0  0  0  0  0  0  0
  -25.8830  -34.9520   23.4010 C   0  0  0  0  0  0  0  0  0  0  0  0
  -26.5400  -34.8720   22.3610 O   0  0  0  0  0  0  0  0  0  0  0  0
  -24.9830  -34.0110   24.9490 H   0  0  0  0  0  0  0  0  0  0  0  0
  -24.1350  -36.7450   23.1170 C   0  0  0  0  0  1  0  0  0  0  0  0
  -25.3970  -36.3320   23.8930 C   0  0  0  0  0  3  0  0  0  0  0  0
  -27.5400  -37.2310   24.6920 C   0  0  0  0  0  1  0  0  0  0  0  0
  -26.4180  -37.3970   23.7720 N   0  0  0  0  0  0  0  0  0  0  0  0
  -26.0060  -38.3110   23.9380 H   0  0  0  0  0  0  0  0  0  0  0  0
  -26.4070  -31.7200   25.0810 C   0  0  1  0  0  0  0  0  0  0  0  0
  -25.3080  -31.4870   26.1440 C   0  0  0  0  0  1  0  0  0  0  0  0
  -26.9970  -30.3400   24.7140 C   0  0  0  0  0  1  0  0  0  0  0  0
  -27.5500  -32.5220   25.7460 C   0  0  0  0  0  1  0  0  0  0  0  0
  3  1  1  6
  3 45  1  0
  3 15  1  0
  3  2  1  0
  4 16  1  0
  5 10  1  0
  6  7  1  0
  6  5  1  0
  8  7  1  0
  8 20  1  0
  8  9  1  0
 10  4  1  0
 10  9  1  0
 11  4  2  0
 12 13  2  0
 12 15  1  0
 13 16  1  0
 14 15  2  0
 16 14  1  0
 17 18  2  0
 18 37  1  0
 19 18  1  0
 19 22  1  0
 20 21  1  0
 20 17  1  0
 21 19  2  0
 22 23  1  0
 23 24  2  0
 25 28  1  0
 25 24  1  0
 26 25  2  0
 27 26  1  0
 27 22  2  0
 28 29  1  0
 29 30  1  0
 30 31  2  0
 32 31  1  0
 32 36  1  0
 33 32  2  0
 34 29  2  0
 34 33  1  0
 35 34  1  0
 37 38  1  0
 38 41  1  0
 38 40  1  0
 39 37  2  0
 42 43  1  0
 42 17  1  0
 44 42  1  0
 46 45  1  0
 47 58  2  0
 48 46  1  0
 48 53  1  0
 49 57  1  0
 49 59  1  0
 50 56  1  0
 50 52  1  0
 51 57  1  0
 52 53  2  0
 52 51  1  0
 54 48  2  0
 55 54  1  0
 55 50  2  0
 56 49  1  0
 57 47  1  0
 59 61  2  0
 60 59  1  0
 62 60  1  0
 63 72  2  0
 63 68  1  0
 64 60  1  0
 64 68  1  0
 65 64  1  0
 66 67  1  0
 66 65  1  0
 67 63  1  0
 68 69  2  0
 69 70  1  0
 71 70  2  0
 72 71  1  0
 73 47  1  0
 73 74  1  0
 73 83  1  0
 74 77  1  0
 75 79  1  0
 75 74  1  0
 76 75  2  0
 79 78  1  0
 81 79  1  0
 81 82  1  0
 81 80  1  0
 83 86  1  1
 83 84  1  0
 85 83  1  0
M  ISO  4   4 100  16 100  45 101  46 101
M  END
>  <TORSDO>  (55) 
F 17

>  <SCORE>  (55) 
-16.730

>  <name>  (55) 
54

>  <ligand_id>  (55) 
54

>  <original_smiles>  (55) 
[H]c1c([H])c([H])c2c(c1[H])C([H])([H])C([H])([H])C([H])([H])C2([H])N([H])C(=O)C1([H])N(C(=O)C([H])(N([H])C(=O)C([H])(N([H])C([H])([H])[H])C([H])([H])[H])C(C([H])([H])[H])(C([H])([H])[H])C([H])([H])[H])C([H])([H])c2c([H])c(OC([H])([H])C(C([H])([H])[H])(C([H])([H])[H])C3([H])C([H])([H])N(C(=O)N4C([H])([H])C([H])([H])C([H])([H])C([H])(n5nc(-c6c([H])c([H])c(Oc7c([H])c([H])c(F)c([H])c7F)c([H])c6[H])c(C(=O)N([H])[H])c5N([H])[H])C4([H])[H])C([H])([H])C3([H])[H])c([H])c([H])c2C1([H])[H]

>  <smiles>  (55) 
[H]c1c([H])c([H])c2c(c1[H])C([H])([H])C([H])([H])C([H])([H])C2([H])N([H])C(=O)C1([H])N(C(=O)C([H])(N([H])C(=O)C([H])(N([H])C([H])([H])[H])C([H])([H])[H])C(C([H])([H])[H])(C([H])([H])[H])C([H])([H])[H])C([H])([H])c2c([H])c(OC([H])([H])C(C([H])([H])[H])(C([H])([H])[H])C3([H])C([H])([H])N(C(=O)N4C([H])([H])C([H])([H])C([H])([H])C([H])(n5nc(-c6c([H])c([H])c(Oc7c([H])c([H])c(F)c([H])c7F)c([H])c6[H])c(C(=O)N([H])[H])c5N([H])[H])C4([H])[H])C([H])([H])C3([H])[H])c([H])c([H])c2C1([H])[H]

$$$$
55:0:0
     RDKit          3D

 87 91  0  0  1  0  0  0  0  0999 V2000
  -31.0110  -21.6910   18.8720 C   0  0  0  0  0  1  0  0  0  0  0  0
  -29.6530  -21.1800   19.3590 C   0  0  0  0  0  1  0  0  0  0  0  0
  -28.7140  -22.9780   19.9560 C   0  0  0  0  0 15  0  0  0  0  0  0
  -28.6550  -24.8770   20.0160 O   0  0  0  0  0  1  0  0  0  0  0  0
  -24.6040  -31.2390   22.8210 C   0  0  0  0  0  0  0  0  0  0  0  0
  -27.6170  -26.1320   19.9940 C   0  0  0  0  0  0  0  0  0  0  0  0
  -23.6180  -29.7770   21.1150 C   0  0  0  0  0  3  0  0  0  0  0  0
  -25.2490  -28.1820   19.8070 C   0  0  0  0  0  0  0  0  0  0  0  0
  -26.1980  -30.0080   21.1790 C   0  0  0  0  0  2  0  0  0  0  0  0
  -26.3900  -28.5600   20.5250 C   0  0  0  0  0  0  0  0  0  0  0  0
  -27.5490  -27.5730   20.5730 C   0  0  0  0  0  3  0  0  0  0  0  0
  -26.4200  -26.0270   19.2220 C   0  0  0  0  0  3  0  0  0  0  0  0
  -25.3170  -26.9480   19.1350 C   0  0  0  0  0  3  0  0  0  0  0  0
  -23.9980  -29.0910   19.7690 C   0  0  0  0  0  2  0  0  0  0  0  0
  -24.8280  -30.3830   21.7590 N   0  0  0  0  0  0  0  0  0  0  0  0
  -23.4600  -31.4750   23.2520 O   0  0  0  0  0  0  0  0  0  0  0  0
  -22.8800  -28.7700   22.0380 C   0  0  0  0  0  0  0  0  0  0  0  0
  -21.5460  -28.6310   21.9050 N   0  0  0  0  0  0  0  0  0  0  0  0
  -23.5280  -28.1070   22.8530 O   0  0  0  0  0  0  0  0  0  0  0  0
  -21.0710  -29.2150   21.2320 H   0  0  0  0  0  0  0  0  0  0  0  0
  -18.1470  -27.4260   22.4060 C   0  0  0  0  0  0  0  0  0  0  0  0
  -20.7170  -27.6560   22.6290 C   0  0  0  0  0  3  0  0  0  0  0  0
  -20.7890  -26.2620   21.9580 C   0  0  0  0  0  2  0  0  0  0  0  0
  -19.6640  -26.0220   20.9470 C   0  0  0  0  0  2  0  0  0  0  0  0
  -18.2970  -26.1310   21.6270 C   0  0  0  0  0  2  0  0  0  0  0  0
  -19.2820  -28.1500   22.8630 C   0  0  0  0  0  0  0  0  0  0  0  0
  -19.0820  -29.3630   23.5580 C   0  0  0  0  0  3  0  0  0  0  0  0
  -17.7830  -29.8510   23.7980 C   0  0  0  0  0  3  0  0  0  0  0  0
  -16.6660  -29.1240   23.3530 C   0  0  0  0  0  3  0  0  0  0  0  0
  -16.8480  -27.9130   22.6630 C   0  0  0  0  0  3  0  0  0  0  0  0
  -25.7690  -31.9720   23.5520 C   0  0  0  0  0  3  0  0  0  0  0  0
  -26.2410  -31.2260   24.8630 C   0  0  1  0  0  0  0  0  0  0  0  0
  -25.0910  -30.9020   25.8460 C   0  0  0  0  0  1  0  0  0  0  0  0
  -26.9500  -29.8970   24.5240 C   0  0  0  0  0  1  0  0  0  0  0  0
  -27.2790  -32.0920   25.6150 C   0  0  0  0  0  1  0  0  0  0  0  0
  -25.3210  -33.3380   23.9030 N   0  0  0  0  0  0  0  0  0  0  0  0
  -25.6500  -34.4580   23.2420 C   0  0  0  0  0  0  0  0  0  0  0  0
  -26.4120  -34.4530   22.2740 O   0  0  0  0  0  0  0  0  0  0  0  0
  -24.6470  -33.4100   24.6500 H   0  0  0  0  0  0  0  0  0  0  0  0
  -23.8410  -36.1710   22.8360 C   0  0  0  0  0  1  0  0  0  0  0  0
  -25.0380  -35.7920   23.7250 C   0  0  0  0  0  3  0  0  0  0  0  0
  -27.0340  -36.7720   24.7730 C   0  0  0  0  0  1  0  0  0  0  0  0
  -26.0040  -36.9140   23.7470 N   0  0  0  0  0  0  0  0  0  0  0  0
  -25.5270  -37.7980   23.8980 H   0  0  0  0  0  0  0  0  0  0  0  0
  -30.1130  -19.1830   19.8500 C   0  0  0  0  0  2  0  0  0  0  0  0
  -30.8040  -15.8210   19.3150 C   0  0  0  0  0  0  0  0  0  0  0  0
  -30.7110  -13.2050   18.4500 C   0  0  0  0  0  2  0  0  0  0  0  0
  -29.6770  -12.6890   17.3980 C   0  0  0  0  0  2  0  0  0  0  0  0
  -28.3250  -12.3530   18.0450 C   0  0  0  0  0  2  0  0  0  0  0  0
  -27.9740  -13.3960   19.1280 C   0  0  0  0  0  3  0  0  0  0  0  0
  -29.1510  -13.7690   20.0680 C   0  0  0  0  0  2  0  0  0  0  0  0
  -30.1910  -14.4470   19.2280 N   0  0  0  0  0  0  0  0  0  0  0  0
  -32.0280  -15.5870   19.1630 O   0  0  0  0  0  0  0  0  0  0  0  0
  -30.1660  -17.3380   19.3400 N   0  0  0  0  0  0  0  0  0  0  0  0
  -29.2000  -17.1400   19.1220 H   0  0  0  0  0  0  0  0  0  0  0  0
  -25.8180  -14.0550   20.2730 C   0  0  0  0  0  0  0  0  0  0  0  0
  -24.7460  -13.3490   20.7380 C   0  0  0  0  0  0  0  0  0  0  0  0
  -25.0710  -11.9690   20.5560 C   0  0  0  0  0  0  0  0  0  0  0  0
  -26.7280  -13.1170   19.8280 N   0  0  0  0  0  0  0  0  0  0  0  0
  -26.3010  -11.8450   20.0600 N   0  0  0  0  0  0  0  0  0  0  0  0
  -24.2490  -10.7690   20.7730 C   0  0  0  0  0  0  0  0  0  0  0  0
  -24.6120   -9.7810   21.7140 C   0  0  0  0  0  3  0  0  0  0  0  0
  -23.7920   -8.6500   21.9210 C   0  0  0  0  0  3  0  0  0  0  0  0
  -22.5910   -8.5000   21.1890 C   0  0  0  0  0  0  0  0  0  0  0  0
  -22.2410   -9.4750   20.2380 C   0  0  0  0  0  3  0  0  0  0  0  0
  -23.0630  -10.5960   20.0290 C   0  0  0  0  0  3  0  0  0  0  0  0
  -21.7450   -7.4230   21.3060 O   0  0  0  0  0  0  0  0  0  0  0  0
  -21.5480   -6.7880   22.5060 C   0  0  0  0  0  0  0  0  0  0  0  0
  -21.0570   -7.4730   23.6410 C   0  0  0  0  0  3  0  0  0  0  0  0
  -20.8020   -6.7670   24.8330 C   0  0  0  0  0  3  0  0  0  0  0  0
  -21.0300   -5.3790   24.8930 C   0  0  0  0  0  0  0  0  0  0  0  0
  -21.5150   -4.6940   23.7650 C   0  0  0  0  0  3  0  0  0  0  0  0
  -21.7700   -5.3980   22.5740 C   0  0  0  0  0  0  0  0  0  0  0  0
  -22.2160   -4.7300   21.4830 F   0  0  0  0  0  0  0  0  0  0  0  0
  -20.7770   -4.7000   26.0360 F   0  0  0  0  0  0  0  0  0  0  0  0
  -23.4500  -13.9320   21.2200 C   0  0  0  0  0  0  0  0  0  0  0  0
  -22.7880  -13.2680   22.1610 N   0  0  0  0  0  0  0  0  0  0  0  0
  -23.0430  -15.0150   20.7980 O   0  0  0  0  0  0  0  0  0  0  0  0
  -23.1340  -12.3930   22.5250 H   0  0  0  0  0  0  0  0  0  0  0  0
  -21.9230  -13.6430   22.5220 H   0  0  0  0  0  0  0  0  0  0  0  0
  -26.0860  -15.4160   20.1570 N   0  0  0  0  0  0  0  0  0  0  0  0
  -25.4170  -16.1250   20.4320 H   0  0  0  0  0  0  0  0  0  0  0  0
  -26.9290  -15.7950   19.7500 H   0  0  0  0  0  0  0  0  0  0  0  0
  -27.8220  -18.8480   20.8720 C   0  0  0  0  0  1  0  0  0  0  0  0
  -29.3170  -19.0700   21.1780 C   0  0  0  0  0  3  0  0  0  0  0  0
  -31.3220  -17.8220   22.2940 C   0  0  0  0  0  1  0  0  0  0  0  0
  -29.7990  -17.9820   22.1730 C   0  0  0  0  0  2  0  0  0  0  0  0
  1  2  1  0
  5 16  2  0
  6  4  1  0
  6 11  1  0
  7 15  1  0
  7 17  1  0
  8 10  1  0
  9 15  1  0
 10 11  2  0
 10  9  1  0
 12  6  2  0
 13 12  1  0
 13  8  2  0
 14  8  1  0
 14  7  1  0
 15  5  1  0
 17 19  2  0
 18 17  1  0
 20 18  1  0
 21 30  2  0
 21 26  1  0
 22 18  1  0
 22 26  1  0
 23 22  1  0
 24 25  1  0
 24 23  1  0
 25 21  1  0
 26 27  2  0
 27 28  1  0
 29 28  2  0
 30 29  1  0
 31  5  1  0
 31 36  1  0
 31 32  1  0
 32 35  1  1
 32 33  1  0
 34 32  1  0
 36 39  1  0
 37 41  1  0
 37 36  1  0
 38 37  2  0
 41 40  1  0
 41 43  1  0
 43 44  1  0
 43 42  1  0
 45 85  1  0
 46 54  1  0
 47 52  1  0
 48 49  1  0
 48 47  1  0
 50 49  1  0
 50 59  1  0
 50 51  1  0
 52 46  1  0
 52 51  1  0
 53 46  2  0
 54 45  1  0
 55 54  1  0
 56 57  2  0
 57 76  1  0
 58 57  1  0
 58 61  1  0
 59 60  1  0
 59 56  1  0
 60 58  2  0
 61 62  1  0
 62 63  2  0
 64 67  1  0
 64 63  1  0
 65 64  2  0
 66 65  1  0
 66 61  2  0
 67 68  1  0
 68 73  2  0
 68 69  1  0
 69 70  2  0
 70 71  1  0
 71 75  1  0
 72 71  2  0
 73 72  1  0
 74 73  1  0
 76 77  1  0
 77 80  1  0
 77 79  1  0
 78 76  2  0
 81 56  1  0
 81 82  1  0
 83 81  1  0
 85 84  1  0
 85 87  1  0
 87 86  1  0
M  ISO  4   3 101   4 101  46 100  54 100
M  END
>  <TORSDO>  (56) 
F 20

>  <SCORE>  (56) 
-11.032

>  <name>  (56) 
55

>  <ligand_id>  (56) 
55

>  <original_smiles>  (56) 
[H]c1c([H])c([H])c2c(c1[H])C([H])([H])C([H])([H])C([H])([H])C2([H])N([H])C(=O)C1([H])N(C(=O)C([H])(N([H])C(=O)C([H])(N([H])C([H])([H])[H])C([H])([H])[H])C(C([H])([H])[H])(C([H])([H])[H])C([H])([H])[H])C([H])([H])c2c([H])c(OC([H])([H])C([H])(C([H])([H])[H])C([H])(N([H])C(=O)N3C([H])([H])C([H])([H])C([H])([H])C([H])(n4nc(-c5c([H])c([H])c(Oc6c([H])c([H])c(F)c([H])c6F)c([H])c5[H])c(C(=O)N([H])[H])c4N([H])[H])C3([H])[H])C([H])(C([H])([H])[H])C([H])([H])C([H])([H])[H])c([H])c([H])c2C1([H])[H]

>  <smiles>  (56) 
[H]c1c([H])c([H])c2c(c1[H])C([H])([H])C([H])([H])C([H])([H])C2([H])N([H])C(=O)C1([H])N(C(=O)C([H])(N([H])C(=O)C([H])(N([H])C([H])([H])[H])C([H])([H])[H])C(C([H])([H])[H])(C([H])([H])[H])C([H])([H])[H])C([H])([H])c2c([H])c(OC([H])([H])C([H])(C([H])([H])[H])C([H])(N([H])C(=O)N3C([H])([H])C([H])([H])C([H])([H])C([H])(n4nc(-c5c([H])c([H])c(Oc6c([H])c([H])c(F)c([H])c6F)c([H])c5[H])c(C(=O)N([H])[H])c4N([H])[H])C3([H])[H])C([H])(C([H])([H])[H])C([H])([H])C([H])([H])[H])c([H])c([H])c2C1([H])[H]

$$$$
56:0:0
     RDKit          3D

 95102  0  0  1  0  0  0  0  0999 V2000
  -28.5780  -22.1970   20.1130 C   0  0  0  0  0  2  0  0  0  0  0  0
  -28.5420  -20.8980   21.1020 C   0  0  0  0  0  3  0  0  0  0  0  0
  -27.2850  -20.2470   23.2970 C   0  0  0  0  0  1  0  0  0  0  0  0
  -27.2210  -20.9800   21.9370 C   0  0  0  0  0  3  0  0  0  0  0  0
  -24.6830  -21.2010   21.5490 C   0  0  0  0  0  1  0  0  0  0  0  0
  -25.9930  -20.5480   21.1000 C   0  0  0  0  0  2  0  0  0  0  0  0
  -28.6760  -19.3750   20.5290 C   0  0  0  0  0  2  0  0  0  0  0  0
  -30.4590  -18.3960   18.9150 C   0  0  0  0  0  1  0  0  0  0  0  0
  -30.0440  -18.5540   20.3850 C   0  0  0  0  0  3  0  0  0  0  0  0
  -30.2520  -17.1760   21.2020 C   0  0  0  0  0  2  0  0  0  0  0  0
  -30.6340  -14.6840   20.4830 C   0  0  0  0  0  0  0  0  0  0  0  0
  -30.4110  -12.4100   19.4680 C   0  0  0  0  0  2  0  0  0  0  0  0
  -29.5030  -12.5210   18.2230 C   0  0  0  0  0  2  0  0  0  0  0  0
  -28.0250  -12.3460   18.6250 C   0  0  0  0  0  2  0  0  0  0  0  0
  -27.6330  -13.2340   19.8360 C   0  0  0  0  0  3  0  0  0  0  0  0
  -28.6800  -13.1480   20.9700 C   0  0  0  0  0  2  0  0  0  0  0  0
  -29.9890  -13.4760   20.3940 N   0  0  0  0  0  0  0  0  0  0  0  0
  -31.8360  -14.7840   20.2210 O   0  0  0  0  0  0  0  0  0  0  0  0
  -29.8560  -15.8020   20.6960 N   0  0  0  0  0  0  0  0  0  0  0  0
  -28.8700  -15.5990   20.7380 H   0  0  0  0  0  0  0  0  0  0  0  0
  -25.2480  -13.8210   20.5660 C   0  0  0  0  0  0  0  0  0  0  0  0
  -24.1780  -13.0420   20.9200 C   0  0  0  0  0  0  0  0  0  0  0  0
  -24.6390  -11.6930   20.8760 C   0  0  0  0  0  0  0  0  0  0  0  0
  -26.2890  -12.9410   20.3200 N   0  0  0  0  0  0  0  0  0  0  0  0
  -25.9310  -11.6560   20.5730 N   0  0  0  0  0  0  0  0  0  0  0  0
  -23.9080  -10.4270   21.0410 C   0  0  0  0  0  0  0  0  0  0  0  0
  -24.3620   -9.4180   21.9180 C   0  0  0  0  0  3  0  0  0  0  0  0
  -23.6290   -8.2230   22.0750 C   0  0  0  0  0  3  0  0  0  0  0  0
  -22.4270   -8.0270   21.3540 C   0  0  0  0  0  0  0  0  0  0  0  0
  -21.9920   -9.0240   20.4650 C   0  0  0  0  0  3  0  0  0  0  0  0
  -22.7260  -10.2100   20.3060 C   0  0  0  0  0  3  0  0  0  0  0  0
  -21.6630   -6.8880   21.4250 O   0  0  0  0  0  0  0  0  0  0  0  0
  -21.6840   -6.0740   22.5280 C   0  0  0  0  0  0  0  0  0  0  0  0
  -21.4030   -6.5650   23.8220 C   0  0  0  0  0  3  0  0  0  0  0  0
  -21.3680   -5.6800   24.9170 C   0  0  0  0  0  3  0  0  0  0  0  0
  -21.6040   -4.3060   24.7220 C   0  0  0  0  0  0  0  0  0  0  0  0
  -21.8810   -3.8140   23.4340 C   0  0  0  0  0  3  0  0  0  0  0  0
  -21.9180   -4.6980   22.3400 C   0  0  0  0  0  0  0  0  0  0  0  0
  -22.1630   -4.2150   21.0980 F   0  0  0  0  0  0  0  0  0  0  0  0
  -21.5620   -3.4540   25.7730 F   0  0  0  0  0  0  0  0  0  0  0  0
  -22.7800  -13.5200   21.1890 C   0  0  0  0  0  0  0  0  0  0  0  0
  -22.0470  -12.8150   22.0450 N   0  0  0  0  0  0  0  0  0  0  0  0
  -22.3470  -14.5490   20.6760 O   0  0  0  0  0  0  0  0  0  0  0  0
  -22.4140  -11.9810   22.4800 H   0  0  0  0  0  0  0  0  0  0  0  0
  -21.1090  -13.1170   22.2690 H   0  0  0  0  0  0  0  0  0  0  0  0
  -25.4120  -15.1910   20.4090 N   0  0  0  0  0  0  0  0  0  0  0  0
  -24.6250  -15.8300   20.4530 H   0  0  0  0  0  0  0  0  0  0  0  0
  -26.2440  -15.6250   20.0310 H   0  0  0  0  0  0  0  0  0  0  0  0
  -28.4850  -23.7260   20.6940 C   0  0  0  0  0  3  0  0  0  0  0  0
  -29.5930  -23.9690   21.6410 N   0  0  0  0  0  4  0  0  0  0  0  0
  -30.4780  -23.8520   21.1830 H   0  0  0  0  0  0  0  0  0  0  0  0
  -29.5470  -23.3340   22.4180 H   0  0  0  0  0  0  0  0  0  0  0  0
  -29.5500  -24.9060   22.0110 H   0  0  0  0  0  0  0  0  0  0  0  0
  -28.3720  -24.9820   19.6810 C   0  0  0  0  0  2  0  0  0  0  0  0
  -28.3330  -26.3990   20.1950 O   0  0  0  0  0  0  0  0  0  0  0  0
  -24.6320  -31.8550   23.1920 C   0  0  0  0  0  0  0  0  0  0  0  0
  -27.2080  -27.2530   20.1290 C   0  0  0  0  0  0  0  0  0  0  0  0
  -23.4250  -30.4870   21.5320 C   0  0  0  0  0  3  0  0  0  0  0  0
  -24.8650  -28.9280   20.1040 C   0  0  0  0  0  0  0  0  0  0  0  0
  -25.9670  -30.7710   21.3650 C   0  0  0  0  0  2  0  0  0  0  0  0
  -26.0340  -29.3850   20.7250 C   0  0  0  0  0  0  0  0  0  0  0  0
  -27.1990  -28.5560   20.7360 C   0  0  0  0  0  3  0  0  0  0  0  0
  -26.0100  -26.8590   19.4870 C   0  0  0  0  0  3  0  0  0  0  0  0
  -24.8600  -27.6710   19.4780 C   0  0  0  0  0  3  0  0  0  0  0  0
  -23.6420  -29.8280   20.1430 C   0  0  0  0  0  2  0  0  0  0  0  0
  -24.6960  -31.0570   22.0870 N   0  0  0  0  0  0  0  0  0  0  0  0
  -23.5450  -32.1340   23.7240 O   0  0  0  0  0  0  0  0  0  0  0  0
  -22.7480  -29.4640   22.4790 C   0  0  0  0  0  0  0  0  0  0  0  0
  -21.4180  -29.3080   22.3540 N   0  0  0  0  0  0  0  0  0  0  0  0
  -23.4190  -28.8190   23.2880 O   0  0  0  0  0  0  0  0  0  0  0  0
  -20.9290  -29.8990   21.6960 H   0  0  0  0  0  0  0  0  0  0  0  0
  -18.0300  -28.1360   22.8480 C   0  0  0  0  0  0  0  0  0  0  0  0
  -20.5900  -28.3720   23.1170 C   0  0  0  0  0  3  0  0  0  0  0  0
  -20.6730  -26.9420   22.5370 C   0  0  0  0  0  2  0  0  0  0  0  0
  -19.5720  -26.6370   21.5150 C   0  0  0  0  0  2  0  0  0  0  0  0
  -18.1910  -26.7900   22.1600 C   0  0  0  0  0  2  0  0  0  0  0  0
  -19.1550  -28.8840   23.2850 C   0  0  0  0  0  0  0  0  0  0  0  0
  -18.9500  -30.1420   23.8930 C   0  0  0  0  0  3  0  0  0  0  0  0
  -17.6510  -30.6570   24.0560 C   0  0  0  0  0  3  0  0  0  0  0  0
  -16.5380  -29.9090   23.6280 C   0  0  0  0  0  3  0  0  0  0  0  0
  -16.7300  -28.6490   23.0370 C   0  0  0  0  0  3  0  0  0  0  0  0
  -25.9130  -32.4760   23.8300 C   0  0  0  0  0  3  0  0  0  0  0  0
  -26.4480  -31.6560   25.0680 C   0  0  1  0  0  0  0  0  0  0  0  0
  -25.3730  -31.3640   26.1420 C   0  0  0  0  0  1  0  0  0  0  0  0
  -27.0340  -30.3030   24.6060 C   0  0  0  0  0  1  0  0  0  0  0  0
  -27.6100  -32.4230   25.7430 C   0  0  0  0  0  1  0  0  0  0  0  0
  -25.5890  -33.8540   24.2260 N   0  0  0  0  0  0  0  0  0  0  0  0
  -25.9030  -34.9470   23.5150 C   0  0  0  0  0  0  0  0  0  0  0  0
  -26.5640  -34.8960   22.4740 O   0  0  0  0  0  0  0  0  0  0  0  0
  -24.9950  -33.9570   25.0350 H   0  0  0  0  0  0  0  0  0  0  0  0
  -24.1450  -36.7320   23.2670 C   0  0  0  0  0  1  0  0  0  0  0  0
  -25.4070  -36.3120   24.0380 C   0  0  0  0  0  3  0  0  0  0  0  0
  -27.5580  -37.1820   24.8500 C   0  0  0  0  0  1  0  0  0  0  0  0
  -26.4270  -37.3830   23.9460 N   0  0  0  0  0  0  0  0  0  0  0  0
  -26.0190  -38.2940   24.1400 H   0  0  0  0  0  0  0  0  0  0  0  0
  1 49  1  0
  2  1  1  0
  2  4  1  0
  4  3  1  0
  6  5  1  0
  6  4  1  0
  7  2  1  0
  9  8  1  0
  9  7  1  0
  9 10  1  0
 11 19  1  0
 12 17  1  0
 13 14  1  0
 13 12  1  0
 15 14  1  0
 15 24  1  0
 15 16  1  0
 17 11  1  0
 17 16  1  0
 18 11  2  0
 19 20  1  0
 19 10  1  0
 21 22  2  0
 22 41  1  0
 23 22  1  0
 23 26  1  0
 24 21  1  0
 24 25  1  0
 25 23  2  0
 26 27  1  0
 27 28  2  0
 29 32  1  0
 29 28  1  0
 30 29  2  0
 31 30  1  0
 31 26  2  0
 32 33  1  0
 33 34  1  0
 34 35  2  0
 36 35  1  0
 36 40  1  0
 37 36  2  0
 38 33  2  0
 38 37  1  0
 39 38  1  0
 41 42  1  0
 42 45  1  0
 42 44  1  0
 43 41  2  0
 46 47  1  0
 46 21  1  0
 48 46  1  0
 49 54  1  0
 49 50  1  0
 50 53  1  0
 50 52  1  0
 51 50  1  0
 54 55  1  0
 56 67  2  0
 57 55  1  0
 57 62  1  0
 58 66  1  0
 58 68  1  0
 59 65  1  0
 59 61  1  0
 60 66  1  0
 61 62  2  0
 61 60  1  0
 63 57  2  0
 64 63  1  0
 64 59  2  0
 65 58  1  0
 66 56  1  0
 68 70  2  0
 69 68  1  0
 71 69  1  0
 72 81  2  0
 72 77  1  0
 73 69  1  0
 73 77  1  0
 74 73  1  0
 75 76  1  0
 75 74  1  0
 76 72  1  0
 77 78  2  0
 78 79  1  0
 80 79  2  0
 81 80  1  0
 82 56  1  0
 82 87  1  0
 82 83  1  0
 83 86  1  1
 83 84  1  0
 85 83  1  0
 87 90  1  0
 88 92  1  0
 88 87  1  0
 89 88  2  0
 92 91  1  0
 94 92  1  0
 94 95  1  0
 94 93  1  0
M  ISO  4  11 100  19 100  54 101  55 101
M  END
>  <TORSDO>  (57) 
F 25

>  <SCORE>  (57) 
8.064

>  <name>  (57) 
56

>  <ligand_id>  (57) 
56

>  <original_smiles>  (57) 
[H]c1c([H])c([H])c2c(c1[H])C([H])([H])C([H])([H])C([H])([H])C2([H])N([H])C(=O)C1([H])N(C(=O)C([H])(N([H])C(=O)C([H])(N([H])C([H])([H])[H])C([H])([H])[H])C(C([H])([H])[H])(C([H])([H])[H])C([H])([H])[H])C([H])([H])c2c([H])c(OC([H])([H])C([H])(C([H])([H])C([H])(C([H])([H])C([H])(C([H])([H])[H])C([H])([H])N([H])C(=O)N3C([H])([H])C([H])([H])C([H])([H])C([H])(n4nc(-c5c([H])c([H])c(Oc6c([H])c([H])c(F)c([H])c6F)c([H])c5[H])c(C(=O)N([H])[H])c4N([H])[H])C3([H])[H])C([H])(C([H])([H])[H])C([H])([H])C([H])([H])[H])[N+]([H])([H])[H])c([H])c([H])c2C1([H])[H]

>  <smiles>  (57) 
[H]c1c([H])c([H])c2c(c1[H])C([H])([H])C([H])([H])C([H])([H])C2([H])N([H])C(=O)C1([H])N(C(=O)C([H])(N([H])C(=O)C([H])(N([H])C([H])([H])[H])C([H])([H])[H])C(C([H])([H])[H])(C([H])([H])[H])C([H])([H])[H])C([H])([H])c2c([H])c(OC([H])([H])C([H])(C([H])([H])C([H])(C([H])([H])C([H])(C([H])([H])[H])C([H])([H])N([H])C(=O)N3C([H])([H])C([H])([H])C([H])([H])C([H])(n4nc(-c5c([H])c([H])c(Oc6c([H])c([H])c(F)c([H])c6F)c([H])c5[H])c(C(=O)N([H])[H])c4N([H])[H])C3([H])[H])C([H])(C([H])([H])[H])C([H])([H])C([H])([H])[H])[N+]([H])([H])[H])c([H])c([H])c2C1([H])[H]

$$$$
57:0:0
     RDKit          3D

 88 96  0  0  1  0  0  0  0  0999 V2000
  -29.0490  -22.6860   20.0860 C   0  0  0  0  0  3  0  0  0  0  0  0
  -30.6280  -15.7020   19.7610 C   0  0  0  0  0  0  0  0  0  0  0  0
  -30.5380  -13.2140   18.9270 C   0  0  0  0  0  2  0  0  0  0  0  0
  -29.5590  -12.8740   17.7760 C   0  0  0  0  0  2  0  0  0  0  0  0
  -28.1670  -12.5550   18.3380 C   0  0  0  0  0  2  0  0  0  0  0  0
  -27.7460  -13.5710   19.4260 C   0  0  0  0  0  3  0  0  0  0  0  0
  -28.8550  -13.8540   20.4650 C   0  0  0  0  0  2  0  0  0  0  0  0
  -30.0020  -14.4040   19.7160 N   0  0  0  0  0  0  0  0  0  0  0  0
  -31.8430  -15.5690   19.5260 O   0  0  0  0  0  0  0  0  0  0  0  0
  -30.3030  -19.9900   19.0940 C   0  0  0  0  0  2  0  0  0  0  0  0
  -28.6270  -19.5380   20.5830 C   0  0  0  0  0  2  0  0  0  0  0  0
  -30.8720  -18.4410   19.5690 C   0  0  0  0  0  2  0  0  0  0  0  0
  -28.7400  -17.8760   20.1360 C   0  0  0  0  0  2  0  0  0  0  0  0
  -28.9920  -20.8640   19.6300 C   0  0  1  0  0  0  0  0  0  0  0  0
  -27.9110  -20.8900   18.5380 C   0  0  0  0  0  1  0  0  0  0  0  0
  -30.0590  -17.1250   19.7830 N   0  0  0  0  0  0  0  0  0  0  0  0
  -25.4610  -14.1120   20.3950 C   0  0  0  0  0  0  0  0  0  0  0  0
  -24.4220  -13.3280   20.8150 C   0  0  0  0  0  0  0  0  0  0  0  0
  -24.8740  -11.9770   20.7040 C   0  0  0  0  0  0  0  0  0  0  0  0
  -26.4710  -13.2380   20.0410 N   0  0  0  0  0  0  0  0  0  0  0  0
  -26.1390  -11.9450   20.2930 N   0  0  0  0  0  0  0  0  0  0  0  0
  -24.1510  -10.7140   20.9030 C   0  0  0  0  0  0  0  0  0  0  0  0
  -24.5860   -9.7490   21.8370 C   0  0  0  0  0  3  0  0  0  0  0  0
  -23.8570   -8.5530   22.0270 C   0  0  0  0  0  3  0  0  0  0  0  0
  -22.6800   -8.3150   21.2790 C   0  0  0  0  0  0  0  0  0  0  0  0
  -22.2630   -9.2670   20.3320 C   0  0  0  0  0  3  0  0  0  0  0  0
  -22.9930  -10.4540   20.1430 C   0  0  0  0  0  3  0  0  0  0  0  0
  -21.9230   -7.1720   21.3770 O   0  0  0  0  0  0  0  0  0  0  0  0
  -21.8100   -6.4830   22.5570 C   0  0  0  0  0  0  0  0  0  0  0  0
  -21.2590   -7.0730   23.7150 C   0  0  0  0  0  3  0  0  0  0  0  0
  -21.0970   -6.3080   24.8870 C   0  0  0  0  0  3  0  0  0  0  0  0
  -21.4770   -4.9530   24.9010 C   0  0  0  0  0  0  0  0  0  0  0  0
  -22.0220   -4.3610   23.7490 C   0  0  0  0  0  3  0  0  0  0  0  0
  -22.1850   -5.1240   22.5780 C   0  0  0  0  0  0  0  0  0  0  0  0
  -22.6900   -4.5430   21.4630 F   0  0  0  0  0  0  0  0  0  0  0  0
  -21.3160   -4.2150   26.0240 F   0  0  0  0  0  0  0  0  0  0  0  0
  -23.0550  -13.8080   21.2020 C   0  0  0  0  0  0  0  0  0  0  0  0
  -22.3890  -13.0940   22.1030 N   0  0  0  0  0  0  0  0  0  0  0  0
  -22.5890  -14.8490   20.7440 O   0  0  0  0  0  0  0  0  0  0  0  0
  -22.7830  -12.2510   22.4950 H   0  0  0  0  0  0  0  0  0  0  0  0
  -21.4720  -13.3950   22.4070 H   0  0  0  0  0  0  0  0  0  0  0  0
  -25.6230  -15.4850   20.2550 N   0  0  0  0  0  0  0  0  0  0  0  0
  -24.8780  -16.1420   20.4600 H   0  0  0  0  0  0  0  0  0  0  0  0
  -26.4570  -15.9260   19.8900 H   0  0  0  0  0  0  0  0  0  0  0  0
  -27.7170  -22.8240   22.2770 C   0  0  0  0  0  1  0  0  0  0  0  0
  -29.1020  -22.7120   21.6230 C   0  0  0  0  0  2  0  0  0  0  0  0
  -28.2130  -24.2880   19.5910 C   0  0  0  0  0  2  0  0  0  0  0  0
  -28.3090  -25.9470   19.9570 O   0  0  0  0  0  0  0  0  0  0  0  0
  -24.5730  -31.8050   23.1180 C   0  0  0  0  0  0  0  0  0  0  0  0
  -27.2800  -27.0620   19.9130 C   0  0  0  0  0  0  0  0  0  0  0  0
  -23.4260  -30.4370   21.4200 C   0  0  0  0  0  3  0  0  0  0  0  0
  -24.9290  -28.9290   19.9300 C   0  0  0  0  0  0  0  0  0  0  0  0
  -25.9880  -30.7160   21.2900 C   0  0  0  0  0  2  0  0  0  0  0  0
  -26.1020  -29.3270   20.5790 C   0  0  0  0  0  0  0  0  0  0  0  0
  -27.2690  -28.4180   20.5420 C   0  0  0  0  0  3  0  0  0  0  0  0
  -26.0730  -26.8430   19.2120 C   0  0  0  0  0  3  0  0  0  0  0  0
  -24.9450  -27.7130   19.2230 C   0  0  0  0  0  3  0  0  0  0  0  0
  -23.6820  -29.8170   20.0160 C   0  0  0  0  0  2  0  0  0  0  0  0
  -24.6840  -31.0160   21.9960 N   0  0  0  0  0  0  0  0  0  0  0  0
  -23.4740  -32.0380   23.6500 O   0  0  0  0  0  0  0  0  0  0  0  0
  -22.7580  -29.3880   22.3450 C   0  0  0  0  0  0  0  0  0  0  0  0
  -21.4330  -29.1850   22.2110 N   0  0  0  0  0  0  0  0  0  0  0  0
  -23.4390  -28.7570   23.1560 O   0  0  0  0  0  0  0  0  0  0  0  0
  -20.9330  -29.7520   21.5390 H   0  0  0  0  0  0  0  0  0  0  0  0
  -18.0910  -27.8410   22.6620 C   0  0  0  0  0  0  0  0  0  0  0  0
  -20.6400  -28.1880   22.9380 C   0  0  0  0  0  3  0  0  0  0  0  0
  -20.7900  -26.7870   22.3000 C   0  0  0  0  0  2  0  0  0  0  0  0
  -19.7020  -26.4700   21.2710 C   0  0  0  0  0  2  0  0  0  0  0  0
  -18.3160  -26.5320   21.9230 C   0  0  0  0  0  2  0  0  0  0  0  0
  -19.1810  -28.6260   23.1240 C   0  0  0  0  0  0  0  0  0  0  0  0
  -18.9170  -29.8450   23.7820 C   0  0  0  0  0  3  0  0  0  0  0  0
  -17.5950  -30.2860   23.9790 C   0  0  0  0  0  3  0  0  0  0  0  0
  -16.5180  -29.5000   23.5320 C   0  0  0  0  0  3  0  0  0  0  0  0
  -16.7670  -28.2770   22.8830 C   0  0  0  0  0  3  0  0  0  0  0  0
  -25.8190  -32.4670   23.7830 C   0  0  0  0  0  3  0  0  0  0  0  0
  -25.4710  -33.8590   24.1230 N   0  0  0  0  0  0  0  0  0  0  0  0
  -25.7600  -34.9310   23.3730 C   0  0  0  0  0  0  0  0  0  0  0  0
  -26.4080  -34.8540   22.3250 O   0  0  0  0  0  0  0  0  0  0  0  0
  -24.8910  -33.9900   24.9400 H   0  0  0  0  0  0  0  0  0  0  0  0
  -23.9640  -36.6800   23.1060 C   0  0  0  0  0  1  0  0  0  0  0  0
  -25.2520  -36.3050   23.8560 C   0  0  0  0  0  3  0  0  0  0  0  0
  -27.3860  -37.2700   24.6080 C   0  0  0  0  0  1  0  0  0  0  0  0
  -26.2460  -37.3910   23.7020 N   0  0  0  0  0  0  0  0  0  0  0  0
  -25.8140  -38.2980   23.8580 H   0  0  0  0  0  0  0  0  0  0  0  0
  -26.3100  -31.7030   25.0750 C   0  0  1  0  0  0  0  0  0  0  0  0
  -25.1930  -31.4450   26.1140 C   0  0  0  0  0  1  0  0  0  0  0  0
  -26.9260  -30.3350   24.7060 C   0  0  0  0  0  1  0  0  0  0  0  0
  -27.4260  -32.5150   25.7730 C   0  0  0  0  0  1  0  0  0  0  0  0
  1 47  1  0
  1 46  1  0
  2 16  1  0
  3  8  1  0
  4  5  1  0
  4  3  1  0
  6  5  1  0
  6 20  1  0
  6  7  1  0
  8  2  1  0
  8  7  1  0
  9  2  2  0
 10 12  1  0
 10 14  1  0
 12 16  1  0
 13 11  1  0
 14 15  1  6
 14  1  1  0
 14 11  1  0
 16 13  1  0
 17 18  2  0
 18 37  1  0
 19 18  1  0
 19 22  1  0
 20 21  1  0
 20 17  1  0
 21 19  2  0
 22 23  1  0
 23 24  2  0
 25 28  1  0
 25 24  1  0
 26 25  2  0
 27 26  1  0
 27 22  2  0
 28 29  1  0
 29 34  2  0
 29 30  1  0
 30 31  2  0
 31 32  1  0
 32 36  1  0
 33 32  2  0
 34 33  1  0
 35 34  1  0
 37 38  1  0
 38 41  1  0
 38 40  1  0
 39 37  2  0
 42 17  1  0
 42 43  1  0
 44 42  1  0
 46 45  1  0
 47 48  1  0
 49 60  2  0
 50 48  1  0
 50 55  1  0
 51 59  1  0
 51 61  1  0
 52 58  1  0
 52 54  1  0
 53 59  1  0
 54 53  1  0
 55 54  2  0
 56 57  1  0
 56 50  2  0
 57 52  2  0
 58 51  1  0
 59 49  1  0
 61 63  2  0
 62 61  1  0
 64 62  1  0
 65 74  2  0
 65 70  1  0
 66 62  1  0
 66 70  1  0
 67 66  1  0
 68 69  1  0
 68 67  1  0
 69 65  1  0
 70 71  2  0
 71 72  1  0
 73 72  2  0
 74 73  1  0
 75 49  1  0
 75 76  1  0
 75 85  1  0
 76 79  1  0
 77 81  1  0
 77 76  1  0
 78 77  2  0
 81 80  1  0
 83 81  1  0
 83 84  1  0
 83 82  1  0
 85 88  1  1
 85 86  1  0
 87 85  1  0
M  ISO  4   2 100  16 100  47 101  48 101
M  END
>  <TORSDO>  (58) 
F 18

>  <SCORE>  (58) 
-15.712

>  <name>  (58) 
57

>  <ligand_id>  (58) 
57

>  <original_smiles>  (58) 
[H]c1c([H])c([H])c2c(c1[H])C([H])([H])C([H])([H])C([H])([H])C2([H])N([H])C(=O)C1([H])N(C(=O)C([H])(N([H])C(=O)C([H])(N([H])C([H])([H])[H])C([H])([H])[H])C(C([H])([H])[H])(C([H])([H])[H])C([H])([H])[H])C([H])([H])c2c([H])c(OC([H])([H])C([H])(C([H])([H])C([H])([H])[H])C3(C([H])([H])[H])C([H])([H])C([H])([H])N(C(=O)N4C([H])([H])C([H])([H])C([H])([H])C([H])(n5nc(-c6c([H])c([H])c(Oc7c([H])c([H])c(F)c([H])c7F)c([H])c6[H])c(C(=O)N([H])[H])c5N([H])[H])C4([H])[H])C([H])([H])C3([H])[H])c([H])c([H])c2C1([H])[H]

>  <smiles>  (58) 
[H]c1c([H])c([H])c2c(c1[H])C([H])([H])C([H])([H])C([H])([H])C2([H])N([H])C(=O)C1([H])N(C(=O)C([H])(N([H])C(=O)C([H])(N([H])C([H])([H])[H])C([H])([H])[H])C(C([H])([H])[H])(C([H])([H])[H])C([H])([H])[H])C([H])([H])c2c([H])c(OC([H])([H])C([H])(C([H])([H])C([H])([H])[H])C3(C([H])([H])[H])C([H])([H])C([H])([H])N(C(=O)N4C([H])([H])C([H])([H])C([H])([H])C([H])(n5nc(-c6c([H])c([H])c(Oc7c([H])c([H])c(F)c([H])c7F)c([H])c6[H])c(C(=O)N([H])[H])c5N([H])[H])C4([H])[H])C([H])([H])C3([H])[H])c([H])c([H])c2C1([H])[H]

$$$$
58:0:0
     RDKit          3D

 94101  0  0  1  0  0  0  0  0999 V2000
  -29.6150  -19.8260   20.8510 C   0  0  0  0  0  2  0  0  0  0  0  0
  -27.4750  -21.4050   21.5150 C   0  0  0  0  0  1  0  0  0  0  0  0
  -28.9960  -21.4700   21.2830 C   0  0  0  0  0  3  0  0  0  0  0  0
  -29.6770  -23.0140   19.2320 C   0  0  0  0  0  1  0  0  0  0  0  0
  -29.3250  -23.1240   20.7190 C   0  0  0  0  0  3  0  0  0  0  0  0
  -28.3640  -24.6110   20.8890 C   0  0  0  0  0  2  0  0  0  0  0  0
  -28.5760  -26.1720   20.4720 O   0  0  0  0  0  0  0  0  0  0  0  0
  -24.7700  -32.0090   23.2680 C   0  0  0  0  0  0  0  0  0  0  0  0
  -27.5220  -27.2060   20.3890 C   0  0  0  0  0  0  0  0  0  0  0  0
  -23.6440  -30.5470   21.6390 C   0  0  0  0  0  3  0  0  0  0  0  0
  -25.1600  -28.9740   20.2690 C   0  0  0  0  0  0  0  0  0  0  0  0
  -26.1990  -30.8550   21.5190 C   0  0  0  0  0  2  0  0  0  0  0  0
  -26.3240  -29.4400   20.8940 C   0  0  0  0  0  0  0  0  0  0  0  0
  -27.5020  -28.5760   20.9290 C   0  0  0  0  0  3  0  0  0  0  0  0
  -26.3310  -26.8830   19.7030 C   0  0  0  0  0  3  0  0  0  0  0  0
  -25.1860  -27.7150   19.6490 C   0  0  0  0  0  3  0  0  0  0  0  0
  -23.9100  -29.8490   20.2790 C   0  0  0  0  0  2  0  0  0  0  0  0
  -24.8890  -31.1640   22.1950 N   0  0  0  0  0  0  0  0  0  0  0  0
  -23.6640  -32.2710   23.7700 O   0  0  0  0  0  0  0  0  0  0  0  0
  -22.9730  -29.5430   22.6120 C   0  0  0  0  0  0  0  0  0  0  0  0
  -21.6630  -29.2900   22.4380 N   0  0  0  0  0  0  0  0  0  0  0  0
  -23.6390  -28.9910   23.4920 O   0  0  0  0  0  0  0  0  0  0  0  0
  -21.1760  -29.7880   21.7040 H   0  0  0  0  0  0  0  0  0  0  0  0
  -18.3340  -27.9230   22.8850 C   0  0  0  0  0  0  0  0  0  0  0  0
  -20.8670  -28.3290   23.2110 C   0  0  0  0  0  3  0  0  0  0  0  0
  -21.0600  -26.8910   22.6760 C   0  0  0  0  0  2  0  0  0  0  0  0
  -20.0050  -26.4850   21.6420 C   0  0  0  0  0  2  0  0  0  0  0  0
  -18.6000  -26.5710   22.2440 C   0  0  0  0  0  2  0  0  0  0  0  0
  -19.3980  -28.7550   23.3230 C   0  0  0  0  0  0  0  0  0  0  0  0
  -19.0960  -30.0150   23.8830 C   0  0  0  0  0  3  0  0  0  0  0  0
  -17.7610  -30.4470   24.0060 C   0  0  0  0  0  3  0  0  0  0  0  0
  -16.7120  -29.6140   23.5820 C   0  0  0  0  0  3  0  0  0  0  0  0
  -16.9980  -28.3540   23.0280 C   0  0  0  0  0  3  0  0  0  0  0  0
  -26.0110  -32.7030   23.9050 C   0  0  0  0  0  3  0  0  0  0  0  0
  -25.6410  -34.0950   24.2180 N   0  0  0  0  0  0  0  0  0  0  0  0
  -25.9130  -35.1530   23.4430 C   0  0  0  0  0  0  0  0  0  0  0  0
  -26.5630  -35.0650   22.3990 O   0  0  0  0  0  0  0  0  0  0  0  0
  -25.0590  -34.2350   25.0300 H   0  0  0  0  0  0  0  0  0  0  0  0
  -24.0870  -36.8610   23.1330 C   0  0  0  0  0  1  0  0  0  0  0  0
  -25.3780  -36.5270   23.8970 C   0  0  0  0  0  3  0  0  0  0  0  0
  -27.4960  -37.5390   24.6210 C   0  0  0  0  0  1  0  0  0  0  0  0
  -26.3520  -37.6270   23.7180 N   0  0  0  0  0  0  0  0  0  0  0  0
  -25.9060  -38.5300   23.8580 H   0  0  0  0  0  0  0  0  0  0  0  0
  -26.5290  -31.9730   25.2070 C   0  0  1  0  0  0  0  0  0  0  0  0
  -25.4140  -31.6630   26.2340 C   0  0  0  0  0  1  0  0  0  0  0  0
  -27.2230  -30.6370   24.8540 C   0  0  0  0  0  1  0  0  0  0  0  0
  -27.5920  -32.8500   25.9100 C   0  0  0  0  0  1  0  0  0  0  0  0
  -29.0650  -18.1440   20.4700 C   0  0  0  0  0  0  0  0  0  0  0  0
  -30.3840  -15.4940   20.2200 C   0  0  0  0  0  0  0  0  0  0  0  0
  -30.3200  -13.2360   18.9870 C   0  0  0  0  0  2  0  0  0  0  0  0
  -29.2880  -13.2680   17.8280 C   0  0  0  0  0  2  0  0  0  0  0  0
  -27.8700  -12.9520   18.3310 C   0  0  0  0  0  2  0  0  0  0  0  0
  -27.5460  -13.6870   19.6540 C   0  0  0  0  0  3  0  0  0  0  0  0
  -28.6850  -13.5880   20.6940 C   0  0  0  0  0  2  0  0  0  0  0  0
  -29.8780  -14.1820   20.0740 N   0  0  0  0  0  0  0  0  0  0  0  0
  -31.5150  -15.6570   19.7390 O   0  0  0  0  0  0  0  0  0  0  0  0
  -29.6080  -16.6060   20.7770 N   0  0  0  0  0  4  0  0  0  0  0  0
  -28.9290  -16.1700   21.3880 H   0  0  0  0  0  0  0  0  0  0  0  0
  -25.1790  -14.0810   20.5270 C   0  0  0  0  0  0  0  0  0  0  0  0
  -24.1840  -13.2330   20.9180 C   0  0  0  0  0  0  0  0  0  0  0  0
  -24.7220  -11.9120   20.8060 C   0  0  0  0  0  0  0  0  0  0  0  0
  -26.2580  -13.2800   20.2000 N   0  0  0  0  0  0  0  0  0  0  0  0
  -25.9960  -11.9670   20.4300 N   0  0  0  0  0  0  0  0  0  0  0  0
  -24.0760  -10.6030   20.9690 C   0  0  0  0  0  0  0  0  0  0  0  0
  -24.4790   -9.6990   21.9760 C   0  0  0  0  0  3  0  0  0  0  0  0
  -23.8280   -8.4560   22.1260 C   0  0  0  0  0  3  0  0  0  0  0  0
  -22.7590   -8.1050   21.2680 C   0  0  0  0  0  0  0  0  0  0  0  0
  -22.3740   -9.0000   20.2520 C   0  0  0  0  0  3  0  0  0  0  0  0
  -23.0280  -10.2350   20.1010 C   0  0  0  0  0  3  0  0  0  0  0  0
  -22.0820   -6.9100   21.3270 O   0  0  0  0  0  0  0  0  0  0  0  0
  -21.8160   -6.2900   22.5230 C   0  0  0  0  0  0  0  0  0  0  0  0
  -21.0710   -6.9240   23.5410 C   0  0  0  0  0  3  0  0  0  0  0  0
  -20.7600   -6.2270   24.7250 C   0  0  0  0  0  3  0  0  0  0  0  0
  -21.1870   -4.8950   24.8910 C   0  0  0  0  0  0  0  0  0  0  0  0
  -21.9250   -4.2610   23.8760 C   0  0  0  0  0  3  0  0  0  0  0  0
  -22.2360   -4.9560   22.6950 C   0  0  0  0  0  0  0  0  0  0  0  0
  -22.9310   -4.3340   21.7110 F   0  0  0  0  0  0  0  0  0  0  0  0
  -20.8790   -4.2220   26.0240 F   0  0  0  0  0  0  0  0  0  0  0  0
  -22.7760  -13.6130   21.2670 C   0  0  0  0  0  0  0  0  0  0  0  0
  -22.1460  -12.8800   22.1780 N   0  0  0  0  0  0  0  0  0  0  0  0
  -22.2440  -14.6050   20.7710 O   0  0  0  0  0  0  0  0  0  0  0  0
  -22.5840  -12.0760   22.6040 H   0  0  0  0  0  0  0  0  0  0  0  0
  -21.2090  -13.1310   22.4560 H   0  0  0  0  0  0  0  0  0  0  0  0
  -25.2610  -15.4630   20.3910 N   0  0  0  0  0  0  0  0  0  0  0  0
  -24.4580  -16.0680   20.5200 H   0  0  0  0  0  0  0  0  0  0  0  0
  -26.0370  -15.9210   19.9360 H   0  0  0  0  0  0  0  0  0  0  0  0
  -28.2240  -18.0830   19.1550 C   0  0  0  0  0  2  0  0  0  0  0  0
  -27.4390  -19.3910   18.8480 C   0  0  0  0  0  2  0  0  0  0  0  0
  -27.2870  -18.9870   16.3440 C   0  0  0  0  0  1  0  0  0  0  0  0
  -26.4910  -19.3610   17.6140 C   0  0  0  0  0  3  0  0  0  0  0  0
  -24.8690  -21.0170   18.7300 C   0  0  0  0  0  1  0  0  0  0  0  0
  -26.5010  -21.8900   17.0490 C   0  0  0  0  0  1  0  0  0  0  0  0
  -24.5730  -20.4940   16.3320 C   0  0  0  0  0  1  0  0  0  0  0  0
  -25.6370  -20.6730   17.4350 C   0  0  1  0  0  0  0  0  0  0  0  0
  1  3  1  0
  3  2  1  0
  5  4  1  0
  5  6  1  0
  5  3  1  0
  7  6  1  0
  8 19  2  0
  9  7  1  0
  9 14  1  0
 10 18  1  0
 10 20  1  0
 11 17  1  0
 11 13  1  0
 12 18  1  0
 13 14  2  0
 13 12  1  0
 15  9  2  0
 16 15  1  0
 16 11  2  0
 17 10  1  0
 18  8  1  0
 20 22  2  0
 21 20  1  0
 23 21  1  0
 24 33  2  0
 24 29  1  0
 25 21  1  0
 25 29  1  0
 26 25  1  0
 27 28  1  0
 27 26  1  0
 28 24  1  0
 29 30  2  0
 30 31  1  0
 32 31  2  0
 33 32  1  0
 34  8  1  0
 34 35  1  0
 34 44  1  0
 35 38  1  0
 36 40  1  0
 36 35  1  0
 37 36  2  0
 40 39  1  0
 42 43  1  0
 42 40  1  0
 42 41  1  0
 44 47  1  1
 44 45  1  0
 46 44  1  0
 48 57  2  3
 48  1  1  0
 49 57  1  0
 50 55  1  0
 51 52  1  0
 51 50  1  0
 53 52  1  0
 53 62  1  0
 53 54  1  0
 55 49  1  0
 55 54  1  0
 56 49  2  0
 57 58  1  0
 59 60  2  0
 60 79  1  0
 61 60  1  0
 61 64  1  0
 62 63  1  0
 62 59  1  0
 63 61  2  0
 64 65  1  0
 65 66  2  0
 67 70  1  0
 67 66  1  0
 68 67  2  0
 69 68  1  0
 69 64  2  0
 70 71  1  0
 71 76  2  0
 71 72  1  0
 72 73  2  0
 73 74  1  0
 74 78  1  0
 75 74  2  0
 76 75  1  0
 77 76  1  0
 79 80  1  0
 80 83  1  0
 80 82  1  0
 81 79  2  0
 84 85  1  0
 84 59  1  0
 86 84  1  0
 87 48  1  0
 88 87  1  0
 90 89  1  0
 90 88  1  0
 94 92  1  6
 93 94  1  0
 94 90  1  0
 94 91  1  0
M  ISO  4   6 101   7 101  49 100  57 100
M  END
>  <TORSDO>  (59) 
F 24

>  <SCORE>  (59) 
-11.180

>  <name>  (59) 
58

>  <ligand_id>  (59) 
58

>  <original_smiles>  (59) 
[H]c1c([H])c([H])c2c(c1[H])C([H])([H])C([H])([H])C([H])([H])C2([H])N([H])C(=O)C1([H])N(C(=O)C([H])(N([H])C(=O)C([H])(N([H])C([H])([H])[H])C([H])([H])[H])C(C([H])([H])[H])(C([H])([H])[H])C([H])([H])[H])C([H])([H])c2c([H])c(OC([H])([H])C([H])(C([H])([H])[H])C([H])(C([H])([H])[H])C([H])([H])C([H])(N([H])C(=O)N3C([H])([H])C([H])([H])C([H])([H])C([H])(n4nc(-c5c([H])c([H])c(Oc6c([H])c([H])c(F)c([H])c6F)c([H])c5[H])c(C(=O)N([H])[H])c4N([H])[H])C3([H])[H])C([H])([H])C([H])([H])C([H])(C([H])([H])[H])C(C([H])([H])[H])(C([H])([H])[H])C([H])([H])[H])c([H])c([H])c2C1([H])[H]

>  <smiles>  (59) 
[H]c1c([H])c([H])c2c(c1[H])C([H])([H])C([H])([H])C([H])([H])C2([H])N([H])C(=O)C1([H])N(C(=O)C([H])(N([H])C(=O)C([H])(N([H])C([H])([H])[H])C([H])([H])[H])C(C([H])([H])[H])(C([H])([H])[H])C([H])([H])[H])C([H])([H])c2c([H])c(OC([H])([H])C([H])(C([H])([H])[H])C([H])(C([H])([H])[H])C([H])([H])C([H])(N([H])C(=O)N3C([H])([H])C([H])([H])C([H])([H])C([H])(n4nc(-c5c([H])c([H])c(Oc6c([H])c([H])c(F)c([H])c6F)c([H])c5[H])c(C(=O)N([H])[H])c4N([H])[H])C3([H])[H])C([H])([H])C([H])([H])C([H])(C([H])([H])[H])C(C([H])([H])[H])(C([H])([H])[H])C([H])([H])[H])c([H])c([H])c2C1([H])[H]

$$$$
59:0:0
     RDKit          3D

 86 94  0  0  1  0  0  0  0  0999 V2000
  -29.1030  -22.3260   20.2760 C   0  0  0  0  0  3  0  0  0  0  0  0
  -30.5120  -15.8890   19.9370 C   0  0  0  0  0  0  0  0  0  0  0  0
  -30.4770  -13.3490   19.0840 C   0  0  0  0  0  2  0  0  0  0  0  0
  -29.5230  -12.8870   17.9460 C   0  0  0  0  0  2  0  0  0  0  0  0
  -28.1560  -12.4920   18.5100 C   0  0  0  0  0  2  0  0  0  0  0  0
  -27.6840  -13.5300   19.5490 C   0  0  0  0  0  3  0  0  0  0  0  0
  -28.7660  -13.9330   20.5870 C   0  0  0  0  0  2  0  0  0  0  0  0
  -29.8920  -14.5550   19.8390 N   0  0  0  0  0  0  0  0  0  0  0  0
  -31.7380  -15.7060   19.7800 O   0  0  0  0  0  0  0  0  0  0  0  0
  -30.4710  -19.9000   18.8770 C   0  0  0  0  0  2  0  0  0  0  0  0
  -30.4940  -18.2660   18.6620 C   0  0  0  0  0  2  0  0  0  0  0  0
  -29.4440  -18.7850   20.5310 C   0  0  0  0  0  2  0  0  0  0  0  0
  -29.2620  -20.4390   19.7430 C   0  0  0  0  0  3  0  0  0  0  0  0
  -29.9410  -17.3560   19.7540 N   0  0  0  0  0  0  0  0  0  0  0  0
  -25.3800  -14.0620   20.4700 C   0  0  0  0  0  0  0  0  0  0  0  0
  -24.3310  -13.2780   20.8720 C   0  0  0  0  0  0  0  0  0  0  0  0
  -24.7860  -11.9280   20.7770 C   0  0  0  0  0  0  0  0  0  0  0  0
  -26.4000  -13.1880   20.1490 N   0  0  0  0  0  0  0  0  0  0  0  0
  -26.0600  -11.8960   20.4000 N   0  0  0  0  0  0  0  0  0  0  0  0
  -24.0570  -10.6650   20.9730 C   0  0  0  0  0  0  0  0  0  0  0  0
  -24.5060   -9.6880   21.8880 C   0  0  0  0  0  3  0  0  0  0  0  0
  -23.7770   -8.4920   22.0780 C   0  0  0  0  0  3  0  0  0  0  0  0
  -22.5830   -8.2690   21.3500 C   0  0  0  0  0  0  0  0  0  0  0  0
  -22.1500   -9.2340   20.4260 C   0  0  0  0  0  3  0  0  0  0  0  0
  -22.8800  -10.4210   20.2360 C   0  0  0  0  0  3  0  0  0  0  0  0
  -21.8220   -7.1290   21.4490 O   0  0  0  0  0  0  0  0  0  0  0  0
  -21.7710   -6.3930   22.6070 C   0  0  0  0  0  0  0  0  0  0  0  0
  -21.3230   -6.9490   23.8240 C   0  0  0  0  0  3  0  0  0  0  0  0
  -21.2240   -6.1410   24.9730 C   0  0  0  0  0  3  0  0  0  0  0  0
  -21.5640   -4.7770   24.9050 C   0  0  0  0  0  0  0  0  0  0  0  0
  -22.0050   -4.2180   23.6920 C   0  0  0  0  0  3  0  0  0  0  0  0
  -22.1090   -5.0240   22.5440 C   0  0  0  0  0  0  0  0  0  0  0  0
  -22.5130   -4.4780   21.3730 F   0  0  0  0  0  0  0  0  0  0  0  0
  -21.4600   -3.9990   26.0070 F   0  0  0  0  0  0  0  0  0  0  0  0
  -22.9560  -13.7570   21.2230 C   0  0  0  0  0  0  0  0  0  0  0  0
  -22.2730  -13.0520   22.1190 N   0  0  0  0  0  0  0  0  0  0  0  0
  -22.4940  -14.7890   20.7430 O   0  0  0  0  0  0  0  0  0  0  0  0
  -22.6650  -12.2140   22.5240 H   0  0  0  0  0  0  0  0  0  0  0  0
  -21.3470  -13.3460   22.3970 H   0  0  0  0  0  0  0  0  0  0  0  0
  -25.5470  -15.4330   20.3160 N   0  0  0  0  0  0  0  0  0  0  0  0
  -24.8100  -16.1070   20.4990 H   0  0  0  0  0  0  0  0  0  0  0  0
  -26.3990  -15.8660   19.9850 H   0  0  0  0  0  0  0  0  0  0  0  0
  -29.5340  -21.7360   22.7900 C   0  0  0  0  0  1  0  0  0  0  0  0
  -28.5880  -22.3170   21.7280 C   0  0  0  0  0  2  0  0  0  0  0  0
  -28.3430  -24.0300   19.7310 C   0  0  0  0  0  2  0  0  0  0  0  0
  -28.2750  -25.7220   20.2020 O   0  0  0  0  0  0  0  0  0  0  0  0
  -24.6370  -31.8840   23.1920 C   0  0  0  0  0  0  0  0  0  0  0  0
  -27.2640  -26.8990   20.1190 C   0  0  0  0  0  0  0  0  0  0  0  0
  -23.4680  -30.4770   21.5460 C   0  0  0  0  0  3  0  0  0  0  0  0
  -24.9400  -28.8680   20.1080 C   0  0  0  0  0  0  0  0  0  0  0  0
  -26.0410  -30.6710   21.4120 C   0  0  0  0  0  2  0  0  0  0  0  0
  -26.1310  -29.2460   20.7370 C   0  0  0  0  0  0  0  0  0  0  0  0
  -27.2750  -28.2870   20.7160 C   0  0  0  0  0  3  0  0  0  0  0  0
  -26.0300  -26.7250   19.4390 C   0  0  0  0  0  3  0  0  0  0  0  0
  -24.9240  -27.6320   19.4360 C   0  0  0  0  0  3  0  0  0  0  0  0
  -23.7110  -29.7900   20.1720 C   0  0  0  0  0  2  0  0  0  0  0  0
  -24.7390  -31.0430   22.1050 N   0  0  0  0  0  0  0  0  0  0  0  0
  -23.5400  -32.1630   23.7060 O   0  0  0  0  0  0  0  0  0  0  0  0
  -22.7580  -29.4920   22.5130 C   0  0  0  0  0  0  0  0  0  0  0  0
  -21.4340  -29.3020   22.3630 N   0  0  0  0  0  0  0  0  0  0  0  0
  -23.4170  -28.8860   23.3600 O   0  0  0  0  0  0  0  0  0  0  0  0
  -20.9610  -29.8370   21.6500 H   0  0  0  0  0  0  0  0  0  0  0  0
  -18.0730  -27.9840   22.7900 C   0  0  0  0  0  0  0  0  0  0  0  0
  -20.6130  -28.3500   23.1240 C   0  0  0  0  0  3  0  0  0  0  0  0
  -20.7850  -26.9130   22.5790 C   0  0  0  0  0  2  0  0  0  0  0  0
  -19.7300  -26.5340   21.5380 C   0  0  0  0  0  2  0  0  0  0  0  0
  -18.3240  -26.6340   22.1340 C   0  0  0  0  0  2  0  0  0  0  0  0
  -19.1490  -28.7960   23.2370 C   0  0  0  0  0  0  0  0  0  0  0  0
  -18.8610  -30.0550   23.8070 C   0  0  0  0  0  3  0  0  0  0  0  0
  -17.5310  -30.4960   23.9430 C   0  0  0  0  0  3  0  0  0  0  0  0
  -16.4710  -29.6820   23.5100 C   0  0  0  0  0  3  0  0  0  0  0  0
  -16.7420  -28.4310   22.9330 C   0  0  0  0  0  3  0  0  0  0  0  0
  -25.8940  -32.5370   23.8370 C   0  0  0  0  0  3  0  0  0  0  0  0
  -25.5700  -33.9390   24.1600 N   0  0  0  0  0  0  0  0  0  0  0  0
  -25.8970  -35.0000   23.4100 C   0  0  0  0  0  0  0  0  0  0  0  0
  -26.5680  -34.9040   22.3780 O   0  0  0  0  0  0  0  0  0  0  0  0
  -24.9850  -34.0910   24.9680 H   0  0  0  0  0  0  0  0  0  0  0  0
  -24.1610  -36.7980   23.0800 C   0  0  0  0  0  1  0  0  0  0  0  0
  -25.4070  -36.3860   23.8780 C   0  0  0  0  0  3  0  0  0  0  0  0
  -27.5420  -37.2830   24.6990 C   0  0  0  0  0  1  0  0  0  0  0  0
  -26.4290  -37.4480   23.7680 N   0  0  0  0  0  0  0  0  0  0  0  0
  -26.0150  -38.3610   23.9400 H   0  0  0  0  0  0  0  0  0  0  0  0
  -26.3840  -31.7840   25.1370 C   0  0  1  0  0  0  0  0  0  0  0  0
  -25.2730  -31.5600   26.1890 C   0  0  0  0  0  1  0  0  0  0  0  0
  -26.9730  -30.3970   24.7870 C   0  0  0  0  0  1  0  0  0  0  0  0
  -27.5160  -32.5920   25.8090 C   0  0  0  0  0  1  0  0  0  0  0  0
  1 45  1  0
  1 44  1  0
  3  8  1  0
  4  5  1  0
  4  3  1  0
  6  5  1  0
  6 18  1  0
  6  7  1  0
  8  2  1  0
  8  7  1  0
  9  2  2  0
 10 13  1  0
 11 10  1  0
 11 14  1  0
 13  1  1  0
 13 12  1  0
 14  2  1  0
 14 12  1  0
 15 16  2  0
 16 35  1  0
 17 16  1  0
 17 20  1  0
 18 19  1  0
 18 15  1  0
 19 17  2  0
 20 21  1  0
 21 22  2  0
 23 26  1  0
 23 22  1  0
 24 23  2  0
 25 24  1  0
 25 20  2  0
 26 27  1  0
 27 28  1  0
 28 29  2  0
 30 29  1  0
 30 34  1  0
 31 30  2  0
 32 27  2  0
 32 31  1  0
 33 32  1  0
 35 36  1  0
 36 39  1  0
 36 38  1  0
 37 35  2  0
 40 15  1  0
 40 41  1  0
 42 40  1  0
 44 43  1  0
 45 46  1  0
 47 58  2  0
 48 46  1  0
 48 53  1  0
 49 57  1  0
 49 59  1  0
 50 56  1  0
 50 52  1  0
 51 57  1  0
 52 51  1  0
 53 52  2  0
 54 48  2  0
 55 54  1  0
 55 50  2  0
 56 49  1  0
 57 47  1  0
 59 61  2  0
 60 59  1  0
 62 60  1  0
 63 72  2  0
 63 68  1  0
 64 60  1  0
 64 68  1  0
 65 64  1  0
 66 67  1  0
 66 65  1  0
 67 63  1  0
 68 69  2  0
 69 70  1  0
 71 70  2  0
 72 71  1  0
 73 47  1  0
 73 74  1  0
 73 83  1  0
 74 77  1  0
 75 79  1  0
 75 74  1  0
 76 75  2  0
 79 78  1  0
 81 79  1  0
 81 82  1  0
 81 80  1  0
 83 86  1  1
 83 84  1  0
 85 83  1  0
M  ISO  4   2 100  14 100  45 101  46 101
M  END
>  <TORSDO>  (60) 
F 18

>  <SCORE>  (60) 
-16.362

>  <name>  (60) 
59

>  <ligand_id>  (60) 
59

>  <original_smiles>  (60) 
[H]c1c([H])c([H])c2c(c1[H])C([H])([H])C([H])([H])C([H])([H])C2([H])N([H])C(=O)C1([H])N(C(=O)C([H])(N([H])C(=O)C([H])(N([H])C([H])([H])[H])C([H])([H])[H])C(C([H])([H])[H])(C([H])([H])[H])C([H])([H])[H])C([H])([H])c2c([H])c(OC([H])([H])C([H])(C([H])([H])C([H])([H])[H])C3([H])C([H])([H])N(C(=O)N4C([H])([H])C([H])([H])C([H])([H])C([H])(n5nc(-c6c([H])c([H])c(Oc7c([H])c([H])c(F)c([H])c7F)c([H])c6[H])c(C(=O)N([H])[H])c5N([H])[H])C4([H])[H])C([H])([H])C3([H])[H])c([H])c([H])c2C1([H])[H]

>  <smiles>  (60) 
[H]c1c([H])c([H])c2c(c1[H])C([H])([H])C([H])([H])C([H])([H])C2([H])N([H])C(=O)C1([H])N(C(=O)C([H])(N([H])C(=O)C([H])(N([H])C([H])([H])[H])C([H])([H])[H])C(C([H])([H])[H])(C([H])([H])[H])C([H])([H])[H])C([H])([H])c2c([H])c(OC([H])([H])C([H])(C([H])([H])C([H])([H])[H])C3([H])C([H])([H])N(C(=O)N4C([H])([H])C([H])([H])C([H])([H])C([H])(n5nc(-c6c([H])c([H])c(Oc7c([H])c([H])c(F)c([H])c7F)c([H])c6[H])c(C(=O)N([H])[H])c5N([H])[H])C4([H])[H])C([H])([H])C3([H])[H])c([H])c([H])c2C1([H])[H]

$$$$
60:0:0
     RDKit          3D

 90 97  0  0  1  0  0  0  0  0999 V2000
  -29.9070  -20.7690   20.1720 N   0  0  0  0  0  4  0  0  0  0  0  0
  -30.6490  -20.8960   20.8420 H   0  0  0  0  0  0  0  0  0  0  0  0
  -30.3240  -20.8710   19.2620 H   0  0  0  0  0  0  0  0  0  0  0  0
  -28.9010  -21.9660   20.3500 C   0  0  0  0  0  2  0  0  0  0  0  0
  -29.3450  -23.5760   20.3280 C   0  0  0  0  0  3  0  0  0  0  0  0
  -28.2400  -24.8170   20.2490 C   0  0  0  0  0  3  0  0  0  0  0  0
  -28.5260  -26.3280   20.2850 O   0  0  0  0  0  0  0  0  0  0  0  0
  -24.9980  -31.9780   23.3470 C   0  0  0  0  0  0  0  0  0  0  0  0
  -27.4560  -27.2830   20.2470 C   0  0  0  0  0  0  0  0  0  0  0  0
  -23.7460  -30.6210   21.7120 C   0  0  0  0  0  3  0  0  0  0  0  0
  -25.1450  -29.0330   20.2590 C   0  0  0  0  0  0  0  0  0  0  0  0
  -26.2980  -30.8510   21.5100 C   0  0  0  0  0  2  0  0  0  0  0  0
  -26.3370  -29.4670   20.8500 C   0  0  0  0  0  0  0  0  0  0  0  0
  -27.4940  -28.6090   20.8260 C   0  0  0  0  0  3  0  0  0  0  0  0
  -26.2340  -26.9370   19.6260 C   0  0  0  0  0  3  0  0  0  0  0  0
  -25.1030  -27.7800   19.6330 C   0  0  0  0  0  3  0  0  0  0  0  0
  -23.9330  -29.9470   20.3280 C   0  0  0  0  0  2  0  0  0  0  0  0
  -25.0350  -31.1700   22.2450 N   0  0  0  0  0  0  0  0  0  0  0  0
  -23.9260  -32.2810   23.8920 O   0  0  0  0  0  0  0  0  0  0  0  0
  -23.0610  -29.6200   22.6760 C   0  0  0  0  0  0  0  0  0  0  0  0
  -21.7320  -29.4600   22.5470 N   0  0  0  0  0  0  0  0  0  0  0  0
  -23.7260  -28.9880   23.5000 O   0  0  0  0  0  0  0  0  0  0  0  0
  -21.2530  -30.0210   21.8540 H   0  0  0  0  0  0  0  0  0  0  0  0
  -18.3410  -28.2830   23.0260 C   0  0  0  0  0  0  0  0  0  0  0  0
  -20.8990  -28.5340   23.3170 C   0  0  0  0  0  3  0  0  0  0  0  0
  -20.9980  -27.0980   22.7550 C   0  0  0  0  0  2  0  0  0  0  0  0
  -19.9040  -26.7720   21.7330 C   0  0  0  0  0  2  0  0  0  0  0  0
  -18.5180  -26.9280   22.3620 C   0  0  0  0  0  2  0  0  0  0  0  0
  -19.4600  -29.0450   23.4590 C   0  0  0  0  0  0  0  0  0  0  0  0
  -19.2390  -30.3130   24.0400 C   0  0  0  0  0  3  0  0  0  0  0  0
  -17.9350  -30.8190   24.1930 C   0  0  0  0  0  3  0  0  0  0  0  0
  -16.8310  -30.0550   23.7750 C   0  0  0  0  0  3  0  0  0  0  0  0
  -17.0360  -28.7890   23.1960 C   0  0  0  0  0  3  0  0  0  0  0  0
  -26.2980  -32.5770   23.9630 C   0  0  0  0  0  3  0  0  0  0  0  0
  -26.0120  -33.9680   24.3460 N   0  0  0  0  0  0  0  0  0  0  0  0
  -26.3530  -35.0450   23.6240 C   0  0  0  0  0  0  0  0  0  0  0  0
  -27.0100  -34.9710   22.5830 O   0  0  0  0  0  0  0  0  0  0  0  0
  -25.4260  -34.1010   25.1560 H   0  0  0  0  0  0  0  0  0  0  0  0
  -24.6590  -36.8850   23.3550 C   0  0  0  0  0  1  0  0  0  0  0  0
  -25.8960  -36.4240   24.1410 C   0  0  0  0  0  3  0  0  0  0  0  0
  -28.0500  -37.2340   24.9950 C   0  0  0  0  0  1  0  0  0  0  0  0
  -26.9470  -37.4610   24.0650 N   0  0  0  0  0  0  0  0  0  0  0  0
  -26.5600  -38.3820   24.2500 H   0  0  0  0  0  0  0  0  0  0  0  0
  -26.8290  -31.7620   25.2050 C   0  0  1  0  0  0  0  0  0  0  0  0
  -25.7520  -31.5010   26.2840 C   0  0  0  0  0  1  0  0  0  0  0  0
  -27.3920  -30.3910   24.7630 C   0  0  0  0  0  1  0  0  0  0  0  0
  -27.9980  -32.5260   25.8720 C   0  0  0  0  0  1  0  0  0  0  0  0
  -29.4150  -19.2840   20.2990 C   0  0  0  0  0  2  0  0  0  0  0  0
  -30.2930  -17.9170   19.8500 C   0  0  0  0  0  2  0  0  0  0  0  0
  -28.4790  -16.3100   20.4200 C   0  0  0  0  0  1  0  0  0  0  0  0
  -30.0170  -16.3670   20.4600 C   0  0  1  0  0  0  0  0  0  0  0  0
  -30.6450  -14.9820   19.7350 C   0  0  0  0  0  0  0  0  0  0  0  0
  -30.4190  -12.7010   18.6130 C   0  0  0  0  0  2  0  0  0  0  0  0
  -29.3480  -12.7320   17.4920 C   0  0  0  0  0  2  0  0  0  0  0  0
  -27.9340  -12.4820   18.0570 C   0  0  0  0  0  2  0  0  0  0  0  0
  -27.6690  -13.3250   19.3250 C   0  0  0  0  0  3  0  0  0  0  0  0
  -28.8440  -13.2080   20.3290 C   0  0  0  0  0  2  0  0  0  0  0  0
  -30.0500  -13.7140   19.6500 N   0  0  0  0  0  0  0  0  0  0  0  0
  -31.7480  -15.0850   19.1840 O   0  0  0  0  0  0  0  0  0  0  0  0
  -25.3470  -13.9070   20.2620 C   0  0  0  0  0  0  0  0  0  0  0  0
  -24.3290  -13.1270   20.7310 C   0  0  0  0  0  0  0  0  0  0  0  0
  -24.7980  -11.7810   20.6510 C   0  0  0  0  0  0  0  0  0  0  0  0
  -26.3760  -13.0350   19.9350 N   0  0  0  0  0  0  0  0  0  0  0  0
  -26.0550  -11.7510   20.2270 N   0  0  0  0  0  0  0  0  0  0  0  0
  -24.1000  -10.5150   20.8950 C   0  0  0  0  0  0  0  0  0  0  0  0
  -24.5520   -9.6010   21.8730 C   0  0  0  0  0  3  0  0  0  0  0  0
  -23.8510   -8.3980   22.1010 C   0  0  0  0  0  3  0  0  0  0  0  0
  -22.6860   -8.1010   21.3530 C   0  0  0  0  0  0  0  0  0  0  0  0
  -22.2550   -9.0050   20.3660 C   0  0  0  0  0  3  0  0  0  0  0  0
  -22.9560  -10.2000   20.1360 C   0  0  0  0  0  3  0  0  0  0  0  0
  -21.9580   -6.9450   21.4900 O   0  0  0  0  0  0  0  0  0  0  0  0
  -21.8450   -6.3050   22.6980 C   0  0  0  0  0  0  0  0  0  0  0  0
  -21.3220   -6.9560   23.8380 C   0  0  0  0  0  3  0  0  0  0  0  0
  -21.1570   -6.2410   25.0420 C   0  0  0  0  0  3  0  0  0  0  0  0
  -21.5040   -4.8780   25.1060 C   0  0  0  0  0  0  0  0  0  0  0  0
  -22.0200   -4.2280   23.9700 C   0  0  0  0  0  3  0  0  0  0  0  0
  -22.1860   -4.9400   22.7690 C   0  0  0  0  0  0  0  0  0  0  0  0
  -22.6650   -4.3050   21.6720 F   0  0  0  0  0  0  0  0  0  0  0  0
  -21.3380   -4.1890   26.2580 F   0  0  0  0  0  0  0  0  0  0  0  0
  -22.9600  -13.5950   21.1320 C   0  0  0  0  0  0  0  0  0  0  0  0
  -22.3320  -12.9090   22.0780 N   0  0  0  0  0  0  0  0  0  0  0  0
  -22.4610  -14.6080   20.6430 O   0  0  0  0  0  0  0  0  0  0  0  0
  -22.7520  -12.0900   22.4940 H   0  0  0  0  0  0  0  0  0  0  0  0
  -21.4190  -13.2050   22.3910 H   0  0  0  0  0  0  0  0  0  0  0  0
  -25.4590  -15.2780   20.0640 N   0  0  0  0  0  0  0  0  0  0  0  0
  -24.6930  -15.9130   20.2590 H   0  0  0  0  0  0  0  0  0  0  0  0
  -26.2730  -15.7410   19.6810 H   0  0  0  0  0  0  0  0  0  0  0  0
  -29.9450  -17.3000   22.9590 C   0  0  0  0  0  1  0  0  0  0  0  0
  -32.0560  -16.2440   22.1040 C   0  0  0  0  0  1  0  0  0  0  0  0
  -30.5210  -16.2770   21.9540 C   0  0  0  0  0  3  0  0  0  0  0  0
  1 48  1  0
  1  4  1  0
  1  2  1  0
  3  1  1  0
  5  4  1  0
  6  7  1  0
  6  5  2  0
  8 19  2  0
  9  7  1  0
  9 14  1  0
 10 18  1  0
 10 20  1  0
 11 17  1  0
 11 13  1  0
 12 18  1  0
 13 12  1  0
 14 13  2  0
 15 16  1  0
 15  9  2  0
 16 11  2  0
 17 10  1  0
 18  8  1  0
 20 22  2  0
 21 20  1  0
 23 21  1  0
 24 33  2  0
 24 29  1  0
 25 21  1  0
 25 29  1  0
 26 25  1  0
 27 28  1  0
 27 26  1  0
 28 24  1  0
 29 30  2  0
 30 31  1  0
 32 31  2  0
 33 32  1  0
 34  8  1  0
 34 35  1  0
 34 44  1  0
 35 38  1  0
 36 40  1  0
 36 35  1  0
 37 36  2  0
 40 39  1  0
 42 40  1  0
 42 43  1  0
 42 41  1  0
 44 47  1  1
 44 45  1  0
 46 44  1  0
 49 48  1  0
 49 51  1  0
 51 50  1  1
 51 90  1  0
 52 51  1  0
 53 58  1  0
 54 55  1  0
 54 53  1  0
 56 55  1  0
 56 63  1  0
 56 57  1  0
 58 52  1  0
 58 57  1  0
 59 52  2  0
 60 61  2  0
 61 80  1  0
 62 61  1  0
 62 65  1  0
 63 64  1  0
 63 60  1  0
 64 62  2  0
 65 66  1  0
 66 67  2  0
 68 71  1  0
 68 67  1  0
 69 68  2  0
 70 69  1  0
 70 65  2  0
 71 72  1  0
 72 77  2  0
 72 73  1  0
 73 74  2  0
 74 75  1  0
 75 79  1  0
 76 75  2  0
 77 76  1  0
 78 77  1  0
 80 81  1  0
 81 84  1  0
 81 83  1  0
 82 80  2  0
 85 86  1  0
 85 60  1  0
 87 85  1  0
 90 89  1  0
 90 88  1  0
M  ISO  4   6 101   7 101  51 100  52 100
M  END
>  <TORSDO>  (61) 
F 23

>  <SCORE>  (61) 
-9.366

>  <name>  (61) 
60

>  <ligand_id>  (61) 
60

>  <original_smiles>  (61) 
[H]c1c([H])c([H])c2c(c1[H])C([H])([H])C([H])([H])C([H])([H])C2([H])N([H])C(=O)C1([H])N(C(=O)C([H])(N([H])C(=O)C([H])(N([H])C([H])([H])[H])C([H])([H])[H])C(C([H])([H])[H])(C([H])([H])[H])C([H])([H])[H])C([H])([H])c2c([H])c(OC([H])([H])C([H])([H])C([H])([H])[N+]([H])([H])C([H])([H])C([H])([H])C(C(=O)N3C([H])([H])C([H])([H])C([H])([H])C([H])(n4nc(-c5c([H])c([H])c(Oc6c([H])c([H])c(F)c([H])c6F)c([H])c5[H])c(C(=O)N([H])[H])c4N([H])[H])C3([H])[H])(C([H])([H])[H])C([H])(C([H])([H])[H])C([H])([H])[H])c([H])c([H])c2C1([H])[H]

>  <smiles>  (61) 
[H]c1c([H])c([H])c2c(c1[H])C([H])([H])C([H])([H])C([H])([H])C2([H])N([H])C(=O)C1([H])N(C(=O)C([H])(N([H])C(=O)C([H])(N([H])C([H])([H])[H])C([H])([H])[H])C(C([H])([H])[H])(C([H])([H])[H])C([H])([H])[H])C([H])([H])c2c([H])c(OC([H])([H])C([H])([H])C([H])([H])[N+]([H])([H])C([H])([H])C([H])([H])C(C(=O)N3C([H])([H])C([H])([H])C([H])([H])C([H])(n4nc(-c5c([H])c([H])c(Oc6c([H])c([H])c(F)c([H])c6F)c([H])c5[H])c(C(=O)N([H])[H])c4N([H])[H])C3([H])[H])(C([H])([H])[H])C([H])(C([H])([H])[H])C([H])([H])[H])c([H])c([H])c2C1([H])[H]

$$$$
61:0:0
     RDKit          3D

 93100  0  0  1  0  0  0  0  0999 V2000
  -28.9680  -21.3940   20.3760 C   0  0  0  0  0  3  0  0  0  0  0  0
  -28.1730  -21.2780   21.6130 N   0  0  0  0  0  4  0  0  0  0  0  0
  -27.1950  -21.1930   21.3990 H   0  0  0  0  0  0  0  0  0  0  0  0
  -28.3000  -22.0870   22.1950 H   0  0  0  0  0  0  0  0  0  0  0  0
  -28.4500  -20.4770   22.1490 H   0  0  0  0  0  0  0  0  0  0  0  0
  -29.7660  -23.3730   18.7820 C   0  0  0  0  0  1  0  0  0  0  0  0
  -28.6100  -23.0250   19.7270 C   0  0  0  0  0  3  0  0  0  0  0  0
  -28.1650  -24.5530   20.5350 C   0  0  0  0  0  2  0  0  0  0  0  0
  -28.2880  -26.1450   20.2070 O   0  0  0  0  0  0  0  0  0  0  0  0
  -24.6480  -31.9930   23.2550 C   0  0  0  0  0  0  0  0  0  0  0  0
  -27.2290  -27.1760   20.2390 C   0  0  0  0  0  0  0  0  0  0  0  0
  -23.4500  -30.5820   21.6300 C   0  0  0  0  0  3  0  0  0  0  0  0
  -24.9010  -28.9890   20.2060 C   0  0  0  0  0  0  0  0  0  0  0  0
  -26.0080  -30.8350   21.4510 C   0  0  0  0  0  2  0  0  0  0  0  0
  -26.0890  -29.4250   20.8070 C   0  0  0  0  0  0  0  0  0  0  0  0
  -27.2520  -28.5410   20.7940 C   0  0  0  0  0  3  0  0  0  0  0  0
  -26.0070  -26.8690   19.6060 C   0  0  0  0  0  3  0  0  0  0  0  0
  -24.8800  -27.7280   19.5850 C   0  0  0  0  0  3  0  0  0  0  0  0
  -23.6730  -29.8960   20.2540 C   0  0  0  0  0  2  0  0  0  0  0  0
  -24.7230  -31.1630   22.1660 N   0  0  0  0  0  0  0  0  0  0  0  0
  -23.5620  -32.2710   23.7880 O   0  0  0  0  0  0  0  0  0  0  0  0
  -22.7780  -29.5800   22.6040 C   0  0  0  0  0  0  0  0  0  0  0  0
  -21.4540  -29.3770   22.4710 N   0  0  0  0  0  0  0  0  0  0  0  0
  -23.4540  -28.9820   23.4470 O   0  0  0  0  0  0  0  0  0  0  0  0
  -20.9610  -29.9130   21.7710 H   0  0  0  0  0  0  0  0  0  0  0  0
  -18.1050  -28.0680   22.9490 C   0  0  0  0  0  0  0  0  0  0  0  0
  -20.6500  -28.4280   23.2480 C   0  0  0  0  0  3  0  0  0  0  0  0
  -20.8100  -26.9880   22.7070 C   0  0  0  0  0  2  0  0  0  0  0  0
  -19.7380  -26.6060   21.6820 C   0  0  0  0  0  2  0  0  0  0  0  0
  -18.3400  -26.7140   22.3010 C   0  0  0  0  0  2  0  0  0  0  0  0
  -19.1890  -28.8800   23.3790 C   0  0  0  0  0  0  0  0  0  0  0  0
  -18.9140  -30.1430   23.9450 C   0  0  0  0  0  3  0  0  0  0  0  0
  -17.5900  -30.5970   24.0850 C   0  0  0  0  0  3  0  0  0  0  0  0
  -16.5210  -29.7850   23.6700 C   0  0  0  0  0  3  0  0  0  0  0  0
  -16.7780  -28.5220   23.1080 C   0  0  0  0  0  3  0  0  0  0  0  0
  -25.9190  -32.6470   23.8730 C   0  0  0  0  0  3  0  0  0  0  0  0
  -26.4380  -31.8960   25.1630 C   0  0  1  0  0  0  0  0  0  0  0  0
  -25.3380  -31.6460   26.2230 C   0  0  0  0  0  1  0  0  0  0  0  0
  -27.0510  -30.5270   24.7930 C   0  0  0  0  0  1  0  0  0  0  0  0
  -27.5670  -32.7180   25.8280 C   0  0  0  0  0  1  0  0  0  0  0  0
  -25.5960  -34.0480   24.1990 N   0  0  0  0  0  0  0  0  0  0  0  0
  -25.9100  -35.1040   23.4360 C   0  0  0  0  0  0  0  0  0  0  0  0
  -26.5670  -35.0030   22.3960 O   0  0  0  0  0  0  0  0  0  0  0  0
  -25.0110  -34.1970   25.0070 H   0  0  0  0  0  0  0  0  0  0  0  0
  -24.1590  -36.8840   23.1170 C   0  0  0  0  0  1  0  0  0  0  0  0
  -25.4220  -36.4920   23.8990 C   0  0  0  0  0  3  0  0  0  0  0  0
  -27.5670  -37.4040   24.6730 C   0  0  0  0  0  1  0  0  0  0  0  0
  -26.4420  -37.5550   23.7550 N   0  0  0  0  0  0  0  0  0  0  0  0
  -26.0300  -38.4720   23.9050 H   0  0  0  0  0  0  0  0  0  0  0  0
  -28.9720  -19.7530   19.6440 C   0  0  0  0  0  2  0  0  0  0  0  0
  -30.1080  -18.3690   19.7130 C   0  0  0  0  0  0  0  0  0  0  0  0
  -30.6660  -15.4910   19.6560 C   0  0  0  0  0  0  0  0  0  0  0  0
  -30.6850  -12.9960   18.9850 C   0  0  0  0  0  2  0  0  0  0  0  0
  -29.7190  -12.6710   17.8200 C   0  0  0  0  0  2  0  0  0  0  0  0
  -28.3010  -12.3930   18.3500 C   0  0  0  0  0  2  0  0  0  0  0  0
  -27.8650  -13.4300   19.4160 C   0  0  0  0  0  3  0  0  0  0  0  0
  -28.9550  -13.7020   20.4710 C   0  0  0  0  0  2  0  0  0  0  0  0
  -30.1390  -14.1790   19.7380 N   0  0  0  0  0  0  0  0  0  0  0  0
  -31.8750  -15.5200   19.3880 O   0  0  0  0  0  0  0  0  0  0  0  0
  -29.8590  -16.7270   19.6860 N   0  0  0  0  0  4  0  0  0  0  0  0
  -28.8820  -16.5000   19.7890 H   0  0  0  0  0  0  0  0  0  0  0  0
  -25.5710  -13.9810   20.3890 C   0  0  0  0  0  0  0  0  0  0  0  0
  -24.5300  -13.1970   20.8010 C   0  0  0  0  0  0  0  0  0  0  0  0
  -24.9690  -11.8450   20.6590 C   0  0  0  0  0  0  0  0  0  0  0  0
  -26.5760  -13.1060   20.0150 N   0  0  0  0  0  0  0  0  0  0  0  0
  -26.2310  -11.8120   20.2440 N   0  0  0  0  0  0  0  0  0  0  0  0
  -24.2370  -10.5840   20.8360 C   0  0  0  0  0  0  0  0  0  0  0  0
  -24.6610   -9.6060   21.7620 C   0  0  0  0  0  3  0  0  0  0  0  0
  -23.9260   -8.4130   21.9310 C   0  0  0  0  0  3  0  0  0  0  0  0
  -22.7530   -8.1880   21.1700 C   0  0  0  0  0  0  0  0  0  0  0  0
  -22.3480   -9.1550   20.2340 C   0  0  0  0  0  3  0  0  0  0  0  0
  -23.0840  -10.3390   20.0640 C   0  0  0  0  0  3  0  0  0  0  0  0
  -21.9910   -7.0470   21.2480 O   0  0  0  0  0  0  0  0  0  0  0  0
  -21.8510   -6.3520   22.4230 C   0  0  0  0  0  0  0  0  0  0  0  0
  -21.3160   -6.9520   23.5830 C   0  0  0  0  0  3  0  0  0  0  0  0
  -21.1250   -6.1830   24.7490 C   0  0  0  0  0  3  0  0  0  0  0  0
  -21.4600   -4.8150   24.7530 C   0  0  0  0  0  0  0  0  0  0  0  0
  -21.9880   -4.2160   23.5970 C   0  0  0  0  0  3  0  0  0  0  0  0
  -22.1800   -4.9820   22.4340 C   0  0  0  0  0  0  0  0  0  0  0  0
  -22.6700   -4.3940   21.3160 F   0  0  0  0  0  0  0  0  0  0  0  0
  -21.2700   -4.0750   25.8710 F   0  0  0  0  0  0  0  0  0  0  0  0
  -23.1660  -13.6780   21.2040 C   0  0  0  0  0  0  0  0  0  0  0  0
  -22.4990  -12.9540   22.0940 N   0  0  0  0  0  0  0  0  0  0  0  0
  -22.7050  -14.7310   20.7650 O   0  0  0  0  0  0  0  0  0  0  0  0
  -22.8870  -12.1010   22.4720 H   0  0  0  0  0  0  0  0  0  0  0  0
  -21.5870  -13.2560   22.4050 H   0  0  0  0  0  0  0  0  0  0  0  0
  -25.7390  -15.3570   20.2720 N   0  0  0  0  0  0  0  0  0  0  0  0
  -24.9850  -16.0060   20.4730 H   0  0  0  0  0  0  0  0  0  0  0  0
  -26.5470  -15.8060   19.8630 H   0  0  0  0  0  0  0  0  0  0  0  0
  -30.9070  -17.7860   22.0660 C   0  0  0  0  0  1  0  0  0  0  0  0
  -31.1390  -18.6730   20.8310 C   0  0  0  0  0  3  0  0  0  0  0  0
  -33.5570  -19.5390   21.0840 C   0  0  0  0  0  1  0  0  0  0  0  0
  -32.6050  -18.5870   20.3470 C   0  0  0  0  0  2  0  0  0  0  0  0
  1 50  1  0
  1  2  1  0
  2  5  1  0
  2  4  1  0
  3  2  1  0
  7  6  1  0
  7  1  1  0
  7  8  1  0
  9 11  1  0
  9  8  1  0
 10 21  2  0
 11 16  1  0
 12 20  1  0
 12 22  1  0
 13 19  1  0
 13 15  1  0
 14 20  1  0
 15 14  1  0
 16 15  2  0
 17 11  2  0
 18 17  1  0
 18 13  2  0
 19 12  1  0
 20 10  1  0
 22 24  2  0
 23 22  1  0
 25 23  1  0
 26 35  2  0
 26 31  1  0
 27 23  1  0
 27 31  1  0
 28 27  1  0
 29 30  1  0
 29 28  1  0
 30 26  1  0
 31 32  2  0
 32 33  1  0
 34 33  2  0
 35 34  1  0
 36 10  1  0
 36 41  1  0
 36 37  1  0
 37 40  1  1
 37 38  1  0
 39 37  1  0
 41 44  1  0
 42 46  1  0
 42 41  1  0
 43 42  2  0
 46 45  1  0
 48 46  1  0
 48 49  1  0
 48 47  1  0
 50 51  1  0
 51 91  1  0
 52 60  1  0
 52 58  1  0
 53 58  1  0
 54 55  1  0
 54 53  1  0
 56 55  1  0
 56 65  1  0
 56 57  1  0
 58 57  1  0
 59 52  2  0
 60 51  2  0
 60 61  1  0
 62 63  2  0
 63 82  1  0
 64 63  1  0
 64 67  1  0
 65 66  1  0
 65 62  1  0
 66 64  2  0
 67 68  1  0
 68 69  2  0
 70 73  1  0
 70 69  1  0
 71 70  2  0
 72 71  1  0
 72 67  2  0
 73 74  1  0
 74 79  2  0
 74 75  1  0
 75 76  2  0
 76 77  1  0
 77 81  1  0
 78 77  2  0
 79 78  1  0
 80 79  1  0
 82 83  1  0
 83 86  1  0
 83 85  1  0
 84 82  2  0
 87 62  1  0
 87 88  1  0
 89 87  1  0
 91 90  1  0
 93 91  1  0
 93 92  1  0
M  ISO  4   8 101   9 101  52 100  60 100
M  END
>  <TORSDO>  (62) 
F 23

>  <SCORE>  (62) 
-14.727

>  <name>  (62) 
61

>  <ligand_id>  (62) 
61

>  <original_smiles>  (62) 
[H]c1c([H])c([H])c2c(c1[H])C([H])([H])C([H])([H])C([H])([H])C2([H])N([H])C(=O)C1([H])N(C(=O)C([H])(N([H])C(=O)C([H])(N([H])C([H])([H])[H])C([H])([H])[H])C(C([H])([H])[H])(C([H])([H])[H])C([H])([H])[H])C([H])([H])c2c([H])c(OC([H])([H])C([H])(C([H])([H])[H])C([H])(C([H])([H])C([H])(N([H])C(=O)N3C([H])([H])C([H])([H])C([H])([H])C([H])(n4nc(-c5c([H])c([H])c(Oc6c([H])c([H])c(F)c([H])c6F)c([H])c5[H])c(C(=O)N([H])[H])c4N([H])[H])C3([H])[H])C([H])(C([H])([H])[H])C([H])([H])C([H])([H])[H])[N+]([H])([H])[H])c([H])c([H])c2C1([H])[H]

>  <smiles>  (62) 
[H]c1c([H])c([H])c2c(c1[H])C([H])([H])C([H])([H])C([H])([H])C2([H])N([H])C(=O)C1([H])N(C(=O)C([H])(N([H])C(=O)C([H])(N([H])C([H])([H])[H])C([H])([H])[H])C(C([H])([H])[H])(C([H])([H])[H])C([H])([H])[H])C([H])([H])c2c([H])c(OC([H])([H])C([H])(C([H])([H])[H])C([H])(C([H])([H])C([H])(N([H])C(=O)N3C([H])([H])C([H])([H])C([H])([H])C([H])(n4nc(-c5c([H])c([H])c(Oc6c([H])c([H])c(F)c([H])c6F)c([H])c5[H])c(C(=O)N([H])[H])c4N([H])[H])C3([H])[H])C([H])(C([H])([H])[H])C([H])([H])C([H])([H])[H])[N+]([H])([H])[H])c([H])c([H])c2C1([H])[H]

$$$$
62:0:0
     RDKit          3D

 91 98  0  0  1  0  0  0  0  0999 V2000
  -29.0740  -22.8000   19.6440 C   0  0  0  0  0  3  0  0  0  0  0  0
  -30.2660  -23.3460   18.9630 N   0  0  0  0  0  4  0  0  0  0  0  0
  -30.5920  -22.7330   18.2350 H   0  0  0  0  0  0  0  0  0  0  0  0
  -31.0150  -23.5000   19.6150 H   0  0  0  0  0  0  0  0  0  0  0  0
  -30.0450  -24.2340   18.5410 H   0  0  0  0  0  0  0  0  0  0  0  0
  -29.4460  -21.1060   20.0840 C   0  0  0  0  0  2  0  0  0  0  0  0
  -29.5830  -19.5660   19.1800 C   0  0  0  0  0  2  0  0  0  0  0  0
  -30.6380  -18.1400   19.3880 C   0  0  0  0  0  3  0  0  0  0  0  0
  -31.1130  -15.2370   19.2830 C   0  0  0  0  0  0  0  0  0  0  0  0
  -30.9420  -12.7210   18.6980 C   0  0  0  0  0  2  0  0  0  0  0  0
  -29.9220  -12.4170   17.5730 C   0  0  0  0  0  2  0  0  0  0  0  0
  -28.5040  -12.2630   18.1570 C   0  0  0  0  0  2  0  0  0  0  0  0
  -28.1690  -13.3780   19.1780 C   0  0  0  0  0  3  0  0  0  0  0  0
  -29.3060  -13.6090   20.1950 C   0  0  0  0  0  2  0  0  0  0  0  0
  -30.4960  -13.9680   19.4080 N   0  0  0  0  0  0  0  0  0  0  0  0
  -32.3290  -15.1770   19.0550 O   0  0  0  0  0  0  0  0  0  0  0  0
  -30.3750  -16.5110   19.2140 N   0  0  0  0  0  0  0  0  0  0  0  0
  -29.3840  -16.3220   19.2020 H   0  0  0  0  0  0  0  0  0  0  0  0
  -25.9610  -14.1390   20.2010 C   0  0  0  0  0  0  0  0  0  0  0  0
  -24.8690  -13.4540   20.6570 C   0  0  0  0  0  0  0  0  0  0  0  0
  -25.1920  -12.0680   20.5400 C   0  0  0  0  0  0  0  0  0  0  0  0
  -26.8770  -13.1770   19.8230 N   0  0  0  0  0  0  0  0  0  0  0  0
  -26.4370  -11.9210   20.0990 N   0  0  0  0  0  0  0  0  0  0  0  0
  -24.3640  -10.8740   20.7710 C   0  0  0  0  0  0  0  0  0  0  0  0
  -24.7440   -9.8780   21.6950 C   0  0  0  0  0  3  0  0  0  0  0  0
  -23.9230   -8.7500   21.9120 C   0  0  0  0  0  3  0  0  0  0  0  0
  -22.7050   -8.6120   21.2060 C   0  0  0  0  0  0  0  0  0  0  0  0
  -22.3420   -9.5950   20.2690 C   0  0  0  0  0  3  0  0  0  0  0  0
  -23.1630  -10.7140   20.0510 C   0  0  0  0  0  3  0  0  0  0  0  0
  -21.8580   -7.5390   21.3330 O   0  0  0  0  0  0  0  0  0  0  0  0
  -21.7220   -6.8660   22.5220 C   0  0  0  0  0  0  0  0  0  0  0  0
  -21.3080   -7.5170   23.7030 C   0  0  0  0  0  3  0  0  0  0  0  0
  -21.1110   -6.7740   24.8840 C   0  0  0  0  0  3  0  0  0  0  0  0
  -21.3190   -5.3810   24.8840 C   0  0  0  0  0  0  0  0  0  0  0  0
  -21.7260   -4.7320   23.7070 C   0  0  0  0  0  3  0  0  0  0  0  0
  -21.9230   -5.4710   22.5280 C   0  0  0  0  0  0  0  0  0  0  0  0
  -22.2960   -4.8360   21.3890 F   0  0  0  0  0  0  0  0  0  0  0  0
  -21.1250   -4.6640   26.0160 F   0  0  0  0  0  0  0  0  0  0  0  0
  -23.5610  -14.0520   21.0820 C   0  0  0  0  0  0  0  0  0  0  0  0
  -22.8700  -13.4110   22.0180 N   0  0  0  0  0  0  0  0  0  0  0  0
  -23.1680  -15.1220   20.6200 O   0  0  0  0  0  0  0  0  0  0  0  0
  -23.2040  -12.5410   22.4090 H   0  0  0  0  0  0  0  0  0  0  0  0
  -21.9980  -13.7970   22.3510 H   0  0  0  0  0  0  0  0  0  0  0  0
  -26.2360  -15.4940   20.0430 N   0  0  0  0  0  0  0  0  0  0  0  0
  -25.5450  -16.2100   20.2380 H   0  0  0  0  0  0  0  0  0  0  0  0
  -27.0550  -15.8560   19.5720 H   0  0  0  0  0  0  0  0  0  0  0  0
  -31.2520  -18.2980   20.7930 C   0  0  0  0  0  2  0  0  0  0  0  0
  -30.8550  -18.1260   23.3150 C   0  0  0  0  0  1  0  0  0  0  0  0
  -30.2970  -17.8510   21.9140 C   0  0  0  0  0  2  0  0  0  0  0  0
  -28.4050  -24.1580   20.5840 C   0  0  0  0  0  2  0  0  0  0  0  0
  -28.5870  -25.7790   20.5530 O   0  0  0  0  0  0  0  0  0  0  0  0
  -24.6770  -31.5800   23.3510 C   0  0  0  0  0  0  0  0  0  0  0  0
  -27.5260  -26.8080   20.5010 C   0  0  0  0  0  0  0  0  0  0  0  0
  -23.6210  -30.1690   21.6290 C   0  0  0  0  0  3  0  0  0  0  0  0
  -25.1900  -28.6000   20.3100 C   0  0  0  0  0  0  0  0  0  0  0  0
  -26.1820  -30.4460   21.6480 C   0  0  0  0  0  2  0  0  0  0  0  0
  -26.3250  -29.0430   21.0000 C   0  0  0  0  0  0  0  0  0  0  0  0
  -27.4930  -28.1680   21.0690 C   0  0  0  0  0  3  0  0  0  0  0  0
  -26.3600  -26.5020   19.7660 C   0  0  0  0  0  3  0  0  0  0  0  0
  -25.2280  -27.3490   19.6760 C   0  0  0  0  0  3  0  0  0  0  0  0
  -23.9520  -29.4910   20.2720 C   0  0  0  0  0  2  0  0  0  0  0  0
  -24.8430  -30.7580   22.2650 N   0  0  0  0  0  0  0  0  0  0  0  0
  -23.5520  -31.8440   23.8020 O   0  0  0  0  0  0  0  0  0  0  0  0
  -22.8870  -29.1540   22.5450 C   0  0  0  0  0  0  0  0  0  0  0  0
  -21.5710  -28.9710   22.3430 N   0  0  0  0  0  0  0  0  0  0  0  0
  -23.5140  -28.5280   23.4040 O   0  0  0  0  0  0  0  0  0  0  0  0
  -21.1180  -29.5330   21.6350 H   0  0  0  0  0  0  0  0  0  0  0  0
  -18.1930  -27.6830   22.6100 C   0  0  0  0  0  0  0  0  0  0  0  0
  -20.7210  -28.0140   23.0560 C   0  0  0  0  0  3  0  0  0  0  0  0
  -20.8980  -26.5810   22.4980 C   0  0  0  0  0  2  0  0  0  0  0  0
  -19.8830  -26.2310   21.4050 C   0  0  0  0  0  2  0  0  0  0  0  0
  -18.4540  -26.3390   21.9490 C   0  0  0  0  0  2  0  0  0  0  0  0
  -19.2580  -28.4760   23.1150 C   0  0  0  0  0  0  0  0  0  0  0  0
  -18.9640  -29.7280   23.6930 C   0  0  0  0  0  3  0  0  0  0  0  0
  -17.6360  -30.1940   23.7680 C   0  0  0  0  0  3  0  0  0  0  0  0
  -16.5850  -29.3990   23.2770 C   0  0  0  0  0  3  0  0  0  0  0  0
  -16.8630  -28.1440   22.7080 C   0  0  0  0  0  3  0  0  0  0  0  0
  -25.8930  -32.2430   24.0670 C   0  0  0  0  0  3  0  0  0  0  0  0
  -26.2900  -31.5180   25.4130 C   0  0  1  0  0  0  0  0  0  0  0  0
  -25.1050  -31.3150   26.3850 C   0  0  0  0  0  1  0  0  0  0  0  0
  -26.9090  -30.1300   25.1320 C   0  0  0  0  0  1  0  0  0  0  0  0
  -27.3750  -32.3380   26.1530 C   0  0  0  0  0  1  0  0  0  0  0  0
  -25.5500  -33.6510   24.3310 N   0  0  0  0  0  0  0  0  0  0  0  0
  -25.9370  -34.6880   23.5780 C   0  0  0  0  0  0  0  0  0  0  0  0
  -26.6830  -34.5630   22.6030 O   0  0  0  0  0  0  0  0  0  0  0  0
  -24.8940  -33.8210   25.0800 H   0  0  0  0  0  0  0  0  0  0  0  0
  -24.2340  -36.4710   23.0590 C   0  0  0  0  0  1  0  0  0  0  0  0
  -25.4150  -36.0880   23.9640 C   0  0  0  0  0  3  0  0  0  0  0  0
  -27.4860  -37.0050   24.9190 C   0  0  0  0  0  1  0  0  0  0  0  0
  -26.4510  -37.1420   23.8980 N   0  0  0  0  0  0  0  0  0  0  0  0
  -26.0330  -38.0640   23.9920 H   0  0  0  0  0  0  0  0  0  0  0  0
  1  6  1  0
  1 50  1  0
  2  4  1  0
  2  1  1  0
  3  2  1  0
  5  2  1  0
  7  6  1  0
  8  7  1  0
  8 47  1  0
  9 15  1  0
 10 15  1  0
 11 12  1  0
 11 10  1  0
 13 12  1  0
 13 22  1  0
 13 14  1  0
 15 14  1  0
 16  9  2  0
 17  9  1  0
 17  8  1  0
 18 17  1  0
 19 20  2  0
 20 39  1  0
 21 20  1  0
 21 24  1  0
 22 23  1  0
 22 19  1  0
 23 21  2  0
 24 25  1  0
 25 26  2  0
 27 30  1  0
 27 26  1  0
 28 27  2  0
 29 28  1  0
 29 24  2  0
 30 31  1  0
 31 36  2  0
 31 32  1  0
 32 33  2  0
 34 33  1  0
 34 38  1  0
 35 34  2  0
 36 35  1  0
 37 36  1  0
 39 40  1  0
 40 43  1  0
 40 42  1  0
 41 39  2  0
 44 19  1  0
 44 45  1  0
 46 44  1  0
 47 49  1  0
 49 48  1  0
 51 50  1  0
 52 63  2  0
 53 51  1  0
 53 58  1  0
 54 62  1  0
 54 64  1  0
 55 57  1  0
 56 62  1  0
 57 58  2  0
 57 56  1  0
 59 53  2  0
 60 59  1  0
 60 55  2  0
 61 55  1  0
 61 54  1  0
 62 52  1  0
 64 66  2  0
 65 64  1  0
 67 65  1  0
 68 77  2  0
 68 73  1  0
 69 65  1  0
 69 73  1  0
 70 69  1  0
 71 72  1  0
 71 70  1  0
 72 68  1  0
 73 74  2  0
 74 75  1  0
 76 75  2  0
 77 76  1  0
 78 52  1  0
 78 83  1  0
 78 79  1  0
 79 82  1  1
 79 80  1  0
 81 79  1  0
 83 86  1  0
 84 88  1  0
 84 83  1  0
 85 84  2  0
 88 87  1  0
 90 88  1  0
 90 91  1  0
 90 89  1  0
M  ISO  4   9 100  17 100  50 101  51 101
M  END
>  <TORSDO>  (63) 
F 23

>  <SCORE>  (63) 
-12.796

>  <name>  (63) 
62

>  <ligand_id>  (63) 
62

>  <original_smiles>  (63) 
[H]c1c([H])c([H])c2c(c1[H])C([H])([H])C([H])([H])C([H])([H])C2([H])N([H])C(=O)C1([H])N(C(=O)C([H])(N([H])C(=O)C([H])(N([H])C([H])([H])[H])C([H])([H])[H])C(C([H])([H])[H])(C([H])([H])[H])C([H])([H])[H])C([H])([H])c2c([H])c(OC([H])([H])C([H])(C([H])([H])C([H])([H])C([H])(N([H])C(=O)N3C([H])([H])C([H])([H])C([H])([H])C([H])(n4nc(-c5c([H])c([H])c(Oc6c([H])c([H])c(F)c([H])c6F)c([H])c5[H])c(C(=O)N([H])[H])c4N([H])[H])C3([H])[H])C([H])([H])C([H])([H])C([H])([H])[H])[N+]([H])([H])[H])c([H])c([H])c2C1([H])[H]

>  <smiles>  (63) 
[H]c1c([H])c([H])c2c(c1[H])C([H])([H])C([H])([H])C([H])([H])C2([H])N([H])C(=O)C1([H])N(C(=O)C([H])(N([H])C(=O)C([H])(N([H])C([H])([H])[H])C([H])([H])[H])C(C([H])([H])[H])(C([H])([H])[H])C([H])([H])[H])C([H])([H])c2c([H])c(OC([H])([H])C([H])(C([H])([H])C([H])([H])C([H])(N([H])C(=O)N3C([H])([H])C([H])([H])C([H])([H])C([H])(n4nc(-c5c([H])c([H])c(Oc6c([H])c([H])c(F)c([H])c6F)c([H])c5[H])c(C(=O)N([H])[H])c4N([H])[H])C3([H])[H])C([H])([H])C([H])([H])C([H])([H])[H])[N+]([H])([H])[H])c([H])c([H])c2C1([H])[H]

$$$$
63:0:0
     RDKit          3D

 94103  0  0  1  0  0  0  0  0999 V2000
  -29.0540  -22.6270   17.8430 C   0  0  0  0  0  2  0  0  0  0  0  0
  -28.8960  -20.0990   17.8420 C   0  0  0  0  0  2  0  0  0  0  0  0
  -27.7670  -22.9250   18.5840 C   0  0  0  0  0  2  0  0  0  0  0  0
  -28.0680  -19.4090   18.9230 C   0  0  0  0  0  2  0  0  0  0  0  0
  -29.5630  -21.3390   18.5050 C   0  0  0  0  0  3  0  0  0  0  0  0
  -28.1990  -22.7070   20.0320 C   0  0  0  0  0  3  0  0  0  0  0  0
  -28.8550  -19.7080   20.1850 C   0  0  0  0  0  3  0  0  0  0  0  0
  -29.1950  -21.3410   19.9610 N   0  0  1  0  0  4  0  0  0  0  0  0
  -30.0110  -21.5540   20.5190 H   0  0  0  0  0  0  0  0  0  0  0  0
  -28.4890  -24.3830   20.6170 C   0  0  0  0  0  2  0  0  0  0  0  0
  -28.3200  -25.9640   20.1460 O   0  0  0  0  0  0  0  0  0  0  0  0
  -24.6830  -31.8660   23.2280 C   0  0  0  0  0  0  0  0  0  0  0  0
  -27.2450  -26.9880   20.2330 C   0  0  0  0  0  0  0  0  0  0  0  0
  -23.4890  -30.4600   21.5980 C   0  0  0  0  0  3  0  0  0  0  0  0
  -24.9360  -28.8490   20.1860 C   0  0  0  0  0  0  0  0  0  0  0  0
  -26.0510  -30.6830   21.4390 C   0  0  0  0  0  2  0  0  0  0  0  0
  -26.1250  -29.2690   20.7950 C   0  0  0  0  0  0  0  0  0  0  0  0
  -27.2770  -28.3620   20.7830 C   0  0  0  0  0  3  0  0  0  0  0  0
  -26.0210  -26.7110   19.5870 C   0  0  0  0  0  3  0  0  0  0  0  0
  -24.9070  -27.5900   19.5630 C   0  0  0  0  0  3  0  0  0  0  0  0
  -23.7140  -29.7690   20.2250 C   0  0  0  0  0  2  0  0  0  0  0  0
  -24.7630  -31.0310   22.1420 N   0  0  0  0  0  0  0  0  0  0  0  0
  -23.5920  -32.1530   23.7500 O   0  0  0  0  0  0  0  0  0  0  0  0
  -22.8010  -29.4650   22.5690 C   0  0  0  0  0  0  0  0  0  0  0  0
  -21.4720  -29.2910   22.4410 N   0  0  0  0  0  0  0  0  0  0  0  0
  -23.4690  -28.8500   23.4030 O   0  0  0  0  0  0  0  0  0  0  0  0
  -20.9860  -29.8380   21.7430 H   0  0  0  0  0  0  0  0  0  0  0  0
  -18.0990  -28.0520   22.9360 C   0  0  0  0  0  0  0  0  0  0  0  0
  -20.6530  -28.3510   23.2140 C   0  0  0  0  0  3  0  0  0  0  0  0
  -20.7750  -26.9160   22.6510 C   0  0  0  0  0  2  0  0  0  0  0  0
  -19.6830  -26.5720   21.6330 C   0  0  0  0  0  2  0  0  0  0  0  0
  -18.2960  -26.7010   22.2680 C   0  0  0  0  0  2  0  0  0  0  0  0
  -19.2050  -28.8330   23.3640 C   0  0  0  0  0  0  0  0  0  0  0  0
  -18.9630  -30.0960   23.9500 C   0  0  0  0  0  3  0  0  0  0  0  0
  -17.6500  -30.5760   24.1120 C   0  0  0  0  0  3  0  0  0  0  0  0
  -16.5590  -29.7920   23.6980 C   0  0  0  0  0  3  0  0  0  0  0  0
  -16.7840  -28.5320   23.1150 C   0  0  0  0  0  3  0  0  0  0  0  0
  -25.9540  -32.5140   23.8570 C   0  0  0  0  0  3  0  0  0  0  0  0
  -26.4510  -31.7650   25.1550 C   0  0  1  0  0  0  0  0  0  0  0  0
  -25.3450  -31.5490   26.2160 C   0  0  0  0  0  1  0  0  0  0  0  0
  -27.0340  -30.3770   24.8020 C   0  0  0  0  0  1  0  0  0  0  0  0
  -27.5980  -32.5670   25.8150 C   0  0  0  0  0  1  0  0  0  0  0  0
  -25.6370  -33.9180   24.1740 N   0  0  0  0  0  0  0  0  0  0  0  0
  -25.9770  -34.9710   23.4180 C   0  0  0  0  0  0  0  0  0  0  0  0
  -26.6540  -34.8620   22.3920 O   0  0  0  0  0  0  0  0  0  0  0  0
  -25.0370  -34.0770   24.9690 H   0  0  0  0  0  0  0  0  0  0  0  0
  -24.2640  -36.7800   23.0510 C   0  0  0  0  0  1  0  0  0  0  0  0
  -25.4960  -36.3650   23.8700 C   0  0  0  0  0  3  0  0  0  0  0  0
  -27.6270  -37.2450   24.7200 C   0  0  0  0  0  1  0  0  0  0  0  0
  -26.5350  -37.4130   23.7640 N   0  0  0  0  0  0  0  0  0  0  0  0
  -26.1310  -38.3370   23.9030 H   0  0  0  0  0  0  0  0  0  0  0  0
  -29.9630  -18.2710   20.3910 C   0  0  0  0  0  0  0  0  0  0  0  0
  -30.4190  -15.3280   20.2720 C   0  0  0  0  0  0  0  0  0  0  0  0
  -30.3860  -12.8910   19.3710 C   0  0  0  0  0  2  0  0  0  0  0  0
  -29.4650  -12.6830   18.1440 C   0  0  0  0  0  2  0  0  0  0  0  0
  -28.0160  -12.4140   18.5850 C   0  0  0  0  0  2  0  0  0  0  0  0
  -27.5690  -13.3610   19.7270 C   0  0  0  0  0  3  0  0  0  0  0  0
  -28.6230  -13.5150   20.8450 C   0  0  0  0  0  2  0  0  0  0  0  0
  -29.8420  -14.0290   20.2020 N   0  0  0  0  0  0  0  0  0  0  0  0
  -31.6390  -15.3040   20.0610 O   0  0  0  0  0  0  0  0  0  0  0  0
  -29.6670  -16.6120   20.3740 N   0  0  0  0  0  4  0  0  0  0  0  0
  -28.6810  -16.4250   20.4750 H   0  0  0  0  0  0  0  0  0  0  0  0
  -25.2020  -13.8980   20.5020 C   0  0  0  0  0  0  0  0  0  0  0  0
  -24.1470  -13.1120   20.8720 C   0  0  0  0  0  0  0  0  0  0  0  0
  -24.6230  -11.7650   20.8330 C   0  0  0  0  0  0  0  0  0  0  0  0
  -26.2480  -13.0310   20.2470 N   0  0  0  0  0  0  0  0  0  0  0  0
  -25.9150  -11.7420   20.5170 N   0  0  0  0  0  0  0  0  0  0  0  0
  -23.9040  -10.4960   21.0230 C   0  0  0  0  0  0  0  0  0  0  0  0
  -24.3340   -9.5360   21.9640 C   0  0  0  0  0  3  0  0  0  0  0  0
  -23.6100   -8.3370   22.1440 C   0  0  0  0  0  3  0  0  0  0  0  0
  -22.4430   -8.0900   21.3810 C   0  0  0  0  0  0  0  0  0  0  0  0
  -22.0330   -9.0400   20.4300 C   0  0  0  0  0  3  0  0  0  0  0  0
  -22.7570  -10.2310   20.2480 C   0  0  0  0  0  3  0  0  0  0  0  0
  -21.6960   -6.9400   21.4650 O   0  0  0  0  0  0  0  0  0  0  0  0
  -21.6240   -6.2100   22.6240 C   0  0  0  0  0  0  0  0  0  0  0  0
  -21.1440   -6.7690   23.8280 C   0  0  0  0  0  3  0  0  0  0  0  0
  -21.0230   -5.9670   24.9800 C   0  0  0  0  0  3  0  0  0  0  0  0
  -21.3710   -4.6040   24.9290 C   0  0  0  0  0  0  0  0  0  0  0  0
  -21.8430   -4.0420   23.7290 C   0  0  0  0  0  3  0  0  0  0  0  0
  -21.9660   -4.8430   22.5800 C   0  0  0  0  0  0  0  0  0  0  0  0
  -22.4020   -4.2910   21.4220 F   0  0  0  0  0  0  0  0  0  0  0  0
  -21.2470   -3.8300   26.0330 F   0  0  0  0  0  0  0  0  0  0  0  0
  -22.7480  -13.5800   21.1440 C   0  0  0  0  0  0  0  0  0  0  0  0
  -22.0230  -12.8740   22.0040 N   0  0  0  0  0  0  0  0  0  0  0  0
  -22.3050  -14.6070   20.6310 O   0  0  0  0  0  0  0  0  0  0  0  0
  -22.3950  -12.0440   22.4430 H   0  0  0  0  0  0  0  0  0  0  0  0
  -21.0850  -13.1700   22.2290 H   0  0  0  0  0  0  0  0  0  0  0  0
  -25.3500  -15.2710   20.3300 N   0  0  0  0  0  0  0  0  0  0  0  0
  -24.5730  -15.9130   20.4430 H   0  0  0  0  0  0  0  0  0  0  0  0
  -26.1770  -15.7120   19.9510 H   0  0  0  0  0  0  0  0  0  0  0  0
  -31.2790  -18.4760   19.5970 C   0  0  0  0  0  2  0  0  0  0  0  0
  -33.7960  -18.2310   19.5820 C   0  0  0  0  0  1  0  0  0  0  0  0
  -32.7250  -19.8870   21.1540 C   0  0  0  0  0  1  0  0  0  0  0  0
  -32.5640  -18.5290   20.4490 C   0  0  0  0  0  3  0  0  0  0  0  0
  1  5  1  0
  1  3  1  0
  2  4  1  0
  3  6  1  0
  4  7  1  0
  5  2  1  0
  5  8  1  0
  6 10  1  0
  7 52  1  0
  8  6  1  0
  8  7  1  0
  8  9  1  1
 11 13  1  0
 11 10  1  0
 12 23  2  0
 13 18  1  0
 14 22  1  0
 14 24  1  0
 15 21  1  0
 15 17  1  0
 16 22  1  0
 17 16  1  0
 18 17  2  0
 19 13  2  0
 20 19  1  0
 20 15  2  0
 21 14  1  0
 22 12  1  0
 24 26  2  0
 25 24  1  0
 27 25  1  0
 28 37  2  0
 28 33  1  0
 29 25  1  0
 29 33  1  0
 30 29  1  0
 31 32  1  0
 31 30  1  0
 32 28  1  0
 33 34  2  0
 34 35  1  0
 36 35  2  0
 37 36  1  0
 38 12  1  0
 38 43  1  0
 38 39  1  0
 39 42  1  1
 39 40  1  0
 41 39  1  0
 43 46  1  0
 44 48  1  0
 44 43  1  0
 45 44  2  0
 48 47  1  0
 50 48  1  0
 50 51  1  0
 50 49  1  0
 53 61  1  0
 54 59  1  0
 55 56  1  0
 55 54  1  0
 57 56  1  0
 57 66  1  0
 57 58  1  0
 59 53  1  0
 59 58  1  0
 60 53  2  0
 61 52  2  0
 61 62  1  0
 63 64  2  0
 64 83  1  0
 65 64  1  0
 65 68  1  0
 66 63  1  0
 66 67  1  0
 67 65  2  0
 68 69  1  0
 69 70  2  0
 71 74  1  0
 71 70  1  0
 72 71  2  0
 73 72  1  0
 73 68  2  0
 74 75  1  0
 75 76  1  0
 76 77  2  0
 78 77  1  0
 78 82  1  0
 79 78  2  0
 80 75  2  0
 80 79  1  0
 81 80  1  0
 83 84  1  0
 84 87  1  0
 84 86  1  0
 85 83  2  0
 88 89  1  0
 88 63  1  0
 90 88  1  0
 91 52  1  0
 91 94  1  0
 92 94  1  0
 94 93  1  0
M  ISO  4  10 101  11 101  53 100  61 100
M  END
>  <TORSDO>  (64) 
F 20

>  <SCORE>  (64) 
-16.363

>  <name>  (64) 
63

>  <ligand_id>  (64) 
63

>  <original_smiles>  (64) 
[H]c1c([H])c([H])c2c(c1[H])C([H])([H])C([H])([H])C([H])([H])C2([H])N([H])C(=O)C1([H])N(C(=O)C([H])(N([H])C(=O)C([H])(N([H])C([H])([H])[H])C([H])([H])[H])C(C([H])([H])[H])(C([H])([H])[H])C([H])([H])[H])C([H])([H])c2c([H])c(OC([H])([H])C3([H])C([H])([H])C([H])([H])C4([H])C([H])([H])C([H])([H])C([H])(C([H])(N([H])C(=O)N5C([H])([H])C([H])([H])C([H])([H])C([H])(n6nc(-c7c([H])c([H])c(Oc8c([H])c([H])c(F)c([H])c8F)c([H])c7[H])c(C(=O)N([H])[H])c6N([H])[H])C5([H])[H])C([H])([H])C([H])(C([H])([H])[H])C([H])([H])[H])[N+]34[H])c([H])c([H])c2C1([H])[H]

>  <smiles>  (64) 
[H]c1c([H])c([H])c2c(c1[H])C([H])([H])C([H])([H])C([H])([H])C2([H])N([H])C(=O)C1([H])N(C(=O)C([H])(N([H])C(=O)C([H])(N([H])C([H])([H])[H])C([H])([H])[H])C(C([H])([H])[H])(C([H])([H])[H])C([H])([H])[H])C([H])([H])c2c([H])c(OC([H])([H])C3([H])C([H])([H])C([H])([H])C4([H])C([H])([H])C([H])([H])C([H])(C([H])(N([H])C(=O)N5C([H])([H])C([H])([H])C([H])([H])C([H])(n6nc(-c7c([H])c([H])c(Oc8c([H])c([H])c(F)c([H])c8F)c([H])c7[H])c(C(=O)N([H])[H])c6N([H])[H])C5([H])[H])C([H])([H])C([H])(C([H])([H])[H])C([H])([H])[H])[N+]34[H])c([H])c([H])c2C1([H])[H]

$$$$
64:0:0
     RDKit          3D

 93101  0  0  1  0  0  0  0  0999 V2000
  -29.8200  -19.7520   21.4850 C   0  0  0  0  0  2  0  0  0  0  0  0
  -28.7830  -19.7720   19.2990 C   0  0  0  0  0  2  0  0  0  0  0  0
  -29.8870  -21.3600   21.4360 C   0  0  0  0  0  2  0  0  0  0  0  0
  -28.8670  -21.3730   19.2300 C   0  0  0  0  0  2  0  0  0  0  0  0
  -29.9400  -19.0560   20.0940 C   0  0  0  0  0  3  0  0  0  0  0  0
  -28.9150  -22.1190   20.5420 N   0  0  2  0  0  4  0  0  0  0  0  0
  -28.0090  -22.0030   20.9730 H   0  0  0  0  0  0  0  0  0  0  0  0
  -29.1870  -23.6730   20.4870 C   0  0  0  0  0  3  0  0  0  0  0  0
  -28.0480  -24.8150   20.1440 C   0  0  0  0  0  3  0  0  0  0  0  0
  -28.3000  -26.3260   20.2600 O   0  0  0  0  0  0  0  0  0  0  0  0
  -24.6300  -31.9110   23.2370 C   0  0  0  0  0  0  0  0  0  0  0  0
  -27.2180  -27.2580   20.1950 C   0  0  0  0  0  0  0  0  0  0  0  0
  -23.4260  -30.5060   21.6090 C   0  0  0  0  0  3  0  0  0  0  0  0
  -24.8710  -28.9480   20.1740 C   0  0  0  0  0  0  0  0  0  0  0  0
  -25.9720  -30.8020   21.4200 C   0  0  0  0  0  2  0  0  0  0  0  0
  -26.0480  -29.4150   20.7720 C   0  0  0  0  0  0  0  0  0  0  0  0
  -27.2230  -28.5830   20.7660 C   0  0  0  0  0  3  0  0  0  0  0  0
  -26.0130  -26.8750   19.5620 C   0  0  0  0  0  3  0  0  0  0  0  0
  -24.8630  -27.6900   19.5550 C   0  0  0  0  0  3  0  0  0  0  0  0
  -23.6370  -29.8310   20.2280 C   0  0  0  0  0  2  0  0  0  0  0  0
  -24.6960  -31.0930   22.1440 N   0  0  0  0  0  0  0  0  0  0  0  0
  -23.5460  -32.1900   23.7730 O   0  0  0  0  0  0  0  0  0  0  0  0
  -22.7640  -29.4920   22.5750 C   0  0  0  0  0  0  0  0  0  0  0  0
  -21.4400  -29.2990   22.4430 N   0  0  0  0  0  0  0  0  0  0  0  0
  -23.4440  -28.8840   23.4060 O   0  0  0  0  0  0  0  0  0  0  0  0
  -20.9490  -29.8420   21.7480 H   0  0  0  0  0  0  0  0  0  0  0  0
  -18.0760  -28.0560   22.9400 C   0  0  0  0  0  0  0  0  0  0  0  0
  -20.6290  -28.3570   23.2180 C   0  0  0  0  0  3  0  0  0  0  0  0
  -20.7540  -26.9210   22.6570 C   0  0  0  0  0  2  0  0  0  0  0  0
  -19.6620  -26.5730   21.6400 C   0  0  0  0  0  2  0  0  0  0  0  0
  -18.2750  -26.7030   22.2770 C   0  0  0  0  0  2  0  0  0  0  0  0
  -19.1810  -28.8400   23.3670 C   0  0  0  0  0  0  0  0  0  0  0  0
  -18.9400  -30.1030   23.9480 C   0  0  0  0  0  3  0  0  0  0  0  0
  -17.6270  -30.5860   24.1040 C   0  0  0  0  0  3  0  0  0  0  0  0
  -16.5360  -29.8010   23.6910 C   0  0  0  0  0  3  0  0  0  0  0  0
  -16.7620  -28.5380   23.1160 C   0  0  0  0  0  3  0  0  0  0  0  0
  -25.9100  -32.5530   23.8530 C   0  0  0  0  0  3  0  0  0  0  0  0
  -25.6000  -33.9550   24.1700 N   0  0  0  0  0  0  0  0  0  0  0  0
  -25.9340  -35.0030   23.4050 C   0  0  0  0  0  0  0  0  0  0  0  0
  -26.6050  -34.8910   22.3760 O   0  0  0  0  0  0  0  0  0  0  0  0
  -25.0040  -34.1160   24.9690 H   0  0  0  0  0  0  0  0  0  0  0  0
  -24.2210  -36.8060   23.0220 C   0  0  0  0  0  1  0  0  0  0  0  0
  -25.4490  -36.3960   23.8520 C   0  0  0  0  0  3  0  0  0  0  0  0
  -27.5730  -37.2760   24.7160 C   0  0  0  0  0  1  0  0  0  0  0  0
  -26.4900  -37.4430   23.7500 N   0  0  0  0  0  0  0  0  0  0  0  0
  -26.0850  -38.3670   23.8820 H   0  0  0  0  0  0  0  0  0  0  0  0
  -26.4230  -31.7980   25.1410 C   0  0  1  0  0  0  0  0  0  0  0  0
  -25.3270  -31.5670   26.2070 C   0  0  0  0  0  1  0  0  0  0  0  0
  -27.0120  -30.4180   24.7680 C   0  0  0  0  0  1  0  0  0  0  0  0
  -27.5690  -32.6030   25.7980 C   0  0  0  0  0  1  0  0  0  0  0  0
  -30.4580  -17.4840   19.7990 C   0  0  0  0  0  0  0  0  0  0  0  0
  -30.7240  -14.9230   20.3860 C   0  0  0  0  0  0  0  0  0  0  0  0
  -30.5340  -12.6210   19.4140 C   0  0  0  0  0  2  0  0  0  0  0  0
  -29.6230  -12.6520   18.1690 C   0  0  0  0  0  2  0  0  0  0  0  0
  -28.1510  -12.4650   18.5780 C   0  0  0  0  0  2  0  0  0  0  0  0
  -27.7440  -13.3610   19.7780 C   0  0  0  0  0  3  0  0  0  0  0  0
  -28.7860  -13.3320   20.9160 C   0  0  0  0  0  2  0  0  0  0  0  0
  -30.0780  -13.7010   20.3280 N   0  0  0  0  0  0  0  0  0  0  0  0
  -31.9310  -14.9480   20.1320 O   0  0  0  0  0  0  0  0  0  0  0  0
  -29.9980  -16.1340   20.4260 N   0  0  0  0  0  4  0  0  0  0  0  0
  -29.0180  -16.0540   20.6520 H   0  0  0  0  0  0  0  0  0  0  0  0
  -25.3470  -13.9290   20.4730 C   0  0  0  0  0  0  0  0  0  0  0  0
  -24.2830  -13.1480   20.8300 C   0  0  0  0  0  0  0  0  0  0  0  0
  -24.7570  -11.8000   20.8140 C   0  0  0  0  0  0  0  0  0  0  0  0
  -26.4010  -13.0570   20.2560 N   0  0  0  0  0  0  0  0  0  0  0  0
  -26.0540  -11.7720   20.5270 N   0  0  0  0  0  0  0  0  0  0  0  0
  -24.0370  -10.5330   21.0000 C   0  0  0  0  0  0  0  0  0  0  0  0
  -24.4520   -9.5800   21.9560 C   0  0  0  0  0  3  0  0  0  0  0  0
  -23.7290   -8.3790   22.1300 C   0  0  0  0  0  3  0  0  0  0  0  0
  -22.5790   -8.1230   21.3460 C   0  0  0  0  0  0  0  0  0  0  0  0
  -22.1840   -9.0650   20.3800 C   0  0  0  0  0  3  0  0  0  0  0  0
  -22.9070  -10.2570   20.2050 C   0  0  0  0  0  3  0  0  0  0  0  0
  -21.8310   -6.9730   21.4270 O   0  0  0  0  0  0  0  0  0  0  0  0
  -21.7420   -6.2520   22.5900 C   0  0  0  0  0  0  0  0  0  0  0  0
  -21.2360   -6.8180   23.7800 C   0  0  0  0  0  3  0  0  0  0  0  0
  -21.0950   -6.0240   24.9350 C   0  0  0  0  0  3  0  0  0  0  0  0
  -21.4520   -4.6620   24.9010 C   0  0  0  0  0  0  0  0  0  0  0  0
  -21.9510   -4.0940   23.7150 C   0  0  0  0  0  3  0  0  0  0  0  0
  -22.0930   -4.8860   22.5630 C   0  0  0  0  0  0  0  0  0  0  0  0
  -22.5540   -4.3300   21.4170 F   0  0  0  0  0  0  0  0  0  0  0  0
  -21.3110   -3.8960   26.0080 F   0  0  0  0  0  0  0  0  0  0  0  0
  -22.8780  -13.6160   21.0710 C   0  0  0  0  0  0  0  0  0  0  0  0
  -22.1370  -12.9140   21.9220 N   0  0  0  0  0  0  0  0  0  0  0  0
  -22.4450  -14.6390   20.5430 O   0  0  0  0  0  0  0  0  0  0  0  0
  -22.4990  -12.0870   22.3710 H   0  0  0  0  0  0  0  0  0  0  0  0
  -21.1930  -13.2090   22.1250 H   0  0  0  0  0  0  0  0  0  0  0  0
  -25.5030  -15.3000   20.2860 N   0  0  0  0  0  0  0  0  0  0  0  0
  -24.7280  -15.9480   20.3750 H   0  0  0  0  0  0  0  0  0  0  0  0
  -26.3460  -15.7390   19.9410 H   0  0  0  0  0  0  0  0  0  0  0  0
  -30.5360  -17.2450   18.2520 C   0  0  0  0  0  2  0  0  0  0  0  0
  -31.4900  -19.3070   16.9390 C   0  0  0  0  0  1  0  0  0  0  0  0
  -33.0800  -17.6700   18.0770 C   0  0  0  0  0  1  0  0  0  0  0  0
  -31.7000  -17.8640   17.4280 C   0  0  0  0  0  3  0  0  0  0  0  0
  2  5  1  0
  3  1  1  0
  4  2  1  0
  4  6  1  0
  5 51  1  0
  5  1  1  0
  6  7  1  1
  6  3  1  0
  8  6  1  0
  9 10  1  0
  9  8  2  0
 11 22  2  0
 12 10  1  0
 12 17  1  0
 13 21  1  0
 13 23  1  0
 14 20  1  0
 14 16  1  0
 15 21  1  0
 16 15  1  0
 17 16  2  0
 18 12  2  0
 19 18  1  0
 19 14  2  0
 20 13  1  0
 21 11  1  0
 23 25  2  0
 24 23  1  0
 26 24  1  0
 27 36  2  0
 27 32  1  0
 28 24  1  0
 28 32  1  0
 29 28  1  0
 30 31  1  0
 30 29  1  0
 31 27  1  0
 32 33  2  0
 33 34  1  0
 35 34  2  0
 36 35  1  0
 37 11  1  0
 37 38  1  0
 37 47  1  0
 38 41  1  0
 39 43  1  0
 39 38  1  0
 40 39  2  0
 43 42  1  0
 45 43  1  0
 45 46  1  0
 45 44  1  0
 47 50  1  1
 47 48  1  0
 49 47  1  0
 51 60  2  0
 52 60  1  0
 53 58  1  0
 54 55  1  0
 54 53  1  0
 56 55  1  0
 56 65  1  0
 56 57  1  0
 58 52  1  0
 58 57  1  0
 59 52  2  0
 60 61  1  0
 62 63  2  0
 63 82  1  0
 64 63  1  0
 64 67  1  0
 65 62  1  0
 65 66  1  0
 66 64  2  0
 67 68  1  0
 68 69  2  0
 70 73  1  0
 70 69  1  0
 71 70  2  0
 72 71  1  0
 72 67  2  0
 73 74  1  0
 74 75  1  0
 75 76  2  0
 77 76  1  0
 77 81  1  0
 78 77  2  0
 79 74  2  0
 79 78  1  0
 80 79  1  0
 82 83  1  0
 83 86  1  0
 83 85  1  0
 84 82  2  0
 87 88  1  0
 87 62  1  0
 89 87  1  0
 90 51  1  0
 91 93  1  0
 93 92  1  0
 93 90  1  0
M  ISO  4   9 101  10 101  52 100  60 100
M  END
>  <TORSDO>  (65) 
F 21

>  <SCORE>  (65) 
-13.260

>  <name>  (65) 
64

>  <ligand_id>  (65) 
64

>  <original_smiles>  (65) 
[H]c1c([H])c([H])c2c(c1[H])C([H])([H])C([H])([H])C([H])([H])C2([H])N([H])C(=O)C1([H])N(C(=O)C([H])(N([H])C(=O)C([H])(N([H])C([H])([H])[H])C([H])([H])[H])C(C([H])([H])[H])(C([H])([H])[H])C([H])([H])[H])C([H])([H])c2c([H])c(OC([H])([H])C([H])([H])[N+]3([H])C([H])([H])C([H])([H])C([H])(C([H])(N([H])C(=O)N4C([H])([H])C([H])([H])C([H])([H])C([H])(n5nc(-c6c([H])c([H])c(Oc7c([H])c([H])c(F)c([H])c7F)c([H])c6[H])c(C(=O)N([H])[H])c5N([H])[H])C4([H])[H])C([H])([H])C([H])(C([H])([H])[H])C([H])([H])[H])C([H])([H])C3([H])[H])c([H])c([H])c2C1([H])[H]

>  <smiles>  (65) 
[H]c1c([H])c([H])c2c(c1[H])C([H])([H])C([H])([H])C([H])([H])C2([H])N([H])C(=O)C1([H])N(C(=O)C([H])(N([H])C(=O)C([H])(N([H])C([H])([H])[H])C([H])([H])[H])C(C([H])([H])[H])(C([H])([H])[H])C([H])([H])[H])C([H])([H])c2c([H])c(OC([H])([H])C([H])([H])[N+]3([H])C([H])([H])C([H])([H])C([H])(C([H])(N([H])C(=O)N4C([H])([H])C([H])([H])C([H])([H])C([H])(n5nc(-c6c([H])c([H])c(Oc7c([H])c([H])c(F)c([H])c7F)c([H])c6[H])c(C(=O)N([H])[H])c5N([H])[H])C4([H])[H])C([H])([H])C([H])(C([H])([H])[H])C([H])([H])[H])C([H])([H])C3([H])[H])c([H])c([H])c2C1([H])[H]

$$$$
65:0:0
     RDKit          3D

 95102  0  0  1  0  0  0  0  0999 V2000
  -28.8000  -21.1120   19.8840 C   0  0  0  0  0  3  0  0  0  0  0  0
  -27.3530  -20.9240   19.6280 N   0  0  0  0  0  4  0  0  0  0  0  0
  -26.8300  -20.8050   20.4770 H   0  0  0  0  0  0  0  0  0  0  0  0
  -27.1630  -20.1650   18.9970 H   0  0  0  0  0  0  0  0  0  0  0  0
  -26.9960  -21.7540   19.1850 H   0  0  0  0  0  0  0  0  0  0  0  0
  -28.9760  -22.4920   20.6910 C   0  0  0  0  0  2  0  0  0  0  0  0
  -28.1000  -23.9340   18.6690 C   0  0  0  0  0  1  0  0  0  0  0  0
  -28.9150  -23.9330   19.9740 C   0  0  0  0  0  3  0  0  0  0  0  0
  -28.4360  -25.1440   20.8940 C   0  0  0  0  0  2  0  0  0  0  0  0
  -28.5870  -26.5360   20.4240 O   0  0  0  0  0  0  0  0  0  0  0  0
  -24.6360  -31.8800   23.2270 C   0  0  0  0  0  0  0  0  0  0  0  0
  -27.4410  -27.3340   20.3690 C   0  0  0  0  0  0  0  0  0  0  0  0
  -23.5130  -30.4220   21.5810 C   0  0  0  0  0  3  0  0  0  0  0  0
  -25.0400  -28.8680   20.2450 C   0  0  0  0  0  0  0  0  0  0  0  0
  -26.0460  -30.7990   21.4650 C   0  0  0  0  0  2  0  0  0  0  0  0
  -26.1780  -29.4080   20.8570 C   0  0  0  0  0  0  0  0  0  0  0  0
  -27.3860  -28.6540   20.9050 C   0  0  0  0  0  3  0  0  0  0  0  0
  -26.2800  -26.8310   19.7450 C   0  0  0  0  0  3  0  0  0  0  0  0
  -25.0920  -27.5830   19.6810 C   0  0  0  0  0  3  0  0  0  0  0  0
  -23.7830  -29.7130   20.2280 C   0  0  0  0  0  2  0  0  0  0  0  0
  -24.7480  -31.0520   22.1490 N   0  0  0  0  0  0  0  0  0  0  0  0
  -23.5310  -32.1480   23.7210 O   0  0  0  0  0  0  0  0  0  0  0  0
  -22.8410  -29.4140   22.5430 C   0  0  0  0  0  0  0  0  0  0  0  0
  -21.5250  -29.2050   22.3750 N   0  0  0  0  0  0  0  0  0  0  0  0
  -23.5050  -28.8200   23.3980 O   0  0  0  0  0  0  0  0  0  0  0  0
  -21.0490  -29.7380   21.6610 H   0  0  0  0  0  0  0  0  0  0  0  0
  -18.1550  -27.9580   22.7880 C   0  0  0  0  0  0  0  0  0  0  0  0
  -20.6980  -28.2670   23.1370 C   0  0  0  0  0  3  0  0  0  0  0  0
  -20.8460  -26.8270   22.5950 C   0  0  0  0  0  2  0  0  0  0  0  0
  -19.7830  -26.4640   21.5520 C   0  0  0  0  0  2  0  0  0  0  0  0
  -18.3780  -26.5980   22.1460 C   0  0  0  0  0  2  0  0  0  0  0  0
  -19.2460  -28.7480   23.2390 C   0  0  0  0  0  0  0  0  0  0  0  0
  -18.9860  -30.0180   23.7950 C   0  0  0  0  0  3  0  0  0  0  0  0
  -17.6670  -30.4990   23.9090 C   0  0  0  0  0  3  0  0  0  0  0  0
  -16.5910  -29.7050   23.4750 C   0  0  0  0  0  3  0  0  0  0  0  0
  -16.8350  -28.4370   22.9200 C   0  0  0  0  0  3  0  0  0  0  0  0
  -25.8880  -32.5510   23.8760 C   0  0  0  0  0  3  0  0  0  0  0  0
  -26.3600  -31.8340   25.1990 C   0  0  1  0  0  0  0  0  0  0  0  0
  -25.2230  -31.6140   26.2240 C   0  0  0  0  0  1  0  0  0  0  0  0
  -26.9840  -30.4550   24.8820 C   0  0  0  0  0  1  0  0  0  0  0  0
  -27.4660  -32.6720   25.8830 C   0  0  0  0  0  1  0  0  0  0  0  0
  -25.5500  -33.9560   24.1430 N   0  0  0  0  0  0  0  0  0  0  0  0
  -25.8850  -34.9830   23.3500 C   0  0  0  0  0  0  0  0  0  0  0  0
  -26.5810  -34.8490   22.3380 O   0  0  0  0  0  0  0  0  0  0  0  0
  -24.9350  -34.1350   24.9230 H   0  0  0  0  0  0  0  0  0  0  0  0
  -24.1340  -36.7280   22.8870 C   0  0  0  0  0  1  0  0  0  0  0  0
  -25.3660  -36.3810   23.7380 C   0  0  0  0  0  3  0  0  0  0  0  0
  -27.4650  -37.3410   24.5790 C   0  0  0  0  0  1  0  0  0  0  0  0
  -26.3840  -37.4460   23.6020 N   0  0  0  0  0  0  0  0  0  0  0  0
  -25.9580  -38.3630   23.7000 H   0  0  0  0  0  0  0  0  0  0  0  0
  -29.5010  -19.8000   20.5280 C   0  0  0  0  0  2  0  0  0  0  0  0
  -29.2180  -18.2840   20.0330 C   0  0  0  0  0  3  0  0  0  0  0  0
  -28.0330  -17.7290   20.7290 N   0  0  0  0  0  4  0  0  0  0  0  0
  -28.2370  -17.5790   21.7030 H   0  0  0  0  0  0  0  0  0  0  0  0
  -27.7620  -16.8460   20.3360 H   0  0  0  0  0  0  0  0  0  0  0  0
  -27.2280  -18.3240   20.6760 H   0  0  0  0  0  0  0  0  0  0  0  0
  -30.4050  -17.2110   20.1460 C   0  0  0  0  0  2  0  0  0  0  0  0
  -30.8140  -14.6530   19.9290 C   0  0  0  0  0  0  0  0  0  0  0  0
  -30.5490  -12.3840   18.9540 C   0  0  0  0  0  2  0  0  0  0  0  0
  -29.5420  -12.4610   17.7850 C   0  0  0  0  0  2  0  0  0  0  0  0
  -28.0970  -12.3080   18.3000 C   0  0  0  0  0  2  0  0  0  0  0  0
  -27.7990  -13.2200   19.5190 C   0  0  0  0  0  3  0  0  0  0  0  0
  -28.9120  -13.1200   20.5850 C   0  0  0  0  0  2  0  0  0  0  0  0
  -30.1850  -13.4370   19.9220 N   0  0  0  0  0  0  0  0  0  0  0  0
  -31.9580  -14.7870   19.4870 O   0  0  0  0  0  0  0  0  0  0  0  0
  -30.0460  -15.7420   20.2540 N   0  0  0  0  0  0  0  0  0  0  0  0
  -29.1190  -15.5010   20.5590 H   0  0  0  0  0  0  0  0  0  0  0  0
  -25.4780  -13.8580   20.4120 C   0  0  0  0  0  0  0  0  0  0  0  0
  -24.4190  -13.1010   20.8350 C   0  0  0  0  0  0  0  0  0  0  0  0
  -24.8420  -11.7400   20.7350 C   0  0  0  0  0  0  0  0  0  0  0  0
  -26.4790  -12.9590   20.0820 N   0  0  0  0  0  0  0  0  0  0  0  0
  -26.1080  -11.6800   20.3400 N   0  0  0  0  0  0  0  0  0  0  0  0
  -24.1000  -10.4900   20.9370 C   0  0  0  0  0  0  0  0  0  0  0  0
  -24.5390   -9.5100   21.8530 C   0  0  0  0  0  3  0  0  0  0  0  0
  -23.7960   -8.3240   22.0430 C   0  0  0  0  0  3  0  0  0  0  0  0
  -22.5990   -8.1120   21.3200 C   0  0  0  0  0  0  0  0  0  0  0  0
  -22.1800   -9.0810   20.3900 C   0  0  0  0  0  3  0  0  0  0  0  0
  -22.9230  -10.2570   20.1970 C   0  0  0  0  0  3  0  0  0  0  0  0
  -21.8280   -6.9790   21.4190 O   0  0  0  0  0  0  0  0  0  0  0  0
  -21.7580   -6.2580   22.5840 C   0  0  0  0  0  0  0  0  0  0  0  0
  -21.2980   -6.8320   23.7880 C   0  0  0  0  0  3  0  0  0  0  0  0
  -21.1750   -6.0380   24.9460 C   0  0  0  0  0  3  0  0  0  0  0  0
  -21.5020   -4.6690   24.8990 C   0  0  0  0  0  0  0  0  0  0  0  0
  -21.9560   -4.0940   23.6980 C   0  0  0  0  0  3  0  0  0  0  0  0
  -22.0800   -4.8870   22.5440 C   0  0  0  0  0  0  0  0  0  0  0  0
  -22.4970   -4.3230   21.3850 F   0  0  0  0  0  0  0  0  0  0  0  0
  -21.3790   -3.9040   26.0080 F   0  0  0  0  0  0  0  0  0  0  0  0
  -23.0540  -13.6030   21.2090 C   0  0  0  0  0  0  0  0  0  0  0  0
  -22.3660  -12.9010   22.1010 N   0  0  0  0  0  0  0  0  0  0  0  0
  -22.6110  -14.6510   20.7410 O   0  0  0  0  0  0  0  0  0  0  0  0
  -22.7400  -12.0530   22.5020 H   0  0  0  0  0  0  0  0  0  0  0  0
  -21.4500  -13.2160   22.3900 H   0  0  0  0  0  0  0  0  0  0  0  0
  -25.6680  -15.2280   20.2470 N   0  0  0  0  0  0  0  0  0  0  0  0
  -24.8240  -15.7920   20.2740 H   0  0  0  0  0  0  0  0  0  0  0  0
  -26.2820  -15.5170   19.4960 H   0  0  0  0  0  0  0  0  0  0  0  0
  1 51  1  0
  1  6  1  0
  2  1  1  0
  2  3  1  0
  4  2  1  0
  5  2  1  0
  8  7  1  0
  8  6  1  0
  8  9  1  0
 10  9  1  0
 11 22  2  0
 12 10  1  0
 12 17  1  0
 13 21  1  0
 13 23  1  0
 14 16  1  0
 15 21  1  0
 16 17  2  0
 16 15  1  0
 18 12  2  0
 19 18  1  0
 19 14  2  0
 20 14  1  0
 20 13  1  0
 21 11  1  0
 23 25  2  0
 24 23  1  0
 26 24  1  0
 27 36  2  0
 27 32  1  0
 28 24  1  0
 28 32  1  0
 29 28  1  0
 30 31  1  0
 30 29  1  0
 31 27  1  0
 32 33  2  0
 33 34  1  0
 35 34  2  0
 36 35  1  0
 37 11  1  0
 37 42  1  0
 37 38  1  0
 38 41  1  1
 38 39  1  0
 40 38  1  0
 42 45  1  0
 43 47  1  0
 43 42  1  0
 44 43  2  0
 47 46  1  0
 49 50  1  0
 49 47  1  0
 49 48  1  0
 52 57  1  0
 52 51  1  0
 52 53  1  0
 53 54  1  0
 55 53  1  0
 56 53  1  0
 57 66  1  0
 58 66  1  0
 59 64  1  0
 60 61  1  0
 60 59  1  0
 62 61  1  0
 62 71  1  0
 62 63  1  0
 64 58  1  0
 64 63  1  0
 65 58  2  0
 66 67  1  0
 68 69  2  0
 69 88  1  0
 70 69  1  0
 70 73  1  0
 71 72  1  0
 71 68  1  0
 72 70  2  0
 73 74  1  0
 74 75  2  0
 76 79  1  0
 76 75  1  0
 77 76  2  0
 78 77  1  0
 78 73  2  0
 79 80  1  0
 80 81  1  0
 81 82  2  0
 83 82  1  0
 83 87  1  0
 84 83  2  0
 85 80  2  0
 85 84  1  0
 86 85  1  0
 88 89  1  0
 89 92  1  0
 89 91  1  0
 90 88  2  0
 93 94  1  0
 93 68  1  0
 95 93  1  0
M  ISO  4   9 101  10 101  58 100  66 100
M  END
>  <TORSDO>  (66) 
F 24

>  <SCORE>  (66) 
-12.620

>  <name>  (66) 
65

>  <ligand_id>  (66) 
65

>  <original_smiles>  (66) 
[H]c1c([H])c([H])c2c(c1[H])C([H])([H])C([H])([H])C([H])([H])C2([H])N([H])C(=O)C1([H])N(C(=O)C([H])(N([H])C(=O)C([H])(N([H])C([H])([H])[H])C([H])([H])[H])C(C([H])([H])[H])(C([H])([H])[H])C([H])([H])[H])C([H])([H])c2c([H])c(OC([H])([H])C([H])(C([H])([H])[H])C([H])([H])C([H])(C([H])([H])C([H])(C([H])([H])N([H])C(=O)N3C([H])([H])C([H])([H])C([H])([H])C([H])(n4nc(-c5c([H])c([H])c(Oc6c([H])c([H])c(F)c([H])c6F)c([H])c5[H])c(C(=O)N([H])[H])c4N([H])[H])C3([H])[H])[N+]([H])([H])[H])[N+]([H])([H])[H])c([H])c([H])c2C1([H])[H]

>  <smiles>  (66) 
[H]c1c([H])c([H])c2c(c1[H])C([H])([H])C([H])([H])C([H])([H])C2([H])N([H])C(=O)C1([H])N(C(=O)C([H])(N([H])C(=O)C([H])(N([H])C([H])([H])[H])C([H])([H])[H])C(C([H])([H])[H])(C([H])([H])[H])C([H])([H])[H])C([H])([H])c2c([H])c(OC([H])([H])C([H])(C([H])([H])[H])C([H])([H])C([H])(C([H])([H])C([H])(C([H])([H])N([H])C(=O)N3C([H])([H])C([H])([H])C([H])([H])C([H])(n4nc(-c5c([H])c([H])c(Oc6c([H])c([H])c(F)c([H])c6F)c([H])c5[H])c(C(=O)N([H])[H])c4N([H])[H])C3([H])[H])[N+]([H])([H])[H])[N+]([H])([H])[H])c([H])c([H])c2C1([H])[H]

$$$$
66:0:0
     RDKit          3D

 92 99  0  0  1  0  0  0  0  0999 V2000
  -29.3070  -19.6460   20.5620 C   0  0  0  0  0  0  0  0  0  0  0  0
  -29.1860  -19.6000   21.7890 O   0  0  0  0  0  0  0  0  0  0  0  0
  -28.8490  -21.1810   19.8790 C   0  0  0  0  0  2  0  0  0  0  0  0
  -28.8210  -22.8550   20.5080 C   0  0  0  0  0  3  0  0  0  0  0  0
  -28.0160  -24.3580   19.9680 C   0  0  0  0  0  3  0  0  0  0  0  0
  -28.1850  -25.9510   20.3050 O   0  0  0  0  0  0  0  0  0  0  0  0
  -24.6340  -31.8820   23.2350 C   0  0  0  0  0  0  0  0  0  0  0  0
  -27.1680  -27.0260   20.2110 C   0  0  0  0  0  0  0  0  0  0  0  0
  -23.4250  -30.4780   21.6120 C   0  0  0  0  0  3  0  0  0  0  0  0
  -24.8620  -28.8780   20.1770 C   0  0  0  0  0  0  0  0  0  0  0  0
  -25.9870  -30.7030   21.4370 C   0  0  0  0  0  2  0  0  0  0  0  0
  -26.0520  -29.2940   20.7860 C   0  0  0  0  0  0  0  0  0  0  0  0
  -27.1990  -28.3870   20.7810 C   0  0  0  0  0  3  0  0  0  0  0  0
  -25.9520  -26.7550   19.5450 C   0  0  0  0  0  3  0  0  0  0  0  0
  -24.8340  -27.6290   19.5350 C   0  0  0  0  0  3  0  0  0  0  0  0
  -23.6400  -29.7920   20.2340 C   0  0  0  0  0  2  0  0  0  0  0  0
  -24.7040  -31.0470   22.1480 N   0  0  0  0  0  0  0  0  0  0  0  0
  -23.5510  -32.1720   23.7660 O   0  0  0  0  0  0  0  0  0  0  0  0
  -22.7450  -29.4840   22.5880 C   0  0  0  0  0  0  0  0  0  0  0  0
  -21.4160  -29.3060   22.4670 N   0  0  0  0  0  0  0  0  0  0  0  0
  -23.4180  -28.8730   23.4220 O   0  0  0  0  0  0  0  0  0  0  0  0
  -20.9260  -29.8480   21.7700 H   0  0  0  0  0  0  0  0  0  0  0  0
  -18.0500  -28.0530   22.9740 C   0  0  0  0  0  0  0  0  0  0  0  0
  -20.6030  -28.3680   23.2490 C   0  0  0  0  0  3  0  0  0  0  0  0
  -20.7330  -26.9280   22.7010 C   0  0  0  0  0  2  0  0  0  0  0  0
  -19.6430  -26.5680   21.6860 C   0  0  0  0  0  2  0  0  0  0  0  0
  -18.2540  -26.6980   22.3190 C   0  0  0  0  0  2  0  0  0  0  0  0
  -19.1510  -28.8440   23.3960 C   0  0  0  0  0  0  0  0  0  0  0  0
  -18.9040  -30.1090   23.9720 C   0  0  0  0  0  3  0  0  0  0  0  0
  -17.5880  -30.5850   24.1270 C   0  0  0  0  0  3  0  0  0  0  0  0
  -16.5010  -29.7930   23.7180 C   0  0  0  0  0  3  0  0  0  0  0  0
  -16.7320  -28.5280   23.1480 C   0  0  0  0  0  3  0  0  0  0  0  0
  -25.9120  -32.5280   23.8510 C   0  0  0  0  0  3  0  0  0  0  0  0
  -25.5970  -33.9290   24.1800 N   0  0  0  0  0  0  0  0  0  0  0  0
  -25.9230  -34.9860   23.4240 C   0  0  0  0  0  0  0  0  0  0  0  0
  -26.5840  -34.8850   22.3870 O   0  0  0  0  0  0  0  0  0  0  0  0
  -25.0100  -34.0810   24.9860 H   0  0  0  0  0  0  0  0  0  0  0  0
  -24.1950  -36.7880   23.0960 C   0  0  0  0  0  1  0  0  0  0  0  0
  -25.4440  -36.3760   23.8910 C   0  0  0  0  0  3  0  0  0  0  0  0
  -27.5860  -37.2620   24.7050 C   0  0  0  0  0  1  0  0  0  0  0  0
  -26.4770  -37.4290   23.7690 N   0  0  0  0  0  0  0  0  0  0  0  0
  -26.0720  -38.3500   23.9180 H   0  0  0  0  0  0  0  0  0  0  0  0
  -26.4280  -31.7710   25.1380 C   0  0  1  0  0  0  0  0  0  0  0  0
  -25.3360  -31.5490   26.2110 C   0  0  0  0  0  1  0  0  0  0  0  0
  -27.0090  -30.3870   24.7690 C   0  0  0  0  0  1  0  0  0  0  0  0
  -27.5820  -32.5710   25.7880 C   0  0  0  0  0  1  0  0  0  0  0  0
  -29.9130  -18.1450   19.7910 C   0  0  0  0  0  3  0  0  0  0  0  0
  -30.4810  -15.2790   20.1130 C   0  0  0  0  0  0  0  0  0  0  0  0
  -30.3720  -12.8600   19.2130 C   0  0  0  0  0  2  0  0  0  0  0  0
  -29.4240  -12.7240   17.9970 C   0  0  0  0  0  2  0  0  0  0  0  0
  -27.9800  -12.4720   18.4640 C   0  0  0  0  0  2  0  0  0  0  0  0
  -27.5760  -13.4130   19.6270 C   0  0  0  0  0  3  0  0  0  0  0  0
  -28.6520  -13.5140   20.7310 C   0  0  0  0  0  2  0  0  0  0  0  0
  -29.8840  -13.9910   20.0840 N   0  0  0  0  0  0  0  0  0  0  0  0
  -31.6790  -15.2540   19.8020 O   0  0  0  0  0  0  0  0  0  0  0  0
  -29.7580  -16.5580   20.2760 N   0  0  0  0  0  0  0  0  0  0  0  0
  -28.8260  -16.3880   20.6260 H   0  0  0  0  0  0  0  0  0  0  0  0
  -25.2220  -13.9770   20.4280 C   0  0  0  0  0  0  0  0  0  0  0  0
  -24.1660  -13.2020   20.8180 C   0  0  0  0  0  0  0  0  0  0  0  0
  -24.6290  -11.8510   20.7740 C   0  0  0  0  0  0  0  0  0  0  0  0
  -26.2570  -13.1000   20.1610 N   0  0  0  0  0  0  0  0  0  0  0  0
  -25.9130  -11.8140   20.4370 N   0  0  0  0  0  0  0  0  0  0  0  0
  -23.9010  -10.5900   20.9750 C   0  0  0  0  0  0  0  0  0  0  0  0
  -24.3390   -9.6230   21.9060 C   0  0  0  0  0  3  0  0  0  0  0  0
  -23.6100   -8.4300   22.0960 C   0  0  0  0  0  3  0  0  0  0  0  0
  -22.4280   -8.1940   21.3540 C   0  0  0  0  0  0  0  0  0  0  0  0
  -22.0100   -9.1480   20.4110 C   0  0  0  0  0  3  0  0  0  0  0  0
  -22.7390  -10.3330   20.2180 C   0  0  0  0  0  3  0  0  0  0  0  0
  -21.6700   -7.0510   21.4530 O   0  0  0  0  0  0  0  0  0  0  0  0
  -21.6220   -6.3170   22.6110 C   0  0  0  0  0  0  0  0  0  0  0  0
  -21.1930   -6.8790   23.8340 C   0  0  0  0  0  3  0  0  0  0  0  0
  -21.0930   -6.0710   24.9840 C   0  0  0  0  0  3  0  0  0  0  0  0
  -21.4130   -4.7030   24.9130 C   0  0  0  0  0  0  0  0  0  0  0  0
  -21.8350   -4.1400   23.6950 C   0  0  0  0  0  3  0  0  0  0  0  0
  -21.9360   -4.9450   22.5470 C   0  0  0  0  0  0  0  0  0  0  0  0
  -22.3240   -4.3930   21.3720 F   0  0  0  0  0  0  0  0  0  0  0  0
  -21.3100   -3.9240   26.0150 F   0  0  0  0  0  0  0  0  0  0  0  0
  -22.7750  -13.6830   21.1140 C   0  0  0  0  0  0  0  0  0  0  0  0
  -22.0590  -12.9860   21.9890 N   0  0  0  0  0  0  0  0  0  0  0  0
  -22.3340  -14.7120   20.6040 O   0  0  0  0  0  0  0  0  0  0  0  0
  -22.4310  -12.1540   22.4230 H   0  0  0  0  0  0  0  0  0  0  0  0
  -21.1270  -13.2900   22.2300 H   0  0  0  0  0  0  0  0  0  0  0  0
  -25.3820  -15.3480   20.2490 N   0  0  0  0  0  0  0  0  0  0  0  0
  -24.6110  -15.9970   20.3660 H   0  0  0  0  0  0  0  0  0  0  0  0
  -26.2090  -15.7830   19.8630 H   0  0  0  0  0  0  0  0  0  0  0  0
  -31.4260  -18.3450   19.4780 C   0  0  0  0  0  2  0  0  0  0  0  0
  -31.8770  -19.6310   18.7360 C   0  0  0  0  0  2  0  0  0  0  0  0
  -32.3910  -20.7740   19.6190 C   0  0  0  0  0  0  0  0  0  0  0  0
  -32.4200  -21.9860   19.0810 N   0  0  0  0  0  0  0  0  0  0  0  0
  -32.7500  -20.5840   20.7780 O   0  0  0  0  0  0  0  0  0  0  0  0
  -32.1340  -22.1330   18.1220 H   0  0  0  0  0  0  0  0  0  0  0  0
  -32.7550  -22.7750   19.6170 H   0  0  0  0  0  0  0  0  0  0  0  0
  1  2  2  0
  3  4  1  0
  3  1  1  0
  5  6  1  0
  5  4  2  0
  7 18  2  0
  8  6  1  0
  8 13  1  0
  9 17  1  0
  9 19  1  0
 10 16  1  0
 10 12  1  0
 11 17  1  0
 12 11  1  0
 13 12  2  0
 14  8  2  0
 15 14  1  0
 15 10  2  0
 16  9  1  0
 17  7  1  0
 19 21  2  0
 20 19  1  0
 22 20  1  0
 23 32  2  0
 23 28  1  0
 24 20  1  0
 24 28  1  0
 25 24  1  0
 26 27  1  0
 26 25  1  0
 27 23  1  0
 28 29  2  0
 29 30  1  0
 31 30  2  0
 32 31  1  0
 33  7  1  0
 33 34  1  0
 33 43  1  0
 34 37  1  0
 35 39  1  0
 35 34  1  0
 36 35  2  0
 39 38  1  0
 41 39  1  0
 41 42  1  0
 41 40  1  0
 43 46  1  1
 43 44  1  0
 45 43  1  0
 47 86  1  0
 47 56  1  0
 47  1  1  0
 48 56  1  0
 49 54  1  0
 50 51  1  0
 50 49  1  0
 52 51  1  0
 52 61  1  0
 52 53  1  0
 54 48  1  0
 54 53  1  0
 55 48  2  0
 56 57  1  0
 58 59  2  0
 59 78  1  0
 60 59  1  0
 60 63  1  0
 61 58  1  0
 61 62  1  0
 62 60  2  0
 63 64  1  0
 64 65  2  0
 66 69  1  0
 66 65  1  0
 67 66  2  0
 68 67  1  0
 68 63  2  0
 69 70  1  0
 70 71  1  0
 71 72  2  0
 73 72  1  0
 73 77  1  0
 74 73  2  0
 75 70  2  0
 75 74  1  0
 76 75  1  0
 78 79  1  0
 79 82  1  0
 79 81  1  0
 80 78  2  0
 83 84  1  0
 83 58  1  0
 85 83  1  0
 87 86  1  0
 87 88  1  0
 88 90  2  0
 89 92  1  0
 89 88  1  0
 91 89  1  0
M  ISO  4   5 101   6 101  48 100  56 100
M  END
>  <TORSDO>  (67) 
F 23

>  <SCORE>  (67) 
-13.706

>  <name>  (67) 
66

>  <ligand_id>  (67) 
66

>  <original_smiles>  (67) 
[H]c1c([H])c([H])c2c(c1[H])C([H])([H])C([H])([H])C([H])([H])C2([H])N([H])C(=O)C1([H])N(C(=O)C([H])(N([H])C(=O)C([H])(N([H])C([H])([H])[H])C([H])([H])[H])C(C([H])([H])[H])(C([H])([H])[H])C([H])([H])[H])C([H])([H])c2c([H])c(OC([H])([H])C([H])([H])C([H])([H])C(=O)C([H])(N([H])C(=O)N3C([H])([H])C([H])([H])C([H])([H])C([H])(n4nc(-c5c([H])c([H])c(Oc6c([H])c([H])c(F)c([H])c6F)c([H])c5[H])c(C(=O)N([H])[H])c4N([H])[H])C3([H])[H])C([H])([H])C([H])([H])C(=O)N([H])[H])c([H])c([H])c2C1([H])[H]

>  <smiles>  (67) 
[H]c1c([H])c([H])c2c(c1[H])C([H])([H])C([H])([H])C([H])([H])C2([H])N([H])C(=O)C1([H])N(C(=O)C([H])(N([H])C(=O)C([H])(N([H])C([H])([H])[H])C([H])([H])[H])C(C([H])([H])[H])(C([H])([H])[H])C([H])([H])[H])C([H])([H])c2c([H])c(OC([H])([H])C([H])([H])C([H])([H])C(=O)C([H])(N([H])C(=O)N3C([H])([H])C([H])([H])C([H])([H])C([H])(n4nc(-c5c([H])c([H])c(Oc6c([H])c([H])c(F)c([H])c6F)c([H])c5[H])c(C(=O)N([H])[H])c4N([H])[H])C3([H])[H])C([H])([H])C([H])([H])C(=O)N([H])[H])c([H])c([H])c2C1([H])[H]

$$$$
67:0:0
     RDKit          3D

 89 92  0  0  1  0  0  0  0  0999 V2000
  -28.7930  -19.6550   20.2790 C   0  0  0  0  0  1  0  0  0  0  0  0
  -27.6450  -19.3810   19.3980 N   0  0  0  0  0  4  0  0  0  0  0  0
  -27.8880  -19.5100   18.4320 H   0  0  0  0  0  0  0  0  0  0  0  0
  -26.8830  -19.9970   19.6160 H   0  0  0  0  0  0  0  0  0  0  0  0
  -27.3230  -18.4390   19.5250 H   0  0  0  0  0  0  0  0  0  0  0  0
  -28.9390  -21.7050   20.2610 C   0  0  0  0  0 15  0  0  0  0  0  0
  -27.9610  -23.5050   20.2910 C   0  0  0  0  0  1  0  0  0  0  0  0
  -28.1110  -25.3460   20.3340 O   0  0  0  0  0  0  0  0  0  0  0  0
  -24.6700  -31.8720   23.2270 C   0  0  0  0  0  0  0  0  0  0  0  0
  -27.1620  -26.6330   20.2880 C   0  0  0  0  0  0  0  0  0  0  0  0
  -23.4840  -30.4670   21.5990 C   0  0  0  0  0  3  0  0  0  0  0  0
  -24.9250  -28.7750   20.2070 C   0  0  0  0  0  0  0  0  0  0  0  0
  -26.0690  -30.5540   21.4970 C   0  0  0  0  0  2  0  0  0  0  0  0
  -26.1250  -29.1000   20.8500 C   0  0  0  0  0  0  0  0  0  0  0  0
  -27.2220  -28.0630   20.8510 C   0  0  0  0  0  3  0  0  0  0  0  0
  -25.9270  -26.5590   19.5850 C   0  0  0  0  0  3  0  0  0  0  0  0
  -24.8750  -27.5330   19.5490 C   0  0  0  0  0  3  0  0  0  0  0  0
  -23.7280  -29.7490   20.2380 C   0  0  0  0  0  2  0  0  0  0  0  0
  -24.7670  -31.0020   22.1590 N   0  0  0  0  0  0  0  0  0  0  0  0
  -23.5760  -32.1850   23.7270 O   0  0  0  0  0  0  0  0  0  0  0  0
  -22.7500  -29.5110   22.5790 C   0  0  0  0  0  0  0  0  0  0  0  0
  -21.4160  -29.3630   22.4490 N   0  0  0  0  0  0  0  0  0  0  0  0
  -23.3970  -28.8950   23.4300 O   0  0  0  0  0  0  0  0  0  0  0  0
  -20.9460  -29.9040   21.7370 H   0  0  0  0  0  0  0  0  0  0  0  0
  -18.0250  -28.1570   22.9630 C   0  0  0  0  0  0  0  0  0  0  0  0
  -20.5830  -28.4360   23.2270 C   0  0  0  0  0  3  0  0  0  0  0  0
  -20.6890  -26.9970   22.6690 C   0  0  0  0  0  2  0  0  0  0  0  0
  -19.5920  -26.6630   21.6540 C   0  0  0  0  0  2  0  0  0  0  0  0
  -18.2070  -26.8070   22.2910 C   0  0  0  0  0  2  0  0  0  0  0  0
  -19.1400  -28.9300   23.3860 C   0  0  0  0  0  0  0  0  0  0  0  0
  -18.9100  -30.1900   23.9790 C   0  0  0  0  0  3  0  0  0  0  0  0
  -17.6010  -30.6800   24.1480 C   0  0  0  0  0  3  0  0  0  0  0  0
  -16.5020  -29.9070   23.7370 C   0  0  0  0  0  3  0  0  0  0  0  0
  -16.7140  -28.6470   23.1510 C   0  0  0  0  0  3  0  0  0  0  0  0
  -25.9290  -32.5290   23.8700 C   0  0  0  0  0  3  0  0  0  0  0  0
  -26.4190  -31.7790   25.1720 C   0  0  1  0  0  0  0  0  0  0  0  0
  -25.3060  -31.5660   26.2250 C   0  0  0  0  0  1  0  0  0  0  0  0
  -27.0040  -30.3900   24.8280 C   0  0  0  0  0  1  0  0  0  0  0  0
  -27.5660  -32.5770   25.8380 C   0  0  0  0  0  1  0  0  0  0  0  0
  -25.6050  -33.9330   24.2030 N   0  0  0  0  0  0  0  0  0  0  0  0
  -25.9220  -34.9990   23.4550 C   0  0  0  0  0  0  0  0  0  0  0  0
  -26.5710  -34.9060   22.4120 O   0  0  0  0  0  0  0  0  0  0  0  0
  -25.0250  -34.0770   25.0160 H   0  0  0  0  0  0  0  0  0  0  0  0
  -24.1770  -36.7980   23.1780 C   0  0  0  0  0  1  0  0  0  0  0  0
  -25.4490  -36.3890   23.9380 C   0  0  0  0  0  3  0  0  0  0  0  0
  -27.6070  -37.2900   24.6990 C   0  0  0  0  0  1  0  0  0  0  0  0
  -26.4740  -37.4480   23.7900 N   0  0  0  0  0  0  0  0  0  0  0  0
  -26.0690  -38.3670   23.9460 H   0  0  0  0  0  0  0  0  0  0  0  0
  -29.9500  -17.9590   20.1930 C   0  0  0  0  0  2  0  0  0  0  0  0
  -30.2440  -15.9760   20.1020 C   0  0  0  0  0  2  0  0  0  0  0  0
  -30.3090  -13.3640   19.3230 C   0  0  0  0  0  2  0  0  0  0  0  0
  -29.4330  -12.8600   18.1360 C   0  0  0  0  0  2  0  0  0  0  0  0
  -28.0470  -12.4400   18.6320 C   0  0  0  0  0  2  0  0  0  0  0  0
  -27.5160  -13.4510   19.6690 C   0  0  0  0  0  3  0  0  0  0  0  0
  -28.5440  -13.9010   20.7430 C   0  0  0  0  0  2  0  0  0  0  0  0
  -29.6730  -14.5900   20.0510 N   0  0  0  0  0  0  0  0  0  0  0  0
  -31.4570  -15.6870   19.9590 O   0  0  0  0  0  1  0  0  0  0  0  0
  -25.1830  -13.9240   20.5190 C   0  0  0  0  0  0  0  0  0  0  0  0
  -24.1410  -13.1260   20.8950 C   0  0  0  0  0  0  0  0  0  0  0  0
  -24.6250  -11.7820   20.8260 C   0  0  0  0  0  0  0  0  0  0  0  0
  -26.2280  -13.0710   20.2300 N   0  0  0  0  0  0  0  0  0  0  0  0
  -25.9120  -11.7730   20.4800 N   0  0  0  0  0  0  0  0  0  0  0  0
  -23.9130  -10.5100   21.0090 C   0  0  0  0  0  0  0  0  0  0  0  0
  -24.3490   -9.5420   21.9400 C   0  0  0  0  0  3  0  0  0  0  0  0
  -23.6300   -8.3400   22.1180 C   0  0  0  0  0  3  0  0  0  0  0  0
  -22.4590   -8.0950   21.3620 C   0  0  0  0  0  0  0  0  0  0  0  0
  -22.0390   -9.0510   20.4220 C   0  0  0  0  0  3  0  0  0  0  0  0
  -22.7600  -10.2440   20.2420 C   0  0  0  0  0  3  0  0  0  0  0  0
  -21.7110   -6.9450   21.4480 O   0  0  0  0  0  0  0  0  0  0  0  0
  -21.6360   -6.2180   22.6100 C   0  0  0  0  0  0  0  0  0  0  0  0
  -21.1430   -6.7790   23.8080 C   0  0  0  0  0  3  0  0  0  0  0  0
  -21.0180   -5.9780   24.9610 C   0  0  0  0  0  3  0  0  0  0  0  0
  -21.3760   -4.6180   24.9150 C   0  0  0  0  0  0  0  0  0  0  0  0
  -21.8600   -4.0560   23.7210 C   0  0  0  0  0  3  0  0  0  0  0  0
  -21.9870   -4.8550   22.5710 C   0  0  0  0  0  0  0  0  0  0  0  0
  -22.4360   -4.3020   21.4170 F   0  0  0  0  0  0  0  0  0  0  0  0
  -21.2480   -3.8460   26.0210 F   0  0  0  0  0  0  0  0  0  0  0  0
  -22.7470  -13.5860   21.1970 C   0  0  0  0  0  0  0  0  0  0  0  0
  -22.0460  -12.8780   22.0740 N   0  0  0  0  0  0  0  0  0  0  0  0
  -22.2900  -14.6110   20.6930 O   0  0  0  0  0  0  0  0  0  0  0  0
  -22.4310  -12.0530   22.5060 H   0  0  0  0  0  0  0  0  0  0  0  0
  -21.1080  -13.1680   22.3160 H   0  0  0  0  0  0  0  0  0  0  0  0
  -25.3250  -15.2990   20.3610 N   0  0  0  0  0  0  0  0  0  0  0  0
  -24.5550  -15.9420   20.5000 H   0  0  0  0  0  0  0  0  0  0  0  0
  -26.1640  -15.7460   20.0160 H   0  0  0  0  0  0  0  0  0  0  0  0
  -31.7170  -19.4140   18.7950 C   0  0  0  0  0  1  0  0  0  0  0  0
  -30.6410  -18.3160   18.8210 C   0  0  0  0  0  2  0  0  0  0  0  0
  -31.1210  -19.5600   22.0380 C   0  0  0  0  0  1  0  0  0  0  0  0
  -30.8990  -18.1620   21.4250 C   0  0  0  0  0  2  0  0  0  0  0  0
  2  5  1  0
  2  4  1  0
  2  1  1  0
  3  2  1  0
  7  8  1  0
  9 20  2  0
 10  8  1  0
 10 15  1  0
 11 19  1  0
 11 21  1  0
 12 18  1  0
 12 14  1  0
 13 19  1  0
 14 15  2  0
 14 13  1  0
 16 10  2  0
 17 16  1  0
 17 12  2  0
 18 11  1  0
 19  9  1  0
 21 23  2  0
 22 21  1  0
 24 22  1  0
 25 34  2  0
 25 30  1  0
 26 22  1  0
 26 30  1  0
 27 26  1  0
 28 29  1  0
 28 27  1  0
 29 25  1  0
 30 31  2  0
 31 32  1  0
 33 32  2  0
 34 33  1  0
 35  9  1  0
 35 40  1  0
 35 36  1  0
 36 39  1  1
 36 37  1  0
 38 36  1  0
 40 43  1  0
 41 45  1  0
 41 40  1  0
 42 41  2  0
 45 44  1  0
 47 45  1  0
 47 48  1  0
 47 46  1  0
 49 89  1  0
 51 56  1  0
 52 53  1  0
 52 51  1  0
 54 53  1  0
 54 61  1  0
 54 55  1  0
 56 50  1  0
 56 55  1  0
 57 50  1  0
 58 59  2  0
 59 78  1  0
 60 59  1  0
 60 63  1  0
 61 62  1  0
 61 58  1  0
 62 60  2  0
 63 64  1  0
 64 65  2  0
 66 69  1  0
 66 65  1  0
 67 66  2  0
 68 67  1  0
 68 63  2  0
 69 70  1  0
 70 71  1  0
 71 72  2  0
 73 72  1  0
 73 77  1  0
 74 73  2  0
 75 70  2  0
 75 74  1  0
 76 75  1  0
 78 79  1  0
 79 82  1  0
 79 81  1  0
 80 78  2  0
 83 84  1  0
 83 58  1  0
 85 83  1  0
 86 87  1  0
 87 49  1  0
 89 88  1  0
M  ISO  4   7 101   8 101  49 100  50 100
M  END
>  <TORSDO>  (68) 
F 22

>  <SCORE>  (68) 
-15.760

>  <name>  (68) 
67

>  <ligand_id>  (68) 
67

>  <original_smiles>  (68) 
[H]c1c([H])c([H])c2c(c1[H])C([H])([H])C([H])([H])C([H])([H])C2([H])N([H])C(=O)C1([H])N(C(=O)C([H])(N([H])C(=O)C([H])(N([H])C([H])([H])[H])C([H])([H])[H])C(C([H])([H])[H])(C([H])([H])[H])C([H])([H])[H])C([H])([H])c2c([H])c(OC([H])([H])C([H])([H])C([H])(C(C(=O)N3C([H])([H])C([H])([H])C([H])([H])C([H])(n4nc(-c5c([H])c([H])c(Oc6c([H])c([H])c(F)c([H])c6F)c([H])c5[H])c(C(=O)N([H])[H])c4N([H])[H])C3([H])[H])(C([H])([H])C([H])([H])[H])C([H])([H])C([H])([H])[H])[N+]([H])([H])[H])c([H])c([H])c2C1([H])[H]

>  <smiles>  (68) 
[H]c1c([H])c([H])c2c(c1[H])C([H])([H])C([H])([H])C([H])([H])C2([H])N([H])C(=O)C1([H])N(C(=O)C([H])(N([H])C(=O)C([H])(N([H])C([H])([H])[H])C([H])([H])[H])C(C([H])([H])[H])(C([H])([H])[H])C([H])([H])[H])C([H])([H])c2c([H])c(OC([H])([H])C([H])([H])C([H])(C(C(=O)N3C([H])([H])C([H])([H])C([H])([H])C([H])(n4nc(-c5c([H])c([H])c(Oc6c([H])c([H])c(F)c([H])c6F)c([H])c5[H])c(C(=O)N([H])[H])c4N([H])[H])C3([H])[H])(C([H])([H])C([H])([H])[H])C([H])([H])C([H])([H])[H])[N+]([H])([H])[H])c([H])c([H])c2C1([H])[H]

$$$$
68:0:0
     RDKit          3D

 94103  0  0  1  0  0  0  0  0999 V2000
  -30.6360  -15.0670   20.3910 C   0  0  0  0  0  0  0  0  0  0  0  0
  -30.4030  -12.7180   19.4640 C   0  0  0  0  0  2  0  0  0  0  0  0
  -29.4950  -12.6310   18.2220 C   0  0  0  0  0  2  0  0  0  0  0  0
  -28.0340  -12.4180   18.6520 C   0  0  0  0  0  2  0  0  0  0  0  0
  -27.6090  -13.3760   19.7950 C   0  0  0  0  0  3  0  0  0  0  0  0
  -28.6570  -13.4730   20.9280 C   0  0  0  0  0  2  0  0  0  0  0  0
  -29.9240  -13.8670   20.2960 N   0  0  0  0  0  0  0  0  0  0  0  0
  -31.8510  -14.9570   20.1890 O   0  0  0  0  0  0  0  0  0  0  0  0
  -28.8920  -20.7900   18.9570 C   0  0  0  0  0  2  0  0  0  0  0  0
  -29.1470  -20.7640   21.3670 C   0  0  0  0  0  2  0  0  0  0  0  0
  -29.3000  -22.3630   18.9860 C   0  0  0  0  0  2  0  0  0  0  0  0
  -28.3930  -22.2070   21.2190 C   0  0  0  0  0  2  0  0  0  0  0  0
  -30.6450  -19.0080   19.9090 C   0  0  0  0  0  2  0  0  0  0  0  0
  -28.3220  -18.4480   20.1190 C   0  0  0  0  0  2  0  0  0  0  0  0
  -30.9810  -17.6260   20.6600 C   0  0  0  0  0  2  0  0  0  0  0  0
  -28.7290  -16.9830   20.7210 C   0  0  0  0  0  2  0  0  0  0  0  0
  -29.2620  -19.7560   20.1260 C   0  0  2  0  0  0  0  0  0  0  0  0
  -28.9640  -23.3350   20.2270 C   0  0  1  0  0  0  0  0  0  0  0  0
  -30.0970  -16.4080   20.4680 N   0  0  0  0  0  0  0  0  0  0  0  0
  -25.2280  -13.9560   20.5250 C   0  0  0  0  0  0  0  0  0  0  0  0
  -24.1620  -13.1820   20.8880 C   0  0  0  0  0  0  0  0  0  0  0  0
  -24.6270  -11.8310   20.8650 C   0  0  0  0  0  0  0  0  0  0  0  0
  -26.2720  -13.0770   20.2950 N   0  0  0  0  0  0  0  0  0  0  0  0
  -25.9210  -11.7940   20.5690 N   0  0  0  0  0  0  0  0  0  0  0  0
  -23.8950  -10.5700   21.0460 C   0  0  0  0  0  0  0  0  0  0  0  0
  -24.3140   -9.6010   21.9830 C   0  0  0  0  0  3  0  0  0  0  0  0
  -23.5800   -8.4060   22.1540 C   0  0  0  0  0  3  0  0  0  0  0  0
  -22.4150   -8.1720   21.3860 C   0  0  0  0  0  0  0  0  0  0  0  0
  -22.0150   -9.1310   20.4380 C   0  0  0  0  0  3  0  0  0  0  0  0
  -22.7490  -10.3170   20.2650 C   0  0  0  0  0  3  0  0  0  0  0  0
  -21.6530   -7.0320   21.4670 O   0  0  0  0  0  0  0  0  0  0  0  0
  -21.5830   -6.2930   22.6210 C   0  0  0  0  0  0  0  0  0  0  0  0
  -21.1120   -6.8470   23.8320 C   0  0  0  0  0  3  0  0  0  0  0  0
  -20.9900   -6.0340   24.9770 C   0  0  0  0  0  3  0  0  0  0  0  0
  -21.3290   -4.6690   24.9120 C   0  0  0  0  0  0  0  0  0  0  0  0
  -21.7940   -4.1170   23.7060 C   0  0  0  0  0  3  0  0  0  0  0  0
  -21.9170   -4.9250   22.5640 C   0  0  0  0  0  0  0  0  0  0  0  0
  -22.3440   -4.3820   21.3980 F   0  0  0  0  0  0  0  0  0  0  0  0
  -21.2070   -3.8860   26.0090 F   0  0  0  0  0  0  0  0  0  0  0  0
  -22.7620  -13.6620   21.1390 C   0  0  0  0  0  0  0  0  0  0  0  0
  -22.0240  -12.9760   22.0050 N   0  0  0  0  0  0  0  0  0  0  0  0
  -22.3310  -14.6820   20.6020 O   0  0  0  0  0  0  0  0  0  0  0  0
  -22.3860  -12.1510   22.4610 H   0  0  0  0  0  0  0  0  0  0  0  0
  -21.0840  -13.2790   22.2140 H   0  0  0  0  0  0  0  0  0  0  0  0
  -25.3880  -15.3240   20.3380 N   0  0  0  0  0  0  0  0  0  0  0  0
  -24.6150  -15.9730   20.4400 H   0  0  0  0  0  0  0  0  0  0  0  0
  -26.2270  -15.7630   19.9850 H   0  0  0  0  0  0  0  0  0  0  0  0
  -30.3020  -23.8890   20.7860 C   0  0  0  0  0  2  0  0  0  0  0  0
  -30.1310  -24.7070   22.0000 N   0  0  0  0  0  4  0  0  0  0  0  0
  -29.5300  -25.4880   21.7940 H   0  0  0  0  0  0  0  0  0  0  0  0
  -31.0190  -25.0630   22.3040 H   0  0  0  0  0  0  0  0  0  0  0  0
  -29.7320  -24.1730   22.7490 H   0  0  0  0  0  0  0  0  0  0  0  0
  -28.0200  -24.7190   19.8950 C   0  0  0  0  0  2  0  0  0  0  0  0
  -28.2800  -26.2280   20.2290 O   0  0  0  0  0  0  0  0  0  0  0  0
  -24.6280  -31.8870   23.2650 C   0  0  0  0  0  0  0  0  0  0  0  0
  -27.2300  -27.2220   20.1650 C   0  0  0  0  0  0  0  0  0  0  0  0
  -23.4410  -30.5150   21.5990 C   0  0  0  0  0  3  0  0  0  0  0  0
  -24.9010  -28.9700   20.1540 C   0  0  0  0  0  0  0  0  0  0  0  0
  -25.9970  -30.7870   21.4550 C   0  0  0  0  0  2  0  0  0  0  0  0
  -26.0770  -29.4050   20.7780 C   0  0  0  0  0  0  0  0  0  0  0  0
  -27.2420  -28.5460   20.7700 C   0  0  0  0  0  3  0  0  0  0  0  0
  -26.0280  -26.8950   19.5000 C   0  0  0  0  0  3  0  0  0  0  0  0
  -24.8900  -27.7290   19.5010 C   0  0  0  0  0  3  0  0  0  0  0  0
  -23.6730  -29.8640   20.2080 C   0  0  0  0  0  2  0  0  0  0  0  0
  -24.7090  -31.0840   22.1620 N   0  0  0  0  0  0  0  0  0  0  0  0
  -23.5380  -32.1600   23.7900 O   0  0  0  0  0  0  0  0  0  0  0  0
  -22.7620  -29.4880   22.5390 C   0  0  0  0  0  0  0  0  0  0  0  0
  -21.4350  -29.3120   22.4000 N   0  0  0  0  0  0  0  0  0  0  0  0
  -23.4300  -28.8560   23.3600 O   0  0  0  0  0  0  0  0  0  0  0  0
  -20.9520  -29.8730   21.7130 H   0  0  0  0  0  0  0  0  0  0  0  0
  -18.0550  -28.0960   22.8700 C   0  0  0  0  0  0  0  0  0  0  0  0
  -20.6140  -28.3610   23.1520 C   0  0  0  0  0  3  0  0  0  0  0  0
  -20.7200  -26.9380   22.5550 C   0  0  0  0  0  2  0  0  0  0  0  0
  -19.6230  -26.6280   21.5310 C   0  0  0  0  0  2  0  0  0  0  0  0
  -18.2380  -26.7590   22.1710 C   0  0  0  0  0  2  0  0  0  0  0  0
  -19.1700  -28.8530   23.3170 C   0  0  0  0  0  0  0  0  0  0  0  0
  -18.9430  -30.1040   23.9320 C   0  0  0  0  0  3  0  0  0  0  0  0
  -17.6360  -30.5970   24.1020 C   0  0  0  0  0  3  0  0  0  0  0  0
  -16.5360  -29.8360   23.6710 C   0  0  0  0  0  3  0  0  0  0  0  0
  -16.7460  -28.5870   23.0610 C   0  0  0  0  0  3  0  0  0  0  0  0
  -25.9000  -32.5190   23.9090 C   0  0  0  0  0  3  0  0  0  0  0  0
  -26.3780  -31.7600   25.2080 C   0  0  1  0  0  0  0  0  0  0  0  0
  -25.2570  -31.5450   26.2520 C   0  0  0  0  0  1  0  0  0  0  0  0
  -26.9590  -30.3720   24.8530 C   0  0  0  0  0  1  0  0  0  0  0  0
  -27.5190  -32.5530   25.8880 C   0  0  0  0  0  1  0  0  0  0  0  0
  -25.5930  -33.9240   24.2210 N   0  0  0  0  0  0  0  0  0  0  0  0
  -25.9220  -34.9690   23.4480 C   0  0  0  0  0  0  0  0  0  0  0  0
  -26.5810  -34.8490   22.4110 O   0  0  0  0  0  0  0  0  0  0  0  0
  -25.0060  -34.0900   25.0250 H   0  0  0  0  0  0  0  0  0  0  0  0
  -24.1850  -36.7580   23.1070 C   0  0  0  0  0  1  0  0  0  0  0  0
  -25.4450  -36.3650   23.8950 C   0  0  0  0  0  3  0  0  0  0  0  0
  -27.5940  -37.2710   24.6660 C   0  0  0  0  0  1  0  0  0  0  0  0
  -26.4750  -37.4160   23.7390 N   0  0  0  0  0  0  0  0  0  0  0  0
  -26.0710  -38.3390   23.8730 H   0  0  0  0  0  0  0  0  0  0  0  0
  1 19  1  0
  2  7  1  0
  3  4  1  0
  3  2  1  0
  5  4  1  0
  5 23  1  0
  5  6  1  0
  7  1  1  0
  7  6  1  0
  8  1  2  0
  9 11  1  0
 11 18  1  0
 12 10  1  0
 17 13  1  6
 13 15  1  0
 14 17  1  0
 14 16  1  0
 17  9  1  0
 17 10  1  0
 18 53  1  6
 18 48  1  0
 18 12  1  0
 19 15  1  0
 19 16  1  0
 20 21  2  0
 21 40  1  0
 22 21  1  0
 22 25  1  0
 23 20  1  0
 23 24  1  0
 24 22  2  0
 25 26  1  0
 26 27  2  0
 28 31  1  0
 28 27  1  0
 29 28  2  0
 30 29  1  0
 30 25  2  0
 31 32  1  0
 32 33  1  0
 33 34  2  0
 35 34  1  0
 35 39  1  0
 36 35  2  0
 37 32  2  0
 37 36  1  0
 38 37  1  0
 40 41  1  0
 41 44  1  0
 41 43  1  0
 42 40  2  0
 45 46  1  0
 45 20  1  0
 47 45  1  0
 48 49  1  0
 49 51  1  0
 49 52  1  0
 50 49  1  0
 53 54  1  0
 55 66  2  0
 56 54  1  0
 56 61  1  0
 57 65  1  0
 57 67  1  0
 58 64  1  0
 58 60  1  0
 59 65  1  0
 60 59  1  0
 61 60  2  0
 62 63  1  0
 62 56  2  0
 63 58  2  0
 64 57  1  0
 65 55  1  0
 67 69  2  0
 68 67  1  0
 70 68  1  0
 71 80  2  0
 71 76  1  0
 72 68  1  0
 72 76  1  0
 73 72  1  0
 74 75  1  0
 74 73  1  0
 75 71  1  0
 76 77  2  0
 77 78  1  0
 79 78  2  0
 80 79  1  0
 81 55  1  0
 81 86  1  0
 81 82  1  0
 82 85  1  1
 82 83  1  0
 84 82  1  0
 86 89  1  0
 87 91  1  0
 87 86  1  0
 88 87  2  0
 91 90  1  0
 93 94  1  0
 93 91  1  0
 93 92  1  0
M  ISO  4   1 100  19 100  53 101  54 101
M  END
>  <TORSDO>  (69) 
F 18

>  <SCORE>  (69) 
-15.970

>  <name>  (69) 
68

>  <ligand_id>  (69) 
68

>  <original_smiles>  (69) 
[H]c1c([H])c([H])c2c(c1[H])C([H])([H])C([H])([H])C([H])([H])C2([H])N([H])C(=O)C1([H])N(C(=O)C([H])(N([H])C(=O)C([H])(N([H])C([H])([H])[H])C([H])([H])[H])C(C([H])([H])[H])(C([H])([H])[H])C([H])([H])[H])C([H])([H])c2c([H])c(OC([H])([H])C3(C([H])([H])[N+]([H])([H])[H])C([H])([H])C([H])([H])C4(C([H])([H])C([H])([H])N(C(=O)N5C([H])([H])C([H])([H])C([H])([H])C([H])(n6nc(-c7c([H])c([H])c(Oc8c([H])c([H])c(F)c([H])c8F)c([H])c7[H])c(C(=O)N([H])[H])c6N([H])[H])C5([H])[H])C([H])([H])C4([H])[H])C([H])([H])C3([H])[H])c([H])c([H])c2C1([H])[H]

>  <smiles>  (69) 
[H]c1c([H])c([H])c2c(c1[H])C([H])([H])C([H])([H])C([H])([H])C2([H])N([H])C(=O)C1([H])N(C(=O)C([H])(N([H])C(=O)C([H])(N([H])C([H])([H])[H])C([H])([H])[H])C(C([H])([H])[H])(C([H])([H])[H])C([H])([H])[H])C([H])([H])c2c([H])c(OC([H])([H])C3(C([H])([H])[N+]([H])([H])[H])C([H])([H])C([H])([H])C4(C([H])([H])C([H])([H])N(C(=O)N5C([H])([H])C([H])([H])C([H])([H])C([H])(n6nc(-c7c([H])c([H])c(Oc8c([H])c([H])c(F)c([H])c8F)c([H])c7[H])c(C(=O)N([H])[H])c6N([H])[H])C5([H])[H])C([H])([H])C4([H])[H])C([H])([H])C3([H])[H])c([H])c([H])c2C1([H])[H]

$$$$
69:0:0
     RDKit          3D

 92 99  0  0  1  0  0  0  0  0999 V2000
  -29.2440  -22.8120   20.3460 C   0  0  0  0  0  3  0  0  0  0  0  0
  -30.6440  -23.2630   20.2080 N   0  0  0  0  0  4  0  0  0  0  0  0
  -30.9080  -23.3380   19.2410 H   0  0  0  0  0  0  0  0  0  0  0  0
  -31.2760  -22.6280   20.6620 H   0  0  0  0  0  0  0  0  0  0  0  0
  -30.7640  -24.1680   20.6330 H   0  0  0  0  0  0  0  0  0  0  0  0
  -29.1990  -21.1070   19.8240 C   0  0  0  0  0  3  0  0  0  0  0  0
  -30.0600  -19.5980   20.2820 C   0  0  0  0  0  3  0  0  0  0  0  0
  -30.1190  -17.9790   19.5120 C   0  0  0  0  0  3  0  0  0  0  0  0
  -31.0750  -15.1720   19.6050 C   0  0  0  0  0  0  0  0  0  0  0  0
  -30.8040  -12.7630   18.6990 C   0  0  0  0  0  2  0  0  0  0  0  0
  -29.7760  -12.7080   17.5400 C   0  0  0  0  0  2  0  0  0  0  0  0
  -28.3510  -12.5230   18.0860 C   0  0  0  0  0  2  0  0  0  0  0  0
  -28.0680  -13.4610   19.2850 C   0  0  0  0  0  3  0  0  0  0  0  0
  -29.2150  -13.4790   20.3240 C   0  0  0  0  0  2  0  0  0  0  0  0
  -30.4430  -13.8980   19.6280 N   0  0  0  0  0  0  0  0  0  0  0  0
  -32.1990  -15.1540   19.0860 O   0  0  0  0  0  0  0  0  0  0  0  0
  -30.4530  -16.4360   20.0370 N   0  0  0  0  0  0  0  0  0  0  0  0
  -29.7320  -16.1840   20.6960 H   0  0  0  0  0  0  0  0  0  0  0  0
  -25.8170  -14.1250   20.2900 C   0  0  0  0  0  0  0  0  0  0  0  0
  -24.7400  -13.4120   20.7260 C   0  0  0  0  0  0  0  0  0  0  0  0
  -25.0910  -12.0400   20.5490 C   0  0  0  0  0  0  0  0  0  0  0  0
  -26.7660  -13.2040   19.8930 N   0  0  0  0  0  0  0  0  0  0  0  0
  -26.3410  -11.9310   20.1080 N   0  0  0  0  0  0  0  0  0  0  0  0
  -24.2770  -10.8310   20.7200 C   0  0  0  0  0  0  0  0  0  0  0  0
  -24.6950   -9.7710   21.5530 C   0  0  0  0  0  3  0  0  0  0  0  0
  -23.8830   -8.6290   21.7170 C   0  0  0  0  0  3  0  0  0  0  0  0
  -22.6390   -8.5420   21.0480 C   0  0  0  0  0  0  0  0  0  0  0  0
  -22.2370   -9.5910   20.2030 C   0  0  0  0  0  3  0  0  0  0  0  0
  -23.0490  -10.7250   20.0370 C   0  0  0  0  0  3  0  0  0  0  0  0
  -21.7960   -7.4600   21.1280 O   0  0  0  0  0  0  0  0  0  0  0  0
  -21.7550   -6.6610   22.2420 C   0  0  0  0  0  0  0  0  0  0  0  0
  -21.4630   -7.1820   23.5220 C   0  0  0  0  0  3  0  0  0  0  0  0
  -21.3640   -6.3150   24.6280 C   0  0  0  0  0  3  0  0  0  0  0  0
  -21.5440   -4.9300   24.4570 C   0  0  0  0  0  0  0  0  0  0  0  0
  -21.8300   -4.4090   23.1820 C   0  0  0  0  0  3  0  0  0  0  0  0
  -21.9320   -5.2730   22.0770 C   0  0  0  0  0  0  0  0  0  0  0  0
  -22.1870   -4.7650   20.8480 F   0  0  0  0  0  0  0  0  0  0  0  0
  -21.4410   -4.0950   25.5170 F   0  0  0  0  0  0  0  0  0  0  0  0
  -23.4250  -13.9800   21.1730 C   0  0  0  0  0  0  0  0  0  0  0  0
  -22.7400  -13.2980   22.0830 N   0  0  0  0  0  0  0  0  0  0  0  0
  -23.0220  -15.0640   20.7550 O   0  0  0  0  0  0  0  0  0  0  0  0
  -23.0800  -12.4180   22.4450 H   0  0  0  0  0  0  0  0  0  0  0  0
  -21.8630  -13.6620   22.4270 H   0  0  0  0  0  0  0  0  0  0  0  0
  -26.0430  -15.4820   20.1650 N   0  0  0  0  0  0  0  0  0  0  0  0
  -25.3330  -16.1610   20.4120 H   0  0  0  0  0  0  0  0  0  0  0  0
  -26.8750  -15.8990   19.7720 H   0  0  0  0  0  0  0  0  0  0  0  0
  -28.4280  -18.6840   17.6340 C   0  0  0  0  0  1  0  0  0  0  0  0
  -28.7390  -17.7620   18.8240 C   0  0  0  0  0  3  0  0  0  0  0  0
  -27.1650  -18.6940   20.7800 C   0  0  0  0  0  1  0  0  0  0  0  0
  -27.5260  -17.5870   19.7820 C   0  0  0  0  0  2  0  0  0  0  0  0
  -28.2250  -24.2020   19.8820 C   0  0  0  0  0  2  0  0  0  0  0  0
  -28.3520  -25.8140   20.0940 O   0  0  0  0  0  0  0  0  0  0  0  0
  -24.5370  -31.6090   22.9350 C   0  0  0  0  0  0  0  0  0  0  0  0
  -27.2820  -26.8320   19.9890 C   0  0  0  0  0  0  0  0  0  0  0  0
  -23.3960  -30.1560   21.3080 C   0  0  0  0  0  3  0  0  0  0  0  0
  -24.9040  -28.5900   19.9090 C   0  0  0  0  0  0  0  0  0  0  0  0
  -25.9490  -30.4680   21.1620 C   0  0  0  0  0  2  0  0  0  0  0  0
  -26.0710  -29.0580   20.5250 C   0  0  0  0  0  0  0  0  0  0  0  0
  -27.2530  -28.1990   20.5400 C   0  0  0  0  0  3  0  0  0  0  0  0
  -26.0800  -26.5000   19.3210 C   0  0  0  0  0  3  0  0  0  0  0  0
  -24.9300  -27.3310   19.2860 C   0  0  0  0  0  3  0  0  0  0  0  0
  -23.6510  -29.4630   19.9410 C   0  0  0  0  0  2  0  0  0  0  0  0
  -24.6470  -30.7720   21.8560 N   0  0  0  0  0  0  0  0  0  0  0  0
  -23.4380  -31.8680   23.4520 O   0  0  0  0  0  0  0  0  0  0  0  0
  -22.7320  -29.1490   22.2830 C   0  0  0  0  0  0  0  0  0  0  0  0
  -21.4040  -28.9610   22.1740 N   0  0  0  0  0  0  0  0  0  0  0  0
  -23.4190  -28.5350   23.1030 O   0  0  0  0  0  0  0  0  0  0  0  0
  -20.9000  -29.5090   21.4910 H   0  0  0  0  0  0  0  0  0  0  0  0
  -18.0480  -27.7050   22.7350 C   0  0  0  0  0  0  0  0  0  0  0  0
  -20.6080  -28.0080   22.9560 C   0  0  0  0  0  3  0  0  0  0  0  0
  -20.7210  -26.5790   22.3720 C   0  0  0  0  0  2  0  0  0  0  0  0
  -19.6040  -26.2420   21.3790 C   0  0  0  0  0  2  0  0  0  0  0  0
  -18.2340  -26.3610   22.0510 C   0  0  0  0  0  2  0  0  0  0  0  0
  -19.1620  -28.4840   23.1470 C   0  0  0  0  0  0  0  0  0  0  0  0
  -18.9320  -29.7380   23.7520 C   0  0  0  0  0  3  0  0  0  0  0  0
  -17.6210  -30.2150   23.9460 C   0  0  0  0  0  3  0  0  0  0  0  0
  -16.5220  -29.4330   23.5480 C   0  0  0  0  0  3  0  0  0  0  0  0
  -16.7370  -28.1790   22.9480 C   0  0  0  0  0  3  0  0  0  0  0  0
  -25.7870  -32.2990   23.5650 C   0  0  0  0  0  3  0  0  0  0  0  0
  -26.3630  -31.5190   24.8110 C   0  0  1  0  0  0  0  0  0  0  0  0
  -25.3000  -31.1850   25.8850 C   0  0  0  0  0  1  0  0  0  0  0  0
  -27.0200  -30.1890   24.3760 C   0  0  0  0  0  1  0  0  0  0  0  0
  -27.4730  -32.3580   25.4870 C   0  0  0  0  0  1  0  0  0  0  0  0
  -25.4020  -33.6660   23.9560 N   0  0  0  0  0  0  0  0  0  0  0  0
  -25.7250  -34.7760   23.2800 C   0  0  0  0  0  0  0  0  0  0  0  0
  -26.4410  -34.7610   22.2760 O   0  0  0  0  0  0  0  0  0  0  0  0
  -24.7680  -33.7480   24.7360 H   0  0  0  0  0  0  0  0  0  0  0  0
  -23.9480  -36.5330   22.9620 C   0  0  0  0  0  1  0  0  0  0  0  0
  -25.1680  -36.1180   23.8000 C   0  0  0  0  0  3  0  0  0  0  0  0
  -27.2300  -37.0270   24.7790 C   0  0  0  0  0  1  0  0  0  0  0  0
  -26.1640  -37.2120   23.7980 N   0  0  0  0  0  0  0  0  0  0  0  0
  -25.7160  -38.1060   23.9800 H   0  0  0  0  0  0  0  0  0  0  0  0
  1  6  1  0
  2  1  1  0
  2  5  1  0
  2  4  1  0
  3  2  1  0
  6  7  2  0
  8 17  1  0
  8  7  1  0
  9 15  1  0
  9 17  1  0
 10 15  1  0
 11 12  1  0
 11 10  1  0
 13 12  1  0
 13 22  1  0
 13 14  1  0
 15 14  1  0
 16  9  2  0
 17 18  1  0
 19 20  2  0
 20 39  1  0
 21 24  1  0
 21 20  1  0
 22 23  1  0
 22 19  1  0
 23 21  2  0
 24 25  1  0
 25 26  2  0
 27 30  1  0
 27 26  1  0
 28 27  2  0
 29 28  1  0
 29 24  2  0
 30 31  1  0
 31 32  1  0
 32 33  2  0
 34 33  1  0
 34 38  1  0
 35 34  2  0
 36 31  2  0
 36 35  1  0
 37 36  1  0
 39 40  1  0
 40 43  1  0
 40 42  1  0
 41 39  2  0
 44 19  1  0
 44 45  1  0
 46 44  1  0
 48 47  1  0
 48  8  1  0
 48 50  1  0
 50 49  1  0
 51 52  1  0
 51  1  1  0
 53 64  2  0
 54 52  1  0
 54 59  1  0
 55 63  1  0
 55 65  1  0
 56 62  1  0
 56 58  1  0
 57 63  1  0
 58 59  2  0
 58 57  1  0
 60 54  2  0
 61 60  1  0
 61 56  2  0
 62 55  1  0
 63 53  1  0
 65 67  2  0
 66 65  1  0
 68 66  1  0
 69 78  2  0
 69 74  1  0
 70 66  1  0
 70 74  1  0
 71 70  1  0
 72 73  1  0
 72 71  1  0
 73 69  1  0
 74 75  2  0
 75 76  1  0
 77 76  2  0
 78 77  1  0
 79 53  1  0
 79 84  1  0
 79 80  1  0
 80 83  1  1
 80 81  1  0
 82 80  1  0
 84 87  1  0
 85 89  1  0
 85 84  1  0
 86 85  2  0
 89 88  1  0
 91 89  1  0
 91 92  1  0
 91 90  1  0
M  ISO  4   9 100  17 100  51 101  52 101
M  END
>  <TORSDO>  (70) 
F 23

>  <SCORE>  (70) 
-12.963

>  <name>  (70) 
69

>  <ligand_id>  (70) 
69

>  <original_smiles>  (70) 
[H]c1c([H])c([H])c2c(c1[H])C([H])([H])C([H])([H])C([H])([H])C2([H])N([H])C(=O)C1([H])N(C(=O)C([H])(N([H])C(=O)C([H])(N([H])C([H])([H])[H])C([H])([H])[H])C(C([H])([H])[H])(C([H])([H])[H])C([H])([H])[H])C([H])([H])c2c([H])c(OC([H])([H])C([H])(C([H])([H])C([H])([H])C([H])(N([H])C(=O)N3C([H])([H])C([H])([H])C([H])([H])C([H])(n4nc(-c5c([H])c([H])c(Oc6c([H])c([H])c(F)c([H])c6F)c([H])c5[H])c(C(=O)N([H])[H])c4N([H])[H])C3([H])[H])C([H])(C([H])([H])[H])C([H])([H])C([H])([H])[H])[N+]([H])([H])[H])c([H])c([H])c2C1([H])[H]

>  <smiles>  (70) 
[H]c1c([H])c([H])c2c(c1[H])C([H])([H])C([H])([H])C([H])([H])C2([H])N([H])C(=O)C1([H])N(C(=O)C([H])(N([H])C(=O)C([H])(N([H])C([H])([H])[H])C([H])([H])[H])C(C([H])([H])[H])(C([H])([H])[H])C([H])([H])[H])C([H])([H])c2c([H])c(OC([H])([H])C([H])(C([H])([H])C([H])([H])C([H])(N([H])C(=O)N3C([H])([H])C([H])([H])C([H])([H])C([H])(n4nc(-c5c([H])c([H])c(Oc6c([H])c([H])c(F)c([H])c6F)c([H])c5[H])c(C(=O)N([H])[H])c4N([H])[H])C3([H])[H])C([H])(C([H])([H])[H])C([H])([H])C([H])([H])[H])[N+]([H])([H])[H])c([H])c([H])c2C1([H])[H]

$$$$
70:0:0
     RDKit          3D

102109  0  0  1  0  0  0  0  0999 V2000
  -29.9930  -21.2950   19.3300 C   0  0  0  0  0  2  0  0  0  0  0  0
  -28.4640  -21.1970   19.0760 C   0  0  0  0  0  3  0  0  0  0  0  0
  -28.1940  -20.5020   17.8030 N   0  0  0  0  0  4  0  0  0  0  0  0
  -28.6340  -20.9720   17.0300 H   0  0  0  0  0  0  0  0  0  0  0  0
  -27.2040  -20.4600   17.6280 H   0  0  0  0  0  0  0  0  0  0  0  0
  -28.5360  -19.5570   17.8320 H   0  0  0  0  0  0  0  0  0  0  0  0
  -27.7780  -22.6010   19.0950 C   0  0  0  0  0  2  0  0  0  0  0  0
  -27.6570  -22.8150   21.5110 C   0  0  0  0  0  1  0  0  0  0  0  0
  -28.1170  -23.4320   20.2640 N   0  0  0  0  0  0  0  0  0  0  0  0
  -27.5750  -24.7970   20.1940 C   0  0  0  0  0  2  0  0  0  0  0  0
  -28.1780  -25.6650   19.0590 C   0  0  0  0  0  2  0  0  0  0  0  0
  -28.1760  -27.0640   19.3730 O   0  0  0  0  0  0  0  0  0  0  0  0
  -24.5640  -31.8640   23.1580 C   0  0  0  0  0  0  0  0  0  0  0  0
  -26.9810  -27.7440   19.4990 C   0  0  0  0  0  0  0  0  0  0  0  0
  -23.2410  -30.6090   21.4890 C   0  0  0  0  0  3  0  0  0  0  0  0
  -24.5860  -29.2180   19.8270 C   0  0  0  0  0  0  0  0  0  0  0  0
  -25.7440  -31.0020   21.1400 C   0  0  0  0  0  2  0  0  0  0  0  0
  -25.7810  -29.6950   20.3780 C   0  0  0  0  0  0  0  0  0  0  0  0
  -26.9790  -28.9650   20.2100 C   0  0  0  0  0  3  0  0  0  0  0  0
  -25.7640  -27.2820   18.9440 C   0  0  0  0  0  3  0  0  0  0  0  0
  -24.5720  -28.0120   19.1080 C   0  0  0  0  0  3  0  0  0  0  0  0
  -23.3470  -30.0590   20.0410 C   0  0  0  0  0  2  0  0  0  0  0  0
  -24.5390  -31.1680   21.9880 N   0  0  0  0  0  0  0  0  0  0  0  0
  -23.5260  -32.0830   23.7970 O   0  0  0  0  0  0  0  0  0  0  0  0
  -22.6620  -29.5000   22.3970 C   0  0  0  0  0  0  0  0  0  0  0  0
  -21.3420  -29.2760   22.2980 N   0  0  0  0  0  0  0  0  0  0  0  0
  -23.3960  -28.8450   23.1410 O   0  0  0  0  0  0  0  0  0  0  0  0
  -20.8080  -29.8630   21.6720 H   0  0  0  0  0  0  0  0  0  0  0  0
  -18.0390  -27.8940   22.7730 C   0  0  0  0  0  0  0  0  0  0  0  0
  -20.5850  -28.2600   23.0270 C   0  0  0  0  0  3  0  0  0  0  0  0
  -20.7460  -26.8690   22.3710 C   0  0  0  0  0  2  0  0  0  0  0  0
  -19.6450  -26.5510   21.3540 C   0  0  0  0  0  2  0  0  0  0  0  0
  -18.2690  -26.5930   22.0220 C   0  0  0  0  0  2  0  0  0  0  0  0
  -19.1270  -28.6840   23.2300 C   0  0  0  0  0  0  0  0  0  0  0  0
  -18.8560  -29.9040   23.8870 C   0  0  0  0  0  3  0  0  0  0  0  0
  -17.5320  -30.3330   24.0960 C   0  0  0  0  0  3  0  0  0  0  0  0
  -16.4590  -29.5380   23.6570 C   0  0  0  0  0  3  0  0  0  0  0  0
  -16.7140  -28.3220   23.0010 C   0  0  0  0  0  3  0  0  0  0  0  0
  -25.8920  -32.4420   23.7400 C   0  0  0  0  0  3  0  0  0  0  0  0
  -26.4710  -31.5900   24.9350 C   0  0  1  0  0  0  0  0  0  0  0  0
  -25.4410  -31.3000   26.0530 C   0  0  0  0  0  1  0  0  0  0  0  0
  -27.0070  -30.2310   24.4280 C   0  0  0  0  0  1  0  0  0  0  0  0
  -27.6730  -32.3290   25.5720 C   0  0  0  0  0  1  0  0  0  0  0  0
  -25.6250  -33.8230   24.1650 N   0  0  0  0  0  0  0  0  0  0  0  0
  -25.9610  -34.9140   23.4630 C   0  0  0  0  0  0  0  0  0  0  0  0
  -26.6040  -34.8600   22.4100 O   0  0  0  0  0  0  0  0  0  0  0  0
  -25.0550  -33.9400   24.9900 H   0  0  0  0  0  0  0  0  0  0  0  0
  -24.2660  -36.7620   23.2550 C   0  0  0  0  0  1  0  0  0  0  0  0
  -25.5130  -36.2810   24.0140 C   0  0  0  0  0  3  0  0  0  0  0  0
  -27.6840  -37.0640   24.8540 C   0  0  0  0  0  1  0  0  0  0  0  0
  -26.5660  -37.3170   23.9480 N   0  0  0  0  0  0  0  0  0  0  0  0
  -26.1830  -38.2320   24.1640 H   0  0  0  0  0  0  0  0  0  0  0  0
  -30.7720  -19.9820   19.6230 C   0  0  0  0  0  3  0  0  0  0  0  0
  -30.1140  -19.1830   20.7940 C   0  0  0  0  0  2  0  0  0  0  0  0
  -31.0010  -18.6700   21.9520 C   0  0  0  0  0  3  0  0  0  0  0  0
  -30.1460  -18.4370   23.2220 C   0  0  0  0  0  2  0  0  0  0  0  0
  -29.6930  -18.9080   25.6710 C   0  0  0  0  0  1  0  0  0  0  0  0
  -30.6960  -20.7200   24.2180 C   0  0  0  0  0  1  0  0  0  0  0  0
  -30.6110  -19.2060   24.4760 C   0  0  0  0  0  3  0  0  0  0  0  0
  -31.8850  -17.4590   21.5750 C   0  0  0  0  0  2  0  0  0  0  0  0
  -31.7930  -15.1010   20.9680 C   0  0  0  0  0  0  0  0  0  0  0  0
  -31.5760  -12.7660   20.2520 C   0  0  0  0  0  2  0  0  0  0  0  0
  -30.8500  -12.6990   18.8950 C   0  0  0  0  0  2  0  0  0  0  0  0
  -29.3250  -12.6440   19.1020 C   0  0  0  0  0  2  0  0  0  0  0  0
  -28.8110  -13.7380   20.0770 C   0  0  0  0  0  3  0  0  0  0  0  0
  -29.6680  -13.7910   21.3610 C   0  0  0  0  0  2  0  0  0  0  0  0
  -31.0780  -13.9490   20.9670 N   0  0  0  0  0  0  0  0  0  0  0  0
  -32.9450  -15.1790   20.5350 O   0  0  0  0  0  0  0  0  0  0  0  0
  -31.1790  -16.1870   21.4410 N   0  0  0  0  0  0  0  0  0  0  0  0
  -30.2360  -16.1090   21.7820 H   0  0  0  0  0  0  0  0  0  0  0  0
  -26.3780  -14.4900   20.4600 C   0  0  0  0  0  0  0  0  0  0  0  0
  -25.2280  -13.7840   20.6970 C   0  0  0  0  0  0  0  0  0  0  0  0
  -25.6120  -12.4090   20.7400 C   0  0  0  0  0  0  0  0  0  0  0  0
  -27.3930  -13.5480   20.3800 N   0  0  0  0  0  0  0  0  0  0  0  0
  -26.9270  -12.2930   20.6030 N   0  0  0  0  0  0  0  0  0  0  0  0
  -24.7970  -11.1920   20.8480 C   0  0  0  0  0  0  0  0  0  0  0  0
  -25.0640  -10.2070   21.8250 C   0  0  0  0  0  3  0  0  0  0  0  0
  -24.2540   -9.0540   21.9210 C   0  0  0  0  0  3  0  0  0  0  0  0
  -23.1630   -8.8790   21.0380 C   0  0  0  0  0  0  0  0  0  0  0  0
  -22.9150   -9.8500   20.0530 C   0  0  0  0  0  3  0  0  0  0  0  0
  -23.7240  -10.9940   19.9550 C   0  0  0  0  0  3  0  0  0  0  0  0
  -22.3370   -7.7790   21.0410 O   0  0  0  0  0  0  0  0  0  0  0  0
  -22.0810   -7.0750   22.1900 C   0  0  0  0  0  0  0  0  0  0  0  0
  -21.5250   -7.6900   23.3330 C   0  0  0  0  0  3  0  0  0  0  0  0
  -21.2130   -6.9150   24.4690 C   0  0  0  0  0  3  0  0  0  0  0  0
  -21.4460   -5.5270   24.4590 C   0  0  0  0  0  0  0  0  0  0  0  0
  -21.9950   -4.9120   23.3210 C   0  0  0  0  0  3  0  0  0  0  0  0
  -22.3080   -5.6840   22.1880 C   0  0  0  0  0  0  0  0  0  0  0  0
  -22.8160   -5.0830   21.0850 F   0  0  0  0  0  0  0  0  0  0  0  0
  -21.1400   -4.7810   25.5470 F   0  0  0  0  0  0  0  0  0  0  0  0
  -23.8370  -14.3420   20.7790 C   0  0  0  0  0  0  0  0  0  0  0  0
  -22.9690  -13.7110   21.5650 N   0  0  0  0  0  0  0  0  0  0  0  0
  -23.5240  -15.3730   20.1850 O   0  0  0  0  0  0  0  0  0  0  0  0
  -23.2310  -12.8770   22.0690 H   0  0  0  0  0  0  0  0  0  0  0  0
  -22.0290  -14.0680   21.6610 H   0  0  0  0  0  0  0  0  0  0  0  0
  -26.6450  -15.8440   20.2880 N   0  0  0  0  0  0  0  0  0  0  0  0
  -25.9150  -16.5480   20.2890 H   0  0  0  0  0  0  0  0  0  0  0  0
  -27.5600  -16.2240   20.0830 H   0  0  0  0  0  0  0  0  0  0  0  0
  -32.2740  -20.3410   19.8500 C   0  0  0  0  0  2  0  0  0  0  0  0
  -33.1170  -19.7580   17.4900 C   0  0  0  0  0  1  0  0  0  0  0  0
  -34.4730  -21.2470   19.0030 C   0  0  0  0  0  1  0  0  0  0  0  0
  -33.0530  -20.8200   18.6020 C   0  0  0  0  0  3  0  0  0  0  0  0
  2  7  1  0
  2  1  1  0
  3  6  1  0
  3  2  1  0
  4  3  1  0
  5  3  1  0
  7  9  1  0
  9  8  1  0
 10  9  1  0
 11 12  1  0
 11 10  1  0
 12 14  1  0
 13 24  2  0
 14 19  1  0
 15 23  1  0
 15 25  1  0
 16 22  1  0
 16 18  1  0
 17 23  1  0
 18 17  1  0
 19 18  2  0
 20 21  1  0
 20 14  2  0
 21 16  2  0
 22 15  1  0
 23 13  1  0
 25 27  2  0
 26 25  1  0
 28 26  1  0
 29 38  2  0
 29 34  1  0
 30 26  1  0
 30 34  1  0
 31 30  1  0
 32 33  1  0
 32 31  1  0
 33 29  1  0
 34 35  2  0
 35 36  1  0
 37 36  2  0
 38 37  1  0
 39 13  1  0
 39 44  1  0
 39 40  1  0
 40 43  1  1
 40 41  1  0
 42 40  1  0
 44 47  1  0
 45 49  1  0
 45 44  1  0
 46 45  2  0
 49 48  1  0
 51 49  1  0
 51 52  1  0
 51 50  1  0
 53  1  1  0
 53 99  1  0
 53 54  1  0
 55 54  1  0
 55 56  1  0
 56 59  1  0
 58 59  1  0
 59 57  1  0
 60 55  1  0
 61 69  1  0
 62 67  1  0
 63 64  1  0
 63 62  1  0
 65 64  1  0
 65 74  1  0
 65 66  1  0
 67 61  1  0
 67 66  1  0
 68 61  2  0
 69 60  1  0
 69 70  1  0
 71 72  2  0
 72 73  1  0
 72 91  1  0
 73 76  1  0
 74 71  1  0
 74 75  1  0
 75 73  2  0
 76 77  1  0
 77 78  2  0
 79 82  1  0
 79 78  1  0
 80 79  2  0
 81 80  1  0
 81 76  2  0
 82 83  1  0
 83 84  1  0
 84 85  2  0
 86 85  1  0
 86 90  1  0
 87 86  2  0
 88 83  2  0
 88 87  1  0
 89 88  1  0
 91 92  1  0
 92 95  1  0
 92 94  1  0
 93 91  2  0
 96 97  1  0
 96 71  1  0
 98 96  1  0
100102  1  0
102101  1  0
102 99  1  0
M  ISO  4  11 101  12 101  61 100  69 100
M  END
>  <TORSDO>  (71) 
F 30

>  <SCORE>  (71) 
-6.816

>  <name>  (71) 
70

>  <ligand_id>  (71) 
70

>  <original_smiles>  (71) 
[H]c1c([H])c([H])c2c(c1[H])C([H])([H])C([H])([H])C([H])([H])C2([H])N([H])C(=O)C1([H])N(C(=O)C([H])(N([H])C(=O)C([H])(N([H])C([H])([H])[H])C([H])([H])[H])C(C([H])([H])[H])(C([H])([H])[H])C([H])([H])[H])C([H])([H])c2c([H])c(OC([H])([H])C([H])([H])N(C([H])([H])[H])C([H])([H])C([H])(C([H])([H])C([H])(C([H])([H])C([H])(C([H])([H])[H])C([H])([H])[H])C([H])([H])C([H])(C([H])([H])N([H])C(=O)N3C([H])([H])C([H])([H])C([H])([H])C([H])(n4nc(-c5c([H])c([H])c(Oc6c([H])c([H])c(F)c([H])c6F)c([H])c5[H])c(C(=O)N([H])[H])c4N([H])[H])C3([H])[H])C([H])([H])C([H])(C([H])([H])[H])C([H])([H])[H])[N+]([H])([H])[H])c([H])c([H])c2C1([H])[H]

>  <smiles>  (71) 
[H]c1c([H])c([H])c2c(c1[H])C([H])([H])C([H])([H])C([H])([H])C2([H])N([H])C(=O)C1([H])N(C(=O)C([H])(N([H])C(=O)C([H])(N([H])C([H])([H])[H])C([H])([H])[H])C(C([H])([H])[H])(C([H])([H])[H])C([H])([H])[H])C([H])([H])c2c([H])c(OC([H])([H])C([H])([H])N(C([H])([H])[H])C([H])([H])C([H])(C([H])([H])C([H])(C([H])([H])C([H])(C([H])([H])[H])C([H])([H])[H])C([H])([H])C([H])(C([H])([H])N([H])C(=O)N3C([H])([H])C([H])([H])C([H])([H])C([H])(n4nc(-c5c([H])c([H])c(Oc6c([H])c([H])c(F)c([H])c6F)c([H])c5[H])c(C(=O)N([H])[H])c4N([H])[H])C3([H])[H])C([H])([H])C([H])(C([H])([H])[H])C([H])([H])[H])[N+]([H])([H])[H])c([H])c([H])c2C1([H])[H]

$$$$
71:0:0
     RDKit          3D

 90 98  0  0  1  0  0  0  0  0999 V2000
  -27.8220  -18.6820   18.6540 C   0  0  0  0  0  0  0  0  0  0  0  0
  -28.2190  -20.1450   18.9180 C   0  0  0  0  0  2  0  0  0  0  0  0
  -28.8790  -17.5900   18.8910 C   0  0  0  0  0  2  0  0  0  0  0  0
  -29.7880  -19.1400   20.7580 C   0  0  0  0  0  2  0  0  0  0  0  0
  -28.8110  -20.4450   20.3220 C   0  0  0  0  0  3  0  0  0  0  0  0
  -29.3070  -17.5860   20.3690 C   0  0  0  0  0  3  0  0  0  0  0  0
  -26.6910  -18.3920   18.2570 O   0  0  0  0  0  0  0  0  0  0  0  0
  -30.5800  -15.0600   20.5460 C   0  0  0  0  0  0  0  0  0  0  0  0
  -30.5630  -12.6990   19.6250 C   0  0  0  0  0  2  0  0  0  0  0  0
  -29.6930  -12.7070   18.3460 C   0  0  0  0  0  2  0  0  0  0  0  0
  -28.2070  -12.4920   18.6950 C   0  0  0  0  0  2  0  0  0  0  0  0
  -27.7510  -13.3660   19.8940 C   0  0  0  0  0  3  0  0  0  0  0  0
  -28.7550  -13.3360   21.0660 C   0  0  0  0  0  2  0  0  0  0  0  0
  -30.0560  -13.7680   20.5340 N   0  0  0  0  0  0  0  0  0  0  0  0
  -31.7300  -15.2150   20.1220 O   0  0  0  0  0  0  0  0  0  0  0  0
  -29.7500  -16.1540   20.9020 N   0  0  0  0  0  0  0  0  0  0  0  0
  -29.0120  -15.7850   21.4880 H   0  0  0  0  0  0  0  0  0  0  0  0
  -25.3260  -13.9110   20.5100 C   0  0  0  0  0  0  0  0  0  0  0  0
  -24.2610  -13.1240   20.8510 C   0  0  0  0  0  0  0  0  0  0  0  0
  -24.7470  -11.7790   20.8540 C   0  0  0  0  0  0  0  0  0  0  0  0
  -26.3940  -13.0480   20.3260 N   0  0  0  0  0  0  0  0  0  0  0  0
  -26.0500  -11.7600   20.5900 N   0  0  0  0  0  0  0  0  0  0  0  0
  -24.0320  -10.5080   21.0370 C   0  0  0  0  0  0  0  0  0  0  0  0
  -24.4370   -9.5640   22.0040 C   0  0  0  0  0  3  0  0  0  0  0  0
  -23.7230   -8.3580   22.1750 C   0  0  0  0  0  3  0  0  0  0  0  0
  -22.5860   -8.0900   21.3750 C   0  0  0  0  0  0  0  0  0  0  0  0
  -22.2010   -9.0230   20.3940 C   0  0  0  0  0  3  0  0  0  0  0  0
  -22.9180  -10.2190   20.2240 C   0  0  0  0  0  3  0  0  0  0  0  0
  -21.8460   -6.9360   21.4470 O   0  0  0  0  0  0  0  0  0  0  0  0
  -21.7440   -6.2200   22.6130 C   0  0  0  0  0  0  0  0  0  0  0  0
  -21.2260   -6.7920   23.7960 C   0  0  0  0  0  3  0  0  0  0  0  0
  -21.0740   -6.0020   24.9520 C   0  0  0  0  0  3  0  0  0  0  0  0
  -21.4310   -4.6400   24.9270 C   0  0  0  0  0  0  0  0  0  0  0  0
  -21.9430   -4.0680   23.7470 C   0  0  0  0  0  3  0  0  0  0  0  0
  -22.0940   -4.8560   22.5940 C   0  0  0  0  0  0  0  0  0  0  0  0
  -22.5700   -4.2950   21.4560 F   0  0  0  0  0  0  0  0  0  0  0  0
  -21.2780   -3.8790   26.0340 F   0  0  0  0  0  0  0  0  0  0  0  0
  -22.8480  -13.5830   21.0690 C   0  0  0  0  0  0  0  0  0  0  0  0
  -22.1030  -12.8820   21.9150 N   0  0  0  0  0  0  0  0  0  0  0  0
  -22.4130  -14.5930   20.5210 O   0  0  0  0  0  0  0  0  0  0  0  0
  -22.4710  -12.0610   22.3730 H   0  0  0  0  0  0  0  0  0  0  0  0
  -21.1520  -13.1640   22.1010 H   0  0  0  0  0  0  0  0  0  0  0  0
  -25.4760  -15.2810   20.3170 N   0  0  0  0  0  0  0  0  0  0  0  0
  -24.6880  -15.9180   20.3420 H   0  0  0  0  0  0  0  0  0  0  0  0
  -26.3130  -15.7070   19.9420 H   0  0  0  0  0  0  0  0  0  0  0  0
  -29.2670  -22.0690   20.3040 C   0  0  0  0  0  2  0  0  0  0  0  0
  -27.9810  -23.6200   21.9590 C   0  0  0  0  0  1  0  0  0  0  0  0
  -28.2600  -23.4170   20.4660 C   0  0  0  0  0  3  0  0  0  0  0  0
  -28.5160  -24.9180   19.7460 C   0  0  0  0  0  2  0  0  0  0  0  0
  -28.3610  -26.3590   20.2950 O   0  0  0  0  0  0  0  0  0  0  0  0
  -24.6280  -31.9150   23.2190 C   0  0  0  0  0  0  0  0  0  0  0  0
  -27.2610  -27.2720   20.1610 C   0  0  0  0  0  0  0  0  0  0  0  0
  -23.4350  -30.5110   21.5740 C   0  0  0  0  0  3  0  0  0  0  0  0
  -24.9010  -28.9620   20.1280 C   0  0  0  0  0  0  0  0  0  0  0  0
  -25.9760  -30.8230   21.3920 C   0  0  0  0  0  2  0  0  0  0  0  0
  -26.0670  -29.4320   20.7450 C   0  0  0  0  0  0  0  0  0  0  0  0
  -27.2410  -28.5980   20.7520 C   0  0  0  0  0  3  0  0  0  0  0  0
  -26.0790  -26.9000   19.4920 C   0  0  0  0  0  3  0  0  0  0  0  0
  -24.9200  -27.7150   19.4790 C   0  0  0  0  0  3  0  0  0  0  0  0
  -23.6560  -29.8360   20.1900 C   0  0  0  0  0  2  0  0  0  0  0  0
  -24.7000  -31.1040   22.1190 N   0  0  0  0  0  0  0  0  0  0  0  0
  -23.5440  -32.1830   23.7560 O   0  0  0  0  0  0  0  0  0  0  0  0
  -22.7750  -29.4950   22.5390 C   0  0  0  0  0  0  0  0  0  0  0  0
  -21.4480  -29.3140   22.4220 N   0  0  0  0  0  0  0  0  0  0  0  0
  -23.4590  -28.8700   23.3530 O   0  0  0  0  0  0  0  0  0  0  0  0
  -20.9520  -29.8710   21.7400 H   0  0  0  0  0  0  0  0  0  0  0  0
  -18.0830  -28.0840   22.9390 C   0  0  0  0  0  0  0  0  0  0  0  0
  -20.6400  -28.3670   23.1960 C   0  0  0  0  0  3  0  0  0  0  0  0
  -20.7520  -26.9390   22.6120 C   0  0  0  0  0  2  0  0  0  0  0  0
  -19.6470  -26.6120   21.6030 C   0  0  0  0  0  2  0  0  0  0  0  0
  -18.2680  -26.7400   22.2540 C   0  0  0  0  0  2  0  0  0  0  0  0
  -19.1970  -28.8530   23.3680 C   0  0  0  0  0  0  0  0  0  0  0  0
  -18.9700  -30.1100   23.9720 C   0  0  0  0  0  3  0  0  0  0  0  0
  -17.6610  -30.5970   24.1500 C   0  0  0  0  0  3  0  0  0  0  0  0
  -16.5610  -29.8260   23.7360 C   0  0  0  0  0  3  0  0  0  0  0  0
  -16.7740  -28.5710   23.1380 C   0  0  0  0  0  3  0  0  0  0  0  0
  -25.9030  -32.5640   23.8420 C   0  0  0  0  0  3  0  0  0  0  0  0
  -26.4190  -31.8010   25.1250 C   0  0  1  0  0  0  0  0  0  0  0  0
  -25.3240  -31.5630   26.1920 C   0  0  0  0  0  1  0  0  0  0  0  0
  -27.0060  -30.4220   24.7440 C   0  0  0  0  0  1  0  0  0  0  0  0
  -27.5660  -32.6000   25.7860 C   0  0  0  0  0  1  0  0  0  0  0  0
  -25.5860  -33.9640   24.1680 N   0  0  0  0  0  0  0  0  0  0  0  0
  -25.9160  -35.0170   23.4080 C   0  0  0  0  0  0  0  0  0  0  0  0
  -26.5880  -34.9120   22.3790 O   0  0  0  0  0  0  0  0  0  0  0  0
  -24.9900  -34.1150   24.9680 H   0  0  0  0  0  0  0  0  0  0  0  0
  -24.1920  -36.8120   23.0400 C   0  0  0  0  0  1  0  0  0  0  0  0
  -25.4260  -36.4050   23.8610 C   0  0  0  0  0  3  0  0  0  0  0  0
  -27.5520  -37.2960   24.7090 C   0  0  0  0  0  1  0  0  0  0  0  0
  -26.4600  -37.4590   23.7550 N   0  0  0  0  0  0  0  0  0  0  0  0
  -26.0510  -38.3800   23.8940 H   0  0  0  0  0  0  0  0  0  0  0  0
  1  3  1  0
  1  2  1  0
  2  5  1  0
  3  6  1  0
  5 46  1  0
  5  4  1  0
  6  4  1  0
  6 16  1  0
  7  1  2  0
  8 16  1  0
  9 14  1  0
 10 11  1  0
 10  9  1  0
 12 11  1  0
 12 21  1  0
 12 13  1  0
 14  8  1  0
 14 13  1  0
 15  8  2  0
 16 17  1  0
 18 19  2  0
 19 20  1  0
 19 38  1  0
 20 23  1  0
 21 18  1  0
 21 22  1  0
 22 20  2  0
 23 24  1  0
 24 25  2  0
 26 29  1  0
 26 25  1  0
 27 26  2  0
 28 27  1  0
 28 23  2  0
 29 30  1  0
 30 31  1  0
 31 32  2  0
 33 32  1  0
 33 37  1  0
 34 33  2  0
 35 30  2  0
 35 34  1  0
 36 35  1  0
 38 39  1  0
 39 42  1  0
 39 41  1  0
 40 38  2  0
 43 44  1  0
 43 18  1  0
 45 43  1  0
 46 48  1  0
 48 47  1  0
 49 50  1  0
 49 48  1  0
 51 62  2  0
 52 50  1  0
 52 57  1  0
 53 61  1  0
 53 63  1  0
 54 60  1  0
 54 56  1  0
 55 61  1  0
 56 57  2  0
 56 55  1  0
 58 52  2  0
 59 58  1  0
 59 54  2  0
 60 53  1  0
 61 51  1  0
 63 65  2  0
 64 63  1  0
 66 64  1  0
 67 76  2  0
 67 72  1  0
 68 64  1  0
 68 72  1  0
 69 68  1  0
 70 71  1  0
 70 69  1  0
 71 67  1  0
 72 73  2  0
 73 74  1  0
 75 74  2  0
 76 75  1  0
 77 51  1  0
 77 82  1  0
 77 78  1  0
 78 81  1  1
 78 79  1  0
 80 78  1  0
 82 85  1  0
 83 87  1  0
 83 82  1  0
 84 83  2  0
 87 86  1  0
 89 87  1  0
 89 90  1  0
 89 88  1  0
M  ISO  4   8 100  16 100  49 101  50 101
M  END
>  <TORSDO>  (72) 
F 19

>  <SCORE>  (72) 
-13.796

>  <name>  (72) 
71

>  <ligand_id>  (72) 
71

>  <original_smiles>  (72) 
[H]c1c([H])c([H])c2c(c1[H])C([H])([H])C([H])([H])C([H])([H])C2([H])N([H])C(=O)C1([H])N(C(=O)C([H])(N([H])C(=O)C([H])(N([H])C([H])([H])[H])C([H])([H])[H])C(C([H])([H])[H])(C([H])([H])[H])C([H])([H])[H])C([H])([H])c2c([H])c(OC([H])([H])C([H])(C([H])([H])[H])C([H])([H])C3([H])C([H])([H])C(=O)C([H])([H])C([H])(N([H])C(=O)N4C([H])([H])C([H])([H])C([H])([H])C([H])(n5nc(-c6c([H])c([H])c(Oc7c([H])c([H])c(F)c([H])c7F)c([H])c6[H])c(C(=O)N([H])[H])c5N([H])[H])C4([H])[H])C3([H])[H])c([H])c([H])c2C1([H])[H]

>  <smiles>  (72) 
[H]c1c([H])c([H])c2c(c1[H])C([H])([H])C([H])([H])C([H])([H])C2([H])N([H])C(=O)C1([H])N(C(=O)C([H])(N([H])C(=O)C([H])(N([H])C([H])([H])[H])C([H])([H])[H])C(C([H])([H])[H])(C([H])([H])[H])C([H])([H])[H])C([H])([H])c2c([H])c(OC([H])([H])C([H])(C([H])([H])[H])C([H])([H])C3([H])C([H])([H])C(=O)C([H])([H])C([H])(N([H])C(=O)N4C([H])([H])C([H])([H])C([H])([H])C([H])(n5nc(-c6c([H])c([H])c(Oc7c([H])c([H])c(F)c([H])c7F)c([H])c6[H])c(C(=O)N([H])[H])c5N([H])[H])C4([H])[H])C3([H])[H])c([H])c([H])c2C1([H])[H]

$$$$
72:0:0
     RDKit          3D

 98105  0  0  1  0  0  0  0  0999 V2000
  -30.1640  -20.0720   19.8300 C   0  0  0  0  0  3  0  0  0  0  0  0
  -28.6780  -19.9820   19.8760 N   0  0  0  0  0  4  0  0  0  0  0  0
  -28.3310  -20.9240   19.9240 H   0  0  0  0  0  0  0  0  0  0  0  0
  -28.4200  -19.5320   20.7380 H   0  0  0  0  0  0  0  0  0  0  0  0
  -27.9630  -19.2740   18.7770 C   0  0  0  0  0  2  0  0  0  0  0  0
  -26.6370  -19.2850   16.6740 C   0  0  0  0  0  1  0  0  0  0  0  0
  -26.0630  -20.9720   18.4450 C   0  0  0  0  0  1  0  0  0  0  0  0
  -28.2220  -21.1660   17.1240 C   0  0  0  0  0  1  0  0  0  0  0  0
  -27.2180  -20.1930   17.7790 C   0  0  1  0  0  0  0  0  0  0  0  0
  -30.8470  -18.6420   19.4230 C   0  0  0  0  0  3  0  0  0  0  0  0
  -32.0300  -18.8710   18.6090 N   0  0  0  0  0  0  0  0  0  0  0  0
  -31.8310  -19.5850   17.9130 H   0  0  0  0  0  0  0  0  0  0  0  0
  -32.7760  -19.2630   19.1730 H   0  0  0  0  0  0  0  0  0  0  0  0
  -31.3220  -17.6440   20.6000 C   0  0  0  0  0  2  0  0  0  0  0  0
  -31.5830  -15.0460   20.5580 C   0  0  0  0  0  0  0  0  0  0  0  0
  -31.3920  -12.6920   19.7590 C   0  0  0  0  0  2  0  0  0  0  0  0
  -30.5580  -12.6590   18.4570 C   0  0  0  0  0  2  0  0  0  0  0  0
  -29.0570  -12.5500   18.7870 C   0  0  0  0  0  2  0  0  0  0  0  0
  -28.6040  -13.5640   19.8740 C   0  0  0  0  0  3  0  0  0  0  0  0
  -29.5710  -13.5770   21.0810 C   0  0  0  0  0  2  0  0  0  0  0  0
  -30.9170  -13.8420   20.5610 N   0  0  0  0  0  0  0  0  0  0  0  0
  -32.7930  -15.0890   20.3340 O   0  0  0  0  0  0  0  0  0  0  0  0
  -30.8430  -16.2040   20.6120 N   0  0  0  0  0  0  0  0  0  0  0  0
  -29.8540  -16.0820   20.7710 H   0  0  0  0  0  0  0  0  0  0  0  0
  -26.1990  -14.2620   20.4430 C   0  0  0  0  0  0  0  0  0  0  0  0
  -25.0790  -13.5360   20.7520 C   0  0  0  0  0  0  0  0  0  0  0  0
  -25.4890  -12.1670   20.7560 C   0  0  0  0  0  0  0  0  0  0  0  0
  -27.2200  -13.3360   20.2780 N   0  0  0  0  0  0  0  0  0  0  0  0
  -26.7930  -12.0710   20.5280 N   0  0  0  0  0  0  0  0  0  0  0  0
  -24.7030  -10.9360   20.9110 C   0  0  0  0  0  0  0  0  0  0  0  0
  -25.0020   -9.9870   21.9150 C   0  0  0  0  0  3  0  0  0  0  0  0
  -24.2200   -8.8190   22.0520 C   0  0  0  0  0  3  0  0  0  0  0  0
  -23.1250   -8.5910   21.1840 C   0  0  0  0  0  0  0  0  0  0  0  0
  -22.8470   -9.5260   20.1710 C   0  0  0  0  0  3  0  0  0  0  0  0
  -23.6290  -10.6870   20.0330 C   0  0  0  0  0  3  0  0  0  0  0  0
  -22.3240   -7.4750   21.2290 O   0  0  0  0  0  0  0  0  0  0  0  0
  -22.0360   -6.8420   22.4110 C   0  0  0  0  0  0  0  0  0  0  0  0
  -21.4210   -7.5170   23.4880 C   0  0  0  0  0  3  0  0  0  0  0  0
  -21.0810   -6.8100   24.6600 C   0  0  0  0  0  3  0  0  0  0  0  0
  -21.3480   -5.4310   24.7530 C   0  0  0  0  0  0  0  0  0  0  0  0
  -21.9530   -4.7560   23.6760 C   0  0  0  0  0  3  0  0  0  0  0  0
  -22.2950   -5.4600   22.5100 C   0  0  0  0  0  0  0  0  0  0  0  0
  -22.8600   -4.7990   21.4690 F   0  0  0  0  0  0  0  0  0  0  0  0
  -21.0150   -4.7520   25.8740 F   0  0  0  0  0  0  0  0  0  0  0  0
  -23.6870  -14.0700   20.9320 C   0  0  0  0  0  0  0  0  0  0  0  0
  -22.8930  -13.4320   21.7850 N   0  0  0  0  0  0  0  0  0  0  0  0
  -23.3120  -15.0830   20.3450 O   0  0  0  0  0  0  0  0  0  0  0  0
  -23.2060  -12.6090   22.2760 H   0  0  0  0  0  0  0  0  0  0  0  0
  -21.9530  -13.7670   21.9520 H   0  0  0  0  0  0  0  0  0  0  0  0
  -26.4370  -15.6200   20.2630 N   0  0  0  0  0  0  0  0  0  0  0  0
  -25.6940  -16.3110   20.2980 H   0  0  0  0  0  0  0  0  0  0  0  0
  -27.3080  -15.9970   19.9160 H   0  0  0  0  0  0  0  0  0  0  0  0
  -30.5110  -21.4330   19.0300 C   0  0  0  0  0  2  0  0  0  0  0  0
  -30.6210  -22.8280   19.8430 C   0  0  0  0  0  2  0  0  0  0  0  0
  -28.2640  -23.7450   19.8450 C   0  0  0  0  0  2  0  0  0  0  0  0
  -29.5660  -23.9950   19.6510 C   0  0  0  0  0  0  0  0  0  0  0  0
  -30.0050  -25.4570   19.2610 C   0  0  0  0  0  2  0  0  0  0  0  0
  -29.6410  -26.5910   20.1490 O   0  0  0  0  0  0  0  0  0  0  0  0
  -25.2230  -31.2630   23.4060 C   0  0  0  0  0  0  0  0  0  0  0  0
  -28.4490  -27.3300   20.0580 C   0  0  0  0  0  0  0  0  0  0  0  0
  -24.2870  -30.0470   21.4690 C   0  0  0  0  0  3  0  0  0  0  0  0
  -25.9780  -28.7850   20.0120 C   0  0  0  0  0  0  0  0  0  0  0  0
  -26.8020  -30.5200   21.6090 C   0  0  0  0  0  2  0  0  0  0  0  0
  -27.0390  -29.2510   20.7970 C   0  0  0  0  0  0  0  0  0  0  0  0
  -28.2690  -28.5300   20.8170 C   0  0  0  0  0  3  0  0  0  0  0  0
  -27.3590  -26.9120   19.2600 C   0  0  0  0  0  3  0  0  0  0  0  0
  -26.1390  -27.6210   19.2400 C   0  0  0  0  0  3  0  0  0  0  0  0
  -24.6870  -29.5800   20.0410 C   0  0  0  0  0  2  0  0  0  0  0  0
  -25.4490  -30.6220   22.2220 N   0  0  0  0  0  0  0  0  0  0  0  0
  -24.0740  -31.4060   23.8510 O   0  0  0  0  0  0  0  0  0  0  0  0
  -23.5980  -28.8750   22.2060 C   0  0  0  0  0  0  0  0  0  0  0  0
  -22.2970  -28.6750   21.9390 N   0  0  0  0  0  0  0  0  0  0  0  0
  -24.2370  -28.1540   22.9790 O   0  0  0  0  0  0  0  0  0  0  0  0
  -21.8390  -29.3140   21.3050 H   0  0  0  0  0  0  0  0  0  0  0  0
  -18.9410  -27.3280   21.9850 C   0  0  0  0  0  0  0  0  0  0  0  0
  -21.4620  -27.6020   22.4850 C   0  0  0  0  0  3  0  0  0  0  0  0
  -21.6590  -26.2890   21.6920 C   0  0  0  0  0  2  0  0  0  0  0  0
  -20.6430  -26.1100   20.5610 C   0  0  0  0  0  2  0  0  0  0  0  0
  -19.2150  -26.1120   21.1150 C   0  0  0  0  0  2  0  0  0  0  0  0
  -19.9980  -28.0360   22.6160 C   0  0  0  0  0  0  0  0  0  0  0  0
  -19.6910  -29.1810   23.3840 C   0  0  0  0  0  3  0  0  0  0  0  0
  -18.3610  -29.6140   23.5310 C   0  0  0  0  0  3  0  0  0  0  0  0
  -17.3170  -28.8990   22.9190 C   0  0  0  0  0  3  0  0  0  0  0  0
  -17.6080  -27.7560   22.1520 C   0  0  0  0  0  3  0  0  0  0  0  0
  -26.3920  -31.8660   24.2460 C   0  0  0  0  0  3  0  0  0  0  0  0
  -26.7500  -31.0070   25.5200 C   0  0  1  0  0  0  0  0  0  0  0  0
  -25.5340  -30.6890   26.4200 C   0  0  0  0  0  1  0  0  0  0  0  0
  -27.3960  -29.6640   25.1100 C   0  0  0  0  0  1  0  0  0  0  0  0
  -27.7920  -31.7570   26.3840 C   0  0  0  0  0  1  0  0  0  0  0  0
  -26.0020  -33.2300   24.6350 N   0  0  0  0  0  0  0  0  0  0  0  0
  -26.3980  -34.3450   24.0060 C   0  0  0  0  0  0  0  0  0  0  0  0
  -27.1970  -34.3350   23.0660 O   0  0  0  0  0  0  0  0  0  0  0  0
  -25.3050  -33.3110   25.3610 H   0  0  0  0  0  0  0  0  0  0  0  0
  -24.6630  -36.1170   23.5830 C   0  0  0  0  0  1  0  0  0  0  0  0
  -25.8180  -35.6850   24.5000 C   0  0  0  0  0  3  0  0  0  0  0  0
  -27.8100  -36.5680   25.6340 C   0  0  0  0  0  1  0  0  0  0  0  0
  -26.8220  -36.7690   24.5770 N   0  0  0  0  0  0  0  0  0  0  0  0
  -26.3710  -37.6670   24.7300 H   0  0  0  0  0  0  0  0  0  0  0  0
  1 53  1  0
  1  2  1  0
  2  3  1  0
  2  4  1  0
  5  2  1  0
  9  6  1  6
  8  9  1  0
  9  7  1  0
  9  5  1  0
 10  1  1  0
 10 14  1  0
 11 13  1  0
 11 10  1  0
 12 11  1  0
 14 23  1  0
 15 21  1  0
 15 23  1  0
 16 21  1  0
 17 18  1  0
 17 16  1  0
 19 18  1  0
 19 28  1  0
 19 20  1  0
 21 20  1  0
 22 15  2  0
 23 24  1  0
 25 26  2  0
 26 27  1  0
 26 45  1  0
 27 30  1  0
 28 25  1  0
 28 29  1  0
 29 27  2  0
 30 31  1  0
 31 32  2  0
 33 36  1  0
 33 32  1  0
 34 33  2  0
 35 34  1  0
 35 30  2  0
 36 37  1  0
 37 42  2  0
 37 38  1  0
 38 39  2  0
 39 40  1  0
 40 44  1  0
 41 40  2  0
 42 41  1  0
 43 42  1  0
 45 46  1  0
 46 49  1  0
 46 48  1  0
 47 45  2  0
 50 51  1  0
 50 25  1  0
 52 50  1  0
 53 54  1  0
 56 54  1  0
 56 55  2  0
 57 56  1  0
 57 58  1  0
 59 70  2  0
 60 58  1  0
 60 65  1  0
 61 71  1  0
 61 69  1  0
 62 68  1  0
 62 64  1  0
 63 69  1  0
 64 65  2  0
 64 63  1  0
 66 60  2  0
 67 66  1  0
 67 62  2  0
 68 61  1  0
 69 59  1  0
 71 73  2  0
 72 71  1  0
 74 72  1  0
 75 84  2  0
 75 80  1  0
 76 72  1  0
 76 80  1  0
 77 76  1  0
 78 79  1  0
 78 77  1  0
 79 75  1  0
 80 81  2  0
 81 82  1  0
 83 82  2  0
 84 83  1  0
 85 59  1  0
 85 90  1  0
 85 86  1  0
 86 89  1  1
 86 87  1  0
 88 86  1  0
 90 93  1  0
 91 95  1  0
 91 90  1  0
 92 91  2  0
 95 94  1  0
 95 97  1  0
 97 98  1  0
 97 96  1  0
M  ISO  4  15 100  23 100  57 101  58 101
M  END
>  <TORSDO>  (73) 
F 26

>  <SCORE>  (73) 
-9.000

>  <name>  (73) 
72

>  <ligand_id>  (73) 
72

>  <original_smiles>  (73) 
[H]C([H])=C(C([H])([H])Oc1c([H])c([H])c2c(c1[H])C([H])([H])N(C(=O)C([H])(N([H])C(=O)C([H])(N([H])C([H])([H])[H])C([H])([H])[H])C(C([H])([H])[H])(C([H])([H])[H])C([H])([H])[H])C([H])(C(=O)N([H])C1([H])c3c([H])c([H])c([H])c([H])c3C([H])([H])C([H])([H])C1([H])[H])C2([H])[H])C([H])([H])C([H])([H])C([H])(C([H])(N([H])[H])C([H])([H])N([H])C(=O)N1C([H])([H])C([H])([H])C([H])([H])C([H])(n2nc(-c3c([H])c([H])c(Oc4c([H])c([H])c(F)c([H])c4F)c([H])c3[H])c(C(=O)N([H])[H])c2N([H])[H])C1([H])[H])[N+]([H])([H])C([H])([H])C(C([H])([H])[H])(C([H])([H])[H])C([H])([H])[H]

>  <smiles>  (73) 
[H]C([H])=C(C([H])([H])Oc1c([H])c([H])c2c(c1[H])C([H])([H])N(C(=O)C([H])(N([H])C(=O)C([H])(N([H])C([H])([H])[H])C([H])([H])[H])C(C([H])([H])[H])(C([H])([H])[H])C([H])([H])[H])C([H])(C(=O)N([H])C1([H])c3c([H])c([H])c([H])c([H])c3C([H])([H])C([H])([H])C1([H])[H])C2([H])[H])C([H])([H])C([H])([H])C([H])(C([H])(N([H])[H])C([H])([H])N([H])C(=O)N1C([H])([H])C([H])([H])C([H])([H])C([H])(n2nc(-c3c([H])c([H])c(Oc4c([H])c([H])c(F)c([H])c4F)c([H])c3[H])c(C(=O)N([H])[H])c2N([H])[H])C1([H])[H])[N+]([H])([H])C([H])([H])C(C([H])([H])[H])(C([H])([H])[H])C([H])([H])[H]

$$$$
73:0:0
     RDKit          3D

 96103  0  0  1  0  0  0  0  0999 V2000
  -29.5670  -19.5690   20.6220 C   0  0  0  0  0  3  0  0  0  0  0  0
  -30.8940  -19.7180   20.0140 N   0  0  0  0  0  4  0  0  0  0  0  0
  -30.8270  -19.6610   19.0140 H   0  0  0  0  0  0  0  0  0  0  0  0
  -31.5030  -18.9870   20.3370 H   0  0  0  0  0  0  0  0  0  0  0  0
  -31.2950  -20.6040   20.2630 H   0  0  0  0  0  0  0  0  0  0  0  0
  -28.6350  -21.0720   20.3020 C   0  0  0  0  0  2  0  0  0  0  0  0
  -28.9510  -22.8220   20.4880 C   0  0  0  0  0  3  0  0  0  0  0  0
  -27.9720  -24.2760   20.1520 C   0  0  0  0  0  3  0  0  0  0  0  0
  -28.2240  -25.8840   20.2940 O   0  0  0  0  0  0  0  0  0  0  0  0
  -24.6590  -31.8260   23.1740 C   0  0  0  0  0  0  0  0  0  0  0  0
  -27.2120  -26.9610   20.1960 C   0  0  0  0  0  0  0  0  0  0  0  0
  -23.4700  -30.4380   21.5210 C   0  0  0  0  0  3  0  0  0  0  0  0
  -24.9230  -28.8310   20.1100 C   0  0  0  0  0  0  0  0  0  0  0  0
  -26.0350  -30.6420   21.3990 C   0  0  0  0  0  2  0  0  0  0  0  0
  -26.1020  -29.2350   20.7480 C   0  0  0  0  0  0  0  0  0  0  0  0
  -27.2400  -28.3190   20.7710 C   0  0  0  0  0  3  0  0  0  0  0  0
  -26.0050  -26.6960   19.5080 C   0  0  0  0  0  3  0  0  0  0  0  0
  -24.8980  -27.5810   19.4710 C   0  0  0  0  0  3  0  0  0  0  0  0
  -23.7090  -29.7560   20.1460 C   0  0  0  0  0  2  0  0  0  0  0  0
  -24.7420  -30.9950   22.0860 N   0  0  0  0  0  0  0  0  0  0  0  0
  -23.5680  -32.1230   23.6850 O   0  0  0  0  0  0  0  0  0  0  0  0
  -22.7640  -29.4450   22.4790 C   0  0  0  0  0  0  0  0  0  0  0  0
  -21.4310  -29.3050   22.3570 N   0  0  0  0  0  0  0  0  0  0  0  0
  -23.4190  -28.8010   23.3010 O   0  0  0  0  0  0  0  0  0  0  0  0
  -20.9550  -29.8780   21.6740 H   0  0  0  0  0  0  0  0  0  0  0  0
  -18.0320  -28.1410   22.8460 C   0  0  0  0  0  0  0  0  0  0  0  0
  -20.5940  -28.3730   23.1200 C   0  0  0  0  0  3  0  0  0  0  0  0
  -20.6800  -26.9430   22.5390 C   0  0  0  0  0  2  0  0  0  0  0  0
  -19.5770  -26.6390   21.5200 C   0  0  0  0  0  2  0  0  0  0  0  0
  -18.1960  -26.7950   22.1620 C   0  0  0  0  0  2  0  0  0  0  0  0
  -19.1580  -28.8890   23.2830 C   0  0  0  0  0  0  0  0  0  0  0  0
  -18.9490  -30.1470   23.8880 C   0  0  0  0  0  3  0  0  0  0  0  0
  -17.6480  -30.6570   24.0590 C   0  0  0  0  0  3  0  0  0  0  0  0
  -16.5380  -29.9070   23.6350 C   0  0  0  0  0  3  0  0  0  0  0  0
  -16.7300  -28.6510   23.0340 C   0  0  0  0  0  3  0  0  0  0  0  0
  -25.9290  -32.4590   23.8180 C   0  0  0  0  0  3  0  0  0  0  0  0
  -26.4570  -31.6520   25.0680 C   0  0  1  0  0  0  0  0  0  0  0  0
  -25.3710  -31.3780   26.1340 C   0  0  0  0  0  1  0  0  0  0  0  0
  -27.0460  -30.2890   24.6390 C   0  0  0  0  0  1  0  0  0  0  0  0
  -27.6060  -32.4320   25.7500 C   0  0  0  0  0  1  0  0  0  0  0  0
  -25.5990  -33.8410   24.2080 N   0  0  0  0  0  0  0  0  0  0  0  0
  -25.9100  -34.9350   23.5000 C   0  0  0  0  0  0  0  0  0  0  0  0
  -26.5710  -34.8870   22.4580 O   0  0  0  0  0  0  0  0  0  0  0  0
  -25.0090  -33.9510   25.0190 H   0  0  0  0  0  0  0  0  0  0  0  0
  -24.1500  -36.7220   23.2640 C   0  0  0  0  0  1  0  0  0  0  0  0
  -25.4140  -36.2960   24.0290 C   0  0  0  0  0  3  0  0  0  0  0  0
  -27.5560  -37.1770   24.8460 C   0  0  0  0  0  1  0  0  0  0  0  0
  -26.4280  -37.3700   23.9400 N   0  0  0  0  0  0  0  0  0  0  0  0
  -26.0120  -38.2750   24.1410 H   0  0  0  0  0  0  0  0  0  0  0  0
  -29.0770  -17.8750   20.3650 C   0  0  0  0  0  3  0  0  0  0  0  0
  -30.4210  -15.1870   20.4110 C   0  0  0  0  0  0  0  0  0  0  0  0
  -30.4410  -12.7390   19.5660 C   0  0  0  0  0  2  0  0  0  0  0  0
  -29.5490  -12.6010   18.3050 C   0  0  0  0  0  2  0  0  0  0  0  0
  -28.0860  -12.3390   18.7000 C   0  0  0  0  0  2  0  0  0  0  0  0
  -27.6240  -13.2730   19.8470 C   0  0  0  0  0  3  0  0  0  0  0  0
  -28.6490  -13.3670   21.0010 C   0  0  0  0  0  2  0  0  0  0  0  0
  -29.9110  -13.8600   20.4300 N   0  0  0  0  0  0  0  0  0  0  0  0
  -31.5740  -15.2730   19.9700 O   0  0  0  0  0  0  0  0  0  0  0  0
  -29.6500  -16.3730   20.8120 N   0  0  0  0  0  0  0  0  0  0  0  0
  -28.9870  -16.0170   21.4820 H   0  0  0  0  0  0  0  0  0  0  0  0
  -25.2410  -13.8140   20.5640 C   0  0  0  0  0  0  0  0  0  0  0  0
  -24.1750  -13.0420   20.9180 C   0  0  0  0  0  0  0  0  0  0  0  0
  -24.6420  -11.6910   20.8750 C   0  0  0  0  0  0  0  0  0  0  0  0
  -26.2870  -12.9460   20.3220 N   0  0  0  0  0  0  0  0  0  0  0  0
  -25.9380  -11.6580   20.5740 N   0  0  0  0  0  0  0  0  0  0  0  0
  -23.9100  -10.4290   21.0400 C   0  0  0  0  0  0  0  0  0  0  0  0
  -24.3660   -9.4200   21.9170 C   0  0  0  0  0  3  0  0  0  0  0  0
  -23.6330   -8.2250   22.0740 C   0  0  0  0  0  3  0  0  0  0  0  0
  -22.4300   -8.0300   21.3540 C   0  0  0  0  0  0  0  0  0  0  0  0
  -21.9940   -9.0280   20.4640 C   0  0  0  0  0  3  0  0  0  0  0  0
  -22.7280  -10.2150   20.3050 C   0  0  0  0  0  3  0  0  0  0  0  0
  -21.6660   -6.8890   21.4250 O   0  0  0  0  0  0  0  0  0  0  0  0
  -21.6880   -6.0750   22.5290 C   0  0  0  0  0  0  0  0  0  0  0  0
  -21.4020   -6.5640   23.8230 C   0  0  0  0  0  3  0  0  0  0  0  0
  -21.3640   -5.6780   24.9180 C   0  0  0  0  0  3  0  0  0  0  0  0
  -21.6030   -4.3050   24.7220 C   0  0  0  0  0  0  0  0  0  0  0  0
  -21.8840   -3.8160   23.4340 C   0  0  0  0  0  3  0  0  0  0  0  0
  -21.9210   -4.6970   22.3400 C   0  0  0  0  0  0  0  0  0  0  0  0
  -22.1680   -4.2180   21.0980 F   0  0  0  0  0  0  0  0  0  0  0  0
  -21.5590   -3.4500   25.7710 F   0  0  0  0  0  0  0  0  0  0  0  0
  -22.7800  -13.5230   21.1850 C   0  0  0  0  0  0  0  0  0  0  0  0
  -22.0480  -12.8190   22.0380 N   0  0  0  0  0  0  0  0  0  0  0  0
  -22.3490  -14.5600   20.6770 O   0  0  0  0  0  0  0  0  0  0  0  0
  -22.4150  -11.9790   22.4580 H   0  0  0  0  0  0  0  0  0  0  0  0
  -21.1060  -13.1120   22.2560 H   0  0  0  0  0  0  0  0  0  0  0  0
  -25.4040  -15.1810   20.3900 N   0  0  0  0  0  0  0  0  0  0  0  0
  -24.5960  -15.7890   20.4110 H   0  0  0  0  0  0  0  0  0  0  0  0
  -26.2170  -15.5990   19.9600 H   0  0  0  0  0  0  0  0  0  0  0  0
  -27.6520  -17.8680   20.9900 C   0  0  0  0  0  2  0  0  0  0  0  0
  -26.5090  -18.3780   20.0880 C   0  0  0  0  0  2  0  0  0  0  0  0
  -25.2650  -18.8950   20.8500 C   0  0  0  0  0  2  0  0  0  0  0  0
  -24.7650  -18.0420   22.0450 C   0  0  0  0  0  2  0  0  0  0  0  0
  -23.7140  -18.7300   22.8110 N   0  0  0  0  0  4  0  0  0  0  0  0
  -24.0400  -19.6230   23.1370 H   0  0  0  0  0  0  0  0  0  0  0  0
  -23.4550  -18.1830   23.6140 H   0  0  0  0  0  0  0  0  0  0  0  0
  -22.8940  -18.8670   22.2470 H   0  0  0  0  0  0  0  0  0  0  0  0
  1  6  1  0
  2  5  1  0
  2  4  1  0
  2  1  1  0
  3  2  1  0
  6  7  1  0
  8  9  1  0
  8  7  2  0
 10 21  2  0
 11  9  1  0
 11 16  1  0
 12 20  1  0
 12 22  1  0
 13 19  1  0
 13 15  1  0
 14 20  1  0
 15 16  2  0
 15 14  1  0
 17 11  2  0
 18 17  1  0
 18 13  2  0
 19 12  1  0
 20 10  1  0
 22 24  2  0
 23 22  1  0
 25 23  1  0
 26 35  2  0
 26 31  1  0
 27 23  1  0
 27 31  1  0
 28 27  1  0
 29 30  1  0
 29 28  1  0
 30 26  1  0
 31 32  2  0
 32 33  1  0
 34 33  2  0
 35 34  1  0
 36 10  1  0
 36 41  1  0
 36 37  1  0
 37 40  1  1
 37 38  1  0
 39 37  1  0
 41 44  1  0
 42 46  1  0
 42 41  1  0
 43 42  2  0
 46 45  1  0
 48 46  1  0
 48 49  1  0
 48 47  1  0
 50  1  1  0
 50 59  1  0
 50 89  1  0
 51 57  1  0
 51 59  1  0
 52 57  1  0
 53 54  1  0
 53 52  1  0
 55 54  1  0
 55 64  1  0
 55 56  1  0
 57 56  1  0
 58 51  2  0
 59 60  1  0
 61 62  2  0
 62 81  1  0
 63 62  1  0
 63 66  1  0
 64 61  1  0
 64 65  1  0
 65 63  2  0
 66 67  1  0
 67 68  2  0
 69 72  1  0
 69 68  1  0
 70 69  2  0
 71 70  1  0
 71 66  2  0
 72 73  1  0
 73 74  1  0
 74 75  2  0
 76 75  1  0
 76 80  1  0
 77 76  2  0
 78 73  2  0
 78 77  1  0
 79 78  1  0
 81 82  1  0
 82 85  1  0
 82 84  1  0
 83 81  2  0
 86 87  1  0
 86 61  1  0
 88 86  1  0
 90 91  1  0
 90 89  1  0
 91 92  1  0
 92 93  1  0
 93 94  1  0
 93 95  1  0
 96 93  1  0
M  ISO  4   8 101   9 101  51 100  59 100
M  END
>  <TORSDO>  (74) 
F 26

>  <SCORE>  (74) 
6.532

>  <name>  (74) 
73

>  <ligand_id>  (74) 
73

>  <original_smiles>  (74) 
[H]c1c([H])c([H])c2c(c1[H])C([H])([H])C([H])([H])C([H])([H])C2([H])N([H])C(=O)C1([H])N(C(=O)C([H])(N([H])C(=O)C([H])(N([H])C([H])([H])[H])C([H])([H])[H])C(C([H])([H])[H])(C([H])([H])[H])C([H])([H])[H])C([H])([H])c2c([H])c(OC([H])([H])C([H])([H])C([H])([H])C([H])(C([H])(N([H])C(=O)N3C([H])([H])C([H])([H])C([H])([H])C([H])(n4nc(-c5c([H])c([H])c(Oc6c([H])c([H])c(F)c([H])c6F)c([H])c5[H])c(C(=O)N([H])[H])c4N([H])[H])C3([H])[H])C([H])([H])C([H])([H])C([H])([H])C([H])([H])[N+]([H])([H])[H])[N+]([H])([H])[H])c([H])c([H])c2C1([H])[H]

>  <smiles>  (74) 
[H]c1c([H])c([H])c2c(c1[H])C([H])([H])C([H])([H])C([H])([H])C2([H])N([H])C(=O)C1([H])N(C(=O)C([H])(N([H])C(=O)C([H])(N([H])C([H])([H])[H])C([H])([H])[H])C(C([H])([H])[H])(C([H])([H])[H])C([H])([H])[H])C([H])([H])c2c([H])c(OC([H])([H])C([H])([H])C([H])([H])C([H])(C([H])(N([H])C(=O)N3C([H])([H])C([H])([H])C([H])([H])C([H])(n4nc(-c5c([H])c([H])c(Oc6c([H])c([H])c(F)c([H])c6F)c([H])c5[H])c(C(=O)N([H])[H])c4N([H])[H])C3([H])[H])C([H])([H])C([H])([H])C([H])([H])C([H])([H])[N+]([H])([H])[H])[N+]([H])([H])[H])c([H])c([H])c2C1([H])[H]

$$$$
74:0:0
     RDKit          3D

 91 98  0  0  1  0  0  0  0  0999 V2000
  -28.9410  -21.8670   20.4570 C   0  0  0  0  0  2  0  0  0  0  0  0
  -28.7600  -23.4140   19.7690 C   0  0  0  0  0  3  0  0  0  0  0  0
  -31.2520  -24.1990   19.8650 C   0  0  0  0  0  1  0  0  0  0  0  0
  -30.0320  -23.8600   19.0050 C   0  0  0  0  0  2  0  0  0  0  0  0
  -28.1300  -24.7510   20.5740 C   0  0  0  0  0  2  0  0  0  0  0  0
  -28.3190  -26.2580   20.2580 O   0  0  0  0  0  0  0  0  0  0  0  0
  -24.5720  -31.8670   23.2570 C   0  0  0  0  0  0  0  0  0  0  0  0
  -27.2350  -27.1980   20.2560 C   0  0  0  0  0  0  0  0  0  0  0  0
  -23.4100  -30.4680   21.5940 C   0  0  0  0  0  3  0  0  0  0  0  0
  -24.8910  -28.9010   20.1980 C   0  0  0  0  0  0  0  0  0  0  0  0
  -25.9640  -30.7540   21.4730 C   0  0  0  0  0  2  0  0  0  0  0  0
  -26.0570  -29.3650   20.8210 C   0  0  0  0  0  0  0  0  0  0  0  0
  -27.2340  -28.5300   20.8280 C   0  0  0  0  0  3  0  0  0  0  0  0
  -26.0420  -26.8210   19.6060 C   0  0  0  0  0  3  0  0  0  0  0  0
  -24.8930  -27.6400   19.5780 C   0  0  0  0  0  3  0  0  0  0  0  0
  -23.6590  -29.7910   20.2200 C   0  0  0  0  0  2  0  0  0  0  0  0
  -24.6690  -31.0520   22.1630 N   0  0  0  0  0  0  0  0  0  0  0  0
  -23.4750  -32.1410   23.7670 O   0  0  0  0  0  0  0  0  0  0  0  0
  -22.7200  -29.4550   22.5410 C   0  0  0  0  0  0  0  0  0  0  0  0
  -21.3970  -29.2780   22.3900 N   0  0  0  0  0  0  0  0  0  0  0  0
  -23.3830  -28.8270   23.3720 O   0  0  0  0  0  0  0  0  0  0  0  0
  -20.9210  -29.8340   21.6930 H   0  0  0  0  0  0  0  0  0  0  0  0
  -18.0100  -28.0760   22.8430 C   0  0  0  0  0  0  0  0  0  0  0  0
  -20.5660  -28.3350   23.1430 C   0  0  0  0  0  3  0  0  0  0  0  0
  -20.6750  -26.9070   22.5590 C   0  0  0  0  0  2  0  0  0  0  0  0
  -19.5860  -26.5930   21.5290 C   0  0  0  0  0  2  0  0  0  0  0  0
  -18.1960  -26.7330   22.1570 C   0  0  0  0  0  2  0  0  0  0  0  0
  -19.1230  -28.8350   23.2930 C   0  0  0  0  0  0  0  0  0  0  0  0
  -18.8970  -30.0920   23.8950 C   0  0  0  0  0  3  0  0  0  0  0  0
  -17.5900  -30.5900   24.0530 C   0  0  0  0  0  3  0  0  0  0  0  0
  -16.4910  -29.8270   23.6210 C   0  0  0  0  0  3  0  0  0  0  0  0
  -16.7020  -28.5720   23.0220 C   0  0  0  0  0  3  0  0  0  0  0  0
  -25.8330  -32.5100   23.9090 C   0  0  0  0  0  3  0  0  0  0  0  0
  -25.5210  -33.9190   24.1980 N   0  0  0  0  0  0  0  0  0  0  0  0
  -25.8900  -34.9560   23.4360 C   0  0  0  0  0  0  0  0  0  0  0  0
  -26.5960  -34.8280   22.4320 O   0  0  0  0  0  0  0  0  0  0  0  0
  -24.9020  -34.0920   24.9770 H   0  0  0  0  0  0  0  0  0  0  0  0
  -24.1980  -36.7640   22.9830 C   0  0  0  0  0  1  0  0  0  0  0  0
  -25.4000  -36.3590   23.8520 C   0  0  0  0  0  3  0  0  0  0  0  0
  -27.5060  -37.2360   24.7590 C   0  0  0  0  0  1  0  0  0  0  0  0
  -26.4470  -37.3990   23.7660 N   0  0  0  0  0  0  0  0  0  0  0  0
  -26.0450  -38.3260   23.8820 H   0  0  0  0  0  0  0  0  0  0  0  0
  -26.2960  -31.7700   25.2240 C   0  0  1  0  0  0  0  0  0  0  0  0
  -25.1620  -31.5690   26.2570 C   0  0  0  0  0  1  0  0  0  0  0  0
  -26.8830  -30.3790   24.8950 C   0  0  0  0  0  1  0  0  0  0  0  0
  -27.4280  -32.5740   25.9070 C   0  0  0  0  0  1  0  0  0  0  0  0
  -29.0050  -20.3580   19.6770 C   0  0  1  0  0  0  0  0  0  0  0  0
  -26.7480  -21.0180   18.3800 C   0  0  0  0  0  1  0  0  0  0  0  0
  -27.5490  -20.0050   19.2200 C   0  0  0  0  0  2  0  0  0  0  0  0
  -31.3950  -20.5320   18.6250 C   0  0  0  0  0  1  0  0  0  0  0  0
  -29.8730  -20.4940   18.3990 C   0  0  0  0  0  2  0  0  0  0  0  0
  -29.4650  -18.9470   20.4960 C   0  0  0  0  0  2  0  0  0  0  0  0
  -30.0070  -17.5270   19.7880 C   0  0  0  0  0  2  0  0  0  0  0  0
  -30.6880  -14.9260   20.1940 C   0  0  0  0  0  0  0  0  0  0  0  0
  -30.5440  -12.5980   19.2370 C   0  0  0  0  0  2  0  0  0  0  0  0
  -29.5920  -12.6210   18.0190 C   0  0  0  0  0  2  0  0  0  0  0  0
  -28.1280  -12.4340   18.4710 C   0  0  0  0  0  2  0  0  0  0  0  0
  -27.7620  -13.3240   19.6890 C   0  0  0  0  0  3  0  0  0  0  0  0
  -28.8390  -13.2710   20.7990 C   0  0  0  0  0  2  0  0  0  0  0  0
  -30.1070  -13.6680   20.1770 N   0  0  0  0  0  0  0  0  0  0  0  0
  -31.8700  -15.0240   19.8470 O   0  0  0  0  0  0  0  0  0  0  0  0
  -29.8800  -16.0720   20.3580 N   0  0  0  0  0  0  0  0  0  0  0  0
  -28.9390  -15.8280   20.6260 H   0  0  0  0  0  0  0  0  0  0  0  0
  -25.3820  -13.9070   20.4430 C   0  0  0  0  0  0  0  0  0  0  0  0
  -24.3260  -13.1340   20.8320 C   0  0  0  0  0  0  0  0  0  0  0  0
  -24.7850  -11.7830   20.7950 C   0  0  0  0  0  0  0  0  0  0  0  0
  -26.4250  -13.0290   20.1940 N   0  0  0  0  0  0  0  0  0  0  0  0
  -26.0730  -11.7450   20.4680 N   0  0  0  0  0  0  0  0  0  0  0  0
  -24.0540  -10.5230   20.9890 C   0  0  0  0  0  0  0  0  0  0  0  0
  -24.4870   -9.5620   21.9310 C   0  0  0  0  0  3  0  0  0  0  0  0
  -23.7660   -8.3630   22.1160 C   0  0  0  0  0  3  0  0  0  0  0  0
  -22.5910   -8.1200   21.3650 C   0  0  0  0  0  0  0  0  0  0  0  0
  -22.1770   -9.0680   20.4130 C   0  0  0  0  0  3  0  0  0  0  0  0
  -22.8990  -10.2590   20.2250 C   0  0  0  0  0  3  0  0  0  0  0  0
  -21.8370   -6.9780   21.4610 O   0  0  0  0  0  0  0  0  0  0  0  0
  -21.7880   -6.2450   22.6210 C   0  0  0  0  0  0  0  0  0  0  0  0
  -21.3440   -6.8030   23.8390 C   0  0  0  0  0  3  0  0  0  0  0  0
  -21.2480   -5.9940   24.9900 C   0  0  0  0  0  3  0  0  0  0  0  0
  -21.5820   -4.6280   24.9200 C   0  0  0  0  0  0  0  0  0  0  0  0
  -22.0190   -4.0690   23.7050 C   0  0  0  0  0  3  0  0  0  0  0  0
  -22.1180   -4.8760   22.5580 C   0  0  0  0  0  0  0  0  0  0  0  0
  -22.5190   -4.3280   21.3870 F   0  0  0  0  0  0  0  0  0  0  0  0
  -21.4810   -3.8500   26.0230 F   0  0  0  0  0  0  0  0  0  0  0  0
  -22.9310  -13.6110   21.1210 C   0  0  0  0  0  0  0  0  0  0  0  0
  -22.2120  -12.9210   21.9960 N   0  0  0  0  0  0  0  0  0  0  0  0
  -22.4900  -14.6360   20.6010 O   0  0  0  0  0  0  0  0  0  0  0  0
  -22.5780  -12.0890   22.4350 H   0  0  0  0  0  0  0  0  0  0  0  0
  -21.2760  -13.2270   22.2260 H   0  0  0  0  0  0  0  0  0  0  0  0
  -25.5330  -15.2800   20.2620 N   0  0  0  0  0  0  0  0  0  0  0  0
  -24.7580  -15.9150   20.4220 H   0  0  0  0  0  0  0  0  0  0  0  0
  -26.3510  -15.7390   19.8810 H   0  0  0  0  0  0  0  0  0  0  0  0
  2  4  1  0
  2  1  1  0
  2  5  1  0
  4  3  1  0
  6  5  1  0
  7 18  2  0
  8  6  1  0
  8 13  1  0
  9 17  1  0
  9 19  1  0
 10 16  1  0
 10 12  1  0
 11 17  1  0
 12 13  2  0
 12 11  1  0
 14  8  2  0
 15 14  1  0
 15 10  2  0
 16  9  1  0
 17  7  1  0
 19 21  2  0
 20 19  1  0
 22 20  1  0
 23 32  2  0
 23 28  1  0
 24 20  1  0
 24 28  1  0
 25 24  1  0
 26 27  1  0
 26 25  1  0
 27 23  1  0
 28 29  2  0
 29 30  1  0
 31 30  2  0
 32 31  1  0
 33  7  1  0
 33 34  1  0
 33 43  1  0
 34 37  1  0
 35 39  1  0
 35 34  1  0
 36 35  2  0
 39 38  1  0
 41 39  1  0
 41 42  1  0
 41 40  1  0
 43 46  1  1
 43 44  1  0
 45 43  1  0
 47  1  1  1
 47 52  1  0
 48 49  1  0
 49 47  1  0
 51 50  1  0
 51 47  1  0
 53 62  1  0
 53 52  1  0
 54 62  1  0
 55 60  1  0
 56 57  1  0
 56 55  1  0
 58 57  1  0
 58 67  1  0
 58 59  1  0
 60 54  1  0
 60 59  1  0
 61 54  2  0
 62 63  1  0
 64 65  2  0
 65 84  1  0
 66 65  1  0
 66 69  1  0
 67 64  1  0
 67 68  1  0
 68 66  2  0
 69 70  1  0
 70 71  2  0
 72 75  1  0
 72 71  1  0
 73 72  2  0
 74 73  1  0
 74 69  2  0
 75 76  1  0
 76 77  1  0
 77 78  2  0
 79 78  1  0
 79 83  1  0
 80 79  2  0
 81 76  2  0
 81 80  1  0
 82 81  1  0
 84 85  1  0
 85 88  1  0
 85 87  1  0
 86 84  2  0
 89 90  1  0
 89 64  1  0
 91 89  1  0
M  ISO  4   5 101   6 101  54 100  62 100
M  END
>  <TORSDO>  (75) 
F 24

>  <SCORE>  (75) 
-13.634

>  <name>  (75) 
74

>  <ligand_id>  (75) 
74

>  <original_smiles>  (75) 
[H]c1c([H])c([H])c2c(c1[H])C([H])([H])C([H])([H])C([H])([H])C2([H])N([H])C(=O)C1([H])N(C(=O)C([H])(N([H])C(=O)C([H])(N([H])C([H])([H])[H])C([H])([H])[H])C(C([H])([H])[H])(C([H])([H])[H])C([H])([H])[H])C([H])([H])c2c([H])c(OC([H])([H])C([H])(C([H])([H])C([H])([H])[H])C([H])([H])C(C([H])([H])C([H])([H])[H])(C([H])([H])C([H])([H])[H])C([H])([H])C([H])([H])N([H])C(=O)N3C([H])([H])C([H])([H])C([H])([H])C([H])(n4nc(-c5c([H])c([H])c(Oc6c([H])c([H])c(F)c([H])c6F)c([H])c5[H])c(C(=O)N([H])[H])c4N([H])[H])C3([H])[H])c([H])c([H])c2C1([H])[H]

>  <smiles>  (75) 
[H]c1c([H])c([H])c2c(c1[H])C([H])([H])C([H])([H])C([H])([H])C2([H])N([H])C(=O)C1([H])N(C(=O)C([H])(N([H])C(=O)C([H])(N([H])C([H])([H])[H])C([H])([H])[H])C(C([H])([H])[H])(C([H])([H])[H])C([H])([H])[H])C([H])([H])c2c([H])c(OC([H])([H])C([H])(C([H])([H])C([H])([H])[H])C([H])([H])C(C([H])([H])C([H])([H])[H])(C([H])([H])C([H])([H])[H])C([H])([H])C([H])([H])N([H])C(=O)N3C([H])([H])C([H])([H])C([H])([H])C([H])(n4nc(-c5c([H])c([H])c(Oc6c([H])c([H])c(F)c([H])c6F)c([H])c5[H])c(C(=O)N([H])[H])c4N([H])[H])C3([H])[H])c([H])c([H])c2C1([H])[H]

$$$$
75:0:0
     RDKit          3D

100109  0  0  1  0  0  0  0  0999 V2000
  -28.2970  -22.8670   17.8860 C   0  0  0  0  0  1  0  0  0  0  0  0
  -29.2430  -22.9510   19.1270 C   0  0  1  0  0  0  0  0  0  0  0  0
  -30.8530  -14.4340   19.8120 C   0  0  0  0  0  0  0  0  0  0  0  0
  -30.3360  -12.3560   18.5680 C   0  0  0  0  0  2  0  0  0  0  0  0
  -29.2660  -12.6220   17.4910 C   0  0  0  0  0  2  0  0  0  0  0  0
  -27.8530  -12.4600   18.0820 C   0  0  0  0  0  2  0  0  0  0  0  0
  -27.6800  -13.2440   19.4080 C   0  0  0  0  0  3  0  0  0  0  0  0
  -28.8540  -12.9500   20.3770 C   0  0  0  0  0  2  0  0  0  0  0  0
  -30.1060  -13.2940   19.6870 N   0  0  0  0  0  0  0  0  0  0  0  0
  -31.8570  -14.6030   19.1100 O   0  0  0  0  0  0  0  0  0  0  0  0
  -29.2730  -20.1690   22.0780 C   0  0  0  0  0  2  0  0  0  0  0  0
  -29.6640  -21.4690   21.3350 C   0  0  0  0  0  2  0  0  0  0  0  0
  -29.3630  -20.2690   19.0840 C   0  0  0  0  0  2  0  0  0  0  0  0
  -30.3070  -19.0290   21.9560 C   0  0  0  0  0  2  0  0  0  0  0  0
  -30.6150  -19.4230   19.4520 C   0  0  0  0  0  2  0  0  0  0  0  0
  -31.7670  -17.4940   20.5840 C   0  0  0  0  0  2  0  0  0  0  0  0
  -29.2800  -17.3870   20.2440 C   0  0  0  0  0  2  0  0  0  0  0  0
  -31.6490  -16.1620   21.3690 C   0  0  0  0  0  2  0  0  0  0  0  0
  -29.3030  -16.0440   21.0110 C   0  0  0  0  0  2  0  0  0  0  0  0
  -29.0630  -21.5660   19.9100 C   0  0  0  0  0  3  0  0  0  0  0  0
  -30.4630  -18.3460   20.5670 C   0  0  1  0  0  0  0  0  0  0  0  0
  -30.5730  -15.3240   20.8130 N   0  0  0  0  0  0  0  0  0  0  0  0
  -25.3980  -13.8690   20.4210 C   0  0  0  0  0  0  0  0  0  0  0  0
  -24.3610  -13.1000   20.8780 C   0  0  0  0  0  0  0  0  0  0  0  0
  -24.7830  -11.7430   20.7290 C   0  0  0  0  0  0  0  0  0  0  0  0
  -26.3860  -12.9790   20.0280 N   0  0  0  0  0  0  0  0  0  0  0  0
  -26.0260  -11.6940   20.2690 N   0  0  0  0  0  0  0  0  0  0  0  0
  -24.0550  -10.4870   20.9430 C   0  0  0  0  0  0  0  0  0  0  0  0
  -24.5280   -9.5020   21.8370 C   0  0  0  0  0  3  0  0  0  0  0  0
  -23.8010   -8.3100   22.0380 C   0  0  0  0  0  3  0  0  0  0  0  0
  -22.5880   -8.0930   21.3440 C   0  0  0  0  0  0  0  0  0  0  0  0
  -22.1330   -9.0670   20.4360 C   0  0  0  0  0  3  0  0  0  0  0  0
  -22.8600  -10.2520   20.2330 C   0  0  0  0  0  3  0  0  0  0  0  0
  -21.8270   -6.9550   21.4560 O   0  0  0  0  0  0  0  0  0  0  0  0
  -21.7750   -6.2370   22.6250 C   0  0  0  0  0  0  0  0  0  0  0  0
  -21.3550   -6.8220   23.8400 C   0  0  0  0  0  3  0  0  0  0  0  0
  -21.2500   -6.0310   25.0020 C   0  0  0  0  0  3  0  0  0  0  0  0
  -21.5540   -4.6580   24.9490 C   0  0  0  0  0  0  0  0  0  0  0  0
  -21.9680   -4.0740   23.7390 C   0  0  0  0  0  3  0  0  0  0  0  0
  -22.0750   -4.8610   22.5800 C   0  0  0  0  0  0  0  0  0  0  0  0
  -22.4530   -4.2890   21.4110 F   0  0  0  0  0  0  0  0  0  0  0  0
  -21.4470   -3.8960   26.0630 F   0  0  0  0  0  0  0  0  0  0  0  0
  -23.0180  -13.5880   21.3370 C   0  0  0  0  0  0  0  0  0  0  0  0
  -22.3900  -12.8750   22.2650 N   0  0  0  0  0  0  0  0  0  0  0  0
  -22.5370  -14.6370   20.9060 O   0  0  0  0  0  0  0  0  0  0  0  0
  -22.7940  -12.0270   22.6320 H   0  0  0  0  0  0  0  0  0  0  0  0
  -21.4950  -13.1830   22.6150 H   0  0  0  0  0  0  0  0  0  0  0  0
  -25.5720  -15.2430   20.2870 N   0  0  0  0  0  0  0  0  0  0  0  0
  -24.8370  -15.9040   20.5160 H   0  0  0  0  0  0  0  0  0  0  0  0
  -26.3850  -15.6830   19.8760 H   0  0  0  0  0  0  0  0  0  0  0  0
  -30.9910  -23.6610   17.2450 C   0  0  0  0  0  1  0  0  0  0  0  0
  -31.7060  -23.7970   19.6600 C   0  0  0  0  0  1  0  0  0  0  0  0
  -30.7560  -23.0940   18.6640 C   0  0  0  0  0  3  0  0  0  0  0  0
  -28.7570  -24.2110   19.9800 C   0  0  0  0  0  3  0  0  0  0  0  0
  -27.4410  -23.9650   20.6160 N   0  0  0  0  0  4  0  0  0  0  0  0
  -26.7090  -23.8480   19.9360 H   0  0  0  0  0  0  0  0  0  0  0  0
  -27.2000  -24.7320   21.2220 H   0  0  0  0  0  0  0  0  0  0  0  0
  -27.4740  -23.1330   21.1800 H   0  0  0  0  0  0  0  0  0  0  0  0
  -28.7270  -25.5880   19.2270 C   0  0  0  0  0  2  0  0  0  0  0  0
  -28.4580  -26.7140   20.0800 O   0  0  0  0  0  0  0  0  0  0  0  0
  -24.4810  -31.7720   23.1040 C   0  0  0  0  0  0  0  0  0  0  0  0
  -27.2500  -27.3890   20.0270 C   0  0  0  0  0  0  0  0  0  0  0  0
  -23.3220  -30.3560   21.4410 C   0  0  0  0  0  3  0  0  0  0  0  0
  -24.8200  -28.8530   20.0260 C   0  0  0  0  0  0  0  0  0  0  0  0
  -25.8430  -30.7590   21.2790 C   0  0  0  0  0  2  0  0  0  0  0  0
  -25.9600  -29.3910   20.6360 C   0  0  0  0  0  0  0  0  0  0  0  0
  -27.1710  -28.6620   20.6410 C   0  0  0  0  0  3  0  0  0  0  0  0
  -26.0850  -26.8670   19.4130 C   0  0  0  0  0  3  0  0  0  0  0  0
  -24.8770  -27.5900   19.4170 C   0  0  0  0  0  3  0  0  0  0  0  0
  -23.5600  -29.6880   20.0610 C   0  0  0  0  0  2  0  0  0  0  0  0
  -24.5650  -30.9780   22.0000 N   0  0  0  0  0  0  0  0  0  0  0  0
  -23.3880  -32.0220   23.6320 O   0  0  0  0  0  0  0  0  0  0  0  0
  -22.6790  -29.3170   22.3880 C   0  0  0  0  0  0  0  0  0  0  0  0
  -21.3550  -29.1330   22.2640 N   0  0  0  0  0  0  0  0  0  0  0  0
  -23.3690  -28.6790   23.1880 O   0  0  0  0  0  0  0  0  0  0  0  0
  -20.8590  -29.6990   21.5900 H   0  0  0  0  0  0  0  0  0  0  0  0
  -17.9820  -27.9430   22.7760 C   0  0  0  0  0  0  0  0  0  0  0  0
  -20.5440  -28.1810   23.0230 C   0  0  0  0  0  3  0  0  0  0  0  0
  -20.6320  -26.7640   22.4120 C   0  0  0  0  0  2  0  0  0  0  0  0
  -19.5160  -26.4700   21.4040 C   0  0  0  0  0  2  0  0  0  0  0  0
  -18.1440  -26.6080   22.0690 C   0  0  0  0  0  2  0  0  0  0  0  0
  -19.1100  -28.6890   23.2100 C   0  0  0  0  0  0  0  0  0  0  0  0
  -18.9060  -29.9400   23.8310 C   0  0  0  0  0  3  0  0  0  0  0  0
  -17.6070  -30.4450   24.0230 C   0  0  0  0  0  3  0  0  0  0  0  0
  -16.4930  -29.6960   23.6070 C   0  0  0  0  0  3  0  0  0  0  0  0
  -16.6820  -28.4460   22.9890 C   0  0  0  0  0  3  0  0  0  0  0  0
  -25.7480  -32.4240   23.7420 C   0  0  0  0  0  3  0  0  0  0  0  0
  -26.2780  -31.6450   25.0090 C   0  0  1  0  0  0  0  0  0  0  0  0
  -25.1860  -31.3660   26.0670 C   0  0  0  0  0  1  0  0  0  0  0  0
  -26.8930  -30.2880   24.5960 C   0  0  0  0  0  1  0  0  0  0  0  0
  -27.4070  -32.4550   25.6880 C   0  0  0  0  0  1  0  0  0  0  0  0
  -25.4050  -33.8090   24.0890 N   0  0  0  0  0  0  0  0  0  0  0  0
  -25.7060  -34.8770   23.3390 C   0  0  0  0  0  0  0  0  0  0  0  0
  -26.3730  -34.8030   22.3040 O   0  0  0  0  0  0  0  0  0  0  0  0
  -24.8100  -33.9400   24.8940 H   0  0  0  0  0  0  0  0  0  0  0  0
  -23.9220  -36.6210   23.0170 C   0  0  0  0  0  1  0  0  0  0  0  0
  -25.1830  -36.2470   23.8140 C   0  0  0  0  0  3  0  0  0  0  0  0
  -27.2980  -37.1870   24.6310 C   0  0  0  0  0  1  0  0  0  0  0  0
  -26.1830  -37.3300   23.6990 N   0  0  0  0  0  0  0  0  0  0  0  0
  -25.7520  -38.2370   23.8580 H   0  0  0  0  0  0  0  0  0  0  0  0
  2  1  1  6
  2 54  1  0
  3 22  1  0
  4  9  1  0
  5  6  1  0
  5  4  1  0
  7  6  1  0
  7 26  1  0
  7  8  1  0
  9  3  1  0
  9  8  1  0
 10  3  2  0
 12 11  1  0
 13 15  1  0
 13 20  1  0
 14 11  1  0
 16 18  1  0
 21 17  1  6
 17 19  1  0
 20  2  1  0
 20 12  1  0
 21 15  1  0
 21 16  1  0
 21 14  1  0
 22 19  1  0
 22 18  1  0
 23 24  2  0
 24 43  1  0
 25 24  1  0
 25 28  1  0
 26 27  1  0
 26 23  1  0
 27 25  2  0
 28 29  1  0
 29 30  2  0
 31 34  1  0
 31 30  1  0
 32 31  2  0
 33 32  1  0
 33 28  2  0
 34 35  1  0
 35 36  1  0
 36 37  2  0
 38 37  1  0
 38 42  1  0
 39 38  2  0
 40 35  2  0
 40 39  1  0
 41 40  1  0
 43 44  1  0
 44 47  1  0
 44 46  1  0
 45 43  2  0
 48 23  1  0
 48 49  1  0
 50 48  1  0
 51 53  1  0
 53  2  1  0
 53 52  1  0
 54 59  1  0
 54 55  1  0
 55 58  1  0
 55 57  1  0
 56 55  1  0
 59 60  1  0
 61 72  2  0
 62 60  1  0
 62 67  1  0
 63 71  1  0
 63 73  1  0
 64 70  1  0
 64 66  1  0
 65 71  1  0
 66 67  2  0
 66 65  1  0
 68 69  1  0
 68 62  2  0
 69 64  2  0
 70 63  1  0
 71 61  1  0
 73 75  2  0
 74 73  1  0
 76 74  1  0
 77 86  2  0
 77 82  1  0
 78 74  1  0
 78 82  1  0
 79 78  1  0
 80 81  1  0
 80 79  1  0
 81 77  1  0
 82 83  2  0
 83 84  1  0
 85 84  2  0
 86 85  1  0
 87 61  1  0
 87 92  1  0
 87 88  1  0
 88 91  1  1
 88 89  1  0
 90 88  1  0
 92 95  1  0
 93 97  1  0
 93 92  1  0
 94 93  2  0
 97 96  1  0
 99 97  1  0
 99100  1  0
 99 98  1  0
M  ISO  4   3 100  22 100  59 101  60 101
M  END
>  <TORSDO>  (76) 
F 20

>  <SCORE>  (76) 
-12.560

>  <name>  (76) 
75

>  <ligand_id>  (76) 
75

>  <original_smiles>  (76) 
[H]c1c([H])c([H])c2c(c1[H])C([H])([H])C([H])([H])C([H])([H])C2([H])N([H])C(=O)C1([H])N(C(=O)C([H])(N([H])C(=O)C([H])(N([H])C([H])([H])[H])C([H])([H])[H])C(C([H])([H])[H])(C([H])([H])[H])C([H])([H])[H])C([H])([H])c2c([H])c(OC([H])([H])C([H])(C(C([H])([H])[H])(C([H])(C([H])([H])[H])C([H])([H])[H])C3([H])C([H])([H])C([H])([H])C([H])([H])C4(C([H])([H])C([H])([H])N(C(=O)N5C([H])([H])C([H])([H])C([H])([H])C([H])(n6nc(-c7c([H])c([H])c(Oc8c([H])c([H])c(F)c([H])c8F)c([H])c7[H])c(C(=O)N([H])[H])c6N([H])[H])C5([H])[H])C([H])([H])C4([H])[H])C([H])([H])C3([H])[H])[N+]([H])([H])[H])c([H])c([H])c2C1([H])[H]

>  <smiles>  (76) 
[H]c1c([H])c([H])c2c(c1[H])C([H])([H])C([H])([H])C([H])([H])C2([H])N([H])C(=O)C1([H])N(C(=O)C([H])(N([H])C(=O)C([H])(N([H])C([H])([H])[H])C([H])([H])[H])C(C([H])([H])[H])(C([H])([H])[H])C([H])([H])[H])C([H])([H])c2c([H])c(OC([H])([H])C([H])(C(C([H])([H])[H])(C([H])(C([H])([H])[H])C([H])([H])[H])C3([H])C([H])([H])C([H])([H])C([H])([H])C4(C([H])([H])C([H])([H])N(C(=O)N5C([H])([H])C([H])([H])C([H])([H])C([H])(n6nc(-c7c([H])c([H])c(Oc8c([H])c([H])c(F)c([H])c8F)c([H])c7[H])c(C(=O)N([H])[H])c6N([H])[H])C5([H])[H])C([H])([H])C4([H])[H])C([H])([H])C3([H])[H])[N+]([H])([H])[H])c([H])c([H])c2C1([H])[H]

$$$$
76:0:0
     RDKit          3D

 90 97  0  0  1  0  0  0  0  0999 V2000
  -28.9750  -22.2860   20.3180 C   0  0  0  0  0  3  0  0  0  0  0  0
  -29.9220  -22.5540   21.4230 N   0  0  0  0  0  4  0  0  0  0  0  0
  -30.6620  -21.8780   21.4450 H   0  0  0  0  0  0  0  0  0  0  0  0
  -29.4470  -22.5400   22.3100 H   0  0  0  0  0  0  0  0  0  0  0  0
  -30.3460  -23.4600   21.3160 H   0  0  0  0  0  0  0  0  0  0  0  0
  -28.7400  -20.3700   20.3600 C   0  0  0  0  0  2  0  0  0  0  0  0
  -29.7640  -18.7570   20.1190 C   0  0  0  0  0  0  0  0  0  0  0  0
  -30.2780  -15.6670   20.1220 C   0  0  0  0  0  0  0  0  0  0  0  0
  -30.3240  -13.1610   19.2420 C   0  0  0  0  0  2  0  0  0  0  0  0
  -29.3850  -12.8060   18.0570 C   0  0  0  0  0  2  0  0  0  0  0  0
  -27.9760  -12.4570   18.5580 C   0  0  0  0  0  2  0  0  0  0  0  0
  -27.5110  -13.4310   19.6660 C   0  0  0  0  0  3  0  0  0  0  0  0
  -28.5850  -13.6980   20.7470 C   0  0  0  0  0  2  0  0  0  0  0  0
  -29.7400  -14.3150   20.0580 N   0  0  0  0  0  0  0  0  0  0  0  0
  -31.4970  -15.6190   19.8890 O   0  0  0  0  0  0  0  0  0  0  0  0
  -29.5260  -17.0140   20.2260 N   0  0  0  0  0  4  0  0  0  0  0  0
  -28.5500  -16.8180   20.3950 H   0  0  0  0  0  0  0  0  0  0  0  0
  -25.1760  -13.9300   20.5340 C   0  0  0  0  0  0  0  0  0  0  0  0
  -24.1360  -13.1350   20.9240 C   0  0  0  0  0  0  0  0  0  0  0  0
  -24.6130  -11.7900   20.8380 C   0  0  0  0  0  0  0  0  0  0  0  0
  -26.2150  -13.0740   20.2250 N   0  0  0  0  0  0  0  0  0  0  0  0
  -25.8940  -11.7770   20.4770 N   0  0  0  0  0  0  0  0  0  0  0  0
  -23.9000  -10.5190   21.0210 C   0  0  0  0  0  0  0  0  0  0  0  0
  -24.3430   -9.5470   21.9460 C   0  0  0  0  0  3  0  0  0  0  0  0
  -23.6250   -8.3440   22.1190 C   0  0  0  0  0  3  0  0  0  0  0  0
  -22.4500   -8.1030   21.3690 C   0  0  0  0  0  0  0  0  0  0  0  0
  -22.0270   -9.0630   20.4330 C   0  0  0  0  0  3  0  0  0  0  0  0
  -22.7450  -10.2570   20.2570 C   0  0  0  0  0  3  0  0  0  0  0  0
  -21.7030   -6.9530   21.4540 O   0  0  0  0  0  0  0  0  0  0  0  0
  -21.6310   -6.2220   22.6130 C   0  0  0  0  0  0  0  0  0  0  0  0
  -21.1310   -6.7760   23.8120 C   0  0  0  0  0  3  0  0  0  0  0  0
  -21.0080   -5.9710   24.9610 C   0  0  0  0  0  3  0  0  0  0  0  0
  -21.3790   -4.6120   24.9140 C   0  0  0  0  0  0  0  0  0  0  0  0
  -21.8730   -4.0590   23.7200 C   0  0  0  0  0  3  0  0  0  0  0  0
  -21.9960   -4.8610   22.5720 C   0  0  0  0  0  0  0  0  0  0  0  0
  -22.4520   -4.3170   21.4180 F   0  0  0  0  0  0  0  0  0  0  0  0
  -21.2550   -3.8370   26.0160 F   0  0  0  0  0  0  0  0  0  0  0  0
  -22.7470  -13.5960   21.2550 C   0  0  0  0  0  0  0  0  0  0  0  0
  -22.0550  -12.8760   22.1270 N   0  0  0  0  0  0  0  0  0  0  0  0
  -22.2870  -14.6290   20.7720 O   0  0  0  0  0  0  0  0  0  0  0  0
  -22.4430  -12.0430   22.5420 H   0  0  0  0  0  0  0  0  0  0  0  0
  -21.1210  -13.1660   22.3880 H   0  0  0  0  0  0  0  0  0  0  0  0
  -25.3190  -15.3070   20.3830 N   0  0  0  0  0  0  0  0  0  0  0  0
  -24.5460  -15.9470   20.5320 H   0  0  0  0  0  0  0  0  0  0  0  0
  -26.1330  -15.7550   19.9840 H   0  0  0  0  0  0  0  0  0  0  0  0
  -31.2260  -19.0490   20.4670 C   0  0  0  0  0  0  0  0  0  0  0  0
  -31.6830  -18.7530   21.8880 C   0  0  0  0  0  1  0  0  0  0  0  0
  -32.0270  -19.5260   19.6600 O   0  0  0  0  0  0  0  0  0  0  0  0
  -27.9350  -23.9080   20.2470 C   0  0  0  0  0  2  0  0  0  0  0  0
  -28.1220  -25.6480   20.2910 O   0  0  0  0  0  0  0  0  0  0  0  0
  -24.6150  -31.9120   23.1770 C   0  0  0  0  0  0  0  0  0  0  0  0
  -27.1350  -26.8350   20.2340 C   0  0  0  0  0  0  0  0  0  0  0  0
  -23.4210  -30.5000   21.5560 C   0  0  0  0  0  3  0  0  0  0  0  0
  -24.8610  -28.8400   20.1610 C   0  0  0  0  0  0  0  0  0  0  0  0
  -25.9960  -30.6510   21.4200 C   0  0  0  0  0  2  0  0  0  0  0  0
  -26.0580  -29.2140   20.7830 C   0  0  0  0  0  0  0  0  0  0  0  0
  -27.1820  -28.2390   20.7860 C   0  0  0  0  0  3  0  0  0  0  0  0
  -25.9030  -26.6610   19.5550 C   0  0  0  0  0  3  0  0  0  0  0  0
  -24.8200  -27.5880   19.5240 C   0  0  0  0  0  3  0  0  0  0  0  0
  -23.6540  -29.7850   20.1950 C   0  0  0  0  0  2  0  0  0  0  0  0
  -24.7020  -31.0540   22.1030 N   0  0  0  0  0  0  0  0  0  0  0  0
  -23.5240  -32.2150   23.6900 O   0  0  0  0  0  0  0  0  0  0  0  0
  -22.7080  -29.5310   22.5400 C   0  0  0  0  0  0  0  0  0  0  0  0
  -21.3760  -29.3670   22.4140 N   0  0  0  0  0  0  0  0  0  0  0  0
  -23.3660  -28.9210   23.3860 O   0  0  0  0  0  0  0  0  0  0  0  0
  -20.8940  -29.9120   21.7120 H   0  0  0  0  0  0  0  0  0  0  0  0
  -17.9950  -28.1440   22.9380 C   0  0  0  0  0  0  0  0  0  0  0  0
  -20.5540  -28.4380   23.1990 C   0  0  0  0  0  3  0  0  0  0  0  0
  -20.6650  -26.9950   22.6510 C   0  0  0  0  0  2  0  0  0  0  0  0
  -19.5680  -26.6490   21.6390 C   0  0  0  0  0  2  0  0  0  0  0  0
  -18.1840  -26.7900   22.2780 C   0  0  0  0  0  2  0  0  0  0  0  0
  -19.1070  -28.9240   23.3560 C   0  0  0  0  0  0  0  0  0  0  0  0
  -18.8710  -30.1890   23.9390 C   0  0  0  0  0  3  0  0  0  0  0  0
  -17.5600  -30.6740   24.1040 C   0  0  0  0  0  3  0  0  0  0  0  0
  -16.4650  -29.8930   23.6970 C   0  0  0  0  0  3  0  0  0  0  0  0
  -16.6830  -28.6290   23.1210 C   0  0  0  0  0  3  0  0  0  0  0  0
  -25.8810  -32.5670   23.8070 C   0  0  0  0  0  3  0  0  0  0  0  0
  -25.5600  -33.9690   24.1350 N   0  0  0  0  0  0  0  0  0  0  0  0
  -25.8650  -35.0290   23.3750 C   0  0  0  0  0  0  0  0  0  0  0  0
  -26.5040  -34.9280   22.3250 O   0  0  0  0  0  0  0  0  0  0  0  0
  -24.9880  -34.1180   24.9540 H   0  0  0  0  0  0  0  0  0  0  0  0
  -24.1120  -36.8170   23.0940 C   0  0  0  0  0  1  0  0  0  0  0  0
  -25.3910  -36.4200   23.8490 C   0  0  0  0  0  3  0  0  0  0  0  0
  -27.5510  -37.3340   24.5840 C   0  0  0  0  0  1  0  0  0  0  0  0
  -26.4110  -37.4810   23.6830 N   0  0  0  0  0  0  0  0  0  0  0  0
  -26.0030  -38.4000   23.8330 H   0  0  0  0  0  0  0  0  0  0  0  0
  -26.3850  -31.8170   25.1040 C   0  0  1  0  0  0  0  0  0  0  0  0
  -25.2820  -31.5970   26.1670 C   0  0  0  0  0  1  0  0  0  0  0  0
  -26.9720  -30.4330   24.7500 C   0  0  0  0  0  1  0  0  0  0  0  0
  -27.5340  -32.6190   25.7610 C   0  0  0  0  0  1  0  0  0  0  0  0
  1 49  1  0
  1  6  1  0
  1  2  1  0
  2  3  1  0
  2  4  1  0
  5  2  1  0
  7 16  2  0
  7  6  1  0
  7 46  1  0
  8 16  1  0
  9 14  1  0
 10 11  1  0
 10  9  1  0
 12 11  1  0
 12 21  1  0
 12 13  1  0
 14  8  1  0
 14 13  1  0
 15  8  2  0
 16 17  1  0
 18 19  2  0
 19 38  1  0
 20 19  1  0
 20 23  1  0
 21 22  1  0
 21 18  1  0
 22 20  2  0
 23 24  1  0
 24 25  2  0
 26 29  1  0
 26 25  1  0
 27 26  2  0
 28 27  1  0
 28 23  2  0
 29 30  1  0
 30 31  1  0
 31 32  2  0
 33 32  1  0
 33 37  1  0
 34 33  2  0
 35 30  2  0
 35 34  1  0
 36 35  1  0
 38 39  1  0
 39 42  1  0
 39 41  1  0
 40 38  2  0
 43 44  1  0
 43 18  1  0
 45 43  1  0
 46 47  1  0
 48 46  2  0
 49 50  1  0
 51 62  2  0
 52 50  1  0
 52 57  1  0
 53 61  1  0
 53 63  1  0
 54 60  1  0
 54 56  1  0
 55 61  1  0
 56 57  2  0
 56 55  1  0
 58 52  2  0
 59 58  1  0
 59 54  2  0
 60 53  1  0
 61 51  1  0
 63 65  2  0
 64 63  1  0
 66 64  1  0
 67 76  2  0
 67 72  1  0
 68 64  1  0
 68 72  1  0
 69 68  1  0
 70 71  1  0
 70 69  1  0
 71 67  1  0
 72 73  2  0
 73 74  1  0
 75 74  2  0
 76 75  1  0
 77 51  1  0
 77 78  1  0
 77 87  1  0
 78 81  1  0
 79 83  1  0
 79 78  1  0
 80 79  2  0
 83 82  1  0
 85 86  1  0
 85 83  1  0
 85 84  1  0
 87 90  1  1
 87 88  1  0
 89 87  1  0
M  ISO  4   8 100  16 100  49 101  50 101
M  END
>  <TORSDO>  (77) 
F 21

>  <SCORE>  (77) 
-16.403

>  <name>  (77) 
76

>  <ligand_id>  (77) 
76

>  <original_smiles>  (77) 
[H]c1c([H])c([H])c2c(c1[H])C([H])([H])C([H])([H])C([H])([H])C2([H])N([H])C(=O)C1([H])N(C(=O)C([H])(N([H])C(=O)C([H])(N([H])C([H])([H])[H])C([H])([H])[H])C(C([H])([H])[H])(C([H])([H])[H])C([H])([H])[H])C([H])([H])c2c([H])c(OC([H])([H])C([H])(C([H])([H])C([H])(C(=O)C([H])([H])[H])N([H])C(=O)N3C([H])([H])C([H])([H])C([H])([H])C([H])(n4nc(-c5c([H])c([H])c(Oc6c([H])c([H])c(F)c([H])c6F)c([H])c5[H])c(C(=O)N([H])[H])c4N([H])[H])C3([H])[H])[N+]([H])([H])[H])c([H])c([H])c2C1([H])[H]

>  <smiles>  (77) 
[H]c1c([H])c([H])c2c(c1[H])C([H])([H])C([H])([H])C([H])([H])C2([H])N([H])C(=O)C1([H])N(C(=O)C([H])(N([H])C(=O)C([H])(N([H])C([H])([H])[H])C([H])([H])[H])C(C([H])([H])[H])(C([H])([H])[H])C([H])([H])[H])C([H])([H])c2c([H])c(OC([H])([H])C([H])(C([H])([H])C([H])(C(=O)C([H])([H])[H])N([H])C(=O)N3C([H])([H])C([H])([H])C([H])([H])C([H])(n4nc(-c5c([H])c([H])c(Oc6c([H])c([H])c(F)c([H])c6F)c([H])c5[H])c(C(=O)N([H])[H])c4N([H])[H])C3([H])[H])[N+]([H])([H])[H])c([H])c([H])c2C1([H])[H]

$$$$
77:0:0
     RDKit          3D

102109  0  0  1  0  0  0  0  0999 V2000
  -29.0360  -21.0600   20.2010 C   0  0  0  0  0  3  0  0  0  0  0  0
  -29.5940  -21.0150   21.6490 C   0  0  0  0  0  2  0  0  0  0  0  0
  -31.6560  -21.5960   23.0010 C   0  0  0  0  0  1  0  0  0  0  0  0
  -29.7940  -23.2440   22.9460 C   0  0  0  0  0  1  0  0  0  0  0  0
  -30.5240  -22.1620   22.1250 C   0  0  0  0  0  3  0  0  0  0  0  0
  -28.7990  -19.3140   19.8220 C   0  0  0  0  0  2  0  0  0  0  0  0
  -29.9120  -17.8980   19.7730 C   0  0  0  0  0  0  0  0  0  0  0  0
  -30.3390  -14.9990   19.8850 C   0  0  0  0  0  0  0  0  0  0  0  0
  -30.2880  -12.5610   19.0500 C   0  0  0  0  0  2  0  0  0  0  0  0
  -29.3040  -12.3410   17.8730 C   0  0  0  0  0  2  0  0  0  0  0  0
  -27.8870  -12.0540   18.3990 C   0  0  0  0  0  2  0  0  0  0  0  0
  -27.4830  -13.0180   19.5440 C   0  0  0  0  0  3  0  0  0  0  0  0
  -28.5910  -13.2020   20.6030 C   0  0  0  0  0  2  0  0  0  0  0  0
  -29.7740  -13.7000   19.8920 N   0  0  0  0  0  0  0  0  0  0  0  0
  -31.5430  -15.0060   19.5960 O   0  0  0  0  0  0  0  0  0  0  0  0
  -29.5960  -16.2730   19.9720 N   0  0  0  0  0  4  0  0  0  0  0  0
  -28.6240  -16.1040   20.1870 H   0  0  0  0  0  0  0  0  0  0  0  0
  -25.1570  -13.5200   20.4570 C   0  0  0  0  0  0  0  0  0  0  0  0
  -24.1380  -12.7170   20.8850 C   0  0  0  0  0  0  0  0  0  0  0  0
  -24.6270  -11.3770   20.8080 C   0  0  0  0  0  0  0  0  0  0  0  0
  -26.1990  -12.6690   20.1380 N   0  0  0  0  0  0  0  0  0  0  0  0
  -25.8970  -11.3730   20.4140 N   0  0  0  0  0  0  0  0  0  0  0  0
  -23.9400  -10.0990   21.0300 C   0  0  0  0  0  0  0  0  0  0  0  0
  -24.3850   -9.1770   22.0040 C   0  0  0  0  0  3  0  0  0  0  0  0
  -23.6930   -7.9640   22.2120 C   0  0  0  0  0  3  0  0  0  0  0  0
  -22.5400   -7.6650   21.4460 C   0  0  0  0  0  0  0  0  0  0  0  0
  -22.1130   -8.5740   20.4620 C   0  0  0  0  0  3  0  0  0  0  0  0
  -22.8070   -9.7780   20.2520 C   0  0  0  0  0  3  0  0  0  0  0  0
  -21.8190   -6.5000   21.5610 O   0  0  0  0  0  0  0  0  0  0  0  0
  -21.7390   -5.8170   22.7470 C   0  0  0  0  0  0  0  0  0  0  0  0
  -21.1380   -6.3820   23.8940 C   0  0  0  0  0  3  0  0  0  0  0  0
  -21.0150   -5.6200   25.0730 C   0  0  0  0  0  3  0  0  0  0  0  0
  -21.4820   -4.2920   25.1060 C   0  0  0  0  0  0  0  0  0  0  0  0
  -22.0740   -3.7260   23.9640 C   0  0  0  0  0  3  0  0  0  0  0  0
  -22.2010   -4.4850   22.7890 C   0  0  0  0  0  0  0  0  0  0  0  0
  -22.7540   -3.9270   21.6840 F   0  0  0  0  0  0  0  0  0  0  0  0
  -21.3570   -3.5580   26.2360 F   0  0  0  0  0  0  0  0  0  0  0  0
  -22.7500  -13.1620   21.2470 C   0  0  0  0  0  0  0  0  0  0  0  0
  -22.0970  -12.4490   22.1560 N   0  0  0  0  0  0  0  0  0  0  0  0
  -22.2570  -14.1760   20.7560 O   0  0  0  0  0  0  0  0  0  0  0  0
  -22.5130  -11.6290   22.5720 H   0  0  0  0  0  0  0  0  0  0  0  0
  -21.1670  -12.7240   22.4390 H   0  0  0  0  0  0  0  0  0  0  0  0
  -25.2790  -14.8960   20.2810 N   0  0  0  0  0  0  0  0  0  0  0  0
  -24.5040  -15.5310   20.4440 H   0  0  0  0  0  0  0  0  0  0  0  0
  -26.0820  -15.3510   19.8690 H   0  0  0  0  0  0  0  0  0  0  0  0
  -30.9040  -17.9710   18.5510 C   0  0  0  0  0  3  0  0  0  0  0  0
  -32.2810  -17.7530   19.0250 N   0  0  0  0  0  4  0  0  0  0  0  0
  -32.5550  -18.4300   19.7140 H   0  0  0  0  0  0  0  0  0  0  0  0
  -32.9280  -17.7780   18.2570 H   0  0  0  0  0  0  0  0  0  0  0  0
  -32.3270  -16.8190   19.4390 H   0  0  0  0  0  0  0  0  0  0  0  0
  -30.8610  -19.2390   17.6610 C   0  0  0  0  0  2  0  0  0  0  0  0
  -33.0660  -18.9890   16.2940 C   0  0  0  0  0  1  0  0  0  0  0  0
  -31.2710  -20.5530   15.5700 C   0  0  0  0  0  1  0  0  0  0  0  0
  -30.9030  -18.0950   15.3710 C   0  0  0  0  0  1  0  0  0  0  0  0
  -31.5340  -19.1960   16.2500 C   0  0  2  0  0  0  0  0  0  0  0  0
  -27.9320  -22.4620   20.0900 C   0  0  0  0  0  3  0  0  0  0  0  0
  -26.8140  -21.9850   19.2480 N   0  0  0  0  0  4  0  0  0  0  0  0
  -26.0460  -22.6320   19.2680 H   0  0  0  0  0  0  0  0  0  0  0  0
  -26.4760  -21.0980   19.5780 H   0  0  0  0  0  0  0  0  0  0  0  0
  -27.1000  -21.8710   18.2910 H   0  0  0  0  0  0  0  0  0  0  0  0
  -28.1850  -24.1800   19.6390 C   0  0  0  0  0  2  0  0  0  0  0  0
  -27.9850  -25.6810   20.2480 O   0  0  0  0  0  0  0  0  0  0  0  0
  -24.5320  -31.6770   23.0770 C   0  0  0  0  0  0  0  0  0  0  0  0
  -26.9770  -26.7520   20.0900 C   0  0  0  0  0  0  0  0  0  0  0  0
  -23.3050  -30.3070   21.4340 C   0  0  0  0  0  3  0  0  0  0  0  0
  -24.7160  -28.6560   20.0250 C   0  0  0  0  0  0  0  0  0  0  0  0
  -25.8730  -30.4530   21.3030 C   0  0  0  0  0  2  0  0  0  0  0  0
  -25.9050  -29.0430   20.6530 C   0  0  0  0  0  0  0  0  0  0  0  0
  -27.0250  -28.1060   20.6700 C   0  0  0  0  0  3  0  0  0  0  0  0
  -25.7660  -26.5030   19.4070 C   0  0  0  0  0  3  0  0  0  0  0  0
  -24.6680  -27.4040   19.3850 C   0  0  0  0  0  3  0  0  0  0  0  0
  -23.5210  -29.6070   20.0630 C   0  0  0  0  0  2  0  0  0  0  0  0
  -24.5920  -30.8390   21.9920 N   0  0  0  0  0  0  0  0  0  0  0  0
  -23.4480  -32.0020   23.5900 O   0  0  0  0  0  0  0  0  0  0  0  0
  -22.5770  -29.3400   22.4030 C   0  0  0  0  0  0  0  0  0  0  0  0
  -21.2410  -29.2320   22.2840 N   0  0  0  0  0  0  0  0  0  0  0  0
  -23.2200  -28.6830   23.2260 O   0  0  0  0  0  0  0  0  0  0  0  0
  -20.7770  -29.8120   21.5990 H   0  0  0  0  0  0  0  0  0  0  0  0
  -17.8060  -28.2050   22.8420 C   0  0  0  0  0  0  0  0  0  0  0  0
  -20.3830  -28.3270   23.0560 C   0  0  0  0  0  3  0  0  0  0  0  0
  -20.3940  -26.9020   22.4570 C   0  0  0  0  0  2  0  0  0  0  0  0
  -19.2570  -26.6560   21.4610 C   0  0  0  0  0  2  0  0  0  0  0  0
  -17.8970  -26.8620   22.1360 C   0  0  0  0  0  2  0  0  0  0  0  0
  -18.9730  -28.9000   23.2590 C   0  0  0  0  0  0  0  0  0  0  0  0
  -18.8340  -30.1580   23.8840 C   0  0  0  0  0  3  0  0  0  0  0  0
  -17.5610  -30.7230   24.0900 C   0  0  0  0  0  3  0  0  0  0  0  0
  -16.4100  -30.0250   23.6870 C   0  0  0  0  0  3  0  0  0  0  0  0
  -16.5330  -28.7680   23.0690 C   0  0  0  0  0  3  0  0  0  0  0  0
  -25.8210  -32.2820   23.7140 C   0  0  0  0  0  3  0  0  0  0  0  0
  -26.3070  -31.4950   24.9940 C   0  0  1  0  0  0  0  0  0  0  0  0
  -25.1970  -31.2690   26.0470 C   0  0  0  0  0  1  0  0  0  0  0  0
  -26.8740  -30.1100   24.6070 C   0  0  0  0  0  1  0  0  0  0  0  0
  -27.4620  -32.2680   25.6740 C   0  0  0  0  0  1  0  0  0  0  0  0
  -25.5370  -33.6870   24.0600 N   0  0  0  0  0  0  0  0  0  0  0  0
  -25.8980  -34.7470   23.3250 C   0  0  0  0  0  0  0  0  0  0  0  0
  -26.5650  -34.6440   22.2930 O   0  0  0  0  0  0  0  0  0  0  0  0
  -24.9460  -33.8400   24.8630 H   0  0  0  0  0  0  0  0  0  0  0  0
  -24.2230  -36.5990   23.0020 C   0  0  0  0  0  1  0  0  0  0  0  0
  -25.4480  -36.1390   23.8090 C   0  0  0  0  0  3  0  0  0  0  0  0
  -27.5870  -36.9680   24.6890 C   0  0  0  0  0  1  0  0  0  0  0  0
  -26.5100  -37.1660   23.7210 N   0  0  0  0  0  0  0  0  0  0  0  0
  -26.1250  -38.0960   23.8640 H   0  0  0  0  0  0  0  0  0  0  0  0
  1  6  1  0
  1  2  1  0
  2  5  1  0
  5  4  1  0
  5  3  1  0
  7  6  1  0
  7 16  2  0
  8 14  1  0
  8 16  1  0
  9 14  1  0
 10 11  1  0
 10  9  1  0
 12 11  1  0
 12 21  1  0
 12 13  1  0
 14 13  1  0
 15  8  2  0
 16 17  1  0
 18 19  2  0
 19 38  1  0
 20 19  1  0
 20 23  1  0
 21 22  1  0
 21 18  1  0
 22 20  2  0
 23 24  1  0
 24 25  2  0
 26 29  1  0
 26 25  1  0
 27 26  2  0
 28 27  1  0
 28 23  2  0
 29 30  1  0
 30 35  2  0
 30 31  1  0
 31 32  2  0
 32 33  1  0
 33 37  1  0
 34 33  2  0
 35 34  1  0
 36 35  1  0
 38 39  1  0
 39 42  1  0
 39 41  1  0
 40 38  2  0
 43 44  1  0
 43 18  1  0
 45 43  1  0
 46 51  1  0
 46 47  1  0
 46  7  1  0
 47 50  1  0
 47 48  1  0
 49 47  1  0
 55 53  1  6
 54 55  1  0
 55 52  1  0
 55 51  1  0
 56 61  1  0
 56  1  1  0
 57 58  1  0
 57 59  1  0
 57 56  1  0
 60 57  1  0
 61 62  1  0
 63 74  2  0
 64 62  1  0
 64 69  1  0
 65 73  1  0
 65 75  1  0
 66 72  1  0
 66 68  1  0
 67 73  1  0
 68 69  2  0
 68 67  1  0
 70 64  2  0
 71 70  1  0
 71 66  2  0
 72 65  1  0
 73 63  1  0
 75 77  2  0
 76 75  1  0
 78 76  1  0
 79 88  2  0
 79 84  1  0
 80 76  1  0
 80 84  1  0
 81 80  1  0
 82 83  1  0
 82 81  1  0
 83 79  1  0
 84 85  2  0
 85 86  1  0
 87 86  2  0
 88 87  1  0
 89 63  1  0
 89 94  1  0
 89 90  1  0
 90 93  1  1
 90 91  1  0
 92 90  1  0
 94 97  1  0
 95 99  1  0
 95 94  1  0
 96 95  2  0
 99 98  1  0
101 99  1  0
101102  1  0
101100  1  0
M  ISO  4   8 100  16 100  61 101  62 101
M  END
>  <TORSDO>  (78) 
F 27

>  <SCORE>  (78) 
-13.257

>  <name>  (78) 
77

>  <ligand_id>  (78) 
77

>  <original_smiles>  (78) 
[H]c1c([H])c([H])c2c(c1[H])C([H])([H])C([H])([H])C([H])([H])C2([H])N([H])C(=O)C1([H])N(C(=O)C([H])(N([H])C(=O)C([H])(N([H])C([H])([H])[H])C([H])([H])[H])C(C([H])([H])[H])(C([H])([H])[H])C([H])([H])[H])C([H])([H])c2c([H])c(OC([H])([H])C([H])(C([H])(C([H])([H])C([H])(N([H])C(=O)N3C([H])([H])C([H])([H])C([H])([H])C([H])(n4nc(-c5c([H])c([H])c(Oc6c([H])c([H])c(F)c([H])c6F)c([H])c5[H])c(C(=O)N([H])[H])c4N([H])[H])C3([H])[H])C([H])(C([H])([H])C(C([H])([H])[H])(C([H])([H])[H])C([H])([H])[H])[N+]([H])([H])[H])C([H])([H])C([H])(C([H])([H])[H])C([H])([H])[H])[N+]([H])([H])[H])c([H])c([H])c2C1([H])[H]

>  <smiles>  (78) 
[H]c1c([H])c([H])c2c(c1[H])C([H])([H])C([H])([H])C([H])([H])C2([H])N([H])C(=O)C1([H])N(C(=O)C([H])(N([H])C(=O)C([H])(N([H])C([H])([H])[H])C([H])([H])[H])C(C([H])([H])[H])(C([H])([H])[H])C([H])([H])[H])C([H])([H])c2c([H])c(OC([H])([H])C([H])(C([H])(C([H])([H])C([H])(N([H])C(=O)N3C([H])([H])C([H])([H])C([H])([H])C([H])(n4nc(-c5c([H])c([H])c(Oc6c([H])c([H])c(F)c([H])c6F)c([H])c5[H])c(C(=O)N([H])[H])c4N([H])[H])C3([H])[H])C([H])(C([H])([H])C(C([H])([H])[H])(C([H])([H])[H])C([H])([H])[H])[N+]([H])([H])[H])C([H])([H])C([H])(C([H])([H])[H])C([H])([H])[H])[N+]([H])([H])[H])c([H])c([H])c2C1([H])[H]

$$$$
78:0:0
     RDKit          3D

 94101  0  0  1  0  0  0  0  0999 V2000
  -29.4550  -21.9950   20.1830 C   0  0  0  0  0  3  0  0  0  0  0  0
  -28.1040  -21.9650   20.9120 C   0  0  0  0  0  0  0  0  0  0  0  0
  -27.0030  -22.0780   20.1820 N   0  0  0  0  0  0  0  0  0  0  0  0
  -28.0480  -21.8350   22.1340 O   0  0  0  0  0  0  0  0  0  0  0  0
  -27.0570  -22.1810   19.1770 H   0  0  0  0  0  0  0  0  0  0  0  0
  -26.0950  -22.0460   20.6260 H   0  0  0  0  0  0  0  0  0  0  0  0
  -30.2820  -20.6490   20.3550 C   0  0  0  0  0  3  0  0  0  0  0  0
  -29.5070  -19.3030   20.5720 C   0  0  0  0  0  3  0  0  0  0  0  0
  -30.2680  -17.9650   20.2760 C   0  0  0  0  0  2  0  0  0  0  0  0
  -30.4070  -16.9760   21.4760 C   0  0  0  0  0  2  0  0  0  0  0  0
  -30.7840  -14.6550   20.4780 C   0  0  0  0  0  0  0  0  0  0  0  0
  -30.5570  -12.5040   19.2740 C   0  0  0  0  0  2  0  0  0  0  0  0
  -29.6050  -12.6690   18.0700 C   0  0  0  0  0  2  0  0  0  0  0  0
  -28.1340  -12.4970   18.4990 C   0  0  0  0  0  2  0  0  0  0  0  0
  -27.7720  -13.3310   19.7570 C   0  0  0  0  0  3  0  0  0  0  0  0
  -28.8260  -13.1070   20.8650 C   0  0  0  0  0  2  0  0  0  0  0  0
  -30.1480  -13.4610   20.3140 N   0  0  0  0  0  0  0  0  0  0  0  0
  -31.8760  -14.9180   19.9650 O   0  0  0  0  0  0  0  0  0  0  0  0
  -30.0820  -15.5720   21.1680 N   0  0  0  0  0  0  0  0  0  0  0  0
  -29.2180  -15.2250   21.5600 H   0  0  0  0  0  0  0  0  0  0  0  0
  -25.3560  -13.8980   20.4430 C   0  0  0  0  0  0  0  0  0  0  0  0
  -24.2980  -13.1090   20.8070 C   0  0  0  0  0  0  0  0  0  0  0  0
  -24.7840  -11.7660   20.7860 C   0  0  0  0  0  0  0  0  0  0  0  0
  -26.4200  -13.0350   20.2250 N   0  0  0  0  0  0  0  0  0  0  0  0
  -26.0780  -11.7480   20.4870 N   0  0  0  0  0  0  0  0  0  0  0  0
  -24.0810  -10.4910   20.9750 C   0  0  0  0  0  0  0  0  0  0  0  0
  -24.5070   -9.5500   21.9400 C   0  0  0  0  0  3  0  0  0  0  0  0
  -23.8050   -8.3380   22.1150 C   0  0  0  0  0  3  0  0  0  0  0  0
  -22.6620   -8.0600   21.3280 C   0  0  0  0  0  0  0  0  0  0  0  0
  -22.2570   -8.9900   20.3540 C   0  0  0  0  0  3  0  0  0  0  0  0
  -22.9600  -10.1920   20.1760 C   0  0  0  0  0  3  0  0  0  0  0  0
  -21.9310   -6.9000   21.4130 O   0  0  0  0  0  0  0  0  0  0  0  0
  -21.8410   -6.1900   22.5830 C   0  0  0  0  0  0  0  0  0  0  0  0
  -21.2850   -6.7510   23.7540 C   0  0  0  0  0  3  0  0  0  0  0  0
  -21.1470   -5.9660   24.9160 C   0  0  0  0  0  3  0  0  0  0  0  0
  -21.5520   -4.6170   24.9070 C   0  0  0  0  0  0  0  0  0  0  0  0
  -22.1000   -4.0540   23.7410 C   0  0  0  0  0  3  0  0  0  0  0  0
  -22.2410   -4.8380   22.5810 C   0  0  0  0  0  0  0  0  0  0  0  0
  -22.7490   -4.2850   21.4540 F   0  0  0  0  0  0  0  0  0  0  0  0
  -21.4130   -3.8590   26.0200 F   0  0  0  0  0  0  0  0  0  0  0  0
  -22.8890  -13.5600   21.0710 C   0  0  0  0  0  0  0  0  0  0  0  0
  -22.1670  -12.8480   21.9260 N   0  0  0  0  0  0  0  0  0  0  0  0
  -22.4380  -14.5800   20.5530 O   0  0  0  0  0  0  0  0  0  0  0  0
  -22.5430  -12.0240   22.3710 H   0  0  0  0  0  0  0  0  0  0  0  0
  -21.2210  -13.1290   22.1430 H   0  0  0  0  0  0  0  0  0  0  0  0
  -25.4990  -15.2720   20.2560 N   0  0  0  0  0  0  0  0  0  0  0  0
  -24.7210  -15.9170   20.3380 H   0  0  0  0  0  0  0  0  0  0  0  0
  -26.3490  -15.7130   19.9270 H   0  0  0  0  0  0  0  0  0  0  0  0
  -30.2550  -23.2690   20.6390 C   0  0  0  0  0  2  0  0  0  0  0  0
  -30.1670  -24.7100   18.5480 C   0  0  0  0  0  1  0  0  0  0  0  0
  -31.0210  -25.6380   20.7390 C   0  0  0  0  0  1  0  0  0  0  0  0
  -29.9610  -24.7210   20.0770 C   0  0  2  0  0  0  0  0  0  0  0  0
  -28.5640  -25.3810   20.3900 C   0  0  0  0  0  2  0  0  0  0  0  0
  -28.5750  -26.8170   20.1270 O   0  0  0  0  0  0  0  0  0  0  0  0
  -24.6410  -31.9180   23.2630 C   0  0  0  0  0  0  0  0  0  0  0  0
  -27.3860  -27.5340   20.1430 C   0  0  0  0  0  0  0  0  0  0  0  0
  -23.4780  -30.5340   21.5750 C   0  0  0  0  0  3  0  0  0  0  0  0
  -24.9730  -29.0400   20.1400 C   0  0  0  0  0  0  0  0  0  0  0  0
  -26.0050  -30.9180   21.4260 C   0  0  0  0  0  2  0  0  0  0  0  0
  -26.1210  -29.5630   20.7530 C   0  0  0  0  0  0  0  0  0  0  0  0
  -27.3300  -28.8240   20.7350 C   0  0  0  0  0  3  0  0  0  0  0  0
  -26.2150  -27.0320   19.5320 C   0  0  0  0  0  3  0  0  0  0  0  0
  -25.0210  -27.7800   19.5200 C   0  0  0  0  0  3  0  0  0  0  0  0
  -23.7190  -29.8840   20.1850 C   0  0  0  0  0  2  0  0  0  0  0  0
  -24.7240  -31.1370   22.1470 N   0  0  0  0  0  0  0  0  0  0  0  0
  -23.5480  -32.1660   23.7950 O   0  0  0  0  0  0  0  0  0  0  0  0
  -22.8250  -29.4850   22.5060 C   0  0  0  0  0  0  0  0  0  0  0  0
  -21.5010  -29.3010   22.3720 N   0  0  0  0  0  0  0  0  0  0  0  0
  -23.5110  -28.8410   23.3040 O   0  0  0  0  0  0  0  0  0  0  0  0
  -21.0050  -29.8810   21.7100 H   0  0  0  0  0  0  0  0  0  0  0  0
  -18.1300  -28.0890   22.8590 C   0  0  0  0  0  0  0  0  0  0  0  0
  -20.6910  -28.3320   23.1140 C   0  0  0  0  0  3  0  0  0  0  0  0
  -20.7860  -26.9220   22.4860 C   0  0  0  0  0  2  0  0  0  0  0  0
  -19.6760  -26.6390   21.4690 C   0  0  0  0  0  2  0  0  0  0  0  0
  -18.3000  -26.7640   22.1300 C   0  0  0  0  0  2  0  0  0  0  0  0
  -19.2550  -28.8310   23.3050 C   0  0  0  0  0  0  0  0  0  0  0  0
  -19.0430  -30.0720   23.9460 C   0  0  0  0  0  3  0  0  0  0  0  0
  -17.7420  -30.5700   24.1440 C   0  0  0  0  0  3  0  0  0  0  0  0
  -16.6340  -29.8220   23.7110 C   0  0  0  0  0  3  0  0  0  0  0  0
  -16.8280  -28.5830   23.0750 C   0  0  0  0  0  3  0  0  0  0  0  0
  -25.9090  -32.5560   23.9130 C   0  0  0  0  0  3  0  0  0  0  0  0
  -25.5890  -33.9540   24.2350 N   0  0  0  0  0  0  0  0  0  0  0  0
  -25.9250  -35.0070   23.4780 C   0  0  0  0  0  0  0  0  0  0  0  0
  -26.6120  -34.9040   22.4590 O   0  0  0  0  0  0  0  0  0  0  0  0
  -24.9840  -34.1080   25.0300 H   0  0  0  0  0  0  0  0  0  0  0  0
  -24.2080  -36.8000   23.0710 C   0  0  0  0  0  1  0  0  0  0  0  0
  -25.4210  -36.3940   23.9220 C   0  0  0  0  0  3  0  0  0  0  0  0
  -27.5190  -37.2850   24.8320 C   0  0  0  0  0  1  0  0  0  0  0  0
  -26.4550  -37.4490   23.8470 N   0  0  0  0  0  0  0  0  0  0  0  0
  -26.0400  -38.3670   23.9850 H   0  0  0  0  0  0  0  0  0  0  0  0
  -26.3990  -31.7940   25.2050 C   0  0  1  0  0  0  0  0  0  0  0  0
  -25.2840  -31.5440   26.2470 C   0  0  0  0  0  1  0  0  0  0  0  0
  -27.0020  -30.4220   24.8340 C   0  0  0  0  0  1  0  0  0  0  0  0
  -27.5300  -32.5990   25.8950 C   0  0  0  0  0  1  0  0  0  0  0  0
  1  7  1  0
  1 49  1  0
  1  2  1  0
  2  4  2  0
  3  6  1  0
  3  2  1  0
  5  3  1  0
  7  8  2  0
  9  8  1  0
  9 10  1  0
 11 19  1  0
 12 17  1  0
 13 14  1  0
 13 12  1  0
 15 14  1  0
 15 24  1  0
 15 16  1  0
 17 11  1  0
 17 16  1  0
 18 11  2  0
 19 10  1  0
 19 20  1  0
 21 22  2  0
 22 41  1  0
 23 22  1  0
 23 26  1  0
 24 21  1  0
 24 25  1  0
 25 23  2  0
 26 27  1  0
 27 28  2  0
 29 32  1  0
 29 28  1  0
 30 29  2  0
 31 30  1  0
 31 26  2  0
 32 33  1  0
 33 34  1  0
 34 35  2  0
 36 35  1  0
 36 40  1  0
 37 36  2  0
 38 33  2  0
 38 37  1  0
 39 38  1  0
 41 42  1  0
 42 45  1  0
 42 44  1  0
 43 41  2  0
 46 47  1  0
 46 21  1  0
 48 46  1  0
 52 50  1  6
 52 53  1  0
 52 49  1  0
 52 51  1  0
 54 56  1  0
 54 53  1  0
 55 66  2  0
 56 61  1  0
 57 65  1  0
 57 67  1  0
 58 64  1  0
 58 60  1  0
 59 65  1  0
 60 59  1  0
 61 60  2  0
 62 56  2  0
 63 62  1  0
 63 58  2  0
 64 57  1  0
 65 55  1  0
 67 69  2  0
 68 67  1  0
 70 68  1  0
 71 80  2  0
 71 76  1  0
 72 68  1  0
 72 76  1  0
 73 72  1  0
 74 75  1  0
 74 73  1  0
 75 71  1  0
 76 77  2  0
 77 78  1  0
 79 78  2  0
 80 79  1  0
 81 55  1  0
 81 82  1  0
 81 91  1  0
 82 85  1  0
 83 87  1  0
 83 82  1  0
 84 83  2  0
 87 86  1  0
 89 87  1  0
 89 90  1  0
 89 88  1  0
 91 94  1  1
 91 92  1  0
 93 91  1  0
M  ISO  4  11 100  19 100  53 101  54 101
M  END
>  <TORSDO>  (79) 
F 24

>  <SCORE>  (79) 
-12.619

>  <name>  (79) 
78

>  <ligand_id>  (79) 
78

>  <original_smiles>  (79) 
[H]c1c([H])c([H])c2c(c1[H])C([H])([H])C([H])([H])C([H])([H])C2([H])N([H])C(=O)C1([H])N(C(=O)C([H])(N([H])C(=O)C([H])(N([H])C([H])([H])[H])C([H])([H])[H])C(C([H])([H])[H])(C([H])([H])[H])C([H])([H])[H])C([H])([H])c2c([H])c(OC([H])([H])C(C([H])([H])[H])(C([H])([H])[H])C([H])([H])C([H])(C(=O)N([H])[H])C([H])([H])C([H])([H])C([H])([H])C([H])([H])N([H])C(=O)N3C([H])([H])C([H])([H])C([H])([H])C([H])(n4nc(-c5c([H])c([H])c(Oc6c([H])c([H])c(F)c([H])c6F)c([H])c5[H])c(C(=O)N([H])[H])c4N([H])[H])C3([H])[H])c([H])c([H])c2C1([H])[H]

>  <smiles>  (79) 
[H]c1c([H])c([H])c2c(c1[H])C([H])([H])C([H])([H])C([H])([H])C2([H])N([H])C(=O)C1([H])N(C(=O)C([H])(N([H])C(=O)C([H])(N([H])C([H])([H])[H])C([H])([H])[H])C(C([H])([H])[H])(C([H])([H])[H])C([H])([H])[H])C([H])([H])c2c([H])c(OC([H])([H])C(C([H])([H])[H])(C([H])([H])[H])C([H])([H])C([H])(C(=O)N([H])[H])C([H])([H])C([H])([H])C([H])([H])C([H])([H])N([H])C(=O)N3C([H])([H])C([H])([H])C([H])([H])C([H])(n4nc(-c5c([H])c([H])c(Oc6c([H])c([H])c(F)c([H])c6F)c([H])c5[H])c(C(=O)N([H])[H])c4N([H])[H])C3([H])[H])c([H])c([H])c2C1([H])[H]

$$$$
79:0:0
     RDKit          3D

 88 96  0  0  1  0  0  0  0  0999 V2000
  -27.1720  -21.2980   19.6950 C   0  0  0  0  0  1  0  0  0  0  0  0
  -28.6280  -21.5230   19.5570 N   0  0  2  0  0  4  0  0  0  0  0  0
  -28.7260  -21.6770   18.5620 H   0  0  0  0  0  0  0  0  0  0  0  0
  -30.5700  -15.2260   19.8440 C   0  0  0  0  0  0  0  0  0  0  0  0
  -30.3960  -12.8220   18.9690 C   0  0  0  0  0  2  0  0  0  0  0  0
  -29.3920  -12.6800   17.8040 C   0  0  0  0  0  2  0  0  0  0  0  0
  -27.9750  -12.4360   18.3510 C   0  0  0  0  0  2  0  0  0  0  0  0
  -27.6170  -13.4000   19.5070 C   0  0  0  0  0  3  0  0  0  0  0  0
  -28.7410  -13.5310   20.5560 C   0  0  0  0  0  2  0  0  0  0  0  0
  -29.9420  -13.9650   19.8290 N   0  0  0  0  0  0  0  0  0  0  0  0
  -31.7810  -15.1860   19.5870 O   0  0  0  0  0  0  0  0  0  0  0  0
  -29.1820  -18.9370   18.5940 C   0  0  0  0  0  2  0  0  0  0  0  0
  -29.3210  -19.0740   20.9110 C   0  0  0  0  0  2  0  0  0  0  0  0
  -29.9220  -17.4590   18.6400 C   0  0  0  0  0  2  0  0  0  0  0  0
  -30.0840  -17.5970   20.9210 C   0  0  0  0  0  2  0  0  0  0  0  0
  -29.4660  -20.1050   19.6810 C   0  0  0  0  0  3  0  0  0  0  0  0
  -29.8770  -16.5220   19.8480 N   0  0  0  0  0  0  0  0  0  0  0  0
  -25.3100  -13.9590   20.4460 C   0  0  0  0  0  0  0  0  0  0  0  0
  -24.2680  -13.1770   20.8510 C   0  0  0  0  0  0  0  0  0  0  0  0
  -24.7190  -11.8260   20.7480 C   0  0  0  0  0  0  0  0  0  0  0  0
  -26.3270  -13.0840   20.1030 N   0  0  0  0  0  0  0  0  0  0  0  0
  -25.9880  -11.7950   20.3580 N   0  0  0  0  0  0  0  0  0  0  0  0
  -23.9940  -10.5630   20.9410 C   0  0  0  0  0  0  0  0  0  0  0  0
  -24.4310   -9.5940   21.8710 C   0  0  0  0  0  3  0  0  0  0  0  0
  -23.7020   -8.3980   22.0550 C   0  0  0  0  0  3  0  0  0  0  0  0
  -22.5240   -8.1630   21.3090 C   0  0  0  0  0  0  0  0  0  0  0  0
  -22.1070   -9.1210   20.3660 C   0  0  0  0  0  3  0  0  0  0  0  0
  -22.8350  -10.3060   20.1810 C   0  0  0  0  0  3  0  0  0  0  0  0
  -21.7660   -7.0200   21.4030 O   0  0  0  0  0  0  0  0  0  0  0  0
  -21.6620   -6.3200   22.5770 C   0  0  0  0  0  0  0  0  0  0  0  0
  -21.1300   -6.9050   23.7480 C   0  0  0  0  0  3  0  0  0  0  0  0
  -20.9770   -6.1290   24.9140 C   0  0  0  0  0  3  0  0  0  0  0  0
  -21.3440   -4.7700   24.9110 C   0  0  0  0  0  0  0  0  0  0  0  0
  -21.8690   -4.1850   23.7440 C   0  0  0  0  0  3  0  0  0  0  0  0
  -22.0230   -4.9580   22.5800 C   0  0  0  0  0  0  0  0  0  0  0  0
  -22.5090   -4.3840   21.4520 F   0  0  0  0  0  0  0  0  0  0  0  0
  -21.1900   -4.0220   26.0290 F   0  0  0  0  0  0  0  0  0  0  0  0
  -22.8910  -13.6530   21.2190 C   0  0  0  0  0  0  0  0  0  0  0  0
  -22.2150  -12.9350   22.1070 N   0  0  0  0  0  0  0  0  0  0  0  0
  -22.4320  -14.6970   20.7560 O   0  0  0  0  0  0  0  0  0  0  0  0
  -22.6060  -12.0900   22.4980 H   0  0  0  0  0  0  0  0  0  0  0  0
  -21.2940  -13.2300   22.4000 H   0  0  0  0  0  0  0  0  0  0  0  0
  -25.4750  -15.3340   20.3080 N   0  0  0  0  0  0  0  0  0  0  0  0
  -24.7270  -15.9880   20.5100 H   0  0  0  0  0  0  0  0  0  0  0  0
  -26.3180  -15.7870   19.9830 H   0  0  0  0  0  0  0  0  0  0  0  0
  -28.9850  -23.0250   20.1070 C   0  0  0  0  0  3  0  0  0  0  0  0
  -28.1550  -24.5190   19.6710 C   0  0  0  0  0  3  0  0  0  0  0  0
  -28.2870  -26.0640   20.1350 O   0  0  0  0  0  0  0  0  0  0  0  0
  -24.6430  -31.8250   23.2360 C   0  0  0  0  0  0  0  0  0  0  0  0
  -27.2480  -27.1060   20.0770 C   0  0  0  0  0  0  0  0  0  0  0  0
  -23.4570  -30.4570   21.5660 C   0  0  0  0  0  3  0  0  0  0  0  0
  -24.9160  -28.9110   20.1000 C   0  0  0  0  0  0  0  0  0  0  0  0
  -26.0180  -30.7070   21.4200 C   0  0  0  0  0  2  0  0  0  0  0  0
  -26.0970  -29.3230   20.7290 C   0  0  0  0  0  0  0  0  0  0  0  0
  -27.2560  -28.4390   20.7000 C   0  0  0  0  0  3  0  0  0  0  0  0
  -26.0390  -26.8350   19.3950 C   0  0  0  0  0  3  0  0  0  0  0  0
  -24.9070  -27.6860   19.4140 C   0  0  0  0  0  3  0  0  0  0  0  0
  -23.6860  -29.8090   20.1740 C   0  0  0  0  0  2  0  0  0  0  0  0
  -24.7270  -31.0200   22.1290 N   0  0  0  0  0  0  0  0  0  0  0  0
  -23.5520  -32.0960   23.7640 O   0  0  0  0  0  0  0  0  0  0  0  0
  -22.7750  -29.4320   22.5080 C   0  0  0  0  0  0  0  0  0  0  0  0
  -21.4510  -29.2470   22.3630 N   0  0  0  0  0  0  0  0  0  0  0  0
  -23.4440  -28.8060   23.3330 O   0  0  0  0  0  0  0  0  0  0  0  0
  -20.9680  -29.8090   21.6770 H   0  0  0  0  0  0  0  0  0  0  0  0
  -18.0850  -27.9700   22.8030 C   0  0  0  0  0  0  0  0  0  0  0  0
  -20.6350  -28.2840   23.1090 C   0  0  0  0  0  3  0  0  0  0  0  0
  -20.7740  -26.8630   22.5170 C   0  0  0  0  0  2  0  0  0  0  0  0
  -19.6940  -26.5340   21.4820 C   0  0  0  0  0  2  0  0  0  0  0  0
  -18.3010  -26.6360   22.1090 C   0  0  0  0  0  2  0  0  0  0  0  0
  -19.1810  -28.7510   23.2590 C   0  0  0  0  0  0  0  0  0  0  0  0
  -18.9280  -29.9980   23.8720 C   0  0  0  0  0  3  0  0  0  0  0  0
  -17.6100  -30.4660   24.0320 C   0  0  0  0  0  3  0  0  0  0  0  0
  -16.5280  -29.6840   23.5930 C   0  0  0  0  0  3  0  0  0  0  0  0
  -16.7670  -28.4370   22.9840 C   0  0  0  0  0  3  0  0  0  0  0  0
  -25.9120  -32.4570   23.8830 C   0  0  0  0  0  3  0  0  0  0  0  0
  -25.6040  -33.8620   24.2060 N   0  0  0  0  0  0  0  0  0  0  0  0
  -25.9320  -34.9150   23.4430 C   0  0  0  0  0  0  0  0  0  0  0  0
  -26.5930  -34.8060   22.4080 O   0  0  0  0  0  0  0  0  0  0  0  0
  -25.0190  -34.0220   25.0130 H   0  0  0  0  0  0  0  0  0  0  0  0
  -24.1960  -36.7100   23.1190 C   0  0  0  0  0  1  0  0  0  0  0  0
  -25.4540  -36.3080   23.9050 C   0  0  0  0  0  3  0  0  0  0  0  0
  -27.5970  -37.2100   24.6930 C   0  0  0  0  0  1  0  0  0  0  0  0
  -26.4830  -37.3600   23.7620 N   0  0  0  0  0  0  0  0  0  0  0  0
  -26.0760  -38.2810   23.9040 H   0  0  0  0  0  0  0  0  0  0  0  0
  -26.3950  -31.6950   25.1800 C   0  0  1  0  0  0  0  0  0  0  0  0
  -25.2740  -31.4730   26.2230 C   0  0  0  0  0  1  0  0  0  0  0  0
  -26.9790  -30.3090   24.8220 C   0  0  0  0  0  1  0  0  0  0  0  0
  -27.5360  -32.4870   25.8600 C   0  0  0  0  0  1  0  0  0  0  0  0
  2  1  1  0
  2 46  1  0
  2  3  1  6
  4 17  1  0
  5 10  1  0
  6  7  1  0
  6  5  1  0
  8  7  1  0
  8 21  1  0
  8  9  1  0
 10  4  1  0
 10  9  1  0
 11  4  2  0
 12 14  1  0
 12 16  1  0
 13 15  1  0
 14 17  1  0
 16  2  1  0
 16 13  1  0
 17 15  1  0
 18 19  2  0
 19 38  1  0
 20 19  1  0
 20 23  1  0
 21 22  1  0
 21 18  1  0
 22 20  2  0
 23 24  1  0
 24 25  2  0
 26 29  1  0
 26 25  1  0
 27 26  2  0
 28 27  1  0
 28 23  2  0
 29 30  1  0
 30 35  2  0
 30 31  1  0
 31 32  2  0
 33 32  1  0
 33 37  1  0
 34 33  2  0
 35 34  1  0
 36 35  1  0
 38 39  1  0
 39 42  1  0
 39 41  1  0
 40 38  2  0
 43 18  1  0
 43 44  1  0
 45 43  1  0
 47 46  2  0
 47 48  1  0
 49 60  2  0
 50 48  1  0
 50 55  1  0
 51 59  1  0
 51 61  1  0
 52 58  1  0
 52 54  1  0
 53 59  1  0
 54 53  1  0
 55 54  2  0
 56 57  1  0
 56 50  2  0
 57 52  2  0
 58 51  1  0
 59 49  1  0
 61 63  2  0
 62 61  1  0
 64 62  1  0
 65 74  2  0
 65 70  1  0
 66 62  1  0
 66 70  1  0
 67 66  1  0
 68 69  1  0
 68 67  1  0
 69 65  1  0
 70 71  2  0
 71 72  1  0
 73 72  2  0
 74 73  1  0
 75 49  1  0
 75 76  1  0
 75 85  1  0
 76 79  1  0
 77 81  1  0
 77 76  1  0
 78 77  2  0
 81 80  1  0
 83 84  1  0
 83 81  1  0
 83 82  1  0
 85 88  1  1
 85 86  1  0
 87 85  1  0
M  ISO  4   4 100  17 100  47 101  48 101
M  END
>  <TORSDO>  (80) 
F 18

>  <SCORE>  (80) 
-14.899

>  <name>  (80) 
79

>  <ligand_id>  (80) 
79

>  <original_smiles>  (80) 
[H]c1c([H])c([H])c2c(c1[H])C([H])([H])C([H])([H])C([H])([H])C2([H])N([H])C(=O)C1([H])N(C(=O)C([H])(N([H])C(=O)C([H])(N([H])C([H])([H])[H])C([H])([H])[H])C(C([H])([H])[H])(C([H])([H])[H])C([H])([H])[H])C([H])([H])c2c([H])c(OC([H])([H])C([H])([H])[N+]([H])(C([H])([H])[H])C3([H])C([H])([H])C([H])([H])N(C(=O)N4C([H])([H])C([H])([H])C([H])([H])C([H])(n5nc(-c6c([H])c([H])c(Oc7c([H])c([H])c(F)c([H])c7F)c([H])c6[H])c(C(=O)N([H])[H])c5N([H])[H])C4([H])[H])C([H])([H])C3([H])[H])c([H])c([H])c2C1([H])[H]

>  <smiles>  (80) 
[H]c1c([H])c([H])c2c(c1[H])C([H])([H])C([H])([H])C([H])([H])C2([H])N([H])C(=O)C1([H])N(C(=O)C([H])(N([H])C(=O)C([H])(N([H])C([H])([H])[H])C([H])([H])[H])C(C([H])([H])[H])(C([H])([H])[H])C([H])([H])[H])C([H])([H])c2c([H])c(OC([H])([H])C([H])([H])[N+]([H])(C([H])([H])[H])C3([H])C([H])([H])C([H])([H])N(C(=O)N4C([H])([H])C([H])([H])C([H])([H])C([H])(n5nc(-c6c([H])c([H])c(Oc7c([H])c([H])c(F)c([H])c7F)c([H])c6[H])c(C(=O)N([H])[H])c5N([H])[H])C4([H])[H])C([H])([H])C3([H])[H])c([H])c([H])c2C1([H])[H]

$$$$
80:0:0
     RDKit          3D

 90 97  0  0  1  0  0  0  0  0999 V2000
  -29.0390  -19.6010   20.1520 C   0  0  0  0  0  2  0  0  0  0  0  0
  -29.2230  -21.3240   20.5840 C   0  0  0  0  0  2  0  0  0  0  0  0
  -28.5710  -22.8650   19.9490 C   0  0  0  0  0  2  0  0  0  0  0  0
  -28.2020  -24.4470   20.6860 C   0  0  0  0  0  2  0  0  0  0  0  0
  -28.2710  -26.0220   20.2660 O   0  0  0  0  0  0  0  0  0  0  0  0
  -24.5880  -31.9030   23.2380 C   0  0  0  0  0  0  0  0  0  0  0  0
  -27.2090  -27.0510   20.2960 C   0  0  0  0  0  0  0  0  0  0  0  0
  -23.4120  -30.4850   21.6020 C   0  0  0  0  0  3  0  0  0  0  0  0
  -24.8850  -28.8720   20.2210 C   0  0  0  0  0  0  0  0  0  0  0  0
  -25.9780  -30.7250   21.4680 C   0  0  0  0  0  2  0  0  0  0  0  0
  -26.0660  -29.3110   20.8320 C   0  0  0  0  0  0  0  0  0  0  0  0
  -27.2290  -28.4250   20.8350 C   0  0  0  0  0  3  0  0  0  0  0  0
  -25.9920  -26.7400   19.6550 C   0  0  0  0  0  3  0  0  0  0  0  0
  -24.8700  -27.6060   19.6130 C   0  0  0  0  0  3  0  0  0  0  0  0
  -23.6580  -29.7810   20.2380 C   0  0  0  0  0  2  0  0  0  0  0  0
  -24.6800  -31.0630   22.1570 N   0  0  0  0  0  0  0  0  0  0  0  0
  -23.4950  -32.1940   23.7470 O   0  0  0  0  0  0  0  0  0  0  0  0
  -22.7170  -29.4960   22.5730 C   0  0  0  0  0  0  0  0  0  0  0  0
  -21.3870  -29.3320   22.4440 N   0  0  0  0  0  0  0  0  0  0  0  0
  -23.3800  -28.8760   23.4080 O   0  0  0  0  0  0  0  0  0  0  0  0
  -20.9090  -29.8870   21.7490 H   0  0  0  0  0  0  0  0  0  0  0  0
  -18.0000  -28.1360   22.9450 C   0  0  0  0  0  0  0  0  0  0  0  0
  -20.5610  -28.3980   23.2160 C   0  0  0  0  0  3  0  0  0  0  0  0
  -20.6590  -26.9630   22.6460 C   0  0  0  0  0  2  0  0  0  0  0  0
  -19.5590  -26.6420   21.6280 C   0  0  0  0  0  2  0  0  0  0  0  0
  -18.1780  -26.7860   22.2710 C   0  0  0  0  0  2  0  0  0  0  0  0
  -19.1190  -28.9000   23.3750 C   0  0  0  0  0  0  0  0  0  0  0  0
  -18.8970  -30.1600   23.9700 C   0  0  0  0  0  3  0  0  0  0  0  0
  -17.5910  -30.6610   24.1360 C   0  0  0  0  0  3  0  0  0  0  0  0
  -16.4880  -29.8940   23.7210 C   0  0  0  0  0  3  0  0  0  0  0  0
  -16.6930  -28.6340   23.1330 C   0  0  0  0  0  3  0  0  0  0  0  0
  -25.8540  -32.5550   23.8750 C   0  0  0  0  0  3  0  0  0  0  0  0
  -25.5310  -33.9610   24.1830 N   0  0  0  0  0  0  0  0  0  0  0  0
  -25.8800  -35.0090   23.4270 C   0  0  0  0  0  0  0  0  0  0  0  0
  -26.5700  -34.8970   22.4110 O   0  0  0  0  0  0  0  0  0  0  0  0
  -24.9110  -34.1190   24.9640 H   0  0  0  0  0  0  0  0  0  0  0  0
  -24.1720  -36.8170   23.0270 C   0  0  0  0  0  1  0  0  0  0  0  0
  -25.3920  -36.4060   23.8660 C   0  0  0  0  0  3  0  0  0  0  0  0
  -27.5070  -37.2930   24.7440 C   0  0  0  0  0  1  0  0  0  0  0  0
  -26.4320  -37.4530   23.7700 N   0  0  0  0  0  0  0  0  0  0  0  0
  -26.0250  -38.3750   23.8950 H   0  0  0  0  0  0  0  0  0  0  0  0
  -26.3430  -31.8080   25.1780 C   0  0  1  0  0  0  0  0  0  0  0  0
  -25.2290  -31.5910   26.2290 C   0  0  0  0  0  1  0  0  0  0  0  0
  -26.9290  -30.4190   24.8350 C   0  0  0  0  0  1  0  0  0  0  0  0
  -27.4810  -32.6130   25.8460 C   0  0  0  0  0  1  0  0  0  0  0  0
  -30.1030  -18.1690   20.2340 C   0  0  0  0  0  0  0  0  0  0  0  0
  -30.4790  -15.2710   20.2220 C   0  0  0  0  0  0  0  0  0  0  0  0
  -30.3650  -12.8750   19.2650 C   0  0  0  0  0  2  0  0  0  0  0  0
  -29.4110  -12.7370   18.0540 C   0  0  0  0  0  2  0  0  0  0  0  0
  -27.9710  -12.4650   18.5230 C   0  0  0  0  0  2  0  0  0  0  0  0
  -27.5630  -13.3900   19.6980 C   0  0  0  0  0  3  0  0  0  0  0  0
  -28.6430  -13.5050   20.7980 C   0  0  0  0  0  2  0  0  0  0  0  0
  -29.8690  -13.9930   20.1460 N   0  0  0  0  0  0  0  0  0  0  0  0
  -31.6860  -15.2540   19.9550 O   0  0  0  0  0  0  0  0  0  0  0  0
  -29.7650  -16.5510   20.3900 N   0  0  0  0  0  4  0  0  0  0  0  0
  -28.7870  -16.4000   20.5990 H   0  0  0  0  0  0  0  0  0  0  0  0
  -25.2010  -13.9110   20.5070 C   0  0  0  0  0  0  0  0  0  0  0  0
  -24.1540  -13.1160   20.8880 C   0  0  0  0  0  0  0  0  0  0  0  0
  -24.6370  -11.7730   20.8300 C   0  0  0  0  0  0  0  0  0  0  0  0
  -26.2500  -13.0510   20.2360 N   0  0  0  0  0  0  0  0  0  0  0  0
  -25.9240  -11.7580   20.5000 N   0  0  0  0  0  0  0  0  0  0  0  0
  -23.9250  -10.5000   21.0130 C   0  0  0  0  0  0  0  0  0  0  0  0
  -24.3680   -9.5350   21.9460 C   0  0  0  0  0  3  0  0  0  0  0  0
  -23.6540   -8.3290   22.1240 C   0  0  0  0  0  3  0  0  0  0  0  0
  -22.4860   -8.0800   21.3670 C   0  0  0  0  0  0  0  0  0  0  0  0
  -22.0640   -9.0310   20.4200 C   0  0  0  0  0  3  0  0  0  0  0  0
  -22.7770  -10.2280   20.2400 C   0  0  0  0  0  3  0  0  0  0  0  0
  -21.7420   -6.9270   21.4520 O   0  0  0  0  0  0  0  0  0  0  0  0
  -21.6770   -6.1960   22.6110 C   0  0  0  0  0  0  0  0  0  0  0  0
  -21.1950   -6.7510   23.8170 C   0  0  0  0  0  3  0  0  0  0  0  0
  -21.0910   -5.9470   24.9700 C   0  0  0  0  0  3  0  0  0  0  0  0
  -21.4450   -4.5870   24.9150 C   0  0  0  0  0  0  0  0  0  0  0  0
  -21.9130   -4.0270   23.7110 C   0  0  0  0  0  3  0  0  0  0  0  0
  -22.0280   -4.8310   22.5630 C   0  0  0  0  0  0  0  0  0  0  0  0
  -22.4620   -4.2830   21.4020 F   0  0  0  0  0  0  0  0  0  0  0  0
  -21.3330   -3.8120   26.0180 F   0  0  0  0  0  0  0  0  0  0  0  0
  -22.7560  -13.5730   21.1870 C   0  0  0  0  0  0  0  0  0  0  0  0
  -22.0550  -12.8460   22.0490 N   0  0  0  0  0  0  0  0  0  0  0  0
  -22.2980  -14.6060   20.6970 O   0  0  0  0  0  0  0  0  0  0  0  0
  -22.4500  -12.0110   22.4540 H   0  0  0  0  0  0  0  0  0  0  0  0
  -21.1140  -13.1150   22.3010 H   0  0  0  0  0  0  0  0  0  0  0  0
  -25.3500  -15.2830   20.3350 N   0  0  0  0  0  0  0  0  0  0  0  0
  -24.5840  -15.9350   20.4560 H   0  0  0  0  0  0  0  0  0  0  0  0
  -26.1870  -15.7180   19.9710 H   0  0  0  0  0  0  0  0  0  0  0  0
  -31.4550  -18.5570   20.8990 C   0  0  0  0  0  2  0  0  0  0  0  0
  -32.2920  -19.9570   18.8680 C   0  0  0  0  0  1  0  0  0  0  0  0
  -32.6180  -18.8480   19.8980 C   0  0  0  0  0  3  0  0  0  0  0  0
  -35.1680  -18.9180   19.6470 C   0  0  0  0  0  1  0  0  0  0  0  0
  -34.0760  -20.4640   21.3290 C   0  0  0  0  0  1  0  0  0  0  0  0
  -33.9810  -19.1010   20.6110 C   0  0  0  0  0  3  0  0  0  0  0  0
  1 46  1  0
  1  2  1  0
  3  2  1  0
  3  4  1  0
  5  7  1  0
  5  4  1  0
  6 17  2  0
  7 12  1  0
  8 16  1  0
  8 18  1  0
  9 15  1  0
  9 11  1  0
 10 16  1  0
 11 12  2  0
 11 10  1  0
 13  7  2  0
 14 13  1  0
 14  9  2  0
 15  8  1  0
 16  6  1  0
 18 20  2  0
 19 18  1  0
 21 19  1  0
 22 31  2  0
 22 27  1  0
 23 19  1  0
 23 27  1  0
 24 23  1  0
 25 26  1  0
 25 24  1  0
 26 22  1  0
 27 28  2  0
 28 29  1  0
 30 29  2  0
 31 30  1  0
 32  6  1  0
 32 33  1  0
 32 42  1  0
 33 36  1  0
 34 38  1  0
 34 33  1  0
 35 34  2  0
 38 37  1  0
 40 38  1  0
 40 41  1  0
 40 39  1  0
 42 45  1  1
 42 43  1  0
 44 42  1  0
 46 55  2  0
 46 85  1  0
 47 55  1  0
 48 53  1  0
 49 50  1  0
 49 48  1  0
 51 50  1  0
 51 60  1  0
 51 52  1  0
 53 47  1  0
 53 52  1  0
 54 47  2  0
 55 56  1  0
 57 58  2  0
 58 77  1  0
 59 58  1  0
 59 62  1  0
 60 61  1  0
 60 57  1  0
 61 59  2  0
 62 63  1  0
 63 64  2  0
 65 68  1  0
 65 64  1  0
 66 65  2  0
 67 66  1  0
 67 62  2  0
 68 69  1  0
 69 70  1  0
 70 71  2  0
 72 71  1  0
 72 76  1  0
 73 72  2  0
 74 69  2  0
 74 73  1  0
 75 74  1  0
 77 78  1  0
 78 81  1  0
 78 80  1  0
 79 77  2  0
 82 83  1  0
 82 57  1  0
 84 82  1  0
 87 86  1  0
 87 90  1  0
 87 85  1  0
 88 90  1  0
 90 89  1  0
M  ISO  4   4 101   5 101  47 100  55 100
M  END
>  <TORSDO>  (81) 
F 23

>  <SCORE>  (81) 
-14.532

>  <name>  (81) 
80

>  <ligand_id>  (81) 
80

>  <original_smiles>  (81) 
[H]c1c([H])c([H])c2c(c1[H])C([H])([H])C([H])([H])C([H])([H])C2([H])N([H])C(=O)C1([H])N(C(=O)C([H])(N([H])C(=O)C([H])(N([H])C([H])([H])[H])C([H])([H])[H])C(C([H])([H])[H])(C([H])([H])[H])C([H])([H])[H])C([H])([H])c2c([H])c(OC([H])([H])C([H])([H])C([H])([H])C([H])([H])C([H])(N([H])C(=O)N3C([H])([H])C([H])([H])C([H])([H])C([H])(n4nc(-c5c([H])c([H])c(Oc6c([H])c([H])c(F)c([H])c6F)c([H])c5[H])c(C(=O)N([H])[H])c4N([H])[H])C3([H])[H])C([H])([H])C([H])(C([H])([H])[H])C([H])(C([H])([H])[H])C([H])([H])[H])c([H])c([H])c2C1([H])[H]

>  <smiles>  (81) 
[H]c1c([H])c([H])c2c(c1[H])C([H])([H])C([H])([H])C([H])([H])C2([H])N([H])C(=O)C1([H])N(C(=O)C([H])(N([H])C(=O)C([H])(N([H])C([H])([H])[H])C([H])([H])[H])C(C([H])([H])[H])(C([H])([H])[H])C([H])([H])[H])C([H])([H])c2c([H])c(OC([H])([H])C([H])([H])C([H])([H])C([H])([H])C([H])(N([H])C(=O)N3C([H])([H])C([H])([H])C([H])([H])C([H])(n4nc(-c5c([H])c([H])c(Oc6c([H])c([H])c(F)c([H])c6F)c([H])c5[H])c(C(=O)N([H])[H])c4N([H])[H])C3([H])[H])C([H])([H])C([H])(C([H])([H])[H])C([H])(C([H])([H])[H])C([H])([H])[H])c([H])c([H])c2C1([H])[H]

$$$$
81:0:0
     RDKit          3D

 86 93  0  0  1  0  0  0  0  0999 V2000
  -28.9470  -22.3270   20.2950 C   0  0  0  0  0  0  0  0  0  0  0  0
  -30.1340  -22.6200   20.4680 O   0  0  0  0  0  0  0  0  0  0  0  0
  -28.7140  -20.4700   20.2150 C   0  0  0  0  0  2  0  0  0  0  0  0
  -30.7080  -19.0750   19.0090 C   0  0  0  0  0  1  0  0  0  0  0  0
  -30.6390  -19.0460   21.4910 C   0  0  0  0  0  1  0  0  0  0  0  0
  -29.7920  -18.8510   20.2230 C   0  0  1  0  0  0  0  0  0  0  0  0
  -30.3040  -15.7130   20.1430 C   0  0  0  0  0  0  0  0  0  0  0  0
  -30.3860  -13.1760   19.3220 C   0  0  0  0  0  2  0  0  0  0  0  0
  -29.4670  -12.7670   18.1380 C   0  0  0  0  0  2  0  0  0  0  0  0
  -28.0560  -12.4090   18.6300 C   0  0  0  0  0  2  0  0  0  0  0  0
  -27.5680  -13.4060   19.7070 C   0  0  0  0  0  3  0  0  0  0  0  0
  -28.6260  -13.7280   20.7870 C   0  0  0  0  0  2  0  0  0  0  0  0
  -29.7750  -14.3520   20.0890 N   0  0  0  0  0  0  0  0  0  0  0  0
  -31.5340  -15.6460   19.9570 O   0  0  0  0  0  0  0  0  0  0  0  0
  -29.5560  -17.0830   20.2130 N   0  0  0  0  0  0  0  0  0  0  0  0
  -28.5690  -16.8810   20.2920 H   0  0  0  0  0  0  0  0  0  0  0  0
  -25.2330  -13.9120   20.5690 C   0  0  0  0  0  0  0  0  0  0  0  0
  -24.1890  -13.1180   20.9520 C   0  0  0  0  0  0  0  0  0  0  0  0
  -24.6630  -11.7730   20.8700 C   0  0  0  0  0  0  0  0  0  0  0  0
  -26.2710  -13.0510   20.2650 N   0  0  0  0  0  0  0  0  0  0  0  0
  -25.9440  -11.7550   20.5150 N   0  0  0  0  0  0  0  0  0  0  0  0
  -23.9440  -10.5030   21.0510 C   0  0  0  0  0  0  0  0  0  0  0  0
  -24.3830   -9.5280   21.9730 C   0  0  0  0  0  3  0  0  0  0  0  0
  -23.6590   -8.3280   22.1450 C   0  0  0  0  0  3  0  0  0  0  0  0
  -22.4830   -8.0930   21.3940 C   0  0  0  0  0  0  0  0  0  0  0  0
  -22.0630   -9.0570   20.4610 C   0  0  0  0  0  3  0  0  0  0  0  0
  -22.7880  -10.2480   20.2860 C   0  0  0  0  0  3  0  0  0  0  0  0
  -21.7320   -6.9450   21.4750 O   0  0  0  0  0  0  0  0  0  0  0  0
  -21.6580   -6.2140   22.6340 C   0  0  0  0  0  0  0  0  0  0  0  0
  -21.1590   -6.7670   23.8330 C   0  0  0  0  0  3  0  0  0  0  0  0
  -21.0350   -5.9600   24.9820 C   0  0  0  0  0  3  0  0  0  0  0  0
  -21.4000   -4.6020   24.9320 C   0  0  0  0  0  0  0  0  0  0  0  0
  -21.8910   -4.0480   23.7370 C   0  0  0  0  0  3  0  0  0  0  0  0
  -22.0160   -4.8520   22.5910 C   0  0  0  0  0  0  0  0  0  0  0  0
  -22.4700   -4.3070   21.4360 F   0  0  0  0  0  0  0  0  0  0  0  0
  -21.2730   -3.8250   26.0330 F   0  0  0  0  0  0  0  0  0  0  0  0
  -22.7990  -13.5830   21.2720 C   0  0  0  0  0  0  0  0  0  0  0  0
  -22.1010  -12.8710   22.1470 N   0  0  0  0  0  0  0  0  0  0  0  0
  -22.3450  -14.6170   20.7820 O   0  0  0  0  0  0  0  0  0  0  0  0
  -22.4840  -12.0360   22.5650 H   0  0  0  0  0  0  0  0  0  0  0  0
  -21.1690  -13.1640   22.4030 H   0  0  0  0  0  0  0  0  0  0  0  0
  -25.3800  -15.2870   20.4200 N   0  0  0  0  0  0  0  0  0  0  0  0
  -24.6080  -15.9280   20.5680 H   0  0  0  0  0  0  0  0  0  0  0  0
  -26.2030  -15.7390   20.0430 H   0  0  0  0  0  0  0  0  0  0  0  0
  -27.8780  -23.8530   20.1810 C   0  0  0  0  0  2  0  0  0  0  0  0
  -28.1360  -25.5870   20.3150 O   0  0  0  0  0  0  0  0  0  0  0  0
  -24.6690  -31.8910   23.2450 C   0  0  0  0  0  0  0  0  0  0  0  0
  -27.1700  -26.8030   20.2610 C   0  0  0  0  0  0  0  0  0  0  0  0
  -23.4700  -30.4930   21.6180 C   0  0  0  0  0  3  0  0  0  0  0  0
  -24.9060  -28.8370   20.2050 C   0  0  0  0  0  0  0  0  0  0  0  0
  -26.0490  -30.6290   21.4840 C   0  0  0  0  0  2  0  0  0  0  0  0
  -26.1060  -29.1940   20.8320 C   0  0  0  0  0  0  0  0  0  0  0  0
  -27.2230  -28.2060   20.8270 C   0  0  0  0  0  3  0  0  0  0  0  0
  -25.9360  -26.6540   19.5780 C   0  0  0  0  0  3  0  0  0  0  0  0
  -24.8600  -27.5930   19.5530 C   0  0  0  0  0  3  0  0  0  0  0  0
  -23.7020  -29.7910   20.2480 C   0  0  0  0  0  2  0  0  0  0  0  0
  -24.7530  -31.0370   22.1680 N   0  0  0  0  0  0  0  0  0  0  0  0
  -23.5800  -32.1960   23.7600 O   0  0  0  0  0  0  0  0  0  0  0  0
  -22.7540  -29.5210   22.5940 C   0  0  0  0  0  0  0  0  0  0  0  0
  -21.4230  -29.3590   22.4640 N   0  0  0  0  0  0  0  0  0  0  0  0
  -23.4090  -28.9090   23.4420 O   0  0  0  0  0  0  0  0  0  0  0  0
  -20.9440  -29.9010   21.7590 H   0  0  0  0  0  0  0  0  0  0  0  0
  -18.0390  -28.1350   22.9710 C   0  0  0  0  0  0  0  0  0  0  0  0
  -20.5960  -28.4270   23.2420 C   0  0  0  0  0  3  0  0  0  0  0  0
  -20.7110  -26.9890   22.6860 C   0  0  0  0  0  2  0  0  0  0  0  0
  -19.6160  -26.6460   21.6700 C   0  0  0  0  0  2  0  0  0  0  0  0
  -18.2310  -26.7830   22.3050 C   0  0  0  0  0  2  0  0  0  0  0  0
  -19.1490  -28.9140   23.3950 C   0  0  0  0  0  0  0  0  0  0  0  0
  -18.9130  -30.1750   23.9840 C   0  0  0  0  0  3  0  0  0  0  0  0
  -17.6010  -30.6610   24.1480 C   0  0  0  0  0  3  0  0  0  0  0  0
  -16.5070  -29.8810   23.7350 C   0  0  0  0  0  3  0  0  0  0  0  0
  -16.7270  -28.6200   23.1540 C   0  0  0  0  0  3  0  0  0  0  0  0
  -25.9380  -32.5390   23.8790 C   0  0  0  0  0  3  0  0  0  0  0  0
  -26.4320  -31.7850   25.1770 C   0  0  1  0  0  0  0  0  0  0  0  0
  -25.3260  -31.5780   26.2390 C   0  0  0  0  0  1  0  0  0  0  0  0
  -27.0080  -30.3950   24.8270 C   0  0  0  0  0  1  0  0  0  0  0  0
  -27.5840  -32.5810   25.8380 C   0  0  0  0  0  1  0  0  0  0  0  0
  -25.6230  -33.9420   24.2080 N   0  0  0  0  0  0  0  0  0  0  0  0
  -25.9260  -35.0010   23.4440 C   0  0  0  0  0  0  0  0  0  0  0  0
  -26.5570  -34.8990   22.3900 O   0  0  0  0  0  0  0  0  0  0  0  0
  -25.0550  -34.0940   25.0280 H   0  0  0  0  0  0  0  0  0  0  0  0
  -24.1680  -36.7910   23.1860 C   0  0  0  0  0  1  0  0  0  0  0  0
  -25.4590  -36.3930   23.9220 C   0  0  0  0  0  3  0  0  0  0  0  0
  -27.6260  -37.3100   24.6270 C   0  0  0  0  0  1  0  0  0  0  0  0
  -26.4750  -37.4530   23.7410 N   0  0  0  0  0  0  0  0  0  0  0  0
  -26.0680  -38.3720   23.8940 H   0  0  0  0  0  0  0  0  0  0  0  0
  1  2  2  0
  3  6  1  0
  3  1  1  0
  6  4  1  6
  6  5  1  0
  7 15  1  0
  8 13  1  0
  9 10  1  0
  9  8  1  0
 11 10  1  0
 11 20  1  0
 11 12  1  0
 13  7  1  0
 13 12  1  0
 14  7  2  0
 15  6  1  0
 15 16  1  0
 17 18  2  0
 18 37  1  0
 19 18  1  0
 19 22  1  0
 20 21  1  0
 20 17  1  0
 21 19  2  0
 22 23  1  0
 23 24  2  0
 25 28  1  0
 25 24  1  0
 26 25  2  0
 27 26  1  0
 27 22  2  0
 28 29  1  0
 29 30  1  0
 30 31  2  0
 32 31  1  0
 32 36  1  0
 33 32  2  0
 34 29  2  0
 34 33  1  0
 35 34  1  0
 37 38  1  0
 38 41  1  0
 38 40  1  0
 39 37  2  0
 42 43  1  0
 42 17  1  0
 44 42  1  0
 45  1  1  0
 45 46  1  0
 47 58  2  0
 48 46  1  0
 48 53  1  0
 49 57  1  0
 49 59  1  0
 50 56  1  0
 50 52  1  0
 51 57  1  0
 52 51  1  0
 53 52  2  0
 54 48  2  0
 55 54  1  0
 55 50  2  0
 56 49  1  0
 57 47  1  0
 59 61  2  0
 60 59  1  0
 62 60  1  0
 63 72  2  0
 63 68  1  0
 64 60  1  0
 64 68  1  0
 65 64  1  0
 66 67  1  0
 66 65  1  0
 67 63  1  0
 68 69  2  0
 69 70  1  0
 71 70  2  0
 72 71  1  0
 73 47  1  0
 73 78  1  0
 73 74  1  0
 74 77  1  1
 74 75  1  0
 76 74  1  0
 78 81  1  0
 79 83  1  0
 79 78  1  0
 80 79  2  0
 83 82  1  0
 85 86  1  0
 85 83  1  0
 85 84  1  0
M  ISO  4   7 100  15 100  45 101  46 101
M  END
>  <TORSDO>  (82) 
F 19

>  <SCORE>  (82) 
-16.469

>  <name>  (82) 
81

>  <ligand_id>  (82) 
81

>  <original_smiles>  (82) 
[H]c1c([H])c([H])c2c(c1[H])C([H])([H])C([H])([H])C([H])([H])C2([H])N([H])C(=O)C1([H])N(C(=O)C([H])(N([H])C(=O)C([H])(N([H])C([H])([H])[H])C([H])([H])[H])C(C([H])([H])[H])(C([H])([H])[H])C([H])([H])[H])C([H])([H])c2c([H])c(OC([H])([H])C(=O)C([H])([H])C(N([H])C(=O)N3C([H])([H])C([H])([H])C([H])([H])C([H])(n4nc(-c5c([H])c([H])c(Oc6c([H])c([H])c(F)c([H])c6F)c([H])c5[H])c(C(=O)N([H])[H])c4N([H])[H])C3([H])[H])(C([H])([H])[H])C([H])([H])[H])c([H])c([H])c2C1([H])[H]

>  <smiles>  (82) 
[H]c1c([H])c([H])c2c(c1[H])C([H])([H])C([H])([H])C([H])([H])C2([H])N([H])C(=O)C1([H])N(C(=O)C([H])(N([H])C(=O)C([H])(N([H])C([H])([H])[H])C([H])([H])[H])C(C([H])([H])[H])(C([H])([H])[H])C([H])([H])[H])C([H])([H])c2c([H])c(OC([H])([H])C(=O)C([H])([H])C(N([H])C(=O)N3C([H])([H])C([H])([H])C([H])([H])C([H])(n4nc(-c5c([H])c([H])c(Oc6c([H])c([H])c(F)c([H])c6F)c([H])c5[H])c(C(=O)N([H])[H])c4N([H])[H])C3([H])[H])(C([H])([H])[H])C([H])([H])[H])c([H])c([H])c2C1([H])[H]

$$$$
82:0:0
     RDKit          3D

 97104  0  0  1  0  0  0  0  0999 V2000
  -27.6490  -23.0040   20.7230 C   0  0  0  0  0  3  0  0  0  0  0  0
  -28.7890  -22.0550   20.5420 N   0  0  0  0  0  4  0  0  0  0  0  0
  -29.0090  -22.0070   19.5620 H   0  0  0  0  0  0  0  0  0  0  0  0
  -29.5890  -22.4390   21.0170 H   0  0  0  0  0  0  0  0  0  0  0  0
  -28.5810  -20.6740   21.0830 C   0  0  0  0  0  2  0  0  0  0  0  0
  -29.7070  -19.6700   20.7040 C   0  0  0  0  0  3  0  0  0  0  0  0
  -29.4410  -18.1830   21.1160 C   0  0  0  0  0  3  0  0  0  0  0  0
  -30.4590  -17.1380   20.5540 C   0  0  0  0  0  3  0  0  0  0  0  0
  -30.9420  -14.6950   20.7470 C   0  0  0  0  0  0  0  0  0  0  0  0
  -30.7060  -12.5240   19.6200 C   0  0  0  0  0  2  0  0  0  0  0  0
  -29.8280  -12.7380   18.3680 C   0  0  0  0  0  2  0  0  0  0  0  0
  -28.3340  -12.6020   18.7230 C   0  0  0  0  0  2  0  0  0  0  0  0
  -27.9360  -13.4350   19.9700 C   0  0  0  0  0  3  0  0  0  0  0  0
  -28.9350  -13.2230   21.1300 C   0  0  0  0  0  2  0  0  0  0  0  0
  -30.2850  -13.5120   20.6260 N   0  0  0  0  0  0  0  0  0  0  0  0
  -32.1100  -14.8520   20.3840 O   0  0  0  0  0  0  0  0  0  0  0  0
  -30.1660  -15.7650   21.0310 N   0  0  0  0  0  0  0  0  0  0  0  0
  -29.2130  -15.5650   21.2910 H   0  0  0  0  0  0  0  0  0  0  0  0
  -25.5020  -14.0390   20.5450 C   0  0  0  0  0  0  0  0  0  0  0  0
  -24.4210  -13.2650   20.8750 C   0  0  0  0  0  0  0  0  0  0  0  0
  -24.8910  -11.9180   20.8910 C   0  0  0  0  0  0  0  0  0  0  0  0
  -26.5610  -13.1610   20.3820 N   0  0  0  0  0  0  0  0  0  0  0  0
  -26.1950  -11.8810   20.6500 N   0  0  0  0  0  0  0  0  0  0  0  0
  -24.1630  -10.6530   21.0650 C   0  0  0  0  0  0  0  0  0  0  0  0
  -24.5550   -9.7020   22.0310 C   0  0  0  0  0  3  0  0  0  0  0  0
  -23.8300   -8.5020   22.1910 C   0  0  0  0  0  3  0  0  0  0  0  0
  -22.6960   -8.2460   21.3830 C   0  0  0  0  0  0  0  0  0  0  0  0
  -22.3230   -9.1860   20.4070 C   0  0  0  0  0  3  0  0  0  0  0  0
  -23.0510  -10.3770   20.2450 C   0  0  0  0  0  3  0  0  0  0  0  0
  -21.9460   -7.0970   21.4500 O   0  0  0  0  0  0  0  0  0  0  0  0
  -21.8430   -6.3710   22.6100 C   0  0  0  0  0  0  0  0  0  0  0  0
  -21.3510   -6.9400   23.8040 C   0  0  0  0  0  3  0  0  0  0  0  0
  -21.1980   -6.1400   24.9540 C   0  0  0  0  0  3  0  0  0  0  0  0
  -21.5270   -4.7710   24.9100 C   0  0  0  0  0  0  0  0  0  0  0  0
  -22.0110   -4.2020   23.7200 C   0  0  0  0  0  3  0  0  0  0  0  0
  -22.1670   -5.0000   22.5720 C   0  0  0  0  0  0  0  0  0  0  0  0
  -22.6140   -4.4420   21.4210 F   0  0  0  0  0  0  0  0  0  0  0  0
  -21.3730   -4.0010   26.0110 F   0  0  0  0  0  0  0  0  0  0  0  0
  -23.0090  -13.7390   21.0670 C   0  0  0  0  0  0  0  0  0  0  0  0
  -22.2430  -13.0570   21.9100 N   0  0  0  0  0  0  0  0  0  0  0  0
  -22.5920  -14.7490   20.5030 O   0  0  0  0  0  0  0  0  0  0  0  0
  -22.5910  -12.2390   22.3900 H   0  0  0  0  0  0  0  0  0  0  0  0
  -21.2930  -13.3570   22.0810 H   0  0  0  0  0  0  0  0  0  0  0  0
  -25.6710  -15.4060   20.3470 N   0  0  0  0  0  0  0  0  0  0  0  0
  -24.8900  -16.0530   20.3810 H   0  0  0  0  0  0  0  0  0  0  0  0
  -26.5180  -15.8290   19.9870 H   0  0  0  0  0  0  0  0  0  0  0  0
  -30.4020  -17.1410   19.0070 C   0  0  0  0  0  0  0  0  0  0  0  0
  -31.5470  -17.7950   18.2490 C   0  0  0  0  0  1  0  0  0  0  0  0
  -29.4680  -16.6370   18.3800 O   0  0  0  0  0  0  0  0  0  0  0  0
  -27.0410  -25.0700   22.0830 C   0  0  0  0  0  1  0  0  0  0  0  0
  -28.0890  -24.4640   21.1250 C   0  0  0  0  0  3  0  0  0  0  0  0
  -28.4480  -25.4390   19.9440 C   0  0  0  0  0  2  0  0  0  0  0  0
  -28.4310  -26.8510   20.2660 O   0  0  0  0  0  0  0  0  0  0  0  0
  -24.5380  -31.9840   23.3090 C   0  0  0  0  0  0  0  0  0  0  0  0
  -27.2450  -27.5690   20.2160 C   0  0  0  0  0  0  0  0  0  0  0  0
  -23.3620  -30.5910   21.6410 C   0  0  0  0  0  3  0  0  0  0  0  0
  -24.8410  -29.0780   20.2200 C   0  0  0  0  0  0  0  0  0  0  0  0
  -25.8900  -30.9610   21.4780 C   0  0  0  0  0  2  0  0  0  0  0  0
  -25.9910  -29.5980   20.8240 C   0  0  0  0  0  0  0  0  0  0  0  0
  -27.1940  -28.8530   20.8130 C   0  0  0  0  0  3  0  0  0  0  0  0
  -26.0670  -27.0710   19.6080 C   0  0  0  0  0  3  0  0  0  0  0  0
  -24.8740  -27.8150   19.6100 C   0  0  0  0  0  3  0  0  0  0  0  0
  -23.5950  -29.9330   20.2560 C   0  0  0  0  0  2  0  0  0  0  0  0
  -24.6150  -31.1930   22.2020 N   0  0  0  0  0  0  0  0  0  0  0  0
  -23.4500  -32.2430   23.8380 O   0  0  0  0  0  0  0  0  0  0  0  0
  -22.7060  -29.5530   22.5810 C   0  0  0  0  0  0  0  0  0  0  0  0
  -21.3820  -29.3730   22.4410 N   0  0  0  0  0  0  0  0  0  0  0  0
  -23.3820  -28.9170   23.3930 O   0  0  0  0  0  0  0  0  0  0  0  0
  -20.8990  -29.9400   21.7590 H   0  0  0  0  0  0  0  0  0  0  0  0
  -17.9990  -28.1900   22.9100 C   0  0  0  0  0  0  0  0  0  0  0  0
  -20.5580  -28.4250   23.1910 C   0  0  0  0  0  3  0  0  0  0  0  0
  -20.6520  -27.0060   22.5860 C   0  0  0  0  0  2  0  0  0  0  0  0
  -19.5490  -26.7100   21.5640 C   0  0  0  0  0  2  0  0  0  0  0  0
  -18.1680  -26.8530   22.2090 C   0  0  0  0  0  2  0  0  0  0  0  0
  -19.1230  -28.9360   23.3570 C   0  0  0  0  0  0  0  0  0  0  0  0
  -18.9110  -30.1890   23.9710 C   0  0  0  0  0  3  0  0  0  0  0  0
  -17.6110  -30.6980   24.1430 C   0  0  0  0  0  3  0  0  0  0  0  0
  -16.5020  -29.9490   23.7130 C   0  0  0  0  0  3  0  0  0  0  0  0
  -16.6960  -28.6960   23.1040 C   0  0  0  0  0  3  0  0  0  0  0  0
  -25.8120  -32.6170   23.9500 C   0  0  0  0  0  3  0  0  0  0  0  0
  -26.2900  -31.8660   25.2520 C   0  0  1  0  0  0  0  0  0  0  0  0
  -25.1680  -31.6500   26.2940 C   0  0  0  0  0  1  0  0  0  0  0  0
  -26.8760  -30.4800   24.8960 C   0  0  0  0  0  1  0  0  0  0  0  0
  -27.4280  -32.6650   25.9310 C   0  0  0  0  0  1  0  0  0  0  0  0
  -25.5080  -34.0240   24.2440 N   0  0  0  0  0  0  0  0  0  0  0  0
  -25.8710  -35.0580   23.4720 C   0  0  0  0  0  0  0  0  0  0  0  0
  -26.5690  -34.9260   22.4630 O   0  0  0  0  0  0  0  0  0  0  0  0
  -24.8940  -34.2000   25.0270 H   0  0  0  0  0  0  0  0  0  0  0  0
  -24.1680  -36.8530   23.0280 C   0  0  0  0  0  1  0  0  0  0  0  0
  -25.3810  -36.4590   23.8850 C   0  0  0  0  0  3  0  0  0  0  0  0
  -27.4980  -37.3440   24.7600 C   0  0  0  0  0  1  0  0  0  0  0  0
  -26.4250  -37.5010   23.7800 N   0  0  0  0  0  0  0  0  0  0  0  0
  -26.0240  -38.4280   23.8960 H   0  0  0  0  0  0  0  0  0  0  0  0
  -26.6920  -22.9970   19.5000 C   0  0  0  0  0  2  0  0  0  0  0  0
  -25.9050  -21.7780   19.3960 N   0  0  0  0  0  0  0  0  0  0  0  0
  -26.4440  -21.0520   18.9390 H   0  0  0  0  0  0  0  0  0  0  0  0
  -25.1320  -21.9360   18.7540 H   0  0  0  0  0  0  0  0  0  0  0  0
  1 94  1  0
  1 51  1  0
  2  1  1  0
  2  4  1  0
  2  5  1  0
  3  2  1  0
  6  5  1  0
  6  7  2  0
  8 17  1  0
  8  7  1  0
  9 17  1  0
 10 15  1  0
 11 12  1  0
 11 10  1  0
 13 12  1  0
 13 22  1  0
 13 14  1  0
 15  9  1  0
 15 14  1  0
 16  9  2  0
 17 18  1  0
 19 20  2  0
 20 21  1  0
 20 39  1  0
 21 24  1  0
 22 19  1  0
 22 23  1  0
 23 21  2  0
 24 25  1  0
 25 26  2  0
 27 30  1  0
 27 26  1  0
 28 27  2  0
 29 28  1  0
 29 24  2  0
 30 31  1  0
 31 32  1  0
 32 33  2  0
 34 33  1  0
 34 38  1  0
 35 34  2  0
 36 31  2  0
 36 35  1  0
 37 36  1  0
 39 40  1  0
 40 43  1  0
 40 42  1  0
 41 39  2  0
 44 45  1  0
 44 19  1  0
 46 44  1  0
 47  8  1  0
 48 47  1  0
 49 47  2  0
 51 50  1  0
 52 53  1  0
 52 51  1  0
 54 65  2  0
 55 53  1  0
 55 60  1  0
 56 64  1  0
 56 66  1  0
 57 63  1  0
 57 59  1  0
 58 64  1  0
 59 58  1  0
 60 59  2  0
 61 62  1  0
 61 55  2  0
 62 57  2  0
 63 56  1  0
 64 54  1  0
 66 68  2  0
 67 66  1  0
 69 67  1  0
 70 79  2  0
 70 75  1  0
 71 67  1  0
 71 75  1  0
 72 71  1  0
 73 74  1  0
 73 72  1  0
 74 70  1  0
 75 76  2  0
 76 77  1  0
 78 77  2  0
 79 78  1  0
 80 54  1  0
 80 85  1  0
 80 81  1  0
 81 84  1  1
 81 82  1  0
 83 81  1  0
 85 88  1  0
 86 90  1  0
 86 85  1  0
 87 86  2  0
 90 89  1  0
 92 90  1  0
 92 93  1  0
 92 91  1  0
 95 94  1  0
 96 95  1  0
 97 95  1  0
M  ISO  4   9 100  17 100  52 101  53 101
M  END
>  <TORSDO>  (83) 
F 26

>  <SCORE>  (83) 
-11.748

>  <name>  (83) 
82

>  <ligand_id>  (83) 
82

>  <original_smiles>  (83) 
[H]c1c([H])c([H])c2c(c1[H])C([H])([H])C([H])([H])C([H])([H])C2([H])N([H])C(=O)C1([H])N(C(=O)C([H])(N([H])C(=O)C([H])(N([H])C([H])([H])[H])C([H])([H])[H])C(C([H])([H])[H])(C([H])([H])[H])C([H])([H])[H])C([H])([H])c2c([H])c(OC([H])([H])C([H])(C([H])([H])[H])C([H])(C([H])([H])N([H])[H])[N+]([H])([H])C([H])([H])C([H])([H])C([H])([H])C([H])(C(=O)C([H])([H])[H])N([H])C(=O)N3C([H])([H])C([H])([H])C([H])([H])C([H])(n4nc(-c5c([H])c([H])c(Oc6c([H])c([H])c(F)c([H])c6F)c([H])c5[H])c(C(=O)N([H])[H])c4N([H])[H])C3([H])[H])c([H])c([H])c2C1([H])[H]

>  <smiles>  (83) 
[H]c1c([H])c([H])c2c(c1[H])C([H])([H])C([H])([H])C([H])([H])C2([H])N([H])C(=O)C1([H])N(C(=O)C([H])(N([H])C(=O)C([H])(N([H])C([H])([H])[H])C([H])([H])[H])C(C([H])([H])[H])(C([H])([H])[H])C([H])([H])[H])C([H])([H])c2c([H])c(OC([H])([H])C([H])(C([H])([H])[H])C([H])(C([H])([H])N([H])[H])[N+]([H])([H])C([H])([H])C([H])([H])C([H])([H])C([H])(C(=O)C([H])([H])[H])N([H])C(=O)N3C([H])([H])C([H])([H])C([H])([H])C([H])(n4nc(-c5c([H])c([H])c(Oc6c([H])c([H])c(F)c([H])c6F)c([H])c5[H])c(C(=O)N([H])[H])c4N([H])[H])C3([H])[H])c([H])c([H])c2C1([H])[H]

$$$$
83:0:0
     RDKit          3D

 93102  0  0  1  0  0  0  0  0999 V2000
  -30.9730  -14.8360   20.0930 C   0  0  0  0  0  0  0  0  0  0  0  0
  -30.6600  -12.5860   19.0250 C   0  0  0  0  0  2  0  0  0  0  0  0
  -29.6940  -12.7110   17.8250 C   0  0  0  0  0  2  0  0  0  0  0  0
  -28.2330  -12.5640   18.2900 C   0  0  0  0  0  2  0  0  0  0  0  0
  -27.9180  -13.4280   19.5400 C   0  0  0  0  0  3  0  0  0  0  0  0
  -29.0020  -13.2850   20.6280 C   0  0  0  0  0  2  0  0  0  0  0  0
  -30.2930  -13.6330   20.0150 N   0  0  0  0  0  0  0  0  0  0  0  0
  -32.1000  -14.9130   19.5900 O   0  0  0  0  0  0  0  0  0  0  0  0
  -30.1570  -17.5570   22.5760 C   0  0  0  0  0  2  0  0  0  0  0  0
  -31.7710  -21.0710   20.0730 C   0  0  0  0  0  2  0  0  0  0  0  0
  -30.8950  -18.6530   21.8040 C   0  0  0  0  0  2  0  0  0  0  0  0
  -31.2870  -19.6830   19.5210 C   0  0  0  0  0  2  0  0  0  0  0  0
  -28.9700  -19.7500   20.5210 C   0  0  0  0  0  2  0  0  0  0  0  0
  -30.4940  -16.1620   22.0400 C   0  0  0  0  0  2  0  0  0  0  0  0
  -30.1440  -17.3080   19.7750 C   0  0  0  0  0  2  0  0  0  0  0  0
  -30.9430  -22.3680   19.7920 C   0  0  0  0  0  2  0  0  0  0  0  0
  -28.7660  -21.2500   19.9360 C   0  0  0  0  0  2  0  0  0  0  0  0
  -30.3000  -18.8380   20.3950 C   0  0  2  0  0  0  0  0  0  0  0  0
  -30.3470  -15.9950   20.5800 N   0  0  0  0  0  0  0  0  0  0  0  0
  -29.6190  -22.3980   20.4670 N   0  0  2  0  0  4  0  0  0  0  0  0
  -29.8340  -22.0730   21.3980 H   0  0  0  0  0  0  0  0  0  0  0  0
  -25.5620  -14.0630   20.3290 C   0  0  0  0  0  0  0  0  0  0  0  0
  -24.4910  -13.3090   20.7200 C   0  0  0  0  0  0  0  0  0  0  0  0
  -24.9250  -11.9480   20.6720 C   0  0  0  0  0  0  0  0  0  0  0  0
  -26.5820  -13.1630   20.0620 N   0  0  0  0  0  0  0  0  0  0  0  0
  -26.2070  -11.8850   20.3300 N   0  0  0  0  0  0  0  0  0  0  0  0
  -24.1760  -10.7000   20.8730 C   0  0  0  0  0  0  0  0  0  0  0  0
  -24.5940   -9.7290   21.8100 C   0  0  0  0  0  3  0  0  0  0  0  0
  -23.8460   -8.5470   22.0000 C   0  0  0  0  0  3  0  0  0  0  0  0
  -22.6640   -8.3280   21.2520 C   0  0  0  0  0  0  0  0  0  0  0  0
  -22.2650   -9.2860   20.3030 C   0  0  0  0  0  3  0  0  0  0  0  0
  -23.0150  -10.4600   20.1110 C   0  0  0  0  0  3  0  0  0  0  0  0
  -21.8890   -7.1980   21.3510 O   0  0  0  0  0  0  0  0  0  0  0  0
  -21.8080   -6.4790   22.5160 C   0  0  0  0  0  0  0  0  0  0  0  0
  -21.3430   -7.0560   23.7170 C   0  0  0  0  0  3  0  0  0  0  0  0
  -21.2110   -6.2630   24.8750 C   0  0  0  0  0  3  0  0  0  0  0  0
  -21.5330   -4.8940   24.8310 C   0  0  0  0  0  0  0  0  0  0  0  0
  -21.9910   -4.3160   23.6340 C   0  0  0  0  0  3  0  0  0  0  0  0
  -22.1240   -5.1060   22.4790 C   0  0  0  0  0  0  0  0  0  0  0  0
  -22.5460   -4.5400   21.3220 F   0  0  0  0  0  0  0  0  0  0  0  0
  -21.3990   -4.1300   25.9400 F   0  0  0  0  0  0  0  0  0  0  0  0
  -23.1110  -13.8140   21.0280 C   0  0  0  0  0  0  0  0  0  0  0  0
  -22.3960  -13.1380   21.9210 N   0  0  0  0  0  0  0  0  0  0  0  0
  -22.6770  -14.8430   20.5130 O   0  0  0  0  0  0  0  0  0  0  0  0
  -22.7600  -12.3060   22.3610 H   0  0  0  0  0  0  0  0  0  0  0  0
  -21.4710  -13.4580   22.1700 H   0  0  0  0  0  0  0  0  0  0  0  0
  -25.7520  -15.4300   20.1580 N   0  0  0  0  0  0  0  0  0  0  0  0
  -25.0070  -16.1030   20.3050 H   0  0  0  0  0  0  0  0  0  0  0  0
  -26.6160  -15.8570   19.8440 H   0  0  0  0  0  0  0  0  0  0  0  0
  -27.6370  -23.7410   21.4300 C   0  0  0  0  0  1  0  0  0  0  0  0
  -29.0370  -23.8230   20.7920 C   0  0  0  0  0  3  0  0  0  0  0  0
  -29.1110  -25.0980   19.7800 C   0  0  0  0  0  2  0  0  0  0  0  0
  -28.9690  -26.5220   20.2880 O   0  0  0  0  0  0  0  0  0  0  0  0
  -24.7880  -31.6250   23.3320 C   0  0  0  0  0  0  0  0  0  0  0  0
  -27.8140  -27.3390   20.1870 C   0  0  0  0  0  0  0  0  0  0  0  0
  -23.7800  -30.3150   21.4990 C   0  0  0  0  0  3  0  0  0  0  0  0
  -25.4010  -28.9150   20.0920 C   0  0  0  0  0  0  0  0  0  0  0  0
  -26.3150  -30.7120   21.5590 C   0  0  0  0  0  2  0  0  0  0  0  0
  -26.4990  -29.3840   20.8220 C   0  0  0  0  0  0  0  0  0  0  0  0
  -27.7020  -28.6070   20.8600 C   0  0  0  0  0  3  0  0  0  0  0  0
  -26.6850  -26.9360   19.4390 C   0  0  0  0  0  3  0  0  0  0  0  0
  -25.5010  -27.7000   19.3940 C   0  0  0  0  0  3  0  0  0  0  0  0
  -24.1350  -29.7510   20.0970 C   0  0  0  0  0  2  0  0  0  0  0  0
  -24.9760  -30.9000   22.1890 N   0  0  0  0  0  0  0  0  0  0  0  0
  -23.6540  -31.8270   23.7900 O   0  0  0  0  0  0  0  0  0  0  0  0
  -23.0770  -29.2120   22.3270 C   0  0  0  0  0  0  0  0  0  0  0  0
  -21.7560  -29.0550   22.1320 N   0  0  0  0  0  0  0  0  0  0  0  0
  -23.7210  -28.5050   23.1030 O   0  0  0  0  0  0  0  0  0  0  0  0
  -21.2930  -29.6810   21.4870 H   0  0  0  0  0  0  0  0  0  0  0  0
  -18.3500  -27.8700   22.4340 C   0  0  0  0  0  0  0  0  0  0  0  0
  -20.9080  -28.0450   22.7720 C   0  0  0  0  0  3  0  0  0  0  0  0
  -20.9940  -26.6920   22.0280 C   0  0  0  0  0  2  0  0  0  0  0  0
  -19.9060  -26.5170   20.9660 C   0  0  0  0  0  2  0  0  0  0  0  0
  -18.5150  -26.6100   21.6020 C   0  0  0  0  0  2  0  0  0  0  0  0
  -19.4740  -28.5530   22.9710 C   0  0  0  0  0  0  0  0  0  0  0  0
  -19.2660  -29.7370   23.7100 C   0  0  0  0  0  3  0  0  0  0  0  0
  -17.9680  -30.2390   23.9180 C   0  0  0  0  0  3  0  0  0  0  0  0
  -16.8580  -29.5510   23.3980 C   0  0  0  0  0  3  0  0  0  0  0  0
  -17.0500  -28.3680   22.6620 C   0  0  0  0  0  3  0  0  0  0  0  0
  -25.9880  -32.2550   24.1050 C   0  0  0  0  0  3  0  0  0  0  0  0
  -25.6050  -33.6220   24.4880 N   0  0  0  0  0  0  0  0  0  0  0  0
  -25.9730  -34.7310   23.8310 C   0  0  0  0  0  0  0  0  0  0  0  0
  -26.7370  -34.7100   22.8620 O   0  0  0  0  0  0  0  0  0  0  0  0
  -24.9360  -33.7110   25.2390 H   0  0  0  0  0  0  0  0  0  0  0  0
  -24.2280  -36.5000   23.4330 C   0  0  0  0  0  1  0  0  0  0  0  0
  -25.4050  -36.0760   24.3250 C   0  0  0  0  0  3  0  0  0  0  0  0
  -27.4230  -36.9660   25.4030 C   0  0  0  0  0  1  0  0  0  0  0  0
  -26.4100  -37.1590   24.3710 N   0  0  0  0  0  0  0  0  0  0  0  0
  -25.9640  -38.0590   24.5290 H   0  0  0  0  0  0  0  0  0  0  0  0
  -26.4090  -31.4230   25.3780 C   0  0  1  0  0  0  0  0  0  0  0  0
  -25.2330  -31.1040   26.3320 C   0  0  0  0  0  1  0  0  0  0  0  0
  -27.0580  -30.0810   24.9670 C   0  0  0  0  0  1  0  0  0  0  0  0
  -27.4760  -32.2000   26.1830 C   0  0  0  0  0  1  0  0  0  0  0  0
  1 19  1  0
  2  7  1  0
  3  4  1  0
  3  2  1  0
  5  4  1  0
  5 25  1  0
  5  6  1  0
  7  1  1  0
  7  6  1  0
  8  1  2  0
 11  9  1  0
 12 10  1  0
 14  9  1  0
 18 15  1  6
 15 19  1  0
 16 10  1  0
 16 20  1  0
 17 20  1  0
 17 13  1  0
 18 12  1  0
 18 13  1  0
 18 11  1  0
 19 14  1  0
 20 51  1  0
 20 21  1  1
 22 23  2  0
 23 42  1  0
 24 23  1  0
 24 27  1  0
 25 22  1  0
 25 26  1  0
 26 24  2  0
 27 28  1  0
 28 29  2  0
 30 33  1  0
 30 29  1  0
 31 30  2  0
 32 31  1  0
 32 27  2  0
 33 34  1  0
 34 35  1  0
 35 36  2  0
 37 36  1  0
 37 41  1  0
 38 37  2  0
 39 34  2  0
 39 38  1  0
 40 39  1  0
 42 43  1  0
 43 46  1  0
 43 45  1  0
 44 42  2  0
 47 48  1  0
 47 22  1  0
 49 47  1  0
 51 50  1  0
 52 53  1  0
 52 51  1  0
 54 65  2  0
 55 53  1  0
 55 60  1  0
 56 64  1  0
 56 66  1  0
 57 63  1  0
 57 59  1  0
 58 64  1  0
 59 60  2  0
 59 58  1  0
 61 55  2  0
 62 61  1  0
 62 57  2  0
 63 56  1  0
 64 54  1  0
 66 68  2  0
 67 66  1  0
 69 67  1  0
 70 79  2  0
 70 75  1  0
 71 67  1  0
 71 75  1  0
 72 71  1  0
 73 74  1  0
 73 72  1  0
 74 70  1  0
 75 76  2  0
 76 77  1  0
 78 77  2  0
 79 78  1  0
 80 54  1  0
 80 81  1  0
 80 90  1  0
 81 84  1  0
 82 86  1  0
 82 81  1  0
 83 82  2  0
 86 85  1  0
 86 88  1  0
 88 89  1  0
 88 87  1  0
 90 93  1  1
 90 91  1  0
 92 90  1  0
M  ISO  4   1 100  19 100  52 101  53 101
M  END
>  <TORSDO>  (84) 
F 17

>  <SCORE>  (84) 
-13.993

>  <name>  (84) 
83

>  <ligand_id>  (84) 
83

>  <original_smiles>  (84) 
[H]c1c([H])c([H])c2c(c1[H])C([H])([H])C([H])([H])C([H])([H])C2([H])N([H])C(=O)C1([H])N(C(=O)C([H])(N([H])C(=O)C([H])(N([H])C([H])([H])[H])C([H])([H])[H])C(C([H])([H])[H])(C([H])([H])[H])C([H])([H])[H])C([H])([H])c2c([H])c(OC([H])([H])C([H])(C([H])([H])[H])[N+]3([H])C([H])([H])C([H])([H])C([H])([H])C4(C([H])([H])N(C(=O)N5C([H])([H])C([H])([H])C([H])([H])C([H])(n6nc(-c7c([H])c([H])c(Oc8c([H])c([H])c(F)c([H])c8F)c([H])c7[H])c(C(=O)N([H])[H])c6N([H])[H])C5([H])[H])C([H])([H])C([H])([H])C4([H])[H])C([H])([H])C3([H])[H])c([H])c([H])c2C1([H])[H]

>  <smiles>  (84) 
[H]c1c([H])c([H])c2c(c1[H])C([H])([H])C([H])([H])C([H])([H])C2([H])N([H])C(=O)C1([H])N(C(=O)C([H])(N([H])C(=O)C([H])(N([H])C([H])([H])[H])C([H])([H])[H])C(C([H])([H])[H])(C([H])([H])[H])C([H])([H])[H])C([H])([H])c2c([H])c(OC([H])([H])C([H])(C([H])([H])[H])[N+]3([H])C([H])([H])C([H])([H])C([H])([H])C4(C([H])([H])N(C(=O)N5C([H])([H])C([H])([H])C([H])([H])C([H])(n6nc(-c7c([H])c([H])c(Oc8c([H])c([H])c(F)c([H])c8F)c([H])c7[H])c(C(=O)N([H])[H])c6N([H])[H])C5([H])[H])C([H])([H])C([H])([H])C4([H])[H])C([H])([H])C3([H])[H])c([H])c([H])c2C1([H])[H]

$$$$
84:0:0
     RDKit          3D

102110  0  0  1  0  0  0  0  0999 V2000
  -29.9980  -20.5360   20.1660 C   0  0  0  0  0  0  0  0  0  0  0  0
  -30.3090  -19.4240   19.4560 N   0  0  0  0  0  0  0  0  0  0  0  0
  -29.9390  -20.5150   21.3980 O   0  0  0  0  0  0  0  0  0  0  0  0
  -30.3330  -19.5360   18.4530 H   0  0  0  0  0  0  0  0  0  0  0  0
  -32.0610  -22.6890   18.7840 C   0  0  0  0  0  2  0  0  0  0  0  0
  -31.8770  -23.8510   19.7710 C   0  0  0  0  0  2  0  0  0  0  0  0
  -30.7050  -22.1730   18.2680 C   0  0  0  0  0  2  0  0  0  0  0  0
  -30.8500  -23.5100   20.8660 C   0  0  0  0  0  2  0  0  0  0  0  0
  -29.6870  -21.8680   19.4000 C   0  0  0  0  0  3  0  0  0  0  0  0
  -29.5380  -23.0780   20.2930 N   0  0  2  0  0  4  0  0  0  0  0  0
  -28.9900  -22.7340   21.0730 H   0  0  0  0  0  0  0  0  0  0  0  0
  -28.7700  -24.2190   19.6670 C   0  0  0  0  0  2  0  0  0  0  0  0
  -28.2250  -25.2970   20.6560 C   0  0  0  0  0  2  0  0  0  0  0  0
  -28.3690  -26.6590   20.1750 O   0  0  0  0  0  0  0  0  0  0  0  0
  -24.5950  -31.9080   23.2350 C   0  0  0  0  0  0  0  0  0  0  0  0
  -27.2210  -27.4280   20.1670 C   0  0  0  0  0  0  0  0  0  0  0  0
  -23.3920  -30.5060   21.5920 C   0  0  0  0  0  3  0  0  0  0  0  0
  -24.8420  -28.9640   20.1720 C   0  0  0  0  0  0  0  0  0  0  0  0
  -25.9220  -30.8530   21.4000 C   0  0  0  0  0  2  0  0  0  0  0  0
  -26.0040  -29.4790   20.7610 C   0  0  0  0  0  0  0  0  0  0  0  0
  -27.2000  -28.7170   20.7540 C   0  0  0  0  0  3  0  0  0  0  0  0
  -26.0440  -26.9400   19.5590 C   0  0  0  0  0  3  0  0  0  0  0  0
  -24.8570  -27.6940   19.5720 C   0  0  0  0  0  3  0  0  0  0  0  0
  -23.6050  -29.8300   20.2120 C   0  0  0  0  0  2  0  0  0  0  0  0
  -24.6540  -31.1070   22.1330 N   0  0  0  0  0  0  0  0  0  0  0  0
  -23.5120  -32.1780   23.7730 O   0  0  0  0  0  0  0  0  0  0  0  0
  -22.7410  -29.4830   22.5520 C   0  0  0  0  0  0  0  0  0  0  0  0
  -21.4150  -29.3020   22.4290 N   0  0  0  0  0  0  0  0  0  0  0  0
  -23.4250  -28.8560   23.3660 O   0  0  0  0  0  0  0  0  0  0  0  0
  -20.9230  -29.8610   21.7460 H   0  0  0  0  0  0  0  0  0  0  0  0
  -18.0410  -28.1160   22.9420 C   0  0  0  0  0  0  0  0  0  0  0  0
  -20.6000  -28.3650   23.2020 C   0  0  0  0  0  3  0  0  0  0  0  0
  -20.6950  -26.9350   22.6230 C   0  0  0  0  0  2  0  0  0  0  0  0
  -19.5880  -26.6190   21.6120 C   0  0  0  0  0  2  0  0  0  0  0  0
  -18.2090  -26.7670   22.2610 C   0  0  0  0  0  2  0  0  0  0  0  0
  -19.1640  -28.8730   23.3690 C   0  0  0  0  0  0  0  0  0  0  0  0
  -18.9520  -30.1350   23.9650 C   0  0  0  0  0  3  0  0  0  0  0  0
  -17.6480  -30.6390   24.1400 C   0  0  0  0  0  3  0  0  0  0  0  0
  -16.5410  -29.8780   23.7290 C   0  0  0  0  0  3  0  0  0  0  0  0
  -16.7380  -28.6190   23.1340 C   0  0  0  0  0  3  0  0  0  0  0  0
  -25.8790  -32.5430   23.8540 C   0  0  0  0  0  3  0  0  0  0  0  0
  -26.3940  -31.7770   25.1340 C   0  0  1  0  0  0  0  0  0  0  0  0
  -25.3030  -31.5460   26.2050 C   0  0  0  0  0  1  0  0  0  0  0  0
  -26.9770  -30.3970   24.7500 C   0  0  0  0  0  1  0  0  0  0  0  0
  -27.5420  -32.5760   25.7960 C   0  0  0  0  0  1  0  0  0  0  0  0
  -25.5680  -33.9420   24.1760 N   0  0  0  0  0  0  0  0  0  0  0  0
  -25.9080  -34.9910   23.4160 C   0  0  0  0  0  0  0  0  0  0  0  0
  -26.5850  -34.8830   22.3900 O   0  0  0  0  0  0  0  0  0  0  0  0
  -24.9660  -34.0970   24.9710 H   0  0  0  0  0  0  0  0  0  0  0  0
  -24.1920  -36.7900   23.0330 C   0  0  0  0  0  1  0  0  0  0  0  0
  -25.4200  -36.3810   23.8640 C   0  0  0  0  0  3  0  0  0  0  0  0
  -27.5440  -37.2610   24.7260 C   0  0  0  0  0  1  0  0  0  0  0  0
  -26.4560  -37.4320   23.7660 N   0  0  0  0  0  0  0  0  0  0  0  0
  -26.0520  -38.3530   23.9070 H   0  0  0  0  0  0  0  0  0  0  0  0
  -30.7950  -18.1190   19.9830 C   0  0  0  0  0  3  0  0  0  0  0  0
  -32.0410  -17.6010   19.2060 C   0  0  0  0  0  2  0  0  0  0  0  0
  -34.4230  -18.2230   18.5900 C   0  0  0  0  0  1  0  0  0  0  0  0
  -32.5560  -18.8720   17.0470 C   0  0  0  0  0  1  0  0  0  0  0  0
  -32.9500  -18.6490   18.5190 C   0  0  0  0  0  3  0  0  0  0  0  0
  -29.6490  -17.0520   20.0960 C   0  0  0  0  0  3  0  0  0  0  0  0
  -29.9300  -15.8240   21.0580 C   0  0  0  0  0  2  0  0  0  0  0  0
  -30.7040  -14.5720   20.5310 C   0  0  0  0  0  0  0  0  0  0  0  0
  -30.4880  -12.4080   19.3670 C   0  0  0  0  0  2  0  0  0  0  0  0
  -29.5540  -12.6250   18.1550 C   0  0  0  0  0  2  0  0  0  0  0  0
  -28.0670  -12.5130   18.5570 C   0  0  0  0  0  2  0  0  0  0  0  0
  -27.7240  -13.2840   19.8580 C   0  0  0  0  0  3  0  0  0  0  0  0
  -28.7680  -13.0080   20.9570 C   0  0  0  0  0  2  0  0  0  0  0  0
  -30.0840  -13.3640   20.4100 N   0  0  0  0  0  0  0  0  0  0  0  0
  -31.8540  -14.7330   20.1240 O   0  0  0  0  0  0  0  0  0  0  0  0
  -25.3200  -13.9020   20.5110 C   0  0  0  0  0  0  0  0  0  0  0  0
  -24.2370  -13.1320   20.8450 C   0  0  0  0  0  0  0  0  0  0  0  0
  -24.7020  -11.7810   20.8410 C   0  0  0  0  0  0  0  0  0  0  0  0
  -26.3650  -13.0160   20.3120 N   0  0  0  0  0  0  0  0  0  0  0  0
  -25.9980  -11.7380   20.5660 N   0  0  0  0  0  0  0  0  0  0  0  0
  -23.9820  -10.5190   21.0360 C   0  0  0  0  0  0  0  0  0  0  0  0
  -24.4070   -9.5670   21.9870 C   0  0  0  0  0  3  0  0  0  0  0  0
  -23.6910   -8.3640   22.1660 C   0  0  0  0  0  3  0  0  0  0  0  0
  -22.5340   -8.1090   21.3910 C   0  0  0  0  0  0  0  0  0  0  0  0
  -22.1310   -9.0500   20.4270 C   0  0  0  0  0  3  0  0  0  0  0  0
  -22.8480  -10.2440   20.2490 C   0  0  0  0  0  3  0  0  0  0  0  0
  -21.7900   -6.9580   21.4760 O   0  0  0  0  0  0  0  0  0  0  0  0
  -21.7240   -6.2280   22.6350 C   0  0  0  0  0  0  0  0  0  0  0  0
  -21.2660   -6.7910   23.8470 C   0  0  0  0  0  3  0  0  0  0  0  0
  -21.1490   -5.9870   24.9980 C   0  0  0  0  0  3  0  0  0  0  0  0
  -21.4800   -4.6200   24.9370 C   0  0  0  0  0  0  0  0  0  0  0  0
  -21.9330   -4.0560   23.7310 C   0  0  0  0  0  3  0  0  0  0  0  0
  -22.0530   -4.8590   22.5820 C   0  0  0  0  0  0  0  0  0  0  0  0
  -22.4700   -4.3060   21.4180 F   0  0  0  0  0  0  0  0  0  0  0  0
  -21.3590   -3.8440   26.0390 F   0  0  0  0  0  0  0  0  0  0  0  0
  -22.8340  -13.6090   21.0860 C   0  0  0  0  0  0  0  0  0  0  0  0
  -22.0880  -12.9140   21.9390 N   0  0  0  0  0  0  0  0  0  0  0  0
  -22.4110  -14.6350   20.5560 O   0  0  0  0  0  0  0  0  0  0  0  0
  -22.4520  -12.0920   22.3960 H   0  0  0  0  0  0  0  0  0  0  0  0
  -21.1460  -13.2130   22.1470 H   0  0  0  0  0  0  0  0  0  0  0  0
  -25.5200  -15.2720   20.3620 N   0  0  0  0  0  0  0  0  0  0  0  0
  -24.6280  -15.7300   20.5180 H   0  0  0  0  0  0  0  0  0  0  0  0
  -26.1150  -15.5630   21.1320 H   0  0  0  0  0  0  0  0  0  0  0  0
  -29.0420  -16.6730   18.7080 C   0  0  0  0  0  2  0  0  0  0  0  0
  -27.5650  -16.6090   18.6880 N   0  0  0  0  0  4  0  0  0  0  0  0
  -27.1690  -15.9510   19.3420 H   0  0  0  0  0  0  0  0  0  0  0  0
  -27.2580  -16.3440   17.7670 H   0  0  0  0  0  0  0  0  0  0  0  0
  -27.1650  -17.5100   18.8850 H   0  0  0  0  0  0  0  0  0  0  0  0
  1  3  2  0
  2 55  1  0
  2  1  1  0
  4  2  1  0
  5  6  1  0
  6  8  1  0
  7  5  1  0
  7  9  1  0
  9  1  1  0
  9 10  1  0
 10  8  1  0
 10 11  1  1
 12 10  1  0
 12 13  1  0
 14 13  1  0
 15 26  2  0
 16 14  1  0
 16 21  1  0
 17 25  1  0
 17 27  1  0
 18 24  1  0
 18 20  1  0
 19 25  1  0
 20 19  1  0
 21 20  2  0
 22 23  1  0
 22 16  2  0
 23 18  2  0
 24 17  1  0
 25 15  1  0
 27 29  2  0
 28 27  1  0
 30 28  1  0
 31 40  2  0
 31 36  1  0
 32 28  1  0
 32 36  1  0
 33 32  1  0
 34 35  1  0
 34 33  1  0
 35 31  1  0
 36 37  2  0
 37 38  1  0
 39 38  2  0
 40 39  1  0
 41 15  1  0
 41 46  1  0
 41 42  1  0
 42 45  1  1
 42 43  1  0
 44 42  1  0
 46 49  1  0
 47 51  1  0
 47 46  1  0
 48 47  2  0
 51 50  1  0
 53 51  1  0
 53 54  1  0
 53 52  1  0
 55 56  1  0
 55 60  1  0
 58 59  1  0
 59 57  1  0
 59 56  1  0
 60 98  1  0
 60 61  1  0
 62 61  1  0
 63 68  1  0
 64 65  1  0
 64 63  1  0
 66 65  1  0
 66 73  1  0
 66 67  1  0
 68 62  1  0
 68 67  1  0
 69 62  2  0
 70 71  2  0
 71 90  1  0
 72 71  1  0
 72 75  1  0
 73 70  1  0
 73 74  1  0
 74 72  2  0
 75 76  1  0
 76 77  2  0
 78 81  1  0
 78 77  1  0
 79 78  2  0
 80 79  1  0
 80 75  2  0
 81 82  1  0
 82 83  1  0
 83 84  2  0
 85 84  1  0
 85 89  1  0
 86 85  2  0
 87 82  2  0
 87 86  1  0
 88 87  1  0
 90 91  1  0
 91 94  1  0
 91 93  1  0
 92 90  2  0
 95 70  1  0
 95 96  1  0
 95 97  1  0
 99 98  1  0
 99102  1  0
 99100  1  0
101 99  1  0
M  ISO  4  13 101  14 101  61 100  62 100
M  END
>  <TORSDO>  (85) 
F 26

>  <SCORE>  (85) 
-12.245

>  <name>  (85) 
84

>  <ligand_id>  (85) 
84

>  <original_smiles>  (85) 
[H]c1c([H])c([H])c2c(c1[H])C([H])([H])C([H])([H])C([H])([H])C2([H])N([H])C(=O)C1([H])N(C(=O)C([H])(N([H])C(=O)C([H])(N([H])C([H])([H])[H])C([H])([H])[H])C(C([H])([H])[H])(C([H])([H])[H])C([H])([H])[H])C([H])([H])c2c([H])c(OC([H])([H])C([H])([H])[N+]3([H])C([H])([H])C([H])([H])C([H])([H])C([H])([H])C3([H])C(=O)N([H])C([H])(C([H])([H])C([H])(C([H])([H])[H])C([H])([H])[H])C([H])(C([H])([H])C(=O)N3C([H])([H])C([H])([H])C([H])([H])C([H])(n4nc(-c5c([H])c([H])c(Oc6c([H])c([H])c(F)c([H])c6F)c([H])c5[H])c(C(=O)N([H])[H])c4N([H])[H])C3([H])[H])C([H])([H])[N+]([H])([H])[H])c([H])c([H])c2C1([H])[H]

>  <smiles>  (85) 
[H]c1c([H])c([H])c2c(c1[H])C([H])([H])C([H])([H])C([H])([H])C2([H])N([H])C(=O)C1([H])N(C(=O)C([H])(N([H])C(=O)C([H])(N([H])C([H])([H])[H])C([H])([H])[H])C(C([H])([H])[H])(C([H])([H])[H])C([H])([H])[H])C([H])([H])c2c([H])c(OC([H])([H])C([H])([H])[N+]3([H])C([H])([H])C([H])([H])C([H])([H])C([H])([H])C3([H])C(=O)N([H])C([H])(C([H])([H])C([H])(C([H])([H])[H])C([H])([H])[H])C([H])(C([H])([H])C(=O)N3C([H])([H])C([H])([H])C([H])([H])C([H])(n4nc(-c5c([H])c([H])c(Oc6c([H])c([H])c(F)c([H])c6F)c([H])c5[H])c(C(=O)N([H])[H])c4N([H])[H])C3([H])[H])C([H])([H])[N+]([H])([H])[H])c([H])c([H])c2C1([H])[H]

$$$$
85:0:0
     RDKit          3D

101108  0  0  1  0  0  0  0  0999 V2000
  -29.2560  -22.8050   20.7060 C   0  0  0  0  0  3  0  0  0  0  0  0
  -30.1030  -22.7760   22.0270 C   0  0  0  0  0  2  0  0  0  0  0  0
  -29.3370  -22.3390   23.3040 C   0  0  0  0  0  2  0  0  0  0  0  0
  -29.8870  -23.0020   24.5320 C   0  0  0  0  0  0  0  0  0  0  0  0
  -31.1210  -22.6950   24.9520 N   0  0  0  0  0  4  0  0  0  0  0  0
  -29.1270  -23.8790   25.2050 N   0  0  0  0  0  0  0  0  0  0  0  0
  -31.6720  -22.0180   24.4390 H   0  0  0  0  0  0  0  0  0  0  0  0
  -31.5360  -23.0550   25.7990 H   0  0  0  0  0  0  0  0  0  0  0  0
  -28.1940  -24.1000   24.8810 H   0  0  0  0  0  0  0  0  0  0  0  0
  -29.4130  -24.3170   26.0700 H   0  0  0  0  0  0  0  0  0  0  0  0
  -29.3560  -21.4050   19.8870 C   0  0  0  0  0  3  0  0  0  0  0  0
  -29.5970  -20.0170   20.6710 C   0  0  0  0  0  3  0  0  0  0  0  0
  -29.5920  -18.5720   19.9720 C   0  0  0  0  0  2  0  0  0  0  0  0
  -30.5150  -17.4110   20.5770 C   0  0  0  0  0  2  0  0  0  0  0  0
  -30.8830  -14.8630   20.1150 C   0  0  0  0  0  0  0  0  0  0  0  0
  -30.6660  -12.5720   19.1620 C   0  0  0  0  0  2  0  0  0  0  0  0
  -29.6760  -12.5880   17.9770 C   0  0  0  0  0  2  0  0  0  0  0  0
  -28.2270  -12.4080   18.4690 C   0  0  0  0  0  2  0  0  0  0  0  0
  -27.8820  -13.3420   19.6580 C   0  0  0  0  0  3  0  0  0  0  0  0
  -28.9810  -13.3060   20.7420 C   0  0  0  0  0  2  0  0  0  0  0  0
  -30.2570  -13.6430   20.0930 N   0  0  0  0  0  0  0  0  0  0  0  0
  -32.0520  -14.9860   19.7430 O   0  0  0  0  0  0  0  0  0  0  0  0
  -30.1100  -15.9660   20.3820 N   0  0  0  0  0  0  0  0  0  0  0  0
  -29.1400  -15.7600   20.5710 H   0  0  0  0  0  0  0  0  0  0  0  0
  -25.5530  -13.9310   20.5680 C   0  0  0  0  0  0  0  0  0  0  0  0
  -24.4950  -13.1520   20.9490 C   0  0  0  0  0  0  0  0  0  0  0  0
  -24.9260  -11.7970   20.7970 C   0  0  0  0  0  0  0  0  0  0  0  0
  -26.5620  -13.0500   20.2100 N   0  0  0  0  0  0  0  0  0  0  0  0
  -26.1950  -11.7590   20.4120 N   0  0  0  0  0  0  0  0  0  0  0  0
  -24.1840  -10.5390   20.9430 C   0  0  0  0  0  0  0  0  0  0  0  0
  -24.6060   -9.5320   21.8390 C   0  0  0  0  0  3  0  0  0  0  0  0
  -23.8670   -8.3360   21.9730 C   0  0  0  0  0  3  0  0  0  0  0  0
  -22.6910   -8.1400   21.2100 C   0  0  0  0  0  0  0  0  0  0  0  0
  -22.2890   -9.1350   20.3010 C   0  0  0  0  0  3  0  0  0  0  0  0
  -23.0290  -10.3210   20.1650 C   0  0  0  0  0  3  0  0  0  0  0  0
  -21.9230   -7.0010   21.2560 O   0  0  0  0  0  0  0  0  0  0  0  0
  -21.8090   -6.2560   22.4020 C   0  0  0  0  0  0  0  0  0  0  0  0
  -21.2990   -6.8030   23.5990 C   0  0  0  0  0  3  0  0  0  0  0  0
  -21.1320   -5.9830   24.7340 C   0  0  0  0  0  3  0  0  0  0  0  0
  -21.4690   -4.6180   24.6720 C   0  0  0  0  0  0  0  0  0  0  0  0
  -21.9730   -4.0710   23.4790 C   0  0  0  0  0  3  0  0  0  0  0  0
  -22.1400   -4.8870   22.3470 C   0  0  0  0  0  0  0  0  0  0  0  0
  -22.6060   -4.3490   21.1950 F   0  0  0  0  0  0  0  0  0  0  0  0
  -21.3020   -3.8290   25.7590 F   0  0  0  0  0  0  0  0  0  0  0  0
  -23.1260  -13.6320   21.3350 C   0  0  0  0  0  0  0  0  0  0  0  0
  -22.4410  -12.8960   22.2040 N   0  0  0  0  0  0  0  0  0  0  0  0
  -22.6750  -14.6920   20.9010 O   0  0  0  0  0  0  0  0  0  0  0  0
  -22.8190  -12.0360   22.5720 H   0  0  0  0  0  0  0  0  0  0  0  0
  -21.5250  -13.1960   22.5070 H   0  0  0  0  0  0  0  0  0  0  0  0
  -25.7390  -15.3080   20.4730 N   0  0  0  0  0  0  0  0  0  0  0  0
  -24.9910  -15.9680   20.6600 H   0  0  0  0  0  0  0  0  0  0  0  0
  -26.5650  -15.7450   20.0860 H   0  0  0  0  0  0  0  0  0  0  0  0
  -29.4740  -24.2450   19.9550 C   0  0  0  0  0  3  0  0  0  0  0  0
  -30.7630  -24.2190   19.2230 N   0  0  0  0  0  4  0  0  0  0  0  0
  -30.7060  -23.6390   18.4020 H   0  0  0  0  0  0  0  0  0  0  0  0
  -31.5040  -23.8720   19.8060 H   0  0  0  0  0  0  0  0  0  0  0  0
  -31.0220  -25.1460   18.9210 H   0  0  0  0  0  0  0  0  0  0  0  0
  -28.3700  -25.0720   19.1040 C   0  0  0  0  0  3  0  0  0  0  0  0
  -26.2630  -23.5090   19.4630 C   0  0  0  0  0  1  0  0  0  0  0  0
  -27.2160  -24.2360   18.4930 C   0  0  0  0  0  2  0  0  0  0  0  0
  -28.2360  -26.5540   19.3570 O   0  0  0  0  0  0  0  0  0  0  0  0
  -24.6700  -31.6400   23.0550 C   0  0  0  0  0  0  0  0  0  0  0  0
  -27.0690  -27.3450   19.4550 C   0  0  0  0  0  0  0  0  0  0  0  0
  -23.3560  -30.3650   21.4020 C   0  0  0  0  0  3  0  0  0  0  0  0
  -24.7040  -28.9550   19.7550 C   0  0  0  0  0  0  0  0  0  0  0  0
  -25.8810  -30.7120   21.0660 C   0  0  0  0  0  2  0  0  0  0  0  0
  -25.9130  -29.3930   20.3040 C   0  0  0  0  0  0  0  0  0  0  0  0
  -27.0910  -28.5980   20.1510 C   0  0  0  0  0  3  0  0  0  0  0  0
  -25.8310  -26.9860   18.8850 C   0  0  0  0  0  3  0  0  0  0  0  0
  -24.6660  -27.7540   19.0370 C   0  0  0  0  0  3  0  0  0  0  0  0
  -23.4730  -29.8140   19.9590 C   0  0  0  0  0  2  0  0  0  0  0  0
  -24.6570  -30.9200   21.8960 N   0  0  0  0  0  0  0  0  0  0  0  0
  -23.6280  -31.8620   23.6880 O   0  0  0  0  0  0  0  0  0  0  0  0
  -22.7750  -29.2610   22.3180 C   0  0  0  0  0  0  0  0  0  0  0  0
  -21.4530  -29.0350   22.2300 N   0  0  0  0  0  0  0  0  0  0  0  0
  -23.5110  -28.6170   23.0700 O   0  0  0  0  0  0  0  0  0  0  0  0
  -20.9160  -29.6100   21.5960 H   0  0  0  0  0  0  0  0  0  0  0  0
  -18.1710  -27.5840   22.6910 C   0  0  0  0  0  0  0  0  0  0  0  0
  -20.7040  -28.0200   22.9730 C   0  0  0  0  0  3  0  0  0  0  0  0
  -20.9100  -26.6140   22.3620 C   0  0  0  0  0  2  0  0  0  0  0  0
  -19.8330  -26.2410   21.3380 C   0  0  0  0  0  2  0  0  0  0  0  0
  -18.4440  -26.2690   21.9810 C   0  0  0  0  0  2  0  0  0  0  0  0
  -19.2330  -28.4130   23.1430 C   0  0  0  0  0  0  0  0  0  0  0  0
  -18.9250  -29.6400   23.7710 C   0  0  0  0  0  3  0  0  0  0  0  0
  -17.5870  -30.0420   23.9500 C   0  0  0  0  0  3  0  0  0  0  0  0
  -16.5410  -29.2120   23.5100 C   0  0  0  0  0  3  0  0  0  0  0  0
  -16.8320  -27.9850   22.8880 C   0  0  0  0  0  3  0  0  0  0  0  0
  -25.9920  -32.2340   23.6270 C   0  0  0  0  0  3  0  0  0  0  0  0
  -26.5950  -31.3800   24.8090 C   0  0  1  0  0  0  0  0  0  0  0  0
  -25.5750  -31.0690   25.9300 C   0  0  0  0  0  1  0  0  0  0  0  0
  -27.1490  -30.0330   24.2880 C   0  0  0  0  0  1  0  0  0  0  0  0
  -27.7930  -32.1340   25.4350 C   0  0  0  0  0  1  0  0  0  0  0  0
  -25.7030  -33.6040   24.0730 N   0  0  0  0  0  0  0  0  0  0  0  0
  -25.9900  -34.7080   23.3710 C   0  0  0  0  0  0  0  0  0  0  0  0
  -26.5960  -34.6790   22.2980 O   0  0  0  0  0  0  0  0  0  0  0  0
  -25.1570  -33.7030   24.9160 H   0  0  0  0  0  0  0  0  0  0  0  0
  -24.2430  -36.5140   23.2560 C   0  0  0  0  0  1  0  0  0  0  0  0
  -25.5320  -36.0590   23.9570 C   0  0  0  0  0  3  0  0  0  0  0  0
  -27.7080  -36.8950   24.7240 C   0  0  0  0  0  1  0  0  0  0  0  0
  -26.5570  -37.1220   23.8540 N   0  0  0  0  0  0  0  0  0  0  0  0
  -26.1590  -38.0270   24.0860 H   0  0  0  0  0  0  0  0  0  0  0  0
  1 11  1  0
  1  2  1  0
  2  3  1  0
  3  4  1  0
  4  5  2  0
  4  6  1  0
  5  8  1  0
  6 10  1  0
  7  5  1  0
  9  6  1  0
 11 12  2  0
 13 14  1  0
 13 12  1  0
 15 23  1  0
 16 21  1  0
 17 18  1  0
 17 16  1  0
 19 18  1  0
 19 28  1  0
 19 20  1  0
 21 15  1  0
 21 20  1  0
 22 15  2  0
 23 24  1  0
 23 14  1  0
 25 26  2  0
 26 45  1  0
 27 30  1  0
 27 26  1  0
 28 29  1  0
 28 25  1  0
 29 27  2  0
 30 31  1  0
 31 32  2  0
 33 36  1  0
 33 32  1  0
 34 33  2  0
 35 34  1  0
 35 30  2  0
 36 37  1  0
 37 38  1  0
 38 39  2  0
 40 39  1  0
 40 44  1  0
 41 40  2  0
 42 37  2  0
 42 41  1  0
 43 42  1  0
 45 46  1  0
 46 49  1  0
 46 48  1  0
 47 45  2  0
 50 25  1  0
 50 51  1  0
 52 50  1  0
 53 54  1  0
 53  1  1  0
 54 56  1  0
 55 54  1  0
 57 54  1  0
 58 60  1  0
 58 61  1  0
 58 53  1  0
 60 59  1  0
 61 63  1  0
 62 73  2  0
 63 68  1  0
 64 72  1  0
 64 74  1  0
 65 71  1  0
 65 67  1  0
 66 72  1  0
 67 66  1  0
 68 67  2  0
 69 70  1  0
 69 63  2  0
 70 65  2  0
 71 64  1  0
 72 62  1  0
 74 76  2  0
 75 74  1  0
 77 75  1  0
 78 87  2  0
 78 83  1  0
 79 75  1  0
 79 83  1  0
 80 79  1  0
 81 82  1  0
 81 80  1  0
 82 78  1  0
 83 84  2  0
 84 85  1  0
 86 85  2  0
 87 86  1  0
 88 62  1  0
 88 93  1  0
 88 89  1  0
 89 92  1  1
 89 90  1  0
 91 89  1  0
 93 96  1  0
 94 98  1  0
 94 93  1  0
 95 94  2  0
 98 97  1  0
100 98  1  0
100101  1  0
100 99  1  0
M  ISO  4  15 100  23 100  58 101  61 101
M  END
>  <TORSDO>  (86) 
F 27

>  <SCORE>  (86) 
-9.510

>  <name>  (86) 
85

>  <ligand_id>  (86) 
85

>  <original_smiles>  (86) 
[H]c1c([H])c([H])c2c(c1[H])C([H])([H])C([H])([H])C([H])([H])C2([H])N([H])C(=O)C1([H])N(C(=O)C([H])(N([H])C(=O)C([H])(N([H])C([H])([H])[H])C([H])([H])[H])C(C([H])([H])[H])(C([H])([H])[H])C([H])([H])[H])C([H])([H])c2c([H])c(OC([H])(C([H])([H])C([H])([H])[H])C([H])(C([H])(C([H])([H])C([H])([H])C(N([H])[H])=[N+]([H])[H])C([H])([H])C([H])([H])C([H])([H])C([H])([H])N([H])C(=O)N3C([H])([H])C([H])([H])C([H])([H])C([H])(n4nc(-c5c([H])c([H])c(Oc6c([H])c([H])c(F)c([H])c6F)c([H])c5[H])c(C(=O)N([H])[H])c4N([H])[H])C3([H])[H])[N+]([H])([H])[H])c([H])c([H])c2C1([H])[H]

>  <smiles>  (86) 
[H]c1c([H])c([H])c2c(c1[H])C([H])([H])C([H])([H])C([H])([H])C2([H])N([H])C(=O)C1([H])N(C(=O)C([H])(N([H])C(=O)C([H])(N([H])C([H])([H])[H])C([H])([H])[H])C(C([H])([H])[H])(C([H])([H])[H])C([H])([H])[H])C([H])([H])c2c([H])c(OC([H])(C([H])([H])C([H])([H])[H])C([H])(C([H])(C([H])([H])C([H])([H])C(N([H])[H])=[N+]([H])[H])C([H])([H])C([H])([H])C([H])([H])C([H])([H])N([H])C(=O)N3C([H])([H])C([H])([H])C([H])([H])C([H])(n4nc(-c5c([H])c([H])c(Oc6c([H])c([H])c(F)c([H])c6F)c([H])c5[H])c(C(=O)N([H])[H])c4N([H])[H])C3([H])[H])[N+]([H])([H])[H])c([H])c([H])c2C1([H])[H]

$$$$
86:0:0
     RDKit          3D

 87 90  0  0  1  0  0  0  0  0999 V2000
  -28.7670  -21.3810   20.5830 C   0  0  0  0  0  2  0  0  0  0  0  0
  -28.4860  -21.3540   21.7860 O   0  0  0  0  0  0  0  0  0  0  0  0
  -28.2930  -23.2230   19.9050 C   0  0  0  0  0 15  0  0  0  0  0  0
  -28.1760  -25.0730   20.3810 O   0  0  0  0  0  1  0  0  0  0  0  0
  -24.7120  -31.7630   23.1230 C   0  0  0  0  0  0  0  0  0  0  0  0
  -27.2580  -26.4210   20.2290 C   0  0  0  0  0  0  0  0  0  0  0  0
  -23.5540  -30.3490   21.4840 C   0  0  0  0  0  3  0  0  0  0  0  0
  -25.0200  -28.6360   20.1080 C   0  0  0  0  0  0  0  0  0  0  0  0
  -26.1430  -30.4050   21.4310 C   0  0  0  0  0  2  0  0  0  0  0  0
  -26.2080  -28.9400   20.7820 C   0  0  0  0  0  0  0  0  0  0  0  0
  -27.2890  -27.8660   20.8070 C   0  0  0  0  0  3  0  0  0  0  0  0
  -26.0370  -26.4050   19.4780 C   0  0  0  0  0  3  0  0  0  0  0  0
  -24.9910  -27.3980   19.4320 C   0  0  0  0  0  3  0  0  0  0  0  0
  -23.8240  -29.6240   20.1260 C   0  0  0  0  0  2  0  0  0  0  0  0
  -24.8300  -30.8780   22.0660 N   0  0  0  0  0  0  0  0  0  0  0  0
  -23.6080  -32.0830   23.6000 O   0  0  0  0  0  0  0  0  0  0  0  0
  -22.7910  -29.4060   22.4610 C   0  0  0  0  0  0  0  0  0  0  0  0
  -21.4520  -29.2960   22.3430 N   0  0  0  0  0  0  0  0  0  0  0  0
  -23.4220  -28.7710   23.3090 O   0  0  0  0  0  0  0  0  0  0  0  0
  -20.9910  -29.8700   21.6530 H   0  0  0  0  0  0  0  0  0  0  0  0
  -18.0350  -28.1400   22.8410 C   0  0  0  0  0  0  0  0  0  0  0  0
  -20.6000  -28.3750   23.1090 C   0  0  0  0  0  3  0  0  0  0  0  0
  -20.6800  -26.9370   22.5400 C   0  0  0  0  0  2  0  0  0  0  0  0
  -19.5770  -26.6300   21.5220 C   0  0  0  0  0  2  0  0  0  0  0  0
  -18.1950  -26.7910   22.1590 C   0  0  0  0  0  2  0  0  0  0  0  0
  -19.1620  -28.8900   23.2730 C   0  0  0  0  0  0  0  0  0  0  0  0
  -18.9550  -30.1490   23.8780 C   0  0  0  0  0  3  0  0  0  0  0  0
  -17.6530  -30.6590   24.0520 C   0  0  0  0  0  3  0  0  0  0  0  0
  -16.5410  -29.9050   23.6360 C   0  0  0  0  0  3  0  0  0  0  0  0
  -16.7340  -28.6480   23.0370 C   0  0  0  0  0  3  0  0  0  0  0  0
  -25.9550  -32.4280   23.7920 C   0  0  0  0  0  3  0  0  0  0  0  0
  -26.4610  -31.6500   25.0710 C   0  0  1  0  0  0  0  0  0  0  0  0
  -25.3580  -31.3960   26.1290 C   0  0  0  0  0  1  0  0  0  0  0  0
  -27.0520  -30.2780   24.6810 C   0  0  0  0  0  1  0  0  0  0  0  0
  -27.6010  -32.4440   25.7500 C   0  0  0  0  0  1  0  0  0  0  0  0
  -25.6020  -33.8130   24.1770 N   0  0  0  0  0  0  0  0  0  0  0  0
  -25.9130  -34.9170   23.4840 C   0  0  0  0  0  0  0  0  0  0  0  0
  -26.5780  -34.8800   22.4470 O   0  0  0  0  0  0  0  0  0  0  0  0
  -25.0150  -33.9170   24.9900 H   0  0  0  0  0  0  0  0  0  0  0  0
  -24.1490  -36.7060   23.2680 C   0  0  0  0  0  1  0  0  0  0  0  0
  -25.4110  -36.2740   24.0280 C   0  0  0  0  0  3  0  0  0  0  0  0
  -27.5510  -37.1660   24.8460 C   0  0  0  0  0  1  0  0  0  0  0  0
  -26.4190  -37.3570   23.9450 N   0  0  0  0  0  0  0  0  0  0  0  0
  -25.9930  -38.2550   24.1520 H   0  0  0  0  0  0  0  0  0  0  0  0
  -29.5950  -19.4650   20.0590 C   0  0  0  0  0  1  0  0  0  0  0  0
  -30.1890  -16.0490   20.2920 C   0  0  0  0  0  0  0  0  0  0  0  0
  -30.3920  -13.3960   19.5350 C   0  0  0  0  0  2  0  0  0  0  0  0
  -29.5680  -12.7630   18.3650 C   0  0  0  0  0  2  0  0  0  0  0  0
  -28.1750  -12.3210   18.8270 C   0  0  0  0  0  2  0  0  0  0  0  0
  -27.5840  -13.3620   19.7970 C   0  0  0  0  0  3  0  0  0  0  0  0
  -28.5690  -13.8700   20.8900 C   0  0  0  0  0  2  0  0  0  0  0  0
  -29.6840  -14.6170   20.2160 N   0  0  0  0  0  0  0  0  0  0  0  0
  -31.4230  -15.8710   20.1640 O   0  0  0  0  0  0  0  0  0  0  0  0
  -29.4910  -17.5570   20.3370 N   0  0  0  0  0  2  0  0  0  0  0  0
  -28.5060  -17.3660   20.4640 H   0  0  0  0  0  0  0  0  0  0  0  0
  -25.2250  -13.8340   20.5790 C   0  0  0  0  0  0  0  0  0  0  0  0
  -24.1720  -13.0410   20.9260 C   0  0  0  0  0  0  0  0  0  0  0  0
  -24.6490  -11.6950   20.8700 C   0  0  0  0  0  0  0  0  0  0  0  0
  -26.2780  -12.9800   20.3200 N   0  0  0  0  0  0  0  0  0  0  0  0
  -25.9450  -11.6800   20.5590 N   0  0  0  0  0  0  0  0  0  0  0  0
  -23.9190  -10.4290   21.0350 C   0  0  0  0  0  0  0  0  0  0  0  0
  -24.3680   -9.4210   21.9150 C   0  0  0  0  0  3  0  0  0  0  0  0
  -23.6310   -8.2270   22.0760 C   0  0  0  0  0  3  0  0  0  0  0  0
  -22.4280   -8.0310   21.3550 C   0  0  0  0  0  0  0  0  0  0  0  0
  -21.9940   -9.0290   20.4650 C   0  0  0  0  0  3  0  0  0  0  0  0
  -22.7320  -10.2140   20.3030 C   0  0  0  0  0  3  0  0  0  0  0  0
  -21.6650   -6.8890   21.4250 O   0  0  0  0  0  0  0  0  0  0  0  0
  -21.6850   -6.0720   22.5270 C   0  0  0  0  0  0  0  0  0  0  0  0
  -21.4030   -6.5630   23.8200 C   0  0  0  0  0  3  0  0  0  0  0  0
  -21.3680   -5.6780   24.9160 C   0  0  0  0  0  3  0  0  0  0  0  0
  -21.6050   -4.3030   24.7210 C   0  0  0  0  0  0  0  0  0  0  0  0
  -21.8810   -3.8130   23.4310 C   0  0  0  0  0  3  0  0  0  0  0  0
  -21.9190   -4.6960   22.3380 C   0  0  0  0  0  0  0  0  0  0  0  0
  -22.1650   -4.2140   21.0960 F   0  0  0  0  0  0  0  0  0  0  0  0
  -21.5640   -3.4510   25.7730 F   0  0  0  0  0  0  0  0  0  0  0  0
  -22.7700  -13.5120   21.1880 C   0  0  0  0  0  0  0  0  0  0  0  0
  -22.0350  -12.8130   22.0450 N   0  0  0  0  0  0  0  0  0  0  0  0
  -22.3380  -14.5400   20.6690 O   0  0  0  0  0  0  0  0  0  0  0  0
  -22.3930  -11.9860   22.4980 H   0  0  0  0  0  0  0  0  0  0  0  0
  -21.0980  -13.1200   22.2600 H   0  0  0  0  0  0  0  0  0  0  0  0
  -25.3740  -15.2100   20.4260 N   0  0  0  0  0  0  0  0  0  0  0  0
  -24.5960  -15.8500   20.5420 H   0  0  0  0  0  0  0  0  0  0  0  0
  -26.2210  -15.6680   20.1160 H   0  0  0  0  0  0  0  0  0  0  0  0
  -31.0920  -19.7800   20.4220 C   0  0  0  0  0  2  0  0  0  0  0  0
  -32.0440  -19.1860   18.0760 C   0  0  0  0  0  1  0  0  0  0  0  0
  -33.6420  -19.6660   19.9560 C   0  0  0  0  0  1  0  0  0  0  0  0
  -32.2420  -19.1160   19.5980 C   0  0  0  0  0  3  0  0  0  0  0  0
  1  2  2  0
  5 16  2  0
  6  4  1  0
  6 11  1  0
  7 15  1  0
  7 17  1  0
  8 14  1  0
  8 10  1  0
  9 15  1  0
 10 11  2  0
 10  9  1  0
 12  6  2  0
 13 12  1  0
 13  8  2  0
 14  7  1  0
 15  5  1  0
 17 19  2  0
 18 17  1  0
 20 18  1  0
 21 30  2  0
 21 26  1  0
 22 18  1  0
 22 26  1  0
 23 22  1  0
 24 25  1  0
 24 23  1  0
 25 21  1  0
 26 27  2  0
 27 28  1  0
 29 28  2  0
 30 29  1  0
 31  5  1  0
 31 36  1  0
 31 32  1  0
 32 35  1  1
 32 33  1  0
 34 32  1  0
 36 39  1  0
 37 41  1  0
 37 36  1  0
 38 37  2  0
 41 40  1  0
 43 41  1  0
 43 44  1  0
 43 42  1  0
 45 84  1  0
 46 54  1  0
 47 52  1  0
 48 49  1  0
 48 47  1  0
 50 49  1  0
 50 59  1  0
 50 51  1  0
 52 46  1  0
 52 51  1  0
 53 46  2  0
 54 55  1  0
 56 57  2  0
 57 76  1  0
 58 57  1  0
 58 61  1  0
 59 60  1  0
 59 56  1  0
 60 58  2  0
 61 62  1  0
 62 63  2  0
 64 67  1  0
 64 63  1  0
 65 64  2  0
 66 65  1  0
 66 61  2  0
 67 68  1  0
 68 69  1  0
 69 70  2  0
 71 70  1  0
 71 75  1  0
 72 71  2  0
 73 68  2  0
 73 72  1  0
 74 73  1  0
 76 77  1  0
 77 80  1  0
 77 79  1  0
 78 76  2  0
 81 82  1  0
 81 56  1  0
 83 81  1  0
 85 87  1  0
 87 86  1  0
 87 84  1  0
M  ISO  4   3 101   4 101  46 100  54 100
M  END
>  <TORSDO>  (87) 
F 20

>  <SCORE>  (87) 
-15.423

>  <name>  (87) 
86

>  <ligand_id>  (87) 
86

>  <original_smiles>  (87) 
[H]c1c([H])c([H])c2c(c1[H])C([H])([H])C([H])([H])C([H])([H])C2([H])N([H])C(=O)C1([H])N(C(=O)C([H])(N([H])C(=O)C([H])(N([H])C([H])([H])[H])C([H])([H])[H])C(C([H])([H])[H])(C([H])([H])[H])C([H])([H])[H])C([H])([H])c2c([H])c(OC([H])([H])C(=O)C([H])(N([H])C(=O)N3C([H])([H])C([H])([H])C([H])([H])C([H])(n4nc(-c5c([H])c([H])c(Oc6c([H])c([H])c(F)c([H])c6F)c([H])c5[H])c(C(=O)N([H])[H])c4N([H])[H])C3([H])[H])C([H])([H])C([H])(C([H])([H])[H])C([H])([H])[H])c([H])c([H])c2C1([H])[H]

>  <smiles>  (87) 
[H]c1c([H])c([H])c2c(c1[H])C([H])([H])C([H])([H])C([H])([H])C2([H])N([H])C(=O)C1([H])N(C(=O)C([H])(N([H])C(=O)C([H])(N([H])C([H])([H])[H])C([H])([H])[H])C(C([H])([H])[H])(C([H])([H])[H])C([H])([H])[H])C([H])([H])c2c([H])c(OC([H])([H])C(=O)C([H])(N([H])C(=O)N3C([H])([H])C([H])([H])C([H])([H])C([H])(n4nc(-c5c([H])c([H])c(Oc6c([H])c([H])c(F)c([H])c6F)c([H])c5[H])c(C(=O)N([H])[H])c4N([H])[H])C3([H])[H])C([H])([H])C([H])(C([H])([H])[H])C([H])([H])[H])c([H])c([H])c2C1([H])[H]

$$$$
87:0:0
     RDKit          3D

 97105  0  0  1  0  0  0  0  0999 V2000
  -29.0490  -18.8030   19.5500 C   0  0  0  0  0  3  0  0  0  0  0  0
  -29.7810  -19.0170   15.2210 C   0  0  0  0  0  2  0  0  0  0  0  0
  -28.3790  -18.6990   15.7630 C   0  0  0  0  0  2  0  0  0  0  0  0
  -30.8580  -18.4560   16.1630 C   0  0  0  0  0  2  0  0  0  0  0  0
  -28.2180  -19.1920   17.2120 C   0  0  0  0  0  2  0  0  0  0  0  0
  -30.6500  -18.9580   17.6050 C   0  0  0  0  0  2  0  0  0  0  0  0
  -29.2810  -18.6280   18.0880 N   0  0  1  0  0  4  0  0  0  0  0  0
  -29.2000  -17.6290   17.9740 H   0  0  0  0  0  0  0  0  0  0  0  0
  -29.1730  -20.3350   20.0640 C   0  0  0  0  0  2  0  0  0  0  0  0
  -28.4770  -21.5660   19.3070 C   0  0  0  0  0  3  0  0  0  0  0  0
  -28.6450  -23.0340   19.9230 C   0  0  0  0  0  3  0  0  0  0  0  0
  -28.2690  -24.3320   19.0610 C   0  0  0  0  0  3  0  0  0  0  0  0
  -28.2410  -25.7390   19.8150 C   0  0  0  0  0  3  0  0  0  0  0  0
  -28.0270  -27.0000   19.0750 O   0  0  0  0  0  0  0  0  0  0  0  0
  -24.6080  -31.8360   23.2120 C   0  0  0  0  0  0  0  0  0  0  0  0
  -26.8850  -27.7560   19.3450 C   0  0  0  0  0  0  0  0  0  0  0  0
  -23.2180  -30.5660   21.6120 C   0  0  0  0  0  3  0  0  0  0  0  0
  -24.4930  -29.2330   19.8390 C   0  0  0  0  0  0  0  0  0  0  0  0
  -25.6900  -31.0210   21.1040 C   0  0  0  0  0  2  0  0  0  0  0  0
  -25.7190  -29.7210   20.3110 C   0  0  0  0  0  0  0  0  0  0  0  0
  -26.9180  -28.9980   20.0480 C   0  0  0  0  0  3  0  0  0  0  0  0
  -25.6360  -27.3050   18.8730 C   0  0  0  0  0  3  0  0  0  0  0  0
  -24.4510  -28.0300   19.1110 C   0  0  0  0  0  3  0  0  0  0  0  0
  -23.2500  -30.0420   20.1500 C   0  0  0  0  0  2  0  0  0  0  0  0
  -24.5330  -31.1530   22.0320 N   0  0  0  0  0  0  0  0  0  0  0  0
  -23.6070  -32.0070   23.9220 O   0  0  0  0  0  0  0  0  0  0  0  0
  -22.7310  -29.4290   22.5390 C   0  0  0  0  0  0  0  0  0  0  0  0
  -21.4800  -28.9780   22.3370 N   0  0  0  0  0  0  0  0  0  0  0  0
  -23.4790  -28.9520   23.3970 O   0  0  0  0  0  0  0  0  0  0  0  0
  -20.9260  -29.4240   21.6200 H   0  0  0  0  0  0  0  0  0  0  0  0
  -18.5250  -26.8990   22.4500 C   0  0  0  0  0  0  0  0  0  0  0  0
  -20.8340  -27.8860   23.0660 C   0  0  0  0  0  3  0  0  0  0  0  0
  -21.4170  -26.5160   22.6480 C   0  0  0  0  0  2  0  0  0  0  0  0
  -20.6290  -25.8460   21.5180 C   0  0  0  0  0  2  0  0  0  0  0  0
  -19.1720  -25.6250   21.9360 C   0  0  0  0  0  2  0  0  0  0  0  0
  -19.3050  -27.9670   22.9670 C   0  0  0  0  0  0  0  0  0  0  0  0
  -18.6550  -29.1430   23.4000 C   0  0  0  0  0  3  0  0  0  0  0  0
  -17.2540  -29.2600   23.3270 C   0  0  0  0  0  3  0  0  0  0  0  0
  -16.4840  -28.1930   22.8300 C   0  0  0  0  0  3  0  0  0  0  0  0
  -17.1190  -27.0150   22.3950 C   0  0  0  0  0  3  0  0  0  0  0  0
  -25.9500  -32.4550   23.7140 C   0  0  0  0  0  3  0  0  0  0  0  0
  -26.6280  -31.6150   24.8650 C   0  0  1  0  0  0  0  0  0  0  0  0
  -25.6490  -31.1800   25.9790 C   0  0  0  0  0  1  0  0  0  0  0  0
  -27.2880  -30.3380   24.2930 C   0  0  0  0  0  1  0  0  0  0  0  0
  -27.7580  -32.4430   25.5200 C   0  0  0  0  0  1  0  0  0  0  0  0
  -25.6650  -33.8220   24.1720 N   0  0  0  0  0  0  0  0  0  0  0  0
  -25.9090  -34.9290   23.4580 C   0  0  0  0  0  0  0  0  0  0  0  0
  -26.4690  -34.9090   22.3590 O   0  0  0  0  0  0  0  0  0  0  0  0
  -25.1570  -33.9120   25.0400 H   0  0  0  0  0  0  0  0  0  0  0  0
  -24.1550  -36.7310   23.3940 C   0  0  0  0  0  1  0  0  0  0  0  0
  -25.4630  -36.2760   24.0610 C   0  0  0  0  0  3  0  0  0  0  0  0
  -27.6670  -37.1050   24.7540 C   0  0  0  0  0  1  0  0  0  0  0  0
  -26.4800  -37.3430   23.9390 N   0  0  0  0  0  0  0  0  0  0  0  0
  -26.0900  -38.2430   24.2020 H   0  0  0  0  0  0  0  0  0  0  0  0
  -29.8980  -17.6680   20.3190 C   0  0  0  0  0  3  0  0  0  0  0  0
  -30.2910  -15.1960   19.5180 C   0  0  0  0  0  0  0  0  0  0  0  0
  -30.0180  -12.9950   18.3870 C   0  0  0  0  0  2  0  0  0  0  0  0
  -28.9120  -13.1040   17.3140 C   0  0  0  0  0  2  0  0  0  0  0  0
  -27.5210  -12.8600   17.9330 C   0  0  0  0  0  2  0  0  0  0  0  0
  -27.2960  -13.6730   19.2350 C   0  0  0  0  0  3  0  0  0  0  0  0
  -28.5000  -13.5420   20.1940 C   0  0  0  0  0  2  0  0  0  0  0  0
  -29.6990  -13.9630   19.4560 N   0  0  0  0  0  0  0  0  0  0  0  0
  -31.3860  -15.4060   18.9930 O   0  0  0  0  0  0  0  0  0  0  0  0
  -29.5300  -16.2250   20.0200 N   0  0  0  0  0  0  0  0  0  0  0  0
  -28.6470  -15.9190   20.4010 H   0  0  0  0  0  0  0  0  0  0  0  0
  -25.0040  -14.1440   20.2940 C   0  0  0  0  0  0  0  0  0  0  0  0
  -24.0260  -13.3140   20.7670 C   0  0  0  0  0  0  0  0  0  0  0  0
  -24.5290  -11.9850   20.6170 C   0  0  0  0  0  0  0  0  0  0  0  0
  -26.0380  -13.3180   19.8850 N   0  0  0  0  0  0  0  0  0  0  0  0
  -25.7670  -12.0120   20.1400 N   0  0  0  0  0  0  0  0  0  0  0  0
  -23.8820  -10.6880   20.8460 C   0  0  0  0  0  0  0  0  0  0  0  0
  -24.4080   -9.7530   21.7640 C   0  0  0  0  0  3  0  0  0  0  0  0
  -23.7570   -8.5190   21.9800 C   0  0  0  0  0  3  0  0  0  0  0  0
  -22.5680   -8.2110   21.2790 C   0  0  0  0  0  0  0  0  0  0  0  0
  -22.0620   -9.1360   20.3490 C   0  0  0  0  0  3  0  0  0  0  0  0
  -22.7130  -10.3610   20.1310 C   0  0  0  0  0  3  0  0  0  0  0  0
  -21.8820   -7.0280   21.4050 O   0  0  0  0  0  0  0  0  0  0  0  0
  -21.8480   -6.3390   22.5910 C   0  0  0  0  0  0  0  0  0  0  0  0
  -21.3330   -6.9140   23.7730 C   0  0  0  0  0  3  0  0  0  0  0  0
  -21.2540   -6.1460   24.9520 C   0  0  0  0  0  3  0  0  0  0  0  0
  -21.6790   -4.8050   24.9500 C   0  0  0  0  0  0  0  0  0  0  0  0
  -22.1880   -4.2290   23.7720 C   0  0  0  0  0  3  0  0  0  0  0  0
  -22.2700   -4.9940   22.5960 C   0  0  0  0  0  0  0  0  0  0  0  0
  -22.7400   -4.4280   21.4590 F   0  0  0  0  0  0  0  0  0  0  0  0
  -21.5970   -4.0650   26.0800 F   0  0  0  0  0  0  0  0  0  0  0  0
  -22.6610  -13.7210   21.2400 C   0  0  0  0  0  0  0  0  0  0  0  0
  -22.0920  -12.9770   22.1810 N   0  0  0  0  0  0  0  0  0  0  0  0
  -22.1110  -14.7340   20.8100 O   0  0  0  0  0  0  0  0  0  0  0  0
  -22.5530  -12.1580   22.5480 H   0  0  0  0  0  0  0  0  0  0  0  0
  -21.1830  -13.2310   22.5420 H   0  0  0  0  0  0  0  0  0  0  0  0
  -25.0920  -15.5270   20.1530 N   0  0  0  0  0  0  0  0  0  0  0  0
  -24.3150  -16.1340   20.3900 H   0  0  0  0  0  0  0  0  0  0  0  0
  -25.8520  -16.0110   19.7000 H   0  0  0  0  0  0  0  0  0  0  0  0
  -29.8300  -17.8870   21.8560 C   0  0  0  0  0  2  0  0  0  0  0  0
  -32.1680  -16.8640   22.0490 C   0  0  0  0  0  1  0  0  0  0  0  0
  -30.9870  -17.7240   24.1020 C   0  0  0  0  0  1  0  0  0  0  0  0
  -30.8030  -17.0600   22.7280 C   0  0  0  0  0  3  0  0  0  0  0  0
  1  9  1  0
  1 55  1  0
  2  3  1  0
  2  4  1  0
  3  5  1  0
  4  6  1  0
  5  7  1  0
  6  7  1  0
  7  1  1  0
  7  8  1  1
 10 11  2  0
 10  9  1  0
 12 13  2  0
 12 11  1  0
 14 16  1  0
 14 13  1  0
 15 26  2  0
 16 21  1  0
 17 25  1  0
 17 27  1  0
 18 24  1  0
 18 20  1  0
 19 25  1  0
 20 19  1  0
 21 20  2  0
 22 23  1  0
 22 16  2  0
 23 18  2  0
 24 17  1  0
 25 15  1  0
 27 29  2  0
 28 27  1  0
 30 28  1  0
 31 36  1  0
 32 28  1  0
 33 32  1  0
 34 35  1  0
 34 33  1  0
 35 31  1  0
 36 32  1  0
 36 37  2  0
 38 37  1  0
 39 38  2  0
 40 31  2  0
 40 39  1  0
 41 15  1  0
 41 46  1  0
 41 42  1  0
 42 45  1  1
 42 43  1  0
 44 42  1  0
 46 49  1  0
 47 51  1  0
 47 46  1  0
 48 47  2  0
 51 50  1  0
 53 51  1  0
 53 54  1  0
 53 52  1  0
 55 94  1  0
 56 64  1  0
 57 62  1  0
 58 59  1  0
 58 57  1  0
 60 59  1  0
 60 69  1  0
 60 61  1  0
 62 56  1  0
 62 61  1  0
 63 56  2  0
 64 55  1  0
 64 65  1  0
 66 67  2  0
 67 86  1  0
 68 67  1  0
 68 71  1  0
 69 70  1  0
 69 66  1  0
 70 68  2  0
 71 72  1  0
 72 73  2  0
 74 77  1  0
 74 73  1  0
 75 74  2  0
 76 75  1  0
 76 71  2  0
 77 78  1  0
 78 83  2  0
 78 79  1  0
 79 80  2  0
 81 80  1  0
 81 85  1  0
 82 81  2  0
 83 82  1  0
 84 83  1  0
 86 87  1  0
 87 90  1  0
 87 89  1  0
 88 86  2  0
 91 66  1  0
 91 92  1  0
 93 91  1  0
 94 97  1  0
 95 97  1  0
 97 96  1  0
M  ISO  4  13 101  14 101  56 100  64 100
M  END
>  <TORSDO>  (88) 
F 25

>  <SCORE>  (88) 
-7.799

>  <name>  (88) 
87

>  <ligand_id>  (88) 
87

>  <original_smiles>  (88) 
[H]c1c([H])c([H])c2c(c1[H])C([H])([H])C([H])([H])C([H])([H])C2([H])N([H])C(=O)C1([H])N(C(=O)C([H])(N([H])C(=O)C([H])(N([H])C([H])([H])[H])C([H])([H])[H])C(C([H])([H])[H])(C([H])([H])[H])C([H])([H])[H])C([H])([H])c2c([H])c(OC([H])([H])C([H])([H])C([H])([H])C([H])([H])C([H])([H])C([H])(C([H])(N([H])C(=O)N3C([H])([H])C([H])([H])C([H])([H])C([H])(n4nc(-c5c([H])c([H])c(Oc6c([H])c([H])c(F)c([H])c6F)c([H])c5[H])c(C(=O)N([H])[H])c4N([H])[H])C3([H])[H])C([H])([H])C([H])(C([H])([H])[H])C([H])([H])[H])[N+]3([H])C([H])([H])C([H])([H])C([H])([H])C([H])([H])C3([H])[H])c([H])c([H])c2C1([H])[H]

>  <smiles>  (88) 
[H]c1c([H])c([H])c2c(c1[H])C([H])([H])C([H])([H])C([H])([H])C2([H])N([H])C(=O)C1([H])N(C(=O)C([H])(N([H])C(=O)C([H])(N([H])C([H])([H])[H])C([H])([H])[H])C(C([H])([H])[H])(C([H])([H])[H])C([H])([H])[H])C([H])([H])c2c([H])c(OC([H])([H])C([H])([H])C([H])([H])C([H])([H])C([H])([H])C([H])(C([H])(N([H])C(=O)N3C([H])([H])C([H])([H])C([H])([H])C([H])(n4nc(-c5c([H])c([H])c(Oc6c([H])c([H])c(F)c([H])c6F)c([H])c5[H])c(C(=O)N([H])[H])c4N([H])[H])C3([H])[H])C([H])([H])C([H])(C([H])([H])[H])C([H])([H])[H])[N+]3([H])C([H])([H])C([H])([H])C([H])([H])C([H])([H])C3([H])[H])c([H])c([H])c2C1([H])[H]

$$$$
88:0:0
     RDKit          3D

 87 94  0  0  1  0  0  0  0  0999 V2000
  -28.8770  -21.1660   20.0380 C   0  0  0  0  0  3  0  0  0  0  0  0
  -29.0960  -22.8950   20.3790 C   0  0  0  0  0  3  0  0  0  0  0  0
  -28.0520  -24.3150   20.1180 C   0  0  0  0  0  3  0  0  0  0  0  0
  -28.2740  -25.9220   20.2260 O   0  0  0  0  0  0  0  0  0  0  0  0
  -24.6590  -31.8370   23.1400 C   0  0  0  0  0  0  0  0  0  0  0  0
  -27.2290  -26.9700   20.1640 C   0  0  0  0  0  0  0  0  0  0  0  0
  -23.4590  -30.4050   21.5370 C   0  0  0  0  0  3  0  0  0  0  0  0
  -24.9040  -28.7950   20.1190 C   0  0  0  0  0  0  0  0  0  0  0  0
  -26.0210  -30.6450   21.3520 C   0  0  0  0  0  2  0  0  0  0  0  0
  -26.0940  -29.2310   20.7160 C   0  0  0  0  0  0  0  0  0  0  0  0
  -27.2530  -28.3370   20.7110 C   0  0  0  0  0  3  0  0  0  0  0  0
  -26.0040  -26.6680   19.5270 C   0  0  0  0  0  3  0  0  0  0  0  0
  -24.8830  -27.5330   19.5030 C   0  0  0  0  0  3  0  0  0  0  0  0
  -23.6710  -29.6940   20.1710 C   0  0  0  0  0  2  0  0  0  0  0  0
  -24.7360  -30.9890   22.0640 N   0  0  0  0  0  0  0  0  0  0  0  0
  -23.5730  -32.1330   23.6640 O   0  0  0  0  0  0  0  0  0  0  0  0
  -22.7750  -29.4230   22.5240 C   0  0  0  0  0  0  0  0  0  0  0  0
  -21.4420  -29.2630   22.4160 N   0  0  0  0  0  0  0  0  0  0  0  0
  -23.4490  -28.8020   23.3500 O   0  0  0  0  0  0  0  0  0  0  0  0
  -20.9550  -29.8200   21.7290 H   0  0  0  0  0  0  0  0  0  0  0  0
  -18.0590  -28.0730   22.9630 C   0  0  0  0  0  0  0  0  0  0  0  0
  -20.6210  -28.3330   23.1990 C   0  0  0  0  0  3  0  0  0  0  0  0
  -20.7100  -26.8950   22.6330 C   0  0  0  0  0  2  0  0  0  0  0  0
  -19.5970  -26.5710   21.6320 C   0  0  0  0  0  2  0  0  0  0  0  0
  -18.2230  -26.7190   22.2910 C   0  0  0  0  0  2  0  0  0  0  0  0
  -19.1830  -28.8390   23.3700 C   0  0  0  0  0  0  0  0  0  0  0  0
  -18.9710  -30.1040   23.9600 C   0  0  0  0  0  3  0  0  0  0  0  0
  -17.6680  -30.6060   24.1410 C   0  0  0  0  0  3  0  0  0  0  0  0
  -16.5590  -29.8380   23.7520 C   0  0  0  0  0  3  0  0  0  0  0  0
  -16.7540  -28.5710   23.1720 C   0  0  0  0  0  3  0  0  0  0  0  0
  -25.9320  -32.4920   23.7620 C   0  0  0  0  0  3  0  0  0  0  0  0
  -25.6040  -33.8860   24.1140 N   0  0  0  0  0  0  0  0  0  0  0  0
  -25.9300  -34.9580   23.3800 C   0  0  0  0  0  0  0  0  0  0  0  0
  -26.5980  -34.8750   22.3460 O   0  0  0  0  0  0  0  0  0  0  0  0
  -25.0120  -34.0220   24.9210 H   0  0  0  0  0  0  0  0  0  0  0  0
  -24.1910  -36.7520   23.0650 C   0  0  0  0  0  1  0  0  0  0  0  0
  -25.4390  -36.3390   23.8650 C   0  0  0  0  0  3  0  0  0  0  0  0
  -27.5710  -37.2140   24.7090 C   0  0  0  0  0  1  0  0  0  0  0  0
  -26.4680  -37.3980   23.7680 N   0  0  0  0  0  0  0  0  0  0  0  0
  -26.0610  -38.3150   23.9400 H   0  0  0  0  0  0  0  0  0  0  0  0
  -26.4660  -31.7250   25.0350 C   0  0  1  0  0  0  0  0  0  0  0  0
  -25.3870  -31.4700   26.1150 C   0  0  0  0  0  1  0  0  0  0  0  0
  -27.0610  -30.3550   24.6370 C   0  0  0  0  0  1  0  0  0  0  0  0
  -27.6180  -32.5290   25.6830 C   0  0  0  0  0  1  0  0  0  0  0  0
  -29.6660  -19.6300   20.5250 C   0  0  0  0  0  3  0  0  0  0  0  0
  -29.5830  -17.9870   19.8190 C   0  0  0  0  0  3  0  0  0  0  0  0
  -30.5660  -15.2080   20.0790 C   0  0  0  0  0  0  0  0  0  0  0  0
  -30.4400  -12.7830   19.1860 C   0  0  0  0  0  2  0  0  0  0  0  0
  -29.4880  -12.6680   17.9660 C   0  0  0  0  0  2  0  0  0  0  0  0
  -28.0360  -12.4590   18.4280 C   0  0  0  0  0  2  0  0  0  0  0  0
  -27.6500  -13.3980   19.5970 C   0  0  0  0  0  3  0  0  0  0  0  0
  -28.7280  -13.4510   20.7020 C   0  0  0  0  0  2  0  0  0  0  0  0
  -29.9790  -13.9140   20.0760 N   0  0  0  0  0  0  0  0  0  0  0  0
  -31.7310  -15.2230   19.6600 O   0  0  0  0  0  0  0  0  0  0  0  0
  -29.8520  -16.4520   20.4030 N   0  0  0  0  0  0  0  0  0  0  0  0
  -29.0370  -16.1820   20.9300 H   0  0  0  0  0  0  0  0  0  0  0  0
  -25.2980  -13.9820   20.3850 C   0  0  0  0  0  0  0  0  0  0  0  0
  -24.2330  -13.2190   20.7770 C   0  0  0  0  0  0  0  0  0  0  0  0
  -24.6820  -11.8620   20.7370 C   0  0  0  0  0  0  0  0  0  0  0  0
  -26.3250  -13.0950   20.1240 N   0  0  0  0  0  0  0  0  0  0  0  0
  -25.9680  -11.8120   20.4000 N   0  0  0  0  0  0  0  0  0  0  0  0
  -23.9400  -10.6120   20.9430 C   0  0  0  0  0  0  0  0  0  0  0  0
  -24.3700   -9.6430   21.8730 C   0  0  0  0  0  3  0  0  0  0  0  0
  -23.6240   -8.4620   22.0730 C   0  0  0  0  0  3  0  0  0  0  0  0
  -22.4340   -8.2440   21.3410 C   0  0  0  0  0  0  0  0  0  0  0  0
  -22.0230   -9.2010   20.3970 C   0  0  0  0  0  3  0  0  0  0  0  0
  -22.7710  -10.3730   20.1970 C   0  0  0  0  0  3  0  0  0  0  0  0
  -21.6590   -7.1170   21.4480 O   0  0  0  0  0  0  0  0  0  0  0  0
  -21.6130   -6.3800   22.6050 C   0  0  0  0  0  0  0  0  0  0  0  0
  -21.2190   -6.9520   23.8340 C   0  0  0  0  0  3  0  0  0  0  0  0
  -21.1190   -6.1450   24.9850 C   0  0  0  0  0  3  0  0  0  0  0  0
  -21.4010   -4.7690   24.9070 C   0  0  0  0  0  0  0  0  0  0  0  0
  -21.7860   -4.1970   23.6820 C   0  0  0  0  0  3  0  0  0  0  0  0
  -21.8890   -5.0000   22.5330 C   0  0  0  0  0  0  0  0  0  0  0  0
  -22.2400   -4.4390   21.3510 F   0  0  0  0  0  0  0  0  0  0  0  0
  -21.3000   -3.9930   26.0110 F   0  0  0  0  0  0  0  0  0  0  0  0
  -22.8490  -13.7190   21.0630 C   0  0  0  0  0  0  0  0  0  0  0  0
  -22.1330  -13.0450   21.9580 N   0  0  0  0  0  0  0  0  0  0  0  0
  -22.4100  -14.7340   20.5290 O   0  0  0  0  0  0  0  0  0  0  0  0
  -22.5100  -12.2250   22.4070 H   0  0  0  0  0  0  0  0  0  0  0  0
  -21.1980  -13.3510   22.1870 H   0  0  0  0  0  0  0  0  0  0  0  0
  -25.4600  -15.3500   20.2130 N   0  0  0  0  0  0  0  0  0  0  0  0
  -24.7030  -16.0010   20.4120 H   0  0  0  0  0  0  0  0  0  0  0  0
  -26.2890  -15.8110   19.8640 H   0  0  0  0  0  0  0  0  0  0  0  0
  -27.8790  -18.7240   18.0200 C   0  0  0  0  0  1  0  0  0  0  0  0
  -27.0770  -18.0900   20.3830 C   0  0  0  0  0  1  0  0  0  0  0  0
  -28.1330  -17.8650   19.2740 C   0  0  0  0  0  3  0  0  0  0  0  0
  1  2  1  0
  1 45  2  0
  3  4  1  0
  3  2  2  0
  5 16  2  0
  6  4  1  0
  6 11  1  0
  7 15  1  0
  7 17  1  0
  8 14  1  0
  8 10  1  0
  9 15  1  0
 10  9  1  0
 11 10  2  0
 12  6  2  0
 13 12  1  0
 13  8  2  0
 14  7  1  0
 15  5  1  0
 17 19  2  0
 18 17  1  0
 20 18  1  0
 21 30  2  0
 21 26  1  0
 22 18  1  0
 22 26  1  0
 23 22  1  0
 24 25  1  0
 24 23  1  0
 25 21  1  0
 26 27  2  0
 27 28  1  0
 29 28  2  0
 30 29  1  0
 31  5  1  0
 31 32  1  0
 31 41  1  0
 32 35  1  0
 33 37  1  0
 33 32  1  0
 34 33  2  0
 37 36  1  0
 39 37  1  0
 39 40  1  0
 39 38  1  0
 41 44  1  1
 41 42  1  0
 43 41  1  0
 46 55  1  0
 46 45  1  0
 47 55  1  0
 48 53  1  0
 49 50  1  0
 49 48  1  0
 51 50  1  0
 51 60  1  0
 51 52  1  0
 53 47  1  0
 53 52  1  0
 54 47  2  0
 55 56  1  0
 57 58  2  0
 58 77  1  0
 59 58  1  0
 59 62  1  0
 60 57  1  0
 60 61  1  0
 61 59  2  0
 62 63  1  0
 63 64  2  0
 65 68  1  0
 65 64  1  0
 66 65  2  0
 67 66  1  0
 67 62  2  0
 68 69  1  0
 69 70  1  0
 70 71  2  0
 72 71  1  0
 72 76  1  0
 73 72  2  0
 74 69  2  0
 74 73  1  0
 75 74  1  0
 77 78  1  0
 78 81  1  0
 78 80  1  0
 79 77  2  0
 82 57  1  0
 82 83  1  0
 84 82  1  0
 85 87  1  0
 87 46  1  0
 87 86  1  0
M  ISO  4   3 101   4 101  47 100  55 100
M  END
>  <TORSDO>  (89) 
F 21

>  <SCORE>  (89) 
-15.033

>  <name>  (89) 
88

>  <ligand_id>  (89) 
88

>  <original_smiles>  (89) 
[H]c1c([H])c([H])c2c(c1[H])C([H])([H])C([H])([H])C([H])([H])C2([H])N([H])C(=O)C1([H])N(C(=O)C([H])(N([H])C(=O)C([H])(N([H])C([H])([H])[H])C([H])([H])[H])C(C([H])([H])[H])(C([H])([H])[H])C([H])([H])[H])C([H])([H])c2c([H])c(OC([H])([H])C([H])([H])C([H])([H])C([H])([H])C([H])(N([H])C(=O)N3C([H])([H])C([H])([H])C([H])([H])C([H])(n4nc(-c5c([H])c([H])c(Oc6c([H])c([H])c(F)c([H])c6F)c([H])c5[H])c(C(=O)N([H])[H])c4N([H])[H])C3([H])[H])C([H])(C([H])([H])[H])C([H])([H])[H])c([H])c([H])c2C1([H])[H]

>  <smiles>  (89) 
[H]c1c([H])c([H])c2c(c1[H])C([H])([H])C([H])([H])C([H])([H])C2([H])N([H])C(=O)C1([H])N(C(=O)C([H])(N([H])C(=O)C([H])(N([H])C([H])([H])[H])C([H])([H])[H])C(C([H])([H])[H])(C([H])([H])[H])C([H])([H])[H])C([H])([H])c2c([H])c(OC([H])([H])C([H])([H])C([H])([H])C([H])([H])C([H])(N([H])C(=O)N3C([H])([H])C([H])([H])C([H])([H])C([H])(n4nc(-c5c([H])c([H])c(Oc6c([H])c([H])c(F)c([H])c6F)c([H])c5[H])c(C(=O)N([H])[H])c4N([H])[H])C3([H])[H])C([H])(C([H])([H])[H])C([H])([H])[H])c([H])c([H])c2C1([H])[H]

$$$$
89:0:0
     RDKit          3D

 87 94  0  0  1  0  0  0  0  0999 V2000
  -28.7710  -20.5180   19.8890 C   0  0  0  0  0  3  0  0  0  0  0  0
  -28.9210  -22.3790   20.3320 C   0  0  0  0  0  3  0  0  0  0  0  0
  -28.0210  -24.0540   20.1120 C   0  0  0  0  0  3  0  0  0  0  0  0
  -28.2220  -25.7410   20.4380 O   0  0  0  0  0  0  0  0  0  0  0  0
  -24.7250  -31.9680   23.3810 C   0  0  0  0  0  0  0  0  0  0  0  0
  -27.2660  -26.9390   20.3750 C   0  0  0  0  0  0  0  0  0  0  0  0
  -23.5500  -30.5760   21.7310 C   0  0  0  0  0  3  0  0  0  0  0  0
  -25.0050  -28.9410   20.3200 C   0  0  0  0  0  0  0  0  0  0  0  0
  -26.1240  -30.7280   21.6300 C   0  0  0  0  0  2  0  0  0  0  0  0
  -26.1960  -29.3010   20.9680 C   0  0  0  0  0  0  0  0  0  0  0  0
  -27.3170  -28.3240   20.9670 C   0  0  0  0  0  3  0  0  0  0  0  0
  -26.0430  -26.7760   19.6840 C   0  0  0  0  0  3  0  0  0  0  0  0
  -24.9650  -27.7010   19.6630 C   0  0  0  0  0  3  0  0  0  0  0  0
  -23.8030  -29.8930   20.3590 C   0  0  0  0  0  2  0  0  0  0  0  0
  -24.8230  -31.1200   22.3050 N   0  0  0  0  0  0  0  0  0  0  0  0
  -23.6300  -32.2710   23.8800 O   0  0  0  0  0  0  0  0  0  0  0  0
  -22.8240  -29.5900   22.6850 C   0  0  0  0  0  0  0  0  0  0  0  0
  -21.5000  -29.4230   22.5250 N   0  0  0  0  0  0  0  0  0  0  0  0
  -23.4650  -28.9770   23.5390 O   0  0  0  0  0  0  0  0  0  0  0  0
  -21.0340  -29.9850   21.8260 H   0  0  0  0  0  0  0  0  0  0  0  0
  -18.1100  -28.1770   22.9420 C   0  0  0  0  0  0  0  0  0  0  0  0
  -20.6590  -28.4830   23.2820 C   0  0  0  0  0  3  0  0  0  0  0  0
  -20.7950  -27.0420   22.7360 C   0  0  0  0  0  2  0  0  0  0  0  0
  -19.7330  -26.6920   21.6890 C   0  0  0  0  0  2  0  0  0  0  0  0
  -18.3280  -26.8260   22.2840 C   0  0  0  0  0  2  0  0  0  0  0  0
  -19.2050  -28.9620   23.3950 C   0  0  0  0  0  0  0  0  0  0  0  0
  -18.9450  -30.2220   23.9740 C   0  0  0  0  0  3  0  0  0  0  0  0
  -17.6300  -30.7020   24.1010 C   0  0  0  0  0  3  0  0  0  0  0  0
  -16.5500  -29.9140   23.6660 C   0  0  0  0  0  3  0  0  0  0  0  0
  -16.7910  -28.6560   23.0890 C   0  0  0  0  0  3  0  0  0  0  0  0
  -25.9830  -32.6110   24.0390 C   0  0  0  0  0  3  0  0  0  0  0  0
  -25.6780  -34.0290   24.3250 N   0  0  0  0  0  0  0  0  0  0  0  0
  -26.0040  -35.0640   23.5410 C   0  0  0  0  0  0  0  0  0  0  0  0
  -26.6500  -34.9250   22.4990 O   0  0  0  0  0  0  0  0  0  0  0  0
  -25.0960  -34.2100   25.1310 H   0  0  0  0  0  0  0  0  0  0  0  0
  -24.2550  -36.8580   23.2280 C   0  0  0  0  0  1  0  0  0  0  0  0
  -25.5420  -36.4720   23.9760 C   0  0  0  0  0  3  0  0  0  0  0  0
  -27.7170  -37.3900   24.6550 C   0  0  0  0  0  1  0  0  0  0  0  0
  -26.5660  -37.5200   23.7680 N   0  0  0  0  0  0  0  0  0  0  0  0
  -26.1670  -38.4450   23.9060 H   0  0  0  0  0  0  0  0  0  0  0  0
  -26.4250  -31.8820   25.3700 C   0  0  1  0  0  0  0  0  0  0  0  0
  -25.2790  -31.7110   26.3950 C   0  0  0  0  0  1  0  0  0  0  0  0
  -26.9960  -30.4790   25.0600 C   0  0  0  0  0  1  0  0  0  0  0  0
  -27.5610  -32.6820   26.0510 C   0  0  0  0  0  1  0  0  0  0  0  0
  -27.2350  -20.2380   19.7290 C   0  0  0  0  0  2  0  0  0  0  0  0
  -26.8970  -21.2860   17.3290 C   0  0  0  0  0  1  0  0  0  0  0  0
  -25.1750  -19.6930   18.2710 C   0  0  0  0  0  1  0  0  0  0  0  0
  -26.6790  -20.0720   18.2710 C   0  0  0  0  0  3  0  0  0  0  0  0
  -29.6870  -18.8910   20.3740 C   0  0  0  0  0  2  0  0  0  0  0  0
  -30.3750  -15.8020   20.1940 C   0  0  0  0  0  0  0  0  0  0  0  0
  -30.5200  -13.2890   19.3560 C   0  0  0  0  0  2  0  0  0  0  0  0
  -29.6080  -12.8680   18.1690 C   0  0  0  0  0  2  0  0  0  0  0  0
  -28.2030  -12.4920   18.6580 C   0  0  0  0  0  2  0  0  0  0  0  0
  -27.6910  -13.4920   19.7160 C   0  0  0  0  0  3  0  0  0  0  0  0
  -28.7310  -13.8060   20.8120 C   0  0  0  0  0  2  0  0  0  0  0  0
  -29.8770  -14.4390   20.1250 N   0  0  0  0  0  0  0  0  0  0  0  0
  -31.6170  -15.7600   20.0950 O   0  0  0  0  0  0  0  0  0  0  0  0
  -29.5760  -17.1340   20.1910 N   0  0  0  0  0  0  0  0  0  0  0  0
  -28.5970  -16.8870   20.1590 H   0  0  0  0  0  0  0  0  0  0  0  0
  -25.3370  -14.0020   20.5210 C   0  0  0  0  0  0  0  0  0  0  0  0
  -24.2830  -13.2100   20.8760 C   0  0  0  0  0  0  0  0  0  0  0  0
  -24.7640  -11.8650   20.8270 C   0  0  0  0  0  0  0  0  0  0  0  0
  -26.3840  -13.1430   20.2510 N   0  0  0  0  0  0  0  0  0  0  0  0
  -26.0560  -11.8500   20.5060 N   0  0  0  0  0  0  0  0  0  0  0  0
  -24.0510  -10.5950   21.0070 C   0  0  0  0  0  0  0  0  0  0  0  0
  -24.4620   -9.6420   21.9630 C   0  0  0  0  0  3  0  0  0  0  0  0
  -23.7420   -8.4410   22.1340 C   0  0  0  0  0  3  0  0  0  0  0  0
  -22.5960   -8.1810   21.3470 C   0  0  0  0  0  0  0  0  0  0  0  0
  -22.2020   -9.1240   20.3790 C   0  0  0  0  0  3  0  0  0  0  0  0
  -22.9240  -10.3180   20.2080 C   0  0  0  0  0  3  0  0  0  0  0  0
  -21.8500   -7.0290   21.4240 O   0  0  0  0  0  0  0  0  0  0  0  0
  -21.7430   -6.3180   22.5920 C   0  0  0  0  0  0  0  0  0  0  0  0
  -21.1790   -6.8840   23.7570 C   0  0  0  0  0  3  0  0  0  0  0  0
  -21.0220   -6.0970   24.9160 C   0  0  0  0  0  3  0  0  0  0  0  0
  -21.4190   -4.7470   24.9100 C   0  0  0  0  0  0  0  0  0  0  0  0
  -21.9760   -4.1810   23.7500 C   0  0  0  0  0  3  0  0  0  0  0  0
  -22.1330   -4.9660   22.5930 C   0  0  0  0  0  0  0  0  0  0  0  0
  -22.6520   -4.4080   21.4720 F   0  0  0  0  0  0  0  0  0  0  0  0
  -21.2600   -3.9890   26.0200 F   0  0  0  0  0  0  0  0  0  0  0  0
  -22.8850  -13.6720   21.1550 C   0  0  0  0  0  0  0  0  0  0  0  0
  -22.1700  -12.9730   22.0260 N   0  0  0  0  0  0  0  0  0  0  0  0
  -22.4370  -14.6960   20.6340 O   0  0  0  0  0  0  0  0  0  0  0  0
  -22.5460  -12.1470   22.4670 H   0  0  0  0  0  0  0  0  0  0  0  0
  -21.2330  -13.2720   22.2630 H   0  0  0  0  0  0  0  0  0  0  0  0
  -25.4840  -15.3790   20.3760 N   0  0  0  0  0  0  0  0  0  0  0  0
  -24.7170  -16.0240   20.5380 H   0  0  0  0  0  0  0  0  0  0  0  0
  -26.3540  -15.8500   20.1710 H   0  0  0  0  0  0  0  0  0  0  0  0
  1 45  1  0
  1  2  1  0
  1 49  1  0
  3  2  2  0
  3  4  1  0
  5 16  2  0
  6  4  1  0
  6 11  1  0
  7 15  1  0
  7 17  1  0
  8 14  1  0
  8 10  1  0
  9 15  1  0
 10  9  1  0
 11 10  2  0
 12  6  2  0
 13 12  1  0
 13  8  2  0
 14  7  1  0
 15  5  1  0
 17 19  2  0
 18 17  1  0
 20 18  1  0
 21 30  2  0
 21 26  1  0
 22 18  1  0
 22 26  1  0
 23 22  1  0
 24 25  1  0
 24 23  1  0
 25 21  1  0
 26 27  2  0
 27 28  1  0
 29 28  2  0
 30 29  1  0
 31  5  1  0
 31 32  1  0
 31 41  1  0
 32 35  1  0
 33 37  1  0
 33 32  1  0
 34 33  2  0
 37 36  1  0
 39 40  1  0
 39 37  1  0
 39 38  1  0
 41 44  1  1
 41 42  1  0
 43 41  1  0
 46 48  1  0
 47 48  1  0
 48 45  1  0
 51 56  1  0
 52 53  1  0
 52 51  1  0
 54 53  1  0
 54 63  1  0
 54 55  1  0
 56 50  1  0
 56 55  1  0
 57 50  2  0
 58 50  1  0
 58 49  1  0
 59 58  1  0
 60 61  2  0
 61 80  1  0
 62 61  1  0
 62 65  1  0
 63 64  1  0
 63 60  1  0
 64 62  2  0
 65 66  1  0
 66 67  2  0
 68 71  1  0
 68 67  1  0
 69 68  2  0
 70 69  1  0
 70 65  2  0
 71 72  1  0
 72 77  2  0
 72 73  1  0
 73 74  2  0
 75 74  1  0
 75 79  1  0
 76 75  2  0
 77 76  1  0
 78 77  1  0
 80 81  1  0
 81 84  1  0
 81 83  1  0
 82 80  2  0
 85 60  1  0
 85 86  1  0
 87 85  1  0
M  ISO  4   3 101   4 101  50 100  58 100
M  END
>  <TORSDO>  (90) 
F 21

>  <SCORE>  (90) 
-14.476

>  <name>  (90) 
89

>  <ligand_id>  (90) 
89

>  <original_smiles>  (90) 
[H]c1c([H])c([H])c2c(c1[H])C([H])([H])C([H])([H])C([H])([H])C2([H])N([H])C(=O)C1([H])N(C(=O)C([H])(N([H])C(=O)C([H])(N([H])C([H])([H])[H])C([H])([H])[H])C(C([H])([H])[H])(C([H])([H])[H])C([H])([H])[H])C([H])([H])c2c([H])c(OC([H])([H])C([H])([H])C([H])(C([H])([H])N([H])C(=O)N3C([H])([H])C([H])([H])C([H])([H])C([H])(n4nc(-c5c([H])c([H])c(Oc6c([H])c([H])c(F)c([H])c6F)c([H])c5[H])c(C(=O)N([H])[H])c4N([H])[H])C3([H])[H])C([H])([H])C([H])(C([H])([H])[H])C([H])([H])[H])c([H])c([H])c2C1([H])[H]

>  <smiles>  (90) 
[H]c1c([H])c([H])c2c(c1[H])C([H])([H])C([H])([H])C([H])([H])C2([H])N([H])C(=O)C1([H])N(C(=O)C([H])(N([H])C(=O)C([H])(N([H])C([H])([H])[H])C([H])([H])[H])C(C([H])([H])[H])(C([H])([H])[H])C([H])([H])[H])C([H])([H])c2c([H])c(OC([H])([H])C([H])([H])C([H])(C([H])([H])N([H])C(=O)N3C([H])([H])C([H])([H])C([H])([H])C([H])(n4nc(-c5c([H])c([H])c(Oc6c([H])c([H])c(F)c([H])c6F)c([H])c5[H])c(C(=O)N([H])[H])c4N([H])[H])C3([H])[H])C([H])([H])C([H])(C([H])([H])[H])C([H])([H])[H])c([H])c([H])c2C1([H])[H]

$$$$
90:0:0
     RDKit          3D

 99107  0  0  1  0  0  0  0  0999 V2000
  -31.2510  -21.6050   19.3020 C   0  0  0  0  0  0  0  0  0  0  0  0
  -30.0870  -21.5230   19.9840 N   0  0  0  0  0  0  0  0  0  0  0  0
  -31.3890  -21.0790   18.1950 O   0  0  0  0  0  0  0  0  0  0  0  0
  -34.3880  -23.7880   19.6490 C   0  0  0  0  0  2  0  0  0  0  0  0
  -34.9040  -22.4220   20.1180 C   0  0  0  0  0  2  0  0  0  0  0  0
  -32.9360  -23.5730   19.2060 C   0  0  0  0  0  2  0  0  0  0  0  0
  -33.7070  -21.4570   20.0700 C   0  0  0  0  0  2  0  0  0  0  0  0
  -32.4420  -22.3340   19.9730 C   0  0  0  0  0  3  0  0  0  0  0  0
  -29.9780  -20.2530   20.8210 C   0  0  0  0  0  2  0  0  0  0  0  0
  -28.2060  -18.5960   20.0600 C   0  0  0  0  0  1  0  0  0  0  0  0
  -29.7300  -18.8160   20.1100 C   0  0  0  0  0  3  0  0  0  0  0  0
  -30.5310  -17.4710   22.1960 C   0  0  0  0  0  1  0  0  0  0  0  0
  -30.4930  -17.4840   20.6590 C   0  0  0  0  0  3  0  0  0  0  0  0
  -29.9860  -16.0350   20.1510 C   0  0  0  0  0  2  0  0  0  0  0  0
  -30.8350  -14.6780   20.2440 C   0  0  0  0  0  0  0  0  0  0  0  0
  -30.6020  -12.4170   19.2360 C   0  0  0  0  0  2  0  0  0  0  0  0
  -29.6510  -12.5500   18.0200 C   0  0  0  0  0  2  0  0  0  0  0  0
  -28.1790  -12.4060   18.4590 C   0  0  0  0  0  2  0  0  0  0  0  0
  -27.8360  -13.2760   19.6920 C   0  0  0  0  0  3  0  0  0  0  0  0
  -28.9040  -13.1400   20.7990 C   0  0  0  0  0  2  0  0  0  0  0  0
  -30.2140  -13.4490   20.2160 N   0  0  0  0  0  0  0  0  0  0  0  0
  -32.0440  -14.7510   20.0090 O   0  0  0  0  0  0  0  0  0  0  0  0
  -25.4590  -13.9100   20.4320 C   0  0  0  0  0  0  0  0  0  0  0  0
  -24.3810  -13.1500   20.8010 C   0  0  0  0  0  0  0  0  0  0  0  0
  -24.8230  -11.7930   20.7710 C   0  0  0  0  0  0  0  0  0  0  0  0
  -26.4880  -13.0130   20.1910 N   0  0  0  0  0  0  0  0  0  0  0  0
  -26.1130  -11.7380   20.4580 N   0  0  0  0  0  0  0  0  0  0  0  0
  -24.0810  -10.5410   20.9630 C   0  0  0  0  0  0  0  0  0  0  0  0
  -24.4740   -9.5870   21.9280 C   0  0  0  0  0  3  0  0  0  0  0  0
  -23.7300   -8.4000   22.1040 C   0  0  0  0  0  3  0  0  0  0  0  0
  -22.5810   -8.1590   21.3130 C   0  0  0  0  0  0  0  0  0  0  0  0
  -22.2100   -9.0980   20.3370 C   0  0  0  0  0  3  0  0  0  0  0  0
  -22.9540  -10.2770   20.1590 C   0  0  0  0  0  3  0  0  0  0  0  0
  -21.8130   -7.0230   21.3970 O   0  0  0  0  0  0  0  0  0  0  0  0
  -21.6820   -6.3260   22.5730 C   0  0  0  0  0  0  0  0  0  0  0  0
  -21.1470   -6.9230   23.7350 C   0  0  0  0  0  3  0  0  0  0  0  0
  -20.9660   -6.1540   24.9010 C   0  0  0  0  0  3  0  0  0  0  0  0
  -21.3110   -4.7890   24.9040 C   0  0  0  0  0  0  0  0  0  0  0  0
  -21.8420   -4.1920   23.7480 C   0  0  0  0  0  3  0  0  0  0  0  0
  -22.0230   -4.9590   22.5830 C   0  0  0  0  0  0  0  0  0  0  0  0
  -22.5160   -4.3750   21.4650 F   0  0  0  0  0  0  0  0  0  0  0  0
  -21.1300   -4.0480   26.0220 F   0  0  0  0  0  0  0  0  0  0  0  0
  -22.9910  -13.6480   21.0770 C   0  0  0  0  0  0  0  0  0  0  0  0
  -22.2580  -12.9540   21.9400 N   0  0  0  0  0  0  0  0  0  0  0  0
  -22.5660  -14.6800   20.5610 O   0  0  0  0  0  0  0  0  0  0  0  0
  -22.6230  -12.1190   22.3740 H   0  0  0  0  0  0  0  0  0  0  0  0
  -21.3240  -13.2610   22.1680 H   0  0  0  0  0  0  0  0  0  0  0  0
  -25.6430  -15.2780   20.2570 N   0  0  0  0  0  0  0  0  0  0  0  0
  -24.8920  -15.9510   20.3650 H   0  0  0  0  0  0  0  0  0  0  0  0
  -26.5000  -15.6970   19.9200 H   0  0  0  0  0  0  0  0  0  0  0  0
  -29.3950  -22.8460   20.3600 C   0  0  0  0  0  2  0  0  0  0  0  0
  -29.2150  -23.9030   19.1550 C   0  0  0  0  0  3  0  0  0  0  0  0
  -28.5690  -23.1700   18.0370 N   0  0  0  0  0  4  0  0  0  0  0  0
  -27.6000  -22.9830   18.2410 H   0  0  0  0  0  0  0  0  0  0  0  0
  -29.0240  -22.2900   17.8630 H   0  0  0  0  0  0  0  0  0  0  0  0
  -28.6000  -23.7030   17.1840 H   0  0  0  0  0  0  0  0  0  0  0  0
  -29.6050  -26.3160   18.3820 C   0  0  0  0  0  1  0  0  0  0  0  0
  -28.6060  -25.4300   19.1540 C   0  0  0  0  0  3  0  0  0  0  0  0
  -28.2740  -26.3220   20.2860 O   0  0  0  0  0  0  0  0  0  0  0  0
  -24.6160  -31.8230   23.2580 C   0  0  0  0  0  0  0  0  0  0  0  0
  -27.1690  -27.2030   20.2090 C   0  0  0  0  0  0  0  0  0  0  0  0
  -23.3900  -30.4340   21.6270 C   0  0  0  0  0  3  0  0  0  0  0  0
  -24.8170  -28.8570   20.2070 C   0  0  0  0  0  0  0  0  0  0  0  0
  -25.9360  -30.7090   21.4400 C   0  0  0  0  0  2  0  0  0  0  0  0
  -25.9960  -29.3270   20.7960 C   0  0  0  0  0  0  0  0  0  0  0  0
  -27.1710  -28.5120   20.7920 C   0  0  0  0  0  3  0  0  0  0  0  0
  -25.9460  -26.7760   19.6320 C   0  0  0  0  0  3  0  0  0  0  0  0
  -24.7950  -27.5830   19.6180 C   0  0  0  0  0  3  0  0  0  0  0  0
  -23.5920  -29.7480   20.2520 C   0  0  0  0  0  2  0  0  0  0  0  0
  -24.6670  -31.0060   22.1650 N   0  0  0  0  0  0  0  0  0  0  0  0
  -23.5370  -32.1220   23.7890 O   0  0  0  0  0  0  0  0  0  0  0  0
  -22.7100  -29.4340   22.5930 C   0  0  0  0  0  0  0  0  0  0  0  0
  -21.3860  -29.2550   22.4460 N   0  0  0  0  0  0  0  0  0  0  0  0
  -23.3730  -28.8200   23.4330 O   0  0  0  0  0  0  0  0  0  0  0  0
  -20.9100  -29.8000   21.7400 H   0  0  0  0  0  0  0  0  0  0  0  0
  -18.0060  -28.0350   22.8730 C   0  0  0  0  0  0  0  0  0  0  0  0
  -20.5510  -28.3320   23.2200 C   0  0  0  0  0  3  0  0  0  0  0  0
  -20.6880  -26.8840   22.6930 C   0  0  0  0  0  2  0  0  0  0  0  0
  -19.6230  -26.5180   21.6540 C   0  0  0  0  0  2  0  0  0  0  0  0
  -18.2190  -26.6660   22.2470 C   0  0  0  0  0  2  0  0  0  0  0  0
  -19.1010  -28.8230   23.3150 C   0  0  0  0  0  0  0  0  0  0  0  0
  -18.8490  -30.1010   23.8580 C   0  0  0  0  0  3  0  0  0  0  0  0
  -17.5340  -30.5930   23.9640 C   0  0  0  0  0  3  0  0  0  0  0  0
  -16.4530  -29.8010   23.5390 C   0  0  0  0  0  3  0  0  0  0  0  0
  -16.6890  -28.5240   23.0010 C   0  0  0  0  0  3  0  0  0  0  0  0
  -25.9070  -32.4390   23.8760 C   0  0  0  0  0  3  0  0  0  0  0  0
  -26.4210  -31.6590   25.1480 C   0  0  1  0  0  0  0  0  0  0  0  0
  -25.3270  -31.4210   26.2160 C   0  0  0  0  0  1  0  0  0  0  0  0
  -26.9950  -30.2800   24.7470 C   0  0  0  0  0  1  0  0  0  0  0  0
  -27.5790  -32.4430   25.8100 C   0  0  0  0  0  1  0  0  0  0  0  0
  -25.6170  -33.8400   24.2100 N   0  0  0  0  0  0  0  0  0  0  0  0
  -25.9430  -34.8890   23.4450 C   0  0  0  0  0  0  0  0  0  0  0  0
  -26.5880  -34.7800   22.4000 O   0  0  0  0  0  0  0  0  0  0  0  0
  -25.0400  -34.0010   25.0240 H   0  0  0  0  0  0  0  0  0  0  0  0
  -24.2120  -36.6900   23.1440 C   0  0  0  0  0  1  0  0  0  0  0  0
  -25.4780  -36.2830   23.9140 C   0  0  0  0  0  3  0  0  0  0  0  0
  -27.6400  -37.1620   24.6760 C   0  0  0  0  0  1  0  0  0  0  0  0
  -26.5140  -37.3290   23.7630 N   0  0  0  0  0  0  0  0  0  0  0  0
  -26.1160  -38.2530   23.9170 H   0  0  0  0  0  0  0  0  0  0  0  0
  1  8  1  0
  1  2  1  0
  2 51  1  0
  2  9  1  0
  3  1  2  0
  4  5  1  0
  6  4  1  0
  6  8  1  0
  7  5  1  0
  8  7  1  0
 11 10  1  0
 11 13  1  0
 11  9  1  0
 13 12  1  0
 14 15  1  0
 14 13  1  0
 16 21  1  0
 17 18  1  0
 17 16  1  0
 19 18  1  0
 19 26  1  0
 19 20  1  0
 21 15  1  0
 21 20  1  0
 22 15  2  0
 23 24  2  0
 24 43  1  0
 25 24  1  0
 25 28  1  0
 26 23  1  0
 26 27  1  0
 27 25  2  0
 28 29  1  0
 29 30  2  0
 31 34  1  0
 31 30  1  0
 32 31  2  0
 33 32  1  0
 33 28  2  0
 34 35  1  0
 35 40  2  0
 35 36  1  0
 36 37  2  0
 37 38  1  0
 38 42  1  0
 39 38  2  0
 40 39  1  0
 41 40  1  0
 43 44  1  0
 44 47  1  0
 44 46  1  0
 45 43  2  0
 48 49  1  0
 48 23  1  0
 50 48  1  0
 52 51  1  0
 53 54  1  0
 53 52  1  0
 55 53  1  0
 56 53  1  0
 58 57  1  0
 58 52  1  0
 58 59  1  0
 60 71  2  0
 61 59  1  0
 61 66  1  0
 62 70  1  0
 62 72  1  0
 63 69  1  0
 63 65  1  0
 64 70  1  0
 65 64  1  0
 66 65  2  0
 67 61  2  0
 68 67  1  0
 68 63  2  0
 69 62  1  0
 70 60  1  0
 72 74  2  0
 73 72  1  0
 75 73  1  0
 76 85  2  0
 76 81  1  0
 77 73  1  0
 77 81  1  0
 78 77  1  0
 79 80  1  0
 79 78  1  0
 80 76  1  0
 81 82  2  0
 82 83  1  0
 84 83  2  0
 85 84  1  0
 86 60  1  0
 86 91  1  0
 86 87  1  0
 87 90  1  1
 87 88  1  0
 89 87  1  0
 91 94  1  0
 92 96  1  0
 92 91  1  0
 93 92  2  0
 96 95  1  0
 98 96  1  0
 98 99  1  0
 98 97  1  0
M  ISO  4  14 100  15 100  58 101  59 101
M  END
>  <TORSDO>  (91) 
F 25

>  <SCORE>  (91) 
-12.478

>  <name>  (91) 
90

>  <ligand_id>  (91) 
90

>  <original_smiles>  (91) 
[H]c1c([H])c([H])c2c(c1[H])C([H])([H])C([H])([H])C([H])([H])C2([H])N([H])C(=O)C1([H])N(C(=O)C([H])(N([H])C(=O)C([H])(N([H])C([H])([H])[H])C([H])([H])[H])C(C([H])([H])[H])(C([H])([H])[H])C([H])([H])[H])C([H])([H])c2c([H])c(OC([H])(C([H])([H])[H])C([H])(C([H])([H])N(C(=O)C3([H])C([H])([H])C([H])([H])C([H])([H])C3([H])[H])C([H])([H])C([H])(C([H])([H])[H])C([H])(C([H])([H])[H])C([H])([H])C(=O)N3C([H])([H])C([H])([H])C([H])([H])C([H])(n4nc(-c5c([H])c([H])c(Oc6c([H])c([H])c(F)c([H])c6F)c([H])c5[H])c(C(=O)N([H])[H])c4N([H])[H])C3([H])[H])[N+]([H])([H])[H])c([H])c([H])c2C1([H])[H]

>  <smiles>  (91) 
[H]c1c([H])c([H])c2c(c1[H])C([H])([H])C([H])([H])C([H])([H])C2([H])N([H])C(=O)C1([H])N(C(=O)C([H])(N([H])C(=O)C([H])(N([H])C([H])([H])[H])C([H])([H])[H])C(C([H])([H])[H])(C([H])([H])[H])C([H])([H])[H])C([H])([H])c2c([H])c(OC([H])(C([H])([H])[H])C([H])(C([H])([H])N(C(=O)C3([H])C([H])([H])C([H])([H])C([H])([H])C3([H])[H])C([H])([H])C([H])(C([H])([H])[H])C([H])(C([H])([H])[H])C([H])([H])C(=O)N3C([H])([H])C([H])([H])C([H])([H])C([H])(n4nc(-c5c([H])c([H])c(Oc6c([H])c([H])c(F)c([H])c6F)c([H])c5[H])c(C(=O)N([H])[H])c4N([H])[H])C3([H])[H])[N+]([H])([H])[H])c([H])c([H])c2C1([H])[H]

$$$$
91:0:0
     RDKit          3D

 91 98  0  0  1  0  0  0  0  0999 V2000
  -28.6740  -21.4780   20.5710 C   0  0  0  0  0  2  0  0  0  0  0  0
  -29.0200  -23.2060   20.4840 C   0  0  0  0  0  3  0  0  0  0  0  0
  -30.7810  -24.7590   21.6210 C   0  0  0  0  0  1  0  0  0  0  0  0
  -29.8500  -23.5390   21.7500 C   0  0  0  0  0  2  0  0  0  0  0  0
  -27.9210  -24.5510   20.2580 C   0  0  0  0  0  2  0  0  0  0  0  0
  -28.1580  -26.1380   20.2440 O   0  0  0  0  0  0  0  0  0  0  0  0
  -24.4960  -31.9450   23.1370 C   0  0  0  0  0  0  0  0  0  0  0  0
  -27.1050  -27.1530   20.1640 C   0  0  0  0  0  0  0  0  0  0  0  0
  -23.3060  -30.5000   21.5350 C   0  0  0  0  0  3  0  0  0  0  0  0
  -24.7640  -28.9210   20.1120 C   0  0  0  0  0  0  0  0  0  0  0  0
  -25.8530  -30.7920   21.3360 C   0  0  0  0  0  2  0  0  0  0  0  0
  -25.9450  -29.3800   20.7100 C   0  0  0  0  0  0  0  0  0  0  0  0
  -27.1150  -28.5140   20.7120 C   0  0  0  0  0  3  0  0  0  0  0  0
  -25.8990  -26.8220   19.5120 C   0  0  0  0  0  3  0  0  0  0  0  0
  -24.7600  -27.6610   19.4910 C   0  0  0  0  0  3  0  0  0  0  0  0
  -23.5230  -29.8000   20.1660 C   0  0  0  0  0  2  0  0  0  0  0  0
  -24.5720  -31.1070   22.0540 N   0  0  0  0  0  0  0  0  0  0  0  0
  -23.4100  -32.2200   23.6680 O   0  0  0  0  0  0  0  0  0  0  0  0
  -22.6460  -29.5040   22.5250 C   0  0  0  0  0  0  0  0  0  0  0  0
  -21.3160  -29.3270   22.4230 N   0  0  0  0  0  0  0  0  0  0  0  0
  -23.3390  -28.8930   23.3460 O   0  0  0  0  0  0  0  0  0  0  0  0
  -20.8180  -29.8780   21.7380 H   0  0  0  0  0  0  0  0  0  0  0  0
  -17.9480  -28.1030   22.9800 C   0  0  0  0  0  0  0  0  0  0  0  0
  -20.5100  -28.3920   23.2130 C   0  0  0  0  0  3  0  0  0  0  0  0
  -20.6150  -26.9550   22.6480 C   0  0  0  0  0  2  0  0  0  0  0  0
  -19.4990  -26.6130   21.6530 C   0  0  0  0  0  2  0  0  0  0  0  0
  -18.1260  -26.7490   22.3160 C   0  0  0  0  0  2  0  0  0  0  0  0
  -19.0650  -28.8820   23.3870 C   0  0  0  0  0  0  0  0  0  0  0  0
  -18.8350  -30.1490   23.9670 C   0  0  0  0  0  3  0  0  0  0  0  0
  -17.5250  -30.6340   24.1480 C   0  0  0  0  0  3  0  0  0  0  0  0
  -16.4250  -29.8490   23.7600 C   0  0  0  0  0  3  0  0  0  0  0  0
  -16.6390  -28.5880   23.1790 C   0  0  0  0  0  3  0  0  0  0  0  0
  -25.7660  -32.6090   23.7490 C   0  0  0  0  0  3  0  0  0  0  0  0
  -26.3020  -31.8600   25.0320 C   0  0  1  0  0  0  0  0  0  0  0  0
  -25.2210  -31.6200   26.1140 C   0  0  0  0  0  1  0  0  0  0  0  0
  -26.8920  -30.4850   24.6440 C   0  0  0  0  0  1  0  0  0  0  0  0
  -27.4470  -32.6810   25.6770 C   0  0  0  0  0  1  0  0  0  0  0  0
  -25.4320  -34.0060   24.0750 N   0  0  0  0  0  0  0  0  0  0  0  0
  -25.7750  -35.0700   23.3360 C   0  0  0  0  0  0  0  0  0  0  0  0
  -26.4650  -34.9790   22.3180 O   0  0  0  0  0  0  0  0  0  0  0  0
  -24.8170  -34.1530   24.8620 H   0  0  0  0  0  0  0  0  0  0  0  0
  -24.0610  -36.8720   22.9560 C   0  0  0  0  0  1  0  0  0  0  0  0
  -25.2730  -36.4510   23.8020 C   0  0  0  0  0  3  0  0  0  0  0  0
  -27.3740  -37.3240   24.7250 C   0  0  0  0  0  1  0  0  0  0  0  0
  -26.3070  -37.5060   23.7450 N   0  0  0  0  0  0  0  0  0  0  0  0
  -25.8930  -38.4210   23.8940 H   0  0  0  0  0  0  0  0  0  0  0  0
  -29.6590  -20.0420   20.2970 C   0  0  0  0  0  3  0  0  0  0  0  0
  -31.0620  -20.3960   20.5880 N   0  0  0  0  0  4  0  0  0  0  0  0
  -31.2250  -20.4410   21.5790 H   0  0  0  0  0  0  0  0  0  0  0  0
  -31.3180  -21.2790   20.1810 H   0  0  0  0  0  0  0  0  0  0  0  0
  -31.6790  -19.6970   20.2160 H   0  0  0  0  0  0  0  0  0  0  0  0
  -29.4700  -18.3740   20.8360 C   0  0  0  0  0  2  0  0  0  0  0  0
  -29.5880  -16.8210   20.0080 C   0  0  0  0  0  3  0  0  0  0  0  0
  -30.4260  -15.3230   20.2590 C   0  0  0  0  0  0  0  0  0  0  0  0
  -30.4030  -12.9290   19.3390 C   0  0  0  0  0  2  0  0  0  0  0  0
  -29.4680  -12.7910   18.1090 C   0  0  0  0  0  2  0  0  0  0  0  0
  -28.0140  -12.5220   18.5420 C   0  0  0  0  0  2  0  0  0  0  0  0
  -27.5740  -13.4410   19.7080 C   0  0  0  0  0  3  0  0  0  0  0  0
  -28.6310  -13.5400   20.8270 C   0  0  0  0  0  2  0  0  0  0  0  0
  -29.8790  -14.0210   20.2240 N   0  0  0  0  0  0  0  0  0  0  0  0
  -31.6540  -15.3300   20.1170 O   0  0  0  0  0  0  0  0  0  0  0  0
  -25.2030  -13.9620   20.4900 C   0  0  0  0  0  0  0  0  0  0  0  0
  -24.1570  -13.1660   20.8650 C   0  0  0  0  0  0  0  0  0  0  0  0
  -24.6470  -11.8240   20.8240 C   0  0  0  0  0  0  0  0  0  0  0  0
  -26.2560  -13.1050   20.2290 N   0  0  0  0  0  0  0  0  0  0  0  0
  -25.9340  -11.8120   20.5010 N   0  0  0  0  0  0  0  0  0  0  0  0
  -23.9440  -10.5500   21.0150 C   0  0  0  0  0  0  0  0  0  0  0  0
  -24.3930   -9.5870   21.9460 C   0  0  0  0  0  3  0  0  0  0  0  0
  -23.6870   -8.3790   22.1250 C   0  0  0  0  0  3  0  0  0  0  0  0
  -22.5170   -8.1210   21.3690 C   0  0  0  0  0  0  0  0  0  0  0  0
  -22.0920   -9.0690   20.4230 C   0  0  0  0  0  3  0  0  0  0  0  0
  -22.7990  -10.2690   20.2430 C   0  0  0  0  0  3  0  0  0  0  0  0
  -21.7810   -6.9640   21.4550 O   0  0  0  0  0  0  0  0  0  0  0  0
  -21.7330   -6.2250   22.6110 C   0  0  0  0  0  0  0  0  0  0  0  0
  -21.2730   -6.7740   23.8260 C   0  0  0  0  0  3  0  0  0  0  0  0
  -21.1760   -5.9600   24.9750 C   0  0  0  0  0  3  0  0  0  0  0  0
  -21.5250   -4.5990   24.9050 C   0  0  0  0  0  0  0  0  0  0  0  0
  -21.9800   -4.0490   23.6930 C   0  0  0  0  0  3  0  0  0  0  0  0
  -22.0770   -4.8600   22.5480 C   0  0  0  0  0  0  0  0  0  0  0  0
  -22.4940   -4.3220   21.3770 F   0  0  0  0  0  0  0  0  0  0  0  0
  -21.4240   -3.8130   26.0030 F   0  0  0  0  0  0  0  0  0  0  0  0
  -22.7540  -13.6150   21.1470 C   0  0  0  0  0  0  0  0  0  0  0  0
  -22.0480  -12.8940   22.0110 N   0  0  0  0  0  0  0  0  0  0  0  0
  -22.2970  -14.6370   20.6370 O   0  0  0  0  0  0  0  0  0  0  0  0
  -22.4410  -12.0680   22.4380 H   0  0  0  0  0  0  0  0  0  0  0  0
  -21.1040  -13.1650   22.2480 H   0  0  0  0  0  0  0  0  0  0  0  0
  -25.3440  -15.3370   20.3250 N   0  0  0  0  0  0  0  0  0  0  0  0
  -24.5730  -15.9820   20.4600 H   0  0  0  0  0  0  0  0  0  0  0  0
  -26.1860  -15.7880   19.9890 H   0  0  0  0  0  0  0  0  0  0  0  0
  -28.4860  -17.6750   17.8150 C   0  0  0  0  0  1  0  0  0  0  0  0
  -29.7690  -17.1630   18.5010 C   0  0  0  0  0  2  0  0  0  0  0  0
  2  5  1  0
  2  1  1  0
  2  4  1  0
  3  4  1  0
  6  5  1  0
  7 18  2  0
  8  6  1  0
  8 13  1  0
  9 17  1  0
  9 19  1  0
 10 16  1  0
 10 12  1  0
 11 17  1  0
 12 13  2  0
 12 11  1  0
 14  8  2  0
 15 14  1  0
 15 10  2  0
 16  9  1  0
 17  7  1  0
 19 21  2  0
 20 19  1  0
 22 20  1  0
 23 32  2  0
 23 28  1  0
 24 20  1  0
 24 28  1  0
 25 24  1  0
 26 27  1  0
 26 25  1  0
 27 23  1  0
 28 29  2  0
 29 30  1  0
 31 30  2  0
 32 31  1  0
 33  7  1  0
 33 38  1  0
 33 34  1  0
 34 37  1  1
 34 35  1  0
 36 34  1  0
 38 41  1  0
 39 43  1  0
 39 38  1  0
 40 39  2  0
 43 42  1  0
 45 43  1  0
 45 46  1  0
 45 44  1  0
 47  1  1  0
 47 48  1  0
 47 52  1  0
 48 49  1  0
 50 48  1  0
 51 48  1  0
 53 91  1  0
 53 54  1  0
 53 52  1  0
 55 60  1  0
 56 57  1  0
 56 55  1  0
 58 57  1  0
 58 65  1  0
 58 59  1  0
 60 54  1  0
 60 59  1  0
 61 54  2  0
 62 63  2  0
 63 82  1  0
 64 63  1  0
 64 67  1  0
 65 62  1  0
 65 66  1  0
 66 64  2  0
 67 68  1  0
 68 69  2  0
 70 73  1  0
 70 69  1  0
 71 70  2  0
 72 71  1  0
 72 67  2  0
 73 74  1  0
 74 75  1  0
 75 76  2  0
 77 76  1  0
 77 81  1  0
 78 77  2  0
 79 74  2  0
 79 78  1  0
 80 79  1  0
 82 83  1  0
 83 86  1  0
 83 85  1  0
 84 82  2  0
 87 88  1  0
 87 62  1  0
 89 87  1  0
 90 91  1  0
M  ISO  4   5 101   6 101  53 100  54 100
M  END
>  <TORSDO>  (92) 
F 24

>  <SCORE>  (92) 
-15.273

>  <name>  (92) 
91

>  <ligand_id>  (92) 
91

>  <original_smiles>  (92) 
[H]c1c([H])c([H])c2c(c1[H])C([H])([H])C([H])([H])C([H])([H])C2([H])N([H])C(=O)C1([H])N(C(=O)C([H])(N([H])C(=O)C([H])(N([H])C([H])([H])[H])C([H])([H])[H])C(C([H])([H])[H])(C([H])([H])[H])C([H])([H])[H])C([H])([H])c2c([H])c(OC([H])([H])C([H])(C([H])([H])C([H])([H])[H])C([H])([H])C([H])(C([H])([H])C([H])(C(=O)N3C([H])([H])C([H])([H])C([H])([H])C([H])(n4nc(-c5c([H])c([H])c(Oc6c([H])c([H])c(F)c([H])c6F)c([H])c5[H])c(C(=O)N([H])[H])c4N([H])[H])C3([H])[H])C([H])([H])C([H])([H])[H])[N+]([H])([H])[H])c([H])c([H])c2C1([H])[H]

>  <smiles>  (92) 
[H]c1c([H])c([H])c2c(c1[H])C([H])([H])C([H])([H])C([H])([H])C2([H])N([H])C(=O)C1([H])N(C(=O)C([H])(N([H])C(=O)C([H])(N([H])C([H])([H])[H])C([H])([H])[H])C(C([H])([H])[H])(C([H])([H])[H])C([H])([H])[H])C([H])([H])c2c([H])c(OC([H])([H])C([H])(C([H])([H])C([H])([H])[H])C([H])([H])C([H])(C([H])([H])C([H])(C(=O)N3C([H])([H])C([H])([H])C([H])([H])C([H])(n4nc(-c5c([H])c([H])c(Oc6c([H])c([H])c(F)c([H])c6F)c([H])c5[H])c(C(=O)N([H])[H])c4N([H])[H])C3([H])[H])C([H])([H])C([H])([H])[H])[N+]([H])([H])[H])c([H])c([H])c2C1([H])[H]

$$$$
92:0:0
     RDKit          3D

 95102  0  0  1  0  0  0  0  0999 V2000
  -28.7750  -20.7270   19.0940 C   0  0  0  0  0  3  0  0  0  0  0  0
  -29.6470  -21.0070   17.9390 N   0  0  0  0  0  4  0  0  0  0  0  0
  -30.6190  -20.9680   18.1920 H   0  0  0  0  0  0  0  0  0  0  0  0
  -29.4570  -21.9240   17.5750 H   0  0  0  0  0  0  0  0  0  0  0  0
  -29.4810  -20.3490   17.1990 H   0  0  0  0  0  0  0  0  0  0  0  0
  -28.8170  -22.0290   20.1580 C   0  0  0  0  0  2  0  0  0  0  0  0
  -26.5150  -23.2070   19.6490 C   0  0  0  0  0  1  0  0  0  0  0  0
  -27.9400  -23.4840   20.1490 C   0  0  0  0  0  3  0  0  0  0  0  0
  -28.4030  -25.0110   19.6210 C   0  0  0  0  0  2  0  0  0  0  0  0
  -28.1980  -26.3990   20.2820 O   0  0  0  0  0  0  0  0  0  0  0  0
  -24.4460  -31.9120   23.3060 C   0  0  0  0  0  0  0  0  0  0  0  0
  -27.0980  -27.3140   20.1750 C   0  0  0  0  0  0  0  0  0  0  0  0
  -23.2720  -30.5480   21.6170 C   0  0  0  0  0  3  0  0  0  0  0  0
  -24.7450  -29.0140   20.1650 C   0  0  0  0  0  0  0  0  0  0  0  0
  -25.8190  -30.8390   21.4850 C   0  0  0  0  0  2  0  0  0  0  0  0
  -25.9080  -29.4660   20.7970 C   0  0  0  0  0  0  0  0  0  0  0  0
  -27.0810  -28.6280   20.7890 C   0  0  0  0  0  3  0  0  0  0  0  0
  -25.9120  -26.9510   19.5080 C   0  0  0  0  0  3  0  0  0  0  0  0
  -24.7570  -27.7700   19.5070 C   0  0  0  0  0  3  0  0  0  0  0  0
  -23.5080  -29.8970   20.2250 C   0  0  0  0  0  2  0  0  0  0  0  0
  -24.5310  -31.1190   22.1930 N   0  0  0  0  0  0  0  0  0  0  0  0
  -23.3530  -32.1780   23.8290 O   0  0  0  0  0  0  0  0  0  0  0  0
  -22.5900  -29.5160   22.5500 C   0  0  0  0  0  0  0  0  0  0  0  0
  -21.2770  -29.2940   22.3590 N   0  0  0  0  0  0  0  0  0  0  0  0
  -23.2450  -28.9170   23.4060 O   0  0  0  0  0  0  0  0  0  0  0  0
  -20.8040  -29.8340   21.6490 H   0  0  0  0  0  0  0  0  0  0  0  0
  -17.9340  -27.9370   22.6740 C   0  0  0  0  0  0  0  0  0  0  0  0
  -20.4570  -28.3230   23.0880 C   0  0  0  0  0  3  0  0  0  0  0  0
  -20.6610  -26.8940   22.5330 C   0  0  0  0  0  2  0  0  0  0  0  0
  -19.6370  -26.5110   21.4590 C   0  0  0  0  0  2  0  0  0  0  0  0
  -18.2140  -26.5930   22.0200 C   0  0  0  0  0  2  0  0  0  0  0  0
  -18.9870  -28.7540   23.1610 C   0  0  0  0  0  0  0  0  0  0  0  0
  -18.6740  -30.0060   23.7330 C   0  0  0  0  0  3  0  0  0  0  0  0
  -17.3400  -30.4450   23.8180 C   0  0  0  0  0  3  0  0  0  0  0  0
  -16.2990  -29.6250   23.3490 C   0  0  0  0  0  3  0  0  0  0  0  0
  -16.5970  -28.3730   22.7830 C   0  0  0  0  0  3  0  0  0  0  0  0
  -25.7150  -32.5360   23.9640 C   0  0  0  0  0  3  0  0  0  0  0  0
  -26.1330  -31.8200   25.3090 C   0  0  1  0  0  0  0  0  0  0  0  0
  -24.9700  -31.6570   26.3160 C   0  0  0  0  0  1  0  0  0  0  0  0
  -26.7120  -30.4150   25.0290 C   0  0  0  0  0  1  0  0  0  0  0  0
  -27.2530  -32.6310   26.0040 C   0  0  0  0  0  1  0  0  0  0  0  0
  -25.4350  -33.9600   24.2070 N   0  0  0  0  0  0  0  0  0  0  0  0
  -25.8490  -34.9650   23.4230 C   0  0  0  0  0  0  0  0  0  0  0  0
  -26.5680  -34.7890   22.4370 O   0  0  0  0  0  0  0  0  0  0  0  0
  -24.7960  -34.1710   24.9600 H   0  0  0  0  0  0  0  0  0  0  0  0
  -24.2070  -36.8030   22.9040 C   0  0  0  0  0  1  0  0  0  0  0  0
  -25.3940  -36.3900   23.7900 C   0  0  0  0  0  3  0  0  0  0  0  0
  -27.5100  -37.2550   24.6900 C   0  0  0  0  0  1  0  0  0  0  0  0
  -26.4680  -37.4000   23.6780 N   0  0  0  0  0  0  0  0  0  0  0  0
  -26.0870  -38.3400   23.7490 H   0  0  0  0  0  0  0  0  0  0  0  0
  -28.7470  -19.0580   19.4170 C   0  0  0  0  0  2  0  0  0  0  0  0
  -29.9830  -17.9170   19.5180 C   0  0  0  0  0  3  0  0  0  0  0  0
  -30.4890  -15.2080   19.3840 C   0  0  0  0  0  0  0  0  0  0  0  0
  -30.3020  -12.8590   18.4650 C   0  0  0  0  0  2  0  0  0  0  0  0
  -29.1930  -12.7780   17.3900 C   0  0  0  0  0  2  0  0  0  0  0  0
  -27.8240  -12.5150   18.0450 C   0  0  0  0  0  2  0  0  0  0  0  0
  -27.5680  -13.4370   19.2660 C   0  0  0  0  0  3  0  0  0  0  0  0
  -28.7810  -13.4890   20.2190 C   0  0  0  0  0  2  0  0  0  0  0  0
  -29.9310  -13.9350   19.4260 N   0  0  0  0  0  0  0  0  0  0  0  0
  -31.6220  -15.3110   18.9020 O   0  0  0  0  0  0  0  0  0  0  0  0
  -29.7150  -16.3630   19.6820 N   0  0  0  0  0  0  0  0  0  0  0  0
  -28.7930  -16.1370   20.0240 H   0  0  0  0  0  0  0  0  0  0  0  0
  -25.3590  -13.9390   20.4590 C   0  0  0  0  0  0  0  0  0  0  0  0
  -24.3680  -13.1290   20.9400 C   0  0  0  0  0  0  0  0  0  0  0  0
  -24.8080  -11.7890   20.7110 C   0  0  0  0  0  0  0  0  0  0  0  0
  -26.3350  -13.0910   19.9630 N   0  0  0  0  0  0  0  0  0  0  0  0
  -26.0240  -11.7860   20.1780 N   0  0  0  0  0  0  0  0  0  0  0  0
  -24.1120  -10.5100   20.9120 C   0  0  0  0  0  0  0  0  0  0  0  0
  -24.5750   -9.5550   21.8440 C   0  0  0  0  0  3  0  0  0  0  0  0
  -23.8770   -8.3430   22.0340 C   0  0  0  0  0  3  0  0  0  0  0  0
  -22.7020   -8.0770   21.2920 C   0  0  0  0  0  0  0  0  0  0  0  0
  -22.2590   -9.0210   20.3490 C   0  0  0  0  0  3  0  0  0  0  0  0
  -22.9580  -10.2240   20.1570 C   0  0  0  0  0  3  0  0  0  0  0  0
  -21.9740   -6.9170   21.3910 O   0  0  0  0  0  0  0  0  0  0  0  0
  -21.8000   -6.2760   22.5910 C   0  0  0  0  0  0  0  0  0  0  0  0
  -21.1570   -6.9020   23.6830 C   0  0  0  0  0  3  0  0  0  0  0  0
  -20.9360   -6.1850   24.8760 C   0  0  0  0  0  3  0  0  0  0  0  0
  -21.3480   -4.8420   24.9770 C   0  0  0  0  0  0  0  0  0  0  0  0
  -21.9840   -4.2160   23.8910 C   0  0  0  0  0  3  0  0  0  0  0  0
  -22.2060   -4.9320   22.7010 C   0  0  0  0  0  0  0  0  0  0  0  0
  -22.8000   -4.3180   21.6490 F   0  0  0  0  0  0  0  0  0  0  0  0
  -21.1300   -4.1500   26.1200 F   0  0  0  0  0  0  0  0  0  0  0  0
  -23.0440  -13.5730   21.4870 C   0  0  0  0  0  0  0  0  0  0  0  0
  -22.4900  -12.8230   22.4330 N   0  0  0  0  0  0  0  0  0  0  0  0
  -22.5150  -14.6180   21.1110 O   0  0  0  0  0  0  0  0  0  0  0  0
  -22.9330  -11.9760   22.7550 H   0  0  0  0  0  0  0  0  0  0  0  0
  -21.6070  -13.0990   22.8390 H   0  0  0  0  0  0  0  0  0  0  0  0
  -25.5010  -15.3220   20.3730 N   0  0  0  0  0  0  0  0  0  0  0  0
  -24.7650  -15.9540   20.6730 H   0  0  0  0  0  0  0  0  0  0  0  0
  -26.2630  -15.7970   19.9080 H   0  0  0  0  0  0  0  0  0  0  0  0
  -30.9660  -18.3620   20.6290 C   0  0  0  0  0  2  0  0  0  0  0  0
  -30.3360  -19.2930   21.6900 C   0  0  0  0  0  2  0  0  0  0  0  0
  -31.2800  -18.4030   23.8930 C   0  0  0  0  0  1  0  0  0  0  0  0
  -30.7540  -20.8550   23.6410 C   0  0  0  0  0  1  0  0  0  0  0  0
  -31.2320  -19.5870   22.9120 C   0  0  0  0  0  3  0  0  0  0  0  0
  1 51  1  0
  1  6  1  0
  2  3  1  0
  2  1  1  0
  4  2  1  0
  5  2  1  0
  8  7  1  0
  8  6  1  0
  9  8  1  0
  9 10  1  0
 11 22  2  0
 12 10  1  0
 12 17  1  0
 13 21  1  0
 13 23  1  0
 14 20  1  0
 14 16  1  0
 15 21  1  0
 16 15  1  0
 17 16  2  0
 18 12  2  0
 19 18  1  0
 19 14  2  0
 20 13  1  0
 21 11  1  0
 23 25  2  0
 24 23  1  0
 26 24  1  0
 27 36  2  0
 27 32  1  0
 28 24  1  0
 28 32  1  0
 29 28  1  0
 30 31  1  0
 30 29  1  0
 31 27  1  0
 32 33  2  0
 33 34  1  0
 35 34  2  0
 36 35  1  0
 37 11  1  0
 37 42  1  0
 37 38  1  0
 38 41  1  1
 38 39  1  0
 40 38  1  0
 42 45  1  0
 43 47  1  0
 43 42  1  0
 44 43  2  0
 47 46  1  0
 49 50  1  0
 49 47  1  0
 49 48  1  0
 52 51  1  0
 52 61  1  0
 52 91  1  0
 53 59  1  0
 53 61  1  0
 54 59  1  0
 55 56  1  0
 55 54  1  0
 57 56  1  0
 57 66  1  0
 57 58  1  0
 59 58  1  0
 60 53  2  0
 61 62  1  0
 63 64  2  0
 64 83  1  0
 65 68  1  0
 65 64  1  0
 66 67  1  0
 66 63  1  0
 67 65  2  0
 68 69  1  0
 69 70  2  0
 71 74  1  0
 71 70  1  0
 72 71  2  0
 73 72  1  0
 73 68  2  0
 74 75  1  0
 75 80  2  0
 75 76  1  0
 76 77  2  0
 77 78  1  0
 78 82  1  0
 79 78  2  0
 80 79  1  0
 81 80  1  0
 83 84  1  0
 84 86  1  0
 84 87  1  0
 85 83  2  0
 88 63  1  0
 88 89  1  0
 90 88  1  0
 91 92  1  0
 92 95  1  0
 95 94  1  0
 95 93  1  0
M  ISO  4   9 101  10 101  53 100  61 100
M  END
>  <TORSDO>  (93) 
F 25

>  <SCORE>  (93) 
-11.349

>  <name>  (93) 
92

>  <ligand_id>  (93) 
92

>  <original_smiles>  (93) 
[H]c1c([H])c([H])c2c(c1[H])C([H])([H])C([H])([H])C([H])([H])C2([H])N([H])C(=O)C1([H])N(C(=O)C([H])(N([H])C(=O)C([H])(N([H])C([H])([H])[H])C([H])([H])[H])C(C([H])([H])[H])(C([H])([H])[H])C([H])([H])[H])C([H])([H])c2c([H])c(OC([H])([H])C([H])(C([H])([H])[H])C([H])([H])C([H])(C([H])([H])C([H])(N([H])C(=O)N3C([H])([H])C([H])([H])C([H])([H])C([H])(n4nc(-c5c([H])c([H])c(Oc6c([H])c([H])c(F)c([H])c6F)c([H])c5[H])c(C(=O)N([H])[H])c4N([H])[H])C3([H])[H])C([H])([H])C([H])([H])C([H])(C([H])([H])[H])C([H])([H])[H])[N+]([H])([H])[H])c([H])c([H])c2C1([H])[H]

>  <smiles>  (93) 
[H]c1c([H])c([H])c2c(c1[H])C([H])([H])C([H])([H])C([H])([H])C2([H])N([H])C(=O)C1([H])N(C(=O)C([H])(N([H])C(=O)C([H])(N([H])C([H])([H])[H])C([H])([H])[H])C(C([H])([H])[H])(C([H])([H])[H])C([H])([H])[H])C([H])([H])c2c([H])c(OC([H])([H])C([H])(C([H])([H])[H])C([H])([H])C([H])(C([H])([H])C([H])(N([H])C(=O)N3C([H])([H])C([H])([H])C([H])([H])C([H])(n4nc(-c5c([H])c([H])c(Oc6c([H])c([H])c(F)c([H])c6F)c([H])c5[H])c(C(=O)N([H])[H])c4N([H])[H])C3([H])[H])C([H])([H])C([H])([H])C([H])(C([H])([H])[H])C([H])([H])[H])[N+]([H])([H])[H])c([H])c([H])c2C1([H])[H]

$$$$
93:0:0
     RDKit          3D

 91 98  0  0  1  0  0  0  0  0999 V2000
  -29.2090  -21.3470   20.4190 C   0  0  0  0  0  2  0  0  0  0  0  0
  -28.9720  -23.1260   18.4710 C   0  0  0  0  0  1  0  0  0  0  0  0
  -26.9250  -22.5050   19.7230 C   0  0  0  0  0  1  0  0  0  0  0  0
  -28.4140  -22.8630   19.8780 C   0  0  1  0  0  0  0  0  0  0  0  0
  -28.3720  -24.4730   20.6420 C   0  0  0  0  0  2  0  0  0  0  0  0
  -28.3120  -26.0400   20.1870 O   0  0  0  0  0  0  0  0  0  0  0  0
  -24.6050  -31.8840   23.2130 C   0  0  0  0  0  0  0  0  0  0  0  0
  -27.2320  -27.0470   20.2520 C   0  0  0  0  0  0  0  0  0  0  0  0
  -23.4340  -30.4670   21.5720 C   0  0  0  0  0  3  0  0  0  0  0  0
  -24.9060  -28.8670   20.1840 C   0  0  0  0  0  0  0  0  0  0  0  0
  -25.9970  -30.7170   21.4410 C   0  0  0  0  0  2  0  0  0  0  0  0
  -26.0850  -29.3020   20.8030 C   0  0  0  0  0  0  0  0  0  0  0  0
  -27.2480  -28.4150   20.8030 C   0  0  0  0  0  3  0  0  0  0  0  0
  -26.0170  -26.7380   19.6080 C   0  0  0  0  0  3  0  0  0  0  0  0
  -24.8930  -27.6020   19.5710 C   0  0  0  0  0  3  0  0  0  0  0  0
  -23.6810  -29.7750   20.2040 C   0  0  0  0  0  2  0  0  0  0  0  0
  -24.6980  -31.0490   22.1290 N   0  0  0  0  0  0  0  0  0  0  0  0
  -23.5110  -32.1670   23.7240 O   0  0  0  0  0  0  0  0  0  0  0  0
  -22.7440  -29.4720   22.5390 C   0  0  0  0  0  0  0  0  0  0  0  0
  -21.4140  -29.3050   22.4150 N   0  0  0  0  0  0  0  0  0  0  0  0
  -23.4100  -28.8510   23.3720 O   0  0  0  0  0  0  0  0  0  0  0  0
  -20.9300  -29.8610   21.7230 H   0  0  0  0  0  0  0  0  0  0  0  0
  -18.0290  -28.1080   22.9330 C   0  0  0  0  0  0  0  0  0  0  0  0
  -20.5910  -28.3690   23.1870 C   0  0  0  0  0  3  0  0  0  0  0  0
  -20.6850  -26.9360   22.6090 C   0  0  0  0  0  2  0  0  0  0  0  0
  -19.5790  -26.6180   21.6000 C   0  0  0  0  0  2  0  0  0  0  0  0
  -18.2000  -26.7610   22.2490 C   0  0  0  0  0  2  0  0  0  0  0  0
  -19.1510  -28.8680   23.3590 C   0  0  0  0  0  0  0  0  0  0  0  0
  -18.9330  -30.1260   23.9630 C   0  0  0  0  0  3  0  0  0  0  0  0
  -17.6280  -30.6240   24.1440 C   0  0  0  0  0  3  0  0  0  0  0  0
  -16.5220  -29.8620   23.7280 C   0  0  0  0  0  3  0  0  0  0  0  0
  -16.7240  -28.6060   23.1310 C   0  0  0  0  0  3  0  0  0  0  0  0
  -25.8670  -32.5380   23.8520 C   0  0  0  0  0  3  0  0  0  0  0  0
  -25.5390  -33.9410   24.1650 N   0  0  0  0  0  0  0  0  0  0  0  0
  -25.8860  -34.9960   23.4140 C   0  0  0  0  0  0  0  0  0  0  0  0
  -26.5780  -34.8900   22.3990 O   0  0  0  0  0  0  0  0  0  0  0  0
  -24.9220  -34.0970   24.9490 H   0  0  0  0  0  0  0  0  0  0  0  0
  -24.1760  -36.8030   23.0140 C   0  0  0  0  0  1  0  0  0  0  0  0
  -25.3920  -36.3870   23.8600 C   0  0  0  0  0  3  0  0  0  0  0  0
  -27.5020  -37.2700   24.7550 C   0  0  0  0  0  1  0  0  0  0  0  0
  -26.4290  -37.4390   23.7780 N   0  0  0  0  0  0  0  0  0  0  0  0
  -26.0200  -38.3580   23.9110 H   0  0  0  0  0  0  0  0  0  0  0  0
  -26.3590  -31.7910   25.1540 C   0  0  1  0  0  0  0  0  0  0  0  0
  -25.2450  -31.5730   26.2040 C   0  0  0  0  0  1  0  0  0  0  0  0
  -26.9610  -30.4070   24.8120 C   0  0  0  0  0  1  0  0  0  0  0  0
  -27.4880  -32.6080   25.8270 C   0  0  0  0  0  1  0  0  0  0  0  0
  -28.9570  -19.5960   20.1090 C   0  0  0  0  0  2  0  0  0  0  0  0
  -30.0260  -18.1620   20.2330 C   0  0  0  0  0  3  0  0  0  0  0  0
  -30.4370  -15.2770   20.2180 C   0  0  0  0  0  0  0  0  0  0  0  0
  -30.3920  -12.8520   19.3300 C   0  0  0  0  0  2  0  0  0  0  0  0
  -29.4650  -12.6770   18.1040 C   0  0  0  0  0  2  0  0  0  0  0  0
  -28.0110  -12.4190   18.5460 C   0  0  0  0  0  2  0  0  0  0  0  0
  -27.5720  -13.3680   19.6890 C   0  0  0  0  0  3  0  0  0  0  0  0
  -28.6270  -13.4970   20.8030 C   0  0  0  0  0  2  0  0  0  0  0  0
  -29.8600  -13.9840   20.1640 N   0  0  0  0  0  0  0  0  0  0  0  0
  -31.6600  -15.2710   20.0260 O   0  0  0  0  0  0  0  0  0  0  0  0
  -29.6760  -16.5400   20.3020 N   0  0  0  0  0  0  0  0  0  0  0  0
  -28.6870  -16.3650   20.3860 H   0  0  0  0  0  0  0  0  0  0  0  0
  -25.2060  -13.9090   20.4730 C   0  0  0  0  0  0  0  0  0  0  0  0
  -24.1550  -13.1250   20.8510 C   0  0  0  0  0  0  0  0  0  0  0  0
  -24.6300  -11.7760   20.8130 C   0  0  0  0  0  0  0  0  0  0  0  0
  -26.2520  -13.0410   20.2130 N   0  0  0  0  0  0  0  0  0  0  0  0
  -25.9190  -11.7530   20.4880 N   0  0  0  0  0  0  0  0  0  0  0  0
  -23.9120  -10.5100   21.0030 C   0  0  0  0  0  0  0  0  0  0  0  0
  -24.3420   -9.5500   21.9440 C   0  0  0  0  0  3  0  0  0  0  0  0
  -23.6210   -8.3490   22.1260 C   0  0  0  0  0  3  0  0  0  0  0  0
  -22.4550   -8.1000   21.3630 C   0  0  0  0  0  0  0  0  0  0  0  0
  -22.0410   -9.0490   20.4100 C   0  0  0  0  0  3  0  0  0  0  0  0
  -22.7650  -10.2400   20.2270 C   0  0  0  0  0  3  0  0  0  0  0  0
  -21.7060   -6.9520   21.4520 O   0  0  0  0  0  0  0  0  0  0  0  0
  -21.6360   -6.2230   22.6120 C   0  0  0  0  0  0  0  0  0  0  0  0
  -21.1580   -6.7850   23.8160 C   0  0  0  0  0  3  0  0  0  0  0  0
  -21.0400   -5.9820   24.9680 C   0  0  0  0  0  3  0  0  0  0  0  0
  -21.3920   -4.6200   24.9170 C   0  0  0  0  0  0  0  0  0  0  0  0
  -21.8640   -4.0580   23.7170 C   0  0  0  0  0  3  0  0  0  0  0  0
  -21.9830   -4.8580   22.5670 C   0  0  0  0  0  0  0  0  0  0  0  0
  -22.4190   -4.3070   21.4090 F   0  0  0  0  0  0  0  0  0  0  0  0
  -21.2690   -3.8460   26.0210 F   0  0  0  0  0  0  0  0  0  0  0  0
  -22.7550  -13.5890   21.1270 C   0  0  0  0  0  0  0  0  0  0  0  0
  -22.0310  -12.8850   21.9870 N   0  0  0  0  0  0  0  0  0  0  0  0
  -22.3120  -14.6170   20.6130 O   0  0  0  0  0  0  0  0  0  0  0  0
  -22.4020  -12.0590   22.4350 H   0  0  0  0  0  0  0  0  0  0  0  0
  -21.0890  -13.1770   22.2070 H   0  0  0  0  0  0  0  0  0  0  0  0
  -25.3550  -15.2820   20.2970 N   0  0  0  0  0  0  0  0  0  0  0  0
  -24.5770  -15.9230   20.4160 H   0  0  0  0  0  0  0  0  0  0  0  0
  -26.1820  -15.7330   19.9290 H   0  0  0  0  0  0  0  0  0  0  0  0
  -31.1230  -18.3000   19.1700 C   0  0  0  0  0  0  0  0  0  0  0  0
  -32.2480  -18.9190   19.4980 N   0  0  0  0  0  0  0  0  0  0  0  0
  -30.9450  -17.8600   18.0350 O   0  0  0  0  0  0  0  0  0  0  0  0
  -32.3920  -19.2560   20.4390 H   0  0  0  0  0  0  0  0  0  0  0  0
  -32.9740  -19.0400   18.8060 H   0  0  0  0  0  0  0  0  0  0  0  0
  4  2  1  6
  3  4  1  0
  4  1  1  0
  4  5  1  0
  6  8  1  0
  6  5  1  0
  7 18  2  0
  8 13  1  0
  9 17  1  0
  9 19  1  0
 10 16  1  0
 10 12  1  0
 11 17  1  0
 12 13  2  0
 12 11  1  0
 14  8  2  0
 15 14  1  0
 15 10  2  0
 16  9  1  0
 17  7  1  0
 19 21  2  0
 20 19  1  0
 22 20  1  0
 23 32  2  0
 23 28  1  0
 24 20  1  0
 24 28  1  0
 25 24  1  0
 26 27  1  0
 26 25  1  0
 27 23  1  0
 28 29  2  0
 29 30  1  0
 31 30  2  0
 32 31  1  0
 33  7  1  0
 33 34  1  0
 33 43  1  0
 34 37  1  0
 35 39  1  0
 35 34  1  0
 36 35  2  0
 39 38  1  0
 41 39  1  0
 41 42  1  0
 41 40  1  0
 43 46  1  1
 43 44  1  0
 45 43  1  0
 47  1  1  0
 48 47  1  0
 48 57  1  0
 49 57  1  0
 50 55  1  0
 51 52  1  0
 51 50  1  0
 53 52  1  0
 53 62  1  0
 53 54  1  0
 55 49  1  0
 55 54  1  0
 56 49  2  0
 57 58  1  0
 59 60  2  0
 60 79  1  0
 61 60  1  0
 61 64  1  0
 62 59  1  0
 62 63  1  0
 63 61  2  0
 64 65  1  0
 65 66  2  0
 67 70  1  0
 67 66  1  0
 68 67  2  0
 69 68  1  0
 69 64  2  0
 70 71  1  0
 71 72  1  0
 72 73  2  0
 74 73  1  0
 74 78  1  0
 75 74  2  0
 76 71  2  0
 76 75  1  0
 77 76  1  0
 79 80  1  0
 80 83  1  0
 80 82  1  0
 81 79  2  0
 84 85  1  0
 84 59  1  0
 86 84  1  0
 87 88  1  0
 87 48  1  0
 88 90  1  0
 89 87  2  0
 91 88  1  0
M  ISO  4   5 101   6 101  49 100  57 100
M  END
>  <TORSDO>  (94) 
F 21

>  <SCORE>  (94) 
-15.239

>  <name>  (94) 
93

>  <ligand_id>  (94) 
93

>  <original_smiles>  (94) 
[H]c1c([H])c([H])c2c(c1[H])C([H])([H])C([H])([H])C([H])([H])C2([H])N([H])C(=O)C1([H])N(C(=O)C([H])(N([H])C(=O)C([H])(N([H])C([H])([H])[H])C([H])([H])[H])C(C([H])([H])[H])(C([H])([H])[H])C([H])([H])[H])C([H])([H])c2c([H])c(OC([H])([H])C(C([H])([H])[H])(C([H])([H])[H])C([H])([H])C([H])([H])C([H])(C(=O)N([H])[H])N([H])C(=O)N3C([H])([H])C([H])([H])C([H])([H])C([H])(n4nc(-c5c([H])c([H])c(Oc6c([H])c([H])c(F)c([H])c6F)c([H])c5[H])c(C(=O)N([H])[H])c4N([H])[H])C3([H])[H])c([H])c([H])c2C1([H])[H]

>  <smiles>  (94) 
[H]c1c([H])c([H])c2c(c1[H])C([H])([H])C([H])([H])C([H])([H])C2([H])N([H])C(=O)C1([H])N(C(=O)C([H])(N([H])C(=O)C([H])(N([H])C([H])([H])[H])C([H])([H])[H])C(C([H])([H])[H])(C([H])([H])[H])C([H])([H])[H])C([H])([H])c2c([H])c(OC([H])([H])C(C([H])([H])[H])(C([H])([H])[H])C([H])([H])C([H])([H])C([H])(C(=O)N([H])[H])N([H])C(=O)N3C([H])([H])C([H])([H])C([H])([H])C([H])(n4nc(-c5c([H])c([H])c(Oc6c([H])c([H])c(F)c([H])c6F)c([H])c5[H])c(C(=O)N([H])[H])c4N([H])[H])C3([H])[H])c([H])c([H])c2C1([H])[H]

$$$$
94:0:0
     RDKit          3D

 95103  0  0  1  0  0  0  0  0999 V2000
  -30.3370  -20.3450   21.5470 C   0  0  0  0  0  2  0  0  0  0  0  0
  -28.1770  -20.0580   20.5980 C   0  0  0  0  0  2  0  0  0  0  0  0
  -30.4460  -21.7700   20.9340 C   0  0  0  0  0  2  0  0  0  0  0  0
  -28.2530  -21.4450   19.9250 C   0  0  0  0  0  2  0  0  0  0  0  0
  -29.5200  -19.4750   20.6880 N   0  0  0  0  0  0  0  0  0  0  0  0
  -29.1070  -22.3810   20.7020 N   0  0  2  0  0  4  0  0  0  0  0  0
  -28.6620  -22.4690   21.6040 H   0  0  0  0  0  0  0  0  0  0  0  0
  -29.4660  -18.0800   21.1530 C   0  0  0  0  0  2  0  0  0  0  0  0
  -30.4810  -17.1470   20.4230 C   0  0  0  0  0  3  0  0  0  0  0  0
  -31.0020  -14.6800   20.6720 C   0  0  0  0  0  0  0  0  0  0  0  0
  -30.7380  -12.5380   19.5150 C   0  0  0  0  0  2  0  0  0  0  0  0
  -29.8340  -12.7790   18.2870 C   0  0  0  0  0  2  0  0  0  0  0  0
  -28.3450  -12.6640   18.6650 C   0  0  0  0  0  2  0  0  0  0  0  0
  -27.9760  -13.4690   19.9400 C   0  0  0  0  0  3  0  0  0  0  0  0
  -28.9930  -13.2150   21.0730 C   0  0  0  0  0  2  0  0  0  0  0  0
  -30.3390  -13.5020   20.5480 N   0  0  0  0  0  0  0  0  0  0  0  0
  -32.1980  -14.8120   20.4040 O   0  0  0  0  0  0  0  0  0  0  0  0
  -30.1960  -15.7490   20.8040 N   0  0  0  0  0  0  0  0  0  0  0  0
  -29.2390  -15.5350   21.0320 H   0  0  0  0  0  0  0  0  0  0  0  0
  -25.5560  -14.1130   20.5260 C   0  0  0  0  0  0  0  0  0  0  0  0
  -24.4640  -13.3570   20.8540 C   0  0  0  0  0  0  0  0  0  0  0  0
  -24.9150  -12.0010   20.8620 C   0  0  0  0  0  0  0  0  0  0  0  0
  -26.6010  -13.2190   20.3580 N   0  0  0  0  0  0  0  0  0  0  0  0
  -26.2160  -11.9450   20.6180 N   0  0  0  0  0  0  0  0  0  0  0  0
  -24.1720  -10.7460   21.0330 C   0  0  0  0  0  0  0  0  0  0  0  0
  -24.5380   -9.8030   22.0190 C   0  0  0  0  0  3  0  0  0  0  0  0
  -23.7980   -8.6110   22.1780 C   0  0  0  0  0  3  0  0  0  0  0  0
  -22.6790   -8.3550   21.3490 C   0  0  0  0  0  0  0  0  0  0  0  0
  -22.3320   -9.2880   20.3570 C   0  0  0  0  0  3  0  0  0  0  0  0
  -23.0730  -10.4700   20.1960 C   0  0  0  0  0  3  0  0  0  0  0  0
  -21.9180   -7.2130   21.4150 O   0  0  0  0  0  0  0  0  0  0  0  0
  -21.7680   -6.5150   22.5880 C   0  0  0  0  0  0  0  0  0  0  0  0
  -21.2000   -7.1030   23.7380 C   0  0  0  0  0  3  0  0  0  0  0  0
  -20.9980   -6.3290   24.8970 C   0  0  0  0  0  3  0  0  0  0  0  0
  -21.3560   -4.9670   24.9060 C   0  0  0  0  0  0  0  0  0  0  0  0
  -21.9210   -4.3770   23.7610 C   0  0  0  0  0  3  0  0  0  0  0  0
  -22.1220   -5.1500   22.6040 C   0  0  0  0  0  0  0  0  0  0  0  0
  -22.6450   -4.5740   21.4940 F   0  0  0  0  0  0  0  0  0  0  0  0
  -21.1550   -4.2200   26.0170 F   0  0  0  0  0  0  0  0  0  0  0  0
  -23.0610  -13.8500   21.0540 C   0  0  0  0  0  0  0  0  0  0  0  0
  -22.2880  -13.1720   21.8950 N   0  0  0  0  0  0  0  0  0  0  0  0
  -22.6550  -14.8660   20.4960 O   0  0  0  0  0  0  0  0  0  0  0  0
  -22.6280  -12.3480   22.3680 H   0  0  0  0  0  0  0  0  0  0  0  0
  -21.3450  -13.4880   22.0700 H   0  0  0  0  0  0  0  0  0  0  0  0
  -25.7390  -15.4800   20.3370 N   0  0  0  0  0  0  0  0  0  0  0  0
  -24.9610  -16.1290   20.3820 H   0  0  0  0  0  0  0  0  0  0  0  0
  -26.5830  -15.8960   19.9680 H   0  0  0  0  0  0  0  0  0  0  0  0
  -29.1360  -16.9110   18.2090 C   0  0  0  0  0  1  0  0  0  0  0  0
  -30.4540  -17.3530   18.8620 C   0  0  0  0  0  3  0  0  0  0  0  0
  -32.9910  -17.3930   18.3430 C   0  0  0  0  0  1  0  0  0  0  0  0
  -31.6330  -16.7290   18.0800 C   0  0  0  0  0  2  0  0  0  0  0  0
  -29.1480  -23.7430   20.0810 C   0  0  0  0  0  2  0  0  0  0  0  0
  -29.6940  -24.8660   21.0010 C   0  0  0  0  0  2  0  0  0  0  0  0
  -28.7070  -26.0280   21.2680 C   0  0  0  0  0  2  0  0  0  0  0  0
  -28.5340  -26.8660   20.1240 O   0  0  0  0  0  0  0  0  0  0  0  0
  -24.6850  -31.9250   23.3750 C   0  0  0  0  0  0  0  0  0  0  0  0
  -27.3820  -27.6140   20.1690 C   0  0  0  0  0  0  0  0  0  0  0  0
  -23.5020  -30.5770   21.6700 C   0  0  0  0  0  3  0  0  0  0  0  0
  -24.9800  -29.0950   20.2080 C   0  0  0  0  0  0  0  0  0  0  0  0
  -26.0270  -30.9540   21.5150 C   0  0  0  0  0  2  0  0  0  0  0  0
  -26.1270  -29.6050   20.8310 C   0  0  0  0  0  0  0  0  0  0  0  0
  -27.3330  -28.8690   20.8160 C   0  0  0  0  0  3  0  0  0  0  0  0
  -26.2230  -27.1130   19.5440 C   0  0  0  0  0  3  0  0  0  0  0  0
  -25.0200  -27.8430   19.5680 C   0  0  0  0  0  3  0  0  0  0  0  0
  -23.7300  -29.9460   20.2700 C   0  0  0  0  0  2  0  0  0  0  0  0
  -24.7550  -31.1650   22.2460 N   0  0  0  0  0  0  0  0  0  0  0  0
  -23.5980  -32.1770   23.9140 O   0  0  0  0  0  0  0  0  0  0  0  0
  -22.8420  -29.5220   22.5860 C   0  0  0  0  0  0  0  0  0  0  0  0
  -21.5210  -29.3340   22.4250 N   0  0  0  0  0  0  0  0  0  0  0  0
  -23.5140  -28.8780   23.3940 O   0  0  0  0  0  0  0  0  0  0  0  0
  -21.0390  -29.9040   21.7440 H   0  0  0  0  0  0  0  0  0  0  0  0
  -18.1480  -28.1070   22.8280 C   0  0  0  0  0  0  0  0  0  0  0  0
  -20.6980  -28.3670   23.1520 C   0  0  0  0  0  3  0  0  0  0  0  0
  -20.8190  -26.9570   22.5300 C   0  0  0  0  0  2  0  0  0  0  0  0
  -19.7360  -26.6630   21.4870 C   0  0  0  0  0  2  0  0  0  0  0  0
  -18.3430  -26.7810   22.1100 C   0  0  0  0  0  2  0  0  0  0  0  0
  -19.2540  -28.8580   23.3040 C   0  0  0  0  0  0  0  0  0  0  0  0
  -19.0190  -30.0990   23.9340 C   0  0  0  0  0  3  0  0  0  0  0  0
  -17.7090  -30.5890   24.0930 C   0  0  0  0  0  3  0  0  0  0  0  0
  -16.6160  -29.8330   23.6330 C   0  0  0  0  0  3  0  0  0  0  0  0
  -16.8360  -28.5930   23.0080 C   0  0  0  0  0  3  0  0  0  0  0  0
  -25.9640  -32.5330   24.0320 C   0  0  0  0  0  3  0  0  0  0  0  0
  -25.6680  -33.9330   24.3630 N   0  0  0  0  0  0  0  0  0  0  0  0
  -26.0460  -34.9850   23.6230 C   0  0  0  0  0  0  0  0  0  0  0  0
  -26.7530  -34.8770   22.6170 O   0  0  0  0  0  0  0  0  0  0  0  0
  -25.0440  -34.0930   25.1400 H   0  0  0  0  0  0  0  0  0  0  0  0
  -24.3820  -36.8200   23.1930 C   0  0  0  0  0  1  0  0  0  0  0  0
  -25.5630  -36.3770   24.0720 C   0  0  0  0  0  3  0  0  0  0  0  0
  -27.6570  -37.2060   25.0490 C   0  0  0  0  0  1  0  0  0  0  0  0
  -26.6240  -37.4070   24.0360 N   0  0  0  0  0  0  0  0  0  0  0  0
  -26.2290  -38.3340   24.1680 H   0  0  0  0  0  0  0  0  0  0  0  0
  -26.4400  -31.7460   25.3140 C   0  0  1  0  0  0  0  0  0  0  0  0
  -25.3190  -31.5160   26.3530 C   0  0  0  0  0  1  0  0  0  0  0  0
  -27.0140  -30.3640   24.9220 C   0  0  0  0  0  1  0  0  0  0  0  0
  -27.5850  -32.5220   26.0090 C   0  0  0  0  0  1  0  0  0  0  0  0
  2  5  1  0
  3  1  1  0
  4  2  1  0
  4  6  1  0
  5  8  1  0
  5  1  1  0
  6  3  1  0
  6  7  1  1
  9 18  1  0
  9  8  1  0
 10 18  1  0
 11 16  1  0
 12 13  1  0
 12 11  1  0
 14 13  1  0
 14 23  1  0
 14 15  1  0
 16 10  1  0
 16 15  1  0
 17 10  2  0
 18 19  1  0
 20 21  2  0
 21 22  1  0
 21 40  1  0
 22 25  1  0
 23 20  1  0
 23 24  1  0
 24 22  2  0
 25 26  1  0
 26 27  2  0
 28 31  1  0
 28 27  1  0
 29 28  2  0
 30 29  1  0
 30 25  2  0
 31 32  1  0
 32 37  2  0
 32 33  1  0
 33 34  2  0
 34 35  1  0
 35 39  1  0
 36 35  2  0
 37 36  1  0
 38 37  1  0
 40 41  1  0
 41 44  1  0
 41 43  1  0
 42 40  2  0
 45 46  1  0
 45 20  1  0
 47 45  1  0
 49 48  1  0
 49  9  1  0
 51 50  1  0
 51 49  1  0
 52  6  1  0
 52 53  1  0
 53 54  1  0
 55 57  1  0
 55 54  1  0
 56 67  2  0
 57 62  1  0
 58 66  1  0
 58 68  1  0
 59 65  1  0
 59 61  1  0
 60 66  1  0
 61 60  1  0
 62 61  2  0
 63 64  1  0
 63 57  2  0
 64 59  2  0
 65 58  1  0
 66 56  1  0
 68 70  2  0
 69 68  1  0
 71 69  1  0
 72 81  2  0
 72 77  1  0
 73 69  1  0
 73 77  1  0
 74 73  1  0
 75 76  1  0
 75 74  1  0
 76 72  1  0
 77 78  2  0
 78 79  1  0
 80 79  2  0
 81 80  1  0
 82 56  1  0
 82 83  1  0
 82 92  1  0
 83 86  1  0
 84 88  1  0
 84 83  1  0
 85 84  2  0
 88 87  1  0
 90 88  1  0
 90 91  1  0
 90 89  1  0
 92 95  1  1
 92 93  1  0
 94 92  1  0
M  ISO  4  10 100  18 100  54 101  55 101
M  END
>  <TORSDO>  (95) 
F 23

>  <SCORE>  (95) 
-12.241

>  <name>  (95) 
94

>  <ligand_id>  (95) 
94

>  <original_smiles>  (95) 
[H]c1c([H])c([H])c2c(c1[H])C([H])([H])C([H])([H])C([H])([H])C2([H])N([H])C(=O)C1([H])N(C(=O)C([H])(N([H])C(=O)C([H])(N([H])C([H])([H])[H])C([H])([H])[H])C(C([H])([H])[H])(C([H])([H])[H])C([H])([H])[H])C([H])([H])c2c([H])c(OC([H])([H])C([H])([H])C([H])([H])[N+]3([H])C([H])([H])C([H])([H])N(C([H])([H])C([H])(N([H])C(=O)N4C([H])([H])C([H])([H])C([H])([H])C([H])(n5nc(-c6c([H])c([H])c(Oc7c([H])c([H])c(F)c([H])c7F)c([H])c6[H])c(C(=O)N([H])[H])c5N([H])[H])C4([H])[H])C([H])(C([H])([H])[H])C([H])([H])C([H])([H])[H])C([H])([H])C3([H])[H])c([H])c([H])c2C1([H])[H]

>  <smiles>  (95) 
[H]c1c([H])c([H])c2c(c1[H])C([H])([H])C([H])([H])C([H])([H])C2([H])N([H])C(=O)C1([H])N(C(=O)C([H])(N([H])C(=O)C([H])(N([H])C([H])([H])[H])C([H])([H])[H])C(C([H])([H])[H])(C([H])([H])[H])C([H])([H])[H])C([H])([H])c2c([H])c(OC([H])([H])C([H])([H])C([H])([H])[N+]3([H])C([H])([H])C([H])([H])N(C([H])([H])C([H])(N([H])C(=O)N4C([H])([H])C([H])([H])C([H])([H])C([H])(n5nc(-c6c([H])c([H])c(Oc7c([H])c([H])c(F)c([H])c7F)c([H])c6[H])c(C(=O)N([H])[H])c5N([H])[H])C4([H])[H])C([H])(C([H])([H])[H])C([H])([H])C([H])([H])[H])C([H])([H])C3([H])[H])c([H])c([H])c2C1([H])[H]

$$$$
95:0:0
     RDKit          3D

 97104  0  0  1  0  0  0  0  0999 V2000
  -28.8130  -19.8550   19.7350 C   0  0  0  0  0  3  0  0  0  0  0  0
  -28.6790  -21.1580   20.6830 C   0  0  0  0  0  2  0  0  0  0  0  0
  -26.8880  -22.5060   19.4320 C   0  0  0  0  0  1  0  0  0  0  0  0
  -28.3050  -22.5880   20.0280 C   0  0  0  0  0  3  0  0  0  0  0  0
  -29.5440  -23.9630   21.8790 C   0  0  0  0  0  1  0  0  0  0  0  0
  -28.3930  -23.9680   20.8550 C   0  0  0  0  0  3  0  0  0  0  0  0
  -28.4970  -25.2610   19.9090 C   0  0  0  0  0  2  0  0  0  0  0  0
  -28.3820  -26.6310   20.4440 O   0  0  0  0  0  0  0  0  0  0  0  0
  -24.5440  -31.9640   23.2920 C   0  0  0  0  0  0  0  0  0  0  0  0
  -27.2240  -27.4080   20.3260 C   0  0  0  0  0  0  0  0  0  0  0  0
  -23.3640  -30.5450   21.6520 C   0  0  0  0  0  3  0  0  0  0  0  0
  -24.8350  -28.9870   20.2580 C   0  0  0  0  0  0  0  0  0  0  0  0
  -25.8940  -30.8940   21.4670 C   0  0  0  0  0  2  0  0  0  0  0  0
  -25.9910  -29.5010   20.8570 C   0  0  0  0  0  0  0  0  0  0  0  0
  -27.1790  -28.7230   20.8820 C   0  0  0  0  0  3  0  0  0  0  0  0
  -26.0420  -26.9390   19.7010 C   0  0  0  0  0  3  0  0  0  0  0  0
  -24.8640  -27.7120   19.6690 C   0  0  0  0  0  3  0  0  0  0  0  0
  -23.6000  -29.8610   20.2770 C   0  0  0  0  0  2  0  0  0  0  0  0
  -24.6220  -31.1480   22.1990 N   0  0  0  0  0  0  0  0  0  0  0  0
  -23.4560  -32.2330   23.8190 O   0  0  0  0  0  0  0  0  0  0  0  0
  -22.6940  -29.5310   22.6100 C   0  0  0  0  0  0  0  0  0  0  0  0
  -21.3710  -29.3430   22.4720 N   0  0  0  0  0  0  0  0  0  0  0  0
  -23.3680  -28.9120   23.4360 O   0  0  0  0  0  0  0  0  0  0  0  0
  -20.8740  -29.9020   21.7930 H   0  0  0  0  0  0  0  0  0  0  0  0
  -17.9930  -28.1560   22.9660 C   0  0  0  0  0  0  0  0  0  0  0  0
  -20.5520  -28.4070   23.2460 C   0  0  0  0  0  3  0  0  0  0  0  0
  -20.6480  -26.9700   22.6750 C   0  0  0  0  0  2  0  0  0  0  0  0
  -19.5500  -26.6520   21.6550 C   0  0  0  0  0  2  0  0  0  0  0  0
  -18.1670  -26.8050   22.2920 C   0  0  0  0  0  2  0  0  0  0  0  0
  -19.1140  -28.9140   23.4000 C   0  0  0  0  0  0  0  0  0  0  0  0
  -18.8950  -30.1820   23.9820 C   0  0  0  0  0  3  0  0  0  0  0  0
  -17.5910  -30.6910   24.1350 C   0  0  0  0  0  3  0  0  0  0  0  0
  -16.4870  -29.9280   23.7170 C   0  0  0  0  0  3  0  0  0  0  0  0
  -16.6890  -28.6630   23.1390 C   0  0  0  0  0  3  0  0  0  0  0  0
  -25.8160  -32.6110   23.9160 C   0  0  0  0  0  3  0  0  0  0  0  0
  -26.3120  -31.8690   25.2160 C   0  0  1  0  0  0  0  0  0  0  0  0
  -25.2060  -31.6490   26.2730 C   0  0  0  0  0  1  0  0  0  0  0  0
  -26.9020  -30.4890   24.8510 C   0  0  0  0  0  1  0  0  0  0  0  0
  -27.4490  -32.6770   25.8840 C   0  0  0  0  0  1  0  0  0  0  0  0
  -25.5060  -34.0190   24.2040 N   0  0  0  0  0  0  0  0  0  0  0  0
  -25.8630  -35.0520   23.4280 C   0  0  0  0  0  0  0  0  0  0  0  0
  -26.5570  -34.9150   22.4150 O   0  0  0  0  0  0  0  0  0  0  0  0
  -24.8870  -34.1970   24.9820 H   0  0  0  0  0  0  0  0  0  0  0  0
  -24.1670  -36.8550   22.9710 C   0  0  0  0  0  1  0  0  0  0  0  0
  -25.3740  -36.4540   23.8350 C   0  0  0  0  0  3  0  0  0  0  0  0
  -27.4840  -37.3460   24.7210 C   0  0  0  0  0  1  0  0  0  0  0  0
  -26.4180  -37.4970   23.7350 N   0  0  0  0  0  0  0  0  0  0  0  0
  -26.0140  -38.4230   23.8440 H   0  0  0  0  0  0  0  0  0  0  0  0
  -28.9350  -18.3690   20.3880 C   0  0  0  0  0  2  0  0  0  0  0  0
  -30.1010  -17.3320   20.0040 C   0  0  0  0  0  3  0  0  0  0  0  0
  -30.5880  -14.7490   20.1200 C   0  0  0  0  0  0  0  0  0  0  0  0
  -30.2860  -12.5080   19.1100 C   0  0  0  0  0  2  0  0  0  0  0  0
  -29.3350  -12.6700   17.9070 C   0  0  0  0  0  2  0  0  0  0  0  0
  -27.8780  -12.4840   18.3740 C   0  0  0  0  0  2  0  0  0  0  0  0
  -27.5410  -13.3510   19.6220 C   0  0  0  0  0  3  0  0  0  0  0  0
  -28.6310  -13.2420   20.7140 C   0  0  0  0  0  2  0  0  0  0  0  0
  -29.9250  -13.5510   20.0930 N   0  0  0  0  0  0  0  0  0  0  0  0
  -31.7330  -14.8150   19.6770 O   0  0  0  0  0  0  0  0  0  0  0  0
  -29.8830  -15.8850   20.4370 N   0  0  0  0  0  0  0  0  0  0  0  0
  -28.9760  -15.6970   20.8300 H   0  0  0  0  0  0  0  0  0  0  0  0
  -25.1850  -13.9070   20.4800 C   0  0  0  0  0  0  0  0  0  0  0  0
  -24.1430  -13.1140   20.8850 C   0  0  0  0  0  0  0  0  0  0  0  0
  -24.6140  -11.7700   20.7980 C   0  0  0  0  0  0  0  0  0  0  0  0
  -26.2190  -13.0410   20.1610 N   0  0  0  0  0  0  0  0  0  0  0  0
  -25.8860  -11.7500   20.4190 N   0  0  0  0  0  0  0  0  0  0  0  0
  -23.9060  -10.4980   20.9900 C   0  0  0  0  0  0  0  0  0  0  0  0
  -24.3650   -9.5320   21.9110 C   0  0  0  0  0  3  0  0  0  0  0  0
  -23.6610   -8.3240   22.0940 C   0  0  0  0  0  3  0  0  0  0  0  0
  -22.4810   -8.0720   21.3530 C   0  0  0  0  0  0  0  0  0  0  0  0
  -22.0400   -9.0250   20.4190 C   0  0  0  0  0  3  0  0  0  0  0  0
  -22.7460  -10.2260   20.2340 C   0  0  0  0  0  3  0  0  0  0  0  0
  -21.7450   -6.9150   21.4430 O   0  0  0  0  0  0  0  0  0  0  0  0
  -21.6990   -6.1790   22.6000 C   0  0  0  0  0  0  0  0  0  0  0  0
  -21.2120   -6.7180   23.8130 C   0  0  0  0  0  3  0  0  0  0  0  0
  -21.1210   -5.9050   24.9580 C   0  0  0  0  0  3  0  0  0  0  0  0
  -21.5040   -4.5510   24.8960 C   0  0  0  0  0  0  0  0  0  0  0  0
  -21.9830   -4.0100   23.6870 C   0  0  0  0  0  3  0  0  0  0  0  0
  -22.0780   -4.8230   22.5450 C   0  0  0  0  0  0  0  0  0  0  0  0
  -22.5210   -4.2900   21.3790 F   0  0  0  0  0  0  0  0  0  0  0  0
  -21.4080   -3.7680   25.9930 F   0  0  0  0  0  0  0  0  0  0  0  0
  -22.7580  -13.5760   21.2350 C   0  0  0  0  0  0  0  0  0  0  0  0
  -22.0680  -12.8490   22.1070 N   0  0  0  0  0  0  0  0  0  0  0  0
  -22.2970  -14.6170   20.7710 O   0  0  0  0  0  0  0  0  0  0  0  0
  -22.4570  -12.0100   22.5100 H   0  0  0  0  0  0  0  0  0  0  0  0
  -21.1370  -13.1420   22.3730 H   0  0  0  0  0  0  0  0  0  0  0  0
  -25.3300  -15.2820   20.3410 N   0  0  0  0  0  0  0  0  0  0  0  0
  -24.5550  -15.9190   20.4930 H   0  0  0  0  0  0  0  0  0  0  0  0
  -26.1600  -15.7460   19.9910 H   0  0  0  0  0  0  0  0  0  0  0  0
  -31.8680  -17.6850   21.8790 C   0  0  0  0  0  1  0  0  0  0  0  0
  -31.4660  -17.9700   20.4250 C   0  0  0  0  0  3  0  0  0  0  0  0
  -33.8760  -18.5590   19.6400 C   0  0  0  0  0  1  0  0  0  0  0  0
  -32.6140  -17.7170   19.4160 C   0  0  0  0  0  2  0  0  0  0  0  0
  -29.6650  -20.1250   18.4540 C   0  0  0  0  0  2  0  0  0  0  0  0
  -30.8930  -20.9150   18.6880 N   0  0  0  0  0  4  0  0  0  0  0  0
  -30.6570  -21.8140   19.0700 H   0  0  0  0  0  0  0  0  0  0  0  0
  -31.3740  -21.0790   17.8170 H   0  0  0  0  0  0  0  0  0  0  0  0
  -31.5270  -20.4550   19.3180 H   0  0  0  0  0  0  0  0  0  0  0  0
  1 93  1  0
  1 49  1  0
  1  2  1  0
  4  3  1  0
  4  2  1  0
  4  6  1  0
  6  5  1  0
  7  8  1  0
  7  6  1  0
  9 20  2  0
 10  8  1  0
 10 15  1  0
 11 19  1  0
 11 21  1  0
 12 18  1  0
 12 14  1  0
 13 19  1  0
 14 15  2  0
 14 13  1  0
 16 10  2  0
 17 16  1  0
 17 12  2  0
 18 11  1  0
 19  9  1  0
 21 23  2  0
 22 21  1  0
 24 22  1  0
 25 34  2  0
 25 30  1  0
 26 22  1  0
 26 30  1  0
 27 26  1  0
 28 29  1  0
 28 27  1  0
 29 25  1  0
 30 31  2  0
 31 32  1  0
 33 32  2  0
 34 33  1  0
 35  9  1  0
 35 40  1  0
 35 36  1  0
 36 39  1  1
 36 37  1  0
 38 36  1  0
 40 43  1  0
 41 45  1  0
 41 40  1  0
 42 41  2  0
 45 44  1  0
 47 45  1  0
 47 48  1  0
 47 46  1  0
 50 49  1  0
 50 90  1  0
 50 59  1  0
 51 59  1  0
 52 57  1  0
 53 54  1  0
 53 52  1  0
 55 54  1  0
 55 64  1  0
 55 56  1  0
 57 51  1  0
 57 56  1  0
 58 51  2  0
 59 60  1  0
 61 62  2  0
 62 81  1  0
 63 62  1  0
 63 66  1  0
 64 65  1  0
 64 61  1  0
 65 63  2  0
 66 67  1  0
 67 68  2  0
 69 72  1  0
 69 68  1  0
 70 69  2  0
 71 70  1  0
 71 66  2  0
 72 73  1  0
 73 74  1  0
 74 75  2  0
 76 75  1  0
 76 80  1  0
 77 76  2  0
 78 73  2  0
 78 77  1  0
 79 78  1  0
 81 82  1  0
 82 85  1  0
 82 84  1  0
 83 81  2  0
 86 61  1  0
 86 87  1  0
 88 86  1  0
 90 89  1  0
 92 91  1  0
 92 90  1  0
 93 94  1  0
 94 95  1  0
 94 97  1  0
 96 94  1  0
M  ISO  4   7 101   8 101  51 100  59 100
M  END
>  <TORSDO>  (96) 
F 26

>  <SCORE>  (96) 
-11.971

>  <name>  (96) 
95

>  <ligand_id>  (96) 
95

>  <original_smiles>  (96) 
[H]c1c([H])c([H])c2c(c1[H])C([H])([H])C([H])([H])C([H])([H])C2([H])N([H])C(=O)C1([H])N(C(=O)C([H])(N([H])C(=O)C([H])(N([H])C([H])([H])[H])C([H])([H])[H])C(C([H])([H])[H])(C([H])([H])[H])C([H])([H])[H])C([H])([H])c2c([H])c(OC([H])([H])C([H])(C([H])([H])[H])C([H])(C([H])([H])[H])C([H])([H])C([H])(C([H])([H])C([H])(N([H])C(=O)N3C([H])([H])C([H])([H])C([H])([H])C([H])(n4nc(-c5c([H])c([H])c(Oc6c([H])c([H])c(F)c([H])c6F)c([H])c5[H])c(C(=O)N([H])[H])c4N([H])[H])C3([H])[H])C([H])(C([H])([H])[H])C([H])([H])C([H])([H])[H])C([H])([H])[N+]([H])([H])[H])c([H])c([H])c2C1([H])[H]

>  <smiles>  (96) 
[H]c1c([H])c([H])c2c(c1[H])C([H])([H])C([H])([H])C([H])([H])C2([H])N([H])C(=O)C1([H])N(C(=O)C([H])(N([H])C(=O)C([H])(N([H])C([H])([H])[H])C([H])([H])[H])C(C([H])([H])[H])(C([H])([H])[H])C([H])([H])[H])C([H])([H])c2c([H])c(OC([H])([H])C([H])(C([H])([H])[H])C([H])(C([H])([H])[H])C([H])([H])C([H])(C([H])([H])C([H])(N([H])C(=O)N3C([H])([H])C([H])([H])C([H])([H])C([H])(n4nc(-c5c([H])c([H])c(Oc6c([H])c([H])c(F)c([H])c6F)c([H])c5[H])c(C(=O)N([H])[H])c4N([H])[H])C3([H])[H])C([H])(C([H])([H])[H])C([H])([H])C([H])([H])[H])C([H])([H])[N+]([H])([H])[H])c([H])c([H])c2C1([H])[H]

$$$$
96:0:0
     RDKit          3D

 91 98  0  0  1  0  0  0  0  0999 V2000
  -30.5740  -18.1640   18.8990 C   0  0  0  0  0  3  0  0  0  0  0  0
  -30.9810  -15.2580   19.0660 C   0  0  0  0  0  0  0  0  0  0  0  0
  -30.6680  -12.8380   18.1670 C   0  0  0  0  0  2  0  0  0  0  0  0
  -29.5370  -12.7020   17.1140 C   0  0  0  0  0  2  0  0  0  0  0  0
  -28.1720  -12.4910   17.7920 C   0  0  0  0  0  2  0  0  0  0  0  0
  -27.9760  -13.4230   19.0160 C   0  0  0  0  0  3  0  0  0  0  0  0
  -29.2260  -13.4650   19.9320 C   0  0  0  0  0  2  0  0  0  0  0  0
  -30.3390  -13.9770   19.1080 N   0  0  0  0  0  0  0  0  0  0  0  0
  -32.0790  -15.2010   18.5020 O   0  0  0  0  0  0  0  0  0  0  0  0
  -30.3930  -16.5860   19.4390 N   0  0  0  0  0  0  0  0  0  0  0  0
  -25.8100  -14.0250   20.2400 C   0  0  0  0  0  0  0  0  0  0  0  0
  -24.8010  -13.2700   20.7650 C   0  0  0  0  0  0  0  0  0  0  0  0
  -25.1540  -11.9100   20.5160 C   0  0  0  0  0  0  0  0  0  0  0  0
  -26.7410  -13.1300   19.7390 N   0  0  0  0  0  0  0  0  0  0  0  0
  -26.3610  -11.8430   19.9570 N   0  0  0  0  0  0  0  0  0  0  0  0
  -24.3790  -10.6810   20.7190 C   0  0  0  0  0  0  0  0  0  0  0  0
  -24.8440   -9.6400   21.5510 C   0  0  0  0  0  3  0  0  0  0  0  0
  -24.0640   -8.4790   21.7490 C   0  0  0  0  0  3  0  0  0  0  0  0
  -22.8050   -8.3540   21.1180 C   0  0  0  0  0  0  0  0  0  0  0  0
  -22.3550   -9.3830   20.2740 C   0  0  0  0  0  3  0  0  0  0  0  0
  -23.1350  -10.5340   20.0710 C   0  0  0  0  0  3  0  0  0  0  0  0
  -21.9900   -7.2540   21.2350 O   0  0  0  0  0  0  0  0  0  0  0  0
  -21.9040   -6.5440   22.4040 C   0  0  0  0  0  0  0  0  0  0  0  0
  -21.4490   -7.1320   23.6030 C   0  0  0  0  0  3  0  0  0  0  0  0
  -21.3080   -6.3470   24.7650 C   0  0  0  0  0  3  0  0  0  0  0  0
  -21.6150   -4.9730   24.7280 C   0  0  0  0  0  0  0  0  0  0  0  0
  -22.0660   -4.3840   23.5340 C   0  0  0  0  0  3  0  0  0  0  0  0
  -22.2060   -5.1660   22.3740 C   0  0  0  0  0  0  0  0  0  0  0  0
  -22.6190   -4.5900   21.2200 F   0  0  0  0  0  0  0  0  0  0  0  0
  -21.4760   -4.2150   25.8410 F   0  0  0  0  0  0  0  0  0  0  0  0
  -23.5250  -13.7950   21.3530 C   0  0  0  0  0  0  0  0  0  0  0  0
  -22.9630  -13.0890   22.3280 N   0  0  0  0  0  0  0  0  0  0  0  0
  -23.0470  -14.8700   20.9880 O   0  0  0  0  0  0  0  0  0  0  0  0
  -23.3630  -12.2160   22.6380 H   0  0  0  0  0  0  0  0  0  0  0  0
  -22.1140  -13.4210   22.7640 H   0  0  0  0  0  0  0  0  0  0  0  0
  -25.9650  -15.3980   20.1180 N   0  0  0  0  0  0  0  0  0  0  0  0
  -25.2670  -16.0440   20.4670 H   0  0  0  0  0  0  0  0  0  0  0  0
  -26.7320  -15.8590   19.6510 H   0  0  0  0  0  0  0  0  0  0  0  0
  -30.0570  -16.6970   20.8710 C   0  0  0  0  0  2  0  0  0  0  0  0
  -28.1490  -16.4000   22.5720 C   0  0  0  0  0  1  0  0  0  0  0  0
  -28.5420  -16.6840   21.1160 C   0  0  0  0  0  2  0  0  0  0  0  0
  -29.9480  -19.7000   19.5890 C   0  0  0  0  0  3  0  0  0  0  0  0
  -29.5960  -21.3200   18.9380 C   0  0  0  0  0  3  0  0  0  0  0  0
  -29.3970  -22.9290   19.6560 C   0  0  0  0  0  3  0  0  0  0  0  0
  -28.6150  -24.4040   19.0710 C   0  0  0  0  0  3  0  0  0  0  0  0
  -28.5940  -25.9440   19.5830 O   0  0  0  0  0  0  0  0  0  0  0  0
  -24.5480  -31.3370   22.8220 C   0  0  0  0  0  0  0  0  0  0  0  0
  -27.4900  -26.9270   19.5260 C   0  0  0  0  0  0  0  0  0  0  0  0
  -23.4790  -29.9830   21.0620 C   0  0  0  0  0  3  0  0  0  0  0  0
  -25.0560  -28.5970   19.5600 C   0  0  0  0  0  0  0  0  0  0  0  0
  -26.0210  -30.3950   20.9840 C   0  0  0  0  0  2  0  0  0  0  0  0
  -26.1970  -29.0470   20.2380 C   0  0  0  0  0  0  0  0  0  0  0  0
  -27.4030  -28.2290   20.2060 C   0  0  0  0  0  3  0  0  0  0  0  0
  -26.3170  -26.6180   18.7990 C   0  0  0  0  0  3  0  0  0  0  0  0
  -25.1360  -27.4020   18.8260 C   0  0  0  0  0  3  0  0  0  0  0  0
  -23.7740  -29.4190   19.6450 C   0  0  0  0  0  2  0  0  0  0  0  0
  -24.7000  -30.5970   21.6790 N   0  0  0  0  0  0  0  0  0  0  0  0
  -23.4330  -31.5130   23.3410 O   0  0  0  0  0  0  0  0  0  0  0  0
  -22.8400  -28.8770   21.9400 C   0  0  0  0  0  0  0  0  0  0  0  0
  -21.5090  -28.7000   21.8460 N   0  0  0  0  0  0  0  0  0  0  0  0
  -23.5470  -28.1820   22.6740 O   0  0  0  0  0  0  0  0  0  0  0  0
  -20.9910  -29.3160   21.2360 H   0  0  0  0  0  0  0  0  0  0  0  0
  -18.1540  -27.4440   22.4240 C   0  0  0  0  0  0  0  0  0  0  0  0
  -20.7300  -27.6700   22.5410 C   0  0  0  0  0  3  0  0  0  0  0  0
  -20.7760  -26.3260   21.7760 C   0  0  0  0  0  2  0  0  0  0  0  0
  -19.6030  -26.1420   20.8070 C   0  0  0  0  0  2  0  0  0  0  0  0
  -18.2710  -26.2000   21.5590 C   0  0  0  0  0  2  0  0  0  0  0  0
  -19.3090  -28.1430   22.8710 C   0  0  0  0  0  0  0  0  0  0  0  0
  -19.1420  -29.3110   23.6470 C   0  0  0  0  0  3  0  0  0  0  0  0
  -17.8570  -29.7830   23.9730 C   0  0  0  0  0  3  0  0  0  0  0  0
  -16.7190  -29.0790   23.5410 C   0  0  0  0  0  3  0  0  0  0  0  0
  -16.8690  -27.9110   22.7720 C   0  0  0  0  0  3  0  0  0  0  0  0
  -25.7630  -32.0140   23.5270 C   0  0  0  0  0  3  0  0  0  0  0  0
  -25.3580  -33.3720   23.9280 N   0  0  0  0  0  0  0  0  0  0  0  0
  -25.6540  -34.4920   23.2560 C   0  0  0  0  0  0  0  0  0  0  0  0
  -26.3650  -34.4940   22.2480 O   0  0  0  0  0  0  0  0  0  0  0  0
  -24.7340  -33.4410   24.7200 H   0  0  0  0  0  0  0  0  0  0  0  0
  -23.8430  -36.2140   22.9530 C   0  0  0  0  0  1  0  0  0  0  0  0
  -25.0730  -35.8200   23.7870 C   0  0  0  0  0  3  0  0  0  0  0  0
  -27.1070  -36.7730   24.7800 C   0  0  0  0  0  1  0  0  0  0  0  0
  -26.0490  -36.9330   23.7860 N   0  0  0  0  0  0  0  0  0  0  0  0
  -25.5810  -37.8190   23.9570 H   0  0  0  0  0  0  0  0  0  0  0  0
  -26.2790  -31.2100   24.7830 C   0  0  1  0  0  0  0  0  0  0  0  0
  -25.1710  -30.8630   25.8070 C   0  0  0  0  0  1  0  0  0  0  0  0
  -26.9470  -29.8850   24.3530 C   0  0  0  0  0  1  0  0  0  0  0  0
  -27.3690  -32.0250   25.5190 C   0  0  0  0  0  1  0  0  0  0  0  0
  -30.4740  -18.2330   17.3420 C   0  0  0  0  0  2  0  0  0  0  0  0
  -32.2340  -20.0790   16.8350 C   0  0  0  0  0  1  0  0  0  0  0  0
  -31.3710  -18.6300   15.0190 C   0  0  0  0  0  1  0  0  0  0  0  0
  -32.9180  -17.6790   16.7140 C   0  0  0  0  0  1  0  0  0  0  0  0
  -31.7410  -18.6540   16.5160 C   0  0  2  0  0  0  0  0  0  0  0  0
  1 87  1  0
  1 10  1  0
  1 42  1  0
  2  8  1  0
  2 10  1  0
  3  8  1  0
  4  5  1  0
  4  3  1  0
  6  5  1  0
  6 14  1  0
  6  7  1  0
  8  7  1  0
  9  2  2  0
 10 39  1  0
 11 12  2  0
 12 31  1  0
 13 16  1  0
 13 12  1  0
 14 15  1  0
 14 11  1  0
 15 13  2  0
 16 17  1  0
 17 18  2  0
 19 22  1  0
 19 18  1  0
 20 19  2  0
 21 20  1  0
 21 16  2  0
 22 23  1  0
 23 24  1  0
 24 25  2  0
 26 25  1  0
 26 30  1  0
 27 26  2  0
 28 23  2  0
 28 27  1  0
 29 28  1  0
 31 32  1  0
 32 34  1  0
 32 35  1  0
 33 31  2  0
 36 11  1  0
 36 37  1  0
 38 36  1  0
 39 41  1  0
 41 40  1  0
 43 42  2  0
 43 44  1  0
 45 46  1  0
 45 44  2  0
 47 58  2  0
 48 46  1  0
 48 53  1  0
 49 57  1  0
 49 59  1  0
 50 56  1  0
 50 52  1  0
 51 57  1  0
 52 51  1  0
 53 52  2  0
 54 55  1  0
 54 48  2  0
 55 50  2  0
 56 49  1  0
 57 47  1  0
 59 61  2  0
 60 59  1  0
 62 60  1  0
 63 72  2  0
 63 68  1  0
 64 60  1  0
 64 68  1  0
 65 64  1  0
 66 67  1  0
 66 65  1  0
 67 63  1  0
 68 69  2  0
 69 70  1  0
 71 70  2  0
 72 71  1  0
 73 47  1  0
 73 74  1  0
 73 83  1  0
 74 77  1  0
 75 79  1  0
 75 74  1  0
 76 75  2  0
 79 78  1  0
 81 79  1  0
 81 82  1  0
 81 80  1  0
 83 86  1  1
 83 84  1  0
 85 83  1  0
 91 89  1  6
 91 90  1  0
 91 88  1  0
 91 87  1  0
M  ISO  4   2 100  10 100  45 101  46 101
M  END
>  <TORSDO>  (97) 
F 24

>  <SCORE>  (97) 
-6.118

>  <name>  (97) 
96

>  <ligand_id>  (97) 
96

>  <original_smiles>  (97) 
[H]c1c([H])c([H])c2c(c1[H])C([H])([H])C([H])([H])C([H])([H])C2([H])N([H])C(=O)C1([H])N(C(=O)C([H])(N([H])C(=O)C([H])(N([H])C([H])([H])[H])C([H])([H])[H])C(C([H])([H])[H])(C([H])([H])[H])C([H])([H])[H])C([H])([H])c2c([H])c(OC([H])([H])C([H])([H])C([H])([H])C([H])([H])C([H])(N(C(=O)N3C([H])([H])C([H])([H])C([H])([H])C([H])(n4nc(-c5c([H])c([H])c(Oc6c([H])c([H])c(F)c([H])c6F)c([H])c5[H])c(C(=O)N([H])[H])c4N([H])[H])C3([H])[H])C([H])([H])C([H])([H])C([H])([H])[H])C([H])([H])C(C([H])([H])[H])(C([H])([H])[H])C([H])([H])[H])c([H])c([H])c2C1([H])[H]

>  <smiles>  (97) 
[H]c1c([H])c([H])c2c(c1[H])C([H])([H])C([H])([H])C([H])([H])C2([H])N([H])C(=O)C1([H])N(C(=O)C([H])(N([H])C(=O)C([H])(N([H])C([H])([H])[H])C([H])([H])[H])C(C([H])([H])[H])(C([H])([H])[H])C([H])([H])[H])C([H])([H])c2c([H])c(OC([H])([H])C([H])([H])C([H])([H])C([H])([H])C([H])(N(C(=O)N3C([H])([H])C([H])([H])C([H])([H])C([H])(n4nc(-c5c([H])c([H])c(Oc6c([H])c([H])c(F)c([H])c6F)c([H])c5[H])c(C(=O)N([H])[H])c4N([H])[H])C3([H])[H])C([H])([H])C([H])([H])C([H])([H])[H])C([H])([H])C(C([H])([H])[H])(C([H])([H])[H])C([H])([H])[H])c([H])c([H])c2C1([H])[H]

$$$$
