0:0:0
     RDKit          3D

 98106  0  0  1  0  0  0  0  0999 V2000
  -29.4940  -17.8840   20.9410 C   0  0  0  0  0  0  0  0  0  0  0  0
  -28.8960  -19.0760   20.6860 N   0  0  0  0  0  0  0  0  0  0  0  0
  -30.3750  -17.7700   21.7930 O   0  0  0  0  0  0  0  0  0  0  0  0
  -28.1790  -19.0510   19.9730 H   0  0  0  0  0  0  0  0  0  0  0  0
  -30.7330  -14.6790   20.3740 C   0  0  0  0  0  0  0  0  0  0  0  0
  -30.4240  -12.4500   19.3700 C   0  0  0  0  0  2  0  0  0  0  0  0
  -29.4950  -12.5340   18.1430 C   0  0  0  0  0  2  0  0  0  0  0  0
  -28.0200  -12.4150   18.5680 C   0  0  0  0  0  2  0  0  0  0  0  0
  -27.6540  -13.3070   19.7840 C   0  0  0  0  0  3  0  0  0  0  0  0
  -28.7150  -13.2300   20.9050 C   0  0  0  0  0  2  0  0  0  0  0  0
  -30.0140  -13.5220   20.2900 N   0  0  0  0  0  0  0  0  0  0  0  0
  -31.9580  -14.6310   20.3570 O   0  0  0  0  0  0  0  0  0  0  0  0
  -28.4640  -17.0490   18.7600 C   0  0  0  0  0  2  0  0  0  0  0  0
  -29.7090  -17.3310   17.9390 C   0  0  0  0  0  2  0  0  0  0  0  0
  -29.0420  -16.6200   20.1250 C   0  0  0  0  0  3  0  0  0  0  0  0
  -30.6680  -16.2100   18.3770 C   0  0  0  0  0  3  0  0  0  0  0  0
  -30.1770  -15.7460   19.7130 N   0  0  0  0  0  0  0  0  0  0  0  0
  -25.2520  -13.9100   20.4680 C   0  0  0  0  0  0  0  0  0  0  0  0
  -24.1830  -13.1350   20.8290 C   0  0  0  0  0  0  0  0  0  0  0  0
  -24.6540  -11.7860   20.8280 C   0  0  0  0  0  0  0  0  0  0  0  0
  -26.3050  -13.0300   20.2670 N   0  0  0  0  0  0  0  0  0  0  0  0
  -25.9520  -11.7520   20.5510 N   0  0  0  0  0  0  0  0  0  0  0  0
  -23.9320  -10.5220   21.0190 C   0  0  0  0  0  0  0  0  0  0  0  0
  -24.3590   -9.5650   21.9670 C   0  0  0  0  0  3  0  0  0  0  0  0
  -23.6390   -8.3640   22.1430 C   0  0  0  0  0  3  0  0  0  0  0  0
  -22.4790   -8.1110   21.3730 C   0  0  0  0  0  0  0  0  0  0  0  0
  -22.0730   -9.0560   20.4130 C   0  0  0  0  0  3  0  0  0  0  0  0
  -22.7940  -10.2490   20.2340 C   0  0  0  0  0  3  0  0  0  0  0  0
  -21.7300   -6.9630   21.4600 O   0  0  0  0  0  0  0  0  0  0  0  0
  -21.6740   -6.2290   22.6170 C   0  0  0  0  0  0  0  0  0  0  0  0
  -21.2430   -6.7920   23.8390 C   0  0  0  0  0  3  0  0  0  0  0  0
  -21.1330   -5.9830   24.9860 C   0  0  0  0  0  3  0  0  0  0  0  0
  -21.4450   -4.6120   24.9170 C   0  0  0  0  0  0  0  0  0  0  0  0
  -21.8690   -4.0480   23.7010 C   0  0  0  0  0  3  0  0  0  0  0  0
  -21.9800   -4.8540   22.5540 C   0  0  0  0  0  0  0  0  0  0  0  0
  -22.3700   -4.3000   21.3800 F   0  0  0  0  0  0  0  0  0  0  0  0
  -21.3320   -3.8340   26.0190 F   0  0  0  0  0  0  0  0  0  0  0  0
  -22.7770  -13.6070   21.0620 C   0  0  0  0  0  0  0  0  0  0  0  0
  -22.0340  -12.9200   21.9220 N   0  0  0  0  0  0  0  0  0  0  0  0
  -22.3450  -14.6210   20.5150 O   0  0  0  0  0  0  0  0  0  0  0  0
  -22.3970  -12.1000   22.3880 H   0  0  0  0  0  0  0  0  0  0  0  0
  -21.0900  -13.2180   22.1220 H   0  0  0  0  0  0  0  0  0  0  0  0
  -25.4080  -15.2770   20.2670 N   0  0  0  0  0  0  0  0  0  0  0  0
  -24.6230  -15.9150   20.3320 H   0  0  0  0  0  0  0  0  0  0  0  0
  -26.2330  -15.7070   19.8740 H   0  0  0  0  0  0  0  0  0  0  0  0
  -32.1580  -16.6680   18.3440 C   0  0  0  0  0  2  0  0  0  0  0  0
  -32.5650  -17.1810   17.0230 N   0  0  0  0  0  4  0  0  0  0  0  0
  -32.4580  -16.4780   16.3140 H   0  0  0  0  0  0  0  0  0  0  0  0
  -33.5330  -17.4490   17.0490 H   0  0  0  0  0  0  0  0  0  0  0  0
  -32.0270  -17.9890   16.7650 H   0  0  0  0  0  0  0  0  0  0  0  0
  -29.1110  -20.3920   21.3320 C   0  0  0  0  0  2  0  0  0  0  0  0
  -28.7890  -21.6210   20.4050 C   0  0  0  0  0  2  0  0  0  0  0  0
  -28.8180  -22.9490   21.0990 N   0  0  0  0  0  4  0  0  0  0  0  0
  -29.7000  -23.0350   21.5780 H   0  0  0  0  0  0  0  0  0  0  0  0
  -28.0970  -22.9350   21.8040 H   0  0  0  0  0  0  0  0  0  0  0  0
  -28.6180  -24.1680   20.2400 C   0  0  0  0  0  2  0  0  0  0  0  0
  -28.3970  -25.4840   21.0570 C   0  0  0  0  0  2  0  0  0  0  0  0
  -28.4610  -26.7120   20.2890 O   0  0  0  0  0  0  0  0  0  0  0  0
  -24.6180  -31.9430   23.2820 C   0  0  0  0  0  0  0  0  0  0  0  0
  -27.3080  -27.4740   20.2720 C   0  0  0  0  0  0  0  0  0  0  0  0
  -23.4360  -30.5240   21.6370 C   0  0  0  0  0  3  0  0  0  0  0  0
  -24.9120  -28.9830   20.2360 C   0  0  0  0  0  0  0  0  0  0  0  0
  -25.9610  -30.8960   21.4560 C   0  0  0  0  0  2  0  0  0  0  0  0
  -26.0630  -29.5170   20.8290 C   0  0  0  0  0  0  0  0  0  0  0  0
  -27.2690  -28.7720   20.8380 C   0  0  0  0  0  3  0  0  0  0  0  0
  -26.1440  -26.9610   19.6680 C   0  0  0  0  0  3  0  0  0  0  0  0
  -24.9490  -27.7070   19.6470 C   0  0  0  0  0  3  0  0  0  0  0  0
  -23.6620  -29.8360   20.2630 C   0  0  0  0  0  2  0  0  0  0  0  0
  -24.6900  -31.1370   22.1830 N   0  0  0  0  0  0  0  0  0  0  0  0
  -23.5310  -32.2100   23.8110 O   0  0  0  0  0  0  0  0  0  0  0  0
  -22.7830  -29.5050   22.5990 C   0  0  0  0  0  0  0  0  0  0  0  0
  -21.4590  -29.3160   22.4640 N   0  0  0  0  0  0  0  0  0  0  0  0
  -23.4620  -28.8880   23.4220 O   0  0  0  0  0  0  0  0  0  0  0  0
  -20.9700  -29.8660   21.7710 H   0  0  0  0  0  0  0  0  0  0  0  0
  -18.0880  -28.1060   22.9440 C   0  0  0  0  0  0  0  0  0  0  0  0
  -20.6420  -28.3780   23.2330 C   0  0  0  0  0  3  0  0  0  0  0  0
  -20.7560  -26.9450   22.6620 C   0  0  0  0  0  2  0  0  0  0  0  0
  -19.6640  -26.6130   21.6430 C   0  0  0  0  0  2  0  0  0  0  0  0
  -18.2770  -26.7540   22.2760 C   0  0  0  0  0  2  0  0  0  0  0  0
  -19.2000  -28.8750   23.3800 C   0  0  0  0  0  0  0  0  0  0  0  0
  -18.9700  -30.1400   23.9630 C   0  0  0  0  0  3  0  0  0  0  0  0
  -17.6620  -30.6360   24.1150 C   0  0  0  0  0  3  0  0  0  0  0  0
  -16.5640  -29.8630   23.6970 C   0  0  0  0  0  3  0  0  0  0  0  0
  -16.7790  -28.6000   23.1170 C   0  0  0  0  0  3  0  0  0  0  0  0
  -25.8940  -32.5880   23.9090 C   0  0  0  0  0  3  0  0  0  0  0  0
  -25.5750  -33.9880   24.2210 N   0  0  0  0  0  0  0  0  0  0  0  0
  -25.9120  -35.0330   23.4500 C   0  0  0  0  0  0  0  0  0  0  0  0
  -26.5920  -34.9190   22.4280 O   0  0  0  0  0  0  0  0  0  0  0  0
  -24.9740  -34.1500   25.0150 H   0  0  0  0  0  0  0  0  0  0  0  0
  -24.1780  -36.8120   23.0580 C   0  0  0  0  0  1  0  0  0  0  0  0
  -25.4130  -36.4230   23.8870 C   0  0  0  0  0  3  0  0  0  0  0  0
  -27.5360  -37.3280   24.7260 C   0  0  0  0  0  1  0  0  0  0  0  0
  -26.4410  -37.4800   23.7710 N   0  0  0  0  0  0  0  0  0  0  0  0
  -26.0290  -38.4000   23.9040 H   0  0  0  0  0  0  0  0  0  0  0  0
  -26.4020  -31.8310   25.1970 C   0  0  1  0  0  0  0  0  0  0  0  0
  -25.3020  -31.6000   26.2580 C   0  0  0  0  0  1  0  0  0  0  0  0
  -26.9940  -30.4520   24.8210 C   0  0  0  0  0  1  0  0  0  0  0  0
  -27.5440  -32.6360   25.8620 C   0  0  0  0  0  1  0  0  0  0  0  0
  1  3  2  0
  2  1  1  0
  2 51  1  0
  4  2  1  0
  6 11  1  0
  7  8  1  0
  7  6  1  0
  9  8  1  0
  9 21  1  0
  9 10  1  0
 11  5  1  0
 11 10  1  0
 12  5  2  0
 13 15  1  0
 14 16  1  0
 14 13  1  0
 15  1  1  0
 16 46  1  0
 16 17  1  0
 17 15  1  0
 17  5  1  0
 18 19  2  0
 19 38  1  0
 20 19  1  0
 20 23  1  0
 21 18  1  0
 21 22  1  0
 22 20  2  0
 23 24  1  0
 24 25  2  0
 26 29  1  0
 26 25  1  0
 27 26  2  0
 28 27  1  0
 28 23  2  0
 29 30  1  0
 30 31  1  0
 31 32  2  0
 33 32  1  0
 33 37  1  0
 34 33  2  0
 35 30  2  0
 35 34  1  0
 36 35  1  0
 38 39  1  0
 39 42  1  0
 39 41  1  0
 40 38  2  0
 43 44  1  0
 43 18  1  0
 45 43  1  0
 47 49  1  0
 47 46  1  0
 48 47  1  0
 50 47  1  0
 52 53  1  0
 52 51  1  0
 53 54  1  0
 53 55  1  0
 56 57  1  0
 56 53  1  0
 58 57  1  0
 59 70  2  0
 60 58  1  0
 60 65  1  0
 61 69  1  0
 61 71  1  0
 62 68  1  0
 62 64  1  0
 63 69  1  0
 64 65  2  0
 64 63  1  0
 66 60  2  0
 67 66  1  0
 67 62  2  0
 68 61  1  0
 69 59  1  0
 71 73  2  0
 72 71  1  0
 74 72  1  0
 75 84  2  0
 75 80  1  0
 76 72  1  0
 76 80  1  0
 77 76  1  0
 78 79  1  0
 78 77  1  0
 79 75  1  0
 80 81  2  0
 81 82  1  0
 83 82  2  0
 84 83  1  0
 85 59  1  0
 85 86  1  0
 85 95  1  0
 86 89  1  0
 87 91  1  0
 87 86  1  0
 88 87  2  0
 91 90  1  0
 93 91  1  0
 93 94  1  0
 93 92  1  0
 95 98  1  1
 95 96  1  0
 97 95  1  0
M  ISO  4   5 100  17 100  57 101  58 101
M  END
>  <TORSDO>  (1) 
F 23

>  <SCORE>  (1) 
-12.674

>  <name>  (1) 
0

>  <ligand_id>  (1) 
0

>  <original_smiles>  (1) 
[H]c1c([H])c([H])c2c(c1[H])C([H])([H])C([H])([H])C([H])([H])C2([H])N([H])C(=O)C1([H])N(C(=O)C([H])(N([H])C(=O)C([H])(N([H])C([H])([H])[H])C([H])([H])[H])C(C([H])([H])[H])(C([H])([H])[H])C([H])([H])[H])C([H])([H])c2c([H])c(OC([H])([H])C([H])([H])[N+]([H])([H])C([H])([H])C([H])([H])N([H])C(=O)C3([H])N(C(=O)N4C([H])([H])C([H])([H])C([H])([H])C([H])(n5nc(-c6c([H])c([H])c(Oc7c([H])c([H])c(F)c([H])c7F)c([H])c6[H])c(C(=O)N([H])[H])c5N([H])[H])C4([H])[H])C([H])(C([H])([H])[N+]([H])([H])[H])C([H])([H])C3([H])[H])c([H])c([H])c2C1([H])[H]

>  <smiles>  (1) 
[H]c1c([H])c([H])c2c(c1[H])C([H])([H])C([H])([H])C([H])([H])C2([H])N([H])C(=O)C1([H])N(C(=O)C([H])(N([H])C(=O)C([H])(N([H])C([H])([H])[H])C([H])([H])[H])C(C([H])([H])[H])(C([H])([H])[H])C([H])([H])[H])C([H])([H])c2c([H])c(OC([H])([H])C([H])([H])[N+]([H])([H])C([H])([H])C([H])([H])N([H])C(=O)C3([H])N(C(=O)N4C([H])([H])C([H])([H])C([H])([H])C([H])(n5nc(-c6c([H])c([H])c(Oc7c([H])c([H])c(F)c([H])c7F)c([H])c6[H])c(C(=O)N([H])[H])c5N([H])[H])C4([H])[H])C([H])(C([H])([H])[N+]([H])([H])[H])C([H])([H])C3([H])[H])c([H])c([H])c2C1([H])[H]

$$$$
1:0:0
     RDKit          3D

 98107  0  0  1  0  0  0  0  0999 V2000
  -31.3610  -25.5850   18.0530 C   0  0  0  0  0  0  0  0  0  0  0  0
  -32.3080  -25.3800   19.0600 N   0  0  0  0  0  0  0  0  0  0  0  0
  -31.0210  -26.8420   17.7130 N   0  0  0  0  0  4  0  0  0  0  0  0
  -30.3520  -27.0220   16.9750 H   0  0  0  0  0  0  0  0  0  0  0  0
  -31.3470  -27.6440   18.2320 H   0  0  0  0  0  0  0  0  0  0  0  0
  -36.9550  -27.3850   20.7830 C   0  0  0  0  0  0  0  0  0  0  0  0
  -38.3600  -29.2840   21.6470 C   0  0  0  0  0  2  0  0  0  0  0  0
  -37.4960  -30.5330   21.9500 C   0  0  0  0  0  2  0  0  0  0  0  0
  -37.2840  -31.3970   20.6900 C   0  0  0  0  0  2  0  0  0  0  0  0
  -36.8870  -30.5450   19.4650 C   0  0  0  0  0  3  0  0  0  0  0  0
  -37.8370  -29.3320   19.3160 C   0  0  0  0  0  2  0  0  0  0  0  0
  -37.7080  -28.5290   20.5430 N   0  0  0  0  0  0  0  0  0  0  0  0
  -37.1610  -26.7620   21.8300 O   0  0  0  0  0  0  0  0  0  0  0  0
  -34.1560  -26.9350   18.2160 C   0  0  0  0  0  2  0  0  0  0  0  0
  -35.4990  -27.5120   18.6600 C   0  0  0  0  0  2  0  0  0  0  0  0
  -34.6880  -26.1000   20.3640 C   0  0  0  0  0  2  0  0  0  0  0  0
  -33.4170  -26.4030   19.4480 C   0  0  0  0  0  3  0  0  0  0  0  0
  -35.8160  -27.0650   20.0180 N   0  0  0  0  0  0  0  0  0  0  0  0
  -35.7200  -31.5250   17.3920 C   0  0  0  0  0  0  0  0  0  0  0  0
  -36.1530  -32.3890   16.4260 C   0  0  0  0  0  0  0  0  0  0  0  0
  -37.5090  -32.6940   16.7530 C   0  0  0  0  0  0  0  0  0  0  0  0
  -36.8010  -31.3270   18.2370 N   0  0  0  0  0  0  0  0  0  0  0  0
  -37.9020  -31.9940   17.8080 N   0  0  0  0  0  0  0  0  0  0  0  0
  -38.4350  -33.6640   16.1580 C   0  0  0  0  0  0  0  0  0  0  0  0
  -39.3440  -33.2870   15.1470 C   0  0  0  0  0  3  0  0  0  0  0  0
  -40.2160  -34.2410   14.5810 C   0  0  0  0  0  3  0  0  0  0  0  0
  -40.1790  -35.5850   15.0220 C   0  0  0  0  0  0  0  0  0  0  0  0
  -39.2930  -35.9460   16.0510 C   0  0  0  0  0  3  0  0  0  0  0  0
  -38.4290  -34.9950   16.6150 C   0  0  0  0  0  3  0  0  0  0  0  0
  -41.0020  -36.5750   14.5430 O   0  0  0  0  0  0  0  0  0  0  0  0
  -40.5650  -37.4940   13.6260 C   0  0  0  0  0  0  0  0  0  0  0  0
  -40.1530  -38.7910   14.0060 C   0  0  0  0  0  3  0  0  0  0  0  0
  -39.7820  -39.7280   13.0220 C   0  0  0  0  0  3  0  0  0  0  0  0
  -39.8220  -39.3740   11.6590 C   0  0  0  0  0  0  0  0  0  0  0  0
  -40.2370  -38.0870   11.2790 C   0  0  0  0  0  3  0  0  0  0  0  0
  -40.6100  -37.1510   12.2600 C   0  0  0  0  0  0  0  0  0  0  0  0
  -41.0320  -35.9170   11.8870 F   0  0  0  0  0  0  0  0  0  0  0  0
  -39.4700  -40.2760   10.7120 F   0  0  0  0  0  0  0  0  0  0  0  0
  -35.3240  -32.9880   15.3280 C   0  0  0  0  0  0  0  0  0  0  0  0
  -35.6950  -32.7300   14.0790 N   0  0  0  0  0  0  0  0  0  0  0  0
  -34.3150  -33.6490   15.5710 O   0  0  0  0  0  0  0  0  0  0  0  0
  -36.5110  -32.1670   13.8880 H   0  0  0  0  0  0  0  0  0  0  0  0
  -35.1650  -33.1060   13.3060 H   0  0  0  0  0  0  0  0  0  0  0  0
  -34.4840  -30.9310   17.6310 N   0  0  0  0  0  0  0  0  0  0  0  0
  -33.6640  -31.1720   17.0840 H   0  0  0  0  0  0  0  0  0  0  0  0
  -34.2510  -30.4540   18.4930 H   0  0  0  0  0  0  0  0  0  0  0  0
  -30.7090  -24.4370   17.1900 C   0  0  0  0  0  2  0  0  0  0  0  0
  -29.1370  -24.2640   16.9650 C   0  0  0  0  0  2  0  0  0  0  0  0
  -28.5660  -22.8840   17.5500 C   0  0  0  0  0  2  0  0  0  0  0  0
  -27.1290  -22.4720   17.6190 O   0  0  0  0  0  0  0  0  0  0  0  0
  -21.4270  -25.6310   20.8300 C   0  0  0  0  0  0  0  0  0  0  0  0
  -26.4300  -22.8020   18.8040 C   0  0  0  0  0  0  0  0  0  0  0  0
  -23.4120  -25.2110   22.2310 C   0  0  0  0  0  3  0  0  0  0  0  0
  -25.1610  -23.6380   21.2420 C   0  0  0  0  0  0  0  0  0  0  0  0
  -22.8880  -23.6770   20.2400 C   0  0  0  0  0  2  0  0  0  0  0  0
  -24.3860  -23.4220   20.0960 C   0  0  0  0  0  0  0  0  0  0  0  0
  -25.0120  -22.9930   18.8810 C   0  0  0  0  0  3  0  0  0  0  0  0
  -27.1520  -22.9950   20.0090 C   0  0  0  0  0  3  0  0  0  0  0  0
  -26.5410  -23.4110   21.2010 C   0  0  0  0  0  3  0  0  0  0  0  0
  -24.4680  -24.1110   22.5020 C   0  0  0  0  0  2  0  0  0  0  0  0
  -22.5390  -24.8750   21.0600 N   0  0  0  0  0  0  0  0  0  0  0  0
  -21.1180  -26.5670   21.5830 O   0  0  0  0  0  0  0  0  0  0  0  0
  -24.1290  -26.5760   22.0910 C   0  0  0  0  0  0  0  0  0  0  0  0
  -24.6480  -27.1050   23.2140 N   0  0  0  0  0  0  0  0  0  0  0  0
  -24.2320  -27.1230   20.9910 O   0  0  0  0  0  0  0  0  0  0  0  0
  -24.5100  -26.6030   24.0810 H   0  0  0  0  0  0  0  0  0  0  0  0
  -26.8680  -29.0300   25.3210 C   0  0  0  0  0  0  0  0  0  0  0  0
  -25.3970  -28.3600   23.3050 C   0  0  0  0  0  3  0  0  0  0  0  0
  -26.7150  -28.2810   22.5010 C   0  0  0  0  0  2  0  0  0  0  0  0
  -27.9130  -27.8390   23.3480 C   0  0  0  0  0  2  0  0  0  0  0  0
  -28.1360  -28.8100   24.5110 C   0  0  0  0  0  2  0  0  0  0  0  0
  -25.5840  -28.8040   24.7600 C   0  0  0  0  0  0  0  0  0  0  0  0
  -24.4420  -28.9910   25.5680 C   0  0  0  0  0  3  0  0  0  0  0  0
  -24.5670  -29.3950   26.9100 C   0  0  0  0  0  3  0  0  0  0  0  0
  -25.8410  -29.6300   27.4560 C   0  0  0  0  0  3  0  0  0  0  0  0
  -26.9860  -29.4550   26.6610 C   0  0  0  0  0  3  0  0  0  0  0  0
  -20.4820  -25.3470   19.6240 C   0  0  0  0  0  3  0  0  0  0  0  0
  -19.1050  -25.3090   20.1380 N   0  0  0  0  0  0  0  0  0  0  0  0
  -18.3230  -24.2200   20.1430 C   0  0  0  0  0  0  0  0  0  0  0  0
  -18.6700  -23.1470   19.6420 O   0  0  0  0  0  0  0  0  0  0  0  0
  -18.7750  -26.1380   20.6090 H   0  0  0  0  0  0  0  0  0  0  0  0
  -16.9590  -23.6510   22.1800 C   0  0  0  0  0  1  0  0  0  0  0  0
  -16.9380  -24.3400   20.8060 C   0  0  0  0  0  3  0  0  0  0  0  0
  -15.5430  -24.5690   18.7970 C   0  0  0  0  0  1  0  0  0  0  0  0
  -15.8420  -23.7760   19.9880 N   0  0  0  0  0  0  0  0  0  0  0  0
  -14.9900  -23.6950   20.5350 H   0  0  0  0  0  0  0  0  0  0  0  0
  -20.6170  -26.4120   18.4670 C   0  0  1  0  0  0  0  0  0  0  0  0
  -19.8750  -27.7390   18.7470 C   0  0  0  0  0  1  0  0  0  0  0  0
  -22.1060  -26.7520   18.2170 C   0  0  0  0  0  1  0  0  0  0  0  0
  -20.0680  -25.8230   17.1470 C   0  0  0  0  0  1  0  0  0  0  0  0
  -32.3780  -24.0020   19.6250 C   0  0  0  0  0  2  0  0  0  0  0  0
  -31.0130  -23.4240   20.1130 C   0  0  0  0  0  2  0  0  0  0  0  0
  -32.1670  -20.3790   23.1450 C   0  0  0  0  0  2  0  0  0  0  0  0
  -32.5870  -20.1490   21.6860 C   0  0  0  0  0  2  0  0  0  0  0  0
  -30.7870  -21.0490   23.2230 C   0  0  0  0  0  2  0  0  0  0  0  0
  -32.5130  -21.4500   20.8720 C   0  0  0  0  0  2  0  0  0  0  0  0
  -30.7450  -22.3530   22.4100 C   0  0  0  0  0  2  0  0  0  0  0  0
  -31.1160  -22.1120   20.9310 C   0  0  0  0  0  3  0  0  0  0  0  0
  1  2  1  0
  2 91  1  0
  3  1  2  0
  3  5  1  0
  4  3  1  0
  6 13  2  0
  7  8  1  0
  9  8  1  0
 10 22  1  0
 10  9  1  0
 11 10  1  0
 11 12  1  0
 12  6  1  0
 12  7  1  0
 14 15  1  0
 14 17  1  0
 15 18  1  0
 17  2  1  0
 17 16  1  0
 18 16  1  0
 18  6  1  0
 19 44  1  0
 19 22  1  0
 20 21  1  0
 20 19  2  0
 21 23  2  0
 23 22  1  0
 24 29  1  0
 24 21  1  0
 25 24  2  0
 26 27  2  0
 26 25  1  0
 27 28  1  0
 28 29  2  0
 30 27  1  0
 31 32  1  0
 31 30  1  0
 33 32  2  0
 34 33  1  0
 35 34  2  0
 35 36  1  0
 36 31  2  0
 37 36  1  0
 38 34  1  0
 39 41  2  0
 39 20  1  0
 40 39  1  0
 42 40  1  0
 43 40  1  0
 44 46  1  0
 45 44  1  0
 47  1  1  0
 48 47  1  0
 48 49  1  0
 49 50  1  0
 50 52  1  0
 51 61  1  0
 51 62  2  0
 52 57  2  0
 52 58  1  0
 53 63  1  0
 53 60  1  0
 54 60  1  0
 55 61  1  0
 56 55  1  0
 56 54  2  0
 57 56  1  0
 58 59  2  0
 59 54  1  0
 61 53  1  0
 63 64  1  0
 64 66  1  0
 65 63  2  0
 67 76  1  0
 68 64  1  0
 68 72  1  0
 69 68  1  0
 69 70  1  0
 70 71  1  0
 71 67  1  0
 72 67  2  0
 72 73  1  0
 73 74  2  0
 74 75  1  0
 76 75  2  0
 77 78  1  0
 77 51  1  0
 78 79  1  0
 78 81  1  0
 79 83  1  0
 80 79  2  0
 83 82  1  0
 84 85  1  0
 85 86  1  0
 85 83  1  0
 87 88  1  1
 87 77  1  0
 89 87  1  0
 90 87  1  0
 91 92  1  0
 92 98  1  0
 93 95  1  0
 94 93  1  0
 96 98  1  0
 96 94  1  0
 97 95  1  0
 98 97  1  0
M  ISO  4   6 100  18 100  49 101  50 101
M  END
>  <TORSDO>  (2) 
F 22

>  <SCORE>  (2) 
-6.200

>  <name>  (2) 
1

>  <ligand_id>  (2) 
1

>  <original_smiles>  (2) 
[H]c1c([H])c([H])c2c(c1[H])C([H])([H])C([H])([H])C([H])([H])C2([H])N([H])C(=O)C1([H])N(C(=O)C([H])(N([H])C(=O)C([H])(N([H])C([H])([H])[H])C([H])([H])[H])C(C([H])([H])[H])(C([H])([H])[H])C([H])([H])[H])C([H])([H])c2c([H])c(OC([H])([H])C([H])([H])C([H])([H])C(N(C([H])([H])C([H])([H])C3([H])C([H])([H])C([H])([H])C([H])([H])C([H])([H])C3([H])[H])C3([H])C([H])([H])N(C(=O)N4C([H])([H])C([H])([H])C([H])([H])C([H])(n5nc(-c6c([H])c([H])c(Oc7c([H])c([H])c(F)c([H])c7F)c([H])c6[H])c(C(=O)N([H])[H])c5N([H])[H])C4([H])[H])C([H])([H])C3([H])[H])=[N+]([H])[H])c([H])c([H])c2C1([H])[H]

>  <smiles>  (2) 
[H]c1c([H])c([H])c2c(c1[H])C([H])([H])C([H])([H])C([H])([H])C2([H])N([H])C(=O)C1([H])N(C(=O)C([H])(N([H])C(=O)C([H])(N([H])C([H])([H])[H])C([H])([H])[H])C(C([H])([H])[H])(C([H])([H])[H])C([H])([H])[H])C([H])([H])c2c([H])c(OC([H])([H])C([H])([H])C([H])([H])C(N(C([H])([H])C([H])([H])C3([H])C([H])([H])C([H])([H])C([H])([H])C([H])([H])C3([H])[H])C3([H])C([H])([H])N(C(=O)N4C([H])([H])C([H])([H])C([H])([H])C([H])(n5nc(-c6c([H])c([H])c(Oc7c([H])c([H])c(F)c([H])c7F)c([H])c6[H])c(C(=O)N([H])[H])c5N([H])[H])C4([H])[H])C([H])([H])C3([H])[H])=[N+]([H])[H])c([H])c([H])c2C1([H])[H]

$$$$
2:0:0
     RDKit          3D

 93101  0  0  1  0  0  0  0  0999 V2000
  -30.5830  -15.1470   20.3600 C   0  0  0  0  0  0  0  0  0  0  0  0
  -30.4050  -12.7280   19.5240 C   0  0  0  0  0  2  0  0  0  0  0  0
  -29.5220  -12.5190   18.2760 C   0  0  0  0  0  2  0  0  0  0  0  0
  -28.0610  -12.2960   18.6960 C   0  0  0  0  0  2  0  0  0  0  0  0
  -27.6000  -13.3070   19.7780 C   0  0  0  0  0  3  0  0  0  0  0  0
  -28.6270  -13.4920   20.9160 C   0  0  0  0  0  2  0  0  0  0  0  0
  -29.8770  -13.9250   20.2750 N   0  0  0  0  0  0  0  0  0  0  0  0
  -31.7980  -14.9590   20.2520 O   0  0  0  0  0  0  0  0  0  0  0  0
  -28.3080  -18.7370   20.7400 C   0  0  0  0  0  2  0  0  0  0  0  0
  -30.2430  -19.2060   19.4790 C   0  0  0  0  0  2  0  0  0  0  0  0
  -28.6690  -17.1200   20.4710 C   0  0  0  0  0  2  0  0  0  0  0  0
  -29.2260  -20.0300   20.3770 C   0  0  0  0  0  3  0  0  0  0  0  0
  -30.9250  -17.8400   20.1210 C   0  0  0  0  0  3  0  0  0  0  0  0
  -30.0720  -16.5410   20.2870 N   0  0  0  0  0  0  0  0  0  0  0  0
  -25.2210  -13.9010   20.4670 C   0  0  0  0  0  0  0  0  0  0  0  0
  -24.1420  -13.1390   20.8210 C   0  0  0  0  0  0  0  0  0  0  0  0
  -24.6000  -11.7840   20.8300 C   0  0  0  0  0  0  0  0  0  0  0  0
  -26.2620  -13.0130   20.2690 N   0  0  0  0  0  0  0  0  0  0  0  0
  -25.8990  -11.7360   20.5560 N   0  0  0  0  0  0  0  0  0  0  0  0
  -23.8590  -10.5310   21.0220 C   0  0  0  0  0  0  0  0  0  0  0  0
  -24.2720   -9.5650   21.9660 C   0  0  0  0  0  3  0  0  0  0  0  0
  -23.5270   -8.3790   22.1480 C   0  0  0  0  0  3  0  0  0  0  0  0
  -22.3560   -8.1500   21.3870 C   0  0  0  0  0  0  0  0  0  0  0  0
  -21.9630   -9.1040   20.4320 C   0  0  0  0  0  3  0  0  0  0  0  0
  -22.7070  -10.2820   20.2480 C   0  0  0  0  0  3  0  0  0  0  0  0
  -21.5860   -7.0170   21.4770 O   0  0  0  0  0  0  0  0  0  0  0  0
  -21.5340   -6.2730   22.6290 C   0  0  0  0  0  0  0  0  0  0  0  0
  -21.1470   -6.8370   23.8640 C   0  0  0  0  0  3  0  0  0  0  0  0
  -21.0410   -6.0210   25.0080 C   0  0  0  0  0  3  0  0  0  0  0  0
  -21.3100   -4.6420   24.9170 C   0  0  0  0  0  0  0  0  0  0  0  0
  -21.6880   -4.0780   23.6870 C   0  0  0  0  0  3  0  0  0  0  0  0
  -21.7970   -4.8900   22.5450 C   0  0  0  0  0  0  0  0  0  0  0  0
  -22.1420   -4.3370   21.3580 F   0  0  0  0  0  0  0  0  0  0  0  0
  -21.1990   -3.8560   26.0150 F   0  0  0  0  0  0  0  0  0  0  0  0
  -22.7420  -13.6310   21.0390 C   0  0  0  0  0  0  0  0  0  0  0  0
  -21.9890  -12.9690   21.9080 N   0  0  0  0  0  0  0  0  0  0  0  0
  -22.3270  -14.6410   20.4720 O   0  0  0  0  0  0  0  0  0  0  0  0
  -22.3390  -12.1540   22.3890 H   0  0  0  0  0  0  0  0  0  0  0  0
  -21.0470  -13.2830   22.0970 H   0  0  0  0  0  0  0  0  0  0  0  0
  -25.3960  -15.2660   20.2650 N   0  0  0  0  0  0  0  0  0  0  0  0
  -24.6280  -15.9240   20.3410 H   0  0  0  0  0  0  0  0  0  0  0  0
  -26.2530  -15.6930   19.9370 H   0  0  0  0  0  0  0  0  0  0  0  0
  -28.5390  -21.4320   19.8710 N   0  0  0  0  0  4  0  0  0  0  0  0
  -27.5950  -21.3630   20.2180 H   0  0  0  0  0  0  0  0  0  0  0  0
  -28.4450  -21.3590   18.8700 H   0  0  0  0  0  0  0  0  0  0  0  0
  -28.9280  -22.9860   20.1960 C   0  0  0  0  0  3  0  0  0  0  0  0
  -27.9750  -24.4100   19.8210 C   0  0  0  0  0  3  0  0  0  0  0  0
  -28.2280  -25.9880   20.0290 O   0  0  0  0  0  0  0  0  0  0  0  0
  -24.5940  -31.7640   23.0610 C   0  0  0  0  0  0  0  0  0  0  0  0
  -27.1940  -27.0300   19.9660 C   0  0  0  0  0  0  0  0  0  0  0  0
  -23.4070  -30.3770   21.4060 C   0  0  0  0  0  3  0  0  0  0  0  0
  -24.8670  -28.8260   19.9540 C   0  0  0  0  0  0  0  0  0  0  0  0
  -25.9640  -30.6440   21.2470 C   0  0  0  0  0  2  0  0  0  0  0  0
  -26.0490  -29.2540   20.5730 C   0  0  0  0  0  0  0  0  0  0  0  0
  -27.2110  -28.3750   20.5570 C   0  0  0  0  0  3  0  0  0  0  0  0
  -25.9850  -26.7340   19.3010 C   0  0  0  0  0  3  0  0  0  0  0  0
  -24.8540  -27.5850   19.3000 C   0  0  0  0  0  3  0  0  0  0  0  0
  -23.6340  -29.7210   20.0190 C   0  0  0  0  0  2  0  0  0  0  0  0
  -24.6760  -30.9530   21.9590 N   0  0  0  0  0  0  0  0  0  0  0  0
  -23.5040  -32.0300   23.5920 O   0  0  0  0  0  0  0  0  0  0  0  0
  -22.7360  -29.3530   22.3580 C   0  0  0  0  0  0  0  0  0  0  0  0
  -21.4040  -29.1900   22.2510 N   0  0  0  0  0  0  0  0  0  0  0  0
  -23.4170  -28.7090   23.1600 O   0  0  0  0  0  0  0  0  0  0  0  0
  -20.9090  -29.7620   21.5810 H   0  0  0  0  0  0  0  0  0  0  0  0
  -18.0290  -27.9810   22.7910 C   0  0  0  0  0  0  0  0  0  0  0  0
  -20.5930  -28.2360   23.0150 C   0  0  0  0  0  3  0  0  0  0  0  0
  -20.6810  -26.8170   22.4050 C   0  0  0  0  0  2  0  0  0  0  0  0
  -19.5600  -26.5200   21.4040 C   0  0  0  0  0  2  0  0  0  0  0  0
  -18.1910  -26.6500   22.0770 C   0  0  0  0  0  2  0  0  0  0  0  0
  -19.1560  -28.7330   23.2170 C   0  0  0  0  0  0  0  0  0  0  0  0
  -18.9480  -29.9790   23.8480 C   0  0  0  0  0  3  0  0  0  0  0  0
  -17.6460  -30.4740   24.0550 C   0  0  0  0  0  3  0  0  0  0  0  0
  -16.5340  -29.7200   23.6420 C   0  0  0  0  0  3  0  0  0  0  0  0
  -16.7270  -28.4750   23.0170 C   0  0  0  0  0  3  0  0  0  0  0  0
  -25.8630  -32.4090   23.6960 C   0  0  0  0  0  3  0  0  0  0  0  0
  -26.3990  -31.6150   24.9510 C   0  0  1  0  0  0  0  0  0  0  0  0
  -25.3170  -31.3400   26.0230 C   0  0  0  0  0  1  0  0  0  0  0  0
  -26.9960  -30.2540   24.5290 C   0  0  0  0  0  1  0  0  0  0  0  0
  -27.5440  -32.4090   25.6210 C   0  0  0  0  0  1  0  0  0  0  0  0
  -25.5230  -33.7910   24.0750 N   0  0  0  0  0  0  0  0  0  0  0  0
  -25.8230  -34.8790   23.3530 C   0  0  0  0  0  0  0  0  0  0  0  0
  -26.4790  -34.8270   22.3100 O   0  0  0  0  0  0  0  0  0  0  0  0
  -24.9370  -33.9040   24.8880 H   0  0  0  0  0  0  0  0  0  0  0  0
  -24.0500  -36.6490   23.1020 C   0  0  0  0  0  1  0  0  0  0  0  0
  -25.3180  -36.2420   23.8690 C   0  0  0  0  0  3  0  0  0  0  0  0
  -27.4550  -37.1460   24.6780 C   0  0  0  0  0  1  0  0  0  0  0  0
  -26.3250  -37.3210   23.7680 N   0  0  0  0  0  0  0  0  0  0  0  0
  -25.9040  -38.2270   23.9570 H   0  0  0  0  0  0  0  0  0  0  0  0
  -32.3290  -17.6010   19.4680 C   0  0  0  0  0  2  0  0  0  0  0  0
  -33.1850  -18.7980   19.3740 N   0  0  0  0  0  4  0  0  0  0  0  0
  -33.3470  -19.1990   20.2810 H   0  0  0  0  0  0  0  0  0  0  0  0
  -32.7780  -19.4920   18.7720 H   0  0  0  0  0  0  0  0  0  0  0  0
  -34.0780  -18.5430   18.9870 H   0  0  0  0  0  0  0  0  0  0  0  0
  2  7  1  0
  3  4  1  0
  3  2  1  0
  5  4  1  0
  5 18  1  0
  5  6  1  0
  7  1  1  0
  7  6  1  0
  8  1  2  0
 10 13  1  0
 10 12  1  0
 11  9  1  0
 12 43  1  0
 12  9  1  0
 13 89  1  0
 13 14  1  0
 14  1  1  0
 14 11  1  0
 15 16  2  0
 16 17  1  0
 16 35  1  0
 17 20  1  0
 18 15  1  0
 18 19  1  0
 19 17  2  0
 20 21  1  0
 21 22  2  0
 23 26  1  0
 23 22  1  0
 24 23  2  0
 25 24  1  0
 25 20  2  0
 26 27  1  0
 27 28  1  0
 28 29  2  0
 30 29  1  0
 30 34  1  0
 31 30  2  0
 32 27  2  0
 32 31  1  0
 33 32  1  0
 35 36  1  0
 36 39  1  0
 36 38  1  0
 37 35  2  0
 40 41  1  0
 40 15  1  0
 42 40  1  0
 43 46  1  0
 43 44  1  0
 45 43  1  0
 47 48  1  0
 47 46  2  0
 49 60  2  0
 50 48  1  0
 50 55  1  0
 51 59  1  0
 51 61  1  0
 52 58  1  0
 52 54  1  0
 53 59  1  0
 54 53  1  0
 55 54  2  0
 56 50  2  0
 57 56  1  0
 57 52  2  0
 58 51  1  0
 59 49  1  0
 61 63  2  0
 62 61  1  0
 64 62  1  0
 65 74  2  0
 65 70  1  0
 66 62  1  0
 66 70  1  0
 67 66  1  0
 68 69  1  0
 68 67  1  0
 69 65  1  0
 70 71  2  0
 71 72  1  0
 73 72  2  0
 74 73  1  0
 75 49  1  0
 75 80  1  0
 75 76  1  0
 76 79  1  1
 76 77  1  0
 78 76  1  0
 80 83  1  0
 81 85  1  0
 81 80  1  0
 82 81  2  0
 85 84  1  0
 87 85  1  0
 87 88  1  0
 87 86  1  0
 90 89  1  0
 90 91  1  0
 92 90  1  0
 93 90  1  0
M  ISO  4   1 100  14 100  47 101  48 101
M  END
>  <TORSDO>  (3) 
F 20

>  <SCORE>  (3) 
-14.426

>  <name>  (3) 
2

>  <ligand_id>  (3) 
2

>  <original_smiles>  (3) 
[H]c1c([H])c([H])c2c(c1[H])C([H])([H])C([H])([H])C([H])([H])C2([H])N([H])C(=O)C1([H])N(C(=O)C([H])(N([H])C(=O)C([H])(N([H])C([H])([H])[H])C([H])([H])[H])C(C([H])([H])[H])(C([H])([H])[H])C([H])([H])[H])C([H])([H])c2c([H])c(OC([H])([H])C([H])([H])[N+]([H])([H])C3([H])C([H])([H])C([H])([H])N(C(=O)N4C([H])([H])C([H])([H])C([H])([H])C([H])(n5nc(-c6c([H])c([H])c(Oc7c([H])c([H])c(F)c([H])c7F)c([H])c6[H])c(C(=O)N([H])[H])c5N([H])[H])C4([H])[H])C([H])(C([H])([H])[N+]([H])([H])[H])C3([H])[H])c([H])c([H])c2C1([H])[H]

>  <smiles>  (3) 
[H]c1c([H])c([H])c2c(c1[H])C([H])([H])C([H])([H])C([H])([H])C2([H])N([H])C(=O)C1([H])N(C(=O)C([H])(N([H])C(=O)C([H])(N([H])C([H])([H])[H])C([H])([H])[H])C(C([H])([H])[H])(C([H])([H])[H])C([H])([H])[H])C([H])([H])c2c([H])c(OC([H])([H])C([H])([H])[N+]([H])([H])C3([H])C([H])([H])C([H])([H])N(C(=O)N4C([H])([H])C([H])([H])C([H])([H])C([H])(n5nc(-c6c([H])c([H])c(Oc7c([H])c([H])c(F)c([H])c7F)c([H])c6[H])c(C(=O)N([H])[H])c5N([H])[H])C4([H])[H])C([H])(C([H])([H])[N+]([H])([H])[H])C3([H])[H])c([H])c([H])c2C1([H])[H]

$$$$
3:0:0
     RDKit          3D

101111  0  0  1  0  0  0  0  0999 V2000
  -31.7960  -20.4370   17.5210 C   0  0  0  0  0  3  0  0  0  0  0  0
  -33.1010  -20.7500   18.2160 C   0  0  0  0  0  2  0  0  0  0  0  0
  -33.1410  -22.2310   18.6480 C   0  0  0  0  0  2  0  0  0  0  0  0
  -29.2950  -17.3310   17.3720 C   0  0  0  0  0  2  0  0  0  0  0  0
  -29.2550  -18.6580   16.5870 C   0  0  0  0  0  2  0  0  0  0  0  0
  -32.2550  -22.5990   19.8590 C   0  0  0  0  0  2  0  0  0  0  0  0
  -29.8820  -21.6330   21.6850 C   0  0  0  0  0  2  0  0  0  0  0  0
  -29.0990  -22.9540   21.9810 C   0  0  0  0  0  2  0  0  0  0  0  0
  -30.6330  -17.0970   18.1080 C   0  0  0  0  0  2  0  0  0  0  0  0
  -29.9990  -23.9480   19.8240 C   0  0  0  0  0  2  0  0  0  0  0  0
  -29.9080  -18.5970   20.1430 C   0  0  0  0  0  2  0  0  0  0  0  0
  -29.3750  -19.9270   17.4540 C   0  0  0  0  0  2  0  0  0  0  0  0
  -30.7300  -22.5920   19.5530 C   0  0  0  0  0  3  0  0  0  0  0  0
  -29.9830  -21.3580   20.1670 C   0  0  0  0  0  3  0  0  0  0  0  0
  -29.5940  -24.2680   21.2830 C   0  0  0  0  0  3  0  0  0  0  0  0
  -30.5890  -19.9660   19.6760 C   0  0  0  0  0  3  0  0  0  0  0  0
  -30.5790  -17.2340   19.6580 C   0  0  0  0  0  3  0  0  0  0  0  0
  -30.6620  -20.0550   18.1880 N   0  0  0  0  0  0  0  0  0  0  0  0
  -31.7940  -20.6050   16.1810 N   0  0  0  0  0  0  0  0  0  0  0  0
  -32.6260  -20.9140   15.6930 H   0  0  0  0  0  0  0  0  0  0  0  0
  -30.9830  -20.4070   15.6140 H   0  0  0  0  0  0  0  0  0  0  0  0
  -30.7460  -14.8100   20.4160 C   0  0  0  0  0  0  0  0  0  0  0  0
  -30.4660  -12.5780   19.4460 C   0  0  0  0  0  2  0  0  0  0  0  0
  -29.5410  -12.7140   18.2190 C   0  0  0  0  0  2  0  0  0  0  0  0
  -28.0710  -12.5610   18.6540 C   0  0  0  0  0  2  0  0  0  0  0  0
  -27.6950  -13.4400   19.8760 C   0  0  0  0  0  3  0  0  0  0  0  0
  -28.7550  -13.3390   20.9950 C   0  0  0  0  0  2  0  0  0  0  0  0
  -30.0630  -13.6300   20.3940 N   0  0  0  0  0  0  0  0  0  0  0  0
  -31.9650  -14.8490   20.2510 O   0  0  0  0  0  0  0  0  0  0  0  0
  -30.0240  -15.9580   20.2400 N   0  0  0  0  0  0  0  0  0  0  0  0
  -29.0190  -15.8650   20.2740 H   0  0  0  0  0  0  0  0  0  0  0  0
  -25.2950  -14.0120   20.5930 C   0  0  0  0  0  0  0  0  0  0  0  0
  -24.2260  -13.2300   20.9420 C   0  0  0  0  0  0  0  0  0  0  0  0
  -24.6960  -11.8820   20.9000 C   0  0  0  0  0  0  0  0  0  0  0  0
  -26.3460  -13.1420   20.3580 N   0  0  0  0  0  0  0  0  0  0  0  0
  -25.9910  -11.8540   20.6080 N   0  0  0  0  0  0  0  0  0  0  0  0
  -23.9740  -10.6120   21.0650 C   0  0  0  0  0  0  0  0  0  0  0  0
  -24.3690   -9.6580   22.0280 C   0  0  0  0  0  3  0  0  0  0  0  0
  -23.6470   -8.4540   22.1820 C   0  0  0  0  0  3  0  0  0  0  0  0
  -22.5160   -8.1950   21.3720 C   0  0  0  0  0  0  0  0  0  0  0  0
  -22.1370   -9.1390   20.4030 C   0  0  0  0  0  3  0  0  0  0  0  0
  -22.8590  -10.3350   20.2480 C   0  0  0  0  0  3  0  0  0  0  0  0
  -21.7730   -7.0400   21.4300 O   0  0  0  0  0  0  0  0  0  0  0  0
  -21.6330   -6.3360   22.6000 C   0  0  0  0  0  0  0  0  0  0  0  0
  -21.0530   -6.9100   23.7490 C   0  0  0  0  0  3  0  0  0  0  0  0
  -20.8640   -6.1310   24.9080 C   0  0  0  0  0  3  0  0  0  0  0  0
  -21.2450   -4.7750   24.9150 C   0  0  0  0  0  0  0  0  0  0  0  0
  -21.8190   -4.2000   23.7700 C   0  0  0  0  0  3  0  0  0  0  0  0
  -22.0090   -4.9770   22.6120 C   0  0  0  0  0  0  0  0  0  0  0  0
  -22.5430   -4.4140   21.5030 F   0  0  0  0  0  0  0  0  0  0  0  0
  -21.0580   -4.0240   26.0270 F   0  0  0  0  0  0  0  0  0  0  0  0
  -22.8230  -13.6990   21.2010 C   0  0  0  0  0  0  0  0  0  0  0  0
  -22.0870  -12.9890   22.0500 N   0  0  0  0  0  0  0  0  0  0  0  0
  -22.3890  -14.7290   20.6890 O   0  0  0  0  0  0  0  0  0  0  0  0
  -22.4470  -12.1570   22.4900 H   0  0  0  0  0  0  0  0  0  0  0  0
  -21.1470  -13.2890   22.2680 H   0  0  0  0  0  0  0  0  0  0  0  0
  -25.4580  -15.3840   20.4310 N   0  0  0  0  0  0  0  0  0  0  0  0
  -24.6920  -16.0380   20.5380 H   0  0  0  0  0  0  0  0  0  0  0  0
  -26.3050  -15.8190   20.0900 H   0  0  0  0  0  0  0  0  0  0  0  0
  -28.4820  -25.4020   21.3760 C   0  0  0  0  0  2  0  0  0  0  0  0
  -28.6720  -26.7380   20.7930 O   0  0  0  0  0  0  0  0  0  0  0  0
  -24.5530  -32.0140   23.3880 C   0  0  0  0  0  0  0  0  0  0  0  0
  -27.5070  -27.5060   20.6510 C   0  0  0  0  0  0  0  0  0  0  0  0
  -23.4850  -30.5130   21.7390 C   0  0  0  0  0  3  0  0  0  0  0  0
  -25.0680  -28.9750   20.4480 C   0  0  0  0  0  0  0  0  0  0  0  0
  -26.0090  -30.9440   21.6620 C   0  0  0  0  0  2  0  0  0  0  0  0
  -26.1790  -29.5490   21.0790 C   0  0  0  0  0  0  0  0  0  0  0  0
  -27.4000  -28.8250   21.1700 C   0  0  0  0  0  3  0  0  0  0  0  0
  -26.3800  -26.9730   19.9860 C   0  0  0  0  0  3  0  0  0  0  0  0
  -25.1690  -27.6890   19.8910 C   0  0  0  0  0  3  0  0  0  0  0  0
  -23.7940  -29.7910   20.3980 C   0  0  0  0  0  2  0  0  0  0  0  0
  -24.6970  -31.1760   22.3210 N   0  0  0  0  0  0  0  0  0  0  0  0
  -23.4350  -32.2670   23.8600 O   0  0  0  0  0  0  0  0  0  0  0  0
  -22.8130  -29.5080   22.7040 C   0  0  0  0  0  0  0  0  0  0  0  0
  -21.4990  -29.2900   22.5280 N   0  0  0  0  0  0  0  0  0  0  0  0
  -23.4750  -28.9260   23.5680 O   0  0  0  0  0  0  0  0  0  0  0  0
  -21.0270  -29.8120   21.8030 H   0  0  0  0  0  0  0  0  0  0  0  0
  -18.1240  -28.0700   22.9710 C   0  0  0  0  0  0  0  0  0  0  0  0
  -20.6740  -28.3520   23.2890 C   0  0  0  0  0  3  0  0  0  0  0  0
  -20.7990  -26.9170   22.7270 C   0  0  0  0  0  2  0  0  0  0  0  0
  -19.7190  -26.5760   21.6950 C   0  0  0  0  0  2  0  0  0  0  0  0
  -18.3240  -26.7160   22.3100 C   0  0  0  0  0  2  0  0  0  0  0  0
  -19.2270  -28.8450   23.4160 C   0  0  0  0  0  0  0  0  0  0  0  0
  -18.9870  -30.1120   23.9920 C   0  0  0  0  0  3  0  0  0  0  0  0
  -17.6740  -30.6010   24.1300 C   0  0  0  0  0  3  0  0  0  0  0  0
  -16.5860  -29.8240   23.7010 C   0  0  0  0  0  3  0  0  0  0  0  0
  -16.8110  -28.5600   23.1270 C   0  0  0  0  0  3  0  0  0  0  0  0
  -25.7800  -32.7120   24.0510 C   0  0  0  0  0  3  0  0  0  0  0  0
  -25.4160  -34.1140   24.2960 N   0  0  0  0  0  0  0  0  0  0  0  0
  -25.7390  -35.1360   23.4910 C   0  0  0  0  0  0  0  0  0  0  0  0
  -26.4450  -34.9990   22.4870 O   0  0  0  0  0  0  0  0  0  0  0  0
  -24.7940  -34.2910   25.0720 H   0  0  0  0  0  0  0  0  0  0  0  0
  -23.9540  -36.8380   23.0010 C   0  0  0  0  0  1  0  0  0  0  0  0
  -25.1940  -36.5290   23.8570 C   0  0  0  0  0  3  0  0  0  0  0  0
  -27.2770  -37.5450   24.6700 C   0  0  0  0  0  1  0  0  0  0  0  0
  -26.1900  -37.6120   23.6970 N   0  0  0  0  0  0  0  0  0  0  0  0
  -25.7460  -38.5230   23.7770 H   0  0  0  0  0  0  0  0  0  0  0  0
  -26.2430  -32.0170   25.3910 C   0  0  1  0  0  0  0  0  0  0  0  0
  -25.0940  -31.7840   26.4010 C   0  0  0  0  0  1  0  0  0  0  0  0
  -26.9030  -30.6500   25.0970 C   0  0  0  0  0  1  0  0  0  0  0  0
  -27.3210  -32.8840   26.0840 C   0  0  0  0  0  1  0  0  0  0  0  0
  1 19  1  0
  1 18  1  0
  1  2  1  0
  2  3  1  0
  3  6  1  0
  4  9  1  0
  5  4  1  0
  5 12  1  0
  7  8  1  0
  9 17  1  0
 10 15  1  0
 13 10  1  0
 13  6  1  0
 13 14  1  0
 14  7  1  0
 15 60  1  0
 15  8  1  0
 16 11  1  0
 16 14  1  0
 17 11  1  0
 17 30  1  0
 18 12  1  0
 18 16  1  0
 20 19  1  0
 21 19  1  0
 23 28  1  0
 24 25  1  0
 24 23  1  0
 26 25  1  0
 26 35  1  0
 26 27  1  0
 28 22  1  0
 28 27  1  0
 29 22  2  0
 30 31  1  0
 30 22  1  0
 32 33  2  0
 33 52  1  0
 34 33  1  0
 34 37  1  0
 35 32  1  0
 35 36  1  0
 36 34  2  0
 37 38  1  0
 38 39  2  0
 40 43  1  0
 40 39  1  0
 41 40  2  0
 42 41  1  0
 42 37  2  0
 43 44  1  0
 44 49  2  0
 44 45  1  0
 45 46  2  0
 46 47  1  0
 47 51  1  0
 48 47  2  0
 49 48  1  0
 50 49  1  0
 52 53  1  0
 53 56  1  0
 53 55  1  0
 54 52  2  0
 57 58  1  0
 57 32  1  0
 59 57  1  0
 61 60  1  0
 62 73  2  0
 63 61  1  0
 63 68  1  0
 64 72  1  0
 64 74  1  0
 65 67  1  0
 66 72  1  0
 67 68  2  0
 67 66  1  0
 69 63  2  0
 70 69  1  0
 70 65  2  0
 71 65  1  0
 71 64  1  0
 72 62  1  0
 74 76  2  0
 75 74  1  0
 77 75  1  0
 78 87  2  0
 78 83  1  0
 79 75  1  0
 79 83  1  0
 80 79  1  0
 81 82  1  0
 81 80  1  0
 82 78  1  0
 83 84  2  0
 84 85  1  0
 86 85  2  0
 87 86  1  0
 88 62  1  0
 88 89  1  0
 88 98  1  0
 89 92  1  0
 90 94  1  0
 90 89  1  0
 91 90  2  0
 94 93  1  0
 96 97  1  0
 96 94  1  0
 96 95  1  0
 98101  1  1
 98 99  1  0
100 98  1  0
M  ISO  4  22 100  30 100  60 101  61 101
M  END
>  <TORSDO>  (4) 
F 17

>  <SCORE>  (4) 
-14.042

>  <name>  (4) 
3

>  <ligand_id>  (4) 
3

>  <original_smiles>  (4) 
[H]c1c([H])c([H])c2c(c1[H])C([H])([H])C([H])([H])C([H])([H])C2([H])N([H])C(=O)C1([H])N(C(=O)C([H])(N([H])C(=O)C([H])(N([H])C([H])([H])[H])C([H])([H])[H])C(C([H])([H])[H])(C([H])([H])[H])C([H])([H])[H])C([H])([H])c2c([H])c(OC([H])([H])C3([H])C([H])([H])C([H])([H])C4([H])C5([H])N(C(=[N+]([H])[H])C([H])([H])C([H])([H])C([H])([H])C4([H])C3([H])[H])C([H])([H])C([H])([H])C([H])([H])C([H])([H])C([H])(N([H])C(=O)N3C([H])([H])C([H])([H])C([H])([H])C([H])(n4nc(-c6c([H])c([H])c(Oc7c([H])c([H])c(F)c([H])c7F)c([H])c6[H])c(C(=O)N([H])[H])c4N([H])[H])C3([H])[H])C5([H])[H])c([H])c([H])c2C1([H])[H]

>  <smiles>  (4) 
[H]c1c([H])c([H])c2c(c1[H])C([H])([H])C([H])([H])C([H])([H])C2([H])N([H])C(=O)C1([H])N(C(=O)C([H])(N([H])C(=O)C([H])(N([H])C([H])([H])[H])C([H])([H])[H])C(C([H])([H])[H])(C([H])([H])[H])C([H])([H])[H])C([H])([H])c2c([H])c(OC([H])([H])C3([H])C([H])([H])C([H])([H])C4([H])C5([H])N(C(=[N+]([H])[H])C([H])([H])C([H])([H])C([H])([H])C4([H])C3([H])[H])C([H])([H])C([H])([H])C([H])([H])C([H])([H])C([H])(N([H])C(=O)N3C([H])([H])C([H])([H])C([H])([H])C([H])(n4nc(-c6c([H])c([H])c(Oc7c([H])c([H])c(F)c([H])c7F)c([H])c6[H])c(C(=O)N([H])[H])c4N([H])[H])C3([H])[H])C5([H])[H])c([H])c([H])c2C1([H])[H]

$$$$
4:0:0
     RDKit          3D

100109  0  0  1  0  0  0  0  0999 V2000
  -29.4790  -22.0440   19.7400 C   0  0  0  0  0  2  0  0  0  0  0  0
  -31.6460  -22.1520   20.9690 C   0  0  0  0  0  2  0  0  0  0  0  0
  -28.9710  -23.2520   20.5560 C   0  0  0  0  0  2  0  0  0  0  0  0
  -31.1160  -23.3740   21.7360 C   0  0  0  0  0  2  0  0  0  0  0  0
  -30.5220  -21.2000   20.5070 C   0  0  0  0  0  3  0  0  0  0  0  0
  -30.0910  -24.1390   20.9780 N   0  0  2  0  0  4  0  0  0  0  0  0
  -30.5230  -24.4600   20.1220 H   0  0  0  0  0  0  0  0  0  0  0  0
  -31.0640  -20.0330   19.6300 C   0  0  0  0  0  2  0  0  0  0  0  0
  -31.6050  -18.8760   20.4120 N   0  0  2  0  0  4  0  0  0  0  0  0
  -31.6230  -19.1540   21.3810 H   0  0  0  0  0  0  0  0  0  0  0  0
  -33.0100  -18.5350   20.0350 C   0  0  0  0  0  2  0  0  0  0  0  0
  -36.4440  -20.3560   22.1480 C   0  0  0  0  0  2  0  0  0  0  0  0
  -35.0260  -20.7520   22.5840 C   0  0  0  0  0  2  0  0  0  0  0  0
  -36.5190  -20.1740   20.6240 C   0  0  0  0  0  2  0  0  0  0  0  0
  -33.9880  -19.7320   22.0860 C   0  0  0  0  0  2  0  0  0  0  0  0
  -35.4770  -19.1540   20.1320 C   0  0  0  0  0  2  0  0  0  0  0  0
  -34.0470  -19.5560   20.5490 C   0  0  0  0  0  3  0  0  0  0  0  0
  -30.7180  -17.6760   20.3360 C   0  0  0  0  0  2  0  0  0  0  0  0
  -30.9050  -16.6700   21.5050 C   0  0  0  0  0  2  0  0  0  0  0  0
  -30.8040  -14.4240   20.4560 C   0  0  0  0  0  0  0  0  0  0  0  0
  -30.4360  -12.2870   19.2870 C   0  0  0  0  0  2  0  0  0  0  0  0
  -29.4880  -12.4780   18.0880 C   0  0  0  0  0  2  0  0  0  0  0  0
  -28.0180  -12.3630   18.5290 C   0  0  0  0  0  2  0  0  0  0  0  0
  -27.6980  -13.2320   19.7750 C   0  0  0  0  0  3  0  0  0  0  0  0
  -28.7520  -13.0170   20.8850 C   0  0  0  0  0  2  0  0  0  0  0  0
  -30.0820  -13.2820   20.3110 N   0  0  0  0  0  0  0  0  0  0  0  0
  -31.8690  -14.6310   19.8680 O   0  0  0  0  0  0  0  0  0  0  0  0
  -30.2690  -15.3730   21.2420 N   0  0  0  0  0  0  0  0  0  0  0  0
  -29.3890  -15.1690   21.6930 H   0  0  0  0  0  0  0  0  0  0  0  0
  -25.3130  -13.8820   20.4950 C   0  0  0  0  0  0  0  0  0  0  0  0
  -24.2330  -13.1290   20.8700 C   0  0  0  0  0  0  0  0  0  0  0  0
  -24.6700  -11.7690   20.8360 C   0  0  0  0  0  0  0  0  0  0  0  0
  -26.3410  -12.9830   20.2600 N   0  0  0  0  0  0  0  0  0  0  0  0
  -25.9570  -11.7070   20.5190 N   0  0  0  0  0  0  0  0  0  0  0  0
  -23.9230  -10.5190   21.0320 C   0  0  0  0  0  0  0  0  0  0  0  0
  -24.3510   -9.5410   21.9560 C   0  0  0  0  0  3  0  0  0  0  0  0
  -23.6060   -8.3560   22.1400 C   0  0  0  0  0  3  0  0  0  0  0  0
  -22.4190   -8.1410   21.3990 C   0  0  0  0  0  0  0  0  0  0  0  0
  -22.0110   -9.1090   20.4630 C   0  0  0  0  0  3  0  0  0  0  0  0
  -22.7560  -10.2850   20.2780 C   0  0  0  0  0  3  0  0  0  0  0  0
  -21.6460   -7.0100   21.4920 O   0  0  0  0  0  0  0  0  0  0  0  0
  -21.5960   -6.2650   22.6430 C   0  0  0  0  0  0  0  0  0  0  0  0
  -21.1980   -6.8260   23.8760 C   0  0  0  0  0  3  0  0  0  0  0  0
  -21.0940   -6.0080   25.0210 C   0  0  0  0  0  3  0  0  0  0  0  0
  -21.3770   -4.6320   24.9310 C   0  0  0  0  0  0  0  0  0  0  0  0
  -21.7680   -4.0720   23.7020 C   0  0  0  0  0  3  0  0  0  0  0  0
  -21.8750   -4.8850   22.5620 C   0  0  0  0  0  0  0  0  0  0  0  0
  -22.2320   -4.3370   21.3760 F   0  0  0  0  0  0  0  0  0  0  0  0
  -21.2680   -3.8460   26.0280 F   0  0  0  0  0  0  0  0  0  0  0  0
  -22.8470  -13.6290   21.1530 C   0  0  0  0  0  0  0  0  0  0  0  0
  -22.1170  -12.9520   22.0310 N   0  0  0  0  0  0  0  0  0  0  0  0
  -22.4200  -14.6580   20.6300 O   0  0  0  0  0  0  0  0  0  0  0  0
  -22.4750  -12.1180   22.4750 H   0  0  0  0  0  0  0  0  0  0  0  0
  -21.1860  -13.2680   22.2620 H   0  0  0  0  0  0  0  0  0  0  0  0
  -25.5000  -15.2500   20.3140 N   0  0  0  0  0  0  0  0  0  0  0  0
  -24.7470  -15.9190   20.4240 H   0  0  0  0  0  0  0  0  0  0  0  0
  -26.3590  -15.6720   19.9850 H   0  0  0  0  0  0  0  0  0  0  0  0
  -29.7290  -25.3790   21.7310 C   0  0  0  0  0  2  0  0  0  0  0  0
  -28.3650  -26.0280   21.4450 C   0  0  0  0  0  2  0  0  0  0  0  0
  -28.3010  -26.6980   20.1830 O   0  0  0  0  0  0  0  0  0  0  0  0
  -24.5760  -31.8930   23.2390 C   0  0  0  0  0  0  0  0  0  0  0  0
  -27.1680  -27.4680   20.1270 C   0  0  0  0  0  0  0  0  0  0  0  0
  -23.3440  -30.5010   21.6040 C   0  0  0  0  0  3  0  0  0  0  0  0
  -24.7770  -28.9560   20.1620 C   0  0  0  0  0  0  0  0  0  0  0  0
  -25.8640  -30.8550   21.3780 C   0  0  0  0  0  2  0  0  0  0  0  0
  -25.9380  -29.4870   20.7380 C   0  0  0  0  0  0  0  0  0  0  0  0
  -27.1400  -28.7490   20.7180 C   0  0  0  0  0  3  0  0  0  0  0  0
  -25.9990  -26.9460   19.5400 C   0  0  0  0  0  3  0  0  0  0  0  0
  -24.8000  -27.6850   19.5590 C   0  0  0  0  0  3  0  0  0  0  0  0
  -23.5360  -29.8160   20.2230 C   0  0  0  0  0  2  0  0  0  0  0  0
  -24.6130  -31.0960   22.1340 N   0  0  0  0  0  0  0  0  0  0  0  0
  -23.5020  -32.1750   23.7890 O   0  0  0  0  0  0  0  0  0  0  0  0
  -22.6940  -29.4850   22.5710 C   0  0  0  0  0  0  0  0  0  0  0  0
  -21.3690  -29.3130   22.4530 N   0  0  0  0  0  0  0  0  0  0  0  0
  -23.3810  -28.8550   23.3810 O   0  0  0  0  0  0  0  0  0  0  0  0
  -20.8780  -29.8730   21.7690 H   0  0  0  0  0  0  0  0  0  0  0  0
  -17.9890  -28.1430   22.9690 C   0  0  0  0  0  0  0  0  0  0  0  0
  -20.5510  -28.3830   23.2290 C   0  0  0  0  0  3  0  0  0  0  0  0
  -20.6400  -26.9500   22.6550 C   0  0  0  0  0  2  0  0  0  0  0  0
  -19.5320  -26.6340   21.6450 C   0  0  0  0  0  2  0  0  0  0  0  0
  -18.1540  -26.7910   22.2950 C   0  0  0  0  0  2  0  0  0  0  0  0
  -19.1160  -28.8970   23.3930 C   0  0  0  0  0  0  0  0  0  0  0  0
  -18.9100  -30.1630   23.9820 C   0  0  0  0  0  3  0  0  0  0  0  0
  -17.6110  -30.6770   24.1500 C   0  0  0  0  0  3  0  0  0  0  0  0
  -16.4990  -29.9200   23.7400 C   0  0  0  0  0  3  0  0  0  0  0  0
  -16.6890  -28.6540   23.1580 C   0  0  0  0  0  3  0  0  0  0  0  0
  -25.8740  -32.5110   23.8470 C   0  0  0  0  0  3  0  0  0  0  0  0
  -25.5800  -33.9090   24.1850 N   0  0  0  0  0  0  0  0  0  0  0  0
  -25.9240  -34.9610   23.4280 C   0  0  0  0  0  0  0  0  0  0  0  0
  -26.5950  -34.8550   22.3970 O   0  0  0  0  0  0  0  0  0  0  0  0
  -24.9810  -34.0660   24.9820 H   0  0  0  0  0  0  0  0  0  0  0  0
  -24.2230  -36.7770   23.0680 C   0  0  0  0  0  1  0  0  0  0  0  0
  -25.4500  -36.3520   23.8900 C   0  0  0  0  0  3  0  0  0  0  0  0
  -27.5880  -37.2020   24.7480 C   0  0  0  0  0  1  0  0  0  0  0  0
  -26.4980  -37.3920   23.7950 N   0  0  0  0  0  0  0  0  0  0  0  0
  -26.1020  -38.3160   23.9480 H   0  0  0  0  0  0  0  0  0  0  0  0
  -26.4010  -31.7290   25.1120 C   0  0  1  0  0  0  0  0  0  0  0  0
  -25.3200  -31.4880   26.1920 C   0  0  0  0  0  1  0  0  0  0  0  0
  -26.9720  -30.3520   24.6990 C   0  0  0  0  0  1  0  0  0  0  0  0
  -27.5650  -32.5110   25.7670 C   0  0  0  0  0  1  0  0  0  0  0  0
  1  5  1  0
  1  3  1  0
  2  4  1  0
  3  6  1  0
  5  8  1  0
  5  2  1  0
  6 58  1  0
  6  4  1  0
  6  7  1  6
  8  9  1  0
  9 10  1  1
 11  9  1  0
 11 17  1  0
 12 13  1  0
 14 12  1  0
 15 13  1  0
 16 17  1  0
 16 14  1  0
 17 15  1  0
 18  9  1  0
 18 19  1  0
 20 28  1  0
 21 26  1  0
 22 23  1  0
 22 21  1  0
 24 23  1  0
 24 33  1  0
 24 25  1  0
 26 20  1  0
 26 25  1  0
 27 20  2  0
 28 19  1  0
 28 29  1  0
 30 31  2  0
 31 50  1  0
 32 31  1  0
 32 35  1  0
 33 30  1  0
 33 34  1  0
 34 32  2  0
 35 36  1  0
 36 37  2  0
 38 41  1  0
 38 37  1  0
 39 38  2  0
 40 39  1  0
 40 35  2  0
 41 42  1  0
 42 43  1  0
 43 44  2  0
 45 44  1  0
 45 49  1  0
 46 45  2  0
 47 42  2  0
 47 46  1  0
 48 47  1  0
 50 51  1  0
 51 54  1  0
 51 53  1  0
 52 50  2  0
 55 56  1  0
 55 30  1  0
 57 55  1  0
 59 58  1  0
 60 59  1  0
 61 72  2  0
 62 60  1  0
 62 67  1  0
 63 71  1  0
 63 73  1  0
 64 70  1  0
 64 66  1  0
 65 71  1  0
 66 65  1  0
 67 66  2  0
 68 69  1  0
 68 62  2  0
 69 64  2  0
 70 63  1  0
 71 61  1  0
 73 75  2  0
 74 73  1  0
 76 74  1  0
 77 86  2  0
 77 82  1  0
 78 74  1  0
 78 82  1  0
 79 78  1  0
 80 81  1  0
 80 79  1  0
 81 77  1  0
 82 83  2  0
 83 84  1  0
 85 84  2  0
 86 85  1  0
 87 61  1  0
 87 88  1  0
 87 97  1  0
 88 91  1  0
 89 93  1  0
 89 88  1  0
 90 89  2  0
 93 92  1  0
 95 93  1  0
 95 96  1  0
 95 94  1  0
 97100  1  1
 97 98  1  0
 99 97  1  0
M  ISO  4  20 100  28 100  59 101  60 101
M  END
>  <TORSDO>  (5) 
F 24

>  <SCORE>  (5) 
-12.750

>  <name>  (5) 
4

>  <ligand_id>  (5) 
4

>  <original_smiles>  (5) 
[H]c1c([H])c([H])c2c(c1[H])C([H])([H])C([H])([H])C([H])([H])C2([H])N([H])C(=O)C1([H])N(C(=O)C([H])(N([H])C(=O)C([H])(N([H])C([H])([H])[H])C([H])([H])[H])C(C([H])([H])[H])(C([H])([H])[H])C([H])([H])[H])C([H])([H])c2c([H])c(OC([H])([H])C([H])([H])[N+]3([H])C([H])([H])C([H])([H])C([H])(C([H])([H])[N+]([H])(C([H])([H])C([H])([H])N([H])C(=O)N4C([H])([H])C([H])([H])C([H])([H])C([H])(n5nc(-c6c([H])c([H])c(Oc7c([H])c([H])c(F)c([H])c7F)c([H])c6[H])c(C(=O)N([H])[H])c5N([H])[H])C4([H])[H])C([H])([H])C4([H])C([H])([H])C([H])([H])C([H])([H])C([H])([H])C4([H])[H])C([H])([H])C3([H])[H])c([H])c([H])c2C1([H])[H]

>  <smiles>  (5) 
[H]c1c([H])c([H])c2c(c1[H])C([H])([H])C([H])([H])C([H])([H])C2([H])N([H])C(=O)C1([H])N(C(=O)C([H])(N([H])C(=O)C([H])(N([H])C([H])([H])[H])C([H])([H])[H])C(C([H])([H])[H])(C([H])([H])[H])C([H])([H])[H])C([H])([H])c2c([H])c(OC([H])([H])C([H])([H])[N+]3([H])C([H])([H])C([H])([H])C([H])(C([H])([H])[N+]([H])(C([H])([H])C([H])([H])N([H])C(=O)N4C([H])([H])C([H])([H])C([H])([H])C([H])(n5nc(-c6c([H])c([H])c(Oc7c([H])c([H])c(F)c([H])c7F)c([H])c6[H])c(C(=O)N([H])[H])c5N([H])[H])C4([H])[H])C([H])([H])C4([H])C([H])([H])C([H])([H])C([H])([H])C([H])([H])C4([H])[H])C([H])([H])C3([H])[H])c([H])c([H])c2C1([H])[H]

$$$$
5:0:0
     RDKit          3D

 97105  0  0  1  0  0  0  0  0999 V2000
  -31.1540  -17.5790   20.4210 C   0  0  0  0  0  2  0  0  0  0  0  0
  -29.6000  -16.9880   18.6240 C   0  0  0  0  0  2  0  0  0  0  0  0
  -30.5270  -18.9910   20.5070 C   0  0  0  0  0  2  0  0  0  0  0  0
  -29.0390  -18.4300   18.6570 C   0  0  0  0  0  2  0  0  0  0  0  0
  -30.0520  -16.5670   20.0360 C   0  0  0  0  0  3  0  0  0  0  0  0
  -29.9710  -19.4310   19.2120 N   0  0  0  0  0  0  0  0  0  0  0  0
  -30.7260  -14.2750   19.2270 C   0  0  0  0  0  0  0  0  0  0  0  0
  -30.0710  -12.3250   17.8320 C   0  0  0  0  0  2  0  0  0  0  0  0
  -28.9310  -12.6810   16.8540 C   0  0  0  0  0  2  0  0  0  0  0  0
  -27.5500  -12.5370   17.5240 C   0  0  0  0  0  2  0  0  0  0  0  0
  -27.4950  -13.2480   18.8950 C   0  0  0  0  0  3  0  0  0  0  0  0
  -28.7030  -12.8550   19.7600 C   0  0  0  0  0  2  0  0  0  0  0  0
  -29.9410  -13.1740   19.0300 N   0  0  0  0  0  0  0  0  0  0  0  0
  -31.6690  -14.5440   18.4740 O   0  0  0  0  0  0  0  0  0  0  0  0
  -30.3570  -15.1150   20.2410 N   0  0  0  0  0  0  0  0  0  0  0  0
  -25.3160  -13.9160   20.0930 C   0  0  0  0  0  0  0  0  0  0  0  0
  -24.2920  -13.1670   20.6110 C   0  0  0  0  0  0  0  0  0  0  0  0
  -24.6620  -11.8030   20.4100 C   0  0  0  0  0  0  0  0  0  0  0  0
  -26.2400  -13.0060   19.6020 N   0  0  0  0  0  0  0  0  0  0  0  0
  -25.8660  -11.7290   19.8570 N   0  0  0  0  0  0  0  0  0  0  0  0
  -23.9180  -10.5630   20.6580 C   0  0  0  0  0  0  0  0  0  0  0  0
  -24.4150   -9.5640   21.5220 C   0  0  0  0  0  3  0  0  0  0  0  0
  -23.6770   -8.3830   21.7470 C   0  0  0  0  0  3  0  0  0  0  0  0
  -22.4240   -8.1960   21.1150 C   0  0  0  0  0  0  0  0  0  0  0  0
  -21.9450   -9.1850   20.2390 C   0  0  0  0  0  3  0  0  0  0  0  0
  -22.6850  -10.3560   20.0100 C   0  0  0  0  0  3  0  0  0  0  0  0
  -21.6470   -7.0740   21.2570 O   0  0  0  0  0  0  0  0  0  0  0  0
  -21.6250   -6.3560   22.4280 C   0  0  0  0  0  0  0  0  0  0  0  0
  -21.2830   -6.9520   23.6610 C   0  0  0  0  0  3  0  0  0  0  0  0
  -21.2080   -6.1640   24.8260 C   0  0  0  0  0  3  0  0  0  0  0  0
  -21.4630   -4.7800   24.7590 C   0  0  0  0  0  0  0  0  0  0  0  0
  -21.7960   -4.1830   23.5300 C   0  0  0  0  0  3  0  0  0  0  0  0
  -21.8740   -4.9700   22.3680 C   0  0  0  0  0  0  0  0  0  0  0  0
  -22.1740   -4.3870   21.1830 F   0  0  0  0  0  0  0  0  0  0  0  0
  -21.3820   -4.0220   25.8760 F   0  0  0  0  0  0  0  0  0  0  0  0
  -22.9970  -13.6840   21.1650 C   0  0  0  0  0  0  0  0  0  0  0  0
  -22.4220  -12.9830   22.1370 N   0  0  0  0  0  0  0  0  0  0  0  0
  -22.5100  -14.7410   20.7670 O   0  0  0  0  0  0  0  0  0  0  0  0
  -22.8290  -12.1220   22.4730 H   0  0  0  0  0  0  0  0  0  0  0  0
  -21.5560  -13.3040   22.5440 H   0  0  0  0  0  0  0  0  0  0  0  0
  -25.5320  -15.2860   19.9740 N   0  0  0  0  0  0  0  0  0  0  0  0
  -24.7980  -15.9500   20.1930 H   0  0  0  0  0  0  0  0  0  0  0  0
  -26.2220  -15.6680   19.3400 H   0  0  0  0  0  0  0  0  0  0  0  0
  -30.9380  -14.8560   21.5870 C   0  0  0  0  0  2  0  0  0  0  0  0
  -30.2120  -13.8150   22.4850 C   0  0  0  0  0  2  0  0  0  0  0  0
  -28.7470  -13.7470   22.3040 N   0  0  0  0  0  4  0  0  0  0  0  0
  -28.3760  -13.0000   22.8690 H   0  0  0  0  0  0  0  0  0  0  0  0
  -28.4900  -13.5680   21.3500 H   0  0  0  0  0  0  0  0  0  0  0  0
  -28.3040  -14.5980   22.6120 H   0  0  0  0  0  0  0  0  0  0  0  0
  -29.2090  -20.6940   19.3200 C   0  0  0  0  0  2  0  0  0  0  0  0
  -29.9730  -21.9650   19.7950 C   0  0  0  0  0  2  0  0  0  0  0  0
  -29.0690  -23.1470   19.8760 N   0  0  0  0  0  4  0  0  0  0  0  0
  -28.2980  -22.8820   20.4680 H   0  0  0  0  0  0  0  0  0  0  0  0
  -28.6890  -23.3320   18.9590 H   0  0  0  0  0  0  0  0  0  0  0  0
  -29.6790  -24.3930   20.4210 C   0  0  0  0  0  2  0  0  0  0  0  0
  -28.6390  -25.4810   20.8050 C   0  0  0  0  0  2  0  0  0  0  0  0
  -28.6140  -26.5710   19.8740 O   0  0  0  0  0  0  0  0  0  0  0  0
  -24.8030  -31.6890   23.0590 C   0  0  0  0  0  0  0  0  0  0  0  0
  -27.4520  -27.3050   19.9140 C   0  0  0  0  0  0  0  0  0  0  0  0
  -23.5880  -30.2860   21.4220 C   0  0  0  0  0  3  0  0  0  0  0  0
  -25.0390  -28.7700   19.9730 C   0  0  0  0  0  0  0  0  0  0  0  0
  -26.1060  -30.6760   21.1920 C   0  0  0  0  0  2  0  0  0  0  0  0
  -26.2000  -29.3090   20.5440 C   0  0  0  0  0  0  0  0  0  0  0  0
  -27.4140  -28.5850   20.5100 C   0  0  0  0  0  3  0  0  0  0  0  0
  -26.2790  -26.7760   19.3370 C   0  0  0  0  0  3  0  0  0  0  0  0
  -25.0720  -27.5000   19.3710 C   0  0  0  0  0  3  0  0  0  0  0  0
  -23.7870  -29.6160   20.0380 C   0  0  0  0  0  2  0  0  0  0  0  0
  -24.8500  -30.8980   21.9490 N   0  0  0  0  0  0  0  0  0  0  0  0
  -23.7260  -31.9480   23.6140 O   0  0  0  0  0  0  0  0  0  0  0  0
  -22.9600  -29.2540   22.3850 C   0  0  0  0  0  0  0  0  0  0  0  0
  -21.6400  -29.0390   22.2550 N   0  0  0  0  0  0  0  0  0  0  0  0
  -23.6560  -28.6460   23.2030 O   0  0  0  0  0  0  0  0  0  0  0  0
  -21.1350  -29.5850   21.5700 H   0  0  0  0  0  0  0  0  0  0  0  0
  -18.2900  -27.7890   22.7660 C   0  0  0  0  0  0  0  0  0  0  0  0
  -20.8440  -28.0840   23.0260 C   0  0  0  0  0  3  0  0  0  0  0  0
  -20.9670  -26.6570   22.4410 C   0  0  0  0  0  2  0  0  0  0  0  0
  -19.8660  -26.3220   21.4310 C   0  0  0  0  0  2  0  0  0  0  0  0
  -18.4850  -26.4450   22.0840 C   0  0  0  0  0  2  0  0  0  0  0  0
  -19.3990  -28.5660   23.1950 C   0  0  0  0  0  0  0  0  0  0  0  0
  -19.1660  -29.8230   23.7920 C   0  0  0  0  0  3  0  0  0  0  0  0
  -17.8550  -30.3050   23.9630 C   0  0  0  0  0  3  0  0  0  0  0  0
  -16.7600  -29.5260   23.5530 C   0  0  0  0  0  3  0  0  0  0  0  0
  -16.9780  -28.2690   22.9600 C   0  0  0  0  0  3  0  0  0  0  0  0
  -26.0910  -32.3300   23.6650 C   0  0  0  0  0  3  0  0  0  0  0  0
  -25.7630  -33.7110   24.0470 N   0  0  0  0  0  0  0  0  0  0  0  0
  -26.0600  -34.7920   23.3130 C   0  0  0  0  0  0  0  0  0  0  0  0
  -26.7100  -34.7340   22.2660 O   0  0  0  0  0  0  0  0  0  0  0  0
  -25.1850  -33.8260   24.8660 H   0  0  0  0  0  0  0  0  0  0  0  0
  -24.2860  -36.5540   23.0480 C   0  0  0  0  0  1  0  0  0  0  0  0
  -25.5530  -36.1550   23.8220 C   0  0  0  0  0  3  0  0  0  0  0  0
  -27.6900  -37.0570   24.6290 C   0  0  0  0  0  1  0  0  0  0  0  0
  -26.5620  -37.2320   23.7180 N   0  0  0  0  0  0  0  0  0  0  0  0
  -26.1390  -38.1370   23.9040 H   0  0  0  0  0  0  0  0  0  0  0  0
  -26.6590  -31.5310   24.8990 C   0  0  1  0  0  0  0  0  0  0  0  0
  -25.5890  -31.1840   25.9590 C   0  0  0  0  0  1  0  0  0  0  0  0
  -27.3130  -30.2080   24.4340 C   0  0  0  0  0  1  0  0  0  0  0  0
  -27.7680  -32.3540   25.5950 C   0  0  0  0  0  1  0  0  0  0  0  0
  1  3  1  0
  2  4  1  0
  2  5  1  0
  4  6  1  0
  5 15  1  0
  5  1  1  0
  6 50  1  0
  6  3  1  0
  7 15  1  0
  8 13  1  0
  9 10  1  0
  9  8  1  0
 11 10  1  0
 11 19  1  0
 11 12  1  0
 13  7  1  0
 13 12  1  0
 14  7  2  0
 15 44  1  0
 16 17  2  0
 17 36  1  0
 18 17  1  0
 18 21  1  0
 19 20  1  0
 19 16  1  0
 20 18  2  0
 21 22  1  0
 22 23  2  0
 24 27  1  0
 24 23  1  0
 25 24  2  0
 26 25  1  0
 26 21  2  0
 27 28  1  0
 28 29  1  0
 29 30  2  0
 31 30  1  0
 31 35  1  0
 32 31  2  0
 33 28  2  0
 33 32  1  0
 34 33  1  0
 36 37  1  0
 37 39  1  0
 37 40  1  0
 38 36  2  0
 41 16  1  0
 41 42  1  0
 43 41  1  0
 44 45  1  0
 46 45  1  0
 46 49  1  0
 46 47  1  0
 48 46  1  0
 50 51  1  0
 51 52  1  0
 52 55  1  0
 52 53  1  0
 54 52  1  0
 55 56  1  0
 57 59  1  0
 57 56  1  0
 58 69  2  0
 59 64  1  0
 60 68  1  0
 60 70  1  0
 61 67  1  0
 61 63  1  0
 62 68  1  0
 63 62  1  0
 64 63  2  0
 65 66  1  0
 65 59  2  0
 66 61  2  0
 67 60  1  0
 68 58  1  0
 70 72  2  0
 71 70  1  0
 73 71  1  0
 74 83  2  0
 74 79  1  0
 75 71  1  0
 75 79  1  0
 76 75  1  0
 77 78  1  0
 77 76  1  0
 78 74  1  0
 79 80  2  0
 80 81  1  0
 82 81  2  0
 83 82  1  0
 84 58  1  0
 84 85  1  0
 84 94  1  0
 85 88  1  0
 86 90  1  0
 86 85  1  0
 87 86  2  0
 90 89  1  0
 92 90  1  0
 92 93  1  0
 92 91  1  0
 94 97  1  1
 94 95  1  0
 96 94  1  0
M  ISO  4   7 100  15 100  56 101  57 101
M  END
>  <TORSDO>  (6) 
F 24

>  <SCORE>  (6) 
-7.275

>  <name>  (6) 
5

>  <ligand_id>  (6) 
5

>  <original_smiles>  (6) 
[H]c1c([H])c([H])c2c(c1[H])C([H])([H])C([H])([H])C([H])([H])C2([H])N([H])C(=O)C1([H])N(C(=O)C([H])(N([H])C(=O)C([H])(N([H])C([H])([H])[H])C([H])([H])[H])C(C([H])([H])[H])(C([H])([H])[H])C([H])([H])[H])C([H])([H])c2c([H])c(OC([H])([H])C([H])([H])[N+]([H])([H])C([H])([H])C([H])([H])N3C([H])([H])C([H])([H])C([H])(N(C(=O)N4C([H])([H])C([H])([H])C([H])([H])C([H])(n5nc(-c6c([H])c([H])c(Oc7c([H])c([H])c(F)c([H])c7F)c([H])c6[H])c(C(=O)N([H])[H])c5N([H])[H])C4([H])[H])C([H])([H])C([H])([H])[N+]([H])([H])[H])C([H])([H])C3([H])[H])c([H])c([H])c2C1([H])[H]

>  <smiles>  (6) 
[H]c1c([H])c([H])c2c(c1[H])C([H])([H])C([H])([H])C([H])([H])C2([H])N([H])C(=O)C1([H])N(C(=O)C([H])(N([H])C(=O)C([H])(N([H])C([H])([H])[H])C([H])([H])[H])C(C([H])([H])[H])(C([H])([H])[H])C([H])([H])[H])C([H])([H])c2c([H])c(OC([H])([H])C([H])([H])[N+]([H])([H])C([H])([H])C([H])([H])N3C([H])([H])C([H])([H])C([H])(N(C(=O)N4C([H])([H])C([H])([H])C([H])([H])C([H])(n5nc(-c6c([H])c([H])c(Oc7c([H])c([H])c(F)c([H])c7F)c([H])c6[H])c(C(=O)N([H])[H])c5N([H])[H])C4([H])[H])C([H])([H])C([H])([H])[N+]([H])([H])[H])C([H])([H])C3([H])[H])c([H])c([H])c2C1([H])[H]

$$$$
6:0:0
     RDKit          3D

100109  0  0  1  0  0  0  0  0999 V2000
  -31.4320  -24.4750   21.2020 C   0  0  0  0  0  2  0  0  0  0  0  0
  -30.6890  -25.5040   20.3320 C   0  0  0  0  0  2  0  0  0  0  0  0
  -33.0920  -23.4510   19.3980 C   0  0  0  0  0  2  0  0  0  0  0  0
  -30.0930  -23.6290   18.7340 C   0  0  0  0  0  2  0  0  0  0  0  0
  -32.9430  -22.2480   18.4260 C   0  0  0  0  0  2  0  0  0  0  0  0
  -31.9670  -23.2560   20.4290 C   0  0  0  0  0  3  0  0  0  0  0  0
  -30.9100  -22.5140   19.6080 C   0  0  0  0  0  3  0  0  0  0  0  0
  -29.5100  -24.9240   19.5160 C   0  0  0  0  0  3  0  0  0  0  0  0
  -31.7760  -21.4510   18.8980 N   0  0  2  0  0  4  0  0  0  0  0  0
  -31.2610  -21.0770   18.1160 H   0  0  0  0  0  0  0  0  0  0  0  0
  -29.0290  -26.1690   18.8360 O   0  0  0  0  0  0  0  0  0  0  0  0
  -25.5690  -30.4400   23.6280 C   0  0  0  0  0  0  0  0  0  0  0  0
  -27.9240  -26.9460   19.2330 C   0  0  0  0  0  0  0  0  0  0  0  0
  -24.2990  -29.7480   21.6230 C   0  0  0  0  0  3  0  0  0  0  0  0
  -25.6670  -28.6380   19.7630 C   0  0  0  0  0  0  0  0  0  0  0  0
  -26.8590  -29.9200   21.5430 C   0  0  0  0  0  2  0  0  0  0  0  0
  -26.8560  -28.8240   20.4820 C   0  0  0  0  0  0  0  0  0  0  0  0
  -27.9880  -27.9950   20.2070 C   0  0  0  0  0  3  0  0  0  0  0  0
  -26.7160  -26.8150   18.5170 C   0  0  0  0  0  3  0  0  0  0  0  0
  -25.6010  -27.6410   18.7750 C   0  0  0  0  0  3  0  0  0  0  0  0
  -24.4940  -29.5410   20.0980 C   0  0  0  0  0  2  0  0  0  0  0  0
  -25.5930  -30.0370   22.3230 N   0  0  0  0  0  0  0  0  0  0  0  0
  -24.4980  -30.6050   24.2330 O   0  0  0  0  0  0  0  0  0  0  0  0
  -23.5510  -28.5230   22.2010 C   0  0  0  0  0  0  0  0  0  0  0  0
  -22.2220  -28.4890   22.0180 N   0  0  0  0  0  0  0  0  0  0  0  0
  -24.1690  -27.6240   22.7750 O   0  0  0  0  0  0  0  0  0  0  0  0
  -21.7900  -29.2720   21.5470 H   0  0  0  0  0  0  0  0  0  0  0  0
  -18.7790  -27.3740   21.9830 C   0  0  0  0  0  0  0  0  0  0  0  0
  -21.3270  -27.4090   22.4300 C   0  0  0  0  0  3  0  0  0  0  0  0
  -21.4070  -26.2120   21.4540 C   0  0  0  0  0  2  0  0  0  0  0  0
  -20.3530  -26.2660   20.3430 C   0  0  0  0  0  2  0  0  0  0  0  0
  -18.9440  -26.2810   20.9420 C   0  0  0  0  0  2  0  0  0  0  0  0
  -19.8990  -27.9150   22.6700 C   0  0  0  0  0  0  0  0  0  0  0  0
  -19.6940  -28.9540   23.6050 C   0  0  0  0  0  3  0  0  0  0  0  0
  -18.4010  -29.4460   23.8640 C   0  0  0  0  0  3  0  0  0  0  0  0
  -17.2940  -28.8970   23.1930 C   0  0  0  0  0  3  0  0  0  0  0  0
  -17.4840  -27.8630   22.2590 C   0  0  0  0  0  3  0  0  0  0  0  0
  -26.8830  -30.7350   24.4150 C   0  0  0  0  0  3  0  0  0  0  0  0
  -27.3790  -29.5120   25.2800 C   0  0  1  0  0  0  0  0  0  0  0  0
  -26.2950  -28.9370   26.2200 C   0  0  0  0  0  1  0  0  0  0  0  0
  -27.8790  -28.3650   24.3710 C   0  0  0  0  0  1  0  0  0  0  0  0
  -28.5800  -29.9450   26.1550 C   0  0  0  0  0  1  0  0  0  0  0  0
  -26.6350  -31.9020   25.2740 N   0  0  0  0  0  0  0  0  0  0  0  0
  -27.1710  -33.1160   25.0870 C   0  0  0  0  0  0  0  0  0  0  0  0
  -27.9920  -33.3550   24.1980 O   0  0  0  0  0  0  0  0  0  0  0  0
  -25.9340  -31.7960   25.9900 H   0  0  0  0  0  0  0  0  0  0  0  0
  -25.7000  -35.1410   25.3270 C   0  0  0  0  0  1  0  0  0  0  0  0
  -26.7220  -34.2420   26.0370 C   0  0  0  0  0  3  0  0  0  0  0  0
  -28.7220  -34.3470   27.4570 C   0  0  0  0  0  1  0  0  0  0  0  0
  -27.8420  -35.0660   26.5420 N   0  0  0  0  0  0  0  0  0  0  0  0
  -27.4900  -35.8900   27.0230 H   0  0  0  0  0  0  0  0  0  0  0  0
  -32.2760  -20.2640   19.7610 C   0  0  0  0  0  2  0  0  0  0  0  0
  -31.4620  -18.8620   19.9680 C   0  0  0  0  0  3  0  0  0  0  0  0
  -31.2960  -18.5710   21.4950 C   0  0  0  0  0  2  0  0  0  0  0  0
  -30.5710  -19.5750   22.4250 C   0  0  0  0  0  2  0  0  0  0  0  0
  -31.2770  -19.5860   23.8070 C   0  0  0  0  0  2  0  0  0  0  0  0
  -30.6030  -20.4210   24.9170 C   0  0  0  0  0  2  0  0  0  0  0  0
  -30.2410  -21.7780   24.4720 N   0  0  0  0  0  4  0  0  0  0  0  0
  -31.0450  -22.2690   24.1220 H   0  0  0  0  0  0  0  0  0  0  0  0
  -29.8780  -22.3030   25.2480 H   0  0  0  0  0  0  0  0  0  0  0  0
  -29.5360  -21.7520   23.7590 H   0  0  0  0  0  0  0  0  0  0  0  0
  -32.1230  -17.5050   19.3670 C   0  0  0  0  0  2  0  0  0  0  0  0
  -32.4160  -14.9740   20.0030 C   0  0  0  0  0  0  0  0  0  0  0  0
  -32.1870  -12.5100   19.6990 C   0  0  0  0  0  2  0  0  0  0  0  0
  -31.3440  -12.2300   18.4360 C   0  0  0  0  0  2  0  0  0  0  0  0
  -29.8370  -12.2480   18.7610 C   0  0  0  0  0  2  0  0  0  0  0  0
  -29.4230  -13.4700   19.6250 C   0  0  0  0  0  3  0  0  0  0  0  0
  -30.3850  -13.6740   20.8150 C   0  0  0  0  0  2  0  0  0  0  0  0
  -31.7390  -13.8040   20.2610 N   0  0  0  0  0  0  0  0  0  0  0  0
  -33.6100  -14.9520   19.6960 O   0  0  0  0  0  0  0  0  0  0  0  0
  -31.6840  -16.1410   19.9000 N   0  0  0  0  0  0  0  0  0  0  0  0
  -30.7130  -16.0610   20.1610 H   0  0  0  0  0  0  0  0  0  0  0  0
  -27.0900  -14.3920   20.1700 C   0  0  0  0  0  0  0  0  0  0  0  0
  -25.9240  -13.7800   20.5420 C   0  0  0  0  0  0  0  0  0  0  0  0
  -26.2240  -12.3850   20.6330 C   0  0  0  0  0  0  0  0  0  0  0  0
  -28.0300  -13.3820   20.0550 N   0  0  0  0  0  0  0  0  0  0  0  0
  -27.5120  -12.1740   20.3970 N   0  0  0  0  0  0  0  0  0  0  0  0
  -25.3450  -11.2340   20.8790 C   0  0  0  0  0  0  0  0  0  0  0  0
  -25.4930  -10.4200   22.0230 C   0  0  0  0  0  3  0  0  0  0  0  0
  -24.6230   -9.3290   22.2440 C   0  0  0  0  0  3  0  0  0  0  0  0
  -23.5900   -9.0460   21.3200 C   0  0  0  0  0  0  0  0  0  0  0  0
  -23.4630   -9.8450   20.1690 C   0  0  0  0  0  3  0  0  0  0  0  0
  -24.3320  -10.9260   19.9480 C   0  0  0  0  0  3  0  0  0  0  0  0
  -22.7140   -7.9940   21.4400 O   0  0  0  0  0  0  0  0  0  0  0  0
  -22.2040   -7.6170   22.6560 C   0  0  0  0  0  0  0  0  0  0  0  0
  -21.4480   -8.5030   23.4530 C   0  0  0  0  0  3  0  0  0  0  0  0
  -20.8840   -8.0550   24.6630 C   0  0  0  0  0  3  0  0  0  0  0  0
  -21.0650   -6.7210   25.0750 C   0  0  0  0  0  0  0  0  0  0  0  0
  -21.8130   -5.8350   24.2780 C   0  0  0  0  0  3  0  0  0  0  0  0
  -22.3790   -6.2820   23.0710 C   0  0  0  0  0  0  0  0  0  0  0  0
  -23.0810   -5.4180   22.2980 F   0  0  0  0  0  0  0  0  0  0  0  0
  -20.5170   -6.2870   26.2330 F   0  0  0  0  0  0  0  0  0  0  0  0
  -24.5810  -14.4340   20.7000 C   0  0  0  0  0  0  0  0  0  0  0  0
  -23.7650  -13.9470   21.6280 N   0  0  0  0  0  0  0  0  0  0  0  0
  -24.2680  -15.4170   20.0290 O   0  0  0  0  0  0  0  0  0  0  0  0
  -24.0290  -13.1540   22.1940 H   0  0  0  0  0  0  0  0  0  0  0  0
  -22.8630  -14.3770   21.7740 H   0  0  0  0  0  0  0  0  0  0  0  0
  -27.4220  -15.7160   19.8990 N   0  0  0  0  0  0  0  0  0  0  0  0
  -26.7340  -16.4610   19.9280 H   0  0  0  0  0  0  0  0  0  0  0  0
  -28.3120  -16.0170   19.5240 H   0  0  0  0  0  0  0  0  0  0  0  0
  2  1  1  0
  4  8  1  0
  5  9  1  0
  5  3  1  0
  6  3  1  0
  6  1  1  0
  7  4  1  0
  7  6  1  0
  8 11  1  0
  8  2  1  0
  9  7  1  0
  9 52  1  0
  9 10  1  6
 11 13  1  0
 12 23  2  0
 13 18  1  0
 14 24  1  0
 14 22  1  0
 15 21  1  0
 15 17  1  0
 16 22  1  0
 17 16  1  0
 18 17  2  0
 19 20  1  0
 19 13  2  0
 20 15  2  0
 21 14  1  0
 22 12  1  0
 24 26  2  0
 25 24  1  0
 27 25  1  0
 28 37  2  0
 28 33  1  0
 29 25  1  0
 29 33  1  0
 30 29  1  0
 31 32  1  0
 31 30  1  0
 32 28  1  0
 33 34  2  0
 34 35  1  0
 36 35  2  0
 37 36  1  0
 38 12  1  0
 38 43  1  0
 38 39  1  0
 39 42  1  1
 39 40  1  0
 41 39  1  0
 43 46  1  0
 44 43  1  0
 44 48  1  0
 45 44  2  0
 48 47  1  0
 48 50  1  0
 50 51  1  0
 50 49  1  0
 52 53  1  0
 53 62  1  0
 53 54  1  0
 54 55  1  0
 55 56  1  0
 56 57  1  0
 58 57  1  0
 58 60  1  0
 59 58  1  0
 61 58  1  0
 62 71  1  0
 63 69  1  0
 64 69  1  0
 65 66  1  0
 65 64  1  0
 67 66  1  0
 67 76  1  0
 67 68  1  0
 69 68  1  0
 70 63  2  0
 71 63  1  0
 71 72  1  0
 73 74  2  0
 74 75  1  0
 74 93  1  0
 75 78  1  0
 76 73  1  0
 76 77  1  0
 77 75  2  0
 78 79  1  0
 79 80  2  0
 81 84  1  0
 81 80  1  0
 82 81  2  0
 83 82  1  0
 83 78  2  0
 84 85  1  0
 85 90  2  0
 85 86  1  0
 86 87  2  0
 87 88  1  0
 88 92  1  0
 89 88  2  0
 90 89  1  0
 91 90  1  0
 93 94  1  0
 94 97  1  0
 94 96  1  0
 95 93  2  0
 98 99  1  0
 98 73  1  0
100 98  1  0
M  ISO  4   8 101  11 101  63 100  71 100
M  END
>  <TORSDO>  (7) 
F 24

>  <SCORE>  (7) 
-6.472

>  <name>  (7) 
6

>  <ligand_id>  (7) 
6

>  <original_smiles>  (7) 
[H]c1c([H])c([H])c2c(c1[H])C([H])([H])C([H])([H])C([H])([H])C2([H])N([H])C(=O)C1([H])N(C(=O)C([H])(N([H])C(=O)C([H])(N([H])C([H])([H])[H])C([H])([H])[H])C(C([H])([H])[H])(C([H])([H])[H])C([H])([H])[H])C([H])([H])c2c([H])c(OC3([H])C([H])([H])C([H])([H])C4([H])C([H])([H])C([H])([H])[N+]([H])(C([H])([H])C([H])(C([H])([H])N([H])C(=O)N5C([H])([H])C([H])([H])C([H])([H])C([H])(n6nc(-c7c([H])c([H])c(Oc8c([H])c([H])c(F)c([H])c8F)c([H])c7[H])c(C(=O)N([H])[H])c6N([H])[H])C5([H])[H])C([H])([H])C([H])([H])C([H])([H])C([H])([H])[N+]([H])([H])[H])C4([H])C3([H])[H])c([H])c([H])c2C1([H])[H]

>  <smiles>  (7) 
[H]c1c([H])c([H])c2c(c1[H])C([H])([H])C([H])([H])C([H])([H])C2([H])N([H])C(=O)C1([H])N(C(=O)C([H])(N([H])C(=O)C([H])(N([H])C([H])([H])[H])C([H])([H])[H])C(C([H])([H])[H])(C([H])([H])[H])C([H])([H])[H])C([H])([H])c2c([H])c(OC3([H])C([H])([H])C([H])([H])C4([H])C([H])([H])C([H])([H])[N+]([H])(C([H])([H])C([H])(C([H])([H])N([H])C(=O)N5C([H])([H])C([H])([H])C([H])([H])C([H])(n6nc(-c7c([H])c([H])c(Oc8c([H])c([H])c(F)c([H])c8F)c([H])c7[H])c(C(=O)N([H])[H])c6N([H])[H])C5([H])[H])C([H])([H])C([H])([H])C([H])([H])C([H])([H])[N+]([H])([H])[H])C4([H])C3([H])[H])c([H])c([H])c2C1([H])[H]

$$$$
7:0:0
     RDKit          3D

 95104  0  0  1  0  0  0  0  0999 V2000
  -29.1260  -23.3060   19.7360 C   0  0  0  0  0  3  0  0  0  0  0  0
  -32.0850  -25.2360   18.1520 C   0  0  0  0  0  2  0  0  0  0  0  0
  -32.5070  -25.2430   19.6310 C   0  0  0  0  0  2  0  0  0  0  0  0
  -30.6870  -24.6110   18.1120 C   0  0  0  0  0  2  0  0  0  0  0  0
  -31.3560  -24.6000   20.4230 C   0  0  0  0  0  2  0  0  0  0  0  0
  -30.5860  -23.7620   19.3900 C   0  0  0  0  0  3  0  0  0  0  0  0
  -29.5160  -20.6310   19.7370 C   0  0  0  0  0  0  0  0  0  0  0  0
  -30.0510  -20.6570   18.3140 C   0  0  0  0  0  1  0  0  0  0  0  0
  -29.1250  -21.8070   20.3310 N   0  0  0  0  0  0  0  0  0  0  0  0
  -30.7230  -14.9980   19.5930 C   0  0  0  0  0  0  0  0  0  0  0  0
  -30.3920  -12.7120   18.5150 C   0  0  0  0  0  2  0  0  0  0  0  0
  -29.3020  -12.7510   17.4220 C   0  0  0  0  0  2  0  0  0  0  0  0
  -27.9200  -12.4950   18.0430 C   0  0  0  0  0  2  0  0  0  0  0  0
  -27.6920  -13.3440   19.3180 C   0  0  0  0  0  3  0  0  0  0  0  0
  -28.8920  -13.3080   20.2890 C   0  0  0  0  0  2  0  0  0  0  0  0
  -30.0730  -13.7590   19.5390 N   0  0  0  0  0  0  0  0  0  0  0  0
  -31.8100  -15.0600   19.0050 O   0  0  0  0  0  0  0  0  0  0  0  0
  -30.3220  -16.3690   21.5760 C   0  0  0  0  0  2  0  0  0  0  0  0
  -30.1280  -17.6660   19.4940 C   0  0  0  0  0  2  0  0  0  0  0  0
  -29.5160  -17.5220   22.2530 C   0  0  0  0  0  2  0  0  0  0  0  0
  -29.4560  -19.0120   20.2710 C   0  0  0  0  0  3  0  0  0  0  0  0
  -30.1280  -16.2040   20.1180 N   0  0  0  0  0  0  0  0  0  0  0  0
  -29.7850  -18.8810   21.7060 N   0  0  0  0  0  4  0  0  0  0  0  0
  -30.7520  -19.1160   21.8490 H   0  0  0  0  0  0  0  0  0  0  0  0
  -29.2440  -19.5530   22.2240 H   0  0  0  0  0  0  0  0  0  0  0  0
  -25.4600  -13.8850   20.4430 C   0  0  0  0  0  0  0  0  0  0  0  0
  -24.4350  -13.0950   20.8860 C   0  0  0  0  0  0  0  0  0  0  0  0
  -24.8490  -11.7470   20.6640 C   0  0  0  0  0  0  0  0  0  0  0  0
  -26.4300  -13.0160   19.9750 N   0  0  0  0  0  0  0  0  0  0  0  0
  -26.0820  -11.7180   20.1720 N   0  0  0  0  0  0  0  0  0  0  0  0
  -24.1200  -10.4840   20.8450 C   0  0  0  0  0  0  0  0  0  0  0  0
  -24.6290   -9.4450   21.6550 C   0  0  0  0  0  3  0  0  0  0  0  0
  -23.8970   -8.2520   21.8340 C   0  0  0  0  0  3  0  0  0  0  0  0
  -22.6400   -8.0880   21.2040 C   0  0  0  0  0  0  0  0  0  0  0  0
  -22.1460   -9.1160   20.3810 C   0  0  0  0  0  3  0  0  0  0  0  0
  -22.8790  -10.3010   20.2010 C   0  0  0  0  0  3  0  0  0  0  0  0
  -21.8740   -6.9500   21.2970 O   0  0  0  0  0  0  0  0  0  0  0  0
  -21.9120   -6.1450   22.4070 C   0  0  0  0  0  0  0  0  0  0  0  0
  -21.6200   -6.6400   23.6960 C   0  0  0  0  0  3  0  0  0  0  0  0
  -21.6020   -5.7640   24.7990 C   0  0  0  0  0  3  0  0  0  0  0  0
  -21.8630   -4.3930   24.6150 C   0  0  0  0  0  0  0  0  0  0  0  0
  -22.1470   -3.8960   23.3320 C   0  0  0  0  0  3  0  0  0  0  0  0
  -22.1670   -4.7700   22.2290 C   0  0  0  0  0  0  0  0  0  0  0  0
  -22.4210   -4.2830   20.9900 F   0  0  0  0  0  0  0  0  0  0  0  0
  -21.8380   -3.5490   25.6740 F   0  0  0  0  0  0  0  0  0  0  0  0
  -23.1090  -13.5710   21.3980 C   0  0  0  0  0  0  0  0  0  0  0  0
  -22.5020  -12.8200   22.3100 N   0  0  0  0  0  0  0  0  0  0  0  0
  -22.6270  -14.6380   21.0260 O   0  0  0  0  0  0  0  0  0  0  0  0
  -22.9100  -11.9520   22.6280 H   0  0  0  0  0  0  0  0  0  0  0  0
  -21.6160  -13.1200   22.6930 H   0  0  0  0  0  0  0  0  0  0  0  0
  -25.6380  -15.2640   20.3830 N   0  0  0  0  0  0  0  0  0  0  0  0
  -24.9270  -15.9080   20.7130 H   0  0  0  0  0  0  0  0  0  0  0  0
  -26.4610  -15.7330   20.0250 H   0  0  0  0  0  0  0  0  0  0  0  0
  -28.2490  -24.5950   20.4360 C   0  0  0  0  0  2  0  0  0  0  0  0
  -28.4380  -26.1430   20.2480 O   0  0  0  0  0  0  0  0  0  0  0  0
  -24.6230  -31.7920   23.1690 C   0  0  0  0  0  0  0  0  0  0  0  0
  -27.3490  -27.0940   20.2200 C   0  0  0  0  0  0  0  0  0  0  0  0
  -23.4880  -30.3740   21.5030 C   0  0  0  0  0  3  0  0  0  0  0  0
  -24.9960  -28.8110   20.1260 C   0  0  0  0  0  0  0  0  0  0  0  0
  -26.0420  -30.6730   21.4050 C   0  0  0  0  0  2  0  0  0  0  0  0
  -26.1530  -29.2760   20.7620 C   0  0  0  0  0  0  0  0  0  0  0  0
  -27.3350  -28.4340   20.7860 C   0  0  0  0  0  3  0  0  0  0  0  0
  -26.1650  -26.7320   19.5450 C   0  0  0  0  0  3  0  0  0  0  0  0
  -25.0160  -27.5560   19.4980 C   0  0  0  0  0  3  0  0  0  0  0  0
  -23.7550  -29.6930   20.1340 C   0  0  0  0  0  2  0  0  0  0  0  0
  -24.7370  -30.9660   22.0830 N   0  0  0  0  0  0  0  0  0  0  0  0
  -23.5180  -32.0640   23.6630 O   0  0  0  0  0  0  0  0  0  0  0  0
  -22.7970  -29.3600   22.4490 C   0  0  0  0  0  0  0  0  0  0  0  0
  -21.4740  -29.1810   22.2920 N   0  0  0  0  0  0  0  0  0  0  0  0
  -23.4530  -28.7390   23.2890 O   0  0  0  0  0  0  0  0  0  0  0  0
  -21.0020  -29.7320   21.5890 H   0  0  0  0  0  0  0  0  0  0  0  0
  -18.0920  -27.9440   22.7050 C   0  0  0  0  0  0  0  0  0  0  0  0
  -20.6400  -28.2390   23.0450 C   0  0  0  0  0  3  0  0  0  0  0  0
  -20.7770  -26.8060   22.4780 C   0  0  0  0  0  2  0  0  0  0  0  0
  -19.7060  -26.4670   21.4350 C   0  0  0  0  0  2  0  0  0  0  0  0
  -18.3040  -26.5970   22.0360 C   0  0  0  0  0  2  0  0  0  0  0  0
  -19.1890  -28.7200   23.1620 C   0  0  0  0  0  0  0  0  0  0  0  0
  -18.9350  -29.9820   23.7450 C   0  0  0  0  0  3  0  0  0  0  0  0
  -17.6190  -30.4650   23.8760 C   0  0  0  0  0  3  0  0  0  0  0  0
  -16.5380  -29.6850   23.4350 C   0  0  0  0  0  3  0  0  0  0  0  0
  -16.7750  -28.4260   22.8540 C   0  0  0  0  0  3  0  0  0  0  0  0
  -25.8750  -32.4450   23.8320 C   0  0  0  0  0  3  0  0  0  0  0  0
  -26.3640  -31.6810   25.1230 C   0  0  1  0  0  0  0  0  0  0  0  0
  -25.2400  -31.4120   26.1540 C   0  0  0  0  0  1  0  0  0  0  0  0
  -26.9880  -30.3170   24.7480 C   0  0  0  0  0  1  0  0  0  0  0  0
  -27.4820  -32.4940   25.8160 C   0  0  0  0  0  1  0  0  0  0  0  0
  -25.5290  -33.8360   24.1620 N   0  0  0  0  0  0  0  0  0  0  0  0
  -25.8640  -34.9000   23.4190 C   0  0  0  0  0  0  0  0  0  0  0  0
  -26.5600  -34.8140   22.4040 O   0  0  0  0  0  0  0  0  0  0  0  0
  -24.9150  -33.9740   24.9490 H   0  0  0  0  0  0  0  0  0  0  0  0
  -24.1080  -36.6670   23.0490 C   0  0  0  0  0  1  0  0  0  0  0  0
  -25.3460  -36.2810   23.8750 C   0  0  0  0  0  3  0  0  0  0  0  0
  -27.4510  -37.1950   24.7440 C   0  0  0  0  0  1  0  0  0  0  0  0
  -26.3620  -37.3530   23.7840 N   0  0  0  0  0  0  0  0  0  0  0  0
  -25.9380  -38.2650   23.9380 H   0  0  0  0  0  0  0  0  0  0  0  0
  1  9  1  0
  1 54  1  0
  2  3  1  0
  3  5  1  0
  4  2  1  0
  4  6  1  0
  6  1  1  0
  6  5  1  0
  7  9  2  0
  8  7  1  0
 10 22  1  0
 11 16  1  0
 12 13  1  0
 12 11  1  0
 14 13  1  0
 14 29  1  0
 14 15  1  0
 16 10  1  0
 16 15  1  0
 17 10  2  0
 18 20  1  0
 19 22  1  0
 19 21  1  0
 21  7  1  0
 21 23  1  0
 22 18  1  0
 23 24  1  0
 23 25  1  0
 23 20  1  0
 26 27  2  0
 27 46  1  0
 28 31  1  0
 28 27  1  0
 29 30  1  0
 29 26  1  0
 30 28  2  0
 31 32  1  0
 32 33  2  0
 34 37  1  0
 34 33  1  0
 35 34  2  0
 36 35  1  0
 36 31  2  0
 37 38  1  0
 38 39  1  0
 39 40  2  0
 41 40  1  0
 41 45  1  0
 42 41  2  0
 43 38  2  0
 43 42  1  0
 44 43  1  0
 46 47  1  0
 47 49  1  0
 47 50  1  0
 48 46  2  0
 51 26  1  0
 51 52  1  0
 53 51  1  0
 55 54  1  0
 56 67  2  0
 57 55  1  0
 57 62  1  0
 58 66  1  0
 58 68  1  0
 59 65  1  0
 59 61  1  0
 60 66  1  0
 61 62  2  0
 61 60  1  0
 63 57  2  0
 64 63  1  0
 64 59  2  0
 65 58  1  0
 66 56  1  0
 68 70  2  0
 69 68  1  0
 71 69  1  0
 72 81  2  0
 72 77  1  0
 73 69  1  0
 73 77  1  0
 74 73  1  0
 75 76  1  0
 75 74  1  0
 76 72  1  0
 77 78  2  0
 78 79  1  0
 80 79  2  0
 81 80  1  0
 82 56  1  0
 82 87  1  0
 82 83  1  0
 83 86  1  1
 83 84  1  0
 85 83  1  0
 87 90  1  0
 88 92  1  0
 88 87  1  0
 89 88  2  0
 92 91  1  0
 94 92  1  0
 94 95  1  0
 94 93  1  0
M  ISO  4  10 100  22 100  54 101  55 101
M  END
>  <TORSDO>  (8) 
F 19

>  <SCORE>  (8) 
-13.042

>  <name>  (8) 
7

>  <ligand_id>  (8) 
7

>  <original_smiles>  (8) 
[H]c1c([H])c([H])c2c(c1[H])C([H])([H])C([H])([H])C([H])([H])C2([H])N([H])C(=O)C1([H])N(C(=O)C([H])(N([H])C(=O)C([H])(N([H])C([H])([H])[H])C([H])([H])[H])C(C([H])([H])[H])(C([H])([H])[H])C([H])([H])[H])C([H])([H])c2c([H])c(OC([H])([H])C([H])(N=C(C([H])([H])[H])C3([H])C([H])([H])N(C(=O)N4C([H])([H])C([H])([H])C([H])([H])C([H])(n5nc(-c6c([H])c([H])c(Oc7c([H])c([H])c(F)c([H])c7F)c([H])c6[H])c(C(=O)N([H])[H])c5N([H])[H])C4([H])[H])C([H])([H])C([H])([H])[N+]3([H])[H])C3([H])C([H])([H])C([H])([H])C([H])([H])C3([H])[H])c([H])c([H])c2C1([H])[H]

>  <smiles>  (8) 
[H]c1c([H])c([H])c2c(c1[H])C([H])([H])C([H])([H])C([H])([H])C2([H])N([H])C(=O)C1([H])N(C(=O)C([H])(N([H])C(=O)C([H])(N([H])C([H])([H])[H])C([H])([H])[H])C(C([H])([H])[H])(C([H])([H])[H])C([H])([H])[H])C([H])([H])c2c([H])c(OC([H])([H])C([H])(N=C(C([H])([H])[H])C3([H])C([H])([H])N(C(=O)N4C([H])([H])C([H])([H])C([H])([H])C([H])(n5nc(-c6c([H])c([H])c(Oc7c([H])c([H])c(F)c([H])c7F)c([H])c6[H])c(C(=O)N([H])[H])c5N([H])[H])C4([H])[H])C([H])([H])C([H])([H])[N+]3([H])[H])C3([H])C([H])([H])C([H])([H])C([H])([H])C3([H])[H])c([H])c([H])c2C1([H])[H]

$$$$
8:0:0
     RDKit          3D

104115  0  0  1  0  0  0  0  0999 V2000
  -30.5310  -18.0850   21.8360 C   0  0  0  0  0  3  0  0  0  0  0  0
  -26.7110  -24.9390   22.3780 C   0  0  0  0  0  2  0  0  0  0  0  0
  -28.0900  -25.1710   23.0250 C   0  0  0  0  0  2  0  0  0  0  0  0
  -32.4510  -21.1980   21.7820 C   0  0  0  0  0  2  0  0  0  0  0  0
  -31.9390  -20.5790   23.0970 C   0  0  0  0  0  2  0  0  0  0  0  0
  -29.4060  -17.8230   19.6200 C   0  0  0  0  0  2  0  0  0  0  0  0
  -26.7010  -23.6720   21.5150 C   0  0  0  0  0  2  0  0  0  0  0  0
  -31.7310  -22.4890   21.3710 C   0  0  0  0  0  2  0  0  0  0  0  0
  -29.6270  -19.3500   19.4580 C   0  0  0  0  0  2  0  0  0  0  0  0
  -29.2600  -24.5970   22.1940 C   0  0  0  0  0  2  0  0  0  0  0  0
  -30.2160  -23.8990   19.9100 C   0  0  0  0  0  2  0  0  0  0  0  0
  -30.4470  -20.2020   23.0910 C   0  0  0  0  0  2  0  0  0  0  0  0
  -28.1350  -22.1680   20.0300 C   0  0  0  0  0  2  0  0  0  0  0  0
  -30.4100  -17.1890   20.6060 C   0  0  0  0  0  3  0  0  0  0  0  0
  -27.7700  -23.6620   20.3850 C   0  0  0  0  0  3  0  0  0  0  0  0
  -30.5710  -22.4110   20.3280 C   0  0  0  0  0  3  0  0  0  0  0  0
  -29.3630  -20.0870   20.7840 C   0  0  0  0  0  3  0  0  0  0  0  0
  -29.0200  -24.5790   20.6530 C   0  0  1  0  0  0  0  0  0  0  0  0
  -30.1300  -19.4100   21.8870 N   0  0  0  0  0  0  0  0  0  0  0  0
  -31.1040  -17.4830   22.9010 N   0  0  0  0  0  0  0  0  0  0  0  0
  -29.3410  -21.6270   20.7480 N   0  0  2  0  0  4  0  0  0  0  0  0
  -31.4210  -16.5260   22.8280 H   0  0  0  0  0  0  0  0  0  0  0  0
  -31.2440  -17.9450   23.7870 H   0  0  0  0  0  0  0  0  0  0  0  0
  -29.1700  -21.8910   21.7060 H   0  0  0  0  0  0  0  0  0  0  0  0
  -30.8490  -14.6600   20.5930 C   0  0  0  0  0  0  0  0  0  0  0  0
  -30.6510  -12.3530   19.7040 C   0  0  0  0  0  2  0  0  0  0  0  0
  -29.7750  -12.3780   18.4330 C   0  0  0  0  0  2  0  0  0  0  0  0
  -28.2830  -12.2550   18.8010 C   0  0  0  0  0  2  0  0  0  0  0  0
  -27.8650  -13.2260   19.9370 C   0  0  0  0  0  3  0  0  0  0  0  0
  -28.8630  -13.1750   21.1160 C   0  0  0  0  0  2  0  0  0  0  0  0
  -30.2060  -13.4530   20.5830 N   0  0  0  0  0  0  0  0  0  0  0  0
  -32.0010  -14.7800   20.1740 O   0  0  0  0  0  0  0  0  0  0  0  0
  -30.1060  -15.7540   20.9210 N   0  0  0  0  0  0  0  0  0  0  0  0
  -29.1880  -15.5670   21.2920 H   0  0  0  0  0  0  0  0  0  0  0  0
  -25.4660  -13.8900   20.5790 C   0  0  0  0  0  0  0  0  0  0  0  0
  -24.3680  -13.1450   20.9120 C   0  0  0  0  0  0  0  0  0  0  0  0
  -24.7930  -11.7810   20.8850 C   0  0  0  0  0  0  0  0  0  0  0  0
  -26.4930  -12.9820   20.3730 N   0  0  0  0  0  0  0  0  0  0  0  0
  -26.0900  -11.7090   20.6160 N   0  0  0  0  0  0  0  0  0  0  0  0
  -24.0260  -10.5380   21.0430 C   0  0  0  0  0  0  0  0  0  0  0  0
  -24.4350   -9.5280   21.9410 C   0  0  0  0  0  3  0  0  0  0  0  0
  -23.6710   -8.3510   22.0910 C   0  0  0  0  0  3  0  0  0  0  0  0
  -22.4840   -8.1760   21.3410 C   0  0  0  0  0  0  0  0  0  0  0  0
  -22.0930   -9.1750   20.4300 C   0  0  0  0  0  3  0  0  0  0  0  0
  -22.8570  -10.3440   20.2800 C   0  0  0  0  0  3  0  0  0  0  0  0
  -21.6920   -7.0540   21.4000 O   0  0  0  0  0  0  0  0  0  0  0  0
  -21.6840   -6.2360   22.5020 C   0  0  0  0  0  0  0  0  0  0  0  0
  -21.3430   -6.7180   23.7840 C   0  0  0  0  0  3  0  0  0  0  0  0
  -21.2810   -5.8290   24.8770 C   0  0  0  0  0  3  0  0  0  0  0  0
  -21.5490   -4.4610   24.6870 C   0  0  0  0  0  0  0  0  0  0  0  0
  -21.8820   -3.9790   23.4090 C   0  0  0  0  0  3  0  0  0  0  0  0
  -21.9470   -4.8640   22.3200 C   0  0  0  0  0  0  0  0  0  0  0  0
  -22.2490   -4.3900   21.0870 F   0  0  0  0  0  0  0  0  0  0  0  0
  -21.4800   -3.6060   25.7340 F   0  0  0  0  0  0  0  0  0  0  0  0
  -22.9770  -13.6580   21.1470 C   0  0  0  0  0  0  0  0  0  0  0  0
  -22.2080  -12.9790   21.9890 N   0  0  0  0  0  0  0  0  0  0  0  0
  -22.5820  -14.6980   20.6190 O   0  0  0  0  0  0  0  0  0  0  0  0
  -22.5420  -12.1390   22.4370 H   0  0  0  0  0  0  0  0  0  0  0  0
  -21.2720  -13.3020   22.1910 H   0  0  0  0  0  0  0  0  0  0  0  0
  -25.6750  -15.2570   20.4140 N   0  0  0  0  0  0  0  0  0  0  0  0
  -24.9180  -15.9270   20.4920 H   0  0  0  0  0  0  0  0  0  0  0  0
  -26.5340  -15.6670   20.0720 H   0  0  0  0  0  0  0  0  0  0  0  0
  -28.8950  -26.1220   20.2420 C   0  0  0  0  0  2  0  0  0  0  0  0
  -28.2160  -26.5220   19.0350 O   0  0  0  0  0  0  0  0  0  0  0  0
  -24.6090  -31.4920   22.8090 C   0  0  0  0  0  0  0  0  0  0  0  0
  -27.1070  -27.3400   19.1990 C   0  0  0  0  0  0  0  0  0  0  0  0
  -23.3340  -30.2460   21.0970 C   0  0  0  0  0  3  0  0  0  0  0  0
  -24.7270  -28.8630   19.4600 C   0  0  0  0  0  0  0  0  0  0  0  0
  -25.8520  -30.6270   20.8250 C   0  0  0  0  0  2  0  0  0  0  0  0
  -25.9130  -29.3190   20.0520 C   0  0  0  0  0  0  0  0  0  0  0  0
  -27.1100  -28.5620   19.9250 C   0  0  0  0  0  3  0  0  0  0  0  0
  -25.9100  -26.9200   18.5930 C   0  0  0  0  0  3  0  0  0  0  0  0
  -24.7210  -27.6620   18.7290 C   0  0  0  0  0  3  0  0  0  0  0  0
  -23.4850  -29.7090   19.6470 C   0  0  0  0  0  2  0  0  0  0  0  0
  -24.6190  -30.7980   21.6350 N   0  0  0  0  0  0  0  0  0  0  0  0
  -23.5530  -31.7080   23.4190 O   0  0  0  0  0  0  0  0  0  0  0  0
  -22.7260  -29.1320   21.9820 C   0  0  0  0  0  0  0  0  0  0  0  0
  -21.3900  -28.9970   21.9470 N   0  0  0  0  0  0  0  0  0  0  0  0
  -23.4510  -28.3990   22.6600 O   0  0  0  0  0  0  0  0  0  0  0  0
  -20.8650  -29.6440   21.3760 H   0  0  0  0  0  0  0  0  0  0  0  0
  -18.0250  -27.8550   22.6110 C   0  0  0  0  0  0  0  0  0  0  0  0
  -20.6070  -27.9920   22.6670 C   0  0  0  0  0  3  0  0  0  0  0  0
  -20.5940  -26.6470   21.9050 C   0  0  0  0  0  2  0  0  0  0  0  0
  -19.3900  -26.4960   20.9690 C   0  0  0  0  0  2  0  0  0  0  0  0
  -18.0800  -26.5990   21.7560 C   0  0  0  0  0  2  0  0  0  0  0  0
  -19.2120  -28.5170   23.0260 C   0  0  0  0  0  0  0  0  0  0  0  0
  -19.1060  -29.6990   23.7900 C   0  0  0  0  0  3  0  0  0  0  0  0
  -17.8440  -30.2170   24.1430 C   0  0  0  0  0  3  0  0  0  0  0  0
  -16.6740  -29.5470   23.7470 C   0  0  0  0  0  3  0  0  0  0  0  0
  -16.7660  -28.3680   22.9860 C   0  0  0  0  0  3  0  0  0  0  0  0
  -25.9210  -32.0680   23.4270 C   0  0  0  0  0  3  0  0  0  0  0  0
  -25.6120  -33.3970   23.9730 N   0  0  0  0  0  0  0  0  0  0  0  0
  -25.9010  -34.5550   23.3650 C   0  0  0  0  0  0  0  0  0  0  0  0
  -26.5310  -34.6170   22.3060 O   0  0  0  0  0  0  0  0  0  0  0  0
  -25.0490  -33.4220   24.8100 H   0  0  0  0  0  0  0  0  0  0  0  0
  -24.1410  -36.3490   23.3410 C   0  0  0  0  0  1  0  0  0  0  0  0
  -25.4150  -35.8510   24.0410 C   0  0  0  0  0  3  0  0  0  0  0  0
  -27.5640  -36.6400   24.9270 C   0  0  0  0  0  1  0  0  0  0  0  0
  -26.4300  -36.9260   24.0530 N   0  0  0  0  0  0  0  0  0  0  0  0
  -26.0170  -37.8070   24.3490 H   0  0  0  0  0  0  0  0  0  0  0  0
  -26.5450  -31.1390   24.5400 C   0  0  1  0  0  0  0  0  0  0  0  0
  -25.5390  -30.7310   25.6400 C   0  0  0  0  0  1  0  0  0  0  0  0
  -27.1140  -29.8440   23.9140 C   0  0  0  0  0  1  0  0  0  0  0  0
  -27.7320  -31.8610   25.2210 C   0  0  0  0  0  1  0  0  0  0  0  0
  1 19  1  0
  1 20  1  0
  2  3  1  0
  4  5  1  0
  6 14  1  0
  7  2  1  0
  8  4  1  0
  9  6  1  0
 10  3  1  0
 11 18  1  0
 12  5  1  0
 13 21  1  0
 14 33  1  0
 14  1  1  0
 15 13  1  0
 15 18  1  0
 15  7  1  0
 16 11  1  0
 16 21  1  0
 16  8  1  0
 17  9  1  0
 17 19  1  0
 18 63  1  6
 18 10  1  0
 19 12  1  0
 20 23  1  0
 21 17  1  0
 21 24  1  1
 22 20  1  0
 25 33  1  0
 26 31  1  0
 27 28  1  0
 27 26  1  0
 29 28  1  0
 29 38  1  0
 29 30  1  0
 31 25  1  0
 31 30  1  0
 32 25  2  0
 33 34  1  0
 35 36  2  0
 36 55  1  0
 37 36  1  0
 37 40  1  0
 38 35  1  0
 38 39  1  0
 39 37  2  0
 40 41  1  0
 41 42  2  0
 43 46  1  0
 43 42  1  0
 44 43  2  0
 45 44  1  0
 45 40  2  0
 46 47  1  0
 47 48  1  0
 48 49  2  0
 50 49  1  0
 50 54  1  0
 51 50  2  0
 52 47  2  0
 52 51  1  0
 53 52  1  0
 55 56  1  0
 56 59  1  0
 56 58  1  0
 57 55  2  0
 60 61  1  0
 60 35  1  0
 62 60  1  0
 64 66  1  0
 64 63  1  0
 65 76  2  0
 66 71  1  0
 67 75  1  0
 67 77  1  0
 68 74  1  0
 68 70  1  0
 69 75  1  0
 70 69  1  0
 71 70  2  0
 72 73  1  0
 72 66  2  0
 73 68  2  0
 74 67  1  0
 75 65  1  0
 77 79  2  0
 78 77  1  0
 80 78  1  0
 81 90  2  0
 81 86  1  0
 82 78  1  0
 82 86  1  0
 83 82  1  0
 84 85  1  0
 84 83  1  0
 85 81  1  0
 86 87  2  0
 87 88  1  0
 89 88  2  0
 90 89  1  0
 91 65  1  0
 91 92  1  0
 91101  1  0
 92 95  1  0
 93 92  1  0
 93 97  1  0
 94 93  2  0
 97 96  1  0
 97 99  1  0
 99100  1  0
 99 98  1  0
101104  1  1
101102  1  0
103101  1  0
M  ISO  4  25 100  33 100  63 101  64 101
M  END
>  <TORSDO>  (9) 
F 17

>  <SCORE>  (9) 
-13.359

>  <name>  (9) 
8

>  <ligand_id>  (9) 
8

>  <original_smiles>  (9) 
[H]c1c([H])c([H])c2c(c1[H])C([H])([H])C([H])([H])C([H])([H])C2([H])N([H])C(=O)C1([H])N(C(=O)C([H])(N([H])C(=O)C([H])(N([H])C([H])([H])[H])C([H])([H])[H])C(C([H])([H])[H])(C([H])([H])[H])C([H])([H])[H])C([H])([H])c2c([H])c(OC([H])([H])C34C([H])([H])C([H])([H])C([H])([H])C([H])([H])C3([H])C([H])([H])[N+]3([H])C5([H])N(C(=[N+]([H])[H])C([H])(N([H])C(=O)N6C([H])([H])C([H])([H])C([H])([H])C([H])(n7nc(-c8c([H])c([H])c(Oc9c([H])c([H])c(F)c([H])c9F)c([H])c8[H])c(C(=O)N([H])[H])c7N([H])[H])C6([H])[H])C([H])([H])C5([H])[H])C([H])([H])C([H])([H])C([H])([H])C([H])([H])C3([H])C4([H])[H])c([H])c([H])c2C1([H])[H]

>  <smiles>  (9) 
[H]c1c([H])c([H])c2c(c1[H])C([H])([H])C([H])([H])C([H])([H])C2([H])N([H])C(=O)C1([H])N(C(=O)C([H])(N([H])C(=O)C([H])(N([H])C([H])([H])[H])C([H])([H])[H])C(C([H])([H])[H])(C([H])([H])[H])C([H])([H])[H])C([H])([H])c2c([H])c(OC([H])([H])C34C([H])([H])C([H])([H])C([H])([H])C([H])([H])C3([H])C([H])([H])[N+]3([H])C5([H])N(C(=[N+]([H])[H])C([H])(N([H])C(=O)N6C([H])([H])C([H])([H])C([H])([H])C([H])(n7nc(-c8c([H])c([H])c(Oc9c([H])c([H])c(F)c([H])c9F)c([H])c8[H])c(C(=O)N([H])[H])c7N([H])[H])C6([H])[H])C([H])([H])C5([H])[H])C([H])([H])C([H])([H])C([H])([H])C([H])([H])C3([H])C4([H])[H])c([H])c([H])c2C1([H])[H]

$$$$
9:0:0
     RDKit          3D

 99108  0  0  1  0  0  0  0  0999 V2000
  -30.1020  -18.3860   19.5800 C   0  0  0  0  0  0  0  0  0  0  0  0
  -29.9140  -18.0420   18.2920 N   0  0  0  0  0  4  0  0  0  0  0  0
  -29.7090  -19.6560   19.9920 N   0  0  0  0  0  0  0  0  0  0  0  0
  -30.2890  -17.1820   17.9170 H   0  0  0  0  0  0  0  0  0  0  0  0
  -29.4510  -18.6420   17.6240 H   0  0  0  0  0  0  0  0  0  0  0  0
  -29.6400  -19.8520   20.9800 H   0  0  0  0  0  0  0  0  0  0  0  0
  -30.8530  -14.8640   19.7780 C   0  0  0  0  0  0  0  0  0  0  0  0
  -30.4560  -12.7010   18.5880 C   0  0  0  0  0  2  0  0  0  0  0  0
  -29.3940  -12.8610   17.4770 C   0  0  0  0  0  2  0  0  0  0  0  0
  -27.9750  -12.6640   18.0430 C   0  0  0  0  0  2  0  0  0  0  0  0
  -27.7420  -13.4770   19.3420 C   0  0  0  0  0  3  0  0  0  0  0  0
  -28.9030  -13.2750   20.3330 C   0  0  0  0  0  2  0  0  0  0  0  0
  -30.1570  -13.6760   19.6650 N   0  0  0  0  0  0  0  0  0  0  0  0
  -31.8570  -15.0480   19.0840 O   0  0  0  0  0  0  0  0  0  0  0  0
  -31.1080  -16.5640   22.7530 C   0  0  0  0  0  2  0  0  0  0  0  0
  -30.1950  -15.6070   21.9970 C   0  0  0  0  0  2  0  0  0  0  0  0
  -30.8490  -17.3380   20.4750 C   0  0  0  0  0  3  0  0  0  0  0  0
  -30.9730  -17.8340   21.9390 C   0  0  0  0  0  3  0  0  0  0  0  0
  -30.3540  -15.8950   20.5550 N   0  0  0  0  0  0  0  0  0  0  0  0
  -25.4490  -14.0340   20.3560 C   0  0  0  0  0  0  0  0  0  0  0  0
  -24.4270  -13.2410   20.8040 C   0  0  0  0  0  0  0  0  0  0  0  0
  -24.8780  -11.8940   20.6540 C   0  0  0  0  0  0  0  0  0  0  0  0
  -26.4540  -13.1690   19.9580 N   0  0  0  0  0  0  0  0  0  0  0  0
  -26.1250  -11.8730   20.1980 N   0  0  0  0  0  0  0  0  0  0  0  0
  -24.1750  -10.6220   20.8620 C   0  0  0  0  0  0  0  0  0  0  0  0
  -24.6390   -9.6610   21.7870 C   0  0  0  0  0  3  0  0  0  0  0  0
  -23.9340   -8.4540   21.9800 C   0  0  0  0  0  3  0  0  0  0  0  0
  -22.7490   -8.1990   21.2490 C   0  0  0  0  0  0  0  0  0  0  0  0
  -22.3030   -9.1490   20.3140 C   0  0  0  0  0  3  0  0  0  0  0  0
  -23.0090  -10.3480   20.1180 C   0  0  0  0  0  3  0  0  0  0  0  0
  -22.0130   -7.0440   21.3530 O   0  0  0  0  0  0  0  0  0  0  0  0
  -21.8970   -6.3690   22.5410 C   0  0  0  0  0  0  0  0  0  0  0  0
  -21.3370   -6.9700   23.6890 C   0  0  0  0  0  3  0  0  0  0  0  0
  -21.1730   -6.2180   24.8700 C   0  0  0  0  0  3  0  0  0  0  0  0
  -21.5580   -4.8640   24.9000 C   0  0  0  0  0  0  0  0  0  0  0  0
  -22.1110   -4.2620   23.7570 C   0  0  0  0  0  3  0  0  0  0  0  0
  -22.2770   -5.0110   22.5790 C   0  0  0  0  0  0  0  0  0  0  0  0
  -22.7900   -4.4200   21.4730 F   0  0  0  0  0  0  0  0  0  0  0  0
  -21.3940   -4.1390   26.0320 F   0  0  0  0  0  0  0  0  0  0  0  0
  -23.0710  -13.7010   21.2550 C   0  0  0  0  0  0  0  0  0  0  0  0
  -22.4460  -12.9660   22.1680 N   0  0  0  0  0  0  0  0  0  0  0  0
  -22.5780  -14.7470   20.8330 O   0  0  0  0  0  0  0  0  0  0  0  0
  -22.8600  -12.1200   22.5290 H   0  0  0  0  0  0  0  0  0  0  0  0
  -21.5410  -13.2550   22.5120 H   0  0  0  0  0  0  0  0  0  0  0  0
  -25.5990  -15.4120   20.2330 N   0  0  0  0  0  0  0  0  0  0  0  0
  -24.8540  -16.0600   20.4600 H   0  0  0  0  0  0  0  0  0  0  0  0
  -26.4070  -15.8650   19.8240 H   0  0  0  0  0  0  0  0  0  0  0  0
  -32.0480  -18.8230   22.1890 N   0  0  0  0  0  4  0  0  0  0  0  0
  -32.9550  -18.4100   22.0540 H   0  0  0  0  0  0  0  0  0  0  0  0
  -32.0070  -19.1390   23.1440 H   0  0  0  0  0  0  0  0  0  0  0  0
  -31.9900  -19.6320   21.5970 H   0  0  0  0  0  0  0  0  0  0  0  0
  -29.1800  -20.7860   19.1290 C   0  0  0  0  0  2  0  0  0  0  0  0
  -29.8150  -23.1010   20.3890 C   0  0  0  0  0  2  0  0  0  0  0  0
  -27.9140  -23.0440   18.7490 C   0  0  0  0  0  2  0  0  0  0  0  0
  -29.3080  -24.4930   20.9480 C   0  0  0  0  0  2  0  0  0  0  0  0
  -28.1740  -24.5910   18.7300 C   0  0  0  0  0  2  0  0  0  0  0  0
  -28.7180  -22.1760   19.7840 C   0  0  0  0  0  3  0  0  0  0  0  0
  -28.1870  -25.2280   20.1370 C   0  0  0  0  0  3  0  0  0  0  0  0
  -28.3130  -26.7060   20.1630 O   0  0  0  0  0  0  0  0  0  0  0  0
  -24.5050  -31.9850   23.2600 C   0  0  0  0  0  0  0  0  0  0  0  0
  -27.1620  -27.5080   20.1400 C   0  0  0  0  0  0  0  0  0  0  0  0
  -23.3090  -30.5880   21.6110 C   0  0  0  0  0  3  0  0  0  0  0  0
  -24.7710  -29.0740   20.1620 C   0  0  0  0  0  0  0  0  0  0  0  0
  -25.8410  -30.9480   21.4150 C   0  0  0  0  0  2  0  0  0  0  0  0
  -25.9350  -29.5790   20.7540 C   0  0  0  0  0  0  0  0  0  0  0  0
  -27.1350  -28.8090   20.7290 C   0  0  0  0  0  3  0  0  0  0  0  0
  -25.9720  -27.0490   19.5350 C   0  0  0  0  0  3  0  0  0  0  0  0
  -24.7900  -27.8140   19.5420 C   0  0  0  0  0  3  0  0  0  0  0  0
  -23.5230  -29.9290   20.2230 C   0  0  0  0  0  2  0  0  0  0  0  0
  -24.5700  -31.1910   22.1510 N   0  0  0  0  0  0  0  0  0  0  0  0
  -23.4220  -32.2430   23.8030 O   0  0  0  0  0  0  0  0  0  0  0  0
  -22.6650  -29.5540   22.5650 C   0  0  0  0  0  0  0  0  0  0  0  0
  -21.3540  -29.3140   22.4010 N   0  0  0  0  0  0  0  0  0  0  0  0
  -23.3480  -28.9680   23.4110 O   0  0  0  0  0  0  0  0  0  0  0  0
  -20.8630  -29.8410   21.6910 H   0  0  0  0  0  0  0  0  0  0  0  0
  -18.0290  -27.9410   22.7780 C   0  0  0  0  0  0  0  0  0  0  0  0
  -20.5530  -28.3510   23.1570 C   0  0  0  0  0  3  0  0  0  0  0  0
  -20.7620  -26.9140   22.6240 C   0  0  0  0  0  2  0  0  0  0  0  0
  -19.7280  -26.5060   21.5710 C   0  0  0  0  0  2  0  0  0  0  0  0
  -18.3120  -26.5890   22.1470 C   0  0  0  0  0  2  0  0  0  0  0  0
  -19.0830  -28.7750   23.2380 C   0  0  0  0  0  0  0  0  0  0  0  0
  -18.7670  -30.0370   23.7860 C   0  0  0  0  0  3  0  0  0  0  0  0
  -17.4300  -30.4670   23.8810 C   0  0  0  0  0  3  0  0  0  0  0  0
  -16.3900  -29.6310   23.4390 C   0  0  0  0  0  3  0  0  0  0  0  0
  -16.6900  -28.3700   22.8920 C   0  0  0  0  0  3  0  0  0  0  0  0
  -25.7840  -32.6260   23.8820 C   0  0  0  0  0  3  0  0  0  0  0  0
  -26.2880  -31.8780   25.1770 C   0  0  1  0  0  0  0  0  0  0  0  0
  -25.1790  -31.6400   26.2300 C   0  0  0  0  0  1  0  0  0  0  0  0
  -26.8930  -30.5020   24.8120 C   0  0  0  0  0  1  0  0  0  0  0  0
  -27.4180  -32.6930   25.8470 C   0  0  0  0  0  1  0  0  0  0  0  0
  -25.4740  -34.0310   24.1860 N   0  0  0  0  0  0  0  0  0  0  0  0
  -25.8000  -35.0690   23.4050 C   0  0  0  0  0  0  0  0  0  0  0  0
  -26.4630  -34.9470   22.3720 O   0  0  0  0  0  0  0  0  0  0  0  0
  -24.8890  -34.2010   24.9910 H   0  0  0  0  0  0  0  0  0  0  0  0
  -24.0600  -36.8470   23.0340 C   0  0  0  0  0  1  0  0  0  0  0  0
  -25.3130  -36.4660   23.8380 C   0  0  0  0  0  3  0  0  0  0  0  0
  -27.4490  -37.3810   24.6300 C   0  0  0  0  0  1  0  0  0  0  0  0
  -26.3390  -37.5200   23.6910 N   0  0  0  0  0  0  0  0  0  0  0  0
  -25.9300  -38.4420   23.8170 H   0  0  0  0  0  0  0  0  0  0  0  0
  1  3  1  0
  2  1  2  0
  3  6  1  0
  4  2  1  0
  5  2  1  0
  7 19  1  0
  8 13  1  0
  9 10  1  0
  9  8  1  0
 11 10  1  0
 11 23  1  0
 11 12  1  0
 13  7  1  0
 13 12  1  0
 14  7  2  0
 16 15  1  0
 17  1  1  0
 17 19  1  0
 17 18  1  0
 18 48  1  0
 18 15  1  0
 19 16  1  0
 20 21  2  0
 21 40  1  0
 22 21  1  0
 22 25  1  0
 23 24  1  0
 23 20  1  0
 24 22  2  0
 25 26  1  0
 26 27  2  0
 28 31  1  0
 28 27  1  0
 29 28  2  0
 30 29  1  0
 30 25  2  0
 31 32  1  0
 32 37  2  0
 32 33  1  0
 33 34  2  0
 34 35  1  0
 35 39  1  0
 36 35  2  0
 37 36  1  0
 38 37  1  0
 40 41  1  0
 41 44  1  0
 41 43  1  0
 42 40  2  0
 45 20  1  0
 45 46  1  0
 47 45  1  0
 48 50  1  0
 49 48  1  0
 51 48  1  0
 52  3  1  0
 53 55  1  0
 54 57  1  0
 56 54  1  0
 56 58  1  0
 57 52  1  0
 57 53  1  0
 58 59  1  0
 58 55  1  0
 60 71  2  0
 61 59  1  0
 61 66  1  0
 62 70  1  0
 62 72  1  0
 63 69  1  0
 63 65  1  0
 64 70  1  0
 65 64  1  0
 66 65  2  0
 67 68  1  0
 67 61  2  0
 68 63  2  0
 69 62  1  0
 70 60  1  0
 72 74  2  0
 73 72  1  0
 75 73  1  0
 76 85  2  0
 76 81  1  0
 77 73  1  0
 77 81  1  0
 78 77  1  0
 79 80  1  0
 79 78  1  0
 80 76  1  0
 81 82  2  0
 82 83  1  0
 84 83  2  0
 85 84  1  0
 86 60  1  0
 86 91  1  0
 86 87  1  0
 87 90  1  1
 87 88  1  0
 89 87  1  0
 91 94  1  0
 92 96  1  0
 92 91  1  0
 93 92  2  0
 96 95  1  0
 98 99  1  0
 98 96  1  0
 98 97  1  0
M  ISO  4   7 100  19 100  58 101  59 101
M  END
>  <TORSDO>  (10) 
F 19

>  <SCORE>  (10) 
-12.880

>  <name>  (10) 
9

>  <ligand_id>  (10) 
9

>  <original_smiles>  (10) 
[H]c1c([H])c([H])c2c(c1[H])C([H])([H])C([H])([H])C([H])([H])C2([H])N([H])C(=O)C1([H])N(C(=O)C([H])(N([H])C(=O)C([H])(N([H])C([H])([H])[H])C([H])([H])[H])C(C([H])([H])[H])(C([H])([H])[H])C([H])([H])[H])C([H])([H])c2c([H])c(OC3([H])C([H])([H])C([H])([H])C([H])(C([H])([H])[N+]([H])=C(N([H])[H])C4([H])N(C(=O)N5C([H])([H])C([H])([H])C([H])([H])C([H])(n6nc(-c7c([H])c([H])c(Oc8c([H])c([H])c(F)c([H])c8F)c([H])c7[H])c(C(=O)N([H])[H])c6N([H])[H])C5([H])[H])C([H])([H])C([H])([H])C4([H])[N+]([H])([H])[H])C([H])([H])C3([H])[H])c([H])c([H])c2C1([H])[H]

>  <smiles>  (10) 
[H]c1c([H])c([H])c2c(c1[H])C([H])([H])C([H])([H])C([H])([H])C2([H])N([H])C(=O)C1([H])N(C(=O)C([H])(N([H])C(=O)C([H])(N([H])C([H])([H])[H])C([H])([H])[H])C(C([H])([H])[H])(C([H])([H])[H])C([H])([H])[H])C([H])([H])c2c([H])c(OC3([H])C([H])([H])C([H])([H])C([H])(C([H])([H])[N+]([H])=C(N([H])[H])C4([H])N(C(=O)N5C([H])([H])C([H])([H])C([H])([H])C([H])(n6nc(-c7c([H])c([H])c(Oc8c([H])c([H])c(F)c([H])c8F)c([H])c7[H])c(C(=O)N([H])[H])c6N([H])[H])C5([H])[H])C([H])([H])C([H])([H])C4([H])[N+]([H])([H])[H])C([H])([H])C3([H])[H])c([H])c([H])c2C1([H])[H]

$$$$
10:0:0
     RDKit          3D

 88 96  0  0  1  0  0  0  0  0999 V2000
  -29.1620  -21.2640   20.5860 N   0  0  0  0  0  4  0  0  0  0  0  0
  -30.1600  -21.4120   20.5670 H   0  0  0  0  0  0  0  0  0  0  0  0
  -28.9250  -21.2880   21.5670 H   0  0  0  0  0  0  0  0  0  0  0  0
  -30.4480  -15.3510   20.2990 C   0  0  0  0  0  0  0  0  0  0  0  0
  -30.4460  -12.8980   19.4410 C   0  0  0  0  0  2  0  0  0  0  0  0
  -29.5490  -12.6860   18.1990 C   0  0  0  0  0  2  0  0  0  0  0  0
  -28.0890  -12.4190   18.6120 C   0  0  0  0  0  2  0  0  0  0  0  0
  -27.6140  -13.3650   19.7480 C   0  0  0  0  0  3  0  0  0  0  0  0
  -28.6540  -13.5340   20.8740 C   0  0  0  0  0  2  0  0  0  0  0  0
  -29.8760  -14.0470   20.2330 N   0  0  0  0  0  0  0  0  0  0  0  0
  -31.6870  -15.3270   20.2460 O   0  0  0  0  0  0  0  0  0  0  0  0
  -28.2950  -17.9760   18.3820 C   0  0  0  0  0  2  0  0  0  0  0  0
  -28.8070  -19.4210   18.6550 C   0  0  0  0  0  2  0  0  0  0  0  0
  -29.2560  -16.7900   18.7210 C   0  0  0  0  0  2  0  0  0  0  0  0
  -29.9070  -18.2070   20.6400 C   0  0  0  0  0  2  0  0  0  0  0  0
  -28.9730  -19.6490   20.1610 C   0  0  0  0  0  3  0  0  0  0  0  0
  -29.7060  -16.6410   20.1300 N   0  0  0  0  0  0  0  0  0  0  0  0
  -25.2340  -13.9050   20.4830 C   0  0  0  0  0  0  0  0  0  0  0  0
  -24.1740  -13.1200   20.8410 C   0  0  0  0  0  0  0  0  0  0  0  0
  -24.6560  -11.7720   20.8230 C   0  0  0  0  0  0  0  0  0  0  0  0
  -26.2880  -13.0370   20.2510 N   0  0  0  0  0  0  0  0  0  0  0  0
  -25.9520  -11.7510   20.5280 N   0  0  0  0  0  0  0  0  0  0  0  0
  -23.9400  -10.5030   21.0050 C   0  0  0  0  0  0  0  0  0  0  0  0
  -24.3540   -9.5530   21.9640 C   0  0  0  0  0  3  0  0  0  0  0  0
  -23.6330   -8.3510   22.1380 C   0  0  0  0  0  3  0  0  0  0  0  0
  -22.4860   -8.0910   21.3530 C   0  0  0  0  0  0  0  0  0  0  0  0
  -22.0930   -9.0290   20.3820 C   0  0  0  0  0  3  0  0  0  0  0  0
  -22.8140  -10.2230   20.2060 C   0  0  0  0  0  3  0  0  0  0  0  0
  -21.7410   -6.9390   21.4320 O   0  0  0  0  0  0  0  0  0  0  0  0
  -21.6490   -6.2190   22.5970 C   0  0  0  0  0  0  0  0  0  0  0  0
  -21.1360   -6.7880   23.7850 C   0  0  0  0  0  3  0  0  0  0  0  0
  -20.9940   -5.9950   24.9410 C   0  0  0  0  0  3  0  0  0  0  0  0
  -21.3510   -4.6330   24.9110 C   0  0  0  0  0  0  0  0  0  0  0  0
  -21.8570   -4.0650   23.7280 C   0  0  0  0  0  3  0  0  0  0  0  0
  -22.0020   -4.8560   22.5740 C   0  0  0  0  0  0  0  0  0  0  0  0
  -22.4670   -4.2970   21.4310 F   0  0  0  0  0  0  0  0  0  0  0  0
  -21.2100   -3.8700   26.0190 F   0  0  0  0  0  0  0  0  0  0  0  0
  -22.7680  -13.5820   21.0810 C   0  0  0  0  0  0  0  0  0  0  0  0
  -22.0250  -12.8800   21.9290 N   0  0  0  0  0  0  0  0  0  0  0  0
  -22.3330  -14.6030   20.5500 O   0  0  0  0  0  0  0  0  0  0  0  0
  -22.3890  -12.0610   22.3950 H   0  0  0  0  0  0  0  0  0  0  0  0
  -21.0760  -13.1690   22.1180 H   0  0  0  0  0  0  0  0  0  0  0  0
  -25.3900  -15.2780   20.3050 N   0  0  0  0  0  0  0  0  0  0  0  0
  -24.6230  -15.9330   20.4170 H   0  0  0  0  0  0  0  0  0  0  0  0
  -26.2520  -15.7230   20.0200 H   0  0  0  0  0  0  0  0  0  0  0  0
  -28.5360  -22.6850   19.9460 C   0  0  0  0  0  2  0  0  0  0  0  0
  -28.1800  -24.3050   20.6860 C   0  0  0  0  0  2  0  0  0  0  0  0
  -28.2430  -25.9170   20.2810 O   0  0  0  0  0  0  0  0  0  0  0  0
  -24.5930  -31.8860   23.2450 C   0  0  0  0  0  0  0  0  0  0  0  0
  -27.1970  -26.9850   20.3040 C   0  0  0  0  0  0  0  0  0  0  0  0
  -23.4210  -30.4710   21.6040 C   0  0  0  0  0  3  0  0  0  0  0  0
  -24.8870  -28.8540   20.2190 C   0  0  0  0  0  0  0  0  0  0  0  0
  -25.9850  -30.6900   21.4820 C   0  0  0  0  0  2  0  0  0  0  0  0
  -26.0680  -29.2720   20.8450 C   0  0  0  0  0  0  0  0  0  0  0  0
  -27.2180  -28.3600   20.8590 C   0  0  0  0  0  3  0  0  0  0  0  0
  -25.9800  -26.7140   19.6400 C   0  0  0  0  0  3  0  0  0  0  0  0
  -24.8660  -27.5950   19.5970 C   0  0  0  0  0  3  0  0  0  0  0  0
  -23.6670  -29.7740   20.2380 C   0  0  0  0  0  2  0  0  0  0  0  0
  -24.6870  -31.0450   22.1640 N   0  0  0  0  0  0  0  0  0  0  0  0
  -23.4980  -32.1750   23.7560 O   0  0  0  0  0  0  0  0  0  0  0  0
  -22.7230  -29.4840   22.5740 C   0  0  0  0  0  0  0  0  0  0  0  0
  -21.3930  -29.3110   22.4400 N   0  0  0  0  0  0  0  0  0  0  0  0
  -23.3820  -28.8700   23.4180 O   0  0  0  0  0  0  0  0  0  0  0  0
  -20.9130  -29.8560   21.7350 H   0  0  0  0  0  0  0  0  0  0  0  0
  -18.0150  -28.0810   22.9280 C   0  0  0  0  0  0  0  0  0  0  0  0
  -20.5700  -28.3750   23.2120 C   0  0  0  0  0  3  0  0  0  0  0  0
  -20.6900  -26.9380   22.6530 C   0  0  0  0  0  2  0  0  0  0  0  0
  -19.5990  -26.5940   21.6330 C   0  0  0  0  0  2  0  0  0  0  0  0
  -18.2110  -26.7280   22.2640 C   0  0  0  0  0  2  0  0  0  0  0  0
  -19.1210  -28.8590   23.3610 C   0  0  0  0  0  0  0  0  0  0  0  0
  -18.8800  -30.1210   23.9460 C   0  0  0  0  0  3  0  0  0  0  0  0
  -17.5670  -30.6030   24.1050 C   0  0  0  0  0  3  0  0  0  0  0  0
  -16.4760  -29.8220   23.6870 C   0  0  0  0  0  3  0  0  0  0  0  0
  -16.7010  -28.5620   23.1030 C   0  0  0  0  0  3  0  0  0  0  0  0
  -25.8570  -32.5420   23.8820 C   0  0  0  0  0  3  0  0  0  0  0  0
  -25.5350  -33.9480   24.1860 N   0  0  0  0  0  0  0  0  0  0  0  0
  -25.8850  -34.9980   23.4280 C   0  0  0  0  0  0  0  0  0  0  0  0
  -26.5740  -34.8820   22.4120 O   0  0  0  0  0  0  0  0  0  0  0  0
  -24.9230  -34.1080   24.9730 H   0  0  0  0  0  0  0  0  0  0  0  0
  -24.1790  -36.8060   23.0240 C   0  0  0  0  0  1  0  0  0  0  0  0
  -25.3970  -36.3940   23.8670 C   0  0  0  0  0  3  0  0  0  0  0  0
  -27.5140  -37.2770   24.7460 C   0  0  0  0  0  1  0  0  0  0  0  0
  -26.4380  -37.4410   23.7730 N   0  0  0  0  0  0  0  0  0  0  0  0
  -26.0310  -38.3630   23.9010 H   0  0  0  0  0  0  0  0  0  0  0  0
  -26.3420  -31.8020   25.1920 C   0  0  1  0  0  0  0  0  0  0  0  0
  -25.2270  -31.5960   26.2430 C   0  0  0  0  0  1  0  0  0  0  0  0
  -26.9300  -30.4120   24.8590 C   0  0  0  0  0  1  0  0  0  0  0  0
  -27.4820  -32.6100   25.8550 C   0  0  0  0  0  1  0  0  0  0  0  0
  1  3  1  0
  2  1  1  0
  5 10  1  0
  6  7  1  0
  6  5  1  0
  8  7  1  0
  8 21  1  0
  8  9  1  0
 10  4  1  0
 10  9  1  0
 11  4  2  0
 12 13  1  0
 12 14  1  0
 13 16  1  0
 14 17  1  0
 16  1  1  0
 16 15  1  0
 17  4  1  0
 17 15  1  0
 18 19  2  0
 19 38  1  0
 20 19  1  0
 20 23  1  0
 21 18  1  0
 21 22  1  0
 22 20  2  0
 23 24  1  0
 24 25  2  0
 26 29  1  0
 26 25  1  0
 27 26  2  0
 28 27  1  0
 28 23  2  0
 29 30  1  0
 30 31  1  0
 31 32  2  0
 33 32  1  0
 33 37  1  0
 34 33  2  0
 35 30  2  0
 35 34  1  0
 36 35  1  0
 38 39  1  0
 39 42  1  0
 39 41  1  0
 40 38  2  0
 43 44  1  0
 43 18  1  0
 45 43  1  0
 46  1  1  0
 46 47  1  0
 48 50  1  0
 48 47  1  0
 49 60  2  0
 50 55  1  0
 51 59  1  0
 51 61  1  0
 52 58  1  0
 52 54  1  0
 53 59  1  0
 54 55  2  0
 54 53  1  0
 56 50  2  0
 57 56  1  0
 57 52  2  0
 58 51  1  0
 59 49  1  0
 61 63  2  0
 62 61  1  0
 64 62  1  0
 65 74  2  0
 65 70  1  0
 66 62  1  0
 66 70  1  0
 67 66  1  0
 68 69  1  0
 68 67  1  0
 69 65  1  0
 70 71  2  0
 71 72  1  0
 73 72  2  0
 74 73  1  0
 75 49  1  0
 75 76  1  0
 75 85  1  0
 76 79  1  0
 77 81  1  0
 77 76  1  0
 78 77  2  0
 81 80  1  0
 83 81  1  0
 83 84  1  0
 83 82  1  0
 85 88  1  1
 85 86  1  0
 87 85  1  0
M  ISO  4   4 100  17 100  47 101  48 101
M  END
>  <TORSDO>  (11) 
F 18

>  <SCORE>  (11) 
-16.560

>  <name>  (11) 
10

>  <ligand_id>  (11) 
10

>  <original_smiles>  (11) 
[H]c1c([H])c([H])c2c(c1[H])C([H])([H])C([H])([H])C([H])([H])C2([H])N([H])C(=O)C1([H])N(C(=O)C([H])(N([H])C(=O)C([H])(N([H])C([H])([H])[H])C([H])([H])[H])C(C([H])([H])[H])(C([H])([H])[H])C([H])([H])[H])C([H])([H])c2c([H])c(OC([H])([H])C([H])([H])[N+]([H])([H])C3([H])C([H])([H])N(C(=O)N4C([H])([H])C([H])([H])C([H])([H])C([H])(n5nc(-c6c([H])c([H])c(Oc7c([H])c([H])c(F)c([H])c7F)c([H])c6[H])c(C(=O)N([H])[H])c5N([H])[H])C4([H])[H])C([H])([H])C([H])([H])C3([H])[H])c([H])c([H])c2C1([H])[H]

>  <smiles>  (11) 
[H]c1c([H])c([H])c2c(c1[H])C([H])([H])C([H])([H])C([H])([H])C2([H])N([H])C(=O)C1([H])N(C(=O)C([H])(N([H])C(=O)C([H])(N([H])C([H])([H])[H])C([H])([H])[H])C(C([H])([H])[H])(C([H])([H])[H])C([H])([H])[H])C([H])([H])c2c([H])c(OC([H])([H])C([H])([H])[N+]([H])([H])C3([H])C([H])([H])N(C(=O)N4C([H])([H])C([H])([H])C([H])([H])C([H])(n5nc(-c6c([H])c([H])c(Oc7c([H])c([H])c(F)c([H])c7F)c([H])c6[H])c(C(=O)N([H])[H])c5N([H])[H])C4([H])[H])C([H])([H])C([H])([H])C3([H])[H])c([H])c([H])c2C1([H])[H]

$$$$
11:0:0
     RDKit          3D

 91100  0  0  1  0  0  0  0  0999 V2000
  -31.3900  -20.8580   19.3360 C   0  0  0  0  0  2  0  0  0  0  0  0
  -30.9500  -19.3740   19.3690 C   0  0  0  0  0  2  0  0  0  0  0  0
  -28.0360  -18.0540   19.6470 C   0  0  0  0  0  2  0  0  0  0  0  0
  -27.7450  -19.5990   19.7270 C   0  0  0  0  0  2  0  0  0  0  0  0
  -30.2570  -21.8520   18.9670 C   0  0  0  0  0  2  0  0  0  0  0  0
  -29.9790  -19.1450   20.5300 C   0  0  0  0  0  3  0  0  0  0  0  0
  -29.2080  -17.6770   20.5750 C   0  0  0  0  0  3  0  0  0  0  0  0
  -28.8550  -20.3690   20.4980 C   0  0  0  0  0  3  0  0  0  0  0  0
  -29.0840  -21.8280   19.8850 N   0  0  1  0  0  4  0  0  0  0  0  0
  -28.3160  -21.8460   19.2310 H   0  0  0  0  0  0  0  0  0  0  0  0
  -30.4440  -15.0120   20.3390 C   0  0  0  0  0  0  0  0  0  0  0  0
  -30.3930  -12.6420   19.3970 C   0  0  0  0  0  2  0  0  0  0  0  0
  -29.4630  -12.5820   18.1610 C   0  0  0  0  0  2  0  0  0  0  0  0
  -27.9950  -12.3680   18.5780 C   0  0  0  0  0  2  0  0  0  0  0  0
  -27.5770  -13.2930   19.7510 C   0  0  0  0  0  3  0  0  0  0  0  0
  -28.6240  -13.2900   20.8840 C   0  0  0  0  0  2  0  0  0  0  0  0
  -29.9030  -13.7240   20.3000 N   0  0  0  0  0  0  0  0  0  0  0  0
  -31.6330  -15.1420   20.0260 O   0  0  0  0  0  0  0  0  0  0  0  0
  -29.5530  -16.1010   20.5600 N   0  0  0  0  0  0  0  0  0  0  0  0
  -28.6960  -15.6340   20.8190 H   0  0  0  0  0  0  0  0  0  0  0  0
  -25.1820  -13.8750   20.4470 C   0  0  0  0  0  0  0  0  0  0  0  0
  -24.1150  -13.1010   20.8130 C   0  0  0  0  0  0  0  0  0  0  0  0
  -24.5850  -11.7510   20.8050 C   0  0  0  0  0  0  0  0  0  0  0  0
  -26.2320  -12.9970   20.2330 N   0  0  0  0  0  0  0  0  0  0  0  0
  -25.8800  -11.7150   20.5140 N   0  0  0  0  0  0  0  0  0  0  0  0
  -23.8580  -10.4900   20.9970 C   0  0  0  0  0  0  0  0  0  0  0  0
  -24.2790   -9.5310   21.9440 C   0  0  0  0  0  3  0  0  0  0  0  0
  -23.5500   -8.3370   22.1270 C   0  0  0  0  0  3  0  0  0  0  0  0
  -22.3860   -8.0920   21.3600 C   0  0  0  0  0  0  0  0  0  0  0  0
  -21.9840   -9.0390   20.4020 C   0  0  0  0  0  3  0  0  0  0  0  0
  -22.7140  -10.2250   20.2180 C   0  0  0  0  0  3  0  0  0  0  0  0
  -21.6300   -6.9480   21.4500 O   0  0  0  0  0  0  0  0  0  0  0  0
  -21.5710   -6.2140   22.6080 C   0  0  0  0  0  0  0  0  0  0  0  0
  -21.1330   -6.7790   23.8260 C   0  0  0  0  0  3  0  0  0  0  0  0
  -21.0210   -5.9720   24.9760 C   0  0  0  0  0  3  0  0  0  0  0  0
  -21.3360   -4.6010   24.9090 C   0  0  0  0  0  0  0  0  0  0  0  0
  -21.7670   -4.0360   23.6950 C   0  0  0  0  0  3  0  0  0  0  0  0
  -21.8810   -4.8400   22.5470 C   0  0  0  0  0  0  0  0  0  0  0  0
  -22.2760   -4.2850   21.3760 F   0  0  0  0  0  0  0  0  0  0  0  0
  -21.2210   -3.8240   26.0100 F   0  0  0  0  0  0  0  0  0  0  0  0
  -22.7130  -13.5780   21.0570 C   0  0  0  0  0  0  0  0  0  0  0  0
  -21.9740  -12.8880   21.9190 N   0  0  0  0  0  0  0  0  0  0  0  0
  -22.2830  -14.5990   20.5210 O   0  0  0  0  0  0  0  0  0  0  0  0
  -22.3370  -12.0610   22.3700 H   0  0  0  0  0  0  0  0  0  0  0  0
  -21.0330  -13.1870   22.1290 H   0  0  0  0  0  0  0  0  0  0  0  0
  -25.3400  -15.2430   20.2540 N   0  0  0  0  0  0  0  0  0  0  0  0
  -24.5560  -15.8830   20.3350 H   0  0  0  0  0  0  0  0  0  0  0  0
  -26.1650  -15.6770   19.8660 H   0  0  0  0  0  0  0  0  0  0  0  0
  -28.8190  -23.2340   20.6210 C   0  0  0  0  0  3  0  0  0  0  0  0
  -28.2540  -24.6450   19.8380 C   0  0  0  0  0  3  0  0  0  0  0  0
  -28.2840  -26.1530   20.3040 O   0  0  0  0  0  0  0  0  0  0  0  0
  -24.6330  -31.8690   23.2280 C   0  0  0  0  0  0  0  0  0  0  0  0
  -27.2160  -27.1340   20.1970 C   0  0  0  0  0  0  0  0  0  0  0  0
  -23.4330  -30.4690   21.5950 C   0  0  0  0  0  3  0  0  0  0  0  0
  -24.8820  -28.8940   20.1640 C   0  0  0  0  0  0  0  0  0  0  0  0
  -25.9860  -30.7330   21.4260 C   0  0  0  0  0  2  0  0  0  0  0  0
  -26.0590  -29.3360   20.7770 C   0  0  0  0  0  0  0  0  0  0  0  0
  -27.2200  -28.4700   20.7820 C   0  0  0  0  0  3  0  0  0  0  0  0
  -26.0110  -26.8080   19.5300 C   0  0  0  0  0  3  0  0  0  0  0  0
  -24.8730  -27.6450   19.5260 C   0  0  0  0  0  3  0  0  0  0  0  0
  -23.6510  -29.7890   20.2150 C   0  0  0  0  0  2  0  0  0  0  0  0
  -24.7040  -31.0480   22.1370 N   0  0  0  0  0  0  0  0  0  0  0  0
  -23.5470  -32.1570   23.7560 O   0  0  0  0  0  0  0  0  0  0  0  0
  -22.7550  -29.4650   22.5620 C   0  0  0  0  0  0  0  0  0  0  0  0
  -21.4280  -29.2920   22.4350 N   0  0  0  0  0  0  0  0  0  0  0  0
  -23.4260  -28.8450   23.3910 O   0  0  0  0  0  0  0  0  0  0  0  0
  -20.9460  -29.8450   21.7410 H   0  0  0  0  0  0  0  0  0  0  0  0
  -18.0480  -28.0750   22.9270 C   0  0  0  0  0  0  0  0  0  0  0  0
  -20.6050  -28.3560   23.2060 C   0  0  0  0  0  3  0  0  0  0  0  0
  -20.7170  -26.9200   22.6400 C   0  0  0  0  0  2  0  0  0  0  0  0
  -19.6220  -26.5850   21.6240 C   0  0  0  0  0  2  0  0  0  0  0  0
  -18.2360  -26.7230   22.2590 C   0  0  0  0  0  2  0  0  0  0  0  0
  -19.1590  -28.8480   23.3560 C   0  0  0  0  0  0  0  0  0  0  0  0
  -18.9270  -30.1110   23.9430 C   0  0  0  0  0  3  0  0  0  0  0  0
  -17.6180  -30.6020   24.1010 C   0  0  0  0  0  3  0  0  0  0  0  0
  -16.5220  -29.8280   23.6840 C   0  0  0  0  0  3  0  0  0  0  0  0
  -16.7370  -28.5660   23.1050 C   0  0  0  0  0  3  0  0  0  0  0  0
  -25.9110  -32.5050   23.8570 C   0  0  0  0  0  3  0  0  0  0  0  0
  -25.6000  -33.9050   24.1870 N   0  0  0  0  0  0  0  0  0  0  0  0
  -25.9310  -34.9600   23.4310 C   0  0  0  0  0  0  0  0  0  0  0  0
  -26.5970  -34.8580   22.3970 O   0  0  0  0  0  0  0  0  0  0  0  0
  -25.0050  -34.0590   24.9880 H   0  0  0  0  0  0  0  0  0  0  0  0
  -24.2020  -36.7590   23.0930 C   0  0  0  0  0  1  0  0  0  0  0  0
  -25.4500  -36.3510   23.8930 C   0  0  0  0  0  3  0  0  0  0  0  0
  -27.5930  -37.2360   24.7050 C   0  0  0  0  0  1  0  0  0  0  0  0
  -26.4830  -37.4030   23.7690 N   0  0  0  0  0  0  0  0  0  0  0  0
  -26.0810  -38.3240   23.9140 H   0  0  0  0  0  0  0  0  0  0  0  0
  -26.4190  -31.7380   25.1400 C   0  0  1  0  0  0  0  0  0  0  0  0
  -25.3210  -31.5100   26.2050 C   0  0  0  0  0  1  0  0  0  0  0  0
  -26.9960  -30.3540   24.7610 C   0  0  0  0  0  1  0  0  0  0  0  0
  -27.5730  -32.5290   25.7990 C   0  0  0  0  0  1  0  0  0  0  0  0
  1  2  1  0
  3  4  1  0
  3  7  1  0
  5  1  1  0
  5  9  1  0
  6  2  1  0
  6  7  1  0
  7 19  1  0
  8  4  1  0
  8  6  1  0
  9  8  1  0
  9 49  1  0
  9 10  1  6
 11 19  1  0
 12 17  1  0
 13 14  1  0
 13 12  1  0
 15 14  1  0
 15 24  1  0
 15 16  1  0
 17 11  1  0
 17 16  1  0
 18 11  2  0
 19 20  1  0
 21 22  2  0
 22 41  1  0
 23 22  1  0
 23 26  1  0
 24 21  1  0
 24 25  1  0
 25 23  2  0
 26 27  1  0
 27 28  2  0
 29 32  1  0
 29 28  1  0
 30 29  2  0
 31 30  1  0
 31 26  2  0
 32 33  1  0
 33 34  1  0
 34 35  2  0
 36 35  1  0
 36 40  1  0
 37 36  2  0
 38 33  2  0
 38 37  1  0
 39 38  1  0
 41 42  1  0
 42 45  1  0
 42 44  1  0
 43 41  2  0
 46 47  1  0
 46 21  1  0
 48 46  1  0
 50 51  1  0
 50 49  2  0
 52 63  2  0
 53 51  1  0
 53 58  1  0
 54 62  1  0
 54 64  1  0
 55 61  1  0
 55 57  1  0
 56 62  1  0
 57 58  2  0
 57 56  1  0
 59 53  2  0
 60 59  1  0
 60 55  2  0
 61 54  1  0
 62 52  1  0
 64 66  2  0
 65 64  1  0
 67 65  1  0
 68 77  2  0
 68 73  1  0
 69 65  1  0
 69 73  1  0
 70 69  1  0
 71 72  1  0
 71 70  1  0
 72 68  1  0
 73 74  2  0
 74 75  1  0
 76 75  2  0
 77 76  1  0
 78 52  1  0
 78 79  1  0
 78 88  1  0
 79 82  1  0
 80 84  1  0
 80 79  1  0
 81 80  2  0
 84 83  1  0
 86 84  1  0
 86 87  1  0
 86 85  1  0
 88 91  1  1
 88 89  1  0
 90 88  1  0
M  ISO  4  11 100  19 100  50 101  51 101
M  END
>  <TORSDO>  (12) 
F 18

>  <SCORE>  (12) 
-15.597

>  <name>  (12) 
11

>  <ligand_id>  (12) 
11

>  <original_smiles>  (12) 
[H]c1c([H])c([H])c2c(c1[H])C([H])([H])C([H])([H])C([H])([H])C2([H])N([H])C(=O)C1([H])N(C(=O)C([H])(N([H])C(=O)C([H])(N([H])C([H])([H])[H])C([H])([H])[H])C(C([H])([H])[H])(C([H])([H])[H])C([H])([H])[H])C([H])([H])c2c([H])c(OC([H])([H])C([H])([H])[N+]3([H])C([H])([H])C([H])([H])C([H])([H])C4([H])C([H])(N([H])C(=O)N5C([H])([H])C([H])([H])C([H])([H])C([H])(n6nc(-c7c([H])c([H])c(Oc8c([H])c([H])c(F)c([H])c8F)c([H])c7[H])c(C(=O)N([H])[H])c6N([H])[H])C5([H])[H])C([H])([H])C([H])([H])C43[H])c([H])c([H])c2C1([H])[H]

>  <smiles>  (12) 
[H]c1c([H])c([H])c2c(c1[H])C([H])([H])C([H])([H])C([H])([H])C2([H])N([H])C(=O)C1([H])N(C(=O)C([H])(N([H])C(=O)C([H])(N([H])C([H])([H])[H])C([H])([H])[H])C(C([H])([H])[H])(C([H])([H])[H])C([H])([H])[H])C([H])([H])c2c([H])c(OC([H])([H])C([H])([H])[N+]3([H])C([H])([H])C([H])([H])C([H])([H])C4([H])C([H])(N([H])C(=O)N5C([H])([H])C([H])([H])C([H])([H])C([H])(n6nc(-c7c([H])c([H])c(Oc8c([H])c([H])c(F)c([H])c8F)c([H])c7[H])c(C(=O)N([H])[H])c6N([H])[H])C5([H])[H])C([H])([H])C([H])([H])C43[H])c([H])c([H])c2C1([H])[H]

$$$$
12:0:0
     RDKit          3D

 92101  0  0  1  0  0  0  0  0999 V2000
  -29.2940  -21.5240   18.5830 C   0  0  0  0  0  0  0  0  0  0  0  0
  -28.9780  -21.5100   19.9010 N   0  0  0  0  0  0  0  0  0  0  0  0
  -29.0140  -20.5870   17.8290 O   0  0  0  0  0  0  0  0  0  0  0  0
  -30.5140  -15.1500   20.3540 C   0  0  0  0  0  0  0  0  0  0  0  0
  -30.3610  -12.7530   19.4560 C   0  0  0  0  0  2  0  0  0  0  0  0
  -29.4590  -12.6010   18.2110 C   0  0  0  0  0  2  0  0  0  0  0  0
  -28.0000  -12.3660   18.6330 C   0  0  0  0  0  2  0  0  0  0  0  0
  -27.5530  -13.3280   19.7640 C   0  0  0  0  0  3  0  0  0  0  0  0
  -28.5920  -13.4640   20.8970 C   0  0  0  0  0  2  0  0  0  0  0  0
  -29.8450  -13.9090   20.2680 N   0  0  0  0  0  0  0  0  0  0  0  0
  -31.7380  -15.0490   20.1910 O   0  0  0  0  0  0  0  0  0  0  0  0
  -30.5620  -19.2160   20.3950 C   0  0  0  0  0  2  0  0  0  0  0  0
  -28.2370  -18.7370   20.2180 C   0  0  0  0  0  2  0  0  0  0  0  0
  -30.7400  -17.7040   21.0220 C   0  0  0  0  0  2  0  0  0  0  0  0
  -28.7550  -17.1870   19.8540 C   0  0  0  0  0  2  0  0  0  0  0  0
  -29.1840  -20.0170   20.5650 C   0  0  0  0  0  3  0  0  0  0  0  0
  -29.9390  -16.4960   20.5260 N   0  0  0  0  0  0  0  0  0  0  0  0
  -25.1710  -13.8890   20.4840 C   0  0  0  0  0  0  0  0  0  0  0  0
  -24.1050  -13.1130   20.8440 C   0  0  0  0  0  0  0  0  0  0  0  0
  -24.5770  -11.7640   20.8310 C   0  0  0  0  0  0  0  0  0  0  0  0
  -26.2190  -13.0150   20.2620 N   0  0  0  0  0  0  0  0  0  0  0  0
  -25.8740  -11.7310   20.5410 N   0  0  0  0  0  0  0  0  0  0  0  0
  -23.8490  -10.5010   21.0190 C   0  0  0  0  0  0  0  0  0  0  0  0
  -24.2670   -9.5410   21.9670 C   0  0  0  0  0  3  0  0  0  0  0  0
  -23.5380   -8.3460   22.1450 C   0  0  0  0  0  3  0  0  0  0  0  0
  -22.3750   -8.1010   21.3750 C   0  0  0  0  0  0  0  0  0  0  0  0
  -21.9760   -9.0510   20.4180 C   0  0  0  0  0  3  0  0  0  0  0  0
  -22.7060  -10.2370   20.2390 C   0  0  0  0  0  3  0  0  0  0  0  0
  -21.6190   -6.9580   21.4630 O   0  0  0  0  0  0  0  0  0  0  0  0
  -21.5520   -6.2250   22.6200 C   0  0  0  0  0  0  0  0  0  0  0  0
  -21.1020   -6.7880   23.8350 C   0  0  0  0  0  3  0  0  0  0  0  0
  -20.9840   -5.9810   24.9830 C   0  0  0  0  0  3  0  0  0  0  0  0
  -21.3040   -4.6120   24.9190 C   0  0  0  0  0  0  0  0  0  0  0  0
  -21.7450   -4.0480   23.7100 C   0  0  0  0  0  3  0  0  0  0  0  0
  -21.8660   -4.8520   22.5630 C   0  0  0  0  0  0  0  0  0  0  0  0
  -22.2710   -4.2990   21.3950 F   0  0  0  0  0  0  0  0  0  0  0  0
  -21.1820   -3.8350   26.0220 F   0  0  0  0  0  0  0  0  0  0  0  0
  -22.7030  -13.5890   21.0830 C   0  0  0  0  0  0  0  0  0  0  0  0
  -21.9580  -12.9010   21.9410 N   0  0  0  0  0  0  0  0  0  0  0  0
  -22.2750  -14.6090   20.5440 O   0  0  0  0  0  0  0  0  0  0  0  0
  -22.3160  -12.0770   22.4020 H   0  0  0  0  0  0  0  0  0  0  0  0
  -21.0150  -13.2050   22.1410 H   0  0  0  0  0  0  0  0  0  0  0  0
  -25.3280  -15.2580   20.2960 N   0  0  0  0  0  0  0  0  0  0  0  0
  -24.5550  -15.9080   20.3980 H   0  0  0  0  0  0  0  0  0  0  0  0
  -26.1780  -15.7030   19.9780 H   0  0  0  0  0  0  0  0  0  0  0  0
  -32.1800  -23.0340   17.3310 C   0  0  0  0  0  2  0  0  0  0  0  0
  -31.5700  -22.7780   18.7110 C   0  0  0  0  0  2  0  0  0  0  0  0
  -30.9600  -22.3220   16.7370 C   0  0  0  0  0  2  0  0  0  0  0  0
  -30.1890  -22.6580   18.0330 C   0  0  0  0  0  3  0  0  0  0  0  0
  -28.8260  -22.9890   20.5910 C   0  0  0  0  0  2  0  0  0  0  0  0
  -28.0110  -24.4400   20.0160 C   0  0  0  0  0  2  0  0  0  0  0  0
  -28.2160  -26.0080   20.3150 O   0  0  0  0  0  0  0  0  0  0  0  0
  -24.6330  -31.8570   23.2390 C   0  0  0  0  0  0  0  0  0  0  0  0
  -27.1900  -27.0550   20.2160 C   0  0  0  0  0  0  0  0  0  0  0  0
  -23.4310  -30.4600   21.6040 C   0  0  0  0  0  3  0  0  0  0  0  0
  -24.8770  -28.8710   20.1730 C   0  0  0  0  0  0  0  0  0  0  0  0
  -25.9910  -30.6980   21.4420 C   0  0  0  0  0  2  0  0  0  0  0  0
  -26.0620  -29.2970   20.7880 C   0  0  0  0  0  0  0  0  0  0  0  0
  -27.2140  -28.4060   20.7910 C   0  0  0  0  0  3  0  0  0  0  0  0
  -25.9830  -26.7630   19.5450 C   0  0  0  0  0  3  0  0  0  0  0  0
  -24.8580  -27.6220   19.5330 C   0  0  0  0  0  3  0  0  0  0  0  0
  -23.6520  -29.7770   20.2270 C   0  0  0  0  0  2  0  0  0  0  0  0
  -24.7060  -31.0300   22.1490 N   0  0  0  0  0  0  0  0  0  0  0  0
  -23.5480  -32.1440   23.7670 O   0  0  0  0  0  0  0  0  0  0  0  0
  -22.7480  -29.4590   22.5720 C   0  0  0  0  0  0  0  0  0  0  0  0
  -21.4200  -29.2880   22.4490 N   0  0  0  0  0  0  0  0  0  0  0  0
  -23.4200  -28.8360   23.3980 O   0  0  0  0  0  0  0  0  0  0  0  0
  -20.9330  -29.8410   21.7560 H   0  0  0  0  0  0  0  0  0  0  0  0
  -18.0420  -28.0720   22.9540 C   0  0  0  0  0  0  0  0  0  0  0  0
  -20.6000  -28.3520   23.2230 C   0  0  0  0  0  3  0  0  0  0  0  0
  -20.7100  -26.9170   22.6560 C   0  0  0  0  0  2  0  0  0  0  0  0
  -19.6120  -26.5830   21.6410 C   0  0  0  0  0  2  0  0  0  0  0  0
  -18.2280  -26.7220   22.2820 C   0  0  0  0  0  2  0  0  0  0  0  0
  -19.1560  -28.8440   23.3810 C   0  0  0  0  0  0  0  0  0  0  0  0
  -18.9260  -30.1060   23.9710 C   0  0  0  0  0  3  0  0  0  0  0  0
  -17.6170  -30.5960   24.1380 C   0  0  0  0  0  3  0  0  0  0  0  0
  -16.5190  -29.8210   23.7250 C   0  0  0  0  0  3  0  0  0  0  0  0
  -16.7330  -28.5620   23.1390 C   0  0  0  0  0  3  0  0  0  0  0  0
  -25.9100  -32.4960   23.8650 C   0  0  0  0  0  3  0  0  0  0  0  0
  -26.4220  -31.7300   25.1470 C   0  0  1  0  0  0  0  0  0  0  0  0
  -25.3260  -31.5010   26.2150 C   0  0  0  0  0  1  0  0  0  0  0  0
  -27.0040  -30.3480   24.7710 C   0  0  0  0  0  1  0  0  0  0  0  0
  -27.5740  -32.5250   25.8070 C   0  0  0  0  0  1  0  0  0  0  0  0
  -25.5960  -33.8960   24.2000 N   0  0  0  0  0  0  0  0  0  0  0  0
  -25.9220  -34.9550   23.4480 C   0  0  0  0  0  0  0  0  0  0  0  0
  -26.5840  -34.8590   22.4120 O   0  0  0  0  0  0  0  0  0  0  0  0
  -25.0070  -34.0440   25.0060 H   0  0  0  0  0  0  0  0  0  0  0  0
  -24.1900  -36.7540   23.1280 C   0  0  0  0  0  1  0  0  0  0  0  0
  -25.4410  -36.3430   23.9200 C   0  0  0  0  0  3  0  0  0  0  0  0
  -27.5850  -37.2290   24.7280 C   0  0  0  0  0  1  0  0  0  0  0  0
  -26.4720  -37.3970   23.7980 N   0  0  0  0  0  0  0  0  0  0  0  0
  -26.0670  -38.3170   23.9520 H   0  0  0  0  0  0  0  0  0  0  0  0
  1  2  1  0
  2 50  1  0
  3  1  2  0
  4 17  1  0
  5 10  1  0
  6  7  1  0
  6  5  1  0
  8  7  1  0
  8 21  1  0
  8  9  1  0
 10  4  1  0
 10  9  1  0
 11  4  2  0
 12 16  1  0
 12 14  1  0
 13 16  1  0
 15 13  1  0
 15 17  1  0
 16  2  1  0
 17 14  1  0
 18 19  2  0
 19 38  1  0
 20 19  1  0
 20 23  1  0
 21 18  1  0
 21 22  1  0
 22 20  2  0
 23 24  1  0
 24 25  2  0
 26 29  1  0
 26 25  1  0
 27 26  2  0
 28 27  1  0
 28 23  2  0
 29 30  1  0
 30 31  1  0
 31 32  2  0
 33 32  1  0
 33 37  1  0
 34 33  2  0
 35 30  2  0
 35 34  1  0
 36 35  1  0
 38 39  1  0
 39 42  1  0
 39 41  1  0
 40 38  2  0
 43 44  1  0
 43 18  1  0
 45 43  1  0
 46 47  1  0
 48 46  1  0
 48 49  1  0
 49  1  1  0
 49 47  1  0
 51 52  1  0
 51 50  1  0
 53 64  2  0
 54 52  1  0
 54 59  1  0
 55 63  1  0
 55 65  1  0
 56 62  1  0
 56 58  1  0
 57 63  1  0
 58 59  2  0
 58 57  1  0
 60 54  2  0
 61 60  1  0
 61 56  2  0
 62 55  1  0
 63 53  1  0
 65 67  2  0
 66 65  1  0
 68 66  1  0
 69 78  2  0
 69 74  1  0
 70 66  1  0
 70 74  1  0
 71 70  1  0
 72 73  1  0
 72 71  1  0
 73 69  1  0
 74 75  2  0
 75 76  1  0
 77 76  2  0
 78 77  1  0
 79 53  1  0
 79 84  1  0
 79 80  1  0
 80 83  1  1
 80 81  1  0
 82 80  1  0
 84 87  1  0
 85 89  1  0
 85 84  1  0
 86 85  2  0
 89 88  1  0
 91 89  1  0
 91 92  1  0
 91 90  1  0
M  ISO  4   4 100  17 100  51 101  52 101
M  END
>  <TORSDO>  (13) 
F 19

>  <SCORE>  (13) 
-15.141

>  <name>  (13) 
12

>  <ligand_id>  (13) 
12

>  <original_smiles>  (13) 
[H]c1c([H])c([H])c2c(c1[H])C([H])([H])C([H])([H])C([H])([H])C2([H])N([H])C(=O)C1([H])N(C(=O)C([H])(N([H])C(=O)C([H])(N([H])C([H])([H])[H])C([H])([H])[H])C(C([H])([H])[H])(C([H])([H])[H])C([H])([H])[H])C([H])([H])c2c([H])c(OC([H])([H])C([H])([H])N(C(=O)C3([H])C([H])([H])C([H])([H])C3([H])[H])C3([H])C([H])([H])C([H])([H])N(C(=O)N4C([H])([H])C([H])([H])C([H])([H])C([H])(n5nc(-c6c([H])c([H])c(Oc7c([H])c([H])c(F)c([H])c7F)c([H])c6[H])c(C(=O)N([H])[H])c5N([H])[H])C4([H])[H])C([H])([H])C3([H])[H])c([H])c([H])c2C1([H])[H]

>  <smiles>  (13) 
[H]c1c([H])c([H])c2c(c1[H])C([H])([H])C([H])([H])C([H])([H])C2([H])N([H])C(=O)C1([H])N(C(=O)C([H])(N([H])C(=O)C([H])(N([H])C([H])([H])[H])C([H])([H])[H])C(C([H])([H])[H])(C([H])([H])[H])C([H])([H])[H])C([H])([H])c2c([H])c(OC([H])([H])C([H])([H])N(C(=O)C3([H])C([H])([H])C([H])([H])C3([H])[H])C3([H])C([H])([H])C([H])([H])N(C(=O)N4C([H])([H])C([H])([H])C([H])([H])C([H])(n5nc(-c6c([H])c([H])c(Oc7c([H])c([H])c(F)c([H])c7F)c([H])c6[H])c(C(=O)N([H])[H])c5N([H])[H])C4([H])[H])C([H])([H])C3([H])[H])c([H])c([H])c2C1([H])[H]

$$$$
13:0:0
     RDKit          3D

 95104  0  0  1  0  0  0  0  0999 V2000
  -28.9500  -23.4640   22.9080 C   0  0  0  0  0  2  0  0  0  0  0  0
  -29.0740  -24.8290   22.1970 C   0  0  0  0  0  2  0  0  0  0  0  0
  -29.3110  -22.2590   22.0090 C   0  0  0  0  0  2  0  0  0  0  0  0
  -28.2690  -23.5460   20.1140 C   0  0  0  0  0  3  0  0  0  0  0  0
  -28.0950  -24.9630   21.0210 C   0  0  0  0  0  3  0  0  0  0  0  0
  -28.4380  -22.1200   20.8120 N   0  0  1  0  0  4  0  0  0  0  0  0
  -27.5180  -21.9210   21.1720 H   0  0  0  0  0  0  0  0  0  0  0  0
  -24.9340  -23.4640   17.3160 C   0  0  0  0  0  3  0  0  0  0  0  0
  -24.6980  -23.3240   18.6970 C   0  0  0  0  0  3  0  0  0  0  0  0
  -26.2550  -23.5820   16.8380 C   0  0  0  0  0  3  0  0  0  0  0  0
  -25.7800  -23.3200   19.5970 C   0  0  0  0  0  3  0  0  0  0  0  0
  -27.3360  -23.5870   17.7410 C   0  0  0  0  0  3  0  0  0  0  0  0
  -27.1060  -23.4730   19.1280 C   0  0  0  0  0  0  0  0  0  0  0  0
  -28.2560  -26.4390   20.5420 O   0  0  0  0  0  0  0  0  0  0  0  0
  -24.5950  -32.1580   23.4360 C   0  0  0  0  0  0  0  0  0  0  0  0
  -27.1830  -27.3950   20.5200 C   0  0  0  0  0  0  0  0  0  0  0  0
  -23.4060  -30.7400   21.8060 C   0  0  0  0  0  3  0  0  0  0  0  0
  -24.8630  -29.1370   20.4250 C   0  0  0  0  0  0  0  0  0  0  0  0
  -25.9610  -31.0020   21.6580 C   0  0  0  0  0  2  0  0  0  0  0  0
  -26.0360  -29.5970   21.0350 C   0  0  0  0  0  0  0  0  0  0  0  0
  -27.2000  -28.7430   21.0610 C   0  0  0  0  0  3  0  0  0  0  0  0
  -25.9860  -27.0290   19.8730 C   0  0  0  0  0  3  0  0  0  0  0  0
  -24.8490  -27.8660   19.8260 C   0  0  0  0  0  3  0  0  0  0  0  0
  -23.6390  -30.0410   20.4400 C   0  0  0  0  0  2  0  0  0  0  0  0
  -24.6730  -31.3220   22.3560 N   0  0  0  0  0  0  0  0  0  0  0  0
  -23.5060  -32.4510   23.9510 O   0  0  0  0  0  0  0  0  0  0  0  0
  -22.7150  -29.7490   22.7760 C   0  0  0  0  0  0  0  0  0  0  0  0
  -21.3920  -29.5660   22.6270 N   0  0  0  0  0  0  0  0  0  0  0  0
  -23.3760  -29.1480   23.6280 O   0  0  0  0  0  0  0  0  0  0  0  0
  -20.9170  -30.1010   21.9140 H   0  0  0  0  0  0  0  0  0  0  0  0
  -18.0230  -28.3030   23.0390 C   0  0  0  0  0  0  0  0  0  0  0  0
  -20.5610  -28.6400   23.4020 C   0  0  0  0  0  3  0  0  0  0  0  0
  -20.7210  -27.1890   22.8930 C   0  0  0  0  0  2  0  0  0  0  0  0
  -19.6720  -26.7980   21.8480 C   0  0  0  0  0  2  0  0  0  0  0  0
  -18.2600  -26.9330   22.4260 C   0  0  0  0  0  2  0  0  0  0  0  0
  -19.1030  -29.1110   23.4840 C   0  0  0  0  0  0  0  0  0  0  0  0
  -18.8260  -30.3890   24.0170 C   0  0  0  0  0  3  0  0  0  0  0  0
  -17.5030  -30.8600   24.1100 C   0  0  0  0  0  3  0  0  0  0  0  0
  -16.4360  -30.0500   23.6800 C   0  0  0  0  0  3  0  0  0  0  0  0
  -16.6980  -28.7730   23.1510 C   0  0  0  0  0  3  0  0  0  0  0  0
  -25.8690  -32.7970   24.0680 C   0  0  0  0  0  3  0  0  0  0  0  0
  -26.3440  -32.0660   25.3830 C   0  0  1  0  0  0  0  0  0  0  0  0
  -25.2150  -31.8550   26.4210 C   0  0  0  0  0  1  0  0  0  0  0  0
  -26.9440  -30.6800   25.0530 C   0  0  0  0  0  1  0  0  0  0  0  0
  -27.4720  -32.8820   26.0580 C   0  0  0  0  0  1  0  0  0  0  0  0
  -25.5720  -34.2110   24.3470 N   0  0  0  0  0  0  0  0  0  0  0  0
  -25.9350  -35.2370   23.5670 C   0  0  0  0  0  0  0  0  0  0  0  0
  -26.6210  -35.0920   22.5510 O   0  0  0  0  0  0  0  0  0  0  0  0
  -24.9630  -34.3980   25.1310 H   0  0  0  0  0  0  0  0  0  0  0  0
  -24.2330  -37.0410   23.1370 C   0  0  0  0  0  1  0  0  0  0  0  0
  -25.4620  -36.6470   23.9730 C   0  0  0  0  0  3  0  0  0  0  0  0
  -27.6010  -37.5330   24.7940 C   0  0  0  0  0  1  0  0  0  0  0  0
  -26.5090  -37.6830   23.8350 N   0  0  0  0  0  0  0  0  0  0  0  0
  -26.1140  -38.6120   23.9500 H   0  0  0  0  0  0  0  0  0  0  0  0
  -28.8430  -20.8020   20.0040 C   0  0  0  0  0  2  0  0  0  0  0  0
  -28.7650  -19.2150   20.6090 C   0  0  0  0  0  3  0  0  0  0  0  0
  -29.6920  -17.9000   20.0670 C   0  0  0  0  0  3  0  0  0  0  0  0
  -30.3310  -15.2280   20.2620 C   0  0  0  0  0  0  0  0  0  0  0  0
  -30.3290  -12.8630   19.3540 C   0  0  0  0  0  2  0  0  0  0  0  0
  -29.3810  -12.7560   18.1370 C   0  0  0  0  0  2  0  0  0  0  0  0
  -27.9390  -12.4790   18.5970 C   0  0  0  0  0  2  0  0  0  0  0  0
  -27.5000  -13.3930   19.7710 C   0  0  0  0  0  3  0  0  0  0  0  0
  -28.5680  -13.4700   20.8810 C   0  0  0  0  0  2  0  0  0  0  0  0
  -29.8090  -13.9380   20.2500 N   0  0  0  0  0  0  0  0  0  0  0  0
  -31.5140  -15.3600   19.9260 O   0  0  0  0  0  0  0  0  0  0  0  0
  -29.4930  -16.3700   20.4310 N   0  0  0  0  0  0  0  0  0  0  0  0
  -28.5520  -16.1300   20.7070 H   0  0  0  0  0  0  0  0  0  0  0  0
  -25.1200  -13.8570   20.5920 C   0  0  0  0  0  0  0  0  0  0  0  0
  -24.0970  -13.0290   20.9640 C   0  0  0  0  0  0  0  0  0  0  0  0
  -24.6130  -11.6990   20.8780 C   0  0  0  0  0  0  0  0  0  0  0  0
  -26.1880  -13.0270   20.2920 N   0  0  0  0  0  0  0  0  0  0  0  0
  -25.8930  -11.7230   20.5280 N   0  0  0  0  0  0  0  0  0  0  0  0
  -23.9400  -10.4040   21.0480 C   0  0  0  0  0  0  0  0  0  0  0  0
  -24.4010   -9.4480   21.9800 C   0  0  0  0  0  3  0  0  0  0  0  0
  -23.7210   -8.2210   22.1420 C   0  0  0  0  0  3  0  0  0  0  0  0
  -22.5710   -7.9390   21.3670 C   0  0  0  0  0  0  0  0  0  0  0  0
  -22.1290   -8.8850   20.4270 C   0  0  0  0  0  3  0  0  0  0  0  0
  -22.8090  -10.1020   20.2630 C   0  0  0  0  0  3  0  0  0  0  0  0
  -21.8700   -6.7580   21.4300 O   0  0  0  0  0  0  0  0  0  0  0  0
  -21.8010   -6.0240   22.5860 C   0  0  0  0  0  0  0  0  0  0  0  0
  -21.2650   -6.5590   23.7770 C   0  0  0  0  0  3  0  0  0  0  0  0
  -21.1450   -5.7490   24.9230 C   0  0  0  0  0  3  0  0  0  0  0  0
  -21.5590   -4.4030   24.8810 C   0  0  0  0  0  0  0  0  0  0  0  0
  -22.0920   -3.8670   23.6960 C   0  0  0  0  0  3  0  0  0  0  0  0
  -22.2100   -4.6740   22.5510 C   0  0  0  0  0  0  0  0  0  0  0  0
  -22.7030   -4.1480   21.4050 F   0  0  0  0  0  0  0  0  0  0  0  0
  -21.4390   -3.6230   25.9800 F   0  0  0  0  0  0  0  0  0  0  0  0
  -22.6920  -13.4430   21.2850 C   0  0  0  0  0  0  0  0  0  0  0  0
  -22.0110  -12.6930   22.1430 N   0  0  0  0  0  0  0  0  0  0  0  0
  -22.2060  -14.4690   20.8130 O   0  0  0  0  0  0  0  0  0  0  0  0
  -22.4210  -11.8680   22.5550 H   0  0  0  0  0  0  0  0  0  0  0  0
  -21.0700  -12.9520   22.3970 H   0  0  0  0  0  0  0  0  0  0  0  0
  -25.2230  -15.2400   20.4600 N   0  0  0  0  0  0  0  0  0  0  0  0
  -24.4270  -15.8440   20.6300 H   0  0  0  0  0  0  0  0  0  0  0  0
  -26.0250  -15.7330   20.0880 H   0  0  0  0  0  0  0  0  0  0  0  0
  2  1  1  0
  3  1  1  0
  4 13  1  0
  4  6  1  0
  4  5  1  0
  5 14  1  0
  5  2  1  0
  6  7  1  1
  6  3  1  0
  8  9  1  0
  9 11  2  0
 10  8  2  0
 10 12  1  0
 12 13  2  0
 13 11  1  0
 15 26  2  0
 16 14  1  0
 16 21  1  0
 17 25  1  0
 17 27  1  0
 18 24  1  0
 18 20  1  0
 19 25  1  0
 20 21  2  0
 20 19  1  0
 22 16  2  0
 23 22  1  0
 23 18  2  0
 24 17  1  0
 25 15  1  0
 27 29  2  0
 28 27  1  0
 30 28  1  0
 31 40  2  0
 31 36  1  0
 32 28  1  0
 32 36  1  0
 33 32  1  0
 34 35  1  0
 34 33  1  0
 35 31  1  0
 36 37  2  0
 37 38  1  0
 39 38  2  0
 40 39  1  0
 41 15  1  0
 41 46  1  0
 41 42  1  0
 42 45  1  1
 42 43  1  0
 44 42  1  0
 46 49  1  0
 47 51  1  0
 47 46  1  0
 48 47  2  0
 51 50  1  0
 53 54  1  0
 53 51  1  0
 53 52  1  0
 55 56  1  0
 55  6  1  0
 57 66  1  0
 57 56  2  0
 58 66  1  0
 59 64  1  0
 60 61  1  0
 60 59  1  0
 62 61  1  0
 62 71  1  0
 62 63  1  0
 64 58  1  0
 64 63  1  0
 65 58  2  0
 66 67  1  0
 68 69  2  0
 69 88  1  0
 70 69  1  0
 70 73  1  0
 71 72  1  0
 71 68  1  0
 72 70  2  0
 73 74  1  0
 74 75  2  0
 76 79  1  0
 76 75  1  0
 77 76  2  0
 78 77  1  0
 78 73  2  0
 79 80  1  0
 80 81  1  0
 81 82  2  0
 83 82  1  0
 83 87  1  0
 84 83  2  0
 85 80  2  0
 85 84  1  0
 86 85  1  0
 88 89  1  0
 89 92  1  0
 89 91  1  0
 90 88  2  0
 93 68  1  0
 93 94  1  0
 95 93  1  0
M  ISO  4   5 101  14 101  58 100  66 100
M  END
>  <TORSDO>  (14) 
F 20

>  <SCORE>  (14) 
-13.949

>  <name>  (14) 
13

>  <ligand_id>  (14) 
13

>  <original_smiles>  (14) 
[H]c1c([H])c([H])c(C2([H])C([H])(Oc3c([H])c([H])c4c(c3[H])C([H])([H])N(C(=O)C([H])(N([H])C(=O)C([H])(N([H])C([H])([H])[H])C([H])([H])[H])C(C([H])([H])[H])(C([H])([H])[H])C([H])([H])[H])C([H])(C(=O)N([H])C3([H])c5c([H])c([H])c([H])c([H])c5C([H])([H])C([H])([H])C3([H])[H])C4([H])[H])C([H])([H])C([H])([H])C([H])([H])[N+]2([H])C([H])([H])C([H])([H])C([H])([H])N([H])C(=O)N2C([H])([H])C([H])([H])C([H])([H])C([H])(n3nc(-c4c([H])c([H])c(Oc5c([H])c([H])c(F)c([H])c5F)c([H])c4[H])c(C(=O)N([H])[H])c3N([H])[H])C2([H])[H])c([H])c1[H]

>  <smiles>  (14) 
[H]c1c([H])c([H])c(C2([H])C([H])(Oc3c([H])c([H])c4c(c3[H])C([H])([H])N(C(=O)C([H])(N([H])C(=O)C([H])(N([H])C([H])([H])[H])C([H])([H])[H])C(C([H])([H])[H])(C([H])([H])[H])C([H])([H])[H])C([H])(C(=O)N([H])C3([H])c5c([H])c([H])c([H])c([H])c5C([H])([H])C([H])([H])C3([H])[H])C4([H])[H])C([H])([H])C([H])([H])C([H])([H])[N+]2([H])C([H])([H])C([H])([H])C([H])([H])N([H])C(=O)N2C([H])([H])C([H])([H])C([H])([H])C([H])(n3nc(-c4c([H])c([H])c(Oc5c([H])c([H])c(F)c([H])c5F)c([H])c4[H])c(C(=O)N([H])[H])c3N([H])[H])C2([H])[H])c([H])c1[H]

$$$$
14:0:0
     RDKit          3D

 97106  0  0  1  0  0  0  0  0999 V2000
  -27.2220  -21.0660   18.6240 C   0  0  0  0  0  2  0  0  0  0  0  0
  -26.4160  -21.4560   20.9740 C   0  0  0  0  0  2  0  0  0  0  0  0
  -28.0520  -22.3680   18.6400 C   0  0  0  0  0  2  0  0  0  0  0  0
  -26.4210  -22.9180   20.4710 C   0  0  0  0  0  2  0  0  0  0  0  0
  -27.0700  -20.4380   20.0260 C   0  0  0  0  0  3  0  0  0  0  0  0
  -27.6630  -23.3250   19.7340 N   0  0  2  0  0  4  0  0  0  0  0  0
  -28.4030  -23.3180   20.4240 H   0  0  0  0  0  0  0  0  0  0  0  0
  -28.3690  -19.8790   20.6380 C   0  0  0  0  0  2  0  0  0  0  0  0
  -28.6700  -18.4970   20.0890 C   0  0  0  0  0  2  0  0  0  0  0  0
  -30.3740  -16.8020   20.1060 C   0  0  0  0  0  0  0  0  0  0  0  0
  -29.9680  -17.9970   20.5420 N   0  0  0  0  0  0  0  0  0  0  0  0
  -29.6450  -16.1660   19.3510 O   0  0  0  0  0  0  0  0  0  0  0  0
  -30.5430  -18.5380   21.1850 H   0  0  0  0  0  0  0  0  0  0  0  0
  -31.7150  -14.2990   19.0350 C   0  0  0  0  0  0  0  0  0  0  0  0
  -30.8730  -12.2120   18.0240 C   0  0  0  0  0  2  0  0  0  0  0  0
  -29.7290  -12.4650   17.0340 C   0  0  0  0  0  2  0  0  0  0  0  0
  -28.3800  -12.4380   17.7710 C   0  0  0  0  0  2  0  0  0  0  0  0
  -28.3700  -13.4000   18.9790 C   0  0  0  0  0  3  0  0  0  0  0  0
  -29.6220  -13.1810   19.8830 C   0  0  0  0  0  2  0  0  0  0  0  0
  -30.8440  -13.2540   19.0630 N   0  0  0  0  0  0  0  0  0  0  0  0
  -32.3960  -14.5790   18.0460 O   0  0  0  0  0  0  0  0  0  0  0  0
  -34.1150  -16.1080   20.3090 C   0  0  0  0  0  2  0  0  0  0  0  0
  -32.9280  -17.0410   20.0610 C   0  0  0  0  0  2  0  0  0  0  0  0
  -33.4920  -14.7150   20.5140 C   0  0  0  0  0  2  0  0  0  0  0  0
  -31.7380  -16.2310   20.5930 C   0  0  0  0  0  3  0  0  0  0  0  0
  -32.0450  -14.8140   20.2480 N   0  0  0  0  0  0  0  0  0  0  0  0
  -26.3290  -14.3200   20.2650 C   0  0  0  0  0  0  0  0  0  0  0  0
  -25.2260  -13.7040   20.7840 C   0  0  0  0  0  0  0  0  0  0  0  0
  -25.4030  -12.3070   20.5290 C   0  0  0  0  0  0  0  0  0  0  0  0
  -27.1190  -13.3110   19.7310 N   0  0  0  0  0  0  0  0  0  0  0  0
  -26.5720  -12.0880   19.9460 N   0  0  0  0  0  0  0  0  0  0  0  0
  -24.5060  -11.1690   20.7590 C   0  0  0  0  0  0  0  0  0  0  0  0
  -24.8790  -10.0990   21.6020 C   0  0  0  0  0  3  0  0  0  0  0  0
  -23.9990   -9.0200   21.8240 C   0  0  0  0  0  3  0  0  0  0  0  0
  -22.7280   -9.0050   21.2040 C   0  0  0  0  0  0  0  0  0  0  0  0
  -22.3690  -10.0610   20.3490 C   0  0  0  0  0  3  0  0  0  0  0  0
  -23.2480  -11.1320   20.1240 C   0  0  0  0  0  3  0  0  0  0  0  0
  -21.8210   -7.9840   21.3360 O   0  0  0  0  0  0  0  0  0  0  0  0
  -21.7230   -7.2510   22.4910 C   0  0  0  0  0  0  0  0  0  0  0  0
  -21.3850   -7.8490   23.7230 C   0  0  0  0  0  3  0  0  0  0  0  0
  -21.2290   -7.0500   24.8740 C   0  0  0  0  0  3  0  0  0  0  0  0
  -21.4000   -5.6550   24.7920 C   0  0  0  0  0  0  0  0  0  0  0  0
  -21.7300   -5.0580   23.5640 C   0  0  0  0  0  3  0  0  0  0  0  0
  -21.8880   -5.8540   22.4150 C   0  0  0  0  0  0  0  0  0  0  0  0
  -22.1870   -5.2730   21.2280 F   0  0  0  0  0  0  0  0  0  0  0  0
  -21.2430   -4.8840   25.8940 F   0  0  0  0  0  0  0  0  0  0  0  0
  -24.0260  -14.3620   21.4090 C   0  0  0  0  0  0  0  0  0  0  0  0
  -23.4230  -13.7200   22.4020 N   0  0  0  0  0  0  0  0  0  0  0  0
  -23.6450  -15.4760   21.0490 O   0  0  0  0  0  0  0  0  0  0  0  0
  -23.7450  -12.8160   22.7170 H   0  0  0  0  0  0  0  0  0  0  0  0
  -22.6320  -14.1430   22.8660 H   0  0  0  0  0  0  0  0  0  0  0  0
  -26.7370  -15.6470   20.1960 N   0  0  0  0  0  0  0  0  0  0  0  0
  -26.2210  -16.3960   20.6440 H   0  0  0  0  0  0  0  0  0  0  0  0
  -27.7070  -15.8710   19.9880 H   0  0  0  0  0  0  0  0  0  0  0  0
  -27.5160  -24.7460   19.2980 C   0  0  0  0  0  3  0  0  0  0  0  0
  -28.7780  -25.6620   19.1610 C   0  0  0  0  0  3  0  0  0  0  0  0
  -28.6290  -27.1060   18.9110 O   0  0  0  0  0  0  0  0  0  0  0  0
  -24.4070  -31.3250   22.8610 C   0  0  0  0  0  0  0  0  0  0  0  0
  -27.4110  -27.7570   19.0250 C   0  0  0  0  0  0  0  0  0  0  0  0
  -23.4920  -29.8110   21.1420 C   0  0  0  0  0  3  0  0  0  0  0  0
  -24.8830  -29.0210   19.2620 C   0  0  0  0  0  0  0  0  0  0  0  0
  -25.7800  -30.7980   20.8200 C   0  0  0  0  0  2  0  0  0  0  0  0
  -26.0100  -29.5820   19.9070 C   0  0  0  0  0  0  0  0  0  0  0  0
  -27.2700  -28.9360   19.8100 C   0  0  0  0  0  3  0  0  0  0  0  0
  -26.2800  -27.3150   18.3030 C   0  0  0  0  0  3  0  0  0  0  0  0
  -25.0180  -27.8770   18.4730 C   0  0  0  0  0  3  0  0  0  0  0  0
  -23.5100  -29.5700   19.6170 C   0  0  0  0  0  2  0  0  0  0  0  0
  -24.5170  -30.7640   21.6260 N   0  0  0  0  0  0  0  0  0  0  0  0
  -23.3290  -31.3410   23.4720 O   0  0  0  0  0  0  0  0  0  0  0  0
  -22.7740  -28.7780   22.0300 C   0  0  0  0  0  0  0  0  0  0  0  0
  -21.4990  -28.4810   21.7760 N   0  0  0  0  0  0  0  0  0  0  0  0
  -23.4100  -28.1400   22.8880 O   0  0  0  0  0  0  0  0  0  0  0  0
  -20.9990  -28.9860   21.0550 H   0  0  0  0  0  0  0  0  0  0  0  0
  -18.3490  -26.7560   22.1100 C   0  0  0  0  0  0  0  0  0  0  0  0
  -20.8340  -27.3330   22.3930 C   0  0  0  0  0  3  0  0  0  0  0  0
  -21.1430  -26.0310   21.6200 C   0  0  0  0  0  2  0  0  0  0  0  0
  -20.0730  -25.6930   20.5810 C   0  0  0  0  0  2  0  0  0  0  0  0
  -18.7010  -25.5500   21.2470 C   0  0  0  0  0  2  0  0  0  0  0  0
  -19.3550  -27.6020   22.6300 C   0  0  0  0  0  0  0  0  0  0  0  0
  -18.9970  -28.7270   23.3990 C   0  0  0  0  0  3  0  0  0  0  0  0
  -17.6440  -29.0130   23.6590 C   0  0  0  0  0  3  0  0  0  0  0  0
  -16.6410  -28.1600   23.1570 C   0  0  0  0  0  3  0  0  0  0  0  0
  -16.9980  -27.0350   22.3890 C   0  0  0  0  0  3  0  0  0  0  0  0
  -25.6290  -32.0180   23.5350 C   0  0  0  0  0  3  0  0  0  0  0  0
  -25.1890  -33.3450   23.9810 N   0  0  0  0  0  0  0  0  0  0  0  0
  -25.4740  -34.4900   23.3460 C   0  0  0  0  0  0  0  0  0  0  0  0
  -26.2000  -34.5410   22.3530 O   0  0  0  0  0  0  0  0  0  0  0  0
  -24.5320  -33.3730   24.7460 H   0  0  0  0  0  0  0  0  0  0  0  0
  -23.6330  -36.1790   23.0580 C   0  0  0  0  0  1  0  0  0  0  0  0
  -24.8520  -35.7840   23.9030 C   0  0  0  0  0  3  0  0  0  0  0  0
  -26.8590  -36.7340   24.9540 C   0  0  0  0  0  1  0  0  0  0  0  0
  -25.8040  -36.9150   23.9610 N   0  0  0  0  0  0  0  0  0  0  0  0
  -25.3160  -37.7830   24.1680 H   0  0  0  0  0  0  0  0  0  0  0  0
  -26.2190  -31.1890   24.7410 C   0  0  1  0  0  0  0  0  0  0  0  0
  -25.1580  -30.7870   25.7930 C   0  0  0  0  0  1  0  0  0  0  0  0
  -26.9150  -29.9020   24.2400 C   0  0  0  0  0  1  0  0  0  0  0  0
  -27.3050  -32.0230   25.4610 C   0  0  0  0  0  1  0  0  0  0  0  0
  1  3  1  0
  1  5  1  0
  3  6  1  0
  4  2  1  0
  5  8  1  0
  5  2  1  0
  6  7  1  1
  6  4  1  0
  9 11  1  0
  9  8  1  0
 10 11  1  0
 11 13  1  0
 12 10  2  0
 14 20  1  0
 14 26  1  0
 15 20  1  0
 16 17  1  0
 16 15  1  0
 18 17  1  0
 18 30  1  0
 18 19  1  0
 20 19  1  0
 21 14  2  0
 22 24  1  0
 23 22  1  0
 23 25  1  0
 25 10  1  0
 26 24  1  0
 26 25  1  0
 27 28  2  0
 28 47  1  0
 29 32  1  0
 29 28  1  0
 30 31  1  0
 30 27  1  0
 31 29  2  0
 32 33  1  0
 33 34  2  0
 35 38  1  0
 35 34  1  0
 36 35  2  0
 37 36  1  0
 37 32  2  0
 38 39  1  0
 39 40  1  0
 40 41  2  0
 42 41  1  0
 42 46  1  0
 43 42  2  0
 44 39  2  0
 44 43  1  0
 45 44  1  0
 47 48  1  0
 48 50  1  0
 48 51  1  0
 49 47  2  0
 52 27  1  0
 52 53  1  0
 54 52  1  0
 55  6  1  0
 56 55  2  0
 57 59  1  0
 57 56  1  0
 58 69  2  0
 59 64  1  0
 60 68  1  0
 60 70  1  0
 61 67  1  0
 61 63  1  0
 62 68  1  0
 63 62  1  0
 64 63  2  0
 65 66  1  0
 65 59  2  0
 66 61  2  0
 67 60  1  0
 68 58  1  0
 70 72  2  0
 71 70  1  0
 73 71  1  0
 74 83  2  0
 74 79  1  0
 75 71  1  0
 75 79  1  0
 76 75  1  0
 77 78  1  0
 77 76  1  0
 78 74  1  0
 79 80  2  0
 80 81  1  0
 82 81  2  0
 83 82  1  0
 84 58  1  0
 84 85  1  0
 84 94  1  0
 85 88  1  0
 86 90  1  0
 86 85  1  0
 87 86  2  0
 90 89  1  0
 90 92  1  0
 92 93  1  0
 92 91  1  0
 94 97  1  1
 94 95  1  0
 96 94  1  0
M  ISO  4  14 100  26 100  56 101  57 101
M  END
>  <TORSDO>  (15) 
F 21

>  <SCORE>  (15) 
-4.793

>  <name>  (15) 
14

>  <ligand_id>  (15) 
14

>  <original_smiles>  (15) 
[H]c1c([H])c([H])c2c(c1[H])C([H])([H])C([H])([H])C([H])([H])C2([H])N([H])C(=O)C1([H])N(C(=O)C([H])(N([H])C(=O)C([H])(N([H])C([H])([H])[H])C([H])([H])[H])C(C([H])([H])[H])(C([H])([H])[H])C([H])([H])[H])C([H])([H])c2c([H])c(OC([H])([H])C([H])([H])[N+]3([H])C([H])([H])C([H])([H])C([H])(C([H])([H])C([H])([H])N([H])C(=O)C4([H])N(C(=O)N5C([H])([H])C([H])([H])C([H])([H])C([H])(n6nc(-c7c([H])c([H])c(Oc8c([H])c([H])c(F)c([H])c8F)c([H])c7[H])c(C(=O)N([H])[H])c6N([H])[H])C5([H])[H])C([H])([H])C([H])([H])C4([H])[H])C([H])([H])C3([H])[H])c([H])c([H])c2C1([H])[H]

>  <smiles>  (15) 
[H]c1c([H])c([H])c2c(c1[H])C([H])([H])C([H])([H])C([H])([H])C2([H])N([H])C(=O)C1([H])N(C(=O)C([H])(N([H])C(=O)C([H])(N([H])C([H])([H])[H])C([H])([H])[H])C(C([H])([H])[H])(C([H])([H])[H])C([H])([H])[H])C([H])([H])c2c([H])c(OC([H])([H])C([H])([H])[N+]3([H])C([H])([H])C([H])([H])C([H])(C([H])([H])C([H])([H])N([H])C(=O)C4([H])N(C(=O)N5C([H])([H])C([H])([H])C([H])([H])C([H])(n6nc(-c7c([H])c([H])c(Oc8c([H])c([H])c(F)c([H])c8F)c([H])c7[H])c(C(=O)N([H])[H])c6N([H])[H])C5([H])[H])C([H])([H])C([H])([H])C4([H])[H])C([H])([H])C3([H])[H])c([H])c([H])c2C1([H])[H]

$$$$
16:0:0
     RDKit          3D

 95103  0  0  1  0  0  0  0  0999 V2000
  -29.8710  -22.6460   20.2380 N   0  0  1  0  0  4  0  0  0  0  0  0
  -30.0290  -22.7240   21.2320 H   0  0  0  0  0  0  0  0  0  0  0  0
  -30.5850  -14.8970   19.8450 C   0  0  0  0  0  0  0  0  0  0  0  0
  -30.4130  -12.6450   18.7100 C   0  0  0  0  0  2  0  0  0  0  0  0
  -29.3450  -12.7210   17.5910 C   0  0  0  0  0  2  0  0  0  0  0  0
  -27.9240  -12.4980   18.1480 C   0  0  0  0  0  2  0  0  0  0  0  0
  -27.6560  -13.3270   19.4300 C   0  0  0  0  0  3  0  0  0  0  0  0
  -28.8170  -13.1720   20.4390 C   0  0  0  0  0  2  0  0  0  0  0  0
  -30.0510  -13.6200   19.7670 N   0  0  0  0  0  0  0  0  0  0  0  0
  -31.6560  -15.1720   19.2860 O   0  0  0  0  0  0  0  0  0  0  0  0
  -29.5370  -17.2960   20.8330 C   0  0  0  0  0  0  0  0  0  0  0  0
  -30.1460  -20.4270   18.6590 C   0  0  0  0  0  2  0  0  0  0  0  0
  -30.3850  -18.8830   18.9220 C   0  0  0  0  0  2  0  0  0  0  0  0
  -29.3140  -19.9110   20.8160 C   0  0  0  0  0  2  0  0  0  0  0  0
  -30.0600  -21.0800   20.0560 C   0  0  0  0  0  3  0  0  0  0  0  0
  -29.7900  -18.5570   20.2380 N   0  0  0  0  0  0  0  0  0  0  0  0
  -29.7570  -15.9160   20.5880 N   0  0  0  0  0  0  0  0  0  0  0  0
  -28.8220  -17.4460   21.9650 N   0  0  0  0  0  4  0  0  0  0  0  0
  -29.0200  -15.4630   21.0930 H   0  0  0  0  0  0  0  0  0  0  0  0
  -28.5260  -18.3660   22.2560 H   0  0  0  0  0  0  0  0  0  0  0  0
  -28.6300  -16.6990   22.6170 H   0  0  0  0  0  0  0  0  0  0  0  0
  -25.3390  -13.8840   20.3850 C   0  0  0  0  0  0  0  0  0  0  0  0
  -24.3130  -13.0930   20.8260 C   0  0  0  0  0  0  0  0  0  0  0  0
  -24.7750  -11.7460   20.7080 C   0  0  0  0  0  0  0  0  0  0  0  0
  -26.3590  -13.0180   20.0250 N   0  0  0  0  0  0  0  0  0  0  0  0
  -26.0320  -11.7240   20.2800 N   0  0  0  0  0  0  0  0  0  0  0  0
  -24.0720  -10.4730   20.9220 C   0  0  0  0  0  0  0  0  0  0  0  0
  -24.5440   -9.5160   21.8470 C   0  0  0  0  0  3  0  0  0  0  0  0
  -23.8410   -8.3090   22.0490 C   0  0  0  0  0  3  0  0  0  0  0  0
  -22.6530   -8.0510   21.3260 C   0  0  0  0  0  0  0  0  0  0  0  0
  -22.1990   -8.9970   20.3910 C   0  0  0  0  0  3  0  0  0  0  0  0
  -22.9040  -10.1960   20.1870 C   0  0  0  0  0  3  0  0  0  0  0  0
  -21.9190   -6.8940   21.4370 O   0  0  0  0  0  0  0  0  0  0  0  0
  -21.8360   -6.2050   22.6200 C   0  0  0  0  0  0  0  0  0  0  0  0
  -21.3400   -6.8040   23.7990 C   0  0  0  0  0  3  0  0  0  0  0  0
  -21.2060   -6.0400   24.9750 C   0  0  0  0  0  3  0  0  0  0  0  0
  -21.5600   -4.6770   24.9730 C   0  0  0  0  0  0  0  0  0  0  0  0
  -22.0510   -4.0780   23.8000 C   0  0  0  0  0  3  0  0  0  0  0  0
  -22.1850   -4.8400   22.6260 C   0  0  0  0  0  0  0  0  0  0  0  0
  -22.6380   -4.2520   21.4930 F   0  0  0  0  0  0  0  0  0  0  0  0
  -21.4260   -3.9410   26.1020 F   0  0  0  0  0  0  0  0  0  0  0  0
  -22.9440  -13.5530   21.2390 C   0  0  0  0  0  0  0  0  0  0  0  0
  -22.3080  -12.8370   22.1590 N   0  0  0  0  0  0  0  0  0  0  0  0
  -22.4510  -14.5820   20.7810 O   0  0  0  0  0  0  0  0  0  0  0  0
  -22.7210  -12.0040   22.5520 H   0  0  0  0  0  0  0  0  0  0  0  0
  -21.3940  -13.1270   22.4760 H   0  0  0  0  0  0  0  0  0  0  0  0
  -25.4810  -15.2600   20.2390 N   0  0  0  0  0  0  0  0  0  0  0  0
  -24.7110  -15.8940   20.4260 H   0  0  0  0  0  0  0  0  0  0  0  0
  -26.2600  -15.7130   19.7800 H   0  0  0  0  0  0  0  0  0  0  0  0
  -31.0620  -23.3670   19.7030 C   0  0  0  0  0  2  0  0  0  0  0  0
  -32.6550  -25.3490   20.0180 C   0  0  0  0  0  1  0  0  0  0  0  0
  -31.5030  -24.5310   20.6150 C   0  0  0  0  0  2  0  0  0  0  0  0
  -28.5530  -23.4790   20.0940 C   0  0  0  0  0  2  0  0  0  0  0  0
  -28.4780  -25.0370   19.4850 C   0  0  0  0  0  2  0  0  0  0  0  0
  -28.3290  -26.3820   20.1980 O   0  0  0  0  0  0  0  0  0  0  0  0
  -24.6110  -31.8880   23.2170 C   0  0  0  0  0  0  0  0  0  0  0  0
  -27.2120  -27.2720   20.1130 C   0  0  0  0  0  0  0  0  0  0  0  0
  -23.4010  -30.4910   21.5830 C   0  0  0  0  0  3  0  0  0  0  0  0
  -24.8460  -28.9430   20.1330 C   0  0  0  0  0  0  0  0  0  0  0  0
  -25.9450  -30.7950   21.3870 C   0  0  0  0  0  2  0  0  0  0  0  0
  -26.0230  -29.4120   20.7260 C   0  0  0  0  0  0  0  0  0  0  0  0
  -27.2010  -28.5890   20.7070 C   0  0  0  0  0  3  0  0  0  0  0  0
  -26.0010  -26.8780   19.5000 C   0  0  0  0  0  3  0  0  0  0  0  0
  -24.8430  -27.6860   19.5090 C   0  0  0  0  0  3  0  0  0  0  0  0
  -23.6090  -29.8220   20.1990 C   0  0  0  0  0  2  0  0  0  0  0  0
  -24.6720  -31.0780   22.1180 N   0  0  0  0  0  0  0  0  0  0  0  0
  -23.5290  -32.1600   23.7600 O   0  0  0  0  0  0  0  0  0  0  0  0
  -22.7440  -29.4730   22.5460 C   0  0  0  0  0  0  0  0  0  0  0  0
  -21.4180  -29.2870   22.4260 N   0  0  0  0  0  0  0  0  0  0  0  0
  -23.4300  -28.8510   23.3640 O   0  0  0  0  0  0  0  0  0  0  0  0
  -20.9230  -29.8380   21.7410 H   0  0  0  0  0  0  0  0  0  0  0  0
  -18.0550  -28.0500   22.9380 C   0  0  0  0  0  0  0  0  0  0  0  0
  -20.6100  -28.3400   23.2000 C   0  0  0  0  0  3  0  0  0  0  0  0
  -20.7270  -26.9090   22.6260 C   0  0  0  0  0  2  0  0  0  0  0  0
  -19.6270  -26.5740   21.6150 C   0  0  0  0  0  2  0  0  0  0  0  0
  -18.2450  -26.7030   22.2620 C   0  0  0  0  0  2  0  0  0  0  0  0
  -19.1650  -28.8250   23.3650 C   0  0  0  0  0  0  0  0  0  0  0  0
  -18.9320  -30.0850   23.9590 C   0  0  0  0  0  3  0  0  0  0  0  0
  -17.6220  -30.5690   24.1290 C   0  0  0  0  0  3  0  0  0  0  0  0
  -16.5260  -29.7910   23.7180 C   0  0  0  0  0  3  0  0  0  0  0  0
  -16.7430  -28.5330   23.1290 C   0  0  0  0  0  3  0  0  0  0  0  0
  -25.8940  -32.5260   23.8330 C   0  0  0  0  0  3  0  0  0  0  0  0
  -26.4230  -31.7540   25.1040 C   0  0  1  0  0  0  0  0  0  0  0  0
  -25.3390  -31.5070   26.1780 C   0  0  0  0  0  1  0  0  0  0  0  0
  -27.0120  -30.3820   24.7060 C   0  0  0  0  0  1  0  0  0  0  0  0
  -27.5740  -32.5530   25.7610 C   0  0  0  0  0  1  0  0  0  0  0  0
  -25.5760  -33.9220   24.1760 N   0  0  0  0  0  0  0  0  0  0  0  0
  -25.8930  -34.9830   23.4230 C   0  0  0  0  0  0  0  0  0  0  0  0
  -26.5510  -34.8930   22.3830 O   0  0  0  0  0  0  0  0  0  0  0  0
  -24.9900  -34.0650   24.9860 H   0  0  0  0  0  0  0  0  0  0  0  0
  -24.1500  -36.7710   23.1110 C   0  0  0  0  0  1  0  0  0  0  0  0
  -25.4060  -36.3660   23.9000 C   0  0  0  0  0  3  0  0  0  0  0  0
  -27.5460  -37.2610   24.7070 C   0  0  0  0  0  1  0  0  0  0  0  0
  -26.4310  -37.4270   23.7790 N   0  0  0  0  0  0  0  0  0  0  0  0
  -26.0200  -38.3440   23.9370 H   0  0  0  0  0  0  0  0  0  0  0  0
  1  2  1  1
  3 17  1  0
  4  9  1  0
  5  6  1  0
  5  4  1  0
  7  6  1  0
  7 25  1  0
  7  8  1  0
  9  3  1  0
  9  8  1  0
 10  3  2  0
 11 18  2  0
 12 13  1  0
 12 15  1  0
 13 16  1  0
 15  1  1  0
 15 14  1  0
 16 14  1  0
 16 11  1  0
 17 11  1  0
 17 19  1  0
 18 20  1  0
 18 21  1  0
 22 23  2  0
 23 42  1  0
 24 23  1  0
 24 27  1  0
 25 26  1  0
 25 22  1  0
 26 24  2  0
 27 28  1  0
 28 29  2  0
 30 33  1  0
 30 29  1  0
 31 30  2  0
 32 31  1  0
 32 27  2  0
 33 34  1  0
 34 39  2  0
 34 35  1  0
 35 36  2  0
 37 36  1  0
 37 41  1  0
 38 37  2  0
 39 38  1  0
 40 39  1  0
 42 43  1  0
 43 46  1  0
 43 45  1  0
 44 42  2  0
 47 22  1  0
 47 48  1  0
 49 47  1  0
 50  1  1  0
 50 52  1  0
 51 52  1  0
 53  1  1  0
 54 53  1  0
 54 55  1  0
 56 67  2  0
 57 55  1  0
 57 62  1  0
 58 66  1  0
 58 68  1  0
 59 65  1  0
 59 61  1  0
 60 66  1  0
 61 60  1  0
 62 61  2  0
 63 64  1  0
 63 57  2  0
 64 59  2  0
 65 58  1  0
 66 56  1  0
 68 70  2  0
 69 68  1  0
 71 69  1  0
 72 81  2  0
 72 77  1  0
 73 69  1  0
 73 77  1  0
 74 73  1  0
 75 76  1  0
 75 74  1  0
 76 72  1  0
 77 78  2  0
 78 79  1  0
 80 79  2  0
 81 80  1  0
 82 56  1  0
 82 87  1  0
 82 83  1  0
 83 86  1  1
 83 84  1  0
 85 83  1  0
 87 90  1  0
 88 92  1  0
 88 87  1  0
 89 88  2  0
 92 91  1  0
 94 92  1  0
 94 95  1  0
 94 93  1  0
M  ISO  4   3 100  17 100  54 101  55 101
M  END
>  <TORSDO>  (16) 
F 20

>  <SCORE>  (16) 
-12.429

>  <name>  (16) 
16

>  <ligand_id>  (16) 
16

>  <original_smiles>  (16) 
[H]c1c([H])c([H])c2c(c1[H])C([H])([H])C([H])([H])C([H])([H])C2([H])N([H])C(=O)C1([H])N(C(=O)C([H])(N([H])C(=O)C([H])(N([H])C([H])([H])[H])C([H])([H])[H])C(C([H])([H])[H])(C([H])([H])[H])C([H])([H])[H])C([H])([H])c2c([H])c(OC([H])([H])C([H])([H])[N+]([H])(C([H])([H])C([H])([H])C([H])([H])[H])C3([H])C([H])([H])N(C(N([H])C(=O)N4C([H])([H])C([H])([H])C([H])([H])C([H])(n5nc(-c6c([H])c([H])c(Oc7c([H])c([H])c(F)c([H])c7F)c([H])c6[H])c(C(=O)N([H])[H])c5N([H])[H])C4([H])[H])=[N+]([H])[H])C([H])([H])C3([H])[H])c([H])c([H])c2C1([H])[H]

>  <smiles>  (16) 
[H]c1c([H])c([H])c2c(c1[H])C([H])([H])C([H])([H])C([H])([H])C2([H])N([H])C(=O)C1([H])N(C(=O)C([H])(N([H])C(=O)C([H])(N([H])C([H])([H])[H])C([H])([H])[H])C(C([H])([H])[H])(C([H])([H])[H])C([H])([H])[H])C([H])([H])c2c([H])c(OC([H])([H])C([H])([H])[N+]([H])(C([H])([H])C([H])([H])C([H])([H])[H])C3([H])C([H])([H])N(C(N([H])C(=O)N4C([H])([H])C([H])([H])C([H])([H])C([H])(n5nc(-c6c([H])c([H])c(Oc7c([H])c([H])c(F)c([H])c7F)c([H])c6[H])c(C(=O)N([H])[H])c5N([H])[H])C4([H])[H])=[N+]([H])[H])C([H])([H])C3([H])[H])c([H])c([H])c2C1([H])[H]

$$$$
17:0:0
     RDKit          3D

 95103  0  0  1  0  0  0  0  0999 V2000
  -31.1200  -15.6390   20.5670 C   0  0  0  0  0  0  0  0  0  0  0  0
  -31.0700  -13.1990   19.8140 C   0  0  0  0  0  2  0  0  0  0  0  0
  -30.2670  -12.9590   18.5110 C   0  0  0  0  0  2  0  0  0  0  0  0
  -28.7670  -12.7750   18.8120 C   0  0  0  0  0  2  0  0  0  0  0  0
  -28.2270  -13.8030   19.8400 C   0  0  0  0  0  3  0  0  0  0  0  0
  -29.1670  -14.0010   21.0410 C   0  0  0  0  0  2  0  0  0  0  0  0
  -30.4870  -14.3820   20.5190 N   0  0  0  0  0  0  0  0  0  0  0  0
  -32.3560  -15.7010   20.5410 O   0  0  0  0  0  0  0  0  0  0  0  0
  -30.4100  -18.5050   20.0640 C   0  0  0  0  0  0  0  0  0  0  0  0
  -29.9360  -19.3090   21.3140 C   0  0  0  0  0  3  0  0  0  0  0  0
  -30.8000  -19.6320   19.0230 C   0  0  0  0  0  2  0  0  0  0  0  0
  -30.0800  -20.9650   21.2690 C   0  0  0  0  0  2  0  0  0  0  0  0
  -29.9260  -21.0140   18.8800 C   0  0  0  0  0  2  0  0  0  0  0  0
  -29.4140  -21.9090   20.1180 C   0  0  1  0  0  0  0  0  0  0  0  0
  -30.3740  -17.1390   19.7840 N   0  0  0  0  0  0  0  0  0  0  0  0
  -25.8260  -14.4460   20.3990 C   0  0  0  0  0  0  0  0  0  0  0  0
  -24.7110  -13.7030   20.6620 C   0  0  0  0  0  0  0  0  0  0  0  0
  -25.1380  -12.3380   20.6610 C   0  0  0  0  0  0  0  0  0  0  0  0
  -26.8560  -13.5360   20.2390 N   0  0  0  0  0  0  0  0  0  0  0  0
  -26.4500  -12.2620   20.4690 N   0  0  0  0  0  0  0  0  0  0  0  0
  -24.3610  -11.0990   20.7730 C   0  0  0  0  0  0  0  0  0  0  0  0
  -24.7590  -10.0520   21.6330 C   0  0  0  0  0  3  0  0  0  0  0  0
  -23.9830   -8.8790   21.7370 C   0  0  0  0  0  3  0  0  0  0  0  0
  -22.7950   -8.7440   20.9800 C   0  0  0  0  0  0  0  0  0  0  0  0
  -22.4170   -9.7790   20.1060 C   0  0  0  0  0  3  0  0  0  0  0  0
  -23.1940  -10.9440   19.9990 C   0  0  0  0  0  3  0  0  0  0  0  0
  -21.9910   -7.6300   20.9980 O   0  0  0  0  0  0  0  0  0  0  0  0
  -22.0010   -6.7540   22.0530 C   0  0  0  0  0  0  0  0  0  0  0  0
  -21.7700   -7.1800   23.3790 C   0  0  0  0  0  3  0  0  0  0  0  0
  -21.7200   -6.2370   24.4240 C   0  0  0  0  0  3  0  0  0  0  0  0
  -21.8920   -4.8670   24.1460 C   0  0  0  0  0  0  0  0  0  0  0  0
  -22.1180   -4.4400   22.8250 C   0  0  0  0  0  3  0  0  0  0  0  0
  -22.1690   -5.3810   21.7810 C   0  0  0  0  0  0  0  0  0  0  0  0
  -22.3660   -4.9620   20.5090 F   0  0  0  0  0  0  0  0  0  0  0  0
  -21.8360   -3.9580   25.1470 F   0  0  0  0  0  0  0  0  0  0  0  0
  -23.3110  -14.2230   20.8060 C   0  0  0  0  0  0  0  0  0  0  0  0
  -22.5020  -13.5800   21.6410 N   0  0  0  0  0  0  0  0  0  0  0  0
  -22.9430  -15.2360   20.2140 O   0  0  0  0  0  0  0  0  0  0  0  0
  -22.8100  -12.7600   22.1430 H   0  0  0  0  0  0  0  0  0  0  0  0
  -21.5600  -13.9150   21.7830 H   0  0  0  0  0  0  0  0  0  0  0  0
  -26.0470  -15.8140   20.2540 N   0  0  0  0  0  0  0  0  0  0  0  0
  -25.2910  -16.4860   20.3210 H   0  0  0  0  0  0  0  0  0  0  0  0
  -26.9380  -16.2470   20.0480 H   0  0  0  0  0  0  0  0  0  0  0  0
  -27.8670  -21.7560   20.2030 C   0  0  0  0  0  2  0  0  0  0  0  0
  -27.1390  -22.7090   21.1820 C   0  0  0  0  0  2  0  0  0  0  0  0
  -25.7470  -22.9700   20.7730 N   0  0  0  0  0  4  0  0  0  0  0  0
  -25.7070  -23.4070   19.8690 H   0  0  0  0  0  0  0  0  0  0  0  0
  -25.3090  -23.5870   21.4340 H   0  0  0  0  0  0  0  0  0  0  0  0
  -25.2140  -22.1190   20.7440 H   0  0  0  0  0  0  0  0  0  0  0  0
  -29.7170  -23.6390   20.1050 C   0  0  0  0  0  2  0  0  0  0  0  0
  -28.7210  -25.0140   19.7160 C   0  0  0  0  0  2  0  0  0  0  0  0
  -28.8370  -26.5550   20.1220 O   0  0  0  0  0  0  0  0  0  0  0  0
  -24.7580  -31.8590   23.3830 C   0  0  0  0  0  0  0  0  0  0  0  0
  -27.7350  -27.5170   20.0880 C   0  0  0  0  0  0  0  0  0  0  0  0
  -23.7110  -30.5390   21.5850 C   0  0  0  0  0  3  0  0  0  0  0  0
  -25.3080  -29.1670   20.0970 C   0  0  0  0  0  0  0  0  0  0  0  0
  -26.2530  -30.9490   21.5550 C   0  0  0  0  0  2  0  0  0  0  0  0
  -26.4380  -29.6170   20.7930 C   0  0  0  0  0  0  0  0  0  0  0  0
  -27.6490  -28.8120   20.7670 C   0  0  0  0  0  3  0  0  0  0  0  0
  -26.5710  -27.1890   19.3590 C   0  0  0  0  0  3  0  0  0  0  0  0
  -25.3930  -27.9730   19.3640 C   0  0  0  0  0  3  0  0  0  0  0  0
  -24.0290  -29.9910   20.1670 C   0  0  0  0  0  2  0  0  0  0  0  0
  -24.9250  -31.1360   22.2310 N   0  0  0  0  0  0  0  0  0  0  0  0
  -23.6360  -32.0340   23.8840 O   0  0  0  0  0  0  0  0  0  0  0  0
  -23.0550  -29.4200   22.4340 C   0  0  0  0  0  0  0  0  0  0  0  0
  -21.7430  -29.1890   22.2420 N   0  0  0  0  0  0  0  0  0  0  0  0
  -23.7310  -28.7660   23.2310 O   0  0  0  0  0  0  0  0  0  0  0  0
  -21.2510  -29.7730   21.5810 H   0  0  0  0  0  0  0  0  0  0  0  0
  -18.4220  -27.7650   22.5250 C   0  0  0  0  0  0  0  0  0  0  0  0
  -20.9530  -28.1430   22.8990 C   0  0  0  0  0  3  0  0  0  0  0  0
  -21.1530  -26.7760   22.2030 C   0  0  0  0  0  2  0  0  0  0  0  0
  -20.1000  -26.4860   21.1280 C   0  0  0  0  0  2  0  0  0  0  0  0
  -18.6950  -26.4950   21.7360 C   0  0  0  0  0  2  0  0  0  0  0  0
  -19.4820  -28.5460   23.0580 C   0  0  0  0  0  0  0  0  0  0  0  0
  -19.1720  -29.7310   23.7580 C   0  0  0  0  0  3  0  0  0  0  0  0
  -17.8370  -30.1400   23.9280 C   0  0  0  0  0  3  0  0  0  0  0  0
  -16.7900  -29.3570   23.4100 C   0  0  0  0  0  3  0  0  0  0  0  0
  -17.0840  -28.1700   22.7160 C   0  0  0  0  0  3  0  0  0  0  0  0
  -25.9670  -32.5170   24.1160 C   0  0  0  0  0  3  0  0  0  0  0  0
  -26.3450  -31.7860   25.4640 C   0  0  1  0  0  0  0  0  0  0  0  0
  -25.1500  -31.5980   26.4270 C   0  0  0  0  0  1  0  0  0  0  0  0
  -26.9460  -30.3900   25.1840 C   0  0  0  0  0  1  0  0  0  0  0  0
  -27.4360  -32.5930   26.2090 C   0  0  0  0  0  1  0  0  0  0  0  0
  -25.6230  -33.9250   24.3790 N   0  0  0  0  0  0  0  0  0  0  0  0
  -26.0000  -34.9610   23.6180 C   0  0  0  0  0  0  0  0  0  0  0  0
  -26.7380  -34.8320   22.6370 O   0  0  0  0  0  0  0  0  0  0  0  0
  -24.9760  -34.0970   25.1340 H   0  0  0  0  0  0  0  0  0  0  0  0
  -24.2970  -36.7400   23.0980 C   0  0  0  0  0  1  0  0  0  0  0  0
  -25.4800  -36.3600   24.0030 C   0  0  0  0  0  3  0  0  0  0  0  0
  -27.5470  -37.2810   24.9580 C   0  0  0  0  0  1  0  0  0  0  0  0
  -26.5150  -37.4140   23.9330 N   0  0  0  0  0  0  0  0  0  0  0  0
  -26.0980  -38.3370   24.0220 H   0  0  0  0  0  0  0  0  0  0  0  0
  -30.0870  -16.8250   18.3480 C   0  0  0  0  0  2  0  0  0  0  0  0
  -31.0140  -17.3500   16.0150 C   0  0  0  0  0  1  0  0  0  0  0  0
  -31.3360  -16.8770   17.4380 C   0  0  0  0  0  2  0  0  0  0  0  0
  2  7  1  0
  3  4  1  0
  3  2  1  0
  5  4  1  0
  5 19  1  0
  5  6  1  0
  7  1  1  0
  7  6  1  0
  8  1  2  0
  9 10  2  0
 11  9  1  0
 12 10  1  0
 13 11  1  0
 13 14  1  0
 14 50  1  6
 14 44  1  0
 14 12  1  0
 15  9  1  0
 15  1  1  0
 16 17  2  0
 17 36  1  0
 18 17  1  0
 18 21  1  0
 19 16  1  0
 19 20  1  0
 20 18  2  0
 21 22  1  0
 22 23  2  0
 24 27  1  0
 24 23  1  0
 25 24  2  0
 26 25  1  0
 26 21  2  0
 27 28  1  0
 28 29  1  0
 29 30  2  0
 31 30  1  0
 31 35  1  0
 32 31  2  0
 33 28  2  0
 33 32  1  0
 34 33  1  0
 36 37  1  0
 37 40  1  0
 37 39  1  0
 38 36  2  0
 41 42  1  0
 41 16  1  0
 43 41  1  0
 44 45  1  0
 46 45  1  0
 46 48  1  0
 47 46  1  0
 49 46  1  0
 51 50  1  0
 51 52  1  0
 53 64  2  0
 54 52  1  0
 54 59  1  0
 55 63  1  0
 55 65  1  0
 56 62  1  0
 56 58  1  0
 57 63  1  0
 58 57  1  0
 59 58  2  0
 60 61  1  0
 60 54  2  0
 61 56  2  0
 62 55  1  0
 63 53  1  0
 65 67  2  0
 66 65  1  0
 68 66  1  0
 69 78  2  0
 69 74  1  0
 70 66  1  0
 70 74  1  0
 71 70  1  0
 72 73  1  0
 72 71  1  0
 73 69  1  0
 74 75  2  0
 75 76  1  0
 77 76  2  0
 78 77  1  0
 79 53  1  0
 79 84  1  0
 79 80  1  0
 80 83  1  1
 80 81  1  0
 82 80  1  0
 84 87  1  0
 85 89  1  0
 85 84  1  0
 86 85  2  0
 89 88  1  0
 91 89  1  0
 91 92  1  0
 91 90  1  0
 93 15  1  0
 94 95  1  0
 95 93  1  0
M  ISO  4   1 100  15 100  51 101  52 101
M  END
>  <TORSDO>  (17) 
F 22

>  <SCORE>  (17) 
-12.095

>  <name>  (17) 
17

>  <ligand_id>  (17) 
17

>  <original_smiles>  (17) 
[H]c1c([H])c([H])c2c(c1[H])C([H])([H])C([H])([H])C([H])([H])C2([H])N([H])C(=O)C1([H])N(C(=O)C([H])(N([H])C(=O)C([H])(N([H])C([H])([H])[H])C([H])([H])[H])C(C([H])([H])[H])(C([H])([H])[H])C([H])([H])[H])C([H])([H])c2c([H])c(OC([H])([H])C([H])([H])C3(C([H])([H])C([H])([H])[N+]([H])([H])[H])C([H])([H])C([H])([H])C(=[N+](C(=O)N4C([H])([H])C([H])([H])C([H])([H])C([H])(n5nc(-c6c([H])c([H])c(Oc7c([H])c([H])c(F)c([H])c7F)c([H])c6[H])c(C(=O)N([H])[H])c5N([H])[H])C4([H])[H])C([H])([H])C([H])([H])C([H])([H])[H])C([H])([H])C3([H])[H])c([H])c([H])c2C1([H])[H]

>  <smiles>  (17) 
[H]c1c([H])c([H])c2c(c1[H])C([H])([H])C([H])([H])C([H])([H])C2([H])N([H])C(=O)C1([H])N(C(=O)C([H])(N([H])C(=O)C([H])(N([H])C([H])([H])[H])C([H])([H])[H])C(C([H])([H])[H])(C([H])([H])[H])C([H])([H])[H])C([H])([H])c2c([H])c(OC([H])([H])C([H])([H])C3(C([H])([H])C([H])([H])[N+]([H])([H])[H])C([H])([H])C([H])([H])C(=[N+](C(=O)N4C([H])([H])C([H])([H])C([H])([H])C([H])(n5nc(-c6c([H])c([H])c(Oc7c([H])c([H])c(F)c([H])c7F)c([H])c6[H])c(C(=O)N([H])[H])c5N([H])[H])C4([H])[H])C([H])([H])C([H])([H])C([H])([H])[H])C([H])([H])C3([H])[H])c([H])c([H])c2C1([H])[H]

$$$$
18:0:0
     RDKit          3D

104113  0  0  1  0  0  0  0  0999 V2000
  -29.8600  -16.6860   21.7570 C   0  0  0  0  0  2  0  0  0  0  0  0
  -30.3910  -17.6810   22.8190 C   0  0  0  0  0  2  0  0  0  0  0  0
  -31.8700  -18.7040   21.0890 C   0  0  0  0  0  2  0  0  0  0  0  0
  -31.2700  -17.7570   20.0070 C   0  0  0  0  0  3  0  0  0  0  0  0
  -30.8980  -16.3150   20.6610 C   0  0  2  0  0  0  0  0  0  0  0  0
  -30.9390  -18.9190   22.2210 N   0  0  0  0  0  4  0  0  0  0  0  0
  -31.4090  -19.4410   22.9440 H   0  0  0  0  0  0  0  0  0  0  0  0
  -30.1760  -19.4970   21.9130 H   0  0  0  0  0  0  0  0  0  0  0  0
  -30.7340  -14.2390   19.0330 C   0  0  0  0  0  0  0  0  0  0  0  0
  -30.0540  -12.1780   17.8160 C   0  0  0  0  0  2  0  0  0  0  0  0
  -28.8590  -12.5040   16.8960 C   0  0  0  0  0  2  0  0  0  0  0  0
  -27.5220  -12.3970   17.6580 C   0  0  0  0  0  2  0  0  0  0  0  0
  -27.5550  -13.1230   19.0310 C   0  0  0  0  0  3  0  0  0  0  0  0
  -28.8320  -12.7710   19.8210 C   0  0  0  0  0  2  0  0  0  0  0  0
  -29.9780  -13.0990   18.9630 N   0  0  0  0  0  0  0  0  0  0  0  0
  -31.7810  -14.3500   18.3930 O   0  0  0  0  0  0  0  0  0  0  0  0
  -30.2320  -15.2590   19.8030 N   0  0  0  0  0  0  0  0  0  0  0  0
  -29.2690  -15.0950   20.0550 H   0  0  0  0  0  0  0  0  0  0  0  0
  -25.4780  -13.7810   20.3900 C   0  0  0  0  0  0  0  0  0  0  0  0
  -24.4670  -13.0400   20.9360 C   0  0  0  0  0  0  0  0  0  0  0  0
  -24.7800  -11.6750   20.6540 C   0  0  0  0  0  0  0  0  0  0  0  0
  -26.3470  -12.8700   19.8110 N   0  0  0  0  0  0  0  0  0  0  0  0
  -25.9460  -11.5910   20.0270 N   0  0  0  0  0  0  0  0  0  0  0  0
  -24.0060  -10.4500   20.8910 C   0  0  0  0  0  0  0  0  0  0  0  0
  -24.4740   -9.4410   21.7620 C   0  0  0  0  0  3  0  0  0  0  0  0
  -23.7070   -8.2780   21.9900 C   0  0  0  0  0  3  0  0  0  0  0  0
  -22.4540   -8.1170   21.3480 C   0  0  0  0  0  0  0  0  0  0  0  0
  -22.0030   -9.1140   20.4650 C   0  0  0  0  0  3  0  0  0  0  0  0
  -22.7720  -10.2680   20.2350 C   0  0  0  0  0  3  0  0  0  0  0  0
  -21.6510   -7.0110   21.4910 O   0  0  0  0  0  0  0  0  0  0  0  0
  -21.5680   -6.3310   22.6790 C   0  0  0  0  0  0  0  0  0  0  0  0
  -21.1090   -6.9490   23.8630 C   0  0  0  0  0  3  0  0  0  0  0  0
  -20.9720   -6.1940   25.0440 C   0  0  0  0  0  3  0  0  0  0  0  0
  -21.2850   -4.8220   25.0430 C   0  0  0  0  0  0  0  0  0  0  0  0
  -21.7360   -4.2010   23.8640 C   0  0  0  0  0  3  0  0  0  0  0  0
  -21.8740   -4.9540   22.6850 C   0  0  0  0  0  0  0  0  0  0  0  0
  -22.2900   -4.3490   21.5460 F   0  0  0  0  0  0  0  0  0  0  0  0
  -21.1470   -4.0920   26.1750 F   0  0  0  0  0  0  0  0  0  0  0  0
  -23.2240  -13.5710   21.5900 C   0  0  0  0  0  0  0  0  0  0  0  0
  -22.6860  -12.8460   22.5640 N   0  0  0  0  0  0  0  0  0  0  0  0
  -22.7470  -14.6600   21.2690 O   0  0  0  0  0  0  0  0  0  0  0  0
  -23.0870  -11.9620   22.8440 H   0  0  0  0  0  0  0  0  0  0  0  0
  -21.8590  -13.1760   23.0400 H   0  0  0  0  0  0  0  0  0  0  0  0
  -25.7170  -15.1510   20.3160 N   0  0  0  0  0  0  0  0  0  0  0  0
  -25.0440  -15.8250   20.6650 H   0  0  0  0  0  0  0  0  0  0  0  0
  -26.4420  -15.5750   19.7520 H   0  0  0  0  0  0  0  0  0  0  0  0
  -30.2130  -18.5820   19.1370 C   0  0  0  0  0  2  0  0  0  0  0  0
  -29.5040  -19.9400   19.6310 C   0  0  0  0  0  2  0  0  0  0  0  0
  -29.7710  -22.3820   19.6950 C   0  0  0  0  0  3  0  0  0  0  0  0
  -30.3030  -21.1950   19.5390 N   0  0  0  0  0  0  0  0  0  0  0  0
  -31.3000  -23.5880   18.0990 C   0  0  0  0  0  2  0  0  0  0  0  0
  -29.3700  -24.9670   17.6630 C   0  0  0  0  0  2  0  0  0  0  0  0
  -30.5560  -23.7310   19.4500 C   0  0  0  0  0  3  0  0  0  0  0  0
  -29.8300  -25.1190   19.1200 C   0  0  0  0  0  3  0  0  0  0  0  0
  -30.3720  -24.0650   17.0440 N   0  0  0  0  0  4  0  0  0  0  0  0
  -29.9020  -23.2780   16.6220 H   0  0  0  0  0  0  0  0  0  0  0  0
  -30.8970  -24.5310   16.3190 H   0  0  0  0  0  0  0  0  0  0  0  0
  -29.3240  -26.1360   20.0710 O   0  0  0  0  0  0  0  0  0  0  0  0
  -25.0400  -31.0030   23.1820 C   0  0  0  0  0  0  0  0  0  0  0  0
  -28.1440  -26.8860   19.9450 C   0  0  0  0  0  0  0  0  0  0  0  0
  -24.0350  -29.6730   21.3610 C   0  0  0  0  0  3  0  0  0  0  0  0
  -25.6700  -28.3330   19.9170 C   0  0  0  0  0  0  0  0  0  0  0  0
  -26.5550  -30.1560   21.3770 C   0  0  0  0  0  2  0  0  0  0  0  0
  -26.7620  -28.8440   20.6260 C   0  0  0  0  0  0  0  0  0  0  0  0
  -27.9950  -28.1280   20.6380 C   0  0  0  0  0  3  0  0  0  0  0  0
  -27.0120  -26.4080   19.2470 C   0  0  0  0  0  3  0  0  0  0  0  0
  -25.7960  -27.1200   19.2250 C   0  0  0  0  0  3  0  0  0  0  0  0
  -24.3770  -29.1230   19.9500 C   0  0  0  0  0  2  0  0  0  0  0  0
  -25.2240  -30.2900   22.0320 N   0  0  0  0  0  0  0  0  0  0  0  0
  -23.9090  -31.1730   23.6620 O   0  0  0  0  0  0  0  0  0  0  0  0
  -23.3810  -28.5450   22.1930 C   0  0  0  0  0  0  0  0  0  0  0  0
  -22.0840  -28.2940   21.9540 N   0  0  0  0  0  0  0  0  0  0  0  0
  -24.0420  -27.9020   23.0130 O   0  0  0  0  0  0  0  0  0  0  0  0
  -21.6090  -28.8700   21.2730 H   0  0  0  0  0  0  0  0  0  0  0  0
  -18.7640  -26.8680   22.1240 C   0  0  0  0  0  0  0  0  0  0  0  0
  -21.2780  -27.2510   22.5900 C   0  0  0  0  0  3  0  0  0  0  0  0
  -21.5070  -25.8800   21.9120 C   0  0  0  0  0  2  0  0  0  0  0  0
  -20.4950  -25.5790   20.8020 C   0  0  0  0  0  2  0  0  0  0  0  0
  -19.0680  -25.5910   21.3580 C   0  0  0  0  0  2  0  0  0  0  0  0
  -19.8020  -27.6550   22.6880 C   0  0  0  0  0  0  0  0  0  0  0  0
  -19.4660  -28.8510   23.3590 C   0  0  0  0  0  3  0  0  0  0  0  0
  -18.1240  -29.2590   23.4770 C   0  0  0  0  0  3  0  0  0  0  0  0
  -17.1000  -28.4680   22.9300 C   0  0  0  0  0  3  0  0  0  0  0  0
  -17.4200  -27.2750   22.2580 C   0  0  0  0  0  3  0  0  0  0  0  0
  -26.2370  -31.6580   23.9370 C   0  0  0  0  0  3  0  0  0  0  0  0
  -26.6670  -30.8600   25.2290 C   0  0  1  0  0  0  0  0  0  0  0  0
  -25.4870  -30.5040   26.1640 C   0  0  0  0  0  1  0  0  0  0  0  0
  -27.3810  -29.5420   24.8490 C   0  0  0  0  0  1  0  0  0  0  0  0
  -27.6840  -31.6940   26.0450 C   0  0  0  0  0  1  0  0  0  0  0  0
  -25.8450  -33.0310   24.2850 N   0  0  0  0  0  0  0  0  0  0  0  0
  -26.1910  -34.1230   23.5880 C   0  0  0  0  0  0  0  0  0  0  0  0
  -26.9410  -34.0810   22.6100 O   0  0  0  0  0  0  0  0  0  0  0  0
  -25.1840  -33.1330   25.0400 H   0  0  0  0  0  0  0  0  0  0  0  0
  -24.4170  -35.8570   23.1610 C   0  0  0  0  0  1  0  0  0  0  0  0
  -25.6120  -35.4750   24.0500 C   0  0  0  0  0  3  0  0  0  0  0  0
  -27.6410  -36.4180   25.0620 C   0  0  0  0  0  1  0  0  0  0  0  0
  -26.6040  -36.5720   24.0460 N   0  0  0  0  0  0  0  0  0  0  0  0
  -26.1490  -37.4690   24.1900 H   0  0  0  0  0  0  0  0  0  0  0  0
  -32.1640  -15.6400   21.3290 C   0  0  0  0  0  2  0  0  0  0  0  0
  -31.9950  -14.1860   21.8660 C   0  0  0  0  0  2  0  0  0  0  0  0
  -33.2620  -13.4390   21.9240 N   0  0  0  0  0  4  0  0  0  0  0  0
  -33.6500  -13.3160   21.0050 H   0  0  0  0  0  0  0  0  0  0  0  0
  -33.0960  -12.5260   22.3090 H   0  0  0  0  0  0  0  0  0  0  0  0
  -33.9380  -13.8980   22.5090 H   0  0  0  0  0  0  0  0  0  0  0  0
  1  2  1  0
  3  6  1  0
  4 47  1  0
  4  5  1  0
  4  3  1  0
  5 99  1  1
  5  1  1  0
  6  2  1  0
  6  7  1  0
  8  6  1  0
  9 17  1  0
 10 15  1  0
 11 12  1  0
 11 10  1  0
 13 12  1  0
 13 22  1  0
 13 14  1  0
 15  9  1  0
 15 14  1  0
 16  9  2  0
 17 18  1  0
 17  5  1  0
 19 20  2  0
 20 39  1  0
 21 24  1  0
 21 20  1  0
 22 23  1  0
 22 19  1  0
 23 21  2  0
 24 25  1  0
 25 26  2  0
 27 30  1  0
 27 26  1  0
 28 27  2  0
 29 28  1  0
 29 24  2  0
 30 31  1  0
 31 36  2  0
 31 32  1  0
 32 33  2  0
 34 33  1  0
 34 38  1  0
 35 34  2  0
 36 35  1  0
 37 36  1  0
 39 40  1  0
 40 42  1  0
 40 43  1  0
 41 39  2  0
 44 19  1  0
 44 45  1  0
 46 44  1  0
 47 48  1  0
 50 48  1  0
 50 49  2  0
 51 53  1  0
 52 54  1  0
 53 49  1  0
 54 53  1  0
 54 58  1  0
 55 52  1  0
 55 51  1  0
 56 55  1  0
 57 55  1  0
 59 70  2  0
 60 58  1  0
 60 65  1  0
 61 69  1  0
 61 71  1  0
 62 68  1  0
 62 64  1  0
 63 69  1  0
 64 65  2  0
 64 63  1  0
 66 60  2  0
 67 66  1  0
 67 62  2  0
 68 61  1  0
 69 59  1  0
 71 73  2  0
 72 71  1  0
 74 72  1  0
 75 84  2  0
 75 80  1  0
 76 72  1  0
 76 80  1  0
 77 76  1  0
 78 79  1  0
 78 77  1  0
 79 75  1  0
 80 81  2  0
 81 82  1  0
 83 82  2  0
 84 83  1  0
 85 59  1  0
 85 90  1  0
 85 86  1  0
 86 89  1  1
 86 87  1  0
 88 86  1  0
 90 93  1  0
 91 95  1  0
 91 90  1  0
 92 91  2  0
 95 94  1  0
 97 95  1  0
 97 98  1  0
 97 96  1  0
 99100  1  0
100101  1  0
101103  1  0
101104  1  0
102101  1  0
M  ISO  4   9 100  17 100  54 101  58 101
M  END
>  <TORSDO>  (18) 
F 23

>  <SCORE>  (18) 
-7.342

>  <name>  (18) 
18

>  <ligand_id>  (18) 
18

>  <original_smiles>  (18) 
[H]C(=NC([H])([H])C([H])([H])C1([H])C(N([H])C(=O)N2C([H])([H])C([H])([H])C([H])([H])C([H])(n3nc(-c4c([H])c([H])c(Oc5c([H])c([H])c(F)c([H])c5F)c([H])c4[H])c(C(=O)N([H])[H])c3N([H])[H])C2([H])[H])(C([H])([H])C([H])([H])[N+]([H])([H])[H])C([H])([H])C([H])([H])[N+]([H])([H])C1([H])[H])C1([H])C([H])(Oc2c([H])c([H])c3c(c2[H])C([H])([H])N(C(=O)C([H])(N([H])C(=O)C([H])(N([H])C([H])([H])[H])C([H])([H])[H])C(C([H])([H])[H])(C([H])([H])[H])C([H])([H])[H])C([H])(C(=O)N([H])C2([H])c4c([H])c([H])c([H])c([H])c4C([H])([H])C([H])([H])C2([H])[H])C3([H])[H])C([H])([H])[N+]([H])([H])C1([H])[H]

>  <smiles>  (18) 
[H]C(=NC([H])([H])C([H])([H])C1([H])C(N([H])C(=O)N2C([H])([H])C([H])([H])C([H])([H])C([H])(n3nc(-c4c([H])c([H])c(Oc5c([H])c([H])c(F)c([H])c5F)c([H])c4[H])c(C(=O)N([H])[H])c3N([H])[H])C2([H])[H])(C([H])([H])C([H])([H])[N+]([H])([H])[H])C([H])([H])C([H])([H])[N+]([H])([H])C1([H])[H])C1([H])C([H])(Oc2c([H])c([H])c3c(c2[H])C([H])([H])N(C(=O)C([H])(N([H])C(=O)C([H])(N([H])C([H])([H])[H])C([H])([H])[H])C(C([H])([H])[H])(C([H])([H])[H])C([H])([H])[H])C([H])(C(=O)N([H])C2([H])c4c([H])c([H])c([H])c([H])c4C([H])([H])C([H])([H])C2([H])[H])C3([H])[H])C([H])([H])[N+]([H])([H])C1([H])[H]

$$$$
19:0:0
     RDKit          3D

 96105  0  0  1  0  0  0  0  0999 V2000
  -28.9820  -20.9670   21.6220 N   0  0  0  0  0  4  0  0  0  0  0  0
  -29.7890  -21.5700   21.5930 H   0  0  0  0  0  0  0  0  0  0  0  0
  -29.0270  -20.4140   22.4590 H   0  0  0  0  0  0  0  0  0  0  0  0
  -28.9950  -20.0530   20.4580 C   0  0  0  0  0  2  0  0  0  0  0  0
  -31.5600  -14.7210   19.3360 C   0  0  0  0  0  0  0  0  0  0  0  0
  -31.1000  -12.4900   18.3750 C   0  0  0  0  0  2  0  0  0  0  0  0
  -30.0040  -12.5760   17.2890 C   0  0  0  0  0  2  0  0  0  0  0  0
  -28.5980  -12.4870   17.9130 C   0  0  0  0  0  2  0  0  0  0  0  0
  -28.4150  -13.4550   19.1070 C   0  0  0  0  0  3  0  0  0  0  0  0
  -29.5970  -13.3170   20.0940 C   0  0  0  0  0  2  0  0  0  0  0  0
  -30.8490  -13.5590   19.3540 N   0  0  0  0  0  0  0  0  0  0  0  0
  -32.6010  -14.8670   18.6890 O   0  0  0  0  0  0  0  0  0  0  0  0
  -31.2300  -18.8940   20.9480 C   0  0  0  0  0  3  0  0  0  0  0  0
  -29.9260  -18.8470   20.5940 C   0  0  0  0  0  0  0  0  0  0  0  0
  -32.1560  -17.6860   21.1380 C   0  0  0  0  0  2  0  0  0  0  0  0
  -28.9800  -16.7500   21.5680 C   0  0  0  0  0  2  0  0  0  0  0  0
  -30.2900  -16.2970   22.2550 C   0  0  0  0  0  2  0  0  0  0  0  0
  -30.1320  -16.7130   19.2630 C   0  0  0  0  0  2  0  0  0  0  0  0
  -29.2600  -17.5240   20.2580 C   0  0  0  0  0  3  0  0  0  0  0  0
  -31.4760  -16.2870   21.2640 C   0  0  0  0  0  3  0  0  0  0  0  0
  -30.9870  -15.7640   19.9810 N   0  0  0  0  0  0  0  0  0  0  0  0
  -26.1980  -14.2290   20.1710 C   0  0  0  0  0  0  0  0  0  0  0  0
  -25.1280  -13.5290   20.6550 C   0  0  0  0  0  0  0  0  0  0  0  0
  -25.4600  -12.1480   20.4980 C   0  0  0  0  0  0  0  0  0  0  0  0
  -27.1240  -13.2780   19.7640 N   0  0  0  0  0  0  0  0  0  0  0  0
  -26.6890  -12.0200   20.0140 N   0  0  0  0  0  0  0  0  0  0  0  0
  -24.6590  -10.9410   20.7250 C   0  0  0  0  0  0  0  0  0  0  0  0
  -25.0490   -9.9610   21.6640 C   0  0  0  0  0  3  0  0  0  0  0  0
  -24.2540   -8.8160   21.8730 C   0  0  0  0  0  3  0  0  0  0  0  0
  -23.0550   -8.6430   21.1430 C   0  0  0  0  0  0  0  0  0  0  0  0
  -22.6850   -9.6080   20.1890 C   0  0  0  0  0  3  0  0  0  0  0  0
  -23.4820  -10.7460   19.9790 C   0  0  0  0  0  3  0  0  0  0  0  0
  -22.2320   -7.5480   21.2630 O   0  0  0  0  0  0  0  0  0  0  0  0
  -22.0110   -6.9440   22.4750 C   0  0  0  0  0  0  0  0  0  0  0  0
  -21.5330   -7.6640   23.5900 C   0  0  0  0  0  3  0  0  0  0  0  0
  -21.2550   -6.9890   24.7960 C   0  0  0  0  0  3  0  0  0  0  0  0
  -21.4460   -5.5980   24.8850 C   0  0  0  0  0  0  0  0  0  0  0  0
  -21.9190   -4.8780   23.7740 C   0  0  0  0  0  3  0  0  0  0  0  0
  -22.1990   -5.5510   22.5710 C   0  0  0  0  0  0  0  0  0  0  0  0
  -22.6340   -4.8510   21.4950 F   0  0  0  0  0  0  0  0  0  0  0  0
  -21.1730   -4.9470   26.0410 F   0  0  0  0  0  0  0  0  0  0  0  0
  -23.8300  -14.1000   21.1470 C   0  0  0  0  0  0  0  0  0  0  0  0
  -23.2030  -13.4530   22.1220 N   0  0  0  0  0  0  0  0  0  0  0  0
  -23.3830  -15.1580   20.6970 O   0  0  0  0  0  0  0  0  0  0  0  0
  -23.5770  -12.5960   22.5070 H   0  0  0  0  0  0  0  0  0  0  0  0
  -22.3390  -13.8190   22.4870 H   0  0  0  0  0  0  0  0  0  0  0  0
  -26.4440  -15.5910   20.0180 N   0  0  0  0  0  0  0  0  0  0  0  0
  -25.7350  -16.2850   20.2210 H   0  0  0  0  0  0  0  0  0  0  0  0
  -27.2850  -15.9820   19.6200 H   0  0  0  0  0  0  0  0  0  0  0  0
  -27.7820  -21.8250   21.7220 C   0  0  0  0  0  2  0  0  0  0  0  0
  -27.5820  -22.7140   20.4770 C   0  0  0  0  0  2  0  0  0  0  0  0
  -28.5710  -23.7870   20.4530 N   0  0  0  0  0  0  0  0  0  0  0  0
  -28.5950  -24.2510   21.3620 H   0  0  0  0  0  0  0  0  0  0  0  0
  -28.1940  -24.8160   19.4790 C   0  0  0  0  0  2  0  0  0  0  0  0
  -29.2610  -25.9650   19.5420 C   0  0  0  0  0  2  0  0  0  0  0  0
  -28.9350  -27.3580   19.4290 O   0  0  0  0  0  0  0  0  0  0  0  0
  -24.5420  -31.5640   23.1070 C   0  0  0  0  0  0  0  0  0  0  0  0
  -27.6540  -27.8460   19.5620 C   0  0  0  0  0  0  0  0  0  0  0  0
  -23.4870  -30.2100   21.3230 C   0  0  0  0  0  3  0  0  0  0  0  0
  -25.0870  -29.0200   19.7400 C   0  0  0  0  0  0  0  0  0  0  0  0
  -25.9410  -30.8970   21.1590 C   0  0  0  0  0  2  0  0  0  0  0  0
  -26.1770  -29.6190   20.3810 C   0  0  0  0  0  0  0  0  0  0  0  0
  -27.4590  -29.0370   20.2930 C   0  0  0  0  0  3  0  0  0  0  0  0
  -26.5460  -27.2740   18.8980 C   0  0  0  0  0  3  0  0  0  0  0  0
  -25.2630  -27.8420   19.0030 C   0  0  0  0  0  3  0  0  0  0  0  0
  -23.7530  -29.7090   19.8740 C   0  0  0  0  0  2  0  0  0  0  0  0
  -24.6710  -30.9040   21.9210 N   0  0  0  0  0  0  0  0  0  0  0  0
  -23.4450  -31.6370   23.6830 O   0  0  0  0  0  0  0  0  0  0  0  0
  -22.9930  -29.0120   22.1670 C   0  0  0  0  0  0  0  0  0  0  0  0
  -21.7210  -28.6350   21.9740 N   0  0  0  0  0  0  0  0  0  0  0  0
  -23.7520  -28.4280   22.9480 O   0  0  0  0  0  0  0  0  0  0  0  0
  -21.1690  -29.1700   21.3160 H   0  0  0  0  0  0  0  0  0  0  0  0
  -18.5810  -26.8720   22.1820 C   0  0  0  0  0  0  0  0  0  0  0  0
  -21.0400  -27.5210   22.6300 C   0  0  0  0  0  3  0  0  0  0  0  0
  -21.4080  -26.1720   21.9680 C   0  0  0  0  0  2  0  0  0  0  0  0
  -20.4320  -25.7580   20.8620 C   0  0  0  0  0  2  0  0  0  0  0  0
  -19.0140  -25.6280   21.4230 C   0  0  0  0  0  2  0  0  0  0  0  0
  -19.5350  -27.7680   22.7330 C   0  0  0  0  0  0  0  0  0  0  0  0
  -19.0800  -28.9300   23.3940 C   0  0  0  0  0  3  0  0  0  0  0  0
  -17.7030  -29.1980   23.5130 C   0  0  0  0  0  3  0  0  0  0  0  0
  -16.7630  -28.2980   22.9820 C   0  0  0  0  0  3  0  0  0  0  0  0
  -17.2020  -27.1350   22.3230 C   0  0  0  0  0  3  0  0  0  0  0  0
  -25.7540  -32.2740   23.7900 C   0  0  0  0  0  3  0  0  0  0  0  0
  -26.2760  -31.5220   25.0760 C   0  0  1  0  0  0  0  0  0  0  0  0
  -25.1590  -31.1770   26.0870 C   0  0  0  0  0  1  0  0  0  0  0  0
  -26.9880  -30.2050   24.6900 C   0  0  0  0  0  1  0  0  0  0  0  0
  -27.3250  -32.3960   25.8020 C   0  0  0  0  0  1  0  0  0  0  0  0
  -25.3300  -33.6390   24.1200 N   0  0  0  0  0  0  0  0  0  0  0  0
  -25.6360  -34.7260   23.3980 C   0  0  0  0  0  0  0  0  0  0  0  0
  -26.3750  -34.6890   22.4110 O   0  0  0  0  0  0  0  0  0  0  0  0
  -24.6740  -33.7360   24.8800 H   0  0  0  0  0  0  0  0  0  0  0  0
  -23.8070  -36.3960   22.9620 C   0  0  0  0  0  1  0  0  0  0  0  0
  -25.0240  -36.0670   23.8430 C   0  0  0  0  0  3  0  0  0  0  0  0
  -27.0340  -37.0850   24.8170 C   0  0  0  0  0  1  0  0  0  0  0  0
  -25.9830  -37.1920   23.8090 N   0  0  0  0  0  0  0  0  0  0  0  0
  -25.5040  -38.0790   23.9410 H   0  0  0  0  0  0  0  0  0  0  0  0
  1 50  1  0
  1  3  1  0
  2  1  1  0
  4 14  1  0
  4  1  1  0
  5 11  1  0
  5 21  1  0
  6 11  1  0
  7  8  1  0
  7  6  1  0
  9  8  1  0
  9 25  1  0
  9 10  1  0
 11 10  1  0
 12  5  2  0
 13 15  1  0
 14 13  2  0
 16 17  1  0
 18 21  1  0
 19 18  1  0
 19 14  1  0
 19 16  1  0
 20 15  1  0
 20 17  1  0
 21 20  1  0
 22 23  2  0
 23 42  1  0
 24 23  1  0
 24 27  1  0
 25 26  1  0
 25 22  1  0
 26 24  2  0
 27 28  1  0
 28 29  2  0
 30 33  1  0
 30 29  1  0
 31 30  2  0
 32 31  1  0
 32 27  2  0
 33 34  1  0
 34 39  2  0
 34 35  1  0
 35 36  2  0
 36 37  1  0
 37 41  1  0
 38 37  2  0
 39 38  1  0
 40 39  1  0
 42 43  1  0
 43 46  1  0
 43 45  1  0
 44 42  2  0
 47 22  1  0
 47 48  1  0
 49 47  1  0
 51 50  1  0
 52 51  1  0
 52 53  1  0
 54 55  1  0
 54 52  1  0
 56 55  1  0
 56 58  1  0
 57 68  2  0
 58 63  1  0
 59 67  1  0
 59 69  1  0
 60 66  1  0
 60 62  1  0
 61 67  1  0
 62 61  1  0
 63 62  2  0
 64 65  1  0
 64 58  2  0
 65 60  2  0
 66 59  1  0
 67 57  1  0
 69 71  2  0
 70 69  1  0
 72 70  1  0
 73 82  2  0
 73 78  1  0
 74 70  1  0
 74 78  1  0
 75 74  1  0
 76 77  1  0
 76 75  1  0
 77 73  1  0
 78 79  2  0
 79 80  1  0
 81 80  2  0
 82 81  1  0
 83 57  1  0
 83 88  1  0
 83 84  1  0
 84 87  1  1
 84 85  1  0
 86 84  1  0
 88 91  1  0
 89 93  1  0
 89 88  1  0
 90 89  2  0
 93 92  1  0
 95 93  1  0
 95 96  1  0
 95 94  1  0
M  ISO  4   5 100  21 100  55 101  56 101
M  END
>  <TORSDO>  (19) 
F 22

>  <SCORE>  (19) 
-9.802

>  <name>  (19) 
19

>  <ligand_id>  (19) 
19

>  <original_smiles>  (19) 
[H]C1=C(C([H])([H])[N+]([H])([H])C([H])([H])C([H])([H])N([H])C([H])([H])C([H])([H])Oc2c([H])c([H])c3c(c2[H])C([H])([H])N(C(=O)C([H])(N([H])C(=O)C([H])(N([H])C([H])([H])[H])C([H])([H])[H])C(C([H])([H])[H])(C([H])([H])[H])C([H])([H])[H])C([H])(C(=O)N([H])C2([H])c4c([H])c([H])c([H])c([H])c4C([H])([H])C([H])([H])C2([H])[H])C3([H])[H])C2([H])C([H])([H])N(C(=O)N3C([H])([H])C([H])([H])C([H])([H])C([H])(n4nc(-c5c([H])c([H])c(Oc6c([H])c([H])c(F)c([H])c6F)c([H])c5[H])c(C(=O)N([H])[H])c4N([H])[H])C3([H])[H])C([H])(C1([H])[H])C([H])([H])C2([H])[H]

>  <smiles>  (19) 
[H]C1=C(C([H])([H])[N+]([H])([H])C([H])([H])C([H])([H])N([H])C([H])([H])C([H])([H])Oc2c([H])c([H])c3c(c2[H])C([H])([H])N(C(=O)C([H])(N([H])C(=O)C([H])(N([H])C([H])([H])[H])C([H])([H])[H])C(C([H])([H])[H])(C([H])([H])[H])C([H])([H])[H])C([H])(C(=O)N([H])C2([H])c4c([H])c([H])c([H])c([H])c4C([H])([H])C([H])([H])C2([H])[H])C3([H])[H])C2([H])C([H])([H])N(C(=O)N3C([H])([H])C([H])([H])C([H])([H])C([H])(n4nc(-c5c([H])c([H])c(Oc6c([H])c([H])c(F)c([H])c6F)c([H])c5[H])c(C(=O)N([H])[H])c4N([H])[H])C3([H])[H])C([H])(C1([H])[H])C([H])([H])C2([H])[H]

$$$$
20:0:0
     RDKit          3D

 99108  0  0  1  0  0  0  0  0999 V2000
  -30.4290  -15.2700   20.4710 C   0  0  0  0  0  0  0  0  0  0  0  0
  -30.4400  -12.8140   19.5660 C   0  0  0  0  0  2  0  0  0  0  0  0
  -29.5540  -12.6040   18.3080 C   0  0  0  0  0  2  0  0  0  0  0  0
  -28.0980  -12.3040   18.7010 C   0  0  0  0  0  2  0  0  0  0  0  0
  -27.6120  -13.2640   19.8100 C   0  0  0  0  0  3  0  0  0  0  0  0
  -28.6200  -13.3960   20.9620 C   0  0  0  0  0  2  0  0  0  0  0  0
  -29.8840  -13.9390   20.4170 N   0  0  0  0  0  0  0  0  0  0  0  0
  -31.5720  -15.3170   19.9890 O   0  0  0  0  0  0  0  0  0  0  0  0
  -29.8930  -16.2950   22.4210 C   0  0  0  0  0  0  0  0  0  0  0  0
  -30.8150  -18.5060   22.1370 C   0  0  0  0  0  2  0  0  0  0  0  0
  -30.6530  -17.4020   23.1680 C   0  0  0  0  0  3  0  0  0  0  0  0
  -29.7280  -18.2010   21.1190 C   0  0  0  0  0  3  0  0  0  0  0  0
  -29.7890  -16.4860   21.0680 N   0  0  0  0  0  0  0  0  0  0  0  0
  -29.5420  -15.3030   23.0660 O   0  0  0  0  0  0  0  0  0  0  0  0
  -25.2410  -13.8210   20.5620 C   0  0  0  0  0  0  0  0  0  0  0  0
  -24.1750  -13.0410   20.9180 C   0  0  0  0  0  0  0  0  0  0  0  0
  -24.6400  -11.6910   20.8700 C   0  0  0  0  0  0  0  0  0  0  0  0
  -26.2770  -12.9440   20.2990 N   0  0  0  0  0  0  0  0  0  0  0  0
  -25.9300  -11.6570   20.5560 N   0  0  0  0  0  0  0  0  0  0  0  0
  -23.9080  -10.4280   21.0400 C   0  0  0  0  0  0  0  0  0  0  0  0
  -24.3630   -9.4200   21.9190 C   0  0  0  0  0  3  0  0  0  0  0  0
  -23.6300   -8.2240   22.0760 C   0  0  0  0  0  3  0  0  0  0  0  0
  -22.4280   -8.0270   21.3540 C   0  0  0  0  0  0  0  0  0  0  0  0
  -21.9920   -9.0250   20.4640 C   0  0  0  0  0  3  0  0  0  0  0  0
  -22.7250  -10.2120   20.3060 C   0  0  0  0  0  3  0  0  0  0  0  0
  -21.6650   -6.8870   21.4230 O   0  0  0  0  0  0  0  0  0  0  0  0
  -21.6850   -6.0720   22.5270 C   0  0  0  0  0  0  0  0  0  0  0  0
  -21.4010   -6.5630   23.8200 C   0  0  0  0  0  3  0  0  0  0  0  0
  -21.3660   -5.6780   24.9160 C   0  0  0  0  0  3  0  0  0  0  0  0
  -21.6050   -4.3050   24.7220 C   0  0  0  0  0  0  0  0  0  0  0  0
  -21.8830   -3.8130   23.4350 C   0  0  0  0  0  3  0  0  0  0  0  0
  -21.9190   -4.6950   22.3400 C   0  0  0  0  0  0  0  0  0  0  0  0
  -22.1660   -4.2130   21.0970 F   0  0  0  0  0  0  0  0  0  0  0  0
  -21.5630   -3.4540   25.7740 F   0  0  0  0  0  0  0  0  0  0  0  0
  -22.7780  -13.5180   21.1890 C   0  0  0  0  0  0  0  0  0  0  0  0
  -22.0460  -12.8150   22.0450 N   0  0  0  0  0  0  0  0  0  0  0  0
  -22.3450  -14.5490   20.6750 O   0  0  0  0  0  0  0  0  0  0  0  0
  -22.4070  -11.9780   22.4780 H   0  0  0  0  0  0  0  0  0  0  0  0
  -21.1090  -13.1170   22.2710 H   0  0  0  0  0  0  0  0  0  0  0  0
  -25.4110  -15.1940   20.4100 N   0  0  0  0  0  0  0  0  0  0  0  0
  -24.6500  -15.8520   20.5330 H   0  0  0  0  0  0  0  0  0  0  0  0
  -26.2570  -15.6270   20.0620 H   0  0  0  0  0  0  0  0  0  0  0  0
  -29.9700  -17.9010   24.4720 C   0  0  0  0  0  2  0  0  0  0  0  0
  -29.9890  -16.8950   25.6390 C   0  0  0  0  0  2  0  0  0  0  0  0
  -29.6050  -17.5240   26.9890 C   0  0  0  0  0  2  0  0  0  0  0  0
  -29.6360  -16.5170   28.1550 C   0  0  0  0  0  2  0  0  0  0  0  0
  -28.5780  -15.4970   28.0520 N   0  0  0  0  0  4  0  0  0  0  0  0
  -27.6700  -15.9160   28.1460 H   0  0  0  0  0  0  0  0  0  0  0  0
  -28.6880  -14.8230   28.7890 H   0  0  0  0  0  0  0  0  0  0  0  0
  -28.6260  -15.0120   27.1740 H   0  0  0  0  0  0  0  0  0  0  0  0
  -29.2790  -19.6940   20.1860 C   0  0  0  0  0  2  0  0  0  0  0  0
  -30.9900  -22.9940   20.6650 C   0  0  0  0  0  2  0  0  0  0  0  0
  -30.1310  -23.1650   19.4230 C   0  0  0  0  0  2  0  0  0  0  0  0
  -30.5450  -21.6520   21.2650 C   0  0  0  0  0  2  0  0  0  0  0  0
  -28.7760  -22.7090   19.9420 C   0  0  0  0  0  3  0  0  0  0  0  0
  -29.1950  -21.2910   20.7370 N   0  0  1  0  0  4  0  0  0  0  0  0
  -28.5670  -21.2430   21.5280 H   0  0  0  0  0  0  0  0  0  0  0  0
  -28.0540  -24.2440   20.5650 C   0  0  0  0  0  2  0  0  0  0  0  0
  -28.2330  -25.8500   20.2190 O   0  0  0  0  0  0  0  0  0  0  0  0
  -24.6610  -31.8250   23.1690 C   0  0  0  0  0  0  0  0  0  0  0  0
  -27.2100  -26.9300   20.2050 C   0  0  0  0  0  0  0  0  0  0  0  0
  -23.4770  -30.4360   21.5190 C   0  0  0  0  0  3  0  0  0  0  0  0
  -24.9260  -28.8190   20.1210 C   0  0  0  0  0  0  0  0  0  0  0  0
  -26.0430  -30.6330   21.3990 C   0  0  0  0  0  2  0  0  0  0  0  0
  -26.1110  -29.2210   20.7500 C   0  0  0  0  0  0  0  0  0  0  0  0
  -27.2520  -28.3010   20.7610 C   0  0  0  0  0  3  0  0  0  0  0  0
  -25.9950  -26.6730   19.5330 C   0  0  0  0  0  3  0  0  0  0  0  0
  -24.8930  -27.5640   19.4910 C   0  0  0  0  0  3  0  0  0  0  0  0
  -23.7150  -29.7500   20.1480 C   0  0  0  0  0  2  0  0  0  0  0  0
  -24.7490  -30.9920   22.0820 N   0  0  0  0  0  0  0  0  0  0  0  0
  -23.5680  -32.1230   23.6770 O   0  0  0  0  0  0  0  0  0  0  0  0
  -22.7670  -29.4450   22.4780 C   0  0  0  0  0  0  0  0  0  0  0  0
  -21.4330  -29.3050   22.3530 N   0  0  0  0  0  0  0  0  0  0  0  0
  -23.4220  -28.8020   23.3030 O   0  0  0  0  0  0  0  0  0  0  0  0
  -20.9590  -29.8750   21.6660 H   0  0  0  0  0  0  0  0  0  0  0  0
  -18.0320  -28.1420   22.8470 C   0  0  0  0  0  0  0  0  0  0  0  0
  -20.5950  -28.3760   23.1190 C   0  0  0  0  0  3  0  0  0  0  0  0
  -20.6800  -26.9430   22.5400 C   0  0  0  0  0  2  0  0  0  0  0  0
  -19.5780  -26.6380   21.5210 C   0  0  0  0  0  2  0  0  0  0  0  0
  -18.1950  -26.7950   22.1620 C   0  0  0  0  0  2  0  0  0  0  0  0
  -19.1590  -28.8910   23.2810 C   0  0  0  0  0  0  0  0  0  0  0  0
  -18.9510  -30.1490   23.8840 C   0  0  0  0  0  3  0  0  0  0  0  0
  -17.6510  -30.6600   24.0560 C   0  0  0  0  0  3  0  0  0  0  0  0
  -16.5390  -29.9100   23.6340 C   0  0  0  0  0  3  0  0  0  0  0  0
  -16.7310  -28.6520   23.0370 C   0  0  0  0  0  3  0  0  0  0  0  0
  -25.9290  -32.4600   23.8150 C   0  0  0  0  0  3  0  0  0  0  0  0
  -26.4540  -31.6550   25.0690 C   0  0  1  0  0  0  0  0  0  0  0  0
  -25.3650  -31.3810   26.1340 C   0  0  0  0  0  1  0  0  0  0  0  0
  -27.0440  -30.2910   24.6420 C   0  0  0  0  0  1  0  0  0  0  0  0
  -27.6030  -32.4380   25.7480 C   0  0  0  0  0  1  0  0  0  0  0  0
  -25.5950  -33.8410   24.2060 N   0  0  0  0  0  0  0  0  0  0  0  0
  -25.9100  -34.9360   23.5000 C   0  0  0  0  0  0  0  0  0  0  0  0
  -26.5730  -34.8890   22.4620 O   0  0  0  0  0  0  0  0  0  0  0  0
  -25.0000  -33.9480   25.0140 H   0  0  0  0  0  0  0  0  0  0  0  0
  -24.1480  -36.7210   23.2650 C   0  0  0  0  0  1  0  0  0  0  0  0
  -25.4130  -36.2980   24.0300 C   0  0  0  0  0  3  0  0  0  0  0  0
  -27.5560  -37.1750   24.8470 C   0  0  0  0  0  1  0  0  0  0  0  0
  -26.4280  -37.3710   23.9410 N   0  0  0  0  0  0  0  0  0  0  0  0
  -26.0130  -38.2760   24.1450 H   0  0  0  0  0  0  0  0  0  0  0  0
  1 13  1  0
  2  7  1  0
  3  4  1  0
  3  2  1  0
  5  4  1  0
  5 18  1  0
  5  6  1  0
  7  1  1  0
  7  6  1  0
  8  1  2  0
  9 14  2  0
  9 11  1  0
 10 11  1  0
 11 43  1  0
 12 51  1  0
 12 10  1  0
 13 12  1  0
 13  9  1  0
 15 16  2  0
 16 35  1  0
 17 16  1  0
 17 20  1  0
 18 19  1  0
 18 15  1  0
 19 17  2  0
 20 21  1  0
 21 22  2  0
 23 26  1  0
 23 22  1  0
 24 23  2  0
 25 24  1  0
 25 20  2  0
 26 27  1  0
 27 28  1  0
 28 29  2  0
 30 29  1  0
 30 34  1  0
 31 30  2  0
 32 27  2  0
 32 31  1  0
 33 32  1  0
 35 36  1  0
 36 39  1  0
 36 38  1  0
 37 35  2  0
 40 41  1  0
 40 15  1  0
 42 40  1  0
 43 44  1  0
 44 45  1  0
 45 46  1  0
 47 48  1  0
 47 46  1  0
 47 49  1  0
 50 47  1  0
 51 56  1  0
 52 54  1  0
 53 55  1  0
 53 52  1  0
 55 58  1  0
 55 56  1  0
 56 54  1  0
 56 57  1  1
 59 58  1  0
 60 71  2  0
 61 59  1  0
 61 66  1  0
 62 70  1  0
 62 72  1  0
 63 69  1  0
 63 65  1  0
 64 70  1  0
 65 66  2  0
 65 64  1  0
 67 61  2  0
 68 67  1  0
 68 63  2  0
 69 62  1  0
 70 60  1  0
 72 74  2  0
 73 72  1  0
 75 73  1  0
 76 85  2  0
 76 81  1  0
 77 73  1  0
 77 81  1  0
 78 77  1  0
 79 80  1  0
 79 78  1  0
 80 76  1  0
 81 82  2  0
 82 83  1  0
 84 83  2  0
 85 84  1  0
 86 60  1  0
 86 91  1  0
 86 87  1  0
 87 90  1  1
 87 88  1  0
 89 87  1  0
 91 94  1  0
 92 96  1  0
 92 91  1  0
 93 92  2  0
 96 95  1  0
 98 96  1  0
 98 99  1  0
 98 97  1  0
M  ISO  4   1 100  13 100  58 101  59 101
M  END
>  <TORSDO>  (20) 
F 23

>  <SCORE>  (20) 
13.513

>  <name>  (20) 
20

>  <ligand_id>  (20) 
20

>  <original_smiles>  (20) 
[H]c1c([H])c([H])c2c(c1[H])C([H])([H])C([H])([H])C([H])([H])C2([H])N([H])C(=O)C1([H])N(C(=O)C([H])(N([H])C(=O)C([H])(N([H])C([H])([H])[H])C([H])([H])[H])C(C([H])([H])[H])(C([H])([H])[H])C([H])([H])[H])C([H])([H])c2c([H])c(OC([H])([H])C3([H])C([H])([H])C([H])([H])C([H])([H])[N+]3([H])C([H])([H])C3([H])N(C(=O)N4C([H])([H])C([H])([H])C([H])([H])C([H])(n5nc(-c6c([H])c([H])c(Oc7c([H])c([H])c(F)c([H])c7F)c([H])c6[H])c(C(=O)N([H])[H])c5N([H])[H])C4([H])[H])C(=O)C([H])(C([H])([H])C([H])([H])C([H])([H])C([H])([H])[N+]([H])([H])[H])C3([H])[H])c([H])c([H])c2C1([H])[H]

>  <smiles>  (20) 
[H]c1c([H])c([H])c2c(c1[H])C([H])([H])C([H])([H])C([H])([H])C2([H])N([H])C(=O)C1([H])N(C(=O)C([H])(N([H])C(=O)C([H])(N([H])C([H])([H])[H])C([H])([H])[H])C(C([H])([H])[H])(C([H])([H])[H])C([H])([H])[H])C([H])([H])c2c([H])c(OC([H])([H])C3([H])C([H])([H])C([H])([H])C([H])([H])[N+]3([H])C([H])([H])C3([H])N(C(=O)N4C([H])([H])C([H])([H])C([H])([H])C([H])(n5nc(-c6c([H])c([H])c(Oc7c([H])c([H])c(F)c([H])c7F)c([H])c6[H])c(C(=O)N([H])[H])c5N([H])[H])C4([H])[H])C(=O)C([H])(C([H])([H])C([H])([H])C([H])([H])C([H])([H])[N+]([H])([H])[H])C3([H])[H])c([H])c([H])c2C1([H])[H]

$$$$
21:0:0
     RDKit          3D

 95104  0  0  1  0  0  0  0  0999 V2000
  -29.9580  -23.0040   23.1530 C   0  0  0  0  0  2  0  0  0  0  0  0
  -28.9900  -21.9060   22.7190 C   0  0  0  0  0  2  0  0  0  0  0  0
  -29.9770  -23.9840   21.9740 C   0  0  0  0  0  2  0  0  0  0  0  0
  -29.1870  -21.8310   21.2000 C   0  0  0  0  0  3  0  0  0  0  0  0
  -29.4560  -23.2610   20.7840 N   0  0  1  0  0  4  0  0  0  0  0  0
  -30.1850  -23.2170   20.0860 H   0  0  0  0  0  0  0  0  0  0  0  0
  -30.3560  -20.8170   20.8810 C   0  0  0  0  0  2  0  0  0  0  0  0
  -30.8390  -18.3390   21.2390 C   0  0  0  0  0  0  0  0  0  0  0  0
  -30.0020  -19.3730   20.9550 N   0  0  0  0  0  0  0  0  0  0  0  0
  -31.5480  -18.3430   22.2450 O   0  0  0  0  0  0  0  0  0  0  0  0
  -29.3350  -19.1080   20.2440 H   0  0  0  0  0  0  0  0  0  0  0  0
  -30.9870  -14.7380   20.8400 C   0  0  0  0  0  0  0  0  0  0  0  0
  -30.8420  -12.3630   20.1500 C   0  0  0  0  0  2  0  0  0  0  0  0
  -30.0330  -12.1700   18.8490 C   0  0  0  0  0  2  0  0  0  0  0  0
  -28.5080  -12.1370   19.1190 C   0  0  0  0  0  2  0  0  0  0  0  0
  -28.0010  -13.1520   20.1840 C   0  0  0  0  0  3  0  0  0  0  0  0
  -28.9630  -13.2820   21.3870 C   0  0  0  0  0  2  0  0  0  0  0  0
  -30.3080  -13.5420   20.8590 N   0  0  0  0  0  0  0  0  0  0  0  0
  -32.2090  -14.7490   20.9790 O   0  0  0  0  0  0  0  0  0  0  0  0
  -30.2030  -16.6220   17.9860 C   0  0  0  0  0  2  0  0  0  0  0  0
  -30.5840  -17.8070   18.7930 C   0  0  0  0  0  2  0  0  0  0  0  0
  -29.6250  -15.7000   19.0400 C   0  0  0  0  0  2  0  0  0  0  0  0
  -31.0450  -17.2130   20.1600 C   0  0  0  0  0  3  0  0  0  0  0  0
  -30.3580  -15.8680   20.3170 N   0  0  0  0  0  0  0  0  0  0  0  0
  -25.5770  -13.8360   20.6470 C   0  0  0  0  0  0  0  0  0  0  0  0
  -24.4630  -13.0910   20.9230 C   0  0  0  0  0  0  0  0  0  0  0  0
  -24.9070  -11.7360   21.0020 C   0  0  0  0  0  0  0  0  0  0  0  0
  -26.6210  -12.9230   20.5700 N   0  0  0  0  0  0  0  0  0  0  0  0
  -26.2200  -11.6650   20.8520 N   0  0  0  0  0  0  0  0  0  0  0  0
  -24.1520  -10.4900   21.1520 C   0  0  0  0  0  0  0  0  0  0  0  0
  -24.4980   -9.5380   22.1360 C   0  0  0  0  0  3  0  0  0  0  0  0
  -23.7470   -8.3530   22.2760 C   0  0  0  0  0  3  0  0  0  0  0  0
  -22.6360   -8.1140   21.4320 C   0  0  0  0  0  0  0  0  0  0  0  0
  -22.3130   -9.0540   20.4380 C   0  0  0  0  0  3  0  0  0  0  0  0
  -23.0660  -10.2300   20.2940 C   0  0  0  0  0  3  0  0  0  0  0  0
  -21.8630   -6.9800   21.4820 O   0  0  0  0  0  0  0  0  0  0  0  0
  -21.7360   -6.2500   22.6350 C   0  0  0  0  0  0  0  0  0  0  0  0
  -21.2590   -6.8250   23.8330 C   0  0  0  0  0  3  0  0  0  0  0  0
  -21.0770   -6.0200   24.9760 C   0  0  0  0  0  3  0  0  0  0  0  0
  -21.3630   -4.6430   24.9200 C   0  0  0  0  0  0  0  0  0  0  0  0
  -21.8360   -4.0690   23.7270 C   0  0  0  0  0  3  0  0  0  0  0  0
  -22.0160   -4.8700   22.5860 C   0  0  0  0  0  0  0  0  0  0  0  0
  -22.4510   -4.3090   21.4320 F   0  0  0  0  0  0  0  0  0  0  0  0
  -21.1800   -3.8680   26.0140 F   0  0  0  0  0  0  0  0  0  0  0  0
  -23.0520  -13.5940   21.0110 C   0  0  0  0  0  0  0  0  0  0  0  0
  -22.2240  -12.9420   21.8210 N   0  0  0  0  0  0  0  0  0  0  0  0
  -22.6860  -14.5950   20.3960 O   0  0  0  0  0  0  0  0  0  0  0  0
  -22.5300  -12.1300   22.3370 H   0  0  0  0  0  0  0  0  0  0  0  0
  -21.2710  -13.2560   21.9260 H   0  0  0  0  0  0  0  0  0  0  0  0
  -25.7820  -15.1970   20.4310 N   0  0  0  0  0  0  0  0  0  0  0  0
  -25.0210  -15.8670   20.4440 H   0  0  0  0  0  0  0  0  0  0  0  0
  -26.6800  -15.6240   20.2450 H   0  0  0  0  0  0  0  0  0  0  0  0
  -28.3040  -24.0040   20.1440 C   0  0  0  0  0  2  0  0  0  0  0  0
  -28.6750  -25.3400   19.3940 C   0  0  0  0  0  2  0  0  0  0  0  0
  -28.4960  -26.6010   20.0920 O   0  0  0  0  0  0  0  0  0  0  0  0
  -24.5500  -31.7340   23.1080 C   0  0  0  0  0  0  0  0  0  0  0  0
  -27.3030  -27.3170   20.0320 C   0  0  0  0  0  0  0  0  0  0  0  0
  -23.3880  -30.3340   21.4400 C   0  0  0  0  0  3  0  0  0  0  0  0
  -24.8810  -28.8210   20.0230 C   0  0  0  0  0  0  0  0  0  0  0  0
  -25.9080  -30.7250   21.2660 C   0  0  0  0  0  2  0  0  0  0  0  0
  -26.0280  -29.3540   20.6230 C   0  0  0  0  0  0  0  0  0  0  0  0
  -27.2370  -28.6120   20.6160 C   0  0  0  0  0  3  0  0  0  0  0  0
  -26.1290  -26.8030   19.4330 C   0  0  0  0  0  3  0  0  0  0  0  0
  -24.9330  -27.5500   19.4280 C   0  0  0  0  0  3  0  0  0  0  0  0
  -23.6230  -29.6690   20.0580 C   0  0  0  0  0  2  0  0  0  0  0  0
  -24.6350  -30.9420   22.0000 N   0  0  0  0  0  0  0  0  0  0  0  0
  -23.4560  -31.9810   23.6380 O   0  0  0  0  0  0  0  0  0  0  0  0
  -22.7350  -29.2930   22.3790 C   0  0  0  0  0  0  0  0  0  0  0  0
  -21.4110  -29.1050   22.2410 N   0  0  0  0  0  0  0  0  0  0  0  0
  -23.4200  -28.6560   23.1830 O   0  0  0  0  0  0  0  0  0  0  0  0
  -20.9200  -29.6650   21.5580 H   0  0  0  0  0  0  0  0  0  0  0  0
  -18.0400  -27.8990   22.7130 C   0  0  0  0  0  0  0  0  0  0  0  0
  -20.5980  -28.1500   22.9960 C   0  0  0  0  0  3  0  0  0  0  0  0
  -20.7030  -26.7330   22.3870 C   0  0  0  0  0  2  0  0  0  0  0  0
  -19.6000  -26.4320   21.3660 C   0  0  0  0  0  2  0  0  0  0  0  0
  -18.2180  -26.5630   22.0110 C   0  0  0  0  0  2  0  0  0  0  0  0
  -19.1590  -28.6510   23.1630 C   0  0  0  0  0  0  0  0  0  0  0  0
  -18.9390  -29.9060   23.7730 C   0  0  0  0  0  3  0  0  0  0  0  0
  -17.6340  -30.4040   23.9440 C   0  0  0  0  0  3  0  0  0  0  0  0
  -16.5300  -29.6470   23.5140 C   0  0  0  0  0  3  0  0  0  0  0  0
  -16.7340  -28.3980   22.9010 C   0  0  0  0  0  3  0  0  0  0  0  0
  -25.8120  -32.3820   23.7490 C   0  0  0  0  0  3  0  0  0  0  0  0
  -26.3420  -31.5950   25.0110 C   0  0  1  0  0  0  0  0  0  0  0  0
  -25.2540  -31.2870   26.0670 C   0  0  0  0  0  1  0  0  0  0  0  0
  -26.9630  -30.2460   24.5820 C   0  0  0  0  0  1  0  0  0  0  0  0
  -27.4680  -32.3960   25.7020 C   0  0  0  0  0  1  0  0  0  0  0  0
  -25.4690  -33.7660   24.1040 N   0  0  0  0  0  0  0  0  0  0  0  0
  -25.7950  -34.8380   23.3700 C   0  0  0  0  0  0  0  0  0  0  0  0
  -26.4840  -34.7670   22.3470 O   0  0  0  0  0  0  0  0  0  0  0  0
  -24.8630  -33.8960   24.9020 H   0  0  0  0  0  0  0  0  0  0  0  0
  -24.0350  -36.6020   23.0270 C   0  0  0  0  0  1  0  0  0  0  0  0
  -25.2700  -36.2050   23.8500 C   0  0  0  0  0  3  0  0  0  0  0  0
  -27.3740  -37.1110   24.7370 C   0  0  0  0  0  1  0  0  0  0  0  0
  -26.2840  -37.2800   23.7820 N   0  0  0  0  0  0  0  0  0  0  0  0
  -25.8590  -38.1890   23.9460 H   0  0  0  0  0  0  0  0  0  0  0  0
  2  1  1  0
  3  1  1  0
  4  7  1  0
  4  2  1  0
  5  4  1  0
  5  3  1  0
  5  6  1  6
  7  9  1  0
  8 10  2  0
  9  8  1  0
 11  9  1  0
 12 18  1  0
 12 19  2  0
 13 18  1  0
 14 15  1  0
 14 13  1  0
 16 15  1  0
 16 28  1  0
 16 17  1  0
 18 17  1  0
 20 21  1  0
 20 22  1  0
 21 23  1  0
 22 24  1  0
 23 24  1  0
 23  8  1  0
 24 12  1  0
 25 26  2  0
 26 27  1  0
 26 45  1  0
 27 30  1  0
 28 25  1  0
 28 29  1  0
 29 27  2  0
 30 31  1  0
 31 32  2  0
 33 36  1  0
 33 32  1  0
 34 33  2  0
 35 34  1  0
 35 30  2  0
 36 37  1  0
 37 38  1  0
 38 39  2  0
 40 39  1  0
 40 44  1  0
 41 40  2  0
 42 37  2  0
 42 41  1  0
 43 42  1  0
 45 46  1  0
 46 49  1  0
 46 48  1  0
 47 45  2  0
 50 51  1  0
 50 25  1  0
 52 50  1  0
 53  5  1  0
 54 55  1  0
 54 53  1  0
 56 67  2  0
 57 55  1  0
 57 62  1  0
 58 66  1  0
 58 68  1  0
 59 65  1  0
 59 61  1  0
 60 66  1  0
 61 60  1  0
 62 61  2  0
 63 57  2  0
 64 63  1  0
 64 59  2  0
 65 58  1  0
 66 56  1  0
 68 70  2  0
 69 68  1  0
 71 69  1  0
 72 81  2  0
 72 77  1  0
 73 69  1  0
 73 77  1  0
 74 73  1  0
 75 76  1  0
 75 74  1  0
 76 72  1  0
 77 78  2  0
 78 79  1  0
 80 79  2  0
 81 80  1  0
 82 56  1  0
 82 87  1  0
 82 83  1  0
 83 86  1  1
 83 84  1  0
 85 83  1  0
 87 90  1  0
 88 92  1  0
 88 87  1  0
 89 88  2  0
 92 91  1  0
 94 92  1  0
 94 95  1  0
 94 93  1  0
M  ISO  4  12 100  24 100  54 101  55 101
M  END
>  <TORSDO>  (21) 
F 20

>  <SCORE>  (21) 
-12.975

>  <name>  (21) 
21

>  <ligand_id>  (21) 
21

>  <original_smiles>  (21) 
[H]c1c([H])c([H])c2c(c1[H])C([H])([H])C([H])([H])C([H])([H])C2([H])N([H])C(=O)C1([H])N(C(=O)C([H])(N([H])C(=O)C([H])(N([H])C([H])([H])[H])C([H])([H])[H])C(C([H])([H])[H])(C([H])([H])[H])C([H])([H])[H])C([H])([H])c2c([H])c(OC([H])([H])C([H])([H])[N+]3([H])C([H])([H])C([H])([H])C([H])([H])C3([H])C([H])([H])N([H])C(=O)C3([H])N(C(=O)N4C([H])([H])C([H])([H])C([H])([H])C([H])(n5nc(-c6c([H])c([H])c(Oc7c([H])c([H])c(F)c([H])c7F)c([H])c6[H])c(C(=O)N([H])[H])c5N([H])[H])C4([H])[H])C([H])([H])C([H])([H])C3([H])[H])c([H])c([H])c2C1([H])[H]

>  <smiles>  (21) 
[H]c1c([H])c([H])c2c(c1[H])C([H])([H])C([H])([H])C([H])([H])C2([H])N([H])C(=O)C1([H])N(C(=O)C([H])(N([H])C(=O)C([H])(N([H])C([H])([H])[H])C([H])([H])[H])C(C([H])([H])[H])(C([H])([H])[H])C([H])([H])[H])C([H])([H])c2c([H])c(OC([H])([H])C([H])([H])[N+]3([H])C([H])([H])C([H])([H])C([H])([H])C3([H])C([H])([H])N([H])C(=O)C3([H])N(C(=O)N4C([H])([H])C([H])([H])C([H])([H])C([H])(n5nc(-c6c([H])c([H])c(Oc7c([H])c([H])c(F)c([H])c7F)c([H])c6[H])c(C(=O)N([H])[H])c5N([H])[H])C4([H])[H])C([H])([H])C([H])([H])C3([H])[H])c([H])c([H])c2C1([H])[H]

$$$$
22:0:0
     RDKit          3D

104114  0  0  1  0  0  0  0  0999 V2000
  -29.0570  -19.3490   19.6330 N   0  0  1  0  0  4  0  0  0  0  0  0
  -29.9690  -19.7740   19.5720 H   0  0  0  0  0  0  0  0  0  0  0  0
  -28.5970  -19.0200   18.2350 C   0  0  0  0  0  2  0  0  0  0  0  0
  -31.1810  -19.9510   14.7400 C   0  0  0  0  0  2  0  0  0  0  0  0
  -31.5930  -20.4610   16.1300 C   0  0  0  0  0  2  0  0  0  0  0  0
  -29.6540  -19.9510   14.5770 C   0  0  0  0  0  2  0  0  0  0  0  0
  -30.8990  -19.6630   17.2470 C   0  0  0  0  0  2  0  0  0  0  0  0
  -28.9630  -19.1750   15.7140 C   0  0  0  0  0  2  0  0  0  0  0  0
  -29.3630  -19.7300   17.0970 C   0  0  0  0  0  3  0  0  0  0  0  0
  -28.1500  -20.4020   20.2710 C   0  0  0  0  0  2  0  0  0  0  0  0
  -29.2100  -22.7580   19.2990 C   0  0  0  0  0  2  0  0  0  0  0  0
  -27.3790  -22.7730   20.9810 C   0  0  0  0  0  2  0  0  0  0  0  0
  -29.4910  -24.2680   19.6190 C   0  0  0  0  0  2  0  0  0  0  0  0
  -27.5950  -24.3100   21.1870 C   0  0  0  0  0  2  0  0  0  0  0  0
  -28.6030  -21.9350   20.4780 C   0  0  0  0  0  3  0  0  0  0  0  0
  -28.1830  -25.0260   19.9460 C   0  0  0  0  0  3  0  0  0  0  0  0
  -28.3200  -26.4890   20.1080 O   0  0  0  0  0  0  0  0  0  0  0  0
  -24.5240  -31.7940   23.1690 C   0  0  0  0  0  0  0  0  0  0  0  0
  -27.1750  -27.2980   20.0770 C   0  0  0  0  0  0  0  0  0  0  0  0
  -23.3370  -30.4080   21.5090 C   0  0  0  0  0  3  0  0  0  0  0  0
  -24.8020  -28.8900   20.0770 C   0  0  0  0  0  0  0  0  0  0  0  0
  -25.8760  -30.7480   21.3430 C   0  0  0  0  0  2  0  0  0  0  0  0
  -25.9650  -29.3800   20.6830 C   0  0  0  0  0  0  0  0  0  0  0  0
  -27.1550  -28.5960   20.6730 C   0  0  0  0  0  3  0  0  0  0  0  0
  -25.9810  -26.8620   19.4530 C   0  0  0  0  0  3  0  0  0  0  0  0
  -24.8100  -27.6360   19.4570 C   0  0  0  0  0  3  0  0  0  0  0  0
  -23.5610  -29.7550   20.1220 C   0  0  0  0  0  2  0  0  0  0  0  0
  -24.5980  -31.0000   22.0640 N   0  0  0  0  0  0  0  0  0  0  0  0
  -23.4350  -32.0590   23.6990 O   0  0  0  0  0  0  0  0  0  0  0  0
  -22.6790  -29.3720   22.4510 C   0  0  0  0  0  0  0  0  0  0  0  0
  -21.3510  -29.2060   22.3300 N   0  0  0  0  0  0  0  0  0  0  0  0
  -23.3600  -28.7230   23.2490 O   0  0  0  0  0  0  0  0  0  0  0  0
  -20.8610  -29.7810   21.6600 H   0  0  0  0  0  0  0  0  0  0  0  0
  -17.9610  -28.0530   22.8490 C   0  0  0  0  0  0  0  0  0  0  0  0
  -20.5290  -28.2610   23.0870 C   0  0  0  0  0  3  0  0  0  0  0  0
  -20.5970  -26.8440   22.4710 C   0  0  0  0  0  2  0  0  0  0  0  0
  -19.4740  -26.5680   21.4650 C   0  0  0  0  0  2  0  0  0  0  0  0
  -18.1050  -26.7200   22.1360 C   0  0  0  0  0  2  0  0  0  0  0  0
  -19.1000  -28.7840   23.2820 C   0  0  0  0  0  0  0  0  0  0  0  0
  -18.9120  -30.0350   23.9100 C   0  0  0  0  0  3  0  0  0  0  0  0
  -17.6190  -30.5530   24.1100 C   0  0  0  0  0  3  0  0  0  0  0  0
  -16.4950  -29.8170   23.6960 C   0  0  0  0  0  3  0  0  0  0  0  0
  -16.6680  -28.5710   23.0700 C   0  0  0  0  0  3  0  0  0  0  0  0
  -25.7990  -32.4260   23.8060 C   0  0  0  0  0  3  0  0  0  0  0  0
  -25.4790  -33.8190   24.1500 N   0  0  0  0  0  0  0  0  0  0  0  0
  -25.8070  -34.8820   23.4060 C   0  0  0  0  0  0  0  0  0  0  0  0
  -26.4850  -34.7950   22.3780 O   0  0  0  0  0  0  0  0  0  0  0  0
  -24.8790  -33.9590   24.9500 H   0  0  0  0  0  0  0  0  0  0  0  0
  -24.0660  -36.6660   23.0620 C   0  0  0  0  0  1  0  0  0  0  0  0
  -25.3060  -36.2620   23.8750 C   0  0  0  0  0  3  0  0  0  0  0  0
  -27.4310  -37.1540   24.7240 C   0  0  0  0  0  1  0  0  0  0  0  0
  -26.3300  -37.3250   23.7790 N   0  0  0  0  0  0  0  0  0  0  0  0
  -25.9160  -38.2390   23.9340 H   0  0  0  0  0  0  0  0  0  0  0  0
  -26.3100  -31.6440   25.0770 C   0  0  1  0  0  0  0  0  0  0  0  0
  -25.2140  -31.3930   26.1390 C   0  0  0  0  0  1  0  0  0  0  0  0
  -26.8980  -30.2710   24.6750 C   0  0  0  0  0  1  0  0  0  0  0  0
  -27.4550  -32.4340   25.7540 C   0  0  0  0  0  1  0  0  0  0  0  0
  -29.2290  -18.0270   20.4020 C   0  0  0  0  0  2  0  0  0  0  0  0
  -30.7960  -14.6910   20.8570 C   0  0  0  0  0  0  0  0  0  0  0  0
  -30.5960  -12.3460   20.1190 C   0  0  0  0  0  2  0  0  0  0  0  0
  -29.7660  -12.2270   18.8200 C   0  0  0  0  0  2  0  0  0  0  0  0
  -28.2680  -12.1330   19.1400 C   0  0  0  0  0  2  0  0  0  0  0  0
  -27.7870  -13.1710   20.1920 C   0  0  0  0  0  3  0  0  0  0  0  0
  -28.7500  -13.2650   21.3930 C   0  0  0  0  0  2  0  0  0  0  0  0
  -30.0910  -13.5160   20.8500 N   0  0  0  0  0  0  0  0  0  0  0  0
  -31.9800  -14.6950   21.1810 O   0  0  0  0  0  0  0  0  0  0  0  0
  -32.6540  -16.0150   18.8300 C   0  0  0  0  0  3  0  0  0  0  0  0
  -31.2900  -15.3590   18.7020 C   0  0  0  0  0  2  0  0  0  0  0  0
  -31.8130  -17.6270   20.4990 C   0  0  0  0  0  2  0  0  0  0  0  0
  -30.4700  -17.1510   19.9200 C   0  0  0  0  0  3  0  0  0  0  0  0
  -30.4320  -15.6160   19.8940 N   0  0  0  0  0  0  0  0  0  0  0  0
  -32.8790  -17.0510   19.6710 N   0  0  0  0  0  0  0  0  0  0  0  0
  -33.6610  -15.5500   18.0740 N   0  0  0  0  0  0  0  0  0  0  0  0
  -33.8020  -17.4470   19.7900 H   0  0  0  0  0  0  0  0  0  0  0  0
  -33.5200  -14.7780   17.4340 H   0  0  0  0  0  0  0  0  0  0  0  0
  -34.5960  -15.9350   18.0990 H   0  0  0  0  0  0  0  0  0  0  0  0
  -25.3460  -13.7900   20.6930 C   0  0  0  0  0  0  0  0  0  0  0  0
  -24.2480  -13.0260   20.9840 C   0  0  0  0  0  0  0  0  0  0  0  0
  -24.7110  -11.6760   21.0500 C   0  0  0  0  0  0  0  0  0  0  0  0
  -26.4070  -12.9060   20.5920 N   0  0  0  0  0  0  0  0  0  0  0  0
  -26.0260  -11.6350   20.8790 N   0  0  0  0  0  0  0  0  0  0  0  0
  -23.9730  -10.4170   21.2090 C   0  0  0  0  0  0  0  0  0  0  0  0
  -24.3550   -9.4530   22.1670 C   0  0  0  0  0  3  0  0  0  0  0  0
  -23.6170   -8.2590   22.3160 C   0  0  0  0  0  3  0  0  0  0  0  0
  -22.4830   -8.0190   21.5040 C   0  0  0  0  0  0  0  0  0  0  0  0
  -22.1210   -8.9710   20.5330 C   0  0  0  0  0  3  0  0  0  0  0  0
  -22.8600  -10.1570   20.3840 C   0  0  0  0  0  3  0  0  0  0  0  0
  -21.7200   -6.8780   21.5610 O   0  0  0  0  0  0  0  0  0  0  0  0
  -21.6550   -6.1120   22.6970 C   0  0  0  0  0  0  0  0  0  0  0  0
  -21.2340   -6.6470   23.9350 C   0  0  0  0  0  3  0  0  0  0  0  0
  -21.1170   -5.8080   25.0610 C   0  0  0  0  0  3  0  0  0  0  0  0
  -21.4100   -4.4350   24.9500 C   0  0  0  0  0  0  0  0  0  0  0  0
  -21.8210   -3.9000   23.7170 C   0  0  0  0  0  3  0  0  0  0  0  0
  -21.9400   -4.7360   22.5930 C   0  0  0  0  0  0  0  0  0  0  0  0
  -22.3170   -4.2110   21.4030 F   0  0  0  0  0  0  0  0  0  0  0  0
  -21.2900   -3.6270   26.0290 F   0  0  0  0  0  0  0  0  0  0  0  0
  -22.8290  -13.5070   21.0930 C   0  0  0  0  0  0  0  0  0  0  0  0
  -22.0210  -12.8460   21.9140 N   0  0  0  0  0  0  0  0  0  0  0  0
  -22.4440  -14.5030   20.4840 O   0  0  0  0  0  0  0  0  0  0  0  0
  -22.3440  -12.0440   22.4310 H   0  0  0  0  0  0  0  0  0  0  0  0
  -21.0630  -13.1490   22.0270 H   0  0  0  0  0  0  0  0  0  0  0  0
  -25.5320  -15.1510   20.4770 N   0  0  0  0  0  0  0  0  0  0  0  0
  -24.7650  -15.8150   20.4900 H   0  0  0  0  0  0  0  0  0  0  0  0
  -26.4170  -15.5690   20.2260 H   0  0  0  0  0  0  0  0  0  0  0  0
  1 10  1  0
  1 58  1  0
  1  2  1  6
  3  1  1  0
  4  5  1  0
  5  7  1  0
  6  4  1  0
  6  8  1  0
  8  9  1  0
  9  7  1  0
  9  3  1  0
 11 13  1  0
 11 15  1  0
 12 14  1  0
 13 16  1  0
 15 10  1  0
 15 12  1  0
 16 17  1  0
 16 14  1  0
 18 29  2  0
 19 17  1  0
 19 24  1  0
 20 28  1  0
 20 30  1  0
 21 27  1  0
 21 23  1  0
 22 28  1  0
 23 22  1  0
 24 23  2  0
 25 26  1  0
 25 19  2  0
 26 21  2  0
 27 20  1  0
 28 18  1  0
 30 32  2  0
 31 30  1  0
 33 31  1  0
 34 43  2  0
 34 39  1  0
 35 31  1  0
 35 39  1  0
 36 35  1  0
 37 38  1  0
 37 36  1  0
 38 34  1  0
 39 40  2  0
 40 41  1  0
 42 41  2  0
 43 42  1  0
 44 18  1  0
 44 45  1  0
 44 54  1  0
 45 48  1  0
 46 50  1  0
 46 45  1  0
 47 46  2  0
 50 49  1  0
 52 50  1  0
 52 53  1  0
 52 51  1  0
 54 57  1  1
 54 55  1  0
 56 54  1  0
 59 66  2  0
 60 65  1  0
 61 62  1  0
 61 60  1  0
 63 62  1  0
 63 80  1  0
 63 64  1  0
 65 59  1  0
 65 64  1  0
 67 73  1  0
 67 72  1  0
 68 67  1  0
 68 71  1  0
 70 58  1  0
 70 69  1  0
 71 70  1  0
 71 59  1  0
 72 74  1  0
 72 69  1  0
 73 76  1  0
 75 73  1  0
 77 78  2  0
 78 79  1  0
 78 97  1  0
 79 82  1  0
 80 77  1  0
 80 81  1  0
 81 79  2  0
 82 83  1  0
 83 84  2  0
 85 88  1  0
 85 84  1  0
 86 85  2  0
 87 86  1  0
 87 82  2  0
 88 89  1  0
 89 90  1  0
 90 91  2  0
 92 91  1  0
 92 96  1  0
 93 92  2  0
 94 89  2  0
 94 93  1  0
 95 94  1  0
 97 98  1  0
 98101  1  0
 98100  1  0
 99 97  2  0
102103  1  0
102 77  1  0
104102  1  0
M  ISO  4  16 101  17 101  59 100  71 100
M  END
>  <TORSDO>  (22) 
F 21

>  <SCORE>  (22) 
-13.808

>  <name>  (22) 
22

>  <ligand_id>  (22) 
22

>  <original_smiles>  (22) 
[H]c1c([H])c([H])c2c(c1[H])C([H])([H])C([H])([H])C([H])([H])C2([H])N([H])C(=O)C1([H])N(C(=O)C([H])(N([H])C(=O)C([H])(N([H])C([H])([H])[H])C([H])([H])[H])C(C([H])([H])[H])(C([H])([H])[H])C([H])([H])[H])C([H])([H])c2c([H])c(OC3([H])C([H])([H])C([H])([H])C([H])(C([H])([H])[N+]([H])(C([H])([H])C4([H])N(C(=O)N5C([H])([H])C([H])([H])C([H])([H])C([H])(n6nc(-c7c([H])c([H])c(Oc8c([H])c([H])c(F)c([H])c8F)c([H])c7[H])c(C(=O)N([H])[H])c6N([H])[H])C5([H])[H])C([H])([H])C(N([H])[H])=[N+]([H])C4([H])[H])C([H])([H])C4([H])C([H])([H])C([H])([H])C([H])([H])C([H])([H])C4([H])[H])C([H])([H])C3([H])[H])c([H])c([H])c2C1([H])[H]

>  <smiles>  (22) 
[H]c1c([H])c([H])c2c(c1[H])C([H])([H])C([H])([H])C([H])([H])C2([H])N([H])C(=O)C1([H])N(C(=O)C([H])(N([H])C(=O)C([H])(N([H])C([H])([H])[H])C([H])([H])[H])C(C([H])([H])[H])(C([H])([H])[H])C([H])([H])[H])C([H])([H])c2c([H])c(OC3([H])C([H])([H])C([H])([H])C([H])(C([H])([H])[N+]([H])(C([H])([H])C4([H])N(C(=O)N5C([H])([H])C([H])([H])C([H])([H])C([H])(n6nc(-c7c([H])c([H])c(Oc8c([H])c([H])c(F)c([H])c8F)c([H])c7[H])c(C(=O)N([H])[H])c6N([H])[H])C5([H])[H])C([H])([H])C(N([H])[H])=[N+]([H])C4([H])[H])C([H])([H])C4([H])C([H])([H])C([H])([H])C([H])([H])C([H])([H])C4([H])[H])C([H])([H])C3([H])[H])c([H])c([H])c2C1([H])[H]

$$$$
23:0:0
     RDKit          3D

 93101  0  0  1  0  0  0  0  0999 V2000
  -27.4200  -22.9420   21.2510 C   0  0  0  0  0  0  0  0  0  0  0  0
  -28.5820  -23.1170   20.5570 N   0  0  0  0  0  0  0  0  0  0  0  0
  -27.2090  -21.9290   21.9250 O   0  0  0  0  0  0  0  0  0  0  0  0
  -28.6340  -20.6820   19.6200 C   0  0  0  0  0  2  0  0  0  0  0  0
  -30.3260  -21.3780   21.3680 C   0  0  0  0  0  2  0  0  0  0  0  0
  -28.7720  -19.3340   20.4120 C   0  0  0  0  0  2  0  0  0  0  0  0
  -31.0590  -20.0270   21.0520 C   0  0  0  0  0  2  0  0  0  0  0  0
  -29.4260  -21.9030   20.2120 C   0  0  0  0  0  3  0  0  0  0  0  0
  -30.1950  -18.9030   20.5480 N   0  0  1  0  0  4  0  0  0  0  0  0
  -30.5120  -18.7610   19.6000 H   0  0  0  0  0  0  0  0  0  0  0  0
  -30.4660  -17.5750   21.2400 C   0  0  0  0  0  2  0  0  0  0  0  0
  -29.7960  -16.2640   20.6580 C   0  0  0  0  0  2  0  0  0  0  0  0
  -30.6870  -14.9880   20.3940 C   0  0  0  0  0  0  0  0  0  0  0  0
  -30.5140  -12.7810   19.2810 C   0  0  0  0  0  2  0  0  0  0  0  0
  -29.5480  -12.9430   18.0840 C   0  0  0  0  0  2  0  0  0  0  0  0
  -28.0820  -12.7510   18.5250 C   0  0  0  0  0  2  0  0  0  0  0  0
  -27.7290  -13.5700   19.7950 C   0  0  0  0  0  3  0  0  0  0  0  0
  -28.8050  -13.3820   20.8870 C   0  0  0  0  0  2  0  0  0  0  0  0
  -30.1050  -13.7520   20.3130 N   0  0  0  0  0  0  0  0  0  0  0  0
  -31.8540  -15.1600   20.0320 O   0  0  0  0  0  0  0  0  0  0  0  0
  -25.3410  -14.1170   20.5740 C   0  0  0  0  0  0  0  0  0  0  0  0
  -24.2900  -13.3180   20.9370 C   0  0  0  0  0  0  0  0  0  0  0  0
  -24.7690  -11.9740   20.8520 C   0  0  0  0  0  0  0  0  0  0  0  0
  -26.3910  -13.2570   20.2910 N   0  0  0  0  0  0  0  0  0  0  0  0
  -26.0520  -11.9620   20.5180 N   0  0  0  0  0  0  0  0  0  0  0  0
  -24.0630  -10.6960   21.0130 C   0  0  0  0  0  0  0  0  0  0  0  0
  -24.4880   -9.7320   21.9530 C   0  0  0  0  0  3  0  0  0  0  0  0
  -23.7820   -8.5180   22.1020 C   0  0  0  0  0  3  0  0  0  0  0  0
  -22.6390   -8.2610   21.3100 C   0  0  0  0  0  0  0  0  0  0  0  0
  -22.2340   -9.2150   20.3600 C   0  0  0  0  0  3  0  0  0  0  0  0
  -22.9390  -10.4210   20.2090 C   0  0  0  0  0  3  0  0  0  0  0  0
  -21.9060   -7.1000   21.3670 O   0  0  0  0  0  0  0  0  0  0  0  0
  -21.8030   -6.3710   22.5240 C   0  0  0  0  0  0  0  0  0  0  0  0
  -21.2570   -6.9190   23.7050 C   0  0  0  0  0  3  0  0  0  0  0  0
  -21.1070   -6.1130   24.8510 C   0  0  0  0  0  3  0  0  0  0  0  0
  -21.4910   -4.7590   24.8170 C   0  0  0  0  0  0  0  0  0  0  0  0
  -22.0290   -4.2100   23.6390 C   0  0  0  0  0  3  0  0  0  0  0  0
  -22.1830   -5.0140   22.4950 C   0  0  0  0  0  0  0  0  0  0  0  0
  -22.6820   -4.4740   21.3580 F   0  0  0  0  0  0  0  0  0  0  0  0
  -21.3400   -3.9810   25.9140 F   0  0  0  0  0  0  0  0  0  0  0  0
  -22.8920  -13.7670   21.2480 C   0  0  0  0  0  0  0  0  0  0  0  0
  -22.1860  -13.0330   22.0990 N   0  0  0  0  0  0  0  0  0  0  0  0
  -22.4330  -14.8040   20.7700 O   0  0  0  0  0  0  0  0  0  0  0  0
  -22.5680  -12.1930   22.5080 H   0  0  0  0  0  0  0  0  0  0  0  0
  -21.2480  -13.3170   22.3490 H   0  0  0  0  0  0  0  0  0  0  0  0
  -25.4860  -15.4930   20.4380 N   0  0  0  0  0  0  0  0  0  0  0  0
  -24.7070  -16.1300   20.5680 H   0  0  0  0  0  0  0  0  0  0  0  0
  -26.3120  -15.9470   20.0740 H   0  0  0  0  0  0  0  0  0  0  0  0
  -24.9200  -23.3030   20.7940 C   0  0  0  0  0  1  0  0  0  0  0  0
  -26.2690  -23.9580   21.1370 C   0  0  0  0  0  2  0  0  0  0  0  0
  -28.9590  -24.4450   19.9370 C   0  0  0  0  0  3  0  0  0  0  0  0
  -28.9200  -25.7330   20.8600 C   0  0  0  0  0  3  0  0  0  0  0  0
  -28.9300  -27.0400   20.2090 O   0  0  0  0  0  0  0  0  0  0  0  0
  -24.7680  -31.9780   23.3460 C   0  0  0  0  0  0  0  0  0  0  0  0
  -27.7410  -27.7570   20.2080 C   0  0  0  0  0  0  0  0  0  0  0  0
  -23.6930  -30.5810   21.6110 C   0  0  0  0  0  3  0  0  0  0  0  0
  -25.2760  -29.1710   20.1820 C   0  0  0  0  0  0  0  0  0  0  0  0
  -26.2060  -31.0680   21.5170 C   0  0  0  0  0  2  0  0  0  0  0  0
  -26.3870  -29.7240   20.8300 C   0  0  0  0  0  0  0  0  0  0  0  0
  -27.6250  -29.0290   20.8310 C   0  0  0  0  0  3  0  0  0  0  0  0
  -26.6090  -27.2290   19.5510 C   0  0  0  0  0  3  0  0  0  0  0  0
  -25.3850  -27.9270   19.5350 C   0  0  0  0  0  3  0  0  0  0  0  0
  -23.9880  -29.9670   20.2150 C   0  0  0  0  0  2  0  0  0  0  0  0
  -24.9050  -31.2240   22.2170 N   0  0  0  0  0  0  0  0  0  0  0  0
  -23.6560  -32.1710   23.8580 O   0  0  0  0  0  0  0  0  0  0  0  0
  -23.0640  -29.4920   22.5110 C   0  0  0  0  0  0  0  0  0  0  0  0
  -21.7540  -29.2520   22.3370 N   0  0  0  0  0  0  0  0  0  0  0  0
  -23.7540  -28.8670   23.3210 O   0  0  0  0  0  0  0  0  0  0  0  0
  -21.2560  -29.8160   21.6630 H   0  0  0  0  0  0  0  0  0  0  0  0
  -18.4240  -27.8970   22.7130 C   0  0  0  0  0  0  0  0  0  0  0  0
  -20.9650  -28.2420   23.0420 C   0  0  0  0  0  3  0  0  0  0  0  0
  -21.1320  -26.8480   22.3940 C   0  0  0  0  0  2  0  0  0  0  0  0
  -20.0620  -26.5350   21.3450 C   0  0  0  0  0  2  0  0  0  0  0  0
  -18.6640  -26.5930   21.9700 C   0  0  0  0  0  2  0  0  0  0  0  0
  -19.5040  -28.6780   23.2030 C   0  0  0  0  0  0  0  0  0  0  0  0
  -19.2270  -29.8980   23.8570 C   0  0  0  0  0  3  0  0  0  0  0  0
  -17.9000  -30.3360   24.0290 C   0  0  0  0  0  3  0  0  0  0  0  0
  -16.8340  -29.5530   23.5550 C   0  0  0  0  0  3  0  0  0  0  0  0
  -17.0970  -28.3350   22.9030 C   0  0  0  0  0  3  0  0  0  0  0  0
  -25.9950  -32.6510   24.0340 C   0  0  0  0  0  3  0  0  0  0  0  0
  -25.6250  -34.0410   24.3380 N   0  0  0  0  0  0  0  0  0  0  0  0
  -25.9570  -35.0980   23.5850 C   0  0  0  0  0  0  0  0  0  0  0  0
  -26.6770  -35.0090   22.5850 O   0  0  0  0  0  0  0  0  0  0  0  0
  -24.9920  -34.1810   25.1100 H   0  0  0  0  0  0  0  0  0  0  0  0
  -24.1810  -36.8240   23.1430 C   0  0  0  0  0  1  0  0  0  0  0  0
  -25.4030  -36.4730   24.0060 C   0  0  0  0  0  3  0  0  0  0  0  0
  -27.4690  -37.4480   24.9080 C   0  0  0  0  0  1  0  0  0  0  0  0
  -26.4020  -37.5610   23.9180 N   0  0  0  0  0  0  0  0  0  0  0  0
  -25.9570  -38.4680   24.0340 H   0  0  0  0  0  0  0  0  0  0  0  0
  -26.4620  -31.9020   25.3420 C   0  0  1  0  0  0  0  0  0  0  0  0
  -25.3160  -31.6190   26.3400 C   0  0  0  0  0  1  0  0  0  0  0  0
  -27.1260  -30.5500   24.9890 C   0  0  0  0  0  1  0  0  0  0  0  0
  -27.5330  -32.7440   26.0740 C   0  0  0  0  0  1  0  0  0  0  0  0
  1  3  2  0
  2  1  1  0
  4  8  1  0
  4  6  1  0
  6  9  1  0
  7  5  1  0
  8  2  1  0
  8  5  1  0
  9  7  1  0
  9 11  1  0
  9 10  1  6
 12 11  1  0
 13 12  1  0
 14 19  1  0
 15 16  1  0
 15 14  1  0
 17 16  1  0
 17 24  1  0
 17 18  1  0
 19 13  1  0
 19 18  1  0
 20 13  2  0
 21 22  2  0
 22 41  1  0
 23 22  1  0
 23 26  1  0
 24 25  1  0
 24 21  1  0
 25 23  2  0
 26 27  1  0
 27 28  2  0
 29 32  1  0
 29 28  1  0
 30 29  2  0
 31 30  1  0
 31 26  2  0
 32 33  1  0
 33 34  1  0
 34 35  2  0
 36 35  1  0
 36 40  1  0
 37 36  2  0
 38 33  2  0
 38 37  1  0
 39 38  1  0
 41 42  1  0
 42 45  1  0
 42 44  1  0
 43 41  2  0
 46 47  1  0
 46 21  1  0
 48 46  1  0
 49 50  1  0
 50  1  1  0
 51  2  1  0
 51 52  2  0
 53 52  1  0
 54 65  2  0
 55 53  1  0
 55 60  1  0
 56 64  1  0
 56 66  1  0
 57 63  1  0
 57 59  1  0
 58 64  1  0
 59 60  2  0
 59 58  1  0
 61 55  2  0
 62 61  1  0
 62 57  2  0
 63 56  1  0
 64 54  1  0
 66 68  2  0
 67 66  1  0
 69 67  1  0
 70 79  2  0
 70 75  1  0
 71 67  1  0
 71 75  1  0
 72 71  1  0
 73 74  1  0
 73 72  1  0
 74 70  1  0
 75 76  2  0
 76 77  1  0
 78 77  2  0
 79 78  1  0
 80 54  1  0
 80 81  1  0
 80 90  1  0
 81 84  1  0
 82 86  1  0
 82 81  1  0
 83 82  2  0
 86 85  1  0
 88 86  1  0
 88 89  1  0
 88 87  1  0
 90 93  1  1
 90 91  1  0
 92 90  1  0
M  ISO  4  12 100  13 100  52 101  53 101
M  END
>  <TORSDO>  (23) 
F 22

>  <SCORE>  (23) 
-12.750

>  <name>  (23) 
23

>  <ligand_id>  (23) 
23

>  <original_smiles>  (23) 
[H]c1c([H])c([H])c2c(c1[H])C([H])([H])C([H])([H])C([H])([H])C2([H])N([H])C(=O)C1([H])N(C(=O)C([H])(N([H])C(=O)C([H])(N([H])C([H])([H])[H])C([H])([H])[H])C(C([H])([H])[H])(C([H])([H])[H])C([H])([H])[H])C([H])([H])c2c([H])c(OC([H])([H])C([H])([H])N(C(=O)C([H])([H])C([H])([H])[H])C3([H])C([H])([H])C([H])([H])[N+]([H])(C([H])([H])C([H])([H])C(=O)N4C([H])([H])C([H])([H])C([H])([H])C([H])(n5nc(-c6c([H])c([H])c(Oc7c([H])c([H])c(F)c([H])c7F)c([H])c6[H])c(C(=O)N([H])[H])c5N([H])[H])C4([H])[H])C([H])([H])C3([H])[H])c([H])c([H])c2C1([H])[H]

>  <smiles>  (23) 
[H]c1c([H])c([H])c2c(c1[H])C([H])([H])C([H])([H])C([H])([H])C2([H])N([H])C(=O)C1([H])N(C(=O)C([H])(N([H])C(=O)C([H])(N([H])C([H])([H])[H])C([H])([H])[H])C(C([H])([H])[H])(C([H])([H])[H])C([H])([H])[H])C([H])([H])c2c([H])c(OC([H])([H])C([H])([H])N(C(=O)C([H])([H])C([H])([H])[H])C3([H])C([H])([H])C([H])([H])[N+]([H])(C([H])([H])C([H])([H])C(=O)N4C([H])([H])C([H])([H])C([H])([H])C([H])(n5nc(-c6c([H])c([H])c(Oc7c([H])c([H])c(F)c([H])c7F)c([H])c6[H])c(C(=O)N([H])[H])c5N([H])[H])C4([H])[H])C([H])([H])C3([H])[H])c([H])c([H])c2C1([H])[H]

$$$$
24:0:0
     RDKit          3D

107117  0  0  1  0  0  0  0  0999 V2000
  -32.5470  -17.7330   20.2450 C   0  0  0  0  0  0  0  0  0  0  0  0
  -30.0350  -18.1490   23.1560 C   0  0  0  0  0  3  0  0  0  0  0  0
  -30.4940  -19.3420   24.0370 C   0  0  0  0  0  3  0  0  0  0  0  0
  -32.7200  -19.9470   22.8890 C   0  0  0  0  0  2  0  0  0  0  0  0
  -29.8820  -19.2330   20.8420 C   0  0  0  0  0  2  0  0  0  0  0  0
  -32.8140  -18.4360   22.5670 C   0  0  0  0  0  2  0  0  0  0  0  0
  -30.5430  -20.6090   20.9650 C   0  0  0  0  0  2  0  0  0  0  0  0
  -30.4940  -18.0840   21.6720 C   0  0  0  0  0  3  0  0  0  0  0  0
  -31.3250  -20.4420   23.3540 C   0  0  0  0  0  3  0  0  0  0  0  0
  -31.9560  -17.9990   21.4450 N   0  0  0  0  0  0  0  0  0  0  0  0
  -30.5130  -21.1810   22.3390 N   0  0  1  0  0  4  0  0  0  0  0  0
  -33.6180  -18.2840   19.9830 O   0  0  0  0  0  0  0  0  0  0  0  0
  -29.5650  -21.0900   22.6730 H   0  0  0  0  0  0  0  0  0  0  0  0
  -30.7410  -22.6530   22.3340 C   0  0  0  0  0  2  0  0  0  0  0  0
  -29.5050  -23.3940   21.7940 C   0  0  0  0  0  2  0  0  0  0  0  0
  -29.7120  -24.8860   21.5320 C   0  0  0  0  0  2  0  0  0  0  0  0
  -28.5690  -25.3860   20.6530 C   0  0  0  0  0  2  0  0  0  0  0  0
  -28.6660  -26.7920   20.5250 O   0  0  0  0  0  0  0  0  0  0  0  0
  -24.6980  -31.9290   23.3210 C   0  0  0  0  0  0  0  0  0  0  0  0
  -27.4710  -27.4640   20.4470 C   0  0  0  0  0  0  0  0  0  0  0  0
  -23.5510  -30.4700   21.6860 C   0  0  0  0  0  3  0  0  0  0  0  0
  -25.0570  -28.9140   20.3460 C   0  0  0  0  0  0  0  0  0  0  0  0
  -26.0740  -30.8590   21.5440 C   0  0  0  0  0  2  0  0  0  0  0  0
  -26.1900  -29.4750   20.9490 C   0  0  0  0  0  0  0  0  0  0  0  0
  -27.4000  -28.7550   20.9980 C   0  0  0  0  0  3  0  0  0  0  0  0
  -26.3260  -26.9060   19.8350 C   0  0  0  0  0  3  0  0  0  0  0  0
  -25.1180  -27.6260   19.7870 C   0  0  0  0  0  3  0  0  0  0  0  0
  -23.8000  -29.7530   20.3330 C   0  0  0  0  0  2  0  0  0  0  0  0
  -24.7920  -31.1020   22.2430 N   0  0  0  0  0  0  0  0  0  0  0  0
  -23.6000  -32.2050   23.8240 O   0  0  0  0  0  0  0  0  0  0  0  0
  -22.8890  -29.4650   22.6530 C   0  0  0  0  0  0  0  0  0  0  0  0
  -21.5690  -29.2730   22.4980 N   0  0  0  0  0  0  0  0  0  0  0  0
  -23.5570  -28.8610   23.4970 O   0  0  0  0  0  0  0  0  0  0  0  0
  -21.0930  -29.8140   21.7910 H   0  0  0  0  0  0  0  0  0  0  0  0
  -18.1810  -28.1160   22.9650 C   0  0  0  0  0  0  0  0  0  0  0  0
  -20.7370  -28.3510   23.2690 C   0  0  0  0  0  3  0  0  0  0  0  0
  -20.8330  -26.9110   22.7110 C   0  0  0  0  0  2  0  0  0  0  0  0
  -19.7400  -26.5870   21.6860 C   0  0  0  0  0  2  0  0  0  0  0  0
  -18.3520  -26.7550   22.3090 C   0  0  0  0  0  2  0  0  0  0  0  0
  -19.3020  -28.8720   23.4000 C   0  0  0  0  0  0  0  0  0  0  0  0
  -19.0870  -30.1460   23.9690 C   0  0  0  0  0  3  0  0  0  0  0  0
  -17.7850  -30.6640   24.1080 C   0  0  0  0  0  3  0  0  0  0  0  0
  -16.6800  -29.9030   23.6930 C   0  0  0  0  0  3  0  0  0  0  0  0
  -16.8780  -28.6310   23.1260 C   0  0  0  0  0  3  0  0  0  0  0  0
  -25.9600  -32.5890   23.9620 C   0  0  0  0  0  3  0  0  0  0  0  0
  -26.4600  -31.8490   25.2620 C   0  0  1  0  0  0  0  0  0  0  0  0
  -25.3440  -31.5980   26.3050 C   0  0  0  0  0  1  0  0  0  0  0  0
  -27.0840  -30.4810   24.9000 C   0  0  0  0  0  1  0  0  0  0  0  0
  -27.5770  -32.6780   25.9420 C   0  0  0  0  0  1  0  0  0  0  0  0
  -25.6270  -33.9880   24.2530 N   0  0  0  0  0  0  0  0  0  0  0  0
  -25.9560  -35.0260   23.4730 C   0  0  0  0  0  0  0  0  0  0  0  0
  -26.6430  -34.9080   22.4540 O   0  0  0  0  0  0  0  0  0  0  0  0
  -25.0200  -34.1540   25.0430 H   0  0  0  0  0  0  0  0  0  0  0  0
  -24.1980  -36.7750   23.0520 C   0  0  0  0  0  1  0  0  0  0  0  0
  -25.4380  -36.4170   23.8870 C   0  0  0  0  0  3  0  0  0  0  0  0
  -27.5470  -37.3620   24.7140 C   0  0  0  0  0  1  0  0  0  0  0  0
  -26.4520  -37.4850   23.7560 N   0  0  0  0  0  0  0  0  0  0  0  0
  -26.0280  -38.4020   23.8750 H   0  0  0  0  0  0  0  0  0  0  0  0
  -31.9470  -16.8250   19.1160 C   0  0  0  0  0  3  0  0  0  0  0  0
  -31.0790  -14.6700   19.9760 C   0  0  0  0  0  0  0  0  0  0  0  0
  -30.5240  -12.6020   18.8250 C   0  0  0  0  0  2  0  0  0  0  0  0
  -29.4800  -12.7080   17.7050 C   0  0  0  0  0  2  0  0  0  0  0  0
  -28.0420  -12.6840   18.2780 C   0  0  0  0  0  2  0  0  0  0  0  0
  -27.8180  -13.4850   19.5930 C   0  0  0  0  0  3  0  0  0  0  0  0
  -28.9960  -13.3350   20.5780 C   0  0  0  0  0  2  0  0  0  0  0  0
  -30.2190  -13.6280   19.8170 N   0  0  0  0  0  0  0  0  0  0  0  0
  -32.2350  -14.4590   20.2810 O   0  0  0  0  0  0  0  0  0  0  0  0
  -30.8010  -15.8920   19.4020 N   0  0  0  0  0  0  0  0  0  0  0  0
  -25.4980  -14.0880   20.5210 C   0  0  0  0  0  0  0  0  0  0  0  0
  -24.4490  -13.3060   20.9240 C   0  0  0  0  0  0  0  0  0  0  0  0
  -24.9040  -11.9590   20.8170 C   0  0  0  0  0  0  0  0  0  0  0  0
  -26.5200  -13.2080   20.1920 N   0  0  0  0  0  0  0  0  0  0  0  0
  -26.1740  -11.9240   20.4430 N   0  0  0  0  0  0  0  0  0  0  0  0
  -24.1890  -10.6910   20.9940 C   0  0  0  0  0  0  0  0  0  0  0  0
  -24.6200   -9.7340   21.9380 C   0  0  0  0  0  3  0  0  0  0  0  0
  -23.9100   -8.5260   22.1010 C   0  0  0  0  0  3  0  0  0  0  0  0
  -22.7590   -8.2700   21.3180 C   0  0  0  0  0  0  0  0  0  0  0  0
  -22.3490   -9.2180   20.3640 C   0  0  0  0  0  3  0  0  0  0  0  0
  -23.0610  -10.4170   20.1990 C   0  0  0  0  0  3  0  0  0  0  0  0
  -22.0200   -7.1150   21.3950 O   0  0  0  0  0  0  0  0  0  0  0  0
  -21.8860   -6.4270   22.5740 C   0  0  0  0  0  0  0  0  0  0  0  0
  -21.3340   -7.0260   23.7280 C   0  0  0  0  0  3  0  0  0  0  0  0
  -21.1480   -6.2620   24.8980 C   0  0  0  0  0  3  0  0  0  0  0  0
  -21.5050   -4.9010   24.9130 C   0  0  0  0  0  0  0  0  0  0  0  0
  -22.0570   -4.3020   23.7650 C   0  0  0  0  0  3  0  0  0  0  0  0
  -22.2440   -5.0640   22.5980 C   0  0  0  0  0  0  0  0  0  0  0  0
  -22.7560   -4.4790   21.4880 F   0  0  0  0  0  0  0  0  0  0  0  0
  -21.3180   -4.1630   26.0320 F   0  0  0  0  0  0  0  0  0  0  0  0
  -23.0730  -13.7770   21.2890 C   0  0  0  0  0  0  0  0  0  0  0  0
  -22.4020  -13.0630   22.1890 N   0  0  0  0  0  0  0  0  0  0  0  0
  -22.6020  -14.8100   20.8210 O   0  0  0  0  0  0  0  0  0  0  0  0
  -22.7950  -12.2250   22.5880 H   0  0  0  0  0  0  0  0  0  0  0  0
  -21.4850  -13.3640   22.4850 H   0  0  0  0  0  0  0  0  0  0  0  0
  -25.6480  -15.4600   20.3780 N   0  0  0  0  0  0  0  0  0  0  0  0
  -24.8940  -16.1110   20.5630 H   0  0  0  0  0  0  0  0  0  0  0  0
  -26.4600  -15.8940   19.9610 H   0  0  0  0  0  0  0  0  0  0  0  0
  -29.6640  -16.1430   18.4830 C   0  0  0  0  0  2  0  0  0  0  0  0
  -27.4570  -17.1740   17.8850 C   0  0  0  0  0  1  0  0  0  0  0  0
  -28.5000  -17.0010   18.9970 C   0  0  0  0  0  2  0  0  0  0  0  0
  -33.0330  -16.1300   18.1860 C   0  0  0  0  0  3  0  0  0  0  0  0
  -34.4040  -15.6960   18.8020 C   0  0  0  0  0  3  0  0  0  0  0  0
  -36.9880  -12.9250   16.6770 C   0  0  0  0  0  3  0  0  0  0  0  0
  -36.1320  -12.4510   17.6880 C   0  0  0  0  0  3  0  0  0  0  0  0
  -36.9490  -14.2820   16.3010 C   0  0  0  0  0  3  0  0  0  0  0  0
  -35.2500  -13.3380   18.3410 C   0  0  0  0  0  3  0  0  0  0  0  0
  -36.0640  -15.1700   16.9490 C   0  0  0  0  0  3  0  0  0  0  0  0
  -35.2220  -14.7050   17.9850 C   0  0  0  0  0  0  0  0  0  0  0  0
  1 10  1  0
  2  3  2  0
  5  7  1  0
  6  4  1  0
  7 11  1  0
  8  5  1  0
  8  2  1  0
  9  4  1  0
  9  3  1  0
 10  8  1  0
 10  6  1  0
 11 13  1  1
 11  9  1  0
 12  1  2  0
 14 11  1  0
 15 14  1  0
 16 15  1  0
 17 16  1  0
 18 17  1  0
 19 30  2  0
 20 18  1  0
 20 25  1  0
 21 29  1  0
 21 31  1  0
 22 24  1  0
 23 29  1  0
 24 25  2  0
 24 23  1  0
 26 20  2  0
 27 26  1  0
 27 22  2  0
 28 22  1  0
 28 21  1  0
 29 19  1  0
 31 33  2  0
 32 31  1  0
 34 32  1  0
 35 44  2  0
 35 40  1  0
 36 32  1  0
 36 40  1  0
 37 36  1  0
 38 39  1  0
 38 37  1  0
 39 35  1  0
 40 41  2  0
 41 42  1  0
 43 42  2  0
 44 43  1  0
 45 19  1  0
 45 50  1  0
 45 46  1  0
 46 49  1  1
 46 47  1  0
 48 46  1  0
 50 53  1  0
 51 55  1  0
 51 50  1  0
 52 51  2  0
 55 54  1  0
 57 58  1  0
 57 55  1  0
 57 56  1  0
 59100  1  0
 59 68  1  0
 59  1  1  0
 60 67  2  0
 61 66  1  0
 62 63  1  0
 62 61  1  0
 64 63  1  0
 64 72  1  0
 64 65  1  0
 66 60  1  0
 66 65  1  0
 68 60  1  0
 69 70  2  0
 70 89  1  0
 71 70  1  0
 71 74  1  0
 72 73  1  0
 72 69  1  0
 73 71  2  0
 74 75  1  0
 75 76  2  0
 77 80  1  0
 77 76  1  0
 78 77  2  0
 79 78  1  0
 79 74  2  0
 80 81  1  0
 81 86  2  0
 81 82  1  0
 82 83  2  0
 83 84  1  0
 84 88  1  0
 85 84  2  0
 86 85  1  0
 87 86  1  0
 89 90  1  0
 90 93  1  0
 90 92  1  0
 91 89  2  0
 94 69  1  0
 94 95  1  0
 96 94  1  0
 97 99  1  0
 97 68  1  0
 98 99  1  0
100101  2  0
102103  1  0
103105  2  0
104102  2  0
104106  1  0
106107  2  0
107105  1  0
107101  1  0
M  ISO  4  17 101  18 101  60 100  68 100
M  END
>  <TORSDO>  (24) 
F 26

>  <SCORE>  (24) 
-8.533

>  <name>  (24) 
24

>  <ligand_id>  (24) 
24

>  <original_smiles>  (24) 
[H]c1c([H])c([H])c(C([H])([H])C([H])([H])C([H])(C(=O)N2C([H])([H])C([H])([H])C3([H])C([H])([H])C([H])([H])C2([H])C([H])([H])C([H])([H])[N+]3([H])C([H])([H])C([H])([H])C([H])([H])C([H])([H])Oc2c([H])c([H])c3c(c2[H])C([H])([H])N(C(=O)C([H])(N([H])C(=O)C([H])(N([H])C([H])([H])[H])C([H])([H])[H])C(C([H])([H])[H])(C([H])([H])[H])C([H])([H])[H])C([H])(C(=O)N([H])C2([H])c4c([H])c([H])c([H])c([H])c4C([H])([H])C([H])([H])C2([H])[H])C3([H])[H])N(C(=O)N2C([H])([H])C([H])([H])C([H])([H])C([H])(n3nc(-c4c([H])c([H])c(Oc5c([H])c([H])c(F)c([H])c5F)c([H])c4[H])c(C(=O)N([H])[H])c3N([H])[H])C2([H])[H])C([H])([H])C([H])([H])C([H])([H])[H])c([H])c1[H]

>  <smiles>  (24) 
[H]c1c([H])c([H])c(C([H])([H])C([H])([H])C([H])(C(=O)N2C([H])([H])C([H])([H])C3([H])C([H])([H])C([H])([H])C2([H])C([H])([H])C([H])([H])[N+]3([H])C([H])([H])C([H])([H])C([H])([H])C([H])([H])Oc2c([H])c([H])c3c(c2[H])C([H])([H])N(C(=O)C([H])(N([H])C(=O)C([H])(N([H])C([H])([H])[H])C([H])([H])[H])C(C([H])([H])[H])(C([H])([H])[H])C([H])([H])[H])C([H])(C(=O)N([H])C2([H])c4c([H])c([H])c([H])c([H])c4C([H])([H])C([H])([H])C2([H])[H])C3([H])[H])N(C(=O)N2C([H])([H])C([H])([H])C([H])([H])C([H])(n3nc(-c4c([H])c([H])c(Oc5c([H])c([H])c(F)c([H])c5F)c([H])c4[H])c(C(=O)N([H])[H])c3N([H])[H])C2([H])[H])C([H])([H])C([H])([H])C([H])([H])[H])c([H])c1[H]

$$$$
25:0:0
     RDKit          3D

 99107  0  0  1  0  0  0  0  0999 V2000
  -29.4450  -19.9920   20.4370 C   0  0  0  0  0  3  0  0  0  0  0  0
  -26.8860  -21.8730   19.6000 C   0  0  0  0  0  2  0  0  0  0  0  0
  -27.3830  -22.6460   20.8370 C   0  0  0  0  0  2  0  0  0  0  0  0
  -28.1480  -21.4610   18.8090 C   0  0  0  0  0  2  0  0  0  0  0  0
  -28.8320  -22.9840   20.4930 C   0  0  0  0  0  3  0  0  0  0  0  0
  -29.2650  -21.5390   19.7750 N   0  0  1  0  0  4  0  0  0  0  0  0
  -30.1170  -21.7220   19.2620 H   0  0  0  0  0  0  0  0  0  0  0  0
  -28.7290  -24.6400   19.7630 C   0  0  0  0  0  2  0  0  0  0  0  0
  -28.5880  -26.2000   20.2880 O   0  0  0  0  0  0  0  0  0  0  0  0
  -24.7200  -31.9460   23.1880 C   0  0  0  0  0  0  0  0  0  0  0  0
  -27.5320  -27.2410   20.1450 C   0  0  0  0  0  0  0  0  0  0  0  0
  -23.6200  -30.5410   21.4890 C   0  0  0  0  0  3  0  0  0  0  0  0
  -25.1670  -29.0280   20.0660 C   0  0  0  0  0  0  0  0  0  0  0  0
  -26.1770  -30.8570   21.4150 C   0  0  0  0  0  2  0  0  0  0  0  0
  -26.3170  -29.4670   20.7300 C   0  0  0  0  0  0  0  0  0  0  0  0
  -27.4900  -28.5910   20.7510 C   0  0  0  0  0  3  0  0  0  0  0  0
  -26.3520  -26.9540   19.4220 C   0  0  0  0  0  3  0  0  0  0  0  0
  -25.2090  -27.7960   19.3920 C   0  0  0  0  0  3  0  0  0  0  0  0
  -23.9100  -29.8940   20.1040 C   0  0  0  0  0  2  0  0  0  0  0  0
  -24.8570  -31.1410   22.0850 N   0  0  0  0  0  0  0  0  0  0  0  0
  -23.6090  -32.1830   23.6900 O   0  0  0  0  0  0  0  0  0  0  0  0
  -22.9430  -29.5010   22.4170 C   0  0  0  0  0  0  0  0  0  0  0  0
  -21.6150  -29.3190   22.2870 N   0  0  0  0  0  0  0  0  0  0  0  0
  -23.6170  -28.8560   23.2250 O   0  0  0  0  0  0  0  0  0  0  0  0
  -21.1220  -29.8900   21.6130 H   0  0  0  0  0  0  0  0  0  0  0  0
  -18.2410  -28.0870   22.7990 C   0  0  0  0  0  0  0  0  0  0  0  0
  -20.8070  -28.3420   23.0220 C   0  0  0  0  0  3  0  0  0  0  0  0
  -20.8960  -26.9450   22.3670 C   0  0  0  0  0  2  0  0  0  0  0  0
  -19.7730  -26.6770   21.3600 C   0  0  0  0  0  2  0  0  0  0  0  0
  -18.4050  -26.7800   22.0400 C   0  0  0  0  0  2  0  0  0  0  0  0
  -19.3680  -28.8270   23.2460 C   0  0  0  0  0  0  0  0  0  0  0  0
  -19.1600  -30.0500   23.9200 C   0  0  0  0  0  3  0  0  0  0  0  0
  -17.8570  -30.5330   24.1490 C   0  0  0  0  0  3  0  0  0  0  0  0
  -16.7450  -29.7900   23.7160 C   0  0  0  0  0  3  0  0  0  0  0  0
  -16.9380  -28.5680   23.0480 C   0  0  0  0  0  3  0  0  0  0  0  0
  -25.9530  -32.6190   23.8650 C   0  0  0  0  0  3  0  0  0  0  0  0
  -26.4240  -31.8770   25.1770 C   0  0  1  0  0  0  0  0  0  0  0  0
  -25.2820  -31.6260   26.1900 C   0  0  0  0  0  1  0  0  0  0  0  0
  -27.0610  -30.5070   24.8460 C   0  0  0  0  0  1  0  0  0  0  0  0
  -27.5220  -32.7050   25.8830 C   0  0  0  0  0  1  0  0  0  0  0  0
  -25.5950  -34.0150   24.1740 N   0  0  0  0  0  0  0  0  0  0  0  0
  -25.9320  -35.0760   23.4310 C   0  0  0  0  0  0  0  0  0  0  0  0
  -26.6410  -34.9860   22.4240 O   0  0  0  0  0  0  0  0  0  0  0  0
  -24.9680  -34.1580   24.9520 H   0  0  0  0  0  0  0  0  0  0  0  0
  -24.1810  -36.8370   23.0220 C   0  0  0  0  0  1  0  0  0  0  0  0
  -25.4030  -36.4570   23.8710 C   0  0  0  0  0  3  0  0  0  0  0  0
  -27.4820  -37.3990   24.7780 C   0  0  0  0  0  1  0  0  0  0  0  0
  -26.4170  -37.5320   23.7880 N   0  0  0  0  0  0  0  0  0  0  0  0
  -25.9840  -38.4450   23.9080 H   0  0  0  0  0  0  0  0  0  0  0  0
  -29.8620  -20.0690   21.9300 C   0  0  0  0  0  2  0  0  0  0  0  0
  -31.2620  -20.6230   22.2620 C   0  0  0  0  0  2  0  0  0  0  0  0
  -31.4570  -20.7220   23.7200 N   0  0  0  0  0  4  0  0  0  0  0  0
  -30.7690  -21.3260   24.1350 H   0  0  0  0  0  0  0  0  0  0  0  0
  -32.3600  -21.1120   23.9230 H   0  0  0  0  0  0  0  0  0  0  0  0
  -31.3940  -19.8220   24.1630 H   0  0  0  0  0  0  0  0  0  0  0  0
  -30.0830  -18.4760   19.6700 C   0  0  0  0  0  0  0  0  0  0  0  0
  -30.7240  -15.5570   19.9030 C   0  0  0  0  0  0  0  0  0  0  0  0
  -30.6340  -13.1140   19.0250 C   0  0  0  0  0  2  0  0  0  0  0  0
  -29.6770  -12.9650   17.8150 C   0  0  0  0  0  2  0  0  0  0  0  0
  -28.2320  -12.7260   18.2860 C   0  0  0  0  0  2  0  0  0  0  0  0
  -27.8400  -13.6630   19.4580 C   0  0  0  0  0  3  0  0  0  0  0  0
  -28.9250  -13.7710   20.5490 C   0  0  0  0  0  2  0  0  0  0  0  0
  -30.1470  -14.2550   19.8920 N   0  0  0  0  0  0  0  0  0  0  0  0
  -31.9110  -15.5510   19.5530 O   0  0  0  0  0  0  0  0  0  0  0  0
  -30.0070  -16.8430   20.1120 N   0  0  0  0  0  4  0  0  0  0  0  0
  -29.0920  -16.6360   20.4880 H   0  0  0  0  0  0  0  0  0  0  0  0
  -25.5110  -14.2210   20.3270 C   0  0  0  0  0  0  0  0  0  0  0  0
  -24.4610  -13.4460   20.7300 C   0  0  0  0  0  0  0  0  0  0  0  0
  -24.9140  -12.0930   20.6540 C   0  0  0  0  0  0  0  0  0  0  0  0
  -26.5320  -13.3410   20.0140 N   0  0  0  0  0  0  0  0  0  0  0  0
  -26.1920  -12.0550   20.2810 N   0  0  0  0  0  0  0  0  0  0  0  0
  -24.1810  -10.8350   20.8540 C   0  0  0  0  0  0  0  0  0  0  0  0
  -24.6130   -9.8670   21.7880 C   0  0  0  0  0  3  0  0  0  0  0  0
  -23.8780   -8.6760   21.9760 C   0  0  0  0  0  3  0  0  0  0  0  0
  -22.6970   -8.4450   21.2330 C   0  0  0  0  0  0  0  0  0  0  0  0
  -22.2840   -9.4000   20.2890 C   0  0  0  0  0  3  0  0  0  0  0  0
  -23.0190  -10.5820   20.0990 C   0  0  0  0  0  3  0  0  0  0  0  0
  -21.9350   -7.3050   21.3290 O   0  0  0  0  0  0  0  0  0  0  0  0
  -21.8750   -6.5750   22.4880 C   0  0  0  0  0  0  0  0  0  0  0  0
  -21.3940   -7.1300   23.6940 C   0  0  0  0  0  3  0  0  0  0  0  0
  -21.2830   -6.3220   24.8440 C   0  0  0  0  0  3  0  0  0  0  0  0
  -21.6480   -4.9640   24.7900 C   0  0  0  0  0  0  0  0  0  0  0  0
  -22.1240   -4.4100   23.5890 C   0  0  0  0  0  3  0  0  0  0  0  0
  -22.2340   -5.2130   22.4400 C   0  0  0  0  0  0  0  0  0  0  0  0
  -22.6730   -4.6690   21.2800 F   0  0  0  0  0  0  0  0  0  0  0  0
  -21.5360   -4.1870   25.8920 F   0  0  0  0  0  0  0  0  0  0  0  0
  -23.0810  -13.9320   21.0670 C   0  0  0  0  0  0  0  0  0  0  0  0
  -22.3830  -13.2300   21.9540 N   0  0  0  0  0  0  0  0  0  0  0  0
  -22.6340  -14.9670   20.5790 O   0  0  0  0  0  0  0  0  0  0  0  0
  -22.7580  -12.3890   22.3680 H   0  0  0  0  0  0  0  0  0  0  0  0
  -21.4600  -13.5400   22.2220 H   0  0  0  0  0  0  0  0  0  0  0  0
  -25.6790  -15.5940   20.1730 N   0  0  0  0  0  0  0  0  0  0  0  0
  -24.9150  -16.2420   20.3270 H   0  0  0  0  0  0  0  0  0  0  0  0
  -26.4990  -16.0330   19.7790 H   0  0  0  0  0  0  0  0  0  0  0  0
  -31.4420  -18.8290   18.9920 C   0  0  0  0  0  2  0  0  0  0  0  0
  -32.6440  -18.2700   19.6330 N   0  0  0  0  0  4  0  0  0  0  0  0
  -32.8870  -18.7330   20.4870 H   0  0  0  0  0  0  0  0  0  0  0  0
  -33.4290  -18.3350   19.0070 H   0  0  0  0  0  0  0  0  0  0  0  0
  -32.5050  -17.2760   19.8240 H   0  0  0  0  0  0  0  0  0  0  0  0
  1 50  1  0
  2  3  1  0
  4  2  1  0
  4  6  1  0
  5  8  1  0
  5  3  1  0
  6  1  1  0
  6  5  1  0
  6  7  1  6
  8  9  1  0
 10 21  2  0
 11  9  1  0
 11 16  1  0
 12 20  1  0
 12 22  1  0
 13 19  1  0
 13 15  1  0
 14 20  1  0
 15 16  2  0
 15 14  1  0
 17 11  2  0
 18 17  1  0
 18 13  2  0
 19 12  1  0
 20 10  1  0
 22 24  2  0
 23 22  1  0
 25 23  1  0
 26 35  2  0
 26 31  1  0
 27 23  1  0
 27 31  1  0
 28 27  1  0
 29 30  1  0
 29 28  1  0
 30 26  1  0
 31 32  2  0
 32 33  1  0
 34 33  2  0
 35 34  1  0
 36 10  1  0
 36 41  1  0
 36 37  1  0
 37 40  1  1
 37 38  1  0
 39 37  1  0
 41 44  1  0
 42 46  1  0
 42 41  1  0
 43 42  2  0
 46 45  1  0
 48 46  1  0
 48 49  1  0
 48 47  1  0
 50 51  1  0
 51 52  1  0
 52 54  1  0
 52 53  1  0
 52 55  1  0
 56 65  2  0
 56  1  1  0
 57 65  1  0
 58 63  1  0
 59 60  1  0
 59 58  1  0
 61 60  1  0
 61 70  1  0
 61 62  1  0
 63 57  1  0
 63 62  1  0
 64 57  2  0
 65 66  1  0
 67 68  2  0
 68 87  1  0
 69 68  1  0
 69 72  1  0
 70 71  1  0
 70 67  1  0
 71 69  2  0
 72 73  1  0
 73 74  2  0
 75 78  1  0
 75 74  1  0
 76 75  2  0
 77 76  1  0
 77 72  2  0
 78 79  1  0
 79 80  1  0
 80 81  2  0
 82 81  1  0
 82 86  1  0
 83 82  2  0
 84 79  2  0
 84 83  1  0
 85 84  1  0
 87 88  1  0
 88 91  1  0
 88 90  1  0
 89 87  2  0
 92 67  1  0
 92 93  1  0
 94 92  1  0
 95 96  1  0
 95 56  1  0
 96 99  1  0
 96 97  1  0
 98 96  1  0
M  ISO  4   8 101   9 101  57 100  65 100
M  END
>  <TORSDO>  (25) 
F 24

>  <SCORE>  (25) 
-14.738

>  <name>  (25) 
25

>  <ligand_id>  (25) 
25

>  <original_smiles>  (25) 
[H]c1c([H])c([H])c2c(c1[H])C([H])([H])C([H])([H])C([H])([H])C2([H])N([H])C(=O)C1([H])N(C(=O)C([H])(N([H])C(=O)C([H])(N([H])C([H])([H])[H])C([H])([H])[H])C(C([H])([H])[H])(C([H])([H])[H])C([H])([H])[H])C([H])([H])c2c([H])c(OC([H])([H])C3([H])C([H])([H])C([H])([H])C([H])([H])[N+]3([H])C([H])(C([H])([H])C([H])([H])[N+]([H])([H])[H])C([H])(N([H])C(=O)N3C([H])([H])C([H])([H])C([H])([H])C([H])(n4nc(-c5c([H])c([H])c(Oc6c([H])c([H])c(F)c([H])c6F)c([H])c5[H])c(C(=O)N([H])[H])c4N([H])[H])C3([H])[H])C([H])([H])[N+]([H])([H])[H])c([H])c([H])c2C1([H])[H]

>  <smiles>  (25) 
[H]c1c([H])c([H])c2c(c1[H])C([H])([H])C([H])([H])C([H])([H])C2([H])N([H])C(=O)C1([H])N(C(=O)C([H])(N([H])C(=O)C([H])(N([H])C([H])([H])[H])C([H])([H])[H])C(C([H])([H])[H])(C([H])([H])[H])C([H])([H])[H])C([H])([H])c2c([H])c(OC([H])([H])C3([H])C([H])([H])C([H])([H])C([H])([H])[N+]3([H])C([H])(C([H])([H])C([H])([H])[N+]([H])([H])[H])C([H])(N([H])C(=O)N3C([H])([H])C([H])([H])C([H])([H])C([H])(n4nc(-c5c([H])c([H])c(Oc6c([H])c([H])c(F)c([H])c6F)c([H])c5[H])c(C(=O)N([H])[H])c4N([H])[H])C3([H])[H])C([H])([H])[N+]([H])([H])[H])c([H])c([H])c2C1([H])[H]

$$$$
26:0:0
     RDKit          3D

 97106  0  0  1  0  0  0  0  0999 V2000
  -30.7110  -14.9480   20.3990 C   0  0  0  0  0  0  0  0  0  0  0  0
  -30.4070  -12.6570   19.3830 C   0  0  0  0  0  2  0  0  0  0  0  0
  -29.5060  -12.6860   18.1320 C   0  0  0  0  0  2  0  0  0  0  0  0
  -28.0390  -12.4960   18.5520 C   0  0  0  0  0  2  0  0  0  0  0  0
  -27.6430  -13.4220   19.7300 C   0  0  0  0  0  3  0  0  0  0  0  0
  -28.6820  -13.4080   20.8710 C   0  0  0  0  0  2  0  0  0  0  0  0
  -29.9700  -13.7750   20.2720 N   0  0  0  0  0  0  0  0  0  0  0  0
  -31.9190  -14.8260   20.1640 O   0  0  0  0  0  0  0  0  0  0  0  0
  -28.9380  -18.1390   18.1630 C   0  0  0  0  0  2  0  0  0  0  0  0
  -30.4270  -17.7760   18.3780 C   0  0  0  0  0  2  0  0  0  0  0  0
  -28.4960  -18.3870   21.2330 C   0  0  0  0  0  2  0  0  0  0  0  0
  -31.2880  -18.6960   20.7330 C   0  0  0  0  0  2  0  0  0  0  0  0
  -28.8470  -16.8050   20.9450 C   0  0  0  0  0  2  0  0  0  0  0  0
  -30.9650  -20.1880   20.2840 C   0  0  0  0  0  2  0  0  0  0  0  0
  -28.3920  -19.4760   18.7360 C   0  0  0  0  0  3  0  0  0  0  0  0
  -30.9210  -17.4490   19.8090 C   0  0  0  0  0  3  0  0  0  0  0  0
  -28.5650  -19.7180   20.2770 C   0  0  0  0  0  3  0  0  0  0  0  0
  -30.1640  -16.2810   20.4140 N   0  0  0  0  0  0  0  0  0  0  0  0
  -29.6170  -20.7840   20.6230 N   0  0  2  0  0  4  0  0  0  0  0  0
  -29.6040  -20.8480   21.6300 H   0  0  0  0  0  0  0  0  0  0  0  0
  -25.2590  -14.0430   20.4140 C   0  0  0  0  0  0  0  0  0  0  0  0
  -24.1800  -13.2840   20.7770 C   0  0  0  0  0  0  0  0  0  0  0  0
  -24.6340  -11.9290   20.7850 C   0  0  0  0  0  0  0  0  0  0  0  0
  -26.2960  -13.1490   20.2110 N   0  0  0  0  0  0  0  0  0  0  0  0
  -25.9300  -11.8750   20.5040 N   0  0  0  0  0  0  0  0  0  0  0  0
  -23.8920  -10.6780   20.9830 C   0  0  0  0  0  0  0  0  0  0  0  0
  -24.3030   -9.7150   21.9300 C   0  0  0  0  0  3  0  0  0  0  0  0
  -23.5570   -8.5320   22.1170 C   0  0  0  0  0  3  0  0  0  0  0  0
  -22.3850   -8.3030   21.3560 C   0  0  0  0  0  0  0  0  0  0  0  0
  -21.9940   -9.2540   20.3960 C   0  0  0  0  0  3  0  0  0  0  0  0
  -22.7420  -10.4280   20.2080 C   0  0  0  0  0  3  0  0  0  0  0  0
  -21.6130   -7.1710   21.4510 O   0  0  0  0  0  0  0  0  0  0  0  0
  -21.5580   -6.4320   22.6060 C   0  0  0  0  0  0  0  0  0  0  0  0
  -21.1680   -7.0010   23.8380 C   0  0  0  0  0  3  0  0  0  0  0  0
  -21.0580   -6.1900   24.9850 C   0  0  0  0  0  3  0  0  0  0  0  0
  -21.3310   -4.8120   24.9010 C   0  0  0  0  0  0  0  0  0  0  0  0
  -21.7150   -4.2430   23.6740 C   0  0  0  0  0  3  0  0  0  0  0  0
  -21.8260   -5.0500   22.5300 C   0  0  0  0  0  0  0  0  0  0  0  0
  -22.1760   -4.4930   21.3440 F   0  0  0  0  0  0  0  0  0  0  0  0
  -21.2190   -4.0300   26.0010 F   0  0  0  0  0  0  0  0  0  0  0  0
  -22.7820  -13.7810   21.0020 C   0  0  0  0  0  0  0  0  0  0  0  0
  -22.0350  -13.1230   21.8820 N   0  0  0  0  0  0  0  0  0  0  0  0
  -22.3620  -14.7870   20.4330 O   0  0  0  0  0  0  0  0  0  0  0  0
  -22.3880  -12.3090   22.3640 H   0  0  0  0  0  0  0  0  0  0  0  0
  -21.0970  -13.4390   22.0780 H   0  0  0  0  0  0  0  0  0  0  0  0
  -25.4320  -15.4080   20.2170 N   0  0  0  0  0  0  0  0  0  0  0  0
  -24.6600  -16.0600   20.3070 H   0  0  0  0  0  0  0  0  0  0  0  0
  -26.2770  -15.8460   19.8760 H   0  0  0  0  0  0  0  0  0  0  0  0
  -26.9110  -19.5960   18.3240 C   0  0  0  0  0  0  0  0  0  0  0  0
  -26.6030  -20.3830   17.2990 N   0  0  0  0  0  0  0  0  0  0  0  0
  -26.0370  -18.9660   18.9180 O   0  0  0  0  0  0  0  0  0  0  0  0
  -27.3140  -20.9020   16.8000 H   0  0  0  0  0  0  0  0  0  0  0  0
  -25.6440  -20.4440   16.9840 H   0  0  0  0  0  0  0  0  0  0  0  0
  -29.5380  -22.3050   20.1460 C   0  0  0  0  0  2  0  0  0  0  0  0
  -28.3970  -23.4530   20.5250 C   0  0  0  0  0  2  0  0  0  0  0  0
  -28.6730  -25.0470   20.9680 C   0  0  0  0  0  2  0  0  0  0  0  0
  -28.5980  -26.3900   20.2330 O   0  0  0  0  0  0  0  0  0  0  0  0
  -24.6540  -31.8790   23.1640 C   0  0  0  0  0  0  0  0  0  0  0  0
  -27.4720  -27.2670   20.2650 C   0  0  0  0  0  0  0  0  0  0  0  0
  -23.5510  -30.4440   21.4870 C   0  0  0  0  0  3  0  0  0  0  0  0
  -25.0920  -28.9020   20.1320 C   0  0  0  0  0  0  0  0  0  0  0  0
  -26.0950  -30.7960   21.4070 C   0  0  0  0  0  2  0  0  0  0  0  0
  -26.2330  -29.4030   20.7750 C   0  0  0  0  0  0  0  0  0  0  0  0
  -27.4290  -28.6020   20.8180 C   0  0  0  0  0  3  0  0  0  0  0  0
  -26.3050  -26.8400   19.6040 C   0  0  0  0  0  3  0  0  0  0  0  0
  -25.1370  -27.6320   19.5330 C   0  0  0  0  0  3  0  0  0  0  0  0
  -23.8390  -29.7630   20.1220 C   0  0  0  0  0  2  0  0  0  0  0  0
  -24.7830  -31.0620   22.0760 N   0  0  0  0  0  0  0  0  0  0  0  0
  -23.5420  -32.1350   23.6530 O   0  0  0  0  0  0  0  0  0  0  0  0
  -22.8670  -29.4220   22.4270 C   0  0  0  0  0  0  0  0  0  0  0  0
  -21.5440  -29.2390   22.2720 N   0  0  0  0  0  0  0  0  0  0  0  0
  -23.5290  -28.7950   23.2580 O   0  0  0  0  0  0  0  0  0  0  0  0
  -21.0660  -29.7980   21.5800 H   0  0  0  0  0  0  0  0  0  0  0  0
  -18.1590  -28.0300   22.7120 C   0  0  0  0  0  0  0  0  0  0  0  0
  -20.7160  -28.2890   23.0180 C   0  0  0  0  0  3  0  0  0  0  0  0
  -20.8250  -26.8670   22.4220 C   0  0  0  0  0  2  0  0  0  0  0  0
  -19.7380  -26.5600   21.3860 C   0  0  0  0  0  2  0  0  0  0  0  0
  -18.3470  -26.6940   22.0120 C   0  0  0  0  0  2  0  0  0  0  0  0
  -19.2720  -28.7860   23.1680 C   0  0  0  0  0  0  0  0  0  0  0  0
  -19.0440  -30.0390   23.7790 C   0  0  0  0  0  3  0  0  0  0  0  0
  -17.7360  -30.5360   23.9370 C   0  0  0  0  0  3  0  0  0  0  0  0
  -16.6380  -29.7770   23.4970 C   0  0  0  0  0  3  0  0  0  0  0  0
  -16.8510  -28.5250   22.8910 C   0  0  0  0  0  3  0  0  0  0  0  0
  -25.8930  -32.5480   23.8340 C   0  0  0  0  0  3  0  0  0  0  0  0
  -26.3780  -31.7900   25.1310 C   0  0  1  0  0  0  0  0  0  0  0  0
  -25.2510  -31.5290   26.1570 C   0  0  0  0  0  1  0  0  0  0  0  0
  -27.0070  -30.4240   24.7680 C   0  0  0  0  0  1  0  0  0  0  0  0
  -27.4860  -32.6120   25.8320 C   0  0  0  0  0  1  0  0  0  0  0  0
  -25.5340  -33.9370   24.1560 N   0  0  0  0  0  0  0  0  0  0  0  0
  -25.8630  -35.0010   23.4120 C   0  0  0  0  0  0  0  0  0  0  0  0
  -26.5680  -34.9190   22.4020 O   0  0  0  0  0  0  0  0  0  0  0  0
  -24.9080  -34.0700   24.9380 H   0  0  0  0  0  0  0  0  0  0  0  0
  -24.0940  -36.7470   23.0130 C   0  0  0  0  0  1  0  0  0  0  0  0
  -25.3240  -36.3750   23.8590 C   0  0  0  0  0  3  0  0  0  0  0  0
  -27.4130  -37.3130   24.7450 C   0  0  0  0  0  1  0  0  0  0  0  0
  -26.3270  -37.4590   23.7790 N   0  0  0  0  0  0  0  0  0  0  0  0
  -25.8900  -38.3640   23.9310 H   0  0  0  0  0  0  0  0  0  0  0  0
  1 18  1  0
  2  7  1  0
  3  4  1  0
  3  2  1  0
  5  4  1  0
  5 24  1  0
  5  6  1  0
  7  1  1  0
  7  6  1  0
  8  1  2  0
  9 10  1  0
  9 15  1  0
 13 11  1  0
 14 19  1  0
 14 12  1  0
 15 49  1  0
 15 17  1  0
 16 10  1  0
 16 18  1  0
 16 12  1  0
 17 19  1  0
 17 11  1  0
 18 13  1  0
 19 20  1  1
 21 22  2  0
 22 23  1  0
 22 41  1  0
 23 26  1  0
 24 21  1  0
 24 25  1  0
 25 23  2  0
 26 27  1  0
 27 28  2  0
 29 32  1  0
 29 28  1  0
 30 29  2  0
 31 30  1  0
 31 26  2  0
 32 33  1  0
 33 34  1  0
 34 35  2  0
 36 35  1  0
 36 40  1  0
 37 36  2  0
 38 33  2  0
 38 37  1  0
 39 38  1  0
 41 42  1  0
 42 45  1  0
 42 44  1  0
 43 41  2  0
 46 47  1  0
 46 21  1  0
 48 46  1  0
 49 51  2  0
 50 49  1  0
 52 50  1  0
 53 50  1  0
 54 55  1  0
 54 19  1  0
 55 56  1  0
 57 59  1  0
 57 56  1  0
 58 69  2  0
 59 64  1  0
 60 68  1  0
 60 70  1  0
 61 63  1  0
 62 68  1  0
 63 64  2  0
 63 62  1  0
 65 59  2  0
 66 65  1  0
 66 61  2  0
 67 61  1  0
 67 60  1  0
 68 58  1  0
 70 72  2  0
 71 70  1  0
 73 71  1  0
 74 83  2  0
 74 79  1  0
 75 71  1  0
 75 79  1  0
 76 75  1  0
 77 78  1  0
 77 76  1  0
 78 74  1  0
 79 80  2  0
 80 81  1  0
 82 81  2  0
 83 82  1  0
 84 58  1  0
 84 89  1  0
 84 85  1  0
 85 88  1  1
 85 86  1  0
 87 85  1  0
 89 92  1  0
 90 94  1  0
 90 89  1  0
 91 90  2  0
 94 93  1  0
 96 94  1  0
 96 97  1  0
 96 95  1  0
M  ISO  4   1 100  18 100  56 101  57 101
M  END
>  <TORSDO>  (26) 
F 19

>  <SCORE>  (26) 
-13.478

>  <name>  (26) 
26

>  <ligand_id>  (26) 
26

>  <original_smiles>  (26) 
[H]c1c([H])c([H])c2c(c1[H])C([H])([H])C([H])([H])C([H])([H])C2([H])N([H])C(=O)C1([H])N(C(=O)C([H])(N([H])C(=O)C([H])(N([H])C([H])([H])[H])C([H])([H])[H])C(C([H])([H])[H])(C([H])([H])[H])C([H])([H])[H])C([H])([H])c2c([H])c(OC([H])([H])C([H])([H])C([H])([H])[N+]3([H])C([H])([H])C([H])([H])C4([H])N(C(=O)N5C([H])([H])C([H])([H])C([H])([H])C([H])(n6nc(-c7c([H])c([H])c(Oc8c([H])c([H])c(F)c([H])c8F)c([H])c7[H])c(C(=O)N([H])[H])c6N([H])[H])C5([H])[H])C([H])([H])C([H])([H])C3([H])C([H])(C(=O)N([H])[H])C([H])([H])C4([H])[H])c([H])c([H])c2C1([H])[H]

>  <smiles>  (26) 
[H]c1c([H])c([H])c2c(c1[H])C([H])([H])C([H])([H])C([H])([H])C2([H])N([H])C(=O)C1([H])N(C(=O)C([H])(N([H])C(=O)C([H])(N([H])C([H])([H])[H])C([H])([H])[H])C(C([H])([H])[H])(C([H])([H])[H])C([H])([H])[H])C([H])([H])c2c([H])c(OC([H])([H])C([H])([H])C([H])([H])[N+]3([H])C([H])([H])C([H])([H])C4([H])N(C(=O)N5C([H])([H])C([H])([H])C([H])([H])C([H])(n6nc(-c7c([H])c([H])c(Oc8c([H])c([H])c(F)c([H])c8F)c([H])c7[H])c(C(=O)N([H])[H])c6N([H])[H])C5([H])[H])C([H])([H])C([H])([H])C3([H])C([H])(C(=O)N([H])[H])C([H])([H])C4([H])[H])c([H])c([H])c2C1([H])[H]

$$$$
27:0:0
     RDKit          3D

 96104  0  0  1  0  0  0  0  0999 V2000
  -31.3040  -21.3410   19.0770 C   0  0  0  0  0  2  0  0  0  0  0  0
  -30.7730  -19.9110   18.9120 C   0  0  0  0  0  2  0  0  0  0  0  0
  -30.9320  -21.6990   20.5030 C   0  0  0  0  0  2  0  0  0  0  0  0
  -29.6960  -19.6480   19.9940 C   0  0  0  0  0  3  0  0  0  0  0  0
  -29.5650  -21.1910   20.6540 N   0  0  2  0  0  4  0  0  0  0  0  0
  -29.4350  -21.0030   21.6390 H   0  0  0  0  0  0  0  0  0  0  0  0
  -30.3030  -18.1220   22.0630 C   0  0  0  0  0  2  0  0  0  0  0  0
  -30.1340  -18.0960   20.7310 C   0  0  0  0  0  0  0  0  0  0  0  0
  -30.8790  -15.3270   20.5600 C   0  0  0  0  0  0  0  0  0  0  0  0
  -30.8030  -12.8670   19.7390 C   0  0  0  0  0  2  0  0  0  0  0  0
  -29.9430  -12.6010   18.4790 C   0  0  0  0  0  2  0  0  0  0  0  0
  -28.4620  -12.3910   18.8380 C   0  0  0  0  0  2  0  0  0  0  0  0
  -27.9760  -13.3910   19.9230 C   0  0  0  0  0  3  0  0  0  0  0  0
  -28.9770  -13.5740   21.0770 C   0  0  0  0  0  2  0  0  0  0  0  0
  -30.2260  -14.0590   20.4530 N   0  0  0  0  0  0  0  0  0  0  0  0
  -32.1100  -15.1910   20.6490 O   0  0  0  0  0  0  0  0  0  0  0  0
  -30.3360  -16.6510   20.0840 N   0  0  0  0  0  0  0  0  0  0  0  0
  -25.5930  -14.0060   20.5620 C   0  0  0  0  0  0  0  0  0  0  0  0
  -24.4910  -13.2610   20.8840 C   0  0  0  0  0  0  0  0  0  0  0  0
  -24.9270  -11.9010   20.8890 C   0  0  0  0  0  0  0  0  0  0  0  0
  -26.6250  -13.1060   20.3900 N   0  0  0  0  0  0  0  0  0  0  0  0
  -26.2300  -11.8290   20.6420 N   0  0  0  0  0  0  0  0  0  0  0  0
  -24.1530  -10.6580   21.0500 C   0  0  0  0  0  0  0  0  0  0  0  0
  -24.5280   -9.6800   22.0000 C   0  0  0  0  0  3  0  0  0  0  0  0
  -23.7670   -8.4980   22.1440 C   0  0  0  0  0  3  0  0  0  0  0  0
  -22.6130   -8.2940   21.3440 C   0  0  0  0  0  0  0  0  0  0  0  0
  -22.2630   -9.2600   20.3810 C   0  0  0  0  0  3  0  0  0  0  0  0
  -23.0240  -10.4330   20.2380 C   0  0  0  0  0  3  0  0  0  0  0  0
  -21.8210   -7.1760   21.4050 O   0  0  0  0  0  0  0  0  0  0  0  0
  -21.7110   -6.4320   22.5520 C   0  0  0  0  0  0  0  0  0  0  0  0
  -21.2390   -6.9860   23.7660 C   0  0  0  0  0  3  0  0  0  0  0  0
  -21.0830   -6.1660   24.9010 C   0  0  0  0  0  3  0  0  0  0  0  0
  -21.3860   -4.7930   24.8240 C   0  0  0  0  0  0  0  0  0  0  0  0
  -21.8450   -4.2370   23.6160 C   0  0  0  0  0  3  0  0  0  0  0  0
  -22.0040   -5.0550   22.4860 C   0  0  0  0  0  0  0  0  0  0  0  0
  -22.4340   -4.5080   21.3230 F   0  0  0  0  0  0  0  0  0  0  0  0
  -21.2160   -4.0060   25.9120 F   0  0  0  0  0  0  0  0  0  0  0  0
  -23.0910  -13.7690   21.0660 C   0  0  0  0  0  0  0  0  0  0  0  0
  -22.3080  -13.1030   21.9040 N   0  0  0  0  0  0  0  0  0  0  0  0
  -22.7020  -14.7850   20.4920 O   0  0  0  0  0  0  0  0  0  0  0  0
  -22.6360  -12.2830   22.3920 H   0  0  0  0  0  0  0  0  0  0  0  0
  -21.3540  -13.4010   22.0560 H   0  0  0  0  0  0  0  0  0  0  0  0
  -25.8110  -15.3710   20.3790 N   0  0  0  0  0  0  0  0  0  0  0  0
  -25.0680  -16.0560   20.4560 H   0  0  0  0  0  0  0  0  0  0  0  0
  -26.7070  -15.7760   20.1390 H   0  0  0  0  0  0  0  0  0  0  0  0
  -30.3910  -16.7010   18.6080 C   0  0  0  0  0  2  0  0  0  0  0  0
  -31.8310  -16.8340   18.0130 C   0  0  0  0  0  2  0  0  0  0  0  0
  -32.2480  -15.6410   17.1290 C   0  0  0  0  0  2  0  0  0  0  0  0
  -33.5480  -15.8430   16.3270 C   0  0  0  0  0  2  0  0  0  0  0  0
  -34.7620  -15.9260   17.1610 N   0  0  0  0  0  4  0  0  0  0  0  0
  -35.5320  -16.2350   16.5980 H   0  0  0  0  0  0  0  0  0  0  0  0
  -35.0070  -15.0350   17.5650 H   0  0  0  0  0  0  0  0  0  0  0  0
  -34.6400  -16.5940   17.8970 H   0  0  0  0  0  0  0  0  0  0  0  0
  -28.4750  -22.4620   20.4200 C   0  0  0  0  0  2  0  0  0  0  0  0
  -28.6180  -24.2220   19.9690 C   0  0  0  0  0  2  0  0  0  0  0  0
  -28.3320  -25.7850   20.4940 O   0  0  0  0  0  0  0  0  0  0  0  0
  -24.6420  -31.7940   23.1790 C   0  0  0  0  0  0  0  0  0  0  0  0
  -27.3030  -26.8570   20.2990 C   0  0  0  0  0  0  0  0  0  0  0  0
  -23.4840  -30.3430   21.5570 C   0  0  0  0  0  3  0  0  0  0  0  0
  -24.9710  -28.7120   20.1860 C   0  0  0  0  0  0  0  0  0  0  0  0
  -26.0490  -30.5660   21.4470 C   0  0  0  0  0  2  0  0  0  0  0  0
  -26.1430  -29.1430   20.8160 C   0  0  0  0  0  0  0  0  0  0  0  0
  -27.2930  -28.2350   20.8540 C   0  0  0  0  0  3  0  0  0  0  0  0
  -26.1070  -26.5830   19.5980 C   0  0  0  0  0  3  0  0  0  0  0  0
  -24.9840  -27.4550   19.5540 C   0  0  0  0  0  3  0  0  0  0  0  0
  -23.7410  -29.6220   20.2010 C   0  0  0  0  0  2  0  0  0  0  0  0
  -24.7450  -30.9330   22.1130 N   0  0  0  0  0  0  0  0  0  0  0  0
  -23.5440  -32.0850   23.6800 O   0  0  0  0  0  0  0  0  0  0  0  0
  -22.7810  -29.3740   22.5370 C   0  0  0  0  0  0  0  0  0  0  0  0
  -21.4480  -29.2140   22.4100 N   0  0  0  0  0  0  0  0  0  0  0  0
  -23.4390  -28.7560   23.3780 O   0  0  0  0  0  0  0  0  0  0  0  0
  -20.9710  -29.7670   21.7090 H   0  0  0  0  0  0  0  0  0  0  0  0
  -18.0560  -28.0460   22.9410 C   0  0  0  0  0  0  0  0  0  0  0  0
  -20.6180  -28.2950   23.1940 C   0  0  0  0  0  3  0  0  0  0  0  0
  -20.7070  -26.8580   22.6310 C   0  0  0  0  0  2  0  0  0  0  0  0
  -19.6030  -26.5330   21.6220 C   0  0  0  0  0  2  0  0  0  0  0  0
  -18.2220  -26.6900   22.2690 C   0  0  0  0  0  2  0  0  0  0  0  0
  -19.1810  -28.8070   23.3580 C   0  0  0  0  0  0  0  0  0  0  0  0
  -18.9730  -30.0700   23.9480 C   0  0  0  0  0  3  0  0  0  0  0  0
  -17.6720  -30.5790   24.1200 C   0  0  0  0  0  3  0  0  0  0  0  0
  -16.5610  -29.8180   23.7170 C   0  0  0  0  0  3  0  0  0  0  0  0
  -16.7540  -28.5520   23.1340 C   0  0  0  0  0  3  0  0  0  0  0  0
  -25.9010  -32.4580   23.8180 C   0  0  0  0  0  3  0  0  0  0  0  0
  -26.4020  -31.7190   25.1190 C   0  0  1  0  0  0  0  0  0  0  0  0
  -25.2930  -31.4870   26.1730 C   0  0  0  0  0  1  0  0  0  0  0  0
  -27.0060  -30.3420   24.7680 C   0  0  0  0  0  1  0  0  0  0  0  0
  -27.5320  -32.5370   25.7870 C   0  0  0  0  0  1  0  0  0  0  0  0
  -25.5620  -33.8600   24.1340 N   0  0  0  0  0  0  0  0  0  0  0  0
  -25.9090  -34.9200   23.3910 C   0  0  0  0  0  0  0  0  0  0  0  0
  -26.6130  -34.8250   22.3830 O   0  0  0  0  0  0  0  0  0  0  0  0
  -24.9390  -34.0070   24.9140 H   0  0  0  0  0  0  0  0  0  0  0  0
  -24.1910  -36.7180   22.9870 C   0  0  0  0  0  1  0  0  0  0  0  0
  -25.4010  -36.3100   23.8410 C   0  0  0  0  0  3  0  0  0  0  0  0
  -27.4950  -37.2010   24.7630 C   0  0  0  0  0  1  0  0  0  0  0  0
  -26.4340  -37.3660   23.7720 N   0  0  0  0  0  0  0  0  0  0  0  0
  -26.0200  -38.2830   23.9060 H   0  0  0  0  0  0  0  0  0  0  0  0
  1  3  1  0
  2  1  1  0
  2  4  1  0
  3  5  1  0
  4  5  1  0
  4  8  1  0
  5  6  1  1
  8  7  2  0
  9 16  2  0
 10 15  1  0
 11 12  1  0
 11 10  1  0
 13 12  1  0
 13 21  1  0
 13 14  1  0
 15  9  1  0
 15 14  1  0
 17  9  1  0
 17  8  1  0
 18 19  2  0
 19 20  1  0
 19 38  1  0
 20 23  1  0
 21 18  1  0
 21 22  1  0
 22 20  2  0
 23 24  1  0
 24 25  2  0
 26 29  1  0
 26 25  1  0
 27 26  2  0
 28 27  1  0
 28 23  2  0
 29 30  1  0
 30 31  1  0
 31 32  2  0
 33 32  1  0
 33 37  1  0
 34 33  2  0
 35 30  2  0
 35 34  1  0
 36 35  1  0
 38 39  1  0
 39 42  1  0
 39 41  1  0
 40 38  2  0
 43 44  1  0
 43 18  1  0
 45 43  1  0
 46 17  1  0
 47 46  1  0
 48 47  1  0
 49 48  1  0
 49 50  1  0
 50 52  1  0
 50 53  1  0
 51 50  1  0
 54  5  1  0
 55 54  1  0
 55 56  1  0
 57 68  2  0
 58 56  1  0
 58 63  1  0
 59 67  1  0
 59 69  1  0
 60 66  1  0
 60 62  1  0
 61 67  1  0
 62 63  2  0
 62 61  1  0
 64 58  2  0
 65 64  1  0
 65 60  2  0
 66 59  1  0
 67 57  1  0
 69 71  2  0
 70 69  1  0
 72 70  1  0
 73 82  2  0
 73 78  1  0
 74 70  1  0
 74 78  1  0
 75 74  1  0
 76 77  1  0
 76 75  1  0
 77 73  1  0
 78 79  2  0
 79 80  1  0
 81 80  2  0
 82 81  1  0
 83 57  1  0
 83 88  1  0
 83 84  1  0
 84 87  1  1
 84 85  1  0
 86 84  1  0
 88 91  1  0
 89 93  1  0
 89 88  1  0
 90 89  2  0
 93 92  1  0
 95 93  1  0
 95 96  1  0
 95 94  1  0
M  ISO  4   9 100  17 100  55 101  56 101
M  END
>  <TORSDO>  (27) 
F 24

>  <SCORE>  (27) 
-13.725

>  <name>  (27) 
27

>  <ligand_id>  (27) 
27

>  <original_smiles>  (27) 
[H]C([H])=C(N(C(=O)N1C([H])([H])C([H])([H])C([H])([H])C([H])(n2nc(-c3c([H])c([H])c(Oc4c([H])c([H])c(F)c([H])c4F)c([H])c3[H])c(C(=O)N([H])[H])c2N([H])[H])C1([H])[H])C([H])([H])C([H])([H])C([H])([H])C([H])([H])[N+]([H])([H])[H])C1([H])C([H])([H])C([H])([H])C([H])([H])[N+]1([H])C([H])([H])C([H])([H])Oc1c([H])c([H])c2c(c1[H])C([H])([H])N(C(=O)C([H])(N([H])C(=O)C([H])(N([H])C([H])([H])[H])C([H])([H])[H])C(C([H])([H])[H])(C([H])([H])[H])C([H])([H])[H])C([H])(C(=O)N([H])C1([H])c3c([H])c([H])c([H])c([H])c3C([H])([H])C([H])([H])C1([H])[H])C2([H])[H]

>  <smiles>  (27) 
[H]C([H])=C(N(C(=O)N1C([H])([H])C([H])([H])C([H])([H])C([H])(n2nc(-c3c([H])c([H])c(Oc4c([H])c([H])c(F)c([H])c4F)c([H])c3[H])c(C(=O)N([H])[H])c2N([H])[H])C1([H])[H])C([H])([H])C([H])([H])C([H])([H])C([H])([H])[N+]([H])([H])[H])C1([H])C([H])([H])C([H])([H])C([H])([H])[N+]1([H])C([H])([H])C([H])([H])Oc1c([H])c([H])c2c(c1[H])C([H])([H])N(C(=O)C([H])(N([H])C(=O)C([H])(N([H])C([H])([H])[H])C([H])([H])[H])C(C([H])([H])[H])(C([H])([H])[H])C([H])([H])[H])C([H])(C(=O)N([H])C1([H])c3c([H])c([H])c([H])c([H])c3C([H])([H])C([H])([H])C1([H])[H])C2([H])[H]

$$$$
28:0:0
     RDKit          3D

 93101  0  0  1  0  0  0  0  0999 V2000
  -29.5530  -22.9420   19.7490 N   0  0  0  0  0  0  0  0  0  0  0  0
  -30.4820  -23.2590   18.6530 C   0  0  0  0  0  2  0  0  0  0  0  0
  -31.2490  -22.6390   16.3010 C   0  0  0  0  0  1  0  0  0  0  0  0
  -30.5210  -22.1710   17.5680 C   0  0  0  0  0  2  0  0  0  0  0  0
  -30.1220  -21.8510   20.5940 C   0  0  0  0  0  2  0  0  0  0  0  0
  -29.1850  -20.6150   20.8840 C   0  0  0  0  0  2  0  0  0  0  0  0
  -30.6830  -14.6560   20.2050 C   0  0  0  0  0  0  0  0  0  0  0  0
  -30.4010  -12.4410   19.1470 C   0  0  0  0  0  2  0  0  0  0  0  0
  -29.4310  -12.5710   17.9530 C   0  0  0  0  0  2  0  0  0  0  0  0
  -27.9700  -12.4130   18.4240 C   0  0  0  0  0  2  0  0  0  0  0  0
  -27.6350  -13.2790   19.6700 C   0  0  0  0  0  3  0  0  0  0  0  0
  -28.7240  -13.1580   20.7560 C   0  0  0  0  0  2  0  0  0  0  0  0
  -30.0150  -13.4660   20.1300 N   0  0  0  0  0  0  0  0  0  0  0  0
  -31.8830  -14.7430   19.9350 O   0  0  0  0  0  0  0  0  0  0  0  0
  -29.9470  -17.6400   18.5070 C   0  0  0  0  0  2  0  0  0  0  0  0
  -29.3270  -16.3260   19.0500 C   0  0  0  0  0  2  0  0  0  0  0  0
  -30.3180  -16.8620   21.2660 C   0  0  0  0  0  2  0  0  0  0  0  0
  -29.3020  -18.9310   19.0600 C   0  0  0  0  0  2  0  0  0  0  0  0
  -29.4010  -18.1360   21.3880 C   0  0  0  0  0  2  0  0  0  0  0  0
  -29.9230  -15.7980   20.3000 N   0  0  0  0  0  0  0  0  0  0  0  0
  -29.7160  -19.2660   20.4460 N   0  0  2  0  0  4  0  0  0  0  0  0
  -30.7200  -19.3610   20.4540 H   0  0  0  0  0  0  0  0  0  0  0  0
  -25.2660  -13.8800   20.4570 C   0  0  0  0  0  0  0  0  0  0  0  0
  -24.2060  -13.1050   20.8460 C   0  0  0  0  0  0  0  0  0  0  0  0
  -24.6720  -11.7560   20.8020 C   0  0  0  0  0  0  0  0  0  0  0  0
  -26.3040  -12.9990   20.1950 N   0  0  0  0  0  0  0  0  0  0  0  0
  -25.9550  -11.7170   20.4660 N   0  0  0  0  0  0  0  0  0  0  0  0
  -23.9540  -10.4900   20.9990 C   0  0  0  0  0  0  0  0  0  0  0  0
  -24.4010   -9.5280   21.9300 C   0  0  0  0  0  3  0  0  0  0  0  0
  -23.6850   -8.3260   22.1160 C   0  0  0  0  0  3  0  0  0  0  0  0
  -22.5080   -8.0790   21.3690 C   0  0  0  0  0  0  0  0  0  0  0  0
  -22.0820   -9.0300   20.4260 C   0  0  0  0  0  3  0  0  0  0  0  0
  -22.7980  -10.2240   20.2380 C   0  0  0  0  0  3  0  0  0  0  0  0
  -21.7620   -6.9290   21.4650 O   0  0  0  0  0  0  0  0  0  0  0  0
  -21.7130   -6.1970   22.6240 C   0  0  0  0  0  0  0  0  0  0  0  0
  -21.2620   -6.7550   23.8400 C   0  0  0  0  0  3  0  0  0  0  0  0
  -21.1620   -5.9470   24.9900 C   0  0  0  0  0  3  0  0  0  0  0  0
  -21.5040   -4.5840   24.9260 C   0  0  0  0  0  0  0  0  0  0  0  0
  -21.9470   -4.0250   23.7150 C   0  0  0  0  0  3  0  0  0  0  0  0
  -22.0490   -4.8290   22.5650 C   0  0  0  0  0  0  0  0  0  0  0  0
  -22.4570   -4.2820   21.3960 F   0  0  0  0  0  0  0  0  0  0  0  0
  -21.4000   -3.8060   26.0280 F   0  0  0  0  0  0  0  0  0  0  0  0
  -22.8130  -13.5800   21.1430 C   0  0  0  0  0  0  0  0  0  0  0  0
  -22.1000  -12.8770   22.0150 N   0  0  0  0  0  0  0  0  0  0  0  0
  -22.3650  -14.6060   20.6340 O   0  0  0  0  0  0  0  0  0  0  0  0
  -22.4760  -12.0520   22.4560 H   0  0  0  0  0  0  0  0  0  0  0  0
  -21.1650  -13.1800   22.2520 H   0  0  0  0  0  0  0  0  0  0  0  0
  -25.4290  -15.2520   20.2820 N   0  0  0  0  0  0  0  0  0  0  0  0
  -24.6670  -15.9080   20.4060 H   0  0  0  0  0  0  0  0  0  0  0  0
  -26.2810  -15.6860   19.9560 H   0  0  0  0  0  0  0  0  0  0  0  0
  -29.3400  -24.2210   20.4880 C   0  0  0  0  0  2  0  0  0  0  0  0
  -28.2700  -25.1800   19.8450 C   0  0  0  0  0  2  0  0  0  0  0  0
  -28.3710  -26.5960   20.1960 O   0  0  0  0  0  0  0  0  0  0  0  0
  -24.5880  -31.8730   23.2310 C   0  0  0  0  0  0  0  0  0  0  0  0
  -27.2220  -27.3860   20.1380 C   0  0  0  0  0  0  0  0  0  0  0  0
  -23.3840  -30.4810   21.5850 C   0  0  0  0  0  3  0  0  0  0  0  0
  -24.8390  -28.9530   20.1450 C   0  0  0  0  0  0  0  0  0  0  0  0
  -25.9180  -30.8170   21.4020 C   0  0  0  0  0  2  0  0  0  0  0  0
  -26.0010  -29.4490   20.7490 C   0  0  0  0  0  0  0  0  0  0  0  0
  -27.1910  -28.6730   20.7430 C   0  0  0  0  0  3  0  0  0  0  0  0
  -26.0400  -26.9360   19.5010 C   0  0  0  0  0  3  0  0  0  0  0  0
  -24.8570  -27.6980   19.5140 C   0  0  0  0  0  3  0  0  0  0  0  0
  -23.5970  -29.8150   20.1990 C   0  0  0  0  0  2  0  0  0  0  0  0
  -24.6480  -31.0730   22.1300 N   0  0  0  0  0  0  0  0  0  0  0  0
  -23.5050  -32.1470   23.7690 O   0  0  0  0  0  0  0  0  0  0  0  0
  -22.7290  -29.4550   22.5390 C   0  0  0  0  0  0  0  0  0  0  0  0
  -21.4030  -29.2750   22.4130 N   0  0  0  0  0  0  0  0  0  0  0  0
  -23.4110  -28.8240   23.3490 O   0  0  0  0  0  0  0  0  0  0  0  0
  -20.9110  -29.8350   21.7310 H   0  0  0  0  0  0  0  0  0  0  0  0
  -18.0290  -28.0770   22.9070 C   0  0  0  0  0  0  0  0  0  0  0  0
  -20.5860  -28.3350   23.1810 C   0  0  0  0  0  3  0  0  0  0  0  0
  -20.6900  -26.9060   22.6000 C   0  0  0  0  0  2  0  0  0  0  0  0
  -19.5890  -26.5870   21.5840 C   0  0  0  0  0  2  0  0  0  0  0  0
  -18.2070  -26.7300   22.2270 C   0  0  0  0  0  2  0  0  0  0  0  0
  -19.1470  -28.8390   23.3410 C   0  0  0  0  0  0  0  0  0  0  0  0
  -18.9270  -30.1000   23.9360 C   0  0  0  0  0  3  0  0  0  0  0  0
  -17.6220  -30.6010   24.1010 C   0  0  0  0  0  3  0  0  0  0  0  0
  -16.5180  -29.8370   23.6850 C   0  0  0  0  0  3  0  0  0  0  0  0
  -16.7220  -28.5780   23.0930 C   0  0  0  0  0  3  0  0  0  0  0  0
  -25.8730  -32.5040   23.8530 C   0  0  0  0  0  3  0  0  0  0  0  0
  -26.3870  -31.7340   25.1310 C   0  0  1  0  0  0  0  0  0  0  0  0
  -25.2940  -31.4990   26.1980 C   0  0  0  0  0  1  0  0  0  0  0  0
  -26.9700  -30.3550   24.7440 C   0  0  0  0  0  1  0  0  0  0  0  0
  -27.5370  -32.5290   25.7940 C   0  0  0  0  0  1  0  0  0  0  0  0
  -25.5670  -33.9030   24.1800 N   0  0  0  0  0  0  0  0  0  0  0  0
  -25.9010  -34.9540   23.4170 C   0  0  0  0  0  0  0  0  0  0  0  0
  -26.5710  -34.8470   22.3870 O   0  0  0  0  0  0  0  0  0  0  0  0
  -24.9720  -34.0630   24.9800 H   0  0  0  0  0  0  0  0  0  0  0  0
  -24.1800  -36.7510   23.0530 C   0  0  0  0  0  1  0  0  0  0  0  0
  -25.4160  -36.3440   23.8720 C   0  0  0  0  0  3  0  0  0  0  0  0
  -27.5460  -37.2260   24.7160 C   0  0  0  0  0  1  0  0  0  0  0  0
  -26.4530  -37.3940   23.7630 N   0  0  0  0  0  0  0  0  0  0  0  0
  -26.0480  -38.3150   23.9040 H   0  0  0  0  0  0  0  0  0  0  0  0
  1 51  1  0
  1  5  1  0
  2  1  1  0
  3  4  1  0
  4  2  1  0
  5  6  1  0
  7 20  1  0
  8 13  1  0
  9 10  1  0
  9  8  1  0
 11 10  1  0
 11 26  1  0
 11 12  1  0
 13  7  1  0
 13 12  1  0
 14  7  2  0
 15 16  1  0
 15 18  1  0
 16 20  1  0
 17 19  1  0
 18 21  1  0
 20 17  1  0
 21 22  1  6
 21  6  1  0
 21 19  1  0
 23 24  2  0
 24 43  1  0
 25 24  1  0
 25 28  1  0
 26 23  1  0
 26 27  1  0
 27 25  2  0
 28 29  1  0
 29 30  2  0
 31 34  1  0
 31 30  1  0
 32 31  2  0
 33 32  1  0
 33 28  2  0
 34 35  1  0
 35 36  1  0
 36 37  2  0
 38 37  1  0
 38 42  1  0
 39 38  2  0
 40 35  2  0
 40 39  1  0
 41 40  1  0
 43 44  1  0
 44 47  1  0
 44 46  1  0
 45 43  2  0
 48 49  1  0
 48 23  1  0
 50 48  1  0
 52 53  1  0
 52 51  1  0
 54 65  2  0
 55 53  1  0
 55 60  1  0
 56 64  1  0
 56 66  1  0
 57 63  1  0
 57 59  1  0
 58 64  1  0
 59 58  1  0
 60 59  2  0
 61 62  1  0
 61 55  2  0
 62 57  2  0
 63 56  1  0
 64 54  1  0
 66 68  2  0
 67 66  1  0
 69 67  1  0
 70 79  2  0
 70 75  1  0
 71 67  1  0
 71 75  1  0
 72 71  1  0
 73 74  1  0
 73 72  1  0
 74 70  1  0
 75 76  2  0
 76 77  1  0
 78 77  2  0
 79 78  1  0
 80 54  1  0
 80 85  1  0
 80 81  1  0
 81 84  1  1
 81 82  1  0
 83 81  1  0
 85 88  1  0
 86 90  1  0
 86 85  1  0
 87 86  2  0
 90 89  1  0
 92 90  1  0
 92 93  1  0
 92 91  1  0
M  ISO  4   7 100  20 100  52 101  53 101
M  END
>  <TORSDO>  (28) 
F 22

>  <SCORE>  (28) 
-12.903

>  <name>  (28) 
28

>  <ligand_id>  (28) 
28

>  <original_smiles>  (28) 
[H]c1c([H])c([H])c2c(c1[H])C([H])([H])C([H])([H])C([H])([H])C2([H])N([H])C(=O)C1([H])N(C(=O)C([H])(N([H])C(=O)C([H])(N([H])C([H])([H])[H])C([H])([H])[H])C(C([H])([H])[H])(C([H])([H])[H])C([H])([H])[H])C([H])([H])c2c([H])c(OC([H])([H])C([H])([H])N(C([H])([H])C([H])([H])C([H])([H])[H])C([H])([H])C([H])([H])[N+]3([H])C([H])([H])C([H])([H])N(C(=O)N4C([H])([H])C([H])([H])C([H])([H])C([H])(n5nc(-c6c([H])c([H])c(Oc7c([H])c([H])c(F)c([H])c7F)c([H])c6[H])c(C(=O)N([H])[H])c5N([H])[H])C4([H])[H])C([H])([H])C([H])([H])C3([H])[H])c([H])c([H])c2C1([H])[H]

>  <smiles>  (28) 
[H]c1c([H])c([H])c2c(c1[H])C([H])([H])C([H])([H])C([H])([H])C2([H])N([H])C(=O)C1([H])N(C(=O)C([H])(N([H])C(=O)C([H])(N([H])C([H])([H])[H])C([H])([H])[H])C(C([H])([H])[H])(C([H])([H])[H])C([H])([H])[H])C([H])([H])c2c([H])c(OC([H])([H])C([H])([H])N(C([H])([H])C([H])([H])C([H])([H])[H])C([H])([H])C([H])([H])[N+]3([H])C([H])([H])C([H])([H])N(C(=O)N4C([H])([H])C([H])([H])C([H])([H])C([H])(n5nc(-c6c([H])c([H])c(Oc7c([H])c([H])c(F)c([H])c7F)c([H])c6[H])c(C(=O)N([H])[H])c5N([H])[H])C4([H])[H])C([H])([H])C([H])([H])C3([H])[H])c([H])c([H])c2C1([H])[H]

$$$$
29:0:0
     RDKit          3D

101110  0  0  1  0  0  0  0  0999 V2000
  -29.2770  -21.6490   19.8520 N   0  0  0  0  0  0  0  0  0  0  0  0
  -27.4010  -20.6290   18.4480 C   0  0  0  0  0  2  0  0  0  0  0  0
  -25.2320  -21.9510   18.2290 C   0  0  0  0  0  2  0  0  0  0  0  0
  -27.1380  -22.9630   19.4130 C   0  0  0  0  0  2  0  0  0  0  0  0
  -25.8630  -20.5450   18.3590 C   0  0  0  0  0  3  0  0  0  0  0  0
  -27.8160  -21.5850   19.5960 C   0  0  0  0  0  3  0  0  0  0  0  0
  -25.6690  -22.8170   19.3410 N   0  0  0  0  0  4  0  0  0  0  0  0
  -25.3280  -22.4350   20.2080 H   0  0  0  0  0  0  0  0  0  0  0  0
  -25.2530  -23.7280   19.2270 H   0  0  0  0  0  0  0  0  0  0  0  0
  -25.4860  -19.7070   17.2310 N   0  0  0  0  0  0  0  0  0  0  0  0
  -25.6890  -20.1860   16.3590 H   0  0  0  0  0  0  0  0  0  0  0  0
  -24.4770  -19.5860   17.2160 H   0  0  0  0  0  0  0  0  0  0  0  0
  -29.8840  -20.2380   19.8100 C   0  0  0  0  0  2  0  0  0  0  0  0
  -30.9160  -19.9760   23.5940 C   0  0  0  0  0  2  0  0  0  0  0  0
  -31.7550  -18.7170   23.5880 C   0  0  0  0  0  2  0  0  0  0  0  0
  -30.6690  -20.4100   22.1540 C   0  0  0  0  0  2  0  0  0  0  0  0
  -30.9710  -17.6260   22.8800 C   0  0  0  0  0  2  0  0  0  0  0  0
  -29.9560  -19.3870   21.2020 C   0  0  0  0  0  3  0  0  0  0  0  0
  -30.6440  -17.8860   21.3690 C   0  0  0  0  0  3  0  0  0  0  0  0
  -30.6080  -15.4700   20.4430 C   0  0  0  0  0  0  0  0  0  0  0  0
  -30.4500  -13.2470   19.3200 C   0  0  0  0  0  2  0  0  0  0  0  0
  -29.5180  -13.3260   18.0940 C   0  0  0  0  0  2  0  0  0  0  0  0
  -28.0630  -13.0570   18.5160 C   0  0  0  0  0  2  0  0  0  0  0  0
  -27.6420  -13.8770   19.7650 C   0  0  0  0  0  3  0  0  0  0  0  0
  -28.7040  -13.8260   20.8880 C   0  0  0  0  0  2  0  0  0  0  0  0
  -29.9830  -14.2510   20.3090 N   0  0  0  0  0  0  0  0  0  0  0  0
  -31.7490  -15.6050   19.9980 O   0  0  0  0  0  0  0  0  0  0  0  0
  -29.9540  -16.5740   20.9780 N   0  0  0  0  0  0  0  0  0  0  0  0
  -28.9940  -16.4470   21.2580 H   0  0  0  0  0  0  0  0  0  0  0  0
  -25.2420  -14.2950   20.5630 C   0  0  0  0  0  0  0  0  0  0  0  0
  -24.2140  -13.4450   20.8700 C   0  0  0  0  0  0  0  0  0  0  0  0
  -24.7350  -12.1240   20.7200 C   0  0  0  0  0  0  0  0  0  0  0  0
  -26.3190  -13.4870   20.2420 N   0  0  0  0  0  0  0  0  0  0  0  0
  -26.0230  -12.1700   20.4000 N   0  0  0  0  0  0  0  0  0  0  0  0
  -24.0650  -10.8190   20.8070 C   0  0  0  0  0  0  0  0  0  0  0  0
  -24.5460   -9.7970   21.6540 C   0  0  0  0  0  3  0  0  0  0  0  0
  -23.8750   -8.5580   21.7370 C   0  0  0  0  0  3  0  0  0  0  0  0
  -22.7060   -8.3320   20.9710 C   0  0  0  0  0  0  0  0  0  0  0  0
  -22.2430   -9.3450   20.1130 C   0  0  0  0  0  3  0  0  0  0  0  0
  -22.9170  -10.5750   20.0270 C   0  0  0  0  0  3  0  0  0  0  0  0
  -22.0030   -7.1510   20.9670 O   0  0  0  0  0  0  0  0  0  0  0  0
  -21.9820   -6.3220   22.0580 C   0  0  0  0  0  0  0  0  0  0  0  0
  -21.5450   -6.7680   23.3250 C   0  0  0  0  0  3  0  0  0  0  0  0
  -21.4730   -5.8640   24.4030 C   0  0  0  0  0  3  0  0  0  0  0  0
  -21.8280   -4.5140   24.2160 C   0  0  0  0  0  0  0  0  0  0  0  0
  -22.2580   -4.0670   22.9560 C   0  0  0  0  0  3  0  0  0  0  0  0
  -22.3320   -4.9680   21.8780 C   0  0  0  0  0  0  0  0  0  0  0  0
  -22.7260   -4.5270   20.6590 F   0  0  0  0  0  0  0  0  0  0  0  0
  -21.7520   -3.6440   25.2510 F   0  0  0  0  0  0  0  0  0  0  0  0
  -22.8000  -13.8350   21.1890 C   0  0  0  0  0  0  0  0  0  0  0  0
  -22.1240  -13.0570   22.0270 N   0  0  0  0  0  0  0  0  0  0  0  0
  -22.3020  -14.8630   20.7330 O   0  0  0  0  0  0  0  0  0  0  0  0
  -22.5400  -12.2230   22.4170 H   0  0  0  0  0  0  0  0  0  0  0  0
  -21.1770  -13.2990   22.2810 H   0  0  0  0  0  0  0  0  0  0  0  0
  -25.3480  -15.6800   20.5090 N   0  0  0  0  0  0  0  0  0  0  0  0
  -24.5720  -16.2950   20.7310 H   0  0  0  0  0  0  0  0  0  0  0  0
  -26.1820  -16.1850   20.2410 H   0  0  0  0  0  0  0  0  0  0  0  0
  -29.9580  -22.8170   19.1440 C   0  0  0  0  0  2  0  0  0  0  0  0
  -29.9700  -24.3240   19.7750 C   0  0  0  0  0  3  0  0  0  0  0  0
  -29.2100  -25.5250   19.0020 C   0  0  0  0  0  3  0  0  0  0  0  0
  -29.2140  -26.9570   19.4680 O   0  0  0  0  0  0  0  0  0  0  0  0
  -24.6740  -31.3270   23.0660 C   0  0  0  0  0  0  0  0  0  0  0  0
  -27.9940  -27.6790   19.4780 C   0  0  0  0  0  0  0  0  0  0  0  0
  -23.7200  -30.0040   21.2150 C   0  0  0  0  0  3  0  0  0  0  0  0
  -25.4070  -28.9260   19.6210 C   0  0  0  0  0  0  0  0  0  0  0  0
  -26.1800  -30.7330   21.1510 C   0  0  0  0  0  2  0  0  0  0  0  0
  -26.4840  -29.4910   20.3150 C   0  0  0  0  0  0  0  0  0  0  0  0
  -27.7790  -28.8810   20.2350 C   0  0  0  0  0  3  0  0  0  0  0  0
  -26.8820  -27.1930   18.7500 C   0  0  0  0  0  3  0  0  0  0  0  0
  -25.6100  -27.7890   18.8260 C   0  0  0  0  0  3  0  0  0  0  0  0
  -24.0460  -29.5780   19.7590 C   0  0  0  0  0  2  0  0  0  0  0  0
  -24.8740  -30.7020   21.8690 N   0  0  0  0  0  0  0  0  0  0  0  0
  -23.5560  -31.3520   23.6030 O   0  0  0  0  0  0  0  0  0  0  0  0
  -23.2200  -28.7690   22.0030 C   0  0  0  0  0  0  0  0  0  0  0  0
  -21.9540  -28.3780   21.7780 N   0  0  0  0  0  0  0  0  0  0  0  0
  -23.9730  -28.1720   22.7770 O   0  0  0  0  0  0  0  0  0  0  0  0
  -21.3970  -28.9260   21.1370 H   0  0  0  0  0  0  0  0  0  0  0  0
  -18.8440  -26.5280   21.9110 C   0  0  0  0  0  0  0  0  0  0  0  0
  -21.2930  -27.2180   22.3780 C   0  0  0  0  0  3  0  0  0  0  0  0
  -21.6900  -25.9120   21.6490 C   0  0  0  0  0  2  0  0  0  0  0  0
  -20.7150  -25.5240   20.5330 C   0  0  0  0  0  2  0  0  0  0  0  0
  -19.3030  -25.3310   21.0960 C   0  0  0  0  0  2  0  0  0  0  0  0
  -19.7790  -27.4230   22.4980 C   0  0  0  0  0  0  0  0  0  0  0  0
  -19.2990  -28.5400   23.2160 C   0  0  0  0  0  3  0  0  0  0  0  0
  -17.9170  -28.7690   23.3540 C   0  0  0  0  0  3  0  0  0  0  0  0
  -16.9960  -27.8720   22.7840 C   0  0  0  0  0  3  0  0  0  0  0  0
  -17.4610  -26.7530   22.0680 C   0  0  0  0  0  3  0  0  0  0  0  0
  -25.8330  -32.0580   23.8090 C   0  0  0  0  0  3  0  0  0  0  0  0
  -25.3580  -33.4020   24.1640 N   0  0  0  0  0  0  0  0  0  0  0  0
  -25.6610  -34.5220   23.4920 C   0  0  0  0  0  0  0  0  0  0  0  0
  -26.4410  -34.5350   22.5350 O   0  0  0  0  0  0  0  0  0  0  0  0
  -24.6720  -33.4590   24.9040 H   0  0  0  0  0  0  0  0  0  0  0  0
  -23.8100  -36.1630   23.0400 C   0  0  0  0  0  1  0  0  0  0  0  0
  -24.9990  -35.8340   23.9560 C   0  0  0  0  0  3  0  0  0  0  0  0
  -26.9480  -36.8650   25.0350 C   0  0  0  0  0  1  0  0  0  0  0  0
  -25.9300  -36.9820   23.9930 N   0  0  0  0  0  0  0  0  0  0  0  0
  -25.4260  -37.8520   24.1420 H   0  0  0  0  0  0  0  0  0  0  0  0
  -26.3290  -31.2890   25.0960 C   0  0  1  0  0  0  0  0  0  0  0  0
  -25.1900  -30.9010   26.0680 C   0  0  0  0  0  1  0  0  0  0  0  0
  -27.0750  -29.9920   24.7050 C   0  0  0  0  0  1  0  0  0  0  0  0
  -27.3440  -32.1650   25.8700 C   0  0  0  0  0  1  0  0  0  0  0  0
  2  6  1  0
  3  5  1  0
  3  7  1  0
  4  6  1  0
  5 10  1  0
  5  2  1  0
  6  1  1  0
  7  4  1  0
  7  8  1  0
  9  7  1  0
 11 10  1  0
 12 10  1  0
 13  1  1  0
 15 14  1  0
 16 14  1  0
 17 15  1  0
 18 13  1  0
 18 19  1  0
 18 16  1  0
 19 28  1  0
 19 17  1  0
 20 28  1  0
 21 26  1  0
 22 23  1  0
 22 21  1  0
 24 23  1  0
 24 33  1  0
 24 25  1  0
 26 20  1  0
 26 25  1  0
 27 20  2  0
 28 29  1  0
 30 31  2  0
 31 50  1  0
 32 35  1  0
 32 31  1  0
 33 34  1  0
 33 30  1  0
 34 32  2  0
 35 36  1  0
 36 37  2  0
 38 37  1  0
 39 38  2  0
 40 39  1  0
 40 35  2  0
 41 38  1  0
 41 42  1  0
 42 43  1  0
 43 44  2  0
 45 44  1  0
 45 49  1  0
 46 45  2  0
 47 42  2  0
 47 46  1  0
 48 47  1  0
 50 51  1  0
 51 54  1  0
 51 53  1  0
 52 50  2  0
 55 30  1  0
 55 56  1  0
 57 55  1  0
 58 59  1  0
 58  1  1  0
 60 61  1  0
 60 59  2  0
 61 63  1  0
 62 73  2  0
 63 68  1  0
 64 72  1  0
 64 74  1  0
 65 71  1  0
 65 67  1  0
 66 72  1  0
 67 66  1  0
 68 67  2  0
 69 70  1  0
 69 63  2  0
 70 65  2  0
 71 64  1  0
 72 62  1  0
 74 76  2  0
 75 74  1  0
 77 75  1  0
 78 87  2  0
 78 83  1  0
 79 75  1  0
 79 83  1  0
 80 79  1  0
 81 82  1  0
 81 80  1  0
 82 78  1  0
 83 84  2  0
 84 85  1  0
 86 85  2  0
 87 86  1  0
 88 62  1  0
 88 89  1  0
 88 98  1  0
 89 92  1  0
 90 94  1  0
 90 89  1  0
 91 90  2  0
 94 93  1  0
 94 96  1  0
 96 97  1  0
 96 95  1  0
 98101  1  1
 98 99  1  0
100 98  1  0
M  ISO  4  20 100  28 100  60 101  61 101
M  END
>  <TORSDO>  (29) 
F 23

>  <SCORE>  (29) 
-9.234

>  <name>  (29) 
29

>  <ligand_id>  (29) 
29

>  <original_smiles>  (29) 
[H]c1c([H])c([H])c2c(c1[H])C([H])([H])C([H])([H])C([H])([H])C2([H])N([H])C(=O)C1([H])N(C(=O)C([H])(N([H])C(=O)C([H])(N([H])C([H])([H])[H])C([H])([H])[H])C(C([H])([H])[H])(C([H])([H])[H])C([H])([H])[H])C([H])([H])c2c([H])c(OC([H])([H])C([H])([H])C([H])([H])N(C([H])([H])C3([H])C([H])([H])C([H])([H])C([H])([H])C([H])([H])C3([H])N([H])C(=O)N3C([H])([H])C([H])([H])C([H])([H])C([H])(n4nc(-c5c([H])c([H])c(Oc6c([H])c([H])c(F)c([H])c6F)c([H])c5[H])c(C(=O)N([H])[H])c4N([H])[H])C3([H])[H])C3([H])C([H])([H])C([H])(N([H])[H])C([H])([H])[N+]([H])([H])C3([H])[H])c([H])c([H])c2C1([H])[H]

>  <smiles>  (29) 
[H]c1c([H])c([H])c2c(c1[H])C([H])([H])C([H])([H])C([H])([H])C2([H])N([H])C(=O)C1([H])N(C(=O)C([H])(N([H])C(=O)C([H])(N([H])C([H])([H])[H])C([H])([H])[H])C(C([H])([H])[H])(C([H])([H])[H])C([H])([H])[H])C([H])([H])c2c([H])c(OC([H])([H])C([H])([H])C([H])([H])N(C([H])([H])C3([H])C([H])([H])C([H])([H])C([H])([H])C([H])([H])C3([H])N([H])C(=O)N3C([H])([H])C([H])([H])C([H])([H])C([H])(n4nc(-c5c([H])c([H])c(Oc6c([H])c([H])c(F)c([H])c6F)c([H])c5[H])c(C(=O)N([H])[H])c4N([H])[H])C3([H])[H])C3([H])C([H])([H])C([H])(N([H])[H])C([H])([H])[N+]([H])([H])C3([H])[H])c([H])c([H])c2C1([H])[H]

$$$$
30:0:0
     RDKit          3D

 95104  0  0  1  0  0  0  0  0999 V2000
  -28.7440  -21.3630   21.3940 C   0  0  0  0  0  2  0  0  0  0  0  0
  -30.2020  -21.6320   19.3850 C   0  0  0  0  0  2  0  0  0  0  0  0
  -28.0850  -22.7910   21.1560 C   0  0  0  0  0  2  0  0  0  0  0  0
  -29.8870  -23.1790   19.5270 C   0  0  0  0  0  2  0  0  0  0  0  0
  -29.2780  -20.6060   20.1380 C   0  0  0  0  0  3  0  0  0  0  0  0
  -28.3970  -23.5330   19.8050 C   0  0  1  0  0  0  0  0  0  0  0  0
  -30.8400  -14.7550   20.0810 C   0  0  0  0  0  0  0  0  0  0  0  0
  -30.4690  -12.5450   19.0090 C   0  0  0  0  0  2  0  0  0  0  0  0
  -29.4780  -12.6580   17.8350 C   0  0  0  0  0  2  0  0  0  0  0  0
  -28.0340  -12.4870   18.3410 C   0  0  0  0  0  2  0  0  0  0  0  0
  -27.7280  -13.3570   19.5910 C   0  0  0  0  0  3  0  0  0  0  0  0
  -28.8450  -13.2580   20.6520 C   0  0  0  0  0  2  0  0  0  0  0  0
  -30.1060  -13.5970   19.9830 N   0  0  0  0  0  0  0  0  0  0  0  0
  -32.0280  -14.7300   19.7450 O   0  0  0  0  0  0  0  0  0  0  0  0
  -30.0500  -18.3670   19.0000 C   0  0  0  0  0  2  0  0  0  0  0  0
  -29.1710  -18.1210   21.2390 C   0  0  0  0  0  2  0  0  0  0  0  0
  -30.7630  -16.9880   19.1250 C   0  0  0  0  0  2  0  0  0  0  0  0
  -29.8120  -16.6750   21.3490 C   0  0  0  0  0  2  0  0  0  0  0  0
  -29.9230  -19.1430   20.3330 C   0  0  0  0  0  3  0  0  0  0  0  0
  -30.1980  -15.9880   20.0820 N   0  0  0  0  0  0  0  0  0  0  0  0
  -25.3830  -13.9220   20.4620 C   0  0  0  0  0  0  0  0  0  0  0  0
  -24.3370  -13.1350   20.8600 C   0  0  0  0  0  0  0  0  0  0  0  0
  -24.7980  -11.7860   20.7660 C   0  0  0  0  0  0  0  0  0  0  0  0
  -26.4140  -13.0520   20.1470 N   0  0  0  0  0  0  0  0  0  0  0  0
  -26.0720  -11.7610   20.3930 N   0  0  0  0  0  0  0  0  0  0  0  0
  -24.0830  -10.5170   20.9550 C   0  0  0  0  0  0  0  0  0  0  0  0
  -24.5170   -9.5550   21.8940 C   0  0  0  0  0  3  0  0  0  0  0  0
  -23.8010   -8.3520   22.0700 C   0  0  0  0  0  3  0  0  0  0  0  0
  -22.6370   -8.1000   21.3080 C   0  0  0  0  0  0  0  0  0  0  0  0
  -22.2210   -9.0490   20.3580 C   0  0  0  0  0  3  0  0  0  0  0  0
  -22.9370  -10.2450   20.1790 C   0  0  0  0  0  3  0  0  0  0  0  0
  -21.8920   -6.9480   21.3930 O   0  0  0  0  0  0  0  0  0  0  0  0
  -21.7700   -6.2560   22.5710 C   0  0  0  0  0  0  0  0  0  0  0  0
  -21.2340   -6.8520   23.7340 C   0  0  0  0  0  3  0  0  0  0  0  0
  -21.0630   -6.0850   24.9030 C   0  0  0  0  0  3  0  0  0  0  0  0
  -21.4180   -4.7230   24.9100 C   0  0  0  0  0  0  0  0  0  0  0  0
  -21.9460   -4.1260   23.7510 C   0  0  0  0  0  3  0  0  0  0  0  0
  -22.1190   -4.8910   22.5840 C   0  0  0  0  0  0  0  0  0  0  0  0
  -22.6100   -4.3070   21.4650 F   0  0  0  0  0  0  0  0  0  0  0  0
  -21.2460   -3.9820   26.0300 F   0  0  0  0  0  0  0  0  0  0  0  0
  -22.9550  -13.6020   21.2130 C   0  0  0  0  0  0  0  0  0  0  0  0
  -22.2720  -12.8800   22.0960 N   0  0  0  0  0  0  0  0  0  0  0  0
  -22.4920  -14.6410   20.7450 O   0  0  0  0  0  0  0  0  0  0  0  0
  -22.6600  -12.0390   22.4960 H   0  0  0  0  0  0  0  0  0  0  0  0
  -21.3460  -13.1720   22.3740 H   0  0  0  0  0  0  0  0  0  0  0  0
  -25.5410  -15.2970   20.3170 N   0  0  0  0  0  0  0  0  0  0  0  0
  -24.7900  -15.9540   20.4970 H   0  0  0  0  0  0  0  0  0  0  0  0
  -26.3890  -15.7410   19.9860 H   0  0  0  0  0  0  0  0  0  0  0  0
  -27.4600  -22.8790   18.7080 C   0  0  0  0  0  2  0  0  0  0  0  0
  -27.9990  -22.8680   17.3310 N   0  0  0  0  0  4  0  0  0  0  0  0
  -28.2160  -23.7930   17.0010 H   0  0  0  0  0  0  0  0  0  0  0  0
  -27.3200  -22.4720   16.7040 H   0  0  0  0  0  0  0  0  0  0  0  0
  -28.8280  -22.3040   17.2790 H   0  0  0  0  0  0  0  0  0  0  0  0
  -27.9100  -25.0850   19.7450 C   0  0  0  0  0  2  0  0  0  0  0  0
  -28.2580  -26.4220   20.3260 O   0  0  0  0  0  0  0  0  0  0  0  0
  -24.6430  -31.9500   23.3700 C   0  0  0  0  0  0  0  0  0  0  0  0
  -27.2090  -27.3820   20.2480 C   0  0  0  0  0  0  0  0  0  0  0  0
  -23.4330  -30.5830   21.7160 C   0  0  0  0  0  3  0  0  0  0  0  0
  -24.8750  -29.0650   20.2640 C   0  0  0  0  0  0  0  0  0  0  0  0
  -25.9830  -30.8740   21.5490 C   0  0  0  0  0  2  0  0  0  0  0  0
  -26.0530  -29.5050   20.8810 C   0  0  0  0  0  0  0  0  0  0  0  0
  -27.2240  -28.6750   20.8730 C   0  0  0  0  0  3  0  0  0  0  0  0
  -26.0100  -27.0560   19.5570 C   0  0  0  0  0  3  0  0  0  0  0  0
  -24.8580  -27.8450   19.5920 C   0  0  0  0  0  3  0  0  0  0  0  0
  -23.6460  -29.9430   20.3240 C   0  0  0  0  0  2  0  0  0  0  0  0
  -24.7050  -31.1530   22.2670 N   0  0  0  0  0  0  0  0  0  0  0  0
  -23.5610  -32.2270   23.9080 O   0  0  0  0  0  0  0  0  0  0  0  0
  -22.7650  -29.5500   22.6570 C   0  0  0  0  0  0  0  0  0  0  0  0
  -21.4420  -29.3590   22.5120 N   0  0  0  0  0  0  0  0  0  0  0  0
  -23.4370  -28.9270   23.4840 O   0  0  0  0  0  0  0  0  0  0  0  0
  -20.9560  -29.9130   21.8200 H   0  0  0  0  0  0  0  0  0  0  0  0
  -18.0700  -28.1250   22.9570 C   0  0  0  0  0  0  0  0  0  0  0  0
  -20.6210  -28.4160   23.2730 C   0  0  0  0  0  3  0  0  0  0  0  0
  -20.7510  -26.9820   22.7100 C   0  0  0  0  0  2  0  0  0  0  0  0
  -19.6720  -26.6410   21.6770 C   0  0  0  0  0  2  0  0  0  0  0  0
  -18.2760  -26.7750   22.2920 C   0  0  0  0  0  2  0  0  0  0  0  0
  -19.1720  -28.9030   23.4040 C   0  0  0  0  0  0  0  0  0  0  0  0
  -18.9270  -30.1660   23.9840 C   0  0  0  0  0  3  0  0  0  0  0  0
  -17.6130  -30.6530   24.1210 C   0  0  0  0  0  3  0  0  0  0  0  0
  -16.5250  -29.8720   23.6910 C   0  0  0  0  0  3  0  0  0  0  0  0
  -16.7550  -28.6100   23.1150 C   0  0  0  0  0  3  0  0  0  0  0  0
  -25.9290  -32.5730   23.9960 C   0  0  0  0  0  3  0  0  0  0  0  0
  -26.4210  -31.8090   25.2860 C   0  0  1  0  0  0  0  0  0  0  0  0
  -25.3140  -31.5900   26.3420 C   0  0  0  0  0  1  0  0  0  0  0  0
  -26.9940  -30.4200   24.9170 C   0  0  0  0  0  1  0  0  0  0  0  0
  -27.5690  -32.5990   25.9560 C   0  0  0  0  0  1  0  0  0  0  0  0
  -25.6360  -33.9800   24.3070 N   0  0  0  0  0  0  0  0  0  0  0  0
  -25.9560  -35.0150   23.5200 C   0  0  0  0  0  0  0  0  0  0  0  0
  -26.6030  -34.8900   22.4760 O   0  0  0  0  0  0  0  0  0  0  0  0
  -25.0670  -34.1540   25.1200 H   0  0  0  0  0  0  0  0  0  0  0  0
  -24.2190  -36.8030   23.1840 C   0  0  0  0  0  1  0  0  0  0  0  0
  -25.4860  -36.4140   23.9620 C   0  0  0  0  0  3  0  0  0  0  0  0
  -27.6440  -37.3190   24.7070 C   0  0  0  0  0  1  0  0  0  0  0  0
  -26.5140  -37.4630   23.7910 N   0  0  0  0  0  0  0  0  0  0  0  0
  -26.1130  -38.3870   23.9280 H   0  0  0  0  0  0  0  0  0  0  0  0
  2  4  1  0
  3  1  1  0
  4  6  1  0
  5  2  1  0
  5 19  1  0
  5  1  1  0
  6 49  1  6
  6  3  1  0
  7 20  1  0
  8 13  1  0
  9 10  1  0
  9  8  1  0
 11 10  1  0
 11 24  1  0
 11 12  1  0
 13  7  1  0
 13 12  1  0
 14  7  2  0
 15 17  1  0
 16 18  1  0
 17 20  1  0
 19 15  1  0
 19 16  1  0
 20 18  1  0
 21 22  2  0
 22 41  1  0
 23 22  1  0
 23 26  1  0
 24 25  1  0
 24 21  1  0
 25 23  2  0
 26 27  1  0
 27 28  2  0
 29 32  1  0
 29 28  1  0
 30 29  2  0
 31 30  1  0
 31 26  2  0
 32 33  1  0
 33 38  2  0
 33 34  1  0
 34 35  2  0
 35 36  1  0
 36 40  1  0
 37 36  2  0
 38 37  1  0
 39 38  1  0
 41 42  1  0
 42 45  1  0
 42 44  1  0
 43 41  2  0
 46 21  1  0
 46 47  1  0
 48 46  1  0
 50 49  1  0
 51 50  1  0
 52 50  1  0
 53 50  1  0
 54  6  1  0
 54 55  1  0
 56 67  2  0
 57 55  1  0
 57 62  1  0
 58 66  1  0
 58 68  1  0
 59 65  1  0
 59 61  1  0
 60 66  1  0
 61 60  1  0
 62 61  2  0
 63 64  1  0
 63 57  2  0
 64 59  2  0
 65 58  1  0
 66 56  1  0
 68 70  2  0
 69 68  1  0
 71 69  1  0
 72 81  2  0
 72 77  1  0
 73 69  1  0
 73 77  1  0
 74 73  1  0
 75 76  1  0
 75 74  1  0
 76 72  1  0
 77 78  2  0
 78 79  1  0
 80 79  2  0
 81 80  1  0
 82 56  1  0
 82 87  1  0
 82 83  1  0
 83 86  1  1
 83 84  1  0
 85 83  1  0
 87 90  1  0
 88 92  1  0
 88 87  1  0
 89 88  2  0
 92 91  1  0
 94 95  1  0
 94 92  1  0
 94 93  1  0
M  ISO  4   7 100  20 100  54 101  55 101
M  END
>  <TORSDO>  (30) 
F 19

>  <SCORE>  (30) 
-14.142

>  <name>  (30) 
30

>  <ligand_id>  (30) 
30

>  <original_smiles>  (30) 
[H]c1c([H])c([H])c2c(c1[H])C([H])([H])C([H])([H])C([H])([H])C2([H])N([H])C(=O)C1([H])N(C(=O)C([H])(N([H])C(=O)C([H])(N([H])C([H])([H])[H])C([H])([H])[H])C(C([H])([H])[H])(C([H])([H])[H])C([H])([H])[H])C([H])([H])c2c([H])c(OC([H])([H])C3(C([H])([H])[N+]([H])([H])[H])C([H])([H])C([H])([H])C([H])(C4([H])C([H])([H])C([H])([H])N(C(=O)N5C([H])([H])C([H])([H])C([H])([H])C([H])(n6nc(-c7c([H])c([H])c(Oc8c([H])c([H])c(F)c([H])c8F)c([H])c7[H])c(C(=O)N([H])[H])c6N([H])[H])C5([H])[H])C([H])([H])C4([H])[H])C([H])([H])C3([H])[H])c([H])c([H])c2C1([H])[H]

>  <smiles>  (30) 
[H]c1c([H])c([H])c2c(c1[H])C([H])([H])C([H])([H])C([H])([H])C2([H])N([H])C(=O)C1([H])N(C(=O)C([H])(N([H])C(=O)C([H])(N([H])C([H])([H])[H])C([H])([H])[H])C(C([H])([H])[H])(C([H])([H])[H])C([H])([H])[H])C([H])([H])c2c([H])c(OC([H])([H])C3(C([H])([H])[N+]([H])([H])[H])C([H])([H])C([H])([H])C([H])(C4([H])C([H])([H])C([H])([H])N(C(=O)N5C([H])([H])C([H])([H])C([H])([H])C([H])(n6nc(-c7c([H])c([H])c(Oc8c([H])c([H])c(F)c([H])c8F)c([H])c7[H])c(C(=O)N([H])[H])c6N([H])[H])C5([H])[H])C([H])([H])C4([H])[H])C([H])([H])C3([H])[H])c([H])c([H])c2C1([H])[H]

$$$$
31:0:0
     RDKit          3D

101110  0  0  1  0  0  0  0  0999 V2000
  -25.6050  -25.1950   22.4590 C   0  0  0  0  0  2  0  0  0  0  0  0
  -25.5230  -23.7280   21.9720 C   0  0  0  0  0  2  0  0  0  0  0  0
  -26.7850  -24.3250   19.7020 C   0  0  0  0  0  2  0  0  0  0  0  0
  -27.0070  -25.8020   22.6680 C   0  0  0  0  0  2  0  0  0  0  0  0
  -27.1150  -25.7680   20.1440 C   0  0  0  0  0  2  0  0  0  0  0  0
  -26.3890  -23.2520   20.7610 C   0  0  0  0  0  3  0  0  0  0  0  0
  -27.8510  -25.8450   21.4380 N   0  0  1  0  0  4  0  0  0  0  0  0
  -28.3590  -24.9760   21.4700 H   0  0  0  0  0  0  0  0  0  0  0  0
  -27.5500  -22.2540   21.0930 C   0  0  0  0  0  2  0  0  0  0  0  0
  -28.4360  -22.0410   19.9110 N   0  0  0  0  0  4  0  0  0  0  0  0
  -28.7290  -22.9380   19.5610 H   0  0  0  0  0  0  0  0  0  0  0  0
  -27.8870  -21.6000   19.1870 H   0  0  0  0  0  0  0  0  0  0  0  0
  -29.6540  -21.2120   20.1070 C   0  0  0  0  0  2  0  0  0  0  0  0
  -30.8780  -21.8180   19.3660 C   0  0  0  0  0  2  0  0  0  0  0  0
  -31.6630  -22.8550   20.2070 C   0  0  0  0  0  2  0  0  0  0  0  0
  -33.5320  -27.9870   18.8300 C   0  0  0  0  0  0  0  0  0  0  0  0
  -33.8410  -30.0180   17.4330 C   0  0  0  0  0  2  0  0  0  0  0  0
  -32.6410  -30.9840   17.5220 C   0  0  0  0  0  2  0  0  0  0  0  0
  -31.5300  -30.5790   16.5350 C   0  0  0  0  0  2  0  0  0  0  0  0
  -31.1770  -29.0740   16.6290 C   0  0  0  0  0  3  0  0  0  0  0  0
  -32.4550  -28.2160   16.5670 C   0  0  0  0  0  2  0  0  0  0  0  0
  -33.3650  -28.6420   17.6480 N   0  0  0  0  0  0  0  0  0  0  0  0
  -34.0680  -28.5140   19.8160 O   0  0  0  0  0  0  0  0  0  0  0  0
  -33.2880  -24.1850   18.8420 C   0  0  0  0  0  0  0  0  0  0  0  0
  -33.7000  -25.5800   18.3060 C   0  0  0  0  0  2  0  0  0  0  0  0
  -31.1800  -25.2040   19.4960 C   0  0  0  0  0  2  0  0  0  0  0  0
  -31.9550  -26.4730   19.8850 C   0  0  0  0  0  2  0  0  0  0  0  0
  -32.0870  -24.0540   19.4540 N   0  0  0  0  0  0  0  0  0  0  0  0
  -32.9870  -26.7510   18.8820 N   0  0  0  0  0  0  0  0  0  0  0  0
  -34.0800  -23.2470   18.7320 O   0  0  0  0  0  0  0  0  0  0  0  0
  -28.9500  -28.1490   15.7220 C   0  0  0  0  0  0  0  0  0  0  0  0
  -28.4730  -28.0010   14.4480 C   0  0  0  0  0  0  0  0  0  0  0  0
  -29.5110  -28.4660   13.5840 C   0  0  0  0  0  0  0  0  0  0  0  0
  -30.2270  -28.6730   15.5940 N   0  0  0  0  0  0  0  0  0  0  0  0
  -30.5780  -28.8140   14.2920 N   0  0  0  0  0  0  0  0  0  0  0  0
  -29.5320  -28.6480   12.1270 C   0  0  0  0  0  0  0  0  0  0  0  0
  -30.4980  -28.0120   11.3160 C   0  0  0  0  0  3  0  0  0  0  0  0
  -30.4880  -28.1900    9.9150 C   0  0  0  0  0  3  0  0  0  0  0  0
  -29.5040  -29.0100    9.3120 C   0  0  0  0  0  0  0  0  0  0  0  0
  -28.5590  -29.6580   10.1240 C   0  0  0  0  0  3  0  0  0  0  0  0
  -28.5730  -29.4820   11.5190 C   0  0  0  0  0  3  0  0  0  0  0  0
  -29.4360  -29.2640    7.9630 O   0  0  0  0  0  0  0  0  0  0  0  0
  -29.8640  -28.3510    7.0350 C   0  0  0  0  0  0  0  0  0  0  0  0
  -29.2800  -27.0700    6.9280 C   0  0  0  0  0  3  0  0  0  0  0  0
  -29.7020  -26.1870    5.9150 C   0  0  0  0  0  3  0  0  0  0  0  0
  -30.6980  -26.5840    5.0040 C   0  0  0  0  0  0  0  0  0  0  0  0
  -31.2770  -27.8600    5.1050 C   0  0  0  0  0  3  0  0  0  0  0  0
  -30.8580  -28.7430    6.1150 C   0  0  0  0  0  0  0  0  0  0  0  0
  -31.4020  -29.9800    6.1970 F   0  0  0  0  0  0  0  0  0  0  0  0
  -31.0980  -25.7400    4.0260 F   0  0  0  0  0  0  0  0  0  0  0  0
  -27.0970  -27.5490   14.0530 C   0  0  0  0  0  0  0  0  0  0  0  0
  -26.9880  -26.7800   12.9750 N   0  0  0  0  0  0  0  0  0  0  0  0
  -26.1110  -27.8340   14.7320 O   0  0  0  0  0  0  0  0  0  0  0  0
  -27.7990  -26.5240   12.4290 H   0  0  0  0  0  0  0  0  0  0  0  0
  -26.0790  -26.4440   12.6890 H   0  0  0  0  0  0  0  0  0  0  0  0
  -28.3980  -27.8990   16.9750 N   0  0  0  0  0  0  0  0  0  0  0  0
  -27.4360  -27.5980   17.0850 H   0  0  0  0  0  0  0  0  0  0  0  0
  -28.8430  -28.1260   17.8550 H   0  0  0  0  0  0  0  0  0  0  0  0
  -28.9640  -26.8420   21.4770 C   0  0  0  0  0  2  0  0  0  0  0  0
  -28.7840  -28.1200   20.6130 C   0  0  0  0  0  2  0  0  0  0  0  0
  -28.5310  -29.2820   21.4070 O   0  0  0  0  0  0  0  0  0  0  0  0
  -24.2180  -28.3610   26.9530 C   0  0  0  0  0  0  0  0  0  0  0  0
  -27.2590  -29.4580   21.8960 C   0  0  0  0  0  0  0  0  0  0  0  0
  -23.1230  -29.0270   24.8460 C   0  0  0  0  0  3  0  0  0  0  0  0
  -24.6760  -29.8070   22.9890 C   0  0  0  0  0  0  0  0  0  0  0  0
  -25.5420  -29.7070   25.3280 C   0  0  0  0  0  2  0  0  0  0  0  0
  -25.7850  -29.6770   23.8350 C   0  0  0  0  0  0  0  0  0  0  0  0
  -27.0750  -29.5140   23.2950 C   0  0  0  0  0  3  0  0  0  0  0  0
  -26.1270  -29.6070   21.0550 C   0  0  0  0  0  3  0  0  0  0  0  0
  -24.8420  -29.7720   21.5970 C   0  0  0  0  0  3  0  0  0  0  0  0
  -23.3260  -29.9870   23.6440 C   0  0  0  0  0  2  0  0  0  0  0  0
  -24.3180  -28.9860   25.7500 N   0  0  0  0  0  0  0  0  0  0  0  0
  -23.1500  -27.8530   27.3260 O   0  0  0  0  0  0  0  0  0  0  0  0
  -22.7210  -27.6390   24.3000 C   0  0  0  0  0  0  0  0  0  0  0  0
  -21.7500  -27.6200   23.3740 N   0  0  0  0  0  0  0  0  0  0  0  0
  -23.2920  -26.6130   24.6890 O   0  0  0  0  0  0  0  0  0  0  0  0
  -21.3100  -28.4940   23.1200 H   0  0  0  0  0  0  0  0  0  0  0  0
  -19.7640  -26.5190   20.5730 C   0  0  0  0  0  0  0  0  0  0  0  0
  -21.2340  -26.4330   22.6960 C   0  0  0  0  0  3  0  0  0  0  0  0
  -22.3170  -25.7810   21.8000 C   0  0  0  0  0  2  0  0  0  0  0  0
  -22.2710  -26.2730   20.3500 C   0  0  0  0  0  2  0  0  0  0  0  0
  -20.9040  -25.9910   19.7220 C   0  0  0  0  0  2  0  0  0  0  0  0
  -19.9200  -26.7400   21.9680 C   0  0  0  0  0  0  0  0  0  0  0  0
  -18.8350  -27.2790   22.6970 C   0  0  0  0  0  3  0  0  0  0  0  0
  -17.6150  -27.5800   22.0620 C   0  0  0  0  0  3  0  0  0  0  0  0
  -17.4630  -27.3350   20.6850 C   0  0  0  0  0  3  0  0  0  0  0  0
  -18.5370  -26.8110   19.9450 C   0  0  0  0  0  3  0  0  0  0  0  0
  -25.4300  -28.2760   27.9310 C   0  0  0  0  0  3  0  0  0  0  0  0
  -24.8970  -28.1360   29.2910 N   0  0  0  0  0  0  0  0  0  0  0  0
  -25.0640  -29.0410   30.2640 C   0  0  0  0  0  0  0  0  0  0  0  0
  -25.7540  -30.0530   30.1240 O   0  0  0  0  0  0  0  0  0  0  0  0
  -24.2760  -27.3590   29.4550 H   0  0  0  0  0  0  0  0  0  0  0  0
  -23.0940  -29.6630   31.7010 C   0  0  0  0  0  1  0  0  0  0  0  0
  -24.3470  -28.7750   31.6030 C   0  0  0  0  0  3  0  0  0  0  0  0
  -26.2850  -28.0180   32.9070 C   0  0  0  0  0  1  0  0  0  0  0  0
  -25.2080  -28.9970   32.7860 N   0  0  0  0  0  0  0  0  0  0  0  0
  -24.6610  -28.9730   33.6430 H   0  0  0  0  0  0  0  0  0  0  0  0
  -26.4120  -27.0910   27.5860 C   0  0  1  0  0  0  0  0  0  0  0  0
  -25.7070  -25.8400   27.0170 C   0  0  0  0  0  1  0  0  0  0  0  0
  -27.4740  -27.5400   26.5540 C   0  0  0  0  0  1  0  0  0  0  0  0
  -27.1870  -26.6660   28.8550 C   0  0  0  0  0  1  0  0  0  0  0  0
  1  4  1  0
  2  1  1  0
  3  5  1  0
  3  6  1  0
  5  7  1  0
  6  9  1  0
  6  2  1  0
  7  8  1  1
  7 59  1  0
  7  4  1  0
 10 13  1  0
 10  9  1  0
 11 10  1  0
 12 10  1  0
 14 13  1  0
 14 15  1  0
 16 29  1  0
 16 23  2  0
 17 18  1  0
 17 22  1  0
 19 20  1  0
 19 18  1  0
 20 34  1  0
 21 20  1  0
 21 22  1  0
 22 16  1  0
 24 28  1  0
 25 24  1  0
 25 29  1  0
 26 27  1  0
 28 26  1  0
 28 15  1  0
 29 27  1  0
 30 24  2  0
 31 56  1  0
 32 31  2  0
 33 35  2  0
 33 32  1  0
 34 31  1  0
 35 34  1  0
 36 33  1  0
 37 36  2  0
 38 37  1  0
 39 38  2  0
 39 40  1  0
 40 41  2  0
 41 36  1  0
 42 39  1  0
 43 42  1  0
 44 43  1  0
 45 44  2  0
 46 47  2  0
 46 45  1  0
 47 48  1  0
 48 49  1  0
 48 43  2  0
 50 46  1  0
 51 32  1  0
 51 53  2  0
 52 51  1  0
 54 52  1  0
 55 52  1  0
 56 57  1  0
 56 58  1  0
 60 61  1  0
 60 59  1  0
 61 63  1  0
 62 73  2  0
 63 68  1  0
 64 74  1  0
 64 72  1  0
 65 71  1  0
 65 67  1  0
 66 72  1  0
 67 66  1  0
 68 67  2  0
 69 70  1  0
 69 63  2  0
 70 65  2  0
 71 64  1  0
 72 62  1  0
 74 76  2  0
 75 74  1  0
 77 75  1  0
 78 83  1  0
 79 75  1  0
 80 79  1  0
 81 80  1  0
 82 81  1  0
 82 78  1  0
 83 79  1  0
 83 84  2  0
 85 84  1  0
 86 85  2  0
 87 78  2  0
 87 86  1  0
 88 62  1  0
 88 89  1  0
 89 92  1  0
 89 90  1  0
 90 94  1  0
 91 90  2  0
 94 93  1  0
 94 96  1  0
 96 95  1  0
 96 97  1  0
 98 88  1  0
 98101  1  1
 99 98  1  0
100 98  1  0
M  ISO  4  16 100  29 100  60 101  61 101
M  END
>  <TORSDO>  (31) 
F 23

>  <SCORE>  (31) 
-5.442

>  <name>  (31) 
31

>  <ligand_id>  (31) 
31

>  <original_smiles>  (31) 
[H]c1c([H])c([H])c2c(c1[H])C([H])([H])C([H])([H])C([H])([H])C2([H])N([H])C(=O)C1([H])N(C(=O)C([H])(N([H])C(=O)C([H])(N([H])C([H])([H])[H])C([H])([H])[H])C(C([H])([H])[H])(C([H])([H])[H])C([H])([H])[H])C([H])([H])c2c([H])c(OC([H])([H])C([H])([H])[N+]3([H])C([H])([H])C([H])([H])C([H])([H])C([H])(C([H])([H])[N+]([H])([H])C([H])([H])C([H])([H])C([H])([H])N4C(=O)C([H])([H])N(C(=O)N5C([H])([H])C([H])([H])C([H])([H])C([H])(n6nc(-c7c([H])c([H])c(Oc8c([H])c([H])c(F)c([H])c8F)c([H])c7[H])c(C(=O)N([H])[H])c6N([H])[H])C5([H])[H])C([H])([H])C4([H])[H])C([H])([H])C3([H])[H])c([H])c([H])c2C1([H])[H]

>  <smiles>  (31) 
[H]c1c([H])c([H])c2c(c1[H])C([H])([H])C([H])([H])C([H])([H])C2([H])N([H])C(=O)C1([H])N(C(=O)C([H])(N([H])C(=O)C([H])(N([H])C([H])([H])[H])C([H])([H])[H])C(C([H])([H])[H])(C([H])([H])[H])C([H])([H])[H])C([H])([H])c2c([H])c(OC([H])([H])C([H])([H])[N+]3([H])C([H])([H])C([H])([H])C([H])([H])C([H])(C([H])([H])[N+]([H])([H])C([H])([H])C([H])([H])C([H])([H])N4C(=O)C([H])([H])N(C(=O)N5C([H])([H])C([H])([H])C([H])([H])C([H])(n6nc(-c7c([H])c([H])c(Oc8c([H])c([H])c(F)c([H])c8F)c([H])c7[H])c(C(=O)N([H])[H])c6N([H])[H])C5([H])[H])C([H])([H])C4([H])[H])C([H])([H])C3([H])[H])c([H])c([H])c2C1([H])[H]

$$$$
32:0:0
     RDKit          3D

 96104  0  0  1  0  0  0  0  0999 V2000
  -29.2840  -20.9870   20.3290 C   0  0  0  0  0  3  0  0  0  0  0  0
  -29.7080  -19.6740   21.1080 C   0  0  0  0  0  2  0  0  0  0  0  0
  -31.0710  -14.7160   20.7280 C   0  0  0  0  0  0  0  0  0  0  0  0
  -30.8800  -12.4010   19.9040 C   0  0  0  0  0  2  0  0  0  0  0  0
  -30.0470  -12.3870   18.6050 C   0  0  0  0  0  2  0  0  0  0  0  0
  -28.5320  -12.3590   18.9130 C   0  0  0  0  0  2  0  0  0  0  0  0
  -28.0860  -13.3270   20.0450 C   0  0  0  0  0  3  0  0  0  0  0  0
  -29.0560  -13.2940   21.2440 C   0  0  0  0  0  2  0  0  0  0  0  0
  -30.4060  -13.5260   20.7220 N   0  0  0  0  0  0  0  0  0  0  0  0
  -32.3020  -14.7760   20.6790 O   0  0  0  0  0  0  0  0  0  0  0  0
  -30.0960  -17.2600   18.1280 C   0  0  0  0  0  2  0  0  0  0  0  0
  -30.4980  -18.4400   18.9890 C   0  0  0  0  0  2  0  0  0  0  0  0
  -30.4250  -15.9100   18.7770 C   0  0  0  0  0  2  0  0  0  0  0  0
  -30.2550  -17.0510   21.0630 C   0  0  0  0  0  2  0  0  0  0  0  0
  -29.7260  -18.3220   20.3030 C   0  0  0  0  0  3  0  0  0  0  0  0
  -30.3520  -15.7860   20.2620 N   0  0  0  0  0  0  0  0  0  0  0  0
  -25.6620  -13.9840   20.5960 C   0  0  0  0  0  0  0  0  0  0  0  0
  -24.5590  -13.2350   20.9060 C   0  0  0  0  0  0  0  0  0  0  0  0
  -25.0000  -11.8760   20.9380 C   0  0  0  0  0  0  0  0  0  0  0  0
  -26.7050  -13.0810   20.4520 N   0  0  0  0  0  0  0  0  0  0  0  0
  -26.3080  -11.8120   20.7250 N   0  0  0  0  0  0  0  0  0  0  0  0
  -24.2420  -10.6290   21.1010 C   0  0  0  0  0  0  0  0  0  0  0  0
  -24.6160   -9.6580   22.0560 C   0  0  0  0  0  3  0  0  0  0  0  0
  -23.8600   -8.4760   22.2070 C   0  0  0  0  0  3  0  0  0  0  0  0
  -22.7180   -8.2550   21.4010 C   0  0  0  0  0  0  0  0  0  0  0  0
  -22.3650   -9.2140   20.4350 C   0  0  0  0  0  3  0  0  0  0  0  0
  -23.1210  -10.3880   20.2830 C   0  0  0  0  0  3  0  0  0  0  0  0
  -21.9400   -7.1250   21.4590 O   0  0  0  0  0  0  0  0  0  0  0  0
  -21.8210   -6.3920   22.6130 C   0  0  0  0  0  0  0  0  0  0  0  0
  -21.2880   -6.9460   23.7970 C   0  0  0  0  0  3  0  0  0  0  0  0
  -21.1200   -6.1370   24.9390 C   0  0  0  0  0  3  0  0  0  0  0  0
  -21.4750   -4.7760   24.8960 C   0  0  0  0  0  0  0  0  0  0  0  0
  -22.0020   -4.2210   23.7170 C   0  0  0  0  0  3  0  0  0  0  0  0
  -22.1710   -5.0270   22.5770 C   0  0  0  0  0  0  0  0  0  0  0  0
  -22.6590   -4.4820   21.4370 F   0  0  0  0  0  0  0  0  0  0  0  0
  -21.3070   -3.9970   25.9910 F   0  0  0  0  0  0  0  0  0  0  0  0
  -23.1540  -13.7390   21.0670 C   0  0  0  0  0  0  0  0  0  0  0  0
  -22.3590  -13.0840   21.9050 N   0  0  0  0  0  0  0  0  0  0  0  0
  -22.7670  -14.7510   20.4830 O   0  0  0  0  0  0  0  0  0  0  0  0
  -22.6830  -12.2690   22.4040 H   0  0  0  0  0  0  0  0  0  0  0  0
  -21.4140  -13.4060   22.0550 H   0  0  0  0  0  0  0  0  0  0  0  0
  -25.8620  -15.3480   20.4030 N   0  0  0  0  0  0  0  0  0  0  0  0
  -25.0980  -16.0130   20.4410 H   0  0  0  0  0  0  0  0  0  0  0  0
  -26.7430  -15.7630   20.1280 H   0  0  0  0  0  0  0  0  0  0  0  0
  -28.2520  -20.7110   19.1950 C   0  0  0  0  0  2  0  0  0  0  0  0
  -27.1270  -19.8360   19.5900 N   0  0  0  0  0  4  0  0  0  0  0  0
  -27.4490  -18.9490   19.9330 H   0  0  0  0  0  0  0  0  0  0  0  0
  -26.5500  -19.6580   18.7860 H   0  0  0  0  0  0  0  0  0  0  0  0
  -26.5420  -20.2620   20.2860 H   0  0  0  0  0  0  0  0  0  0  0  0
  -28.8340  -22.1830   21.2470 C   0  0  0  0  0  2  0  0  0  0  0  0
  -28.9910  -23.5600   20.6590 N   0  0  0  0  0  4  0  0  0  0  0  0
  -29.9710  -23.7950   20.7190 H   0  0  0  0  0  0  0  0  0  0  0  0
  -28.7590  -23.5630   19.6780 H   0  0  0  0  0  0  0  0  0  0  0  0
  -28.1910  -24.6380   21.3280 C   0  0  0  0  0  2  0  0  0  0  0  0
  -28.7460  -26.0940   21.1880 C   0  0  0  0  0  2  0  0  0  0  0  0
  -28.3230  -26.8210   20.0200 O   0  0  0  0  0  0  0  0  0  0  0  0
  -24.5310  -31.9680   23.2920 C   0  0  0  0  0  0  0  0  0  0  0  0
  -27.1750  -27.5780   20.1250 C   0  0  0  0  0  0  0  0  0  0  0  0
  -23.3180  -30.5780   21.6440 C   0  0  0  0  0  3  0  0  0  0  0  0
  -24.7700  -29.0710   20.1820 C   0  0  0  0  0  0  0  0  0  0  0  0
  -25.8380  -30.9600   21.4210 C   0  0  0  0  0  2  0  0  0  0  0  0
  -25.9300  -29.5940   20.7700 C   0  0  0  0  0  0  0  0  0  0  0  0
  -27.1380  -28.8530   20.7440 C   0  0  0  0  0  3  0  0  0  0  0  0
  -26.0040  -27.0800   19.5220 C   0  0  0  0  0  3  0  0  0  0  0  0
  -24.8020  -27.8120   19.5570 C   0  0  0  0  0  3  0  0  0  0  0  0
  -23.5190  -29.9190   20.2530 C   0  0  0  0  0  2  0  0  0  0  0  0
  -24.5810  -31.1840   22.1770 N   0  0  0  0  0  0  0  0  0  0  0  0
  -23.4550  -32.2200   23.8510 O   0  0  0  0  0  0  0  0  0  0  0  0
  -22.6890  -29.5360   22.5980 C   0  0  0  0  0  0  0  0  0  0  0  0
  -21.3700  -29.3210   22.4670 N   0  0  0  0  0  0  0  0  0  0  0  0
  -23.3860  -28.9230   23.4120 O   0  0  0  0  0  0  0  0  0  0  0  0
  -20.8670  -29.8690   21.7820 H   0  0  0  0  0  0  0  0  0  0  0  0
  -18.0270  -28.0300   22.9400 C   0  0  0  0  0  0  0  0  0  0  0  0
  -20.5750  -28.3600   23.2300 C   0  0  0  0  0  3  0  0  0  0  0  0
  -20.7220  -26.9330   22.6530 C   0  0  0  0  0  2  0  0  0  0  0  0
  -19.6370  -26.5820   21.6310 C   0  0  0  0  0  2  0  0  0  0  0  0
  -18.2470  -26.6870   22.2640 C   0  0  0  0  0  2  0  0  0  0  0  0
  -19.1210  -28.8220   23.3800 C   0  0  0  0  0  0  0  0  0  0  0  0
  -18.8630  -30.0790   23.9720 C   0  0  0  0  0  3  0  0  0  0  0  0
  -17.5430  -30.5430   24.1280 C   0  0  0  0  0  3  0  0  0  0  0  0
  -16.4650  -29.7480   23.7050 C   0  0  0  0  0  3  0  0  0  0  0  0
  -16.7080  -28.4930   23.1170 C   0  0  0  0  0  3  0  0  0  0  0  0
  -25.8190  -32.6030   23.9020 C   0  0  0  0  0  3  0  0  0  0  0  0
  -25.5190  -34.0090   24.2050 N   0  0  0  0  0  0  0  0  0  0  0  0
  -25.8650  -35.0450   23.4280 C   0  0  0  0  0  0  0  0  0  0  0  0
  -26.5410  -34.9170   22.4040 O   0  0  0  0  0  0  0  0  0  0  0  0
  -24.9200  -34.1810   24.9990 H   0  0  0  0  0  0  0  0  0  0  0  0
  -24.1640  -36.8490   23.0120 C   0  0  0  0  0  1  0  0  0  0  0  0
  -25.3830  -36.4440   23.8560 C   0  0  0  0  0  3  0  0  0  0  0  0
  -27.5010  -37.3260   24.7290 C   0  0  0  0  0  1  0  0  0  0  0  0
  -26.4290  -37.4840   23.7500 N   0  0  0  0  0  0  0  0  0  0  0  0
  -26.0290  -38.4110   23.8650 H   0  0  0  0  0  0  0  0  0  0  0  0
  -26.3320  -31.8510   25.1910 C   0  0  1  0  0  0  0  0  0  0  0  0
  -25.2340  -31.6290   26.2580 C   0  0  0  0  0  1  0  0  0  0  0  0
  -26.9180  -30.4690   24.8210 C   0  0  0  0  0  1  0  0  0  0  0  0
  -27.4780  -32.6580   25.8460 C   0  0  0  0  0  1  0  0  0  0  0  0
  1 45  1  0
  1  2  1  0
  1 50  1  0
  4  9  1  0
  5  6  1  0
  5  4  1  0
  7  6  1  0
  7 20  1  0
  7  8  1  0
  9  3  1  0
  9  8  1  0
 10  3  2  0
 11 13  1  0
 11 12  1  0
 12 15  1  0
 13 16  1  0
 15 14  1  0
 15  2  1  0
 16  3  1  0
 16 14  1  0
 17 18  2  0
 18 19  1  0
 18 37  1  0
 19 22  1  0
 20 17  1  0
 20 21  1  0
 21 19  2  0
 22 23  1  0
 23 24  2  0
 25 28  1  0
 25 24  1  0
 26 25  2  0
 27 26  1  0
 27 22  2  0
 28 29  1  0
 29 30  1  0
 30 31  2  0
 32 31  1  0
 32 36  1  0
 33 32  2  0
 34 29  2  0
 34 33  1  0
 35 34  1  0
 37 38  1  0
 38 41  1  0
 38 40  1  0
 39 37  2  0
 42 43  1  0
 42 17  1  0
 44 42  1  0
 45 46  1  0
 46 47  1  0
 46 49  1  0
 48 46  1  0
 51 52  1  0
 51 50  1  0
 51 54  1  0
 53 51  1  0
 55 54  1  0
 56 58  1  0
 56 55  1  0
 57 68  2  0
 58 63  1  0
 59 67  1  0
 59 69  1  0
 60 66  1  0
 60 62  1  0
 61 67  1  0
 62 61  1  0
 63 62  2  0
 64 65  1  0
 64 58  2  0
 65 60  2  0
 66 59  1  0
 67 57  1  0
 69 71  2  0
 70 69  1  0
 72 70  1  0
 73 82  2  0
 73 78  1  0
 74 70  1  0
 74 78  1  0
 75 74  1  0
 76 77  1  0
 76 75  1  0
 77 73  1  0
 78 79  2  0
 79 80  1  0
 81 80  2  0
 82 81  1  0
 83 57  1  0
 83 84  1  0
 83 93  1  0
 84 87  1  0
 85 89  1  0
 85 84  1  0
 86 85  2  0
 89 88  1  0
 91 89  1  0
 91 92  1  0
 91 90  1  0
 93 96  1  1
 93 94  1  0
 95 93  1  0
M  ISO  4   3 100  16 100  55 101  56 101
M  END
>  <TORSDO>  (32) 
F 23

>  <SCORE>  (32) 
-12.494

>  <name>  (32) 
32

>  <ligand_id>  (32) 
32

>  <original_smiles>  (32) 
[H]c1c([H])c([H])c2c(c1[H])C([H])([H])C([H])([H])C([H])([H])C2([H])N([H])C(=O)C1([H])N(C(=O)C([H])(N([H])C(=O)C([H])(N([H])C([H])([H])[H])C([H])([H])[H])C(C([H])([H])[H])(C([H])([H])[H])C([H])([H])[H])C([H])([H])c2c([H])c(OC([H])([H])C([H])([H])[N+]([H])([H])C([H])([H])C([H])(C([H])([H])C3([H])C([H])([H])N(C(=O)N4C([H])([H])C([H])([H])C([H])([H])C([H])(n5nc(-c6c([H])c([H])c(Oc7c([H])c([H])c(F)c([H])c7F)c([H])c6[H])c(C(=O)N([H])[H])c5N([H])[H])C4([H])[H])C([H])([H])C([H])([H])C3([H])[H])C([H])([H])[N+]([H])([H])[H])c([H])c([H])c2C1([H])[H]

>  <smiles>  (32) 
[H]c1c([H])c([H])c2c(c1[H])C([H])([H])C([H])([H])C([H])([H])C2([H])N([H])C(=O)C1([H])N(C(=O)C([H])(N([H])C(=O)C([H])(N([H])C([H])([H])[H])C([H])([H])[H])C(C([H])([H])[H])(C([H])([H])[H])C([H])([H])[H])C([H])([H])c2c([H])c(OC([H])([H])C([H])([H])[N+]([H])([H])C([H])([H])C([H])(C([H])([H])C3([H])C([H])([H])N(C(=O)N4C([H])([H])C([H])([H])C([H])([H])C([H])(n5nc(-c6c([H])c([H])c(Oc7c([H])c([H])c(F)c([H])c7F)c([H])c6[H])c(C(=O)N([H])[H])c5N([H])[H])C4([H])[H])C([H])([H])C([H])([H])C3([H])[H])C([H])([H])[N+]([H])([H])[H])c([H])c([H])c2C1([H])[H]

$$$$
33:0:0
     RDKit          3D

103111  0  0  1  0  0  0  0  0999 V2000
  -29.2050  -20.8060   19.2470 N   0  0  1  0  0  4  0  0  0  0  0  0
  -30.0140  -20.7730   18.6440 H   0  0  0  0  0  0  0  0  0  0  0  0
  -31.1530  -21.5740   20.7480 C   0  0  0  0  0  2  0  0  0  0  0  0
  -28.7720  -21.8020   21.5710 C   0  0  0  0  0  2  0  0  0  0  0  0
  -31.6560  -21.6570   22.2070 C   0  0  0  0  0  2  0  0  0  0  0  0
  -29.2870  -21.8350   23.0220 C   0  0  0  0  0  2  0  0  0  0  0  0
  -29.7210  -20.9960   20.6480 C   0  0  0  0  0  3  0  0  0  0  0  0
  -30.7090  -22.4480   23.1610 C   0  0  1  0  0  0  0  0  0  0  0  0
  -31.1820  -22.2520   24.5500 N   0  0  0  0  0  4  0  0  0  0  0  0
  -31.1310  -21.2910   24.8360 H   0  0  0  0  0  0  0  0  0  0  0  0
  -30.6060  -22.8040   25.1710 H   0  0  0  0  0  0  0  0  0  0  0  0
  -32.1320  -22.5620   24.6580 H   0  0  0  0  0  0  0  0  0  0  0  0
  -30.7200  -23.9800   22.8210 C   0  0  0  0  0  2  0  0  0  0  0  0
  -29.3530  -24.6960   22.8420 C   0  0  0  0  0  0  0  0  0  0  0  0
  -29.0290  -25.4650   21.8080 N   0  0  0  0  0  0  0  0  0  0  0  0
  -28.5870  -24.5620   23.7950 O   0  0  0  0  0  0  0  0  0  0  0  0
  -29.6670  -25.6000   21.0340 H   0  0  0  0  0  0  0  0  0  0  0  0
  -28.1360  -25.9400   21.7870 H   0  0  0  0  0  0  0  0  0  0  0  0
  -28.5810  -19.4050   19.1110 C   0  0  0  0  0  2  0  0  0  0  0  0
  -29.4690  -18.0590   18.9370 C   0  0  0  0  0  2  0  0  0  0  0  0
  -29.7850  -17.0220   20.1220 C   0  0  0  0  0  2  0  0  0  0  0  0
  -30.3110  -14.4490   19.7210 C   0  0  0  0  0  0  0  0  0  0  0  0
  -30.1030  -12.1130   18.8690 C   0  0  0  0  0  2  0  0  0  0  0  0
  -29.0760  -12.0850   17.7160 C   0  0  0  0  0  2  0  0  0  0  0  0
  -27.6450  -11.9210   18.2610 C   0  0  0  0  0  2  0  0  0  0  0  0
  -27.3350  -12.8970   19.4280 C   0  0  0  0  0  3  0  0  0  0  0  0
  -28.4670  -12.8890   20.4780 C   0  0  0  0  0  2  0  0  0  0  0  0
  -29.7170  -13.2130   19.7740 N   0  0  0  0  0  0  0  0  0  0  0  0
  -31.4700  -14.5830   19.3220 O   0  0  0  0  0  0  0  0  0  0  0  0
  -29.4970  -15.5380   19.9480 N   0  0  0  0  0  0  0  0  0  0  0  0
  -28.5500  -15.2730   20.1750 H   0  0  0  0  0  0  0  0  0  0  0  0
  -25.0090  -13.5190   20.3220 C   0  0  0  0  0  0  0  0  0  0  0  0
  -23.9740  -12.7570   20.7930 C   0  0  0  0  0  0  0  0  0  0  0  0
  -24.4330  -11.4050   20.7580 C   0  0  0  0  0  0  0  0  0  0  0  0
  -26.0310  -12.6300   20.0270 N   0  0  0  0  0  0  0  0  0  0  0  0
  -25.6950  -11.3560   20.3510 N   0  0  0  0  0  0  0  0  0  0  0  0
  -23.7230  -10.1490   21.0340 C   0  0  0  0  0  0  0  0  0  0  0  0
  -24.2270   -9.1990   21.9480 C   0  0  0  0  0  3  0  0  0  0  0  0
  -23.5160   -8.0070   22.2070 C   0  0  0  0  0  3  0  0  0  0  0  0
  -22.2850   -7.7590   21.5540 C   0  0  0  0  0  0  0  0  0  0  0  0
  -21.8010   -8.6970   20.6260 C   0  0  0  0  0  3  0  0  0  0  0  0
  -22.5130   -9.8800   20.3640 C   0  0  0  0  0  3  0  0  0  0  0  0
  -21.5370   -6.6190   21.7270 O   0  0  0  0  0  0  0  0  0  0  0  0
  -21.5840   -5.8980   22.8920 C   0  0  0  0  0  0  0  0  0  0  0  0
  -21.1980   -6.4570   24.1300 C   0  0  0  0  0  3  0  0  0  0  0  0
  -21.1960   -5.6590   25.2910 C   0  0  0  0  0  3  0  0  0  0  0  0
  -21.5680   -4.3040   25.2170 C   0  0  0  0  0  0  0  0  0  0  0  0
  -21.9460   -3.7440   23.9840 C   0  0  0  0  0  3  0  0  0  0  0  0
  -21.9520   -4.5390   22.8240 C   0  0  0  0  0  0  0  0  0  0  0  0
  -22.2970   -3.9910   21.6350 F   0  0  0  0  0  0  0  0  0  0  0  0
  -21.5580   -3.5340   26.3300 F   0  0  0  0  0  0  0  0  0  0  0  0
  -22.6030  -13.2440   21.1580 C   0  0  0  0  0  0  0  0  0  0  0  0
  -21.9540  -12.5870   22.1140 N   0  0  0  0  0  0  0  0  0  0  0  0
  -22.1170  -14.2430   20.6270 O   0  0  0  0  0  0  0  0  0  0  0  0
  -22.3600  -11.7770   22.5580 H   0  0  0  0  0  0  0  0  0  0  0  0
  -21.0380  -12.8960   22.4030 H   0  0  0  0  0  0  0  0  0  0  0  0
  -25.1580  -14.8840   20.0960 N   0  0  0  0  0  0  0  0  0  0  0  0
  -24.3950  -15.5350   20.2370 H   0  0  0  0  0  0  0  0  0  0  0  0
  -25.9620  -15.3120   19.6540 H   0  0  0  0  0  0  0  0  0  0  0  0
  -28.3230  -21.9520   18.6800 C   0  0  0  0  0  3  0  0  0  0  0  0
  -28.8860  -23.4430   18.3650 C   0  0  0  0  0  3  0  0  0  0  0  0
  -27.8020  -24.6150   18.1900 C   0  0  0  0  0  2  0  0  0  0  0  0
  -28.1060  -26.0660   18.4070 O   0  0  0  0  0  0  0  0  0  0  0  0
  -24.6970  -30.7410   22.7910 C   0  0  0  0  0  0  0  0  0  0  0  0
  -27.0190  -26.9420   18.6300 C   0  0  0  0  0  0  0  0  0  0  0  0
  -23.3730  -29.7610   20.9580 C   0  0  0  0  0  3  0  0  0  0  0  0
  -24.7020  -28.5600   19.1350 C   0  0  0  0  0  0  0  0  0  0  0  0
  -25.9080  -30.0770   20.7010 C   0  0  0  0  0  2  0  0  0  0  0  0
  -25.9160  -28.8800   19.7530 C   0  0  0  0  0  0  0  0  0  0  0  0
  -27.0800  -28.0870   19.4940 C   0  0  0  0  0  3  0  0  0  0  0  0
  -25.7740  -26.6900   18.0090 C   0  0  0  0  0  3  0  0  0  0  0  0
  -24.6320  -27.4720   18.2560 C   0  0  0  0  0  3  0  0  0  0  0  0
  -23.4940  -29.4180   19.4530 C   0  0  0  0  0  2  0  0  0  0  0  0
  -24.6820  -30.1970   21.5410 N   0  0  0  0  0  0  0  0  0  0  0  0
  -23.6500  -30.9040   23.4350 O   0  0  0  0  0  0  0  0  0  0  0  0
  -22.7390  -28.5600   21.6990 C   0  0  0  0  0  0  0  0  0  0  0  0
  -21.4030  -28.4350   21.6170 N   0  0  0  0  0  0  0  0  0  0  0  0
  -23.4460  -27.7540   22.3120 O   0  0  0  0  0  0  0  0  0  0  0  0
  -20.8920  -29.1390   21.1040 H   0  0  0  0  0  0  0  0  0  0  0  0
  -18.0290  -27.1860   22.0290 C   0  0  0  0  0  0  0  0  0  0  0  0
  -20.6030  -27.3590   22.2060 C   0  0  0  0  0  3  0  0  0  0  0  0
  -20.6460  -26.0900   21.3250 C   0  0  0  0  0  2  0  0  0  0  0  0
  -19.4860  -26.0090   20.3270 C   0  0  0  0  0  2  0  0  0  0  0  0
  -18.1420  -26.0200   21.0620 C   0  0  0  0  0  2  0  0  0  0  0  0
  -19.1850  -27.8250   22.5540 C   0  0  0  0  0  0  0  0  0  0  0  0
  -19.0230  -28.9250   23.4240 C   0  0  0  0  0  3  0  0  0  0  0  0
  -17.7410  -29.3940   23.7640 C   0  0  0  0  0  3  0  0  0  0  0  0
  -16.6010  -28.7490   23.2530 C   0  0  0  0  0  3  0  0  0  0  0  0
  -16.7460  -27.6440   22.3950 C   0  0  0  0  0  3  0  0  0  0  0  0
  -26.0250  -31.2020   23.4650 C   0  0  0  0  0  3  0  0  0  0  0  0
  -26.5000  -30.2410   24.6250 C   0  0  1  0  0  0  0  0  0  0  0  0
  -25.4060  -29.9560   25.6830 C   0  0  0  0  0  1  0  0  0  0  0  0
  -26.9660  -28.8800   24.0580 C   0  0  0  0  0  1  0  0  0  0  0  0
  -27.7260  -30.8560   25.3440 C   0  0  0  0  0  1  0  0  0  0  0  0
  -25.8120  -32.5640   23.9760 N   0  0  0  0  0  0  0  0  0  0  0  0
  -26.2530  -33.6800   23.3780 C   0  0  0  0  0  0  0  0  0  0  0  0
  -26.9500  -33.6610   22.3590 O   0  0  0  0  0  0  0  0  0  0  0  0
  -25.1910  -32.6570   24.7670 H   0  0  0  0  0  0  0  0  0  0  0  0
  -24.6990  -35.6510   23.2160 C   0  0  0  0  0  1  0  0  0  0  0  0
  -25.8610  -35.0290   24.0070 C   0  0  0  0  0  3  0  0  0  0  0  0
  -28.0110  -35.6050   25.0450 C   0  0  0  0  0  1  0  0  0  0  0  0
  -26.9820  -35.9920   24.0830 N   0  0  0  0  0  0  0  0  0  0  0  0
  -26.6470  -36.9200   24.3280 H   0  0  0  0  0  0  0  0  0  0  0  0
  1  2  1  6
  3  5  1  0
  4  6  1  0
  5  8  1  0
  6  8  1  0
  7  1  1  0
  7  3  1  0
  7  4  1  0
  8 13  1  6
  8  9  1  0
  9 12  1  0
  9 10  1  0
  9 11  1  0
 13 14  1  0
 14 16  2  0
 15 14  1  0
 17 15  1  0
 18 15  1  0
 19  1  1  0
 20 19  1  0
 20 21  1  0
 22 28  1  0
 22 30  1  0
 23 28  1  0
 24 25  1  0
 24 23  1  0
 26 25  1  0
 26 35  1  0
 26 27  1  0
 28 27  1  0
 29 22  2  0
 30 21  1  0
 30 31  1  0
 32 33  2  0
 33 52  1  0
 34 33  1  0
 34 37  1  0
 35 32  1  0
 35 36  1  0
 36 34  2  0
 37 38  1  0
 38 39  2  0
 40 43  1  0
 40 39  1  0
 41 40  2  0
 42 41  1  0
 42 37  2  0
 43 44  1  0
 44 45  1  0
 45 46  2  0
 47 46  1  0
 47 51  1  0
 48 47  2  0
 49 44  2  0
 49 48  1  0
 50 49  1  0
 52 53  1  0
 53 56  1  0
 53 55  1  0
 54 52  2  0
 57 58  1  0
 57 32  1  0
 59 57  1  0
 60  1  1  0
 61 60  2  0
 62 61  1  0
 62 63  1  0
 63 65  1  0
 64 75  2  0
 65 70  1  0
 66 74  1  0
 66 76  1  0
 67 73  1  0
 67 69  1  0
 68 74  1  0
 69 68  1  0
 70 69  2  0
 71 72  1  0
 71 65  2  0
 72 67  2  0
 73 66  1  0
 74 64  1  0
 76 78  2  0
 77 76  1  0
 79 77  1  0
 80 89  2  0
 80 85  1  0
 81 77  1  0
 81 85  1  0
 82 81  1  0
 83 84  1  0
 83 82  1  0
 84 80  1  0
 85 86  2  0
 86 87  1  0
 88 87  2  0
 89 88  1  0
 90 64  1  0
 90 95  1  0
 90 91  1  0
 91 94  1  1
 91 92  1  0
 93 91  1  0
 95 98  1  0
 96 95  1  0
 96100  1  0
 97 96  2  0
100 99  1  0
100102  1  0
102103  1  0
102101  1  0
M  ISO  4  22 100  30 100  62 101  63 101
M  END
>  <TORSDO>  (33) 
F 26

>  <SCORE>  (33) 
-8.585

>  <name>  (33) 
33

>  <ligand_id>  (33) 
33

>  <original_smiles>  (33) 
[H]c1c([H])c([H])c2c(c1[H])C([H])([H])C([H])([H])C([H])([H])C2([H])N([H])C(=O)C1([H])N(C(=O)C([H])(N([H])C(=O)C([H])(N([H])C([H])([H])[H])C([H])([H])[H])C(C([H])([H])[H])(C([H])([H])[H])C([H])([H])[H])C([H])([H])c2c([H])c(OC([H])([H])C([H])([H])C([H])([H])[N+]([H])(C([H])([H])C([H])([H])C([H])([H])N([H])C(=O)N3C([H])([H])C([H])([H])C([H])([H])C([H])(n4nc(-c5c([H])c([H])c(Oc6c([H])c([H])c(F)c([H])c6F)c([H])c5[H])c(C(=O)N([H])[H])c4N([H])[H])C3([H])[H])C3([H])C([H])([H])C([H])([H])C(C([H])([H])C(=O)N([H])[H])([N+]([H])([H])[H])C([H])([H])C3([H])[H])c([H])c([H])c2C1([H])[H]

>  <smiles>  (33) 
[H]c1c([H])c([H])c2c(c1[H])C([H])([H])C([H])([H])C([H])([H])C2([H])N([H])C(=O)C1([H])N(C(=O)C([H])(N([H])C(=O)C([H])(N([H])C([H])([H])[H])C([H])([H])[H])C(C([H])([H])[H])(C([H])([H])[H])C([H])([H])[H])C([H])([H])c2c([H])c(OC([H])([H])C([H])([H])C([H])([H])[N+]([H])(C([H])([H])C([H])([H])C([H])([H])N([H])C(=O)N3C([H])([H])C([H])([H])C([H])([H])C([H])(n4nc(-c5c([H])c([H])c(Oc6c([H])c([H])c(F)c([H])c6F)c([H])c5[H])c(C(=O)N([H])[H])c4N([H])[H])C3([H])[H])C3([H])C([H])([H])C([H])([H])C(C([H])([H])C(=O)N([H])[H])([N+]([H])([H])[H])C([H])([H])C3([H])[H])c([H])c([H])c2C1([H])[H]

$$$$
34:0:0
     RDKit          3D

100109  0  0  1  0  0  0  0  0999 V2000
  -30.5380  -20.0420   19.7320 N   0  0  1  0  0  4  0  0  0  0  0  0
  -31.3380  -19.9840   20.3460 H   0  0  0  0  0  0  0  0  0  0  0  0
  -30.9600  -14.9230   19.3300 C   0  0  0  0  0  0  0  0  0  0  0  0
  -30.4300  -12.7950   18.1300 C   0  0  0  0  0  2  0  0  0  0  0  0
  -29.2870  -13.0020   17.1150 C   0  0  0  0  0  2  0  0  0  0  0  0
  -27.9200  -12.8010   17.7970 C   0  0  0  0  0  2  0  0  0  0  0  0
  -27.8110  -13.5640   19.1430 C   0  0  0  0  0  3  0  0  0  0  0  0
  -29.0550  -13.3510   20.0260 C   0  0  0  0  0  2  0  0  0  0  0  0
  -30.2300  -13.7570   19.2440 N   0  0  0  0  0  0  0  0  0  0  0  0
  -32.0090  -15.0140   18.6840 O   0  0  0  0  0  0  0  0  0  0  0  0
  -30.0610  -18.0140   21.3290 C   0  0  0  0  0  2  0  0  0  0  0  0
  -30.6740  -17.4290   19.1680 C   0  0  0  0  0  2  0  0  0  0  0  0
  -29.9630  -18.6210   19.9280 C   0  0  0  0  0  3  0  0  0  0  0  0
  -29.9030  -16.4560   21.1690 C   0  0  0  0  0  3  0  0  0  0  0  0
  -30.3780  -16.1020   19.8030 N   0  0  0  0  0  0  0  0  0  0  0  0
  -25.6150  -14.0930   20.3550 C   0  0  0  0  0  0  0  0  0  0  0  0
  -24.6330  -13.2920   20.8710 C   0  0  0  0  0  0  0  0  0  0  0  0
  -25.0690  -11.9470   20.6600 C   0  0  0  0  0  0  0  0  0  0  0  0
  -26.5840  -13.2370   19.8600 N   0  0  0  0  0  0  0  0  0  0  0  0
  -26.2750  -11.9350   20.1060 N   0  0  0  0  0  0  0  0  0  0  0  0
  -24.3790  -10.6730   20.9020 C   0  0  0  0  0  0  0  0  0  0  0  0
  -24.8440   -9.7510   21.8670 C   0  0  0  0  0  3  0  0  0  0  0  0
  -24.1530   -8.5420   22.0940 C   0  0  0  0  0  3  0  0  0  0  0  0
  -22.9810   -8.2450   21.3590 C   0  0  0  0  0  0  0  0  0  0  0  0
  -22.5360   -9.1540   20.3850 C   0  0  0  0  0  3  0  0  0  0  0  0
  -23.2270  -10.3560   20.1560 C   0  0  0  0  0  3  0  0  0  0  0  0
  -22.2580   -7.0840   21.4940 O   0  0  0  0  0  0  0  0  0  0  0  0
  -22.0610   -6.4990   22.7190 C   0  0  0  0  0  0  0  0  0  0  0  0
  -21.4670   -7.1970   23.7930 C   0  0  0  0  0  3  0  0  0  0  0  0
  -21.2160   -6.5360   25.0100 C   0  0  0  0  0  3  0  0  0  0  0  0
  -21.5530   -5.1780   25.1580 C   0  0  0  0  0  0  0  0  0  0  0  0
  -22.1430   -4.4800   24.0900 C   0  0  0  0  0  3  0  0  0  0  0  0
  -22.3940   -5.1370   22.8730 C   0  0  0  0  0  0  0  0  0  0  0  0
  -22.9440   -4.4550   21.8400 F   0  0  0  0  0  0  0  0  0  0  0  0
  -21.3060   -4.5400   26.3270 F   0  0  0  0  0  0  0  0  0  0  0  0
  -23.3200  -13.7450   21.4400 C   0  0  0  0  0  0  0  0  0  0  0  0
  -22.7990  -13.0260   22.4280 N   0  0  0  0  0  0  0  0  0  0  0  0
  -22.7690  -14.7730   21.0440 O   0  0  0  0  0  0  0  0  0  0  0  0
  -23.2610  -12.1950   22.7650 H   0  0  0  0  0  0  0  0  0  0  0  0
  -21.9250  -13.3060   22.8490 H   0  0  0  0  0  0  0  0  0  0  0  0
  -25.7620  -15.4740   20.2450 N   0  0  0  0  0  0  0  0  0  0  0  0
  -25.0330  -16.1270   20.5130 H   0  0  0  0  0  0  0  0  0  0  0  0
  -26.5560  -15.9270   19.8150 H   0  0  0  0  0  0  0  0  0  0  0  0
  -30.6250  -15.7100   22.3270 C   0  0  0  0  0  2  0  0  0  0  0  0
  -30.4330  -16.3770   23.6300 N   0  0  0  0  0  4  0  0  0  0  0  0
  -30.6870  -17.3480   23.5980 H   0  0  0  0  0  0  0  0  0  0  0  0
  -31.0020  -15.9320   24.3300 H   0  0  0  0  0  0  0  0  0  0  0  0
  -29.4760  -16.3150   23.9350 H   0  0  0  0  0  0  0  0  0  0  0  0
  -31.2720  -20.2370   18.4430 C   0  0  0  0  0  2  0  0  0  0  0  0
  -35.5580  -19.5090   19.4620 C   0  0  0  0  0  2  0  0  0  0  0  0
  -34.8210  -20.6400   20.1880 C   0  0  0  0  0  2  0  0  0  0  0  0
  -35.1280  -19.4330   17.9890 C   0  0  0  0  0  2  0  0  0  0  0  0
  -33.3010  -20.4520   20.0950 C   0  0  0  0  0  2  0  0  0  0  0  0
  -33.6010  -19.2950   17.8420 C   0  0  0  0  0  2  0  0  0  0  0  0
  -32.8150  -20.3800   18.6230 C   0  0  0  0  0  3  0  0  0  0  0  0
  -29.8600  -21.2900   20.3460 C   0  0  0  0  0  2  0  0  0  0  0  0
  -29.3120  -22.5440   19.4770 C   0  0  0  0  0  2  0  0  0  0  0  0
  -29.3180  -24.0290   20.1000 C   0  0  0  0  0  3  0  0  0  0  0  0
  -28.3780  -25.1360   19.4240 C   0  0  0  0  0  3  0  0  0  0  0  0
  -28.5110  -26.5890   19.7410 O   0  0  0  0  0  0  0  0  0  0  0  0
  -24.7410  -31.7790   23.0550 C   0  0  0  0  0  0  0  0  0  0  0  0
  -27.3670  -27.4150   19.7280 C   0  0  0  0  0  0  0  0  0  0  0  0
  -23.5110  -30.3890   21.4270 C   0  0  0  0  0  3  0  0  0  0  0  0
  -24.9480  -28.9500   19.8730 C   0  0  0  0  0  0  0  0  0  0  0  0
  -26.0250  -30.8110   21.1350 C   0  0  0  0  0  2  0  0  0  0  0  0
  -26.1250  -29.4580   20.4370 C   0  0  0  0  0  0  0  0  0  0  0  0
  -27.3340  -28.7010   20.3570 C   0  0  0  0  0  3  0  0  0  0  0  0
  -26.1670  -26.9830   19.1140 C   0  0  0  0  0  3  0  0  0  0  0  0
  -24.9720  -27.7220   19.1990 C   0  0  0  0  0  3  0  0  0  0  0  0
  -23.6810  -29.7710   20.0130 C   0  0  0  0  0  2  0  0  0  0  0  0
  -24.7790  -31.0090   21.9270 N   0  0  0  0  0  0  0  0  0  0  0  0
  -23.6750  -31.9950   23.6500 O   0  0  0  0  0  0  0  0  0  0  0  0
  -22.9370  -29.3150   22.3810 C   0  0  0  0  0  0  0  0  0  0  0  0
  -21.6230  -29.0490   22.2730 N   0  0  0  0  0  0  0  0  0  0  0  0
  -23.6700  -28.7240   23.1800 O   0  0  0  0  0  0  0  0  0  0  0  0
  -21.0880  -29.5800   21.6000 H   0  0  0  0  0  0  0  0  0  0  0  0
  -18.3480  -27.6020   22.7880 C   0  0  0  0  0  0  0  0  0  0  0  0
  -20.8820  -28.0480   23.0440 C   0  0  0  0  0  3  0  0  0  0  0  0
  -21.0860  -26.6320   22.4560 C   0  0  0  0  0  2  0  0  0  0  0  0
  -20.0040  -26.2350   21.4480 C   0  0  0  0  0  2  0  0  0  0  0  0
  -18.6190  -26.2750   22.1010 C   0  0  0  0  0  2  0  0  0  0  0  0
  -19.4100  -28.4420   23.2170 C   0  0  0  0  0  0  0  0  0  0  0  0
  -19.1030  -29.6810   23.8200 C   0  0  0  0  0  3  0  0  0  0  0  0
  -17.7660  -30.0830   23.9980 C   0  0  0  0  0  3  0  0  0  0  0  0
  -16.7180  -29.2400   23.5860 C   0  0  0  0  0  3  0  0  0  0  0  0
  -17.0100  -28.0010   22.9880 C   0  0  0  0  0  3  0  0  0  0  0  0
  -26.0280  -32.4400   23.6340 C   0  0  0  0  0  3  0  0  0  0  0  0
  -25.6660  -33.7910   24.0880 N   0  0  0  0  0  0  0  0  0  0  0  0
  -25.8970  -34.9130   23.3950 C   0  0  0  0  0  0  0  0  0  0  0  0
  -26.5050  -34.9250   22.3210 O   0  0  0  0  0  0  0  0  0  0  0  0
  -25.1160  -33.8520   24.9310 H   0  0  0  0  0  0  0  0  0  0  0  0
  -24.0700  -36.6410   23.2680 C   0  0  0  0  0  1  0  0  0  0  0  0
  -25.3680  -36.2350   23.9860 C   0  0  0  0  0  3  0  0  0  0  0  0
  -27.4960  -37.1610   24.7910 C   0  0  0  0  0  1  0  0  0  0  0  0
  -26.3430  -37.3450   23.9130 N   0  0  0  0  0  0  0  0  0  0  0  0
  -25.9010  -38.2290   24.1520 H   0  0  0  0  0  0  0  0  0  0  0  0
  -26.6750  -31.6120   24.8120 C   0  0  1  0  0  0  0  0  0  0  0  0
  -25.6670  -31.2060   25.9130 C   0  0  0  0  0  1  0  0  0  0  0  0
  -27.3320  -30.3200   24.2780 C   0  0  0  0  0  1  0  0  0  0  0  0
  -27.7980  -32.4400   25.4790 C   0  0  0  0  0  1  0  0  0  0  0  0
  1 56  1  0
  1  2  1  1
  3 15  1  0
  4  9  1  0
  5  6  1  0
  5  4  1  0
  7  6  1  0
  7 19  1  0
  7  8  1  0
  9  3  1  0
  9  8  1  0
 10  3  2  0
 12 15  1  0
 12 13  1  0
 13  1  1  0
 13 11  1  0
 14 11  1  0
 14 44  1  0
 15 14  1  0
 16 17  2  0
 17 36  1  0
 18 17  1  0
 18 21  1  0
 19 20  1  0
 19 16  1  0
 20 18  2  0
 21 22  1  0
 22 23  2  0
 24 27  1  0
 24 23  1  0
 25 24  2  0
 26 25  1  0
 26 21  2  0
 27 28  1  0
 28 33  2  0
 28 29  1  0
 29 30  2  0
 30 31  1  0
 31 35  1  0
 32 31  2  0
 33 32  1  0
 34 33  1  0
 36 37  1  0
 37 39  1  0
 37 40  1  0
 38 36  2  0
 41 16  1  0
 41 42  1  0
 43 41  1  0
 44 45  1  0
 45 48  1  0
 45 47  1  0
 46 45  1  0
 49 55  1  0
 49  1  1  0
 50 51  1  0
 52 50  1  0
 53 51  1  0
 54 52  1  0
 54 55  1  0
 55 53  1  0
 57 58  1  0
 57 56  1  0
 59 60  1  0
 59 58  2  0
 61 72  2  0
 62 60  1  0
 62 67  1  0
 63 71  1  0
 63 73  1  0
 64 70  1  0
 64 66  1  0
 65 71  1  0
 66 65  1  0
 67 66  2  0
 68 69  1  0
 68 62  2  0
 69 64  2  0
 70 63  1  0
 71 61  1  0
 73 75  2  0
 74 73  1  0
 76 74  1  0
 77 86  2  0
 77 82  1  0
 78 74  1  0
 78 82  1  0
 79 78  1  0
 80 81  1  0
 80 79  1  0
 81 77  1  0
 82 83  2  0
 83 84  1  0
 85 84  2  0
 86 85  1  0
 87 61  1  0
 87 88  1  0
 87 97  1  0
 88 91  1  0
 89 93  1  0
 89 88  1  0
 90 89  2  0
 93 92  1  0
 95 93  1  0
 95 96  1  0
 95 94  1  0
 97100  1  1
 97 98  1  0
 99 97  1  0
M  ISO  4   3 100  15 100  59 101  60 101
M  END
>  <TORSDO>  (34) 
F 24

>  <SCORE>  (34) 
-8.227

>  <name>  (34) 
34

>  <ligand_id>  (34) 
34

>  <original_smiles>  (34) 
[H]c1c([H])c([H])c2c(c1[H])C([H])([H])C([H])([H])C([H])([H])C2([H])N([H])C(=O)C1([H])N(C(=O)C([H])(N([H])C(=O)C([H])(N([H])C([H])([H])[H])C([H])([H])[H])C(C([H])([H])[H])(C([H])([H])[H])C([H])([H])[H])C([H])([H])c2c([H])c(OC([H])([H])C([H])([H])C([H])([H])C([H])([H])[N+]([H])(C([H])([H])C3([H])C([H])([H])C([H])([H])C([H])([H])C([H])([H])C3([H])[H])C3([H])C([H])([H])N(C(=O)N4C([H])([H])C([H])([H])C([H])([H])C([H])(n5nc(-c6c([H])c([H])c(Oc7c([H])c([H])c(F)c([H])c7F)c([H])c6[H])c(C(=O)N([H])[H])c5N([H])[H])C4([H])[H])C([H])(C([H])([H])[N+]([H])([H])[H])C3([H])[H])c([H])c([H])c2C1([H])[H]

>  <smiles>  (34) 
[H]c1c([H])c([H])c2c(c1[H])C([H])([H])C([H])([H])C([H])([H])C2([H])N([H])C(=O)C1([H])N(C(=O)C([H])(N([H])C(=O)C([H])(N([H])C([H])([H])[H])C([H])([H])[H])C(C([H])([H])[H])(C([H])([H])[H])C([H])([H])[H])C([H])([H])c2c([H])c(OC([H])([H])C([H])([H])C([H])([H])C([H])([H])[N+]([H])(C([H])([H])C3([H])C([H])([H])C([H])([H])C([H])([H])C([H])([H])C3([H])[H])C3([H])C([H])([H])N(C(=O)N4C([H])([H])C([H])([H])C([H])([H])C([H])(n5nc(-c6c([H])c([H])c(Oc7c([H])c([H])c(F)c([H])c7F)c([H])c6[H])c(C(=O)N([H])[H])c5N([H])[H])C4([H])[H])C([H])(C([H])([H])[N+]([H])([H])[H])C3([H])[H])c([H])c([H])c2C1([H])[H]

$$$$
35:0:0
     RDKit          3D

 97107  0  0  1  0  0  0  0  0999 V2000
  -30.4250  -20.3590   21.3090 C   0  0  0  0  0  3  0  0  0  0  0  0
  -31.9540  -14.9040   19.9250 C   0  0  0  0  0  0  0  0  0  0  0  0
  -31.4820  -12.6890   18.8910 C   0  0  0  0  0  2  0  0  0  0  0  0
  -30.4830  -12.8590   17.7250 C   0  0  0  0  0  2  0  0  0  0  0  0
  -29.0330  -12.7690   18.2400 C   0  0  0  0  0  2  0  0  0  0  0  0
  -28.7930  -13.6600   19.4880 C   0  0  0  0  0  3  0  0  0  0  0  0
  -29.9150  -13.5130   20.5410 C   0  0  0  0  0  2  0  0  0  0  0  0
  -31.1970  -13.7580   19.8700 N   0  0  0  0  0  0  0  0  0  0  0  0
  -33.1050  -14.9190   19.4770 O   0  0  0  0  0  0  0  0  0  0  0  0
  -30.6470  -16.9340   19.3770 C   0  0  0  0  0  2  0  0  0  0  0  0
  -32.0540  -16.9580   21.3560 C   0  0  0  0  0  2  0  0  0  0  0  0
  -30.0070  -18.2180   19.9990 C   0  0  0  0  0  2  0  0  0  0  0  0
  -32.2370  -18.4940   20.9860 C   0  0  0  0  0  2  0  0  0  0  0  0
  -31.3700  -16.0820   20.3540 N   0  0  0  0  0  0  0  0  0  0  0  0
  -31.0150  -19.2120   20.4790 N   0  0  2  0  0  4  0  0  0  0  0  0
  -31.3230  -19.6690   19.6330 H   0  0  0  0  0  0  0  0  0  0  0  0
  -26.5530  -14.4330   20.4660 C   0  0  0  0  0  0  0  0  0  0  0  0
  -25.4400  -13.7440   20.8600 C   0  0  0  0  0  0  0  0  0  0  0  0
  -25.7490  -12.3610   20.6680 C   0  0  0  0  0  0  0  0  0  0  0  0
  -27.4700  -13.4730   20.0660 N   0  0  0  0  0  0  0  0  0  0  0  0
  -26.9980  -12.2160   20.2460 N   0  0  0  0  0  0  0  0  0  0  0  0
  -24.9030  -11.1710   20.8020 C   0  0  0  0  0  0  0  0  0  0  0  0
  -25.1930  -10.1600   21.7430 C   0  0  0  0  0  3  0  0  0  0  0  0
  -24.3590   -9.0320   21.8630 C   0  0  0  0  0  3  0  0  0  0  0  0
  -23.2130   -8.9090   21.0420 C   0  0  0  0  0  0  0  0  0  0  0  0
  -22.9390   -9.9110   20.0950 C   0  0  0  0  0  3  0  0  0  0  0  0
  -23.7780  -11.0280   19.9670 C   0  0  0  0  0  3  0  0  0  0  0  0
  -22.3530   -7.8380   21.0760 O   0  0  0  0  0  0  0  0  0  0  0  0
  -22.0840   -7.1690   22.2430 C   0  0  0  0  0  0  0  0  0  0  0  0
  -21.4930   -7.8150   23.3520 C   0  0  0  0  0  3  0  0  0  0  0  0
  -21.1690   -7.0730   24.5060 C   0  0  0  0  0  3  0  0  0  0  0  0
  -21.4310   -5.6910   24.5540 C   0  0  0  0  0  0  0  0  0  0  0  0
  -22.0220   -5.0490   23.4520 C   0  0  0  0  0  3  0  0  0  0  0  0
  -22.3460   -5.7850   22.2990 C   0  0  0  0  0  0  0  0  0  0  0  0
  -22.8940   -5.1570   21.2310 F   0  0  0  0  0  0  0  0  0  0  0  0
  -21.1130   -4.9800   25.6610 F   0  0  0  0  0  0  0  0  0  0  0  0
  -24.1280  -14.3350   21.2910 C   0  0  0  0  0  0  0  0  0  0  0  0
  -23.4310  -13.6730   22.2100 N   0  0  0  0  0  0  0  0  0  0  0  0
  -23.7360  -15.4130   20.8500 O   0  0  0  0  0  0  0  0  0  0  0  0
  -22.5640  -14.0560   22.5570 H   0  0  0  0  0  0  0  0  0  0  0  0
  -23.7570  -12.7920   22.5780 H   0  0  0  0  0  0  0  0  0  0  0  0
  -26.8550  -15.7910   20.3930 N   0  0  0  0  0  0  0  0  0  0  0  0
  -26.1510  -16.4990   20.5660 H   0  0  0  0  0  0  0  0  0  0  0  0
  -27.6970  -16.1570   19.9770 H   0  0  0  0  0  0  0  0  0  0  0  0
  -32.4630  -21.0890   24.5820 C   0  0  0  0  0  2  0  0  0  0  0  0
  -31.0200  -21.0230   25.1060 C   0  0  0  0  0  2  0  0  0  0  0  0
  -32.3810  -20.9660   23.0540 C   0  0  0  0  0  2  0  0  0  0  0  0
  -30.1140  -20.9400   23.8710 C   0  0  0  0  0  2  0  0  0  0  0  0
  -31.0060  -20.3330   22.7760 C   0  0  0  0  0  3  0  0  0  0  0  0
  -30.3180  -21.8160   20.6020 C   0  0  0  0  0  2  0  0  0  0  0  0
  -27.1550  -23.0540   21.7570 C   0  0  0  0  0  2  0  0  0  0  0  0
  -28.1700  -24.1710   21.6610 C   0  0  0  0  0  2  0  0  0  0  0  0
  -27.9320  -21.8760   21.1870 C   0  0  0  0  0  2  0  0  0  0  0  0
  -28.8190  -23.9090   20.3010 C   0  0  0  0  0  3  0  0  0  0  0  0
  -28.9620  -22.4000   20.2700 N   0  0  0  0  0  0  0  0  0  0  0  0
  -27.9000  -24.5290   19.1520 C   0  0  0  0  0  2  0  0  0  0  0  0
  -28.0230  -25.9730   18.8180 O   0  0  0  0  0  0  0  0  0  0  0  0
  -24.9370  -31.0630   22.8400 C   0  0  0  0  0  0  0  0  0  0  0  0
  -26.9390  -26.8530   18.9620 C   0  0  0  0  0  0  0  0  0  0  0  0
  -23.4880  -29.9560   21.1760 C   0  0  0  0  0  3  0  0  0  0  0  0
  -24.6880  -28.5590   19.4070 C   0  0  0  0  0  0  0  0  0  0  0  0
  -26.0070  -30.1870   20.7570 C   0  0  0  0  0  2  0  0  0  0  0  0
  -25.9360  -28.9090   19.9340 C   0  0  0  0  0  0  0  0  0  0  0  0
  -27.0620  -28.0670   19.7040 C   0  0  0  0  0  3  0  0  0  0  0  0
  -25.6720  -26.5790   18.3930 C   0  0  0  0  0  3  0  0  0  0  0  0
  -24.5560  -27.4030   18.6260 C   0  0  0  0  0  3  0  0  0  0  0  0
  -23.5160  -29.4710   19.7050 C   0  0  0  0  0  2  0  0  0  0  0  0
  -24.8360  -30.4100   21.6480 N   0  0  0  0  0  0  0  0  0  0  0  0
  -23.9320  -31.3130   23.5250 O   0  0  0  0  0  0  0  0  0  0  0  0
  -22.8730  -28.8440   22.0610 C   0  0  0  0  0  0  0  0  0  0  0  0
  -21.5450  -28.6640   21.9690 N   0  0  0  0  0  0  0  0  0  0  0  0
  -23.5880  -28.1550   22.7920 O   0  0  0  0  0  0  0  0  0  0  0  0
  -21.0260  -29.2760   21.3540 H   0  0  0  0  0  0  0  0  0  0  0  0
  -18.2220  -27.2910   22.3660 C   0  0  0  0  0  0  0  0  0  0  0  0
  -20.7630  -27.6510   22.6780 C   0  0  0  0  0  3  0  0  0  0  0  0
  -20.9360  -26.2570   22.0310 C   0  0  0  0  0  2  0  0  0  0  0  0
  -19.8600  -25.9390   20.9890 C   0  0  0  0  0  2  0  0  0  0  0  0
  -18.4670  -25.9880   21.6230 C   0  0  0  0  0  2  0  0  0  0  0  0
  -19.3000  -28.0790   22.8480 C   0  0  0  0  0  0  0  0  0  0  0  0
  -19.0190  -29.2980   23.5010 C   0  0  0  0  0  3  0  0  0  0  0  0
  -17.6910  -29.7290   23.6770 C   0  0  0  0  0  3  0  0  0  0  0  0
  -16.6270  -28.9380   23.2100 C   0  0  0  0  0  3  0  0  0  0  0  0
  -16.8930  -27.7190   22.5620 C   0  0  0  0  0  3  0  0  0  0  0  0
  -26.3120  -31.5490   23.3930 C   0  0  0  0  0  3  0  0  0  0  0  0
  -26.9870  -30.5130   24.3720 C   0  0  1  0  0  0  0  0  0  0  0  0
  -26.0550  -30.0330   25.5090 C   0  0  0  0  0  1  0  0  0  0  0  0
  -27.4700  -29.2630   23.6000 C   0  0  0  0  0  1  0  0  0  0  0  0
  -28.2430  -31.1440   25.0170 C   0  0  0  0  0  1  0  0  0  0  0  0
  -26.0900  -32.8330   24.0710 N   0  0  0  0  0  0  0  0  0  0  0  0
  -26.5030  -34.0200   23.6080 C   0  0  0  0  0  0  0  0  0  0  0  0
  -27.1810  -34.1380   22.5830 O   0  0  0  0  0  0  0  0  0  0  0  0
  -25.4950  -32.8170   24.8870 H   0  0  0  0  0  0  0  0  0  0  0  0
  -24.9350  -35.9830   23.7010 C   0  0  0  0  0  1  0  0  0  0  0  0
  -26.1020  -35.2760   24.4070 C   0  0  0  0  0  3  0  0  0  0  0  0
  -28.2530  -35.7240   25.5020 C   0  0  0  0  0  1  0  0  0  0  0  0
  -27.2160  -36.2270   24.6060 N   0  0  0  0  0  0  0  0  0  0  0  0
  -26.8750  -37.1100   24.9790 H   0  0  0  0  0  0  0  0  0  0  0  0
  1 50  1  0
  1 49  1  0
  2 14  1  0
  3  8  1  0
  4  5  1  0
  4  3  1  0
  6  5  1  0
  6 20  1  0
  6  7  1  0
  8  2  1  0
  8  7  1  0
  9  2  2  0
 10 12  1  0
 10 14  1  0
 12 15  1  0
 13 11  1  0
 14 11  1  0
 15 13  1  0
 15  1  1  0
 15 16  1  6
 17 18  2  0
 18 37  1  0
 19 22  1  0
 19 18  1  0
 20 21  1  0
 20 17  1  0
 21 19  2  0
 22 23  1  0
 23 24  2  0
 25 28  1  0
 25 24  1  0
 26 25  2  0
 27 26  1  0
 27 22  2  0
 28 29  1  0
 29 34  2  0
 29 30  1  0
 30 31  2  0
 31 32  1  0
 32 36  1  0
 33 32  2  0
 34 33  1  0
 35 34  1  0
 37 38  1  0
 38 40  1  0
 38 41  1  0
 39 37  2  0
 42 17  1  0
 42 43  1  0
 44 42  1  0
 45 46  1  0
 47 45  1  0
 48 46  1  0
 49 47  1  0
 49 48  1  0
 52 51  1  0
 53 51  1  0
 54 56  1  0
 54 52  1  0
 55 54  1  0
 55 50  1  0
 55 53  1  0
 57 59  1  0
 57 56  1  0
 58 69  2  0
 59 64  1  0
 60 68  1  0
 60 70  1  0
 61 67  1  0
 61 63  1  0
 62 68  1  0
 63 62  1  0
 64 63  2  0
 65 66  1  0
 65 59  2  0
 66 61  2  0
 67 60  1  0
 68 58  1  0
 70 72  2  0
 71 70  1  0
 73 71  1  0
 74 83  2  0
 74 79  1  0
 75 71  1  0
 75 79  1  0
 76 75  1  0
 77 78  1  0
 77 76  1  0
 78 74  1  0
 79 80  2  0
 80 81  1  0
 82 81  2  0
 83 82  1  0
 84 58  1  0
 84 89  1  0
 84 85  1  0
 85 88  1  1
 85 86  1  0
 87 85  1  0
 89 92  1  0
 90 89  1  0
 90 94  1  0
 91 90  2  0
 94 93  1  0
 94 96  1  0
 96 97  1  0
 96 95  1  0
M  ISO  4   2 100  14 100  56 101  57 101
M  END
>  <TORSDO>  (35) 
F 20

>  <SCORE>  (35) 
-9.494

>  <name>  (35) 
35

>  <ligand_id>  (35) 
35

>  <original_smiles>  (35) 
[H]c1c([H])c([H])c2c(c1[H])C([H])([H])C([H])([H])C([H])([H])C2([H])N([H])C(=O)C1([H])N(C(=O)C([H])(N([H])C(=O)C([H])(N([H])C([H])([H])[H])C([H])([H])[H])C(C([H])([H])[H])(C([H])([H])[H])C([H])([H])[H])C([H])([H])c2c([H])c(OC([H])([H])C3([H])N(C([H])([H])C([H])(C4([H])C([H])([H])C([H])([H])C([H])([H])C4([H])[H])[N+]4([H])C([H])([H])C([H])([H])N(C(=O)N5C([H])([H])C([H])([H])C([H])([H])C([H])(n6nc(-c7c([H])c([H])c(Oc8c([H])c([H])c(F)c([H])c8F)c([H])c7[H])c(C(=O)N([H])[H])c6N([H])[H])C5([H])[H])C([H])([H])C4([H])[H])C([H])([H])C([H])([H])C3([H])[H])c([H])c([H])c2C1([H])[H]

>  <smiles>  (35) 
[H]c1c([H])c([H])c2c(c1[H])C([H])([H])C([H])([H])C([H])([H])C2([H])N([H])C(=O)C1([H])N(C(=O)C([H])(N([H])C(=O)C([H])(N([H])C([H])([H])[H])C([H])([H])[H])C(C([H])([H])[H])(C([H])([H])[H])C([H])([H])[H])C([H])([H])c2c([H])c(OC([H])([H])C3([H])N(C([H])([H])C([H])(C4([H])C([H])([H])C([H])([H])C([H])([H])C4([H])[H])[N+]4([H])C([H])([H])C([H])([H])N(C(=O)N5C([H])([H])C([H])([H])C([H])([H])C([H])(n6nc(-c7c([H])c([H])c(Oc8c([H])c([H])c(F)c([H])c8F)c([H])c7[H])c(C(=O)N([H])[H])c6N([H])[H])C5([H])[H])C([H])([H])C4([H])[H])C([H])([H])C([H])([H])C3([H])[H])c([H])c([H])c2C1([H])[H]

$$$$
36:0:0
     RDKit          3D

 90 98  0  0  1  0  0  0  0  0999 V2000
  -30.9190  -20.8050   19.8470 C   0  0  0  0  0  1  0  0  0  0  0  0
  -29.5980  -20.5450   20.4640 N   0  0  2  0  0  4  0  0  0  0  0  0
  -29.7800  -20.6100   21.4540 H   0  0  0  0  0  0  0  0  0  0  0  0
  -30.5230  -14.9870   20.5120 C   0  0  0  0  0  0  0  0  0  0  0  0
  -30.4150  -12.6020   19.6700 C   0  0  0  0  0  2  0  0  0  0  0  0
  -29.5250  -12.4840   18.4110 C   0  0  0  0  0  2  0  0  0  0  0  0
  -28.0420  -12.3130   18.8020 C   0  0  0  0  0  2  0  0  0  0  0  0
  -27.5910  -13.2760   19.9340 C   0  0  0  0  0  3  0  0  0  0  0  0
  -28.6180  -13.3570   21.0820 C   0  0  0  0  0  2  0  0  0  0  0  0
  -29.9020  -13.7400   20.4790 N   0  0  0  0  0  0  0  0  0  0  0  0
  -31.7570  -15.0020   20.4570 O   0  0  0  0  0  0  0  0  0  0  0  0
  -28.6340  -18.7350   18.8840 C   0  0  0  0  0  0  0  0  0  0  0  0
  -28.1700  -17.3010   18.6510 C   0  0  0  0  0  2  0  0  0  0  0  0
  -29.3240  -16.3000   18.8780 C   0  0  0  0  0  2  0  0  0  0  0  0
  -30.1470  -17.6850   20.6860 C   0  0  0  0  0  2  0  0  0  0  0  0
  -29.1640  -19.0100   20.2980 C   0  0  0  0  0  3  0  0  0  0  0  0
  -29.7860  -16.1980   20.2810 N   0  0  0  0  0  0  0  0  0  0  0  0
  -28.6000  -19.5510   17.9590 O   0  0  0  0  0  0  0  0  0  0  0  0
  -25.1970  -13.8780   20.5930 C   0  0  0  0  0  0  0  0  0  0  0  0
  -24.1160  -13.1130   20.9290 C   0  0  0  0  0  0  0  0  0  0  0  0
  -24.5750  -11.7600   20.9320 C   0  0  0  0  0  0  0  0  0  0  0  0
  -26.2420  -12.9910   20.4010 N   0  0  0  0  0  0  0  0  0  0  0  0
  -25.8770  -11.7130   20.6730 N   0  0  0  0  0  0  0  0  0  0  0  0
  -23.8380  -10.5040   21.1070 C   0  0  0  0  0  0  0  0  0  0  0  0
  -24.2490   -9.5330   22.0470 C   0  0  0  0  0  3  0  0  0  0  0  0
  -23.5120   -8.3420   22.2120 C   0  0  0  0  0  3  0  0  0  0  0  0
  -22.3500   -8.1130   21.4380 C   0  0  0  0  0  0  0  0  0  0  0  0
  -21.9590   -9.0730   20.4870 C   0  0  0  0  0  3  0  0  0  0  0  0
  -22.6970  -10.2550   20.3190 C   0  0  0  0  0  3  0  0  0  0  0  0
  -21.5850   -6.9740   21.5140 O   0  0  0  0  0  0  0  0  0  0  0  0
  -21.5290   -6.2210   22.6580 C   0  0  0  0  0  0  0  0  0  0  0  0
  -21.1160   -6.7680   23.8920 C   0  0  0  0  0  3  0  0  0  0  0  0
  -21.0070   -5.9420   25.0280 C   0  0  0  0  0  3  0  0  0  0  0  0
  -21.2990   -4.5680   24.9310 C   0  0  0  0  0  0  0  0  0  0  0  0
  -21.7050   -4.0190   23.7010 C   0  0  0  0  0  3  0  0  0  0  0  0
  -21.8160   -4.8440   22.5670 C   0  0  0  0  0  0  0  0  0  0  0  0
  -22.1870   -4.3060   21.3800 F   0  0  0  0  0  0  0  0  0  0  0  0
  -21.1860   -3.7720   26.0190 F   0  0  0  0  0  0  0  0  0  0  0  0
  -22.7120  -13.6010   21.1370 C   0  0  0  0  0  0  0  0  0  0  0  0
  -21.9490  -12.9200   21.9850 N   0  0  0  0  0  0  0  0  0  0  0  0
  -22.3010  -14.6200   20.5860 O   0  0  0  0  0  0  0  0  0  0  0  0
  -22.2950  -12.0940   22.4520 H   0  0  0  0  0  0  0  0  0  0  0  0
  -21.0060  -13.2280   22.1700 H   0  0  0  0  0  0  0  0  0  0  0  0
  -25.3740  -15.2470   20.4070 N   0  0  0  0  0  0  0  0  0  0  0  0
  -24.6100  -15.9080   20.4920 H   0  0  0  0  0  0  0  0  0  0  0  0
  -26.2490  -15.6750   20.1370 H   0  0  0  0  0  0  0  0  0  0  0  0
  -28.6080  -21.7700   20.2010 C   0  0  0  0  0  2  0  0  0  0  0  0
  -28.9950  -23.3960   20.4540 C   0  0  0  0  0  3  0  0  0  0  0  0
  -27.9780  -24.6940   20.1180 C   0  0  0  0  0  3  0  0  0  0  0  0
  -28.2500  -26.2140   20.2910 O   0  0  0  0  0  0  0  0  0  0  0  0
  -24.6360  -31.9000   23.2430 C   0  0  0  0  0  0  0  0  0  0  0  0
  -27.1910  -27.1880   20.2160 C   0  0  0  0  0  0  0  0  0  0  0  0
  -23.4240  -30.5040   21.6130 C   0  0  0  0  0  3  0  0  0  0  0  0
  -24.8620  -28.9260   20.1840 C   0  0  0  0  0  0  0  0  0  0  0  0
  -25.9760  -30.7700   21.4320 C   0  0  0  0  0  2  0  0  0  0  0  0
  -26.0430  -29.3770   20.7850 C   0  0  0  0  0  0  0  0  0  0  0  0
  -27.2090  -28.5240   20.7830 C   0  0  0  0  0  3  0  0  0  0  0  0
  -25.9810  -26.8360   19.5750 C   0  0  0  0  0  3  0  0  0  0  0  0
  -24.8430  -27.6690   19.5640 C   0  0  0  0  0  3  0  0  0  0  0  0
  -23.6360  -29.8240   20.2340 C   0  0  0  0  0  2  0  0  0  0  0  0
  -24.6990  -31.0790   22.1510 N   0  0  0  0  0  0  0  0  0  0  0  0
  -23.5540  -32.1880   23.7770 O   0  0  0  0  0  0  0  0  0  0  0  0
  -22.7490  -29.5000   22.5810 C   0  0  0  0  0  0  0  0  0  0  0  0
  -21.4200  -29.3320   22.4620 N   0  0  0  0  0  0  0  0  0  0  0  0
  -23.4240  -28.8760   23.4030 O   0  0  0  0  0  0  0  0  0  0  0  0
  -20.9320  -29.8880   21.7740 H   0  0  0  0  0  0  0  0  0  0  0  0
  -18.0410  -28.1350   22.9770 C   0  0  0  0  0  0  0  0  0  0  0  0
  -20.6000  -28.4010   23.2410 C   0  0  0  0  0  3  0  0  0  0  0  0
  -20.7020  -26.9630   22.6790 C   0  0  0  0  0  2  0  0  0  0  0  0
  -19.6020  -26.6310   21.6680 C   0  0  0  0  0  2  0  0  0  0  0  0
  -18.2190  -26.7800   22.3090 C   0  0  0  0  0  2  0  0  0  0  0  0
  -19.1590  -28.9010   23.3990 C   0  0  0  0  0  0  0  0  0  0  0  0
  -18.9370  -30.1680   23.9840 C   0  0  0  0  0  3  0  0  0  0  0  0
  -17.6310  -30.6670   24.1470 C   0  0  0  0  0  3  0  0  0  0  0  0
  -16.5280  -29.8980   23.7390 C   0  0  0  0  0  3  0  0  0  0  0  0
  -16.7330  -28.6330   23.1600 C   0  0  0  0  0  3  0  0  0  0  0  0
  -25.9190  -32.5340   23.8620 C   0  0  0  0  0  3  0  0  0  0  0  0
  -26.4400  -31.7620   25.1360 C   0  0  1  0  0  0  0  0  0  0  0  0
  -25.3530  -31.5300   26.2110 C   0  0  0  0  0  1  0  0  0  0  0  0
  -27.0150  -30.3810   24.7450 C   0  0  0  0  0  1  0  0  0  0  0  0
  -27.5970  -32.5530   25.7900 C   0  0  0  0  0  1  0  0  0  0  0  0
  -25.6110  -33.9330   24.1990 N   0  0  0  0  0  0  0  0  0  0  0  0
  -25.9280  -34.9900   23.4400 C   0  0  0  0  0  0  0  0  0  0  0  0
  -26.5780  -34.8910   22.3960 O   0  0  0  0  0  0  0  0  0  0  0  0
  -25.0330  -34.0840   25.0130 H   0  0  0  0  0  0  0  0  0  0  0  0
  -24.1840  -36.7780   23.1380 C   0  0  0  0  0  1  0  0  0  0  0  0
  -25.4490  -36.3770   23.9130 C   0  0  0  0  0  3  0  0  0  0  0  0
  -27.6050  -37.2690   24.6820 C   0  0  0  0  0  1  0  0  0  0  0  0
  -26.4740  -37.4350   23.7720 N   0  0  0  0  0  0  0  0  0  0  0  0
  -26.0690  -38.3530   23.9320 H   0  0  0  0  0  0  0  0  0  0  0  0
  1  2  1  0
  2  3  1  1
  5 10  1  0
  6  7  1  0
  6  5  1  0
  8  7  1  0
  8 22  1  0
  8  9  1  0
 10  4  1  0
 10  9  1  0
 11  4  2  0
 12 16  1  0
 13 14  1  0
 13 12  1  0
 14 17  1  0
 16  2  1  0
 16 15  1  0
 17  4  1  0
 17 15  1  0
 18 12  2  0
 19 20  2  0
 20 21  1  0
 20 39  1  0
 21 24  1  0
 22 19  1  0
 22 23  1  0
 23 21  2  0
 24 25  1  0
 25 26  2  0
 27 30  1  0
 27 26  1  0
 28 27  2  0
 29 28  1  0
 29 24  2  0
 30 31  1  0
 31 32  1  0
 32 33  2  0
 34 33  1  0
 34 38  1  0
 35 34  2  0
 36 31  2  0
 36 35  1  0
 37 36  1  0
 39 40  1  0
 40 43  1  0
 40 42  1  0
 41 39  2  0
 44 45  1  0
 44 19  1  0
 46 44  1  0
 47 48  1  0
 47  2  1  0
 49 50  1  0
 49 48  2  0
 51 62  2  0
 52 50  1  0
 52 57  1  0
 53 61  1  0
 53 63  1  0
 54 60  1  0
 54 56  1  0
 55 61  1  0
 56 55  1  0
 57 56  2  0
 58 52  2  0
 59 58  1  0
 59 54  2  0
 60 53  1  0
 61 51  1  0
 63 65  2  0
 64 63  1  0
 66 64  1  0
 67 76  2  0
 67 72  1  0
 68 64  1  0
 68 72  1  0
 69 68  1  0
 70 71  1  0
 70 69  1  0
 71 67  1  0
 72 73  2  0
 73 74  1  0
 75 74  2  0
 76 75  1  0
 77 51  1  0
 77 82  1  0
 77 78  1  0
 78 81  1  1
 78 79  1  0
 80 78  1  0
 82 85  1  0
 83 87  1  0
 83 82  1  0
 84 83  2  0
 87 86  1  0
 89 87  1  0
 89 90  1  0
 89 88  1  0
M  ISO  4   4 100  17 100  49 101  50 101
M  END
>  <TORSDO>  (36) 
F 19

>  <SCORE>  (36) 
-14.077

>  <name>  (36) 
36

>  <ligand_id>  (36) 
36

>  <original_smiles>  (36) 
[H]c1c([H])c([H])c2c(c1[H])C([H])([H])C([H])([H])C([H])([H])C2([H])N([H])C(=O)C1([H])N(C(=O)C([H])(N([H])C(=O)C([H])(N([H])C([H])([H])[H])C([H])([H])[H])C(C([H])([H])[H])(C([H])([H])[H])C([H])([H])[H])C([H])([H])c2c([H])c(OC([H])([H])C([H])([H])C([H])([H])[N+]([H])(C([H])([H])[H])C3([H])C(=O)C([H])([H])C([H])([H])N(C(=O)N4C([H])([H])C([H])([H])C([H])([H])C([H])(n5nc(-c6c([H])c([H])c(Oc7c([H])c([H])c(F)c([H])c7F)c([H])c6[H])c(C(=O)N([H])[H])c5N([H])[H])C4([H])[H])C3([H])[H])c([H])c([H])c2C1([H])[H]

>  <smiles>  (36) 
[H]c1c([H])c([H])c2c(c1[H])C([H])([H])C([H])([H])C([H])([H])C2([H])N([H])C(=O)C1([H])N(C(=O)C([H])(N([H])C(=O)C([H])(N([H])C([H])([H])[H])C([H])([H])[H])C(C([H])([H])[H])(C([H])([H])[H])C([H])([H])[H])C([H])([H])c2c([H])c(OC([H])([H])C([H])([H])C([H])([H])[N+]([H])(C([H])([H])[H])C3([H])C(=O)C([H])([H])C([H])([H])N(C(=O)N4C([H])([H])C([H])([H])C([H])([H])C([H])(n5nc(-c6c([H])c([H])c(Oc7c([H])c([H])c(F)c([H])c7F)c([H])c6[H])c(C(=O)N([H])[H])c5N([H])[H])C4([H])[H])C3([H])[H])c([H])c([H])c2C1([H])[H]

$$$$
37:0:0
     RDKit          3D

 89 97  0  0  1  0  0  0  0  0999 V2000
  -29.7570  -21.1560   20.5160 C   0  0  0  0  0  3  0  0  0  0  0  0
  -29.2070  -19.7630   20.8160 N   0  0  0  0  0  4  0  0  0  0  0  0
  -28.8900  -19.7580   21.7720 H   0  0  0  0  0  0  0  0  0  0  0  0
  -28.3880  -19.6480   20.2430 H   0  0  0  0  0  0  0  0  0  0  0  0
  -30.0630  -18.5090   20.6160 C   0  0  0  0  0  2  0  0  0  0  0  0
  -30.5690  -14.7750   20.4390 C   0  0  0  0  0  0  0  0  0  0  0  0
  -30.4110  -12.4760   19.4950 C   0  0  0  0  0  2  0  0  0  0  0  0
  -29.4850  -12.5010   18.2600 C   0  0  0  0  0  2  0  0  0  0  0  0
  -28.0000  -12.3790   18.6690 C   0  0  0  0  0  2  0  0  0  0  0  0
  -27.6090  -13.2800   19.8730 C   0  0  0  0  0  3  0  0  0  0  0  0
  -28.6610  -13.2140   21.0020 C   0  0  0  0  0  2  0  0  0  0  0  0
  -29.9620  -13.5430   20.4090 N   0  0  0  0  0  0  0  0  0  0  0  0
  -31.7880  -14.8820   20.2780 O   0  0  0  0  0  0  0  0  0  0  0  0
  -28.3820  -17.0840   19.2250 C   0  0  0  0  0  2  0  0  0  0  0  0
  -29.5100  -16.2220   18.6730 C   0  0  0  0  0  2  0  0  0  0  0  0
  -29.1930  -17.1750   20.5180 C   0  0  0  0  0  3  0  0  0  0  0  0
  -29.7480  -15.8240   20.0620 N   0  0  0  0  0  0  0  0  0  0  0  0
  -25.2100  -13.8780   20.5700 C   0  0  0  0  0  0  0  0  0  0  0  0
  -24.1370  -13.1050   20.9200 C   0  0  0  0  0  0  0  0  0  0  0  0
  -24.6040  -11.7560   20.9020 C   0  0  0  0  0  0  0  0  0  0  0  0
  -26.2590  -13.0000   20.3510 N   0  0  0  0  0  0  0  0  0  0  0  0
  -25.9000  -11.7180   20.6180 N   0  0  0  0  0  0  0  0  0  0  0  0
  -23.8760  -10.4940   21.0830 C   0  0  0  0  0  0  0  0  0  0  0  0
  -24.3040   -9.5260   22.0180 C   0  0  0  0  0  3  0  0  0  0  0  0
  -23.5780   -8.3270   22.1870 C   0  0  0  0  0  3  0  0  0  0  0  0
  -22.4120   -8.0900   21.4230 C   0  0  0  0  0  0  0  0  0  0  0  0
  -22.0040   -9.0470   20.4770 C   0  0  0  0  0  3  0  0  0  0  0  0
  -22.7290  -10.2370   20.3060 C   0  0  0  0  0  3  0  0  0  0  0  0
  -21.6580   -6.9440   21.5020 O   0  0  0  0  0  0  0  0  0  0  0  0
  -21.6060   -6.1960   22.6510 C   0  0  0  0  0  0  0  0  0  0  0  0
  -21.1700   -6.7430   23.8780 C   0  0  0  0  0  3  0  0  0  0  0  0
  -21.0650   -5.9200   25.0170 C   0  0  0  0  0  3  0  0  0  0  0  0
  -21.3880   -4.5520   24.9310 C   0  0  0  0  0  0  0  0  0  0  0  0
  -21.8180   -4.0050   23.7090 C   0  0  0  0  0  3  0  0  0  0  0  0
  -21.9240   -4.8250   22.5710 C   0  0  0  0  0  0  0  0  0  0  0  0
  -22.3190   -4.2890   21.3920 F   0  0  0  0  0  0  0  0  0  0  0  0
  -21.2800   -3.7610   26.0230 F   0  0  0  0  0  0  0  0  0  0  0  0
  -22.7360  -13.5840   21.1630 C   0  0  0  0  0  0  0  0  0  0  0  0
  -21.9940  -12.8930   22.0220 N   0  0  0  0  0  0  0  0  0  0  0  0
  -22.3060  -14.6040   20.6300 O   0  0  0  0  0  0  0  0  0  0  0  0
  -22.3540  -12.0670   22.4780 H   0  0  0  0  0  0  0  0  0  0  0  0
  -21.0530  -13.1980   22.2290 H   0  0  0  0  0  0  0  0  0  0  0  0
  -25.3690  -15.2490   20.4010 N   0  0  0  0  0  0  0  0  0  0  0  0
  -24.6010  -15.9010   20.5150 H   0  0  0  0  0  0  0  0  0  0  0  0
  -26.2380  -15.6940   20.1390 H   0  0  0  0  0  0  0  0  0  0  0  0
  -28.6960  -22.3670   20.5290 C   0  0  0  0  0  3  0  0  0  0  0  0
  -29.1660  -23.9000   20.4010 C   0  0  0  0  0  3  0  0  0  0  0  0
  -28.0340  -25.0030   20.1290 C   0  0  0  0  0  3  0  0  0  0  0  0
  -28.2930  -26.4700   20.2120 O   0  0  0  0  0  0  0  0  0  0  0  0
  -24.5860  -31.8940   23.2540 C   0  0  0  0  0  0  0  0  0  0  0  0
  -27.1780  -27.3340   20.1660 C   0  0  0  0  0  0  0  0  0  0  0  0
  -23.3710  -30.4990   21.6200 C   0  0  0  0  0  3  0  0  0  0  0  0
  -24.8130  -28.9560   20.1780 C   0  0  0  0  0  0  0  0  0  0  0  0
  -25.9100  -30.8150   21.4210 C   0  0  0  0  0  2  0  0  0  0  0  0
  -25.9870  -29.4380   20.7700 C   0  0  0  0  0  0  0  0  0  0  0  0
  -27.1720  -28.6390   20.7550 C   0  0  0  0  0  3  0  0  0  0  0  0
  -25.9790  -26.9150   19.5420 C   0  0  0  0  0  3  0  0  0  0  0  0
  -24.8120  -27.7020   19.5520 C   0  0  0  0  0  3  0  0  0  0  0  0
  -23.5760  -29.8280   20.2370 C   0  0  0  0  0  2  0  0  0  0  0  0
  -24.6420  -31.0860   22.1550 N   0  0  0  0  0  0  0  0  0  0  0  0
  -23.5060  -32.1710   23.7960 O   0  0  0  0  0  0  0  0  0  0  0  0
  -22.7150  -29.4800   22.5830 C   0  0  0  0  0  0  0  0  0  0  0  0
  -21.3890  -29.2970   22.4590 N   0  0  0  0  0  0  0  0  0  0  0  0
  -23.3970  -28.8580   23.4010 O   0  0  0  0  0  0  0  0  0  0  0  0
  -20.8980  -29.8490   21.7690 H   0  0  0  0  0  0  0  0  0  0  0  0
  -18.0180  -28.0820   22.9600 C   0  0  0  0  0  0  0  0  0  0  0  0
  -20.5740  -28.3580   23.2320 C   0  0  0  0  0  3  0  0  0  0  0  0
  -20.6860  -26.9250   22.6620 C   0  0  0  0  0  2  0  0  0  0  0  0
  -19.5880  -26.5930   21.6480 C   0  0  0  0  0  2  0  0  0  0  0  0
  -18.2040  -26.7310   22.2900 C   0  0  0  0  0  2  0  0  0  0  0  0
  -19.1310  -28.8530   23.3880 C   0  0  0  0  0  0  0  0  0  0  0  0
  -18.9040  -30.1170   23.9740 C   0  0  0  0  0  3  0  0  0  0  0  0
  -17.5960  -30.6100   24.1370 C   0  0  0  0  0  3  0  0  0  0  0  0
  -16.4970  -29.8370   23.7260 C   0  0  0  0  0  3  0  0  0  0  0  0
  -16.7090  -28.5750   23.1420 C   0  0  0  0  0  3  0  0  0  0  0  0
  -25.8720  -32.5260   23.8680 C   0  0  0  0  0  3  0  0  0  0  0  0
  -25.5680  -33.9250   24.1990 N   0  0  0  0  0  0  0  0  0  0  0  0
  -25.8840  -34.9760   23.4310 C   0  0  0  0  0  0  0  0  0  0  0  0
  -26.5350  -34.8700   22.3880 O   0  0  0  0  0  0  0  0  0  0  0  0
  -24.9880  -34.0830   25.0110 H   0  0  0  0  0  0  0  0  0  0  0  0
  -24.1430  -36.7620   23.1120 C   0  0  0  0  0  1  0  0  0  0  0  0
  -25.4050  -36.3660   23.8940 C   0  0  0  0  0  3  0  0  0  0  0  0
  -27.5570  -37.2580   24.6670 C   0  0  0  0  0  1  0  0  0  0  0  0
  -26.4310  -37.4220   23.7520 N   0  0  0  0  0  0  0  0  0  0  0  0
  -26.0260  -38.3400   23.9100 H   0  0  0  0  0  0  0  0  0  0  0  0
  -26.3950  -31.7550   25.1420 C   0  0  1  0  0  0  0  0  0  0  0  0
  -25.3070  -31.5200   26.2170 C   0  0  0  0  0  1  0  0  0  0  0  0
  -26.9700  -30.3750   24.7480 C   0  0  0  0  0  1  0  0  0  0  0  0
  -27.5530  -32.5450   25.7950 C   0  0  0  0  0  1  0  0  0  0  0  0
  1 46  2  0
  1  2  1  0
  2  3  1  0
  4  2  1  0
  5  2  1  0
  7 12  1  0
  8  9  1  0
  8  7  1  0
 10  9  1  0
 10 21  1  0
 10 11  1  0
 12  6  1  0
 12 11  1  0
 13  6  2  0
 14 16  1  0
 15 14  1  0
 15 17  1  0
 16  5  1  0
 17  6  1  0
 17 16  1  0
 18 19  2  0
 19 38  1  0
 20 19  1  0
 20 23  1  0
 21 18  1  0
 21 22  1  0
 22 20  2  0
 23 24  1  0
 24 25  2  0
 26 29  1  0
 26 25  1  0
 27 26  2  0
 28 27  1  0
 28 23  2  0
 29 30  1  0
 30 31  1  0
 31 32  2  0
 33 32  1  0
 33 37  1  0
 34 33  2  0
 35 30  2  0
 35 34  1  0
 36 35  1  0
 38 39  1  0
 39 42  1  0
 39 41  1  0
 40 38  2  0
 43 44  1  0
 43 18  1  0
 45 43  1  0
 47 46  1  0
 48 49  1  0
 48 47  2  0
 50 61  2  0
 51 49  1  0
 51 56  1  0
 52 60  1  0
 52 62  1  0
 53 59  1  0
 53 55  1  0
 54 60  1  0
 55 54  1  0
 56 55  2  0
 57 58  1  0
 57 51  2  0
 58 53  2  0
 59 52  1  0
 60 50  1  0
 62 64  2  0
 63 62  1  0
 65 63  1  0
 66 75  2  0
 66 71  1  0
 67 63  1  0
 67 71  1  0
 68 67  1  0
 69 70  1  0
 69 68  1  0
 70 66  1  0
 71 72  2  0
 72 73  1  0
 74 73  2  0
 75 74  1  0
 76 50  1  0
 76 77  1  0
 76 86  1  0
 77 80  1  0
 78 82  1  0
 78 77  1  0
 79 78  2  0
 82 81  1  0
 84 82  1  0
 84 85  1  0
 84 83  1  0
 86 89  1  1
 86 87  1  0
 88 86  1  0
M  ISO  4   6 100  17 100  48 101  49 101
M  END
>  <TORSDO>  (37) 
F 21

>  <SCORE>  (37) 
-13.291

>  <name>  (37) 
37

>  <ligand_id>  (37) 
37

>  <original_smiles>  (37) 
[H]c1c([H])c([H])c2c(c1[H])C([H])([H])C([H])([H])C([H])([H])C2([H])N([H])C(=O)C1([H])N(C(=O)C([H])(N([H])C(=O)C([H])(N([H])C([H])([H])[H])C([H])([H])[H])C(C([H])([H])[H])(C([H])([H])[H])C([H])([H])[H])C([H])([H])c2c([H])c(OC([H])([H])C([H])([H])C([H])([H])C([H])([H])[N+]([H])([H])C([H])([H])C3([H])N(C(=O)N4C([H])([H])C([H])([H])C([H])([H])C([H])(n5nc(-c6c([H])c([H])c(Oc7c([H])c([H])c(F)c([H])c7F)c([H])c6[H])c(C(=O)N([H])[H])c5N([H])[H])C4([H])[H])C([H])([H])C3([H])[H])c([H])c([H])c2C1([H])[H]

>  <smiles>  (37) 
[H]c1c([H])c([H])c2c(c1[H])C([H])([H])C([H])([H])C([H])([H])C2([H])N([H])C(=O)C1([H])N(C(=O)C([H])(N([H])C(=O)C([H])(N([H])C([H])([H])[H])C([H])([H])[H])C(C([H])([H])[H])(C([H])([H])[H])C([H])([H])[H])C([H])([H])c2c([H])c(OC([H])([H])C([H])([H])C([H])([H])C([H])([H])[N+]([H])([H])C([H])([H])C3([H])N(C(=O)N4C([H])([H])C([H])([H])C([H])([H])C([H])(n5nc(-c6c([H])c([H])c(Oc7c([H])c([H])c(F)c([H])c7F)c([H])c6[H])c(C(=O)N([H])[H])c5N([H])[H])C4([H])[H])C([H])([H])C3([H])[H])c([H])c([H])c2C1([H])[H]

$$$$
38:0:0
     RDKit          3D

 90 98  0  0  1  0  0  0  0  0999 V2000
  -29.1390  -20.9330   19.7090 C   0  0  0  0  0  0  0  0  0  0  0  0
  -28.5870  -21.0580   18.2900 C   0  0  0  0  0  2  0  0  0  0  0  0
  -28.3200  -19.7090   17.5950 C   0  0  0  0  0  2  0  0  0  0  0  0
  -29.4110  -18.6780   17.9150 C   0  0  0  0  0  2  0  0  0  0  0  0
  -29.4990  -18.4590   19.4370 C   0  0  0  0  0  3  0  0  0  0  0  0
  -29.6400  -19.7970   20.1530 N   0  0  0  0  0  0  0  0  0  0  0  0
  -29.0040  -22.2680   20.5840 C   0  0  0  0  0  2  0  0  0  0  0  0
  -29.0160  -23.7620   19.9530 C   0  0  0  0  0  3  0  0  0  0  0  0
  -28.5040  -24.9820   20.8800 C   0  0  0  0  0  3  0  0  0  0  0  0
  -28.6610  -26.4220   20.5070 O   0  0  0  0  0  0  0  0  0  0  0  0
  -24.7710  -31.8430   23.3850 C   0  0  0  0  0  0  0  0  0  0  0  0
  -27.5260  -27.2560   20.4800 C   0  0  0  0  0  0  0  0  0  0  0  0
  -23.6300  -30.3990   21.7370 C   0  0  0  0  0  3  0  0  0  0  0  0
  -25.1390  -28.8360   20.3810 C   0  0  0  0  0  0  0  0  0  0  0  0
  -26.1680  -30.7480   21.6110 C   0  0  0  0  0  2  0  0  0  0  0  0
  -26.2860  -29.3550   20.9960 C   0  0  0  0  0  0  0  0  0  0  0  0
  -27.4850  -28.5790   21.0290 C   0  0  0  0  0  3  0  0  0  0  0  0
  -26.3570  -26.7880   19.8480 C   0  0  0  0  0  3  0  0  0  0  0  0
  -25.1770  -27.5590   19.7980 C   0  0  0  0  0  3  0  0  0  0  0  0
  -23.8900  -29.6980   20.3780 C   0  0  0  0  0  2  0  0  0  0  0  0
  -24.8740  -31.0160   22.3010 N   0  0  0  0  0  0  0  0  0  0  0  0
  -23.6700  -32.1140   23.8860 O   0  0  0  0  0  0  0  0  0  0  0  0
  -22.9530  -29.3930   22.6980 C   0  0  0  0  0  0  0  0  0  0  0  0
  -21.6320  -29.2000   22.5430 N   0  0  0  0  0  0  0  0  0  0  0  0
  -23.6170  -28.7870   23.5430 O   0  0  0  0  0  0  0  0  0  0  0  0
  -21.1550  -29.7410   21.8340 H   0  0  0  0  0  0  0  0  0  0  0  0
  -18.2540  -27.9820   22.9820 C   0  0  0  0  0  0  0  0  0  0  0  0
  -20.8030  -28.2670   23.3090 C   0  0  0  0  0  3  0  0  0  0  0  0
  -20.9320  -26.8290   22.7540 C   0  0  0  0  0  2  0  0  0  0  0  0
  -19.8560  -26.4830   21.7200 C   0  0  0  0  0  2  0  0  0  0  0  0
  -18.4580  -26.6250   22.3310 C   0  0  0  0  0  2  0  0  0  0  0  0
  -19.3570  -28.7600   23.4270 C   0  0  0  0  0  0  0  0  0  0  0  0
  -19.1130  -30.0280   23.9960 C   0  0  0  0  0  3  0  0  0  0  0  0
  -17.8000  -30.5190   24.1260 C   0  0  0  0  0  3  0  0  0  0  0  0
  -16.7130  -29.7390   23.6990 C   0  0  0  0  0  3  0  0  0  0  0  0
  -16.9400  -28.4720   23.1310 C   0  0  0  0  0  3  0  0  0  0  0  0
  -26.0290  -32.5030   24.0290 C   0  0  0  0  0  3  0  0  0  0  0  0
  -25.7020  -33.9100   24.3030 N   0  0  0  0  0  0  0  0  0  0  0  0
  -26.0480  -34.9390   23.5160 C   0  0  0  0  0  0  0  0  0  0  0  0
  -26.7450  -34.8040   22.5060 O   0  0  0  0  0  0  0  0  0  0  0  0
  -25.0860  -34.0890   25.0830 H   0  0  0  0  0  0  0  0  0  0  0  0
  -24.3180  -36.7070   23.0590 C   0  0  0  0  0  1  0  0  0  0  0  0
  -25.5420  -36.3390   23.9140 C   0  0  0  0  0  3  0  0  0  0  0  0
  -27.6540  -37.2630   24.7600 C   0  0  0  0  0  1  0  0  0  0  0  0
  -26.5710  -37.3960   23.7900 N   0  0  0  0  0  0  0  0  0  0  0  0
  -26.1550  -38.3160   23.9030 H   0  0  0  0  0  0  0  0  0  0  0  0
  -26.5020  -31.7770   25.3490 C   0  0  1  0  0  0  0  0  0  0  0  0
  -25.3690  -31.5610   26.3800 C   0  0  0  0  0  1  0  0  0  0  0  0
  -27.1120  -30.3950   25.0240 C   0  0  0  0  0  1  0  0  0  0  0  0
  -27.6150  -32.6060   26.0320 C   0  0  0  0  0  1  0  0  0  0  0  0
  -30.5810  -17.3180   19.8180 C   0  0  0  0  0  2  0  0  0  0  0  0
  -30.7760  -14.7260   19.6960 C   0  0  0  0  0  0  0  0  0  0  0  0
  -30.4390  -12.5070   18.5630 C   0  0  0  0  0  2  0  0  0  0  0  0
  -29.3630  -12.6280   17.4590 C   0  0  0  0  0  2  0  0  0  0  0  0
  -27.9390  -12.4610   18.0330 C   0  0  0  0  0  2  0  0  0  0  0  0
  -27.7300  -13.2740   19.3370 C   0  0  0  0  0  3  0  0  0  0  0  0
  -28.9010  -13.0240   20.3030 C   0  0  0  0  0  2  0  0  0  0  0  0
  -30.1210  -13.5010   19.6230 N   0  0  0  0  0  0  0  0  0  0  0  0
  -31.8730  -14.8250   19.1290 O   0  0  0  0  0  0  0  0  0  0  0  0
  -30.1280  -15.8890   20.1660 N   0  0  0  0  0  0  0  0  0  0  0  0
  -25.4660  -13.9020   20.3710 C   0  0  0  0  0  0  0  0  0  0  0  0
  -24.4250  -13.1390   20.8250 C   0  0  0  0  0  0  0  0  0  0  0  0
  -24.8300  -11.7780   20.6610 C   0  0  0  0  0  0  0  0  0  0  0  0
  -26.4390  -13.0040   19.9600 N   0  0  0  0  0  0  0  0  0  0  0  0
  -26.0710  -11.7200   20.1910 N   0  0  0  0  0  0  0  0  0  0  0  0
  -24.0880  -10.5290   20.8710 C   0  0  0  0  0  0  0  0  0  0  0  0
  -24.5510   -9.5370   21.7610 C   0  0  0  0  0  3  0  0  0  0  0  0
  -23.8110   -8.3500   21.9600 C   0  0  0  0  0  3  0  0  0  0  0  0
  -22.5940   -8.1510   21.2680 C   0  0  0  0  0  0  0  0  0  0  0  0
  -22.1490   -9.1320   20.3660 C   0  0  0  0  0  3  0  0  0  0  0  0
  -22.8910  -10.3090   20.1650 C   0  0  0  0  0  3  0  0  0  0  0  0
  -21.8220   -7.0170   21.3740 O   0  0  0  0  0  0  0  0  0  0  0  0
  -21.7500   -6.3010   22.5420 C   0  0  0  0  0  0  0  0  0  0  0  0
  -21.3240   -6.8900   23.7510 C   0  0  0  0  0  3  0  0  0  0  0  0
  -21.1970   -6.1020   24.9120 C   0  0  0  0  0  3  0  0  0  0  0  0
  -21.4900   -4.7260   24.8660 C   0  0  0  0  0  0  0  0  0  0  0  0
  -21.9110   -4.1370   23.6620 C   0  0  0  0  0  3  0  0  0  0  0  0
  -22.0390   -4.9220   22.5030 C   0  0  0  0  0  0  0  0  0  0  0  0
  -22.4260   -4.3440   21.3400 F   0  0  0  0  0  0  0  0  0  0  0  0
  -21.3600   -3.9670   25.9810 F   0  0  0  0  0  0  0  0  0  0  0  0
  -23.0910  -13.6420   21.2910 C   0  0  0  0  0  0  0  0  0  0  0  0
  -22.4560  -12.9310   22.2180 N   0  0  0  0  0  0  0  0  0  0  0  0
  -22.6230  -14.6980   20.8680 O   0  0  0  0  0  0  0  0  0  0  0  0
  -22.8520  -12.0770   22.5820 H   0  0  0  0  0  0  0  0  0  0  0  0
  -21.5630  -13.2500   22.5680 H   0  0  0  0  0  0  0  0  0  0  0  0
  -25.6610  -15.2750   20.2570 N   0  0  0  0  0  0  0  0  0  0  0  0
  -24.9450  -15.9480   20.5080 H   0  0  0  0  0  0  0  0  0  0  0  0
  -26.4900  -15.7070   19.8710 H   0  0  0  0  0  0  0  0  0  0  0  0
  -29.3840  -17.0130   22.4150 C   0  0  0  0  0  1  0  0  0  0  0  0
  -29.3480  -15.8220   21.4300 C   0  0  0  0  0  2  0  0  0  0  0  0
  1  6  2  0
  1  7  1  0
  2  1  1  0
  3  4  1  0
  3  2  1  0
  4  5  1  0
  5 51  1  0
  5  6  1  0
  8  7  1  0
  8  9  2  0
 10  9  1  0
 11 22  2  0
 12 10  1  0
 12 17  1  0
 13 21  1  0
 13 23  1  0
 14 16  1  0
 15 21  1  0
 16 17  2  0
 16 15  1  0
 18 12  2  0
 19 18  1  0
 19 14  2  0
 20 14  1  0
 20 13  1  0
 21 11  1  0
 23 25  2  0
 24 23  1  0
 26 24  1  0
 27 36  2  0
 27 32  1  0
 28 24  1  0
 28 32  1  0
 29 28  1  0
 30 31  1  0
 30 29  1  0
 31 27  1  0
 32 33  2  0
 33 34  1  0
 35 34  2  0
 36 35  1  0
 37 11  1  0
 37 38  1  0
 37 47  1  0
 38 41  1  0
 39 43  1  0
 39 38  1  0
 40 39  2  0
 43 42  1  0
 45 46  1  0
 45 43  1  0
 45 44  1  0
 47 50  1  1
 47 48  1  0
 49 47  1  0
 51 60  1  0
 52 60  1  0
 53 58  1  0
 54 55  1  0
 54 53  1  0
 56 55  1  0
 56 64  1  0
 56 57  1  0
 58 52  1  0
 58 57  1  0
 59 52  2  0
 60 90  1  0
 61 62  2  0
 62 81  1  0
 63 62  1  0
 63 66  1  0
 64 65  1  0
 64 61  1  0
 65 63  2  0
 66 67  1  0
 67 68  2  0
 69 72  1  0
 69 68  1  0
 70 69  2  0
 71 70  1  0
 71 66  2  0
 72 73  1  0
 73 74  1  0
 74 75  2  0
 76 75  1  0
 76 80  1  0
 77 76  2  0
 78 73  2  0
 78 77  1  0
 79 78  1  0
 81 82  1  0
 82 85  1  0
 82 84  1  0
 83 81  2  0
 86 61  1  0
 86 87  1  0
 88 86  1  0
 90 89  1  0
M  ISO  4   9 101  10 101  52 100  60 100
M  END
>  <TORSDO>  (38) 
F 21

>  <SCORE>  (38) 
-11.198

>  <name>  (38) 
38

>  <ligand_id>  (38) 
38

>  <original_smiles>  (38) 
[H]c1c([H])c([H])c2c(c1[H])C([H])([H])C([H])([H])C([H])([H])C2([H])N([H])C(=O)C1([H])N(C(=O)C([H])(N([H])C(=O)C([H])(N([H])C([H])([H])[H])C([H])([H])[H])C(C([H])([H])[H])(C([H])([H])[H])C([H])([H])[H])C([H])([H])c2c([H])c(OC([H])([H])C([H])([H])C([H])([H])C3=NC([H])(C([H])([H])N(C(=O)N4C([H])([H])C([H])([H])C([H])([H])C([H])(n5nc(-c6c([H])c([H])c(Oc7c([H])c([H])c(F)c([H])c7F)c([H])c6[H])c(C(=O)N([H])[H])c5N([H])[H])C4([H])[H])C([H])([H])C([H])([H])[H])C([H])([H])C([H])([H])C3([H])[H])c([H])c([H])c2C1([H])[H]

>  <smiles>  (38) 
[H]c1c([H])c([H])c2c(c1[H])C([H])([H])C([H])([H])C([H])([H])C2([H])N([H])C(=O)C1([H])N(C(=O)C([H])(N([H])C(=O)C([H])(N([H])C([H])([H])[H])C([H])([H])[H])C(C([H])([H])[H])(C([H])([H])[H])C([H])([H])[H])C([H])([H])c2c([H])c(OC([H])([H])C([H])([H])C([H])([H])C3=NC([H])(C([H])([H])N(C(=O)N4C([H])([H])C([H])([H])C([H])([H])C([H])(n5nc(-c6c([H])c([H])c(Oc7c([H])c([H])c(F)c([H])c7F)c([H])c6[H])c(C(=O)N([H])[H])c5N([H])[H])C4([H])[H])C([H])([H])C([H])([H])[H])C([H])([H])C([H])([H])C3([H])[H])c([H])c([H])c2C1([H])[H]

$$$$
39:0:0
     RDKit          3D

 90 98  0  0  1  0  0  0  0  0999 V2000
  -29.1880  -21.2670   21.1030 N   0  0  0  0  0  4  0  0  0  0  0  0
  -29.5930  -21.6210   21.9550 H   0  0  0  0  0  0  0  0  0  0  0  0
  -28.2700  -20.9390   21.3530 H   0  0  0  0  0  0  0  0  0  0  0  0
  -30.0710  -20.0730   20.7350 C   0  0  0  0  0  2  0  0  0  0  0  0
  -30.6190  -14.7630   20.3250 C   0  0  0  0  0  0  0  0  0  0  0  0
  -30.3700  -12.4740   19.3760 C   0  0  0  0  0  2  0  0  0  0  0  0
  -29.4270  -12.4990   18.1550 C   0  0  0  0  0  2  0  0  0  0  0  0
  -27.9540  -12.3650   18.5970 C   0  0  0  0  0  2  0  0  0  0  0  0
  -27.5780  -13.2600   19.8090 C   0  0  0  0  0  3  0  0  0  0  0  0
  -28.6590  -13.2360   20.9120 C   0  0  0  0  0  2  0  0  0  0  0  0
  -29.9450  -13.5620   20.2810 N   0  0  0  0  0  0  0  0  0  0  0  0
  -31.8420  -14.7870   20.1710 O   0  0  0  0  0  0  0  0  0  0  0  0
  -28.0390  -17.1270   19.1170 C   0  0  0  0  0  2  0  0  0  0  0  0
  -28.4960  -18.5480   19.4460 C   0  0  0  0  0  2  0  0  0  0  0  0
  -29.2550  -16.2100   18.9430 C   0  0  0  0  0  2  0  0  0  0  0  0
  -30.4430  -17.3260   20.6630 C   0  0  0  0  0  2  0  0  0  0  0  0
  -29.4300  -18.5960   20.6700 C   0  0  0  0  0  3  0  0  0  0  0  0
  -29.9030  -15.9610   20.2420 N   0  0  0  0  0  0  0  0  0  0  0  0
  -25.1980  -13.8530   20.5500 C   0  0  0  0  0  0  0  0  0  0  0  0
  -24.1340  -13.0810   20.9150 C   0  0  0  0  0  0  0  0  0  0  0  0
  -24.5980  -11.7310   20.8830 C   0  0  0  0  0  0  0  0  0  0  0  0
  -26.2440  -12.9730   20.3160 N   0  0  0  0  0  0  0  0  0  0  0  0
  -25.8900  -11.6920   20.5800 N   0  0  0  0  0  0  0  0  0  0  0  0
  -23.8730  -10.4710   21.0680 C   0  0  0  0  0  0  0  0  0  0  0  0
  -24.3140   -9.4960   21.9890 C   0  0  0  0  0  3  0  0  0  0  0  0
  -23.5870   -8.2990   22.1660 C   0  0  0  0  0  3  0  0  0  0  0  0
  -22.4080   -8.0690   21.4200 C   0  0  0  0  0  0  0  0  0  0  0  0
  -21.9860   -9.0330   20.4870 C   0  0  0  0  0  3  0  0  0  0  0  0
  -22.7130  -10.2210   20.3080 C   0  0  0  0  0  3  0  0  0  0  0  0
  -21.6540   -6.9240   21.5060 O   0  0  0  0  0  0  0  0  0  0  0  0
  -21.6240   -6.1670   22.6490 C   0  0  0  0  0  0  0  0  0  0  0  0
  -21.2270   -6.7090   23.8910 C   0  0  0  0  0  3  0  0  0  0  0  0
  -21.1460   -5.8780   25.0270 C   0  0  0  0  0  3  0  0  0  0  0  0
  -21.4510   -4.5080   24.9200 C   0  0  0  0  0  0  0  0  0  0  0  0
  -21.8410   -3.9660   23.6830 C   0  0  0  0  0  3  0  0  0  0  0  0
  -21.9250   -4.7940   22.5500 C   0  0  0  0  0  0  0  0  0  0  0  0
  -22.2810   -4.2630   21.3550 F   0  0  0  0  0  0  0  0  0  0  0  0
  -21.3630   -3.7080   26.0080 F   0  0  0  0  0  0  0  0  0  0  0  0
  -22.7370  -13.5600   21.1840 C   0  0  0  0  0  0  0  0  0  0  0  0
  -22.0070  -12.8640   22.0470 N   0  0  0  0  0  0  0  0  0  0  0  0
  -22.3010  -14.5870   20.6630 O   0  0  0  0  0  0  0  0  0  0  0  0
  -22.3720  -12.0320   22.4870 H   0  0  0  0  0  0  0  0  0  0  0  0
  -21.0700  -13.1670   22.2740 H   0  0  0  0  0  0  0  0  0  0  0  0
  -25.3500  -15.2220   20.3720 N   0  0  0  0  0  0  0  0  0  0  0  0
  -24.5790  -15.8740   20.4740 H   0  0  0  0  0  0  0  0  0  0  0  0
  -26.2030  -15.6620   20.0540 H   0  0  0  0  0  0  0  0  0  0  0  0
  -29.0730  -22.4640   20.1570 C   0  0  0  0  0  2  0  0  0  0  0  0
  -28.6490  -23.9010   20.7600 C   0  0  0  0  0  3  0  0  0  0  0  0
  -28.5250  -25.1460   19.7530 C   0  0  0  0  0  3  0  0  0  0  0  0
  -28.3970  -26.5360   20.2670 O   0  0  0  0  0  0  0  0  0  0  0  0
  -24.6160  -31.8910   23.2320 C   0  0  0  0  0  0  0  0  0  0  0  0
  -27.2360  -27.3260   20.1850 C   0  0  0  0  0  0  0  0  0  0  0  0
  -23.4090  -30.4850   21.5970 C   0  0  0  0  0  3  0  0  0  0  0  0
  -24.8590  -28.9300   20.1690 C   0  0  0  0  0  0  0  0  0  0  0  0
  -25.9450  -30.8080   21.4050 C   0  0  0  0  0  2  0  0  0  0  0  0
  -26.0240  -29.4280   20.7620 C   0  0  0  0  0  0  0  0  0  0  0  0
  -27.2100  -28.6370   20.7590 C   0  0  0  0  0  3  0  0  0  0  0  0
  -26.0400  -26.8740   19.5810 C   0  0  0  0  0  3  0  0  0  0  0  0
  -24.8690  -27.6610   19.5710 C   0  0  0  0  0  3  0  0  0  0  0  0
  -23.6210  -29.8040   20.2170 C   0  0  0  0  0  2  0  0  0  0  0  0
  -24.6750  -31.0810   22.1350 N   0  0  0  0  0  0  0  0  0  0  0  0
  -23.5340  -32.1680   23.7700 O   0  0  0  0  0  0  0  0  0  0  0  0
  -22.7490  -29.4730   22.5640 C   0  0  0  0  0  0  0  0  0  0  0  0
  -21.4230  -29.2930   22.4390 N   0  0  0  0  0  0  0  0  0  0  0  0
  -23.4290  -28.8530   23.3860 O   0  0  0  0  0  0  0  0  0  0  0  0
  -20.9360  -29.8440   21.7450 H   0  0  0  0  0  0  0  0  0  0  0  0
  -18.0500  -28.0830   22.9290 C   0  0  0  0  0  0  0  0  0  0  0  0
  -20.6050  -28.3560   23.2100 C   0  0  0  0  0  3  0  0  0  0  0  0
  -20.7190  -26.9220   22.6430 C   0  0  0  0  0  2  0  0  0  0  0  0
  -19.6240  -26.5880   21.6250 C   0  0  0  0  0  2  0  0  0  0  0  0
  -18.2380  -26.7290   22.2620 C   0  0  0  0  0  2  0  0  0  0  0  0
  -19.1620  -28.8520   23.3600 C   0  0  0  0  0  0  0  0  0  0  0  0
  -18.9340  -30.1160   23.9450 C   0  0  0  0  0  3  0  0  0  0  0  0
  -17.6280  -30.6140   24.1010 C   0  0  0  0  0  3  0  0  0  0  0  0
  -16.5290  -29.8390   23.6900 C   0  0  0  0  0  3  0  0  0  0  0  0
  -16.7410  -28.5760   23.1110 C   0  0  0  0  0  3  0  0  0  0  0  0
  -25.9010  -32.5240   23.8520 C   0  0  0  0  0  3  0  0  0  0  0  0
  -26.4230  -31.7530   25.1280 C   0  0  1  0  0  0  0  0  0  0  0  0
  -25.3340  -31.5150   26.2000 C   0  0  0  0  0  1  0  0  0  0  0  0
  -27.0050  -30.3760   24.7360 C   0  0  0  0  0  1  0  0  0  0  0  0
  -27.5800  -32.5460   25.7820 C   0  0  0  0  0  1  0  0  0  0  0  0
  -25.5930  -33.9220   24.1840 N   0  0  0  0  0  0  0  0  0  0  0  0
  -25.9200  -34.9770   23.4250 C   0  0  0  0  0  0  0  0  0  0  0  0
  -26.5870  -34.8750   22.3900 O   0  0  0  0  0  0  0  0  0  0  0  0
  -25.0080  -34.0810   24.9920 H   0  0  0  0  0  0  0  0  0  0  0  0
  -24.1890  -36.7680   23.0800 C   0  0  0  0  0  1  0  0  0  0  0  0
  -25.4320  -36.3630   23.8860 C   0  0  0  0  0  3  0  0  0  0  0  0
  -27.5680  -37.2470   24.7110 C   0  0  0  0  0  1  0  0  0  0  0  0
  -26.4620  -37.4180   23.7730 N   0  0  0  0  0  0  0  0  0  0  0  0
  -26.0540  -38.3360   23.9240 H   0  0  0  0  0  0  0  0  0  0  0  0
  1  3  1  0
  1  2  1  0
  4  1  1  0
  6 11  1  0
  7  8  1  0
  7  6  1  0
  9  8  1  0
  9 22  1  0
  9 10  1  0
 11  5  1  0
 11 10  1  0
 12  5  2  0
 13 14  1  0
 14 17  1  0
 15 13  1  0
 15 18  1  0
 16 17  1  0
 17  4  1  0
 18  5  1  0
 18 16  1  0
 19 20  2  0
 20 39  1  0
 21 20  1  0
 21 24  1  0
 22 19  1  0
 22 23  1  0
 23 21  2  0
 24 25  1  0
 25 26  2  0
 27 30  1  0
 27 26  1  0
 28 27  2  0
 29 28  1  0
 29 24  2  0
 30 31  1  0
 31 32  1  0
 32 33  2  0
 34 33  1  0
 34 38  1  0
 35 34  2  0
 36 31  2  0
 36 35  1  0
 37 36  1  0
 39 40  1  0
 40 43  1  0
 40 42  1  0
 41 39  2  0
 44 45  1  0
 44 19  1  0
 46 44  1  0
 47 48  1  0
 47  1  1  0
 49 50  1  0
 49 48  2  0
 51 62  2  0
 52 50  1  0
 52 57  1  0
 53 61  1  0
 53 63  1  0
 54 60  1  0
 54 56  1  0
 55 61  1  0
 56 55  1  0
 57 56  2  0
 58 52  2  0
 59 58  1  0
 59 54  2  0
 60 53  1  0
 61 51  1  0
 63 65  2  0
 64 63  1  0
 66 64  1  0
 67 76  2  0
 67 72  1  0
 68 64  1  0
 68 72  1  0
 69 68  1  0
 70 71  1  0
 70 69  1  0
 71 67  1  0
 72 73  2  0
 73 74  1  0
 75 74  2  0
 76 75  1  0
 77 51  1  0
 77 82  1  0
 77 78  1  0
 78 81  1  1
 78 79  1  0
 80 78  1  0
 82 85  1  0
 83 87  1  0
 83 82  1  0
 84 83  2  0
 87 86  1  0
 89 87  1  0
 89 90  1  0
 89 88  1  0
M  ISO  4   5 100  18 100  49 101  50 101
M  END
>  <TORSDO>  (39) 
F 20

>  <SCORE>  (39) 
-13.831

>  <name>  (39) 
39

>  <ligand_id>  (39) 
39

>  <original_smiles>  (39) 
[H]c1c([H])c([H])c2c(c1[H])C([H])([H])C([H])([H])C([H])([H])C2([H])N([H])C(=O)C1([H])N(C(=O)C([H])(N([H])C(=O)C([H])(N([H])C([H])([H])[H])C([H])([H])[H])C(C([H])([H])[H])(C([H])([H])[H])C([H])([H])[H])C([H])([H])c2c([H])c(OC([H])([H])C([H])([H])C([H])([H])[N+]([H])([H])C([H])([H])C3([H])C([H])([H])N(C(=O)N4C([H])([H])C([H])([H])C([H])([H])C([H])(n5nc(-c6c([H])c([H])c(Oc7c([H])c([H])c(F)c([H])c7F)c([H])c6[H])c(C(=O)N([H])[H])c5N([H])[H])C4([H])[H])C([H])([H])C([H])([H])C3([H])[H])c([H])c([H])c2C1([H])[H]

>  <smiles>  (39) 
[H]c1c([H])c([H])c2c(c1[H])C([H])([H])C([H])([H])C([H])([H])C2([H])N([H])C(=O)C1([H])N(C(=O)C([H])(N([H])C(=O)C([H])(N([H])C([H])([H])[H])C([H])([H])[H])C(C([H])([H])[H])(C([H])([H])[H])C([H])([H])[H])C([H])([H])c2c([H])c(OC([H])([H])C([H])([H])C([H])([H])[N+]([H])([H])C([H])([H])C3([H])C([H])([H])N(C(=O)N4C([H])([H])C([H])([H])C([H])([H])C([H])(n5nc(-c6c([H])c([H])c(Oc7c([H])c([H])c(F)c([H])c7F)c([H])c6[H])c(C(=O)N([H])[H])c5N([H])[H])C4([H])[H])C([H])([H])C([H])([H])C3([H])[H])c([H])c([H])c2C1([H])[H]

$$$$
40:0:0
     RDKit          3D

 95103  0  0  1  0  0  0  0  0999 V2000
  -31.7810  -18.3000   20.5170 C   0  0  0  0  0  2  0  0  0  0  0  0
  -29.7810  -17.9540   21.8440 C   0  0  0  0  0  2  0  0  0  0  0  0
  -31.5860  -19.8500   20.3860 C   0  0  0  0  0  2  0  0  0  0  0  0
  -29.7450  -19.5230   22.0830 C   0  0  0  0  0  2  0  0  0  0  0  0
  -30.4140  -17.5860   20.4990 C   0  0  0  0  0  3  0  0  0  0  0  0
  -30.3310  -20.4050   21.0060 N   0  0  1  0  0  4  0  0  0  0  0  0
  -29.6720  -20.3600   20.2440 H   0  0  0  0  0  0  0  0  0  0  0  0
  -31.0110  -15.0400   20.4170 C   0  0  0  0  0  0  0  0  0  0  0  0
  -30.7690  -12.7640   19.4820 C   0  0  0  0  0  2  0  0  0  0  0  0
  -29.8550  -12.7890   18.2380 C   0  0  0  0  0  2  0  0  0  0  0  0
  -28.3660  -12.7430   18.6400 C   0  0  0  0  0  2  0  0  0  0  0  0
  -27.9820  -13.6190   19.8700 C   0  0  0  0  0  3  0  0  0  0  0  0
  -29.0350  -13.5440   20.9950 C   0  0  0  0  0  2  0  0  0  0  0  0
  -30.3360  -13.8450   20.3820 N   0  0  0  0  0  0  0  0  0  0  0  0
  -32.2430  -15.0730   20.3910 O   0  0  0  0  0  0  0  0  0  0  0  0
  -30.3070  -16.1580   19.9820 N   0  0  0  0  0  0  0  0  0  0  0  0
  -25.5820  -14.2230   20.5500 C   0  0  0  0  0  0  0  0  0  0  0  0
  -24.4850  -13.4520   20.8400 C   0  0  0  0  0  0  0  0  0  0  0  0
  -24.9320  -12.0980   20.7740 C   0  0  0  0  0  0  0  0  0  0  0  0
  -26.6200  -13.3350   20.3220 N   0  0  0  0  0  0  0  0  0  0  0  0
  -26.2340  -12.0510   20.5230 N   0  0  0  0  0  0  0  0  0  0  0  0
  -24.1850  -10.8360   20.8920 C   0  0  0  0  0  0  0  0  0  0  0  0
  -24.5410   -9.8560   21.8440 C   0  0  0  0  0  3  0  0  0  0  0  0
  -23.8030   -8.6580   21.9510 C   0  0  0  0  0  3  0  0  0  0  0  0
  -22.6920   -8.4360   21.1060 C   0  0  0  0  0  0  0  0  0  0  0  0
  -22.3500   -9.4070   20.1490 C   0  0  0  0  0  3  0  0  0  0  0  0
  -23.0880  -10.5970   20.0400 C   0  0  0  0  0  3  0  0  0  0  0  0
  -21.9270   -7.2960   21.1240 O   0  0  0  0  0  0  0  0  0  0  0  0
  -21.7430   -6.5710   22.2740 C   0  0  0  0  0  0  0  0  0  0  0  0
  -21.1570   -7.1400   23.4250 C   0  0  0  0  0  3  0  0  0  0  0  0
  -20.9250   -6.3400   24.5620 C   0  0  0  0  0  3  0  0  0  0  0  0
  -21.2630   -4.9740   24.5450 C   0  0  0  0  0  0  0  0  0  0  0  0
  -21.8360   -4.4050   23.3950 C   0  0  0  0  0  3  0  0  0  0  0  0
  -22.0740   -5.2020   22.2600 C   0  0  0  0  0  0  0  0  0  0  0  0
  -22.6080   -4.6450   21.1470 F   0  0  0  0  0  0  0  0  0  0  0  0
  -21.0330   -4.2030   25.6340 F   0  0  0  0  0  0  0  0  0  0  0  0
  -23.0900  -13.9440   21.0940 C   0  0  0  0  0  0  0  0  0  0  0  0
  -22.3250  -13.2400   21.9230 N   0  0  0  0  0  0  0  0  0  0  0  0
  -22.6830  -14.9890   20.5940 O   0  0  0  0  0  0  0  0  0  0  0  0
  -22.6650  -12.3940   22.3530 H   0  0  0  0  0  0  0  0  0  0  0  0
  -21.3870  -13.5590   22.1270 H   0  0  0  0  0  0  0  0  0  0  0  0
  -25.7830  -15.6000   20.4560 N   0  0  0  0  0  0  0  0  0  0  0  0
  -25.0320  -16.2650   20.6090 H   0  0  0  0  0  0  0  0  0  0  0  0
  -26.7030  -15.9990   20.6010 H   0  0  0  0  0  0  0  0  0  0  0  0
  -30.2710  -16.3210   18.4910 C   0  0  0  0  0  2  0  0  0  0  0  0
  -29.3180  -17.4280   17.9250 C   0  0  0  0  0  2  0  0  0  0  0  0
  -29.8600  -18.1120   16.7320 N   0  0  0  0  0  4  0  0  0  0  0  0
  -29.2470  -18.8720   16.4830 H   0  0  0  0  0  0  0  0  0  0  0  0
  -29.8910  -17.4990   15.9380 H   0  0  0  0  0  0  0  0  0  0  0  0
  -30.7740  -18.4970   16.8840 H   0  0  0  0  0  0  0  0  0  0  0  0
  -30.4130  -21.8760   21.3920 C   0  0  0  0  0  3  0  0  0  0  0  0
  -29.5090  -22.8890   20.5800 C   0  0  0  0  0  3  0  0  0  0  0  0
  -29.6280  -24.4230   20.9800 C   0  0  0  0  0  3  0  0  0  0  0  0
  -28.7100  -25.4570   20.2180 C   0  0  0  0  0  3  0  0  0  0  0  0
  -28.7250  -26.8600   20.6780 O   0  0  0  0  0  0  0  0  0  0  0  0
  -24.6180  -32.0950   23.4500 C   0  0  0  0  0  0  0  0  0  0  0  0
  -27.5630  -27.6380   20.5490 C   0  0  0  0  0  0  0  0  0  0  0  0
  -23.5590  -30.6430   21.7590 C   0  0  0  0  0  3  0  0  0  0  0  0
  -25.1360  -29.1380   20.4250 C   0  0  0  0  0  0  0  0  0  0  0  0
  -26.0870  -31.0580   21.7070 C   0  0  0  0  0  2  0  0  0  0  0  0
  -26.2510  -29.6810   21.0740 C   0  0  0  0  0  0  0  0  0  0  0  0
  -27.4690  -28.9410   21.1230 C   0  0  0  0  0  3  0  0  0  0  0  0
  -26.4240  -27.1520   19.8680 C   0  0  0  0  0  3  0  0  0  0  0  0
  -25.2160  -27.8770   19.8200 C   0  0  0  0  0  3  0  0  0  0  0  0
  -23.8730  -29.9680   20.4000 C   0  0  0  0  0  2  0  0  0  0  0  0
  -24.7710  -31.2820   22.3640 N   0  0  0  0  0  0  0  0  0  0  0  0
  -23.4980  -32.3380   23.9180 O   0  0  0  0  0  0  0  0  0  0  0  0
  -22.8770  -29.6110   22.6880 C   0  0  0  0  0  0  0  0  0  0  0  0
  -21.5790  -29.3520   22.4580 N   0  0  0  0  0  0  0  0  0  0  0  0
  -23.5180  -29.0470   23.5770 O   0  0  0  0  0  0  0  0  0  0  0  0
  -21.1170  -29.8690   21.7250 H   0  0  0  0  0  0  0  0  0  0  0  0
  -18.2360  -28.0010   22.7560 C   0  0  0  0  0  0  0  0  0  0  0  0
  -20.7550  -28.3870   23.1870 C   0  0  0  0  0  3  0  0  0  0  0  0
  -20.9590  -26.9550   22.6430 C   0  0  0  0  0  2  0  0  0  0  0  0
  -19.9440  -26.5660   21.5620 C   0  0  0  0  0  2  0  0  0  0  0  0
  -18.5170  -26.6520   22.1130 C   0  0  0  0  0  2  0  0  0  0  0  0
  -19.2850  -28.8210   23.2460 C   0  0  0  0  0  0  0  0  0  0  0  0
  -18.9700  -30.0750   23.8080 C   0  0  0  0  0  3  0  0  0  0  0  0
  -17.6330  -30.5160   23.8790 C   0  0  0  0  0  3  0  0  0  0  0  0
  -16.5980  -29.6950   23.4020 C   0  0  0  0  0  3  0  0  0  0  0  0
  -16.8970  -28.4380   22.8450 C   0  0  0  0  0  3  0  0  0  0  0  0
  -25.8400  -32.7770   24.1380 C   0  0  0  0  0  3  0  0  0  0  0  0
  -26.2540  -32.0870   25.4960 C   0  0  1  0  0  0  0  0  0  0  0  0
  -25.0670  -31.8460   26.4550 C   0  0  0  0  0  1  0  0  0  0  0  0
  -26.9340  -30.7240   25.2330 C   0  0  0  0  0  1  0  0  0  0  0  0
  -27.2970  -32.9600   26.2330 C   0  0  0  0  0  1  0  0  0  0  0  0
  -25.4950  -34.1890   24.3570 N   0  0  0  0  0  0  0  0  0  0  0  0
  -25.8520  -35.1940   23.5430 C   0  0  0  0  0  0  0  0  0  0  0  0
  -26.5720  -35.0300   22.5540 O   0  0  0  0  0  0  0  0  0  0  0  0
  -24.8590  -34.3890   25.1150 H   0  0  0  0  0  0  0  0  0  0  0  0
  -24.1090  -36.9190   22.9950 C   0  0  0  0  0  1  0  0  0  0  0  0
  -25.3270  -36.6020   23.8790 C   0  0  0  0  0  3  0  0  0  0  0  0
  -27.4140  -37.5840   24.7190 C   0  0  0  0  0  1  0  0  0  0  0  0
  -26.3470  -37.6620   23.7250 N   0  0  0  0  0  0  0  0  0  0  0  0
  -25.9230  -38.5830   23.7840 H   0  0  0  0  0  0  0  0  0  0  0  0
  2  4  1  0
  3  1  1  0
  3  6  1  0
  5 16  1  0
  5  1  1  0
  5  2  1  0
  6 51  1  0
  6  4  1  0
  6  7  1  6
  9 14  1  0
 10 11  1  0
 10  9  1  0
 12 11  1  0
 12 20  1  0
 12 13  1  0
 14  8  1  0
 14 13  1  0
 15  8  2  0
 16  8  1  0
 17 18  2  0
 18 37  1  0
 19 18  1  0
 19 22  1  0
 20 21  1  0
 20 17  1  0
 21 19  2  0
 22 23  1  0
 23 24  2  0
 25 28  1  0
 25 24  1  0
 26 25  2  0
 27 26  1  0
 27 22  2  0
 28 29  1  0
 29 30  1  0
 30 31  2  0
 32 31  1  0
 32 36  1  0
 33 32  2  0
 34 29  2  0
 34 33  1  0
 35 34  1  0
 37 38  1  0
 38 41  1  0
 38 40  1  0
 39 37  2  0
 42 17  1  0
 42 44  1  0
 42 43  1  0
 45 16  1  0
 46 45  1  0
 47 50  1  0
 47 46  1  0
 48 47  1  0
 49 47  1  0
 52 53  1  0
 52 51  2  0
 54 55  1  0
 54 53  2  0
 56 67  2  0
 57 55  1  0
 57 62  1  0
 58 66  1  0
 58 68  1  0
 59 61  1  0
 60 66  1  0
 61 62  2  0
 61 60  1  0
 63 57  2  0
 64 63  1  0
 64 59  2  0
 65 59  1  0
 65 58  1  0
 66 56  1  0
 68 70  2  0
 69 68  1  0
 71 69  1  0
 72 81  2  0
 72 77  1  0
 73 69  1  0
 73 77  1  0
 74 73  1  0
 75 76  1  0
 75 74  1  0
 76 72  1  0
 77 78  2  0
 78 79  1  0
 80 79  2  0
 81 80  1  0
 82 56  1  0
 82 87  1  0
 82 83  1  0
 83 86  1  1
 83 84  1  0
 85 83  1  0
 87 90  1  0
 88 92  1  0
 88 87  1  0
 89 88  2  0
 92 91  1  0
 94 95  1  0
 94 92  1  0
 94 93  1  0
M  ISO  4   8 100  16 100  54 101  55 101
M  END
>  <TORSDO>  (40) 
F 23

>  <SCORE>  (40) 
-10.891

>  <name>  (40) 
40

>  <ligand_id>  (40) 
40

>  <original_smiles>  (40) 
[H]c1c([H])c([H])c2c(c1[H])C([H])([H])C([H])([H])C([H])([H])C2([H])N([H])C(=O)C1([H])N(C(=O)C([H])(N([H])C(=O)C([H])(N([H])C([H])([H])[H])C([H])([H])[H])C(C([H])([H])[H])(C([H])([H])[H])C([H])([H])[H])C([H])([H])c2c([H])c(OC([H])([H])C([H])([H])C([H])([H])C([H])([H])[N+]3([H])C([H])([H])C([H])([H])C([H])(N(C(=O)N4C([H])([H])C([H])([H])C([H])([H])C([H])(n5nc(-c6c([H])c([H])c(Oc7c([H])c([H])c(F)c([H])c7F)c([H])c6[H])c(C(=O)N([H])[H])c5N([H])[H])C4([H])[H])C([H])([H])C([H])([H])[N+]([H])([H])[H])C([H])([H])C3([H])[H])c([H])c([H])c2C1([H])[H]

>  <smiles>  (40) 
[H]c1c([H])c([H])c2c(c1[H])C([H])([H])C([H])([H])C([H])([H])C2([H])N([H])C(=O)C1([H])N(C(=O)C([H])(N([H])C(=O)C([H])(N([H])C([H])([H])[H])C([H])([H])[H])C(C([H])([H])[H])(C([H])([H])[H])C([H])([H])[H])C([H])([H])c2c([H])c(OC([H])([H])C([H])([H])C([H])([H])C([H])([H])[N+]3([H])C([H])([H])C([H])([H])C([H])(N(C(=O)N4C([H])([H])C([H])([H])C([H])([H])C([H])(n5nc(-c6c([H])c([H])c(Oc7c([H])c([H])c(F)c([H])c7F)c([H])c6[H])c(C(=O)N([H])[H])c5N([H])[H])C4([H])[H])C([H])([H])C([H])([H])[N+]([H])([H])[H])C([H])([H])C3([H])[H])c([H])c([H])c2C1([H])[H]

$$$$
41:0:0
     RDKit          3D

102112  0  0  1  0  0  0  0  0999 V2000
  -30.6130  -18.7980   19.3610 N   0  0  0  0  0  4  0  0  0  0  0  0
  -31.3220  -18.5110   20.0160 H   0  0  0  0  0  0  0  0  0  0  0  0
  -30.9570  -18.5250   18.4520 H   0  0  0  0  0  0  0  0  0  0  0  0
  -29.9270  -21.1000   18.2640 C   0  0  0  0  0  2  0  0  0  0  0  0
  -30.2120  -20.9950   20.7900 C   0  0  0  0  0  2  0  0  0  0  0  0
  -30.3000  -22.6100   18.3820 C   0  0  0  0  0  2  0  0  0  0  0  0
  -29.3480  -22.3020   20.6710 C   0  0  0  0  0  2  0  0  0  0  0  0
  -30.5820  -20.3180   19.4290 C   0  0  0  0  0  3  0  0  0  0  0  0
  -29.8390  -23.2780   19.6480 N   0  0  2  0  0  4  0  0  0  0  0  0
  -30.6830  -23.6740   20.0430 H   0  0  0  0  0  0  0  0  0  0  0  0
  -28.9440  -24.4660   19.3780 C   0  0  0  0  0  2  0  0  0  0  0  0
  -28.7700  -25.5040   20.5340 C   0  0  0  0  0  2  0  0  0  0  0  0
  -28.6310  -26.8720   20.0950 O   0  0  0  0  0  0  0  0  0  0  0  0
  -24.5500  -31.9000   23.1360 C   0  0  0  0  0  0  0  0  0  0  0  0
  -27.4040  -27.5060   20.1480 C   0  0  0  0  0  0  0  0  0  0  0  0
  -23.4190  -30.4530   21.4780 C   0  0  0  0  0  3  0  0  0  0  0  0
  -24.9520  -28.9370   20.1030 C   0  0  0  0  0  0  0  0  0  0  0  0
  -25.9400  -30.8820   21.3290 C   0  0  0  0  0  2  0  0  0  0  0  0
  -26.0830  -29.5060   20.7030 C   0  0  0  0  0  0  0  0  0  0  0  0
  -27.3100  -28.8030   20.7090 C   0  0  0  0  0  3  0  0  0  0  0  0
  -26.2540  -26.9450   19.5540 C   0  0  0  0  0  3  0  0  0  0  0  0
  -25.0340  -27.6560   19.5250 C   0  0  0  0  0  3  0  0  0  0  0  0
  -23.6830  -29.7640   20.1110 C   0  0  0  0  0  2  0  0  0  0  0  0
  -24.6520  -31.0960   22.0390 N   0  0  0  0  0  0  0  0  0  0  0  0
  -23.4490  -32.1470   23.6480 O   0  0  0  0  0  0  0  0  0  0  0  0
  -22.7750  -29.4230   22.4320 C   0  0  0  0  0  0  0  0  0  0  0  0
  -21.4510  -29.2410   22.3080 N   0  0  0  0  0  0  0  0  0  0  0  0
  -23.4610  -28.7900   23.2380 O   0  0  0  0  0  0  0  0  0  0  0  0
  -20.9660  -29.8100   21.6300 H   0  0  0  0  0  0  0  0  0  0  0  0
  -18.0750  -28.0660   22.8410 C   0  0  0  0  0  0  0  0  0  0  0  0
  -20.6390  -28.2890   23.0700 C   0  0  0  0  0  3  0  0  0  0  0  0
  -20.7130  -26.8710   22.4550 C   0  0  0  0  0  2  0  0  0  0  0  0
  -19.5880  -26.5880   21.4520 C   0  0  0  0  0  2  0  0  0  0  0  0
  -18.2190  -26.7340   22.1220 C   0  0  0  0  0  2  0  0  0  0  0  0
  -19.2100  -28.8030   23.2750 C   0  0  0  0  0  0  0  0  0  0  0  0
  -19.0160  -30.0530   23.9020 C   0  0  0  0  0  3  0  0  0  0  0  0
  -17.7190  -30.5650   24.1050 C   0  0  0  0  0  3  0  0  0  0  0  0
  -16.6000  -29.8210   23.6950 C   0  0  0  0  0  3  0  0  0  0  0  0
  -16.7770  -28.5760   23.0690 C   0  0  0  0  0  3  0  0  0  0  0  0
  -25.8050  -32.5690   23.7810 C   0  0  0  0  0  3  0  0  0  0  0  0
  -25.4510  -33.9610   24.0900 N   0  0  0  0  0  0  0  0  0  0  0  0
  -25.7740  -35.0140   23.3260 C   0  0  0  0  0  0  0  0  0  0  0  0
  -26.4650  -34.9170   22.3080 O   0  0  0  0  0  0  0  0  0  0  0  0
  -24.8380  -34.1110   24.8780 H   0  0  0  0  0  0  0  0  0  0  0  0
  -23.9970  -36.7490   22.9270 C   0  0  0  0  0  1  0  0  0  0  0  0
  -25.2420  -36.3950   23.7570 C   0  0  0  0  0  3  0  0  0  0  0  0
  -27.3360  -37.3580   24.6010 C   0  0  0  0  0  1  0  0  0  0  0  0
  -26.2460  -37.4750   23.6370 N   0  0  0  0  0  0  0  0  0  0  0  0
  -25.8110  -38.3860   23.7570 H   0  0  0  0  0  0  0  0  0  0  0  0
  -26.3120  -31.8230   25.0760 C   0  0  1  0  0  0  0  0  0  0  0  0
  -25.1980  -31.5520   26.1150 C   0  0  0  0  0  1  0  0  0  0  0  0
  -26.9520  -30.4650   24.7030 C   0  0  0  0  0  1  0  0  0  0  0  0
  -27.4160  -32.6580   25.7640 C   0  0  0  0  0  1  0  0  0  0  0  0
  -29.3890  -17.9890   19.6610 C   0  0  0  0  0  3  0  0  0  0  0  0
  -31.2690  -14.6340   19.6780 C   0  0  0  0  0  0  0  0  0  0  0  0
  -30.8770  -12.3000   18.9180 C   0  0  0  0  0  2  0  0  0  0  0  0
  -29.9140  -12.2580   17.7240 C   0  0  0  0  0  2  0  0  0  0  0  0
  -28.4540  -12.1970   18.2070 C   0  0  0  0  0  2  0  0  0  0  0  0
  -28.1490  -13.2390   19.3140 C   0  0  0  0  0  3  0  0  0  0  0  0
  -29.2420  -13.2390   20.4060 C   0  0  0  0  0  2  0  0  0  0  0  0
  -30.5340  -13.4760   19.7470 N   0  0  0  0  0  0  0  0  0  0  0  0
  -32.3760  -14.6260   19.1340 O   0  0  0  0  0  0  0  0  0  0  0  0
  -30.9340  -17.2000   22.2630 C   0  0  0  0  0  2  0  0  0  0  0  0
  -29.5020  -16.7940   21.9030 C   0  0  0  0  0  2  0  0  0  0  0  0
  -31.7930  -16.3650   21.3070 C   0  0  0  0  0  2  0  0  0  0  0  0
  -29.5820  -16.5540   20.3870 C   0  0  0  0  0  3  0  0  0  0  0  0
  -30.8740  -15.7960   20.3110 N   0  0  0  0  0  0  0  0  0  0  0  0
  -25.8390  -13.9900   20.1610 C   0  0  0  0  0  0  0  0  0  0  0  0
  -24.7490  -13.2920   20.6010 C   0  0  0  0  0  0  0  0  0  0  0  0
  -25.1190  -11.9170   20.5380 C   0  0  0  0  0  0  0  0  0  0  0  0
  -26.8120  -13.0470   19.8710 N   0  0  0  0  0  0  0  0  0  0  0  0
  -26.3840  -11.7910   20.1560 N   0  0  0  0  0  0  0  0  0  0  0  0
  -24.3170  -10.7100   20.7650 C   0  0  0  0  0  0  0  0  0  0  0  0
  -24.6990   -9.7340   21.7110 C   0  0  0  0  0  3  0  0  0  0  0  0
  -23.8920   -8.5960   21.9270 C   0  0  0  0  0  3  0  0  0  0  0  0
  -22.6910   -8.4290   21.1980 C   0  0  0  0  0  0  0  0  0  0  0  0
  -22.3270   -9.3950   20.2410 C   0  0  0  0  0  3  0  0  0  0  0  0
  -23.1330  -10.5240   20.0220 C   0  0  0  0  0  3  0  0  0  0  0  0
  -21.8580   -7.3440   21.3240 O   0  0  0  0  0  0  0  0  0  0  0  0
  -21.7880   -6.6250   22.4900 C   0  0  0  0  0  0  0  0  0  0  0  0
  -21.4040   -7.2200   23.7130 C   0  0  0  0  0  3  0  0  0  0  0  0
  -21.2820   -6.4290   24.8710 C   0  0  0  0  0  3  0  0  0  0  0  0
  -21.5290   -5.0440   24.8090 C   0  0  0  0  0  0  0  0  0  0  0  0
  -21.9060   -4.4490   23.5920 C   0  0  0  0  0  3  0  0  0  0  0  0
  -22.0320   -5.2370   22.4350 C   0  0  0  0  0  0  0  0  0  0  0  0
  -22.3760   -4.6550   21.2600 F   0  0  0  0  0  0  0  0  0  0  0  0
  -21.4010   -4.2820   25.9210 F   0  0  0  0  0  0  0  0  0  0  0  0
  -23.4060  -13.8700   20.9480 C   0  0  0  0  0  0  0  0  0  0  0  0
  -22.7000  -13.2580   21.8950 N   0  0  0  0  0  0  0  0  0  0  0  0
  -23.0000  -14.9010   20.4190 O   0  0  0  0  0  0  0  0  0  0  0  0
  -23.0540  -12.4410   22.3730 H   0  0  0  0  0  0  0  0  0  0  0  0
  -21.8020  -13.6350   22.1680 H   0  0  0  0  0  0  0  0  0  0  0  0
  -26.0530  -15.3410   19.9580 N   0  0  0  0  0  0  0  0  0  0  0  0
  -25.2610  -15.9700   20.0530 H   0  0  0  0  0  0  0  0  0  0  0  0
  -26.7720  -15.6830   19.3390 H   0  0  0  0  0  0  0  0  0  0  0  0
  -28.4170  -17.9080   18.4340 C   0  0  0  0  0  2  0  0  0  0  0  0
  -25.5080  -21.0450   17.4700 C   0  0  0  0  0  3  0  0  0  0  0  0
  -26.0480  -20.9980   18.7680 C   0  0  0  0  0  3  0  0  0  0  0  0
  -25.9370  -20.1140   16.5080 C   0  0  0  0  0  3  0  0  0  0  0  0
  -26.9900  -20.0070   19.1150 C   0  0  0  0  0  3  0  0  0  0  0  0
  -26.8830  -19.1310   16.8500 C   0  0  0  0  0  3  0  0  0  0  0  0
  -27.4190  -19.0500   18.1580 C   0  0  0  0  0  0  0  0  0  0  0  0
  1 54  1  0
  1  2  1  0
  3  1  1  0
  4  6  1  0
  4  8  1  0
  6  9  1  0
  7  5  1  0
  8  1  1  0
  8  5  1  0
  9 10  1  1
  9  7  1  0
 11  9  1  0
 11 12  1  0
 13 15  1  0
 13 12  1  0
 14 25  2  0
 15 20  1  0
 16 24  1  0
 16 26  1  0
 17 23  1  0
 17 19  1  0
 18 24  1  0
 19 20  2  0
 19 18  1  0
 21 15  2  0
 22 21  1  0
 22 17  2  0
 23 16  1  0
 24 14  1  0
 26 28  2  0
 27 26  1  0
 29 27  1  0
 30 39  2  0
 30 35  1  0
 31 27  1  0
 31 35  1  0
 32 31  1  0
 33 34  1  0
 33 32  1  0
 34 30  1  0
 35 36  2  0
 36 37  1  0
 38 37  2  0
 39 38  1  0
 40 14  1  0
 40 41  1  0
 40 50  1  0
 41 44  1  0
 42 46  1  0
 42 41  1  0
 43 42  2  0
 46 45  1  0
 48 46  1  0
 48 49  1  0
 48 47  1  0
 50 53  1  1
 50 51  1  0
 52 50  1  0
 54 96  1  0
 55 61  1  0
 55 67  1  0
 56 61  1  0
 57 58  1  0
 57 56  1  0
 59 58  1  0
 59 71  1  0
 59 60  1  0
 61 60  1  0
 62 55  2  0
 64 63  1  0
 65 63  1  0
 66 54  1  0
 66 64  1  0
 67 66  1  0
 67 65  1  0
 68 69  2  0
 69 88  1  0
 70 69  1  0
 70 73  1  0
 71 72  1  0
 71 68  1  0
 72 70  2  0
 73 74  1  0
 74 75  2  0
 76 79  1  0
 76 75  1  0
 77 76  2  0
 78 77  1  0
 78 73  2  0
 79 80  1  0
 80 81  1  0
 81 82  2  0
 83 82  1  0
 83 87  1  0
 84 83  2  0
 85 80  2  0
 85 84  1  0
 86 85  1  0
 88 89  1  0
 89 92  1  0
 89 91  1  0
 90 88  2  0
 93 94  1  0
 93 68  1  0
 95 93  1  0
 97 98  1  0
 98100  2  0
 99101  1  0
 99 97  2  0
101102  2  0
102 96  1  0
102100  1  0
M  ISO  4  12 101  13 101  55 100  67 100
M  END
>  <TORSDO>  (41) 
F 22

>  <SCORE>  (41) 
-11.451

>  <name>  (41) 
41

>  <ligand_id>  (41) 
41

>  <original_smiles>  (41) 
[H]c1c([H])c([H])c(C([H])([H])C([H])(C2([H])N(C(=O)N3C([H])([H])C([H])([H])C([H])([H])C([H])(n4nc(-c5c([H])c([H])c(Oc6c([H])c([H])c(F)c([H])c6F)c([H])c5[H])c(C(=O)N([H])[H])c4N([H])[H])C3([H])[H])C([H])([H])C([H])([H])C2([H])[H])[N+]([H])([H])C2([H])C([H])([H])C([H])([H])[N+]([H])(C([H])([H])C([H])([H])Oc3c([H])c([H])c4c(c3[H])C([H])([H])N(C(=O)C([H])(N([H])C(=O)C([H])(N([H])C([H])([H])[H])C([H])([H])[H])C(C([H])([H])[H])(C([H])([H])[H])C([H])([H])[H])C([H])(C(=O)N([H])C3([H])c5c([H])c([H])c([H])c([H])c5C([H])([H])C([H])([H])C3([H])[H])C4([H])[H])C([H])([H])C2([H])[H])c([H])c1[H]

>  <smiles>  (41) 
[H]c1c([H])c([H])c(C([H])([H])C([H])(C2([H])N(C(=O)N3C([H])([H])C([H])([H])C([H])([H])C([H])(n4nc(-c5c([H])c([H])c(Oc6c([H])c([H])c(F)c([H])c6F)c([H])c5[H])c(C(=O)N([H])[H])c4N([H])[H])C3([H])[H])C([H])([H])C([H])([H])C2([H])[H])[N+]([H])([H])C2([H])C([H])([H])C([H])([H])[N+]([H])(C([H])([H])C([H])([H])Oc3c([H])c([H])c4c(c3[H])C([H])([H])N(C(=O)C([H])(N([H])C(=O)C([H])(N([H])C([H])([H])[H])C([H])([H])[H])C(C([H])([H])[H])(C([H])([H])[H])C([H])([H])[H])C([H])(C(=O)N([H])C3([H])c5c([H])c([H])c([H])c([H])c5C([H])([H])C([H])([H])C3([H])[H])C4([H])[H])C([H])([H])C2([H])[H])c([H])c1[H]

$$$$
42:0:0
     RDKit          3D

 95104  0  0  1  0  0  0  0  0999 V2000
  -28.8940  -23.6980   20.3680 C   0  0  0  0  0  3  0  0  0  0  0  0
  -29.0960  -23.2880   23.9990 C   0  0  0  0  0  2  0  0  0  0  0  0
  -30.5820  -23.1000   23.7030 C   0  0  0  0  0  2  0  0  0  0  0  0
  -28.6090  -24.2320   22.8960 C   0  0  0  0  0  2  0  0  0  0  0  0
  -30.6150  -22.9990   22.1800 C   0  0  0  0  0  2  0  0  0  0  0  0
  -29.5800  -24.0360   21.7100 C   0  0  0  0  0  3  0  0  0  0  0  0
  -28.2820  -22.1930   20.4040 C   0  0  0  0  0  2  0  0  0  0  0  0
  -29.0140  -20.9510   19.6950 C   0  0  0  0  0  2  0  0  0  0  0  0
  -29.2530  -18.4410   20.4180 C   0  0  0  0  0  0  0  0  0  0  0  0
  -29.5900  -19.7800   20.4730 N   0  0  0  0  0  0  0  0  0  0  0  0
  -28.1060  -18.0860   20.1490 O   0  0  0  0  0  0  0  0  0  0  0  0
  -30.5390  -19.9380   20.7880 H   0  0  0  0  0  0  0  0  0  0  0  0
  -30.6980  -14.7660   20.8040 C   0  0  0  0  0  0  0  0  0  0  0  0
  -30.5680  -12.4180   20.0020 C   0  0  0  0  0  2  0  0  0  0  0  0
  -29.7310  -12.3200   18.7060 C   0  0  0  0  0  2  0  0  0  0  0  0
  -28.2300  -12.2130   19.0220 C   0  0  0  0  0  2  0  0  0  0  0  0
  -27.7500  -13.1980   20.1230 C   0  0  0  0  0  3  0  0  0  0  0  0
  -28.7160  -13.2580   21.3230 C   0  0  0  0  0  2  0  0  0  0  0  0
  -30.0440  -13.5580   20.7780 N   0  0  0  0  0  0  0  0  0  0  0  0
  -31.9260  -14.7900   20.9020 O   0  0  0  0  0  0  0  0  0  0  0  0
  -30.9900  -17.1320   18.2950 C   0  0  0  0  0  2  0  0  0  0  0  0
  -31.5370  -17.6890   19.5970 C   0  0  0  0  0  2  0  0  0  0  0  0
  -30.3200  -15.8220   18.7370 C   0  0  0  0  0  2  0  0  0  0  0  0
  -30.3960  -17.3290   20.5560 C   0  0  0  0  0  3  0  0  0  0  0  0
  -30.0790  -15.8650   20.2110 N   0  0  0  0  0  0  0  0  0  0  0  0
  -25.3110  -13.7870   20.6480 C   0  0  0  0  0  0  0  0  0  0  0  0
  -24.2250  -13.0120   20.9440 C   0  0  0  0  0  0  0  0  0  0  0  0
  -24.6990  -11.6650   20.9970 C   0  0  0  0  0  0  0  0  0  0  0  0
  -26.3790  -12.9130   20.5280 N   0  0  0  0  0  0  0  0  0  0  0  0
  -26.0110  -11.6340   20.8050 N   0  0  0  0  0  0  0  0  0  0  0  0
  -23.9700  -10.4020   21.1610 C   0  0  0  0  0  0  0  0  0  0  0  0
  -24.3580   -9.4440   22.1230 C   0  0  0  0  0  3  0  0  0  0  0  0
  -23.6270   -8.2460   22.2760 C   0  0  0  0  0  3  0  0  0  0  0  0
  -22.4960   -7.9970   21.4640 C   0  0  0  0  0  0  0  0  0  0  0  0
  -22.1270   -8.9430   20.4920 C   0  0  0  0  0  3  0  0  0  0  0  0
  -22.8560  -10.1330   20.3390 C   0  0  0  0  0  3  0  0  0  0  0  0
  -21.7420   -6.8500   21.5210 O   0  0  0  0  0  0  0  0  0  0  0  0
  -21.6690   -6.0920   22.6620 C   0  0  0  0  0  0  0  0  0  0  0  0
  -21.2160   -6.6320   23.8850 C   0  0  0  0  0  3  0  0  0  0  0  0
  -21.0920   -5.8030   25.0170 C   0  0  0  0  0  3  0  0  0  0  0  0
  -21.4110   -4.4340   24.9270 C   0  0  0  0  0  0  0  0  0  0  0  0
  -21.8560   -3.8950   23.7080 C   0  0  0  0  0  3  0  0  0  0  0  0
  -21.9820   -4.7210   22.5780 C   0  0  0  0  0  0  0  0  0  0  0  0
  -22.3930   -4.1910   21.4010 F   0  0  0  0  0  0  0  0  0  0  0  0
  -21.2860   -3.6360   26.0130 F   0  0  0  0  0  0  0  0  0  0  0  0
  -22.8050  -13.4800   21.0800 C   0  0  0  0  0  0  0  0  0  0  0  0
  -22.0210  -12.8150   21.9190 N   0  0  0  0  0  0  0  0  0  0  0  0
  -22.3980  -14.4740   20.4790 O   0  0  0  0  0  0  0  0  0  0  0  0
  -22.3660  -12.0100   22.4230 H   0  0  0  0  0  0  0  0  0  0  0  0
  -21.0660  -13.1130   22.0630 H   0  0  0  0  0  0  0  0  0  0  0  0
  -25.4720  -15.1550   20.4460 N   0  0  0  0  0  0  0  0  0  0  0  0
  -24.6840  -15.7910   20.4930 H   0  0  0  0  0  0  0  0  0  0  0  0
  -26.3430  -15.6230   20.2210 H   0  0  0  0  0  0  0  0  0  0  0  0
  -27.8990  -24.8970   19.9800 C   0  0  0  0  0  2  0  0  0  0  0  0
  -28.2420  -26.3440   20.1750 O   0  0  0  0  0  0  0  0  0  0  0  0
  -24.6420  -31.8350   23.2890 C   0  0  0  0  0  0  0  0  0  0  0  0
  -27.1740  -27.2670   20.1420 C   0  0  0  0  0  0  0  0  0  0  0  0
  -23.4260  -30.4920   21.6180 C   0  0  0  0  0  3  0  0  0  0  0  0
  -24.8550  -28.9550   20.1580 C   0  0  0  0  0  0  0  0  0  0  0  0
  -25.9740  -30.7590   21.4570 C   0  0  0  0  0  2  0  0  0  0  0  0
  -26.0310  -29.3910   20.7830 C   0  0  0  0  0  0  0  0  0  0  0  0
  -27.1940  -28.5540   20.7750 C   0  0  0  0  0  3  0  0  0  0  0  0
  -25.9760  -26.9100   19.4820 C   0  0  0  0  0  3  0  0  0  0  0  0
  -24.8280  -27.7180   19.5030 C   0  0  0  0  0  3  0  0  0  0  0  0
  -23.6400  -29.8580   20.2210 C   0  0  0  0  0  2  0  0  0  0  0  0
  -24.7020  -31.0420   22.1790 N   0  0  0  0  0  0  0  0  0  0  0  0
  -23.5600  -32.1210   23.8200 O   0  0  0  0  0  0  0  0  0  0  0  0
  -22.7430  -29.4600   22.5480 C   0  0  0  0  0  0  0  0  0  0  0  0
  -21.4160  -29.3070   22.4110 N   0  0  0  0  0  0  0  0  0  0  0  0
  -23.4050  -28.8030   23.3560 O   0  0  0  0  0  0  0  0  0  0  0  0
  -20.9400  -29.8880   21.7350 H   0  0  0  0  0  0  0  0  0  0  0  0
  -18.0160  -28.1630   22.8790 C   0  0  0  0  0  0  0  0  0  0  0  0
  -20.5790  -28.3680   23.1590 C   0  0  0  0  0  3  0  0  0  0  0  0
  -20.6570  -26.9490   22.5490 C   0  0  0  0  0  2  0  0  0  0  0  0
  -19.5490  -26.6700   21.5280 C   0  0  0  0  0  2  0  0  0  0  0  0
  -18.1680  -26.8270   22.1710 C   0  0  0  0  0  2  0  0  0  0  0  0
  -19.1480  -28.8940   23.3270 C   0  0  0  0  0  0  0  0  0  0  0  0
  -18.9500  -30.1470   23.9460 C   0  0  0  0  0  3  0  0  0  0  0  0
  -17.6540  -30.6680   24.1260 C   0  0  0  0  0  3  0  0  0  0  0  0
  -16.5370  -29.9330   23.6910 C   0  0  0  0  0  3  0  0  0  0  0  0
  -16.7190  -28.6840   23.0720 C   0  0  0  0  0  3  0  0  0  0  0  0
  -25.9330  -32.4340   23.9250 C   0  0  0  0  0  3  0  0  0  0  0  0
  -25.6500  -33.8370   24.2580 N   0  0  0  0  0  0  0  0  0  0  0  0
  -25.9910  -34.8860   23.4980 C   0  0  0  0  0  0  0  0  0  0  0  0
  -26.6470  -34.7710   22.4590 O   0  0  0  0  0  0  0  0  0  0  0  0
  -25.0690  -34.0010   25.0670 H   0  0  0  0  0  0  0  0  0  0  0  0
  -24.2810  -36.7060   23.1710 C   0  0  0  0  0  1  0  0  0  0  0  0
  -25.5320  -36.2830   23.9590 C   0  0  0  0  0  3  0  0  0  0  0  0
  -27.6940  -37.1410   24.7520 C   0  0  0  0  0  1  0  0  0  0  0  0
  -26.5770  -37.3210   23.8270 N   0  0  0  0  0  0  0  0  0  0  0  0
  -26.1870  -38.2470   23.9800 H   0  0  0  0  0  0  0  0  0  0  0  0
  -26.4140  -31.6470   25.2050 C   0  0  1  0  0  0  0  0  0  0  0  0
  -25.2990  -31.4320   26.2570 C   0  0  0  0  0  1  0  0  0  0  0  0
  -26.9700  -30.2570   24.8160 C   0  0  0  0  0  1  0  0  0  0  0  0
  -27.5730  -32.4130   25.8860 C   0  0  0  0  0  1  0  0  0  0  0  0
  1 54  1  0
  1  7  1  0
  1  6  1  0
  3  2  1  0
  4  2  1  0
  5  3  1  0
  6  5  1  0
  6  4  1  0
  8  7  1  0
  8 10  1  0
  9 10  1  0
 10 12  1  0
 11  9  2  0
 13 20  2  0
 14 19  1  0
 15 16  1  0
 15 14  1  0
 17 16  1  0
 17 29  1  0
 17 18  1  0
 19 13  1  0
 19 18  1  0
 21 23  1  0
 21 22  1  0
 22 24  1  0
 23 25  1  0
 24  9  1  0
 25 24  1  0
 25 13  1  0
 26 27  2  0
 27 28  1  0
 27 46  1  0
 28 31  1  0
 29 26  1  0
 29 30  1  0
 30 28  2  0
 31 32  1  0
 32 33  2  0
 34 37  1  0
 34 33  1  0
 35 34  2  0
 36 35  1  0
 36 31  2  0
 37 38  1  0
 38 39  1  0
 39 40  2  0
 41 40  1  0
 41 45  1  0
 42 41  2  0
 43 38  2  0
 43 42  1  0
 44 43  1  0
 46 47  1  0
 47 50  1  0
 47 49  1  0
 48 46  2  0
 51 52  1  0
 51 26  1  0
 53 51  1  0
 54 55  1  0
 56 67  2  0
 57 55  1  0
 57 62  1  0
 58 66  1  0
 58 68  1  0
 59 65  1  0
 59 61  1  0
 60 66  1  0
 61 60  1  0
 62 61  2  0
 63 64  1  0
 63 57  2  0
 64 59  2  0
 65 58  1  0
 66 56  1  0
 68 70  2  0
 69 68  1  0
 71 69  1  0
 72 81  2  0
 72 77  1  0
 73 69  1  0
 73 77  1  0
 74 73  1  0
 75 76  1  0
 75 74  1  0
 76 72  1  0
 77 78  2  0
 78 79  1  0
 80 79  2  0
 81 80  1  0
 82 56  1  0
 82 83  1  0
 82 92  1  0
 83 86  1  0
 84 88  1  0
 84 83  1  0
 85 84  2  0
 88 87  1  0
 90 88  1  0
 90 91  1  0
 90 89  1  0
 92 95  1  1
 92 93  1  0
 94 92  1  0
M  ISO  4  13 100  25 100  54 101  55 101
M  END
>  <TORSDO>  (42) 
F 21

>  <SCORE>  (42) 
-11.992

>  <name>  (42) 
42

>  <ligand_id>  (42) 
42

>  <original_smiles>  (42) 
[H]c1c([H])c([H])c2c(c1[H])C([H])([H])C([H])([H])C([H])([H])C2([H])N([H])C(=O)C1([H])N(C(=O)C([H])(N([H])C(=O)C([H])(N([H])C([H])([H])[H])C([H])([H])[H])C(C([H])([H])[H])(C([H])([H])[H])C([H])([H])[H])C([H])([H])c2c([H])c(OC([H])([H])C([H])(C([H])([H])C([H])([H])N([H])C(=O)C3([H])N(C(=O)N4C([H])([H])C([H])([H])C([H])([H])C([H])(n5nc(-c6c([H])c([H])c(Oc7c([H])c([H])c(F)c([H])c7F)c([H])c6[H])c(C(=O)N([H])[H])c5N([H])[H])C4([H])[H])C([H])([H])C([H])([H])C3([H])[H])C3([H])C([H])([H])C([H])([H])C([H])([H])C3([H])[H])c([H])c([H])c2C1([H])[H]

>  <smiles>  (42) 
[H]c1c([H])c([H])c2c(c1[H])C([H])([H])C([H])([H])C([H])([H])C2([H])N([H])C(=O)C1([H])N(C(=O)C([H])(N([H])C(=O)C([H])(N([H])C([H])([H])[H])C([H])([H])[H])C(C([H])([H])[H])(C([H])([H])[H])C([H])([H])[H])C([H])([H])c2c([H])c(OC([H])([H])C([H])(C([H])([H])C([H])([H])N([H])C(=O)C3([H])N(C(=O)N4C([H])([H])C([H])([H])C([H])([H])C([H])(n5nc(-c6c([H])c([H])c(Oc7c([H])c([H])c(F)c([H])c7F)c([H])c6[H])c(C(=O)N([H])[H])c5N([H])[H])C4([H])[H])C([H])([H])C([H])([H])C3([H])[H])C3([H])C([H])([H])C([H])([H])C([H])([H])C3([H])[H])c([H])c([H])c2C1([H])[H]

$$$$
43:0:0
     RDKit          3D

101109  0  0  1  0  0  0  0  0999 V2000
  -27.1570  -18.6810   20.7320 C   0  0  0  0  0  2  0  0  0  0  0  0
  -28.0670  -20.4830   18.8620 C   0  0  0  0  0  2  0  0  0  0  0  0
  -27.2700  -21.1850   21.1340 C   0  0  0  0  0  2  0  0  0  0  0  0
  -27.7270  -21.9310   18.3600 C   0  0  0  0  0  2  0  0  0  0  0  0
  -26.9440  -22.5650   20.5680 C   0  0  0  0  0  2  0  0  0  0  0  0
  -27.1560  -20.1030   20.0670 C   0  0  0  0  0  3  0  0  0  0  0  0
  -27.8720  -22.9260   19.4680 N   0  0  2  0  0  4  0  0  0  0  0  0
  -28.8140  -22.7790   19.8000 H   0  0  0  0  0  0  0  0  0  0  0  0
  -27.8020  -24.3830   19.0970 C   0  0  0  0  0  2  0  0  0  0  0  0
  -28.5730  -25.3140   20.1000 C   0  0  0  0  0  2  0  0  0  0  0  0
  -28.1870  -26.7040   20.1840 O   0  0  0  0  0  0  0  0  0  0  0  0
  -27.8150  -32.0580   24.9540 C   0  0  0  0  0  0  0  0  0  0  0  0
  -27.6530  -27.1860   21.3660 C   0  0  0  0  0  0  0  0  0  0  0  0
  -26.6660  -29.9550   25.5820 C   0  0  0  0  0  3  0  0  0  0  0  0
  -26.4470  -28.2110   23.7280 C   0  0  0  0  0  0  0  0  0  0  0  0
  -26.9870  -30.5740   23.1230 C   0  0  0  0  0  2  0  0  0  0  0  0
  -27.0240  -29.0900   22.8020 C   0  0  0  0  0  0  0  0  0  0  0  0
  -27.6180  -28.5840   21.6190 C   0  0  0  0  0  3  0  0  0  0  0  0
  -27.0760  -26.3250   22.3210 C   0  0  0  0  0  3  0  0  0  0  0  0
  -26.4730  -26.8260   23.4940 C   0  0  0  0  0  3  0  0  0  0  0  0
  -25.8160  -28.8190   24.9580 C   0  0  0  0  0  2  0  0  0  0  0  0
  -27.2030  -30.9030   24.5540 N   0  0  0  0  0  0  0  0  0  0  0  0
  -27.8960  -32.3560   26.1560 O   0  0  0  0  0  0  0  0  0  0  0  0
  -27.7630  -29.3230   26.4670 C   0  0  0  0  0  0  0  0  0  0  0  0
  -27.4920  -29.1900   27.7780 N   0  0  0  0  0  0  0  0  0  0  0  0
  -28.8210  -28.9280   25.9680 O   0  0  0  0  0  0  0  0  0  0  0  0
  -26.6150  -29.5560   28.1240 H   0  0  0  0  0  0  0  0  0  0  0  0
  -27.8940  -28.6400   31.3140 C   0  0  0  0  0  0  0  0  0  0  0  0
  -28.3610  -28.5570   28.7750 C   0  0  0  0  0  3  0  0  0  0  0  0
  -28.0940  -27.0350   28.8640 C   0  0  0  0  0  2  0  0  0  0  0  0
  -27.0670  -26.6810   29.9430 C   0  0  0  0  0  2  0  0  0  0  0  0
  -27.5150  -27.1670   31.3160 C   0  0  0  0  0  2  0  0  0  0  0  0
  -28.2890  -29.2890   30.1200 C   0  0  0  0  0  0  0  0  0  0  0  0
  -28.6300  -30.6590   30.1640 C   0  0  0  0  0  3  0  0  0  0  0  0
  -28.5610  -31.3810   31.3640 C   0  0  0  0  0  3  0  0  0  0  0  0
  -28.1570  -30.7320   32.5450 C   0  0  0  0  0  3  0  0  0  0  0  0
  -27.8370  -29.3620   32.5230 C   0  0  0  0  0  3  0  0  0  0  0  0
  -28.4050  -33.0620   23.9210 C   0  0  0  0  0  3  0  0  0  0  0  0
  -28.0070  -34.4150   24.3350 N   0  0  0  0  0  0  0  0  0  0  0  0
  -26.9870  -35.1040   23.8110 C   0  0  0  0  0  0  0  0  0  0  0  0
  -26.3140  -34.6830   22.8650 O   0  0  0  0  0  0  0  0  0  0  0  0
  -28.4720  -34.7860   25.1500 H   0  0  0  0  0  0  0  0  0  0  0  0
  -25.4610  -36.3190   25.4020 C   0  0  0  0  0  1  0  0  0  0  0  0
  -26.6550  -36.4690   24.4460 C   0  0  0  0  0  3  0  0  0  0  0  0
  -27.5370  -37.9130   22.6670 C   0  0  0  0  0  1  0  0  0  0  0  0
  -26.3670  -37.5210   23.4470 N   0  0  0  0  0  0  0  0  0  0  0  0
  -25.9910  -38.3520   23.8940 H   0  0  0  0  0  0  0  0  0  0  0  0
  -29.9740  -32.9620   23.7920 C   0  0  1  0  0  0  0  0  0  0  0  0
  -30.7110  -32.9790   25.1490 C   0  0  0  0  0  1  0  0  0  0  0  0
  -30.3880  -31.6670   23.0540 C   0  0  0  0  0  1  0  0  0  0  0  0
  -30.5060  -34.1400   22.9440 C   0  0  0  0  0  1  0  0  0  0  0  0
  -28.4510  -18.0110   21.0770 N   0  0  2  0  0  4  0  0  0  0  0  0
  -28.1570  -17.2780   21.7150 H   0  0  0  0  0  0  0  0  0  0  0  0
  -29.4980  -18.7700   21.8170 C   0  0  0  0  0  2  0  0  0  0  0  0
  -29.2550  -18.9770   23.3340 C   0  0  0  0  0  2  0  0  0  0  0  0
  -30.5550  -19.3520   24.0900 C   0  0  0  0  0  2  0  0  0  0  0  0
  -30.3300  -20.2620   25.3170 C   0  0  0  0  0  2  0  0  0  0  0  0
  -31.5480  -20.3700   26.1400 N   0  0  0  0  0  4  0  0  0  0  0  0
  -31.8200  -19.4600   26.4800 H   0  0  0  0  0  0  0  0  0  0  0  0
  -31.3840  -20.9730   26.9240 H   0  0  0  0  0  0  0  0  0  0  0  0
  -32.3180  -20.7550   25.6160 H   0  0  0  0  0  0  0  0  0  0  0  0
  -29.0030  -17.2730   19.9290 C   0  0  0  0  0  2  0  0  0  0  0  0
  -29.4020  -15.8570   20.3390 C   0  0  0  0  0  2  0  0  0  0  0  0
  -30.6830  -14.1140   18.9940 C   0  0  0  0  0  0  0  0  0  0  0  0
  -29.9360  -12.0260   17.9830 C   0  0  0  0  0  2  0  0  0  0  0  0
  -28.7300  -12.2770   17.0610 C   0  0  0  0  0  2  0  0  0  0  0  0
  -27.4120  -12.2180   17.8590 C   0  0  0  0  0  2  0  0  0  0  0  0
  -27.4490  -13.0670   19.1600 C   0  0  0  0  0  3  0  0  0  0  0  0
  -28.7450  -12.7700   19.9540 C   0  0  0  0  0  2  0  0  0  0  0  0
  -29.8840  -13.0240   19.0610 N   0  0  0  0  0  0  0  0  0  0  0  0
  -31.7140  -14.1690   18.3330 O   0  0  0  0  0  0  0  0  0  0  0  0
  -30.1260  -15.3020   19.2200 N   0  0  0  0  0  0  0  0  0  0  0  0
  -30.6590  -16.0090   18.7330 H   0  0  0  0  0  0  0  0  0  0  0  0
  -25.4030  -13.7870   20.5550 C   0  0  0  0  0  0  0  0  0  0  0  0
  -24.3850  -13.0640   21.1260 C   0  0  0  0  0  0  0  0  0  0  0  0
  -24.6640  -11.6960   20.8350 C   0  0  0  0  0  0  0  0  0  0  0  0
  -26.2450  -12.8540   19.9630 N   0  0  0  0  0  0  0  0  0  0  0  0
  -25.8170  -11.5890   20.1850 N   0  0  0  0  0  0  0  0  0  0  0  0
  -23.8730  -10.4820   21.0860 C   0  0  0  0  0  0  0  0  0  0  0  0
  -24.3950   -9.4010   21.8310 C   0  0  0  0  0  3  0  0  0  0  0  0
  -23.6090   -8.2550   22.0750 C   0  0  0  0  0  3  0  0  0  0  0  0
  -22.2880   -8.1810   21.5760 C   0  0  0  0  0  0  0  0  0  0  0  0
  -21.7810   -9.2500   20.8170 C   0  0  0  0  0  3  0  0  0  0  0  0
  -22.5640  -10.3900   20.5690 C   0  0  0  0  0  3  0  0  0  0  0  0
  -21.4590   -7.0970   21.7430 O   0  0  0  0  0  0  0  0  0  0  0  0
  -21.5450   -6.2890   22.8470 C   0  0  0  0  0  0  0  0  0  0  0  0
  -21.4040   -6.8020   24.1560 C   0  0  0  0  0  3  0  0  0  0  0  0
  -21.4280   -5.9280   25.2610 C   0  0  0  0  0  3  0  0  0  0  0  0
  -21.5840   -4.5440   25.0620 C   0  0  0  0  0  0  0  0  0  0  0  0
  -21.7220   -4.0310   23.7600 C   0  0  0  0  0  3  0  0  0  0  0  0
  -21.7000   -4.9010   22.6560 C   0  0  0  0  0  0  0  0  0  0  0  0
  -21.8100   -4.4000   21.4030 F   0  0  0  0  0  0  0  0  0  0  0  0
  -21.6010   -3.7020   26.1230 F   0  0  0  0  0  0  0  0  0  0  0  0
  -23.1700  -13.6200   21.8080 C   0  0  0  0  0  0  0  0  0  0  0  0
  -22.6280  -12.8970   22.7840 N   0  0  0  0  0  0  0  0  0  0  0  0
  -22.7240  -14.7280   21.5130 O   0  0  0  0  0  0  0  0  0  0  0  0
  -23.0120  -12.0020   23.0450 H   0  0  0  0  0  0  0  0  0  0  0  0
  -21.8210  -13.2520   23.2790 H   0  0  0  0  0  0  0  0  0  0  0  0
  -25.6570  -15.1520   20.4690 N   0  0  0  0  0  0  0  0  0  0  0  0
  -24.8620  -15.7410   20.6900 H   0  0  0  0  0  0  0  0  0  0  0  0
  -26.1500  -15.4790   19.6480 H   0  0  0  0  0  0  0  0  0  0  0  0
  1 52  1  0
  2  6  1  0
  4  2  1  0
  4  7  1  0
  5  3  1  0
  6  1  1  0
  6  3  1  0
  7  8  1  1
  7  5  1  0
  9  7  1  0
  9 10  1  0
 10 11  1  0
 11 13  1  0
 12 23  2  0
 13 18  2  0
 13 19  1  0
 14 24  1  0
 15 21  1  0
 16 22  1  0
 17 16  1  0
 17 15  2  0
 18 17  1  0
 19 20  2  0
 20 15  1  0
 21 14  1  0
 22 12  1  0
 22 14  1  0
 24 25  1  0
 25 27  1  0
 26 24  2  0
 28 32  1  0
 28 37  1  0
 29 25  1  0
 29 30  1  0
 29 33  1  0
 30 31  1  0
 31 32  1  0
 33 34  1  0
 33 28  2  0
 34 35  2  0
 35 36  1  0
 37 36  2  0
 38 39  1  0
 38 12  1  0
 39 42  1  0
 40 39  1  0
 40 44  1  0
 41 40  2  0
 44 43  1  0
 45 46  1  0
 46 47  1  0
 46 44  1  0
 48 38  1  0
 48 49  1  1
 50 48  1  0
 51 48  1  0
 52 53  1  1
 52 54  1  0
 54 55  1  0
 55 56  1  0
 56 57  1  0
 57 58  1  0
 58 59  1  0
 58 60  1  0
 61 58  1  0
 62 63  1  0
 62 52  1  0
 64 70  1  0
 64 72  1  0
 65 70  1  0
 66 67  1  0
 66 65  1  0
 68 67  1  0
 68 69  1  0
 68 77  1  0
 70 69  1  0
 71 64  2  0
 72 63  1  0
 73 72  1  0
 74 75  2  0
 75 94  1  0
 76 79  1  0
 76 75  1  0
 77 78  1  0
 77 74  1  0
 78 76  2  0
 79 80  1  0
 80 81  2  0
 82 85  1  0
 82 81  1  0
 83 82  2  0
 84 83  1  0
 84 79  2  0
 85 86  1  0
 86 87  1  0
 87 88  2  0
 89 88  1  0
 89 93  1  0
 90 89  2  0
 91 86  2  0
 91 90  1  0
 92 91  1  0
 94 95  1  0
 95 97  1  0
 95 98  1  0
 96 94  2  0
 99 74  1  0
 99100  1  0
101 99  1  0
M  ISO  4  10 101  11 101  64 100  72 100
M  END
>  <TORSDO>  (43) 
F 27

>  <SCORE>  (43) 
5.544

>  <name>  (43) 
43

>  <ligand_id>  (43) 
43

>  <original_smiles>  (43) 
[H]c1c([H])c([H])c2c(c1[H])C([H])([H])C([H])([H])C([H])([H])C2([H])N([H])C(=O)C1([H])N(C(=O)C([H])(N([H])C(=O)C([H])(N([H])C([H])([H])[H])C([H])([H])[H])C(C([H])([H])[H])(C([H])([H])[H])C([H])([H])[H])C([H])([H])c2c([H])c(OC([H])([H])C([H])([H])[N+]3([H])C([H])([H])C([H])([H])C([H])(C([H])([H])[N+]([H])(C([H])([H])C([H])([H])N([H])C(=O)N4C([H])([H])C([H])([H])C([H])([H])C([H])(n5nc(-c6c([H])c([H])c(Oc7c([H])c([H])c(F)c([H])c7F)c([H])c6[H])c(C(=O)N([H])[H])c5N([H])[H])C4([H])[H])C([H])([H])C([H])([H])C([H])([H])C([H])([H])[N+]([H])([H])[H])C([H])([H])C3([H])[H])c([H])c([H])c2C1([H])[H]

>  <smiles>  (43) 
[H]c1c([H])c([H])c2c(c1[H])C([H])([H])C([H])([H])C([H])([H])C2([H])N([H])C(=O)C1([H])N(C(=O)C([H])(N([H])C(=O)C([H])(N([H])C([H])([H])[H])C([H])([H])[H])C(C([H])([H])[H])(C([H])([H])[H])C([H])([H])[H])C([H])([H])c2c([H])c(OC([H])([H])C([H])([H])[N+]3([H])C([H])([H])C([H])([H])C([H])(C([H])([H])[N+]([H])(C([H])([H])C([H])([H])N([H])C(=O)N4C([H])([H])C([H])([H])C([H])([H])C([H])(n5nc(-c6c([H])c([H])c(Oc7c([H])c([H])c(F)c([H])c7F)c([H])c6[H])c(C(=O)N([H])[H])c5N([H])[H])C4([H])[H])C([H])([H])C([H])([H])C([H])([H])C([H])([H])[N+]([H])([H])[H])C([H])([H])C3([H])[H])c([H])c([H])c2C1([H])[H]

$$$$
44:0:0
     RDKit          3D

103111  0  0  1  0  0  0  0  0999 V2000
  -29.8720  -18.9890   19.2040 C   0  0  0  0  0  3  0  0  0  0  0  0
  -28.2260  -22.4930   20.6170 C   0  0  0  0  0  2  0  0  0  0  0  0
  -29.6700  -23.0230   18.7230 C   0  0  0  0  0  2  0  0  0  0  0  0
  -28.9340  -21.0490   20.7620 C   0  0  0  0  0  2  0  0  0  0  0  0
  -30.3610  -21.5930   18.9230 C   0  0  0  0  0  2  0  0  0  0  0  0
  -29.0190  -23.7190   19.9760 C   0  0  0  0  0  3  0  0  0  0  0  0
  -29.4620  -20.5040   19.4640 N   0  0  1  0  0  4  0  0  0  0  0  0
  -28.6360  -20.5690   18.8920 H   0  0  0  0  0  0  0  0  0  0  0  0
  -28.1090  -25.0850   19.6870 C   0  0  0  0  0  2  0  0  0  0  0  0
  -28.4230  -26.5660   19.9240 O   0  0  0  0  0  0  0  0  0  0  0  0
  -24.7840  -31.9140   23.3680 C   0  0  0  0  0  0  0  0  0  0  0  0
  -27.3470  -27.5140   19.9410 C   0  0  0  0  0  0  0  0  0  0  0  0
  -23.5660  -30.6410   21.6460 C   0  0  0  0  0  3  0  0  0  0  0  0
  -25.0000  -29.2040   20.0800 C   0  0  0  0  0  0  0  0  0  0  0  0
  -26.1140  -30.9500   21.4610 C   0  0  0  0  0  2  0  0  0  0  0  0
  -26.1840  -29.6190   20.7020 C   0  0  0  0  0  0  0  0  0  0  0  0
  -27.3610  -28.7930   20.6140 C   0  0  0  0  0  3  0  0  0  0  0  0
  -26.1320  -27.1890   19.2950 C   0  0  0  0  0  3  0  0  0  0  0  0
  -24.9830  -28.0010   19.3640 C   0  0  0  0  0  3  0  0  0  0  0  0
  -23.7650  -30.0770   20.2160 C   0  0  0  0  0  2  0  0  0  0  0  0
  -24.8420  -31.1850   22.2140 N   0  0  0  0  0  0  0  0  0  0  0  0
  -23.7050  -32.1510   23.9320 O   0  0  0  0  0  0  0  0  0  0  0  0
  -22.9110  -29.5550   22.5350 C   0  0  0  0  0  0  0  0  0  0  0  0
  -21.5940  -29.3410   22.3660 N   0  0  0  0  0  0  0  0  0  0  0  0
  -23.5910  -28.9110   23.3390 O   0  0  0  0  0  0  0  0  0  0  0  0
  -21.1050  -29.9140   21.6930 H   0  0  0  0  0  0  0  0  0  0  0  0
  -18.2650  -27.9480   22.6630 C   0  0  0  0  0  0  0  0  0  0  0  0
  -20.7900  -28.3370   23.0660 C   0  0  0  0  0  3  0  0  0  0  0  0
  -20.9970  -26.9310   22.4530 C   0  0  0  0  0  2  0  0  0  0  0  0
  -19.9650  -26.5850   21.3760 C   0  0  0  0  0  2  0  0  0  0  0  0
  -18.5470  -26.6350   21.9540 C   0  0  0  0  0  2  0  0  0  0  0  0
  -19.3170  -28.7550   23.1700 C   0  0  0  0  0  0  0  0  0  0  0  0
  -19.0000  -29.9840   23.7880 C   0  0  0  0  0  3  0  0  0  0  0  0
  -17.6620  -30.4060   23.9090 C   0  0  0  0  0  3  0  0  0  0  0  0
  -16.6230  -29.5950   23.4200 C   0  0  0  0  0  3  0  0  0  0  0  0
  -16.9260  -28.3680   22.8020 C   0  0  0  0  0  3  0  0  0  0  0  0
  -26.0700  -32.5060   24.0230 C   0  0  0  0  0  3  0  0  0  0  0  0
  -26.5210  -31.7250   25.3200 C   0  0  1  0  0  0  0  0  0  0  0  0
  -25.3930  -31.5430   26.3630 C   0  0  0  0  0  1  0  0  0  0  0  0
  -27.0530  -30.3190   24.9580 C   0  0  0  0  0  1  0  0  0  0  0  0
  -27.6890  -32.4760   26.0010 C   0  0  0  0  0  1  0  0  0  0  0  0
  -25.8030  -33.9160   24.3410 N   0  0  0  0  0  0  0  0  0  0  0  0
  -26.1780  -34.9540   23.5820 C   0  0  0  0  0  0  0  0  0  0  0  0
  -26.8550  -34.8230   22.5600 O   0  0  0  0  0  0  0  0  0  0  0  0
  -25.2050  -34.0940   25.1340 H   0  0  0  0  0  0  0  0  0  0  0  0
  -24.5120  -36.8040   23.2030 C   0  0  0  0  0  1  0  0  0  0  0  0
  -25.7320  -36.3630   24.0270 C   0  0  0  0  0  3  0  0  0  0  0  0
  -27.8770  -37.1940   24.8840 C   0  0  0  0  0  1  0  0  0  0  0  0
  -26.7990  -37.3810   23.9190 N   0  0  0  0  0  0  0  0  0  0  0  0
  -26.4190  -38.3160   24.0440 H   0  0  0  0  0  0  0  0  0  0  0  0
  -29.0750  -18.4570   17.9780 C   0  0  0  0  0  2  0  0  0  0  0  0
  -29.3430  -19.1940   16.6410 C   0  0  0  0  0  2  0  0  0  0  0  0
  -28.5530  -18.6510   15.5190 N   0  0  0  0  0  4  0  0  0  0  0  0
  -28.7130  -17.6670   15.3990 H   0  0  0  0  0  0  0  0  0  0  0  0
  -28.8230  -19.1090   14.6650 H   0  0  0  0  0  0  0  0  0  0  0  0
  -27.5700  -18.8090   15.6490 H   0  0  0  0  0  0  0  0  0  0  0  0
  -29.9040  -17.8250   20.3730 C   0  0  0  0  0  3  0  0  0  0  0  0
  -30.6770  -15.2010   19.7560 C   0  0  0  0  0  0  0  0  0  0  0  0
  -30.5210  -12.9000   18.7270 C   0  0  0  0  0  2  0  0  0  0  0  0
  -29.4670  -12.8970   17.5960 C   0  0  0  0  0  2  0  0  0  0  0  0
  -28.0530  -12.6450   18.1590 C   0  0  0  0  0  2  0  0  0  0  0  0
  -27.7500  -13.5190   19.4040 C   0  0  0  0  0  3  0  0  0  0  0  0
  -28.9100  -13.4860   20.4230 C   0  0  0  0  0  2  0  0  0  0  0  0
  -30.1180  -13.9340   19.7130 N   0  0  0  0  0  0  0  0  0  0  0  0
  -31.8330  -15.3550   19.3530 O   0  0  0  0  0  0  0  0  0  0  0  0
  -29.8390  -16.2810   20.0780 N   0  0  0  0  0  0  0  0  0  0  0  0
  -28.9130  -15.9280   20.2670 H   0  0  0  0  0  0  0  0  0  0  0  0
  -25.4460  -14.0280   20.4070 C   0  0  0  0  0  0  0  0  0  0  0  0
  -24.4330  -13.2190   20.8430 C   0  0  0  0  0  0  0  0  0  0  0  0
  -24.9040  -11.8790   20.6900 C   0  0  0  0  0  0  0  0  0  0  0  0
  -26.4680  -13.1790   20.0150 N   0  0  0  0  0  0  0  0  0  0  0  0
  -26.1560  -11.8770   20.2480 N   0  0  0  0  0  0  0  0  0  0  0  0
  -24.2120  -10.5970   20.8790 C   0  0  0  0  0  0  0  0  0  0  0  0
  -24.6420   -9.6590   21.8460 C   0  0  0  0  0  3  0  0  0  0  0  0
  -23.9490   -8.4420   22.0200 C   0  0  0  0  0  3  0  0  0  0  0  0
  -22.8110   -8.1540   21.2310 C   0  0  0  0  0  0  0  0  0  0  0  0
  -22.4010   -9.0790   20.2530 C   0  0  0  0  0  3  0  0  0  0  0  0
  -23.0960  -10.2870   20.0760 C   0  0  0  0  0  3  0  0  0  0  0  0
  -22.0880   -6.9890   21.3150 O   0  0  0  0  0  0  0  0  0  0  0  0
  -21.8800   -6.3560   22.5150 C   0  0  0  0  0  0  0  0  0  0  0  0
  -21.1850   -6.9780   23.5750 C   0  0  0  0  0  3  0  0  0  0  0  0
  -20.9350   -6.2660   24.7660 C   0  0  0  0  0  3  0  0  0  0  0  0
  -21.3680   -4.9340   24.8940 C   0  0  0  0  0  0  0  0  0  0  0  0
  -22.0550   -4.3110   23.8380 C   0  0  0  0  0  3  0  0  0  0  0  0
  -22.3070   -5.0200   22.6500 C   0  0  0  0  0  0  0  0  0  0  0  0
  -22.9520   -4.4070   21.6270 F   0  0  0  0  0  0  0  0  0  0  0  0
  -21.1210   -4.2470   26.0360 F   0  0  0  0  0  0  0  0  0  0  0  0
  -23.0660  -13.6600   21.2800 C   0  0  0  0  0  0  0  0  0  0  0  0
  -22.4490  -12.9320   22.2040 N   0  0  0  0  0  0  0  0  0  0  0  0
  -22.5550  -14.6860   20.8360 O   0  0  0  0  0  0  0  0  0  0  0  0
  -22.8760  -12.1020   22.5880 H   0  0  0  0  0  0  0  0  0  0  0  0
  -21.5340  -13.2110   22.5350 H   0  0  0  0  0  0  0  0  0  0  0  0
  -25.5740  -15.4080   20.2840 N   0  0  0  0  0  0  0  0  0  0  0  0
  -24.8010  -16.0320   20.4910 H   0  0  0  0  0  0  0  0  0  0  0  0
  -26.3490  -15.8740   19.8310 H   0  0  0  0  0  0  0  0  0  0  0  0
  -31.0130  -18.1340   21.4060 C   0  0  0  0  0  2  0  0  0  0  0  0
  -30.5750  -17.9440   22.8730 C   0  0  0  0  0  2  0  0  0  0  0  0
  -31.1590  -19.0340   23.7930 C   0  0  0  0  0  2  0  0  0  0  0  0
  -30.7640  -18.9050   25.2800 C   0  0  0  0  0  2  0  0  0  0  0  0
  -29.3080  -18.9410   25.5030 N   0  0  0  0  0  4  0  0  0  0  0  0
  -28.8970  -19.7630   25.0980 H   0  0  0  0  0  0  0  0  0  0  0  0
  -29.1220  -18.9620   26.4910 H   0  0  0  0  0  0  0  0  0  0  0  0
  -28.8600  -18.1280   25.1240 H   0  0  0  0  0  0  0  0  0  0  0  0
  1 51  1  0
  1  7  1  0
  1 57  1  0
  2  4  1  0
  3  5  1  0
  3  6  1  0
  5  7  1  0
  6  9  1  0
  6  2  1  0
  7  4  1  0
  7  8  1  6
  9 10  1  0
 10 12  1  0
 11 22  2  0
 12 17  1  0
 13 21  1  0
 13 23  1  0
 14 20  1  0
 14 16  1  0
 15 21  1  0
 16 15  1  0
 17 16  2  0
 18 19  1  0
 18 12  2  0
 19 14  2  0
 20 13  1  0
 21 11  1  0
 23 25  2  0
 24 23  1  0
 26 24  1  0
 27 36  2  0
 27 32  1  0
 28 24  1  0
 28 32  1  0
 29 28  1  0
 30 31  1  0
 30 29  1  0
 31 27  1  0
 32 33  2  0
 33 34  1  0
 35 34  2  0
 36 35  1  0
 37 11  1  0
 37 42  1  0
 37 38  1  0
 38 41  1  1
 38 39  1  0
 40 38  1  0
 42 45  1  0
 43 47  1  0
 43 42  1  0
 44 43  2  0
 47 46  1  0
 49 47  1  0
 49 50  1  0
 49 48  1  0
 52 51  1  0
 53 56  1  0
 53 52  1  0
 54 53  1  0
 55 53  1  0
 57 96  1  0
 58 66  1  0
 59 64  1  0
 60 61  1  0
 60 59  1  0
 62 61  1  0
 62 71  1  0
 62 63  1  0
 64 58  1  0
 64 63  1  0
 65 58  2  0
 66 67  1  0
 66 57  1  0
 68 69  2  0
 69 88  1  0
 70 69  1  0
 70 73  1  0
 71 72  1  0
 71 68  1  0
 72 70  2  0
 73 74  1  0
 74 75  2  0
 76 79  1  0
 76 75  1  0
 77 76  2  0
 78 77  1  0
 78 73  2  0
 79 80  1  0
 80 85  2  0
 80 81  1  0
 81 82  2  0
 82 83  1  0
 83 87  1  0
 84 83  2  0
 85 84  1  0
 86 85  1  0
 88 89  1  0
 89 92  1  0
 89 91  1  0
 90 88  2  0
 93 68  1  0
 93 94  1  0
 95 93  1  0
 96 97  1  0
 97 98  1  0
 98 99  1  0
 99100  1  0
100102  1  0
101100  1  0
103100  1  0
M  ISO  4   9 101  10 101  58 100  66 100
M  END
>  <TORSDO>  (44) 
F 27

>  <SCORE>  (44) 
-8.552

>  <name>  (44) 
44

>  <ligand_id>  (44) 
44

>  <original_smiles>  (44) 
[H]c1c([H])c([H])c2c(c1[H])C([H])([H])C([H])([H])C([H])([H])C2([H])N([H])C(=O)C1([H])N(C(=O)C([H])(N([H])C(=O)C([H])(N([H])C([H])([H])[H])C([H])([H])[H])C(C([H])([H])[H])(C([H])([H])[H])C([H])([H])[H])C([H])([H])c2c([H])c(OC([H])([H])C3([H])C([H])([H])C([H])([H])[N+]([H])(C([H])(C([H])([H])C([H])([H])[N+]([H])([H])[H])C([H])(N([H])C(=O)N4C([H])([H])C([H])([H])C([H])([H])C([H])(n5nc(-c6c([H])c([H])c(Oc7c([H])c([H])c(F)c([H])c7F)c([H])c6[H])c(C(=O)N([H])[H])c5N([H])[H])C4([H])[H])C([H])([H])C([H])([H])C([H])([H])C([H])([H])[N+]([H])([H])[H])C([H])([H])C3([H])[H])c([H])c([H])c2C1([H])[H]

>  <smiles>  (44) 
[H]c1c([H])c([H])c2c(c1[H])C([H])([H])C([H])([H])C([H])([H])C2([H])N([H])C(=O)C1([H])N(C(=O)C([H])(N([H])C(=O)C([H])(N([H])C([H])([H])[H])C([H])([H])[H])C(C([H])([H])[H])(C([H])([H])[H])C([H])([H])[H])C([H])([H])c2c([H])c(OC([H])([H])C3([H])C([H])([H])C([H])([H])[N+]([H])(C([H])(C([H])([H])C([H])([H])[N+]([H])([H])[H])C([H])(N([H])C(=O)N4C([H])([H])C([H])([H])C([H])([H])C([H])(n5nc(-c6c([H])c([H])c(Oc7c([H])c([H])c(F)c([H])c7F)c([H])c6[H])c(C(=O)N([H])[H])c5N([H])[H])C4([H])[H])C([H])([H])C([H])([H])C([H])([H])C([H])([H])[N+]([H])([H])[H])C([H])([H])C3([H])[H])c([H])c([H])c2C1([H])[H]

$$$$
45:0:0
     RDKit          3D

 97106  0  0  1  0  0  0  0  0999 V2000
  -29.1990  -18.1960   20.7070 C   0  0  0  0  0  0  0  0  0  0  0  0
  -27.9220  -17.7770   20.6750 N   0  0  0  0  0  4  0  0  0  0  0  0
  -29.4720  -19.5400   20.5540 N   0  0  0  0  0  0  0  0  0  0  0  0
  -27.6930  -16.8190   20.8970 H   0  0  0  0  0  0  0  0  0  0  0  0
  -27.1430  -18.4140   20.6030 H   0  0  0  0  0  0  0  0  0  0  0  0
  -30.4180  -19.8380   20.7570 H   0  0  0  0  0  0  0  0  0  0  0  0
  -30.6800  -14.6330   20.5010 C   0  0  0  0  0  0  0  0  0  0  0  0
  -30.4160  -12.3890   19.5000 C   0  0  0  0  0  2  0  0  0  0  0  0
  -29.5150  -12.4590   18.2500 C   0  0  0  0  0  2  0  0  0  0  0  0
  -28.0300  -12.3450   18.6440 C   0  0  0  0  0  2  0  0  0  0  0  0
  -27.6380  -13.2620   19.8330 C   0  0  0  0  0  3  0  0  0  0  0  0
  -28.6620  -13.1830   20.9850 C   0  0  0  0  0  2  0  0  0  0  0  0
  -29.9820  -13.4610   20.4130 N   0  0  0  0  0  0  0  0  0  0  0  0
  -31.9060  -14.6350   20.3810 O   0  0  0  0  0  0  0  0  0  0  0  0
  -31.1920  -17.2280   18.7650 C   0  0  0  0  0  0  0  0  0  0  0  0
  -31.5490  -17.6200   20.1660 C   0  0  0  0  0  2  0  0  0  0  0  0
  -30.0590  -16.2260   18.8450 C   0  0  0  0  0  2  0  0  0  0  0  0
  -30.3030  -17.1200   20.9230 C   0  0  0  0  0  3  0  0  0  0  0  0
  -31.7420  -17.6390   17.7060 N   0  0  0  0  0  0  0  0  0  0  0  0
  -29.9830  -15.8000   20.2600 N   0  0  0  0  0  0  0  0  0  0  0  0
  -32.4950  -18.2970   17.8860 H   0  0  0  0  0  0  0  0  0  0  0  0
  -25.2330  -13.8780   20.4850 C   0  0  0  0  0  0  0  0  0  0  0  0
  -24.1540  -13.1150   20.8420 C   0  0  0  0  0  0  0  0  0  0  0  0
  -24.6140  -11.7620   20.8470 C   0  0  0  0  0  0  0  0  0  0  0  0
  -26.2800  -12.9920   20.2930 N   0  0  0  0  0  0  0  0  0  0  0  0
  -25.9130  -11.7160   20.5780 N   0  0  0  0  0  0  0  0  0  0  0  0
  -23.8800  -10.5030   21.0310 C   0  0  0  0  0  0  0  0  0  0  0  0
  -24.2890   -9.5430   21.9820 C   0  0  0  0  0  3  0  0  0  0  0  0
  -23.5560   -8.3490   22.1560 C   0  0  0  0  0  3  0  0  0  0  0  0
  -22.3990   -8.1080   21.3770 C   0  0  0  0  0  0  0  0  0  0  0  0
  -22.0090   -9.0570   20.4150 C   0  0  0  0  0  3  0  0  0  0  0  0
  -22.7440  -10.2420   20.2390 C   0  0  0  0  0  3  0  0  0  0  0  0
  -21.6380   -6.9660   21.4590 O   0  0  0  0  0  0  0  0  0  0  0  0
  -21.5680   -6.2310   22.6150 C   0  0  0  0  0  0  0  0  0  0  0  0
  -21.1250   -6.7950   23.8310 C   0  0  0  0  0  3  0  0  0  0  0  0
  -21.0000   -5.9860   24.9780 C   0  0  0  0  0  3  0  0  0  0  0  0
  -21.3070   -4.6130   24.9090 C   0  0  0  0  0  0  0  0  0  0  0  0
  -21.7430   -4.0490   23.6980 C   0  0  0  0  0  3  0  0  0  0  0  0
  -21.8690   -4.8550   22.5520 C   0  0  0  0  0  0  0  0  0  0  0  0
  -22.2680   -4.3010   21.3820 F   0  0  0  0  0  0  0  0  0  0  0  0
  -21.1810   -3.8340   26.0090 F   0  0  0  0  0  0  0  0  0  0  0  0
  -22.7480  -13.5980   21.0510 C   0  0  0  0  0  0  0  0  0  0  0  0
  -21.9850  -12.9190   21.9010 N   0  0  0  0  0  0  0  0  0  0  0  0
  -22.3330  -14.6120   20.4940 O   0  0  0  0  0  0  0  0  0  0  0  0
  -22.3320  -12.0980   22.3770 H   0  0  0  0  0  0  0  0  0  0  0  0
  -21.0390  -13.2250   22.0780 H   0  0  0  0  0  0  0  0  0  0  0  0
  -25.4070  -15.2430   20.2720 N   0  0  0  0  0  0  0  0  0  0  0  0
  -24.5740  -15.8230   20.2480 H   0  0  0  0  0  0  0  0  0  0  0  0
  -26.1030  -15.5470   19.6040 H   0  0  0  0  0  0  0  0  0  0  0  0
  -28.6650  -20.5650   19.8070 C   0  0  0  0  0  2  0  0  0  0  0  0
  -29.6580  -22.8950   20.7700 C   0  0  0  0  0  2  0  0  0  0  0  0
  -27.5770  -22.8370   19.3410 C   0  0  0  0  0  2  0  0  0  0  0  0
  -29.3260  -24.3900   21.1700 C   0  0  0  0  0  2  0  0  0  0  0  0
  -28.0470  -24.2950   19.0460 C   0  0  0  0  0  2  0  0  0  0  0  0
  -28.4250  -22.0270   20.3810 C   0  0  0  0  0  3  0  0  0  0  0  0
  -28.1880  -25.0950   20.3620 C   0  0  0  0  0  3  0  0  0  0  0  0
  -28.3660  -26.5550   20.2410 O   0  0  0  0  0  0  0  0  0  0  0  0
  -24.6120  -31.9180   23.2450 C   0  0  0  0  0  0  0  0  0  0  0  0
  -27.2300  -27.3720   20.2110 C   0  0  0  0  0  0  0  0  0  0  0  0
  -23.4110  -30.5170   21.6050 C   0  0  0  0  0  3  0  0  0  0  0  0
  -24.8640  -28.9690   20.1940 C   0  0  0  0  0  0  0  0  0  0  0  0
  -25.9500  -30.8440   21.4230 C   0  0  0  0  0  2  0  0  0  0  0  0
  -26.0320  -29.4660   20.7830 C   0  0  0  0  0  0  0  0  0  0  0  0
  -27.2230  -28.6830   20.7740 C   0  0  0  0  0  3  0  0  0  0  0  0
  -26.0270  -26.9150   19.6260 C   0  0  0  0  0  3  0  0  0  0  0  0
  -24.8610  -27.6970   19.6070 C   0  0  0  0  0  3  0  0  0  0  0  0
  -23.6280  -29.8400   20.2280 C   0  0  0  0  0  2  0  0  0  0  0  0
  -24.6770  -31.1090   22.1480 N   0  0  0  0  0  0  0  0  0  0  0  0
  -23.5260  -32.1970   23.7750 O   0  0  0  0  0  0  0  0  0  0  0  0
  -22.7470  -29.5010   22.5640 C   0  0  0  0  0  0  0  0  0  0  0  0
  -21.4210  -29.3260   22.4330 N   0  0  0  0  0  0  0  0  0  0  0  0
  -23.4220  -28.8720   23.3830 O   0  0  0  0  0  0  0  0  0  0  0  0
  -20.9360  -29.8850   21.7450 H   0  0  0  0  0  0  0  0  0  0  0  0
  -18.0360  -28.1580   22.9350 C   0  0  0  0  0  0  0  0  0  0  0  0
  -20.5950  -28.3940   23.2030 C   0  0  0  0  0  3  0  0  0  0  0  0
  -20.6840  -26.9630   22.6260 C   0  0  0  0  0  2  0  0  0  0  0  0
  -19.5790  -26.6500   21.6120 C   0  0  0  0  0  2  0  0  0  0  0  0
  -18.1990  -26.8070   22.2570 C   0  0  0  0  0  2  0  0  0  0  0  0
  -19.1610  -28.9090   23.3650 C   0  0  0  0  0  0  0  0  0  0  0  0
  -18.9540  -30.1740   23.9570 C   0  0  0  0  0  3  0  0  0  0  0  0
  -17.6540  -30.6880   24.1240 C   0  0  0  0  0  3  0  0  0  0  0  0
  -16.5420  -29.9320   23.7100 C   0  0  0  0  0  3  0  0  0  0  0  0
  -16.7340  -28.6700   23.1220 C   0  0  0  0  0  3  0  0  0  0  0  0
  -25.8930  -32.5500   23.8700 C   0  0  0  0  0  3  0  0  0  0  0  0
  -25.5850  -33.9480   24.1960 N   0  0  0  0  0  0  0  0  0  0  0  0
  -25.9190  -34.9990   23.4350 C   0  0  0  0  0  0  0  0  0  0  0  0
  -26.5920  -34.8910   22.4050 O   0  0  0  0  0  0  0  0  0  0  0  0
  -24.9880  -34.1050   24.9940 H   0  0  0  0  0  0  0  0  0  0  0  0
  -24.1950  -36.7930   23.0680 C   0  0  0  0  0  1  0  0  0  0  0  0
  -25.4320  -36.3880   23.8870 C   0  0  0  0  0  3  0  0  0  0  0  0
  -27.5630  -37.2720   24.7260 C   0  0  0  0  0  1  0  0  0  0  0  0
  -26.4670  -37.4390   23.7760 N   0  0  0  0  0  0  0  0  0  0  0  0
  -26.0610  -38.3610   23.9190 H   0  0  0  0  0  0  0  0  0  0  0  0
  -26.4030  -31.7790   25.1490 C   0  0  1  0  0  0  0  0  0  0  0  0
  -25.3060  -31.5430   26.2120 C   0  0  0  0  0  1  0  0  0  0  0  0
  -26.9880  -30.4010   24.7600 C   0  0  0  0  0  1  0  0  0  0  0  0
  -27.5520  -32.5740   25.8160 C   0  0  0  0  0  1  0  0  0  0  0  0
  2  1  2  0
  2  4  1  0
  3  1  1  0
  3  6  1  0
  5  2  1  0
  8 13  1  0
  9 10  1  0
  9  8  1  0
 11 10  1  0
 11 25  1  0
 11 12  1  0
 13  7  1  0
 13 12  1  0
 14  7  2  0
 15 17  1  0
 15 16  1  0
 16 18  1  0
 17 20  1  0
 18  1  1  0
 19 21  1  0
 19 15  2  0
 20  7  1  0
 20 18  1  0
 22 23  2  0
 23 24  1  0
 23 42  1  0
 24 27  1  0
 25 22  1  0
 25 26  1  0
 26 24  2  0
 27 28  1  0
 28 29  2  0
 30 33  1  0
 30 29  1  0
 31 30  2  0
 32 31  1  0
 32 27  2  0
 33 34  1  0
 34 35  1  0
 35 36  2  0
 37 36  1  0
 37 41  1  0
 38 37  2  0
 39 34  2  0
 39 38  1  0
 40 39  1  0
 42 43  1  0
 43 46  1  0
 43 45  1  0
 44 42  2  0
 47 22  1  0
 48 47  1  0
 49 47  1  0
 50  3  1  0
 51 53  1  0
 52 55  1  0
 54 52  1  0
 54 56  1  0
 55 50  1  0
 55 51  1  0
 56 57  1  0
 56 53  1  0
 58 69  2  0
 59 57  1  0
 59 64  1  0
 60 68  1  0
 60 70  1  0
 61 67  1  0
 61 63  1  0
 62 68  1  0
 63 62  1  0
 64 63  2  0
 65 59  2  0
 66 65  1  0
 66 61  2  0
 67 60  1  0
 68 58  1  0
 70 72  2  0
 71 70  1  0
 73 71  1  0
 74 83  2  0
 74 79  1  0
 75 71  1  0
 75 79  1  0
 76 75  1  0
 77 78  1  0
 77 76  1  0
 78 74  1  0
 79 80  2  0
 80 81  1  0
 82 81  2  0
 83 82  1  0
 84 58  1  0
 84 85  1  0
 84 94  1  0
 85 88  1  0
 86 90  1  0
 86 85  1  0
 87 86  2  0
 90 89  1  0
 92 90  1  0
 92 93  1  0
 92 91  1  0
 94 97  1  1
 94 95  1  0
 96 94  1  0
M  ISO  4   7 100  20 100  56 101  57 101
M  END
>  <TORSDO>  (45) 
F 18

>  <SCORE>  (45) 
-14.805

>  <name>  (45) 
45

>  <ligand_id>  (45) 
45

>  <original_smiles>  (45) 
[H]N=C1C([H])([H])N(C(=O)N2C([H])([H])C([H])([H])C([H])([H])C([H])(n3nc(-c4c([H])c([H])c(Oc5c([H])c([H])c(F)c([H])c5F)c([H])c4[H])c(C(=O)N([H])[H])c3N([H])[H])C2([H])[H])C([H])(C(N([H])[H])=[N+]([H])C([H])([H])C2([H])C([H])([H])C([H])([H])C([H])(Oc3c([H])c([H])c4c(c3[H])C([H])([H])N(C(=O)C([H])(N([H])C(=O)C([H])(N([H])C([H])([H])[H])C([H])([H])[H])C(C([H])([H])[H])(C([H])([H])[H])C([H])([H])[H])C([H])(C(=O)N([H])C3([H])c5c([H])c([H])c([H])c([H])c5C([H])([H])C([H])([H])C3([H])[H])C4([H])[H])C([H])([H])C2([H])[H])C1([H])[H]

>  <smiles>  (45) 
[H]N=C1C([H])([H])N(C(=O)N2C([H])([H])C([H])([H])C([H])([H])C([H])(n3nc(-c4c([H])c([H])c(Oc5c([H])c([H])c(F)c([H])c5F)c([H])c4[H])c(C(=O)N([H])[H])c3N([H])[H])C2([H])[H])C([H])(C(N([H])[H])=[N+]([H])C([H])([H])C2([H])C([H])([H])C([H])([H])C([H])(Oc3c([H])c([H])c4c(c3[H])C([H])([H])N(C(=O)C([H])(N([H])C(=O)C([H])(N([H])C([H])([H])[H])C([H])([H])[H])C(C([H])([H])[H])(C([H])([H])[H])C([H])([H])[H])C([H])(C(=O)N([H])C3([H])c5c([H])c([H])c([H])c([H])c5C([H])([H])C([H])([H])C3([H])[H])C4([H])[H])C([H])([H])C2([H])[H])C1([H])[H]

$$$$
46:0:0
     RDKit          3D

101109  0  0  1  0  0  0  0  0999 V2000
  -30.1480  -19.5790   19.6290 C   0  0  0  0  0  3  0  0  0  0  0  0
  -28.0300  -22.6010   20.8950 C   0  0  0  0  0  2  0  0  0  0  0  0
  -29.9070  -23.3980   19.4660 C   0  0  0  0  0  2  0  0  0  0  0  0
  -28.7850  -21.2510   21.0900 C   0  0  0  0  0  2  0  0  0  0  0  0
  -30.5850  -22.0300   19.7660 C   0  0  0  0  0  2  0  0  0  0  0  0
  -28.8940  -23.8530   20.5420 C   0  0  0  0  0  3  0  0  0  0  0  0
  -29.5870  -20.9460   19.9020 N   0  0  0  0  0  0  0  0  0  0  0  0
  -27.9470  -25.0140   20.0530 C   0  0  0  0  0  2  0  0  0  0  0  0
  -28.3110  -26.4380   20.0480 O   0  0  0  0  0  0  0  0  0  0  0  0
  -24.6700  -31.8040   23.1480 C   0  0  0  0  0  0  0  0  0  0  0  0
  -27.2110  -27.3060   19.9920 C   0  0  0  0  0  0  0  0  0  0  0  0
  -23.4360  -30.4370   21.5060 C   0  0  0  0  0  3  0  0  0  0  0  0
  -24.8570  -28.9150   20.0330 C   0  0  0  0  0  0  0  0  0  0  0  0
  -25.9730  -30.7530   21.2890 C   0  0  0  0  0  2  0  0  0  0  0  0
  -26.0370  -29.3890   20.6230 C   0  0  0  0  0  0  0  0  0  0  0  0
  -27.2190  -28.5960   20.5960 C   0  0  0  0  0  3  0  0  0  0  0  0
  -26.0090  -26.8930   19.3640 C   0  0  0  0  0  3  0  0  0  0  0  0
  -24.8430  -27.6710   19.3950 C   0  0  0  0  0  3  0  0  0  0  0  0
  -23.6240  -29.7870   20.1120 C   0  0  0  0  0  2  0  0  0  0  0  0
  -24.7130  -31.0120   22.0380 N   0  0  0  0  0  0  0  0  0  0  0  0
  -23.5960  -32.0800   23.6980 O   0  0  0  0  0  0  0  0  0  0  0  0
  -22.7820  -29.4070   22.4560 C   0  0  0  0  0  0  0  0  0  0  0  0
  -21.4510  -29.2520   22.3540 N   0  0  0  0  0  0  0  0  0  0  0  0
  -23.4690  -28.7520   23.2440 O   0  0  0  0  0  0  0  0  0  0  0  0
  -20.9580  -29.8370   21.6940 H   0  0  0  0  0  0  0  0  0  0  0  0
  -18.0640  -28.1070   22.8980 C   0  0  0  0  0  0  0  0  0  0  0  0
  -20.6320  -28.3140   23.1210 C   0  0  0  0  0  3  0  0  0  0  0  0
  -20.6950  -26.8920   22.5160 C   0  0  0  0  0  2  0  0  0  0  0  0
  -19.5670  -26.6100   21.5190 C   0  0  0  0  0  2  0  0  0  0  0  0
  -18.2010  -26.7670   22.1940 C   0  0  0  0  0  2  0  0  0  0  0  0
  -19.2060  -28.8410   23.3190 C   0  0  0  0  0  0  0  0  0  0  0  0
  -19.0220  -30.0970   23.9390 C   0  0  0  0  0  3  0  0  0  0  0  0
  -17.7300  -30.6170   24.1410 C   0  0  0  0  0  3  0  0  0  0  0  0
  -16.6040  -29.8820   23.7360 C   0  0  0  0  0  3  0  0  0  0  0  0
  -16.7720  -28.6290   23.1200 C   0  0  0  0  0  3  0  0  0  0  0  0
  -25.9660  -32.4160   23.7620 C   0  0  0  0  0  3  0  0  0  0  0  0
  -26.4970  -31.6180   25.0150 C   0  0  1  0  0  0  0  0  0  0  0  0
  -25.4190  -31.3740   26.0980 C   0  0  0  0  0  1  0  0  0  0  0  0
  -27.0560  -30.2400   24.5910 C   0  0  0  0  0  1  0  0  0  0  0  0
  -27.6670  -32.3880   25.6690 C   0  0  0  0  0  1  0  0  0  0  0  0
  -25.6680  -33.8100   24.1190 N   0  0  0  0  0  0  0  0  0  0  0  0
  -26.0020  -34.8760   23.3790 C   0  0  0  0  0  0  0  0  0  0  0  0
  -26.6660  -34.7870   22.3420 O   0  0  0  0  0  0  0  0  0  0  0  0
  -25.0740  -33.9530   24.9230 H   0  0  0  0  0  0  0  0  0  0  0  0
  -24.2780  -36.6830   23.0750 C   0  0  0  0  0  1  0  0  0  0  0  0
  -25.5250  -36.2570   23.8650 C   0  0  0  0  0  3  0  0  0  0  0  0
  -27.6780  -37.1120   24.6840 C   0  0  0  0  0  1  0  0  0  0  0  0
  -26.5610  -37.3090   23.7640 N   0  0  0  0  0  0  0  0  0  0  0  0
  -26.1600  -38.2260   23.9440 H   0  0  0  0  0  0  0  0  0  0  0  0
  -29.7810  -19.2650   18.1440 C   0  0  0  0  0  2  0  0  0  0  0  0
  -30.1460  -20.2620   17.0220 C   0  0  0  0  0  2  0  0  0  0  0  0
  -29.8730  -19.6390   15.6380 C   0  0  0  0  0  2  0  0  0  0  0  0
  -30.2480  -20.5380   14.4480 C   0  0  0  0  0  2  0  0  0  0  0  0
  -30.0330  -19.8460   13.1650 N   0  0  0  0  0  4  0  0  0  0  0  0
  -30.5760  -19.0020   13.1190 H   0  0  0  0  0  0  0  0  0  0  0  0
  -30.3090  -20.4360   12.4000 H   0  0  0  0  0  0  0  0  0  0  0  0
  -29.0640  -19.6110   13.0470 H   0  0  0  0  0  0  0  0  0  0  0  0
  -29.7250  -18.3220   20.5270 C   0  0  0  0  0  3  0  0  0  0  0  0
  -30.2200  -18.4830   21.9020 N   0  0  0  0  0  4  0  0  0  0  0  0
  -31.2200  -18.4060   21.9340 H   0  0  0  0  0  0  0  0  0  0  0  0
  -29.8200  -17.7850   22.5050 H   0  0  0  0  0  0  0  0  0  0  0  0
  -29.9600  -19.3900   22.2410 H   0  0  0  0  0  0  0  0  0  0  0  0
  -30.2280  -16.9270   19.9510 C   0  0  0  0  0  2  0  0  0  0  0  0
  -30.6960  -14.5180   20.3970 C   0  0  0  0  0  0  0  0  0  0  0  0
  -30.3590  -12.3210   19.3170 C   0  0  0  0  0  2  0  0  0  0  0  0
  -29.4060  -12.4900   18.1140 C   0  0  0  0  0  2  0  0  0  0  0  0
  -27.9380  -12.3730   18.5630 C   0  0  0  0  0  2  0  0  0  0  0  0
  -27.6180  -13.2330   19.8150 C   0  0  0  0  0  3  0  0  0  0  0  0
  -28.6910  -13.0590   20.9200 C   0  0  0  0  0  2  0  0  0  0  0  0
  -30.0040  -13.3410   20.3260 N   0  0  0  0  0  0  0  0  0  0  0  0
  -31.8430  -14.6130   19.9620 O   0  0  0  0  0  0  0  0  0  0  0  0
  -29.9950  -15.6490   20.6960 N   0  0  0  0  0  0  0  0  0  0  0  0
  -29.0760  -15.5110   21.0940 H   0  0  0  0  0  0  0  0  0  0  0  0
  -25.2430  -13.8620   20.5700 C   0  0  0  0  0  0  0  0  0  0  0  0
  -24.1710  -13.1010   20.9440 C   0  0  0  0  0  0  0  0  0  0  0  0
  -24.6080  -11.7430   20.8880 C   0  0  0  0  0  0  0  0  0  0  0  0
  -26.2710  -12.9680   20.3160 N   0  0  0  0  0  0  0  0  0  0  0  0
  -25.8940  -11.6870   20.5660 N   0  0  0  0  0  0  0  0  0  0  0  0
  -23.8640  -10.4900   21.0700 C   0  0  0  0  0  0  0  0  0  0  0  0
  -24.3070   -9.4920   21.9650 C   0  0  0  0  0  3  0  0  0  0  0  0
  -23.5650   -8.3040   22.1380 C   0  0  0  0  0  3  0  0  0  0  0  0
  -22.3640   -8.1040   21.4170 C   0  0  0  0  0  0  0  0  0  0  0  0
  -21.9400   -9.0900   20.5090 C   0  0  0  0  0  3  0  0  0  0  0  0
  -22.6820  -10.2700   20.3340 C   0  0  0  0  0  3  0  0  0  0  0  0
  -21.5920   -6.9710   21.5010 O   0  0  0  0  0  0  0  0  0  0  0  0
  -21.5820   -6.1910   22.6280 C   0  0  0  0  0  0  0  0  0  0  0  0
  -21.2430   -6.7140   23.8950 C   0  0  0  0  0  3  0  0  0  0  0  0
  -21.1790   -5.8610   25.0160 C   0  0  0  0  0  3  0  0  0  0  0  0
  -21.4400   -4.4850   24.8710 C   0  0  0  0  0  0  0  0  0  0  0  0
  -21.7690   -3.9610   23.6070 C   0  0  0  0  0  3  0  0  0  0  0  0
  -21.8370   -4.8110   22.4900 C   0  0  0  0  0  0  0  0  0  0  0  0
  -22.1350   -4.2970   21.2720 F   0  0  0  0  0  0  0  0  0  0  0  0
  -21.3700   -3.6640   25.9440 F   0  0  0  0  0  0  0  0  0  0  0  0
  -22.7840  -13.5950   21.2390 C   0  0  0  0  0  0  0  0  0  0  0  0
  -22.0620  -12.9000   22.1100 N   0  0  0  0  0  0  0  0  0  0  0  0
  -22.3520  -14.6290   20.7310 O   0  0  0  0  0  0  0  0  0  0  0  0
  -22.4240  -12.0590   22.5370 H   0  0  0  0  0  0  0  0  0  0  0  0
  -21.1310  -13.2070   22.3530 H   0  0  0  0  0  0  0  0  0  0  0  0
  -25.4290  -15.2320   20.4040 N   0  0  0  0  0  0  0  0  0  0  0  0
  -24.6730  -15.8990   20.5130 H   0  0  0  0  0  0  0  0  0  0  0  0
  -26.2780  -15.6490   20.0430 H   0  0  0  0  0  0  0  0  0  0  0  0
  1 50  1  0
  1  7  1  0
  1 58  1  0
  2  4  1  0
  3  5  1  0
  3  6  1  0
  5  7  1  0
  6  8  1  0
  6  2  1  0
  7  4  1  0
  9  8  1  0
 10 21  2  0
 11  9  1  0
 11 16  1  0
 12 20  1  0
 12 22  1  0
 13 19  1  0
 13 15  1  0
 14 20  1  0
 15 14  1  0
 16 15  2  0
 17 18  1  0
 17 11  2  0
 18 13  2  0
 19 12  1  0
 20 10  1  0
 22 24  2  0
 23 22  1  0
 25 23  1  0
 26 35  2  0
 26 31  1  0
 27 23  1  0
 27 31  1  0
 28 27  1  0
 29 30  1  0
 29 28  1  0
 30 26  1  0
 31 32  2  0
 32 33  1  0
 34 33  2  0
 35 34  1  0
 36 10  1  0
 36 41  1  0
 36 37  1  0
 37 40  1  1
 37 38  1  0
 39 37  1  0
 41 44  1  0
 42 46  1  0
 42 41  1  0
 43 42  2  0
 46 45  1  0
 48 46  1  0
 48 49  1  0
 48 47  1  0
 51 50  1  0
 52 51  1  0
 53 52  1  0
 54 53  1  0
 55 54  1  0
 56 54  1  0
 57 54  1  0
 58 63  1  0
 58 59  1  0
 59 60  1  0
 59 62  1  0
 59 61  1  0
 63 72  1  0
 64 72  1  0
 65 70  1  0
 66 67  1  0
 66 65  1  0
 68 67  1  0
 68 77  1  0
 68 69  1  0
 70 64  1  0
 70 69  1  0
 71 64  2  0
 72 73  1  0
 74 75  2  0
 75 94  1  0
 76 75  1  0
 76 79  1  0
 77 78  1  0
 77 74  1  0
 78 76  2  0
 79 80  1  0
 80 81  2  0
 82 85  1  0
 82 81  1  0
 83 82  2  0
 84 83  1  0
 84 79  2  0
 85 86  1  0
 86 87  1  0
 87 88  2  0
 89 88  1  0
 89 93  1  0
 90 89  2  0
 91 86  2  0
 91 90  1  0
 92 91  1  0
 94 95  1  0
 95 98  1  0
 95 97  1  0
 96 94  2  0
 99100  1  0
 99 74  1  0
101 99  1  0
M  ISO  4   8 101   9 101  64 100  72 100
M  END
>  <TORSDO>  (46) 
F 26

>  <SCORE>  (46) 
-12.413

>  <name>  (46) 
46

>  <ligand_id>  (46) 
46

>  <original_smiles>  (46) 
[H]c1c([H])c([H])c2c(c1[H])C([H])([H])C([H])([H])C([H])([H])C2([H])N([H])C(=O)C1([H])N(C(=O)C([H])(N([H])C(=O)C([H])(N([H])C([H])([H])[H])C([H])([H])[H])C(C([H])([H])[H])(C([H])([H])[H])C([H])([H])[H])C([H])([H])c2c([H])c(OC([H])([H])C3([H])C([H])([H])C([H])([H])N(C([H])(C([H])([H])C([H])([H])C([H])([H])C([H])([H])[N+]([H])([H])[H])C([H])(C([H])([H])N([H])C(=O)N4C([H])([H])C([H])([H])C([H])([H])C([H])(n5nc(-c6c([H])c([H])c(Oc7c([H])c([H])c(F)c([H])c7F)c([H])c6[H])c(C(=O)N([H])[H])c5N([H])[H])C4([H])[H])[N+]([H])([H])[H])C([H])([H])C3([H])[H])c([H])c([H])c2C1([H])[H]

>  <smiles>  (46) 
[H]c1c([H])c([H])c2c(c1[H])C([H])([H])C([H])([H])C([H])([H])C2([H])N([H])C(=O)C1([H])N(C(=O)C([H])(N([H])C(=O)C([H])(N([H])C([H])([H])[H])C([H])([H])[H])C(C([H])([H])[H])(C([H])([H])[H])C([H])([H])[H])C([H])([H])c2c([H])c(OC([H])([H])C3([H])C([H])([H])C([H])([H])N(C([H])(C([H])([H])C([H])([H])C([H])([H])C([H])([H])[N+]([H])([H])[H])C([H])(C([H])([H])N([H])C(=O)N4C([H])([H])C([H])([H])C([H])([H])C([H])(n5nc(-c6c([H])c([H])c(Oc7c([H])c([H])c(F)c([H])c7F)c([H])c6[H])c(C(=O)N([H])[H])c5N([H])[H])C4([H])[H])[N+]([H])([H])[H])C([H])([H])C3([H])[H])c([H])c([H])c2C1([H])[H]

$$$$
47:0:0
     RDKit          3D

105115  0  0  1  0  0  0  0  0999 V2000
  -29.4150  -23.6620   23.0060 C   0  0  0  0  0  2  0  0  0  0  0  0
  -30.2470  -24.3200   21.8650 C   0  0  0  0  0  2  0  0  0  0  0  0
  -28.5730  -22.5590   22.3270 C   0  0  0  0  0  2  0  0  0  0  0  0
  -29.6290  -23.7890   20.5470 C   0  0  2  0  0  0  0  0  0  0  0  0
  -29.3760  -22.3480   21.1020 N   0  0  2  0  0  4  0  0  0  0  0  0
  -30.2580  -22.3050   21.5900 H   0  0  0  0  0  0  0  0  0  0  0  0
  -29.6480  -20.9370   20.4600 C   0  0  0  0  0  2  0  0  0  0  0  0
  -30.2050  -17.7900   23.4610 C   0  0  0  0  0  3  0  0  0  0  0  0
  -30.8300  -19.0310   23.6260 C   0  0  0  0  0  3  0  0  0  0  0  0
  -29.8180  -17.3930   22.1730 C   0  0  0  0  0  3  0  0  0  0  0  0
  -30.8190  -19.9570   22.5640 C   0  0  0  0  0  3  0  0  0  0  0  0
  -30.0790  -18.2150   21.0490 C   0  0  0  0  0  0  0  0  0  0  0  0
  -30.2140  -19.6690   21.3090 C   0  0  0  0  0  0  0  0  0  0  0  0
  -31.0990  -14.8350   19.0680 C   0  0  0  0  0  0  0  0  0  0  0  0
  -30.4360  -12.7050   17.9200 C   0  0  0  0  0  2  0  0  0  0  0  0
  -29.2590  -12.9640   16.9500 C   0  0  0  0  0  2  0  0  0  0  0  0
  -27.9230  -12.8180   17.6930 C   0  0  0  0  0  2  0  0  0  0  0  0
  -27.9070  -13.5860   19.0400 C   0  0  0  0  0  3  0  0  0  0  0  0
  -29.1830  -13.3460   19.8770 C   0  0  0  0  0  2  0  0  0  0  0  0
  -30.3450  -13.6770   19.0420 N   0  0  0  0  0  0  0  0  0  0  0  0
  -32.0220  -14.9470   18.2500 O   0  0  0  0  0  0  0  0  0  0  0  0
  -33.0650  -17.6620   19.6550 C   0  0  0  0  0  2  0  0  0  0  0  0
  -32.9570  -16.9830   21.0330 C   0  0  0  0  0  2  0  0  0  0  0  0
  -31.6880  -18.0080   19.0390 C   0  0  0  0  0  2  0  0  0  0  0  0
  -31.9720  -15.7800   21.0620 C   0  0  0  0  0  2  0  0  0  0  0  0
  -30.5080  -17.3340   19.7740 C   0  0  0  0  0  3  0  0  0  0  0  0
  -30.9000  -15.8390   20.0280 N   0  0  0  0  0  0  0  0  0  0  0  0
  -25.8470  -14.2050   20.4380 C   0  0  0  0  0  0  0  0  0  0  0  0
  -24.8240  -13.4590   20.9500 C   0  0  0  0  0  0  0  0  0  0  0  0
  -25.1090  -12.1040   20.5990 C   0  0  0  0  0  0  0  0  0  0  0  0
  -26.6960  -13.3100   19.8110 N   0  0  0  0  0  0  0  0  0  0  0  0
  -26.2720  -12.0290   19.9660 N   0  0  0  0  0  0  0  0  0  0  0  0
  -24.3120  -10.8820   20.7820 C   0  0  0  0  0  0  0  0  0  0  0  0
  -24.8020   -9.7860   21.5250 C   0  0  0  0  0  3  0  0  0  0  0  0
  -24.0090   -8.6320   21.7040 C   0  0  0  0  0  3  0  0  0  0  0  0
  -22.7110   -8.5650   21.1400 C   0  0  0  0  0  0  0  0  0  0  0  0
  -22.2390   -9.6510   20.3800 C   0  0  0  0  0  3  0  0  0  0  0  0
  -23.0330  -10.7980   20.1970 C   0  0  0  0  0  3  0  0  0  0  0  0
  -21.8810   -7.4730   21.2360 O   0  0  0  0  0  0  0  0  0  0  0  0
  -21.8520   -6.6890   22.3630 C   0  0  0  0  0  0  0  0  0  0  0  0
  -21.6300   -7.2370   23.6450 C   0  0  0  0  0  3  0  0  0  0  0  0
  -21.5310   -6.3880   24.7650 C   0  0  0  0  0  3  0  0  0  0  0  0
  -21.6520   -4.9930   24.6080 C   0  0  0  0  0  0  0  0  0  0  0  0
  -21.8690   -4.4470   23.3310 C   0  0  0  0  0  3  0  0  0  0  0  0
  -21.9640   -5.2930   22.2120 C   0  0  0  0  0  0  0  0  0  0  0  0
  -22.1510   -4.7600   20.9800 F   0  0  0  0  0  0  0  0  0  0  0  0
  -21.5520   -4.1780   25.6820 F   0  0  0  0  0  0  0  0  0  0  0  0
  -23.5950  -13.9800   21.6360 C   0  0  0  0  0  0  0  0  0  0  0  0
  -23.1030  -13.2570   22.6350 N   0  0  0  0  0  0  0  0  0  0  0  0
  -23.0930  -15.0570   21.3170 O   0  0  0  0  0  0  0  0  0  0  0  0
  -23.5400  -12.3890   22.9070 H   0  0  0  0  0  0  0  0  0  0  0  0
  -22.2800  -13.5730   23.1270 H   0  0  0  0  0  0  0  0  0  0  0  0
  -26.1220  -15.5700   20.4370 N   0  0  0  0  0  0  0  0  0  0  0  0
  -25.4860  -16.2460   20.8430 H   0  0  0  0  0  0  0  0  0  0  0  0
  -26.9230  -15.9960   19.9890 H   0  0  0  0  0  0  0  0  0  0  0  0
  -30.6280  -23.8140   19.3520 C   0  0  0  0  0  2  0  0  0  0  0  0
  -30.0520  -23.5680   17.9290 C   0  0  0  0  0  2  0  0  0  0  0  0
  -29.6390  -22.1350   17.5050 C   0  0  0  0  0  2  0  0  0  0  0  0
  -28.2290  -21.6530   17.9320 C   0  0  0  0  0  2  0  0  0  0  0  0
  -27.8640  -20.3610   17.3140 N   0  0  0  0  0  4  0  0  0  0  0  0
  -27.8460  -20.4260   16.3110 H   0  0  0  0  0  0  0  0  0  0  0  0
  -26.9430  -20.0800   17.6050 H   0  0  0  0  0  0  0  0  0  0  0  0
  -28.5030  -19.6300   17.5640 H   0  0  0  0  0  0  0  0  0  0  0  0
  -28.4010  -24.8660   20.2760 C   0  0  0  0  0  2  0  0  0  0  0  0
  -28.6520  -26.3480   20.0620 O   0  0  0  0  0  0  0  0  0  0  0  0
  -24.6940  -31.5880   23.1440 C   0  0  0  0  0  0  0  0  0  0  0  0
  -27.5410  -27.2270   19.9740 C   0  0  0  0  0  0  0  0  0  0  0  0
  -23.5940  -30.2450   21.3920 C   0  0  0  0  0  3  0  0  0  0  0  0
  -25.1450  -28.8270   19.9230 C   0  0  0  0  0  0  0  0  0  0  0  0
  -26.1290  -30.6440   21.3100 C   0  0  0  0  0  2  0  0  0  0  0  0
  -26.2800  -29.3020   20.5930 C   0  0  0  0  0  0  0  0  0  0  0  0
  -27.4840  -28.5230   20.5950 C   0  0  0  0  0  3  0  0  0  0  0  0
  -26.3840  -26.8270   19.2650 C   0  0  0  0  0  3  0  0  0  0  0  0
  -25.2080  -27.6050   19.2380 C   0  0  0  0  0  3  0  0  0  0  0  0
  -23.8790  -29.6630   19.9810 C   0  0  0  0  0  2  0  0  0  0  0  0
  -24.8220  -30.8420   22.0070 N   0  0  0  0  0  0  0  0  0  0  0  0
  -23.5830  -31.7920   23.6570 O   0  0  0  0  0  0  0  0  0  0  0  0
  -22.9400  -29.1500   22.2690 C   0  0  0  0  0  0  0  0  0  0  0  0
  -21.6160  -28.9680   22.1280 N   0  0  0  0  0  0  0  0  0  0  0  0
  -23.6220  -28.4730   23.0410 O   0  0  0  0  0  0  0  0  0  0  0  0
  -21.1210  -29.5640   21.4790 H   0  0  0  0  0  0  0  0  0  0  0  0
  -18.2460  -27.7120   22.5410 C   0  0  0  0  0  0  0  0  0  0  0  0
  -20.8030  -27.9690   22.8280 C   0  0  0  0  0  3  0  0  0  0  0  0
  -20.9170  -26.5860   22.1460 C   0  0  0  0  0  2  0  0  0  0  0  0
  -19.8160  -26.3340   21.1100 C   0  0  0  0  0  2  0  0  0  0  0  0
  -18.4340  -26.4200   21.7660 C   0  0  0  0  0  2  0  0  0  0  0  0
  -19.3590  -28.4470   23.0290 C   0  0  0  0  0  0  0  0  0  0  0  0
  -19.1310  -29.6590   23.7170 C   0  0  0  0  0  3  0  0  0  0  0  0
  -17.8220  -30.1320   23.9260 C   0  0  0  0  0  3  0  0  0  0  0  0
  -16.7230  -29.3920   23.4590 C   0  0  0  0  0  3  0  0  0  0  0  0
  -16.9350  -28.1840   22.7700 C   0  0  0  0  0  3  0  0  0  0  0  0
  -25.9290  -32.2320   23.8380 C   0  0  0  0  0  3  0  0  0  0  0  0
  -26.3930  -31.4500   25.1280 C   0  0  1  0  0  0  0  0  0  0  0  0
  -25.2500  -31.1640   26.1300 C   0  0  0  0  0  1  0  0  0  0  0  0
  -27.0250  -30.0950   24.7420 C   0  0  0  0  0  1  0  0  0  0  0  0
  -27.4910  -32.2540   25.8640 C   0  0  0  0  0  1  0  0  0  0  0  0
  -25.5780  -33.6190   24.1760 N   0  0  0  0  0  0  0  0  0  0  0  0
  -25.9600  -34.6950   23.4750 C   0  0  0  0  0  0  0  0  0  0  0  0
  -26.7120  -34.6240   22.4990 O   0  0  0  0  0  0  0  0  0  0  0  0
  -24.9150  -33.7480   24.9250 H   0  0  0  0  0  0  0  0  0  0  0  0
  -24.2490  -36.4860   23.0310 C   0  0  0  0  0  1  0  0  0  0  0  0
  -25.4260  -36.0680   23.9270 C   0  0  0  0  0  3  0  0  0  0  0  0
  -27.4830  -36.9410   24.9420 C   0  0  0  0  0  1  0  0  0  0  0  0
  -26.4520  -37.1330   23.9260 N   0  0  0  0  0  0  0  0  0  0  0  0
  -26.0270  -38.0430   24.0810 H   0  0  0  0  0  0  0  0  0  0  0  0
  2  1  1  0
  3  1  1  0
  4 56  1  6
  4  5  1  0
  4  2  1  0
  5  6  1  1
  5  3  1  0
  7  5  1  0
  7 13  1  0
  8  9  1  0
 10  8  2  0
 11  9  2  0
 12 13  2  0
 12 10  1  0
 13 11  1  0
 14 27  1  0
 15 20  1  0
 16 17  1  0
 16 15  1  0
 18 17  1  0
 18 31  1  0
 18 19  1  0
 20 14  1  0
 20 19  1  0
 21 14  2  0
 22 23  1  0
 23 25  1  0
 24 22  1  0
 24 26  1  0
 26 27  1  0
 26 12  1  0
 27 25  1  0
 28 29  2  0
 29 48  1  0
 30 33  1  0
 30 29  1  0
 31 32  1  0
 31 28  1  0
 32 30  2  0
 33 34  1  0
 34 35  2  0
 36 39  1  0
 36 35  1  0
 37 36  2  0
 38 37  1  0
 38 33  2  0
 39 40  1  0
 40 41  1  0
 41 42  2  0
 43 42  1  0
 43 47  1  0
 44 43  2  0
 45 40  2  0
 45 44  1  0
 46 45  1  0
 48 49  1  0
 49 51  1  0
 49 52  1  0
 50 48  2  0
 53 28  1  0
 53 54  1  0
 55 53  1  0
 57 56  1  0
 58 57  1  0
 58 59  1  0
 60 63  1  0
 60 62  1  0
 60 59  1  0
 61 60  1  0
 64  4  1  0
 65 64  1  0
 66 77  2  0
 67 65  1  0
 67 72  1  0
 68 76  1  0
 68 78  1  0
 69 75  1  0
 69 71  1  0
 70 76  1  0
 71 72  2  0
 71 70  1  0
 73 67  2  0
 74 73  1  0
 74 69  2  0
 75 68  1  0
 76 66  1  0
 78 80  2  0
 79 78  1  0
 81 79  1  0
 82 91  2  0
 82 87  1  0
 83 79  1  0
 83 87  1  0
 84 83  1  0
 85 86  1  0
 85 84  1  0
 86 82  1  0
 87 88  2  0
 88 89  1  0
 90 89  2  0
 91 90  1  0
 92 66  1  0
 92 97  1  0
 92 93  1  0
 93 96  1  1
 93 94  1  0
 95 93  1  0
 97100  1  0
 98102  1  0
 98 97  1  0
 99 98  2  0
102101  1  0
104102  1  0
104105  1  0
104103  1  0
M  ISO  4  14 100  27 100  64 101  65 101
M  END
>  <TORSDO>  (47) 
F 24

>  <SCORE>  (47) 
-6.727

>  <name>  (47) 
47

>  <ligand_id>  (47) 
47

>  <original_smiles>  (47) 
[H]c1c([H])c([H])c2c(c1[H])C([H])([H])C([H])([H])C([H])([H])C2([H])N([H])C(=O)C1([H])N(C(=O)C([H])(N([H])C(=O)C([H])(N([H])C([H])([H])[H])C([H])([H])[H])C(C([H])([H])[H])(C([H])([H])[H])C([H])([H])[H])C([H])([H])c2c([H])c(OC([H])([H])C3(C([H])([H])C([H])([H])C([H])([H])C([H])([H])[N+]([H])([H])[H])C([H])([H])C([H])([H])C([H])([H])[N+]3([H])C([H])([H])c3c([H])c([H])c([H])c([H])c3C3([H])N(C(=O)N4C([H])([H])C([H])([H])C([H])([H])C([H])(n5nc(-c6c([H])c([H])c(Oc7c([H])c([H])c(F)c([H])c7F)c([H])c6[H])c(C(=O)N([H])[H])c5N([H])[H])C4([H])[H])C([H])([H])C([H])([H])C([H])([H])C3([H])[H])c([H])c([H])c2C1([H])[H]

>  <smiles>  (47) 
[H]c1c([H])c([H])c2c(c1[H])C([H])([H])C([H])([H])C([H])([H])C2([H])N([H])C(=O)C1([H])N(C(=O)C([H])(N([H])C(=O)C([H])(N([H])C([H])([H])[H])C([H])([H])[H])C(C([H])([H])[H])(C([H])([H])[H])C([H])([H])[H])C([H])([H])c2c([H])c(OC([H])([H])C3(C([H])([H])C([H])([H])C([H])([H])C([H])([H])[N+]([H])([H])[H])C([H])([H])C([H])([H])C([H])([H])[N+]3([H])C([H])([H])c3c([H])c([H])c([H])c([H])c3C3([H])N(C(=O)N4C([H])([H])C([H])([H])C([H])([H])C([H])(n5nc(-c6c([H])c([H])c(Oc7c([H])c([H])c(F)c([H])c7F)c([H])c6[H])c(C(=O)N([H])[H])c5N([H])[H])C4([H])[H])C([H])([H])C([H])([H])C([H])([H])C3([H])[H])c([H])c([H])c2C1([H])[H]

$$$$
48:0:0
     RDKit          3D

 97105  0  0  1  0  0  0  0  0999 V2000
  -29.0530  -21.0310   19.5710 N   0  0  1  0  0  4  0  0  0  0  0  0
  -28.4270  -20.9330   20.3580 H   0  0  0  0  0  0  0  0  0  0  0  0
  -30.1160  -19.9230   19.7520 C   0  0  0  0  0  2  0  0  0  0  0  0
  -29.8450  -17.3860   22.3850 C   0  0  0  0  0  2  0  0  0  0  0  0
  -31.3370  -17.7250   22.2410 C   0  0  0  0  0  2  0  0  0  0  0  0
  -28.9980  -18.1810   21.3690 C   0  0  0  0  0  2  0  0  0  0  0  0
  -31.8890  -17.3550   20.8480 C   0  0  0  0  0  2  0  0  0  0  0  0
  -29.6690  -18.3700   19.9770 C   0  0  0  0  0  3  0  0  0  0  0  0
  -30.7880  -17.2270   19.7640 C   0  0  0  0  0  3  0  0  0  0  0  0
  -31.0300  -14.6500   19.4750 C   0  0  0  0  0  0  0  0  0  0  0  0
  -30.6560  -12.3760   18.5560 C   0  0  0  0  0  2  0  0  0  0  0  0
  -29.6120  -12.4710   17.4220 C   0  0  0  0  0  2  0  0  0  0  0  0
  -28.1810  -12.3640   17.9900 C   0  0  0  0  0  2  0  0  0  0  0  0
  -27.9500  -13.2990   19.2080 C   0  0  0  0  0  3  0  0  0  0  0  0
  -29.1030  -13.1860   20.2300 C   0  0  0  0  0  2  0  0  0  0  0  0
  -30.3560  -13.4580   19.5110 N   0  0  0  0  0  0  0  0  0  0  0  0
  -32.1800  -14.7200   19.0350 O   0  0  0  0  0  0  0  0  0  0  0  0
  -30.3160  -15.7850   19.7540 N   0  0  0  0  0  0  0  0  0  0  0  0
  -29.3670  -15.6260   20.0550 H   0  0  0  0  0  0  0  0  0  0  0  0
  -25.6740  -14.0010   20.1720 C   0  0  0  0  0  0  0  0  0  0  0  0
  -24.6130  -13.2750   20.6410 C   0  0  0  0  0  0  0  0  0  0  0  0
  -25.0030  -11.9030   20.5490 C   0  0  0  0  0  0  0  0  0  0  0  0
  -26.6440  -13.0750   19.8240 N   0  0  0  0  0  0  0  0  0  0  0  0
  -26.2520  -11.8070   20.1120 N   0  0  0  0  0  0  0  0  0  0  0  0
  -24.2380  -10.6730   20.7940 C   0  0  0  0  0  0  0  0  0  0  0  0
  -24.6710   -9.7050   21.7260 C   0  0  0  0  0  3  0  0  0  0  0  0
  -23.9060   -8.5410   21.9590 C   0  0  0  0  0  3  0  0  0  0  0  0
  -22.6930   -8.3370   21.2580 C   0  0  0  0  0  0  0  0  0  0  0  0
  -22.2780   -9.2940   20.3140 C   0  0  0  0  0  3  0  0  0  0  0  0
  -23.0420  -10.4490   20.0810 C   0  0  0  0  0  3  0  0  0  0  0  0
  -21.9000   -7.2240   21.3990 O   0  0  0  0  0  0  0  0  0  0  0  0
  -21.8360   -6.5330   22.5810 C   0  0  0  0  0  0  0  0  0  0  0  0
  -21.4450   -7.1530   23.7880 C   0  0  0  0  0  3  0  0  0  0  0  0
  -21.3240   -6.3900   24.9670 C   0  0  0  0  0  3  0  0  0  0  0  0
  -21.5870   -5.0070   24.9400 C   0  0  0  0  0  0  0  0  0  0  0  0
  -21.9690   -4.3860   23.7380 C   0  0  0  0  0  3  0  0  0  0  0  0
  -22.0910   -5.1460   22.5620 C   0  0  0  0  0  0  0  0  0  0  0  0
  -22.4410   -4.5400   21.4020 F   0  0  0  0  0  0  0  0  0  0  0  0
  -21.4620   -4.2710   26.0690 F   0  0  0  0  0  0  0  0  0  0  0  0
  -23.2750  -13.8150   21.0570 C   0  0  0  0  0  0  0  0  0  0  0  0
  -22.6120  -13.1570   22.0030 N   0  0  0  0  0  0  0  0  0  0  0  0
  -22.8280  -14.8550   20.5760 O   0  0  0  0  0  0  0  0  0  0  0  0
  -22.9880  -12.3170   22.4160 H   0  0  0  0  0  0  0  0  0  0  0  0
  -21.7200  -13.5050   22.3210 H   0  0  0  0  0  0  0  0  0  0  0  0
  -25.8860  -15.3650   19.9890 N   0  0  0  0  0  0  0  0  0  0  0  0
  -25.1570  -16.0470   20.1590 H   0  0  0  0  0  0  0  0  0  0  0  0
  -26.6980  -15.7620   19.5340 H   0  0  0  0  0  0  0  0  0  0  0  0
  -29.5770  -22.4880   19.5970 C   0  0  0  0  0  2  0  0  0  0  0  0
  -28.6540  -23.7080   20.1470 C   0  0  0  0  0  2  0  0  0  0  0  0
  -28.8150  -25.1750   19.4860 C   0  0  0  0  0  2  0  0  0  0  0  0
  -28.5430  -26.4730   20.1780 O   0  0  0  0  0  0  0  0  0  0  0  0
  -24.5500  -31.7040   23.1440 C   0  0  0  0  0  0  0  0  0  0  0  0
  -27.3740  -27.2530   20.0720 C   0  0  0  0  0  0  0  0  0  0  0  0
  -23.4200  -30.2850   21.4650 C   0  0  0  0  0  3  0  0  0  0  0  0
  -24.9470  -28.7910   20.0400 C   0  0  0  0  0  0  0  0  0  0  0  0
  -25.9490  -30.6820   21.3320 C   0  0  0  0  0  2  0  0  0  0  0  0
  -26.0830  -29.3110   20.6690 C   0  0  0  0  0  0  0  0  0  0  0  0
  -27.2910  -28.5480   20.6830 C   0  0  0  0  0  3  0  0  0  0  0  0
  -26.2150  -26.7850   19.4200 C   0  0  0  0  0  3  0  0  0  0  0  0
  -25.0180  -27.5350   19.4070 C   0  0  0  0  0  3  0  0  0  0  0  0
  -23.6760  -29.6200   20.0840 C   0  0  0  0  0  2  0  0  0  0  0  0
  -24.6570  -30.9100   22.0380 N   0  0  0  0  0  0  0  0  0  0  0  0
  -23.4490  -31.9420   23.6660 O   0  0  0  0  0  0  0  0  0  0  0  0
  -22.7720  -29.2440   22.4070 C   0  0  0  0  0  0  0  0  0  0  0  0
  -21.4540  -29.0290   22.2590 N   0  0  0  0  0  0  0  0  0  0  0  0
  -23.4550  -28.6300   23.2320 O   0  0  0  0  0  0  0  0  0  0  0  0
  -20.9600  -29.5800   21.5710 H   0  0  0  0  0  0  0  0  0  0  0  0
  -18.1050  -27.7320   22.6970 C   0  0  0  0  0  0  0  0  0  0  0  0
  -20.6510  -28.0560   23.0010 C   0  0  0  0  0  3  0  0  0  0  0  0
  -20.7970  -26.6390   22.4010 C   0  0  0  0  0  2  0  0  0  0  0  0
  -19.7160  -26.3060   21.3670 C   0  0  0  0  0  2  0  0  0  0  0  0
  -18.3240  -26.4010   21.9990 C   0  0  0  0  0  2  0  0  0  0  0  0
  -19.1960  -28.5170   23.1540 C   0  0  0  0  0  0  0  0  0  0  0  0
  -18.9370  -29.7610   23.7660 C   0  0  0  0  0  3  0  0  0  0  0  0
  -17.6170  -30.2260   23.9240 C   0  0  0  0  0  3  0  0  0  0  0  0
  -16.5390  -29.4380   23.4840 C   0  0  0  0  0  3  0  0  0  0  0  0
  -16.7830  -28.1930   22.8780 C   0  0  0  0  0  3  0  0  0  0  0  0
  -25.8000  -32.3680   23.8000 C   0  0  0  0  0  3  0  0  0  0  0  0
  -25.4400  -33.7500   24.1500 N   0  0  0  0  0  0  0  0  0  0  0  0
  -25.7520  -34.8280   23.4200 C   0  0  0  0  0  0  0  0  0  0  0  0
  -26.4420  -34.7650   22.3980 O   0  0  0  0  0  0  0  0  0  0  0  0
  -24.8260  -33.8680   24.9430 H   0  0  0  0  0  0  0  0  0  0  0  0
  -23.9740  -36.5710   23.0740 C   0  0  0  0  0  1  0  0  0  0  0  0
  -25.2160  -36.1930   23.8970 C   0  0  0  0  0  3  0  0  0  0  0  0
  -27.3090  -37.1280   24.7770 C   0  0  0  0  0  1  0  0  0  0  0  0
  -26.2180  -37.2790   23.8170 N   0  0  0  0  0  0  0  0  0  0  0  0
  -25.7840  -38.1860   23.9690 H   0  0  0  0  0  0  0  0  0  0  0  0
  -26.3210  -31.5940   25.0730 C   0  0  1  0  0  0  0  0  0  0  0  0
  -25.2180  -31.3010   26.1190 C   0  0  0  0  0  1  0  0  0  0  0  0
  -26.9560  -30.2440   24.6680 C   0  0  0  0  0  1  0  0  0  0  0  0
  -27.4340  -32.4150   25.7650 C   0  0  0  0  0  1  0  0  0  0  0  0
  -28.2670  -20.7610   18.3240 C   0  0  0  0  0  2  0  0  0  0  0  0
  -27.4960  -21.9530   17.7160 C   0  0  0  0  0  2  0  0  0  0  0  0
  -26.4210  -22.3020   18.6830 N   0  0  0  0  0  2  0  0  0  0  0  0
  -25.2010  -22.3690   18.2880 N   0  0  0  0  0  0  0  0  0  0  0  0
  -24.1020  -22.7540   19.1580 O   0  0  0  0  0  0  0  0  0  0  0  0
  -24.7240  -22.4310   16.9110 O   0  0  0  0  0  0  0  0  0  0  0  0
  1 48  1  0
  1  3  1  0
  1  2  1  1
  5  4  1  0
  6  4  1  0
  7  5  1  0
  8  3  1  0
  8  6  1  0
  9 18  1  0
  9  8  1  0
  9  7  1  0
 10 16  1  0
 10 18  1  0
 11 16  1  0
 12 13  1  0
 12 11  1  0
 14 13  1  0
 14 23  1  0
 14 15  1  0
 16 15  1  0
 17 10  2  0
 18 19  1  0
 20 21  2  0
 21 40  1  0
 22 21  1  0
 22 25  1  0
 23 24  1  0
 23 20  1  0
 24 22  2  0
 25 26  1  0
 26 27  2  0
 28 31  1  0
 28 27  1  0
 29 28  2  0
 30 29  1  0
 30 25  2  0
 31 32  1  0
 32 33  1  0
 33 34  2  0
 35 34  1  0
 35 39  1  0
 36 35  2  0
 37 32  2  0
 37 36  1  0
 38 37  1  0
 40 41  1  0
 41 44  1  0
 41 43  1  0
 42 40  2  0
 45 46  1  0
 45 20  1  0
 47 45  1  0
 48 49  1  0
 50 49  1  0
 50 51  1  0
 52 63  2  0
 53 51  1  0
 53 58  1  0
 54 62  1  0
 54 64  1  0
 55 61  1  0
 55 57  1  0
 56 62  1  0
 57 58  2  0
 57 56  1  0
 59 53  2  0
 60 59  1  0
 60 55  2  0
 61 54  1  0
 62 52  1  0
 64 66  2  0
 65 64  1  0
 67 65  1  0
 68 77  2  0
 68 73  1  0
 69 65  1  0
 69 73  1  0
 70 69  1  0
 71 72  1  0
 71 70  1  0
 72 68  1  0
 73 74  2  0
 74 75  1  0
 76 75  2  0
 77 76  1  0
 78 52  1  0
 78 79  1  0
 78 88  1  0
 79 82  1  0
 80 84  1  0
 80 79  1  0
 81 80  2  0
 84 83  1  0
 86 84  1  0
 86 87  1  0
 86 85  1  0
 88 91  1  1
 88 89  1  0
 90 88  1  0
 92  1  1  0
 93 92  1  0
 93 94  1  0
 95 94  1  0
 95 96  2  0
 97 95  2  0
M  ISO  4  10 100  18 100  50 101  51 101
M  END
>  <TORSDO>  (48) 
F 24

>  <SCORE>  (48) 
-11.029

>  <name>  (48) 
48

>  <ligand_id>  (48) 
48

>  <original_smiles>  (48) 
[H]c1c([H])c([H])c2c(c1[H])C([H])([H])C([H])([H])C([H])([H])C2([H])N([H])C(=O)C1([H])N(C(=O)C([H])(N([H])C(=O)C([H])(N([H])C([H])([H])[H])C([H])([H])[H])C(C([H])([H])[H])(C([H])([H])[H])C([H])([H])[H])C([H])([H])c2c([H])c(OC([H])([H])C([H])([H])C([H])([H])[N+]([H])(C([H])([H])C([H])([H])N=[N+]([O-])[O-])C([H])([H])C3([H])C([H])([H])C([H])([H])C([H])([H])C([H])([H])C3([H])N([H])C(=O)N3C([H])([H])C([H])([H])C([H])([H])C([H])(n4nc(-c5c([H])c([H])c(Oc6c([H])c([H])c(F)c([H])c6F)c([H])c5[H])c(C(=O)N([H])[H])c4N([H])[H])C3([H])[H])c([H])c([H])c2C1([H])[H]

>  <smiles>  (48) 
[H]c1c([H])c([H])c2c(c1[H])C([H])([H])C([H])([H])C([H])([H])C2([H])N([H])C(=O)C1([H])N(C(=O)C([H])(N([H])C(=O)C([H])(N([H])C([H])([H])[H])C([H])([H])[H])C(C([H])([H])[H])(C([H])([H])[H])C([H])([H])[H])C([H])([H])c2c([H])c(OC([H])([H])C([H])([H])C([H])([H])[N+]([H])(C([H])([H])C([H])([H])N=[N+]([O-])[O-])C([H])([H])C3([H])C([H])([H])C([H])([H])C([H])([H])C([H])([H])C3([H])N([H])C(=O)N3C([H])([H])C([H])([H])C([H])([H])C([H])(n4nc(-c5c([H])c([H])c(Oc6c([H])c([H])c(F)c([H])c6F)c([H])c5[H])c(C(=O)N([H])[H])c4N([H])[H])C3([H])[H])c([H])c([H])c2C1([H])[H]

$$$$
49:0:0
     RDKit          3D

 93102  0  0  1  0  0  0  0  0999 V2000
  -29.1320  -21.0080   20.2470 N   0  0  1  0  0  4  0  0  0  0  0  0
  -28.2920  -20.8950   20.7960 H   0  0  0  0  0  0  0  0  0  0  0  0
  -30.5730  -15.1160   19.6040 C   0  0  0  0  0  0  0  0  0  0  0  0
  -30.4280  -12.6840   18.6950 C   0  0  0  0  0  2  0  0  0  0  0  0
  -29.3850  -12.4820   17.5680 C   0  0  0  0  0  2  0  0  0  0  0  0
  -27.9870  -12.2240   18.1570 C   0  0  0  0  0  2  0  0  0  0  0  0
  -27.6640  -13.1790   19.3330 C   0  0  0  0  0  3  0  0  0  0  0  0
  -28.8250  -13.3190   20.3370 C   0  0  0  0  0  2  0  0  0  0  0  0
  -29.9690  -13.8270   19.5650 N   0  0  0  0  0  0  0  0  0  0  0  0
  -31.7960  -15.0640   19.3950 O   0  0  0  0  0  0  0  0  0  0  0  0
  -28.6170  -17.9010   17.7170 C   0  0  0  0  0  2  0  0  0  0  0  0
  -29.1190  -19.3210   18.1120 C   0  0  0  0  0  2  0  0  0  0  0  0
  -29.5360  -16.6870   18.0700 C   0  0  0  0  0  2  0  0  0  0  0  0
  -29.9630  -17.9420   20.1590 C   0  0  0  0  0  2  0  0  0  0  0  0
  -29.1450  -19.4390   19.6330 C   0  0  0  0  0  3  0  0  0  0  0  0
  -29.8420  -16.4220   19.4980 N   0  0  0  0  0  0  0  0  0  0  0  0
  -25.3920  -13.7500   20.3290 C   0  0  0  0  0  0  0  0  0  0  0  0
  -24.3650  -12.9770   20.7950 C   0  0  0  0  0  0  0  0  0  0  0  0
  -24.8160  -11.6240   20.7120 C   0  0  0  0  0  0  0  0  0  0  0  0
  -26.3960  -12.8670   19.9770 N   0  0  0  0  0  0  0  0  0  0  0  0
  -26.0700  -11.5820   20.2750 N   0  0  0  0  0  0  0  0  0  0  0  0
  -24.1000  -10.3660   20.9640 C   0  0  0  0  0  0  0  0  0  0  0  0
  -24.5500   -9.4410   21.9310 C   0  0  0  0  0  3  0  0  0  0  0  0
  -23.8330   -8.2500   22.1700 C   0  0  0  0  0  3  0  0  0  0  0  0
  -22.6510   -7.9760   21.4440 C   0  0  0  0  0  0  0  0  0  0  0  0
  -22.2180   -8.8890   20.4660 C   0  0  0  0  0  3  0  0  0  0  0  0
  -22.9370  -10.0710   20.2250 C   0  0  0  0  0  3  0  0  0  0  0  0
  -21.9020   -6.8330   21.5910 O   0  0  0  0  0  0  0  0  0  0  0  0
  -21.8120   -6.1800   22.7940 C   0  0  0  0  0  0  0  0  0  0  0  0
  -21.3030   -6.8120   23.9500 C   0  0  0  0  0  3  0  0  0  0  0  0
  -21.1630   -6.0850   25.1480 C   0  0  0  0  0  3  0  0  0  0  0  0
  -21.5240   -4.7250   25.1920 C   0  0  0  0  0  0  0  0  0  0  0  0
  -22.0280   -4.0920   24.0420 C   0  0  0  0  0  3  0  0  0  0  0  0
  -22.1680   -4.8170   22.8460 C   0  0  0  0  0  0  0  0  0  0  0  0
  -22.6340   -4.1960   21.7350 F   0  0  0  0  0  0  0  0  0  0  0  0
  -21.3840   -4.0230   26.3410 F   0  0  0  0  0  0  0  0  0  0  0  0
  -23.0040  -13.4630   21.1990 C   0  0  0  0  0  0  0  0  0  0  0  0
  -22.3610  -12.7740   22.1350 N   0  0  0  0  0  0  0  0  0  0  0  0
  -22.5240  -14.4900   20.7200 O   0  0  0  0  0  0  0  0  0  0  0  0
  -22.7650  -11.9450   22.5450 H   0  0  0  0  0  0  0  0  0  0  0  0
  -21.4500  -13.0820   22.4470 H   0  0  0  0  0  0  0  0  0  0  0  0
  -25.5500  -15.1210   20.1460 N   0  0  0  0  0  0  0  0  0  0  0  0
  -24.8100  -15.7840   20.3510 H   0  0  0  0  0  0  0  0  0  0  0  0
  -26.3760  -15.5550   19.7540 H   0  0  0  0  0  0  0  0  0  0  0  0
  -30.1430  -21.1780   21.3140 C   0  0  0  0  0  2  0  0  0  0  0  0
  -29.4810  -21.0730   22.7000 C   0  0  0  0  0  2  0  0  0  0  0  0
  -31.0900  -22.3110   25.5840 C   0  0  0  0  0  2  0  0  0  0  0  0
  -29.9170  -21.3770   25.2850 C   0  0  0  0  0  2  0  0  0  0  0  0
  -31.2040  -22.5460   24.0760 C   0  0  0  0  0  2  0  0  0  0  0  0
  -30.4640  -21.2150   23.8580 C   0  0  0  0  0  3  0  0  0  0  0  0
  -28.7610  -22.5030   19.5830 C   0  0  0  0  0  2  0  0  0  0  0  0
  -28.1660  -24.0230   20.3700 C   0  0  0  0  0  2  0  0  0  0  0  0
  -28.3730  -25.6560   20.1780 O   0  0  0  0  0  0  0  0  0  0  0  0
  -24.6780  -31.5760   23.1500 C   0  0  0  0  0  0  0  0  0  0  0  0
  -27.3460  -26.7380   20.1650 C   0  0  0  0  0  0  0  0  0  0  0  0
  -23.5420  -30.1920   21.4620 C   0  0  0  0  0  3  0  0  0  0  0  0
  -25.0410  -28.6070   20.0720 C   0  0  0  0  0  0  0  0  0  0  0  0
  -26.1120  -30.4160   21.3950 C   0  0  0  0  0  2  0  0  0  0  0  0
  -26.2100  -29.0140   20.7270 C   0  0  0  0  0  0  0  0  0  0  0  0
  -27.3620  -28.1030   20.7420 C   0  0  0  0  0  3  0  0  0  0  0  0
  -26.1440  -26.4810   19.4700 C   0  0  0  0  0  3  0  0  0  0  0  0
  -25.0320  -27.3610   19.4270 C   0  0  0  0  0  3  0  0  0  0  0  0
  -23.8180  -29.5230   20.0890 C   0  0  0  0  0  2  0  0  0  0  0  0
  -24.7980  -30.7540   22.0570 N   0  0  0  0  0  0  0  0  0  0  0  0
  -23.5710  -31.8570   23.6380 O   0  0  0  0  0  0  0  0  0  0  0  0
  -22.8240  -29.1790   22.3920 C   0  0  0  0  0  0  0  0  0  0  0  0
  -21.4950  -29.0340   22.2450 N   0  0  0  0  0  0  0  0  0  0  0  0
  -23.4700  -28.5250   23.2130 O   0  0  0  0  0  0  0  0  0  0  0  0
  -21.0250  -29.6110   21.5620 H   0  0  0  0  0  0  0  0  0  0  0  0
  -18.0900  -27.8630   22.6910 C   0  0  0  0  0  0  0  0  0  0  0  0
  -20.6520  -28.0880   22.9840 C   0  0  0  0  0  3  0  0  0  0  0  0
  -20.7380  -26.6690   22.3720 C   0  0  0  0  0  2  0  0  0  0  0  0
  -19.6420  -26.3920   21.3390 C   0  0  0  0  0  2  0  0  0  0  0  0
  -18.2560  -26.5340   21.9750 C   0  0  0  0  0  2  0  0  0  0  0  0
  -19.2140  -28.6000   23.1500 C   0  0  0  0  0  0  0  0  0  0  0  0
  -19.0040  -29.8460   23.7810 C   0  0  0  0  0  3  0  0  0  0  0  0
  -17.7030  -30.3530   23.9560 C   0  0  0  0  0  3  0  0  0  0  0  0
  -16.5930  -29.6120   23.5120 C   0  0  0  0  0  3  0  0  0  0  0  0
  -16.7880  -28.3690   22.8840 C   0  0  0  0  0  3  0  0  0  0  0  0
  -25.9240  -32.2180   23.8310 C   0  0  0  0  0  3  0  0  0  0  0  0
  -25.5770  -33.6010   24.2040 N   0  0  0  0  0  0  0  0  0  0  0  0
  -25.8960  -34.6910   23.4930 C   0  0  0  0  0  0  0  0  0  0  0  0
  -26.5750  -34.6380   22.4650 O   0  0  0  0  0  0  0  0  0  0  0  0
  -24.9680  -33.7130   25.0010 H   0  0  0  0  0  0  0  0  0  0  0  0
  -24.1270  -36.4620   23.2090 C   0  0  0  0  0  1  0  0  0  0  0  0
  -25.3810  -36.0540   23.9980 C   0  0  0  0  0  3  0  0  0  0  0  0
  -27.4990  -36.9640   24.8520 C   0  0  0  0  0  1  0  0  0  0  0  0
  -26.3900  -37.1330   23.9150 N   0  0  0  0  0  0  0  0  0  0  0  0
  -25.9660  -38.0400   24.0890 H   0  0  0  0  0  0  0  0  0  0  0  0
  -26.4150  -31.4210   25.1030 C   0  0  1  0  0  0  0  0  0  0  0  0
  -25.2950  -31.1380   26.1320 C   0  0  0  0  0  1  0  0  0  0  0  0
  -27.0320  -30.0610   24.7030 C   0  0  0  0  0  1  0  0  0  0  0  0
  -27.5330  -32.2150   25.8200 C   0  0  0  0  0  1  0  0  0  0  0  0
  1  2  1  1
  1 45  1  0
  4  9  1  0
  5  6  1  0
  5  4  1  0
  7  6  1  0
  7 20  1  0
  7  8  1  0
  9  3  1  0
  9  8  1  0
 10  3  2  0
 11 13  1  0
 11 12  1  0
 12 15  1  0
 13 16  1  0
 15 14  1  0
 15  1  1  0
 16  3  1  0
 16 14  1  0
 17 18  2  0
 18 37  1  0
 19 18  1  0
 19 22  1  0
 20 21  1  0
 20 17  1  0
 21 19  2  0
 22 23  1  0
 23 24  2  0
 25 28  1  0
 25 24  1  0
 26 25  2  0
 27 26  1  0
 27 22  2  0
 28 29  1  0
 29 34  2  0
 29 30  1  0
 30 31  2  0
 31 32  1  0
 32 36  1  0
 33 32  2  0
 34 33  1  0
 35 34  1  0
 37 38  1  0
 38 41  1  0
 38 40  1  0
 39 37  2  0
 42 17  1  0
 42 43  1  0
 44 42  1  0
 45 46  1  0
 46 50  1  0
 48 47  1  0
 49 47  1  0
 50 49  1  0
 50 48  1  0
 51  1  1  0
 51 52  1  0
 53 52  1  0
 54 65  2  0
 55 53  1  0
 55 60  1  0
 56 64  1  0
 56 66  1  0
 57 63  1  0
 57 59  1  0
 58 64  1  0
 59 60  2  0
 59 58  1  0
 61 55  2  0
 62 61  1  0
 62 57  2  0
 63 56  1  0
 64 54  1  0
 66 68  2  0
 67 66  1  0
 69 67  1  0
 70 79  2  0
 70 75  1  0
 71 67  1  0
 71 75  1  0
 72 71  1  0
 73 74  1  0
 73 72  1  0
 74 70  1  0
 75 76  2  0
 76 77  1  0
 78 77  2  0
 79 78  1  0
 80 54  1  0
 80 81  1  0
 80 90  1  0
 81 84  1  0
 82 86  1  0
 82 81  1  0
 83 82  2  0
 86 85  1  0
 88 86  1  0
 88 89  1  0
 88 87  1  0
 90 93  1  1
 90 91  1  0
 92 90  1  0
M  ISO  4   3 100  16 100  52 101  53 101
M  END
>  <TORSDO>  (49) 
F 21

>  <SCORE>  (49) 
-11.782

>  <name>  (49) 
49

>  <ligand_id>  (49) 
49

>  <original_smiles>  (49) 
[H]c1c([H])c([H])c2c(c1[H])C([H])([H])C([H])([H])C([H])([H])C2([H])N([H])C(=O)C1([H])N(C(=O)C([H])(N([H])C(=O)C([H])(N([H])C([H])([H])[H])C([H])([H])[H])C(C([H])([H])[H])(C([H])([H])[H])C([H])([H])[H])C([H])([H])c2c([H])c(OC([H])([H])C([H])([H])[N+]([H])(C([H])([H])C([H])([H])C3([H])C([H])([H])C([H])([H])C3([H])[H])C3([H])C([H])([H])N(C(=O)N4C([H])([H])C([H])([H])C([H])([H])C([H])(n5nc(-c6c([H])c([H])c(Oc7c([H])c([H])c(F)c([H])c7F)c([H])c6[H])c(C(=O)N([H])[H])c5N([H])[H])C4([H])[H])C([H])([H])C([H])([H])C3([H])[H])c([H])c([H])c2C1([H])[H]

>  <smiles>  (49) 
[H]c1c([H])c([H])c2c(c1[H])C([H])([H])C([H])([H])C([H])([H])C2([H])N([H])C(=O)C1([H])N(C(=O)C([H])(N([H])C(=O)C([H])(N([H])C([H])([H])[H])C([H])([H])[H])C(C([H])([H])[H])(C([H])([H])[H])C([H])([H])[H])C([H])([H])c2c([H])c(OC([H])([H])C([H])([H])[N+]([H])(C([H])([H])C([H])([H])C3([H])C([H])([H])C([H])([H])C3([H])[H])C3([H])C([H])([H])N(C(=O)N4C([H])([H])C([H])([H])C([H])([H])C([H])(n5nc(-c6c([H])c([H])c(Oc7c([H])c([H])c(F)c([H])c7F)c([H])c6[H])c(C(=O)N([H])[H])c5N([H])[H])C4([H])[H])C([H])([H])C([H])([H])C3([H])[H])c([H])c([H])c2C1([H])[H]

$$$$
50:0:0
     RDKit          3D

 96105  0  0  1  0  0  0  0  0999 V2000
  -29.0650  -22.5640   22.7880 C   0  0  0  0  0  2  0  0  0  0  0  0
  -30.6330  -22.0780   20.9130 C   0  0  0  0  0  2  0  0  0  0  0  0
  -29.5050  -24.0470   22.7470 C   0  0  0  0  0  2  0  0  0  0  0  0
  -31.0480  -23.5620   20.9100 C   0  0  0  0  0  2  0  0  0  0  0  0
  -30.1810  -21.6060   22.3120 C   0  0  0  0  0  3  0  0  0  0  0  0
  -29.9630  -24.4610   21.3900 N   0  0  2  0  0  4  0  0  0  0  0  0
  -29.1850  -24.3480   20.7550 H   0  0  0  0  0  0  0  0  0  0  0  0
  -29.7170  -20.1250   22.3140 C   0  0  0  0  0  2  0  0  0  0  0  0
  -30.8180  -19.1790   22.0010 N   0  0  0  0  0  4  0  0  0  0  0  0
  -31.5120  -19.2050   22.7320 H   0  0  0  0  0  0  0  0  0  0  0  0
  -31.2640  -19.4840   21.1520 H   0  0  0  0  0  0  0  0  0  0  0  0
  -30.3960  -17.7760   21.7760 C   0  0  0  0  0  2  0  0  0  0  0  0
  -31.3810  -14.6460   20.1660 C   0  0  0  0  0  0  0  0  0  0  0  0
  -30.9930  -12.4170   19.2190 C   0  0  0  0  0  2  0  0  0  0  0  0
  -30.0730  -12.5530   17.9900 C   0  0  0  0  0  2  0  0  0  0  0  0
  -28.5950  -12.4750   18.4220 C   0  0  0  0  0  2  0  0  0  0  0  0
  -28.2590  -13.4040   19.6200 C   0  0  0  0  0  3  0  0  0  0  0  0
  -29.3190  -13.3150   20.7440 C   0  0  0  0  0  2  0  0  0  0  0  0
  -30.6450  -13.5050   20.1400 N   0  0  0  0  0  0  0  0  0  0  0  0
  -32.5780  -14.6700   19.8750 O   0  0  0  0  0  0  0  0  0  0  0  0
  -30.6960  -17.5540   18.5620 C   0  0  0  0  0  2  0  0  0  0  0  0
  -31.7830  -17.8260   19.5880 C   0  0  0  0  0  2  0  0  0  0  0  0
  -29.9860  -16.3000   19.0820 C   0  0  0  0  0  2  0  0  0  0  0  0
  -31.3640  -17.0170   20.8300 C   0  0  0  0  0  3  0  0  0  0  0  0
  -30.6970  -15.8160   20.2860 N   0  0  0  0  0  0  0  0  0  0  0  0
  -25.8990  -14.1040   20.3570 C   0  0  0  0  0  0  0  0  0  0  0  0
  -24.8080  -13.3700   20.7330 C   0  0  0  0  0  0  0  0  0  0  0  0
  -25.2250  -12.0040   20.7070 C   0  0  0  0  0  0  0  0  0  0  0  0
  -26.9100  -13.1850   20.1250 N   0  0  0  0  0  0  0  0  0  0  0  0
  -26.5110  -11.9180   20.3990 N   0  0  0  0  0  0  0  0  0  0  0  0
  -24.4610  -10.7670   20.8980 C   0  0  0  0  0  0  0  0  0  0  0  0
  -24.8240   -9.8190   21.8820 C   0  0  0  0  0  3  0  0  0  0  0  0
  -24.0620   -8.6440   22.0570 C   0  0  0  0  0  3  0  0  0  0  0  0
  -22.9240   -8.4110   21.2500 C   0  0  0  0  0  0  0  0  0  0  0  0
  -22.5830   -9.3450   20.2550 C   0  0  0  0  0  3  0  0  0  0  0  0
  -23.3450  -10.5110   20.0780 C   0  0  0  0  0  3  0  0  0  0  0  0
  -22.1360   -7.2890   21.3330 O   0  0  0  0  0  0  0  0  0  0  0  0
  -21.9420   -6.6350   22.5220 C   0  0  0  0  0  0  0  0  0  0  0  0
  -21.3870   -7.2840   23.6470 C   0  0  0  0  0  3  0  0  0  0  0  0
  -21.1390   -6.5570   24.8280 C   0  0  0  0  0  3  0  0  0  0  0  0
  -21.4380   -5.1820   24.8850 C   0  0  0  0  0  0  0  0  0  0  0  0
  -21.9830   -4.5330   23.7640 C   0  0  0  0  0  3  0  0  0  0  0  0
  -22.2330   -5.2570   22.5860 C   0  0  0  0  0  0  0  0  0  0  0  0
  -22.7390   -4.6220   21.5010 F   0  0  0  0  0  0  0  0  0  0  0  0
  -21.1940   -4.4800   26.0170 F   0  0  0  0  0  0  0  0  0  0  0  0
  -23.4270  -13.8940   21.0080 C   0  0  0  0  0  0  0  0  0  0  0  0
  -22.6850  -13.2290   21.8870 N   0  0  0  0  0  0  0  0  0  0  0  0
  -23.0180  -14.9270   20.4800 O   0  0  0  0  0  0  0  0  0  0  0  0
  -23.0250  -12.3910   22.3330 H   0  0  0  0  0  0  0  0  0  0  0  0
  -21.7610  -13.5670   22.1180 H   0  0  0  0  0  0  0  0  0  0  0  0
  -26.1110  -15.4670   20.1750 N   0  0  0  0  0  0  0  0  0  0  0  0
  -25.3680  -16.1510   20.2710 H   0  0  0  0  0  0  0  0  0  0  0  0
  -26.9810  -15.8690   19.8590 H   0  0  0  0  0  0  0  0  0  0  0  0
  -30.3860  -25.8910   21.2970 C   0  0  0  0  0  2  0  0  0  0  0  0
  -29.2490  -26.9370   21.3140 C   0  0  0  0  0  2  0  0  0  0  0  0
  -28.4530  -26.8930   20.1230 O   0  0  0  0  0  0  0  0  0  0  0  0
  -24.6030  -31.9850   23.3070 C   0  0  0  0  0  0  0  0  0  0  0  0
  -27.3050  -27.6600   20.1460 C   0  0  0  0  0  0  0  0  0  0  0  0
  -23.4000  -30.5820   21.6580 C   0  0  0  0  0  3  0  0  0  0  0  0
  -24.8690  -29.1000   20.1850 C   0  0  0  0  0  0  0  0  0  0  0  0
  -25.9070  -31.0100   21.4220 C   0  0  0  0  0  2  0  0  0  0  0  0
  -26.0160  -29.6470   20.7740 C   0  0  0  0  0  0  0  0  0  0  0  0
  -27.2330  -28.9340   20.7590 C   0  0  0  0  0  3  0  0  0  0  0  0
  -26.1480  -27.1320   19.5370 C   0  0  0  0  0  3  0  0  0  0  0  0
  -24.9290  -27.8410   19.5610 C   0  0  0  0  0  3  0  0  0  0  0  0
  -23.6060  -29.9310   20.2610 C   0  0  0  0  0  2  0  0  0  0  0  0
  -24.6560  -31.2050   22.1910 N   0  0  0  0  0  0  0  0  0  0  0  0
  -23.5260  -32.2220   23.8700 O   0  0  0  0  0  0  0  0  0  0  0  0
  -22.7880  -29.5320   22.6120 C   0  0  0  0  0  0  0  0  0  0  0  0
  -21.4710  -29.3030   22.4830 N   0  0  0  0  0  0  0  0  0  0  0  0
  -23.4940  -28.9270   23.4230 O   0  0  0  0  0  0  0  0  0  0  0  0
  -20.9630  -29.8410   21.7960 H   0  0  0  0  0  0  0  0  0  0  0  0
  -18.1440  -27.9750   22.9500 C   0  0  0  0  0  0  0  0  0  0  0  0
  -20.6860  -28.3340   23.2470 C   0  0  0  0  0  3  0  0  0  0  0  0
  -20.8510  -26.9070   22.6730 C   0  0  0  0  0  2  0  0  0  0  0  0
  -19.7730  -26.5440   21.6470 C   0  0  0  0  0  2  0  0  0  0  0  0
  -18.3800  -26.6330   22.2770 C   0  0  0  0  0  2  0  0  0  0  0  0
  -19.2280  -28.7800   23.3920 C   0  0  0  0  0  0  0  0  0  0  0  0
  -18.9530  -30.0320   23.9820 C   0  0  0  0  0  3  0  0  0  0  0  0
  -17.6290  -30.4840   24.1340 C   0  0  0  0  0  3  0  0  0  0  0  0
  -16.5600  -29.6770   23.7070 C   0  0  0  0  0  3  0  0  0  0  0  0
  -16.8180  -28.4240   23.1230 C   0  0  0  0  0  3  0  0  0  0  0  0
  -25.8880  -32.6290   23.9170 C   0  0  0  0  0  3  0  0  0  0  0  0
  -25.5720  -34.0290   24.2310 N   0  0  0  0  0  0  0  0  0  0  0  0
  -25.9130  -35.0740   23.4650 C   0  0  0  0  0  0  0  0  0  0  0  0
  -26.6000  -34.9630   22.4440 O   0  0  0  0  0  0  0  0  0  0  0  0
  -24.9600  -34.1890   25.0170 H   0  0  0  0  0  0  0  0  0  0  0  0
  -24.1860  -36.8560   23.0590 C   0  0  0  0  0  1  0  0  0  0  0  0
  -25.4120  -36.4640   23.9000 C   0  0  0  0  0  3  0  0  0  0  0  0
  -27.5350  -37.3510   24.7570 C   0  0  0  0  0  1  0  0  0  0  0  0
  -26.4410  -37.5230   23.8050 N   0  0  0  0  0  0  0  0  0  0  0  0
  -26.0260  -38.4370   23.9630 H   0  0  0  0  0  0  0  0  0  0  0  0
  -26.4150  -31.8730   25.1980 C   0  0  1  0  0  0  0  0  0  0  0  0
  -25.3260  -31.6290   26.2680 C   0  0  0  0  0  1  0  0  0  0  0  0
  -27.0140  -30.5020   24.8070 C   0  0  0  0  0  1  0  0  0  0  0  0
  -27.5570  -32.6850   25.8530 C   0  0  0  0  0  1  0  0  0  0  0  0
  2  5  1  0
  3  1  1  0
  4  2  1  0
  4  6  1  0
  5  8  1  0
  5  1  1  0
  6  3  1  0
  6  7  1  6
  9  8  1  0
  9 10  1  0
 11  9  1  0
 12  9  1  0
 13 25  1  0
 14 19  1  0
 15 16  1  0
 15 14  1  0
 17 16  1  0
 17 29  1  0
 17 18  1  0
 19 13  1  0
 19 18  1  0
 20 13  2  0
 21 23  1  0
 21 22  1  0
 22 24  1  0
 23 25  1  0
 24 12  1  0
 25 24  1  0
 26 27  2  0
 27 46  1  0
 28 27  1  0
 28 31  1  0
 29 26  1  0
 29 30  1  0
 30 28  2  0
 31 32  1  0
 32 33  2  0
 34 37  1  0
 34 33  1  0
 35 34  2  0
 36 35  1  0
 36 31  2  0
 37 38  1  0
 38 43  2  0
 38 39  1  0
 39 40  2  0
 40 41  1  0
 41 45  1  0
 42 41  2  0
 43 42  1  0
 44 43  1  0
 46 47  1  0
 47 50  1  0
 47 49  1  0
 48 46  2  0
 51 52  1  0
 51 26  1  0
 53 51  1  0
 54 55  1  0
 54  6  1  0
 56 58  1  0
 56 55  1  0
 57 68  2  0
 58 63  1  0
 59 67  1  0
 59 69  1  0
 60 66  1  0
 60 62  1  0
 61 67  1  0
 62 61  1  0
 63 62  2  0
 64 65  1  0
 64 58  2  0
 65 60  2  0
 66 59  1  0
 67 57  1  0
 69 71  2  0
 70 69  1  0
 72 70  1  0
 73 82  2  0
 73 78  1  0
 74 70  1  0
 74 78  1  0
 75 74  1  0
 76 77  1  0
 76 75  1  0
 77 73  1  0
 78 79  2  0
 79 80  1  0
 81 80  2  0
 82 81  1  0
 83 57  1  0
 83 84  1  0
 83 93  1  0
 84 87  1  0
 85 89  1  0
 85 84  1  0
 86 85  2  0
 89 88  1  0
 91 89  1  0
 91 92  1  0
 91 90  1  0
 93 96  1  1
 93 94  1  0
 95 93  1  0
M  ISO  4  13 100  25 100  55 101  56 101
M  END
>  <TORSDO>  (50) 
F 21

>  <SCORE>  (50) 
-12.513

>  <name>  (50) 
50

>  <ligand_id>  (50) 
50

>  <original_smiles>  (50) 
[H]c1c([H])c([H])c2c(c1[H])C([H])([H])C([H])([H])C([H])([H])C2([H])N([H])C(=O)C1([H])N(C(=O)C([H])(N([H])C(=O)C([H])(N([H])C([H])([H])[H])C([H])([H])[H])C(C([H])([H])[H])(C([H])([H])[H])C([H])([H])[H])C([H])([H])c2c([H])c(OC([H])([H])C([H])([H])[N+]3([H])C([H])([H])C([H])([H])C([H])(C([H])([H])[N+]([H])([H])C([H])([H])C4([H])N(C(=O)N5C([H])([H])C([H])([H])C([H])([H])C([H])(n6nc(-c7c([H])c([H])c(Oc8c([H])c([H])c(F)c([H])c8F)c([H])c7[H])c(C(=O)N([H])[H])c6N([H])[H])C5([H])[H])C([H])([H])C([H])([H])C4([H])[H])C([H])([H])C3([H])[H])c([H])c([H])c2C1([H])[H]

>  <smiles>  (50) 
[H]c1c([H])c([H])c2c(c1[H])C([H])([H])C([H])([H])C([H])([H])C2([H])N([H])C(=O)C1([H])N(C(=O)C([H])(N([H])C(=O)C([H])(N([H])C([H])([H])[H])C([H])([H])[H])C(C([H])([H])[H])(C([H])([H])[H])C([H])([H])[H])C([H])([H])c2c([H])c(OC([H])([H])C([H])([H])[N+]3([H])C([H])([H])C([H])([H])C([H])(C([H])([H])[N+]([H])([H])C([H])([H])C4([H])N(C(=O)N5C([H])([H])C([H])([H])C([H])([H])C([H])(n6nc(-c7c([H])c([H])c(Oc8c([H])c([H])c(F)c([H])c8F)c([H])c7[H])c(C(=O)N([H])[H])c6N([H])[H])C5([H])[H])C([H])([H])C([H])([H])C4([H])[H])C([H])([H])C3([H])[H])c([H])c([H])c2C1([H])[H]

$$$$
51:0:0
     RDKit          3D

103111  0  0  1  0  0  0  0  0999 V2000
  -29.6710  -19.4630   21.4760 N   0  0  0  0  0  4  0  0  0  0  0  0
  -30.0490  -19.4150   22.4090 H   0  0  0  0  0  0  0  0  0  0  0  0
  -30.3590  -19.9150   20.8990 H   0  0  0  0  0  0  0  0  0  0  0  0
  -28.4880  -20.3680   21.5420 C   0  0  0  0  0  2  0  0  0  0  0  0
  -29.5040  -22.7380   21.8060 C   0  0  0  0  0  3  0  0  0  0  0  0
  -28.1070  -22.2820   19.8770 C   0  0  0  0  0  3  0  0  0  0  0  0
  -29.6770  -24.0740   21.3590 C   0  0  0  0  0  3  0  0  0  0  0  0
  -28.2700  -23.6150   19.4400 C   0  0  0  0  0  3  0  0  0  0  0  0
  -28.7290  -21.8150   21.0610 C   0  0  0  0  0  0  0  0  0  0  0  0
  -29.0660  -24.5250   20.1660 C   0  0  0  0  0  0  0  0  0  0  0  0
  -29.3610  -25.9190   19.5880 C   0  0  0  0  0  2  0  0  0  0  0  0
  -29.0210  -27.0380   20.4210 O   0  0  0  0  0  0  0  0  0  0  0  0
  -24.7100  -31.9090   23.2750 C   0  0  0  0  0  0  0  0  0  0  0  0
  -27.7890  -27.6590   20.3170 C   0  0  0  0  0  0  0  0  0  0  0  0
  -23.6880  -30.4710   21.5390 C   0  0  0  0  0  3  0  0  0  0  0  0
  -25.3100  -29.0330   20.1920 C   0  0  0  0  0  0  0  0  0  0  0  0
  -26.1950  -30.9690   21.5030 C   0  0  0  0  0  2  0  0  0  0  0  0
  -26.3960  -29.6120   20.8580 C   0  0  0  0  0  0  0  0  0  0  0  0
  -27.6320  -28.9300   20.9210 C   0  0  0  0  0  3  0  0  0  0  0  0
  -26.6770  -27.0880   19.6550 C   0  0  0  0  0  3  0  0  0  0  0  0
  -25.4450  -27.7700   19.5900 C   0  0  0  0  0  3  0  0  0  0  0  0
  -24.0200  -29.8220   20.1690 C   0  0  0  0  0  2  0  0  0  0  0  0
  -24.8790  -31.1330   22.1670 N   0  0  0  0  0  0  0  0  0  0  0  0
  -23.5850  -32.1130   23.7500 O   0  0  0  0  0  0  0  0  0  0  0  0
  -23.0340  -29.4030   22.4440 C   0  0  0  0  0  0  0  0  0  0  0  0
  -21.7120  -29.2180   22.2920 N   0  0  0  0  0  0  0  0  0  0  0  0
  -23.7120  -28.7440   23.2360 O   0  0  0  0  0  0  0  0  0  0  0  0
  -21.2270  -29.8040   21.6260 H   0  0  0  0  0  0  0  0  0  0  0  0
  -18.3280  -28.0420   22.7540 C   0  0  0  0  0  0  0  0  0  0  0  0
  -20.8920  -28.2380   23.0020 C   0  0  0  0  0  3  0  0  0  0  0  0
  -20.9610  -26.8520   22.3170 C   0  0  0  0  0  2  0  0  0  0  0  0
  -19.8400  -26.6270   21.2990 C   0  0  0  0  0  2  0  0  0  0  0  0
  -18.4710  -26.7450   21.9740 C   0  0  0  0  0  2  0  0  0  0  0  0
  -19.4660  -28.7520   23.2220 C   0  0  0  0  0  0  0  0  0  0  0  0
  -19.2780  -29.9720   23.9060 C   0  0  0  0  0  3  0  0  0  0  0  0
  -17.9840  -30.4810   24.1310 C   0  0  0  0  0  3  0  0  0  0  0  0
  -16.8610  -29.7640   23.6820 C   0  0  0  0  0  3  0  0  0  0  0  0
  -17.0340  -28.5470   23.0000 C   0  0  0  0  0  3  0  0  0  0  0  0
  -25.9180  -32.5980   23.9870 C   0  0  0  0  0  3  0  0  0  0  0  0
  -25.5420  -33.9930   24.2550 N   0  0  0  0  0  0  0  0  0  0  0  0
  -25.8910  -35.0350   23.4880 C   0  0  0  0  0  0  0  0  0  0  0  0
  -26.6370  -34.9270   22.5110 O   0  0  0  0  0  0  0  0  0  0  0  0
  -24.8940  -34.1500   25.0130 H   0  0  0  0  0  0  0  0  0  0  0  0
  -24.1280  -36.7470   22.9620 C   0  0  0  0  0  1  0  0  0  0  0  0
  -25.3260  -36.4170   23.8670 C   0  0  0  0  0  3  0  0  0  0  0  0
  -27.3640  -37.4090   24.8110 C   0  0  0  0  0  1  0  0  0  0  0  0
  -26.3240  -37.5040   23.7890 N   0  0  0  0  0  0  0  0  0  0  0  0
  -25.8760  -38.4120   23.8780 H   0  0  0  0  0  0  0  0  0  0  0  0
  -26.3560  -31.8730   25.3180 C   0  0  1  0  0  0  0  0  0  0  0  0
  -25.1920  -31.6180   26.3040 C   0  0  0  0  0  1  0  0  0  0  0  0
  -27.0130  -30.5100   25.0020 C   0  0  0  0  0  1  0  0  0  0  0  0
  -27.4280  -32.7190   26.0470 C   0  0  0  0  0  1  0  0  0  0  0  0
  -29.4130  -18.0700   20.9880 C   0  0  0  0  0  2  0  0  0  0  0  0
  -30.6710  -17.1280   21.0280 C   0  0  0  0  0  2  0  0  0  0  0  0
  -31.1530  -14.6900   20.9690 C   0  0  0  0  0  0  0  0  0  0  0  0
  -30.9630  -12.3030   20.3760 C   0  0  0  0  0  2  0  0  0  0  0  0
  -30.2010  -12.1390   19.0430 C   0  0  0  0  0  2  0  0  0  0  0  0
  -28.6780  -12.1240   19.2710 C   0  0  0  0  0  2  0  0  0  0  0  0
  -28.1730  -13.2270   20.2400 C   0  0  0  0  0  3  0  0  0  0  0  0
  -29.0740  -13.3540   21.4880 C   0  0  0  0  0  2  0  0  0  0  0  0
  -30.4560  -13.5220   21.0200 N   0  0  0  0  0  0  0  0  0  0  0  0
  -32.3830  -14.7210   20.9950 O   0  0  0  0  0  0  0  0  0  0  0  0
  -30.5050  -15.7680   20.4220 N   0  0  0  0  0  0  0  0  0  0  0  0
  -25.7490  -13.9590   20.6690 C   0  0  0  0  0  0  0  0  0  0  0  0
  -24.6120  -13.2460   20.9340 C   0  0  0  0  0  0  0  0  0  0  0  0
  -25.0110  -11.8760   21.0060 C   0  0  0  0  0  0  0  0  0  0  0  0
  -26.7710  -13.0260   20.5890 N   0  0  0  0  0  0  0  0  0  0  0  0
  -26.3250  -11.7730   20.8620 N   0  0  0  0  0  0  0  0  0  0  0  0
  -24.2120  -10.6530   21.1490 C   0  0  0  0  0  0  0  0  0  0  0  0
  -24.5570   -9.6500   22.0810 C   0  0  0  0  0  3  0  0  0  0  0  0
  -23.7630   -8.4910   22.2120 C   0  0  0  0  0  3  0  0  0  0  0  0
  -22.6080   -8.3270   21.4120 C   0  0  0  0  0  0  0  0  0  0  0  0
  -22.2800   -9.3190   20.4700 C   0  0  0  0  0  3  0  0  0  0  0  0
  -23.0750  -10.4700   20.3360 C   0  0  0  0  0  3  0  0  0  0  0  0
  -21.7900   -7.2220   21.4540 O   0  0  0  0  0  0  0  0  0  0  0  0
  -21.7030   -6.4350   22.5740 C   0  0  0  0  0  0  0  0  0  0  0  0
  -21.2860   -6.9540   23.8190 C   0  0  0  0  0  3  0  0  0  0  0  0
  -21.1420   -6.0970   24.9270 C   0  0  0  0  0  3  0  0  0  0  0  0
  -21.4050   -4.7200   24.7920 C   0  0  0  0  0  0  0  0  0  0  0  0
  -21.8160   -4.2000   23.5520 C   0  0  0  0  0  3  0  0  0  0  0  0
  -21.9610   -5.0560   22.4460 C   0  0  0  0  0  0  0  0  0  0  0  0
  -22.3360   -4.5470   21.2480 F   0  0  0  0  0  0  0  0  0  0  0  0
  -21.2610   -3.8930   25.8540 F   0  0  0  0  0  0  0  0  0  0  0  0
  -23.2140  -13.7910   21.0160 C   0  0  0  0  0  0  0  0  0  0  0  0
  -22.3680  -13.1820   21.8390 N   0  0  0  0  0  0  0  0  0  0  0  0
  -22.8800  -14.7910   20.3850 O   0  0  0  0  0  0  0  0  0  0  0  0
  -22.6520  -12.3750   22.3740 H   0  0  0  0  0  0  0  0  0  0  0  0
  -21.4260  -13.5310   21.9390 H   0  0  0  0  0  0  0  0  0  0  0  0
  -25.9980  -15.3130   20.4630 N   0  0  0  0  0  0  0  0  0  0  0  0
  -25.2540  -16.0010   20.4480 H   0  0  0  0  0  0  0  0  0  0  0  0
  -26.8990  -15.6970   20.2080 H   0  0  0  0  0  0  0  0  0  0  0  0
  -30.4970  -15.8720   18.9280 C   0  0  0  0  0  2  0  0  0  0  0  0
  -31.8390  -16.3070   18.2240 C   0  0  0  0  0  3  0  0  0  0  0  0
  -31.6410  -17.2910   17.0330 C   0  0  0  0  0  2  0  0  0  0  0  0
  -31.1680  -18.6330   17.4160 N   0  0  0  0  0  4  0  0  0  0  0  0
  -30.2140  -18.6170   17.7290 H   0  0  0  0  0  0  0  0  0  0  0  0
  -31.1990  -19.2300   16.6060 H   0  0  0  0  0  0  0  0  0  0  0  0
  -31.7610  -19.0470   18.1130 H   0  0  0  0  0  0  0  0  0  0  0  0
  -32.7490  -15.1220   17.7710 C   0  0  0  0  0  2  0  0  0  0  0  0
  -32.2770  -14.3930   16.5700 N   0  0  0  0  0  4  0  0  0  0  0  0
  -31.3470  -14.0320   16.6770 H   0  0  0  0  0  0  0  0  0  0  0  0
  -32.8890  -13.6140   16.3950 H   0  0  0  0  0  0  0  0  0  0  0  0
  -32.3070  -14.9680   15.7460 H   0  0  0  0  0  0  0  0  0  0  0  0
  1  4  1  0
  1  2  1  0
  3  1  1  0
  6  9  1  0
  7  5  1  0
  8  6  2  0
  8 10  1  0
  9  4  1  0
  9  5  2  0
 10  7  2  0
 11 10  1  0
 11 12  1  0
 13 24  2  0
 14 12  1  0
 14 19  1  0
 15 23  1  0
 15 25  1  0
 16 18  1  0
 17 23  1  0
 18 19  2  0
 18 17  1  0
 20 14  2  0
 21 20  1  0
 21 16  2  0
 22 16  1  0
 22 15  1  0
 23 13  1  0
 25 27  2  0
 26 25  1  0
 28 26  1  0
 29 38  2  0
 29 34  1  0
 30 26  1  0
 30 34  1  0
 31 30  1  0
 32 33  1  0
 32 31  1  0
 33 29  1  0
 34 35  2  0
 35 36  1  0
 37 36  2  0
 38 37  1  0
 39 13  1  0
 39 40  1  0
 39 49  1  0
 40 43  1  0
 41 45  1  0
 41 40  1  0
 42 41  2  0
 45 44  1  0
 47 45  1  0
 47 48  1  0
 47 46  1  0
 49 52  1  1
 49 50  1  0
 51 49  1  0
 53 54  1  0
 53  1  1  0
 55 62  2  0
 55 61  1  0
 56 61  1  0
 57 58  1  0
 57 56  1  0
 59 58  1  0
 59 67  1  0
 59 60  1  0
 61 60  1  0
 63 55  1  0
 63 54  1  0
 64 65  2  0
 65 66  1  0
 65 84  1  0
 66 69  1  0
 67 64  1  0
 67 68  1  0
 68 66  2  0
 69 70  1  0
 70 71  2  0
 72 75  1  0
 72 71  1  0
 73 72  2  0
 74 73  1  0
 74 69  2  0
 75 76  1  0
 76 77  1  0
 77 78  2  0
 79 78  1  0
 79 83  1  0
 80 79  2  0
 81 76  2  0
 81 80  1  0
 82 81  1  0
 84 85  1  0
 85 88  1  0
 85 87  1  0
 86 84  2  0
 89 64  1  0
 90 89  1  0
 91 89  1  0
 92 63  1  0
 93 92  1  0
 94 95  1  0
 94 93  1  0
 95 96  1  0
 95 98  1  0
 97 95  1  0
 99 93  1  0
100101  1  0
100 99  1  0
102100  1  0
103100  1  0
M  ISO  4  11 101  12 101  55 100  63 100
M  END
>  <TORSDO>  (51) 
F 27

>  <SCORE>  (51) 
-10.905

>  <name>  (51) 
51

>  <ligand_id>  (51) 
51

>  <original_smiles>  (51) 
[H]c1c([H])c([H])c2c(c1[H])C([H])([H])C([H])([H])C([H])([H])C2([H])N([H])C(=O)C1([H])N(C(=O)C([H])(N([H])C(=O)C([H])(N([H])C([H])([H])[H])C([H])([H])[H])C(C([H])([H])[H])(C([H])([H])[H])C([H])([H])[H])C([H])([H])c2c([H])c(OC([H])([H])c3c([H])c([H])c(C([H])([H])[N+]([H])([H])C([H])([H])C([H])([H])N(C(=O)N4C([H])([H])C([H])([H])C([H])([H])C([H])(n5nc(-c6c([H])c([H])c(Oc7c([H])c([H])c(F)c([H])c7F)c([H])c6[H])c(C(=O)N([H])[H])c5N([H])[H])C4([H])[H])C([H])([H])C([H])(C([H])([H])[N+]([H])([H])[H])C([H])([H])[N+]([H])([H])[H])c([H])c3[H])c([H])c([H])c2C1([H])[H]

>  <smiles>  (51) 
[H]c1c([H])c([H])c2c(c1[H])C([H])([H])C([H])([H])C([H])([H])C2([H])N([H])C(=O)C1([H])N(C(=O)C([H])(N([H])C(=O)C([H])(N([H])C([H])([H])[H])C([H])([H])[H])C(C([H])([H])[H])(C([H])([H])[H])C([H])([H])[H])C([H])([H])c2c([H])c(OC([H])([H])c3c([H])c([H])c(C([H])([H])[N+]([H])([H])C([H])([H])C([H])([H])N(C(=O)N4C([H])([H])C([H])([H])C([H])([H])C([H])(n5nc(-c6c([H])c([H])c(Oc7c([H])c([H])c(F)c([H])c7F)c([H])c6[H])c(C(=O)N([H])[H])c5N([H])[H])C4([H])[H])C([H])([H])C([H])(C([H])([H])[N+]([H])([H])[H])C([H])([H])[N+]([H])([H])[H])c([H])c3[H])c([H])c([H])c2C1([H])[H]

$$$$
52:0:0
     RDKit          3D

 95103  0  0  1  0  0  0  0  0999 V2000
  -30.8990  -19.8230   22.4100 C   0  0  0  0  0  2  0  0  0  0  0  0
  -30.3530  -18.4250   21.9950 C   0  0  0  0  0  2  0  0  0  0  0  0
  -30.9300  -18.8870   19.5570 C   0  0  0  0  0  2  0  0  0  0  0  0
  -30.2180  -21.1030   21.8040 C   0  0  0  0  0  2  0  0  0  0  0  0
  -31.4000  -20.4170   19.7030 C   0  0  0  0  0  2  0  0  0  0  0  0
  -31.0250  -17.7940   20.7390 C   0  0  0  0  0  3  0  0  0  0  0  0
  -30.4130  -21.3840   20.3500 N   0  0  2  0  0  4  0  0  0  0  0  0
  -29.5370  -21.1280   19.9200 H   0  0  0  0  0  0  0  0  0  0  0  0
  -31.1240  -15.1130   20.4640 C   0  0  0  0  0  0  0  0  0  0  0  0
  -30.9200  -12.8560   19.3650 C   0  0  0  0  0  2  0  0  0  0  0  0
  -29.9370  -12.8360   18.1740 C   0  0  0  0  0  2  0  0  0  0  0  0
  -28.4760  -12.6070   18.6270 C   0  0  0  0  0  2  0  0  0  0  0  0
  -28.1010  -13.4130   19.8890 C   0  0  0  0  0  3  0  0  0  0  0  0
  -29.2190  -13.4110   20.9650 C   0  0  0  0  0  2  0  0  0  0  0  0
  -30.4500  -13.8990   20.3130 N   0  0  0  0  0  0  0  0  0  0  0  0
  -32.3540  -15.0970   20.3700 O   0  0  0  0  0  0  0  0  0  0  0  0
  -30.4600  -16.3720   20.4560 N   0  0  0  0  0  0  0  0  0  0  0  0
  -25.7180  -13.9890   20.6460 C   0  0  0  0  0  0  0  0  0  0  0  0
  -24.6620  -13.1960   20.9940 C   0  0  0  0  0  0  0  0  0  0  0  0
  -25.1500  -11.8530   20.9320 C   0  0  0  0  0  0  0  0  0  0  0  0
  -26.7770  -13.1220   20.4080 N   0  0  0  0  0  0  0  0  0  0  0  0
  -26.4410  -11.8370   20.6400 N   0  0  0  0  0  0  0  0  0  0  0  0
  -24.4520  -10.5760   21.0770 C   0  0  0  0  0  0  0  0  0  0  0  0
  -24.8190   -9.6550   22.0810 C   0  0  0  0  0  3  0  0  0  0  0  0
  -24.1240   -8.4350   22.2160 C   0  0  0  0  0  3  0  0  0  0  0  0
  -23.0520   -8.1290   21.3440 C   0  0  0  0  0  0  0  0  0  0  0  0
  -22.7100   -9.0410   20.3280 C   0  0  0  0  0  3  0  0  0  0  0  0
  -23.4040  -10.2520   20.1920 C   0  0  0  0  0  3  0  0  0  0  0  0
  -22.3380   -6.9580   21.3860 O   0  0  0  0  0  0  0  0  0  0  0  0
  -22.0580   -6.3290   22.5730 C   0  0  0  0  0  0  0  0  0  0  0  0
  -21.2720   -6.9420   23.5740 C   0  0  0  0  0  3  0  0  0  0  0  0
  -20.9460   -6.2320   24.7460 C   0  0  0  0  0  3  0  0  0  0  0  0
  -21.3970   -4.9100   24.9200 C   0  0  0  0  0  0  0  0  0  0  0  0
  -22.1780   -4.2970   23.9250 C   0  0  0  0  0  3  0  0  0  0  0  0
  -22.5040   -5.0040   22.7540 C   0  0  0  0  0  0  0  0  0  0  0  0
  -23.2370   -4.3990   21.7870 F   0  0  0  0  0  0  0  0  0  0  0  0
  -21.0760   -4.2270   26.0420 F   0  0  0  0  0  0  0  0  0  0  0  0
  -23.2570  -13.6410   21.2750 C   0  0  0  0  0  0  0  0  0  0  0  0
  -22.5470  -12.9400   22.1510 N   0  0  0  0  0  0  0  0  0  0  0  0
  -22.7970  -14.6590   20.7540 O   0  0  0  0  0  0  0  0  0  0  0  0
  -22.9300  -12.1250   22.6080 H   0  0  0  0  0  0  0  0  0  0  0  0
  -21.6010  -13.2190   22.3630 H   0  0  0  0  0  0  0  0  0  0  0  0
  -25.8660  -15.3690   20.4780 N   0  0  0  0  0  0  0  0  0  0  0  0
  -24.9880  -15.8290   20.6960 H   0  0  0  0  0  0  0  0  0  0  0  0
  -26.5630  -15.7130   21.1280 H   0  0  0  0  0  0  0  0  0  0  0  0
  -29.0450  -16.5400   20.0890 C   0  0  0  0  0  2  0  0  0  0  0  0
  -28.7810  -16.7670   18.5700 C   0  0  0  0  0  2  0  0  0  0  0  0
  -27.3490  -17.0360   18.3190 N   0  0  0  0  0  4  0  0  0  0  0  0
  -26.7600  -16.4550   18.9050 H   0  0  0  0  0  0  0  0  0  0  0  0
  -27.1130  -16.8750   17.3540 H   0  0  0  0  0  0  0  0  0  0  0  0
  -27.1220  -17.9920   18.5300 H   0  0  0  0  0  0  0  0  0  0  0  0
  -30.5560  -22.8840   19.9760 C   0  0  0  0  0  2  0  0  0  0  0  0
  -29.6430  -24.0460   20.6670 C   0  0  0  0  0  2  0  0  0  0  0  0
  -29.3080  -25.4080   19.8410 C   0  0  0  0  0  2  0  0  0  0  0  0
  -29.0010  -26.7200   20.5040 O   0  0  0  0  0  0  0  0  0  0  0  0
  -24.7780  -31.9020   23.2880 C   0  0  0  0  0  0  0  0  0  0  0  0
  -27.8080  -27.4740   20.3620 C   0  0  0  0  0  0  0  0  0  0  0  0
  -23.7330  -30.4440   21.5890 C   0  0  0  0  0  3  0  0  0  0  0  0
  -25.3390  -28.9610   20.2390 C   0  0  0  0  0  0  0  0  0  0  0  0
  -26.2540  -30.8950   21.5210 C   0  0  0  0  0  2  0  0  0  0  0  0
  -26.4440  -29.5120   20.8980 C   0  0  0  0  0  0  0  0  0  0  0  0
  -27.6690  -28.7730   20.9590 C   0  0  0  0  0  3  0  0  0  0  0  0
  -26.6700  -26.9840   19.6770 C   0  0  0  0  0  3  0  0  0  0  0  0
  -25.4570  -27.7050   19.6220 C   0  0  0  0  0  3  0  0  0  0  0  0
  -24.0480  -29.7610   20.2280 C   0  0  0  0  0  2  0  0  0  0  0  0
  -24.9380  -31.0980   22.1940 N   0  0  0  0  0  0  0  0  0  0  0  0
  -23.6550  -32.1220   23.7670 O   0  0  0  0  0  0  0  0  0  0  0  0
  -23.0670  -29.4050   22.5220 C   0  0  0  0  0  0  0  0  0  0  0  0
  -21.7530  -29.1900   22.3460 N   0  0  0  0  0  0  0  0  0  0  0  0
  -23.7350  -28.7890   23.3580 O   0  0  0  0  0  0  0  0  0  0  0  0
  -21.2720  -29.7450   21.6510 H   0  0  0  0  0  0  0  0  0  0  0  0
  -18.3880  -27.9230   22.7600 C   0  0  0  0  0  0  0  0  0  0  0  0
  -20.9380  -28.2130   23.0710 C   0  0  0  0  0  3  0  0  0  0  0  0
  -21.0710  -26.8050   22.4460 C   0  0  0  0  0  2  0  0  0  0  0  0
  -19.9860  -26.5000   21.4080 C   0  0  0  0  0  2  0  0  0  0  0  0
  -18.5950  -26.6010   22.0380 C   0  0  0  0  0  2  0  0  0  0  0  0
  -19.4900  -28.6870   23.2300 C   0  0  0  0  0  0  0  0  0  0  0  0
  -19.2430  -29.9240   23.8640 C   0  0  0  0  0  3  0  0  0  0  0  0
  -17.9290  -30.4010   24.0270 C   0  0  0  0  0  3  0  0  0  0  0  0
  -16.8420  -29.6350   23.5700 C   0  0  0  0  0  3  0  0  0  0  0  0
  -17.0720  -28.3960   22.9460 C   0  0  0  0  0  3  0  0  0  0  0  0
  -25.9920  -32.5950   23.9830 C   0  0  0  0  0  3  0  0  0  0  0  0
  -25.6180  -33.9930   24.2480 N   0  0  0  0  0  0  0  0  0  0  0  0
  -25.9680  -35.0340   23.4800 C   0  0  0  0  0  0  0  0  0  0  0  0
  -26.7050  -34.9190   22.4970 O   0  0  0  0  0  0  0  0  0  0  0  0
  -24.9700  -34.1530   25.0050 H   0  0  0  0  0  0  0  0  0  0  0  0
  -24.2130  -36.7580   22.9510 C   0  0  0  0  0  1  0  0  0  0  0  0
  -25.4090  -36.4190   23.8570 C   0  0  0  0  0  3  0  0  0  0  0  0
  -27.4530  -37.4030   24.8000 C   0  0  0  0  0  1  0  0  0  0  0  0
  -26.4140  -37.5040   23.7780 N   0  0  0  0  0  0  0  0  0  0  0  0
  -25.9680  -38.4140   23.8650 H   0  0  0  0  0  0  0  0  0  0  0  0
  -26.4330  -31.8750   25.3160 C   0  0  1  0  0  0  0  0  0  0  0  0
  -25.2700  -31.6170   26.3030 C   0  0  0  0  0  1  0  0  0  0  0  0
  -27.0920  -30.5130   24.9960 C   0  0  0  0  0  1  0  0  0  0  0  0
  -27.5020  -32.7250   26.0430 C   0  0  0  0  0  1  0  0  0  0  0  0
  2  1  1  0
  3  5  1  0
  3  6  1  0
  4  1  1  0
  5  7  1  0
  6 17  1  0
  6  2  1  0
  7  4  1  0
  7  8  1  6
 10 15  1  0
 11 12  1  0
 11 10  1  0
 13 12  1  0
 13 21  1  0
 13 14  1  0
 15  9  1  0
 15 14  1  0
 16  9  2  0
 17  9  1  0
 18 19  2  0
 19 38  1  0
 20 19  1  0
 20 23  1  0
 21 22  1  0
 21 18  1  0
 22 20  2  0
 23 24  1  0
 24 25  2  0
 26 29  1  0
 26 25  1  0
 27 26  2  0
 28 27  1  0
 28 23  2  0
 29 30  1  0
 30 35  2  0
 30 31  1  0
 31 32  2  0
 32 33  1  0
 33 37  1  0
 34 33  2  0
 35 34  1  0
 36 35  1  0
 38 39  1  0
 39 42  1  0
 39 41  1  0
 40 38  2  0
 43 18  1  0
 43 44  1  0
 43 45  1  0
 46 17  1  0
 47 46  1  0
 48 51  1  0
 48 47  1  0
 48 49  1  0
 50 48  1  0
 52  7  1  0
 52 53  1  0
 54 55  1  0
 54 53  1  0
 56 67  2  0
 57 55  1  0
 57 62  1  0
 58 66  1  0
 58 68  1  0
 59 61  1  0
 60 66  1  0
 61 62  2  0
 61 60  1  0
 63 57  2  0
 64 63  1  0
 64 59  2  0
 65 59  1  0
 65 58  1  0
 66 56  1  0
 68 70  2  0
 69 68  1  0
 71 69  1  0
 72 81  2  0
 72 77  1  0
 73 69  1  0
 73 77  1  0
 74 73  1  0
 75 76  1  0
 75 74  1  0
 76 72  1  0
 77 78  2  0
 78 79  1  0
 80 79  2  0
 81 80  1  0
 82 56  1  0
 82 83  1  0
 82 92  1  0
 83 86  1  0
 84 88  1  0
 84 83  1  0
 85 84  2  0
 88 87  1  0
 90 88  1  0
 90 91  1  0
 90 89  1  0
 92 95  1  1
 92 93  1  0
 94 92  1  0
M  ISO  4   9 100  17 100  54 101  55 101
M  END
>  <TORSDO>  (52) 
F 22

>  <SCORE>  (52) 
-11.902

>  <name>  (52) 
52

>  <ligand_id>  (52) 
52

>  <original_smiles>  (52) 
[H]c1c([H])c([H])c2c(c1[H])C([H])([H])C([H])([H])C([H])([H])C2([H])N([H])C(=O)C1([H])N(C(=O)C([H])(N([H])C(=O)C([H])(N([H])C([H])([H])[H])C([H])([H])[H])C(C([H])([H])[H])(C([H])([H])[H])C([H])([H])[H])C([H])([H])c2c([H])c(OC([H])([H])C([H])([H])C([H])([H])[N+]3([H])C([H])([H])C([H])([H])C([H])([H])C([H])(N(C(=O)N4C([H])([H])C([H])([H])C([H])([H])C([H])(n5nc(-c6c([H])c([H])c(Oc7c([H])c([H])c(F)c([H])c7F)c([H])c6[H])c(C(=O)N([H])[H])c5N([H])[H])C4([H])[H])C([H])([H])C([H])([H])[N+]([H])([H])[H])C([H])([H])C3([H])[H])c([H])c([H])c2C1([H])[H]

>  <smiles>  (52) 
[H]c1c([H])c([H])c2c(c1[H])C([H])([H])C([H])([H])C([H])([H])C2([H])N([H])C(=O)C1([H])N(C(=O)C([H])(N([H])C(=O)C([H])(N([H])C([H])([H])[H])C([H])([H])[H])C(C([H])([H])[H])(C([H])([H])[H])C([H])([H])[H])C([H])([H])c2c([H])c(OC([H])([H])C([H])([H])C([H])([H])[N+]3([H])C([H])([H])C([H])([H])C([H])([H])C([H])(N(C(=O)N4C([H])([H])C([H])([H])C([H])([H])C([H])(n5nc(-c6c([H])c([H])c(Oc7c([H])c([H])c(F)c([H])c7F)c([H])c6[H])c(C(=O)N([H])[H])c5N([H])[H])C4([H])[H])C([H])([H])C([H])([H])[N+]([H])([H])[H])C([H])([H])C3([H])[H])c([H])c([H])c2C1([H])[H]

$$$$
53:0:0
     RDKit          3D

101110  0  0  1  0  0  0  0  0999 V2000
  -29.2690  -21.7790   22.7810 N   0  0  0  0  0  4  0  0  0  0  0  0
  -28.3350  -21.4090   22.8390 H   0  0  0  0  0  0  0  0  0  0  0  0
  -29.6790  -21.4370   21.9280 H   0  0  0  0  0  0  0  0  0  0  0  0
  -31.0810  -20.2870   23.2690 C   0  0  0  0  0  3  0  0  0  0  0  0
  -31.2180  -18.9840   23.5710 C   0  0  0  0  0  0  0  0  0  0  0  0
  -30.4100  -18.3280   24.6820 C   0  0  0  0  0  2  0  0  0  0  0  0
  -29.8560  -19.3700   25.6690 C   0  0  0  0  0  2  0  0  0  0  0  0
  -29.1500  -20.5170   24.9260 C   0  0  0  0  0  2  0  0  0  0  0  0
  -30.0670  -21.2280   23.8960 C   0  0  0  0  0  3  0  0  0  0  0  0
  -32.1230  -18.0870   22.7510 C   0  0  0  0  0  2  0  0  0  0  0  0
  -31.3100  -17.4370   21.7020 N   0  0  0  0  0  4  0  0  0  0  0  0
  -30.6200  -18.0950   21.3830 H   0  0  0  0  0  0  0  0  0  0  0  0
  -30.8210  -16.6510   22.0940 H   0  0  0  0  0  0  0  0  0  0  0  0
  -32.0500  -16.9820   20.5120 C   0  0  0  0  0  2  0  0  0  0  0  0
  -32.1830  -15.4540   20.4890 C   0  0  0  0  0  2  0  0  0  0  0  0
  -30.6560  -14.2660   18.9440 C   0  0  0  0  0  0  0  0  0  0  0  0
  -30.1520  -12.0460   18.0190 C   0  0  0  0  0  2  0  0  0  0  0  0
  -28.9440  -11.9660   17.0770 C   0  0  0  0  0  2  0  0  0  0  0  0
  -27.6520  -11.7530   17.8820 C   0  0  0  0  0  2  0  0  0  0  0  0
  -27.4980  -12.7800   19.0320 C   0  0  0  0  0  3  0  0  0  0  0  0
  -28.7860  -12.8760   19.8820 C   0  0  0  0  0  2  0  0  0  0  0  0
  -29.9370  -13.1210   18.9940 N   0  0  0  0  0  0  0  0  0  0  0  0
  -31.2620  -14.6590   17.9430 O   0  0  0  0  0  0  0  0  0  0  0  0
  -30.9340  -14.7550   20.1590 N   0  0  0  0  0  0  0  0  0  0  0  0
  -30.4430  -14.3060   20.9190 H   0  0  0  0  0  0  0  0  0  0  0  0
  -25.4350  -13.3420   20.4720 C   0  0  0  0  0  0  0  0  0  0  0  0
  -24.4800  -12.5510   21.0510 C   0  0  0  0  0  0  0  0  0  0  0  0
  -24.8430  -11.2040   20.7390 C   0  0  0  0  0  0  0  0  0  0  0  0
  -26.3260  -12.4770   19.8540 N   0  0  0  0  0  0  0  0  0  0  0  0
  -25.9850  -11.1790   20.0660 N   0  0  0  0  0  0  0  0  0  0  0  0
  -24.1380   -9.9400   20.9950 C   0  0  0  0  0  0  0  0  0  0  0  0
  -24.6330   -8.9920   21.9170 C   0  0  0  0  0  3  0  0  0  0  0  0
  -23.9280   -7.7930   22.1600 C   0  0  0  0  0  3  0  0  0  0  0  0
  -22.7130   -7.5350   21.4810 C   0  0  0  0  0  0  0  0  0  0  0  0
  -22.2370   -8.4720   20.5470 C   0  0  0  0  0  3  0  0  0  0  0  0
  -22.9420   -9.6620   20.3030 C   0  0  0  0  0  3  0  0  0  0  0  0
  -21.9740   -6.3860   21.6330 O   0  0  0  0  0  0  0  0  0  0  0  0
  -21.8370   -5.7750   22.8530 C   0  0  0  0  0  0  0  0  0  0  0  0
  -21.2210   -6.4230   23.9460 C   0  0  0  0  0  3  0  0  0  0  0  0
  -21.0380   -5.7340   25.1610 C   0  0  0  0  0  3  0  0  0  0  0  0
  -21.4590   -4.3970   25.2830 C   0  0  0  0  0  0  0  0  0  0  0  0
  -22.0670   -3.7470   24.1940 C   0  0  0  0  0  3  0  0  0  0  0  0
  -22.2520   -4.4340   22.9820 C   0  0  0  0  0  0  0  0  0  0  0  0
  -22.8190   -3.7970   21.9290 F   0  0  0  0  0  0  0  0  0  0  0  0
  -21.2760   -3.7310   26.4490 F   0  0  0  0  0  0  0  0  0  0  0  0
  -23.2480  -13.0150   21.7710 C   0  0  0  0  0  0  0  0  0  0  0  0
  -22.7670  -12.2360   22.7350 N   0  0  0  0  0  0  0  0  0  0  0  0
  -22.7290  -14.1010   21.5150 O   0  0  0  0  0  0  0  0  0  0  0  0
  -23.2060  -11.3550   22.9600 H   0  0  0  0  0  0  0  0  0  0  0  0
  -21.9520  -12.5260   23.2540 H   0  0  0  0  0  0  0  0  0  0  0  0
  -25.6130  -14.7210   20.4030 N   0  0  0  0  0  0  0  0  0  0  0  0
  -24.9440  -15.3730   20.7970 H   0  0  0  0  0  0  0  0  0  0  0  0
  -26.3530  -15.1770   19.8870 H   0  0  0  0  0  0  0  0  0  0  0  0
  -29.2040  -23.2500   22.6720 C   0  0  0  0  0  2  0  0  0  0  0  0
  -28.1250  -23.5990   18.8690 C   0  0  0  0  0  2  0  0  0  0  0  0
  -28.0850  -23.0920   20.3280 C   0  0  0  0  0  2  0  0  0  0  0  0
  -28.3110  -25.1270   18.7520 C   0  0  0  0  0  2  0  0  0  0  0  0
  -29.2420  -25.2680   21.1040 C   0  0  0  0  0  2  0  0  0  0  0  0
  -29.2160  -23.7180   21.1940 C   0  0  0  0  0  3  0  0  0  0  0  0
  -28.2110  -25.8260   20.1150 C   0  0  0  0  0  3  0  0  0  0  0  0
  -28.3960  -27.2360   19.9670 O   0  0  0  0  0  0  0  0  0  0  0  0
  -24.8460  -32.1340   23.6720 C   0  0  0  0  0  0  0  0  0  0  0  0
  -27.2550  -28.0010   20.0430 C   0  0  0  0  0  0  0  0  0  0  0  0
  -23.5540  -30.9710   21.9130 C   0  0  0  0  0  3  0  0  0  0  0  0
  -24.9200  -29.5680   20.2840 C   0  0  0  0  0  0  0  0  0  0  0  0
  -26.0880  -31.2670   21.6990 C   0  0  0  0  0  2  0  0  0  0  0  0
  -26.1070  -29.9810   20.9040 C   0  0  0  0  0  0  0  0  0  0  0  0
  -27.2780  -29.2000   20.7870 C   0  0  0  0  0  3  0  0  0  0  0  0
  -26.0560  -27.6200   19.3970 C   0  0  0  0  0  3  0  0  0  0  0  0
  -24.8860  -28.3860   19.5300 C   0  0  0  0  0  3  0  0  0  0  0  0
  -23.7110  -30.4550   20.4580 C   0  0  0  0  0  2  0  0  0  0  0  0
  -24.8480  -31.4680   22.4850 N   0  0  0  0  0  0  0  0  0  0  0  0
  -23.7890  -32.3800   24.2690 O   0  0  0  0  0  0  0  0  0  0  0  0
  -22.8900  -29.8650   22.7630 C   0  0  0  0  0  0  0  0  0  0  0  0
  -21.5710  -29.6830   22.5840 N   0  0  0  0  0  0  0  0  0  0  0  0
  -23.5590  -29.1790   23.5410 O   0  0  0  0  0  0  0  0  0  0  0  0
  -21.0930  -30.2970   21.9380 H   0  0  0  0  0  0  0  0  0  0  0  0
  -18.2160  -28.3530   22.7890 C   0  0  0  0  0  0  0  0  0  0  0  0
  -20.7400  -28.6780   23.2450 C   0  0  0  0  0  3  0  0  0  0  0  0
  -20.9320  -27.2820   22.6060 C   0  0  0  0  0  2  0  0  0  0  0  0
  -19.9100  -26.9790   21.5050 C   0  0  0  0  0  2  0  0  0  0  0  0
  -18.4830  -27.0480   22.0610 C   0  0  0  0  0  2  0  0  0  0  0  0
  -19.2770  -29.1270   23.3310 C   0  0  0  0  0  0  0  0  0  0  0  0
  -18.9780  -30.3520   23.9660 C   0  0  0  0  0  3  0  0  0  0  0  0
  -17.6490  -30.8040   24.0670 C   0  0  0  0  0  3  0  0  0  0  0  0
  -16.6010  -30.0260   23.5450 C   0  0  0  0  0  3  0  0  0  0  0  0
  -16.8840  -28.8030   22.9130 C   0  0  0  0  0  3  0  0  0  0  0  0
  -26.1690  -32.6450   24.3250 C   0  0  0  0  0  3  0  0  0  0  0  0
  -25.9080  -33.9920   24.8510 N   0  0  0  0  0  0  0  0  0  0  0  0
  -26.2470  -35.1290   24.2280 C   0  0  0  0  0  0  0  0  0  0  0  0
  -26.8840  -35.1530   23.1720 O   0  0  0  0  0  0  0  0  0  0  0  0
  -25.3470  -34.0520   25.6880 H   0  0  0  0  0  0  0  0  0  0  0  0
  -24.5620  -36.9940   24.1780 C   0  0  0  0  0  1  0  0  0  0  0  0
  -25.8110  -36.4490   24.8880 C   0  0  0  0  0  3  0  0  0  0  0  0
  -27.9840  -37.1630   25.7770 C   0  0  0  0  0  1  0  0  0  0  0  0
  -26.8680  -37.4820   24.8920 N   0  0  0  0  0  0  0  0  0  0  0  0
  -26.4870  -38.3810   25.1770 H   0  0  0  0  0  0  0  0  0  0  0  0
  -26.7110  -31.6950   25.4610 C   0  0  1  0  0  0  0  0  0  0  0  0
  -25.6450  -31.3220   26.5160 C   0  0  0  0  0  1  0  0  0  0  0  0
  -27.2650  -30.3810   24.8590 C   0  0  0  0  0  1  0  0  0  0  0  0
  -27.8870  -32.3790   26.1970 C   0  0  0  0  0  1  0  0  0  0  0  0
  1  2  1  0
  3  1  1  0
  4  5  2  0
  4  9  1  0
  5  6  1  0
  6  7  1  0
  8  7  1  0
  9  1  1  0
  9  8  1  0
 10  5  1  0
 11 13  1  0
 11 10  1  0
 12 11  1  0
 14 11  1  0
 15 14  1  0
 16 22  1  0
 16 24  1  0
 17 22  1  0
 18 19  1  0
 18 17  1  0
 20 19  1  0
 20 29  1  0
 20 21  1  0
 22 21  1  0
 23 16  2  0
 24 15  1  0
 24 25  1  0
 26 27  2  0
 27 46  1  0
 28 31  1  0
 28 27  1  0
 29 30  1  0
 29 26  1  0
 30 28  2  0
 31 32  1  0
 32 33  2  0
 34 37  1  0
 34 33  1  0
 35 34  2  0
 36 35  1  0
 36 31  2  0
 37 38  1  0
 38 43  2  0
 38 39  1  0
 39 40  2  0
 40 41  1  0
 41 45  1  0
 42 41  2  0
 43 42  1  0
 44 43  1  0
 46 47  1  0
 47 49  1  0
 47 50  1  0
 48 46  2  0
 51 26  1  0
 51 52  1  0
 53 51  1  0
 54  1  1  0
 55 56  1  0
 56 59  1  0
 57 55  1  0
 57 60  1  0
 58 59  1  0
 59 54  1  0
 60 61  1  0
 60 58  1  0
 61 63  1  0
 62 73  2  0
 63 68  1  0
 64 72  1  0
 64 74  1  0
 65 71  1  0
 65 67  1  0
 66 72  1  0
 67 66  1  0
 68 67  2  0
 69 70  1  0
 69 63  2  0
 70 65  2  0
 71 64  1  0
 72 62  1  0
 74 76  2  0
 75 74  1  0
 77 75  1  0
 78 87  2  0
 78 83  1  0
 79 75  1  0
 79 83  1  0
 80 79  1  0
 81 82  1  0
 81 80  1  0
 82 78  1  0
 83 84  2  0
 84 85  1  0
 86 85  2  0
 87 86  1  0
 88 62  1  0
 88 89  1  0
 88 98  1  0
 89 92  1  0
 90 89  1  0
 90 94  1  0
 91 90  2  0
 94 93  1  0
 94 96  1  0
 96 97  1  0
 96 95  1  0
 98101  1  1
 98 99  1  0
100 98  1  0
M  ISO  4  16 100  24 100  60 101  61 101
M  END
>  <TORSDO>  (53) 
F 23

>  <SCORE>  (53) 
-3.797

>  <name>  (53) 
53

>  <ligand_id>  (53) 
53

>  <original_smiles>  (53) 
[H]C1=C(C([H])([H])[N+]([H])([H])C([H])([H])C([H])([H])N([H])C(=O)N2C([H])([H])C([H])([H])C([H])([H])C([H])(n3nc(-c4c([H])c([H])c(Oc5c([H])c([H])c(F)c([H])c5F)c([H])c4[H])c(C(=O)N([H])[H])c3N([H])[H])C2([H])[H])C([H])([H])C([H])([H])C([H])([H])C1([H])[N+]([H])([H])C([H])([H])C1([H])C([H])([H])C([H])([H])C([H])([H])C([H])(Oc2c([H])c([H])c3c(c2[H])C([H])([H])N(C(=O)C([H])(N([H])C(=O)C([H])(N([H])C([H])([H])[H])C([H])([H])[H])C(C([H])([H])[H])(C([H])([H])[H])C([H])([H])[H])C([H])(C(=O)N([H])C2([H])c4c([H])c([H])c([H])c([H])c4C([H])([H])C([H])([H])C2([H])[H])C3([H])[H])C1([H])[H]

>  <smiles>  (53) 
[H]C1=C(C([H])([H])[N+]([H])([H])C([H])([H])C([H])([H])N([H])C(=O)N2C([H])([H])C([H])([H])C([H])([H])C([H])(n3nc(-c4c([H])c([H])c(Oc5c([H])c([H])c(F)c([H])c5F)c([H])c4[H])c(C(=O)N([H])[H])c3N([H])[H])C2([H])[H])C([H])([H])C([H])([H])C([H])([H])C1([H])[N+]([H])([H])C([H])([H])C1([H])C([H])([H])C([H])([H])C([H])([H])C([H])(Oc2c([H])c([H])c3c(c2[H])C([H])([H])N(C(=O)C([H])(N([H])C(=O)C([H])(N([H])C([H])([H])[H])C([H])([H])[H])C(C([H])([H])[H])(C([H])([H])[H])C([H])([H])[H])C([H])(C(=O)N([H])C2([H])c4c([H])c([H])c([H])c([H])c4C([H])([H])C([H])([H])C2([H])[H])C3([H])[H])C1([H])[H]

$$$$
54:0:0
     RDKit          3D

 90 97  0  0  1  0  0  0  0  0999 V2000
  -28.7360  -20.5110   20.5730 C   0  0  0  0  0  0  0  0  0  0  0  0
  -29.9880  -20.0040   18.7030 C   0  0  0  0  0  3  0  0  0  0  0  0
  -29.7140  -19.1070   19.9990 C   0  0  0  0  0  0  0  0  0  0  0  0
  -29.1070  -22.1740   20.0960 C   0  0  0  0  0  3  0  0  0  0  0  0
  -29.6420  -21.5490   18.7970 N   0  0  0  0  0  4  0  0  0  0  0  0
  -27.7690  -20.3230   21.3150 O   0  0  0  0  0  0  0  0  0  0  0  0
  -28.9280  -21.6950   18.1010 H   0  0  0  0  0  0  0  0  0  0  0  0
  -30.4350  -22.0810   18.4780 H   0  0  0  0  0  0  0  0  0  0  0  0
  -30.3980  -15.9340   19.8920 C   0  0  0  0  0  0  0  0  0  0  0  0
  -30.4930  -13.3860   19.0430 C   0  0  0  0  0  2  0  0  0  0  0  0
  -29.5420  -12.9600   17.8860 C   0  0  0  0  0  2  0  0  0  0  0  0
  -28.1540  -12.5770   18.4180 C   0  0  0  0  0  2  0  0  0  0  0  0
  -27.6890  -13.5570   19.5180 C   0  0  0  0  0  3  0  0  0  0  0  0
  -28.7780  -13.8950   20.5650 C   0  0  0  0  0  2  0  0  0  0  0  0
  -29.8900  -14.5550   19.8370 N   0  0  0  0  0  0  0  0  0  0  0  0
  -31.6250  -15.8780   19.6660 O   0  0  0  0  0  0  0  0  0  0  0  0
  -29.6270  -17.2990   19.9970 N   0  0  0  0  0  0  0  0  0  0  0  0
  -28.6520  -17.0570   20.0940 H   0  0  0  0  0  0  0  0  0  0  0  0
  -25.3800  -14.0310   20.4600 C   0  0  0  0  0  0  0  0  0  0  0  0
  -24.3540  -13.2240   20.8680 C   0  0  0  0  0  0  0  0  0  0  0  0
  -24.8370  -11.8830   20.7560 C   0  0  0  0  0  0  0  0  0  0  0  0
  -26.4140  -13.1820   20.1150 N   0  0  0  0  0  0  0  0  0  0  0  0
  -26.1080  -11.8810   20.3600 N   0  0  0  0  0  0  0  0  0  0  0  0
  -24.1330  -10.6060   20.9450 C   0  0  0  0  0  0  0  0  0  0  0  0
  -24.5810   -9.6430   21.8770 C   0  0  0  0  0  3  0  0  0  0  0  0
  -23.8710   -8.4370   22.0570 C   0  0  0  0  0  3  0  0  0  0  0  0
  -22.6990   -8.1820   21.3060 C   0  0  0  0  0  0  0  0  0  0  0  0
  -22.2690   -9.1340   20.3640 C   0  0  0  0  0  3  0  0  0  0  0  0
  -22.9810  -10.3320   20.1810 C   0  0  0  0  0  3  0  0  0  0  0  0
  -21.9620   -7.0270   21.3960 O   0  0  0  0  0  0  0  0  0  0  0  0
  -21.8570   -6.3280   22.5700 C   0  0  0  0  0  0  0  0  0  0  0  0
  -21.2790   -6.8960   23.7270 C   0  0  0  0  0  3  0  0  0  0  0  0
  -21.1280   -6.1210   24.8930 C   0  0  0  0  0  3  0  0  0  0  0  0
  -21.5460   -4.7770   24.9040 C   0  0  0  0  0  0  0  0  0  0  0  0
  -22.1160   -4.2060   23.7520 C   0  0  0  0  0  3  0  0  0  0  0  0
  -22.2670   -4.9790   22.5880 C   0  0  0  0  0  0  0  0  0  0  0  0
  -22.7990   -4.4180   21.4750 F   0  0  0  0  0  0  0  0  0  0  0  0
  -21.3950   -4.0280   26.0230 F   0  0  0  0  0  0  0  0  0  0  0  0
  -22.9730  -13.6750   21.2370 C   0  0  0  0  0  0  0  0  0  0  0  0
  -22.3120  -12.9500   22.1340 N   0  0  0  0  0  0  0  0  0  0  0  0
  -22.4920  -14.7080   20.7720 O   0  0  0  0  0  0  0  0  0  0  0  0
  -22.7140  -12.1140   22.5300 H   0  0  0  0  0  0  0  0  0  0  0  0
  -21.3890  -13.2360   22.4280 H   0  0  0  0  0  0  0  0  0  0  0  0
  -25.5070  -15.4090   20.3150 N   0  0  0  0  0  0  0  0  0  0  0  0
  -24.7300  -16.0370   20.4880 H   0  0  0  0  0  0  0  0  0  0  0  0
  -26.3060  -15.8750   19.9050 H   0  0  0  0  0  0  0  0  0  0  0  0
  -31.3770  -21.6450   21.4620 C   0  0  0  0  0  1  0  0  0  0  0  0
  -30.3320  -22.6560   20.9450 C   0  0  0  0  0  2  0  0  0  0  0  0
  -28.1060  -23.8840   19.9780 C   0  0  0  0  0  1  0  0  0  0  0  0
  -28.2320  -25.6650   20.1320 O   0  0  0  0  0  0  0  0  0  0  0  0
  -24.6570  -31.8990   23.2020 C   0  0  0  0  0  0  0  0  0  0  0  0
  -27.2400  -26.8800   20.1090 C   0  0  0  0  0  0  0  0  0  0  0  0
  -23.4820  -30.5230   21.5370 C   0  0  0  0  0  3  0  0  0  0  0  0
  -24.9450  -28.9120   20.0900 C   0  0  0  0  0  0  0  0  0  0  0  0
  -26.0570  -30.6860   21.4170 C   0  0  0  0  0  2  0  0  0  0  0  0
  -26.1370  -29.2630   20.7330 C   0  0  0  0  0  0  0  0  0  0  0  0
  -27.2630  -28.2780   20.7090 C   0  0  0  0  0  3  0  0  0  0  0  0
  -26.0050  -26.7490   19.4160 C   0  0  0  0  0  3  0  0  0  0  0  0
  -24.9190  -27.6810   19.4080 C   0  0  0  0  0  3  0  0  0  0  0  0
  -23.7290  -29.8540   20.1520 C   0  0  0  0  0  2  0  0  0  0  0  0
  -24.7550  -31.0690   22.1060 N   0  0  0  0  0  0  0  0  0  0  0  0
  -23.5610  -32.1830   23.7180 O   0  0  0  0  0  0  0  0  0  0  0  0
  -22.7730  -29.5220   22.4920 C   0  0  0  0  0  0  0  0  0  0  0  0
  -21.4430  -29.3540   22.3590 N   0  0  0  0  0  0  0  0  0  0  0  0
  -23.4310  -28.8960   23.3230 O   0  0  0  0  0  0  0  0  0  0  0  0
  -20.9630  -29.9160   21.6700 H   0  0  0  0  0  0  0  0  0  0  0  0
  -18.0600  -28.1180   22.8670 C   0  0  0  0  0  0  0  0  0  0  0  0
  -20.6240  -28.3930   23.1110 C   0  0  0  0  0  3  0  0  0  0  0  0
  -20.7250  -26.9780   22.4980 C   0  0  0  0  0  2  0  0  0  0  0  0
  -19.6140  -26.6800   21.4840 C   0  0  0  0  0  2  0  0  0  0  0  0
  -18.2380  -26.7940   22.1460 C   0  0  0  0  0  2  0  0  0  0  0  0
  -19.1800  -28.8760   23.3060 C   0  0  0  0  0  0  0  0  0  0  0  0
  -18.9570  -30.1130   23.9500 C   0  0  0  0  0  3  0  0  0  0  0  0
  -17.6500  -30.5930   24.1560 C   0  0  0  0  0  3  0  0  0  0  0  0
  -16.5460  -29.8350   23.7300 C   0  0  0  0  0  3  0  0  0  0  0  0
  -16.7520  -28.5990   23.0910 C   0  0  0  0  0  3  0  0  0  0  0  0
  -25.9140  -32.5450   23.8600 C   0  0  0  0  0  3  0  0  0  0  0  0
  -25.5920  -33.9480   24.1900 N   0  0  0  0  0  0  0  0  0  0  0  0
  -25.9080  -35.0100   23.4380 C   0  0  0  0  0  0  0  0  0  0  0  0
  -26.5560  -34.9140   22.3930 O   0  0  0  0  0  0  0  0  0  0  0  0
  -25.0100  -34.0950   25.0020 H   0  0  0  0  0  0  0  0  0  0  0  0
  -24.1570  -36.8030   23.1600 C   0  0  0  0  0  1  0  0  0  0  0  0
  -25.4320  -36.3990   23.9160 C   0  0  0  0  0  3  0  0  0  0  0  0
  -27.5800  -37.3150   24.6730 C   0  0  0  0  0  1  0  0  0  0  0  0
  -26.4510  -37.4600   23.7610 N   0  0  0  0  0  0  0  0  0  0  0  0
  -26.0390  -38.3770   23.9120 H   0  0  0  0  0  0  0  0  0  0  0  0
  -26.3900  -31.7880   25.1630 C   0  0  1  0  0  0  0  0  0  0  0  0
  -25.2800  -31.6170   26.2260 C   0  0  0  0  0  1  0  0  0  0  0  0
  -26.9310  -30.3810   24.8240 C   0  0  0  0  0  1  0  0  0  0  0  0
  -27.5580  -32.5590   25.8190 C   0  0  0  0  0  1  0  0  0  0  0  0
  1  6  2  0
  2  5  1  0
  2  3  2  0
  3  1  1  0
  4  1  1  0
  4 48  1  0
  5  4  1  0
  7  5  1  0
  8  5  1  0
  9 17  1  0
 10 15  1  0
 11 12  1  0
 11 10  1  0
 13 12  1  0
 13 22  1  0
 13 14  1  0
 15  9  1  0
 15 14  1  0
 16  9  2  0
 17  3  1  0
 17 18  1  0
 19 20  2  0
 20 39  1  0
 21 20  1  0
 21 24  1  0
 22 23  1  0
 22 19  1  0
 23 21  2  0
 24 25  1  0
 25 26  2  0
 27 30  1  0
 27 26  1  0
 28 27  2  0
 29 28  1  0
 29 24  2  0
 30 31  1  0
 31 36  2  0
 31 32  1  0
 32 33  2  0
 33 34  1  0
 34 38  1  0
 35 34  2  0
 36 35  1  0
 37 36  1  0
 39 40  1  0
 40 43  1  0
 40 42  1  0
 41 39  2  0
 44 19  1  0
 44 45  1  0
 46 44  1  0
 48 47  1  0
 49 50  1  0
 51 62  2  0
 52 50  1  0
 52 57  1  0
 53 61  1  0
 53 63  1  0
 54 60  1  0
 54 56  1  0
 55 61  1  0
 56 55  1  0
 57 56  2  0
 58 52  2  0
 59 58  1  0
 59 54  2  0
 60 53  1  0
 61 51  1  0
 63 65  2  0
 64 63  1  0
 66 64  1  0
 67 76  2  0
 67 72  1  0
 68 64  1  0
 68 72  1  0
 69 68  1  0
 70 71  1  0
 70 69  1  0
 71 67  1  0
 72 73  2  0
 73 74  1  0
 75 74  2  0
 76 75  1  0
 77 51  1  0
 77 78  1  0
 77 87  1  0
 78 81  1  0
 79 83  1  0
 79 78  1  0
 80 79  2  0
 83 82  1  0
 85 86  1  0
 85 83  1  0
 85 84  1  0
 87 90  1  1
 87 88  1  0
 89 87  1  0
M  ISO  4   9 100  17 100  49 101  50 101
M  END
>  <TORSDO>  (54) 
F 18

>  <SCORE>  (54) 
-15.374

>  <name>  (54) 
54

>  <ligand_id>  (54) 
54

>  <original_smiles>  (54) 
[H]c1c([H])c([H])c2c(c1[H])C([H])([H])C([H])([H])C([H])([H])C2([H])N([H])C(=O)C1([H])N(C(=O)C([H])(N([H])C(=O)C([H])(N([H])C([H])([H])[H])C([H])([H])[H])C(C([H])([H])[H])(C([H])([H])[H])C([H])([H])[H])C([H])([H])c2c([H])c(OC([H])([H])C3(C([H])([H])C([H])([H])[H])C(=O)C([H])(N([H])C(=O)N4C([H])([H])C([H])([H])C([H])([H])C([H])(n5nc(-c6c([H])c([H])c(Oc7c([H])c([H])c(F)c([H])c7F)c([H])c6[H])c(C(=O)N([H])[H])c5N([H])[H])C4([H])[H])C([H])([H])[N+]3([H])[H])c([H])c([H])c2C1([H])[H]

>  <smiles>  (54) 
[H]c1c([H])c([H])c2c(c1[H])C([H])([H])C([H])([H])C([H])([H])C2([H])N([H])C(=O)C1([H])N(C(=O)C([H])(N([H])C(=O)C([H])(N([H])C([H])([H])[H])C([H])([H])[H])C(C([H])([H])[H])(C([H])([H])[H])C([H])([H])[H])C([H])([H])c2c([H])c(OC([H])([H])C3(C([H])([H])C([H])([H])[H])C(=O)C([H])(N([H])C(=O)N4C([H])([H])C([H])([H])C([H])([H])C([H])(n5nc(-c6c([H])c([H])c(Oc7c([H])c([H])c(F)c([H])c7F)c([H])c6[H])c(C(=O)N([H])[H])c5N([H])[H])C4([H])[H])C([H])([H])[N+]3([H])[H])c([H])c([H])c2C1([H])[H]

$$$$
55:0:0
     RDKit          3D

 92100  0  0  1  0  0  0  0  0999 V2000
  -28.8280  -21.1060   20.4140 N   0  0  1  0  0  4  0  0  0  0  0  0
  -28.1750  -21.0470   21.1840 H   0  0  0  0  0  0  0  0  0  0  0  0
  -27.1800  -21.5650   16.9660 C   0  0  0  0  0  2  0  0  0  0  0  0
  -26.0220  -21.0400   17.8330 C   0  0  0  0  0  2  0  0  0  0  0  0
  -28.3970  -21.6930   17.9000 C   0  0  0  0  0  2  0  0  0  0  0  0
  -26.5150  -21.1250   19.2840 C   0  0  0  0  0  2  0  0  0  0  0  0
  -28.0230  -20.8840   19.1600 C   0  0  0  0  0  3  0  0  0  0  0  0
  -29.7980  -19.9300   20.6650 C   0  0  0  0  0  2  0  0  0  0  0  0
  -29.2460  -18.4080   20.7870 C   0  0  0  0  0  3  0  0  0  0  0  0
  -30.3150  -17.1990   20.7800 C   0  0  0  0  0  3  0  0  0  0  0  0
  -30.5670  -14.6460   20.3050 C   0  0  0  0  0  0  0  0  0  0  0  0
  -30.2450  -12.5210   19.0410 C   0  0  0  0  0  2  0  0  0  0  0  0
  -29.2390  -12.7420   17.8890 C   0  0  0  0  0  2  0  0  0  0  0  0
  -27.7970  -12.5490   18.3920 C   0  0  0  0  0  2  0  0  0  0  0  0
  -27.5140  -13.3190   19.7080 C   0  0  0  0  0  3  0  0  0  0  0  0
  -28.6250  -13.0760   20.7530 C   0  0  0  0  0  2  0  0  0  0  0  0
  -29.8980  -13.4610   20.1310 N   0  0  0  0  0  0  0  0  0  0  0  0
  -31.7330  -14.7680   19.9220 O   0  0  0  0  0  0  0  0  0  0  0  0
  -29.8460  -15.7510   20.7130 N   0  0  0  0  0  0  0  0  0  0  0  0
  -28.8920  -15.5710   20.9910 H   0  0  0  0  0  0  0  0  0  0  0  0
  -25.1530  -13.8820   20.5380 C   0  0  0  0  0  0  0  0  0  0  0  0
  -24.1010  -13.0920   20.9160 C   0  0  0  0  0  0  0  0  0  0  0  0
  -24.5670  -11.7440   20.8240 C   0  0  0  0  0  0  0  0  0  0  0  0
  -26.1900  -13.0150   20.2370 N   0  0  0  0  0  0  0  0  0  0  0  0
  -25.8450  -11.7230   20.4720 N   0  0  0  0  0  0  0  0  0  0  0  0
  -23.8530  -10.4730   20.9950 C   0  0  0  0  0  0  0  0  0  0  0  0
  -24.2750   -9.5150   21.9420 C   0  0  0  0  0  3  0  0  0  0  0  0
  -23.5640   -8.3050   22.1020 C   0  0  0  0  0  3  0  0  0  0  0  0
  -22.4170   -8.0480   21.3140 C   0  0  0  0  0  0  0  0  0  0  0  0
  -22.0160   -8.9960   20.3570 C   0  0  0  0  0  3  0  0  0  0  0  0
  -22.7260  -10.1960   20.1960 C   0  0  0  0  0  3  0  0  0  0  0  0
  -21.6780   -6.8910   21.3840 O   0  0  0  0  0  0  0  0  0  0  0  0
  -21.5480   -6.1880   22.5530 C   0  0  0  0  0  0  0  0  0  0  0  0
  -20.9060   -6.7370   23.6850 C   0  0  0  0  0  3  0  0  0  0  0  0
  -20.7330   -5.9560   24.8440 C   0  0  0  0  0  3  0  0  0  0  0  0
  -21.1920   -4.6260   24.8720 C   0  0  0  0  0  0  0  0  0  0  0  0
  -21.8250   -4.0750   23.7460 C   0  0  0  0  0  3  0  0  0  0  0  0
  -22.0010   -4.8530   22.5880 C   0  0  0  0  0  0  0  0  0  0  0  0
  -22.5950   -4.3120   21.4970 F   0  0  0  0  0  0  0  0  0  0  0  0
  -21.0180   -3.8730   25.9830 F   0  0  0  0  0  0  0  0  0  0  0  0
  -22.7110  -13.5510   21.2510 C   0  0  0  0  0  0  0  0  0  0  0  0
  -22.0160  -12.8190   22.1140 N   0  0  0  0  0  0  0  0  0  0  0  0
  -22.2530  -14.5950   20.7860 O   0  0  0  0  0  0  0  0  0  0  0  0
  -22.4010  -11.9740   22.5080 H   0  0  0  0  0  0  0  0  0  0  0  0
  -21.0830  -13.1030   22.3790 H   0  0  0  0  0  0  0  0  0  0  0  0
  -25.3080  -15.2570   20.3980 N   0  0  0  0  0  0  0  0  0  0  0  0
  -24.5410  -15.9050   20.5500 H   0  0  0  0  0  0  0  0  0  0  0  0
  -26.1350  -15.7040   20.0240 H   0  0  0  0  0  0  0  0  0  0  0  0
  -29.4620  -22.5090   20.5090 C   0  0  0  0  0  2  0  0  0  0  0  0
  -28.5580  -23.8190   20.8010 C   0  0  0  0  0  2  0  0  0  0  0  0
  -28.7860  -25.1640   19.9580 C   0  0  0  0  0  2  0  0  0  0  0  0
  -28.5990  -26.5180   20.5380 O   0  0  0  0  0  0  0  0  0  0  0  0
  -24.6260  -31.8540   23.2970 C   0  0  0  0  0  0  0  0  0  0  0  0
  -27.4350  -27.2910   20.4160 C   0  0  0  0  0  0  0  0  0  0  0  0
  -23.5050  -30.4030   21.6410 C   0  0  0  0  0  3  0  0  0  0  0  0
  -25.0340  -28.8470   20.2970 C   0  0  0  0  0  0  0  0  0  0  0  0
  -26.0410  -30.7670   21.5390 C   0  0  0  0  0  2  0  0  0  0  0  0
  -26.1700  -29.3780   20.9180 C   0  0  0  0  0  0  0  0  0  0  0  0
  -27.3710  -28.6130   20.9630 C   0  0  0  0  0  3  0  0  0  0  0  0
  -26.2690  -26.7960   19.7940 C   0  0  0  0  0  3  0  0  0  0  0  0
  -25.0850  -27.5610   19.7320 C   0  0  0  0  0  3  0  0  0  0  0  0
  -23.7780  -29.6960   20.2870 C   0  0  0  0  0  2  0  0  0  0  0  0
  -24.7410  -31.0260   22.2160 N   0  0  0  0  0  0  0  0  0  0  0  0
  -23.5210  -32.1220   23.7880 O   0  0  0  0  0  0  0  0  0  0  0  0
  -22.8260  -29.3950   22.5980 C   0  0  0  0  0  0  0  0  0  0  0  0
  -21.5080  -29.1950   22.4280 N   0  0  0  0  0  0  0  0  0  0  0  0
  -23.4840  -28.7910   23.4490 O   0  0  0  0  0  0  0  0  0  0  0  0
  -21.0370  -29.7360   21.7170 H   0  0  0  0  0  0  0  0  0  0  0  0
  -18.1200  -28.0100   22.8760 C   0  0  0  0  0  0  0  0  0  0  0  0
  -20.6760  -28.2560   23.1820 C   0  0  0  0  0  3  0  0  0  0  0  0
  -20.7790  -26.8270   22.6010 C   0  0  0  0  0  2  0  0  0  0  0  0
  -19.6890  -26.5140   21.5690 C   0  0  0  0  0  2  0  0  0  0  0  0
  -18.2990  -26.6630   22.1960 C   0  0  0  0  0  2  0  0  0  0  0  0
  -19.2360  -28.7650   23.3220 C   0  0  0  0  0  0  0  0  0  0  0  0
  -19.0140  -30.0270   23.9160 C   0  0  0  0  0  3  0  0  0  0  0  0
  -17.7100  -30.5330   24.0660 C   0  0  0  0  0  3  0  0  0  0  0  0
  -16.6080  -29.7740   23.6370 C   0  0  0  0  0  3  0  0  0  0  0  0
  -16.8140  -28.5140   23.0500 C   0  0  0  0  0  3  0  0  0  0  0  0
  -25.8760  -32.5170   23.9560 C   0  0  0  0  0  3  0  0  0  0  0  0
  -25.5350  -33.9190   24.2390 N   0  0  0  0  0  0  0  0  0  0  0  0
  -25.8730  -34.9570   23.4630 C   0  0  0  0  0  0  0  0  0  0  0  0
  -26.5670  -34.8370   22.4500 O   0  0  0  0  0  0  0  0  0  0  0  0
  -24.9180  -34.0840   25.0210 H   0  0  0  0  0  0  0  0  0  0  0  0
  -24.1330  -36.7160   23.0110 C   0  0  0  0  0  1  0  0  0  0  0  0
  -25.3530  -36.3500   23.8720 C   0  0  0  0  0  3  0  0  0  0  0  0
  -27.4330  -37.2910   24.7720 C   0  0  0  0  0  1  0  0  0  0  0  0
  -26.3770  -37.4140   23.7710 N   0  0  0  0  0  0  0  0  0  0  0  0
  -25.9530  -38.3320   23.8700 H   0  0  0  0  0  0  0  0  0  0  0  0
  -26.3490  -31.7870   25.2730 C   0  0  1  0  0  0  0  0  0  0  0  0
  -25.2090  -31.5460   26.2920 C   0  0  0  0  0  1  0  0  0  0  0  0
  -26.9810  -30.4190   24.9390 C   0  0  0  0  0  1  0  0  0  0  0  0
  -27.4510  -32.6220   25.9680 C   0  0  0  0  0  1  0  0  0  0  0  0
  1 49  1  0
  1  8  1  0
  1  2  1  1
  3  4  1  0
  3  5  1  0
  4  6  1  0
  5  7  1  0
  7  6  1  0
  7  1  1  0
  8  9  1  0
 10  9  2  0
 11 19  1  0
 12 17  1  0
 13 14  1  0
 13 12  1  0
 15 14  1  0
 15 24  1  0
 15 16  1  0
 17 11  1  0
 17 16  1  0
 18 11  2  0
 19 10  1  0
 19 20  1  0
 21 22  2  0
 22 41  1  0
 23 22  1  0
 23 26  1  0
 24 25  1  0
 24 21  1  0
 25 23  2  0
 26 27  1  0
 27 28  2  0
 29 32  1  0
 29 28  1  0
 30 29  2  0
 31 30  1  0
 31 26  2  0
 32 33  1  0
 33 38  2  0
 33 34  1  0
 34 35  2  0
 35 36  1  0
 36 40  1  0
 37 36  2  0
 38 37  1  0
 39 38  1  0
 41 42  1  0
 42 45  1  0
 42 44  1  0
 43 41  2  0
 46 21  1  0
 46 47  1  0
 48 46  1  0
 49 50  1  0
 51 52  1  0
 51 50  1  0
 53 64  2  0
 54 52  1  0
 54 59  1  0
 55 63  1  0
 55 65  1  0
 56 58  1  0
 57 63  1  0
 58 59  2  0
 58 57  1  0
 60 54  2  0
 61 60  1  0
 61 56  2  0
 62 56  1  0
 62 55  1  0
 63 53  1  0
 65 67  2  0
 66 65  1  0
 68 66  1  0
 69 78  2  0
 69 74  1  0
 70 66  1  0
 70 74  1  0
 71 70  1  0
 72 73  1  0
 72 71  1  0
 73 69  1  0
 74 75  2  0
 75 76  1  0
 77 76  2  0
 78 77  1  0
 79 53  1  0
 79 80  1  0
 79 89  1  0
 80 83  1  0
 81 85  1  0
 81 80  1  0
 82 81  2  0
 85 84  1  0
 87 88  1  0
 87 85  1  0
 87 86  1  0
 89 92  1  1
 89 90  1  0
 91 89  1  0
M  ISO  4  11 100  19 100  51 101  52 101
M  END
>  <TORSDO>  (55) 
F 23

>  <SCORE>  (55) 
-11.867

>  <name>  (55) 
55

>  <ligand_id>  (55) 
55

>  <original_smiles>  (55) 
[H]c1c([H])c([H])c2c(c1[H])C([H])([H])C([H])([H])C([H])([H])C2([H])N([H])C(=O)C1([H])N(C(=O)C([H])(N([H])C(=O)C([H])(N([H])C([H])([H])[H])C([H])([H])[H])C(C([H])([H])[H])(C([H])([H])[H])C([H])([H])[H])C([H])([H])c2c([H])c(OC([H])([H])C([H])([H])C([H])([H])[N+]([H])(C([H])([H])C([H])([H])C([H])([H])N([H])C(=O)N3C([H])([H])C([H])([H])C([H])([H])C([H])(n4nc(-c5c([H])c([H])c(Oc6c([H])c([H])c(F)c([H])c6F)c([H])c5[H])c(C(=O)N([H])[H])c4N([H])[H])C3([H])[H])C3([H])C([H])([H])C([H])([H])C([H])([H])C3([H])[H])c([H])c([H])c2C1([H])[H]

>  <smiles>  (55) 
[H]c1c([H])c([H])c2c(c1[H])C([H])([H])C([H])([H])C([H])([H])C2([H])N([H])C(=O)C1([H])N(C(=O)C([H])(N([H])C(=O)C([H])(N([H])C([H])([H])[H])C([H])([H])[H])C(C([H])([H])[H])(C([H])([H])[H])C([H])([H])[H])C([H])([H])c2c([H])c(OC([H])([H])C([H])([H])C([H])([H])[N+]([H])(C([H])([H])C([H])([H])C([H])([H])N([H])C(=O)N3C([H])([H])C([H])([H])C([H])([H])C([H])(n4nc(-c5c([H])c([H])c(Oc6c([H])c([H])c(F)c([H])c6F)c([H])c5[H])c(C(=O)N([H])[H])c4N([H])[H])C3([H])[H])C3([H])C([H])([H])C([H])([H])C([H])([H])C3([H])[H])c([H])c([H])c2C1([H])[H]

$$$$
56:0:0
     RDKit          3D

 94102  0  0  1  0  0  0  0  0999 V2000
  -30.4640  -20.0820   19.4700 C   0  0  0  0  0  2  0  0  0  0  0  0
  -30.5950  -18.5070   19.2990 C   0  0  0  0  0  2  0  0  0  0  0  0
  -28.8420  -18.9490   20.8090 C   0  0  0  0  0  2  0  0  0  0  0  0
  -29.0480  -20.3890   20.0120 C   0  0  0  0  0  3  0  0  0  0  0  0
  -30.0000  -17.7820   20.5460 C   0  0  1  0  0  0  0  0  0  0  0  0
  -30.4120  -15.0330   20.0880 C   0  0  0  0  0  0  0  0  0  0  0  0
  -30.2430  -12.7210   19.0420 C   0  0  0  0  0  2  0  0  0  0  0  0
  -29.2420  -12.7080   17.8630 C   0  0  0  0  0  2  0  0  0  0  0  0
  -27.8070  -12.4710   18.3690 C   0  0  0  0  0  2  0  0  0  0  0  0
  -27.4620  -13.3490   19.5990 C   0  0  0  0  0  3  0  0  0  0  0  0
  -28.5770  -13.3280   20.6640 C   0  0  0  0  0  2  0  0  0  0  0  0
  -29.8060  -13.7790   20.0010 N   0  0  0  0  0  0  0  0  0  0  0  0
  -31.6040  -15.0970   19.7730 O   0  0  0  0  0  0  0  0  0  0  0  0
  -29.6580  -16.2220   20.3670 N   0  0  0  0  0  0  0  0  0  0  0  0
  -28.6800  -16.0180   20.5040 H   0  0  0  0  0  0  0  0  0  0  0  0
  -25.1150  -13.8860   20.4650 C   0  0  0  0  0  0  0  0  0  0  0  0
  -24.0790  -13.0930   20.8720 C   0  0  0  0  0  0  0  0  0  0  0  0
  -24.5580  -11.7470   20.7970 C   0  0  0  0  0  0  0  0  0  0  0  0
  -26.1550  -13.0250   20.1590 N   0  0  0  0  0  0  0  0  0  0  0  0
  -25.8330  -11.7320   20.4260 N   0  0  0  0  0  0  0  0  0  0  0  0
  -23.8540  -10.4740   20.9980 C   0  0  0  0  0  0  0  0  0  0  0  0
  -24.3250   -9.5050   21.9120 C   0  0  0  0  0  3  0  0  0  0  0  0
  -23.6180   -8.2980   22.1020 C   0  0  0  0  0  3  0  0  0  0  0  0
  -22.4270   -8.0500   21.3790 C   0  0  0  0  0  0  0  0  0  0  0  0
  -21.9760   -9.0080   20.4530 C   0  0  0  0  0  3  0  0  0  0  0  0
  -22.6840  -10.2070   20.2610 C   0  0  0  0  0  3  0  0  0  0  0  0
  -21.6890   -6.8960   21.4800 O   0  0  0  0  0  0  0  0  0  0  0  0
  -21.6720   -6.1510   22.6320 C   0  0  0  0  0  0  0  0  0  0  0  0
  -21.2480   -6.6940   23.8640 C   0  0  0  0  0  3  0  0  0  0  0  0
  -21.1810   -5.8740   25.0080 C   0  0  0  0  0  3  0  0  0  0  0  0
  -21.5260   -4.5130   24.9210 C   0  0  0  0  0  0  0  0  0  0  0  0
  -21.9440   -3.9690   23.6930 C   0  0  0  0  0  3  0  0  0  0  0  0
  -22.0130   -4.7860   22.5520 C   0  0  0  0  0  0  0  0  0  0  0  0
  -22.3950   -4.2520   21.3670 F   0  0  0  0  0  0  0  0  0  0  0  0
  -21.4550   -3.7230   26.0190 F   0  0  0  0  0  0  0  0  0  0  0  0
  -22.6900  -13.5490   21.2130 C   0  0  0  0  0  0  0  0  0  0  0  0
  -22.0060  -12.8260   22.0920 N   0  0  0  0  0  0  0  0  0  0  0  0
  -22.2230  -14.5810   20.7340 O   0  0  0  0  0  0  0  0  0  0  0  0
  -22.3990  -11.9900   22.5000 H   0  0  0  0  0  0  0  0  0  0  0  0
  -21.0770  -13.1140   22.3620 H   0  0  0  0  0  0  0  0  0  0  0  0
  -25.2520  -15.2620   20.3010 N   0  0  0  0  0  0  0  0  0  0  0  0
  -24.4740  -15.8950   20.4450 H   0  0  0  0  0  0  0  0  0  0  0  0
  -26.0530  -15.7120   19.8790 H   0  0  0  0  0  0  0  0  0  0  0  0
  -28.7390  -21.8250   20.6630 N   0  0  0  0  0  4  0  0  0  0  0  0
  -29.2990  -21.8970   21.4980 H   0  0  0  0  0  0  0  0  0  0  0  0
  -27.7890  -21.7450   20.9880 H   0  0  0  0  0  0  0  0  0  0  0  0
  -28.8030  -23.2610   19.9520 C   0  0  0  0  0  3  0  0  0  0  0  0
  -28.0460  -24.6630   20.5680 C   0  0  0  0  0  3  0  0  0  0  0  0
  -28.2640  -26.1840   20.2190 O   0  0  0  0  0  0  0  0  0  0  0  0
  -24.5930  -31.8780   23.2290 C   0  0  0  0  0  0  0  0  0  0  0  0
  -27.1980  -27.1630   20.2090 C   0  0  0  0  0  0  0  0  0  0  0  0
  -23.4060  -30.4840   21.5810 C   0  0  0  0  0  3  0  0  0  0  0  0
  -24.8660  -28.9120   20.1620 C   0  0  0  0  0  0  0  0  0  0  0  0
  -25.9600  -30.7540   21.4290 C   0  0  0  0  0  2  0  0  0  0  0  0
  -26.0430  -29.3610   20.7760 C   0  0  0  0  0  0  0  0  0  0  0  0
  -27.2120  -28.5050   20.7760 C   0  0  0  0  0  3  0  0  0  0  0  0
  -25.9940  -26.8210   19.5560 C   0  0  0  0  0  3  0  0  0  0  0  0
  -24.8560  -27.6570   19.5350 C   0  0  0  0  0  3  0  0  0  0  0  0
  -23.6380  -29.8090   20.2030 C   0  0  0  0  0  2  0  0  0  0  0  0
  -24.6730  -31.0610   22.1350 N   0  0  0  0  0  0  0  0  0  0  0  0
  -23.5030  -32.1580   23.7520 O   0  0  0  0  0  0  0  0  0  0  0  0
  -22.7240  -29.4730   22.5370 C   0  0  0  0  0  0  0  0  0  0  0  0
  -21.4000  -29.2870   22.3910 N   0  0  0  0  0  0  0  0  0  0  0  0
  -23.3900  -28.8590   23.3730 O   0  0  0  0  0  0  0  0  0  0  0  0
  -20.9190  -29.8340   21.6920 H   0  0  0  0  0  0  0  0  0  0  0  0
  -18.0300  -28.0330   22.8350 C   0  0  0  0  0  0  0  0  0  0  0  0
  -20.5780  -28.3430   23.1530 C   0  0  0  0  0  3  0  0  0  0  0  0
  -20.7160  -26.9080   22.5950 C   0  0  0  0  0  2  0  0  0  0  0  0
  -19.6410  -26.5560   21.5600 C   0  0  0  0  0  2  0  0  0  0  0  0
  -18.2440  -26.6820   22.1730 C   0  0  0  0  0  2  0  0  0  0  0  0
  -19.1250  -28.8200   23.2800 C   0  0  0  0  0  0  0  0  0  0  0  0
  -18.8700  -30.0820   23.8590 C   0  0  0  0  0  3  0  0  0  0  0  0
  -17.5530  -30.5590   23.9960 C   0  0  0  0  0  3  0  0  0  0  0  0
  -16.4720  -29.7710   23.5650 C   0  0  0  0  0  3  0  0  0  0  0  0
  -16.7110  -28.5090   22.9910 C   0  0  0  0  0  3  0  0  0  0  0  0
  -25.8650  -32.5170   23.8660 C   0  0  0  0  0  3  0  0  0  0  0  0
  -25.5530  -33.9220   24.1780 N   0  0  0  0  0  0  0  0  0  0  0  0
  -25.9030  -34.9690   23.4190 C   0  0  0  0  0  0  0  0  0  0  0  0
  -26.5860  -34.8550   22.3990 O   0  0  0  0  0  0  0  0  0  0  0  0
  -24.9470  -34.0830   24.9680 H   0  0  0  0  0  0  0  0  0  0  0  0
  -24.1950  -36.7770   23.0290 C   0  0  0  0  0  1  0  0  0  0  0  0
  -25.4200  -36.3640   23.8620 C   0  0  0  0  0  3  0  0  0  0  0  0
  -27.5450  -37.2410   24.7250 C   0  0  0  0  0  1  0  0  0  0  0  0
  -26.4620  -37.4100   23.7600 N   0  0  0  0  0  0  0  0  0  0  0  0
  -26.0600  -38.3330   23.8920 H   0  0  0  0  0  0  0  0  0  0  0  0
  -26.3530  -31.7630   25.1640 C   0  0  1  0  0  0  0  0  0  0  0  0
  -25.2400  -31.5490   26.2170 C   0  0  0  0  0  1  0  0  0  0  0  0
  -26.9340  -30.3740   24.8080 C   0  0  0  0  0  1  0  0  0  0  0  0
  -27.4980  -32.5600   25.8330 C   0  0  0  0  0  1  0  0  0  0  0  0
  -31.0340  -17.8760   21.7060 C   0  0  0  0  0  2  0  0  0  0  0  0
  -30.5560  -17.2490   22.9500 N   0  0  0  0  0  4  0  0  0  0  0  0
  -29.7230  -17.6960   23.2840 H   0  0  0  0  0  0  0  0  0  0  0  0
  -31.2610  -17.3280   23.6620 H   0  0  0  0  0  0  0  0  0  0  0  0
  -30.3630  -16.2750   22.8080 H   0  0  0  0  0  0  0  0  0  0  0  0
  1  4  1  0
  2  1  1  0
  2  5  1  0
  4 44  1  0
  4  3  1  0
  5  3  1  0
  5 90  1  1
  6 14  1  0
  7 12  1  0
  8  9  1  0
  8  7  1  0
 10  9  1  0
 10 19  1  0
 10 11  1  0
 12  6  1  0
 12 11  1  0
 13  6  2  0
 14 15  1  0
 14  5  1  0
 16 17  2  0
 17 36  1  0
 18 17  1  0
 18 21  1  0
 19 20  1  0
 19 16  1  0
 20 18  2  0
 21 22  1  0
 22 23  2  0
 24 27  1  0
 24 23  1  0
 25 24  2  0
 26 25  1  0
 26 21  2  0
 27 28  1  0
 28 29  1  0
 29 30  2  0
 31 30  1  0
 31 35  1  0
 32 31  2  0
 33 28  2  0
 33 32  1  0
 34 33  1  0
 36 37  1  0
 37 40  1  0
 37 39  1  0
 38 36  2  0
 41 42  1  0
 41 16  1  0
 43 41  1  0
 44 46  1  0
 44 45  1  0
 47 48  2  0
 47 44  1  0
 49 48  1  0
 50 61  2  0
 51 49  1  0
 51 56  1  0
 52 60  1  0
 52 62  1  0
 53 59  1  0
 53 55  1  0
 54 60  1  0
 55 54  1  0
 56 55  2  0
 57 51  2  0
 58 57  1  0
 58 53  2  0
 59 52  1  0
 60 50  1  0
 62 64  2  0
 63 62  1  0
 65 63  1  0
 66 75  2  0
 66 71  1  0
 67 63  1  0
 67 71  1  0
 68 67  1  0
 69 70  1  0
 69 68  1  0
 70 66  1  0
 71 72  2  0
 72 73  1  0
 74 73  2  0
 75 74  1  0
 76 50  1  0
 76 77  1  0
 76 86  1  0
 77 80  1  0
 78 82  1  0
 78 77  1  0
 79 78  2  0
 82 81  1  0
 84 82  1  0
 84 85  1  0
 84 83  1  0
 86 89  1  1
 86 87  1  0
 88 86  1  0
 90 91  1  0
 91 92  1  0
 91 93  1  0
 94 91  1  0
M  ISO  4   6 100  14 100  48 101  49 101
M  END
>  <TORSDO>  (56) 
F 21

>  <SCORE>  (56) 
-14.440

>  <name>  (56) 
56

>  <ligand_id>  (56) 
56

>  <original_smiles>  (56) 
[H]c1c([H])c([H])c2c(c1[H])C([H])([H])C([H])([H])C([H])([H])C2([H])N([H])C(=O)C1([H])N(C(=O)C([H])(N([H])C(=O)C([H])(N([H])C([H])([H])[H])C([H])([H])[H])C(C([H])([H])[H])(C([H])([H])[H])C([H])([H])[H])C([H])([H])c2c([H])c(OC([H])([H])C([H])([H])[N+]([H])([H])C3([H])C([H])([H])C([H])([H])C(N([H])C(=O)N4C([H])([H])C([H])([H])C([H])([H])C([H])(n5nc(-c6c([H])c([H])c(Oc7c([H])c([H])c(F)c([H])c7F)c([H])c6[H])c(C(=O)N([H])[H])c5N([H])[H])C4([H])[H])(C([H])([H])[N+]([H])([H])[H])C3([H])[H])c([H])c([H])c2C1([H])[H]

>  <smiles>  (56) 
[H]c1c([H])c([H])c2c(c1[H])C([H])([H])C([H])([H])C([H])([H])C2([H])N([H])C(=O)C1([H])N(C(=O)C([H])(N([H])C(=O)C([H])(N([H])C([H])([H])[H])C([H])([H])[H])C(C([H])([H])[H])(C([H])([H])[H])C([H])([H])[H])C([H])([H])c2c([H])c(OC([H])([H])C([H])([H])[N+]([H])([H])C3([H])C([H])([H])C([H])([H])C(N([H])C(=O)N4C([H])([H])C([H])([H])C([H])([H])C([H])(n5nc(-c6c([H])c([H])c(Oc7c([H])c([H])c(F)c([H])c7F)c([H])c6[H])c(C(=O)N([H])[H])c5N([H])[H])C4([H])[H])(C([H])([H])[N+]([H])([H])[H])C3([H])[H])c([H])c([H])c2C1([H])[H]

$$$$
57:0:0
     RDKit          3D

102111  0  0  1  0  0  0  0  0999 V2000
  -31.4810  -15.7960   21.0540 C   0  0  0  0  0  0  0  0  0  0  0  0
  -31.8320  -13.1000   20.8020 C   0  0  0  0  0  2  0  0  0  0  0  0
  -31.2840  -12.3010   19.5760 C   0  0  0  0  0  2  0  0  0  0  0  0
  -29.8130  -11.9080   19.7660 C   0  0  0  0  0  2  0  0  0  0  0  0
  -29.0270  -13.0490   20.4450 C   0  0  0  0  0  3  0  0  0  0  0  0
  -29.7560  -13.7260   21.6370 C   0  0  0  0  0  2  0  0  0  0  0  0
  -30.9940  -14.3760   21.0980 N   0  0  0  0  0  0  0  0  0  0  0  0
  -32.7040  -15.6740   21.2930 O   0  0  0  0  0  0  0  0  0  0  0  0
  -30.6390  -18.0460   19.3260 C   0  0  0  0  0  0  0  0  0  0  0  0
  -30.4620  -17.3030   18.1870 C   0  0  0  0  0  0  0  0  0  0  0  0
  -30.6130  -19.8020   19.0270 C   0  0  0  0  0  2  0  0  0  0  0  0
  -28.2230  -22.7140   18.3390 C   0  0  0  0  0  2  0  0  0  0  0  0
  -30.5110  -20.3150   21.1420 C   0  0  0  0  0  2  0  0  0  0  0  0
  -27.7400  -21.2690   18.5180 C   0  0  0  0  0  2  0  0  0  0  0  0
  -30.6440  -18.5800   21.5520 C   0  0  0  0  0  2  0  0  0  0  0  0
  -29.2750  -23.0780   19.3690 C   0  0  0  0  0  2  0  0  0  0  0  0
  -29.8230  -21.1370   19.8080 C   0  0  0  0  0  3  0  0  0  0  0  0
  -30.8370  -17.2560   20.6610 N   0  0  0  0  0  0  0  0  0  0  0  0
  -28.4560  -20.6080   19.6220 N   0  0  0  0  0  0  0  0  0  0  0  0
  -30.8400  -18.9490   14.2120 C   0  0  0  0  0  3  0  0  0  0  0  0
  -29.5690  -18.8510   14.8140 C   0  0  0  0  0  3  0  0  0  0  0  0
  -31.9890  -18.5600   14.9310 C   0  0  0  0  0  3  0  0  0  0  0  0
  -29.4430  -18.3490   16.1260 C   0  0  0  0  0  3  0  0  0  0  0  0
  -31.8550  -18.0350   16.2320 C   0  0  0  0  0  3  0  0  0  0  0  0
  -30.5800  -17.9030   16.8340 C   0  0  0  0  0  0  0  0  0  0  0  0
  -26.5660  -13.6040   20.6620 C   0  0  0  0  0  0  0  0  0  0  0  0
  -25.4520  -12.8370   20.8400 C   0  0  0  0  0  0  0  0  0  0  0  0
  -25.9130  -11.4950   20.9930 C   0  0  0  0  0  0  0  0  0  0  0  0
  -27.6370  -12.7270   20.7100 N   0  0  0  0  0  0  0  0  0  0  0  0
  -27.2450  -11.4550   20.9780 N   0  0  0  0  0  0  0  0  0  0  0  0
  -25.1550  -10.2420   21.1020 C   0  0  0  0  0  0  0  0  0  0  0  0
  -25.3240   -9.3710   22.1990 C   0  0  0  0  0  3  0  0  0  0  0  0
  -24.5540   -8.1910   22.2980 C   0  0  0  0  0  3  0  0  0  0  0  0
  -23.6050   -7.8700   21.2950 C   0  0  0  0  0  0  0  0  0  0  0  0
  -23.4550   -8.7320   20.1960 C   0  0  0  0  0  3  0  0  0  0  0  0
  -24.2260   -9.9030   20.0920 C   0  0  0  0  0  3  0  0  0  0  0  0
  -22.8370   -6.7270   21.2950 O   0  0  0  0  0  0  0  0  0  0  0  0
  -22.1500   -6.3240   22.4100 C   0  0  0  0  0  0  0  0  0  0  0  0
  -21.2310   -7.1740   23.0640 C   0  0  0  0  0  3  0  0  0  0  0  0
  -20.4910   -6.6980   24.1650 C   0  0  0  0  0  3  0  0  0  0  0  0
  -20.6610   -5.3730   24.6080 C   0  0  0  0  0  0  0  0  0  0  0  0
  -21.5700   -4.5220   23.9550 C   0  0  0  0  0  3  0  0  0  0  0  0
  -22.3120   -4.9960   22.8590 C   0  0  0  0  0  0  0  0  0  0  0  0
  -23.1760   -4.1670   22.2200 F   0  0  0  0  0  0  0  0  0  0  0  0
  -19.9420   -4.9140   25.6600 F   0  0  0  0  0  0  0  0  0  0  0  0
  -24.0330  -13.3160   20.7480 C   0  0  0  0  0  0  0  0  0  0  0  0
  -23.1350  -12.7300   21.5330 N   0  0  0  0  0  0  0  0  0  0  0  0
  -23.7300  -14.2520   20.0130 O   0  0  0  0  0  0  0  0  0  0  0  0
  -23.3990  -11.9880   22.1630 H   0  0  0  0  0  0  0  0  0  0  0  0
  -22.1730  -13.0410   21.5190 H   0  0  0  0  0  0  0  0  0  0  0  0
  -26.7440  -14.9660   20.4300 N   0  0  0  0  0  0  0  0  0  0  0  0
  -25.8980  -15.4530   20.1540 H   0  0  0  0  0  0  0  0  0  0  0  0
  -27.5550  -15.2680   19.9070 H   0  0  0  0  0  0  0  0  0  0  0  0
  -28.8230  -15.2470   18.3380 C   0  0  0  0  0  1  0  0  0  0  0  0
  -30.2540  -15.7910   18.1810 C   0  0  0  0  0  2  0  0  0  0  0  0
  -29.4830  -24.8880   19.0140 O   0  0  0  0  0  0  0  0  0  0  0  0
  -27.3180  -30.8320   23.8360 C   0  0  0  0  0  0  0  0  0  0  0  0
  -28.7730  -26.2770   19.4130 C   0  0  0  0  0  0  0  0  0  0  0  0
  -25.8470  -30.1240   22.0030 C   0  0  0  0  0  3  0  0  0  0  0  0
  -26.9270  -28.6820   20.1020 C   0  0  0  0  0  0  0  0  0  0  0  0
  -28.4070  -29.8320   21.7140 C   0  0  0  0  0  2  0  0  0  0  0  0
  -28.1880  -28.6210   20.7060 C   0  0  0  0  0  0  0  0  0  0  0  0
  -29.0920  -27.4630   20.3410 C   0  0  0  0  0  3  0  0  0  0  0  0
  -27.5430  -26.6400   18.7850 C   0  0  0  0  0  3  0  0  0  0  0  0
  -26.6590  -27.7240   19.1110 C   0  0  0  0  0  3  0  0  0  0  0  0
  -25.9120  -29.7800   20.4860 C   0  0  0  0  0  2  0  0  0  0  0  0
  -27.2240  -30.2810   22.5710 N   0  0  0  0  0  0  0  0  0  0  0  0
  -26.3120  -31.1620   24.4900 O   0  0  0  0  0  0  0  0  0  0  0  0
  -25.0000  -29.0600   22.7550 C   0  0  0  0  0  0  0  0  0  0  0  0
  -23.6900  -28.9570   22.4560 N   0  0  0  0  0  0  0  0  0  0  0  0
  -25.5380  -28.3230   23.5850 O   0  0  0  0  0  0  0  0  0  0  0  0
  -23.3110  -29.5970   21.7740 H   0  0  0  0  0  0  0  0  0  0  0  0
  -20.2520  -27.7630   22.4100 C   0  0  0  0  0  0  0  0  0  0  0  0
  -22.7650  -27.9540   23.0010 C   0  0  0  0  0  3  0  0  0  0  0  0
  -22.9290  -26.5980   22.2740 C   0  0  0  0  0  2  0  0  0  0  0  0
  -21.9590  -26.4210   21.1030 C   0  0  0  0  0  2  0  0  0  0  0  0
  -20.5100  -26.5070   21.5920 C   0  0  0  0  0  2  0  0  0  0  0  0
  -21.3150  -28.4510   23.0560 C   0  0  0  0  0  0  0  0  0  0  0  0
  -21.0210  -29.6270   23.7800 C   0  0  0  0  0  3  0  0  0  0  0  0
  -19.7020  -30.1120   23.8670 C   0  0  0  0  0  3  0  0  0  0  0  0
  -18.6550  -29.4200   23.2320 C   0  0  0  0  0  3  0  0  0  0  0  0
  -18.9310  -28.2480   22.5060 C   0  0  0  0  0  3  0  0  0  0  0  0
  -28.6940  -31.0900   24.5220 C   0  0  0  0  0  3  0  0  0  0  0  0
  -28.9910  -30.0880   25.7080 C   0  0  1  0  0  0  0  0  0  0  0  0
  -27.8390  -29.9790   26.7380 C   0  0  0  0  0  1  0  0  0  0  0  0
  -29.2650  -28.6650   25.1800 C   0  0  0  0  0  1  0  0  0  0  0  0
  -30.2720  -30.5310   26.4550 C   0  0  0  0  0  1  0  0  0  0  0  0
  -28.7000  -32.4780   25.0340 N   0  0  0  0  0  0  0  0  0  0  0  0
  -29.4120  -33.4910   24.5230 C   0  0  0  0  0  0  0  0  0  0  0  0
  -30.1770  -33.3420   23.5670 O   0  0  0  0  0  0  0  0  0  0  0  0
  -28.0350  -32.6840   25.7650 H   0  0  0  0  0  0  0  0  0  0  0  0
  -28.3820  -35.7840   24.2740 C   0  0  0  0  0  1  0  0  0  0  0  0
  -29.2540  -34.8860   25.1680 C   0  0  0  0  0  3  0  0  0  0  0  0
  -31.3140  -34.9540   26.5100 C   0  0  0  0  0  1  0  0  0  0  0  0
  -30.5430  -35.5650   25.4320 N   0  0  0  0  0  0  0  0  0  0  0  0
  -30.3930  -36.5450   25.6580 H   0  0  0  0  0  0  0  0  0  0  0  0
  -27.6030  -20.2190   20.7580 C   0  0  0  0  0  2  0  0  0  0  0  0
  -26.7170  -19.0040   20.3820 C   0  0  0  0  0  2  0  0  0  0  0  0
  -26.5950  -18.0140   21.4760 N   0  0  0  0  0  4  0  0  0  0  0  0
  -27.4850  -17.7880   21.8810 H   0  0  0  0  0  0  0  0  0  0  0  0
  -26.1890  -17.1560   21.1360 H   0  0  0  0  0  0  0  0  0  0  0  0
  -25.9870  -18.3650   22.1980 H   0  0  0  0  0  0  0  0  0  0  0  0
  1  7  1  0
  1  8  2  0
  2  7  1  0
  3  4  1  0
  3  2  1  0
  5  4  1  0
  5 29  1  0
  5  6  1  0
  7  6  1  0
  9 18  1  0
 10  9  2  0
 11  9  1  0
 11 17  1  0
 12 14  1  0
 12 16  1  0
 13 15  1  0
 14 19  1  0
 17 19  1  0
 17 13  1  0
 18  1  1  0
 18 15  1  0
 19 97  1  0
 20 21  2  0
 20 22  1  0
 21 23  1  0
 22 24  2  0
 23 25  2  0
 24 25  1  0
 25 10  1  0
 26 29  1  0
 26 27  2  0
 27 28  1  0
 28 31  1  0
 29 30  1  0
 30 28  2  0
 31 32  1  0
 32 33  2  0
 34 33  1  0
 35 34  2  0
 36 35  1  0
 36 31  2  0
 37 34  1  0
 37 38  1  0
 38 43  2  0
 38 39  1  0
 39 40  2  0
 40 41  1  0
 41 45  1  0
 42 41  2  0
 43 42  1  0
 44 43  1  0
 46 27  1  0
 46 47  1  0
 47 49  1  0
 48 46  2  0
 50 47  1  0
 51 26  1  0
 52 51  1  0
 53 51  1  0
 55 10  1  0
 55 54  1  0
 56 16  1  0
 56 58  1  0
 57 68  2  0
 58 63  1  0
 59 67  1  0
 59 69  1  0
 60 66  1  0
 60 62  1  0
 61 67  1  0
 62 61  1  0
 63 62  2  0
 64 65  1  0
 64 58  2  0
 65 60  2  0
 66 59  1  0
 67 57  1  0
 69 71  2  0
 70 69  1  0
 72 70  1  0
 73 82  2  0
 73 78  1  0
 74 70  1  0
 74 78  1  0
 75 74  1  0
 76 77  1  0
 76 75  1  0
 77 73  1  0
 78 79  2  0
 79 80  1  0
 81 80  2  0
 82 81  1  0
 83 57  1  0
 83 88  1  0
 83 84  1  0
 84 87  1  1
 84 85  1  0
 86 84  1  0
 88 91  1  0
 89 88  1  0
 89 93  1  0
 90 89  2  0
 93 92  1  0
 93 95  1  0
 95 96  1  0
 95 94  1  0
 98 97  1  0
 98 99  1  0
 99100  1  0
 99102  1  0
101 99  1  0
M  ISO  4   1 100  16 101  18 100  56 101
M  END
>  <TORSDO>  (57) 
F 20

>  <SCORE>  (57) 
-2.876

>  <name>  (57) 
57

>  <ligand_id>  (57) 
57

>  <original_smiles>  (57) 
[H]c1c([H])c([H])c(C(=C2N(C(=O)N3C([H])([H])C([H])([H])C([H])([H])C([H])(n4nc(-c5c([H])c([H])c(Oc6c([H])c([H])c(F)c([H])c6F)c([H])c5[H])c(C(=O)N([H])[H])c4N([H])[H])C3([H])[H])C([H])([H])C([H])([H])C3(N(C([H])([H])C([H])([H])[N+]([H])([H])[H])C([H])([H])C([H])([H])C3([H])Oc3c([H])c([H])c4c(c3[H])C([H])([H])N(C(=O)C([H])(N([H])C(=O)C([H])(N([H])C([H])([H])[H])C([H])([H])[H])C(C([H])([H])[H])(C([H])([H])[H])C([H])([H])[H])C([H])(C(=O)N([H])C3([H])c5c([H])c([H])c([H])c([H])c5C([H])([H])C([H])([H])C3([H])[H])C4([H])[H])C2([H])[H])C([H])([H])C([H])([H])[H])c([H])c1[H]

>  <smiles>  (57) 
[H]c1c([H])c([H])c(C(=C2N(C(=O)N3C([H])([H])C([H])([H])C([H])([H])C([H])(n4nc(-c5c([H])c([H])c(Oc6c([H])c([H])c(F)c([H])c6F)c([H])c5[H])c(C(=O)N([H])[H])c4N([H])[H])C3([H])[H])C([H])([H])C([H])([H])C3(N(C([H])([H])C([H])([H])[N+]([H])([H])[H])C([H])([H])C([H])([H])C3([H])Oc3c([H])c([H])c4c(c3[H])C([H])([H])N(C(=O)C([H])(N([H])C(=O)C([H])(N([H])C([H])([H])[H])C([H])([H])[H])C(C([H])([H])[H])(C([H])([H])[H])C([H])([H])[H])C([H])(C(=O)N([H])C3([H])c5c([H])c([H])c([H])c([H])c5C([H])([H])C([H])([H])C3([H])[H])C4([H])[H])C2([H])[H])C([H])([H])C([H])([H])[H])c([H])c1[H]

$$$$
58:0:0
     RDKit          3D

 92100  0  0  1  0  0  0  0  0999 V2000
  -27.9200  -22.1710   20.4950 C   0  0  0  0  0  2  0  0  0  0  0  0
  -30.1640  -21.2590   20.3450 C   0  0  0  0  0  2  0  0  0  0  0  0
  -29.0080  -21.4880   21.3330 C   0  0  0  0  0  3  0  0  0  0  0  0
  -28.3740  -22.0870   19.0230 C   0  0  0  0  0  3  0  0  0  0  0  0
  -29.4950  -20.9520   19.0630 N   0  0  2  0  0  4  0  0  0  0  0  0
  -30.1430  -21.1100   18.3060 H   0  0  0  0  0  0  0  0  0  0  0  0
  -29.3790  -22.2320   22.6250 C   0  0  0  0  0  2  0  0  0  0  0  0
  -30.5460  -22.0900   24.8800 C   0  0  0  0  0  1  0  0  0  0  0  0
  -30.2710  -21.3860   23.5470 C   0  0  0  0  0  2  0  0  0  0  0  0
  -28.6330  -23.6860   18.5040 C   0  0  0  0  0  3  0  0  0  0  0  0
  -27.5250  -24.9640   18.6710 C   0  0  0  0  0  3  0  0  0  0  0  0
  -27.7400  -26.5070   18.6000 O   0  0  0  0  0  0  0  0  0  0  0  0
  -24.5870  -31.5100   22.9900 C   0  0  0  0  0  0  0  0  0  0  0  0
  -26.6690  -27.4430   18.8560 C   0  0  0  0  0  0  0  0  0  0  0  0
  -23.1400  -30.3590   21.3580 C   0  0  0  0  0  3  0  0  0  0  0  0
  -24.3450  -29.0820   19.4800 C   0  0  0  0  0  0  0  0  0  0  0  0
  -25.6290  -30.7370   20.8270 C   0  0  0  0  0  2  0  0  0  0  0  0
  -25.6040  -29.4710   19.9540 C   0  0  0  0  0  0  0  0  0  0  0  0
  -26.7630  -28.6710   19.6270 C   0  0  0  0  0  3  0  0  0  0  0  0
  -25.3740  -27.1580   18.3670 C   0  0  0  0  0  3  0  0  0  0  0  0
  -24.2380  -27.9400   18.6720 C   0  0  0  0  0  3  0  0  0  0  0  0
  -23.1360  -29.9190   19.8690 C   0  0  0  0  0  2  0  0  0  0  0  0
  -24.4800  -30.8850   21.7770 N   0  0  0  0  0  0  0  0  0  0  0  0
  -23.6020  -31.6670   23.7260 O   0  0  0  0  0  0  0  0  0  0  0  0
  -22.6360  -29.1890   22.2410 C   0  0  0  0  0  0  0  0  0  0  0  0
  -21.3340  -28.8650   22.1470 N   0  0  0  0  0  0  0  0  0  0  0  0
  -23.4180  -28.5740   22.9710 O   0  0  0  0  0  0  0  0  0  0  0  0
  -20.7520  -29.4200   21.5350 H   0  0  0  0  0  0  0  0  0  0  0  0
  -18.2020  -27.0790   22.4900 C   0  0  0  0  0  0  0  0  0  0  0  0
  -20.6700  -27.7630   22.8480 C   0  0  0  0  0  3  0  0  0  0  0  0
  -21.0310  -26.4000   22.2140 C   0  0  0  0  0  2  0  0  0  0  0  0
  -20.0260  -25.9440   21.1520 C   0  0  0  0  0  2  0  0  0  0  0  0
  -18.6250  -25.8170   21.7570 C   0  0  0  0  0  2  0  0  0  0  0  0
  -19.1620  -28.0010   22.9870 C   0  0  0  0  0  0  0  0  0  0  0  0
  -18.7130  -29.1760   23.6280 C   0  0  0  0  0  3  0  0  0  0  0  0
  -17.3360  -29.4320   23.7790 C   0  0  0  0  0  3  0  0  0  0  0  0
  -16.3920  -28.5100   23.2950 C   0  0  0  0  0  3  0  0  0  0  0  0
  -16.8250  -27.3340   22.6580 C   0  0  0  0  0  3  0  0  0  0  0  0
  -25.9490  -32.0770   23.4980 C   0  0  0  0  0  3  0  0  0  0  0  0
  -25.7050  -33.4380   24.0050 N   0  0  0  0  0  0  0  0  0  0  0  0
  -26.0230  -34.5650   23.3540 C   0  0  0  0  0  0  0  0  0  0  0  0
  -26.6180  -34.5660   22.2720 O   0  0  0  0  0  0  0  0  0  0  0  0
  -25.1770  -33.5130   24.8620 H   0  0  0  0  0  0  0  0  0  0  0  0
  -24.3500  -36.4440   23.3230 C   0  0  0  0  0  1  0  0  0  0  0  0
  -25.6160  -35.9030   24.0030 C   0  0  0  0  0  3  0  0  0  0  0  0
  -27.8200  -36.6190   24.8150 C   0  0  0  0  0  1  0  0  0  0  0  0
  -26.6800  -36.9310   23.9570 N   0  0  0  0  0  0  0  0  0  0  0  0
  -26.3120  -37.8400   24.2300 H   0  0  0  0  0  0  0  0  0  0  0  0
  -26.6100  -31.1860   24.6210 C   0  0  1  0  0  0  0  0  0  0  0  0
  -25.6630  -30.8630   25.8010 C   0  0  0  0  0  1  0  0  0  0  0  0
  -27.1070  -29.8440   24.0390 C   0  0  0  0  0  1  0  0  0  0  0  0
  -27.8520  -31.9060   25.1970 C   0  0  0  0  0  1  0  0  0  0  0  0
  -29.1560  -19.3900   19.0520 C   0  0  0  0  0  3  0  0  0  0  0  0
  -30.2330  -18.1860   19.5600 C   0  0  0  0  0  3  0  0  0  0  0  0
  -30.7940  -15.4820   19.5590 C   0  0  0  0  0  0  0  0  0  0  0  0
  -30.7570  -13.0150   18.9760 C   0  0  0  0  0  2  0  0  0  0  0  0
  -29.7730  -12.7180   17.8190 C   0  0  0  0  0  2  0  0  0  0  0  0
  -28.3330  -12.5290   18.3350 C   0  0  0  0  0  2  0  0  0  0  0  0
  -27.9260  -13.6090   19.3710 C   0  0  0  0  0  3  0  0  0  0  0  0
  -29.0240  -13.8440   20.4320 C   0  0  0  0  0  2  0  0  0  0  0  0
  -30.2500  -14.2100   19.7070 N   0  0  0  0  0  0  0  0  0  0  0  0
  -31.9860  -15.5680   19.2510 O   0  0  0  0  0  0  0  0  0  0  0  0
  -29.9630  -16.6300   19.5620 N   0  0  0  0  0  0  0  0  0  0  0  0
  -28.9970  -16.3970   19.7380 H   0  0  0  0  0  0  0  0  0  0  0  0
  -25.6310  -14.2170   20.3320 C   0  0  0  0  0  0  0  0  0  0  0  0
  -24.5760  -13.4520   20.7510 C   0  0  0  0  0  0  0  0  0  0  0  0
  -24.9930  -12.0940   20.6140 C   0  0  0  0  0  0  0  0  0  0  0  0
  -26.6240  -13.3240   19.9670 N   0  0  0  0  0  0  0  0  0  0  0  0
  -26.2540  -12.0370   20.1970 N   0  0  0  0  0  0  0  0  0  0  0  0
  -24.2430  -10.8440   20.7920 C   0  0  0  0  0  0  0  0  0  0  0  0
  -24.6630   -9.8520   21.7050 C   0  0  0  0  0  3  0  0  0  0  0  0
  -23.9110   -8.6690   21.8720 C   0  0  0  0  0  3  0  0  0  0  0  0
  -22.7230   -8.4710   21.1280 C   0  0  0  0  0  0  0  0  0  0  0  0
  -22.3240   -9.4520   20.2020 C   0  0  0  0  0  3  0  0  0  0  0  0
  -23.0760  -10.6270   20.0300 C   0  0  0  0  0  3  0  0  0  0  0  0
  -21.9370   -7.3470   21.2120 O   0  0  0  0  0  0  0  0  0  0  0  0
  -21.7940   -6.6560   22.3890 C   0  0  0  0  0  0  0  0  0  0  0  0
  -21.2330   -7.2520   23.5400 C   0  0  0  0  0  3  0  0  0  0  0  0
  -21.0370   -6.4830   24.7070 C   0  0  0  0  0  3  0  0  0  0  0  0
  -21.3970   -5.1210   24.7220 C   0  0  0  0  0  0  0  0  0  0  0  0
  -21.9530   -4.5260   23.5770 C   0  0  0  0  0  3  0  0  0  0  0  0
  -22.1470   -5.2910   22.4120 C   0  0  0  0  0  0  0  0  0  0  0  0
  -22.6590   -4.7060   21.3040 F   0  0  0  0  0  0  0  0  0  0  0  0
  -21.2030   -4.3830   25.8400 F   0  0  0  0  0  0  0  0  0  0  0  0
  -23.2200  -13.9550   21.1550 C   0  0  0  0  0  0  0  0  0  0  0  0
  -22.5430  -13.2400   22.0490 N   0  0  0  0  0  0  0  0  0  0  0  0
  -22.7720  -15.0120   20.7130 O   0  0  0  0  0  0  0  0  0  0  0  0
  -22.9130  -12.3800   22.4210 H   0  0  0  0  0  0  0  0  0  0  0  0
  -21.6330  -13.5550   22.3570 H   0  0  0  0  0  0  0  0  0  0  0  0
  -25.8180  -15.5900   20.2030 N   0  0  0  0  0  0  0  0  0  0  0  0
  -25.0670  -16.2500   20.3820 H   0  0  0  0  0  0  0  0  0  0  0  0
  -26.6060  -16.0190   19.7380 H   0  0  0  0  0  0  0  0  0  0  0  0
  1  3  1  0
  2  3  1  0
  3  7  1  0
  4 10  1  0
  4  5  1  0
  4  1  1  0
  5  2  1  0
  5  6  1  6
  7  9  1  0
  9  8  1  0
 10 11  2  0
 12 11  1  0
 12 14  1  0
 13 24  2  0
 14 19  1  0
 15 23  1  0
 15 25  1  0
 16 22  1  0
 16 18  1  0
 17 23  1  0
 18 17  1  0
 19 18  2  0
 20 21  1  0
 20 14  2  0
 21 16  2  0
 22 15  1  0
 23 13  1  0
 25 27  2  0
 26 25  1  0
 28 26  1  0
 29 38  2  0
 29 34  1  0
 30 26  1  0
 30 34  1  0
 31 30  1  0
 32 33  1  0
 32 31  1  0
 33 29  1  0
 34 35  2  0
 35 36  1  0
 37 36  2  0
 38 37  1  0
 39 13  1  0
 39 40  1  0
 39 49  1  0
 40 43  1  0
 41 45  1  0
 41 40  1  0
 42 41  2  0
 45 44  1  0
 47 45  1  0
 47 48  1  0
 47 46  1  0
 49 52  1  1
 49 50  1  0
 51 49  1  0
 53  5  1  0
 53 54  2  0
 54 63  1  0
 55 63  1  0
 55 61  1  0
 56 61  1  0
 57 58  1  0
 57 56  1  0
 59 58  1  0
 59 68  1  0
 59 60  1  0
 61 60  1  0
 62 55  2  0
 63 64  1  0
 65 66  2  0
 66 85  1  0
 67 66  1  0
 67 70  1  0
 68 69  1  0
 68 65  1  0
 69 67  2  0
 70 71  1  0
 71 72  2  0
 73 76  1  0
 73 72  1  0
 74 73  2  0
 75 74  1  0
 75 70  2  0
 76 77  1  0
 77 82  2  0
 77 78  1  0
 78 79  2  0
 79 80  1  0
 80 84  1  0
 81 80  2  0
 82 81  1  0
 83 82  1  0
 85 86  1  0
 86 89  1  0
 86 88  1  0
 87 85  2  0
 90 65  1  0
 90 91  1  0
 92 90  1  0
M  ISO  4  11 101  12 101  55 100  63 100
M  END
>  <TORSDO>  (58) 
F 22

>  <SCORE>  (58) 
-12.652

>  <name>  (58) 
58

>  <ligand_id>  (58) 
58

>  <original_smiles>  (58) 
[H]c1c([H])c([H])c2c(c1[H])C([H])([H])C([H])([H])C([H])([H])C2([H])N([H])C(=O)C1([H])N(C(=O)C([H])(N([H])C(=O)C([H])(N([H])C([H])([H])[H])C([H])([H])[H])C(C([H])([H])[H])(C([H])([H])[H])C([H])([H])[H])C([H])([H])c2c([H])c(OC([H])([H])C([H])([H])C3([H])C([H])([H])C([H])(C([H])([H])C([H])([H])C([H])([H])[H])C([H])([H])[N+]3([H])C([H])([H])C([H])([H])N([H])C(=O)N3C([H])([H])C([H])([H])C([H])([H])C([H])(n4nc(-c5c([H])c([H])c(Oc6c([H])c([H])c(F)c([H])c6F)c([H])c5[H])c(C(=O)N([H])[H])c4N([H])[H])C3([H])[H])c([H])c([H])c2C1([H])[H]

>  <smiles>  (58) 
[H]c1c([H])c([H])c2c(c1[H])C([H])([H])C([H])([H])C([H])([H])C2([H])N([H])C(=O)C1([H])N(C(=O)C([H])(N([H])C(=O)C([H])(N([H])C([H])([H])[H])C([H])([H])[H])C(C([H])([H])[H])(C([H])([H])[H])C([H])([H])[H])C([H])([H])c2c([H])c(OC([H])([H])C([H])([H])C3([H])C([H])([H])C([H])(C([H])([H])C([H])([H])C([H])([H])[H])C([H])([H])[N+]3([H])C([H])([H])C([H])([H])N([H])C(=O)N3C([H])([H])C([H])([H])C([H])([H])C([H])(n4nc(-c5c([H])c([H])c(Oc6c([H])c([H])c(F)c([H])c6F)c([H])c5[H])c(C(=O)N([H])[H])c4N([H])[H])C3([H])[H])c([H])c([H])c2C1([H])[H]

$$$$
59:0:0
     RDKit          3D

 97105  0  0  1  0  0  0  0  0999 V2000
  -30.1060  -17.1120   19.5820 C   0  0  0  0  0  0  0  0  0  0  0  0
  -29.3130  -18.1010   19.0510 N   0  0  0  0  0  0  0  0  0  0  0  0
  -31.0680  -17.3730   20.3130 O   0  0  0  0  0  0  0  0  0  0  0  0
  -31.4530  -13.9270   20.4560 C   0  0  0  0  0  0  0  0  0  0  0  0
  -31.3000  -11.4830   20.1540 C   0  0  0  0  0  2  0  0  0  0  0  0
  -30.6650  -11.1890   18.7790 C   0  0  0  0  0  2  0  0  0  0  0  0
  -29.1300  -11.1280   18.9040 C   0  0  0  0  0  2  0  0  0  0  0  0
  -28.5470  -12.3420   19.6690 C   0  0  0  0  0  3  0  0  0  0  0  0
  -29.3300  -12.6340   20.9670 C   0  0  0  0  0  2  0  0  0  0  0  0
  -30.7430  -12.7720   20.6020 N   0  0  0  0  0  0  0  0  0  0  0  0
  -32.6680  -13.9260   20.6550 O   0  0  0  0  0  0  0  0  0  0  0  0
  -31.1990  -15.6670   17.1850 C   0  0  0  0  0  2  0  0  0  0  0  0
  -29.7510  -15.5730   17.6500 C   0  0  0  0  0  2  0  0  0  0  0  0
  -31.9410  -14.8220   18.2260 C   0  0  0  0  0  2  0  0  0  0  0  0
  -29.8710  -15.6010   19.1920 C   0  0  0  0  0  3  0  0  0  0  0  0
  -31.0510  -14.7050   19.4020 N   0  0  0  0  0  0  0  0  0  0  0  0
  -26.0850  -13.0620   19.5840 C   0  0  0  0  0  0  0  0  0  0  0  0
  -24.9360  -12.4120   19.9490 C   0  0  0  0  0  0  0  0  0  0  0  0
  -25.3460  -11.1530   20.4840 C   0  0  0  0  0  0  0  0  0  0  0  0
  -27.1190  -12.1980   19.9100 N   0  0  0  0  0  0  0  0  0  0  0  0
  -26.6680  -11.0740   20.5170 N   0  0  0  0  0  0  0  0  0  0  0  0
  -24.5580   -9.9930   20.9100 C   0  0  0  0  0  0  0  0  0  0  0  0
  -24.7420   -9.4110   22.1840 C   0  0  0  0  0  3  0  0  0  0  0  0
  -23.9620   -8.3050   22.5830 C   0  0  0  0  0  3  0  0  0  0  0  0
  -22.9860   -7.7740   21.7090 C   0  0  0  0  0  0  0  0  0  0  0  0
  -22.8260   -8.3400   20.4320 C   0  0  0  0  0  3  0  0  0  0  0  0
  -23.6050   -9.4370   20.0330 C   0  0  0  0  0  3  0  0  0  0  0  0
  -22.1970   -6.6890   22.0010 O   0  0  0  0  0  0  0  0  0  0  0  0
  -21.5980   -6.5440   23.2260 C   0  0  0  0  0  0  0  0  0  0  0  0
  -20.6220   -7.4520   23.6910 C   0  0  0  0  0  3  0  0  0  0  0  0
  -19.9830   -7.2260   24.9270 C   0  0  0  0  0  3  0  0  0  0  0  0
  -20.3090   -6.0880   25.6890 C   0  0  0  0  0  0  0  0  0  0  0  0
  -21.2780   -5.1800   25.2250 C   0  0  0  0  0  3  0  0  0  0  0  0
  -21.9180   -5.4060   23.9950 C   0  0  0  0  0  0  0  0  0  0  0  0
  -22.8330   -4.5170   23.5390 F   0  0  0  0  0  0  0  0  0  0  0  0
  -19.6920   -5.8670   26.8740 F   0  0  0  0  0  0  0  0  0  0  0  0
  -23.5330  -12.8870   19.7130 C   0  0  0  0  0  0  0  0  0  0  0  0
  -22.6120  -12.5440   20.6100 N   0  0  0  0  0  0  0  0  0  0  0  0
  -23.2530  -13.6000   18.7520 O   0  0  0  0  0  0  0  0  0  0  0  0
  -22.8490  -11.9740   21.4050 H   0  0  0  0  0  0  0  0  0  0  0  0
  -21.6600  -12.8650   20.5000 H   0  0  0  0  0  0  0  0  0  0  0  0
  -26.3280  -14.2890   18.9780 N   0  0  0  0  0  0  0  0  0  0  0  0
  -25.5370  -14.7460   18.5380 H   0  0  0  0  0  0  0  0  0  0  0  0
  -27.1910  -14.4580   18.4810 H   0  0  0  0  0  0  0  0  0  0  0  0
  -29.7250  -19.5430   19.0520 C   0  0  0  0  0  2  0  0  0  0  0  0
  -29.3470  -20.4090   17.7890 C   0  0  0  0  0  2  0  0  0  0  0  0
  -29.0770  -21.9120   18.1470 C   0  0  0  0  0  2  0  0  0  0  0  0
  -28.5510  -22.9100   17.0500 C   0  0  0  0  0  2  0  0  0  0  0  0
  -28.4100  -24.3900   17.5750 C   0  0  0  0  0  2  0  0  0  0  0  0
  -27.9320  -25.4460   16.6930 O   0  0  0  0  0  0  0  0  0  0  0  0
  -24.6300  -29.4150   21.7060 C   0  0  0  0  0  0  0  0  0  0  0  0
  -26.8240  -26.1770   17.0950 C   0  0  0  0  0  0  0  0  0  0  0  0
  -23.2480  -28.6860   19.7910 C   0  0  0  0  0  3  0  0  0  0  0  0
  -24.5260  -27.6760   17.8190 C   0  0  0  0  0  0  0  0  0  0  0  0
  -25.7750  -29.0170   19.5180 C   0  0  0  0  0  2  0  0  0  0  0  0
  -25.7500  -27.9360   18.4490 C   0  0  0  0  0  0  0  0  0  0  0  0
  -26.9080  -27.1990   18.0820 C   0  0  0  0  0  3  0  0  0  0  0  0
  -25.5830  -25.9410   16.4700 C   0  0  0  0  0  3  0  0  0  0  0  0
  -24.4390  -26.6790   16.8290 C   0  0  0  0  0  3  0  0  0  0  0  0
  -23.3350  -28.5070   18.2520 C   0  0  0  0  0  2  0  0  0  0  0  0
  -24.5740  -29.0360   20.3970 N   0  0  0  0  0  0  0  0  0  0  0  0
  -23.6010  -29.5100   22.3910 O   0  0  0  0  0  0  0  0  0  0  0  0
  -22.6100  -27.4160   20.4000 C   0  0  0  0  0  0  0  0  0  0  0  0
  -21.2730  -27.3140   20.3200 N   0  0  0  0  0  0  0  0  0  0  0  0
  -23.3150  -26.5340   20.9000 O   0  0  0  0  0  0  0  0  0  0  0  0
  -20.7660  -28.0800   19.8950 H   0  0  0  0  0  0  0  0  0  0  0  0
  -17.8870  -26.0830   20.6440 C   0  0  0  0  0  0  0  0  0  0  0  0
  -20.4660  -26.1830   20.7840 C   0  0  0  0  0  3  0  0  0  0  0  0
  -20.4660  -25.0350   19.7490 C   0  0  0  0  0  2  0  0  0  0  0  0
  -19.2850  -25.1010   18.7770 C   0  0  0  0  0  2  0  0  0  0  0  0
  -17.9580  -25.0430   19.5390 C   0  0  0  0  0  2  0  0  0  0  0  0
  -19.0640  -26.6300   21.2180 C   0  0  0  0  0  0  0  0  0  0  0  0
  -18.9430  -27.6250   22.2140 C   0  0  0  0  0  3  0  0  0  0  0  0
  -17.6760  -28.0690   22.6360 C   0  0  0  0  0  3  0  0  0  0  0  0
  -16.5140  -27.5130   22.0770 C   0  0  0  0  0  3  0  0  0  0  0  0
  -16.6210  -26.5150   21.0880 C   0  0  0  0  0  3  0  0  0  0  0  0
  -25.9820  -29.7690   22.3980 C   0  0  0  0  0  3  0  0  0  0  0  0
  -26.6710  -28.5260   23.0870 C   0  0  1  0  0  0  0  0  0  0  0  0
  -25.7400  -27.7570   24.0530 C   0  0  0  0  0  1  0  0  0  0  0  0
  -27.1760  -27.5240   22.0220 C   0  0  0  0  0  1  0  0  0  0  0  0
  -27.9140  -28.9910   23.8840 C   0  0  0  0  0  1  0  0  0  0  0  0
  -25.7140  -30.8260   23.3820 N   0  0  0  0  0  0  0  0  0  0  0  0
  -26.0620  -32.1110   23.2310 C   0  0  0  0  0  0  0  0  0  0  0  0
  -26.7130  -32.5210   22.2650 O   0  0  0  0  0  0  0  0  0  0  0  0
  -25.1370  -30.5710   24.1710 H   0  0  0  0  0  0  0  0  0  0  0  0
  -24.3930  -33.8910   23.8380 C   0  0  0  0  0  1  0  0  0  0  0  0
  -25.6170  -33.1000   24.3250 C   0  0  0  0  0  3  0  0  0  0  0  0
  -27.7540  -33.3960   25.5000 C   0  0  0  0  0  1  0  0  0  0  0  0
  -26.6840  -34.0360   24.7400 N   0  0  0  0  0  0  0  0  0  0  0  0
  -26.3030  -34.7900   25.3050 H   0  0  0  0  0  0  0  0  0  0  0  0
  -27.8950  -17.7600   18.7940 C   0  0  0  0  0  2  0  0  0  0  0  0
  -26.8150  -18.2200   19.8050 C   0  0  0  0  0  2  0  0  0  0  0  0
  -25.7130  -17.1450   19.9260 C   0  0  0  0  0  2  0  0  0  0  0  0
  -25.3330  -16.8260   21.3120 N   0  0  0  0  0  4  0  0  0  0  0  0
  -26.1300  -16.6630   21.9010 H   0  0  0  0  0  0  0  0  0  0  0  0
  -24.7860  -15.9830   21.3030 H   0  0  0  0  0  0  0  0  0  0  0  0
  -24.7640  -17.5460   21.7160 H   0  0  0  0  0  0  0  0  0  0  0  0
  1  3  2  0
  2 45  1  0
  2  1  1  0
  4 10  1  0
  4 11  2  0
  5 10  1  0
  6  7  1  0
  6  5  1  0
  8  7  1  0
  8 20  1  0
  8  9  1  0
 10  9  1  0
 12 13  1  0
 12 14  1  0
 13 15  1  0
 14 16  1  0
 15 16  1  0
 15  1  1  0
 16  4  1  0
 17 20  1  0
 17 18  2  0
 18 19  1  0
 19 21  2  0
 19 22  1  0
 20 21  1  0
 22 23  1  0
 23 24  2  0
 25 28  1  0
 25 24  1  0
 26 25  2  0
 27 26  1  0
 27 22  2  0
 28 29  1  0
 29 30  2  0
 29 34  1  0
 30 31  1  0
 31 32  2  0
 32 36  1  0
 33 32  1  0
 34 33  2  0
 35 34  1  0
 37 18  1  0
 37 38  1  0
 38 40  1  0
 39 37  2  0
 41 38  1  0
 42 17  1  0
 43 42  1  0
 44 42  1  0
 46 47  1  0
 46 45  1  0
 48 49  1  0
 48 47  1  0
 50 52  1  0
 50 49  1  0
 51 62  2  0
 52 57  1  0
 53 61  1  0
 53 63  1  0
 54 60  1  0
 54 56  1  0
 55 61  1  0
 56 55  1  0
 57 56  2  0
 58 59  1  0
 58 52  2  0
 59 54  2  0
 60 53  1  0
 61 51  1  0
 63 65  2  0
 64 63  1  0
 66 64  1  0
 67 76  2  0
 67 72  1  0
 68 64  1  0
 68 72  1  0
 69 68  1  0
 70 71  1  0
 70 69  1  0
 71 67  1  0
 72 73  2  0
 73 74  1  0
 75 74  2  0
 76 75  1  0
 77 51  1  0
 77 78  1  0
 77 82  1  0
 78 81  1  1
 78 79  1  0
 80 78  1  0
 82 85  1  0
 83 82  1  0
 83 87  1  0
 84 83  2  0
 87 86  1  0
 87 89  1  0
 89 90  1  0
 89 88  1  0
 91  2  1  0
 91 92  1  0
 92 93  1  0
 93 94  1  0
 94 97  1  0
 94 95  1  0
 96 94  1  0
M  ISO  4   4 100  16 100  49 101  50 101
M  END
>  <TORSDO>  (59) 
F 25

>  <SCORE>  (59) 
-0.588

>  <name>  (59) 
59

>  <ligand_id>  (59) 
59

>  <original_smiles>  (59) 
[H]c1c([H])c([H])c2c(c1[H])C([H])([H])C([H])([H])C([H])([H])C2([H])N([H])C(=O)C1([H])N(C(=O)C([H])(N([H])C(=O)C([H])(N([H])C([H])([H])[H])C([H])([H])[H])C(C([H])([H])[H])(C([H])([H])[H])C([H])([H])[H])C([H])([H])c2c([H])c(OC([H])([H])C([H])([H])C([H])([H])C([H])([H])C([H])([H])N(C(=O)C3([H])N(C(=O)N4C([H])([H])C([H])([H])C([H])([H])C([H])(n5nc(-c6c([H])c([H])c(Oc7c([H])c([H])c(F)c([H])c7F)c([H])c6[H])c(C(=O)N([H])[H])c5N([H])[H])C4([H])[H])C([H])([H])C([H])([H])C3([H])[H])C([H])([H])C([H])([H])C([H])([H])[N+]([H])([H])[H])c([H])c([H])c2C1([H])[H]

>  <smiles>  (59) 
[H]c1c([H])c([H])c2c(c1[H])C([H])([H])C([H])([H])C([H])([H])C2([H])N([H])C(=O)C1([H])N(C(=O)C([H])(N([H])C(=O)C([H])(N([H])C([H])([H])[H])C([H])([H])[H])C(C([H])([H])[H])(C([H])([H])[H])C([H])([H])[H])C([H])([H])c2c([H])c(OC([H])([H])C([H])([H])C([H])([H])C([H])([H])C([H])([H])N(C(=O)C3([H])N(C(=O)N4C([H])([H])C([H])([H])C([H])([H])C([H])(n5nc(-c6c([H])c([H])c(Oc7c([H])c([H])c(F)c([H])c7F)c([H])c6[H])c(C(=O)N([H])[H])c5N([H])[H])C4([H])[H])C([H])([H])C([H])([H])C3([H])[H])C([H])([H])C([H])([H])C([H])([H])[N+]([H])([H])[H])c([H])c([H])c2C1([H])[H]

$$$$
60:0:0
     RDKit          3D

 99108  0  0  1  0  0  0  0  0999 V2000
  -29.8880  -23.1480   19.4980 C   0  0  0  0  0  0  0  0  0  0  0  0
  -32.5110  -24.5330   20.2190 C   0  0  0  0  0  2  0  0  0  0  0  0
  -32.9110  -24.6930   18.7410 C   0  0  0  0  0  2  0  0  0  0  0  0
  -31.1330  -25.1230   20.5580 C   0  0  0  0  0  2  0  0  0  0  0  0
  -30.2380  -21.0150   16.5730 C   0  0  0  0  0  2  0  0  0  0  0  0
  -32.7090  -23.4330   17.8780 C   0  0  0  0  0  2  0  0  0  0  0  0
  -31.4210  -21.9340   16.3220 C   0  0  0  0  0  2  0  0  0  0  0  0
  -29.9940  -24.6900   19.6140 C   0  0  0  0  0  3  0  0  0  0  0  0
  -29.9880  -21.1260   18.0840 C   0  0  0  0  0  3  0  0  0  0  0  0
  -31.2890  -23.0550   17.3670 C   0  0  0  0  0  3  0  0  0  0  0  0
  -30.4010  -22.5060   18.4170 N   0  0  0  0  0  0  0  0  0  0  0  0
  -29.2640  -22.5350   20.3700 O   0  0  0  0  0  0  0  0  0  0  0  0
  -30.8020  -20.0590   18.8520 C   0  0  0  0  0  0  0  0  0  0  0  0
  -30.6040  -18.7770   18.5030 N   0  0  0  0  0  0  0  0  0  0  0  0
  -31.6200  -20.3820   19.7170 O   0  0  0  0  0  0  0  0  0  0  0  0
  -29.9340  -18.6040   17.7640 H   0  0  0  0  0  0  0  0  0  0  0  0
  -31.3530  -17.6240   19.0110 C   0  0  0  0  0  2  0  0  0  0  0  0
  -30.4320  -16.3950   19.2090 C   0  0  0  0  0  2  0  0  0  0  0  0
  -31.5680  -14.2220   19.4590 C   0  0  0  0  0  0  0  0  0  0  0  0
  -31.2210  -11.8610   18.7980 C   0  0  0  0  0  2  0  0  0  0  0  0
  -30.1830  -11.7570   17.6620 C   0  0  0  0  0  2  0  0  0  0  0  0
  -28.7450  -11.7290   18.2170 C   0  0  0  0  0  2  0  0  0  0  0  0
  -28.4940  -12.8340   19.2740 C   0  0  0  0  0  3  0  0  0  0  0  0
  -29.6260  -12.8620   20.3220 C   0  0  0  0  0  2  0  0  0  0  0  0
  -30.9020  -13.0450   19.6130 N   0  0  0  0  0  0  0  0  0  0  0  0
  -32.5780  -14.3230   18.7500 O   0  0  0  0  0  0  0  0  0  0  0  0
  -30.9950  -15.3080   20.0420 N   0  0  0  0  0  0  0  0  0  0  0  0
  -26.2880  -13.6770   20.2900 C   0  0  0  0  0  0  0  0  0  0  0  0
  -25.1930  -13.0120   20.7690 C   0  0  0  0  0  0  0  0  0  0  0  0
  -25.4850  -11.6210   20.6380 C   0  0  0  0  0  0  0  0  0  0  0  0
  -27.1860  -12.6950   19.9070 N   0  0  0  0  0  0  0  0  0  0  0  0
  -26.7130  -11.4490   20.1690 N   0  0  0  0  0  0  0  0  0  0  0  0
  -24.6480  -10.4420   20.8840 C   0  0  0  0  0  0  0  0  0  0  0  0
  -24.9130   -9.5590   21.9560 C   0  0  0  0  0  3  0  0  0  0  0  0
  -24.0880   -8.4360   22.1830 C   0  0  0  0  0  3  0  0  0  0  0  0
  -22.9810   -8.1900   21.3350 C   0  0  0  0  0  0  0  0  0  0  0  0
  -22.7330   -9.0570   20.2570 C   0  0  0  0  0  3  0  0  0  0  0  0
  -23.5580  -10.1730   20.0290 C   0  0  0  0  0  3  0  0  0  0  0  0
  -22.1390   -7.1110   21.4610 O   0  0  0  0  0  0  0  0  0  0  0  0
  -21.7340   -6.6530   22.6900 C   0  0  0  0  0  0  0  0  0  0  0  0
  -21.0270   -7.4730   23.5940 C   0  0  0  0  0  3  0  0  0  0  0  0
  -20.5700   -6.9440   24.8170 C   0  0  0  0  0  3  0  0  0  0  0  0
  -20.8100   -5.5910   25.1320 C   0  0  0  0  0  0  0  0  0  0  0  0
  -21.5090   -4.7710   24.2300 C   0  0  0  0  0  3  0  0  0  0  0  0
  -21.9670   -5.3000   23.0100 C   0  0  0  0  0  0  0  0  0  0  0  0
  -22.6230   -4.5010   22.1350 F   0  0  0  0  0  0  0  0  0  0  0  0
  -20.3640   -5.0790   26.3010 F   0  0  0  0  0  0  0  0  0  0  0  0
  -23.9050  -13.6310   21.2260 C   0  0  0  0  0  0  0  0  0  0  0  0
  -23.2430  -13.0260   22.2060 N   0  0  0  0  0  0  0  0  0  0  0  0
  -23.4970  -14.6870   20.7430 O   0  0  0  0  0  0  0  0  0  0  0  0
  -23.5890  -12.1790   22.6280 H   0  0  0  0  0  0  0  0  0  0  0  0
  -22.3760  -13.4250   22.5350 H   0  0  0  0  0  0  0  0  0  0  0  0
  -26.5850  -15.0300   20.1340 N   0  0  0  0  0  0  0  0  0  0  0  0
  -25.9170  -15.7600   20.3610 H   0  0  0  0  0  0  0  0  0  0  0  0
  -27.4390  -15.3880   19.7260 H   0  0  0  0  0  0  0  0  0  0  0  0
  -30.3020  -16.0920   22.3550 C   0  0  0  0  0  1  0  0  0  0  0  0
  -31.4450  -15.7290   21.3830 C   0  0  0  0  0  2  0  0  0  0  0  0
  -28.6360  -25.2950   20.0520 C   0  0  0  0  0  2  0  0  0  0  0  0
  -28.6510  -26.7280   20.0330 O   0  0  0  0  0  0  0  0  0  0  0  0
  -24.6790  -31.8070   23.0610 C   0  0  0  0  0  0  0  0  0  0  0  0
  -27.4360  -27.3830   20.0500 C   0  0  0  0  0  0  0  0  0  0  0  0
  -23.5040  -30.3460   21.4470 C   0  0  0  0  0  3  0  0  0  0  0  0
  -24.9920  -28.8180   20.0550 C   0  0  0  0  0  0  0  0  0  0  0  0
  -26.0190  -30.7660   21.2360 C   0  0  0  0  0  2  0  0  0  0  0  0
  -26.1390  -29.3850   20.6240 C   0  0  0  0  0  0  0  0  0  0  0  0
  -27.3620  -28.6760   20.6160 C   0  0  0  0  0  3  0  0  0  0  0  0
  -26.2630  -26.8260   19.4850 C   0  0  0  0  0  3  0  0  0  0  0  0
  -25.0490  -27.5360   19.4860 C   0  0  0  0  0  3  0  0  0  0  0  0
  -23.7270  -29.6450   20.0820 C   0  0  0  0  0  2  0  0  0  0  0  0
  -24.7520  -30.9890   21.9730 N   0  0  0  0  0  0  0  0  0  0  0  0
  -23.5920  -32.0620   23.5970 O   0  0  0  0  0  0  0  0  0  0  0  0
  -22.8790  -29.3270   22.4270 C   0  0  0  0  0  0  0  0  0  0  0  0
  -21.5590  -29.1120   22.3050 N   0  0  0  0  0  0  0  0  0  0  0  0
  -23.5800  -28.7310   23.2490 O   0  0  0  0  0  0  0  0  0  0  0  0
  -21.0550  -29.6490   21.6130 H   0  0  0  0  0  0  0  0  0  0  0  0
  -18.2190  -27.8300   22.8040 C   0  0  0  0  0  0  0  0  0  0  0  0
  -20.7640  -28.1700   23.0920 C   0  0  0  0  0  3  0  0  0  0  0  0
  -20.9150  -26.7280   22.5540 C   0  0  0  0  0  2  0  0  0  0  0  0
  -19.8330  -26.3470   21.5400 C   0  0  0  0  0  2  0  0  0  0  0  0
  -18.4410  -26.4690   22.1670 C   0  0  0  0  0  2  0  0  0  0  0  0
  -19.3100  -28.6360   23.2230 C   0  0  0  0  0  0  0  0  0  0  0  0
  -19.0500  -29.9080   23.7770 C   0  0  0  0  0  3  0  0  0  0  0  0
  -17.7290  -30.3760   23.9160 C   0  0  0  0  0  3  0  0  0  0  0  0
  -16.6520  -29.5690   23.5130 C   0  0  0  0  0  3  0  0  0  0  0  0
  -16.8970  -28.2970   22.9630 C   0  0  0  0  0  3  0  0  0  0  0  0
  -25.9500  -32.4790   23.6680 C   0  0  0  0  0  3  0  0  0  0  0  0
  -25.5860  -33.8520   24.0420 N   0  0  0  0  0  0  0  0  0  0  0  0
  -25.8750  -34.9400   23.3140 C   0  0  0  0  0  0  0  0  0  0  0  0
  -26.5470  -34.8950   22.2800 O   0  0  0  0  0  0  0  0  0  0  0  0
  -24.9890  -33.9590   24.8490 H   0  0  0  0  0  0  0  0  0  0  0  0
  -24.0790  -36.6740   23.0080 C   0  0  0  0  0  1  0  0  0  0  0  0
  -25.3330  -36.2920   23.8130 C   0  0  0  0  0  3  0  0  0  0  0  0
  -27.4320  -37.2290   24.6770 C   0  0  0  0  0  1  0  0  0  0  0  0
  -26.3240  -37.3880   23.7390 N   0  0  0  0  0  0  0  0  0  0  0  0
  -25.8830  -38.2850   23.9180 H   0  0  0  0  0  0  0  0  0  0  0  0
  -26.5350  -31.6970   24.9080 C   0  0  1  0  0  0  0  0  0  0  0  0
  -25.4770  -31.3480   25.9790 C   0  0  0  0  0  1  0  0  0  0  0  0
  -27.2050  -30.3790   24.4530 C   0  0  0  0  0  1  0  0  0  0  0  0
  -27.6390  -32.5440   25.5860 C   0  0  0  0  0  1  0  0  0  0  0  0
  1  8  1  0
  1 12  2  0
  2  4  1  0
  3  2  1  0
  5  9  1  0
  6  3  1  0
  7  5  1  0
  8 58  1  0
  8  4  1  0
  9 11  1  0
  9 13  1  0
 10  7  1  0
 10  6  1  0
 10 11  1  0
 11  1  1  0
 13 15  2  0
 14 13  1  0
 14 17  1  0
 16 14  1  0
 17 18  1  0
 18 27  1  0
 19 25  1  0
 19 27  1  0
 20 25  1  0
 21 22  1  0
 21 20  1  0
 23 22  1  0
 23 31  1  0
 23 24  1  0
 25 24  1  0
 26 19  2  0
 27 57  1  0
 28 29  2  0
 29 48  1  0
 30 29  1  0
 30 33  1  0
 31 32  1  0
 31 28  1  0
 32 30  2  0
 33 34  1  0
 34 35  2  0
 36 39  1  0
 36 35  1  0
 37 36  2  0
 38 37  1  0
 38 33  2  0
 39 40  1  0
 40 45  2  0
 40 41  1  0
 41 42  2  0
 42 43  1  0
 43 47  1  0
 44 43  2  0
 45 44  1  0
 46 45  1  0
 48 49  1  0
 49 52  1  0
 49 51  1  0
 50 48  2  0
 53 28  1  0
 53 54  1  0
 55 53  1  0
 57 56  1  0
 59 61  1  0
 59 58  1  0
 60 71  2  0
 61 66  1  0
 62 70  1  0
 62 72  1  0
 63 69  1  0
 63 65  1  0
 64 70  1  0
 65 64  1  0
 66 65  2  0
 67 68  1  0
 67 61  2  0
 68 63  2  0
 69 62  1  0
 70 60  1  0
 72 74  2  0
 73 72  1  0
 75 73  1  0
 76 85  2  0
 76 81  1  0
 77 73  1  0
 77 81  1  0
 78 77  1  0
 79 80  1  0
 79 78  1  0
 80 76  1  0
 81 82  2  0
 82 83  1  0
 84 83  2  0
 85 84  1  0
 86 60  1  0
 86 87  1  0
 86 96  1  0
 87 90  1  0
 88 92  1  0
 88 87  1  0
 89 88  2  0
 92 91  1  0
 94 92  1  0
 94 95  1  0
 94 93  1  0
 96 99  1  1
 96 97  1  0
 98 96  1  0
M  ISO  4  19 100  27 100  58 101  59 101
M  END
>  <TORSDO>  (60) 
F 21

>  <SCORE>  (60) 
-11.122

>  <name>  (60) 
60

>  <ligand_id>  (60) 
60

>  <original_smiles>  (60) 
[H]c1c([H])c([H])c2c(c1[H])C([H])([H])C([H])([H])C([H])([H])C2([H])N([H])C(=O)C1([H])N(C(=O)C([H])(N([H])C(=O)C([H])(N([H])C([H])([H])[H])C([H])([H])[H])C(C([H])([H])[H])(C([H])([H])[H])C([H])([H])[H])C([H])([H])c2c([H])c(OC([H])([H])C3([H])C(=O)N4C([H])(C(=O)N([H])C([H])([H])C([H])([H])N(C(=O)N5C([H])([H])C([H])([H])C([H])([H])C([H])(n6nc(-c7c([H])c([H])c(Oc8c([H])c([H])c(F)c([H])c8F)c([H])c7[H])c(C(=O)N([H])[H])c6N([H])[H])C5([H])[H])C([H])([H])C([H])([H])[H])C([H])([H])C([H])([H])C4([H])C([H])([H])C([H])([H])C([H])([H])C3([H])[H])c([H])c([H])c2C1([H])[H]

>  <smiles>  (60) 
[H]c1c([H])c([H])c2c(c1[H])C([H])([H])C([H])([H])C([H])([H])C2([H])N([H])C(=O)C1([H])N(C(=O)C([H])(N([H])C(=O)C([H])(N([H])C([H])([H])[H])C([H])([H])[H])C(C([H])([H])[H])(C([H])([H])[H])C([H])([H])[H])C([H])([H])c2c([H])c(OC([H])([H])C3([H])C(=O)N4C([H])(C(=O)N([H])C([H])([H])C([H])([H])N(C(=O)N5C([H])([H])C([H])([H])C([H])([H])C([H])(n6nc(-c7c([H])c([H])c(Oc8c([H])c([H])c(F)c([H])c8F)c([H])c7[H])c(C(=O)N([H])[H])c6N([H])[H])C5([H])[H])C([H])([H])C([H])([H])[H])C([H])([H])C([H])([H])C4([H])C([H])([H])C([H])([H])C([H])([H])C3([H])[H])c([H])c([H])c2C1([H])[H]

$$$$
61:0:0
     RDKit          3D

 95104  0  0  1  0  0  0  0  0999 V2000
  -29.4620  -21.2530   20.6750 C   0  0  0  0  0  2  0  0  0  0  0  0
  -28.6490  -22.5740   20.2160 C   0  0  0  0  0  2  0  0  0  0  0  0
  -29.4040  -24.1850   17.4640 C   0  0  0  0  0  2  0  0  0  0  0  0
  -30.2540  -23.6050   18.6120 C   0  0  0  0  0  2  0  0  0  0  0  0
  -28.3860  -25.1590   18.0870 C   0  0  0  0  0  2  0  0  0  0  0  0
  -29.4920  -23.9080   19.9280 C   0  0  0  0  0  3  0  0  0  0  0  0
  -28.8630  -25.3420   19.5240 C   0  0  0  0  0  3  0  0  0  0  0  0
  -28.5080  -26.5270   20.3630 O   0  0  0  0  0  0  0  0  0  0  0  0
  -24.6610  -31.9210   23.2050 C   0  0  0  0  0  0  0  0  0  0  0  0
  -27.3740  -27.3540   20.2220 C   0  0  0  0  0  0  0  0  0  0  0  0
  -23.4890  -30.4950   21.5590 C   0  0  0  0  0  3  0  0  0  0  0  0
  -24.9790  -28.9490   20.1650 C   0  0  0  0  0  0  0  0  0  0  0  0
  -26.0270  -30.8430   21.4030 C   0  0  0  0  0  2  0  0  0  0  0  0
  -26.1360  -29.4580   20.7690 C   0  0  0  0  0  0  0  0  0  0  0  0
  -27.3240  -28.6680   20.8010 C   0  0  0  0  0  3  0  0  0  0  0  0
  -26.1860  -26.9010   19.6090 C   0  0  0  0  0  3  0  0  0  0  0  0
  -25.0090  -27.6720   19.5870 C   0  0  0  0  0  3  0  0  0  0  0  0
  -23.7270  -29.8060   20.1890 C   0  0  0  0  0  2  0  0  0  0  0  0
  -24.7420  -31.1050   22.1110 N   0  0  0  0  0  0  0  0  0  0  0  0
  -23.5680  -32.1870   23.7270 O   0  0  0  0  0  0  0  0  0  0  0  0
  -22.8370  -29.4750   22.5220 C   0  0  0  0  0  0  0  0  0  0  0  0
  -21.5120  -29.2840   22.3930 N   0  0  0  0  0  0  0  0  0  0  0  0
  -23.5210  -28.8590   23.3410 O   0  0  0  0  0  0  0  0  0  0  0  0
  -21.0150  -29.8370   21.7090 H   0  0  0  0  0  0  0  0  0  0  0  0
  -18.1470  -28.0820   22.9230 C   0  0  0  0  0  0  0  0  0  0  0  0
  -20.7060  -28.3380   23.1680 C   0  0  0  0  0  3  0  0  0  0  0  0
  -20.8000  -26.9080   22.5830 C   0  0  0  0  0  2  0  0  0  0  0  0
  -19.6890  -26.5930   21.5780 C   0  0  0  0  0  2  0  0  0  0  0  0
  -18.3140  -26.7370   22.2350 C   0  0  0  0  0  2  0  0  0  0  0  0
  -19.2700  -28.8410   23.3470 C   0  0  0  0  0  0  0  0  0  0  0  0
  -19.0580  -30.1000   23.9490 C   0  0  0  0  0  3  0  0  0  0  0  0
  -17.7570  -30.5980   24.1370 C   0  0  0  0  0  3  0  0  0  0  0  0
  -16.6480  -29.8380   23.7270 C   0  0  0  0  0  3  0  0  0  0  0  0
  -16.8440  -28.5830   23.1240 C   0  0  0  0  0  3  0  0  0  0  0  0
  -25.9290  -32.5760   23.8350 C   0  0  0  0  0  3  0  0  0  0  0  0
  -25.5940  -33.9730   24.1520 N   0  0  0  0  0  0  0  0  0  0  0  0
  -25.9270  -35.0250   23.3940 C   0  0  0  0  0  0  0  0  0  0  0  0
  -26.6140  -34.9250   22.3750 O   0  0  0  0  0  0  0  0  0  0  0  0
  -24.9840  -34.1250   24.9420 H   0  0  0  0  0  0  0  0  0  0  0  0
  -24.1880  -36.7990   22.9910 C   0  0  0  0  0  1  0  0  0  0  0  0
  -25.4120  -36.4100   23.8340 C   0  0  0  0  0  3  0  0  0  0  0  0
  -27.5140  -37.3220   24.7200 C   0  0  0  0  0  1  0  0  0  0  0  0
  -26.4360  -37.4740   23.7450 N   0  0  0  0  0  0  0  0  0  0  0  0
  -26.0150  -38.3890   23.8770 H   0  0  0  0  0  0  0  0  0  0  0  0
  -26.4460  -31.8240   25.1230 C   0  0  1  0  0  0  0  0  0  0  0  0
  -25.3440  -31.5730   26.1790 C   0  0  0  0  0  1  0  0  0  0  0  0
  -27.0620  -30.4560   24.7520 C   0  0  0  0  0  1  0  0  0  0  0  0
  -27.5760  -32.6420   25.7880 C   0  0  0  0  0  1  0  0  0  0  0  0
  -29.1120  -19.8170   20.0360 C   0  0  0  0  0  2  0  0  0  0  0  0
  -29.3330  -18.4260   20.8540 C   0  0  0  0  0  3  0  0  0  0  0  0
  -30.8550  -14.7590   20.2270 C   0  0  0  0  0  0  0  0  0  0  0  0
  -30.6920  -12.4110   19.3900 C   0  0  0  0  0  2  0  0  0  0  0  0
  -29.7800  -12.3380   18.1460 C   0  0  0  0  0  2  0  0  0  0  0  0
  -28.3070  -12.1770   18.5710 C   0  0  0  0  0  2  0  0  0  0  0  0
  -27.8800  -13.1610   19.6930 C   0  0  0  0  0  3  0  0  0  0  0  0
  -28.9200  -13.2300   20.8330 C   0  0  0  0  0  2  0  0  0  0  0  0
  -30.2150  -13.5420   20.2200 N   0  0  0  0  0  0  0  0  0  0  0  0
  -32.0800  -14.7990   20.0910 O   0  0  0  0  0  0  0  0  0  0  0  0
  -31.0790  -17.1910   18.1830 C   0  0  0  0  0  2  0  0  0  0  0  0
  -31.4720  -17.8940   19.4710 C   0  0  0  0  0  2  0  0  0  0  0  0
  -29.9440  -16.2290   18.5780 C   0  0  0  0  0  2  0  0  0  0  0  0
  -30.4790  -17.3320   20.4940 C   0  0  0  0  0  3  0  0  0  0  0  0
  -30.1070  -15.9250   20.0120 N   0  0  0  0  0  0  0  0  0  0  0  0
  -25.4920  -13.7470   20.4120 C   0  0  0  0  0  0  0  0  0  0  0  0
  -24.4210  -12.9720   20.7730 C   0  0  0  0  0  0  0  0  0  0  0  0
  -24.8880  -11.6220   20.7560 C   0  0  0  0  0  0  0  0  0  0  0  0
  -26.5380  -12.8670   20.1860 N   0  0  0  0  0  0  0  0  0  0  0  0
  -26.1820  -11.5850   20.4600 N   0  0  0  0  0  0  0  0  0  0  0  0
  -24.1640  -10.3570   20.9440 C   0  0  0  0  0  0  0  0  0  0  0  0
  -24.5540   -9.4250   21.9300 C   0  0  0  0  0  3  0  0  0  0  0  0
  -23.8320   -8.2240   22.1030 C   0  0  0  0  0  3  0  0  0  0  0  0
  -22.7060   -7.9480   21.2920 C   0  0  0  0  0  0  0  0  0  0  0  0
  -22.3370   -8.8690   20.2970 C   0  0  0  0  0  3  0  0  0  0  0  0
  -23.0580  -10.0630   20.1220 C   0  0  0  0  0  3  0  0  0  0  0  0
  -21.9580   -6.7960   21.3740 O   0  0  0  0  0  0  0  0  0  0  0  0
  -21.8030   -6.1220   22.5570 C   0  0  0  0  0  0  0  0  0  0  0  0
  -21.2160   -6.7310   23.6900 C   0  0  0  0  0  3  0  0  0  0  0  0
  -21.0150   -5.9820   24.8650 C   0  0  0  0  0  3  0  0  0  0  0  0
  -21.3810   -4.6230   24.9090 C   0  0  0  0  0  0  0  0  0  0  0  0
  -21.9550   -4.0120   23.7790 C   0  0  0  0  0  3  0  0  0  0  0  0
  -22.1630   -4.7600   22.6070 C   0  0  0  0  0  0  0  0  0  0  0  0
  -22.6990   -4.1620   21.5150 F   0  0  0  0  0  0  0  0  0  0  0  0
  -21.1800   -3.9010   26.0360 F   0  0  0  0  0  0  0  0  0  0  0  0
  -23.0210  -13.4490   21.0190 C   0  0  0  0  0  0  0  0  0  0  0  0
  -22.2860  -12.7560   21.8840 N   0  0  0  0  0  0  0  0  0  0  0  0
  -22.5870  -14.4680   20.4860 O   0  0  0  0  0  0  0  0  0  0  0  0
  -22.6510  -11.9320   22.3330 H   0  0  0  0  0  0  0  0  0  0  0  0
  -21.3440  -13.0560   22.0930 H   0  0  0  0  0  0  0  0  0  0  0  0
  -25.6650  -15.1110   20.2190 N   0  0  0  0  0  0  0  0  0  0  0  0
  -26.4530  -15.3900   19.6500 H   0  0  0  0  0  0  0  0  0  0  0  0
  -24.8250  -15.6360   20.0010 H   0  0  0  0  0  0  0  0  0  0  0  0
  -28.0420  -17.7380   21.0290 N   0  0  0  0  0  4  0  0  0  0  0  0
  -27.6940  -17.3630   20.1640 H   0  0  0  0  0  0  0  0  0  0  0  0
  -27.3560  -18.3760   21.3920 H   0  0  0  0  0  0  0  0  0  0  0  0
  -28.1460  -16.9920   21.6920 H   0  0  0  0  0  0  0  0  0  0  0  0
  2  1  1  0
  3  5  1  0
  3  4  1  0
  4  6  1  0
  5  7  1  0
  6  2  1  0
  7  6  1  0
  7  8  1  0
  9 20  2  0
 10  8  1  0
 10 15  1  0
 11 19  1  0
 11 21  1  0
 12 18  1  0
 12 14  1  0
 13 19  1  0
 14 15  2  0
 14 13  1  0
 16 10  2  0
 17 16  1  0
 17 12  2  0
 18 11  1  0
 19  9  1  0
 21 23  2  0
 22 21  1  0
 24 22  1  0
 25 34  2  0
 25 30  1  0
 26 22  1  0
 26 30  1  0
 27 26  1  0
 28 29  1  0
 28 27  1  0
 29 25  1  0
 30 31  2  0
 31 32  1  0
 33 32  2  0
 34 33  1  0
 35  9  1  0
 35 36  1  0
 35 45  1  0
 36 39  1  0
 37 41  1  0
 37 36  1  0
 38 37  2  0
 41 40  1  0
 43 41  1  0
 43 44  1  0
 43 42  1  0
 45 48  1  1
 45 46  1  0
 47 45  1  0
 49  1  1  0
 50 49  1  0
 50 92  1  0
 52 57  1  0
 53 54  1  0
 53 52  1  0
 55 54  1  0
 55 67  1  0
 55 56  1  0
 57 51  1  0
 57 56  1  0
 58 51  2  0
 59 61  1  0
 59 60  1  0
 60 62  1  0
 61 63  1  0
 62 50  1  0
 63 51  1  0
 63 62  1  0
 64 65  2  0
 65 84  1  0
 66 65  1  0
 66 69  1  0
 67 64  1  0
 67 68  1  0
 68 66  2  0
 69 70  1  0
 70 71  2  0
 72 75  1  0
 72 71  1  0
 73 72  2  0
 74 73  1  0
 74 69  2  0
 75 76  1  0
 76 81  2  0
 76 77  1  0
 77 78  2  0
 78 79  1  0
 79 83  1  0
 80 79  2  0
 81 80  1  0
 82 81  1  0
 84 85  1  0
 85 88  1  0
 85 87  1  0
 86 84  2  0
 89 64  1  0
 90 89  1  0
 91 89  1  0
 92 94  1  0
 92 95  1  0
 93 92  1  0
M  ISO  4   7 101   8 101  51 100  63 100
M  END
>  <TORSDO>  (61) 
F 21

>  <SCORE>  (61) 
-12.791

>  <name>  (61) 
61

>  <ligand_id>  (61) 
61

>  <original_smiles>  (61) 
[H]c1c([H])c([H])c2c(c1[H])C([H])([H])C([H])([H])C([H])([H])C2([H])N([H])C(=O)C1([H])N(C(=O)C([H])(N([H])C(=O)C([H])(N([H])C([H])([H])[H])C([H])([H])[H])C(C([H])([H])[H])(C([H])([H])[H])C([H])([H])[H])C([H])([H])c2c([H])c(OC3([H])C([H])([H])C([H])([H])C([H])([H])C3([H])C([H])([H])C([H])([H])C([H])([H])C([H])(C3([H])N(C(=O)N4C([H])([H])C([H])([H])C([H])([H])C([H])(n5nc(-c6c([H])c([H])c(Oc7c([H])c([H])c(F)c([H])c7F)c([H])c6[H])c(C(=O)N([H])[H])c5N([H])[H])C4([H])[H])C([H])([H])C([H])([H])C3([H])[H])[N+]([H])([H])[H])c([H])c([H])c2C1([H])[H]

>  <smiles>  (61) 
[H]c1c([H])c([H])c2c(c1[H])C([H])([H])C([H])([H])C([H])([H])C2([H])N([H])C(=O)C1([H])N(C(=O)C([H])(N([H])C(=O)C([H])(N([H])C([H])([H])[H])C([H])([H])[H])C(C([H])([H])[H])(C([H])([H])[H])C([H])([H])[H])C([H])([H])c2c([H])c(OC3([H])C([H])([H])C([H])([H])C([H])([H])C3([H])C([H])([H])C([H])([H])C([H])([H])C([H])(C3([H])N(C(=O)N4C([H])([H])C([H])([H])C([H])([H])C([H])(n5nc(-c6c([H])c([H])c(Oc7c([H])c([H])c(F)c([H])c7F)c([H])c6[H])c(C(=O)N([H])[H])c5N([H])[H])C4([H])[H])C([H])([H])C([H])([H])C3([H])[H])[N+]([H])([H])[H])c([H])c([H])c2C1([H])[H]

$$$$
62:0:0
     RDKit          3D

 96 97  0  0  1  0  0  0  0  0999 V2000
  -28.8810  -15.9700   21.1570 C   0  0  0  0  0  0  0  0  0  0  0  0
  -27.1990  -12.0550   17.8830 C   0  0  0  0  0 15  0  0  0  0  0  0
  -28.0400  -11.4520   19.9070 C   0  0  0  0  0 15  0  0  0  0  0  0
  -27.0880  -14.1810   17.5600 C   0  0  0  0  0 15  0  0  0  0  0  0
  -28.1340  -13.1850   21.3540 C   0  0  0  0  0 15  0  0  0  0  0  0
  -27.5210  -15.7080   18.9150 C   0  0  0  0  0 15  0  0  0  0  0  0
  -28.0610  -15.0200   20.6290 N   0  0  0  0  0  1  0  0  0  0  0  0
  -28.5570  -17.1570   21.1090 O   0  0  0  0  0  0  0  0  0  0  0  0
  -31.6160  -14.4960   19.6600 C   0  0  0  0  0  0  0  0  0  0  0  0
  -31.6110  -12.0790   18.9800 C   0  0  0  0  0  2  0  0  0  0  0  0
  -30.7230  -12.0810   17.7730 C   0  0  0  0  0  2  0  0  0  0  0  0
  -29.3160  -12.1750   18.1770 C   0  0  0  0  0  2  0  0  0  0  0  0
  -28.6500  -13.2290   19.3090 C   0  0  0  0  0  2  0  0  0  0  0  0
  -29.9840  -12.8950   20.2930 C   0  0  0  0  0  2  0  0  0  0  0  0
  -31.1930  -13.2250   19.7790 N   0  0  0  0  0  0  0  0  0  0  0  0
  -32.4180  -14.7130   18.7610 O   0  0  0  0  0  0  0  0  0  0  0  0
  -31.7110  -17.6250   21.6560 C   0  0  0  0  0  2  0  0  0  0  0  0
  -30.8670  -16.7740   22.5810 C   0  0  0  0  0  2  0  0  0  0  0  0
  -32.2350  -16.6360   20.6200 C   0  0  0  0  0  2  0  0  0  0  0  0
  -30.3050  -15.6330   21.7070 C   0  0  0  0  0  3  0  0  0  0  0  0
  -31.3520  -15.4550   20.6250 N   0  0  0  0  0  0  0  0  0  0  0  0
  -25.4960  -13.8510   20.8380 C   0  0  2  0  0  0  0  0  0  0  0  0
  -24.6040  -12.9290   21.3450 C   0  0  0  0  0  3  0  0  0  0  0  0
  -25.0260  -11.6320   21.0950 C   0  0  0  0  0  3  0  0  0  0  0  0
  -26.4460  -13.2460   20.0380 N   0  0  0  0  0  2  0  0  0  0  0  0
  -25.4740  -12.1180   20.0120 N   0  0  0  0  0  0  0  0  0  0  0  0
  -24.4360  -10.2460   21.1730 C   0  0  0  0  0  0  0  0  0  0  0  0
  -24.8900   -9.2510   22.0840 C   0  0  0  0  0  3  0  0  0  0  0  0
  -24.1920   -8.0230   22.2480 C   0  0  0  0  0  3  0  0  0  0  0  0
  -23.0200   -7.7620   21.4950 C   0  0  0  0  0  0  0  0  0  0  0  0
  -22.6250   -8.7080   20.5330 C   0  0  0  0  0  3  0  0  0  0  0  0
  -23.3270   -9.9180   20.3650 C   0  0  0  0  0  3  0  0  0  0  0  0
  -22.2540   -6.6190   21.5940 O   0  0  0  0  0  0  0  0  0  0  0  0
  -22.0490   -5.9610   22.7840 C   0  0  0  0  0  0  0  0  0  0  0  0
  -21.4750   -6.5970   23.9080 C   0  0  0  0  0  3  0  0  0  0  0  0
  -21.2280   -5.8640   25.0860 C   0  0  0  0  0  3  0  0  0  0  0  0
  -21.5410   -4.4910   25.1450 C   0  0  0  0  0  0  0  0  0  0  0  0
  -22.1000   -3.8520   24.0230 C   0  0  0  0  0  3  0  0  0  0  0  0
  -22.3450   -4.5830   22.8460 C   0  0  0  0  0  0  0  0  0  0  0  0
  -22.8590   -3.9510   21.7630 F   0  0  0  0  0  0  0  0  0  0  0  0
  -21.3070   -3.7860   26.2760 F   0  0  0  0  0  0  0  0  0  0  0  0
  -23.2240  -13.2760   21.6670 C   0  0  0  0  0  0  0  0  0  0  0  0
  -22.6220  -12.5250   22.5690 N   0  0  0  0  0  0  0  0  0  0  0  0
  -22.6940  -14.2330   21.1070 O   0  0  0  0  0  0  0  0  0  0  0  0
  -23.1040  -11.7600   23.0180 H   0  0  0  0  0  0  0  0  0  0  0  0
  -21.6680  -12.7240   22.8320 H   0  0  0  0  0  0  0  0  0  0  0  0
  -25.3840  -15.1820   21.0120 N   0  0  0  0  0  0  0  0  0  0  0  0
  -24.4450  -15.4760   21.2650 H   0  0  0  0  0  0  0  0  0  0  0  0
  -25.7460  -15.7360   20.2530 H   0  0  0  0  0  0  0  0  0  0  0  0
  -27.8970  -17.6430   18.3810 C   0  0  0  0  0  1  0  0  0  0  0  0
  -27.2850  -19.3540   18.5520 N   0  0  0  0  0  4  0  0  0  0  0  0
  -26.9680  -19.3650   19.5080 H   0  0  0  0  0  0  0  0  0  0  0  0
  -26.4370  -19.3340   18.0070 H   0  0  0  0  0  0  0  0  0  0  0  0
  -27.8790  -21.0680   18.3160 C   0  0  0  0  0  1  0  0  0  0  0  0
  -27.3150  -22.9950   18.5730 C   0  0  0  0  0  1  0  0  0  0  0  0
  -27.8590  -24.7450   18.6780 O   0  0  0  0  0  0  0  0  0  0  0  0
  -25.0370  -30.9570   22.6320 C   0  0  0  0  0  0  0  0  0  0  0  0
  -27.1190  -26.1200   18.8710 C   0  0  0  0  0  0  0  0  0  0  0  0
  -23.7480  -29.7930   20.9070 C   0  0  0  0  0  3  0  0  0  0  0  0
  -25.0560  -28.3290   19.2020 C   0  0  0  0  0  0  0  0  0  0  0  0
  -26.3240  -29.8600   20.6740 C   0  0  0  0  0  2  0  0  0  0  0  0
  -26.2940  -28.5150   19.8260 C   0  0  0  0  0  0  0  0  0  0  0  0
  -27.3250  -27.4370   19.6320 C   0  0  0  0  0  3  0  0  0  0  0  0
  -25.8910  -26.2140   18.1980 C   0  0  0  0  0  3  0  0  0  0  0  0
  -24.9050  -27.2200   18.3610 C   0  0  0  0  0  3  0  0  0  0  0  0
  -23.8990  -29.3060   19.4420 C   0  0  0  0  0  2  0  0  0  0  0  0
  -25.0680  -30.2350   21.4570 N   0  0  0  0  0  0  0  0  0  0  0  0
  -23.9710  -31.2010   23.2270 O   0  0  0  0  0  0  0  0  0  0  0  0
  -23.0740  -28.6930   21.7730 C   0  0  0  0  0  0  0  0  0  0  0  0
  -21.7350  -28.5630   21.7040 N   0  0  0  0  0  0  0  0  0  0  0  0
  -23.7670  -27.9630   22.4850 O   0  0  0  0  0  0  0  0  0  0  0  0
  -21.2250  -29.2060   21.1160 H   0  0  0  0  0  0  0  0  0  0  0  0
  -18.3710  -27.2840   22.2130 C   0  0  0  0  0  0  0  0  0  0  0  0
  -20.9410  -27.5390   22.3950 C   0  0  0  0  0  3  0  0  0  0  0  0
  -21.0190  -26.1820   21.6550 C   0  0  0  0  0  2  0  0  0  0  0  0
  -19.8760  -25.9740   20.6560 C   0  0  0  0  0  2  0  0  0  0  0  0
  -18.5230  -26.0290   21.3710 C   0  0  0  0  0  2  0  0  0  0  0  0
  -19.5050  -28.0020   22.6800 C   0  0  0  0  0  0  0  0  0  0  0  0
  -19.3060  -29.1770   23.4370 C   0  0  0  0  0  3  0  0  0  0  0  0
  -18.0060  -29.6370   23.7240 C   0  0  0  0  0  3  0  0  0  0  0  0
  -16.8890  -28.9170   23.2680 C   0  0  0  0  0  3  0  0  0  0  0  0
  -17.0720  -27.7420   22.5200 C   0  0  0  0  0  3  0  0  0  0  0  0
  -26.3310  -31.5250   23.2850 C   0  0  0  0  0  3  0  0  0  0  0  0
  -26.9440  -30.5610   24.3760 C   0  0  1  0  0  0  0  0  0  0  0  0
  -25.9310  -30.1130   25.4570 C   0  0  0  0  0  1  0  0  0  0  0  0
  -27.5230  -29.2830   23.7290 C   0  0  0  0  0  1  0  0  0  0  0  0
  -28.1250  -31.2600   25.0890 C   0  0  0  0  0  1  0  0  0  0  0  0
  -26.0030  -32.8260   23.9040 N   0  0  0  0  0  0  0  0  0  0  0  0
  -26.3160  -34.0270   23.3980 C   0  0  0  0  0  0  0  0  0  0  0  0
  -26.9670  -34.1590   22.3600 O   0  0  0  0  0  0  0  0  0  0  0  0
  -25.4190  -32.7950   24.7270 H   0  0  0  0  0  0  0  0  0  0  0  0
  -24.5830  -35.8580   23.4810 C   0  0  0  0  0  1  0  0  0  0  0  0
  -25.8350  -35.2820   24.1620 C   0  0  0  0  0  3  0  0  0  0  0  0
  -27.9770  -35.9780   25.1450 C   0  0  0  0  0  1  0  0  0  0  0  0
  -26.8650  -36.3400   24.2710 N   0  0  0  0  0  0  0  0  0  0  0  0
  -26.4580  -37.2050   24.6190 H   0  0  0  0  0  0  0  0  0  0  0  0
  7  1  1  0
  8  1  2  0
  9 15  1  0
  9 21  1  0
 10 15  1  0
 11 12  1  0
 11 10  1  0
 12 13  1  0
 13 14  1  0
 15 14  1  0
 16  9  2  0
 17 18  1  0
 19 21  1  0
 19 17  1  0
 20  1  1  0
 20 18  1  0
 21 20  1  0
 22 47  1  1
 22 23  1  0
 23 42  1  0
 24 27  1  0
 24 23  1  0
 25 22  1  0
 26 25  1  0
 26 22  1  0
 26 24  1  0
 27 28  1  0
 28 29  2  0
 30 33  1  0
 30 29  1  0
 31 30  2  0
 32 31  1  0
 32 27  2  0
 33 34  1  0
 34 39  2  0
 34 35  1  0
 35 36  2  0
 36 37  1  0
 37 41  1  0
 38 37  2  0
 39 38  1  0
 40 39  1  0
 42 43  1  0
 43 46  1  0
 43 45  1  0
 44 42  2  0
 47 48  1  0
 49 47  1  0
 50 51  1  0
 51 52  1  0
 53 51  1  0
 54 51  1  0
 55 56  1  0
 56 58  1  0
 57 68  2  0
 58 63  1  0
 59 67  1  0
 59 69  1  0
 60 66  1  0
 60 62  1  0
 61 67  1  0
 62 61  1  0
 63 62  2  0
 64 65  1  0
 64 58  2  0
 65 60  2  0
 66 59  1  0
 67 57  1  0
 69 71  2  0
 70 69  1  0
 72 70  1  0
 73 82  2  0
 73 78  1  0
 74 70  1  0
 74 78  1  0
 75 74  1  0
 76 77  1  0
 76 75  1  0
 77 73  1  0
 78 79  2  0
 79 80  1  0
 81 80  2  0
 82 81  1  0
 83 57  1  0
 83 88  1  0
 83 84  1  0
 84 87  1  1
 84 85  1  0
 86 84  1  0
 88 91  1  0
 89 88  1  0
 89 93  1  0
 90 89  2  0
 93 92  1  0
 93 95  1  0
 95 96  1  0
 95 94  1  0
M  ISO  4   9 100  21 100  55 101  56 101
M  END
>  <TORSDO>  (62) 
F 20

>  <SCORE>  (62) 
-9.143

>  <name>  (62) 
62

>  <ligand_id>  (62) 
62

>  <original_smiles>  (62) 
[H]c1c([H])c([H])c2c(c1[H])C([H])([H])C([H])([H])C([H])([H])C2([H])N([H])C(=O)C1([H])N(C(=O)C([H])(N([H])C(=O)C([H])(N([H])C([H])([H])[H])C([H])([H])[H])C(C([H])([H])[H])(C([H])([H])[H])C([H])([H])[H])C([H])([H])c2c([H])c(OC([H])([H])C([H])([H])[N+]([H])([H])C([H])([H])C3([H])N(C(=O)C4([H])N(C(=O)N5C([H])([H])C([H])([H])C([H])([H])C([H])(n6nc(-c7c([H])c([H])c(Oc8c([H])c([H])c(F)c([H])c8F)c([H])c7[H])c(C(=O)N([H])[H])c6N([H])[H])C5([H])[H])C([H])([H])C([H])([H])C4([H])[H])C([H])([H])C([H])([H])C([H])([H])C3([H])[H])c([H])c([H])c2C1([H])[H]

>  <smiles>  (62) 
[H]c1c([H])c([H])c2c(c1[H])C([H])([H])C([H])([H])C([H])([H])C2([H])N([H])C(=O)C1([H])N(C(=O)C([H])(N([H])C(=O)C([H])(N([H])C([H])([H])[H])C([H])([H])[H])C(C([H])([H])[H])(C([H])([H])[H])C([H])([H])[H])C([H])([H])c2c([H])c(OC([H])([H])C([H])([H])[N+]([H])([H])C([H])([H])C3([H])N(C(=O)C4([H])N(C(=O)N5C([H])([H])C([H])([H])C([H])([H])C([H])(n6nc(-c7c([H])c([H])c(Oc8c([H])c([H])c(F)c([H])c8F)c([H])c7[H])c(C(=O)N([H])[H])c6N([H])[H])C5([H])[H])C([H])([H])C([H])([H])C4([H])[H])C([H])([H])C([H])([H])C([H])([H])C3([H])[H])c([H])c([H])c2C1([H])[H]

$$$$
63:0:0
     RDKit          3D

 94103  0  0  1  0  0  0  0  0999 V2000
  -28.4200  -23.3030   20.0230 C   0  0  0  0  0  3  0  0  0  0  0  0
  -30.6860  -16.2240   20.6200 C   0  0  0  0  0  0  0  0  0  0  0  0
  -30.9050  -13.6850   20.0300 C   0  0  0  0  0  2  0  0  0  0  0  0
  -30.1640  -13.2590   18.7380 C   0  0  0  0  0  2  0  0  0  0  0  0
  -28.6880  -12.9370   19.0320 C   0  0  0  0  0  2  0  0  0  0  0  0
  -28.0470  -13.9740   19.9880 C   0  0  0  0  0  3  0  0  0  0  0  0
  -28.9420  -14.3250   21.1960 C   0  0  0  0  0  2  0  0  0  0  0  0
  -30.1900  -14.8760   20.6390 N   0  0  0  0  0  0  0  0  0  0  0  0
  -31.9260  -16.2320   20.5290 O   0  0  0  0  0  0  0  0  0  0  0  0
  -30.6340  -20.6250   17.9670 C   0  0  0  0  0  2  0  0  0  0  0  0
  -30.3960  -19.1760   18.4960 C   0  0  0  0  0  2  0  0  0  0  0  0
  -27.9460  -19.2050   20.2870 C   0  0  0  0  0  2  0  0  0  0  0  0
  -28.4890  -17.7790   20.8060 C   0  0  0  0  0  2  0  0  0  0  0  0
  -30.2510  -21.8530   18.8570 C   0  0  0  0  0  2  0  0  0  0  0  0
  -30.2120  -19.0610   20.0240 C   0  0  0  0  0  3  0  0  0  0  0  0
  -29.0660  -20.2910   20.3690 C   0  0  0  0  0  3  0  0  0  0  0  0
  -29.9070  -17.5120   20.4550 N   0  0  0  0  0  0  0  0  0  0  0  0
  -28.9330  -21.7490   19.5370 N   0  0  1  0  0  4  0  0  0  0  0  0
  -28.2920  -21.5310   18.7910 H   0  0  0  0  0  0  0  0  0  0  0  0
  -25.6080  -14.4720   20.5430 C   0  0  0  0  0  0  0  0  0  0  0  0
  -24.5370  -13.6710   20.8150 C   0  0  0  0  0  0  0  0  0  0  0  0
  -25.0310  -12.3320   20.8000 C   0  0  0  0  0  0  0  0  0  0  0  0
  -26.6880  -13.6220   20.3790 N   0  0  0  0  0  0  0  0  0  0  0  0
  -26.3460  -12.3250   20.5990 N   0  0  0  0  0  0  0  0  0  0  0  0
  -24.3120  -11.0560   20.9020 C   0  0  0  0  0  0  0  0  0  0  0  0
  -24.7040  -10.0590   21.8210 C   0  0  0  0  0  3  0  0  0  0  0  0
  -23.9810   -8.8490   21.9150 C   0  0  0  0  0  3  0  0  0  0  0  0
  -22.8520   -8.6300   21.0910 C   0  0  0  0  0  0  0  0  0  0  0  0
  -22.4790   -9.6180   20.1620 C   0  0  0  0  0  3  0  0  0  0  0  0
  -23.2030  -10.8190   20.0650 C   0  0  0  0  0  3  0  0  0  0  0  0
  -22.1040   -7.4790   21.0970 O   0  0  0  0  0  0  0  0  0  0  0  0
  -22.0330   -6.6730   22.2040 C   0  0  0  0  0  0  0  0  0  0  0  0
  -21.5710   -7.1530   23.4480 C   0  0  0  0  0  3  0  0  0  0  0  0
  -21.4490   -6.2730   24.5420 C   0  0  0  0  0  3  0  0  0  0  0  0
  -21.7780   -4.9130   24.3910 C   0  0  0  0  0  0  0  0  0  0  0  0
  -22.2340   -4.4310   23.1500 C   0  0  0  0  0  3  0  0  0  0  0  0
  -22.3560   -5.3080   22.0590 C   0  0  0  0  0  0  0  0  0  0  0  0
  -22.7780   -4.8340   20.8610 F   0  0  0  0  0  0  0  0  0  0  0  0
  -21.6530   -4.0650   25.4390 F   0  0  0  0  0  0  0  0  0  0  0  0
  -23.1140  -14.1240   20.9650 C   0  0  0  0  0  0  0  0  0  0  0  0
  -22.3340  -13.4320   21.7830 N   0  0  0  0  0  0  0  0  0  0  0  0
  -22.7030  -15.1340   20.3930 O   0  0  0  0  0  0  0  0  0  0  0  0
  -22.6800  -12.6200   22.2740 H   0  0  0  0  0  0  0  0  0  0  0  0
  -21.3720  -13.7180   21.9180 H   0  0  0  0  0  0  0  0  0  0  0  0
  -25.7340  -15.8450   20.3810 N   0  0  0  0  0  0  0  0  0  0  0  0
  -24.9230  -16.4530   20.4000 H   0  0  0  0  0  0  0  0  0  0  0  0
  -26.5610  -16.2940   20.0190 H   0  0  0  0  0  0  0  0  0  0  0  0
  -26.9580  -23.5850   19.5840 C   0  0  0  0  0  2  0  0  0  0  0  0
  -25.8010  -23.3530   20.5710 C   0  0  0  0  0  2  0  0  0  0  0  0
  -24.5300  -24.1240   20.1610 C   0  0  0  0  0  2  0  0  0  0  0  0
  -21.9580  -24.1880   20.2320 C   0  0  0  0  0  1  0  0  0  0  0  0
  -23.2360  -23.4380   20.6340 C   0  0  0  0  0  2  0  0  0  0  0  0
  -29.1640  -24.9460   19.7080 C   0  0  0  0  0  2  0  0  0  0  0  0
  -29.0190  -26.5030   20.3100 O   0  0  0  0  0  0  0  0  0  0  0  0
  -24.9460  -32.0240   23.4980 C   0  0  0  0  0  0  0  0  0  0  0  0
  -27.9500  -27.5570   20.2280 C   0  0  0  0  0  0  0  0  0  0  0  0
  -23.9320  -30.7140   21.6760 C   0  0  0  0  0  3  0  0  0  0  0  0
  -25.5500  -29.3250   20.2030 C   0  0  0  0  0  0  0  0  0  0  0  0
  -26.4870  -31.0740   21.7040 C   0  0  0  0  0  2  0  0  0  0  0  0
  -26.6730  -29.7300   20.9310 C   0  0  0  0  0  0  0  0  0  0  0  0
  -27.8640  -28.8660   20.9250 C   0  0  0  0  0  3  0  0  0  0  0  0
  -26.7890  -27.3160   19.4560 C   0  0  0  0  0  3  0  0  0  0  0  0
  -25.6330  -28.1430   19.4490 C   0  0  0  0  0  3  0  0  0  0  0  0
  -24.2770  -30.1730   20.2610 C   0  0  0  0  0  2  0  0  0  0  0  0
  -25.1380  -31.2990   22.3480 N   0  0  0  0  0  0  0  0  0  0  0  0
  -23.8140  -32.2000   23.9780 O   0  0  0  0  0  0  0  0  0  0  0  0
  -23.2480  -29.5990   22.5110 C   0  0  0  0  0  0  0  0  0  0  0  0
  -21.9310  -29.3950   22.3200 N   0  0  0  0  0  0  0  0  0  0  0  0
  -23.9110  -28.9220   23.3000 O   0  0  0  0  0  0  0  0  0  0  0  0
  -21.4490  -29.9950   21.6660 H   0  0  0  0  0  0  0  0  0  0  0  0
  -18.5630  -28.0940   22.6790 C   0  0  0  0  0  0  0  0  0  0  0  0
  -21.1220  -28.3520   22.9590 C   0  0  0  0  0  3  0  0  0  0  0  0
  -21.2360  -27.0140   22.1930 C   0  0  0  0  0  2  0  0  0  0  0  0
  -20.1290  -26.8220   21.1520 C   0  0  0  0  0  2  0  0  0  0  0  0
  -18.7500  -26.8560   21.8160 C   0  0  0  0  0  2  0  0  0  0  0  0
  -19.6760  -28.8060   23.2010 C   0  0  0  0  0  0  0  0  0  0  0  0
  -19.4430  -29.9690   23.9670 C   0  0  0  0  0  3  0  0  0  0  0  0
  -18.1310  -30.4160   24.2180 C   0  0  0  0  0  3  0  0  0  0  0  0
  -17.0340  -29.6980   23.7100 C   0  0  0  0  0  3  0  0  0  0  0  0
  -17.2520  -28.5380   22.9450 C   0  0  0  0  0  3  0  0  0  0  0  0
  -26.1370  -32.6790   24.2610 C   0  0  0  0  0  3  0  0  0  0  0  0
  -25.7570  -34.0640   24.5910 N   0  0  0  0  0  0  0  0  0  0  0  0
  -26.1440  -35.1520   23.9120 C   0  0  0  0  0  0  0  0  0  0  0  0
  -26.9150  -35.0940   22.9510 O   0  0  0  0  0  0  0  0  0  0  0  0
  -25.0870  -34.1770   25.3370 H   0  0  0  0  0  0  0  0  0  0  0  0
  -24.4210  -36.9300   23.4500 C   0  0  0  0  0  1  0  0  0  0  0  0
  -25.5860  -36.5170   24.3630 C   0  0  0  0  0  3  0  0  0  0  0  0
  -27.6150  -37.4140   25.4180 C   0  0  0  0  0  1  0  0  0  0  0  0
  -26.6020  -37.5930   24.3820 N   0  0  0  0  0  0  0  0  0  0  0  0
  -26.1610  -38.4980   24.5230 H   0  0  0  0  0  0  0  0  0  0  0  0
  -26.5340  -31.9000   25.5750 C   0  0  1  0  0  0  0  0  0  0  0  0
  -25.3450  -31.6330   26.5260 C   0  0  0  0  0  1  0  0  0  0  0  0
  -27.1800  -30.5370   25.2380 C   0  0  0  0  0  1  0  0  0  0  0  0
  -27.5960  -32.7050   26.3570 C   0  0  0  0  0  1  0  0  0  0  0  0
  1 48  1  0
  2  8  1  0
  3  8  1  0
  4  5  1  0
  4  3  1  0
  6  5  1  0
  6 23  1  0
  6  7  1  0
  8  7  1  0
  9  2  2  0
 10 11  1  0
 10 14  1  0
 12 13  1  0
 14 18  1  0
 15 11  1  0
 15 16  1  0
 15 17  1  0
 16 12  1  0
 17  2  1  0
 17 13  1  0
 18  1  1  0
 18 16  1  0
 18 19  1  6
 20 21  2  0
 21 40  1  0
 22 21  1  0
 22 25  1  0
 23 20  1  0
 23 24  1  0
 24 22  2  0
 25 26  1  0
 26 27  2  0
 28 31  1  0
 28 27  1  0
 29 28  2  0
 30 29  1  0
 30 25  2  0
 31 32  1  0
 32 33  1  0
 33 34  2  0
 35 34  1  0
 35 39  1  0
 36 35  2  0
 37 32  2  0
 37 36  1  0
 38 37  1  0
 40 41  1  0
 41 44  1  0
 41 43  1  0
 42 40  2  0
 45 46  1  0
 45 20  1  0
 47 45  1  0
 48 49  1  0
 50 49  1  0
 50 52  1  0
 51 52  1  0
 53  1  1  0
 53 54  1  0
 55 66  2  0
 56 54  1  0
 56 61  1  0
 57 65  1  0
 57 67  1  0
 58 64  1  0
 58 60  1  0
 59 65  1  0
 60 59  1  0
 61 60  2  0
 62 56  2  0
 63 62  1  0
 63 58  2  0
 64 57  1  0
 65 55  1  0
 67 69  2  0
 68 67  1  0
 70 68  1  0
 71 80  2  0
 71 76  1  0
 72 68  1  0
 72 76  1  0
 73 72  1  0
 74 75  1  0
 74 73  1  0
 75 71  1  0
 76 77  2  0
 77 78  1  0
 79 78  2  0
 80 79  1  0
 81 55  1  0
 81 82  1  0
 81 91  1  0
 82 85  1  0
 83 87  1  0
 83 82  1  0
 84 83  2  0
 87 86  1  0
 87 89  1  0
 89 90  1  0
 89 88  1  0
 91 94  1  1
 91 92  1  0
 93 91  1  0
M  ISO  4   2 100  17 100  53 101  54 101
M  END
>  <TORSDO>  (63) 
F 21

>  <SCORE>  (63) 
-13.334

>  <name>  (63) 
63

>  <ligand_id>  (63) 
63

>  <original_smiles>  (63) 
[H]c1c([H])c([H])c2c(c1[H])C([H])([H])C([H])([H])C([H])([H])C2([H])N([H])C(=O)C1([H])N(C(=O)C([H])(N([H])C(=O)C([H])(N([H])C([H])([H])[H])C([H])([H])[H])C(C([H])([H])[H])(C([H])([H])[H])C([H])([H])[H])C([H])([H])c2c([H])c(OC([H])([H])C([H])(C([H])([H])C([H])([H])C([H])([H])C([H])([H])C([H])([H])[H])[N+]3([H])C([H])([H])C([H])([H])C([H])([H])C4([H])N(C(=O)N5C([H])([H])C([H])([H])C([H])([H])C([H])(n6nc(-c7c([H])c([H])c(Oc8c([H])c([H])c(F)c([H])c8F)c([H])c7[H])c(C(=O)N([H])[H])c6N([H])[H])C5([H])[H])C([H])([H])C([H])([H])C43[H])c([H])c([H])c2C1([H])[H]

>  <smiles>  (63) 
[H]c1c([H])c([H])c2c(c1[H])C([H])([H])C([H])([H])C([H])([H])C2([H])N([H])C(=O)C1([H])N(C(=O)C([H])(N([H])C(=O)C([H])(N([H])C([H])([H])[H])C([H])([H])[H])C(C([H])([H])[H])(C([H])([H])[H])C([H])([H])[H])C([H])([H])c2c([H])c(OC([H])([H])C([H])(C([H])([H])C([H])([H])C([H])([H])C([H])([H])C([H])([H])[H])[N+]3([H])C([H])([H])C([H])([H])C([H])([H])C4([H])N(C(=O)N5C([H])([H])C([H])([H])C([H])([H])C([H])(n6nc(-c7c([H])c([H])c(Oc8c([H])c([H])c(F)c([H])c8F)c([H])c7[H])c(C(=O)N([H])[H])c6N([H])[H])C5([H])[H])C([H])([H])C([H])([H])C43[H])c([H])c([H])c2C1([H])[H]

$$$$
64:0:0
     RDKit          3D

102110  0  0  1  0  0  0  0  0999 V2000
  -33.0360  -20.7560   21.1680 C   0  0  0  0  0  2  0  0  0  0  0  0
  -31.3210  -18.9690   20.9730 C   0  0  0  0  0  2  0  0  0  0  0  0
  -31.9450  -21.8230   21.3700 C   0  0  0  0  0  2  0  0  0  0  0  0
  -30.1950  -19.9980   21.1770 C   0  0  0  0  0  2  0  0  0  0  0  0
  -32.5120  -19.6260   20.2680 C   0  0  0  0  0  3  0  0  0  0  0  0
  -30.6110  -21.2740   21.9690 C   0  0  2  0  0  0  0  0  0  0  0  0
  -33.6230  -18.6340   19.8540 C   0  0  0  0  0  2  0  0  0  0  0  0
  -33.4830  -17.9000   17.6010 C   0  0  0  0  0  0  0  0  0  0  0  0
  -33.0700  -17.9160   15.1860 C   0  0  0  0  0  2  0  0  0  0  0  0
  -34.1660  -18.7540   14.4990 C   0  0  0  0  0  2  0  0  0  0  0  0
  -33.7670  -20.2420   14.4580 C   0  0  0  0  0  2  0  0  0  0  0  0
  -33.2780  -20.7760   15.8290 C   0  0  0  0  0  3  0  0  0  0  0  0
  -32.2730  -19.8110   16.4930 C   0  0  0  0  0  2  0  0  0  0  0  0
  -32.8830  -18.4770   16.5300 N   0  0  0  0  0  0  0  0  0  0  0  0
  -33.7750  -16.6980   17.6350 O   0  0  0  0  0  0  0  0  0  0  0  0
  -34.1080  -18.7440   18.4580 N   0  0  0  0  0  0  0  0  0  0  0  0
  -33.0300  -23.2540   16.4930 C   0  0  0  0  0  0  0  0  0  0  0  0
  -32.3320  -24.2850   15.9250 C   0  0  0  0  0  0  0  0  0  0  0  0
  -31.6480  -23.7260   14.8030 C   0  0  0  0  0  0  0  0  0  0  0  0
  -32.7480  -22.1340   15.7240 N   0  0  0  0  0  0  0  0  0  0  0  0
  -31.8630  -22.4190   14.7360 N   0  0  0  0  0  0  0  0  0  0  0  0
  -30.8450  -24.3650   13.7530 C   0  0  0  0  0  0  0  0  0  0  0  0
  -29.4370  -24.2550   13.7320 C   0  0  0  0  0  3  0  0  0  0  0  0
  -28.6850  -24.8960   12.7250 C   0  0  0  0  0  3  0  0  0  0  0  0
  -29.3380  -25.6560   11.7260 C   0  0  0  0  0  0  0  0  0  0  0  0
  -30.7410  -25.7420   11.7380 C   0  0  0  0  0  3  0  0  0  0  0  0
  -31.4900  -25.0990   12.7380 C   0  0  0  0  0  3  0  0  0  0  0  0
  -28.6910  -26.2860   10.6900 O   0  0  0  0  0  0  0  0  0  0  0  0
  -27.5620  -27.0370   10.8970 C   0  0  0  0  0  0  0  0  0  0  0  0
  -27.6010  -28.2660   11.5900 C   0  0  0  0  0  3  0  0  0  0  0  0
  -26.4290  -29.0380   11.7220 C   0  0  0  0  0  3  0  0  0  0  0  0
  -25.2210  -28.5880   11.1550 C   0  0  0  0  0  0  0  0  0  0  0  0
  -25.1820  -27.3660   10.4610 C   0  0  0  0  0  3  0  0  0  0  0  0
  -26.3500  -26.5940   10.3300 C   0  0  0  0  0  0  0  0  0  0  0  0
  -26.3110  -25.4270    9.6430 F   0  0  0  0  0  0  0  0  0  0  0  0
  -24.0970  -29.3330   11.2740 F   0  0  0  0  0  0  0  0  0  0  0  0
  -32.3720  -25.7300   16.3370 C   0  0  0  0  0  0  0  0  0  0  0  0
  -31.2170  -26.3840   16.4000 N   0  0  0  0  0  0  0  0  0  0  0  0
  -33.4290  -26.2750   16.6520 O   0  0  0  0  0  0  0  0  0  0  0  0
  -30.3470  -25.9280   16.1670 H   0  0  0  0  0  0  0  0  0  0  0  0
  -31.2040  -27.3520   16.6880 H   0  0  0  0  0  0  0  0  0  0  0  0
  -33.8930  -23.1790   17.5800 N   0  0  0  0  0  0  0  0  0  0  0  0
  -34.1520  -23.9870   18.1350 H   0  0  0  0  0  0  0  0  0  0  0  0
  -34.3650  -22.3320   17.8640 H   0  0  0  0  0  0  0  0  0  0  0  0
  -35.5880  -18.7050   18.3070 C   0  0  0  0  0  2  0  0  0  0  0  0
  -37.8230  -19.9530   18.4570 C   0  0  0  0  0  1  0  0  0  0  0  0
  -36.3490  -19.9200   18.8820 C   0  0  0  0  0  2  0  0  0  0  0  0
  -29.5240  -22.3780   21.7860 C   0  0  0  0  0  2  0  0  0  0  0  0
  -28.2000  -21.9540   21.1090 C   0  0  0  0  0  2  0  0  0  0  0  0
  -27.1370  -23.0660   21.0680 C   0  0  0  0  0  2  0  0  0  0  0  0
  -27.2300  -23.8730   19.8310 N   0  0  0  0  0  4  0  0  0  0  0  0
  -26.3470  -23.8210   19.3450 H   0  0  0  0  0  0  0  0  0  0  0  0
  -27.9200  -23.4520   19.2290 H   0  0  0  0  0  0  0  0  0  0  0  0
  -27.5510  -25.2990   20.0510 C   0  0  0  0  0  2  0  0  0  0  0  0
  -27.4200  -26.1280   18.7600 C   0  0  0  0  0  2  0  0  0  0  0  0
  -27.1570  -27.6220   19.0240 C   0  0  0  0  0  2  0  0  0  0  0  0
  -25.7800  -27.9100   19.2420 O   0  0  0  0  0  0  0  0  0  0  0  0
  -26.7400  -31.9530   25.0290 C   0  0  0  0  0  0  0  0  0  0  0  0
  -25.4130  -28.2070   20.5270 C   0  0  0  0  0  0  0  0  0  0  0  0
  -25.1520  -30.0700   25.2750 C   0  0  0  0  0  3  0  0  0  0  0  0
  -24.5140  -28.8790   23.1120 C   0  0  0  0  0  0  0  0  0  0  0  0
  -25.5660  -31.1440   22.9920 C   0  0  0  0  0  2  0  0  0  0  0  0
  -25.2670  -29.7960   22.3700 C   0  0  0  0  0  0  0  0  0  0  0  0
  -25.7240  -29.4650   21.0800 C   0  0  0  0  0  3  0  0  0  0  0  0
  -24.6380  -27.2960   21.2720 C   0  0  0  0  0  3  0  0  0  0  0  0
  -24.2070  -27.6150   22.5740 C   0  0  0  0  0  3  0  0  0  0  0  0
  -24.0470  -29.3240   24.4790 C   0  0  0  0  0  2  0  0  0  0  0  0
  -25.8760  -31.0800   24.4370 N   0  0  0  0  0  0  0  0  0  0  0  0
  -26.9060  -31.9560   26.2550 O   0  0  0  0  0  0  0  0  0  0  0  0
  -26.0900  -29.0230   25.9130 C   0  0  0  0  0  0  0  0  0  0  0  0
  -25.9610  -28.8290   27.2330 N   0  0  0  0  0  0  0  0  0  0  0  0
  -26.8880  -28.3830   25.2200 O   0  0  0  0  0  0  0  0  0  0  0  0
  -25.2890  -29.3980   27.7310 H   0  0  0  0  0  0  0  0  0  0  0  0
  -26.9420  -28.0040   30.6100 C   0  0  0  0  0  0  0  0  0  0  0  0
  -26.7090  -27.8680   28.0400 C   0  0  0  0  0  3  0  0  0  0  0  0
  -25.8830  -26.5830   28.2820 C   0  0  0  0  0  2  0  0  0  0  0  0
  -25.0890  -26.6130   29.5910 C   0  0  0  0  0  2  0  0  0  0  0  0
  -26.0270  -26.8030   30.7870 C   0  0  0  0  0  2  0  0  0  0  0  0
  -27.2500  -28.5110   29.3200 C   0  0  0  0  0  0  0  0  0  0  0  0
  -28.0780  -29.6470   29.2090 C   0  0  0  0  0  3  0  0  0  0  0  0
  -28.6010  -30.2680   30.3590 C   0  0  0  0  0  3  0  0  0  0  0  0
  -28.3090  -29.7540   31.6320 C   0  0  0  0  0  3  0  0  0  0  0  0
  -27.4820  -28.6220   31.7570 C   0  0  0  0  0  3  0  0  0  0  0  0
  -27.5400  -33.0040   24.1960 C   0  0  0  0  0  3  0  0  0  0  0  0
  -26.9700  -34.3260   24.4870 N   0  0  0  0  0  0  0  0  0  0  0  0
  -26.3270  -35.0890   23.5930 C   0  0  0  0  0  0  0  0  0  0  0  0
  -26.2230  -34.7800   22.4030 O   0  0  0  0  0  0  0  0  0  0  0  0
  -26.9720  -34.6190   25.4540 H   0  0  0  0  0  0  0  0  0  0  0  0
  -24.2920  -36.5630   23.5120 C   0  0  0  0  0  1  0  0  0  0  0  0
  -25.7030  -36.4020   24.0980 C   0  0  0  0  0  3  0  0  0  0  0  0
  -27.8360  -37.5790   24.3970 C   0  0  0  0  0  1  0  0  0  0  0  0
  -26.5130  -37.5980   23.7800 N   0  0  0  0  0  0  0  0  0  0  0  0
  -26.0380  -38.4440   24.0800 H   0  0  0  0  0  0  0  0  0  0  0  0
  -29.0900  -32.9870   24.4940 C   0  0  1  0  0  0  0  0  0  0  0  0
  -29.4600  -33.5740   25.8760 C   0  0  0  0  0  1  0  0  0  0  0  0
  -29.6460  -31.5440   24.4240 C   0  0  0  0  0  1  0  0  0  0  0  0
  -29.8390  -33.8060   23.4140 C   0  0  0  0  0  1  0  0  0  0  0  0
  -30.7690  -20.9150   23.4780 C   0  0  0  0  0  2  0  0  0  0  0  0
  -31.6470  -21.8400   24.2150 N   0  0  0  0  0  4  0  0  0  0  0  0
  -32.5580  -21.8680   23.7940 H   0  0  0  0  0  0  0  0  0  0  0  0
  -31.7510  -21.5300   25.1650 H   0  0  0  0  0  0  0  0  0  0  0  0
  -31.2660  -22.7690   24.2290 H   0  0  0  0  0  0  0  0  0  0  0  0
  1  3  1  0
  2  4  1  0
  3  6  1  0
  4  6  1  0
  5  7  1  0
  5  2  1  0
  5  1  1  0
  6 48  1  1
  6 98  1  0
  8 15  2  0
  8 16  1  0
  9 14  1  0
 10  9  1  0
 11 10  1  0
 12 11  1  0
 12 13  1  0
 13 14  1  0
 14  8  1  0
 16  7  1  0
 17 42  1  0
 18 37  1  0
 18 17  2  0
 19 18  1  0
 20 12  1  0
 20 17  1  0
 21 19  2  0
 21 20  1  0
 22 19  1  0
 23 22  1  0
 24 23  2  0
 25 26  2  0
 25 24  1  0
 26 27  1  0
 27 22  2  0
 28 29  1  0
 28 25  1  0
 29 30  1  0
 30 31  2  0
 32 36  1  0
 32 31  1  0
 33 32  2  0
 34 33  1  0
 34 29  2  0
 35 34  1  0
 37 38  1  0
 37 39  2  0
 38 41  1  0
 40 38  1  0
 42 44  1  0
 42 43  1  0
 45 16  1  0
 45 47  1  0
 46 47  1  0
 49 48  1  0
 50 49  1  0
 51 54  1  0
 51 50  1  0
 52 51  1  0
 53 51  1  0
 55 56  1  0
 55 54  1  0
 56 57  1  0
 57 59  1  0
 58 69  2  0
 59 64  2  0
 59 65  1  0
 60 70  1  0
 61 67  1  0
 62 68  1  0
 63 62  1  0
 63 61  2  0
 64 63  1  0
 65 66  2  0
 66 61  1  0
 67 60  1  0
 68 58  1  0
 68 60  1  0
 70 71  1  0
 71 73  1  0
 72 70  2  0
 74 78  1  0
 74 83  1  0
 75 71  1  0
 75 76  1  0
 75 79  1  0
 76 77  1  0
 77 78  1  0
 79 74  2  0
 80 79  1  0
 80 81  2  0
 81 82  1  0
 82 83  2  0
 84 85  1  0
 84 94  1  0
 84 58  1  0
 85 88  1  0
 86 90  1  0
 86 85  1  0
 87 86  2  0
 90 89  1  0
 92 93  1  0
 92 90  1  0
 92 91  1  0
 94 95  1  1
 96 94  1  0
 97 94  1  0
 98 99  1  0
 99102  1  0
 99101  1  0
100 99  1  0
M  ISO  4   8 100  16 100  56 101  57 101
M  END
>  <TORSDO>  (64) 
F 28

>  <SCORE>  (64) 
-6.140

>  <name>  (64) 
64

>  <ligand_id>  (64) 
64

>  <original_smiles>  (64) 
[H]c1c([H])c([H])c2c(c1[H])C([H])([H])C([H])([H])C([H])([H])C2([H])N([H])C(=O)C1([H])N(C(=O)C([H])(N([H])C(=O)C([H])(N([H])C([H])([H])[H])C([H])([H])[H])C(C([H])([H])[H])(C([H])([H])[H])C([H])([H])[H])C([H])([H])c2c([H])c(OC([H])([H])C([H])([H])C([H])([H])[N+]([H])([H])C([H])([H])C([H])([H])C([H])([H])C3(C([H])([H])[N+]([H])([H])[H])C([H])([H])C([H])([H])C([H])(C([H])([H])N(C(=O)N4C([H])([H])C([H])([H])C([H])([H])C([H])(n5nc(-c6c([H])c([H])c(Oc7c([H])c([H])c(F)c([H])c7F)c([H])c6[H])c(C(=O)N([H])[H])c5N([H])[H])C4([H])[H])C([H])([H])C([H])([H])C([H])([H])[H])C([H])([H])C3([H])[H])c([H])c([H])c2C1([H])[H]

>  <smiles>  (64) 
[H]c1c([H])c([H])c2c(c1[H])C([H])([H])C([H])([H])C([H])([H])C2([H])N([H])C(=O)C1([H])N(C(=O)C([H])(N([H])C(=O)C([H])(N([H])C([H])([H])[H])C([H])([H])[H])C(C([H])([H])[H])(C([H])([H])[H])C([H])([H])[H])C([H])([H])c2c([H])c(OC([H])([H])C([H])([H])C([H])([H])[N+]([H])([H])C([H])([H])C([H])([H])C([H])([H])C3(C([H])([H])[N+]([H])([H])[H])C([H])([H])C([H])([H])C([H])(C([H])([H])N(C(=O)N4C([H])([H])C([H])([H])C([H])([H])C([H])(n5nc(-c6c([H])c([H])c(Oc7c([H])c([H])c(F)c([H])c7F)c([H])c6[H])c(C(=O)N([H])[H])c5N([H])[H])C4([H])[H])C([H])([H])C([H])([H])C([H])([H])[H])C([H])([H])C3([H])[H])c([H])c([H])c2C1([H])[H]

$$$$
65:0:0
     RDKit          3D

 98107  0  0  1  0  0  0  0  0999 V2000
  -28.9070  -20.3560   20.4600 N   0  0  0  0  0  0  0  0  0  0  0  0
  -28.9020  -21.6840   21.1430 C   0  0  0  0  0  2  0  0  0  0  0  0
  -29.4080  -22.9310   20.3870 C   0  0  0  0  0  3  0  0  0  0  0  0
  -28.8170  -24.1590   20.4580 C   0  0  0  0  0  3  0  0  0  0  0  0
  -29.3120  -25.4700   19.8120 C   0  0  0  0  0  2  0  0  0  0  0  0
  -29.0390  -26.6840   20.5770 O   0  0  0  0  0  0  0  0  0  0  0  0
  -24.7820  -31.7040   23.4010 C   0  0  0  0  0  0  0  0  0  0  0  0
  -27.8310  -27.3710   20.4740 C   0  0  0  0  0  0  0  0  0  0  0  0
  -23.7630  -30.2770   21.6610 C   0  0  0  0  0  3  0  0  0  0  0  0
  -25.3810  -28.8220   20.3280 C   0  0  0  0  0  0  0  0  0  0  0  0
  -26.2850  -30.7310   21.6590 C   0  0  0  0  0  2  0  0  0  0  0  0
  -26.4750  -29.3730   21.0060 C   0  0  0  0  0  0  0  0  0  0  0  0
  -27.7000  -28.6580   21.0700 C   0  0  0  0  0  3  0  0  0  0  0  0
  -26.7020  -26.8450   19.8040 C   0  0  0  0  0  3  0  0  0  0  0  0
  -25.4930  -27.5610   19.7250 C   0  0  0  0  0  3  0  0  0  0  0  0
  -24.1030  -29.6300   20.2920 C   0  0  0  0  0  2  0  0  0  0  0  0
  -24.9570  -30.9210   22.2980 N   0  0  0  0  0  0  0  0  0  0  0  0
  -23.6520  -31.9220   23.8610 O   0  0  0  0  0  0  0  0  0  0  0  0
  -23.0860  -29.2150   22.5590 C   0  0  0  0  0  0  0  0  0  0  0  0
  -21.7820  -28.9820   22.3380 N   0  0  0  0  0  0  0  0  0  0  0  0
  -23.7360  -28.6040   23.4120 O   0  0  0  0  0  0  0  0  0  0  0  0
  -21.3160  -29.5310   21.6280 H   0  0  0  0  0  0  0  0  0  0  0  0
  -18.4200  -27.6840   22.6250 C   0  0  0  0  0  0  0  0  0  0  0  0
  -20.9530  -27.9970   23.0340 C   0  0  0  0  0  3  0  0  0  0  0  0
  -21.1230  -26.5890   22.4170 C   0  0  0  0  0  2  0  0  0  0  0  0
  -20.0820  -26.2740   21.3380 C   0  0  0  0  0  2  0  0  0  0  0  0
  -18.6670  -26.3630   21.9160 C   0  0  0  0  0  2  0  0  0  0  0  0
  -19.4950  -28.4590   23.1370 C   0  0  0  0  0  0  0  0  0  0  0  0
  -19.2150  -29.6960   23.7550 C   0  0  0  0  0  3  0  0  0  0  0  0
  -17.8920  -30.1600   23.8730 C   0  0  0  0  0  3  0  0  0  0  0  0
  -16.8290  -29.3820   23.3800 C   0  0  0  0  0  3  0  0  0  0  0  0
  -17.0940  -28.1470   22.7610 C   0  0  0  0  0  3  0  0  0  0  0  0
  -25.9890  -32.3820   24.1220 C   0  0  0  0  0  3  0  0  0  0  0  0
  -26.3520  -31.7020   25.5000 C   0  0  1  0  0  0  0  0  0  0  0  0
  -25.1370  -31.5140   26.4390 C   0  0  0  0  0  1  0  0  0  0  0  0
  -26.9940  -30.3150   25.2720 C   0  0  0  0  0  1  0  0  0  0  0  0
  -27.4040  -32.5580   26.2440 C   0  0  0  0  0  1  0  0  0  0  0  0
  -25.6470  -33.7970   24.3180 N   0  0  0  0  0  0  0  0  0  0  0  0
  -26.0770  -34.8000   23.5410 C   0  0  0  0  0  0  0  0  0  0  0  0
  -26.8730  -34.6330   22.6120 O   0  0  0  0  0  0  0  0  0  0  0  0
  -24.9550  -34.0020   25.0240 H   0  0  0  0  0  0  0  0  0  0  0  0
  -24.4170  -36.5610   22.8540 C   0  0  0  0  0  1  0  0  0  0  0  0
  -25.5410  -36.2130   23.8430 C   0  0  0  0  0  3  0  0  0  0  0  0
  -27.5560  -37.1540   24.8850 C   0  0  0  0  0  1  0  0  0  0  0  0
  -26.5830  -37.2620   23.8010 N   0  0  0  0  0  0  0  0  0  0  0  0
  -26.1630  -38.1860   23.8450 H   0  0  0  0  0  0  0  0  0  0  0  0
  -27.7000  -19.6660   20.9600 C   0  0  0  0  0  2  0  0  0  0  0  0
  -25.4950  -16.4720   18.9000 C   0  0  0  0  0  2  0  0  0  0  0  0
  -26.9220  -16.7780   18.4190 C   0  0  0  0  0  2  0  0  0  0  0  0
  -24.7470  -17.7690   19.2390 C   0  0  0  0  0  2  0  0  0  0  0  0
  -27.6960  -17.6090   19.4560 C   0  0  0  0  0  2  0  0  0  0  0  0
  -25.5160  -18.5850   20.2910 C   0  0  0  0  0  2  0  0  0  0  0  0
  -26.9560  -18.9080   19.8400 C   0  0  0  0  0  3  0  0  0  0  0  0
  -30.0710  -19.4980   20.8250 C   0  0  0  0  0  2  0  0  0  0  0  0
  -30.0700  -18.0250   20.2290 C   0  0  0  0  0  3  0  0  0  0  0  0
  -31.5410  -14.6170   21.0390 C   0  0  0  0  0  0  0  0  0  0  0  0
  -31.4210  -12.2400   20.3440 C   0  0  0  0  0  2  0  0  0  0  0  0
  -30.6310  -12.1130   19.0260 C   0  0  0  0  0  2  0  0  0  0  0  0
  -29.1200  -11.9980   19.3070 C   0  0  0  0  0  2  0  0  0  0  0  0
  -28.6100  -13.0770   20.3010 C   0  0  0  0  0  3  0  0  0  0  0  0
  -29.5260  -13.1730   21.5400 C   0  0  0  0  0  2  0  0  0  0  0  0
  -30.8950  -13.4140   21.0620 N   0  0  0  0  0  0  0  0  0  0  0  0
  -32.7290  -14.7100   20.7170 O   0  0  0  0  0  0  0  0  0  0  0  0
  -31.0760  -16.6840   22.2700 C   0  0  0  0  0  2  0  0  0  0  0  0
  -31.1540  -17.0970   20.8410 C   0  0  0  0  0  3  0  0  0  0  0  0
  -30.7850  -15.7340   21.2330 N   0  0  0  0  0  0  0  0  0  0  0  0
  -26.1890  -13.7720   20.8140 C   0  0  0  0  0  0  0  0  0  0  0  0
  -25.0650  -13.0410   21.0910 C   0  0  0  0  0  0  0  0  0  0  0  0
  -25.4770  -11.6730   21.1010 C   0  0  0  0  0  0  0  0  0  0  0  0
  -27.2150  -12.8510   20.6700 N   0  0  0  0  0  0  0  0  0  0  0  0
  -26.7870  -11.5850   20.9020 N   0  0  0  0  0  0  0  0  0  0  0  0
  -24.6910  -10.4390   21.2270 C   0  0  0  0  0  0  0  0  0  0  0  0
  -25.0000   -9.4630   22.2010 C   0  0  0  0  0  3  0  0  0  0  0  0
  -24.2170   -8.2950   22.3170 C   0  0  0  0  0  3  0  0  0  0  0  0
  -23.1120   -8.0920   21.4570 C   0  0  0  0  0  0  0  0  0  0  0  0
  -22.8210   -9.0560   20.4750 C   0  0  0  0  0  3  0  0  0  0  0  0
  -23.6050  -10.2170   20.3580 C   0  0  0  0  0  3  0  0  0  0  0  0
  -22.3100   -6.9760   21.4790 O   0  0  0  0  0  0  0  0  0  0  0  0
  -22.0530   -6.2980   22.6430 C   0  0  0  0  0  0  0  0  0  0  0  0
  -21.5020   -6.9420   23.7740 C   0  0  0  0  0  3  0  0  0  0  0  0
  -21.1900   -6.1930   24.9260 C   0  0  0  0  0  3  0  0  0  0  0  0
  -21.4160   -4.8040   24.9470 C   0  0  0  0  0  0  0  0  0  0  0  0
  -21.9600   -4.1620   23.8210 C   0  0  0  0  0  3  0  0  0  0  0  0
  -22.2750   -4.9070   22.6720 C   0  0  0  0  0  0  0  0  0  0  0  0
  -22.7770   -4.2800   21.5810 F   0  0  0  0  0  0  0  0  0  0  0  0
  -21.1090   -4.0830   26.0520 F   0  0  0  0  0  0  0  0  0  0  0  0
  -23.6690  -13.5710   21.2420 C   0  0  0  0  0  0  0  0  0  0  0  0
  -22.8560  -12.9260   22.0710 N   0  0  0  0  0  0  0  0  0  0  0  0
  -23.3060  -14.5920   20.6590 O   0  0  0  0  0  0  0  0  0  0  0  0
  -23.1600  -12.1000   22.5630 H   0  0  0  0  0  0  0  0  0  0  0  0
  -21.9140  -13.2640   22.2160 H   0  0  0  0  0  0  0  0  0  0  0  0
  -26.4220  -15.1330   20.6520 N   0  0  0  0  0  0  0  0  0  0  0  0
  -25.6840  -15.8240   20.7290 H   0  0  0  0  0  0  0  0  0  0  0  0
  -27.3130  -15.5290   20.3860 H   0  0  0  0  0  0  0  0  0  0  0  0
  -30.2230  -18.1030   18.7700 N   0  0  0  0  0  4  0  0  0  0  0  0
  -31.1250  -18.4670   18.5200 H   0  0  0  0  0  0  0  0  0  0  0  0
  -29.5200  -18.7240   18.4050 H   0  0  0  0  0  0  0  0  0  0  0  0
  -30.1100  -17.2010   18.3460 H   0  0  0  0  0  0  0  0  0  0  0  0
  1 54  1  0
  1 47  1  0
  1  2  1  0
  3  4  2  0
  3  2  1  0
  5  4  1  0
  5  6  1  0
  7 18  2  0
  8  6  1  0
  8 13  1  0
  9 17  1  0
  9 19  1  0
 10 12  1  0
 11 17  1  0
 12 13  2  0
 12 11  1  0
 14  8  2  0
 15 14  1  0
 15 10  2  0
 16 10  1  0
 16  9  1  0
 17  7  1  0
 19 21  2  0
 20 19  1  0
 22 20  1  0
 23 32  2  0
 23 28  1  0
 24 20  1  0
 24 28  1  0
 25 24  1  0
 26 27  1  0
 26 25  1  0
 27 23  1  0
 28 29  2  0
 29 30  1  0
 31 30  2  0
 32 31  1  0
 33  7  1  0
 33 38  1  0
 33 34  1  0
 34 37  1  1
 34 35  1  0
 36 34  1  0
 38 41  1  0
 39 43  1  0
 39 38  1  0
 40 39  2  0
 43 42  1  0
 45 43  1  0
 45 46  1  0
 45 44  1  0
 48 50  1  0
 49 48  1  0
 49 51  1  0
 50 52  1  0
 51 53  1  0
 53 52  1  0
 53 47  1  0
 55 54  1  0
 56 62  1  0
 56 66  1  0
 57 62  1  0
 58 59  1  0
 58 57  1  0
 60 59  1  0
 60 70  1  0
 60 61  1  0
 62 61  1  0
 63 56  2  0
 65 55  1  0
 65 66  1  0
 65 64  1  0
 66 64  1  0
 67 68  2  0
 68 69  1  0
 68 87  1  0
 69 72  1  0
 70 67  1  0
 70 71  1  0
 71 69  2  0
 72 73  1  0
 73 74  2  0
 75 78  1  0
 75 74  1  0
 76 75  2  0
 77 76  1  0
 77 72  2  0
 78 79  1  0
 79 84  2  0
 79 80  1  0
 80 81  2  0
 81 82  1  0
 82 86  1  0
 83 82  2  0
 84 83  1  0
 85 84  1  0
 87 88  1  0
 88 91  1  0
 88 90  1  0
 89 87  2  0
 92 93  1  0
 92 67  1  0
 94 92  1  0
 95 55  1  0
 96 95  1  0
 97 95  1  0
 98 95  1  0
M  ISO  4   5 101   6 101  56 100  66 100
M  END
>  <TORSDO>  (65) 
F 24

>  <SCORE>  (65) 
-5.998

>  <name>  (65) 
65

>  <ligand_id>  (65) 
65

>  <original_smiles>  (65) 
[H]C(=C([H])C([H])([H])N(C([H])([H])C1([H])C([H])([H])C([H])([H])C([H])([H])C([H])([H])C1([H])[H])C([H])([H])C([H])(C1([H])N(C(=O)N2C([H])([H])C([H])([H])C([H])([H])C([H])(n3nc(-c4c([H])c([H])c(Oc5c([H])c([H])c(F)c([H])c5F)c([H])c4[H])c(C(=O)N([H])[H])c3N([H])[H])C2([H])[H])C1([H])[H])[N+]([H])([H])[H])C([H])([H])Oc1c([H])c([H])c2c(c1[H])C([H])([H])N(C(=O)C([H])(N([H])C(=O)C([H])(N([H])C([H])([H])[H])C([H])([H])[H])C(C([H])([H])[H])(C([H])([H])[H])C([H])([H])[H])C([H])(C(=O)N([H])C1([H])c3c([H])c([H])c([H])c([H])c3C([H])([H])C([H])([H])C1([H])[H])C2([H])[H]

>  <smiles>  (65) 
[H]C(=C([H])C([H])([H])N(C([H])([H])C1([H])C([H])([H])C([H])([H])C([H])([H])C([H])([H])C1([H])[H])C([H])([H])C([H])(C1([H])N(C(=O)N2C([H])([H])C([H])([H])C([H])([H])C([H])(n3nc(-c4c([H])c([H])c(Oc5c([H])c([H])c(F)c([H])c5F)c([H])c4[H])c(C(=O)N([H])[H])c3N([H])[H])C2([H])[H])C1([H])[H])[N+]([H])([H])[H])C([H])([H])Oc1c([H])c([H])c2c(c1[H])C([H])([H])N(C(=O)C([H])(N([H])C(=O)C([H])(N([H])C([H])([H])[H])C([H])([H])[H])C(C([H])([H])[H])(C([H])([H])[H])C([H])([H])[H])C([H])(C(=O)N([H])C1([H])c3c([H])c([H])c([H])c([H])c3C([H])([H])C([H])([H])C1([H])[H])C2([H])[H]

$$$$
66:0:0
     RDKit          3D

 97105  0  0  1  0  0  0  0  0999 V2000
  -30.1500  -19.5430   20.6600 N   0  0  1  0  0  4  0  0  0  0  0  0
  -29.2030  -19.3370   20.9340 H   0  0  0  0  0  0  0  0  0  0  0  0
  -30.9950  -19.2010   21.8380 C   0  0  0  0  0  2  0  0  0  0  0  0
  -32.0960  -14.9930   21.8550 C   0  0  0  0  0  3  0  0  0  0  0  0
  -30.8020  -15.3840   22.2520 C   0  0  0  0  0  3  0  0  0  0  0  0
  -33.0390  -15.9670   21.4740 C   0  0  0  0  0  3  0  0  0  0  0  0
  -30.4480  -16.7480   22.2620 C   0  0  0  0  0  3  0  0  0  0  0  0
  -32.6850  -17.3300   21.4820 C   0  0  0  0  0  3  0  0  0  0  0  0
  -31.3850  -17.7270   21.8680 C   0  0  0  0  0  0  0  0  0  0  0  0
  -30.1700  -21.0070   20.3460 C   0  0  0  0  0  2  0  0  0  0  0  0
  -29.1060  -21.8100   21.1440 C   0  0  0  0  0  2  0  0  0  0  0  0
  -29.2300  -23.3530   21.0900 C   0  0  0  0  0  2  0  0  0  0  0  0
  -28.7960  -25.1000   19.5220 C   0  0  0  0  0  0  0  0  0  0  0  0
  -28.6670  -25.5910   18.0950 C   0  0  0  0  0  1  0  0  0  0  0  0
  -29.1020  -23.8700   19.7330 N   0  0  0  0  0  0  0  0  0  0  0  0
  -28.5080  -26.1630   20.6020 C   0  0  0  0  0  2  0  0  0  0  0  0
  -28.5310  -27.5230   20.1280 O   0  0  0  0  0  0  0  0  0  0  0  0
  -24.7750  -32.4820   23.5980 C   0  0  0  0  0  0  0  0  0  0  0  0
  -27.3460  -28.2210   20.2210 C   0  0  0  0  0  0  0  0  0  0  0  0
  -23.5140  -31.1210   21.9610 C   0  0  0  0  0  3  0  0  0  0  0  0
  -24.9240  -29.6690   20.4070 C   0  0  0  0  0  0  0  0  0  0  0  0
  -26.0200  -31.5420   21.6530 C   0  0  0  0  0  2  0  0  0  0  0  0
  -26.1000  -30.1990   20.9540 C   0  0  0  0  0  0  0  0  0  0  0  0
  -27.3150  -29.4850   20.8530 C   0  0  0  0  0  3  0  0  0  0  0  0
  -26.1540  -27.7010   19.6710 C   0  0  0  0  0  3  0  0  0  0  0  0
  -24.9460  -28.4200   19.7600 C   0  0  0  0  0  3  0  0  0  0  0  0
  -23.6670  -30.4980   20.5470 C   0  0  0  0  0  2  0  0  0  0  0  0
  -24.7900  -31.7270   22.4620 N   0  0  0  0  0  0  0  0  0  0  0  0
  -23.7190  -32.7090   24.2020 O   0  0  0  0  0  0  0  0  0  0  0  0
  -22.9320  -30.0510   22.9110 C   0  0  0  0  0  0  0  0  0  0  0  0
  -21.6530  -29.6960   22.7020 N   0  0  0  0  0  0  0  0  0  0  0  0
  -23.6290  -29.5390   23.7910 O   0  0  0  0  0  0  0  0  0  0  0  0
  -21.1470  -30.1660   21.9640 H   0  0  0  0  0  0  0  0  0  0  0  0
  -18.4990  -27.9440   22.8770 C   0  0  0  0  0  0  0  0  0  0  0  0
  -20.9090  -28.6830   23.4490 C   0  0  0  0  0  3  0  0  0  0  0  0
  -21.3370  -27.2580   23.0280 C   0  0  0  0  0  2  0  0  0  0  0  0
  -20.4630  -26.6690   21.9160 C   0  0  0  0  0  2  0  0  0  0  0  0
  -18.9980  -26.6060   22.3600 C   0  0  0  0  0  2  0  0  0  0  0  0
  -19.3980  -28.9260   23.3730 C   0  0  0  0  0  0  0  0  0  0  0  0
  -18.8850  -30.1680   23.8070 C   0  0  0  0  0  3  0  0  0  0  0  0
  -17.5040  -30.4340   23.7560 C   0  0  0  0  0  3  0  0  0  0  0  0
  -16.6170  -29.4540   23.2810 C   0  0  0  0  0  3  0  0  0  0  0  0
  -17.1140  -28.2110   22.8460 C   0  0  0  0  0  3  0  0  0  0  0  0
  -26.0810  -33.1130   24.1780 C   0  0  0  0  0  3  0  0  0  0  0  0
  -26.6440  -32.3390   25.4320 C   0  0  1  0  0  0  0  0  0  0  0  0
  -25.5850  -32.0830   26.5290 C   0  0  0  0  0  1  0  0  0  0  0  0
  -27.2290  -30.9720   25.0120 C   0  0  0  0  0  1  0  0  0  0  0  0
  -27.8050  -33.1400   26.0650 C   0  0  0  0  0  1  0  0  0  0  0  0
  -25.7830  -34.5110   24.5190 N   0  0  0  0  0  0  0  0  0  0  0  0
  -26.0610  -35.5600   23.7340 C   0  0  0  0  0  0  0  0  0  0  0  0
  -26.6670  -35.4560   22.6630 O   0  0  0  0  0  0  0  0  0  0  0  0
  -25.2450  -34.6660   25.3580 H   0  0  0  0  0  0  0  0  0  0  0  0
  -24.2810  -37.3160   23.4960 C   0  0  0  0  0  1  0  0  0  0  0  0
  -25.5900  -36.9460   24.2110 C   0  0  0  0  0  3  0  0  0  0  0  0
  -27.7650  -37.8800   24.8610 C   0  0  0  0  0  1  0  0  0  0  0  0
  -26.5920  -38.0140   24.0010 N   0  0  0  0  0  0  0  0  0  0  0  0
  -26.1820  -38.9290   24.1630 H   0  0  0  0  0  0  0  0  0  0  0  0
  -30.4000  -18.6440   19.4900 C   0  0  0  0  0  2  0  0  0  0  0  0
  -29.2000  -17.7030   19.2280 C   0  0  0  0  0  2  0  0  0  0  0  0
  -30.0710  -15.3630   19.0280 C   0  0  0  0  0  0  0  0  0  0  0  0
  -29.6510  -13.2420   17.8590 C   0  0  0  0  0  2  0  0  0  0  0  0
  -28.4560  -13.4680   16.9070 C   0  0  0  0  0  2  0  0  0  0  0  0
  -27.1180  -13.2250   17.6350 C   0  0  0  0  0  2  0  0  0  0  0  0
  -27.0350  -13.9690   18.9950 C   0  0  0  0  0  3  0  0  0  0  0  0
  -28.3190  -13.7380   19.8290 C   0  0  0  0  0  2  0  0  0  0  0  0
  -29.4780  -14.1390   19.0110 N   0  0  0  0  0  0  0  0  0  0  0  0
  -31.0400  -15.6630   18.3270 O   0  0  0  0  0  0  0  0  0  0  0  0
  -29.3640  -16.3070   19.6710 N   0  0  0  0  0  0  0  0  0  0  0  0
  -28.6340  -15.9470   20.2670 H   0  0  0  0  0  0  0  0  0  0  0  0
  -24.8300  -14.4150   20.2510 C   0  0  0  0  0  0  0  0  0  0  0  0
  -23.9010  -13.5680   20.7930 C   0  0  0  0  0  0  0  0  0  0  0  0
  -24.3920  -12.2460   20.5700 C   0  0  0  0  0  0  0  0  0  0  0  0
  -25.8300  -13.6020   19.7360 N   0  0  0  0  0  0  0  0  0  0  0  0
  -25.5820  -12.2900   19.9830 N   0  0  0  0  0  0  0  0  0  0  0  0
  -23.7750  -10.9400   20.8290 C   0  0  0  0  0  0  0  0  0  0  0  0
  -24.3890   -9.9860   21.6720 C   0  0  0  0  0  3  0  0  0  0  0  0
  -23.7660   -8.7440   21.9210 C   0  0  0  0  0  3  0  0  0  0  0  0
  -22.5160   -8.4460   21.3280 C   0  0  0  0  0  0  0  0  0  0  0  0
  -21.9200   -9.3880   20.4720 C   0  0  0  0  0  3  0  0  0  0  0  0
  -22.5440  -10.6210   20.2200 C   0  0  0  0  0  3  0  0  0  0  0  0
  -21.8510   -7.2550   21.4920 O   0  0  0  0  0  0  0  0  0  0  0  0
  -21.9090   -6.5530   22.6690 C   0  0  0  0  0  0  0  0  0  0  0  0
  -21.4770   -7.1130   23.8920 C   0  0  0  0  0  3  0  0  0  0  0  0
  -21.4890   -6.3330   25.0650 C   0  0  0  0  0  3  0  0  0  0  0  0
  -21.9220   -4.9940   25.0180 C   0  0  0  0  0  0  0  0  0  0  0  0
  -22.3470   -4.4340   23.8010 C   0  0  0  0  0  3  0  0  0  0  0  0
  -22.3370   -5.2110   22.6290 C   0  0  0  0  0  0  0  0  0  0  0  0
  -22.7260   -4.6590   21.4550 F   0  0  0  0  0  0  0  0  0  0  0  0
  -21.9260   -4.2430   26.1440 F   0  0  0  0  0  0  0  0  0  0  0  0
  -22.5830  -13.9560   21.4010 C   0  0  0  0  0  0  0  0  0  0  0  0
  -22.1070  -13.1870   22.3740 N   0  0  0  0  0  0  0  0  0  0  0  0
  -21.9900  -14.9730   21.0440 O   0  0  0  0  0  0  0  0  0  0  0  0
  -22.6040  -12.3630   22.6780 H   0  0  0  0  0  0  0  0  0  0  0  0
  -21.2330  -13.4260   22.8210 H   0  0  0  0  0  0  0  0  0  0  0  0
  -24.9010  -15.7990   20.1340 N   0  0  0  0  0  0  0  0  0  0  0  0
  -24.1490  -16.4050   20.4440 H   0  0  0  0  0  0  0  0  0  0  0  0
  -25.6290  -16.2960   19.6380 H   0  0  0  0  0  0  0  0  0  0  0  0
  1  2  1  1
  1  3  1  0
  3  9  1  0
  4  5  1  0
  5  7  2  0
  6  8  1  0
  6  4  2  0
  8  9  2  0
  9  7  1  0
 10  1  1  0
 10 11  1  0
 12 11  1  0
 13 15  2  0
 13 16  1  0
 14 13  1  0
 15 12  1  0
 17 19  1  0
 17 16  1  0
 18 29  2  0
 19 24  1  0
 20 28  1  0
 20 30  1  0
 21 27  1  0
 21 23  1  0
 22 28  1  0
 23 22  1  0
 24 23  2  0
 25 26  1  0
 25 19  2  0
 26 21  2  0
 27 20  1  0
 28 18  1  0
 30 32  2  0
 31 30  1  0
 33 31  1  0
 34 39  1  0
 35 31  1  0
 36 35  1  0
 37 38  1  0
 37 36  1  0
 38 34  1  0
 39 35  1  0
 39 40  2  0
 41 40  1  0
 42 41  2  0
 43 34  2  0
 43 42  1  0
 44 18  1  0
 44 49  1  0
 44 45  1  0
 45 48  1  1
 45 46  1  0
 47 45  1  0
 49 52  1  0
 50 54  1  0
 50 49  1  0
 51 50  2  0
 54 53  1  0
 56 57  1  0
 56 54  1  0
 56 55  1  0
 58  1  1  0
 59 58  1  0
 59 68  1  0
 60 68  1  0
 61 66  1  0
 62 63  1  0
 62 61  1  0
 64 63  1  0
 64 73  1  0
 64 65  1  0
 66 60  1  0
 66 65  1  0
 67 60  2  0
 68 69  1  0
 70 71  2  0
 71 90  1  0
 72 71  1  0
 72 75  1  0
 73 74  1  0
 73 70  1  0
 74 72  2  0
 75 76  1  0
 76 77  2  0
 78 81  1  0
 78 77  1  0
 79 78  2  0
 80 79  1  0
 80 75  2  0
 81 82  1  0
 82 83  1  0
 83 84  2  0
 85 84  1  0
 85 89  1  0
 86 85  2  0
 87 82  2  0
 87 86  1  0
 88 87  1  0
 90 91  1  0
 91 93  1  0
 91 94  1  0
 92 90  2  0
 95 70  1  0
 95 96  1  0
 97 95  1  0
M  ISO  4  16 101  17 101  60 100  68 100
M  END
>  <TORSDO>  (66) 
F 25

>  <SCORE>  (66) 
-1.063

>  <name>  (66) 
66

>  <ligand_id>  (66) 
66

>  <original_smiles>  (66) 
[H]c1c([H])c([H])c(C([H])([H])[N+]([H])(C([H])([H])C([H])([H])N([H])C(=O)N2C([H])([H])C([H])([H])C([H])([H])C([H])(n3nc(-c4c([H])c([H])c(Oc5c([H])c([H])c(F)c([H])c5F)c([H])c4[H])c(C(=O)N([H])[H])c3N([H])[H])C2([H])[H])C([H])([H])C([H])([H])C([H])([H])N=C(C([H])([H])[H])C([H])([H])Oc2c([H])c([H])c3c(c2[H])C([H])([H])N(C(=O)C([H])(N([H])C(=O)C([H])(N([H])C([H])([H])[H])C([H])([H])[H])C(C([H])([H])[H])(C([H])([H])[H])C([H])([H])[H])C([H])(C(=O)N([H])C2([H])c4c([H])c([H])c([H])c([H])c4C([H])([H])C([H])([H])C2([H])[H])C3([H])[H])c([H])c1[H]

>  <smiles>  (66) 
[H]c1c([H])c([H])c(C([H])([H])[N+]([H])(C([H])([H])C([H])([H])N([H])C(=O)N2C([H])([H])C([H])([H])C([H])([H])C([H])(n3nc(-c4c([H])c([H])c(Oc5c([H])c([H])c(F)c([H])c5F)c([H])c4[H])c(C(=O)N([H])[H])c3N([H])[H])C2([H])[H])C([H])([H])C([H])([H])C([H])([H])N=C(C([H])([H])[H])C([H])([H])Oc2c([H])c([H])c3c(c2[H])C([H])([H])N(C(=O)C([H])(N([H])C(=O)C([H])(N([H])C([H])([H])[H])C([H])([H])[H])C(C([H])([H])[H])(C([H])([H])[H])C([H])([H])[H])C([H])(C(=O)N([H])C2([H])c4c([H])c([H])c([H])c([H])c4C([H])([H])C([H])([H])C2([H])[H])C3([H])[H])c([H])c1[H]

$$$$
67:0:0
     RDKit          3D

104112  0  0  1  0  0  0  0  0999 V2000
  -30.1000  -17.8590   22.5300 C   0  0  0  0  0  2  0  0  0  0  0  0
  -31.3470  -17.1110   22.0610 C   0  0  0  0  0  2  0  0  0  0  0  0
  -30.0670  -19.2520   21.8970 C   0  0  0  0  0  2  0  0  0  0  0  0
  -30.9070  -18.1440   19.6830 C   0  0  0  0  0  3  0  0  0  0  0  0
  -31.3620  -16.8810   20.5400 C   0  0  0  0  0  3  0  0  0  0  0  0
  -29.9190  -19.1970   20.3600 C   0  0  0  0  0  3  0  0  0  0  0  0
  -31.3440  -14.4800   19.6960 C   0  0  0  0  0  0  0  0  0  0  0  0
  -30.8920  -12.2480   18.7230 C   0  0  0  0  0  2  0  0  0  0  0  0
  -29.8620  -12.3860   17.5820 C   0  0  0  0  0  2  0  0  0  0  0  0
  -28.4240  -12.3310   18.1360 C   0  0  0  0  0  2  0  0  0  0  0  0
  -28.2140  -13.2700   19.3540 C   0  0  0  0  0  3  0  0  0  0  0  0
  -29.3470  -13.0990   20.3900 C   0  0  0  0  0  2  0  0  0  0  0  0
  -30.6210  -13.3240   19.6920 N   0  0  0  0  0  0  0  0  0  0  0  0
  -32.4510  -14.5610   19.1570 O   0  0  0  0  0  0  0  0  0  0  0  0
  -30.7330  -15.5720   20.2220 N   0  0  0  0  0  0  0  0  0  0  0  0
  -29.7970  -15.4230   20.5670 H   0  0  0  0  0  0  0  0  0  0  0  0
  -25.9810  -14.0350   20.3730 C   0  0  0  0  0  0  0  0  0  0  0  0
  -24.8790  -13.3400   20.7900 C   0  0  0  0  0  0  0  0  0  0  0  0
  -25.1870  -11.9580   20.5960 C   0  0  0  0  0  0  0  0  0  0  0  0
  -26.8970  -13.0820   19.9570 N   0  0  0  0  0  0  0  0  0  0  0  0
  -26.4290  -11.8230   20.1480 N   0  0  0  0  0  0  0  0  0  0  0  0
  -24.3520  -10.7610   20.7570 C   0  0  0  0  0  0  0  0  0  0  0  0
  -24.7220   -9.7130   21.6300 C   0  0  0  0  0  3  0  0  0  0  0  0
  -23.8930   -8.5810   21.7800 C   0  0  0  0  0  3  0  0  0  0  0  0
  -22.6790   -8.4880   21.0580 C   0  0  0  0  0  0  0  0  0  0  0  0
  -22.3270   -9.5240   20.1740 C   0  0  0  0  0  3  0  0  0  0  0  0
  -23.1560  -10.6470   20.0200 C   0  0  0  0  0  3  0  0  0  0  0  0
  -21.8240   -7.4150   21.1220 O   0  0  0  0  0  0  0  0  0  0  0  0
  -21.6620   -6.6920   22.2760 C   0  0  0  0  0  0  0  0  0  0  0  0
  -21.1530   -7.2760   23.4560 C   0  0  0  0  0  3  0  0  0  0  0  0
  -20.9380   -6.4800   24.5990 C   0  0  0  0  0  3  0  0  0  0  0  0
  -21.2210   -5.1020   24.5620 C   0  0  0  0  0  0  0  0  0  0  0  0
  -21.7220   -4.5170   23.3860 C   0  0  0  0  0  3  0  0  0  0  0  0
  -21.9390   -5.3100   22.2450 C   0  0  0  0  0  0  0  0  0  0  0  0
  -22.4030   -4.7390   21.1070 F   0  0  0  0  0  0  0  0  0  0  0  0
  -21.0060   -4.3350   25.6570 F   0  0  0  0  0  0  0  0  0  0  0  0
  -23.5740  -13.9230   21.2510 C   0  0  0  0  0  0  0  0  0  0  0  0
  -22.8740  -13.2300   22.1430 N   0  0  0  0  0  0  0  0  0  0  0  0
  -23.1920  -15.0240   20.8580 O   0  0  0  0  0  0  0  0  0  0  0  0
  -23.1980  -12.3370   22.4810 H   0  0  0  0  0  0  0  0  0  0  0  0
  -22.0010  -13.6000   22.4930 H   0  0  0  0  0  0  0  0  0  0  0  0
  -26.2740  -15.3950   20.2930 N   0  0  0  0  0  0  0  0  0  0  0  0
  -25.5920  -16.1060   20.5290 H   0  0  0  0  0  0  0  0  0  0  0  0
  -27.1170  -15.7740   19.8840 H   0  0  0  0  0  0  0  0  0  0  0  0
  -32.3010  -19.1080   17.9790 C   0  0  0  0  0  0  0  0  0  0  0  0
  -32.1270  -18.8250   19.2300 N   0  0  0  0  0  2  0  0  0  0  0  0
  -31.4150  -18.9010   16.9430 N   0  0  0  0  0  4  0  0  0  0  0  0
  -31.6470  -19.0830   15.9740 H   0  0  0  0  0  0  0  0  0  0  0  0
  -30.5910  -18.3140   16.9780 H   0  0  0  0  0  0  0  0  0  0  0  0
  -33.6000  -19.7810   17.5530 C   0  0  0  0  0  2  0  0  0  0  0  0
  -33.4710  -20.9340   16.5300 C   0  0  0  0  0  2  0  0  0  0  0  0
  -32.7970  -22.2100   17.0780 C   0  0  0  0  0  2  0  0  0  0  0  0
  -32.7720  -23.2960   16.0830 N   0  0  0  0  0  4  0  0  0  0  0  0
  -33.7030  -23.5280   15.7850 H   0  0  0  0  0  0  0  0  0  0  0  0
  -32.3610  -24.1230   16.4810 H   0  0  0  0  0  0  0  0  0  0  0  0
  -32.2330  -23.0370   15.2770 H   0  0  0  0  0  0  0  0  0  0  0  0
  -30.0610  -20.5840   19.7920 N   0  0  0  0  0  4  0  0  0  0  0  0
  -30.3600  -20.4690   18.8350 H   0  0  0  0  0  0  0  0  0  0  0  0
  -30.8340  -21.0070   20.2820 H   0  0  0  0  0  0  0  0  0  0  0  0
  -28.8870  -21.5100   19.8210 C   0  0  0  0  0  2  0  0  0  0  0  0
  -29.1640  -22.8640   20.5090 C   0  0  0  0  0  3  0  0  0  0  0  0
  -28.7090  -24.0900   20.1390 C   0  0  0  0  0  3  0  0  0  0  0  0
  -28.9180  -25.3800   20.9590 C   0  0  0  0  0  2  0  0  0  0  0  0
  -28.9480  -26.6220   20.2160 O   0  0  0  0  0  0  0  0  0  0  0  0
  -24.6630  -31.4330   23.3420 C   0  0  0  0  0  0  0  0  0  0  0  0
  -27.7570  -27.3210   20.2020 C   0  0  0  0  0  0  0  0  0  0  0  0
  -23.6420  -30.0330   21.5780 C   0  0  0  0  0  3  0  0  0  0  0  0
  -25.2700  -28.6740   20.1570 C   0  0  0  0  0  0  0  0  0  0  0  0
  -26.1440  -30.5750   21.5260 C   0  0  0  0  0  2  0  0  0  0  0  0
  -26.3600  -29.2440   20.8280 C   0  0  0  0  0  0  0  0  0  0  0  0
  -27.6110  -28.5760   20.8470 C   0  0  0  0  0  3  0  0  0  0  0  0
  -26.6520  -26.7720   19.5230 C   0  0  0  0  0  3  0  0  0  0  0  0
  -25.4120  -27.4380   19.5010 C   0  0  0  0  0  3  0  0  0  0  0  0
  -23.9650  -29.4410   20.1820 C   0  0  0  0  0  2  0  0  0  0  0  0
  -24.8310  -30.6940   22.2080 N   0  0  0  0  0  0  0  0  0  0  0  0
  -23.5400  -31.6020   23.8380 O   0  0  0  0  0  0  0  0  0  0  0  0
  -23.0210  -28.9220   22.4570 C   0  0  0  0  0  0  0  0  0  0  0  0
  -21.7360  -28.6130   22.2150 N   0  0  0  0  0  0  0  0  0  0  0  0
  -23.6950  -28.3440   23.3130 O   0  0  0  0  0  0  0  0  0  0  0  0
  -21.2490  -29.1380   21.5040 H   0  0  0  0  0  0  0  0  0  0  0  0
  -18.4970  -27.0150   22.3450 C   0  0  0  0  0  0  0  0  0  0  0  0
  -20.9610  -27.5730   22.8930 C   0  0  0  0  0  3  0  0  0  0  0  0
  -21.2970  -26.1720   22.3300 C   0  0  0  0  0  2  0  0  0  0  0  0
  -20.3560  -25.7340   21.2020 C   0  0  0  0  0  2  0  0  0  0  0  0
  -18.9060  -25.7050   21.6910 C   0  0  0  0  0  2  0  0  0  0  0  0
  -19.4630  -27.8990   22.8950 C   0  0  0  0  0  0  0  0  0  0  0  0
  -19.0320  -29.1180   23.4590 C   0  0  0  0  0  3  0  0  0  0  0  0
  -17.6670  -29.4590   23.4820 C   0  0  0  0  0  3  0  0  0  0  0  0
  -16.7130  -28.5730   22.9520 C   0  0  0  0  0  3  0  0  0  0  0  0
  -17.1290  -27.3530   22.3880 C   0  0  0  0  0  3  0  0  0  0  0  0
  -25.8680  -32.1240   24.0540 C   0  0  0  0  0  3  0  0  0  0  0  0
  -26.2520  -31.4440   25.4260 C   0  0  1  0  0  0  0  0  0  0  0  0
  -25.0560  -31.2720   26.3920 C   0  0  0  0  0  1  0  0  0  0  0  0
  -26.8700  -30.0450   25.1870 C   0  0  0  0  0  1  0  0  0  0  0  0
  -27.3320  -32.2870   26.1440 C   0  0  0  0  0  1  0  0  0  0  0  0
  -25.5150  -33.5350   24.2550 N   0  0  0  0  0  0  0  0  0  0  0  0
  -25.9110  -34.5370   23.4590 C   0  0  0  0  0  0  0  0  0  0  0  0
  -26.6800  -34.3740   22.5090 O   0  0  0  0  0  0  0  0  0  0  0  0
  -24.8420  -33.7360   24.9800 H   0  0  0  0  0  0  0  0  0  0  0  0
  -24.1930  -36.2630   22.8280 C   0  0  0  0  0  1  0  0  0  0  0  0
  -25.3670  -35.9460   23.7690 C   0  0  0  0  0  3  0  0  0  0  0  0
  -27.3950  -36.9500   24.7210 C   0  0  0  0  0  1  0  0  0  0  0  0
  -26.3900  -37.0080   23.6620 N   0  0  0  0  0  0  0  0  0  0  0  0
  -25.9580  -37.9280   23.6840 H   0  0  0  0  0  0  0  0  0  0  0  0
  2  1  1  0
  3  1  1  0
  4 46  1  0
  4  6  1  0
  4  5  1  0
  5 15  1  0
  5  2  1  0
  6 57  1  0
  6  3  1  0
  7 15  1  0
  8 13  1  0
  9 10  1  0
  9  8  1  0
 11 10  1  0
 11 20  1  0
 11 12  1  0
 13  7  1  0
 13 12  1  0
 14  7  2  0
 15 16  1  0
 17 18  2  0
 18 37  1  0
 19 22  1  0
 19 18  1  0
 20 21  1  0
 20 17  1  0
 21 19  2  0
 22 23  1  0
 23 24  2  0
 25 28  1  0
 25 24  1  0
 26 25  2  0
 27 26  1  0
 27 22  2  0
 28 29  1  0
 29 30  1  0
 30 31  2  0
 32 31  1  0
 32 36  1  0
 33 32  2  0
 34 29  2  0
 34 33  1  0
 35 34  1  0
 37 38  1  0
 38 40  1  0
 38 41  1  0
 39 37  2  0
 42 17  1  0
 42 43  1  0
 44 42  1  0
 45 46  1  0
 47 49  1  0
 47 45  2  0
 48 47  1  0
 50 45  1  0
 51 52  1  0
 51 50  1  0
 53 55  1  0
 53 52  1  0
 54 53  1  0
 56 53  1  0
 57 60  1  0
 57 59  1  0
 58 57  1  0
 60 61  1  0
 62 61  2  0
 62 63  1  0
 64 63  1  0
 65 76  2  0
 66 64  1  0
 66 71  1  0
 67 75  1  0
 67 77  1  0
 68 74  1  0
 68 70  1  0
 69 75  1  0
 70 71  2  0
 70 69  1  0
 72 66  2  0
 73 72  1  0
 73 68  2  0
 74 67  1  0
 75 65  1  0
 77 79  2  0
 78 77  1  0
 80 78  1  0
 81 90  2  0
 81 86  1  0
 82 78  1  0
 82 86  1  0
 83 82  1  0
 84 85  1  0
 84 83  1  0
 85 81  1  0
 86 87  2  0
 87 88  1  0
 89 88  2  0
 90 89  1  0
 91 65  1  0
 91 96  1  0
 91 92  1  0
 92 95  1  1
 92 93  1  0
 94 92  1  0
 96 99  1  0
 97101  1  0
 97 96  1  0
 98 97  2  0
101100  1  0
103104  1  0
103101  1  0
103102  1  0
M  ISO  4   7 100  15 100  63 101  64 101
M  END
>  <TORSDO>  (67) 
F 25

>  <SCORE>  (67) 
-9.859

>  <name>  (67) 
67

>  <ligand_id>  (67) 
67

>  <original_smiles>  (67) 
[H]C(=C([H])C([H])([H])[N+]([H])([H])C1([H])C([H])([H])C([H])([H])C([H])([H])C([H])(N([H])C(=O)N2C([H])([H])C([H])([H])C([H])([H])C([H])(n3nc(-c4c([H])c([H])c(Oc5c([H])c([H])c(F)c([H])c5F)c([H])c4[H])c(C(=O)N([H])[H])c3N([H])[H])C2([H])[H])C1([H])N=C(N([H])[H])C([H])([H])C([H])([H])C([H])([H])[N+]([H])([H])[H])C([H])([H])Oc1c([H])c([H])c2c(c1[H])C([H])([H])N(C(=O)C([H])(N([H])C(=O)C([H])(N([H])C([H])([H])[H])C([H])([H])[H])C(C([H])([H])[H])(C([H])([H])[H])C([H])([H])[H])C([H])(C(=O)N([H])C1([H])c3c([H])c([H])c([H])c([H])c3C([H])([H])C([H])([H])C1([H])[H])C2([H])[H]

>  <smiles>  (67) 
[H]C(=C([H])C([H])([H])[N+]([H])([H])C1([H])C([H])([H])C([H])([H])C([H])([H])C([H])(N([H])C(=O)N2C([H])([H])C([H])([H])C([H])([H])C([H])(n3nc(-c4c([H])c([H])c(Oc5c([H])c([H])c(F)c([H])c5F)c([H])c4[H])c(C(=O)N([H])[H])c3N([H])[H])C2([H])[H])C1([H])N=C(N([H])[H])C([H])([H])C([H])([H])C([H])([H])[N+]([H])([H])[H])C([H])([H])Oc1c([H])c([H])c2c(c1[H])C([H])([H])N(C(=O)C([H])(N([H])C(=O)C([H])(N([H])C([H])([H])[H])C([H])([H])[H])C(C([H])([H])[H])(C([H])([H])[H])C([H])([H])[H])C([H])(C(=O)N([H])C1([H])c3c([H])c([H])c([H])c([H])c3C([H])([H])C([H])([H])C1([H])[H])C2([H])[H]

$$$$
68:0:0
     RDKit          3D

 91 99  0  0  1  0  0  0  0  0999 V2000
  -27.9910  -21.0810   21.3840 C   0  0  0  0  0  2  0  0  0  0  0  0
  -27.9970  -22.4720   20.7060 C   0  0  0  0  0  2  0  0  0  0  0  0
  -30.2070  -22.1680   19.7640 C   0  0  0  0  0  2  0  0  0  0  0  0
  -28.3200  -19.9170   20.4160 C   0  0  0  0  0  2  0  0  0  0  0  0
  -30.6610  -20.8360   20.4600 C   0  0  0  0  0  2  0  0  0  0  0  0
  -29.3390  -23.0560   20.5700 N   0  0  0  0  0  0  0  0  0  0  0  0
  -29.7760  -19.6480   20.2220 N   0  0  1  0  0  4  0  0  0  0  0  0
  -29.8680  -19.4650   19.2330 H   0  0  0  0  0  0  0  0  0  0  0  0
  -29.2810  -24.4110   19.9510 C   0  0  0  0  0  2  0  0  0  0  0  0
  -28.5770  -25.5300   20.7890 C   0  0  0  0  0  2  0  0  0  0  0  0
  -28.6690  -26.8570   20.2070 O   0  0  0  0  0  0  0  0  0  0  0  0
  -24.6920  -31.9620   23.2350 C   0  0  0  0  0  0  0  0  0  0  0  0
  -27.4970  -27.5930   20.1820 C   0  0  0  0  0  0  0  0  0  0  0  0
  -23.5470  -30.5380   21.5650 C   0  0  0  0  0  3  0  0  0  0  0  0
  -25.0640  -29.0520   20.1460 C   0  0  0  0  0  0  0  0  0  0  0  0
  -26.0650  -30.9700   21.4020 C   0  0  0  0  0  2  0  0  0  0  0  0
  -26.2010  -29.6020   20.7560 C   0  0  0  0  0  0  0  0  0  0  0  0
  -27.4220  -28.8820   20.7630 C   0  0  0  0  0  3  0  0  0  0  0  0
  -26.3460  -27.0680   19.5540 C   0  0  0  0  0  3  0  0  0  0  0  0
  -25.1350  -27.7870   19.5360 C   0  0  0  0  0  3  0  0  0  0  0  0
  -23.7930  -29.8730   20.1820 C   0  0  0  0  0  2  0  0  0  0  0  0
  -24.7840  -31.1730   22.1250 N   0  0  0  0  0  0  0  0  0  0  0  0
  -23.5960  -32.1980   23.7630 O   0  0  0  0  0  0  0  0  0  0  0  0
  -22.9130  -29.4930   22.5120 C   0  0  0  0  0  0  0  0  0  0  0  0
  -21.5990  -29.2590   22.3530 N   0  0  0  0  0  0  0  0  0  0  0  0
  -23.6000  -28.8940   23.3430 O   0  0  0  0  0  0  0  0  0  0  0  0
  -21.1020  -29.7970   21.6560 H   0  0  0  0  0  0  0  0  0  0  0  0
  -18.2600  -27.9430   22.7790 C   0  0  0  0  0  0  0  0  0  0  0  0
  -20.8020  -28.2910   23.1060 C   0  0  0  0  0  3  0  0  0  0  0  0
  -20.9670  -26.8660   22.5280 C   0  0  0  0  0  2  0  0  0  0  0  0
  -19.9000  -26.5080   21.4900 C   0  0  0  0  0  2  0  0  0  0  0  0
  -18.5000  -26.6020   22.1040 C   0  0  0  0  0  2  0  0  0  0  0  0
  -19.3420  -28.7430   23.2350 C   0  0  0  0  0  0  0  0  0  0  0  0
  -19.0660  -29.9950   23.8240 C   0  0  0  0  0  3  0  0  0  0  0  0
  -17.7410  -30.4500   23.9620 C   0  0  0  0  0  3  0  0  0  0  0  0
  -16.6740  -29.6470   23.5240 C   0  0  0  0  0  3  0  0  0  0  0  0
  -16.9340  -28.3960   22.9380 C   0  0  0  0  0  3  0  0  0  0  0  0
  -25.9520  -32.6260   23.8740 C   0  0  0  0  0  3  0  0  0  0  0  0
  -26.4640  -31.8710   25.1610 C   0  0  1  0  0  0  0  0  0  0  0  0
  -25.3570  -31.5970   26.2040 C   0  0  0  0  0  1  0  0  0  0  0  0
  -27.1030  -30.5130   24.7830 C   0  0  0  0  0  1  0  0  0  0  0  0
  -27.5730  -32.7010   25.8490 C   0  0  0  0  0  1  0  0  0  0  0  0
  -25.6060  -34.0180   24.1930 N   0  0  0  0  0  0  0  0  0  0  0  0
  -25.9320  -35.0740   23.4360 C   0  0  0  0  0  0  0  0  0  0  0  0
  -26.6250  -34.9810   22.4200 O   0  0  0  0  0  0  0  0  0  0  0  0
  -24.9910  -34.1630   24.9800 H   0  0  0  0  0  0  0  0  0  0  0  0
  -24.1820  -36.8320   23.0240 C   0  0  0  0  0  1  0  0  0  0  0  0
  -25.4050  -36.4530   23.8750 C   0  0  0  0  0  3  0  0  0  0  0  0
  -27.4880  -37.3850   24.7820 C   0  0  0  0  0  1  0  0  0  0  0  0
  -26.4210  -37.5250   23.7940 N   0  0  0  0  0  0  0  0  0  0  0  0
  -25.9910  -38.4380   23.9160 H   0  0  0  0  0  0  0  0  0  0  0  0
  -30.2300  -18.3660   20.8800 C   0  0  0  0  0  2  0  0  0  0  0  0
  -30.0540  -17.1170   19.9530 C   0  0  0  0  0  2  0  0  0  0  0  0
  -30.9220  -14.7480   20.1090 C   0  0  0  0  0  0  0  0  0  0  0  0
  -30.5990  -12.5810   18.9750 C   0  0  0  0  0  2  0  0  0  0  0  0
  -29.6150  -12.8110   17.8070 C   0  0  0  0  0  2  0  0  0  0  0  0
  -28.1540  -12.6820   18.2880 C   0  0  0  0  0  2  0  0  0  0  0  0
  -27.8740  -13.4900   19.5860 C   0  0  0  0  0  3  0  0  0  0  0  0
  -28.9740  -13.2370   20.6460 C   0  0  0  0  0  2  0  0  0  0  0  0
  -30.2760  -13.5480   20.0350 N   0  0  0  0  0  0  0  0  0  0  0  0
  -32.0220  -14.9480   19.5870 O   0  0  0  0  0  0  0  0  0  0  0  0
  -30.1710  -15.7720   20.5760 N   0  0  0  0  0  0  0  0  0  0  0  0
  -29.3520  -15.4720   21.0850 H   0  0  0  0  0  0  0  0  0  0  0  0
  -25.5220  -14.1150   20.4210 C   0  0  0  0  0  0  0  0  0  0  0  0
  -24.4550  -13.3520   20.8140 C   0  0  0  0  0  0  0  0  0  0  0  0
  -24.8870  -11.9940   20.7150 C   0  0  0  0  0  0  0  0  0  0  0  0
  -26.5360  -13.2240   20.1100 N   0  0  0  0  0  0  0  0  0  0  0  0
  -26.1600  -11.9400   20.3420 N   0  0  0  0  0  0  0  0  0  0  0  0
  -24.1440  -10.7400   20.8970 C   0  0  0  0  0  0  0  0  0  0  0  0
  -24.5480   -9.7750   21.8480 C   0  0  0  0  0  3  0  0  0  0  0  0
  -23.8100   -8.5830   22.0160 C   0  0  0  0  0  3  0  0  0  0  0  0
  -22.6540   -8.3490   21.2340 C   0  0  0  0  0  0  0  0  0  0  0  0
  -22.2680   -9.3020   20.2750 C   0  0  0  0  0  3  0  0  0  0  0  0
  -23.0070  -10.4860   20.1040 C   0  0  0  0  0  3  0  0  0  0  0  0
  -21.8860   -7.2120   21.3130 O   0  0  0  0  0  0  0  0  0  0  0  0
  -21.7440   -6.5180   22.4890 C   0  0  0  0  0  0  0  0  0  0  0  0
  -21.1710   -7.1070   23.6360 C   0  0  0  0  0  3  0  0  0  0  0  0
  -20.9800   -6.3380   24.8010 C   0  0  0  0  0  3  0  0  0  0  0  0
  -21.3510   -4.9800   24.8190 C   0  0  0  0  0  0  0  0  0  0  0  0
  -21.9150   -4.3900   23.6750 C   0  0  0  0  0  3  0  0  0  0  0  0
  -22.1080   -5.1570   22.5120 C   0  0  0  0  0  0  0  0  0  0  0  0
  -22.6350   -4.5770   21.4060 F   0  0  0  0  0  0  0  0  0  0  0  0
  -21.1600   -4.2390   25.9360 F   0  0  0  0  0  0  0  0  0  0  0  0
  -23.0810  -13.8450   21.1690 C   0  0  0  0  0  0  0  0  0  0  0  0
  -22.3800  -13.1350   22.0460 N   0  0  0  0  0  0  0  0  0  0  0  0
  -22.6390  -14.8930   20.7000 O   0  0  0  0  0  0  0  0  0  0  0  0
  -22.7530  -12.2870   22.4480 H   0  0  0  0  0  0  0  0  0  0  0  0
  -21.4580  -13.4430   22.3200 H   0  0  0  0  0  0  0  0  0  0  0  0
  -25.7100  -15.4890   20.2930 N   0  0  0  0  0  0  0  0  0  0  0  0
  -24.9680  -16.1550   20.4700 H   0  0  0  0  0  0  0  0  0  0  0  0
  -26.5500  -15.9210   19.9350 H   0  0  0  0  0  0  0  0  0  0  0  0
  2  1  1  0
  3  5  1  0
  3  6  1  0
  4  1  1  0
  6  2  1  0
  7  4  1  0
  7  5  1  0
  7 52  1  0
  7  8  1  6
  9  6  1  0
  9 10  1  0
 11 10  1  0
 12 23  2  0
 13 11  1  0
 13 18  1  0
 14 22  1  0
 14 24  1  0
 15 21  1  0
 15 17  1  0
 16 22  1  0
 17 18  2  0
 17 16  1  0
 19 13  2  0
 20 19  1  0
 20 15  2  0
 21 14  1  0
 22 12  1  0
 24 26  2  0
 25 24  1  0
 27 25  1  0
 28 37  2  0
 28 33  1  0
 29 25  1  0
 29 33  1  0
 30 29  1  0
 31 32  1  0
 31 30  1  0
 32 28  1  0
 33 34  2  0
 34 35  1  0
 36 35  2  0
 37 36  1  0
 38 12  1  0
 38 43  1  0
 38 39  1  0
 39 42  1  1
 39 40  1  0
 41 39  1  0
 43 46  1  0
 44 48  1  0
 44 43  1  0
 45 44  2  0
 48 47  1  0
 50 48  1  0
 50 51  1  0
 50 49  1  0
 53 62  1  0
 53 52  1  0
 54 62  1  0
 55 60  1  0
 56 57  1  0
 56 55  1  0
 58 57  1  0
 58 67  1  0
 58 59  1  0
 60 54  1  0
 60 59  1  0
 61 54  2  0
 62 63  1  0
 64 65  2  0
 65 84  1  0
 66 65  1  0
 66 69  1  0
 67 68  1  0
 67 64  1  0
 68 66  2  0
 69 70  1  0
 70 71  2  0
 72 75  1  0
 72 71  1  0
 73 72  2  0
 74 73  1  0
 74 69  2  0
 75 76  1  0
 76 81  2  0
 76 77  1  0
 77 78  2  0
 78 79  1  0
 79 83  1  0
 80 79  2  0
 81 80  1  0
 82 81  1  0
 84 85  1  0
 85 88  1  0
 85 87  1  0
 86 84  2  0
 89 64  1  0
 89 90  1  0
 91 89  1  0
M  ISO  4  10 101  11 101  54 100  62 100
M  END
>  <TORSDO>  (68) 
F 20

>  <SCORE>  (68) 
-13.141

>  <name>  (68) 
68

>  <ligand_id>  (68) 
68

>  <original_smiles>  (68) 
[H]c1c([H])c([H])c2c(c1[H])C([H])([H])C([H])([H])C([H])([H])C2([H])N([H])C(=O)C1([H])N(C(=O)C([H])(N([H])C(=O)C([H])(N([H])C([H])([H])[H])C([H])([H])[H])C(C([H])([H])[H])(C([H])([H])[H])C([H])([H])[H])C([H])([H])c2c([H])c(OC([H])([H])C([H])([H])N3C([H])([H])C([H])([H])C([H])([H])[N+]([H])(C([H])([H])C([H])([H])N([H])C(=O)N4C([H])([H])C([H])([H])C([H])([H])C([H])(n5nc(-c6c([H])c([H])c(Oc7c([H])c([H])c(F)c([H])c7F)c([H])c6[H])c(C(=O)N([H])[H])c5N([H])[H])C4([H])[H])C([H])([H])C3([H])[H])c([H])c([H])c2C1([H])[H]

>  <smiles>  (68) 
[H]c1c([H])c([H])c2c(c1[H])C([H])([H])C([H])([H])C([H])([H])C2([H])N([H])C(=O)C1([H])N(C(=O)C([H])(N([H])C(=O)C([H])(N([H])C([H])([H])[H])C([H])([H])[H])C(C([H])([H])[H])(C([H])([H])[H])C([H])([H])[H])C([H])([H])c2c([H])c(OC([H])([H])C([H])([H])N3C([H])([H])C([H])([H])C([H])([H])[N+]([H])(C([H])([H])C([H])([H])N([H])C(=O)N4C([H])([H])C([H])([H])C([H])([H])C([H])(n5nc(-c6c([H])c([H])c(Oc7c([H])c([H])c(F)c([H])c7F)c([H])c6[H])c(C(=O)N([H])[H])c5N([H])[H])C4([H])[H])C([H])([H])C3([H])[H])c([H])c([H])c2C1([H])[H]

$$$$
69:0:0
     RDKit          3D

 99107  0  0  1  0  0  0  0  0999 V2000
  -26.6780  -19.4640   18.9580 C   0  0  0  0  0  2  0  0  0  0  0  0
  -27.2420  -20.8490   19.2600 C   0  0  0  0  0  2  0  0  0  0  0  0
  -27.6780  -18.4770   19.5650 C   0  0  0  0  0  2  0  0  0  0  0  0
  -28.3410  -20.6320   20.3140 C   0  0  0  0  0  3  0  0  0  0  0  0
  -28.8670  -19.2410   20.0210 N   0  0  1  0  0  4  0  0  0  0  0  0
  -29.4630  -19.3380   19.2130 H   0  0  0  0  0  0  0  0  0  0  0  0
  -29.3520  -21.8510   20.4100 C   0  0  0  0  0  2  0  0  0  0  0  0
  -29.2170  -22.9800   19.4270 N   0  0  0  0  0  0  0  0  0  0  0  0
  -30.7990  -22.0330   17.7600 C   0  0  0  0  0  1  0  0  0  0  0  0
  -30.5160  -23.1640   18.7590 C   0  0  0  0  0  2  0  0  0  0  0  0
  -28.7550  -24.2710   20.0390 C   0  0  0  0  0  3  0  0  0  0  0  0
  -28.4770  -25.4990   19.0680 C   0  0  0  0  0  3  0  0  0  0  0  0
  -28.3400  -26.8190   19.6840 O   0  0  0  0  0  0  0  0  0  0  0  0
  -24.5180  -31.8000   23.1390 C   0  0  0  0  0  0  0  0  0  0  0  0
  -27.1440  -27.5380   19.7180 C   0  0  0  0  0  0  0  0  0  0  0  0
  -23.2870  -30.4550   21.4710 C   0  0  0  0  0  3  0  0  0  0  0  0
  -24.7200  -29.0320   19.9050 C   0  0  0  0  0  0  0  0  0  0  0  0
  -25.8000  -30.8760   21.1980 C   0  0  0  0  0  2  0  0  0  0  0  0
  -25.8920  -29.5390   20.4780 C   0  0  0  0  0  0  0  0  0  0  0  0
  -27.1020  -28.7990   20.3810 C   0  0  0  0  0  3  0  0  0  0  0  0
  -25.9410  -27.0610   19.1470 C   0  0  0  0  0  3  0  0  0  0  0  0
  -24.7440  -27.7970   19.2380 C   0  0  0  0  0  3  0  0  0  0  0  0
  -23.4590  -29.8580   20.0500 C   0  0  0  0  0  2  0  0  0  0  0  0
  -24.5570  -31.0570   21.9950 N   0  0  0  0  0  0  0  0  0  0  0  0
  -23.4510  -32.0130   23.7310 O   0  0  0  0  0  0  0  0  0  0  0  0
  -22.6970  -29.3680   22.4000 C   0  0  0  0  0  0  0  0  0  0  0  0
  -21.3830  -29.1210   22.2750 N   0  0  0  0  0  0  0  0  0  0  0  0
  -23.4200  -28.7500   23.1850 O   0  0  0  0  0  0  0  0  0  0  0  0
  -20.8560  -29.6760   21.6150 H   0  0  0  0  0  0  0  0  0  0  0  0
  -18.0990  -27.6640   22.6920 C   0  0  0  0  0  0  0  0  0  0  0  0
  -20.6250  -28.1110   23.0160 C   0  0  0  0  0  3  0  0  0  0  0  0
  -20.8450  -26.7010   22.4190 C   0  0  0  0  0  2  0  0  0  0  0  0
  -19.7900  -26.3130   21.3800 C   0  0  0  0  0  2  0  0  0  0  0  0
  -18.3900  -26.3430   21.9980 C   0  0  0  0  0  2  0  0  0  0  0  0
  -19.1480  -28.5020   23.1540 C   0  0  0  0  0  0  0  0  0  0  0  0
  -18.8250  -29.7350   23.7600 C   0  0  0  0  0  3  0  0  0  0  0  0
  -17.4840  -30.1350   23.9090 C   0  0  0  0  0  3  0  0  0  0  0  0
  -16.4490  -29.2950   23.4630 C   0  0  0  0  0  3  0  0  0  0  0  0
  -16.7570  -28.0620   22.8610 C   0  0  0  0  0  3  0  0  0  0  0  0
  -25.8080  -32.4340   23.7440 C   0  0  0  0  0  3  0  0  0  0  0  0
  -26.3680  -31.6370   24.9860 C   0  0  1  0  0  0  0  0  0  0  0  0
  -25.3080  -31.3550   26.0750 C   0  0  0  0  0  1  0  0  0  0  0  0
  -26.9580  -30.2790   24.5390 C   0  0  0  0  0  1  0  0  0  0  0  0
  -27.5290  -32.4270   25.6360 C   0  0  0  0  0  1  0  0  0  0  0  0
  -25.4870  -33.8180   24.1190 N   0  0  0  0  0  0  0  0  0  0  0  0
  -25.8010  -34.8970   23.3900 C   0  0  0  0  0  0  0  0  0  0  0  0
  -26.4610  -34.8320   22.3500 O   0  0  0  0  0  0  0  0  0  0  0  0
  -24.8950  -33.9430   24.9270 H   0  0  0  0  0  0  0  0  0  0  0  0
  -24.0460  -36.6780   23.1100 C   0  0  0  0  0  1  0  0  0  0  0  0
  -25.3030  -36.2650   23.8930 C   0  0  0  0  0  3  0  0  0  0  0  0
  -27.4400  -37.1480   24.7190 C   0  0  0  0  0  1  0  0  0  0  0  0
  -26.3210  -37.3350   23.7990 N   0  0  0  0  0  0  0  0  0  0  0  0
  -25.9060  -38.2440   23.9860 H   0  0  0  0  0  0  0  0  0  0  0  0
  -29.6720  -18.5090   21.0810 C   0  0  0  0  0  2  0  0  0  0  0  0
  -29.6600  -16.8980   21.1330 C   0  0  0  0  0  2  0  0  0  0  0  0
  -31.1900  -14.9130   20.8040 C   0  0  0  0  0  0  0  0  0  0  0  0
  -30.9440  -12.6170   19.9250 C   0  0  0  0  0  2  0  0  0  0  0  0
  -30.1600  -12.6480   18.6010 C   0  0  0  0  0  2  0  0  0  0  0  0
  -28.6420  -12.5800   18.8660 C   0  0  0  0  0  2  0  0  0  0  0  0
  -28.1640  -13.5460   19.9840 C   0  0  0  0  0  3  0  0  0  0  0  0
  -29.0990  -13.5140   21.2120 C   0  0  0  0  0  2  0  0  0  0  0  0
  -30.4630  -13.7580   20.7240 N   0  0  0  0  0  0  0  0  0  0  0  0
  -32.4220  -14.8590   20.7910 O   0  0  0  0  0  0  0  0  0  0  0  0
  -30.6090  -16.0740   20.3100 N   0  0  0  0  0  0  0  0  0  0  0  0
  -25.7270  -14.2110   20.4450 C   0  0  0  0  0  0  0  0  0  0  0  0
  -24.6110  -13.4700   20.7230 C   0  0  0  0  0  0  0  0  0  0  0  0
  -25.0420  -12.1100   20.7760 C   0  0  0  0  0  0  0  0  0  0  0  0
  -26.7700  -13.3050   20.3450 N   0  0  0  0  0  0  0  0  0  0  0  0
  -26.3580  -12.0390   20.6100 N   0  0  0  0  0  0  0  0  0  0  0  0
  -24.2690  -10.8690   20.9150 C   0  0  0  0  0  0  0  0  0  0  0  0
  -24.6150   -9.8840   21.8660 C   0  0  0  0  0  3  0  0  0  0  0  0
  -23.8410   -8.7100   21.9960 C   0  0  0  0  0  3  0  0  0  0  0  0
  -22.7100   -8.5100   21.1700 C   0  0  0  0  0  0  0  0  0  0  0  0
  -22.3850   -9.4830   20.2060 C   0  0  0  0  0  3  0  0  0  0  0  0
  -23.1590  -10.6490   20.0760 C   0  0  0  0  0  3  0  0  0  0  0  0
  -21.9180   -7.3880   21.2050 O   0  0  0  0  0  0  0  0  0  0  0  0
  -21.7840   -6.6390   22.3450 C   0  0  0  0  0  0  0  0  0  0  0  0
  -21.3410   -7.2050   23.5600 C   0  0  0  0  0  3  0  0  0  0  0  0
  -21.1480   -6.3850   24.6900 C   0  0  0  0  0  3  0  0  0  0  0  0
  -21.3930   -5.0010   24.6070 C   0  0  0  0  0  0  0  0  0  0  0  0
  -21.8290   -4.4340   23.3960 C   0  0  0  0  0  3  0  0  0  0  0  0
  -22.0200   -5.2510   22.2680 C   0  0  0  0  0  0  0  0  0  0  0  0
  -22.4200   -4.6980   21.0970 F   0  0  0  0  0  0  0  0  0  0  0  0
  -21.2000   -4.2120   25.6890 F   0  0  0  0  0  0  0  0  0  0  0  0
  -23.2030  -13.9840   20.8280 C   0  0  0  0  0  0  0  0  0  0  0  0
  -22.3770  -13.3380   21.6440 N   0  0  0  0  0  0  0  0  0  0  0  0
  -22.8420  -14.9920   20.2230 O   0  0  0  0  0  0  0  0  0  0  0  0
  -22.6830  -12.5240   22.1550 H   0  0  0  0  0  0  0  0  0  0  0  0
  -21.4280  -13.6620   21.7570 H   0  0  0  0  0  0  0  0  0  0  0  0
  -25.9360  -15.5720   20.2390 N   0  0  0  0  0  0  0  0  0  0  0  0
  -25.1600  -16.2250   20.2140 H   0  0  0  0  0  0  0  0  0  0  0  0
  -26.7890  -15.9440   19.8500 H   0  0  0  0  0  0  0  0  0  0  0  0
  -31.3880  -16.8980   19.3450 C   0  0  0  0  0  2  0  0  0  0  0  0
  -32.1660  -16.1570   18.2240 C   0  0  0  0  0  2  0  0  0  0  0  0
  -31.3610  -15.9620   16.9180 C   0  0  0  0  0  2  0  0  0  0  0  0
  -32.1960  -15.4290   15.8300 N   0  0  0  0  0  4  0  0  0  0  0  0
  -32.9010  -16.0920   15.5560 H   0  0  0  0  0  0  0  0  0  0  0  0
  -31.6290  -15.2420   15.0210 H   0  0  0  0  0  0  0  0  0  0  0  0
  -32.6510  -14.5740   16.0990 H   0  0  0  0  0  0  0  0  0  0  0  0
  1  2  1  0
  1  3  1  0
  2  4  1  0
  3  5  1  0
  4  7  1  0
  5  4  1  0
  5 54  1  0
  5  6  1  6
  8 11  1  0
  8  7  1  0
  9 10  1  0
 10  8  1  0
 12 13  1  0
 12 11  2  0
 13 15  1  0
 14 25  2  0
 15 20  1  0
 16 24  1  0
 16 26  1  0
 17 23  1  0
 17 19  1  0
 18 24  1  0
 19 18  1  0
 20 19  2  0
 21 22  1  0
 21 15  2  0
 22 17  2  0
 23 16  1  0
 24 14  1  0
 26 28  2  0
 27 26  1  0
 29 27  1  0
 30 39  2  0
 30 35  1  0
 31 27  1  0
 31 35  1  0
 32 31  1  0
 33 34  1  0
 33 32  1  0
 34 30  1  0
 35 36  2  0
 36 37  1  0
 38 37  2  0
 39 38  1  0
 40 14  1  0
 40 45  1  0
 40 41  1  0
 41 44  1  1
 41 42  1  0
 43 41  1  0
 45 48  1  0
 46 50  1  0
 46 45  1  0
 47 46  2  0
 50 49  1  0
 52 50  1  0
 52 53  1  0
 52 51  1  0
 54 55  1  0
 57 62  1  0
 58 59  1  0
 58 57  1  0
 60 59  1  0
 60 68  1  0
 60 61  1  0
 62 56  1  0
 62 61  1  0
 63 56  2  0
 64 56  1  0
 64 55  1  0
 65 66  2  0
 66 67  1  0
 66 85  1  0
 67 70  1  0
 68 65  1  0
 68 69  1  0
 69 67  2  0
 70 71  1  0
 71 72  2  0
 73 76  1  0
 73 72  1  0
 74 73  2  0
 75 74  1  0
 75 70  2  0
 76 77  1  0
 77 78  1  0
 78 79  2  0
 80 79  1  0
 80 84  1  0
 81 80  2  0
 82 77  2  0
 82 81  1  0
 83 82  1  0
 85 86  1  0
 86 89  1  0
 86 88  1  0
 87 85  2  0
 90 65  1  0
 91 90  1  0
 92 90  1  0
 93 64  1  0
 94 93  1  0
 95 94  1  0
 96 99  1  0
 96 95  1  0
 97 96  1  0
 98 96  1  0
M  ISO  4  12 101  13 101  56 100  64 100
M  END
>  <TORSDO>  (69) 
F 27

>  <SCORE>  (69) 
-10.804

>  <name>  (69) 
69

>  <ligand_id>  (69) 
69

>  <original_smiles>  (69) 
[H]c1c([H])c([H])c2c(c1[H])C([H])([H])C([H])([H])C([H])([H])C2([H])N([H])C(=O)C1([H])N(C(=O)C([H])(N([H])C(=O)C([H])(N([H])C([H])([H])[H])C([H])([H])[H])C(C([H])([H])[H])(C([H])([H])[H])C([H])([H])[H])C([H])([H])c2c([H])c(OC([H])([H])C([H])([H])N(C([H])([H])C([H])([H])[H])C([H])([H])C3([H])C([H])([H])C([H])([H])C([H])([H])[N+]3([H])C([H])([H])C([H])([H])N(C(=O)N3C([H])([H])C([H])([H])C([H])([H])C([H])(n4nc(-c5c([H])c([H])c(Oc6c([H])c([H])c(F)c([H])c6F)c([H])c5[H])c(C(=O)N([H])[H])c4N([H])[H])C3([H])[H])C([H])([H])C([H])([H])C([H])([H])[N+]([H])([H])[H])c([H])c([H])c2C1([H])[H]

>  <smiles>  (69) 
[H]c1c([H])c([H])c2c(c1[H])C([H])([H])C([H])([H])C([H])([H])C2([H])N([H])C(=O)C1([H])N(C(=O)C([H])(N([H])C(=O)C([H])(N([H])C([H])([H])[H])C([H])([H])[H])C(C([H])([H])[H])(C([H])([H])[H])C([H])([H])[H])C([H])([H])c2c([H])c(OC([H])([H])C([H])([H])N(C([H])([H])C([H])([H])[H])C([H])([H])C3([H])C([H])([H])C([H])([H])C([H])([H])[N+]3([H])C([H])([H])C([H])([H])N(C(=O)N3C([H])([H])C([H])([H])C([H])([H])C([H])(n4nc(-c5c([H])c([H])c(Oc6c([H])c([H])c(F)c([H])c6F)c([H])c5[H])c(C(=O)N([H])[H])c4N([H])[H])C3([H])[H])C([H])([H])C([H])([H])C([H])([H])[N+]([H])([H])[H])c([H])c([H])c2C1([H])[H]

$$$$
70:0:0
     RDKit          3D

102111  0  0  1  0  0  0  0  0999 V2000
  -31.3290  -18.9950   17.8600 C   0  0  0  0  0  2  0  0  0  0  0  0
  -31.3750  -20.3780   18.4210 N   0  0  0  0  0  4  0  0  0  0  0  0
  -31.4730  -20.3350   19.4210 H   0  0  0  0  0  0  0  0  0  0  0  0
  -32.1890  -20.8470   18.0570 H   0  0  0  0  0  0  0  0  0  0  0  0
  -30.1580  -21.1730   18.0920 C   0  0  0  0  0  2  0  0  0  0  0  0
  -29.0400  -23.4040   17.6650 C   0  0  0  0  0  2  0  0  0  0  0  0
  -30.1040  -23.0150   19.9290 C   0  0  0  0  0  2  0  0  0  0  0  0
  -28.8920  -24.9020   17.9950 C   0  0  0  0  0  2  0  0  0  0  0  0
  -29.9580  -24.5280   20.2220 C   0  0  0  0  0  2  0  0  0  0  0  0
  -30.2020  -22.6980   18.4160 C   0  0  0  0  0  3  0  0  0  0  0  0
  -28.7300  -25.1180   19.5070 C   0  0  0  0  0  3  0  0  0  0  0  0
  -28.6240  -26.5170   19.7940 O   0  0  0  0  0  0  0  0  0  0  0  0
  -24.6300  -31.5090   22.8760 C   0  0  0  0  0  0  0  0  0  0  0  0
  -27.3930  -27.1500   19.7760 C   0  0  0  0  0  0  0  0  0  0  0  0
  -23.4470  -30.0600   21.2570 C   0  0  0  0  0  3  0  0  0  0  0  0
  -24.9330  -28.5620   19.8210 C   0  0  0  0  0  0  0  0  0  0  0  0
  -25.9550  -30.5030   21.0240 C   0  0  0  0  0  2  0  0  0  0  0  0
  -26.0780  -29.1310   20.3910 C   0  0  0  0  0  0  0  0  0  0  0  0
  -27.3030  -28.4310   20.3690 C   0  0  0  0  0  3  0  0  0  0  0  0
  -26.2260  -26.5960   19.1940 C   0  0  0  0  0  3  0  0  0  0  0  0
  -25.0010  -27.2920   19.2230 C   0  0  0  0  0  3  0  0  0  0  0  0
  -23.6590  -29.3760   19.8790 C   0  0  0  0  0  2  0  0  0  0  0  0
  -24.6960  -30.7060   21.7770 N   0  0  0  0  0  0  0  0  0  0  0  0
  -23.5470  -31.7490   23.4300 O   0  0  0  0  0  0  0  0  0  0  0  0
  -22.8420  -29.0250   22.2310 C   0  0  0  0  0  0  0  0  0  0  0  0
  -21.5170  -28.8240   22.1440 N   0  0  0  0  0  0  0  0  0  0  0  0
  -23.5610  -28.4040   23.0200 O   0  0  0  0  0  0  0  0  0  0  0  0
  -20.9970  -29.3780   21.4770 H   0  0  0  0  0  0  0  0  0  0  0  0
  -18.1770  -27.5850   22.7420 C   0  0  0  0  0  0  0  0  0  0  0  0
  -20.7380  -27.8710   22.9340 C   0  0  0  0  0  3  0  0  0  0  0  0
  -20.8380  -26.4450   22.3410 C   0  0  0  0  0  2  0  0  0  0  0  0
  -19.7080  -26.1180   21.3620 C   0  0  0  0  0  2  0  0  0  0  0  0
  -18.3460  -26.2430   22.0510 C   0  0  0  0  0  2  0  0  0  0  0  0
  -19.3000  -28.3560   23.1430 C   0  0  0  0  0  0  0  0  0  0  0  0
  -19.0870  -29.6140   23.7480 C   0  0  0  0  0  3  0  0  0  0  0  0
  -17.7830  -30.1000   23.9600 C   0  0  0  0  0  3  0  0  0  0  0  0
  -16.6740  -29.3260   23.5760 C   0  0  0  0  0  3  0  0  0  0  0  0
  -16.8720  -28.0700   22.9730 C   0  0  0  0  0  3  0  0  0  0  0  0
  -25.9040  -32.1830   23.4760 C   0  0  0  0  0  3  0  0  0  0  0  0
  -25.5400  -33.5520   23.8620 N   0  0  0  0  0  0  0  0  0  0  0  0
  -25.8280  -34.6460   23.1450 C   0  0  0  0  0  0  0  0  0  0  0  0
  -26.5010  -34.6110   22.1100 O   0  0  0  0  0  0  0  0  0  0  0  0
  -24.9390  -33.6510   24.6670 H   0  0  0  0  0  0  0  0  0  0  0  0
  -24.0280  -36.3780   22.8570 C   0  0  0  0  0  1  0  0  0  0  0  0
  -25.2840  -35.9940   23.6550 C   0  0  0  0  0  3  0  0  0  0  0  0
  -27.3790  -36.9310   24.5260 C   0  0  0  0  0  1  0  0  0  0  0  0
  -26.2730  -37.0920   23.5860 N   0  0  0  0  0  0  0  0  0  0  0  0
  -25.8300  -37.9880   23.7660 H   0  0  0  0  0  0  0  0  0  0  0  0
  -26.5030  -31.3960   24.7060 C   0  0  1  0  0  0  0  0  0  0  0  0
  -25.4640  -31.0810   25.8060 C   0  0  0  0  0  1  0  0  0  0  0  0
  -27.1270  -30.0570   24.2460 C   0  0  0  0  0  1  0  0  0  0  0  0
  -27.6470  -32.2170   25.3460 C   0  0  0  0  0  1  0  0  0  0  0  0
  -32.3040  -17.9750   18.5090 C   0  0  0  0  0  2  0  0  0  0  0  0
  -31.8120  -16.5000   18.3290 C   0  0  0  0  0  2  0  0  0  0  0  0
  -32.1460  -14.5140   19.7410 C   0  0  0  0  0  0  0  0  0  0  0  0
  -31.5730  -12.2600   18.9150 C   0  0  0  0  0  2  0  0  0  0  0  0
  -30.5800  -12.3910   17.7390 C   0  0  0  0  0  2  0  0  0  0  0  0
  -29.1210  -12.4970   18.2360 C   0  0  0  0  0  2  0  0  0  0  0  0
  -28.9510  -13.5100   19.4030 C   0  0  0  0  0  3  0  0  0  0  0  0
  -30.0370  -13.2550   20.4730 C   0  0  0  0  0  2  0  0  0  0  0  0
  -31.3380  -13.4110   19.8050 N   0  0  0  0  0  0  0  0  0  0  0  0
  -33.3140  -14.4110   19.3510 O   0  0  0  0  0  0  0  0  0  0  0  0
  -31.5300  -15.7310   19.5740 N   0  0  0  0  0  0  0  0  0  0  0  0
  -30.9560  -17.9110   22.7180 C   0  0  0  0  0  2  0  0  0  0  0  0
  -29.8940  -18.8620   22.1530 C   0  0  0  0  0  2  0  0  0  0  0  0
  -31.7230  -17.2250   21.5810 C   0  0  0  0  0  2  0  0  0  0  0  0
  -29.6190  -17.3830   20.1230 C   0  0  0  0  0  2  0  0  0  0  0  0
  -28.8770  -18.1190   21.2620 C   0  0  0  0  0  3  0  0  0  0  0  0
  -30.7690  -16.4590   20.6330 C   0  0  0  0  0  3  0  0  0  0  0  0
  -27.8230  -19.1160   20.7220 C   0  0  0  0  0  2  0  0  0  0  0  0
  -26.7710  -18.4740   19.9170 N   0  0  0  0  0  4  0  0  0  0  0  0
  -27.1520  -18.0240   19.1050 H   0  0  0  0  0  0  0  0  0  0  0  0
  -26.1170  -19.1680   19.6030 H   0  0  0  0  0  0  0  0  0  0  0  0
  -26.2720  -17.7980   20.4710 H   0  0  0  0  0  0  0  0  0  0  0  0
  -26.7630  -14.5120   20.3140 C   0  0  0  0  0  0  0  0  0  0  0  0
  -25.5810  -13.9350   20.7000 C   0  0  0  0  0  0  0  0  0  0  0  0
  -25.7570  -12.5300   20.5260 C   0  0  0  0  0  0  0  0  0  0  0  0
  -27.5990  -13.4660   19.9570 N   0  0  0  0  0  0  0  0  0  0  0  0
  -26.9960  -12.2630   20.1330 N   0  0  0  0  0  0  0  0  0  0  0  0
  -24.7970  -11.4280   20.6570 C   0  0  0  0  0  0  0  0  0  0  0  0
  -25.0930  -10.2830   21.4280 C   0  0  0  0  0  3  0  0  0  0  0  0
  -24.1480   -9.2430   21.5570 C   0  0  0  0  0  3  0  0  0  0  0  0
  -22.8920   -9.3430   20.9160 C   0  0  0  0  0  0  0  0  0  0  0  0
  -22.6110  -10.4750   20.1310 C   0  0  0  0  0  3  0  0  0  0  0  0
  -23.5560  -11.5060   19.9960 C   0  0  0  0  0  3  0  0  0  0  0  0
  -21.9230   -8.3690   20.9630 O   0  0  0  0  0  0  0  0  0  0  0  0
  -21.7970   -7.5340   22.0440 C   0  0  0  0  0  0  0  0  0  0  0  0
  -21.5840   -8.0320   23.3480 C   0  0  0  0  0  3  0  0  0  0  0  0
  -21.3860   -7.1380   24.4190 C   0  0  0  0  0  3  0  0  0  0  0  0
  -21.3940   -5.7490   24.1900 C   0  0  0  0  0  0  0  0  0  0  0  0
  -21.6020   -5.2510   22.8920 C   0  0  0  0  0  3  0  0  0  0  0  0
  -21.7990   -6.1410   21.8220 C   0  0  0  0  0  0  0  0  0  0  0  0
  -21.9740   -5.6540   20.5690 F   0  0  0  0  0  0  0  0  0  0  0  0
  -21.1970   -4.8910   25.2190 F   0  0  0  0  0  0  0  0  0  0  0  0
  -24.3300  -14.6570   21.1110 C   0  0  0  0  0  0  0  0  0  0  0  0
  -23.5290  -14.0490   21.9780 N   0  0  0  0  0  0  0  0  0  0  0  0
  -24.0860  -15.7900   20.6970 O   0  0  0  0  0  0  0  0  0  0  0  0
  -23.7410  -13.1270   22.3280 H   0  0  0  0  0  0  0  0  0  0  0  0
  -22.6860  -14.5100   22.2980 H   0  0  0  0  0  0  0  0  0  0  0  0
  -27.1750  -15.8360   20.2060 N   0  0  0  0  0  0  0  0  0  0  0  0
  -26.4190  -16.5040   20.1040 H   0  0  0  0  0  0  0  0  0  0  0  0
  -27.9500  -16.0270   19.5860 H   0  0  0  0  0  0  0  0  0  0  0  0
  1  2  1  0
  1 53  1  0
  2  3  1  0
  4  2  1  0
  5  2  1  0
  6  8  1  0
  6 10  1  0
  7  9  1  0
  8 11  1  0
 10  5  1  0
 10  7  1  0
 11 12  1  0
 11  9  1  0
 13 24  2  0
 14 12  1  0
 14 19  1  0
 15 23  1  0
 15 25  1  0
 16 22  1  0
 16 18  1  0
 17 23  1  0
 18 17  1  0
 19 18  2  0
 20 21  1  0
 20 14  2  0
 21 16  2  0
 22 15  1  0
 23 13  1  0
 25 27  2  0
 26 25  1  0
 28 26  1  0
 29 38  2  0
 29 34  1  0
 30 26  1  0
 30 34  1  0
 31 30  1  0
 32 33  1  0
 32 31  1  0
 33 29  1  0
 34 35  2  0
 35 36  1  0
 37 36  2  0
 38 37  1  0
 39 13  1  0
 39 40  1  0
 39 49  1  0
 40 43  1  0
 41 45  1  0
 41 40  1  0
 42 41  2  0
 45 44  1  0
 47 45  1  0
 47 48  1  0
 47 46  1  0
 49 52  1  1
 49 50  1  0
 51 49  1  0
 54 53  1  0
 54 63  1  0
 55 61  1  0
 56 61  1  0
 57 58  1  0
 57 56  1  0
 59 58  1  0
 59 78  1  0
 59 60  1  0
 61 60  1  0
 62 55  2  0
 63 55  1  0
 65 64  1  0
 66 64  1  0
 67 69  1  0
 67 68  1  0
 68 70  1  0
 68 65  1  0
 69 63  1  0
 69 66  1  0
 71 74  1  0
 71 70  1  0
 72 71  1  0
 73 71  1  0
 75 76  2  0
 76 95  1  0
 77 80  1  0
 77 76  1  0
 78 79  1  0
 78 75  1  0
 79 77  2  0
 80 81  1  0
 81 82  2  0
 83 86  1  0
 83 82  1  0
 84 83  2  0
 85 84  1  0
 85 80  2  0
 86 87  1  0
 87 88  1  0
 88 89  2  0
 90 89  1  0
 90 94  1  0
 91 90  2  0
 92 87  2  0
 92 91  1  0
 93 92  1  0
 95 96  1  0
 96 99  1  0
 96 98  1  0
 97 95  2  0
100 75  1  0
101100  1  0
102100  1  0
M  ISO  4  11 101  12 101  55 100  63 100
M  END
>  <TORSDO>  (70) 
F 24

>  <SCORE>  (70) 
-8.956

>  <name>  (70) 
70

>  <ligand_id>  (70) 
70

>  <original_smiles>  (70) 
[H]c1c([H])c([H])c2c(c1[H])C([H])([H])C([H])([H])C([H])([H])C2([H])N([H])C(=O)C1([H])N(C(=O)C([H])(N([H])C(=O)C([H])(N([H])C([H])([H])[H])C([H])([H])[H])C(C([H])([H])[H])(C([H])([H])[H])C([H])([H])[H])C([H])([H])c2c([H])c(OC3([H])C([H])([H])C([H])([H])C([H])(C([H])([H])[N+]([H])([H])C([H])([H])C([H])([H])C([H])([H])N(C(=O)N4C([H])([H])C([H])([H])C([H])([H])C([H])(n5nc(-c6c([H])c([H])c(Oc7c([H])c([H])c(F)c([H])c7F)c([H])c6[H])c(C(=O)N([H])[H])c5N([H])[H])C4([H])[H])C4([H])C([H])([H])C([H])([H])C([H])([H])C([H])(C([H])([H])[N+]([H])([H])[H])C4([H])[H])C([H])([H])C3([H])[H])c([H])c([H])c2C1([H])[H]

>  <smiles>  (70) 
[H]c1c([H])c([H])c2c(c1[H])C([H])([H])C([H])([H])C([H])([H])C2([H])N([H])C(=O)C1([H])N(C(=O)C([H])(N([H])C(=O)C([H])(N([H])C([H])([H])[H])C([H])([H])[H])C(C([H])([H])[H])(C([H])([H])[H])C([H])([H])[H])C([H])([H])c2c([H])c(OC3([H])C([H])([H])C([H])([H])C([H])(C([H])([H])[N+]([H])([H])C([H])([H])C([H])([H])C([H])([H])N(C(=O)N4C([H])([H])C([H])([H])C([H])([H])C([H])(n5nc(-c6c([H])c([H])c(Oc7c([H])c([H])c(F)c([H])c7F)c([H])c6[H])c(C(=O)N([H])[H])c5N([H])[H])C4([H])[H])C4([H])C([H])([H])C([H])([H])C([H])([H])C([H])(C([H])([H])[N+]([H])([H])[H])C4([H])[H])C([H])([H])C3([H])[H])c([H])c([H])c2C1([H])[H]

$$$$
71:0:0
     RDKit          3D

100109  0  0  1  0  0  0  0  0999 V2000
  -29.7170  -20.7520   21.0880 C   0  0  0  0  0  2  0  0  0  0  0  0
  -28.7210  -20.4810   19.3610 C   0  0  0  0  0  3  0  0  0  0  0  0
  -29.5090  -21.7220   19.8860 C   0  0  0  0  0  3  0  0  0  0  0  0
  -29.6560  -19.6270   20.1230 N   0  0  2  0  0  4  0  0  0  0  0  0
  -30.5130  -19.5620   19.5950 H   0  0  0  0  0  0  0  0  0  0  0  0
  -28.7990  -20.2320   17.8740 C   0  0  0  0  0  0  0  0  0  0  0  0
  -27.9730  -19.3370   17.3210 N   0  0  0  0  0  0  0  0  0  0  0  0
  -29.6790  -20.8850   17.1030 N   0  0  0  0  0  4  0  0  0  0  0  0
  -27.2330  -18.9080   17.8570 H   0  0  0  0  0  0  0  0  0  0  0  0
  -27.9860  -19.1200   16.3360 H   0  0  0  0  0  0  0  0  0  0  0  0
  -30.2580  -21.6170   17.4810 H   0  0  0  0  0  0  0  0  0  0  0  0
  -29.7430  -20.7330   16.1070 H   0  0  0  0  0  0  0  0  0  0  0  0
  -28.8380  -23.1670   19.9880 C   0  0  0  0  0  2  0  0  0  0  0  0
  -31.4570  -25.3130   17.8870 C   0  0  0  0  0  2  0  0  0  0  0  0
  -30.4350  -26.2170   17.2170 C   0  0  0  0  0  2  0  0  0  0  0  0
  -30.7420  -24.1280   18.5360 C   0  0  0  0  0  2  0  0  0  0  0  0
  -29.5380  -26.8040   18.2990 C   0  0  0  0  0  2  0  0  0  0  0  0
  -29.6730  -24.4800   19.6090 C   0  0  0  0  0  3  0  0  0  0  0  0
  -28.8000  -25.7580   19.1760 C   0  0  0  0  0  3  0  0  0  0  0  0
  -28.3890  -26.6170   20.2700 O   0  0  0  0  0  0  0  0  0  0  0  0
  -24.5930  -31.9140   23.2170 C   0  0  0  0  0  0  0  0  0  0  0  0
  -27.2450  -27.4100   20.1730 C   0  0  0  0  0  0  0  0  0  0  0  0
  -23.3950  -30.5020   21.5800 C   0  0  0  0  0  3  0  0  0  0  0  0
  -24.8560  -28.9590   20.1600 C   0  0  0  0  0  0  0  0  0  0  0  0
  -25.9250  -30.8510   21.3890 C   0  0  0  0  0  2  0  0  0  0  0  0
  -26.0140  -29.4730   20.7560 C   0  0  0  0  0  0  0  0  0  0  0  0
  -27.2060  -28.7010   20.7690 C   0  0  0  0  0  3  0  0  0  0  0  0
  -26.0630  -26.9260   19.5710 C   0  0  0  0  0  3  0  0  0  0  0  0
  -24.8800  -27.6870   19.5640 C   0  0  0  0  0  3  0  0  0  0  0  0
  -23.6110  -29.8180   20.2030 C   0  0  0  0  0  2  0  0  0  0  0  0
  -24.6570  -31.1050   22.1200 N   0  0  0  0  0  0  0  0  0  0  0  0
  -23.5090  -32.1870   23.7530 O   0  0  0  0  0  0  0  0  0  0  0  0
  -22.7420  -29.4850   22.5450 C   0  0  0  0  0  0  0  0  0  0  0  0
  -21.4160  -29.3070   22.4250 N   0  0  0  0  0  0  0  0  0  0  0  0
  -23.4260  -28.8580   23.3590 O   0  0  0  0  0  0  0  0  0  0  0  0
  -20.9230  -29.8670   21.7410 H   0  0  0  0  0  0  0  0  0  0  0  0
  -18.0380  -28.1320   22.9490 C   0  0  0  0  0  0  0  0  0  0  0  0
  -20.5990  -28.3730   23.2010 C   0  0  0  0  0  3  0  0  0  0  0  0
  -20.6890  -26.9430   22.6200 C   0  0  0  0  0  2  0  0  0  0  0  0
  -19.5750  -26.6300   21.6140 C   0  0  0  0  0  2  0  0  0  0  0  0
  -18.2000  -26.7830   22.2700 C   0  0  0  0  0  2  0  0  0  0  0  0
  -19.1650  -28.8850   23.3730 C   0  0  0  0  0  0  0  0  0  0  0  0
  -18.9590  -30.1480   23.9680 C   0  0  0  0  0  3  0  0  0  0  0  0
  -17.6590  -30.6580   24.1460 C   0  0  0  0  0  3  0  0  0  0  0  0
  -16.5470  -29.9010   23.7390 C   0  0  0  0  0  3  0  0  0  0  0  0
  -16.7370  -28.6410   23.1470 C   0  0  0  0  0  3  0  0  0  0  0  0
  -25.8760  -32.5540   23.8370 C   0  0  0  0  0  3  0  0  0  0  0  0
  -25.5590  -33.9500   24.1650 N   0  0  0  0  0  0  0  0  0  0  0  0
  -25.8930  -35.0050   23.4090 C   0  0  0  0  0  0  0  0  0  0  0  0
  -26.5690  -34.9040   22.3810 O   0  0  0  0  0  0  0  0  0  0  0  0
  -24.9580  -34.1020   24.9620 H   0  0  0  0  0  0  0  0  0  0  0  0
  -24.1680  -36.7980   23.0330 C   0  0  0  0  0  1  0  0  0  0  0  0
  -25.3970  -36.3910   23.8620 C   0  0  0  0  0  3  0  0  0  0  0  0
  -27.5170  -37.2750   24.7310 C   0  0  0  0  0  1  0  0  0  0  0  0
  -26.4300  -37.4450   23.7700 N   0  0  0  0  0  0  0  0  0  0  0  0
  -26.0210  -38.3650   23.9130 H   0  0  0  0  0  0  0  0  0  0  0  0
  -26.3980  -31.7850   25.1120 C   0  0  1  0  0  0  0  0  0  0  0  0
  -25.3080  -31.5410   26.1810 C   0  0  0  0  0  1  0  0  0  0  0  0
  -26.9870  -30.4110   24.7160 C   0  0  0  0  0  1  0  0  0  0  0  0
  -27.5450  -32.5840   25.7740 C   0  0  0  0  0  1  0  0  0  0  0  0
  -29.1900  -18.2510   20.5480 C   0  0  0  0  0  2  0  0  0  0  0  0
  -30.3200  -17.1380   20.5650 C   0  0  0  0  0  2  0  0  0  0  0  0
  -30.6240  -14.6160   20.4250 C   0  0  0  0  0  0  0  0  0  0  0  0
  -30.3530  -12.4110   19.3370 C   0  0  0  0  0  2  0  0  0  0  0  0
  -29.4140  -12.5740   18.1230 C   0  0  0  0  0  2  0  0  0  0  0  0
  -27.9420  -12.4230   18.5530 C   0  0  0  0  0  2  0  0  0  0  0  0
  -27.5920  -13.2810   19.7990 C   0  0  0  0  0  3  0  0  0  0  0  0
  -28.6490  -13.1160   20.9150 C   0  0  0  0  0  2  0  0  0  0  0  0
  -29.9630  -13.4250   20.3360 N   0  0  0  0  0  0  0  0  0  0  0  0
  -31.7810  -14.7480   20.0180 O   0  0  0  0  0  0  0  0  0  0  0  0
  -29.8890  -15.7130   20.7620 N   0  0  0  0  0  0  0  0  0  0  0  0
  -28.9490  -15.5390   21.0870 H   0  0  0  0  0  0  0  0  0  0  0  0
  -25.1980  -13.8850   20.5110 C   0  0  0  0  0  0  0  0  0  0  0  0
  -24.1290  -13.1150   20.8800 C   0  0  0  0  0  0  0  0  0  0  0  0
  -24.5890  -11.7620   20.8510 C   0  0  0  0  0  0  0  0  0  0  0  0
  -26.2410  -13.0030   20.2800 N   0  0  0  0  0  0  0  0  0  0  0  0
  -25.8800  -11.7210   20.5460 N   0  0  0  0  0  0  0  0  0  0  0  0
  -23.8590  -10.5030   21.0410 C   0  0  0  0  0  0  0  0  0  0  0  0
  -24.2850   -9.5360   21.9790 C   0  0  0  0  0  3  0  0  0  0  0  0
  -23.5540   -8.3410   22.1560 C   0  0  0  0  0  3  0  0  0  0  0  0
  -22.3850   -8.1030   21.3950 C   0  0  0  0  0  0  0  0  0  0  0  0
  -21.9790   -9.0580   20.4460 C   0  0  0  0  0  3  0  0  0  0  0  0
  -22.7090  -10.2450   20.2680 C   0  0  0  0  0  3  0  0  0  0  0  0
  -21.6290   -6.9590   21.4810 O   0  0  0  0  0  0  0  0  0  0  0  0
  -21.5710   -6.2190   22.6340 C   0  0  0  0  0  0  0  0  0  0  0  0
  -21.1270   -6.7760   23.8530 C   0  0  0  0  0  3  0  0  0  0  0  0
  -21.0160   -5.9630   25.0000 C   0  0  0  0  0  3  0  0  0  0  0  0
  -21.3390   -4.5950   24.9270 C   0  0  0  0  0  0  0  0  0  0  0  0
  -21.7770   -4.0380   23.7120 C   0  0  0  0  0  3  0  0  0  0  0  0
  -21.8890   -4.8480   22.5680 C   0  0  0  0  0  0  0  0  0  0  0  0
  -22.2890   -4.3010   21.3950 F   0  0  0  0  0  0  0  0  0  0  0  0
  -21.2270   -3.8120   26.0250 F   0  0  0  0  0  0  0  0  0  0  0  0
  -22.7340  -13.5950   21.1530 C   0  0  0  0  0  0  0  0  0  0  0  0
  -22.0020  -12.8950   22.0120 N   0  0  0  0  0  0  0  0  0  0  0  0
  -22.2990  -14.6250   20.6380 O   0  0  0  0  0  0  0  0  0  0  0  0
  -22.3690  -12.0630   22.4500 H   0  0  0  0  0  0  0  0  0  0  0  0
  -21.0640  -13.1960   22.2370 H   0  0  0  0  0  0  0  0  0  0  0  0
  -25.3670  -15.2550   20.3300 N   0  0  0  0  0  0  0  0  0  0  0  0
  -24.5960  -15.9070   20.4210 H   0  0  0  0  0  0  0  0  0  0  0  0
  -26.2030  -15.6810   19.9520 H   0  0  0  0  0  0  0  0  0  0  0  0
  2  6  1  0
  2  3  1  0
  2  4  1  0
  3 13  1  0
  3  1  1  0
  4 61  1  0
  4  1  1  0
  4  5  1  6
  7  9  1  0
  7  6  1  0
  8 11  1  0
  8  6  2  0
 10  7  1  0
 12  8  1  0
 14 16  1  0
 15 14  1  0
 15 17  1  0
 16 18  1  0
 17 19  1  0
 18 13  1  0
 19 18  1  0
 19 20  1  0
 21 32  2  0
 22 20  1  0
 22 27  1  0
 23 31  1  0
 23 33  1  0
 24 30  1  0
 24 26  1  0
 25 31  1  0
 26 27  2  0
 26 25  1  0
 28 22  2  0
 29 28  1  0
 29 24  2  0
 30 23  1  0
 31 21  1  0
 33 35  2  0
 34 33  1  0
 36 34  1  0
 37 46  2  0
 37 42  1  0
 38 34  1  0
 38 42  1  0
 39 38  1  0
 40 41  1  0
 40 39  1  0
 41 37  1  0
 42 43  2  0
 43 44  1  0
 45 44  2  0
 46 45  1  0
 47 21  1  0
 47 48  1  0
 47 57  1  0
 48 51  1  0
 49 53  1  0
 49 48  1  0
 50 49  2  0
 53 52  1  0
 55 53  1  0
 55 56  1  0
 55 54  1  0
 57 60  1  1
 57 58  1  0
 59 57  1  0
 61 62  1  0
 62 71  1  0
 63 71  1  0
 64 69  1  0
 65 66  1  0
 65 64  1  0
 67 66  1  0
 67 76  1  0
 67 68  1  0
 69 63  1  0
 69 68  1  0
 70 63  2  0
 71 72  1  0
 73 74  2  0
 74 93  1  0
 75 74  1  0
 75 78  1  0
 76 73  1  0
 76 77  1  0
 77 75  2  0
 78 79  1  0
 79 80  2  0
 81 84  1  0
 81 80  1  0
 82 81  2  0
 83 82  1  0
 83 78  2  0
 84 85  1  0
 85 86  1  0
 86 87  2  0
 88 87  1  0
 88 92  1  0
 89 88  2  0
 90 85  2  0
 90 89  1  0
 91 90  1  0
 93 94  1  0
 94 97  1  0
 94 96  1  0
 95 93  2  0
 98 99  1  0
 98 73  1  0
100 98  1  0
M  ISO  4  19 101  20 101  63 100  71 100
M  END
>  <TORSDO>  (71) 
F 21

>  <SCORE>  (71) 
-13.722

>  <name>  (71) 
71

>  <ligand_id>  (71) 
71

>  <original_smiles>  (71) 
[H]c1c([H])c([H])c2c(c1[H])C([H])([H])C([H])([H])C([H])([H])C2([H])N([H])C(=O)C1([H])N(C(=O)C([H])(N([H])C(=O)C([H])(N([H])C([H])([H])[H])C([H])([H])[H])C(C([H])([H])[H])(C([H])([H])[H])C([H])([H])[H])C([H])([H])c2c([H])c(OC3([H])C([H])([H])C([H])([H])C([H])([H])C([H])([H])C3([H])C([H])([H])C3([H])C([H])([H])[N+]([H])(C([H])([H])C([H])([H])N([H])C(=O)N4C([H])([H])C([H])([H])C([H])([H])C([H])(n5nc(-c6c([H])c([H])c(Oc7c([H])c([H])c(F)c([H])c7F)c([H])c6[H])c(C(=O)N([H])[H])c5N([H])[H])C4([H])[H])C3([H])C(N([H])[H])=[N+]([H])[H])c([H])c([H])c2C1([H])[H]

>  <smiles>  (71) 
[H]c1c([H])c([H])c2c(c1[H])C([H])([H])C([H])([H])C([H])([H])C2([H])N([H])C(=O)C1([H])N(C(=O)C([H])(N([H])C(=O)C([H])(N([H])C([H])([H])[H])C([H])([H])[H])C(C([H])([H])[H])(C([H])([H])[H])C([H])([H])[H])C([H])([H])c2c([H])c(OC3([H])C([H])([H])C([H])([H])C([H])([H])C([H])([H])C3([H])C([H])([H])C3([H])C([H])([H])[N+]([H])(C([H])([H])C([H])([H])N([H])C(=O)N4C([H])([H])C([H])([H])C([H])([H])C([H])(n5nc(-c6c([H])c([H])c(Oc7c([H])c([H])c(F)c([H])c7F)c([H])c6[H])c(C(=O)N([H])[H])c5N([H])[H])C4([H])[H])C3([H])C(N([H])[H])=[N+]([H])[H])c([H])c([H])c2C1([H])[H]

$$$$
72:0:0
     RDKit          3D

 93102  0  0  1  0  0  0  0  0999 V2000
  -28.9300  -22.7410   20.6360 N   0  0  2  0  0  4  0  0  0  0  0  0
  -28.1890  -22.1600   20.9970 H   0  0  0  0  0  0  0  0  0  0  0  0
  -30.7120  -24.2080   21.7250 C   0  0  0  0  0  1  0  0  0  0  0  0
  -29.4700  -23.3150   21.9010 C   0  0  0  0  0  2  0  0  0  0  0  0
  -29.8250  -21.6270   20.0310 C   0  0  0  0  0  2  0  0  0  0  0  0
  -30.6080  -14.9110   20.0560 C   0  0  0  0  0  0  0  0  0  0  0  0
  -30.3930  -12.6190   19.0520 C   0  0  0  0  0  2  0  0  0  0  0  0
  -29.3980  -12.6500   17.8710 C   0  0  0  0  0  2  0  0  0  0  0  0
  -27.9500  -12.4490   18.3630 C   0  0  0  0  0  2  0  0  0  0  0  0
  -27.6160  -13.3200   19.6020 C   0  0  0  0  0  3  0  0  0  0  0  0
  -28.7360  -13.2180   20.6670 C   0  0  0  0  0  2  0  0  0  0  0  0
  -29.9710  -13.6740   20.0120 N   0  0  0  0  0  0  0  0  0  0  0  0
  -31.7920  -14.9480   19.7020 O   0  0  0  0  0  0  0  0  0  0  0  0
  -27.2000  -18.6150   20.1680 C   0  0  0  0  0  2  0  0  0  0  0  0
  -28.1360  -19.6910   20.7760 C   0  0  0  0  0  2  0  0  0  0  0  0
  -28.8270  -17.4440   18.5010 C   0  0  0  0  0  2  0  0  0  0  0  0
  -30.3970  -18.8670   19.9200 C   0  0  0  0  0  2  0  0  0  0  0  0
  -28.5880  -16.4590   20.7100 C   0  0  0  0  0  2  0  0  0  0  0  0
  -27.8310  -17.2960   19.6430 C   0  0  0  0  0  3  0  0  0  0  0  0
  -29.3060  -20.0880   19.8550 C   0  0  0  0  0  3  0  0  0  0  0  0
  -30.1340  -17.3910   19.2660 C   0  0  0  0  0  3  0  0  0  0  0  0
  -29.8970  -16.1360   20.1160 N   0  0  0  0  0  0  0  0  0  0  0  0
  -25.2510  -13.8870   20.4350 C   0  0  0  0  0  0  0  0  0  0  0  0
  -24.2040  -13.1060   20.8250 C   0  0  0  0  0  0  0  0  0  0  0  0
  -24.6710  -11.7600   20.7460 C   0  0  0  0  0  0  0  0  0  0  0  0
  -26.2940  -13.0200   20.1430 N   0  0  0  0  0  0  0  0  0  0  0  0
  -25.9510  -11.7300   20.3910 N   0  0  0  0  0  0  0  0  0  0  0  0
  -23.9520  -10.4980   20.9400 C   0  0  0  0  0  0  0  0  0  0  0  0
  -24.4000   -9.5300   21.8640 C   0  0  0  0  0  3  0  0  0  0  0  0
  -23.6790   -8.3300   22.0460 C   0  0  0  0  0  3  0  0  0  0  0  0
  -22.4980   -8.0940   21.3040 C   0  0  0  0  0  0  0  0  0  0  0  0
  -22.0700   -9.0520   20.3670 C   0  0  0  0  0  3  0  0  0  0  0  0
  -22.7920  -10.2420   20.1840 C   0  0  0  0  0  3  0  0  0  0  0  0
  -21.7490   -6.9460   21.3950 O   0  0  0  0  0  0  0  0  0  0  0  0
  -21.6820   -6.2220   22.5570 C   0  0  0  0  0  0  0  0  0  0  0  0
  -21.2060   -6.7870   23.7600 C   0  0  0  0  0  3  0  0  0  0  0  0
  -21.0900   -5.9880   24.9170 C   0  0  0  0  0  3  0  0  0  0  0  0
  -21.4420   -4.6260   24.8700 C   0  0  0  0  0  0  0  0  0  0  0  0
  -21.9120   -4.0610   23.6710 C   0  0  0  0  0  3  0  0  0  0  0  0
  -22.0290   -4.8570   22.5180 C   0  0  0  0  0  0  0  0  0  0  0  0
  -22.4640   -4.3040   21.3600 F   0  0  0  0  0  0  0  0  0  0  0  0
  -21.3210   -3.8550   25.9750 F   0  0  0  0  0  0  0  0  0  0  0  0
  -22.8200  -13.5810   21.1590 C   0  0  0  0  0  0  0  0  0  0  0  0
  -22.1320  -12.8780   22.0500 N   0  0  0  0  0  0  0  0  0  0  0  0
  -22.3620  -14.6130   20.6680 O   0  0  0  0  0  0  0  0  0  0  0  0
  -22.5190  -12.0450   22.4690 H   0  0  0  0  0  0  0  0  0  0  0  0
  -21.2060  -13.1760   22.3190 H   0  0  0  0  0  0  0  0  0  0  0  0
  -25.3750  -15.2580   20.2940 N   0  0  0  0  0  0  0  0  0  0  0  0
  -24.5950  -15.8830   20.4620 H   0  0  0  0  0  0  0  0  0  0  0  0
  -26.2130  -15.7350   19.9960 H   0  0  0  0  0  0  0  0  0  0  0  0
  -28.0910  -23.7500   19.8160 C   0  0  0  0  0  2  0  0  0  0  0  0
  -28.5460  -25.2560   19.4160 C   0  0  0  0  0  2  0  0  0  0  0  0
  -28.2860  -26.5320   20.1600 O   0  0  0  0  0  0  0  0  0  0  0  0
  -24.5360  -31.9030   23.1950 C   0  0  0  0  0  0  0  0  0  0  0  0
  -27.1380  -27.3510   20.0680 C   0  0  0  0  0  0  0  0  0  0  0  0
  -23.3090  -30.4970   21.5730 C   0  0  0  0  0  3  0  0  0  0  0  0
  -24.7470  -28.9520   20.1090 C   0  0  0  0  0  0  0  0  0  0  0  0
  -25.8410  -30.8290   21.3440 C   0  0  0  0  0  2  0  0  0  0  0  0
  -25.9180  -29.4500   20.6890 C   0  0  0  0  0  0  0  0  0  0  0  0
  -27.1060  -28.6570   20.6640 C   0  0  0  0  0  3  0  0  0  0  0  0
  -25.9430  -26.9100   19.4590 C   0  0  0  0  0  3  0  0  0  0  0  0
  -24.7630  -27.6910   19.4850 C   0  0  0  0  0  3  0  0  0  0  0  0
  -23.5010  -29.8160   20.1890 C   0  0  0  0  0  2  0  0  0  0  0  0
  -24.5820  -31.0960   22.0930 N   0  0  0  0  0  0  0  0  0  0  0  0
  -23.4620  -32.1730   23.7530 O   0  0  0  0  0  0  0  0  0  0  0  0
  -22.6690  -29.4820   22.5500 C   0  0  0  0  0  0  0  0  0  0  0  0
  -21.3430  -29.2880   22.4390 N   0  0  0  0  0  0  0  0  0  0  0  0
  -23.3640  -28.8700   23.3640 O   0  0  0  0  0  0  0  0  0  0  0  0
  -20.8400  -29.8320   21.7530 H   0  0  0  0  0  0  0  0  0  0  0  0
  -17.9920  -28.0270   22.9650 C   0  0  0  0  0  0  0  0  0  0  0  0
  -20.5460  -28.3390   23.2190 C   0  0  0  0  0  3  0  0  0  0  0  0
  -20.6740  -26.9060   22.6540 C   0  0  0  0  0  2  0  0  0  0  0  0
  -19.5740  -26.5540   21.6480 C   0  0  0  0  0  2  0  0  0  0  0  0
  -18.1920  -26.6770   22.2980 C   0  0  0  0  0  2  0  0  0  0  0  0
  -19.0970  -28.8150   23.3840 C   0  0  0  0  0  0  0  0  0  0  0  0
  -18.8560  -30.0770   23.9690 C   0  0  0  0  0  3  0  0  0  0  0  0
  -17.5430  -30.5520   24.1380 C   0  0  0  0  0  3  0  0  0  0  0  0
  -16.4520  -29.7630   23.7360 C   0  0  0  0  0  3  0  0  0  0  0  0
  -16.6780  -28.5010   23.1570 C   0  0  0  0  0  3  0  0  0  0  0  0
  -25.8260  -32.5430   23.7960 C   0  0  0  0  0  3  0  0  0  0  0  0
  -26.3620  -31.7820   25.0710 C   0  0  1  0  0  0  0  0  0  0  0  0
  -25.2840  -31.5500   26.1550 C   0  0  0  0  0  1  0  0  0  0  0  0
  -26.9440  -30.4020   24.6830 C   0  0  0  0  0  1  0  0  0  0  0  0
  -27.5210  -32.5830   25.7110 C   0  0  0  0  0  1  0  0  0  0  0  0
  -25.5200  -33.9430   24.1220 N   0  0  0  0  0  0  0  0  0  0  0  0
  -25.8440  -34.9940   23.3560 C   0  0  0  0  0  0  0  0  0  0  0  0
  -26.5020  -34.8850   22.3180 O   0  0  0  0  0  0  0  0  0  0  0  0
  -24.9350  -34.1020   24.9310 H   0  0  0  0  0  0  0  0  0  0  0  0
  -24.1220  -36.7940   23.0070 C   0  0  0  0  0  1  0  0  0  0  0  0
  -25.3650  -36.3850   23.8140 C   0  0  0  0  0  3  0  0  0  0  0  0
  -27.5030  -37.2660   24.6430 C   0  0  0  0  0  1  0  0  0  0  0  0
  -26.4020  -37.4340   23.6960 N   0  0  0  0  0  0  0  0  0  0  0  0
  -26.0000  -38.3560   23.8410 H   0  0  0  0  0  0  0  0  0  0  0  0
  1  2  1  1
  1  4  1  0
  3  4  1  0
  5  1  1  0
  6 22  1  0
  7 12  1  0
  8  9  1  0
  8  7  1  0
 10  9  1  0
 10 26  1  0
 10 11  1  0
 12  6  1  0
 12 11  1  0
 13  6  2  0
 14 15  1  0
 19 16  1  0
 19 14  1  0
 19 18  1  0
 20 17  1  0
 20  5  1  0
 20 15  1  0
 21 16  1  0
 21 17  1  0
 21 22  1  0
 22 18  1  0
 23 24  2  0
 24 43  1  0
 25 24  1  0
 25 28  1  0
 26 27  1  0
 26 23  1  0
 27 25  2  0
 28 29  1  0
 29 30  2  0
 31 34  1  0
 31 30  1  0
 32 31  2  0
 33 32  1  0
 33 28  2  0
 34 35  1  0
 35 36  1  0
 36 37  2  0
 38 37  1  0
 38 42  1  0
 39 38  2  0
 40 35  2  0
 40 39  1  0
 41 40  1  0
 43 44  1  0
 44 47  1  0
 44 46  1  0
 45 43  2  0
 48 23  1  0
 48 49  1  0
 50 48  1  0
 51  1  1  0
 52 51  1  0
 52 53  1  0
 54 65  2  0
 55 53  1  0
 55 60  1  0
 56 64  1  0
 56 66  1  0
 57 63  1  0
 57 59  1  0
 58 64  1  0
 59 58  1  0
 60 59  2  0
 61 62  1  0
 61 55  2  0
 62 57  2  0
 63 56  1  0
 64 54  1  0
 66 68  2  0
 67 66  1  0
 69 67  1  0
 70 79  2  0
 70 75  1  0
 71 67  1  0
 71 75  1  0
 72 71  1  0
 73 74  1  0
 73 72  1  0
 74 70  1  0
 75 76  2  0
 76 77  1  0
 78 77  2  0
 79 78  1  0
 80 54  1  0
 80 85  1  0
 80 81  1  0
 81 84  1  1
 81 82  1  0
 83 81  1  0
 85 88  1  0
 86 90  1  0
 86 85  1  0
 87 86  2  0
 90 89  1  0
 92 90  1  0
 92 93  1  0
 92 91  1  0
M  ISO  4   6 100  22 100  52 101  53 101
M  END
>  <TORSDO>  (72) 
F 20

>  <SCORE>  (72) 
-13.617

>  <name>  (72) 
72

>  <ligand_id>  (72) 
72

>  <original_smiles>  (72) 
[H]c1c([H])c([H])c2c(c1[H])C([H])([H])C([H])([H])C([H])([H])C2([H])N([H])C(=O)C1([H])N(C(=O)C([H])(N([H])C(=O)C([H])(N([H])C([H])([H])[H])C([H])([H])[H])C(C([H])([H])[H])(C([H])([H])[H])C([H])([H])[H])C([H])([H])c2c([H])c(OC([H])([H])C([H])([H])[N+]([H])(C([H])([H])C([H])([H])[H])C([H])([H])C3([H])C([H])([H])C([H])([H])C4([H])C([H])([H])N(C(=O)N5C([H])([H])C([H])([H])C([H])([H])C([H])(n6nc(-c7c([H])c([H])c(Oc8c([H])c([H])c(F)c([H])c8F)c([H])c7[H])c(C(=O)N([H])[H])c6N([H])[H])C5([H])[H])C([H])(C4([H])[H])C3([H])[H])c([H])c([H])c2C1([H])[H]

>  <smiles>  (72) 
[H]c1c([H])c([H])c2c(c1[H])C([H])([H])C([H])([H])C([H])([H])C2([H])N([H])C(=O)C1([H])N(C(=O)C([H])(N([H])C(=O)C([H])(N([H])C([H])([H])[H])C([H])([H])[H])C(C([H])([H])[H])(C([H])([H])[H])C([H])([H])[H])C([H])([H])c2c([H])c(OC([H])([H])C([H])([H])[N+]([H])(C([H])([H])C([H])([H])[H])C([H])([H])C3([H])C([H])([H])C([H])([H])C4([H])C([H])([H])N(C(=O)N5C([H])([H])C([H])([H])C([H])([H])C([H])(n6nc(-c7c([H])c([H])c(Oc8c([H])c([H])c(F)c([H])c8F)c([H])c7[H])c(C(=O)N([H])[H])c6N([H])[H])C5([H])[H])C([H])(C4([H])[H])C3([H])[H])c([H])c([H])c2C1([H])[H]

$$$$
73:0:0
     RDKit          3D

102111  0  0  1  0  0  0  0  0999 V2000
  -31.4570  -23.2760   13.5050 C   0  0  0  0  0  2  0  0  0  0  0  0
  -26.4970  -27.5260   10.5850 C   0  0  0  0  0  0  0  0  0  0  0  0
  -25.8980  -28.7630    8.5390 C   0  0  0  0  0  2  0  0  0  0  0  0
  -26.5100  -28.0440    7.3210 C   0  0  0  0  0  2  0  0  0  0  0  0
  -27.9690  -28.4870    7.0790 C   0  0  0  0  0  2  0  0  0  0  0  0
  -28.8270  -28.4540    8.3670 C   0  0  0  0  0  3  0  0  0  0  0  0
  -28.0800  -29.1690    9.5150 C   0  0  0  0  0  2  0  0  0  0  0  0
  -26.7760  -28.5080    9.6900 N   0  0  0  0  0  0  0  0  0  0  0  0
  -25.4010  -26.9540   10.6620 O   0  0  0  0  0  0  0  0  0  0  0  0
  -31.9630  -27.0290   13.2420 C   0  0  0  0  0  3  0  0  0  0  0  0
  -30.7030  -27.4850   12.8330 C   0  0  0  0  0  3  0  0  0  0  0  0
  -32.1720  -25.6590   13.4280 C   0  0  0  0  0  3  0  0  0  0  0  0
  -29.6360  -26.5850   12.5840 C   0  0  0  0  0  0  0  0  0  0  0  0
  -29.8590  -25.1750   12.7190 C   0  0  0  0  0  0  0  0  0  0  0  0
  -31.1370  -24.7330   13.1880 C   0  0  0  0  0  0  0  0  0  0  0  0
  -28.3550  -27.2290   12.2110 C   0  0  0  0  0  3  0  0  0  0  0  0
  -28.8010  -24.0910   12.4260 C   0  0  0  0  0  2  0  0  0  0  0  0
  -27.6420  -24.4140   11.4690 C   0  0  0  0  0  2  0  0  0  0  0  0
  -27.9510  -25.5430   10.4820 C   0  0  0  0  0  2  0  0  0  0  0  0
  -27.6530  -26.8450   11.1060 N   0  0  0  0  0  0  0  0  0  0  0  0
  -27.9600  -28.2480   12.9910 N   0  0  0  0  0  0  0  0  0  0  0  0
  -28.5140  -28.4440   13.8130 H   0  0  0  0  0  0  0  0  0  0  0  0
  -27.0640  -28.6990   12.9180 H   0  0  0  0  0  0  0  0  0  0  0  0
  -31.3870  -28.5930    8.6410 C   0  0  0  0  0  0  0  0  0  0  0  0
  -32.3170  -29.4310    8.0860 C   0  0  0  0  0  0  0  0  0  0  0  0
  -31.5860  -30.3420    7.2650 C   0  0  0  0  0  0  0  0  0  0  0  0
  -30.1560  -29.0180    8.1560 N   0  0  0  0  0  0  0  0  0  0  0  0
  -30.2820  -30.1110    7.3620 N   0  0  0  0  0  0  0  0  0  0  0  0
  -32.0460  -31.3890    6.3450 C   0  0  0  0  0  0  0  0  0  0  0  0
  -32.1530  -32.7380    6.7510 C   0  0  0  0  0  3  0  0  0  0  0  0
  -32.6170  -33.7210    5.8540 C   0  0  0  0  0  3  0  0  0  0  0  0
  -32.9830  -33.3610    4.5370 C   0  0  0  0  0  0  0  0  0  0  0  0
  -32.8520  -32.0200    4.1290 C   0  0  0  0  0  3  0  0  0  0  0  0
  -32.3850  -31.0430    5.0230 C   0  0  0  0  0  3  0  0  0  0  0  0
  -33.4220  -34.2520    3.5870 O   0  0  0  0  0  0  0  0  0  0  0  0
  -34.5730  -34.9780    3.7590 C   0  0  0  0  0  0  0  0  0  0  0  0
  -35.8470  -34.3750    3.7180 C   0  0  0  0  0  3  0  0  0  0  0  0
  -37.0080  -35.1680    3.8290 C   0  0  0  0  0  3  0  0  0  0  0  0
  -36.8950  -36.5650    3.9690 C   0  0  0  0  0  0  0  0  0  0  0  0
  -35.6250  -37.1670    4.0040 C   0  0  0  0  0  3  0  0  0  0  0  0
  -34.4680  -36.3760    3.8950 C   0  0  0  0  0  0  0  0  0  0  0  0
  -33.2480  -36.9650    3.9090 F   0  0  0  0  0  0  0  0  0  0  0  0
  -38.0070  -37.3290    4.0670 F   0  0  0  0  0  0  0  0  0  0  0  0
  -33.8090  -29.3380    8.2290 C   0  0  0  0  0  0  0  0  0  0  0  0
  -34.4690  -30.4410    8.5670 N   0  0  0  0  0  0  0  0  0  0  0  0
  -34.3990  -28.2680    8.0870 O   0  0  0  0  0  0  0  0  0  0  0  0
  -33.9880  -31.3130    8.7210 H   0  0  0  0  0  0  0  0  0  0  0  0
  -35.4690  -30.3980    8.6970 H   0  0  0  0  0  0  0  0  0  0  0  0
  -31.4840  -27.5000    9.5010 N   0  0  0  0  0  0  0  0  0  0  0  0
  -32.3830  -27.1570    9.8250 H   0  0  0  0  0  0  0  0  0  0  0  0
  -30.7130  -26.9180    9.7900 H   0  0  0  0  0  0  0  0  0  0  0  0
  -30.7470  -22.7390   14.7680 C   0  0  0  0  0  2  0  0  0  0  0  0
  -30.9940  -21.2300   14.9950 C   0  0  0  0  0  2  0  0  0  0  0  0
  -31.6170  -20.8670   16.3560 C   0  0  0  0  0  2  0  0  0  0  0  0
  -34.0850  -20.9880   15.6530 C   0  0  0  0  0  0  0  0  0  0  0  0
  -33.9320  -20.4510   14.4340 N   0  0  0  0  0  4  0  0  0  0  0  0
  -33.0440  -21.2310   16.4790 N   0  0  0  0  0  0  0  0  0  0  0  0
  -34.7500  -20.3050   13.8590 H   0  0  0  0  0  0  0  0  0  0  0  0
  -33.0380  -20.2110   14.0440 H   0  0  0  0  0  0  0  0  0  0  0  0
  -33.2720  -21.6970   17.3490 H   0  0  0  0  0  0  0  0  0  0  0  0
  -35.4720  -21.3530   16.1090 C   0  0  0  0  0  2  0  0  0  0  0  0
  -36.4100  -20.2820   15.9540 O   0  0  0  0  0  0  0  0  0  0  0  0
  -34.0400  -13.6840   14.8100 C   0  0  0  0  0  0  0  0  0  0  0  0
  -36.1000  -19.0700   16.5360 C   0  0  0  0  0  0  0  0  0  0  0  0
  -34.1220  -14.3980   17.1760 C   0  0  0  0  0  3  0  0  0  0  0  0
  -35.3950  -16.5600   17.6360 C   0  0  0  0  0  0  0  0  0  0  0  0
  -35.7350  -15.3890   15.4540 C   0  0  0  0  0  2  0  0  0  0  0  0
  -35.7500  -16.6540   16.2840 C   0  0  0  0  0  0  0  0  0  0  0  0
  -36.1010  -17.9080   15.7300 C   0  0  0  0  0  3  0  0  0  0  0  0
  -35.7700  -18.9410   17.9060 C   0  0  0  0  0  3  0  0  0  0  0  0
  -35.4000  -17.7010   18.4490 C   0  0  0  0  0  3  0  0  0  0  0  0
  -35.0280  -15.1890   18.1560 C   0  0  0  0  0  2  0  0  0  0  0  0
  -34.6030  -14.4820   15.7600 N   0  0  0  0  0  0  0  0  0  0  0  0
  -33.1630  -12.8610   15.1050 O   0  0  0  0  0  0  0  0  0  0  0  0
  -32.6660  -14.8800   17.3550 C   0  0  0  0  0  0  0  0  0  0  0  0
  -31.9140  -14.1940   18.2300 N   0  0  0  0  0  0  0  0  0  0  0  0
  -32.2430  -15.8590   16.7360 O   0  0  0  0  0  0  0  0  0  0  0  0
  -32.3340  -13.4030   18.6940 H   0  0  0  0  0  0  0  0  0  0  0  0
  -29.0970  -13.0100   20.1500 C   0  0  0  0  0  0  0  0  0  0  0  0
  -30.5280  -14.4870   18.5850 C   0  0  0  0  0  3  0  0  0  0  0  0
  -30.4600  -15.5570   19.6990 C   0  0  0  0  0  2  0  0  0  0  0  0
  -30.3970  -14.9570   21.1070 C   0  0  0  0  0  2  0  0  0  0  0  0
  -29.1710  -14.0520   21.2530 C   0  0  0  0  0  2  0  0  0  0  0  0
  -29.7490  -13.2060   18.9040 C   0  0  0  0  0  0  0  0  0  0  0  0
  -29.6860  -12.1840   17.9310 C   0  0  0  0  0  3  0  0  0  0  0  0
  -28.9810  -10.9910   18.1820 C   0  0  0  0  0  3  0  0  0  0  0  0
  -28.3240  -10.8110   19.4110 C   0  0  0  0  0  3  0  0  0  0  0  0
  -28.3800  -11.8190   20.3900 C   0  0  0  0  0  3  0  0  0  0  0  0
  -34.4900  -13.7470   13.3170 C   0  0  0  0  0  3  0  0  0  0  0  0
  -34.5730  -12.3660   12.8230 N   0  0  0  0  0  0  0  0  0  0  0  0
  -35.6760  -11.6080   12.8680 C   0  0  0  0  0  0  0  0  0  0  0  0
  -36.7640  -12.0320   13.2690 O   0  0  0  0  0  0  0  0  0  0  0  0
  -33.7060  -11.9370   12.5370 H   0  0  0  0  0  0  0  0  0  0  0  0
  -35.8090   -9.1960   13.5740 C   0  0  0  0  0  1  0  0  0  0  0  0
  -35.5530  -10.1470   12.3940 C   0  0  0  0  0  3  0  0  0  0  0  0
  -36.0680  -10.4220   10.0090 C   0  0  0  0  0  1  0  0  0  0  0  0
  -36.4600   -9.8120   11.2750 N   0  0  0  0  0  0  0  0  0  0  0  0
  -36.5070   -8.8040   11.1420 H   0  0  0  0  0  0  0  0  0  0  0  0
  -33.5220  -14.6060   12.4150 C   0  0  1  0  0  0  0  0  0  0  0  0
  -32.4180  -13.7750   11.7230 C   0  0  0  0  0  1  0  0  0  0  0  0
  -32.8340  -15.7100   13.2510 C   0  0  0  0  0  1  0  0  0  0  0  0
  -34.3350  -15.3240   11.3130 C   0  0  0  0  0  1  0  0  0  0  0  0
  1 52  1  0
  2  9  2  0
  2 20  1  0
  3  8  1  0
  4  3  1  0
  5  4  1  0
  6  5  1  0
  6  7  1  0
  7  8  1  0
  8  2  1  0
 10 12  1  0
 11 10  2  0
 13 14  2  0
 13 11  1  0
 14 15  1  0
 15 12  2  0
 15  1  1  0
 16 13  1  0
 16 21  1  0
 17 14  1  0
 18 17  1  0
 19 20  1  0
 19 18  1  0
 20 16  1  0
 21 22  1  0
 23 21  1  0
 24 49  1  0
 25 44  1  0
 25 24  2  0
 26 28  2  0
 26 25  1  0
 27  6  1  0
 27 24  1  0
 28 27  1  0
 29 30  1  0
 29 26  1  0
 31 30  2  0
 32 31  1  0
 33 32  2  0
 33 34  1  0
 34 29  2  0
 35 36  1  0
 35 32  1  0
 36 41  1  0
 37 36  2  0
 37 38  1  0
 38 39  2  0
 39 40  1  0
 39 43  1  0
 41 42  1  0
 41 40  2  0
 44 45  1  0
 45 48  1  0
 45 47  1  0
 46 44  2  0
 49 51  1  0
 49 50  1  0
 52 53  1  0
 53 54  1  0
 54 57  1  0
 55 61  1  0
 55 57  1  0
 56 55  2  0
 57 60  1  0
 58 56  1  0
 59 56  1  0
 62 61  1  0
 62 64  1  0
 63 74  2  0
 63 73  1  0
 64 70  1  0
 65 75  1  0
 65 72  1  0
 66 72  1  0
 66 71  1  0
 67 73  1  0
 67 68  1  0
 68 66  2  0
 69 68  1  0
 69 64  2  0
 70 71  2  0
 73 65  1  0
 75 76  1  0
 76 78  1  0
 77 75  2  0
 79 88  1  0
 79 83  1  0
 80 76  1  0
 80 84  1  0
 80 81  1  0
 81 82  1  0
 82 83  1  0
 84 79  2  0
 85 86  2  0
 85 84  1  0
 86 87  1  0
 87 88  2  0
 89 63  1  0
 90 91  1  0
 90 89  1  0
 91 92  2  0
 93 90  1  0
 95 91  1  0
 95 94  1  0
 96 97  1  0
 97 95  1  0
 98 97  1  0
 99101  1  1
 99 89  1  0
100 99  1  0
102 99  1  0
M  ISO  4   2 100  20 100  61 101  62 101
M  END
>  <TORSDO>  (73) 
F 21

>  <SCORE>  (73) 
-4.476

>  <name>  (73) 
73

>  <ligand_id>  (73) 
73

>  <original_smiles>  (73) 
[H]c1c([H])c([H])c2c(c1[H])C([H])([H])C([H])([H])C([H])([H])C2([H])N([H])C(=O)C1([H])N(C(=O)C([H])(N([H])C(=O)C([H])(N([H])C([H])([H])[H])C([H])([H])[H])C(C([H])([H])[H])(C([H])([H])[H])C([H])([H])[H])C([H])([H])c2c([H])c(OC([H])([H])C(N([H])[H])=[N+]([H])C([H])([H])C([H])([H])C([H])([H])C([H])([H])c3c([H])c([H])c([H])c4c3C([H])([H])C([H])([H])C([H])([H])N(C(=O)N3C([H])([H])C([H])([H])C([H])([H])C([H])(n5nc(-c6c([H])c([H])c(Oc7c([H])c([H])c(F)c([H])c7F)c([H])c6[H])c(C(=O)N([H])[H])c5N([H])[H])C3([H])[H])C4=[N+]([H])[H])c([H])c([H])c2C1([H])[H]

>  <smiles>  (73) 
[H]c1c([H])c([H])c2c(c1[H])C([H])([H])C([H])([H])C([H])([H])C2([H])N([H])C(=O)C1([H])N(C(=O)C([H])(N([H])C(=O)C([H])(N([H])C([H])([H])[H])C([H])([H])[H])C(C([H])([H])[H])(C([H])([H])[H])C([H])([H])[H])C([H])([H])c2c([H])c(OC([H])([H])C(N([H])[H])=[N+]([H])C([H])([H])C([H])([H])C([H])([H])C([H])([H])c3c([H])c([H])c([H])c4c3C([H])([H])C([H])([H])C([H])([H])N(C(=O)N3C([H])([H])C([H])([H])C([H])([H])C([H])(n5nc(-c6c([H])c([H])c(Oc7c([H])c([H])c(F)c([H])c7F)c([H])c6[H])c(C(=O)N([H])[H])c5N([H])[H])C3([H])[H])C4=[N+]([H])[H])c([H])c([H])c2C1([H])[H]

$$$$
74:0:0
     RDKit          3D

 97105  0  0  1  0  0  0  0  0999 V2000
  -29.1410  -18.8340   17.5130 C   0  0  0  0  0  2  0  0  0  0  0  0
  -29.8400  -20.1750   17.2160 C   0  0  0  0  0  2  0  0  0  0  0  0
  -28.8750  -18.6350   19.0210 C   0  0  0  0  0  2  0  0  0  0  0  0
  -31.0500  -20.4260   18.1430 C   0  0  0  0  0  2  0  0  0  0  0  0
  -30.1510  -18.8580   19.8620 C   0  0  0  0  0  3  0  0  0  0  0  0
  -30.6540  -20.3470   19.5710 N   0  0  2  0  0  4  0  0  0  0  0  0
  -31.5150  -20.4330   20.0900 H   0  0  0  0  0  0  0  0  0  0  0  0
  -31.1520  -17.5030   19.6480 C   0  0  0  0  0  2  0  0  0  0  0  0
  -31.4140  -14.8070   19.5070 C   0  0  0  0  0  0  0  0  0  0  0  0
  -31.0830  -12.4980   18.4920 C   0  0  0  0  0  2  0  0  0  0  0  0
  -29.9720  -12.4870   17.4130 C   0  0  0  0  0  2  0  0  0  0  0  0
  -28.5800  -12.2930   18.0440 C   0  0  0  0  0  2  0  0  0  0  0  0
  -28.3780  -13.1870   19.2870 C   0  0  0  0  0  3  0  0  0  0  0  0
  -29.5810  -13.1090   20.2440 C   0  0  0  0  0  2  0  0  0  0  0  0
  -30.7670  -13.5630   19.4940 N   0  0  0  0  0  0  0  0  0  0  0  0
  -32.4780  -14.8760   18.8810 O   0  0  0  0  0  0  0  0  0  0  0  0
  -30.8250  -15.9940   20.0460 N   0  0  0  0  0  0  0  0  0  0  0  0
  -26.2080  -13.8080   20.4870 C   0  0  0  0  0  0  0  0  0  0  0  0
  -25.1690  -13.0600   20.9660 C   0  0  0  0  0  0  0  0  0  0  0  0
  -25.5110  -11.6990   20.7050 C   0  0  0  0  0  0  0  0  0  0  0  0
  -27.1200  -12.9060   19.9710 N   0  0  0  0  0  0  0  0  0  0  0  0
  -26.7220  -11.6240   20.1630 N   0  0  0  0  0  0  0  0  0  0  0  0
  -24.7280  -10.4690   20.8780 C   0  0  0  0  0  0  0  0  0  0  0  0
  -25.1280   -9.4640   21.7850 C   0  0  0  0  0  3  0  0  0  0  0  0
  -24.3500   -8.2990   21.9490 C   0  0  0  0  0  3  0  0  0  0  0  0
  -23.1580   -8.1300   21.2060 C   0  0  0  0  0  0  0  0  0  0  0  0
  -22.7770   -9.1230   20.2860 C   0  0  0  0  0  3  0  0  0  0  0  0
  -23.5550  -10.2800   20.1200 C   0  0  0  0  0  3  0  0  0  0  0  0
  -22.3510   -7.0200   21.2820 O   0  0  0  0  0  0  0  0  0  0  0  0
  -22.1170   -6.3800   22.4730 C   0  0  0  0  0  0  0  0  0  0  0  0
  -21.5840   -7.0570   23.5910 C   0  0  0  0  0  3  0  0  0  0  0  0
  -21.2940   -6.3460   24.7710 C   0  0  0  0  0  3  0  0  0  0  0  0
  -21.5270   -4.9590   24.8350 C   0  0  0  0  0  0  0  0  0  0  0  0
  -22.0560   -4.2830   23.7220 C   0  0  0  0  0  3  0  0  0  0  0  0
  -22.3470   -4.9910   22.5430 C   0  0  0  0  0  0  0  0  0  0  0  0
  -22.8340   -4.3300   21.4660 F   0  0  0  0  0  0  0  0  0  0  0  0
  -21.2410   -4.2750   25.9670 F   0  0  0  0  0  0  0  0  0  0  0  0
  -23.8800  -13.5860   21.5290 C   0  0  0  0  0  0  0  0  0  0  0  0
  -23.2660  -12.8470   22.4450 N   0  0  0  0  0  0  0  0  0  0  0  0
  -23.4380  -14.6840   21.1910 O   0  0  0  0  0  0  0  0  0  0  0  0
  -23.6440  -11.9560   22.7320 H   0  0  0  0  0  0  0  0  0  0  0  0
  -22.4070  -13.1760   22.8630 H   0  0  0  0  0  0  0  0  0  0  0  0
  -26.4510  -15.1750   20.4130 N   0  0  0  0  0  0  0  0  0  0  0  0
  -25.6200  -15.7280   20.5950 H   0  0  0  0  0  0  0  0  0  0  0  0
  -26.8680  -15.4640   19.5340 H   0  0  0  0  0  0  0  0  0  0  0  0
  -30.7890  -15.9270   21.5240 C   0  0  0  0  0  2  0  0  0  0  0  0
  -29.9920  -17.0250   22.1740 C   0  0  0  0  0  0  0  0  0  0  0  0
  -28.7190  -17.2640   21.8310 N   0  0  0  0  0  4  0  0  0  0  0  0
  -30.5630  -17.7590   23.1410 N   0  0  0  0  0  0  0  0  0  0  0  0
  -28.1940  -16.7380   21.1350 H   0  0  0  0  0  0  0  0  0  0  0  0
  -28.1570  -17.9710   22.2820 H   0  0  0  0  0  0  0  0  0  0  0  0
  -31.4990  -17.5510   23.4670 H   0  0  0  0  0  0  0  0  0  0  0  0
  -30.0560  -18.4500   23.6780 H   0  0  0  0  0  0  0  0  0  0  0  0
  -29.8180  -21.6420   20.0020 C   0  0  0  0  0  2  0  0  0  0  0  0
  -30.2180  -23.2520   19.6280 C   0  0  0  0  0  3  0  0  0  0  0  0
  -29.1630  -24.5750   19.7040 C   0  0  0  0  0  3  0  0  0  0  0  0
  -29.4810  -26.1050   19.7960 O   0  0  0  0  0  0  0  0  0  0  0  0
  -25.8230  -31.1930   23.7070 C   0  0  0  0  0  0  0  0  0  0  0  0
  -28.4390  -27.1050   19.8950 C   0  0  0  0  0  0  0  0  0  0  0  0
  -24.6690  -30.1910   21.7750 C   0  0  0  0  0  3  0  0  0  0  0  0
  -26.1460  -28.8910   20.1220 C   0  0  0  0  0  0  0  0  0  0  0  0
  -27.2340  -30.4070   21.7690 C   0  0  0  0  0  2  0  0  0  0  0  0
  -27.3070  -29.1720   20.8540 C   0  0  0  0  0  0  0  0  0  0  0  0
  -28.4560  -28.3010   20.7230 C   0  0  0  0  0  3  0  0  0  0  0  0
  -27.2500  -26.9300   19.1510 C   0  0  0  0  0  3  0  0  0  0  0  0
  -26.1310  -27.7860   19.2590 C   0  0  0  0  0  3  0  0  0  0  0  0
  -24.9390  -29.7990   20.2970 C   0  0  0  0  0  2  0  0  0  0  0  0
  -25.9260  -30.6080   22.4750 N   0  0  0  0  0  0  0  0  0  0  0  0
  -24.7210  -31.3990   24.2380 O   0  0  0  0  0  0  0  0  0  0  0  0
  -23.9250  -29.0330   22.4850 C   0  0  0  0  0  0  0  0  0  0  0  0
  -22.6080  -28.9100   22.2450 N   0  0  0  0  0  0  0  0  0  0  0  0
  -24.5390  -28.2540   23.2190 O   0  0  0  0  0  0  0  0  0  0  0  0
  -22.1700  -29.5950   21.6450 H   0  0  0  0  0  0  0  0  0  0  0  0
  -19.1940  -27.6930   22.3040 C   0  0  0  0  0  0  0  0  0  0  0  0
  -21.7330  -27.8590   22.7730 C   0  0  0  0  0  3  0  0  0  0  0  0
  -21.8630  -26.5580   21.9470 C   0  0  0  0  0  2  0  0  0  0  0  0
  -20.8270  -26.4480   20.8250 C   0  0  0  0  0  2  0  0  0  0  0  0
  -19.4080  -26.4930   21.3980 C   0  0  0  0  0  2  0  0  0  0  0  0
  -20.2870  -28.3450   22.9380 C   0  0  0  0  0  0  0  0  0  0  0  0
  -20.0350  -29.4740   23.7460 C   0  0  0  0  0  3  0  0  0  0  0  0
  -18.7250  -29.9530   23.9250 C   0  0  0  0  0  3  0  0  0  0  0  0
  -17.6460  -29.2980   23.3060 C   0  0  0  0  0  3  0  0  0  0  0  0
  -17.8810  -28.1690   22.5020 C   0  0  0  0  0  3  0  0  0  0  0  0
  -27.0830  -31.6520   24.5010 C   0  0  0  0  0  3  0  0  0  0  0  0
  -26.7920  -32.9730   25.0810 N   0  0  0  0  0  0  0  0  0  0  0  0
  -27.1580  -34.1440   24.5410 C   0  0  0  0  0  0  0  0  0  0  0  0
  -27.8430  -34.2210   23.5180 O   0  0  0  0  0  0  0  0  0  0  0  0
  -26.1850  -32.9870   25.8880 H   0  0  0  0  0  0  0  0  0  0  0  0
  -25.4690  -36.0100   24.5190 C   0  0  0  0  0  1  0  0  0  0  0  0
  -26.6930  -35.4330   25.2470 C   0  0  0  0  0  3  0  0  0  0  0  0
  -28.8340  -36.1070   26.2450 C   0  0  0  0  0  1  0  0  0  0  0  0
  -27.7460  -36.4670   25.3400 N   0  0  0  0  0  0  0  0  0  0  0  0
  -27.3550  -37.3530   25.6500 H   0  0  0  0  0  0  0  0  0  0  0  0
  -27.5070  -30.6360   25.6340 C   0  0  1  0  0  0  0  0  0  0  0  0
  -26.3560  -30.2550   26.5930 C   0  0  0  0  0  1  0  0  0  0  0  0
  -28.0580  -29.3270   25.0210 C   0  0  0  0  0  1  0  0  0  0  0  0
  -28.6530  -31.2420   26.4780 C   0  0  0  0  0  1  0  0  0  0  0  0
  1  3  1  0
  2  1  1  0
  2  4  1  0
  3  5  1  0
  4  6  1  0
  5  8  1  0
  6  5  1  0
  6 54  1  0
  6  7  1  1
  8 17  1  0
  9 17  1  0
 10 15  1  0
 11 12  1  0
 11 10  1  0
 13 12  1  0
 13 21  1  0
 13 14  1  0
 15  9  1  0
 15 14  1  0
 16  9  2  0
 17 46  1  0
 18 19  2  0
 19 38  1  0
 20 23  1  0
 20 19  1  0
 21 22  1  0
 21 18  1  0
 22 20  2  0
 23 24  1  0
 24 25  2  0
 26 29  1  0
 26 25  1  0
 27 26  2  0
 28 27  1  0
 28 23  2  0
 29 30  1  0
 30 35  2  0
 30 31  1  0
 31 32  2  0
 32 33  1  0
 33 37  1  0
 34 33  2  0
 35 34  1  0
 36 35  1  0
 38 39  1  0
 39 41  1  0
 39 42  1  0
 40 38  2  0
 43 18  1  0
 43 44  1  0
 45 43  1  0
 46 47  1  0
 47 49  1  0
 48 47  2  0
 48 51  1  0
 49 52  1  0
 49 53  1  0
 50 48  1  0
 55 56  2  0
 55 54  1  0
 56 57  1  0
 57 59  1  0
 58 69  2  0
 59 64  1  0
 60 68  1  0
 60 70  1  0
 61 67  1  0
 61 63  1  0
 62 68  1  0
 63 62  1  0
 64 63  2  0
 65 66  1  0
 65 59  2  0
 66 61  2  0
 67 60  1  0
 68 58  1  0
 70 72  2  0
 71 70  1  0
 73 71  1  0
 74 83  2  0
 74 79  1  0
 75 71  1  0
 75 79  1  0
 76 75  1  0
 77 78  1  0
 77 76  1  0
 78 74  1  0
 79 80  2  0
 80 81  1  0
 82 81  2  0
 83 82  1  0
 84 58  1  0
 84 85  1  0
 84 94  1  0
 85 88  1  0
 86 85  1  0
 86 90  1  0
 87 86  2  0
 90 89  1  0
 90 92  1  0
 92 93  1  0
 92 91  1  0
 94 97  1  1
 94 95  1  0
 96 94  1  0
M  ISO  4   9 100  17 100  56 101  57 101
M  END
>  <TORSDO>  (74) 
F 22

>  <SCORE>  (74) 
-9.483

>  <name>  (74) 
74

>  <ligand_id>  (74) 
74

>  <original_smiles>  (74) 
[H]c1c([H])c([H])c2c(c1[H])C([H])([H])C([H])([H])C([H])([H])C2([H])N([H])C(=O)C1([H])N(C(=O)C([H])(N([H])C(=O)C([H])(N([H])C([H])([H])[H])C([H])([H])[H])C(C([H])([H])[H])(C([H])([H])[H])C([H])([H])[H])C([H])([H])c2c([H])c(OC([H])([H])C([H])([H])C([H])([H])[N+]3([H])C([H])([H])C([H])([H])C([H])([H])C([H])([H])C3([H])C([H])([H])N(C(=O)N3C([H])([H])C([H])([H])C([H])([H])C([H])(n4nc(-c5c([H])c([H])c(Oc6c([H])c([H])c(F)c([H])c6F)c([H])c5[H])c(C(=O)N([H])[H])c4N([H])[H])C3([H])[H])C([H])([H])C(N([H])[H])=[N+]([H])[H])c([H])c([H])c2C1([H])[H]

>  <smiles>  (74) 
[H]c1c([H])c([H])c2c(c1[H])C([H])([H])C([H])([H])C([H])([H])C2([H])N([H])C(=O)C1([H])N(C(=O)C([H])(N([H])C(=O)C([H])(N([H])C([H])([H])[H])C([H])([H])[H])C(C([H])([H])[H])(C([H])([H])[H])C([H])([H])[H])C([H])([H])c2c([H])c(OC([H])([H])C([H])([H])C([H])([H])[N+]3([H])C([H])([H])C([H])([H])C([H])([H])C([H])([H])C3([H])C([H])([H])N(C(=O)N3C([H])([H])C([H])([H])C([H])([H])C([H])(n4nc(-c5c([H])c([H])c(Oc6c([H])c([H])c(F)c([H])c6F)c([H])c5[H])c(C(=O)N([H])[H])c4N([H])[H])C3([H])[H])C([H])([H])C(N([H])[H])=[N+]([H])[H])c([H])c([H])c2C1([H])[H]

$$$$
75:0:0
     RDKit          3D

 99107  0  0  1  0  0  0  0  0999 V2000
  -30.8210  -20.0920   19.3530 C   0  0  0  0  0  2  0  0  0  0  0  0
  -30.2600  -19.1730   17.0600 C   0  0  0  0  0  2  0  0  0  0  0  0
  -29.2840  -21.3510   17.7950 C   0  0  0  0  0  2  0  0  0  0  0  0
  -30.5970  -18.7850   18.5220 C   0  0  0  0  0  3  0  0  0  0  0  0
  -29.5640  -20.9940   19.2770 C   0  0  0  0  0  3  0  0  0  0  0  0
  -29.1180  -20.1220   16.9830 N   0  0  0  0  0  4  0  0  0  0  0  0
  -28.2720  -19.6570   17.2670 H   0  0  0  0  0  0  0  0  0  0  0  0
  -28.9900  -20.3950   16.0210 H   0  0  0  0  0  0  0  0  0  0  0  0
  -28.1740  -22.4250   20.6310 C   0  0  0  0  0  1  0  0  0  0  0  0
  -29.5570  -22.1240   20.2490 N   0  0  0  0  0  0  0  0  0  0  0  0
  -30.2670  -23.3600   19.8440 C   0  0  0  0  0  2  0  0  0  0  0  0
  -29.9980  -24.6390   20.7150 C   0  0  0  0  0  2  0  0  0  0  0  0
  -28.9890  -25.6430   20.0860 C   0  0  0  0  0  2  0  0  0  0  0  0
  -29.0030  -26.9920   20.6140 O   0  0  0  0  0  0  0  0  0  0  0  0
  -24.9060  -32.0640   23.5630 C   0  0  0  0  0  0  0  0  0  0  0  0
  -27.8100  -27.7050   20.5510 C   0  0  0  0  0  0  0  0  0  0  0  0
  -23.7980  -30.5980   21.9100 C   0  0  0  0  0  3  0  0  0  0  0  0
  -25.3490  -29.1310   20.5150 C   0  0  0  0  0  0  0  0  0  0  0  0
  -26.3120  -31.0660   21.7600 C   0  0  0  0  0  2  0  0  0  0  0  0
  -26.4740  -29.6960   21.1270 C   0  0  0  0  0  0  0  0  0  0  0  0
  -27.7040  -28.9900   21.1470 C   0  0  0  0  0  3  0  0  0  0  0  0
  -26.6580  -27.1760   19.9170 C   0  0  0  0  0  3  0  0  0  0  0  0
  -25.4380  -27.8720   19.9080 C   0  0  0  0  0  3  0  0  0  0  0  0
  -24.0660  -29.9310   20.5360 C   0  0  0  0  0  2  0  0  0  0  0  0
  -25.0220  -31.2580   22.4690 N   0  0  0  0  0  0  0  0  0  0  0  0
  -23.8030  -32.2880   24.0800 O   0  0  0  0  0  0  0  0  0  0  0  0
  -23.1800  -29.5500   22.8630 C   0  0  0  0  0  0  0  0  0  0  0  0
  -21.9210  -29.1670   22.5990 N   0  0  0  0  0  0  0  0  0  0  0  0
  -23.8380  -29.0820   23.7970 O   0  0  0  0  0  0  0  0  0  0  0  0
  -21.4460  -29.6060   21.8210 H   0  0  0  0  0  0  0  0  0  0  0  0
  -18.7250  -27.4880   22.7650 C   0  0  0  0  0  0  0  0  0  0  0  0
  -21.1520  -28.1670   23.3410 C   0  0  0  0  0  3  0  0  0  0  0  0
  -21.5460  -26.7340   22.9130 C   0  0  0  0  0  2  0  0  0  0  0  0
  -20.6580  -26.1690   21.8000 C   0  0  0  0  0  2  0  0  0  0  0  0
  -19.1920  -26.1380   22.2450 C   0  0  0  0  0  2  0  0  0  0  0  0
  -19.6470  -28.4440   23.2650 C   0  0  0  0  0  0  0  0  0  0  0  0
  -19.1610  -29.6960   23.7050 C   0  0  0  0  0  3  0  0  0  0  0  0
  -17.7870  -29.9950   23.6540 C   0  0  0  0  0  3  0  0  0  0  0  0
  -16.8780  -29.0370   23.1720 C   0  0  0  0  0  3  0  0  0  0  0  0
  -17.3470  -27.7860   22.7340 C   0  0  0  0  0  3  0  0  0  0  0  0
  -26.1490  -32.7610   24.1980 C   0  0  0  0  0  3  0  0  0  0  0  0
  -26.6600  -32.0440   25.5080 C   0  0  1  0  0  0  0  0  0  0  0  0
  -25.5320  -31.6960   26.5070 C   0  0  0  0  0  1  0  0  0  0  0  0
  -27.4020  -30.7320   25.1590 C   0  0  0  0  0  1  0  0  0  0  0  0
  -27.6820  -32.9480   26.2360 C   0  0  0  0  0  1  0  0  0  0  0  0
  -25.7790  -34.1530   24.4790 N   0  0  0  0  0  0  0  0  0  0  0  0
  -26.0450  -35.1890   23.6710 C   0  0  0  0  0  0  0  0  0  0  0  0
  -26.7000  -35.0770   22.6320 O   0  0  0  0  0  0  0  0  0  0  0  0
  -25.1940  -34.3130   25.2870 H   0  0  0  0  0  0  0  0  0  0  0  0
  -24.2000  -36.8590   23.3110 C   0  0  0  0  0  1  0  0  0  0  0  0
  -25.4970  -36.5680   24.0820 C   0  0  0  0  0  3  0  0  0  0  0  0
  -27.6110  -37.6150   24.7670 C   0  0  0  0  0  1  0  0  0  0  0  0
  -26.4610  -37.6710   23.8680 N   0  0  0  0  0  0  0  0  0  0  0  0
  -26.0070  -38.5720   23.9920 H   0  0  0  0  0  0  0  0  0  0  0  0
  -31.7900  -17.7750   18.6220 C   0  0  0  0  0  2  0  0  0  0  0  0
  -32.2460  -15.3790   19.1770 C   0  0  0  0  0  0  0  0  0  0  0  0
  -32.1020  -12.9460   18.6960 C   0  0  0  0  0  2  0  0  0  0  0  0
  -31.0390  -12.6770   17.6070 C   0  0  0  0  0  2  0  0  0  0  0  0
  -29.6300  -12.5360   18.2220 C   0  0  0  0  0  2  0  0  0  0  0  0
  -29.3120  -13.6620   19.2400 C   0  0  0  0  0  3  0  0  0  0  0  0
  -30.4810  -13.8070   20.2280 C   0  0  0  0  0  2  0  0  0  0  0  0
  -31.6870  -14.1510   19.4500 N   0  0  0  0  0  0  0  0  0  0  0  0
  -33.2780  -15.4440   18.4970 O   0  0  0  0  0  0  0  0  0  0  0  0
  -31.5350  -16.5370   19.4330 N   0  0  0  0  0  0  0  0  0  0  0  0
  -27.1630  -14.3500   20.4750 C   0  0  0  0  0  0  0  0  0  0  0  0
  -26.1070  -13.6190   20.9510 C   0  0  0  0  0  0  0  0  0  0  0  0
  -26.4140  -12.2530   20.6680 C   0  0  0  0  0  0  0  0  0  0  0  0
  -28.0480  -13.4310   19.9340 N   0  0  0  0  0  0  0  0  0  0  0  0
  -27.6120  -12.1570   20.1050 N   0  0  0  0  0  0  0  0  0  0  0  0
  -25.6120  -11.0360   20.8460 C   0  0  0  0  0  0  0  0  0  0  0  0
  -25.8340  -10.1600   21.9310 C   0  0  0  0  0  3  0  0  0  0  0  0
  -25.0400   -9.0040   22.0910 C   0  0  0  0  0  3  0  0  0  0  0  0
  -24.0110   -8.7170   21.1640 C   0  0  0  0  0  0  0  0  0  0  0  0
  -23.8100   -9.5810   20.0740 C   0  0  0  0  0  3  0  0  0  0  0  0
  -24.6030  -10.7290   19.9130 C   0  0  0  0  0  3  0  0  0  0  0  0
  -23.2060   -7.6060   21.2240 O   0  0  0  0  0  0  0  0  0  0  0  0
  -22.5110   -7.2820   22.3620 C   0  0  0  0  0  0  0  0  0  0  0  0
  -21.5320   -8.1420   22.9060 C   0  0  0  0  0  3  0  0  0  0  0  0
  -20.7930   -7.7390   24.0360 C   0  0  0  0  0  3  0  0  0  0  0  0
  -21.0210   -6.4760   24.6150 C   0  0  0  0  0  0  0  0  0  0  0  0
  -21.9930   -5.6190   24.0710 C   0  0  0  0  0  3  0  0  0  0  0  0
  -22.7340   -6.0190   22.9460 C   0  0  0  0  0  0  0  0  0  0  0  0
  -23.6530   -5.1790   22.4120 F   0  0  0  0  0  0  0  0  0  0  0  0
  -20.3050   -6.0850   25.6960 F   0  0  0  0  0  0  0  0  0  0  0  0
  -24.8400  -14.1620   21.5460 C   0  0  0  0  0  0  0  0  0  0  0  0
  -24.2270  -13.4230   22.4640 N   0  0  0  0  0  0  0  0  0  0  0  0
  -24.4130  -15.2720   21.2340 O   0  0  0  0  0  0  0  0  0  0  0  0
  -24.5890  -12.5200   22.7350 H   0  0  0  0  0  0  0  0  0  0  0  0
  -23.3810  -13.7630   22.9000 H   0  0  0  0  0  0  0  0  0  0  0  0
  -27.4360  -15.7140   20.4430 N   0  0  0  0  0  0  0  0  0  0  0  0
  -26.7520  -16.3990   20.7450 H   0  0  0  0  0  0  0  0  0  0  0  0
  -28.2260  -16.1190   19.9620 H   0  0  0  0  0  0  0  0  0  0  0  0
  -30.9190  -16.7880   20.7620 C   0  0  0  0  0  2  0  0  0  0  0  0
  -31.6350  -17.7430   21.7540 C   0  0  0  0  0  2  0  0  0  0  0  0
  -30.8740  -17.9070   23.0890 C   0  0  0  0  0  2  0  0  0  0  0  0
  -30.0120  -19.1050   23.1200 N   0  0  0  0  0  4  0  0  0  0  0  0
  -29.5840  -19.1780   24.0250 H   0  0  0  0  0  0  0  0  0  0  0  0
  -29.2760  -19.0560   22.4380 H   0  0  0  0  0  0  0  0  0  0  0  0
  -30.5490  -19.9410   22.9680 H   0  0  0  0  0  0  0  0  0  0  0  0
  2  4  1  0
  3  5  1  0
  4 55  1  0
  4  1  1  0
  5  1  1  0
  5 10  1  0
  6  2  1  0
  6  7  1  0
  6  3  1  0
  8  6  1  0
 10  9  1  0
 11 10  1  0
 11 12  1  0
 13 14  1  0
 13 12  1  0
 15 26  2  0
 16 14  1  0
 16 21  1  0
 17 25  1  0
 17 27  1  0
 18 24  1  0
 18 20  1  0
 19 25  1  0
 20 21  2  0
 20 19  1  0
 22 16  2  0
 23 22  1  0
 23 18  2  0
 24 17  1  0
 25 15  1  0
 27 29  2  0
 28 27  1  0
 30 28  1  0
 31 36  1  0
 32 28  1  0
 33 32  1  0
 34 35  1  0
 34 33  1  0
 35 31  1  0
 36 32  1  0
 36 37  2  0
 38 37  1  0
 39 38  2  0
 40 31  2  0
 40 39  1  0
 41 15  1  0
 41 46  1  0
 41 42  1  0
 42 45  1  1
 42 43  1  0
 44 42  1  0
 46 49  1  0
 47 51  1  0
 47 46  1  0
 48 47  2  0
 51 50  1  0
 53 54  1  0
 53 51  1  0
 53 52  1  0
 55 64  1  0
 56 64  1  0
 56 62  1  0
 57 62  1  0
 58 59  1  0
 58 57  1  0
 60 59  1  0
 60 68  1  0
 60 61  1  0
 62 61  1  0
 63 56  2  0
 64 93  1  0
 65 66  2  0
 66 85  1  0
 67 70  1  0
 67 66  1  0
 68 69  1  0
 68 65  1  0
 69 67  2  0
 70 71  1  0
 71 72  2  0
 73 76  1  0
 73 72  1  0
 74 73  2  0
 75 74  1  0
 75 70  2  0
 76 77  1  0
 77 78  2  0
 77 82  1  0
 78 79  1  0
 79 80  2  0
 80 84  1  0
 81 80  1  0
 82 81  2  0
 83 82  1  0
 85 86  1  0
 86 88  1  0
 86 89  1  0
 87 85  2  0
 90 65  1  0
 90 91  1  0
 92 90  1  0
 93 94  1  0
 94 95  1  0
 95 96  1  0
 96 97  1  0
 98 96  1  0
 99 96  1  0
M  ISO  4  13 101  14 101  56 100  64 100
M  END
>  <TORSDO>  (75) 
F 25

>  <SCORE>  (75) 
-7.676

>  <name>  (75) 
75

>  <ligand_id>  (75) 
75

>  <original_smiles>  (75) 
[H]c1c([H])c([H])c2c(c1[H])C([H])([H])C([H])([H])C([H])([H])C2([H])N([H])C(=O)C1([H])N(C(=O)C([H])(N([H])C(=O)C([H])(N([H])C([H])([H])[H])C([H])([H])[H])C(C([H])([H])[H])(C([H])([H])[H])C([H])([H])[H])C([H])([H])c2c([H])c(OC([H])([H])C([H])([H])C([H])([H])N(C([H])([H])[H])C3([H])C([H])([H])C([H])(C([H])([H])N(C(=O)N4C([H])([H])C([H])([H])C([H])([H])C([H])(n5nc(-c6c([H])c([H])c(Oc7c([H])c([H])c(F)c([H])c7F)c([H])c6[H])c(C(=O)N([H])[H])c5N([H])[H])C4([H])[H])C([H])([H])C([H])([H])C([H])([H])[N+]([H])([H])[H])C([H])([H])[N+]([H])([H])C3([H])[H])c([H])c([H])c2C1([H])[H]

>  <smiles>  (75) 
[H]c1c([H])c([H])c2c(c1[H])C([H])([H])C([H])([H])C([H])([H])C2([H])N([H])C(=O)C1([H])N(C(=O)C([H])(N([H])C(=O)C([H])(N([H])C([H])([H])[H])C([H])([H])[H])C(C([H])([H])[H])(C([H])([H])[H])C([H])([H])[H])C([H])([H])c2c([H])c(OC([H])([H])C([H])([H])C([H])([H])N(C([H])([H])[H])C3([H])C([H])([H])C([H])(C([H])([H])N(C(=O)N4C([H])([H])C([H])([H])C([H])([H])C([H])(n5nc(-c6c([H])c([H])c(Oc7c([H])c([H])c(F)c([H])c7F)c([H])c6[H])c(C(=O)N([H])[H])c5N([H])[H])C4([H])[H])C([H])([H])C([H])([H])C([H])([H])[N+]([H])([H])[H])C([H])([H])[N+]([H])([H])C3([H])[H])c([H])c([H])c2C1([H])[H]

$$$$
76:0:0
     RDKit          3D

 99107  0  0  1  0  0  0  0  0999 V2000
  -28.7330  -20.7860   16.5130 C   0  0  0  0  0  1  0  0  0  0  0  0
  -29.3460  -20.8120   17.8710 N   0  0  1  0  0  4  0  0  0  0  0  0
  -30.1250  -21.4510   17.8320 H   0  0  0  0  0  0  0  0  0  0  0  0
  -28.3870  -21.3030   18.9000 C   0  0  0  0  0  2  0  0  0  0  0  0
  -29.5010  -23.1710   20.3480 C   0  0  0  0  0  2  0  0  0  0  0  0
  -28.5810  -23.7820   18.0400 C   0  0  0  0  0  2  0  0  0  0  0  0
  -29.4230  -24.6640   20.7760 C   0  0  0  0  0  2  0  0  0  0  0  0
  -28.6800  -25.2610   18.4520 C   0  0  0  0  0  2  0  0  0  0  0  0
  -28.4800  -22.8080   19.2410 C   0  0  0  0  0  3  0  0  0  0  0  0
  -28.3950  -25.4550   19.9480 C   0  0  0  0  0  3  0  0  0  0  0  0
  -28.4090  -26.8390   20.2570 O   0  0  0  0  0  0  0  0  0  0  0  0
  -24.5890  -31.9460   23.3020 C   0  0  0  0  0  0  0  0  0  0  0  0
  -27.2130  -27.5260   20.2080 C   0  0  0  0  0  0  0  0  0  0  0  0
  -23.3700  -30.5560   21.6600 C   0  0  0  0  0  3  0  0  0  0  0  0
  -24.8120  -29.0200   20.2290 C   0  0  0  0  0  0  0  0  0  0  0  0
  -25.8950  -30.9110   21.4550 C   0  0  0  0  0  2  0  0  0  0  0  0
  -25.9710  -29.5450   20.8120 C   0  0  0  0  0  0  0  0  0  0  0  0
  -27.1720  -28.8040   20.8000 C   0  0  0  0  0  3  0  0  0  0  0  0
  -26.0300  -27.0160   19.6130 C   0  0  0  0  0  3  0  0  0  0  0  0
  -24.8330  -27.7520   19.6290 C   0  0  0  0  0  3  0  0  0  0  0  0
  -23.5710  -29.8800   20.2790 C   0  0  0  0  0  2  0  0  0  0  0  0
  -24.6370  -31.1500   22.1980 N   0  0  0  0  0  0  0  0  0  0  0  0
  -23.5110  -32.2250   23.8480 O   0  0  0  0  0  0  0  0  0  0  0  0
  -22.7190  -29.5330   22.6190 C   0  0  0  0  0  0  0  0  0  0  0  0
  -21.3940  -29.3490   22.4870 N   0  0  0  0  0  0  0  0  0  0  0  0
  -23.4000  -28.9070   23.4350 O   0  0  0  0  0  0  0  0  0  0  0  0
  -20.9070  -29.9050   21.7970 H   0  0  0  0  0  0  0  0  0  0  0  0
  -18.0200  -28.1540   22.9690 C   0  0  0  0  0  0  0  0  0  0  0  0
  -20.5750  -28.4150   23.2550 C   0  0  0  0  0  3  0  0  0  0  0  0
  -20.6830  -26.9820   22.6880 C   0  0  0  0  0  2  0  0  0  0  0  0
  -19.5870  -26.6510   21.6700 C   0  0  0  0  0  2  0  0  0  0  0  0
  -18.2010  -26.8000   22.3020 C   0  0  0  0  0  2  0  0  0  0  0  0
  -19.1340  -28.9190   23.4020 C   0  0  0  0  0  0  0  0  0  0  0  0
  -18.9100  -30.1860   23.9840 C   0  0  0  0  0  3  0  0  0  0  0  0
  -17.6050  -30.6890   24.1350 C   0  0  0  0  0  3  0  0  0  0  0  0
  -16.5040  -29.9220   23.7160 C   0  0  0  0  0  3  0  0  0  0  0  0
  -16.7130  -28.6560   23.1420 C   0  0  0  0  0  3  0  0  0  0  0  0
  -25.8810  -32.5660   23.9190 C   0  0  0  0  0  3  0  0  0  0  0  0
  -26.3880  -31.8030   25.2030 C   0  0  1  0  0  0  0  0  0  0  0  0
  -25.2910  -31.5890   26.2720 C   0  0  0  0  0  1  0  0  0  0  0  0
  -26.9590  -30.4150   24.8270 C   0  0  0  0  0  1  0  0  0  0  0  0
  -27.5480  -32.5940   25.8560 C   0  0  0  0  0  1  0  0  0  0  0  0
  -25.5910  -33.9740   24.2260 N   0  0  0  0  0  0  0  0  0  0  0  0
  -25.9470  -35.0090   23.4540 C   0  0  0  0  0  0  0  0  0  0  0  0
  -26.6270  -34.8790   22.4320 O   0  0  0  0  0  0  0  0  0  0  0  0
  -24.9920  -34.1490   25.0200 H   0  0  0  0  0  0  0  0  0  0  0  0
  -24.2530  -36.8220   23.0460 C   0  0  0  0  0  1  0  0  0  0  0  0
  -25.4730  -36.4090   23.8850 C   0  0  0  0  0  3  0  0  0  0  0  0
  -27.6080  -37.2670   24.7380 C   0  0  0  0  0  1  0  0  0  0  0  0
  -26.5240  -37.4430   23.7760 N   0  0  0  0  0  0  0  0  0  0  0  0
  -26.1320  -38.3710   23.9120 H   0  0  0  0  0  0  0  0  0  0  0  0
  -29.8470  -19.4540   18.2030 C   0  0  0  0  0  2  0  0  0  0  0  0
  -30.9760  -19.3610   19.2800 C   0  0  0  0  0  3  0  0  0  0  0  0
  -30.8040  -18.0910   20.1770 C   0  0  0  0  0  2  0  0  0  0  0  0
  -31.2450  -16.3350   18.2790 C   0  0  0  0  0  1  0  0  0  0  0  0
  -30.3570  -16.7740   19.4730 C   0  0  0  0  0  3  0  0  0  0  0  0
  -30.8840  -14.6890   20.8000 C   0  0  0  0  0  0  0  0  0  0  0  0
  -30.6950  -12.4350   19.9130 C   0  0  0  0  0  2  0  0  0  0  0  0
  -29.8600  -12.5540   18.6190 C   0  0  0  0  0  2  0  0  0  0  0  0
  -28.3540  -12.4470   18.9230 C   0  0  0  0  0  2  0  0  0  0  0  0
  -27.9020  -13.3560   20.0970 C   0  0  0  0  0  3  0  0  0  0  0  0
  -28.8730  -13.2690   21.3020 C   0  0  0  0  0  2  0  0  0  0  0  0
  -30.2440  -13.4960   20.8160 N   0  0  0  0  0  0  0  0  0  0  0  0
  -32.1040  -14.8180   20.6980 O   0  0  0  0  0  0  0  0  0  0  0  0
  -30.0720  -15.6860   20.4250 N   0  0  0  0  0  0  0  0  0  0  0  0
  -29.0960  -15.4660   20.5440 H   0  0  0  0  0  0  0  0  0  0  0  0
  -25.4530  -13.9580   20.6130 C   0  0  0  0  0  0  0  0  0  0  0  0
  -24.3680  -13.1800   20.9180 C   0  0  0  0  0  0  0  0  0  0  0  0
  -24.8440  -11.8350   20.9590 C   0  0  0  0  0  0  0  0  0  0  0  0
  -26.5210  -13.0820   20.4860 N   0  0  0  0  0  0  0  0  0  0  0  0
  -26.1550  -11.8040   20.7540 N   0  0  0  0  0  0  0  0  0  0  0  0
  -24.1200  -10.5680   21.1230 C   0  0  0  0  0  0  0  0  0  0  0  0
  -24.5040   -9.6180   22.0950 C   0  0  0  0  0  3  0  0  0  0  0  0
  -23.7800   -8.4170   22.2480 C   0  0  0  0  0  3  0  0  0  0  0  0
  -22.6590   -8.1560   21.4250 C   0  0  0  0  0  0  0  0  0  0  0  0
  -22.2960   -9.0930   20.4450 C   0  0  0  0  0  3  0  0  0  0  0  0
  -23.0200  -10.2880   20.2900 C   0  0  0  0  0  3  0  0  0  0  0  0
  -21.9150   -7.0010   21.4800 O   0  0  0  0  0  0  0  0  0  0  0  0
  -21.8120   -6.2680   22.6340 C   0  0  0  0  0  0  0  0  0  0  0  0
  -21.3190   -6.8310   23.8330 C   0  0  0  0  0  3  0  0  0  0  0  0
  -21.1600   -6.0230   24.9760 C   0  0  0  0  0  3  0  0  0  0  0  0
  -21.4870   -4.6550   24.9220 C   0  0  0  0  0  0  0  0  0  0  0  0
  -21.9760   -4.0920   23.7300 C   0  0  0  0  0  3  0  0  0  0  0  0
  -22.1340   -4.8970   22.5880 C   0  0  0  0  0  0  0  0  0  0  0  0
  -22.5830   -4.3460   21.4340 F   0  0  0  0  0  0  0  0  0  0  0  0
  -21.3320   -3.8760   26.0190 F   0  0  0  0  0  0  0  0  0  0  0  0
  -22.9480  -13.6470   21.0700 C   0  0  0  0  0  0  0  0  0  0  0  0
  -22.1670  -12.9640   21.9000 N   0  0  0  0  0  0  0  0  0  0  0  0
  -22.5360  -14.6500   20.4920 O   0  0  0  0  0  0  0  0  0  0  0  0
  -22.5180  -12.1520   22.3830 H   0  0  0  0  0  0  0  0  0  0  0  0
  -21.2130  -13.2570   22.0520 H   0  0  0  0  0  0  0  0  0  0  0  0
  -25.6170  -15.3240   20.4080 N   0  0  0  0  0  0  0  0  0  0  0  0
  -24.8360  -15.9720   20.4430 H   0  0  0  0  0  0  0  0  0  0  0  0
  -26.4820  -15.7640   20.1220 H   0  0  0  0  0  0  0  0  0  0  0  0
  -32.4200  -19.4270   18.6800 C   0  0  0  0  0  2  0  0  0  0  0  0
  -33.2020  -20.6020   19.1170 N   0  0  0  0  0  4  0  0  0  0  0  0
  -33.2930  -20.6350   20.1180 H   0  0  0  0  0  0  0  0  0  0  0  0
  -32.8090  -21.4670   18.7930 H   0  0  0  0  0  0  0  0  0  0  0  0
  -34.1300  -20.5360   18.7350 H   0  0  0  0  0  0  0  0  0  0  0  0
  1  2  1  0
  2 52  1  0
  2  4  1  0
  2  3  1  6
  5  7  1  0
  6  8  1  0
  6  9  1  0
  8 10  1  0
  9  4  1  0
  9  5  1  0
 10 11  1  0
 10  7  1  0
 12 23  2  0
 13 11  1  0
 13 18  1  0
 14 22  1  0
 14 24  1  0
 15 21  1  0
 15 17  1  0
 16 22  1  0
 17 16  1  0
 18 17  2  0
 19 20  1  0
 19 13  2  0
 20 15  2  0
 21 14  1  0
 22 12  1  0
 24 26  2  0
 25 24  1  0
 27 25  1  0
 28 37  2  0
 28 33  1  0
 29 25  1  0
 29 33  1  0
 30 29  1  0
 31 32  1  0
 31 30  1  0
 32 28  1  0
 33 34  2  0
 34 35  1  0
 36 35  2  0
 37 36  1  0
 38 12  1  0
 38 43  1  0
 38 39  1  0
 39 42  1  1
 39 40  1  0
 41 39  1  0
 43 46  1  0
 44 48  1  0
 44 43  1  0
 45 44  2  0
 48 47  1  0
 50 48  1  0
 50 51  1  0
 50 49  1  0
 53 52  1  0
 53 54  1  0
 56 55  1  0
 56 54  1  0
 56 65  1  0
 57 63  1  0
 58 63  1  0
 59 60  1  0
 59 58  1  0
 61 60  1  0
 61 70  1  0
 61 62  1  0
 63 62  1  0
 64 57  2  0
 65 66  1  0
 65 57  1  0
 67 68  2  0
 68 69  1  0
 68 87  1  0
 69 72  1  0
 70 67  1  0
 70 71  1  0
 71 69  2  0
 72 73  1  0
 73 74  2  0
 75 78  1  0
 75 74  1  0
 76 75  2  0
 77 76  1  0
 77 72  2  0
 78 79  1  0
 79 80  1  0
 80 81  2  0
 82 81  1  0
 82 86  1  0
 83 82  2  0
 84 79  2  0
 84 83  1  0
 85 84  1  0
 87 88  1  0
 88 91  1  0
 88 90  1  0
 89 87  2  0
 92 93  1  0
 92 67  1  0
 94 92  1  0
 95 96  1  0
 95 53  1  0
 96 97  1  0
 98 96  1  0
 99 96  1  0
M  ISO  4  10 101  11 101  57 100  65 100
M  END
>  <TORSDO>  (76) 
F 24

>  <SCORE>  (76) 
-12.305

>  <name>  (76) 
76

>  <ligand_id>  (76) 
76

>  <original_smiles>  (76) 
[H]c1c([H])c([H])c2c(c1[H])C([H])([H])C([H])([H])C([H])([H])C2([H])N([H])C(=O)C1([H])N(C(=O)C([H])(N([H])C(=O)C([H])(N([H])C([H])([H])[H])C([H])([H])[H])C(C([H])([H])[H])(C([H])([H])[H])C([H])([H])[H])C([H])([H])c2c([H])c(OC3([H])C([H])([H])C([H])([H])C([H])(C([H])([H])[N+]([H])(C([H])([H])[H])C([H])([H])C([H])(C([H])([H])C([H])(N([H])C(=O)N4C([H])([H])C([H])([H])C([H])([H])C([H])(n5nc(-c6c([H])c([H])c(Oc7c([H])c([H])c(F)c([H])c7F)c([H])c6[H])c(C(=O)N([H])[H])c5N([H])[H])C4([H])[H])C([H])([H])[H])C([H])([H])[N+]([H])([H])[H])C([H])([H])C3([H])[H])c([H])c([H])c2C1([H])[H]

>  <smiles>  (76) 
[H]c1c([H])c([H])c2c(c1[H])C([H])([H])C([H])([H])C([H])([H])C2([H])N([H])C(=O)C1([H])N(C(=O)C([H])(N([H])C(=O)C([H])(N([H])C([H])([H])[H])C([H])([H])[H])C(C([H])([H])[H])(C([H])([H])[H])C([H])([H])[H])C([H])([H])c2c([H])c(OC3([H])C([H])([H])C([H])([H])C([H])(C([H])([H])[N+]([H])(C([H])([H])[H])C([H])([H])C([H])(C([H])([H])C([H])(N([H])C(=O)N4C([H])([H])C([H])([H])C([H])([H])C([H])(n5nc(-c6c([H])c([H])c(Oc7c([H])c([H])c(F)c([H])c7F)c([H])c6[H])c(C(=O)N([H])[H])c5N([H])[H])C4([H])[H])C([H])([H])[H])C([H])([H])[N+]([H])([H])[H])C([H])([H])C3([H])[H])c([H])c([H])c2C1([H])[H]

$$$$
77:0:0
     RDKit          3D

 93101  0  0  1  0  0  0  0  0999 V2000
  -29.0820  -22.9330   20.1320 N   0  0  1  0  0  4  0  0  0  0  0  0
  -28.8720  -22.6990   21.0900 H   0  0  0  0  0  0  0  0  0  0  0  0
  -24.7330  -22.6670   19.4130 C   0  0  0  0  0  2  0  0  0  0  0  0
  -25.6560  -21.6780   18.6880 C   0  0  0  0  0  2  0  0  0  0  0  0
  -25.4110  -24.0370   19.5600 C   0  0  0  0  0  2  0  0  0  0  0  0
  -27.0160  -21.5610   19.3950 C   0  0  0  0  0  2  0  0  0  0  0  0
  -26.7810  -23.9130   20.2500 C   0  0  0  0  0  2  0  0  0  0  0  0
  -27.7240  -22.9400   19.4950 C   0  0  0  0  0  3  0  0  0  0  0  0
  -29.9920  -21.7500   19.7500 C   0  0  0  0  0  2  0  0  0  0  0  0
  -30.0900  -19.1280   20.3890 C   0  0  0  0  0  3  0  0  0  0  0  0
  -30.0730  -20.4770   20.6980 C   0  0  0  0  0  3  0  0  0  0  0  0
  -30.3590  -17.9260   21.3870 C   0  0  0  0  0  2  0  0  0  0  0  0
  -30.6830  -15.3870   20.8590 C   0  0  0  0  0  0  0  0  0  0  0  0
  -30.5910  -13.1490   19.7610 C   0  0  0  0  0  2  0  0  0  0  0  0
  -29.7530  -13.2440   18.4690 C   0  0  0  0  0  2  0  0  0  0  0  0
  -28.2580  -13.0290   18.7800 C   0  0  0  0  0  2  0  0  0  0  0  0
  -27.7690  -13.8770   19.9840 C   0  0  0  0  0  3  0  0  0  0  0  0
  -28.7390  -13.7830   21.1830 C   0  0  0  0  0  2  0  0  0  0  0  0
  -30.0710  -14.1680   20.6980 N   0  0  0  0  0  0  0  0  0  0  0  0
  -31.8900  -15.5080   20.6270 O   0  0  0  0  0  0  0  0  0  0  0  0
  -29.9030  -16.5020   21.0950 N   0  0  0  0  0  0  0  0  0  0  0  0
  -28.9150  -16.3210   21.2050 H   0  0  0  0  0  0  0  0  0  0  0  0
  -25.3010  -14.3820   20.4720 C   0  0  0  0  0  0  0  0  0  0  0  0
  -24.2390  -13.5730   20.7690 C   0  0  0  0  0  0  0  0  0  0  0  0
  -24.7590  -12.2430   20.8230 C   0  0  0  0  0  0  0  0  0  0  0  0
  -26.3990  -13.5440   20.3590 N   0  0  0  0  0  0  0  0  0  0  0  0
  -26.0730  -12.2550   20.6350 N   0  0  0  0  0  0  0  0  0  0  0  0
  -24.0700  -10.9550   20.9860 C   0  0  0  0  0  0  0  0  0  0  0  0
  -24.4880  -10.0100   21.9480 C   0  0  0  0  0  3  0  0  0  0  0  0
  -23.7960   -8.7890   22.0980 C   0  0  0  0  0  3  0  0  0  0  0  0
  -22.6720   -8.5040   21.2870 C   0  0  0  0  0  0  0  0  0  0  0  0
  -22.2750   -9.4390   20.3140 C   0  0  0  0  0  3  0  0  0  0  0  0
  -22.9670  -10.6520   20.1610 C   0  0  0  0  0  3  0  0  0  0  0  0
  -21.9560   -7.3320   21.3450 O   0  0  0  0  0  0  0  0  0  0  0  0
  -21.9000   -6.5780   22.4890 C   0  0  0  0  0  0  0  0  0  0  0  0
  -21.4600   -7.1210   23.7170 C   0  0  0  0  0  3  0  0  0  0  0  0
  -21.3510   -6.2940   24.8530 C   0  0  0  0  0  3  0  0  0  0  0  0
  -21.6730   -4.9270   24.7630 C   0  0  0  0  0  0  0  0  0  0  0  0
  -22.1070   -4.3850   23.5400 C   0  0  0  0  0  3  0  0  0  0  0  0
  -22.2180   -5.2080   22.4060 C   0  0  0  0  0  0  0  0  0  0  0  0
  -22.6160   -4.6760   21.2260 F   0  0  0  0  0  0  0  0  0  0  0  0
  -21.5620   -4.1300   25.8510 F   0  0  0  0  0  0  0  0  0  0  0  0
  -22.8040  -13.9960   20.8940 C   0  0  0  0  0  0  0  0  0  0  0  0
  -22.0340  -13.3120   21.7330 N   0  0  0  0  0  0  0  0  0  0  0  0
  -22.3700  -14.9720   20.2830 O   0  0  0  0  0  0  0  0  0  0  0  0
  -22.3950  -12.5240   22.2530 H   0  0  0  0  0  0  0  0  0  0  0  0
  -21.0690  -13.5800   21.8580 H   0  0  0  0  0  0  0  0  0  0  0  0
  -25.4210  -15.7530   20.2640 N   0  0  0  0  0  0  0  0  0  0  0  0
  -24.6160  -16.3700   20.2840 H   0  0  0  0  0  0  0  0  0  0  0  0
  -26.2680  -16.2220   19.9710 H   0  0  0  0  0  0  0  0  0  0  0  0
  -29.7240  -24.3430   20.3040 C   0  0  0  0  0  2  0  0  0  0  0  0
  -29.0850  -25.6740   19.6370 C   0  0  0  0  0  2  0  0  0  0  0  0
  -29.2110  -27.0340   20.2600 O   0  0  0  0  0  0  0  0  0  0  0  0
  -24.8970  -31.6470   23.8340 C   0  0  0  0  0  0  0  0  0  0  0  0
  -28.0690  -27.8680   20.2560 C   0  0  0  0  0  0  0  0  0  0  0  0
  -23.9500  -30.5550   21.8360 C   0  0  0  0  0  3  0  0  0  0  0  0
  -25.6260  -29.3780   20.3060 C   0  0  0  0  0  0  0  0  0  0  0  0
  -26.4760  -30.9980   21.9980 C   0  0  0  0  0  2  0  0  0  0  0  0
  -26.7040  -29.7800   21.1050 C   0  0  0  0  0  0  0  0  0  0  0  0
  -27.9300  -29.0430   21.0700 C   0  0  0  0  0  3  0  0  0  0  0  0
  -26.9620  -27.5380   19.4390 C   0  0  0  0  0  3  0  0  0  0  0  0
  -25.7590  -28.2660   19.4640 C   0  0  0  0  0  3  0  0  0  0  0  0
  -24.3410  -30.1790   20.3840 C   0  0  0  0  0  2  0  0  0  0  0  0
  -25.1190  -31.0740   22.6160 N   0  0  0  0  0  0  0  0  0  0  0  0
  -23.7490  -31.7710   24.2880 O   0  0  0  0  0  0  0  0  0  0  0  0
  -23.2570  -29.3410   22.5010 C   0  0  0  0  0  0  0  0  0  0  0  0
  -21.9620  -29.1440   22.2030 N   0  0  0  0  0  0  0  0  0  0  0  0
  -23.8880  -28.5890   23.2480 O   0  0  0  0  0  0  0  0  0  0  0  0
  -21.5100  -29.8120   21.5930 H   0  0  0  0  0  0  0  0  0  0  0  0
  -18.6060  -27.7910   22.1580 C   0  0  0  0  0  0  0  0  0  0  0  0
  -21.1250  -28.0420   22.6830 C   0  0  0  0  0  3  0  0  0  0  0  0
  -21.3260  -26.7750   21.8200 C   0  0  0  0  0  2  0  0  0  0  0  0
  -20.3140  -26.6570   20.6760 C   0  0  0  0  0  2  0  0  0  0  0  0
  -18.8850  -26.6270   21.2230 C   0  0  0  0  0  2  0  0  0  0  0  0
  -19.6590  -28.4660   22.8310 C   0  0  0  0  0  0  0  0  0  0  0  0
  -19.3480  -29.5640   23.6630 C   0  0  0  0  0  3  0  0  0  0  0  0
  -18.0160  -29.9860   23.8280 C   0  0  0  0  0  3  0  0  0  0  0  0
  -16.9760  -29.3060   23.1720 C   0  0  0  0  0  3  0  0  0  0  0  0
  -17.2710  -28.2090   22.3430 C   0  0  0  0  0  3  0  0  0  0  0  0
  -26.0690  -32.1950   24.7040 C   0  0  0  0  0  3  0  0  0  0  0  0
  -25.8270  -33.6280   24.9240 N   0  0  0  0  0  0  0  0  0  0  0  0
  -26.4310  -34.6150   24.2480 C   0  0  0  0  0  0  0  0  0  0  0  0
  -27.3130  -34.4080   23.4110 O   0  0  0  0  0  0  0  0  0  0  0  0
  -25.0780  -33.8680   25.5560 H   0  0  0  0  0  0  0  0  0  0  0  0
  -25.0560  -36.5580   23.4330 C   0  0  0  0  0  1  0  0  0  0  0  0
  -25.9880  -36.0600   24.5490 C   0  0  0  0  0  3  0  0  0  0  0  0
  -27.9020  -36.7590   25.9190 C   0  0  0  0  0  1  0  0  0  0  0  0
  -27.1180  -37.0010   24.7110 N   0  0  0  0  0  0  0  0  0  0  0  0
  -26.7860  -37.9610   24.7350 H   0  0  0  0  0  0  0  0  0  0  0  0
  -26.2210  -31.4420   26.0830 C   0  0  1  0  0  0  0  0  0  0  0  0
  -24.9040  -31.3430   26.8880 C   0  0  0  0  0  1  0  0  0  0  0  0
  -26.7490  -30.0040   25.8690 C   0  0  0  0  0  1  0  0  0  0  0  0
  -27.2650  -32.1700   26.9630 C   0  0  0  0  0  1  0  0  0  0  0  0
  1 51  1  0
  1  2  1  1
  3  5  1  0
  4  6  1  0
  4  3  1  0
  5  7  1  0
  6  8  1  0
  8  1  1  0
  8  7  1  0
  9  1  1  0
  9 11  1  0
 10 11  2  0
 10 12  1  0
 13 21  1  0
 14 19  1  0
 15 16  1  0
 15 14  1  0
 17 16  1  0
 17 26  1  0
 17 18  1  0
 19 13  1  0
 19 18  1  0
 20 13  2  0
 21 22  1  0
 21 12  1  0
 23 24  2  0
 24 25  1  0
 24 43  1  0
 25 28  1  0
 26 23  1  0
 26 27  1  0
 27 25  2  0
 28 29  1  0
 29 30  2  0
 31 34  1  0
 31 30  1  0
 32 31  2  0
 33 32  1  0
 33 28  2  0
 34 35  1  0
 35 36  1  0
 36 37  2  0
 38 37  1  0
 38 42  1  0
 39 38  2  0
 40 35  2  0
 40 39  1  0
 41 40  1  0
 43 44  1  0
 44 47  1  0
 44 46  1  0
 45 43  2  0
 48 49  1  0
 48 23  1  0
 50 48  1  0
 52 53  1  0
 52 51  1  0
 54 65  2  0
 55 53  1  0
 55 60  1  0
 56 66  1  0
 56 64  1  0
 57 63  1  0
 57 59  1  0
 58 64  1  0
 59 58  1  0
 60 59  2  0
 61 62  1  0
 61 55  2  0
 62 57  2  0
 63 56  1  0
 64 54  1  0
 66 68  2  0
 67 66  1  0
 69 67  1  0
 70 79  2  0
 70 75  1  0
 71 67  1  0
 71 75  1  0
 72 71  1  0
 73 74  1  0
 73 72  1  0
 74 70  1  0
 75 76  2  0
 76 77  1  0
 78 77  2  0
 79 78  1  0
 80 54  1  0
 80 81  1  0
 80 90  1  0
 81 84  1  0
 82 86  1  0
 82 81  1  0
 83 82  2  0
 86 85  1  0
 86 88  1  0
 88 89  1  0
 88 87  1  0
 90 91  1  1
 90 93  1  0
 92 90  1  0
M  ISO  4  13 100  21 100  52 101  53 101
M  END
>  <TORSDO>  (77) 
F 22

>  <SCORE>  (77) 
-11.161

>  <name>  (77) 
77

>  <ligand_id>  (77) 
77

>  <original_smiles>  (77) 
[H]C(=C([H])C([H])([H])[N+]([H])(C([H])([H])C([H])([H])Oc1c([H])c([H])c2c(c1[H])C([H])([H])N(C(=O)C([H])(N([H])C(=O)C([H])(N([H])C([H])([H])[H])C([H])([H])[H])C(C([H])([H])[H])(C([H])([H])[H])C([H])([H])[H])C([H])(C(=O)N([H])C1([H])c3c([H])c([H])c([H])c([H])c3C([H])([H])C([H])([H])C1([H])[H])C2([H])[H])C1([H])C([H])([H])C([H])([H])C([H])([H])C([H])([H])C1([H])[H])C([H])([H])N([H])C(=O)N1C([H])([H])C([H])([H])C([H])([H])C([H])(n2nc(-c3c([H])c([H])c(Oc4c([H])c([H])c(F)c([H])c4F)c([H])c3[H])c(C(=O)N([H])[H])c2N([H])[H])C1([H])[H]

>  <smiles>  (77) 
[H]C(=C([H])C([H])([H])[N+]([H])(C([H])([H])C([H])([H])Oc1c([H])c([H])c2c(c1[H])C([H])([H])N(C(=O)C([H])(N([H])C(=O)C([H])(N([H])C([H])([H])[H])C([H])([H])[H])C(C([H])([H])[H])(C([H])([H])[H])C([H])([H])[H])C([H])(C(=O)N([H])C1([H])c3c([H])c([H])c([H])c([H])c3C([H])([H])C([H])([H])C1([H])[H])C2([H])[H])C1([H])C([H])([H])C([H])([H])C([H])([H])C([H])([H])C1([H])[H])C([H])([H])N([H])C(=O)N1C([H])([H])C([H])([H])C([H])([H])C([H])(n2nc(-c3c([H])c([H])c(Oc4c([H])c([H])c(F)c([H])c4F)c([H])c3[H])c(C(=O)N([H])[H])c2N([H])[H])C1([H])[H]

$$$$
78:0:0
     RDKit          3D

 96104  0  0  1  0  0  0  0  0999 V2000
  -28.8640  -22.1060   20.3420 C   0  0  0  0  0  3  0  0  0  0  0  0
  -28.7850  -22.1960   21.8410 C   0  0  0  0  0  0  0  0  0  0  0  0
  -27.6030  -22.3180   22.4600 N   0  0  0  0  0  4  0  0  0  0  0  0
  -29.9270  -22.1670   22.5440 N   0  0  0  0  0  0  0  0  0  0  0  0
  -26.7470  -22.2750   21.9260 H   0  0  0  0  0  0  0  0  0  0  0  0
  -27.5010  -22.3980   23.4620 H   0  0  0  0  0  0  0  0  0  0  0  0
  -30.8010  -22.0440   22.0520 H   0  0  0  0  0  0  0  0  0  0  0  0
  -29.9780  -22.2300   23.5530 H   0  0  0  0  0  0  0  0  0  0  0  0
  -29.5330  -19.4480   20.2950 C   0  0  0  0  0  0  0  0  0  0  0  0
  -29.7520  -20.8340   20.0410 N   0  0  0  0  0  0  0  0  0  0  0  0
  -28.4930  -19.1290   20.8720 O   0  0  0  0  0  0  0  0  0  0  0  0
  -30.6220  -21.0560   19.5820 H   0  0  0  0  0  0  0  0  0  0  0  0
  -30.8890  -15.4470   20.1430 C   0  0  0  0  0  0  0  0  0  0  0  0
  -30.8230  -13.0460   19.3210 C   0  0  0  0  0  2  0  0  0  0  0  0
  -29.8690  -12.8330   18.1190 C   0  0  0  0  0  2  0  0  0  0  0  0
  -28.4240  -12.6040   18.5950 C   0  0  0  0  0  2  0  0  0  0  0  0
  -27.9920  -13.5970   19.7020 C   0  0  0  0  0  3  0  0  0  0  0  0
  -29.0600  -13.7590   20.8040 C   0  0  0  0  0  2  0  0  0  0  0  0
  -30.2960  -14.1820   20.1340 N   0  0  0  0  0  0  0  0  0  0  0  0
  -32.1230  -15.4780   20.1070 O   0  0  0  0  0  0  0  0  0  0  0  0
  -29.9360  -17.8170   17.6350 C   0  0  0  0  0  2  0  0  0  0  0  0
  -31.0430  -18.4660   18.4410 C   0  0  0  0  0  2  0  0  0  0  0  0
  -29.7040  -16.5000   18.3790 C   0  0  0  0  0  2  0  0  0  0  0  0
  -30.5350  -18.1890   19.8550 C   0  0  0  0  0  3  0  0  0  0  0  0
  -30.1540  -16.6360   19.7950 N   0  0  0  0  0  0  0  0  0  0  0  0
  -25.6300  -14.1730   20.4800 C   0  0  0  0  0  0  0  0  0  0  0  0
  -24.5660  -13.3910   20.8390 C   0  0  0  0  0  0  0  0  0  0  0  0
  -25.0300  -12.0410   20.7840 C   0  0  0  0  0  0  0  0  0  0  0  0
  -26.6700  -13.2940   20.2280 N   0  0  0  0  0  0  0  0  0  0  0  0
  -26.3200  -12.0080   20.4750 N   0  0  0  0  0  0  0  0  0  0  0  0
  -24.3070  -10.7750   20.9530 C   0  0  0  0  0  0  0  0  0  0  0  0
  -24.6930   -9.8290   21.9260 C   0  0  0  0  0  3  0  0  0  0  0  0
  -23.9680   -8.6270   22.0820 C   0  0  0  0  0  3  0  0  0  0  0  0
  -22.8430   -8.3660   21.2640 C   0  0  0  0  0  0  0  0  0  0  0  0
  -22.4760   -9.3030   20.2820 C   0  0  0  0  0  3  0  0  0  0  0  0
  -23.2010  -10.4940   20.1240 C   0  0  0  0  0  3  0  0  0  0  0  0
  -22.0950   -7.2160   21.3310 O   0  0  0  0  0  0  0  0  0  0  0  0
  -21.9040   -6.5480   22.5140 C   0  0  0  0  0  0  0  0  0  0  0  0
  -21.2650   -7.1540   23.6180 C   0  0  0  0  0  3  0  0  0  0  0  0
  -21.0280   -6.4080   24.7890 C   0  0  0  0  0  3  0  0  0  0  0  0
  -21.4230   -5.0590   24.8580 C   0  0  0  0  0  0  0  0  0  0  0  0
  -22.0600   -4.4550   23.7600 C   0  0  0  0  0  3  0  0  0  0  0  0
  -22.2970   -5.1980   22.5900 C   0  0  0  0  0  0  0  0  0  0  0  0
  -22.8910   -4.6040   21.5250 F   0  0  0  0  0  0  0  0  0  0  0  0
  -21.1900   -4.3390   25.9820 F   0  0  0  0  0  0  0  0  0  0  0  0
  -23.1700  -13.8610   21.1230 C   0  0  0  0  0  0  0  0  0  0  0  0
  -22.4500  -13.1590   21.9920 N   0  0  0  0  0  0  0  0  0  0  0  0
  -22.7270  -14.8860   20.6070 O   0  0  0  0  0  0  0  0  0  0  0  0
  -22.8160  -12.3250   22.4260 H   0  0  0  0  0  0  0  0  0  0  0  0
  -21.5170  -13.4620   22.2240 H   0  0  0  0  0  0  0  0  0  0  0  0
  -25.7970  -15.5450   20.3240 N   0  0  0  0  0  0  0  0  0  0  0  0
  -25.0310  -16.1990   20.4340 H   0  0  0  0  0  0  0  0  0  0  0  0
  -26.6680  -15.9950   20.0680 H   0  0  0  0  0  0  0  0  0  0  0  0
  -29.1650  -23.6920   19.8160 C   0  0  0  0  0  3  0  0  0  0  0  0
  -28.0790  -24.9830   19.9220 C   0  0  0  0  0  3  0  0  0  0  0  0
  -28.3280  -26.5080   19.6780 O   0  0  0  0  0  0  0  0  0  0  0  0
  -24.7560  -31.8860   23.2350 C   0  0  0  0  0  0  0  0  0  0  0  0
  -27.2620  -27.4810   19.7330 C   0  0  0  0  0  0  0  0  0  0  0  0
  -23.5160  -30.6460   21.5070 C   0  0  0  0  0  3  0  0  0  0  0  0
  -24.9290  -29.2160   19.9080 C   0  0  0  0  0  0  0  0  0  0  0  0
  -26.0650  -30.9440   21.2900 C   0  0  0  0  0  2  0  0  0  0  0  0
  -26.1270  -29.6150   20.5180 C   0  0  0  0  0  0  0  0  0  0  0  0
  -27.2970  -28.7690   20.4040 C   0  0  0  0  0  3  0  0  0  0  0  0
  -26.0340  -27.1850   19.0970 C   0  0  0  0  0  3  0  0  0  0  0  0
  -24.8970  -28.0170   19.1840 C   0  0  0  0  0  3  0  0  0  0  0  0
  -23.7000  -30.1000   20.0690 C   0  0  0  0  0  2  0  0  0  0  0  0
  -24.8020  -31.1740   22.0700 N   0  0  0  0  0  0  0  0  0  0  0  0
  -23.6830  -32.1170   23.8160 O   0  0  0  0  0  0  0  0  0  0  0  0
  -22.8710  -29.5450   22.3840 C   0  0  0  0  0  0  0  0  0  0  0  0
  -21.5460  -29.3520   22.2440 N   0  0  0  0  0  0  0  0  0  0  0  0
  -23.5600  -28.8700   23.1540 O   0  0  0  0  0  0  0  0  0  0  0  0
  -21.0480  -29.9520   21.6020 H   0  0  0  0  0  0  0  0  0  0  0  0
  -18.1940  -28.0410   22.6610 C   0  0  0  0  0  0  0  0  0  0  0  0
  -20.7490  -28.3340   22.9350 C   0  0  0  0  0  3  0  0  0  0  0  0
  -20.8760  -26.9560   22.2420 C   0  0  0  0  0  2  0  0  0  0  0  0
  -19.7730  -26.6990   21.2100 C   0  0  0  0  0  2  0  0  0  0  0  0
  -18.3930  -26.7570   21.8730 C   0  0  0  0  0  2  0  0  0  0  0  0
  -19.3000  -28.7890   23.1470 C   0  0  0  0  0  0  0  0  0  0  0  0
  -19.0590  -29.9930   23.8440 C   0  0  0  0  0  3  0  0  0  0  0  0
  -17.7450  -30.4460   24.0630 C   0  0  0  0  0  3  0  0  0  0  0  0
  -16.6540  -29.6920   23.5930 C   0  0  0  0  0  3  0  0  0  0  0  0
  -16.8790  -28.4930   22.8960 C   0  0  0  0  0  3  0  0  0  0  0  0
  -26.0450  -32.4680   23.8880 C   0  0  0  0  0  3  0  0  0  0  0  0
  -26.5640  -31.6120   25.1080 C   0  0  1  0  0  0  0  0  0  0  0  0
  -25.4750  -31.3100   26.1650 C   0  0  0  0  0  1  0  0  0  0  0  0
  -27.1360  -30.2600   24.6210 C   0  0  0  0  0  1  0  0  0  0  0  0
  -27.7260  -32.3560   25.8120 C   0  0  0  0  0  1  0  0  0  0  0  0
  -25.7440  -33.8440   24.3180 N   0  0  0  0  0  0  0  0  0  0  0  0
  -26.0660  -34.9480   23.6290 C   0  0  0  0  0  0  0  0  0  0  0  0
  -26.7120  -34.9120   22.5780 O   0  0  0  0  0  0  0  0  0  0  0  0
  -25.1600  -33.9440   25.1350 H   0  0  0  0  0  0  0  0  0  0  0  0
  -24.3410  -36.7750   23.4450 C   0  0  0  0  0  1  0  0  0  0  0  0
  -25.5990  -36.3040   24.1930 C   0  0  0  0  0  3  0  0  0  0  0  0
  -27.7510  -37.1270   25.0450 C   0  0  0  0  0  1  0  0  0  0  0  0
  -26.6370  -37.3570   24.1300 N   0  0  0  0  0  0  0  0  0  0  0  0
  -26.2370  -38.2660   24.3420 H   0  0  0  0  0  0  0  0  0  0  0  0
  1 54  1  0
  1  2  1  0
  2  3  2  0
  2  4  1  0
  3  6  1  0
  4  8  1  0
  5  3  1  0
  7  4  1  0
  9 11  2  0
 10  9  1  0
 10  1  1  0
 12 10  1  0
 14 19  1  0
 15 16  1  0
 15 14  1  0
 17 16  1  0
 17 29  1  0
 17 18  1  0
 19 13  1  0
 19 18  1  0
 20 13  2  0
 21 23  1  0
 21 22  1  0
 22 24  1  0
 23 25  1  0
 24  9  1  0
 25 24  1  0
 25 13  1  0
 26 27  2  0
 27 46  1  0
 28 27  1  0
 28 31  1  0
 29 30  1  0
 29 26  1  0
 30 28  2  0
 31 32  1  0
 32 33  2  0
 34 37  1  0
 34 33  1  0
 35 34  2  0
 36 35  1  0
 36 31  2  0
 37 38  1  0
 38 43  2  0
 38 39  1  0
 39 40  2  0
 40 41  1  0
 41 45  1  0
 42 41  2  0
 43 42  1  0
 44 43  1  0
 46 47  1  0
 47 50  1  0
 47 49  1  0
 48 46  2  0
 51 52  1  0
 51 26  1  0
 53 51  1  0
 54 55  2  0
 56 58  1  0
 56 55  1  0
 57 68  2  0
 58 63  1  0
 59 67  1  0
 59 69  1  0
 60 66  1  0
 60 62  1  0
 61 67  1  0
 62 61  1  0
 63 62  2  0
 64 65  1  0
 64 58  2  0
 65 60  2  0
 66 59  1  0
 67 57  1  0
 69 71  2  0
 70 69  1  0
 72 70  1  0
 73 82  2  0
 73 78  1  0
 74 70  1  0
 74 78  1  0
 75 74  1  0
 76 77  1  0
 76 75  1  0
 77 73  1  0
 78 79  2  0
 79 80  1  0
 81 80  2  0
 82 81  1  0
 83 57  1  0
 83 88  1  0
 83 84  1  0
 84 87  1  1
 84 85  1  0
 86 84  1  0
 88 91  1  0
 89 93  1  0
 89 88  1  0
 90 89  2  0
 93 92  1  0
 95 93  1  0
 95 96  1  0
 95 94  1  0
M  ISO  4  13 100  25 100  55 101  56 101
M  END
>  <TORSDO>  (78) 
F 20

>  <SCORE>  (78) 
-12.823

>  <name>  (78) 
78

>  <ligand_id>  (78) 
78

>  <original_smiles>  (78) 
[H]c1c([H])c([H])c2c(c1[H])C([H])([H])C([H])([H])C([H])([H])C2([H])N([H])C(=O)C1([H])N(C(=O)C([H])(N([H])C(=O)C([H])(N([H])C([H])([H])[H])C([H])([H])[H])C(C([H])([H])[H])(C([H])([H])[H])C([H])([H])[H])C([H])([H])c2c([H])c(OC([H])([H])C([H])([H])C([H])(C(N([H])[H])=[N+]([H])[H])N([H])C(=O)C3([H])N(C(=O)N4C([H])([H])C([H])([H])C([H])([H])C([H])(n5nc(-c6c([H])c([H])c(Oc7c([H])c([H])c(F)c([H])c7F)c([H])c6[H])c(C(=O)N([H])[H])c5N([H])[H])C4([H])[H])C([H])([H])C([H])([H])C3([H])[H])c([H])c([H])c2C1([H])[H]

>  <smiles>  (78) 
[H]c1c([H])c([H])c2c(c1[H])C([H])([H])C([H])([H])C([H])([H])C2([H])N([H])C(=O)C1([H])N(C(=O)C([H])(N([H])C(=O)C([H])(N([H])C([H])([H])[H])C([H])([H])[H])C(C([H])([H])[H])(C([H])([H])[H])C([H])([H])[H])C([H])([H])c2c([H])c(OC([H])([H])C([H])([H])C([H])(C(N([H])[H])=[N+]([H])[H])N([H])C(=O)C3([H])N(C(=O)N4C([H])([H])C([H])([H])C([H])([H])C([H])(n5nc(-c6c([H])c([H])c(Oc7c([H])c([H])c(F)c([H])c7F)c([H])c6[H])c(C(=O)N([H])[H])c5N([H])[H])C4([H])[H])C([H])([H])C([H])([H])C3([H])[H])c([H])c([H])c2C1([H])[H]

$$$$
79:0:0
     RDKit          3D

 92101  0  0  1  0  0  0  0  0999 V2000
  -28.9880  -19.8310   20.2250 C   0  0  0  0  0  3  0  0  0  0  0  0
  -31.0820  -22.8580   20.3080 C   0  0  0  0  0  2  0  0  0  0  0  0
  -30.0240  -23.2330   19.2570 C   0  0  0  0  0  2  0  0  0  0  0  0
  -30.5750  -21.5850   21.0110 C   0  0  0  0  0  2  0  0  0  0  0  0
  -28.6990  -22.7970   19.8840 C   0  0  0  0  0  3  0  0  0  0  0  0
  -29.2530  -21.2970   20.4460 N   0  0  0  0  0  0  0  0  0  0  0  0
  -27.7680  -19.5860   19.7170 N   0  0  0  0  0  0  0  0  0  0  0  0
  -27.4750  -18.6430   19.5130 H   0  0  0  0  0  0  0  0  0  0  0  0
  -27.0970  -20.3240   19.5630 H   0  0  0  0  0  0  0  0  0  0  0  0
  -30.4460  -15.4360   20.3850 C   0  0  0  0  0  0  0  0  0  0  0  0
  -30.4770  -12.9800   19.5230 C   0  0  0  0  0  2  0  0  0  0  0  0
  -29.5790  -12.7230   18.2870 C   0  0  0  0  0  2  0  0  0  0  0  0
  -28.1270  -12.4370   18.7120 C   0  0  0  0  0  2  0  0  0  0  0  0
  -27.6410  -13.4020   19.8220 C   0  0  0  0  0  3  0  0  0  0  0  0
  -28.6730  -13.5930   20.9510 C   0  0  0  0  0  2  0  0  0  0  0  0
  -29.8900  -14.1230   20.3140 N   0  0  0  0  0  0  0  0  0  0  0  0
  -31.6860  -15.4130   20.3370 O   0  0  0  0  0  0  0  0  0  0  0  0
  -30.0630  -17.7480   18.0840 C   0  0  0  0  0  2  0  0  0  0  0  0
  -30.8350  -18.5360   19.1500 C   0  0  0  0  0  2  0  0  0  0  0  0
  -29.1500  -16.7700   18.8500 C   0  0  0  0  0  2  0  0  0  0  0  0
  -29.9750  -18.3720   20.3990 C   0  0  0  0  0  3  0  0  0  0  0  0
  -29.6800  -16.7200   20.2170 N   0  0  0  0  0  0  0  0  0  0  0  0
  -25.2580  -13.9260   20.5510 C   0  0  0  0  0  0  0  0  0  0  0  0
  -24.2010  -13.1340   20.9010 C   0  0  0  0  0  0  0  0  0  0  0  0
  -24.6890  -11.7910   20.8780 C   0  0  0  0  0  0  0  0  0  0  0  0
  -26.3150  -13.0660   20.3200 N   0  0  0  0  0  0  0  0  0  0  0  0
  -25.9860  -11.7750   20.5880 N   0  0  0  0  0  0  0  0  0  0  0  0
  -23.9770  -10.5180   21.0550 C   0  0  0  0  0  0  0  0  0  0  0  0
  -24.3950   -9.5640   22.0090 C   0  0  0  0  0  3  0  0  0  0  0  0
  -23.6800   -8.3590   22.1760 C   0  0  0  0  0  3  0  0  0  0  0  0
  -22.5330   -8.0980   21.3880 C   0  0  0  0  0  0  0  0  0  0  0  0
  -22.1360   -9.0410   20.4230 C   0  0  0  0  0  3  0  0  0  0  0  0
  -22.8510  -10.2380   20.2550 C   0  0  0  0  0  3  0  0  0  0  0  0
  -21.7920   -6.9440   21.4630 O   0  0  0  0  0  0  0  0  0  0  0  0
  -21.7020   -6.2200   22.6250 C   0  0  0  0  0  0  0  0  0  0  0  0
  -21.1870   -6.7810   23.8140 C   0  0  0  0  0  3  0  0  0  0  0  0
  -21.0480   -5.9810   24.9670 C   0  0  0  0  0  3  0  0  0  0  0  0
  -21.4140   -4.6230   24.9300 C   0  0  0  0  0  0  0  0  0  0  0  0
  -21.9210   -4.0610   23.7440 C   0  0  0  0  0  3  0  0  0  0  0  0
  -22.0620   -4.8580   22.5950 C   0  0  0  0  0  0  0  0  0  0  0  0
  -22.5330   -4.3060   21.4500 F   0  0  0  0  0  0  0  0  0  0  0  0
  -21.2720   -3.8520   26.0340 F   0  0  0  0  0  0  0  0  0  0  0  0
  -22.7930  -13.5920   21.1420 C   0  0  0  0  0  0  0  0  0  0  0  0
  -22.0560  -12.8830   21.9900 N   0  0  0  0  0  0  0  0  0  0  0  0
  -22.3550  -14.6120   20.6130 O   0  0  0  0  0  0  0  0  0  0  0  0
  -22.4240  -12.0570   22.4390 H   0  0  0  0  0  0  0  0  0  0  0  0
  -21.1100  -13.1710   22.1940 H   0  0  0  0  0  0  0  0  0  0  0  0
  -25.4040  -15.3000   20.3800 N   0  0  0  0  0  0  0  0  0  0  0  0
  -24.6310  -15.9460   20.4940 H   0  0  0  0  0  0  0  0  0  0  0  0
  -26.2650  -15.7520   20.1000 H   0  0  0  0  0  0  0  0  0  0  0  0
  -28.1070  -24.3350   20.6400 C   0  0  0  0  0  2  0  0  0  0  0  0
  -28.2260  -25.9600   20.3070 O   0  0  0  0  0  0  0  0  0  0  0  0
  -24.5830  -31.9290   23.2590 C   0  0  0  0  0  0  0  0  0  0  0  0
  -27.1870  -27.0340   20.3060 C   0  0  0  0  0  0  0  0  0  0  0  0
  -23.4130  -30.5220   21.6130 C   0  0  0  0  0  3  0  0  0  0  0  0
  -24.8810  -28.9080   20.2210 C   0  0  0  0  0  0  0  0  0  0  0  0
  -25.9800  -30.7390   21.4940 C   0  0  0  0  0  2  0  0  0  0  0  0
  -26.0630  -29.3230   20.8500 C   0  0  0  0  0  0  0  0  0  0  0  0
  -27.2120  -28.4110   20.8580 C   0  0  0  0  0  3  0  0  0  0  0  0
  -25.9710  -26.7670   19.6390 C   0  0  0  0  0  3  0  0  0  0  0  0
  -24.8610  -27.6510   19.5960 C   0  0  0  0  0  3  0  0  0  0  0  0
  -23.6610  -29.8300   20.2450 C   0  0  0  0  0  2  0  0  0  0  0  0
  -24.6800  -31.0920   22.1750 N   0  0  0  0  0  0  0  0  0  0  0  0
  -23.4870  -32.2180   23.7650 O   0  0  0  0  0  0  0  0  0  0  0  0
  -22.7090  -29.5310   22.5760 C   0  0  0  0  0  0  0  0  0  0  0  0
  -21.3800  -29.3660   22.4400 N   0  0  0  0  0  0  0  0  0  0  0  0
  -23.3670  -28.9080   23.4140 O   0  0  0  0  0  0  0  0  0  0  0  0
  -20.9020  -29.9190   21.7410 H   0  0  0  0  0  0  0  0  0  0  0  0
  -17.9900  -28.1710   22.9360 C   0  0  0  0  0  0  0  0  0  0  0  0
  -20.5500  -28.4290   23.2060 C   0  0  0  0  0  3  0  0  0  0  0  0
  -20.6480  -26.9980   22.6270 C   0  0  0  0  0  2  0  0  0  0  0  0
  -19.5470  -26.6820   21.6100 C   0  0  0  0  0  2  0  0  0  0  0  0
  -18.1640  -26.8260   22.2520 C   0  0  0  0  0  2  0  0  0  0  0  0
  -19.1090  -28.9310   23.3700 C   0  0  0  0  0  0  0  0  0  0  0  0
  -18.8900  -30.1880   23.9740 C   0  0  0  0  0  3  0  0  0  0  0  0
  -17.5850  -30.6870   24.1450 C   0  0  0  0  0  3  0  0  0  0  0  0
  -16.4810  -29.9260   23.7260 C   0  0  0  0  0  3  0  0  0  0  0  0
  -16.6830  -28.6700   23.1280 C   0  0  0  0  0  3  0  0  0  0  0  0
  -25.8440  -32.5790   23.9050 C   0  0  0  0  0  3  0  0  0  0  0  0
  -25.5230  -33.9830   24.2150 N   0  0  0  0  0  0  0  0  0  0  0  0
  -25.8810  -35.0370   23.4690 C   0  0  0  0  0  0  0  0  0  0  0  0
  -26.5800  -34.9300   22.4580 O   0  0  0  0  0  0  0  0  0  0  0  0
  -24.9040  -34.1400   24.9980 H   0  0  0  0  0  0  0  0  0  0  0  0
  -24.1880  -36.8550   23.0570 C   0  0  0  0  0  1  0  0  0  0  0  0
  -25.3920  -36.4310   23.9140 C   0  0  0  0  0  3  0  0  0  0  0  0
  -27.4970  -37.2990   24.8370 C   0  0  0  0  0  1  0  0  0  0  0  0
  -26.4390  -37.4750   23.8460 N   0  0  0  0  0  0  0  0  0  0  0  0
  -26.0350  -38.3990   23.9740 H   0  0  0  0  0  0  0  0  0  0  0  0
  -26.3250  -31.8320   25.2100 C   0  0  1  0  0  0  0  0  0  0  0  0
  -25.2050  -31.6160   26.2540 C   0  0  0  0  0  1  0  0  0  0  0  0
  -26.9180  -30.4450   24.8680 C   0  0  0  0  0  1  0  0  0  0  0  0
  -27.4600  -32.6390   25.8870 C   0  0  0  0  0  1  0  0  0  0  0  0
  1  7  1  0
  1  6  1  0
  2  4  1  0
  3  5  1  0
  3  2  1  0
  5  6  1  0
  5 51  1  0
  6  4  1  0
  8  7  1  0
  9  7  1  0
 11 16  1  0
 12 13  1  0
 12 11  1  0
 14 13  1  0
 14 26  1  0
 14 15  1  0
 16 10  1  0
 16 15  1  0
 17 10  2  0
 18 20  1  0
 18 19  1  0
 19 21  1  0
 20 22  1  0
 21  1  1  0
 22 10  1  0
 22 21  1  0
 23 24  2  0
 24 43  1  0
 25 24  1  0
 25 28  1  0
 26 23  1  0
 26 27  1  0
 27 25  2  0
 28 29  1  0
 29 30  2  0
 31 34  1  0
 31 30  1  0
 32 31  2  0
 33 32  1  0
 33 28  2  0
 34 35  1  0
 35 36  1  0
 36 37  2  0
 38 37  1  0
 38 42  1  0
 39 38  2  0
 40 35  2  0
 40 39  1  0
 41 40  1  0
 43 44  1  0
 44 47  1  0
 44 46  1  0
 45 43  2  0
 48 49  1  0
 48 23  1  0
 50 48  1  0
 52 51  1  0
 53 64  2  0
 54 52  1  0
 54 59  1  0
 55 63  1  0
 55 65  1  0
 56 62  1  0
 56 58  1  0
 57 63  1  0
 58 59  2  0
 58 57  1  0
 60 54  2  0
 61 60  1  0
 61 56  2  0
 62 55  1  0
 63 53  1  0
 65 67  2  0
 66 65  1  0
 68 66  1  0
 69 78  2  0
 69 74  1  0
 70 66  1  0
 70 74  1  0
 71 70  1  0
 72 73  1  0
 72 71  1  0
 73 69  1  0
 74 75  2  0
 75 76  1  0
 77 76  2  0
 78 77  1  0
 79 53  1  0
 79 80  1  0
 79 89  1  0
 80 83  1  0
 81 85  1  0
 81 80  1  0
 82 81  2  0
 85 84  1  0
 87 85  1  0
 87 88  1  0
 87 86  1  0
 89 92  1  1
 89 90  1  0
 91 89  1  0
M  ISO  4  10 100  22 100  51 101  52 101
M  END
>  <TORSDO>  (79) 
F 17

>  <SCORE>  (79) 
-16.848

>  <name>  (79) 
79

>  <ligand_id>  (79) 
79

>  <original_smiles>  (79) 
[H]c1c([H])c([H])c2c(c1[H])C([H])([H])C([H])([H])C([H])([H])C2([H])N([H])C(=O)C1([H])N(C(=O)C([H])(N([H])C(=O)C([H])(N([H])C([H])([H])[H])C([H])([H])[H])C(C([H])([H])[H])(C([H])([H])[H])C([H])([H])[H])C([H])([H])c2c([H])c(OC([H])([H])C3([H])N(C(=[N+]([H])[H])C4([H])N(C(=O)N5C([H])([H])C([H])([H])C([H])([H])C([H])(n6nc(-c7c([H])c([H])c(Oc8c([H])c([H])c(F)c([H])c8F)c([H])c7[H])c(C(=O)N([H])[H])c6N([H])[H])C5([H])[H])C([H])([H])C([H])([H])C4([H])[H])C([H])([H])C([H])([H])C3([H])[H])c([H])c([H])c2C1([H])[H]

>  <smiles>  (79) 
[H]c1c([H])c([H])c2c(c1[H])C([H])([H])C([H])([H])C([H])([H])C2([H])N([H])C(=O)C1([H])N(C(=O)C([H])(N([H])C(=O)C([H])(N([H])C([H])([H])[H])C([H])([H])[H])C(C([H])([H])[H])(C([H])([H])[H])C([H])([H])[H])C([H])([H])c2c([H])c(OC([H])([H])C3([H])N(C(=[N+]([H])[H])C4([H])N(C(=O)N5C([H])([H])C([H])([H])C([H])([H])C([H])(n6nc(-c7c([H])c([H])c(Oc8c([H])c([H])c(F)c([H])c8F)c([H])c7[H])c(C(=O)N([H])[H])c6N([H])[H])C5([H])[H])C([H])([H])C([H])([H])C4([H])[H])C([H])([H])C([H])([H])C3([H])[H])c([H])c([H])c2C1([H])[H]

$$$$
80:0:0
     RDKit          3D

 93101  0  0  1  0  0  0  0  0999 V2000
  -29.7390  -19.8820   19.5170 C   0  0  0  0  0  0  0  0  0  0  0  0
  -30.7480  -20.0540   22.1570 C   0  0  0  0  0  2  0  0  0  0  0  0
  -30.5510  -18.6130   21.6030 C   0  0  0  0  0  2  0  0  0  0  0  0
  -29.7260  -21.1120   21.6550 C   0  0  0  0  0  2  0  0  0  0  0  0
  -30.6000  -18.4410   20.0570 C   0  0  1  0  0  0  0  0  0  0  0  0
  -29.5850  -21.2030   20.1950 N   0  0  0  0  0  0  0  0  0  0  0  0
  -29.3150  -19.8060   18.3620 O   0  0  0  0  0  0  0  0  0  0  0  0
  -31.0190  -15.4760   19.8320 C   0  0  0  0  0  0  0  0  0  0  0  0
  -30.9360  -12.9760   19.0950 C   0  0  0  0  0  2  0  0  0  0  0  0
  -29.9990  -12.6690   17.9010 C   0  0  0  0  0  2  0  0  0  0  0  0
  -28.5520  -12.4540   18.3800 C   0  0  0  0  0  2  0  0  0  0  0  0
  -28.1250  -13.5110   19.4280 C   0  0  0  0  0  3  0  0  0  0  0  0
  -29.1900  -13.7360   20.5210 C   0  0  0  0  0  2  0  0  0  0  0  0
  -30.4090  -14.1870   19.8280 N   0  0  0  0  0  0  0  0  0  0  0  0
  -32.2470  -15.4060   19.6830 O   0  0  0  0  0  0  0  0  0  0  0  0
  -30.3070  -16.7920   19.8080 N   0  0  0  0  0  0  0  0  0  0  0  0
  -29.3130  -16.6340   19.7310 H   0  0  0  0  0  0  0  0  0  0  0  0
  -25.8090  -14.1850   20.2520 C   0  0  0  0  0  0  0  0  0  0  0  0
  -24.7190  -13.4620   20.6430 C   0  0  0  0  0  0  0  0  0  0  0  0
  -25.1140  -12.0890   20.5930 C   0  0  0  0  0  0  0  0  0  0  0  0
  -26.7990  -13.2580   19.9760 N   0  0  0  0  0  0  0  0  0  0  0  0
  -26.3960  -11.9910   20.2500 N   0  0  0  0  0  0  0  0  0  0  0  0
  -24.3270  -10.8650   20.7900 C   0  0  0  0  0  0  0  0  0  0  0  0
  -24.7100   -9.8820   21.7290 C   0  0  0  0  0  3  0  0  0  0  0  0
  -23.9230   -8.7250   21.9170 C   0  0  0  0  0  3  0  0  0  0  0  0
  -22.7380   -8.5430   21.1650 C   0  0  0  0  0  0  0  0  0  0  0  0
  -22.3730   -9.5130   20.2150 C   0  0  0  0  0  3  0  0  0  0  0  0
  -23.1610  -10.6610   20.0260 C   0  0  0  0  0  3  0  0  0  0  0  0
  -21.9270   -7.4390   21.2620 O   0  0  0  0  0  0  0  0  0  0  0  0
  -21.8270   -6.7170   22.4240 C   0  0  0  0  0  0  0  0  0  0  0  0
  -21.3830   -7.3050   23.6300 C   0  0  0  0  0  3  0  0  0  0  0  0
  -21.2290   -6.5120   24.7840 C   0  0  0  0  0  3  0  0  0  0  0  0
  -21.5060   -5.1330   24.7350 C   0  0  0  0  0  0  0  0  0  0  0  0
  -21.9430   -4.5450   23.5340 C   0  0  0  0  0  3  0  0  0  0  0  0
  -22.0990   -5.3360   22.3820 C   0  0  0  0  0  0  0  0  0  0  0  0
  -22.4990   -4.7590   21.2220 F   0  0  0  0  0  0  0  0  0  0  0  0
  -21.3510   -4.3700   25.8410 F   0  0  0  0  0  0  0  0  0  0  0  0
  -23.3530  -14.0100   20.9400 C   0  0  0  0  0  0  0  0  0  0  0  0
  -22.6100  -13.3560   21.8250 N   0  0  0  0  0  0  0  0  0  0  0  0
  -22.9590  -15.0530   20.4230 O   0  0  0  0  0  0  0  0  0  0  0  0
  -22.9430  -12.5100   22.2650 H   0  0  0  0  0  0  0  0  0  0  0  0
  -21.6920  -13.7040   22.0640 H   0  0  0  0  0  0  0  0  0  0  0  0
  -26.0360  -15.5460   20.0760 N   0  0  0  0  0  0  0  0  0  0  0  0
  -25.3000  -16.2320   20.2020 H   0  0  0  0  0  0  0  0  0  0  0  0
  -26.8800  -15.9410   19.6820 H   0  0  0  0  0  0  0  0  0  0  0  0
  -32.0750  -18.5750   19.5350 C   0  0  0  0  0  2  0  0  0  0  0  0
  -32.7170  -19.9060   19.5940 N   0  0  0  0  0  4  0  0  0  0  0  0
  -32.2580  -20.5700   18.9960 H   0  0  0  0  0  0  0  0  0  0  0  0
  -33.6660  -19.8210   19.2720 H   0  0  0  0  0  0  0  0  0  0  0  0
  -32.7530  -20.2580   20.5340 H   0  0  0  0  0  0  0  0  0  0  0  0
  -29.3060  -22.7960   19.6920 C   0  0  0  0  0  2  0  0  0  0  0  0
  -28.4820  -24.2680   20.3850 C   0  0  0  0  0  2  0  0  0  0  0  0
  -28.6200  -25.9250   20.2350 O   0  0  0  0  0  0  0  0  0  0  0  0
  -24.7250  -31.7290   23.2200 C   0  0  0  0  0  0  0  0  0  0  0  0
  -27.5540  -26.9790   20.2160 C   0  0  0  0  0  0  0  0  0  0  0  0
  -23.6350  -30.3150   21.5250 C   0  0  0  0  0  3  0  0  0  0  0  0
  -25.1860  -28.7840   20.1270 C   0  0  0  0  0  0  0  0  0  0  0  0
  -26.1970  -30.6220   21.4590 C   0  0  0  0  0  2  0  0  0  0  0  0
  -26.3410  -29.2220   20.7860 C   0  0  0  0  0  0  0  0  0  0  0  0
  -27.5200  -28.3450   20.7990 C   0  0  0  0  0  3  0  0  0  0  0  0
  -26.3600  -26.6950   19.5150 C   0  0  0  0  0  3  0  0  0  0  0  0
  -25.2220  -27.5440   19.4690 C   0  0  0  0  0  3  0  0  0  0  0  0
  -23.9330  -29.6600   20.1480 C   0  0  0  0  0  2  0  0  0  0  0  0
  -24.8720  -30.9170   22.1220 N   0  0  0  0  0  0  0  0  0  0  0  0
  -23.6100  -31.9680   23.7120 O   0  0  0  0  0  0  0  0  0  0  0  0
  -22.9500  -29.2790   22.4550 C   0  0  0  0  0  0  0  0  0  0  0  0
  -21.6360  -29.0520   22.2760 N   0  0  0  0  0  0  0  0  0  0  0  0
  -23.6110  -28.6800   23.3080 O   0  0  0  0  0  0  0  0  0  0  0  0
  -21.1550  -29.5890   21.5680 H   0  0  0  0  0  0  0  0  0  0  0  0
  -18.3070  -27.6450   22.6110 C   0  0  0  0  0  0  0  0  0  0  0  0
  -20.8290  -28.0670   23.0070 C   0  0  0  0  0  3  0  0  0  0  0  0
  -21.0460  -26.6440   22.4430 C   0  0  0  0  0  2  0  0  0  0  0  0
  -20.0210  -26.2530   21.3740 C   0  0  0  0  0  2  0  0  0  0  0  0
  -18.6010  -26.3110   21.9460 C   0  0  0  0  0  2  0  0  0  0  0  0
  -19.3540  -28.4760   23.0940 C   0  0  0  0  0  0  0  0  0  0  0  0
  -19.0230  -29.7190   23.6780 C   0  0  0  0  0  3  0  0  0  0  0  0
  -17.6820  -30.1340   23.7820 C   0  0  0  0  0  3  0  0  0  0  0  0
  -16.6500  -29.3010   23.3130 C   0  0  0  0  0  3  0  0  0  0  0  0
  -16.9630  -28.0590   22.7340 C   0  0  0  0  0  3  0  0  0  0  0  0
  -25.9500  -32.4100   23.9020 C   0  0  0  0  0  3  0  0  0  0  0  0
  -26.4070  -31.6800   25.2250 C   0  0  1  0  0  0  0  0  0  0  0  0
  -25.2590  -31.4400   26.2340 C   0  0  0  0  0  1  0  0  0  0  0  0
  -27.0420  -30.3060   24.9070 C   0  0  0  0  0  1  0  0  0  0  0  0
  -27.5010  -32.5150   25.9330 C   0  0  0  0  0  1  0  0  0  0  0  0
  -25.5870  -33.8090   24.1960 N   0  0  0  0  0  0  0  0  0  0  0  0
  -25.9340  -34.8660   23.4500 C   0  0  0  0  0  0  0  0  0  0  0  0
  -26.6550  -34.7690   22.4540 O   0  0  0  0  0  0  0  0  0  0  0  0
  -24.9500  -33.9550   24.9650 H   0  0  0  0  0  0  0  0  0  0  0  0
  -24.1790  -36.6200   23.0170 C   0  0  0  0  0  1  0  0  0  0  0  0
  -25.4010  -36.2520   23.8740 C   0  0  0  0  0  3  0  0  0  0  0  0
  -27.4800  -37.2060   24.7720 C   0  0  0  0  0  1  0  0  0  0  0  0
  -26.4130  -37.3270   23.7820 N   0  0  0  0  0  0  0  0  0  0  0  0
  -25.9800  -38.2400   23.8920 H   0  0  0  0  0  0  0  0  0  0  0  0
  1  5  1  0
  1  6  1  0
  3  2  1  0
  4  2  1  0
  5 46  1  6
  5  3  1  0
  6  4  1  0
  7  1  2  0
  9 14  1  0
 10 11  1  0
 10  9  1  0
 12 11  1  0
 12 21  1  0
 12 13  1  0
 14  8  1  0
 14 13  1  0
 15  8  2  0
 16  8  1  0
 16  5  1  0
 17 16  1  0
 18 19  2  0
 19 38  1  0
 20 19  1  0
 20 23  1  0
 21 22  1  0
 21 18  1  0
 22 20  2  0
 23 24  1  0
 24 25  2  0
 26 29  1  0
 26 25  1  0
 27 26  2  0
 28 27  1  0
 28 23  2  0
 29 30  1  0
 30 31  1  0
 31 32  2  0
 33 32  1  0
 33 37  1  0
 34 33  2  0
 35 30  2  0
 35 34  1  0
 36 35  1  0
 38 39  1  0
 39 42  1  0
 39 41  1  0
 40 38  2  0
 43 44  1  0
 43 18  1  0
 45 43  1  0
 46 47  1  0
 47 50  1  0
 48 47  1  0
 49 47  1  0
 51  6  1  0
 51 52  1  0
 53 52  1  0
 54 65  2  0
 55 53  1  0
 55 60  1  0
 56 64  1  0
 56 66  1  0
 57 63  1  0
 57 59  1  0
 58 64  1  0
 59 60  2  0
 59 58  1  0
 61 55  2  0
 62 61  1  0
 62 57  2  0
 63 56  1  0
 64 54  1  0
 66 68  2  0
 67 66  1  0
 69 67  1  0
 70 79  2  0
 70 75  1  0
 71 67  1  0
 71 75  1  0
 72 71  1  0
 73 74  1  0
 73 72  1  0
 74 70  1  0
 75 76  2  0
 76 77  1  0
 78 77  2  0
 79 78  1  0
 80 54  1  0
 80 85  1  0
 80 81  1  0
 81 84  1  1
 81 82  1  0
 83 81  1  0
 85 88  1  0
 86 90  1  0
 86 85  1  0
 87 86  2  0
 90 89  1  0
 92 90  1  0
 92 93  1  0
 92 91  1  0
M  ISO  4   8 100  16 100  52 101  53 101
M  END
>  <TORSDO>  (80) 
F 20

>  <SCORE>  (80) 
-15.237

>  <name>  (80) 
80

>  <ligand_id>  (80) 
80

>  <original_smiles>  (80) 
[H]c1c([H])c([H])c2c(c1[H])C([H])([H])C([H])([H])C([H])([H])C2([H])N([H])C(=O)C1([H])N(C(=O)C([H])(N([H])C(=O)C([H])(N([H])C([H])([H])[H])C([H])([H])[H])C(C([H])([H])[H])(C([H])([H])[H])C([H])([H])[H])C([H])([H])c2c([H])c(OC([H])([H])C([H])([H])N3C(=O)C(N([H])C(=O)N4C([H])([H])C([H])([H])C([H])([H])C([H])(n5nc(-c6c([H])c([H])c(Oc7c([H])c([H])c(F)c([H])c7F)c([H])c6[H])c(C(=O)N([H])[H])c5N([H])[H])C4([H])[H])(C([H])([H])[N+]([H])([H])[H])C([H])([H])C([H])([H])C3([H])[H])c([H])c([H])c2C1([H])[H]

>  <smiles>  (80) 
[H]c1c([H])c([H])c2c(c1[H])C([H])([H])C([H])([H])C([H])([H])C2([H])N([H])C(=O)C1([H])N(C(=O)C([H])(N([H])C(=O)C([H])(N([H])C([H])([H])[H])C([H])([H])[H])C(C([H])([H])[H])(C([H])([H])[H])C([H])([H])[H])C([H])([H])c2c([H])c(OC([H])([H])C([H])([H])N3C(=O)C(N([H])C(=O)N4C([H])([H])C([H])([H])C([H])([H])C([H])(n5nc(-c6c([H])c([H])c(Oc7c([H])c([H])c(F)c([H])c7F)c([H])c6[H])c(C(=O)N([H])[H])c5N([H])[H])C4([H])[H])(C([H])([H])[N+]([H])([H])[H])C([H])([H])C([H])([H])C3([H])[H])c([H])c([H])c2C1([H])[H]

$$$$
81:0:0
     RDKit          3D

105110  0  0  1  0  0  0  0  0999 V2000
  -26.3770  -10.8270   20.6520 C   0  0  0  0  0  2  0  0  0  0  0  0
  -26.7290  -11.4290   18.2700 C   0  0  0  0  0 15  0  0  0  0  0  0
  -25.9910  -15.1210   21.2530 C   0  0  0  0  0 15  0  0  0  0  0  0
  -25.9750  -12.8510   22.0650 C   0  0  0  0  0  1  0  0  0  0  0  0
  -27.2060  -13.6530   17.6510 C   0  0  0  0  0  1  0  0  0  0  0  0
  -26.6520  -15.5880   18.9070 C   0  0  0  0  0  1  0  0  0  0  0  0
  -28.8080  -13.5010   17.1250 C   0  0  0  0  0  2  0  0  0  0  0  0
  -31.9280  -12.6820   19.7710 C   0  0  0  0  0  0  0  0  0  0  0  0
  -31.7000  -10.2650   19.7340 C   0  0  0  0  0  2  0  0  0  0  0  0
  -30.9530  -10.1030   18.4180 C   0  0  0  0  0  2  0  0  0  0  0  0
  -29.4730  -10.3700   18.6240 C   0  0  0  0  0  2  0  0  0  0  0  0
  -29.1490  -11.5710   19.6020 C   0  0  0  0  0  3  0  0  0  0  0  0
  -30.0180  -11.5430   20.8320 C   0  0  0  0  0  2  0  0  0  0  0  0
  -31.3100  -11.5740   20.2420 N   0  0  0  0  0  0  0  0  0  0  0  0
  -33.1110  -12.7740   20.1310 O   0  0  0  0  0  0  0  0  0  0  0  0
  -32.3290  -15.1010   17.3450 C   0  0  0  0  0  2  0  0  0  0  0  0
  -30.8480  -15.1560   17.0480 C   0  0  0  0  0  2  0  0  0  0  0  0
  -32.5280  -13.6060   17.5630 C   0  0  0  0  0  2  0  0  0  0  0  0
  -30.2300  -14.0650   17.9450 C   0  0  0  0  0  3  0  0  0  0  0  0
  -31.4680  -13.2130   18.5030 N   0  0  0  0  0  0  0  0  0  0  0  0
  -27.1470  -12.9770   19.9920 C   0  0  0  0  0  0  0  0  0  0  0  0
  -25.4690  -12.8230   19.7120 C   0  0  0  0  0  3  0  0  0  0  0  0
  -25.1660  -11.5750   19.8300 C   0  0  1  0  0  0  0  0  0  0  0  0
  -27.8740  -12.1270   20.0890 N   0  0  0  0  0  2  0  0  0  0  0  0
  -26.3740  -12.3010   19.8600 N   0  0  1  0  0  4  0  0  0  0  0  0
  -24.2810  -10.4530   20.4110 C   0  0  0  0  0  0  0  0  0  0  0  0
  -24.3940   -9.6660   21.6180 C   0  0  0  0  0  3  0  0  0  0  0  0
  -23.5090   -8.6090   21.9130 C   0  0  0  0  0  3  0  0  0  0  0  0
  -22.4280   -8.3650   21.0450 C   0  0  0  0  0  0  0  0  0  0  0  0
  -22.3130   -9.1160   19.8680 C   0  0  0  0  0  3  0  0  0  0  0  0
  -23.2310  -10.1250   19.5510 C   0  0  0  0  0  3  0  0  0  0  0  0
  -21.4670   -7.4060   21.2460 O   0  0  0  0  0  0  0  0  0  0  0  0
  -21.1830   -6.9030   22.4860 C   0  0  0  0  0  0  0  0  0  0  0  0
  -20.8740   -7.7300   23.5900 C   0  0  0  0  0  3  0  0  0  0  0  0
  -20.5110   -7.1500   24.8220 C   0  0  0  0  0  3  0  0  0  0  0  0
  -20.4510   -5.7490   24.9490 C   0  0  0  0  0  0  0  0  0  0  0  0
  -20.7480   -4.9260   23.8480 C   0  0  0  0  0  3  0  0  0  0  0  0
  -21.1120   -5.5020   22.6210 C   0  0  0  0  0  0  0  0  0  0  0  0
  -21.3770   -4.7060   21.5570 F   0  0  0  0  0  0  0  0  0  0  0  0
  -20.0980   -5.1880   26.1290 F   0  0  0  0  0  0  0  0  0  0  0  0
  -24.1070  -13.6120   19.6770 C   0  0  0  0  0  0  0  0  0  0  0  0
  -23.1980  -13.3190   20.6210 N   0  0  0  0  0  0  0  0  0  0  0  0
  -23.7960  -14.3820   18.7830 O   0  0  0  0  0  0  0  0  0  0  0  0
  -23.4070  -12.6710   21.3670 H   0  0  0  0  0  0  0  0  0  0  0  0
  -22.3150  -13.8040   20.6210 H   0  0  0  0  0  0  0  0  0  0  0  0
  -28.2900  -13.8840   20.3110 N   0  0  0  0  0  4  0  0  0  0  0  0
  -29.1570  -13.5090   20.6610 H   0  0  0  0  0  0  0  0  0  0  0  0
  -28.0670  -14.8050   20.6590 H   0  0  0  0  0  0  0  0  0  0  0  0
  -27.9980  -16.7080   18.5870 C   0  0  0  0  0  2  0  0  0  0  0  0
  -28.3160  -18.3720   18.2670 C   0  0  0  0  0  3  0  0  0  0  0  0
  -29.9150  -19.0060   18.0600 C   0  0  0  0  0  2  0  0  0  0  0  0
  -31.4910  -21.1420   17.5880 C   0  0  0  0  0  3  0  0  0  0  0  0
  -30.2840  -20.4850   17.5660 N   0  0  0  0  0  0  0  0  0  0  0  0
  -31.9650  -22.5320   16.7380 C   0  0  0  0  0  2  0  0  0  0  0  0
  -33.1400  -23.6200   16.8980 O   0  0  0  0  0  0  0  0  0  0  0  0
  -31.2580  -30.3260   14.4570 C   0  0  0  0  0  0  0  0  0  0  0  0
  -33.1650  -24.6370   15.8660 C   0  0  0  0  0  0  0  0  0  0  0  0
  -31.0260  -28.3610   13.0090 C   0  0  0  0  0  3  0  0  0  0  0  0
  -32.4020  -26.3110   13.6500 C   0  0  0  0  0  0  0  0  0  0  0  0
  -32.9340  -28.4630   14.7440 C   0  0  0  0  0  2  0  0  0  0  0  0
  -32.9090  -26.9240   14.8040 C   0  0  0  0  0  0  0  0  0  0  0  0
  -33.2970  -26.0930   15.9300 C   0  0  0  0  0  3  0  0  0  0  0  0
  -32.8820  -24.1400   14.5830 C   0  0  0  0  0  3  0  0  0  0  0  0
  -32.4180  -24.9270   13.5360 C   0  0  0  0  0  3  0  0  0  0  0  0
  -31.8610  -27.1580   12.5180 C   0  0  0  0  0  2  0  0  0  0  0  0
  -31.7280  -29.0930   14.1110 N   0  0  0  0  0  0  0  0  0  0  0  0
  -30.2770  -30.8290   13.8860 O   0  0  0  0  0  0  0  0  0  0  0  0
  -29.6040  -27.8870   13.4040 C   0  0  0  0  0  0  0  0  0  0  0  0
  -28.7480  -27.6110   12.4040 N   0  0  0  0  0  0  0  0  0  0  0  0
  -29.2950  -27.7620   14.5920 O   0  0  0  0  0  0  0  0  0  0  0  0
  -29.0690  -27.7500   11.4560 H   0  0  0  0  0  0  0  0  0  0  0  0
  -25.7840  -26.5820   10.5960 C   0  0  0  0  0  0  0  0  0  0  0  0
  -27.3740  -27.1280   12.5620 C   0  0  0  0  0  3  0  0  0  0  0  0
  -27.3450  -25.6140   12.8700 C   0  0  0  0  0  2  0  0  0  0  0  0
  -27.1990  -24.7460   11.6150 C   0  0  0  0  0  2  0  0  0  0  0  0
  -25.9030  -25.0920   10.8740 C   0  0  0  0  0  2  0  0  0  0  0  0
  -26.4850  -27.5360   11.3810 C   0  0  0  0  0  0  0  0  0  0  0  0
  -26.3620  -28.9070   11.0630 C   0  0  0  0  0  3  0  0  0  0  0  0
  -25.5590  -29.3270    9.9860 C   0  0  0  0  0  3  0  0  0  0  0  0
  -24.8550  -28.3800    9.2230 C   0  0  0  0  0  3  0  0  0  0  0  0
  -24.9640  -27.0120    9.5300 C   0  0  0  0  0  3  0  0  0  0  0  0
  -31.9410  -31.1750   15.5690 C   0  0  0  0  0  3  0  0  0  0  0  0
  -31.1860  -31.0910   16.9530 C   0  0  1  0  0  0  0  0  0  0  0  0
  -29.6660  -31.3630   16.8510 C   0  0  0  0  0  1  0  0  0  0  0  0
  -31.3700  -29.7010   17.6040 C   0  0  0  0  0  1  0  0  0  0  0  0
  -31.7870  -32.1190   17.9390 C   0  0  0  0  0  1  0  0  0  0  0  0
  -31.9900  -32.5680   15.0970 N   0  0  0  0  0  0  0  0  0  0  0  0
  -33.0680  -33.1550   14.5580 C   0  0  0  0  0  0  0  0  0  0  0  0
  -34.1580  -32.5860   14.4630 O   0  0  0  0  0  0  0  0  0  0  0  0
  -31.1180  -33.0750   15.0920 H   0  0  0  0  0  0  0  0  0  0  0  0
  -32.7400  -34.5910   12.5140 C   0  0  0  0  0  1  0  0  0  0  0  0
  -32.9120  -34.6000   14.0420 C   0  0  0  0  0  3  0  0  0  0  0  0
  -34.1230  -35.7600   15.8380 C   0  0  0  0  0  1  0  0  0  0  0  0
  -34.0420  -35.4830   14.4060 N   0  0  0  0  0  0  0  0  0  0  0  0
  -33.9810  -36.3700   13.9150 H   0  0  0  0  0  0  0  0  0  0  0  0
  -27.4330  -18.8790   17.1040 C   0  0  0  0  0  2  0  0  0  0  0  0
  -26.0070  -18.9310   17.4650 N   0  0  0  0  0  4  0  0  0  0  0  0
  -25.6220  -18.0060   17.5230 H   0  0  0  0  0  0  0  0  0  0  0  0
  -25.4880  -19.4520   16.7800 H   0  0  0  0  0  0  0  0  0  0  0  0
  -25.8870  -19.3910   18.3500 H   0  0  0  0  0  0  0  0  0  0  0  0
  -26.8810  -12.7950   23.3180 C   0  0  0  0  0  2  0  0  0  0  0  0
  -26.1710  -12.3860   24.5460 N   0  0  0  0  0  4  0  0  0  0  0  0
  -25.4980  -13.0790   24.8190 H   0  0  0  0  0  0  0  0  0  0  0  0
  -26.8290  -12.2910   25.3020 H   0  0  0  0  0  0  0  0  0  0  0  0
  -25.7060  -11.5050   24.4290 H   0  0  0  0  0  0  0  0  0  0  0  0
  4101  1  0
  7  5  1  0
  8 15  2  0
  8 14  1  0
  9 14  1  0
 10 11  1  0
 10  9  1  0
 11 12  1  0
 12 24  1  0
 12 13  1  0
 14 13  1  0
 16 18  1  0
 17 16  1  0
 17 19  1  0
 18 20  1  0
 19  7  1  0
 19 20  1  0
 20  8  1  0
 21 24  1  0
 21 46  2  0
 22 41  1  0
 22 23  1  0
 22 25  1  0
 23 25  1  0
 23 26  1  1
 23  1  1  0
 25 21  1  1
 25  1  1  0
 26 27  1  0
 27 28  2  0
 29 32  1  0
 29 28  1  0
 30 29  2  0
 31 30  1  0
 31 26  2  0
 32 33  1  0
 33 38  2  0
 33 34  1  0
 34 35  2  0
 35 36  1  0
 36 40  1  0
 37 36  2  0
 38 37  1  0
 39 38  1  0
 41 42  1  0
 42 44  1  0
 43 41  2  0
 45 42  1  0
 46 48  1  0
 46 47  1  0
 49  6  1  0
 50 96  1  0
 50 49  1  0
 51 50  1  0
 53 52  2  0
 53 51  1  0
 54 55  1  0
 54 52  1  0
 57 62  1  0
 57 55  1  0
 58 68  1  0
 58 66  1  0
 59 61  1  0
 60 61  1  0
 61 62  2  0
 63 57  2  0
 64 59  2  0
 64 63  1  0
 65 58  1  0
 65 59  1  0
 66 56  1  0
 66 60  1  0
 67 56  2  0
 68 70  2  0
 69 68  1  0
 71 69  1  0
 72 76  1  0
 72 77  1  0
 73 69  1  0
 73 74  1  0
 75 74  1  0
 76 75  1  0
 77 73  1  0
 78 77  2  0
 79 78  1  0
 80 81  1  0
 80 79  2  0
 81 72  2  0
 82 56  1  0
 82 83  1  0
 83 85  1  1
 83 86  1  0
 84 83  1  0
 87 82  1  0
 88 87  1  0
 89 88  2  0
 90 87  1  0
 92 91  1  0
 92 94  1  0
 92 88  1  0
 94 93  1  0
 95 94  1  0
 96 97  1  0
 97 98  1  0
 97100  1  0
 99 97  1  0
101102  1  0
102103  1  0
102104  1  0
105102  1  0
M  ISO  4   8 100  20 100  54 101  55 101
M  END
>  <TORSDO>  (81) 
F 26

>  <SCORE>  (81) 
24.522

>  <name>  (81) 
81

>  <ligand_id>  (81) 
81

>  <original_smiles>  (81) 
[H]C(=NC([H])([H])C([H])(C([H])([H])C1([H])C([H])([H])C([H])(C([H])([H])[N+]([H])([H])[H])C([H])([H])C([H])([H])C1([H])C([H])([H])C1([H])N(C(=O)N2C([H])([H])C([H])([H])C([H])([H])C([H])(n3nc(-c4c([H])c([H])c(Oc5c([H])c([H])c(F)c([H])c5F)c([H])c4[H])c(C(=O)N([H])[H])c3N([H])[H])C2([H])[H])C([H])([H])C([H])([H])C1([H])[H])C([H])([H])[N+]([H])([H])[H])C([H])([H])Oc1c([H])c([H])c2c(c1[H])C([H])([H])N(C(=O)C([H])(N([H])C(=O)C([H])(N([H])C([H])([H])[H])C([H])([H])[H])C(C([H])([H])[H])(C([H])([H])[H])C([H])([H])[H])C([H])(C(=O)N([H])C1([H])c3c([H])c([H])c([H])c([H])c3C([H])([H])C([H])([H])C1([H])[H])C2([H])[H]

>  <smiles>  (81) 
[H]C(=NC([H])([H])C([H])(C([H])([H])C1([H])C([H])([H])C([H])(C([H])([H])[N+]([H])([H])[H])C([H])([H])C([H])([H])C1([H])C([H])([H])C1([H])N(C(=O)N2C([H])([H])C([H])([H])C([H])([H])C([H])(n3nc(-c4c([H])c([H])c(Oc5c([H])c([H])c(F)c([H])c5F)c([H])c4[H])c(C(=O)N([H])[H])c3N([H])[H])C2([H])[H])C([H])([H])C([H])([H])C1([H])[H])C([H])([H])[N+]([H])([H])[H])C([H])([H])Oc1c([H])c([H])c2c(c1[H])C([H])([H])N(C(=O)C([H])(N([H])C(=O)C([H])(N([H])C([H])([H])[H])C([H])([H])[H])C(C([H])([H])[H])(C([H])([H])[H])C([H])([H])[H])C([H])(C(=O)N([H])C1([H])c3c([H])c([H])c([H])c([H])c3C([H])([H])C([H])([H])C1([H])[H])C2([H])[H]

$$$$
82:0:0
     RDKit          3D

103111  0  0  1  0  0  0  0  0999 V2000
  -29.2900  -19.0120   19.6130 N   0  0  0  0  0  0  0  0  0  0  0  0
  -28.1310  -19.2030   18.7140 C   0  0  0  0  0  2  0  0  0  0  0  0
  -26.8830  -19.6460   19.5080 C   0  0  0  0  0  2  0  0  0  0  0  0
  -25.7320  -19.9140   18.6280 N   0  0  0  0  0  4  0  0  0  0  0  0
  -25.9440  -20.6380   17.9630 H   0  0  0  0  0  0  0  0  0  0  0  0
  -24.9470  -20.2160   19.1760 H   0  0  0  0  0  0  0  0  0  0  0  0
  -25.4600  -19.0860   18.1290 H   0  0  0  0  0  0  0  0  0  0  0  0
  -30.4800  -19.7760   19.1780 C   0  0  0  0  0  2  0  0  0  0  0  0
  -30.2700  -21.3040   18.8870 C   0  0  0  0  0  2  0  0  0  0  0  0
  -29.9510  -22.1360   20.0730 N   0  0  0  0  0  4  0  0  0  0  0  0
  -29.3300  -21.6020   20.6620 H   0  0  0  0  0  0  0  0  0  0  0  0
  -30.8070  -22.2820   20.5840 H   0  0  0  0  0  0  0  0  0  0  0  0
  -29.3240  -23.4570   19.7540 C   0  0  0  0  0  2  0  0  0  0  0  0
  -29.3320  -24.4630   20.9380 C   0  0  0  0  0  2  0  0  0  0  0  0
  -28.2000  -25.5280   20.9390 C   0  0  0  0  0  2  0  0  0  0  0  0
  -28.3980  -26.7100   20.1380 O   0  0  0  0  0  0  0  0  0  0  0  0
  -24.6370  -31.8980   23.2630 C   0  0  0  0  0  0  0  0  0  0  0  0
  -27.2640  -27.4980   20.1060 C   0  0  0  0  0  0  0  0  0  0  0  0
  -23.4200  -30.5110   21.6160 C   0  0  0  0  0  3  0  0  0  0  0  0
  -24.8670  -29.0000   20.1530 C   0  0  0  0  0  0  0  0  0  0  0  0
  -25.9430  -30.8830   21.3960 C   0  0  0  0  0  2  0  0  0  0  0  0
  -26.0290  -29.5200   20.7360 C   0  0  0  0  0  0  0  0  0  0  0  0
  -27.2340  -28.7770   20.7100 C   0  0  0  0  0  3  0  0  0  0  0  0
  -26.0900  -27.0020   19.5010 C   0  0  0  0  0  3  0  0  0  0  0  0
  -24.8930  -27.7430   19.5280 C   0  0  0  0  0  3  0  0  0  0  0  0
  -23.6160  -29.8490   20.2260 C   0  0  0  0  0  2  0  0  0  0  0  0
  -24.6860  -31.1110   22.1500 N   0  0  0  0  0  0  0  0  0  0  0  0
  -23.5600  -32.1600   23.8170 O   0  0  0  0  0  0  0  0  0  0  0  0
  -22.7820  -29.4770   22.5720 C   0  0  0  0  0  0  0  0  0  0  0  0
  -21.4570  -29.2890   22.4530 N   0  0  0  0  0  0  0  0  0  0  0  0
  -23.4750  -28.8480   23.3750 O   0  0  0  0  0  0  0  0  0  0  0  0
  -20.9590  -29.8490   21.7750 H   0  0  0  0  0  0  0  0  0  0  0  0
  -18.0950  -28.0610   22.9510 C   0  0  0  0  0  0  0  0  0  0  0  0
  -20.6510  -28.3380   23.2190 C   0  0  0  0  0  3  0  0  0  0  0  0
  -20.7640  -26.9130   22.6330 C   0  0  0  0  0  2  0  0  0  0  0  0
  -19.6630  -26.5890   21.6180 C   0  0  0  0  0  2  0  0  0  0  0  0
  -18.2810  -26.7180   22.2660 C   0  0  0  0  0  2  0  0  0  0  0  0
  -19.2090  -28.8290   23.3830 C   0  0  0  0  0  0  0  0  0  0  0  0
  -18.9820  -30.0880   23.9820 C   0  0  0  0  0  3  0  0  0  0  0  0
  -17.6730  -30.5790   24.1530 C   0  0  0  0  0  3  0  0  0  0  0  0
  -16.5750  -29.8070   23.7380 C   0  0  0  0  0  3  0  0  0  0  0  0
  -16.7860  -28.5510   23.1430 C   0  0  0  0  0  3  0  0  0  0  0  0
  -25.9270  -32.5260   23.8760 C   0  0  0  0  0  3  0  0  0  0  0  0
  -25.6220  -33.9240   24.2110 N   0  0  0  0  0  0  0  0  0  0  0  0
  -25.9570  -34.9780   23.4550 C   0  0  0  0  0  0  0  0  0  0  0  0
  -26.6270  -34.8760   22.4230 O   0  0  0  0  0  0  0  0  0  0  0  0
  -25.0250  -34.0770   25.0100 H   0  0  0  0  0  0  0  0  0  0  0  0
  -24.2350  -36.7750   23.1040 C   0  0  0  0  0  1  0  0  0  0  0  0
  -25.4740  -36.3650   23.9170 C   0  0  0  0  0  3  0  0  0  0  0  0
  -27.6090  -37.2390   24.7560 C   0  0  0  0  0  1  0  0  0  0  0  0
  -26.5100  -37.4160   23.8110 N   0  0  0  0  0  0  0  0  0  0  0  0
  -26.1060  -38.3360   23.9610 H   0  0  0  0  0  0  0  0  0  0  0  0
  -26.4540  -31.7490   25.1450 C   0  0  1  0  0  0  0  0  0  0  0  0
  -25.3690  -31.5070   26.2190 C   0  0  0  0  0  1  0  0  0  0  0  0
  -27.0330  -30.3750   24.7390 C   0  0  0  0  0  1  0  0  0  0  0  0
  -27.6100  -32.5410   25.8010 C   0  0  0  0  0  1  0  0  0  0  0  0
  -29.5270  -17.5470   19.6520 C   0  0  0  0  0  2  0  0  0  0  0  0
  -30.7530  -16.9440   20.4070 C   0  0  0  0  0  3  0  0  0  0  0  0
  -31.2250  -14.4600   19.9770 C   0  0  0  0  0  0  0  0  0  0  0  0
  -30.8660  -12.2270   18.9750 C   0  0  0  0  0  2  0  0  0  0  0  0
  -29.9010  -12.3760   17.7780 C   0  0  0  0  0  2  0  0  0  0  0  0
  -28.4300  -12.3170   18.2420 C   0  0  0  0  0  2  0  0  0  0  0  0
  -28.1490  -13.2500   19.4500 C   0  0  0  0  0  3  0  0  0  0  0  0
  -29.2160  -13.0490   20.5520 C   0  0  0  0  0  2  0  0  0  0  0  0
  -30.5400  -13.2820   19.9470 N   0  0  0  0  0  0  0  0  0  0  0  0
  -32.3240  -14.6160   19.4380 O   0  0  0  0  0  0  0  0  0  0  0  0
  -30.5320  -15.4870   20.5090 N   0  0  0  0  0  0  0  0  0  0  0  0
  -29.6640  -15.2140   20.9430 H   0  0  0  0  0  0  0  0  0  0  0  0
  -25.8250  -14.0260   20.2410 C   0  0  0  0  0  0  0  0  0  0  0  0
  -24.7160  -13.3310   20.6400 C   0  0  0  0  0  0  0  0  0  0  0  0
  -25.0750  -11.9490   20.5790 C   0  0  0  0  0  0  0  0  0  0  0  0
  -26.7940  -13.0720   19.9680 N   0  0  0  0  0  0  0  0  0  0  0  0
  -26.3470  -11.8170   20.2260 N   0  0  0  0  0  0  0  0  0  0  0  0
  -24.2640  -10.7420   20.7810 C   0  0  0  0  0  0  0  0  0  0  0  0
  -24.6360   -9.7520   21.7160 C   0  0  0  0  0  3  0  0  0  0  0  0
  -23.8330   -8.6070   21.9060 C   0  0  0  0  0  3  0  0  0  0  0  0
  -22.6410   -8.4460   21.1600 C   0  0  0  0  0  0  0  0  0  0  0  0
  -22.2860   -9.4240   20.2140 C   0  0  0  0  0  3  0  0  0  0  0  0
  -23.0900  -10.5610   20.0230 C   0  0  0  0  0  3  0  0  0  0  0  0
  -21.8110   -7.3560   21.2590 O   0  0  0  0  0  0  0  0  0  0  0  0
  -21.6880   -6.6470   22.4260 C   0  0  0  0  0  0  0  0  0  0  0  0
  -21.2680   -7.2560   23.6290 C   0  0  0  0  0  3  0  0  0  0  0  0
  -21.0910   -6.4760   24.7880 C   0  0  0  0  0  3  0  0  0  0  0  0
  -21.3230   -5.0890   24.7460 C   0  0  0  0  0  0  0  0  0  0  0  0
  -21.7360   -4.4800   23.5480 C   0  0  0  0  0  3  0  0  0  0  0  0
  -21.9150   -5.2560   22.3920 C   0  0  0  0  0  0  0  0  0  0  0  0
  -22.2930   -4.6620   21.2340 F   0  0  0  0  0  0  0  0  0  0  0  0
  -21.1450   -4.3370   25.8580 F   0  0  0  0  0  0  0  0  0  0  0  0
  -23.3680  -13.9070   20.9650 C   0  0  0  0  0  0  0  0  0  0  0  0
  -22.6300  -13.2690   21.8680 N   0  0  0  0  0  0  0  0  0  0  0  0
  -22.9800  -14.9560   20.4540 O   0  0  0  0  0  0  0  0  0  0  0  0
  -22.9570  -12.4200   22.3050 H   0  0  0  0  0  0  0  0  0  0  0  0
  -21.7230  -13.6340   22.1220 H   0  0  0  0  0  0  0  0  0  0  0  0
  -26.0850  -15.3820   20.0680 N   0  0  0  0  0  0  0  0  0  0  0  0
  -25.3700  -16.0870   20.2060 H   0  0  0  0  0  0  0  0  0  0  0  0
  -26.9460  -15.7550   19.6950 H   0  0  0  0  0  0  0  0  0  0  0  0
  -30.9160  -17.4750   21.8530 C   0  0  0  0  0  2  0  0  0  0  0  0
  -33.1140  -21.1950   22.3250 C   0  0  0  0  0  3  0  0  0  0  0  0
  -31.7770  -21.1080   22.7580 C   0  0  0  0  0  3  0  0  0  0  0  0
  -33.7340  -20.0790   21.7300 C   0  0  0  0  0  3  0  0  0  0  0  0
  -31.0560  -19.9080   22.5870 C   0  0  0  0  0  3  0  0  0  0  0  0
  -33.0190  -18.8770   21.5710 C   0  0  0  0  0  3  0  0  0  0  0  0
  -31.6740  -18.7870   21.9920 C   0  0  0  0  0  0  0  0  0  0  0  0
  1 57  1  0
  2  3  1  0
  2  1  1  0
  4  6  1  0
  4  3  1  0
  5  4  1  0
  7  4  1  0
  8  1  1  0
  9  8  1  0
  9 10  1  0
 10 12  1  0
 10 11  1  0
 13 10  1  0
 13 14  1  0
 14 15  1  0
 16 15  1  0
 17 28  2  0
 18 16  1  0
 18 23  1  0
 19 27  1  0
 19 29  1  0
 20 26  1  0
 20 22  1  0
 21 27  1  0
 22 21  1  0
 23 22  2  0
 24 25  1  0
 24 18  2  0
 25 20  2  0
 26 19  1  0
 27 17  1  0
 29 31  2  0
 30 29  1  0
 32 30  1  0
 33 42  2  0
 33 38  1  0
 34 30  1  0
 34 38  1  0
 35 34  1  0
 36 37  1  0
 36 35  1  0
 37 33  1  0
 38 39  2  0
 39 40  1  0
 41 40  2  0
 42 41  1  0
 43 17  1  0
 43 44  1  0
 43 53  1  0
 44 47  1  0
 45 49  1  0
 45 44  1  0
 46 45  2  0
 49 48  1  0
 51 49  1  0
 51 52  1  0
 51 50  1  0
 53 56  1  1
 53 54  1  0
 55 53  1  0
 58 57  1  0
 58 67  1  0
 58 97  1  0
 59 67  1  0
 60 65  1  0
 61 62  1  0
 61 60  1  0
 63 62  1  0
 63 72  1  0
 63 64  1  0
 65 59  1  0
 65 64  1  0
 66 59  2  0
 67 68  1  0
 69 70  2  0
 70 89  1  0
 71 70  1  0
 71 74  1  0
 72 73  1  0
 72 69  1  0
 73 71  2  0
 74 75  1  0
 75 76  2  0
 77 80  1  0
 77 76  1  0
 78 77  2  0
 79 78  1  0
 79 74  2  0
 80 81  1  0
 81 82  1  0
 82 83  2  0
 84 83  1  0
 84 88  1  0
 85 84  2  0
 86 81  2  0
 86 85  1  0
 87 86  1  0
 89 90  1  0
 90 93  1  0
 90 92  1  0
 91 89  2  0
 94 95  1  0
 94 69  1  0
 96 94  1  0
 97103  1  0
 98 99  1  0
100 98  2  0
101 99  2  0
102100  1  0
102103  2  0
103101  1  0
M  ISO  4  15 101  16 101  59 100  67 100
M  END
>  <TORSDO>  (82) 
F 29

>  <SCORE>  (82) 
-10.913

>  <name>  (82) 
82

>  <ligand_id>  (82) 
82

>  <original_smiles>  (82) 
[H]c1c([H])c([H])c(C([H])([H])C([H])(N([H])C(=O)N2C([H])([H])C([H])([H])C([H])([H])C([H])(n3nc(-c4c([H])c([H])c(Oc5c([H])c([H])c(F)c([H])c5F)c([H])c4[H])c(C(=O)N([H])[H])c3N([H])[H])C2([H])[H])C([H])([H])N(C([H])([H])C([H])([H])[N+]([H])([H])[H])C([H])([H])C([H])([H])[N+]([H])([H])C([H])([H])C([H])([H])C([H])([H])Oc2c([H])c([H])c3c(c2[H])C([H])([H])N(C(=O)C([H])(N([H])C(=O)C([H])(N([H])C([H])([H])[H])C([H])([H])[H])C(C([H])([H])[H])(C([H])([H])[H])C([H])([H])[H])C([H])(C(=O)N([H])C2([H])c4c([H])c([H])c([H])c([H])c4C([H])([H])C([H])([H])C2([H])[H])C3([H])[H])c([H])c1[H]

>  <smiles>  (82) 
[H]c1c([H])c([H])c(C([H])([H])C([H])(N([H])C(=O)N2C([H])([H])C([H])([H])C([H])([H])C([H])(n3nc(-c4c([H])c([H])c(Oc5c([H])c([H])c(F)c([H])c5F)c([H])c4[H])c(C(=O)N([H])[H])c3N([H])[H])C2([H])[H])C([H])([H])N(C([H])([H])C([H])([H])[N+]([H])([H])[H])C([H])([H])C([H])([H])[N+]([H])([H])C([H])([H])C([H])([H])C([H])([H])Oc2c([H])c([H])c3c(c2[H])C([H])([H])N(C(=O)C([H])(N([H])C(=O)C([H])(N([H])C([H])([H])[H])C([H])([H])[H])C(C([H])([H])[H])(C([H])([H])[H])C([H])([H])[H])C([H])(C(=O)N([H])C2([H])c4c([H])c([H])c([H])c([H])c4C([H])([H])C([H])([H])C2([H])[H])C3([H])[H])c([H])c1[H]

$$$$
83:0:0
     RDKit          3D

 97 98  0  0  1  0  0  0  0  0999 V2000
  -28.1160  -19.3290   20.1600 C   0  0  0  0  0  0  0  0  0  0  0  0
  -27.2250  -19.3200   19.1540 N   0  0  0  0  0  4  0  0  0  0  0  0
  -28.5590  -18.0830   20.6590 N   0  0  0  0  0  0  0  0  0  0  0  0
  -26.8380  -20.1880   18.8050 H   0  0  0  0  0  0  0  0  0  0  0  0
  -26.9560  -18.4790   18.6650 H   0  0  0  0  0  0  0  0  0  0  0  0
  -29.2800  -18.1310   21.3700 H   0  0  0  0  0  0  0  0  0  0  0  0
  -28.4980  -20.7780   20.7270 C   0  0  0  0  0  2  0  0  0  0  0  0
  -28.6440  -22.0840   19.7370 C   0  0  0  0  0  2  0  0  0  0  0  0
  -27.8770  -23.5480   19.8220 C   0  0  0  0  0  2  0  0  0  0  0  0
  -28.4280  -24.9040   20.5510 C   0  0  0  0  0  2  0  0  0  0  0  0
  -28.4630  -26.3220   19.9990 O   0  0  0  0  0  0  0  0  0  0  0  0
  -24.6730  -31.6930   23.1680 C   0  0  0  0  0  0  0  0  0  0  0  0
  -27.3520  -27.1930   20.0350 C   0  0  0  0  0  0  0  0  0  0  0  0
  -23.5060  -30.3110   21.4910 C   0  0  0  0  0  3  0  0  0  0  0  0
  -24.9880  -28.8170   20.0320 C   0  0  0  0  0  0  0  0  0  0  0  0
  -26.0430  -30.6720   21.3240 C   0  0  0  0  0  2  0  0  0  0  0  0
  -26.1510  -29.3030   20.6440 C   0  0  0  0  0  0  0  0  0  0  0  0
  -27.3430  -28.5070   20.6240 C   0  0  0  0  0  3  0  0  0  0  0  0
  -26.1710  -26.7740   19.4000 C   0  0  0  0  0  3  0  0  0  0  0  0
  -25.0050  -27.5650   19.3950 C   0  0  0  0  0  3  0  0  0  0  0  0
  -23.7390  -29.6760   20.0950 C   0  0  0  0  0  2  0  0  0  0  0  0
  -24.7610  -30.9120   22.0500 N   0  0  0  0  0  0  0  0  0  0  0  0
  -23.5810  -31.9310   23.7070 O   0  0  0  0  0  0  0  0  0  0  0  0
  -22.8640  -29.2550   22.4250 C   0  0  0  0  0  0  0  0  0  0  0  0
  -21.5470  -29.0310   22.2750 N   0  0  0  0  0  0  0  0  0  0  0  0
  -23.5510  -28.6390   23.2450 O   0  0  0  0  0  0  0  0  0  0  0  0
  -21.0480  -29.5820   21.5910 H   0  0  0  0  0  0  0  0  0  0  0  0
  -18.2130  -27.6860   22.6920 C   0  0  0  0  0  0  0  0  0  0  0  0
  -20.7530  -28.0500   23.0180 C   0  0  0  0  0  3  0  0  0  0  0  0
  -20.9260  -26.6320   22.4280 C   0  0  0  0  0  2  0  0  0  0  0  0
  -19.8580  -26.2760   21.3870 C   0  0  0  0  0  2  0  0  0  0  0  0
  -18.4590  -26.3560   22.0030 C   0  0  0  0  0  2  0  0  0  0  0  0
  -19.2890  -28.4900   23.1550 C   0  0  0  0  0  0  0  0  0  0  0  0
  -19.0060  -29.7340   23.7570 C   0  0  0  0  0  3  0  0  0  0  0  0
  -17.6770  -30.1780   23.9040 C   0  0  0  0  0  3  0  0  0  0  0  0
  -16.6140  -29.3730   23.4580 C   0  0  0  0  0  3  0  0  0  0  0  0
  -16.8840  -28.1290   22.8580 C   0  0  0  0  0  3  0  0  0  0  0  0
  -25.9360  -32.3430   23.8100 C   0  0  0  0  0  3  0  0  0  0  0  0
  -25.5990  -33.7350   24.1450 N   0  0  0  0  0  0  0  0  0  0  0  0
  -25.9370  -34.8010   23.4070 C   0  0  0  0  0  0  0  0  0  0  0  0
  -26.6320  -34.7160   22.3900 O   0  0  0  0  0  0  0  0  0  0  0  0
  -24.9830  -33.8730   24.9320 H   0  0  0  0  0  0  0  0  0  0  0  0
  -24.2070  -36.5870   23.0220 C   0  0  0  0  0  1  0  0  0  0  0  0
  -25.4240  -36.1790   23.8670 C   0  0  0  0  0  3  0  0  0  0  0  0
  -27.5180  -37.0740   24.7830 C   0  0  0  0  0  1  0  0  0  0  0  0
  -26.4500  -37.2420   23.8020 N   0  0  0  0  0  0  0  0  0  0  0  0
  -26.0310  -38.1570   23.9430 H   0  0  0  0  0  0  0  0  0  0  0  0
  -26.4460  -31.5750   25.0920 C   0  0  1  0  0  0  0  0  0  0  0  0
  -25.3420  -31.3180   26.1450 C   0  0  0  0  0  1  0  0  0  0  0  0
  -27.0540  -30.2070   24.7040 C   0  0  0  0  0  1  0  0  0  0  0  0
  -27.5770  -32.3820   25.7710 C   0  0  0  0  0  1  0  0  0  0  0  0
  -27.7990  -16.7220   20.6550 C   0  0  0  0  0  2  0  0  0  0  0  0
  -28.0620  -10.6750   20.8050 C   0  0  0  0  0 15  0  0  0  0  0  0
  -27.0890  -11.0090   19.0790 C   0  0  0  0  0 15  0  0  0  0  0  0
  -28.3480  -12.0500   22.2520 C   0  0  0  0  0 15  0  0  0  0  0  0
  -26.7940  -12.7740   18.1710 C   0  0  0  0  0 15  0  0  0  0  0  0
  -28.3610  -14.0500   22.0220 C   0  0  0  0  0  1  0  0  0  0  0  0
  -27.4070  -14.5750   18.7080 C   0  0  0  0  0 15  0  0  0  0  0  0
  -28.3370  -15.1540   20.4000 C   0  0  0  0  0  3  0  0  0  0  0  0
  -31.0640  -14.7500   20.0950 C   0  0  0  0  0  0  0  0  0  0  0  0
  -31.6230  -12.6090   18.9770 C   0  0  0  0  0  2  0  0  0  0  0  0
  -30.5730  -12.5020   17.8860 C   0  0  0  0  0  2  0  0  0  0  0  0
  -29.3010  -11.9900   18.5050 C   0  0  0  0  0  2  0  0  0  0  0  0
  -28.6900  -12.7810   19.8400 C   0  0  0  0  0  2  0  0  0  0  0  0
  -30.0860  -12.6720   20.6540 C   0  0  0  0  0  2  0  0  0  0  0  0
  -31.0330  -13.4180   20.0190 N   0  0  0  0  0  0  0  0  0  0  0  0
  -32.1500  -15.2760   19.8570 O   0  0  0  0  0  0  0  0  0  0  0  0
  -29.8490  -15.4440   20.1470 N   0  0  0  0  0  0  0  0  0  0  0  0
  -30.0120  -16.4310   20.0180 H   0  0  0  0  0  0  0  0  0  0  0  0
  -25.6620  -13.8260   20.7300 C   0  0  0  0  0  0  0  0  0  0  0  0
  -24.5300  -13.0880   20.9890 C   0  0  0  0  0  0  0  0  0  0  0  0
  -24.8880  -11.7720   20.9530 C   0  0  0  0  0  3  0  0  0  0  0  0
  -26.8100  -12.9500   20.5470 N   0  0  0  0  0  2  0  0  0  0  0  0
  -26.0720  -11.9390   21.1630 N   0  0  0  0  0  2  0  0  0  0  0  0
  -24.3290  -10.4310   21.0970 C   0  0  0  0  0  0  0  0  0  0  0  0
  -24.8130   -9.4750   22.0290 C   0  0  0  0  0  3  0  0  0  0  0  0
  -24.1820   -8.2190   22.1490 C   0  0  0  0  0  3  0  0  0  0  0  0
  -23.0570   -7.9300   21.3420 C   0  0  0  0  0  0  0  0  0  0  0  0
  -22.6320   -8.8610   20.3810 C   0  0  0  0  0  3  0  0  0  0  0  0
  -23.2700  -10.0970   20.2490 C   0  0  0  0  0  3  0  0  0  0  0  0
  -22.3420   -6.7630   21.3960 O   0  0  0  0  0  0  0  0  0  0  0  0
  -22.1100   -6.1130   22.5790 C   0  0  0  0  0  0  0  0  0  0  0  0
  -21.4660   -6.7350   23.6710 C   0  0  0  0  0  3  0  0  0  0  0  0
  -21.1890   -5.9920   24.8360 C   0  0  0  0  0  3  0  0  0  0  0  0
  -21.5460   -4.6330   24.9070 C   0  0  0  0  0  0  0  0  0  0  0  0
  -22.1820   -4.0130   23.8160 C   0  0  0  0  0  3  0  0  0  0  0  0
  -22.4600   -4.7520   22.6540 C   0  0  0  0  0  0  0  0  0  0  0  0
  -23.0520   -4.1480   21.5960 F   0  0  0  0  0  0  0  0  0  0  0  0
  -21.2730   -3.9150   26.0210 F   0  0  0  0  0  0  0  0  0  0  0  0
  -23.1700  -13.5560   21.2790 C   0  0  0  0  0  0  0  0  0  0  0  0
  -22.4930  -12.8410   22.1690 N   0  0  0  0  0  0  0  0  0  0  0  0
  -22.7400  -14.5820   20.7680 O   0  0  0  0  0  0  0  0  0  0  0  0
  -22.8960  -12.0210   22.5970 H   0  0  0  0  0  0  0  0  0  0  0  0
  -21.5590  -13.1210   22.4330 H   0  0  0  0  0  0  0  0  0  0  0  0
  -25.5910  -15.1980   20.6560 N   0  0  0  0  0  0  0  0  0  0  0  0
  -24.6310  -15.5240   20.6120 H   0  0  0  0  0  0  0  0  0  0  0  0
  -26.1280  -15.5430   19.8740 H   0  0  0  0  0  0  0  0  0  0  0  0
  1  3  1  0
  1  7  1  0
  2  1  2  0
  3  6  1  0
  4  2  1  0
  5  2  1  0
  8  9  1  0
  8  7  1  0
  9 10  1  0
 11 13  1  0
 11 10  1  0
 12 23  2  0
 13 18  1  0
 14 22  1  0
 14 24  1  0
 15 21  1  0
 15 17  1  0
 16 22  1  0
 17 16  1  0
 18 17  2  0
 19 13  2  0
 20 19  1  0
 20 15  2  0
 21 14  1  0
 22 12  1  0
 24 26  2  0
 25 24  1  0
 27 25  1  0
 28 37  2  0
 28 33  1  0
 29 25  1  0
 29 33  1  0
 30 29  1  0
 31 32  1  0
 31 30  1  0
 32 28  1  0
 33 34  2  0
 34 35  1  0
 36 35  2  0
 37 36  1  0
 38 12  1  0
 38 39  1  0
 38 48  1  0
 39 42  1  0
 40 44  1  0
 40 39  1  0
 41 40  2  0
 44 43  1  0
 46 44  1  0
 46 47  1  0
 46 45  1  0
 48 51  1  1
 48 49  1  0
 50 48  1  0
 52  3  1  0
 59 52  1  0
 59 57  1  0
 60 68  1  0
 61 66  1  0
 62 63  1  0
 62 61  1  0
 63 64  1  0
 64 65  1  0
 66 60  1  0
 66 65  1  0
 67 60  2  0
 68 59  1  0
 69 68  1  0
 70 71  2  0
 71 90  1  0
 72 71  1  0
 72 75  1  0
 72 74  1  0
 73 70  1  0
 73 74  1  0
 75 76  1  0
 76 77  2  0
 78 81  1  0
 78 77  1  0
 79 78  2  0
 80 79  1  0
 80 75  2  0
 81 82  1  0
 82 87  2  0
 82 83  1  0
 83 84  2  0
 84 85  1  0
 85 89  1  0
 86 85  2  0
 87 86  1  0
 88 87  1  0
 90 91  1  0
 91 94  1  0
 91 93  1  0
 92 90  2  0
 95 70  1  0
 96 95  1  0
 97 95  1  0
M  ISO  4  10 101  11 101  60 100  68 100
M  END
>  <TORSDO>  (83) 
F 22

>  <SCORE>  (83) 
-11.281

>  <name>  (83) 
83

>  <ligand_id>  (83) 
83

>  <original_smiles>  (83) 
[H]c1c([H])c([H])c2c(c1[H])C([H])([H])C([H])([H])C([H])([H])C2([H])N([H])C(=O)C1([H])N(C(=O)C([H])(N([H])C(=O)C([H])(N([H])C([H])([H])[H])C([H])([H])[H])C(C([H])([H])[H])(C([H])([H])[H])C([H])([H])[H])C([H])([H])c2c([H])c(OC([H])([H])C([H])([H])C([H])([H])C([H])([H])C(N([H])[H])=[N+]([H])C([H])([H])C3(N([H])C(=O)N4C([H])([H])C([H])([H])C([H])([H])C([H])(n5nc(-c6c([H])c([H])c(Oc7c([H])c([H])c(F)c([H])c7F)c([H])c6[H])c(C(=O)N([H])[H])c5N([H])[H])C4([H])[H])C([H])([H])C([H])([H])C([H])([H])C([H])([H])C([H])([H])C3([H])[H])c([H])c([H])c2C1([H])[H]

>  <smiles>  (83) 
[H]c1c([H])c([H])c2c(c1[H])C([H])([H])C([H])([H])C([H])([H])C2([H])N([H])C(=O)C1([H])N(C(=O)C([H])(N([H])C(=O)C([H])(N([H])C([H])([H])[H])C([H])([H])[H])C(C([H])([H])[H])(C([H])([H])[H])C([H])([H])[H])C([H])([H])c2c([H])c(OC([H])([H])C([H])([H])C([H])([H])C([H])([H])C(N([H])[H])=[N+]([H])C([H])([H])C3(N([H])C(=O)N4C([H])([H])C([H])([H])C([H])([H])C([H])(n5nc(-c6c([H])c([H])c(Oc7c([H])c([H])c(F)c([H])c7F)c([H])c6[H])c(C(=O)N([H])[H])c5N([H])[H])C4([H])[H])C([H])([H])C([H])([H])C([H])([H])C([H])([H])C([H])([H])C3([H])[H])c([H])c([H])c2C1([H])[H]

$$$$
84:0:0
     RDKit          3D

110118  0  0  1  0  0  0  0  0999 V2000
  -29.9520  -20.0280   19.8890 C   0  0  0  0  0  3  0  0  0  0  0  0
  -30.2190  -21.4140   20.7510 C   0  0  0  0  0  3  0  0  0  0  0  0
  -30.3350  -24.2160   18.1880 C   0  0  0  0  0  2  0  0  0  0  0  0
  -28.8430  -24.0350   18.4700 C   0  0  0  0  0  2  0  0  0  0  0  0
  -31.0670  -23.3010   19.1820 C   0  0  0  0  0  2  0  0  0  0  0  0
  -28.7910  -23.6830   19.9580 C   0  0  0  0  0  3  0  0  0  0  0  0
  -30.0850  -22.8810   20.2110 N   0  0  1  0  0  4  0  0  0  0  0  0
  -30.4420  -23.3580   21.0280 H   0  0  0  0  0  0  0  0  0  0  0  0
  -28.5070  -25.0440   20.8210 C   0  0  0  0  0  2  0  0  0  0  0  0
  -28.5560  -26.4470   20.2840 O   0  0  0  0  0  0  0  0  0  0  0  0
  -24.6250  -31.8560   23.1740 C   0  0  0  0  0  0  0  0  0  0  0  0
  -27.4020  -27.2650   20.2780 C   0  0  0  0  0  0  0  0  0  0  0  0
  -23.4880  -30.4060   21.5320 C   0  0  0  0  0  3  0  0  0  0  0  0
  -25.0020  -28.8440   20.1810 C   0  0  0  0  0  0  0  0  0  0  0  0
  -26.0270  -30.7600   21.4060 C   0  0  0  0  0  2  0  0  0  0  0  0
  -26.1500  -29.3680   20.7870 C   0  0  0  0  0  0  0  0  0  0  0  0
  -27.3550  -28.5940   20.8150 C   0  0  0  0  0  3  0  0  0  0  0  0
  -26.2210  -26.7890   19.6650 C   0  0  0  0  0  3  0  0  0  0  0  0
  -25.0400  -27.5610   19.6110 C   0  0  0  0  0  3  0  0  0  0  0  0
  -23.7490  -29.7010   20.1760 C   0  0  0  0  0  2  0  0  0  0  0  0
  -24.7310  -31.0280   22.0930 N   0  0  0  0  0  0  0  0  0  0  0  0
  -23.5240  -32.1250   23.6760 O   0  0  0  0  0  0  0  0  0  0  0  0
  -22.8180  -29.3980   22.4960 C   0  0  0  0  0  0  0  0  0  0  0  0
  -21.5000  -29.1890   22.3340 N   0  0  0  0  0  0  0  0  0  0  0  0
  -23.4840  -28.8050   23.3470 O   0  0  0  0  0  0  0  0  0  0  0  0
  -21.0210  -29.7160   21.6180 H   0  0  0  0  0  0  0  0  0  0  0  0
  -18.1350  -27.9340   22.7750 C   0  0  0  0  0  0  0  0  0  0  0  0
  -20.6810  -28.2510   23.1020 C   0  0  0  0  0  3  0  0  0  0  0  0
  -20.8270  -26.8110   22.5570 C   0  0  0  0  0  2  0  0  0  0  0  0
  -19.7560  -26.4470   21.5230 C   0  0  0  0  0  2  0  0  0  0  0  0
  -18.3550  -26.5770   22.1280 C   0  0  0  0  0  2  0  0  0  0  0  0
  -19.2270  -28.7270   23.2180 C   0  0  0  0  0  0  0  0  0  0  0  0
  -18.9690  -29.9960   23.7800 C   0  0  0  0  0  3  0  0  0  0  0  0
  -17.6510  -30.4730   23.9060 C   0  0  0  0  0  3  0  0  0  0  0  0
  -16.5730  -29.6780   23.4780 C   0  0  0  0  0  3  0  0  0  0  0  0
  -16.8170  -28.4110   22.9200 C   0  0  0  0  0  3  0  0  0  0  0  0
  -25.8800  -32.5260   23.8150 C   0  0  0  0  0  3  0  0  0  0  0  0
  -26.4070  -31.7620   25.0930 C   0  0  1  0  0  0  0  0  0  0  0  0
  -25.3090  -31.4720   26.1430 C   0  0  0  0  0  1  0  0  0  0  0  0
  -27.0480  -30.4110   24.7000 C   0  0  0  0  0  1  0  0  0  0  0  0
  -27.5130  -32.5970   25.7820 C   0  0  0  0  0  1  0  0  0  0  0  0
  -25.5190  -33.9090   24.1550 N   0  0  0  0  0  0  0  0  0  0  0  0
  -25.8130  -34.9800   23.4070 C   0  0  0  0  0  0  0  0  0  0  0  0
  -26.4830  -34.9100   22.3730 O   0  0  0  0  0  0  0  0  0  0  0  0
  -24.9180  -34.0380   24.9560 H   0  0  0  0  0  0  0  0  0  0  0  0
  -24.0220  -36.7180   23.0710 C   0  0  0  0  0  1  0  0  0  0  0  0
  -25.2780  -36.3470   23.8760 C   0  0  0  0  0  3  0  0  0  0  0  0
  -27.3790  -37.2990   24.7180 C   0  0  0  0  0  1  0  0  0  0  0  0
  -26.2720  -37.4360   23.7740 N   0  0  0  0  0  0  0  0  0  0  0  0
  -25.8330  -38.3400   23.9300 H   0  0  0  0  0  0  0  0  0  0  0  0
  -29.5920  -21.3810   22.1660 C   0  0  0  0  0  2  0  0  0  0  0  0
  -30.5020  -22.0470   23.2270 C   0  0  0  0  0  2  0  0  0  0  0  0
  -31.6890  -21.8550   25.4610 C   0  0  0  0  0  1  0  0  0  0  0  0
  -30.6340  -21.2460   24.5310 C   0  0  0  0  0  2  0  0  0  0  0  0
  -30.4190  -18.5540   20.4930 C   0  0  0  0  0  2  0  0  0  0  0  0
  -29.4750  -17.2360   20.3420 C   0  0  0  0  0  0  0  0  0  0  0  0
  -30.6370  -14.7070   20.1850 C   0  0  0  0  0  0  0  0  0  0  0  0
  -30.4440  -12.4090   19.1890 C   0  0  0  0  0  2  0  0  0  0  0  0
  -29.4610  -12.4760   17.9950 C   0  0  0  0  0  2  0  0  0  0  0  0
  -27.9980  -12.3370   18.4590 C   0  0  0  0  0  2  0  0  0  0  0  0
  -27.6750  -13.2260   19.6870 C   0  0  0  0  0  3  0  0  0  0  0  0
  -28.7630  -13.0920   20.7800 C   0  0  0  0  0  2  0  0  0  0  0  0
  -30.0540  -13.4530   20.1680 N   0  0  0  0  0  0  0  0  0  0  0  0
  -31.7620  -14.8740   19.7080 O   0  0  0  0  0  0  0  0  0  0  0  0
  -29.8200  -15.7480   20.6090 N   0  0  0  0  0  4  0  0  0  0  0  0
  -29.0490  -15.3200   21.0980 H   0  0  0  0  0  0  0  0  0  0  0  0
  -25.3150  -13.8890   20.4510 C   0  0  0  0  0  0  0  0  0  0  0  0
  -24.2330  -13.1530   20.8430 C   0  0  0  0  0  0  0  0  0  0  0  0
  -24.6540  -11.7900   20.7950 C   0  0  0  0  0  0  0  0  0  0  0  0
  -26.3310  -12.9810   20.1990 N   0  0  0  0  0  0  0  0  0  0  0  0
  -25.9380  -11.7110   20.4640 N   0  0  0  0  0  0  0  0  0  0  0  0
  -23.8920  -10.5540   20.9930 C   0  0  0  0  0  0  0  0  0  0  0  0
  -24.3160   -9.5680   21.9080 C   0  0  0  0  0  3  0  0  0  0  0  0
  -23.5560   -8.3950   22.0970 C   0  0  0  0  0  3  0  0  0  0  0  0
  -22.3570   -8.2020   21.3710 C   0  0  0  0  0  0  0  0  0  0  0  0
  -21.9500   -9.1790   20.4450 C   0  0  0  0  0  3  0  0  0  0  0  0
  -22.7110  -10.3430   20.2540 C   0  0  0  0  0  3  0  0  0  0  0  0
  -21.5690   -7.0810   21.4700 O   0  0  0  0  0  0  0  0  0  0  0  0
  -21.5430   -6.3210   22.6100 C   0  0  0  0  0  0  0  0  0  0  0  0
  -21.1850   -6.8660   23.8620 C   0  0  0  0  0  3  0  0  0  0  0  0
  -21.0990   -6.0320   24.9950 C   0  0  0  0  0  3  0  0  0  0  0  0
  -21.3650   -4.6550   24.8770 C   0  0  0  0  0  0  0  0  0  0  0  0
  -21.7170   -4.1100   23.6290 C   0  0  0  0  0  3  0  0  0  0  0  0
  -21.8010   -4.9400   22.4990 C   0  0  0  0  0  0  0  0  0  0  0  0
  -22.1190   -4.4060   21.2940 F   0  0  0  0  0  0  0  0  0  0  0  0
  -21.2750   -3.8510   25.9630 F   0  0  0  0  0  0  0  0  0  0  0  0
  -22.8600  -13.6770   21.1470 C   0  0  0  0  0  0  0  0  0  0  0  0
  -22.1370  -13.0120   22.0410 N   0  0  0  0  0  0  0  0  0  0  0  0
  -22.4400  -14.7120   20.6310 O   0  0  0  0  0  0  0  0  0  0  0  0
  -22.4940  -12.1750   22.4780 H   0  0  0  0  0  0  0  0  0  0  0  0
  -21.2160  -13.3420   22.2880 H   0  0  0  0  0  0  0  0  0  0  0  0
  -25.5020  -15.2470   20.2660 N   0  0  0  0  0  0  0  0  0  0  0  0
  -24.7480  -15.9030   20.4400 H   0  0  0  0  0  0  0  0  0  0  0  0
  -26.3450  -15.6760   19.9150 H   0  0  0  0  0  0  0  0  0  0  0  0
  -28.4340  -17.3600   19.1990 C   0  0  0  0  0  2  0  0  0  0  0  0
  -27.3240  -18.4060   19.4790 C   0  0  0  0  0  2  0  0  0  0  0  0
  -26.7190  -19.0020   18.1960 C   0  0  0  0  0  2  0  0  0  0  0  0
  -25.7460  -20.1670   18.4690 C   0  0  0  0  0  2  0  0  0  0  0  0
  -25.2080  -20.7470   17.2270 N   0  0  0  0  0  4  0  0  0  0  0  0
  -25.9400  -21.1290   16.6570 H   0  0  0  0  0  0  0  0  0  0  0  0
  -24.5660  -21.4890   17.4470 H   0  0  0  0  0  0  0  0  0  0  0  0
  -24.7100  -20.0540   16.6960 H   0  0  0  0  0  0  0  0  0  0  0  0
  -30.5730  -20.0420   18.4590 C   0  0  0  0  0  2  0  0  0  0  0  0
  -29.6500  -20.5580   17.3400 C   0  0  0  0  0  2  0  0  0  0  0  0
  -30.2800  -20.5620   15.9330 C   0  0  0  0  0  2  0  0  0  0  0  0
  -30.4660  -19.1770   15.2760 C   0  0  0  0  0  2  0  0  0  0  0  0
  -29.1890  -18.5330   14.9150 N   0  0  0  0  0  4  0  0  0  0  0  0
  -28.6620  -18.2690   15.7280 H   0  0  0  0  0  0  0  0  0  0  0  0
  -29.3690  -17.7030   14.3770 H   0  0  0  0  0  0  0  0  0  0  0  0
  -28.6260  -19.1470   14.3520 H   0  0  0  0  0  0  0  0  0  0  0  0
  1103  1  0
  1 55  1  0
  1  2  1  0
  2 51  1  0
  3  4  1  0
  3  5  1  0
  4  6  1  0
  5  7  1  0
  6  7  1  0
  6  9  1  0
  7  2  1  0
  7  8  1  1
 10  9  1  0
 11 22  2  0
 12 10  1  0
 12 17  1  0
 13 21  1  0
 13 23  1  0
 14 16  1  0
 15 21  1  0
 16 17  2  0
 16 15  1  0
 18 12  2  0
 19 18  1  0
 19 14  2  0
 20 14  1  0
 20 13  1  0
 21 11  1  0
 23 25  2  0
 24 23  1  0
 26 24  1  0
 27 36  2  0
 27 32  1  0
 28 24  1  0
 28 32  1  0
 29 28  1  0
 30 31  1  0
 30 29  1  0
 31 27  1  0
 32 33  2  0
 33 34  1  0
 35 34  2  0
 36 35  1  0
 37 11  1  0
 37 42  1  0
 37 38  1  0
 38 41  1  1
 38 39  1  0
 40 38  1  0
 42 45  1  0
 43 47  1  0
 43 42  1  0
 44 43  2  0
 47 46  1  0
 49 47  1  0
 49 50  1  0
 49 48  1  0
 51 52  1  0
 52 54  1  0
 54 53  1  0
 56 55  1  0
 56 65  2  3
 57 65  1  0
 58 63  1  0
 59 60  1  0
 59 58  1  0
 61 60  1  0
 61 70  1  0
 61 62  1  0
 63 57  1  0
 63 62  1  0
 64 57  2  0
 65 66  1  0
 67 68  2  0
 68 87  1  0
 69 68  1  0
 69 72  1  0
 70 67  1  0
 70 71  1  0
 71 69  2  0
 72 73  1  0
 73 74  2  0
 75 78  1  0
 75 74  1  0
 76 75  2  0
 77 76  1  0
 77 72  2  0
 78 79  1  0
 79 80  1  0
 80 81  2  0
 82 81  1  0
 82 86  1  0
 83 82  2  0
 84 79  2  0
 84 83  1  0
 85 84  1  0
 87 88  1  0
 88 91  1  0
 88 90  1  0
 89 87  2  0
 92 93  1  0
 92 67  1  0
 94 92  1  0
 95 96  1  0
 95 56  1  0
 97 98  1  0
 97 96  1  0
 99101  1  0
 99 98  1  0
100 99  1  0
102 99  1  0
104103  1  0
105104  1  0
106105  1  0
107106  1  0
107108  1  0
109107  1  0
110107  1  0
M  ISO  4   9 101  10 101  57 100  65 100
M  END
>  <TORSDO>  (84) 
F 34

>  <SCORE>  (84) 
-10.644

>  <name>  (84) 
84

>  <ligand_id>  (84) 
84

>  <original_smiles>  (84) 
[H]c1c([H])c([H])c2c(c1[H])C([H])([H])C([H])([H])C([H])([H])C2([H])N([H])C(=O)C1([H])N(C(=O)C([H])(N([H])C(=O)C([H])(N([H])C([H])([H])[H])C([H])([H])[H])C(C([H])([H])[H])(C([H])([H])[H])C([H])([H])[H])C([H])([H])c2c([H])c(OC([H])([H])C3([H])C([H])([H])C([H])([H])C([H])([H])[N+]3([H])C([H])(C([H])([H])C([H])([H])C([H])([H])C([H])([H])[H])C([H])(C([H])([H])C([H])([H])C([H])([H])C([H])([H])[N+]([H])([H])[H])C([H])([H])C([H])(N([H])C(=O)N3C([H])([H])C([H])([H])C([H])([H])C([H])(n4nc(-c5c([H])c([H])c(Oc6c([H])c([H])c(F)c([H])c6F)c([H])c5[H])c(C(=O)N([H])[H])c4N([H])[H])C3([H])[H])C([H])([H])C([H])([H])C([H])([H])C([H])([H])[N+]([H])([H])[H])c([H])c([H])c2C1([H])[H]

>  <smiles>  (84) 
[H]c1c([H])c([H])c2c(c1[H])C([H])([H])C([H])([H])C([H])([H])C2([H])N([H])C(=O)C1([H])N(C(=O)C([H])(N([H])C(=O)C([H])(N([H])C([H])([H])[H])C([H])([H])[H])C(C([H])([H])[H])(C([H])([H])[H])C([H])([H])[H])C([H])([H])c2c([H])c(OC([H])([H])C3([H])C([H])([H])C([H])([H])C([H])([H])[N+]3([H])C([H])(C([H])([H])C([H])([H])C([H])([H])C([H])([H])[H])C([H])(C([H])([H])C([H])([H])C([H])([H])C([H])([H])[N+]([H])([H])[H])C([H])([H])C([H])(N([H])C(=O)N3C([H])([H])C([H])([H])C([H])([H])C([H])(n4nc(-c5c([H])c([H])c(Oc6c([H])c([H])c(F)c([H])c6F)c([H])c5[H])c(C(=O)N([H])[H])c4N([H])[H])C3([H])[H])C([H])([H])C([H])([H])C([H])([H])C([H])([H])[N+]([H])([H])[H])c([H])c([H])c2C1([H])[H]

$$$$
85:0:0
     RDKit          3D

 93102  0  0  1  0  0  0  0  0999 V2000
  -29.8760  -19.1530   20.3550 C   0  0  0  0  0  0  0  0  0  0  0  0
  -30.0370  -20.0110   21.6320 C   0  0  0  0  0  3  0  0  0  0  0  0
  -30.8860  -22.5320   21.5490 C   0  0  0  0  0  2  0  0  0  0  0  0
  -30.2580  -23.9150   21.2940 C   0  0  0  0  0  2  0  0  0  0  0  0
  -29.1780  -21.1970   19.1350 C   0  0  0  0  0  2  0  0  0  0  0  0
  -29.6960  -21.5650   21.5530 C   0  0  0  0  0  3  0  0  0  0  0  0
  -28.8340  -22.1060   20.3800 C   0  0  0  0  0  3  0  0  0  0  0  0
  -29.1630  -23.7120   20.2300 C   0  0  0  0  0  3  0  0  0  0  0  0
  -29.3590  -19.7100   19.3070 N   0  0  0  0  0  2  0  0  0  0  0  0
  -28.0130  -24.8740   20.2640 C   0  0  0  0  0  2  0  0  0  0  0  0
  -28.2810  -26.3710   20.1970 O   0  0  0  0  0  0  0  0  0  0  0  0
  -24.6400  -31.9280   23.2270 C   0  0  0  0  0  0  0  0  0  0  0  0
  -27.1870  -27.2840   20.1620 C   0  0  0  0  0  0  0  0  0  0  0  0
  -23.4160  -30.5340   21.6030 C   0  0  0  0  0  3  0  0  0  0  0  0
  -24.8430  -28.9680   20.1640 C   0  0  0  0  0  0  0  0  0  0  0  0
  -25.9620  -30.8180   21.4000 C   0  0  0  0  0  2  0  0  0  0  0  0
  -26.0270  -29.4330   20.7510 C   0  0  0  0  0  0  0  0  0  0  0  0
  -27.2010  -28.6060   20.7320 C   0  0  0  0  0  3  0  0  0  0  0  0
  -25.9740  -26.8970   19.5450 C   0  0  0  0  0  3  0  0  0  0  0  0
  -24.8250  -27.7090   19.5480 C   0  0  0  0  0  3  0  0  0  0  0  0
  -23.6160  -29.8580   20.2220 C   0  0  0  0  0  2  0  0  0  0  0  0
  -24.6920  -31.1130   22.1320 N   0  0  0  0  0  0  0  0  0  0  0  0
  -23.5640  -32.2130   23.7720 O   0  0  0  0  0  0  0  0  0  0  0  0
  -22.7530  -29.5230   22.5720 C   0  0  0  0  0  0  0  0  0  0  0  0
  -21.4260  -29.3440   22.4520 N   0  0  0  0  0  0  0  0  0  0  0  0
  -23.4330  -28.9030   23.3940 O   0  0  0  0  0  0  0  0  0  0  0  0
  -20.9350  -29.8970   21.7640 H   0  0  0  0  0  0  0  0  0  0  0  0
  -18.0510  -28.1430   22.9750 C   0  0  0  0  0  0  0  0  0  0  0  0
  -20.6110  -28.4100   23.2320 C   0  0  0  0  0  3  0  0  0  0  0  0
  -20.7130  -26.9740   22.6660 C   0  0  0  0  0  2  0  0  0  0  0  0
  -19.6080  -26.6420   21.6600 C   0  0  0  0  0  2  0  0  0  0  0  0
  -18.2270  -26.7900   22.3070 C   0  0  0  0  0  2  0  0  0  0  0  0
  -19.1700  -28.9100   23.3940 C   0  0  0  0  0  0  0  0  0  0  0  0
  -18.9520  -30.1750   23.9810 C   0  0  0  0  0  3  0  0  0  0  0  0
  -17.6470  -30.6750   24.1510 C   0  0  0  0  0  3  0  0  0  0  0  0
  -16.5420  -29.9050   23.7490 C   0  0  0  0  0  3  0  0  0  0  0  0
  -16.7450  -28.6410   23.1650 C   0  0  0  0  0  3  0  0  0  0  0  0
  -25.9300  -32.5600   23.8340 C   0  0  0  0  0  3  0  0  0  0  0  0
  -26.4680  -31.7780   25.0960 C   0  0  1  0  0  0  0  0  0  0  0  0
  -25.3900  -31.5260   26.1770 C   0  0  0  0  0  1  0  0  0  0  0  0
  -27.0520  -30.4080   24.6840 C   0  0  0  0  0  1  0  0  0  0  0  0
  -27.6240  -32.5710   25.7500 C   0  0  0  0  0  1  0  0  0  0  0  0
  -25.6210  -33.9530   24.1860 N   0  0  0  0  0  0  0  0  0  0  0  0
  -25.9210  -35.0160   23.4270 C   0  0  0  0  0  0  0  0  0  0  0  0
  -26.5530  -34.9260   22.3710 O   0  0  0  0  0  0  0  0  0  0  0  0
  -25.0600  -34.0980   25.0120 H   0  0  0  0  0  0  0  0  0  0  0  0
  -24.1670  -36.8000   23.1590 C   0  0  0  0  0  1  0  0  0  0  0  0
  -25.4440  -36.3980   23.9160 C   0  0  0  0  0  3  0  0  0  0  0  0
  -27.6000  -37.2950   24.6730 C   0  0  0  0  0  1  0  0  0  0  0  0
  -26.4630  -37.4600   23.7720 N   0  0  0  0  0  0  0  0  0  0  0  0
  -26.0560  -38.3760   23.9390 H   0  0  0  0  0  0  0  0  0  0  0  0
  -30.5600  -17.6710   20.3180 C   0  0  0  0  0  3  0  0  0  0  0  0
  -31.2190  -17.5880   19.0020 N   0  0  0  0  0  4  0  0  0  0  0  0
  -30.5250  -17.6380   18.2760 H   0  0  0  0  0  0  0  0  0  0  0  0
  -31.7530  -16.7380   18.9260 H   0  0  0  0  0  0  0  0  0  0  0  0
  -31.8310  -18.3760   18.8870 H   0  0  0  0  0  0  0  0  0  0  0  0
  -29.8170  -16.2490   20.6650 C   0  0  0  0  0  2  0  0  0  0  0  0
  -30.5840  -14.8470   20.3820 C   0  0  0  0  0  0  0  0  0  0  0  0
  -30.3760  -12.5660   19.3560 C   0  0  0  0  0  2  0  0  0  0  0  0
  -29.4360  -12.6520   18.1320 C   0  0  0  0  0  2  0  0  0  0  0  0
  -27.9670  -12.4710   18.5600 C   0  0  0  0  0  2  0  0  0  0  0  0
  -27.5950  -13.3520   19.7810 C   0  0  0  0  0  3  0  0  0  0  0  0
  -28.6560  -13.2740   20.9000 C   0  0  0  0  0  2  0  0  0  0  0  0
  -29.9590  -13.6160   20.3180 N   0  0  0  0  0  0  0  0  0  0  0  0
  -31.7650  -14.9190   20.0270 O   0  0  0  0  0  0  0  0  0  0  0  0
  -25.2110  -13.9330   20.5250 C   0  0  0  0  0  0  0  0  0  0  0  0
  -24.1460  -13.1550   20.8910 C   0  0  0  0  0  0  0  0  0  0  0  0
  -24.6120  -11.8050   20.8530 C   0  0  0  0  0  0  0  0  0  0  0  0
  -26.2550  -13.0570   20.2780 N   0  0  0  0  0  0  0  0  0  0  0  0
  -25.9020  -11.7720   20.5420 N   0  0  0  0  0  0  0  0  0  0  0  0
  -23.8870  -10.5410   21.0360 C   0  0  0  0  0  0  0  0  0  0  0  0
  -24.3100   -9.5740   21.9740 C   0  0  0  0  0  3  0  0  0  0  0  0
  -23.5830   -8.3760   22.1450 C   0  0  0  0  0  3  0  0  0  0  0  0
  -22.4190   -8.1350   21.3770 C   0  0  0  0  0  0  0  0  0  0  0  0
  -22.0150   -9.0910   20.4280 C   0  0  0  0  0  3  0  0  0  0  0  0
  -22.7430  -10.2810   20.2550 C   0  0  0  0  0  3  0  0  0  0  0  0
  -21.6640   -6.9890   21.4580 O   0  0  0  0  0  0  0  0  0  0  0  0
  -21.5840   -6.2600   22.6170 C   0  0  0  0  0  0  0  0  0  0  0  0
  -21.0990   -6.8220   23.8180 C   0  0  0  0  0  3  0  0  0  0  0  0
  -20.9680   -6.0180   24.9680 C   0  0  0  0  0  3  0  0  0  0  0  0
  -21.3120   -4.6530   24.9160 C   0  0  0  0  0  0  0  0  0  0  0  0
  -21.7890   -4.0920   23.7190 C   0  0  0  0  0  3  0  0  0  0  0  0
  -21.9210   -4.8930   22.5720 C   0  0  0  0  0  0  0  0  0  0  0  0
  -22.3610   -4.3420   21.4140 F   0  0  0  0  0  0  0  0  0  0  0  0
  -21.1800   -3.8780   26.0170 F   0  0  0  0  0  0  0  0  0  0  0  0
  -22.7490  -13.6290   21.1660 C   0  0  0  0  0  0  0  0  0  0  0  0
  -22.0220  -12.9270   22.0280 N   0  0  0  0  0  0  0  0  0  0  0  0
  -22.3100  -14.6560   20.6510 O   0  0  0  0  0  0  0  0  0  0  0  0
  -22.3890  -12.0940   22.4640 H   0  0  0  0  0  0  0  0  0  0  0  0
  -21.0850  -13.2270   22.2570 H   0  0  0  0  0  0  0  0  0  0  0  0
  -25.3730  -15.3050   20.3580 N   0  0  0  0  0  0  0  0  0  0  0  0
  -24.6080  -15.9600   20.4780 H   0  0  0  0  0  0  0  0  0  0  0  0
  -26.2240  -15.7480   20.0360 H   0  0  0  0  0  0  0  0  0  0  0  0
  1  2  2  0
  4  3  1  0
  5  9  1  0
  6  3  1  0
  6  2  1  0
  7  5  1  0
  7  6  1  0
  8 10  1  0
  8  7  1  0
  8  4  1  0
  9  1  1  0
 11 10  1  0
 12 23  2  0
 13 11  1  0
 13 18  1  0
 14 22  1  0
 14 24  1  0
 15 21  1  0
 15 17  1  0
 16 22  1  0
 17 16  1  0
 18 17  2  0
 19 20  1  0
 19 13  2  0
 20 15  2  0
 21 14  1  0
 22 12  1  0
 24 26  2  0
 25 24  1  0
 27 25  1  0
 28 37  2  0
 28 33  1  0
 29 25  1  0
 29 33  1  0
 30 29  1  0
 31 32  1  0
 31 30  1  0
 32 28  1  0
 33 34  2  0
 34 35  1  0
 36 35  2  0
 37 36  1  0
 38 12  1  0
 38 43  1  0
 38 39  1  0
 39 42  1  1
 39 40  1  0
 41 39  1  0
 43 46  1  0
 44 48  1  0
 44 43  1  0
 45 44  2  0
 48 47  1  0
 50 48  1  0
 50 51  1  0
 50 49  1  0
 52  1  1  0
 52 57  1  0
 53 52  1  0
 54 53  1  0
 55 53  1  0
 56 53  1  0
 58 57  1  0
 59 64  1  0
 60 61  1  0
 60 59  1  0
 62 61  1  0
 62 69  1  0
 62 63  1  0
 64 58  1  0
 64 63  1  0
 65 58  2  0
 66 67  2  0
 67 86  1  0
 68 67  1  0
 68 71  1  0
 69 66  1  0
 69 70  1  0
 70 68  2  0
 71 72  1  0
 72 73  2  0
 74 77  1  0
 74 73  1  0
 75 74  2  0
 76 75  1  0
 76 71  2  0
 77 78  1  0
 78 79  1  0
 79 80  2  0
 81 80  1  0
 81 85  1  0
 82 81  2  0
 83 78  2  0
 83 82  1  0
 84 83  1  0
 86 87  1  0
 87 90  1  0
 87 89  1  0
 88 86  2  0
 91 92  1  0
 91 66  1  0
 93 91  1  0
M  ISO  4  10 101  11 101  57 100  58 100
M  END
>  <TORSDO>  (85) 
F 20

>  <SCORE>  (85) 
-14.078

>  <name>  (85) 
85

>  <ligand_id>  (85) 
85

>  <original_smiles>  (85) 
[H]c1c([H])c([H])c2c(c1[H])C([H])([H])C([H])([H])C([H])([H])C2([H])N([H])C(=O)C1([H])N(C(=O)C([H])(N([H])C(=O)C([H])(N([H])C([H])([H])[H])C([H])([H])[H])C(C([H])([H])[H])(C([H])([H])[H])C([H])([H])[H])C([H])([H])c2c([H])c(OC([H])([H])C3([H])C([H])([H])C([H])([H])C4([H])C([H])([H])C(C([H])(C([H])([H])C(=O)N5C([H])([H])C([H])([H])C([H])([H])C([H])(n6nc(-c7c([H])c([H])c(Oc8c([H])c([H])c(F)c([H])c8F)c([H])c7[H])c(C(=O)N([H])[H])c6N([H])[H])C5([H])[H])[N+]([H])([H])[H])=NC([H])([H])C34[H])c([H])c([H])c2C1([H])[H]

>  <smiles>  (85) 
[H]c1c([H])c([H])c2c(c1[H])C([H])([H])C([H])([H])C([H])([H])C2([H])N([H])C(=O)C1([H])N(C(=O)C([H])(N([H])C(=O)C([H])(N([H])C([H])([H])[H])C([H])([H])[H])C(C([H])([H])[H])(C([H])([H])[H])C([H])([H])[H])C([H])([H])c2c([H])c(OC([H])([H])C3([H])C([H])([H])C([H])([H])C4([H])C([H])([H])C(C([H])(C([H])([H])C(=O)N5C([H])([H])C([H])([H])C([H])([H])C([H])(n6nc(-c7c([H])c([H])c(Oc8c([H])c([H])c(F)c([H])c8F)c([H])c7[H])c(C(=O)N([H])[H])c6N([H])[H])C5([H])[H])[N+]([H])([H])[H])=NC([H])([H])C34[H])c([H])c([H])c2C1([H])[H]

$$$$
86:0:0
     RDKit          3D

 94102  0  0  1  0  0  0  0  0999 V2000
  -26.9630  -20.2930   19.6520 C   0  0  0  0  0  2  0  0  0  0  0  0
  -28.2000  -19.4820   19.2180 C   0  0  0  0  0  2  0  0  0  0  0  0
  -27.4360  -21.3870   20.6430 C   0  0  0  0  0  2  0  0  0  0  0  0
  -29.1960  -19.7710   20.3300 C   0  0  0  0  0  3  0  0  0  0  0  0
  -28.9830  -21.3640   20.6490 C   0  0  0  0  0  3  0  0  0  0  0  0
  -29.4330  -22.4850   19.7060 N   0  0  0  0  0  4  0  0  0  0  0  0
  -28.9270  -22.4090   18.8340 H   0  0  0  0  0  0  0  0  0  0  0  0
  -30.3980  -22.2880   19.4830 H   0  0  0  0  0  0  0  0  0  0  0  0
  -29.4270  -23.9620   20.1800 C   0  0  0  0  0  3  0  0  0  0  0  0
  -28.3710  -25.0360   19.5820 C   0  0  0  0  0  3  0  0  0  0  0  0
  -28.5070  -26.5090   19.8760 O   0  0  0  0  0  0  0  0  0  0  0  0
  -24.6400  -31.7050   23.1220 C   0  0  0  0  0  0  0  0  0  0  0  0
  -27.3760  -27.3610   19.8330 C   0  0  0  0  0  0  0  0  0  0  0  0
  -23.4770  -30.3640   21.4050 C   0  0  0  0  0  3  0  0  0  0  0  0
  -24.9720  -28.9410   19.8960 C   0  0  0  0  0  0  0  0  0  0  0  0
  -26.0090  -30.7550   21.2510 C   0  0  0  0  0  2  0  0  0  0  0  0
  -26.1280  -29.4130   20.5310 C   0  0  0  0  0  0  0  0  0  0  0  0
  -27.3260  -28.6340   20.4980 C   0  0  0  0  0  3  0  0  0  0  0  0
  -26.2050  -26.9650   19.1520 C   0  0  0  0  0  3  0  0  0  0  0  0
  -25.0150  -27.7270   19.1950 C   0  0  0  0  0  3  0  0  0  0  0  0
  -23.7090  -29.7790   19.9900 C   0  0  0  0  0  2  0  0  0  0  0  0
  -24.7280  -30.9580   21.9820 N   0  0  0  0  0  0  0  0  0  0  0  0
  -23.5480  -31.9230   23.6650 O   0  0  0  0  0  0  0  0  0  0  0  0
  -22.8450  -29.2770   22.3060 C   0  0  0  0  0  0  0  0  0  0  0  0
  -21.5210  -29.0770   22.1770 N   0  0  0  0  0  0  0  0  0  0  0  0
  -23.5420  -28.6270   23.0900 O   0  0  0  0  0  0  0  0  0  0  0  0
  -21.0180  -29.6550   21.5150 H   0  0  0  0  0  0  0  0  0  0  0  0
  -18.1780  -27.7800   22.6340 C   0  0  0  0  0  0  0  0  0  0  0  0
  -20.7320  -28.0760   22.8960 C   0  0  0  0  0  3  0  0  0  0  0  0
  -20.8580  -26.6860   22.2330 C   0  0  0  0  0  2  0  0  0  0  0  0
  -19.7520  -26.4030   21.2130 C   0  0  0  0  0  2  0  0  0  0  0  0
  -18.3740  -26.4790   21.8750 C   0  0  0  0  0  2  0  0  0  0  0  0
  -19.2850  -28.5360   23.1010 C   0  0  0  0  0  0  0  0  0  0  0  0
  -19.0470  -29.7530   23.7740 C   0  0  0  0  0  3  0  0  0  0  0  0
  -17.7340  -30.2170   23.9810 C   0  0  0  0  0  3  0  0  0  0  0  0
  -16.6410  -29.4560   23.5320 C   0  0  0  0  0  3  0  0  0  0  0  0
  -16.8620  -28.2380   22.8650 C   0  0  0  0  0  3  0  0  0  0  0  0
  -25.9010  -32.3410   23.7810 C   0  0  0  0  0  3  0  0  0  0  0  0
  -26.3950  -31.5580   25.0600 C   0  0  1  0  0  0  0  0  0  0  0  0
  -25.2790  -31.3090   26.1030 C   0  0  0  0  0  1  0  0  0  0  0  0
  -26.9910  -30.1870   24.6680 C   0  0  0  0  0  1  0  0  0  0  0  0
  -27.5350  -32.3490   25.7480 C   0  0  0  0  0  1  0  0  0  0  0  0
  -25.5720  -33.7330   24.1250 N   0  0  0  0  0  0  0  0  0  0  0  0
  -25.9010  -34.7990   23.3850 C   0  0  0  0  0  0  0  0  0  0  0  0
  -26.5870  -34.7160   22.3640 O   0  0  0  0  0  0  0  0  0  0  0  0
  -24.9610  -33.8740   24.9150 H   0  0  0  0  0  0  0  0  0  0  0  0
  -24.1630  -36.5800   23.0190 C   0  0  0  0  0  1  0  0  0  0  0  0
  -25.3900  -36.1760   23.8520 C   0  0  0  0  0  3  0  0  0  0  0  0
  -27.4900  -37.0750   24.7520 C   0  0  0  0  0  1  0  0  0  0  0  0
  -26.4130  -37.2420   23.7790 N   0  0  0  0  0  0  0  0  0  0  0  0
  -25.9950  -38.1590   23.9200 H   0  0  0  0  0  0  0  0  0  0  0  0
  -30.5330  -18.8740   20.4450 C   0  0  0  0  0  2  0  0  0  0  0  0
  -31.0030  -14.8870   19.9020 C   0  0  0  0  0  0  0  0  0  0  0  0
  -30.6690  -12.5850   18.9960 C   0  0  0  0  0  2  0  0  0  0  0  0
  -29.6930  -12.6640   17.7950 C   0  0  0  0  0  2  0  0  0  0  0  0
  -28.2430  -12.4980   18.2830 C   0  0  0  0  0  2  0  0  0  0  0  0
  -27.9300  -13.4300   19.4830 C   0  0  0  0  0  3  0  0  0  0  0  0
  -29.0330  -13.3930   20.5710 C   0  0  0  0  0  2  0  0  0  0  0  0
  -30.3200  -13.6850   19.9330 N   0  0  0  0  0  0  0  0  0  0  0  0
  -32.1000  -14.9520   19.3330 O   0  0  0  0  0  0  0  0  0  0  0  0
  -30.6380  -17.4480   19.7540 C   0  0  0  0  0  0  0  0  0  0  0  0
  -30.3970  -16.1930   20.3460 N   0  0  0  0  0  0  0  0  0  0  0  0
  -31.0790  -17.5070   18.4750 N   0  0  0  0  0  4  0  0  0  0  0  0
  -29.7080  -16.2140   21.0810 H   0  0  0  0  0  0  0  0  0  0  0  0
  -31.2750  -18.3870   18.0170 H   0  0  0  0  0  0  0  0  0  0  0  0
  -31.3870  -16.6670   17.9950 H   0  0  0  0  0  0  0  0  0  0  0  0
  -25.6080  -14.0610   20.3800 C   0  0  0  0  0  0  0  0  0  0  0  0
  -24.5450  -13.3030   20.7860 C   0  0  0  0  0  0  0  0  0  0  0  0
  -24.9610  -11.9420   20.6650 C   0  0  0  0  0  0  0  0  0  0  0  0
  -26.6080  -13.1660   20.0440 N   0  0  0  0  0  0  0  0  0  0  0  0
  -26.2300  -11.8820   20.2780 N   0  0  0  0  0  0  0  0  0  0  0  0
  -24.2060  -10.6920   20.8390 C   0  0  0  0  0  0  0  0  0  0  0  0
  -24.6060   -9.7110   21.7740 C   0  0  0  0  0  3  0  0  0  0  0  0
  -23.8500   -8.5310   21.9400 C   0  0  0  0  0  3  0  0  0  0  0  0
  -22.6790   -8.3230   21.1730 C   0  0  0  0  0  0  0  0  0  0  0  0
  -22.2980   -9.2910   20.2280 C   0  0  0  0  0  3  0  0  0  0  0  0
  -23.0540  -10.4640   20.0590 C   0  0  0  0  0  3  0  0  0  0  0  0
  -21.8980   -7.1970   21.2500 O   0  0  0  0  0  0  0  0  0  0  0  0
  -21.7490   -6.5030   22.4240 C   0  0  0  0  0  0  0  0  0  0  0  0
  -21.1800   -7.0950   23.5740 C   0  0  0  0  0  3  0  0  0  0  0  0
  -20.9820   -6.3240   24.7360 C   0  0  0  0  0  3  0  0  0  0  0  0
  -21.3430   -4.9630   24.7520 C   0  0  0  0  0  0  0  0  0  0  0  0
  -21.9060   -4.3730   23.6070 C   0  0  0  0  0  3  0  0  0  0  0  0
  -22.1040   -5.1390   22.4460 C   0  0  0  0  0  0  0  0  0  0  0  0
  -22.6240   -4.5600   21.3380 F   0  0  0  0  0  0  0  0  0  0  0  0
  -21.1490   -4.2200   25.8650 F   0  0  0  0  0  0  0  0  0  0  0  0
  -23.1840  -13.8060   21.1710 C   0  0  0  0  0  0  0  0  0  0  0  0
  -22.4970  -13.0990   22.0600 N   0  0  0  0  0  0  0  0  0  0  0  0
  -22.7460  -14.8630   20.7160 O   0  0  0  0  0  0  0  0  0  0  0  0
  -22.8630  -12.2390   22.4400 H   0  0  0  0  0  0  0  0  0  0  0  0
  -21.5840  -13.4160   22.3590 H   0  0  0  0  0  0  0  0  0  0  0  0
  -25.8100  -15.4340   20.2430 N   0  0  0  0  0  0  0  0  0  0  0  0
  -25.0620  -16.1040   20.3890 H   0  0  0  0  0  0  0  0  0  0  0  0
  -26.6320  -15.8550   19.8300 H   0  0  0  0  0  0  0  0  0  0  0  0
  1  3  1  0
  2  1  1  0
  2  4  1  0
  3  5  1  0
  4 52  1  0
  4  5  1  0
  5  6  1  0
  6  9  1  0
  7  6  1  0
  8  6  1  0
 10 11  1  0
 10  9  2  0
 12 23  2  0
 13 11  1  0
 13 18  1  0
 14 22  1  0
 14 24  1  0
 15 21  1  0
 15 17  1  0
 16 22  1  0
 17 16  1  0
 18 17  2  0
 19 20  1  0
 19 13  2  0
 20 15  2  0
 21 14  1  0
 22 12  1  0
 24 26  2  0
 25 24  1  0
 27 25  1  0
 28 37  2  0
 28 33  1  0
 29 25  1  0
 29 33  1  0
 30 29  1  0
 31 32  1  0
 31 30  1  0
 32 28  1  0
 33 34  2  0
 34 35  1  0
 36 35  2  0
 37 36  1  0
 38 12  1  0
 38 43  1  0
 38 39  1  0
 39 42  1  1
 39 40  1  0
 41 39  1  0
 43 46  1  0
 44 48  1  0
 44 43  1  0
 45 44  2  0
 48 47  1  0
 50 48  1  0
 50 51  1  0
 50 49  1  0
 53 59  1  0
 53 62  1  0
 54 59  1  0
 55 56  1  0
 55 54  1  0
 57 56  1  0
 57 70  1  0
 57 58  1  0
 59 58  1  0
 60 53  2  0
 61 62  1  0
 61 52  1  0
 62 64  1  0
 63 61  2  0
 65 63  1  0
 66 63  1  0
 67 68  2  0
 68 87  1  0
 69 68  1  0
 69 72  1  0
 70 71  1  0
 70 67  1  0
 71 69  2  0
 72 73  1  0
 73 74  2  0
 75 78  1  0
 75 74  1  0
 76 75  2  0
 77 76  1  0
 77 72  2  0
 78 79  1  0
 79 84  2  0
 79 80  1  0
 80 81  2  0
 81 82  1  0
 82 86  1  0
 83 82  2  0
 84 83  1  0
 85 84  1  0
 87 88  1  0
 88 91  1  0
 88 90  1  0
 89 87  2  0
 92 67  1  0
 92 93  1  0
 94 92  1  0
M  ISO  4  10 101  11 101  53 100  62 100
M  END
>  <TORSDO>  (86) 
F 20

>  <SCORE>  (86) 
-12.659

>  <name>  (86) 
86

>  <ligand_id>  (86) 
86

>  <original_smiles>  (86) 
[H]c1c([H])c([H])c2c(c1[H])C([H])([H])C([H])([H])C([H])([H])C2([H])N([H])C(=O)C1([H])N(C(=O)C([H])(N([H])C(=O)C([H])(N([H])C([H])([H])[H])C([H])([H])[H])C(C([H])([H])[H])(C([H])([H])[H])C([H])([H])[H])C([H])([H])c2c([H])c(OC([H])([H])C([H])([H])[N+]([H])([H])C3([H])C([H])([H])C([H])([H])C([H])([H])C3([H])C([H])([H])C(N([H])C(=O)N3C([H])([H])C([H])([H])C([H])([H])C([H])(n4nc(-c5c([H])c([H])c(Oc6c([H])c([H])c(F)c([H])c6F)c([H])c5[H])c(C(=O)N([H])[H])c4N([H])[H])C3([H])[H])=[N+]([H])[H])c([H])c([H])c2C1([H])[H]

>  <smiles>  (86) 
[H]c1c([H])c([H])c2c(c1[H])C([H])([H])C([H])([H])C([H])([H])C2([H])N([H])C(=O)C1([H])N(C(=O)C([H])(N([H])C(=O)C([H])(N([H])C([H])([H])[H])C([H])([H])[H])C(C([H])([H])[H])(C([H])([H])[H])C([H])([H])[H])C([H])([H])c2c([H])c(OC([H])([H])C([H])([H])[N+]([H])([H])C3([H])C([H])([H])C([H])([H])C([H])([H])C3([H])C([H])([H])C(N([H])C(=O)N3C([H])([H])C([H])([H])C([H])([H])C([H])(n4nc(-c5c([H])c([H])c(Oc6c([H])c([H])c(F)c([H])c6F)c([H])c5[H])c(C(=O)N([H])[H])c4N([H])[H])C3([H])[H])=[N+]([H])[H])c([H])c([H])c2C1([H])[H]

$$$$
87:0:0
     RDKit          3D

 89 97  0  0  1  0  0  0  0  0999 V2000
  -29.1260  -21.3860   19.3310 N   0  0  2  0  0  4  0  0  0  0  0  0
  -29.4380  -21.5020   18.3760 H   0  0  0  0  0  0  0  0  0  0  0  0
  -26.9140  -21.1620   20.4940 C   0  0  0  0  0  1  0  0  0  0  0  0
  -27.6750  -21.1510   19.1570 C   0  0  0  0  0  2  0  0  0  0  0  0
  -29.9480  -19.9770   19.7560 C   0  0  0  0  0  2  0  0  0  0  0  0
  -30.8000  -15.4640   19.6560 C   0  0  0  0  0  0  0  0  0  0  0  0
  -30.6650  -13.0080   18.7860 C   0  0  0  0  0  2  0  0  0  0  0  0
  -29.6550  -12.8030   17.6220 C   0  0  0  0  0  2  0  0  0  0  0  0
  -28.2280  -12.5680   18.1460 C   0  0  0  0  0  2  0  0  0  0  0  0
  -27.8830  -13.5280   19.3090 C   0  0  0  0  0  3  0  0  0  0  0  0
  -29.0100  -13.6100   20.3550 C   0  0  0  0  0  2  0  0  0  0  0  0
  -30.2060  -14.1550   19.6710 N   0  0  0  0  0  0  0  0  0  0  0  0
  -31.9410  -15.4450   19.1680 O   0  0  0  0  0  0  0  0  0  0  0  0
  -28.1710  -17.3690   21.0330 C   0  0  0  0  0  2  0  0  0  0  0  0
  -28.1960  -18.0570   19.8960 C   0  0  0  0  0  2  0  0  0  0  0  0
  -29.5260  -16.8210   21.3580 C   0  0  0  0  0  2  0  0  0  0  0  0
  -29.6060  -18.2270   19.3880 C   0  0  0  0  0  3  0  0  0  0  0  0
  -30.1600  -16.7690   20.0330 N   0  0  0  0  0  0  0  0  0  0  0  0
  -25.5940  -14.1270   20.2610 C   0  0  0  0  0  0  0  0  0  0  0  0
  -24.5450  -13.3700   20.7000 C   0  0  0  0  0  0  0  0  0  0  0  0
  -24.9680  -12.0100   20.5940 C   0  0  0  0  0  0  0  0  0  0  0  0
  -26.5890  -13.2320   19.9120 N   0  0  0  0  0  0  0  0  0  0  0  0
  -26.2300  -11.9490   20.1790 N   0  0  0  0  0  0  0  0  0  0  0  0
  -24.2170  -10.7660   20.8060 C   0  0  0  0  0  0  0  0  0  0  0  0
  -24.6290   -9.8040   21.7550 C   0  0  0  0  0  3  0  0  0  0  0  0
  -23.8760   -8.6250   21.9500 C   0  0  0  0  0  3  0  0  0  0  0  0
  -22.6980   -8.4020   21.1980 C   0  0  0  0  0  0  0  0  0  0  0  0
  -22.3070   -9.3510   20.2380 C   0  0  0  0  0  3  0  0  0  0  0  0
  -23.0600  -10.5210   20.0400 C   0  0  0  0  0  3  0  0  0  0  0  0
  -21.9180   -7.2750   21.3040 O   0  0  0  0  0  0  0  0  0  0  0  0
  -21.7620   -6.6180   22.4980 C   0  0  0  0  0  0  0  0  0  0  0  0
  -21.2250   -7.2580   23.6360 C   0  0  0  0  0  3  0  0  0  0  0  0
  -21.0180   -6.5280   24.8220 C   0  0  0  0  0  3  0  0  0  0  0  0
  -21.3380   -5.1570   24.8720 C   0  0  0  0  0  0  0  0  0  0  0  0
  -21.8670   -4.5170   23.7370 C   0  0  0  0  0  3  0  0  0  0  0  0
  -22.0760   -5.2460   22.5540 C   0  0  0  0  0  0  0  0  0  0  0  0
  -22.5660   -4.6180   21.4570 F   0  0  0  0  0  0  0  0  0  0  0  0
  -21.1320   -4.4540   26.0080 F   0  0  0  0  0  0  0  0  0  0  0  0
  -23.1910  -13.8800   21.0970 C   0  0  0  0  0  0  0  0  0  0  0  0
  -22.5270  -13.1940   22.0190 N   0  0  0  0  0  0  0  0  0  0  0  0
  -22.7360  -14.9210   20.6260 O   0  0  0  0  0  0  0  0  0  0  0  0
  -22.9130  -12.3520   22.4230 H   0  0  0  0  0  0  0  0  0  0  0  0
  -21.6190  -13.5110   22.3290 H   0  0  0  0  0  0  0  0  0  0  0  0
  -25.7740  -15.4950   20.0950 N   0  0  0  0  0  0  0  0  0  0  0  0
  -25.0280  -16.1620   20.2600 H   0  0  0  0  0  0  0  0  0  0  0  0
  -26.6140  -15.9190   19.7210 H   0  0  0  0  0  0  0  0  0  0  0  0
  -29.3080  -22.9430   19.9190 C   0  0  0  0  0  3  0  0  0  0  0  0
  -28.3270  -24.4280   19.6160 C   0  0  0  0  0  3  0  0  0  0  0  0
  -28.4180  -26.0080   20.0830 O   0  0  0  0  0  0  0  0  0  0  0  0
  -24.6430  -31.7540   23.2030 C   0  0  0  0  0  0  0  0  0  0  0  0
  -27.3610  -27.0580   20.0440 C   0  0  0  0  0  0  0  0  0  0  0  0
  -23.4930  -30.3640   21.5270 C   0  0  0  0  0  3  0  0  0  0  0  0
  -24.9920  -28.8440   20.0640 C   0  0  0  0  0  0  0  0  0  0  0  0
  -26.0510  -30.6640   21.3900 C   0  0  0  0  0  2  0  0  0  0  0  0
  -26.1660  -29.2770   20.6930 C   0  0  0  0  0  0  0  0  0  0  0  0
  -27.3420  -28.4010   20.6640 C   0  0  0  0  0  3  0  0  0  0  0  0
  -26.1490  -26.7730   19.3760 C   0  0  0  0  0  3  0  0  0  0  0  0
  -25.0050  -27.6120   19.3920 C   0  0  0  0  0  3  0  0  0  0  0  0
  -23.7440  -29.7220   20.1340 C   0  0  0  0  0  2  0  0  0  0  0  0
  -24.7500  -30.9530   22.0950 N   0  0  0  0  0  0  0  0  0  0  0  0
  -23.5450  -31.9980   23.7300 O   0  0  0  0  0  0  0  0  0  0  0  0
  -22.8290  -29.3230   22.4670 C   0  0  0  0  0  0  0  0  0  0  0  0
  -21.5090  -29.1040   22.3190 N   0  0  0  0  0  0  0  0  0  0  0  0
  -23.5090  -28.7110   23.2940 O   0  0  0  0  0  0  0  0  0  0  0  0
  -21.0120  -29.6520   21.6310 H   0  0  0  0  0  0  0  0  0  0  0  0
  -18.1750  -27.7370   22.7520 C   0  0  0  0  0  0  0  0  0  0  0  0
  -20.7160  -28.1190   23.0620 C   0  0  0  0  0  3  0  0  0  0  0  0
  -20.8930  -26.7020   22.4690 C   0  0  0  0  0  2  0  0  0  0  0  0
  -19.8250  -26.3440   21.4330 C   0  0  0  0  0  2  0  0  0  0  0  0
  -18.4260  -26.4110   22.0550 C   0  0  0  0  0  2  0  0  0  0  0  0
  -19.2500  -28.5460   23.2110 C   0  0  0  0  0  0  0  0  0  0  0  0
  -18.9590  -29.7840   23.8250 C   0  0  0  0  0  3  0  0  0  0  0  0
  -17.6290  -30.2170   23.9800 C   0  0  0  0  0  3  0  0  0  0  0  0
  -16.5700  -29.4070   23.5370 C   0  0  0  0  0  3  0  0  0  0  0  0
  -16.8440  -28.1680   22.9310 C   0  0  0  0  0  3  0  0  0  0  0  0
  -25.8930  -32.4190   23.8550 C   0  0  0  0  0  3  0  0  0  0  0  0
  -26.3660  -31.6880   25.1730 C   0  0  1  0  0  0  0  0  0  0  0  0
  -25.2350  -31.4750   26.2070 C   0  0  0  0  0  1  0  0  0  0  0  0
  -26.9740  -30.3050   24.8530 C   0  0  0  0  0  1  0  0  0  0  0  0
  -27.4880  -32.5080   25.8550 C   0  0  0  0  0  1  0  0  0  0  0  0
  -25.5620  -33.8240   24.1470 N   0  0  0  0  0  0  0  0  0  0  0  0
  -25.8760  -34.8660   23.3650 C   0  0  0  0  0  0  0  0  0  0  0  0
  -26.5380  -34.7450   22.3310 O   0  0  0  0  0  0  0  0  0  0  0  0
  -24.9690  -33.9910   24.9470 H   0  0  0  0  0  0  0  0  0  0  0  0
  -24.1140  -36.6280   23.0030 C   0  0  0  0  0  1  0  0  0  0  0  0
  -25.3800  -36.2620   23.7950 C   0  0  0  0  0  3  0  0  0  0  0  0
  -27.5130  -37.2090   24.5610 C   0  0  0  0  0  1  0  0  0  0  0  0
  -26.3950  -37.3250   23.6280 N   0  0  0  0  0  0  0  0  0  0  0  0
  -25.9780  -38.2450   23.7500 H   0  0  0  0  0  0  0  0  0  0  0  0
  1  5  1  0
  1 47  1  0
  1  2  1  6
  4  1  1  0
  4  3  1  0
  6 12  1  0
  6 18  1  0
  7 12  1  0
  8  9  1  0
  8  7  1  0
 10  9  1  0
 10 22  1  0
 10 11  1  0
 12 11  1  0
 13  6  2  0
 14 16  1  0
 15 14  1  0
 17  5  1  0
 17 15  1  0
 17 18  1  0
 18 16  1  0
 19 20  2  0
 20 39  1  0
 21 20  1  0
 21 24  1  0
 22 23  1  0
 22 19  1  0
 23 21  2  0
 24 25  1  0
 25 26  2  0
 27 30  1  0
 27 26  1  0
 28 27  2  0
 29 28  1  0
 29 24  2  0
 30 31  1  0
 31 36  2  0
 31 32  1  0
 32 33  2  0
 33 34  1  0
 34 38  1  0
 35 34  2  0
 36 35  1  0
 37 36  1  0
 39 40  1  0
 40 43  1  0
 40 42  1  0
 41 39  2  0
 44 45  1  0
 44 19  1  0
 46 44  1  0
 48 47  2  0
 48 49  1  0
 50 61  2  0
 51 49  1  0
 51 56  1  0
 52 60  1  0
 52 62  1  0
 53 59  1  0
 53 55  1  0
 54 60  1  0
 55 54  1  0
 56 55  2  0
 57 58  1  0
 57 51  2  0
 58 53  2  0
 59 52  1  0
 60 50  1  0
 62 64  2  0
 63 62  1  0
 65 63  1  0
 66 75  2  0
 66 71  1  0
 67 63  1  0
 67 71  1  0
 68 67  1  0
 69 70  1  0
 69 68  1  0
 70 66  1  0
 71 72  2  0
 72 73  1  0
 74 73  2  0
 75 74  1  0
 76 50  1  0
 76 81  1  0
 76 77  1  0
 77 80  1  1
 77 78  1  0
 79 77  1  0
 81 84  1  0
 82 86  1  0
 82 81  1  0
 83 82  2  0
 86 85  1  0
 88 89  1  0
 88 86  1  0
 88 87  1  0
M  ISO  4   6 100  18 100  48 101  49 101
M  END
>  <TORSDO>  (87) 
F 20

>  <SCORE>  (87) 
-13.723

>  <name>  (87) 
87

>  <ligand_id>  (87) 
87

>  <original_smiles>  (87) 
[H]C1=C([H])C([H])(C([H])([H])[N+]([H])(C([H])([H])C([H])([H])[H])C([H])([H])C([H])([H])Oc2c([H])c([H])c3c(c2[H])C([H])([H])N(C(=O)C([H])(N([H])C(=O)C([H])(N([H])C([H])([H])[H])C([H])([H])[H])C(C([H])([H])[H])(C([H])([H])[H])C([H])([H])[H])C([H])(C(=O)N([H])C2([H])c4c([H])c([H])c([H])c([H])c4C([H])([H])C([H])([H])C2([H])[H])C3([H])[H])N(C(=O)N2C([H])([H])C([H])([H])C([H])([H])C([H])(n3nc(-c4c([H])c([H])c(Oc5c([H])c([H])c(F)c([H])c5F)c([H])c4[H])c(C(=O)N([H])[H])c3N([H])[H])C2([H])[H])C1([H])[H]

>  <smiles>  (87) 
[H]C1=C([H])C([H])(C([H])([H])[N+]([H])(C([H])([H])C([H])([H])[H])C([H])([H])C([H])([H])Oc2c([H])c([H])c3c(c2[H])C([H])([H])N(C(=O)C([H])(N([H])C(=O)C([H])(N([H])C([H])([H])[H])C([H])([H])[H])C(C([H])([H])[H])(C([H])([H])[H])C([H])([H])[H])C([H])(C(=O)N([H])C2([H])c4c([H])c([H])c([H])c([H])c4C([H])([H])C([H])([H])C2([H])[H])C3([H])[H])N(C(=O)N2C([H])([H])C([H])([H])C([H])([H])C([H])(n3nc(-c4c([H])c([H])c(Oc5c([H])c([H])c(F)c([H])c5F)c([H])c4[H])c(C(=O)N([H])[H])c3N([H])[H])C2([H])[H])C1([H])[H]

$$$$
88:0:0
     RDKit          3D

 97105  0  0  1  0  0  0  0  0999 V2000
  -29.5060  -18.0480   20.9330 C   0  0  0  0  0  3  0  0  0  0  0  0
  -29.3320  -21.9000   20.9850 C   0  0  0  0  0  2  0  0  0  0  0  0
  -28.6720  -21.1770   18.7630 C   0  0  0  0  0  2  0  0  0  0  0  0
  -29.0680  -20.4580   21.5370 C   0  0  0  0  0  2  0  0  0  0  0  0
  -28.4540  -19.6900   19.2500 C   0  0  0  0  0  2  0  0  0  0  0  0
  -28.4110  -22.3060   19.8130 C   0  0  0  0  0  3  0  0  0  0  0  0
  -29.1200  -19.3360   20.5370 N   0  0  0  0  0  0  0  0  0  0  0  0
  -29.9400  -17.8600   22.1990 N   0  0  0  0  0  0  0  0  0  0  0  0
  -30.1930  -16.9430   22.5390 H   0  0  0  0  0  0  0  0  0  0  0  0
  -30.0050  -18.6200   22.8630 H   0  0  0  0  0  0  0  0  0  0  0  0
  -29.4710  -16.7240   20.1060 C   0  0  0  0  0  2  0  0  0  0  0  0
  -31.1780  -14.6620   19.8880 C   0  0  0  0  0  0  0  0  0  0  0  0
  -30.6770  -12.4180   18.9590 C   0  0  0  0  0  2  0  0  0  0  0  0
  -29.6920  -12.4860   17.7800 C   0  0  0  0  0  2  0  0  0  0  0  0
  -28.2520  -12.3720   18.3040 C   0  0  0  0  0  2  0  0  0  0  0  0
  -27.9740  -13.3090   19.5120 C   0  0  0  0  0  3  0  0  0  0  0  0
  -29.1040  -13.2830   20.5670 C   0  0  0  0  0  2  0  0  0  0  0  0
  -30.3560  -13.5580   19.8570 N   0  0  0  0  0  0  0  0  0  0  0  0
  -32.3510  -14.4900   19.5520 O   0  0  0  0  0  0  0  0  0  0  0  0
  -30.7820  -15.9930   20.0710 N   0  0  0  0  0  0  0  0  0  0  0  0
  -25.6800  -13.9550   20.4450 C   0  0  0  0  0  0  0  0  0  0  0  0
  -24.6130  -13.2090   20.8640 C   0  0  0  0  0  0  0  0  0  0  0  0
  -25.0150  -11.8430   20.7460 C   0  0  0  0  0  0  0  0  0  0  0  0
  -26.6650  -13.0490   20.1000 N   0  0  0  0  0  0  0  0  0  0  0  0
  -26.2790  -11.7680   20.3450 N   0  0  0  0  0  0  0  0  0  0  0  0
  -24.2490  -10.6050   20.9360 C   0  0  0  0  0  0  0  0  0  0  0  0
  -24.6440   -9.6290   21.8770 C   0  0  0  0  0  3  0  0  0  0  0  0
  -23.8790   -8.4550   22.0550 C   0  0  0  0  0  3  0  0  0  0  0  0
  -22.7040   -8.2500   21.2920 C   0  0  0  0  0  0  0  0  0  0  0  0
  -22.3290   -9.2140   20.3400 C   0  0  0  0  0  3  0  0  0  0  0  0
  -23.0940  -10.3790   20.1600 C   0  0  0  0  0  3  0  0  0  0  0  0
  -21.9110   -7.1320   21.3810 O   0  0  0  0  0  0  0  0  0  0  0  0
  -21.7620   -6.4470   22.5600 C   0  0  0  0  0  0  0  0  0  0  0  0
  -21.2130   -7.0550   23.7110 C   0  0  0  0  0  3  0  0  0  0  0  0
  -21.0150   -6.2950   24.8810 C   0  0  0  0  0  3  0  0  0  0  0  0
  -21.3540   -4.9290   24.9010 C   0  0  0  0  0  0  0  0  0  0  0  0
  -21.8950   -4.3210   23.7550 C   0  0  0  0  0  3  0  0  0  0  0  0
  -22.0960   -5.0790   22.5870 C   0  0  0  0  0  0  0  0  0  0  0  0
  -22.5980   -4.4820   21.4790 F   0  0  0  0  0  0  0  0  0  0  0  0
  -21.1560   -4.1970   26.0220 F   0  0  0  0  0  0  0  0  0  0  0  0
  -23.2590  -13.7310   21.2470 C   0  0  0  0  0  0  0  0  0  0  0  0
  -22.5670  -13.0350   22.1430 N   0  0  0  0  0  0  0  0  0  0  0  0
  -22.8310  -14.7900   20.7910 O   0  0  0  0  0  0  0  0  0  0  0  0
  -22.9290  -12.1780   22.5310 H   0  0  0  0  0  0  0  0  0  0  0  0
  -21.6600  -13.3670   22.4420 H   0  0  0  0  0  0  0  0  0  0  0  0
  -25.8820  -15.3250   20.2970 N   0  0  0  0  0  0  0  0  0  0  0  0
  -25.1200  -15.9780   20.4410 H   0  0  0  0  0  0  0  0  0  0  0  0
  -26.6460  -15.7220   19.7690 H   0  0  0  0  0  0  0  0  0  0  0  0
  -31.8580  -17.0170   19.9640 C   0  0  0  0  0  2  0  0  0  0  0  0
  -32.1840  -17.4070   18.4960 C   0  0  0  0  0  2  0  0  0  0  0  0
  -33.2890  -18.3780   18.4060 N   0  0  0  0  0  4  0  0  0  0  0  0
  -33.0750  -19.2310   18.8920 H   0  0  0  0  0  0  0  0  0  0  0  0
  -33.4650  -18.6060   17.4440 H   0  0  0  0  0  0  0  0  0  0  0  0
  -34.1340  -17.9920   18.7880 H   0  0  0  0  0  0  0  0  0  0  0  0
  -28.5990  -23.8010   19.2510 C   0  0  0  0  0  3  0  0  0  0  0  0
  -28.1060  -25.0540   20.1010 C   0  0  0  0  0  3  0  0  0  0  0  0
  -28.2770  -26.4260   19.5540 O   0  0  0  0  0  0  0  0  0  0  0  0
  -24.6090  -31.5570   23.0570 C   0  0  0  0  0  0  0  0  0  0  0  0
  -27.1680  -27.2750   19.6090 C   0  0  0  0  0  0  0  0  0  0  0  0
  -23.3710  -30.2670   21.3530 C   0  0  0  0  0  3  0  0  0  0  0  0
  -24.7950  -28.8480   19.7720 C   0  0  0  0  0  0  0  0  0  0  0  0
  -25.8980  -30.6380   21.1160 C   0  0  0  0  0  2  0  0  0  0  0  0
  -25.9740  -29.3120   20.3700 C   0  0  0  0  0  0  0  0  0  0  0  0
  -27.1690  -28.5390   20.2750 C   0  0  0  0  0  3  0  0  0  0  0  0
  -25.9720  -26.8690   18.9830 C   0  0  0  0  0  3  0  0  0  0  0  0
  -24.7950  -27.6330   19.0690 C   0  0  0  0  0  3  0  0  0  0  0  0
  -23.5500  -29.6990   19.9200 C   0  0  0  0  0  2  0  0  0  0  0  0
  -24.6470  -30.8330   21.8990 N   0  0  0  0  0  0  0  0  0  0  0  0
  -23.5380  -31.7780   23.6420 O   0  0  0  0  0  0  0  0  0  0  0  0
  -22.7500  -29.1730   22.2530 C   0  0  0  0  0  0  0  0  0  0  0  0
  -21.4250  -28.9810   22.1430 N   0  0  0  0  0  0  0  0  0  0  0  0
  -23.4580  -28.5020   23.0090 O   0  0  0  0  0  0  0  0  0  0  0  0
  -20.9110  -29.5750   21.5080 H   0  0  0  0  0  0  0  0  0  0  0  0
  -18.0810  -27.6900   22.6290 C   0  0  0  0  0  0  0  0  0  0  0  0
  -20.6400  -27.9770   22.8640 C   0  0  0  0  0  3  0  0  0  0  0  0
  -20.7540  -26.5910   22.1900 C   0  0  0  0  0  2  0  0  0  0  0  0
  -19.6370  -26.3180   21.1780 C   0  0  0  0  0  2  0  0  0  0  0  0
  -18.2670  -26.3940   21.8570 C   0  0  0  0  0  2  0  0  0  0  0  0
  -19.1950  -28.4420   23.0870 C   0  0  0  0  0  0  0  0  0  0  0  0
  -18.9670  -29.6570   23.7690 C   0  0  0  0  0  3  0  0  0  0  0  0
  -17.6580  -30.1220   23.9940 C   0  0  0  0  0  3  0  0  0  0  0  0
  -16.5590  -29.3650   23.5510 C   0  0  0  0  0  3  0  0  0  0  0  0
  -16.7710  -28.1520   22.8750 C   0  0  0  0  0  3  0  0  0  0  0  0
  -25.9030  -32.1580   23.6870 C   0  0  0  0  0  3  0  0  0  0  0  0
  -25.5960  -33.5360   24.0970 N   0  0  0  0  0  0  0  0  0  0  0  0
  -25.9250  -34.6300   23.3970 C   0  0  0  0  0  0  0  0  0  0  0  0
  -26.5880  -34.5850   22.3580 O   0  0  0  0  0  0  0  0  0  0  0  0
  -25.0070  -33.6450   24.9100 H   0  0  0  0  0  0  0  0  0  0  0  0
  -24.2050  -36.4490   23.1480 C   0  0  0  0  0  1  0  0  0  0  0  0
  -25.4420  -35.9910   23.9360 C   0  0  0  0  0  3  0  0  0  0  0  0
  -27.5700  -36.8230   24.8370 C   0  0  0  0  0  1  0  0  0  0  0  0
  -26.4790  -37.0450   23.8920 N   0  0  0  0  0  0  0  0  0  0  0  0
  -26.0730  -37.9570   24.0850 H   0  0  0  0  0  0  0  0  0  0  0  0
  -26.4440  -31.3210   24.9100 C   0  0  1  0  0  0  0  0  0  0  0  0
  -25.3750  -31.0360   25.9920 C   0  0  0  0  0  1  0  0  0  0  0  0
  -27.0080  -29.9630   24.4370 C   0  0  0  0  0  1  0  0  0  0  0  0
  -27.6150  -32.0750   25.5830 C   0  0  0  0  0  1  0  0  0  0  0  0
  1 11  1  0
  1  8  1  0
  2  4  1  0
  3  5  1  0
  3  6  1  0
  5  7  1  0
  6 55  1  0
  6  2  1  0
  7  1  1  0
  7  4  1  0
  8  9  1  0
  8 10  1  0
 12 20  1  0
 13 18  1  0
 14 15  1  0
 14 13  1  0
 16 15  1  0
 16 24  1  0
 16 17  1  0
 18 12  1  0
 18 17  1  0
 19 12  2  0
 20 11  1  0
 21 22  2  0
 22 41  1  0
 23 22  1  0
 23 26  1  0
 24 25  1  0
 24 21  1  0
 25 23  2  0
 26 27  1  0
 27 28  2  0
 29 32  1  0
 29 28  1  0
 30 29  2  0
 31 30  1  0
 31 26  2  0
 32 33  1  0
 33 38  2  0
 33 34  1  0
 34 35  2  0
 35 36  1  0
 36 40  1  0
 37 36  2  0
 38 37  1  0
 39 38  1  0
 41 42  1  0
 42 45  1  0
 42 44  1  0
 43 41  2  0
 46 47  1  0
 46 21  1  0
 48 46  1  0
 49 20  1  0
 50 49  1  0
 51 50  1  0
 51 54  1  0
 51 52  1  0
 53 51  1  0
 55 56  2  0
 57 59  1  0
 57 56  1  0
 58 69  2  0
 59 64  1  0
 60 68  1  0
 60 70  1  0
 61 67  1  0
 61 63  1  0
 62 68  1  0
 63 62  1  0
 64 63  2  0
 65 66  1  0
 65 59  2  0
 66 61  2  0
 67 60  1  0
 68 58  1  0
 70 72  2  0
 71 70  1  0
 73 71  1  0
 74 83  2  0
 74 79  1  0
 75 71  1  0
 75 79  1  0
 76 75  1  0
 77 78  1  0
 77 76  1  0
 78 74  1  0
 79 80  2  0
 80 81  1  0
 82 81  2  0
 83 82  1  0
 84 58  1  0
 84 85  1  0
 84 94  1  0
 85 88  1  0
 86 90  1  0
 86 85  1  0
 87 86  2  0
 90 89  1  0
 92 90  1  0
 92 93  1  0
 92 91  1  0
 94 97  1  1
 94 95  1  0
 96 94  1  0
M  ISO  4  12 100  20 100  56 101  57 101
M  END
>  <TORSDO>  (88) 
F 22

>  <SCORE>  (88) 
-12.254

>  <name>  (88) 
88

>  <ligand_id>  (88) 
88

>  <original_smiles>  (88) 
[H]c1c([H])c([H])c2c(c1[H])C([H])([H])C([H])([H])C([H])([H])C2([H])N([H])C(=O)C1([H])N(C(=O)C([H])(N([H])C(=O)C([H])(N([H])C([H])([H])[H])C([H])([H])[H])C(C([H])([H])[H])(C([H])([H])[H])C([H])([H])[H])C([H])([H])c2c([H])c(OC([H])([H])C([H])([H])C3([H])C([H])([H])C([H])([H])N(C(=[N+]([H])[H])C([H])([H])N(C(=O)N4C([H])([H])C([H])([H])C([H])([H])C([H])(n5nc(-c6c([H])c([H])c(Oc7c([H])c([H])c(F)c([H])c7F)c([H])c6[H])c(C(=O)N([H])[H])c5N([H])[H])C4([H])[H])C([H])([H])C([H])([H])[N+]([H])([H])[H])C([H])([H])C3([H])[H])c([H])c([H])c2C1([H])[H]

>  <smiles>  (88) 
[H]c1c([H])c([H])c2c(c1[H])C([H])([H])C([H])([H])C([H])([H])C2([H])N([H])C(=O)C1([H])N(C(=O)C([H])(N([H])C(=O)C([H])(N([H])C([H])([H])[H])C([H])([H])[H])C(C([H])([H])[H])(C([H])([H])[H])C([H])([H])[H])C([H])([H])c2c([H])c(OC([H])([H])C([H])([H])C3([H])C([H])([H])C([H])([H])N(C(=[N+]([H])[H])C([H])([H])N(C(=O)N4C([H])([H])C([H])([H])C([H])([H])C([H])(n5nc(-c6c([H])c([H])c(Oc7c([H])c([H])c(F)c([H])c7F)c([H])c6[H])c(C(=O)N([H])[H])c5N([H])[H])C4([H])[H])C([H])([H])C([H])([H])[N+]([H])([H])[H])C([H])([H])C3([H])[H])c([H])c([H])c2C1([H])[H]

$$$$
89:0:0
     RDKit          3D

100108  0  0  1  0  0  0  0  0999 V2000
  -33.6490  -22.6080   18.0740 C   0  0  0  0  0  2  0  0  0  0  0  0
  -33.1760  -21.4480   18.9450 C   0  0  0  0  0  2  0  0  0  0  0  0
  -33.1360  -23.8570   18.8000 C   0  0  0  0  0  3  0  0  0  0  0  0
  -31.7220  -23.3130   19.3890 C   0  0  0  0  0  3  0  0  0  0  0  0
  -31.8530  -21.8490   19.4340 N   0  0  0  0  0  0  0  0  0  0  0  0
  -31.5530  -21.2540   20.7370 C   0  0  0  0  0  2  0  0  0  0  0  0
  -33.1920  -20.3910   22.4650 C   0  0  0  0  0  2  0  0  0  0  0  0
  -32.6910  -20.3770   21.2210 C   0  0  0  0  0  3  0  0  0  0  0  0
  -34.2980  -24.4120   19.7870 C   0  0  0  0  0  2  0  0  0  0  0  0
  -34.7280  -25.8810   19.6500 N   0  0  0  0  0  4  0  0  0  0  0  0
  -35.4190  -26.0470   20.3650 H   0  0  0  0  0  0  0  0  0  0  0  0
  -33.9460  -26.4700   19.8900 H   0  0  0  0  0  0  0  0  0  0  0  0
  -35.2810  -26.3940   18.3070 C   0  0  0  0  0  2  0  0  0  0  0  0
  -36.8360  -26.1280   17.9720 C   0  0  0  0  0  2  0  0  0  0  0  0
  -37.9470  -26.9330   18.5560 O   0  0  0  0  0  0  0  0  0  0  0  0
  -39.4110  -33.8690   19.8750 C   0  0  0  0  0  0  0  0  0  0  0  0
  -37.8080  -28.0050   19.4580 C   0  0  0  0  0  0  0  0  0  0  0  0
  -38.6970  -32.5140   21.8140 C   0  0  0  0  0  3  0  0  0  0  0  0
  -37.6900  -30.2210   21.2760 C   0  0  0  0  0  0  0  0  0  0  0  0
  -37.9010  -31.9190   19.4540 C   0  0  0  0  0  2  0  0  0  0  0  0
  -37.8100  -30.4610   19.9030 C   0  0  0  0  0  0  0  0  0  0  0  0
  -37.8570  -29.3600   18.9970 C   0  0  0  0  0  3  0  0  0  0  0  0
  -37.6580  -27.8100   20.8480 C   0  0  0  0  0  3  0  0  0  0  0  0
  -37.6060  -28.8990   21.7480 C   0  0  0  0  0  3  0  0  0  0  0  0
  -37.6600  -31.4270   22.1980 C   0  0  0  0  0  2  0  0  0  0  0  0
  -38.7100  -32.7950   20.3430 N   0  0  0  0  0  0  0  0  0  0  0  0
  -40.0090  -34.6330   20.6490 O   0  0  0  0  0  0  0  0  0  0  0  0
  -40.0830  -32.1060   22.3720 C   0  0  0  0  0  0  0  0  0  0  0  0
  -40.2920  -32.3140   23.6820 N   0  0  0  0  0  0  0  0  0  0  0  0
  -40.9300  -31.5960   21.6360 O   0  0  0  0  0  0  0  0  0  0  0  0
  -39.5540  -32.7460   24.2200 H   0  0  0  0  0  0  0  0  0  0  0  0
  -41.8320  -32.3560   26.9570 C   0  0  0  0  0  0  0  0  0  0  0  0
  -41.5070  -31.9640   24.4220 C   0  0  0  0  0  3  0  0  0  0  0  0
  -41.5370  -30.4560   24.7560 C   0  0  0  0  0  2  0  0  0  0  0  0
  -40.9520  -30.1330   26.1350 C   0  0  0  0  0  2  0  0  0  0  0  0
  -41.7240  -30.8680   27.2350 C   0  0  0  0  0  2  0  0  0  0  0  0
  -41.7120  -32.8730   25.6400 C   0  0  0  0  0  0  0  0  0  0  0  0
  -41.7830  -34.2710   25.4450 C   0  0  0  0  0  3  0  0  0  0  0  0
  -41.9630  -35.1420   26.5360 C   0  0  0  0  0  3  0  0  0  0  0  0
  -42.0920  -34.6230   27.8360 C   0  0  0  0  0  3  0  0  0  0  0  0
  -42.0370  -33.2330   28.0420 C   0  0  0  0  0  3  0  0  0  0  0  0
  -39.4770  -34.2050   18.3530 C   0  0  0  0  0  3  0  0  0  0  0  0
  -40.8490  -33.7980   17.6840 C   0  0  1  0  0  0  0  0  0  0  0  0
  -41.9860  -34.8140   17.9410 C   0  0  0  0  0  1  0  0  0  0  0  0
  -41.3270  -32.4200   18.1970 C   0  0  0  0  0  1  0  0  0  0  0  0
  -40.6630  -33.6490   16.1540 C   0  0  0  0  0  1  0  0  0  0  0  0
  -39.2370  -35.6490   18.2060 N   0  0  0  0  0  0  0  0  0  0  0  0
  -38.3080  -36.1900   17.4050 C   0  0  0  0  0  0  0  0  0  0  0  0
  -37.6010  -35.5160   16.6510 O   0  0  0  0  0  0  0  0  0  0  0  0
  -39.7370  -36.2570   18.8360 H   0  0  0  0  0  0  0  0  0  0  0  0
  -36.6980  -38.0740   17.8430 C   0  0  0  0  0  1  0  0  0  0  0  0
  -38.1400  -37.7220   17.4430 C   0  0  0  0  0  3  0  0  0  0  0  0
  -39.8890  -38.2560   15.8050 C   0  0  0  0  0  1  0  0  0  0  0  0
  -38.4790  -38.3840   16.1640 N   0  0  0  0  0  0  0  0  0  0  0  0
  -38.2490  -39.3730   16.1950 H   0  0  0  0  0  0  0  0  0  0  0  0
  -30.3080  -23.6450   18.6290 C   0  0  1  0  0  0  0  0  0  0  0  0
  -29.6710  -24.8000   16.3450 C   0  0  0  0  0  0  0  0  0  0  0  0
  -29.7670  -24.9880   13.8710 C   0  0  0  0  0  2  0  0  0  0  0  0
  -30.8650  -24.0500   13.3290 C   0  0  0  0  0  2  0  0  0  0  0  0
  -32.2210  -24.7730   13.2860 C   0  0  0  0  0  2  0  0  0  0  0  0
  -32.5370  -25.5340   14.6010 C   0  0  0  0  0  3  0  0  0  0  0  0
  -31.3240  -26.3400   15.1330 C   0  0  0  0  0  2  0  0  0  0  0  0
  -30.1760  -25.4260   15.2270 N   0  0  0  0  0  0  0  0  0  0  0  0
  -28.6310  -24.1490   16.2490 O   0  0  0  0  0  0  0  0  0  0  0  0
  -30.4270  -24.6870   17.4990 N   0  0  0  0  0  0  0  0  0  0  0  0
  -31.1990  -25.3260   17.5940 H   0  0  0  0  0  0  0  0  0  0  0  0
  -35.0570  -26.0030   14.6960 C   0  0  0  0  0  0  0  0  0  0  0  0
  -35.8030  -27.0980   14.3520 C   0  0  0  0  0  0  0  0  0  0  0  0
  -34.8750  -28.0880   13.9060 C   0  0  0  0  0  0  0  0  0  0  0  0
  -33.7370  -26.3560   14.4640 N   0  0  0  0  0  0  0  0  0  0  0  0
  -33.6300  -27.6420   14.0400 N   0  0  0  0  0  0  0  0  0  0  0  0
  -35.1070  -29.4130   13.3120 C   0  0  0  0  0  0  0  0  0  0  0  0
  -35.2950  -30.5600   14.1150 C   0  0  0  0  0  3  0  0  0  0  0  0
  -35.5370  -31.8190   13.5220 C   0  0  0  0  0  3  0  0  0  0  0  0
  -35.5970  -31.9380   12.1140 C   0  0  0  0  0  0  0  0  0  0  0  0
  -35.3900  -30.7980   11.3170 C   0  0  0  0  0  3  0  0  0  0  0  0
  -35.1450  -29.5470   11.9090 C   0  0  0  0  0  3  0  0  0  0  0  0
  -35.8020  -33.1250   11.4510 O   0  0  0  0  0  0  0  0  0  0  0  0
  -36.9390  -33.3550   10.7210 C   0  0  0  0  0  0  0  0  0  0  0  0
  -36.9370  -33.3190    9.3100 C   0  0  0  0  0  3  0  0  0  0  0  0
  -38.1100  -33.6280    8.5950 C   0  0  0  0  0  3  0  0  0  0  0  0
  -39.2840  -33.9840    9.2880 C   0  0  0  0  0  0  0  0  0  0  0  0
  -39.2860  -34.0280   10.6930 C   0  0  0  0  0  3  0  0  0  0  0  0
  -38.1160  -33.7180   11.4080 C   0  0  0  0  0  0  0  0  0  0  0  0
  -38.1190  -33.7810   12.7620 F   0  0  0  0  0  0  0  0  0  0  0  0
  -40.4110  -34.2900    8.6030 F   0  0  0  0  0  0  0  0  0  0  0  0
  -37.3010  -27.1850   14.3420 C   0  0  0  0  0  0  0  0  0  0  0  0
  -37.8640  -28.1190   15.1030 N   0  0  0  0  0  0  0  0  0  0  0  0
  -37.9830  -26.3890   13.6990 O   0  0  0  0  0  0  0  0  0  0  0  0
  -37.2990  -28.7580   15.6420 H   0  0  0  0  0  0  0  0  0  0  0  0
  -38.8700  -28.1970   15.1420 H   0  0  0  0  0  0  0  0  0  0  0  0
  -35.3870  -24.7330   15.1550 N   0  0  0  0  0  0  0  0  0  0  0  0
  -36.3530  -24.4300   15.2330 H   0  0  0  0  0  0  0  0  0  0  0  0
  -34.7280  -23.9710   15.2280 H   0  0  0  0  0  0  0  0  0  0  0  0
  -29.8400  -22.3370   18.1240 N   0  0  0  0  0  4  0  0  0  0  0  0
  -29.7430  -21.6810   18.8770 H   0  0  0  0  0  0  0  0  0  0  0  0
  -30.4800  -21.9460   17.4550 H   0  0  0  0  0  0  0  0  0  0  0  0
  -28.9370  -22.4270   17.6900 H   0  0  0  0  0  0  0  0  0  0  0  0
  -29.6440  -24.9890   20.8570 C   0  0  0  0  0  1  0  0  0  0  0  0
  -29.2170  -24.1010   19.6700 C   0  0  0  0  0  2  0  0  0  0  0  0
  1  3  1  0
  1  2  1  0
  2  5  1  0
  3  4  1  0
  3  9  1  0
  4 56  1  0
  4  5  1  0
  5  6  1  0
  6  8  1  0
  8  7  2  0
 10  9  1  0
 10 12  1  0
 10 11  1  0
 13 10  1  0
 14 13  1  0
 14 15  1  0
 15 17  1  0
 16 26  1  0
 16 27  2  0
 17 23  1  0
 18 25  1  0
 18 28  1  0
 19 24  1  0
 19 25  1  0
 20 21  1  0
 20 26  1  0
 21 19  2  0
 22 17  2  0
 22 21  1  0
 23 24  2  0
 26 18  1  0
 28 29  1  0
 29 31  1  0
 30 28  2  0
 32 36  1  0
 32 41  1  0
 33 29  1  0
 33 34  1  0
 33 37  1  0
 34 35  1  0
 35 36  1  0
 37 32  2  0
 38 37  1  0
 38 39  2  0
 39 40  1  0
 40 41  2  0
 42 16  1  0
 43 44  1  6
 43 45  1  0
 43 42  1  0
 46 43  1  0
 47 42  1  0
 47 50  1  0
 48 52  1  0
 48 47  1  0
 49 48  2  0
 52 51  1  0
 53 54  1  0
 54 55  1  0
 54 52  1  0
 56100  1  1
 57 65  1  0
 58 63  1  0
 59 58  1  0
 60 59  1  0
 61 60  1  0
 61 62  1  0
 62 63  1  0
 63 57  1  0
 64 57  2  0
 65 66  1  0
 65 56  1  0
 67 92  1  0
 68 67  2  0
 69 71  2  0
 69 68  1  0
 70 61  1  0
 70 67  1  0
 71 70  1  0
 72 69  1  0
 72 73  1  0
 74 73  2  0
 75 74  1  0
 76 77  1  0
 76 75  2  0
 77 72  2  0
 78 75  1  0
 79 84  1  0
 79 78  1  0
 80 79  2  0
 81 82  2  0
 81 80  1  0
 82 83  1  0
 83 84  2  0
 84 85  1  0
 86 82  1  0
 87 68  1  0
 87 88  1  0
 88 91  1  0
 88 90  1  0
 89 87  2  0
 92 94  1  0
 92 93  1  0
 95 56  1  0
 95 96  1  0
 97 95  1  0
 98 95  1  0
100 99  1  0
M  ISO  4  14 101  15 101  57 100  65 100
M  END
>  <TORSDO>  (89) 
F 25

>  <SCORE>  (89) 
-2.216

>  <name>  (89) 
89

>  <ligand_id>  (89) 
89

>  <original_smiles>  (89) 
[H]C([H])=C([H])C([H])([H])N1C([H])([H])C([H])([H])C([H])(C([H])([H])[N+]([H])([H])C([H])([H])C([H])([H])Oc2c([H])c([H])c3c(c2[H])C([H])([H])N(C(=O)C([H])(N([H])C(=O)C([H])(N([H])C([H])([H])[H])C([H])([H])[H])C(C([H])([H])[H])(C([H])([H])[H])C([H])([H])[H])C([H])(C(=O)N([H])C2([H])c4c([H])c([H])c([H])c([H])c4C([H])([H])C([H])([H])C2([H])[H])C3([H])[H])C1([H])C(N([H])C(=O)N1C([H])([H])C([H])([H])C([H])([H])C([H])(n2nc(-c3c([H])c([H])c(Oc4c([H])c([H])c(F)c([H])c4F)c([H])c3[H])c(C(=O)N([H])[H])c2N([H])[H])C1([H])[H])(C([H])([H])C([H])([H])[H])[N+]([H])([H])[H]

>  <smiles>  (89) 
[H]C([H])=C([H])C([H])([H])N1C([H])([H])C([H])([H])C([H])(C([H])([H])[N+]([H])([H])C([H])([H])C([H])([H])Oc2c([H])c([H])c3c(c2[H])C([H])([H])N(C(=O)C([H])(N([H])C(=O)C([H])(N([H])C([H])([H])[H])C([H])([H])[H])C(C([H])([H])[H])(C([H])([H])[H])C([H])([H])[H])C([H])(C(=O)N([H])C2([H])c4c([H])c([H])c([H])c([H])c4C([H])([H])C([H])([H])C2([H])[H])C3([H])[H])C1([H])C(N([H])C(=O)N1C([H])([H])C([H])([H])C([H])([H])C([H])(n2nc(-c3c([H])c([H])c(Oc4c([H])c([H])c(F)c([H])c4F)c([H])c3[H])c(C(=O)N([H])[H])c2N([H])[H])C1([H])[H])(C([H])([H])C([H])([H])[H])[N+]([H])([H])[H]

$$$$
90:0:0
     RDKit          3D

 95103  0  0  1  0  0  0  0  0999 V2000
  -29.2730  -19.8550   20.4470 C   0  0  0  0  0  3  0  0  0  0  0  0
  -29.9770  -18.5680   21.1630 C   0  0  0  0  0  2  0  0  0  0  0  0
  -30.8640  -14.7840   20.3140 C   0  0  0  0  0  0  0  0  0  0  0  0
  -30.6570  -12.4620   19.4370 C   0  0  0  0  0  2  0  0  0  0  0  0
  -29.7320  -12.3550   18.2040 C   0  0  0  0  0  2  0  0  0  0  0  0
  -28.2440  -12.2660   18.6090 C   0  0  0  0  0  2  0  0  0  0  0  0
  -27.8360  -13.2360   19.7510 C   0  0  0  0  0  3  0  0  0  0  0  0
  -28.8860  -13.2660   20.8830 C   0  0  0  0  0  2  0  0  0  0  0  0
  -30.1830  -13.5850   20.2750 N   0  0  0  0  0  0  0  0  0  0  0  0
  -32.0930  -14.7820   20.1940 O   0  0  0  0  0  0  0  0  0  0  0  0
  -30.3750  -17.2670   18.0630 C   0  0  0  0  0  2  0  0  0  0  0  0
  -31.3510  -17.8350   19.0790 C   0  0  0  0  0  2  0  0  0  0  0  0
  -29.5890  -16.1750   18.8120 C   0  0  0  0  0  2  0  0  0  0  0  0
  -30.7840  -17.3720   20.4220 C   0  0  0  0  0  3  0  0  0  0  0  0
  -30.1670  -15.9930   20.1600 N   0  0  0  0  0  0  0  0  0  0  0  0
  -25.4520  -13.8580   20.4690 C   0  0  0  0  0  0  0  0  0  0  0  0
  -24.3720  -13.0980   20.8330 C   0  0  0  0  0  0  0  0  0  0  0  0
  -24.8220  -11.7450   20.8140 C   0  0  0  0  0  0  0  0  0  0  0  0
  -26.4870  -12.9650   20.2440 N   0  0  0  0  0  0  0  0  0  0  0  0
  -26.1140  -11.6890   20.5190 N   0  0  0  0  0  0  0  0  0  0  0  0
  -24.0830  -10.4880   21.0020 C   0  0  0  0  0  0  0  0  0  0  0  0
  -24.4880   -9.5260   21.9530 C   0  0  0  0  0  3  0  0  0  0  0  0
  -23.7470   -8.3360   22.1250 C   0  0  0  0  0  3  0  0  0  0  0  0
  -22.5900   -8.1010   21.3470 C   0  0  0  0  0  0  0  0  0  0  0  0
  -22.2060   -9.0510   20.3850 C   0  0  0  0  0  3  0  0  0  0  0  0
  -22.9460  -10.2320   20.2100 C   0  0  0  0  0  3  0  0  0  0  0  0
  -21.8220   -6.9650   21.4290 O   0  0  0  0  0  0  0  0  0  0  0  0
  -21.7350   -6.2370   22.5900 C   0  0  0  0  0  0  0  0  0  0  0  0
  -21.2400   -6.8000   23.7860 C   0  0  0  0  0  3  0  0  0  0  0  0
  -21.1030   -5.9980   24.9370 C   0  0  0  0  0  3  0  0  0  0  0  0
  -21.4540   -4.6350   24.8930 C   0  0  0  0  0  0  0  0  0  0  0  0
  -21.9430   -4.0740   23.7000 C   0  0  0  0  0  3  0  0  0  0  0  0
  -22.0820   -4.8720   22.5520 C   0  0  0  0  0  0  0  0  0  0  0  0
  -22.5350   -4.3200   21.4000 F   0  0  0  0  0  0  0  0  0  0  0  0
  -21.3170   -3.8620   25.9960 F   0  0  0  0  0  0  0  0  0  0  0  0
  -22.9750  -13.5920   21.0830 C   0  0  0  0  0  0  0  0  0  0  0  0
  -22.2240  -12.9090   21.9420 N   0  0  0  0  0  0  0  0  0  0  0  0
  -22.5550  -14.6150   20.5450 O   0  0  0  0  0  0  0  0  0  0  0  0
  -22.5690  -12.0770   22.3970 H   0  0  0  0  0  0  0  0  0  0  0  0
  -21.2870  -13.2230   22.1460 H   0  0  0  0  0  0  0  0  0  0  0  0
  -25.6380  -15.2250   20.2840 N   0  0  0  0  0  0  0  0  0  0  0  0
  -24.8420  -15.8530   20.2900 H   0  0  0  0  0  0  0  0  0  0  0  0
  -26.4420  -15.5750   19.7880 H   0  0  0  0  0  0  0  0  0  0  0  0
  -27.7400  -19.6230   20.4240 C   0  0  0  0  0  2  0  0  0  0  0  0
  -27.3540  -18.3830   19.7330 N   0  0  0  0  0  4  0  0  0  0  0  0
  -27.7960  -18.3370   18.8320 H   0  0  0  0  0  0  0  0  0  0  0  0
  -26.3570  -18.3620   19.6010 H   0  0  0  0  0  0  0  0  0  0  0  0
  -27.6110  -17.5840   20.2870 H   0  0  0  0  0  0  0  0  0  0  0  0
  -29.5490  -21.3380   21.0620 C   0  0  0  0  0  2  0  0  0  0  0  0
  -28.8030  -22.5310   20.4460 N   0  0  0  0  0  4  0  0  0  0  0  0
  -28.9050  -22.4750   19.4450 H   0  0  0  0  0  0  0  0  0  0  0  0
  -27.8240  -22.4190   20.6540 H   0  0  0  0  0  0  0  0  0  0  0  0
  -29.1290  -23.9750   20.8460 C   0  0  0  0  0  2  0  0  0  0  0  0
  -28.2240  -25.0890   20.1360 C   0  0  0  0  0  2  0  0  0  0  0  0
  -28.4140  -26.5400   20.3970 O   0  0  0  0  0  0  0  0  0  0  0  0
  -24.6170  -31.9050   23.3290 C   0  0  0  0  0  0  0  0  0  0  0  0
  -27.2960  -27.3880   20.2880 C   0  0  0  0  0  0  0  0  0  0  0  0
  -23.4420  -30.5080   21.6670 C   0  0  0  0  0  3  0  0  0  0  0  0
  -24.9190  -28.9880   20.2440 C   0  0  0  0  0  0  0  0  0  0  0  0
  -25.9810  -30.8490   21.5190 C   0  0  0  0  0  2  0  0  0  0  0  0
  -26.0790  -29.4820   20.8570 C   0  0  0  0  0  0  0  0  0  0  0  0
  -27.2670  -28.6940   20.8700 C   0  0  0  0  0  3  0  0  0  0  0  0
  -26.1160  -26.9570   19.6320 C   0  0  0  0  0  3  0  0  0  0  0  0
  -24.9410  -27.7310   19.6240 C   0  0  0  0  0  3  0  0  0  0  0  0
  -23.6790  -29.8550   20.2820 C   0  0  0  0  0  2  0  0  0  0  0  0
  -24.6980  -31.1040   22.2280 N   0  0  0  0  0  0  0  0  0  0  0  0
  -23.5270  -32.1730   23.8540 O   0  0  0  0  0  0  0  0  0  0  0  0
  -22.7780  -29.4750   22.6110 C   0  0  0  0  0  0  0  0  0  0  0  0
  -21.4550  -29.2890   22.4690 N   0  0  0  0  0  0  0  0  0  0  0  0
  -23.4520  -28.8480   23.4310 O   0  0  0  0  0  0  0  0  0  0  0  0
  -20.9690  -29.8520   21.7850 H   0  0  0  0  0  0  0  0  0  0  0  0
  -18.0760  -28.0880   22.9340 C   0  0  0  0  0  0  0  0  0  0  0  0
  -20.6330  -28.3420   23.2240 C   0  0  0  0  0  3  0  0  0  0  0  0
  -20.7400  -26.9180   22.6320 C   0  0  0  0  0  2  0  0  0  0  0  0
  -19.6430  -26.6040   21.6090 C   0  0  0  0  0  2  0  0  0  0  0  0
  -18.2570  -26.7440   22.2440 C   0  0  0  0  0  2  0  0  0  0  0  0
  -19.1930  -28.8440   23.3790 C   0  0  0  0  0  0  0  0  0  0  0  0
  -18.9720  -30.0990   23.9850 C   0  0  0  0  0  3  0  0  0  0  0  0
  -17.6680  -30.5990   24.1520 C   0  0  0  0  0  3  0  0  0  0  0  0
  -16.5640  -29.8370   23.7290 C   0  0  0  0  0  3  0  0  0  0  0  0
  -16.7690  -28.5850   23.1230 C   0  0  0  0  0  3  0  0  0  0  0  0
  -25.8920  -32.5420   23.9650 C   0  0  0  0  0  3  0  0  0  0  0  0
  -25.5860  -33.9520   24.2500 N   0  0  0  0  0  0  0  0  0  0  0  0
  -25.9430  -34.9810   23.4690 C   0  0  0  0  0  0  0  0  0  0  0  0
  -26.6320  -34.8440   22.4550 O   0  0  0  0  0  0  0  0  0  0  0  0
  -24.9840  -34.1360   25.0370 H   0  0  0  0  0  0  0  0  0  0  0  0
  -24.2390  -36.7770   23.0300 C   0  0  0  0  0  1  0  0  0  0  0  0
  -25.4560  -36.3840   23.8810 C   0  0  0  0  0  3  0  0  0  0  0  0
  -27.5710  -37.2760   24.7480 C   0  0  0  0  0  1  0  0  0  0  0  0
  -26.4980  -37.4260   23.7700 N   0  0  0  0  0  0  0  0  0  0  0  0
  -26.0920  -38.3500   23.8880 H   0  0  0  0  0  0  0  0  0  0  0  0
  -26.3690  -31.8050   25.2770 C   0  0  1  0  0  0  0  0  0  0  0  0
  -25.2440  -31.6010   26.3190 C   0  0  0  0  0  1  0  0  0  0  0  0
  -26.9610  -30.4160   24.9420 C   0  0  0  0  0  1  0  0  0  0  0  0
  -27.5010  -32.6160   25.9540 C   0  0  0  0  0  1  0  0  0  0  0  0
  1 44  1  0
  1 49  1  0
  1  2  1  0
  4  9  1  0
  5  6  1  0
  5  4  1  0
  7  6  1  0
  7 19  1  0
  7  8  1  0
  9  3  1  0
  9  8  1  0
 10  3  2  0
 11 13  1  0
 11 12  1  0
 12 14  1  0
 13 15  1  0
 14  2  1  0
 15  3  1  0
 15 14  1  0
 16 17  2  0
 17 36  1  0
 18 17  1  0
 18 21  1  0
 19 16  1  0
 19 20  1  0
 20 18  2  0
 21 22  1  0
 22 23  2  0
 24 27  1  0
 24 23  1  0
 25 24  2  0
 26 25  1  0
 26 21  2  0
 27 28  1  0
 28 29  1  0
 29 30  2  0
 31 30  1  0
 31 35  1  0
 32 31  2  0
 33 28  2  0
 33 32  1  0
 34 33  1  0
 36 37  1  0
 37 40  1  0
 37 39  1  0
 38 36  2  0
 41 42  1  0
 41 16  1  0
 43 41  1  0
 45 48  1  0
 45 44  1  0
 46 45  1  0
 47 45  1  0
 50 52  1  0
 50 53  1  0
 50 49  1  0
 51 50  1  0
 54 55  1  0
 54 53  1  0
 56 67  2  0
 57 55  1  0
 57 62  1  0
 58 66  1  0
 58 68  1  0
 59 65  1  0
 59 61  1  0
 60 66  1  0
 61 62  2  0
 61 60  1  0
 63 57  2  0
 64 63  1  0
 64 59  2  0
 65 58  1  0
 66 56  1  0
 68 70  2  0
 69 68  1  0
 71 69  1  0
 72 81  2  0
 72 77  1  0
 73 69  1  0
 73 77  1  0
 74 73  1  0
 75 76  1  0
 75 74  1  0
 76 72  1  0
 77 78  2  0
 78 79  1  0
 80 79  2  0
 81 80  1  0
 82 56  1  0
 82 83  1  0
 82 92  1  0
 83 86  1  0
 84 88  1  0
 84 83  1  0
 85 84  2  0
 88 87  1  0
 90 88  1  0
 90 91  1  0
 90 89  1  0
 92 95  1  1
 92 93  1  0
 94 92  1  0
M  ISO  4   3 100  15 100  54 101  55 101
M  END
>  <TORSDO>  (90) 
F 23

>  <SCORE>  (90) 
-12.460

>  <name>  (90) 
90

>  <ligand_id>  (90) 
90

>  <original_smiles>  (90) 
[H]c1c([H])c([H])c2c(c1[H])C([H])([H])C([H])([H])C([H])([H])C2([H])N([H])C(=O)C1([H])N(C(=O)C([H])(N([H])C(=O)C([H])(N([H])C([H])([H])[H])C([H])([H])[H])C(C([H])([H])[H])(C([H])([H])[H])C([H])([H])[H])C([H])([H])c2c([H])c(OC([H])([H])C([H])([H])[N+]([H])([H])C([H])([H])C([H])(C([H])([H])C3([H])N(C(=O)N4C([H])([H])C([H])([H])C([H])([H])C([H])(n5nc(-c6c([H])c([H])c(Oc7c([H])c([H])c(F)c([H])c7F)c([H])c6[H])c(C(=O)N([H])[H])c5N([H])[H])C4([H])[H])C([H])([H])C([H])([H])C3([H])[H])C([H])([H])[N+]([H])([H])[H])c([H])c([H])c2C1([H])[H]

>  <smiles>  (90) 
[H]c1c([H])c([H])c2c(c1[H])C([H])([H])C([H])([H])C([H])([H])C2([H])N([H])C(=O)C1([H])N(C(=O)C([H])(N([H])C(=O)C([H])(N([H])C([H])([H])[H])C([H])([H])[H])C(C([H])([H])[H])(C([H])([H])[H])C([H])([H])[H])C([H])([H])c2c([H])c(OC([H])([H])C([H])([H])[N+]([H])([H])C([H])([H])C([H])(C([H])([H])C3([H])N(C(=O)N4C([H])([H])C([H])([H])C([H])([H])C([H])(n5nc(-c6c([H])c([H])c(Oc7c([H])c([H])c(F)c([H])c7F)c([H])c6[H])c(C(=O)N([H])[H])c5N([H])[H])C4([H])[H])C([H])([H])C([H])([H])C3([H])[H])C([H])([H])[N+]([H])([H])[H])c([H])c([H])c2C1([H])[H]

$$$$
91:0:0
     RDKit          3D

 95103  0  0  1  0  0  0  0  0999 V2000
  -29.2610  -21.2560   20.7340 C   0  0  0  0  0  0  0  0  0  0  0  0
  -27.0800  -23.2660   18.6370 C   0  0  0  0  0  2  0  0  0  0  0  0
  -26.6650  -23.4520   20.0900 C   0  0  0  0  0  2  0  0  0  0  0  0
  -28.4000  -22.4810   18.7030 C   0  0  0  0  0  2  0  0  0  0  0  0
  -28.0120  -23.5710   20.7870 C   0  0  0  0  0  3  0  0  0  0  0  0
  -28.8030  -22.4360   20.1210 N   0  0  0  0  0  0  0  0  0  0  0  0
  -29.6200  -21.2750   21.9140 O   0  0  0  0  0  0  0  0  0  0  0  0
  -28.5320  -25.1210   20.9620 C   0  0  0  0  0  2  0  0  0  0  0  0
  -28.3060  -26.3600   20.1230 O   0  0  0  0  0  0  0  0  0  0  0  0
  -24.6130  -31.8690   23.2430 C   0  0  0  0  0  0  0  0  0  0  0  0
  -27.1900  -27.2250   20.2220 C   0  0  0  0  0  0  0  0  0  0  0  0
  -23.4080  -30.4740   21.6050 C   0  0  0  0  0  3  0  0  0  0  0  0
  -24.8520  -28.9030   20.1910 C   0  0  0  0  0  0  0  0  0  0  0  0
  -25.9560  -30.7620   21.4260 C   0  0  0  0  0  2  0  0  0  0  0  0
  -26.0250  -29.3720   20.7920 C   0  0  0  0  0  0  0  0  0  0  0  0
  -27.2000  -28.5470   20.7900 C   0  0  0  0  0  3  0  0  0  0  0  0
  -25.9980  -26.8420   19.5710 C   0  0  0  0  0  3  0  0  0  0  0  0
  -24.8390  -27.6450   19.5710 C   0  0  0  0  0  3  0  0  0  0  0  0
  -23.6240  -29.7940   20.2290 C   0  0  0  0  0  2  0  0  0  0  0  0
  -24.6790  -31.0550   22.1470 N   0  0  0  0  0  0  0  0  0  0  0  0
  -23.5260  -32.1520   23.7720 O   0  0  0  0  0  0  0  0  0  0  0  0
  -22.7380  -29.4590   22.5650 C   0  0  0  0  0  0  0  0  0  0  0  0
  -21.4120  -29.2870   22.4370 N   0  0  0  0  0  0  0  0  0  0  0  0
  -23.4140  -28.8310   23.3840 O   0  0  0  0  0  0  0  0  0  0  0  0
  -20.9250  -29.8400   21.7450 H   0  0  0  0  0  0  0  0  0  0  0  0
  -18.0320  -28.1010   22.9520 C   0  0  0  0  0  0  0  0  0  0  0  0
  -20.5930  -28.3550   23.2130 C   0  0  0  0  0  3  0  0  0  0  0  0
  -20.6870  -26.9220   22.6410 C   0  0  0  0  0  2  0  0  0  0  0  0
  -19.5810  -26.6010   21.6310 C   0  0  0  0  0  2  0  0  0  0  0  0
  -18.2010  -26.7520   22.2770 C   0  0  0  0  0  2  0  0  0  0  0  0
  -19.1530  -28.8610   23.3780 C   0  0  0  0  0  0  0  0  0  0  0  0
  -18.9390  -30.1260   23.9690 C   0  0  0  0  0  3  0  0  0  0  0  0
  -17.6350  -30.6280   24.1420 C   0  0  0  0  0  3  0  0  0  0  0  0
  -16.5280  -29.8650   23.7300 C   0  0  0  0  0  3  0  0  0  0  0  0
  -16.7280  -28.6030   23.1410 C   0  0  0  0  0  3  0  0  0  0  0  0
  -25.8940  -32.5020   23.8630 C   0  0  0  0  0  3  0  0  0  0  0  0
  -25.5850  -33.9020   24.1880 N   0  0  0  0  0  0  0  0  0  0  0  0
  -25.9170  -34.9530   23.4270 C   0  0  0  0  0  0  0  0  0  0  0  0
  -26.5830  -34.8480   22.3940 O   0  0  0  0  0  0  0  0  0  0  0  0
  -24.9940  -34.0660   24.9900 H   0  0  0  0  0  0  0  0  0  0  0  0
  -24.1890  -36.7500   23.0740 C   0  0  0  0  0  1  0  0  0  0  0  0
  -25.4290  -36.3410   23.8850 C   0  0  0  0  0  3  0  0  0  0  0  0
  -27.5650  -37.2270   24.7140 C   0  0  0  0  0  1  0  0  0  0  0  0
  -26.4600  -37.3940   23.7720 N   0  0  0  0  0  0  0  0  0  0  0  0
  -26.0510  -38.3120   23.9280 H   0  0  0  0  0  0  0  0  0  0  0  0
  -26.4080  -31.7380   25.1460 C   0  0  1  0  0  0  0  0  0  0  0  0
  -25.3190  -31.5090   26.2180 C   0  0  0  0  0  1  0  0  0  0  0  0
  -26.9860  -30.3530   24.7680 C   0  0  0  0  0  1  0  0  0  0  0  0
  -27.5530  -32.5410   25.8080 C   0  0  0  0  0  1  0  0  0  0  0  0
  -29.2190  -19.8080   20.0150 C   0  0  0  0  0  3  0  0  0  0  0  0
  -30.3010  -18.6080   20.2620 C   0  0  0  0  0  2  0  0  0  0  0  0
  -30.1260  -17.2690   21.1650 C   0  0  0  0  0  2  0  0  0  0  0  0
  -30.6060  -14.7550   20.3710 C   0  0  0  0  0  0  0  0  0  0  0  0
  -30.3900  -12.4850   19.3100 C   0  0  0  0  0  2  0  0  0  0  0  0
  -29.4430  -12.5700   18.0920 C   0  0  0  0  0  2  0  0  0  0  0  0
  -27.9750  -12.4050   18.5320 C   0  0  0  0  0  2  0  0  0  0  0  0
  -27.6150  -13.2880   19.7560 C   0  0  0  0  0  3  0  0  0  0  0  0
  -28.6810  -13.1830   20.8670 C   0  0  0  0  0  2  0  0  0  0  0  0
  -29.9720  -13.5370   20.2650 N   0  0  0  0  0  0  0  0  0  0  0  0
  -31.7990  -14.8640   20.0790 O   0  0  0  0  0  0  0  0  0  0  0  0
  -29.8130  -15.8660   20.6320 N   0  0  0  0  0  0  0  0  0  0  0  0
  -28.8490  -15.5940   20.7520 H   0  0  0  0  0  0  0  0  0  0  0  0
  -25.2280  -13.8870   20.4830 C   0  0  0  0  0  0  0  0  0  0  0  0
  -24.1610  -13.1200   20.8530 C   0  0  0  0  0  0  0  0  0  0  0  0
  -24.6210  -11.7680   20.8330 C   0  0  0  0  0  0  0  0  0  0  0  0
  -26.2710  -13.0060   20.2520 N   0  0  0  0  0  0  0  0  0  0  0  0
  -25.9120  -11.7240   20.5270 N   0  0  0  0  0  0  0  0  0  0  0  0
  -23.8910  -10.5100   21.0300 C   0  0  0  0  0  0  0  0  0  0  0  0
  -24.3310   -9.5420   21.9610 C   0  0  0  0  0  3  0  0  0  0  0  0
  -23.6040   -8.3470   22.1480 C   0  0  0  0  0  3  0  0  0  0  0  0
  -22.4220   -8.1110   21.4040 C   0  0  0  0  0  0  0  0  0  0  0  0
  -22.0000   -9.0690   20.4640 C   0  0  0  0  0  3  0  0  0  0  0  0
  -22.7290  -10.2550   20.2750 C   0  0  0  0  0  3  0  0  0  0  0  0
  -21.6660   -6.9680   21.4970 O   0  0  0  0  0  0  0  0  0  0  0  0
  -21.6370   -6.2180   22.6450 C   0  0  0  0  0  0  0  0  0  0  0  0
  -21.2480   -6.7710   23.8850 C   0  0  0  0  0  3  0  0  0  0  0  0
  -21.1650   -5.9500   25.0260 C   0  0  0  0  0  3  0  0  0  0  0  0
  -21.4590   -4.5760   24.9300 C   0  0  0  0  0  0  0  0  0  0  0  0
  -21.8430   -4.0240   23.6960 C   0  0  0  0  0  3  0  0  0  0  0  0
  -21.9290   -4.8440   22.5560 C   0  0  0  0  0  0  0  0  0  0  0  0
  -22.2780   -4.3020   21.3630 F   0  0  0  0  0  0  0  0  0  0  0  0
  -21.3720   -3.7840   26.0240 F   0  0  0  0  0  0  0  0  0  0  0  0
  -22.7640  -13.6020   21.1190 C   0  0  0  0  0  0  0  0  0  0  0  0
  -22.0370  -12.9140   21.9910 N   0  0  0  0  0  0  0  0  0  0  0  0
  -22.3290  -14.6260   20.5910 O   0  0  0  0  0  0  0  0  0  0  0  0
  -22.4000  -12.0820   22.4320 H   0  0  0  0  0  0  0  0  0  0  0  0
  -21.1010  -13.2210   22.2190 H   0  0  0  0  0  0  0  0  0  0  0  0
  -25.4020  -15.2570   20.3040 N   0  0  0  0  0  0  0  0  0  0  0  0
  -24.6510  -15.9240   20.4340 H   0  0  0  0  0  0  0  0  0  0  0  0
  -26.2810  -15.6730   20.0420 H   0  0  0  0  0  0  0  0  0  0  0  0
  -27.7560  -19.3060   20.0520 C   0  0  0  0  0  2  0  0  0  0  0  0
  -27.4820  -18.3320   18.9800 N   0  0  0  0  0  4  0  0  0  0  0  0
  -27.5620  -18.7550   18.0700 H   0  0  0  0  0  0  0  0  0  0  0  0
  -26.5440  -17.9830   19.0750 H   0  0  0  0  0  0  0  0  0  0  0  0
  -28.1310  -17.5660   19.0260 H   0  0  0  0  0  0  0  0  0  0  0  0
  1  7  2  0
  2  4  1  0
  2  3  1  0
  3  5  1  0
  4  6  1  0
  5  8  1  0
  6  1  1  0
  6  5  1  0
  9 11  1  0
  9  8  1  0
 10 21  2  0
 11 16  1  0
 12 20  1  0
 12 22  1  0
 13 19  1  0
 13 15  1  0
 14 20  1  0
 15 14  1  0
 16 15  2  0
 17 18  1  0
 17 11  2  0
 18 13  2  0
 19 12  1  0
 20 10  1  0
 22 24  2  0
 23 22  1  0
 25 23  1  0
 26 35  2  0
 26 31  1  0
 27 23  1  0
 27 31  1  0
 28 27  1  0
 29 30  1  0
 29 28  1  0
 30 26  1  0
 31 32  2  0
 32 33  1  0
 34 33  2  0
 35 34  1  0
 36 10  1  0
 36 37  1  0
 36 46  1  0
 37 40  1  0
 38 42  1  0
 38 37  1  0
 39 38  2  0
 42 41  1  0
 44 42  1  0
 44 45  1  0
 44 43  1  0
 46 49  1  1
 46 47  1  0
 48 46  1  0
 50 91  1  0
 50 51  1  0
 50  1  1  0
 51 52  1  0
 53 61  1  0
 54 59  1  0
 55 56  1  0
 55 54  1  0
 57 56  1  0
 57 66  1  0
 57 58  1  0
 59 53  1  0
 59 58  1  0
 60 53  2  0
 61 62  1  0
 61 52  1  0
 63 64  2  0
 64 83  1  0
 65 64  1  0
 65 68  1  0
 66 63  1  0
 66 67  1  0
 67 65  2  0
 68 69  1  0
 69 70  2  0
 71 74  1  0
 71 70  1  0
 72 71  2  0
 73 72  1  0
 73 68  2  0
 74 75  1  0
 75 76  1  0
 76 77  2  0
 78 77  1  0
 78 82  1  0
 79 78  2  0
 80 75  2  0
 80 79  1  0
 81 80  1  0
 83 84  1  0
 84 87  1  0
 84 86  1  0
 85 83  2  0
 88 89  1  0
 88 63  1  0
 90 88  1  0
 92 95  1  0
 92 94  1  0
 92 91  1  0
 93 92  1  0
M  ISO  4   8 101   9 101  53 100  61 100
M  END
>  <TORSDO>  (91) 
F 22

>  <SCORE>  (91) 
-13.540

>  <name>  (91) 
91

>  <ligand_id>  (91) 
91

>  <original_smiles>  (91) 
[H]c1c([H])c([H])c2c(c1[H])C([H])([H])C([H])([H])C([H])([H])C2([H])N([H])C(=O)C1([H])N(C(=O)C([H])(N([H])C(=O)C([H])(N([H])C([H])([H])[H])C([H])([H])[H])C(C([H])([H])[H])(C([H])([H])[H])C([H])([H])[H])C([H])([H])c2c([H])c(OC([H])([H])C3([H])N(C(=O)C([H])(C([H])([H])C([H])([H])N([H])C(=O)N4C([H])([H])C([H])([H])C([H])([H])C([H])(n5nc(-c6c([H])c([H])c(Oc7c([H])c([H])c(F)c([H])c7F)c([H])c6[H])c(C(=O)N([H])[H])c5N([H])[H])C4([H])[H])C([H])([H])[N+]([H])([H])[H])C([H])([H])C([H])([H])C3([H])[H])c([H])c([H])c2C1([H])[H]

>  <smiles>  (91) 
[H]c1c([H])c([H])c2c(c1[H])C([H])([H])C([H])([H])C([H])([H])C2([H])N([H])C(=O)C1([H])N(C(=O)C([H])(N([H])C(=O)C([H])(N([H])C([H])([H])[H])C([H])([H])[H])C(C([H])([H])[H])(C([H])([H])[H])C([H])([H])[H])C([H])([H])c2c([H])c(OC([H])([H])C3([H])N(C(=O)C([H])(C([H])([H])C([H])([H])N([H])C(=O)N4C([H])([H])C([H])([H])C([H])([H])C([H])(n5nc(-c6c([H])c([H])c(Oc7c([H])c([H])c(F)c([H])c7F)c([H])c6[H])c(C(=O)N([H])[H])c5N([H])[H])C4([H])[H])C([H])([H])[N+]([H])([H])[H])C([H])([H])C([H])([H])C3([H])[H])c([H])c([H])c2C1([H])[H]

$$$$
92:0:0
     RDKit          3D

 99108  0  0  1  0  0  0  0  0999 V2000
  -30.4310  -20.6680   19.2040 N   0  0  1  0  0  4  0  0  0  0  0  0
  -31.3340  -21.0240   19.4700 H   0  0  0  0  0  0  0  0  0  0  0  0
  -31.2260  -15.0590   19.2070 C   0  0  0  0  0  0  0  0  0  0  0  0
  -30.9650  -12.7380   18.1760 C   0  0  0  0  0  2  0  0  0  0  0  0
  -29.7590  -12.6680   17.2020 C   0  0  0  0  0  2  0  0  0  0  0  0
  -28.4330  -12.4050   17.9490 C   0  0  0  0  0  2  0  0  0  0  0  0
  -28.3080  -13.2760   19.2220 C   0  0  0  0  0  3  0  0  0  0  0  0
  -29.6100  -13.1670   20.0630 C   0  0  0  0  0  2  0  0  0  0  0  0
  -30.6690  -13.7630   19.2270 N   0  0  0  0  0  0  0  0  0  0  0  0
  -32.3070  -15.1500   18.6080 O   0  0  0  0  0  0  0  0  0  0  0  0
  -29.1230  -18.2100   22.0500 C   0  0  0  0  0  2  0  0  0  0  0  0
  -29.6110  -16.7800   21.8400 C   0  0  0  0  0  2  0  0  0  0  0  0
  -29.1420  -19.1420   20.8160 C   0  0  0  0  0  2  0  0  0  0  0  0
  -29.3190  -16.2780   20.4320 C   0  0  0  0  0  2  0  0  0  0  0  0
  -30.6850  -17.7730   19.0780 C   0  0  0  0  0  2  0  0  0  0  0  0
  -30.4480  -19.2430   19.9550 C   0  0  1  0  0  0  0  0  0  0  0  0
  -30.5190  -16.2700   19.5880 N   0  0  0  0  0  0  0  0  0  0  0  0
  -26.2210  -13.8570   20.6060 C   0  0  0  0  0  0  0  0  0  0  0  0
  -25.2220  -13.0830   21.1230 C   0  0  0  0  0  0  0  0  0  0  0  0
  -25.5490  -11.7380   20.7730 C   0  0  0  0  0  0  0  0  0  0  0  0
  -27.1050  -12.9810   19.9910 N   0  0  0  0  0  0  0  0  0  0  0  0
  -26.7180  -11.6910   20.1460 N   0  0  0  0  0  0  0  0  0  0  0  0
  -24.7860  -10.4980   20.9460 C   0  0  0  0  0  0  0  0  0  0  0  0
  -25.2060   -9.4940   21.8450 C   0  0  0  0  0  3  0  0  0  0  0  0
  -24.4440   -8.3170   22.0090 C   0  0  0  0  0  3  0  0  0  0  0  0
  -23.2490   -8.1380   21.2710 C   0  0  0  0  0  0  0  0  0  0  0  0
  -22.8480   -9.1320   20.3610 C   0  0  0  0  0  3  0  0  0  0  0  0
  -23.6110  -10.3000   20.1950 C   0  0  0  0  0  3  0  0  0  0  0  0
  -22.4590   -7.0170   21.3460 O   0  0  0  0  0  0  0  0  0  0  0  0
  -22.1610   -6.4270   22.5480 C   0  0  0  0  0  0  0  0  0  0  0  0
  -21.4970   -7.1280   23.5770 C   0  0  0  0  0  3  0  0  0  0  0  0
  -21.1460   -6.4640   24.7690 C   0  0  0  0  0  3  0  0  0  0  0  0
  -21.4510   -5.0990   24.9310 C   0  0  0  0  0  0  0  0  0  0  0  0
  -22.1080   -4.3980   23.9060 C   0  0  0  0  0  3  0  0  0  0  0  0
  -22.4590   -5.0590   22.7160 C   0  0  0  0  0  0  0  0  0  0  0  0
  -23.0740   -4.3740   21.7220 F   0  0  0  0  0  0  0  0  0  0  0  0
  -21.1070   -4.4590   26.0730 F   0  0  0  0  0  0  0  0  0  0  0  0
  -23.9800  -13.5710   21.8100 C   0  0  0  0  0  0  0  0  0  0  0  0
  -23.4680  -12.8060   22.7680 N   0  0  0  0  0  0  0  0  0  0  0  0
  -23.4830  -14.6630   21.5360 O   0  0  0  0  0  0  0  0  0  0  0  0
  -23.8890  -11.9220   23.0120 H   0  0  0  0  0  0  0  0  0  0  0  0
  -22.6450  -13.1110   23.2680 H   0  0  0  0  0  0  0  0  0  0  0  0
  -26.4240  -15.2340   20.5840 N   0  0  0  0  0  0  0  0  0  0  0  0
  -25.7390  -15.8750   20.9680 H   0  0  0  0  0  0  0  0  0  0  0  0
  -27.1660  -15.6980   20.0810 H   0  0  0  0  0  0  0  0  0  0  0  0
  -31.7020  -19.3180   20.8830 C   0  0  0  0  0  2  0  0  0  0  0  0
  -33.0650  -20.4970   22.7080 C   0  0  0  0  0  1  0  0  0  0  0  0
  -31.9130  -20.6160   21.7010 C   0  0  0  0  0  2  0  0  0  0  0  0
  -30.5960  -20.5600   17.7300 C   0  0  0  0  0  2  0  0  0  0  0  0
  -33.1830  -23.6720   16.1460 C   0  0  0  0  0  3  0  0  0  0  0  0
  -31.9180  -23.4480   15.5710 C   0  0  0  0  0  3  0  0  0  0  0  0
  -33.6200  -22.8720   17.2200 C   0  0  0  0  0  3  0  0  0  0  0  0
  -31.0820  -22.4340   16.0770 C   0  0  0  0  0  3  0  0  0  0  0  0
  -32.7860  -21.8550   17.7250 C   0  0  0  0  0  3  0  0  0  0  0  0
  -31.5040  -21.6430   17.1690 C   0  0  0  0  0  0  0  0  0  0  0  0
  -29.4560  -21.8720   19.6120 C   0  0  0  0  0  2  0  0  0  0  0  0
  -29.7430  -23.5140   19.3900 C   0  0  0  0  0  3  0  0  0  0  0  0
  -28.5920  -24.6990   19.6440 C   0  0  0  0  0  3  0  0  0  0  0  0
  -28.7890  -26.2360   19.6800 O   0  0  0  0  0  0  0  0  0  0  0  0
  -24.8330  -31.4760   23.0130 C   0  0  0  0  0  0  0  0  0  0  0  0
  -27.6720  -27.1440   19.6880 C   0  0  0  0  0  0  0  0  0  0  0  0
  -23.7300  -30.1890   21.2230 C   0  0  0  0  0  3  0  0  0  0  0  0
  -25.2730  -28.7850   19.7290 C   0  0  0  0  0  0  0  0  0  0  0  0
  -26.2770  -30.5520   21.1660 C   0  0  0  0  0  2  0  0  0  0  0  0
  -26.4180  -29.2260   20.4050 C   0  0  0  0  0  0  0  0  0  0  0  0
  -27.6170  -28.4240   20.3670 C   0  0  0  0  0  3  0  0  0  0  0  0
  -26.4930  -26.7970   18.9880 C   0  0  0  0  0  3  0  0  0  0  0  0
  -25.3210  -27.5840   19.0090 C   0  0  0  0  0  3  0  0  0  0  0  0
  -24.0150  -29.6330   19.8040 C   0  0  0  0  0  2  0  0  0  0  0  0
  -24.9640  -30.7560   21.8580 N   0  0  0  0  0  0  0  0  0  0  0  0
  -23.7220  -31.6840   23.5260 O   0  0  0  0  0  0  0  0  0  0  0  0
  -23.0530  -29.0850   22.0740 C   0  0  0  0  0  0  0  0  0  0  0  0
  -21.7230  -28.9390   21.9430 N   0  0  0  0  0  0  0  0  0  0  0  0
  -23.7290  -28.3660   22.8150 O   0  0  0  0  0  0  0  0  0  0  0  0
  -21.2330  -29.5730   21.3270 H   0  0  0  0  0  0  0  0  0  0  0  0
  -18.3270  -27.7730   22.4230 C   0  0  0  0  0  0  0  0  0  0  0  0
  -20.9020  -27.9280   22.6160 C   0  0  0  0  0  3  0  0  0  0  0  0
  -20.9350  -26.5850   21.8520 C   0  0  0  0  0  2  0  0  0  0  0  0
  -19.7860  -26.4310   20.8510 C   0  0  0  0  0  2  0  0  0  0  0  0
  -18.4340  -26.5240   21.5650 C   0  0  0  0  0  2  0  0  0  0  0  0
  -19.4850  -28.4410   22.9040 C   0  0  0  0  0  0  0  0  0  0  0  0
  -19.3280  -29.6160   23.6720 C   0  0  0  0  0  3  0  0  0  0  0  0
  -18.0470  -30.1240   23.9580 C   0  0  0  0  0  3  0  0  0  0  0  0
  -16.9040  -29.4510   23.4920 C   0  0  0  0  0  3  0  0  0  0  0  0
  -17.0460  -28.2760   22.7310 C   0  0  0  0  0  3  0  0  0  0  0  0
  -26.0700  -32.0940   23.7320 C   0  0  0  0  0  3  0  0  0  0  0  0
  -25.6940  -33.4400   24.1910 N   0  0  0  0  0  0  0  0  0  0  0  0
  -26.0170  -34.5790   23.5650 C   0  0  0  0  0  0  0  0  0  0  0  0
  -26.7270  -34.6090   22.5560 O   0  0  0  0  0  0  0  0  0  0  0  0
  -25.0620  -33.4880   24.9760 H   0  0  0  0  0  0  0  0  0  0  0  0
  -24.2470  -36.3550   23.3300 C   0  0  0  0  0  1  0  0  0  0  0  0
  -25.4660  -35.8950   24.1480 C   0  0  0  0  0  3  0  0  0  0  0  0
  -27.5280  -36.7470   25.1740 C   0  0  0  0  0  1  0  0  0  0  0  0
  -26.4670  -36.9840   24.1980 N   0  0  0  0  0  0  0  0  0  0  0  0
  -26.0240  -37.8710   24.4210 H   0  0  0  0  0  0  0  0  0  0  0  0
  -26.5810  -31.2220   24.9450 C   0  0  1  0  0  0  0  0  0  0  0  0
  -25.4680  -30.8370   25.9470 C   0  0  0  0  0  1  0  0  0  0  0  0
  -27.2370  -29.9130   24.4470 C   0  0  0  0  0  1  0  0  0  0  0  0
  -27.6720  -31.9960   25.7220 C   0  0  0  0  0  1  0  0  0  0  0  0
  1  2  1  1
  1 56  1  0
  1 16  1  0
  3  9  1  0
  3 17  1  0
  4  9  1  0
  5  6  1  0
  5  4  1  0
  7  6  1  0
  7 21  1  0
  7  8  1  0
  9  8  1  0
 10  3  2  0
 12 11  1  0
 13 11  1  0
 14 12  1  0
 15 17  1  0
 15 16  1  0
 16 13  1  0
 16 46  1  1
 17 14  1  0
 18 19  2  0
 19 38  1  0
 20 23  1  0
 20 19  1  0
 21 22  1  0
 21 18  1  0
 22 20  2  0
 23 24  1  0
 24 25  2  0
 26 29  1  0
 26 25  1  0
 27 26  2  0
 28 27  1  0
 28 23  2  0
 29 30  1  0
 30 35  2  0
 30 31  1  0
 31 32  2  0
 32 33  1  0
 33 37  1  0
 34 33  2  0
 35 34  1  0
 36 35  1  0
 38 39  1  0
 39 41  1  0
 39 42  1  0
 40 38  2  0
 43 18  1  0
 43 44  1  0
 45 43  1  0
 46 48  1  0
 48 47  1  0
 49  1  1  0
 50 52  1  0
 51 53  1  0
 51 50  2  0
 52 54  2  0
 53 55  2  0
 55 54  1  0
 55 49  1  0
 57 56  1  0
 57 58  2  0
 58 59  1  0
 59 61  1  0
 60 71  2  0
 61 66  1  0
 62 70  1  0
 62 72  1  0
 63 69  1  0
 63 65  1  0
 64 70  1  0
 65 64  1  0
 66 65  2  0
 67 68  1  0
 67 61  2  0
 68 63  2  0
 69 62  1  0
 70 60  1  0
 72 74  2  0
 73 72  1  0
 75 73  1  0
 76 85  2  0
 76 81  1  0
 77 73  1  0
 77 81  1  0
 78 77  1  0
 79 80  1  0
 79 78  1  0
 80 76  1  0
 81 82  2  0
 82 83  1  0
 84 83  2  0
 85 84  1  0
 86 60  1  0
 86 87  1  0
 86 96  1  0
 87 90  1  0
 88 92  1  0
 88 87  1  0
 89 88  2  0
 92 91  1  0
 92 94  1  0
 94 95  1  0
 94 93  1  0
 96 99  1  1
 96 97  1  0
 98 96  1  0
M  ISO  4   3 100  17 100  58 101  59 101
M  END
>  <TORSDO>  (92) 
F 23

>  <SCORE>  (92) 
-7.847

>  <name>  (92) 
92

>  <ligand_id>  (92) 
92

>  <original_smiles>  (92) 
[H]c1c([H])c([H])c(C([H])([H])[N+]([H])(C([H])([H])C([H])([H])C([H])([H])Oc2c([H])c([H])c3c(c2[H])C([H])([H])N(C(=O)C([H])(N([H])C(=O)C([H])(N([H])C([H])([H])[H])C([H])([H])[H])C(C([H])([H])[H])(C([H])([H])[H])C([H])([H])[H])C([H])(C(=O)N([H])C2([H])c4c([H])c([H])c([H])c([H])c4C([H])([H])C([H])([H])C2([H])[H])C3([H])[H])C2(C([H])([H])C([H])([H])C([H])([H])[H])C([H])([H])N(C(=O)N3C([H])([H])C([H])([H])C([H])([H])C([H])(n4nc(-c5c([H])c([H])c(Oc6c([H])c([H])c(F)c([H])c6F)c([H])c5[H])c(C(=O)N([H])[H])c4N([H])[H])C3([H])[H])C([H])([H])C([H])([H])C([H])([H])C2([H])[H])c([H])c1[H]

>  <smiles>  (92) 
[H]c1c([H])c([H])c(C([H])([H])[N+]([H])(C([H])([H])C([H])([H])C([H])([H])Oc2c([H])c([H])c3c(c2[H])C([H])([H])N(C(=O)C([H])(N([H])C(=O)C([H])(N([H])C([H])([H])[H])C([H])([H])[H])C(C([H])([H])[H])(C([H])([H])[H])C([H])([H])[H])C([H])(C(=O)N([H])C2([H])c4c([H])c([H])c([H])c([H])c4C([H])([H])C([H])([H])C2([H])[H])C3([H])[H])C2(C([H])([H])C([H])([H])C([H])([H])[H])C([H])([H])N(C(=O)N3C([H])([H])C([H])([H])C([H])([H])C([H])(n4nc(-c5c([H])c([H])c(Oc6c([H])c([H])c(F)c([H])c6F)c([H])c5[H])c(C(=O)N([H])[H])c4N([H])[H])C3([H])[H])C([H])([H])C([H])([H])C([H])([H])C2([H])[H])c([H])c1[H]

$$$$
93:0:0
     RDKit          3D

 96104  0  0  1  0  0  0  0  0999 V2000
  -29.9440  -20.0900   20.2810 C   0  0  0  0  0  3  0  0  0  0  0  0
  -28.5620  -23.1560   22.5380 C   0  0  0  0  0  2  0  0  0  0  0  0
  -28.0970  -21.6830   22.4950 C   0  0  0  0  0  2  0  0  0  0  0  0
  -29.7530  -23.4250   21.5830 C   0  0  0  0  0  2  0  0  0  0  0  0
  -27.8650  -21.1950   21.0510 C   0  0  0  0  0  2  0  0  0  0  0  0
  -29.4200  -23.0150   20.1310 C   0  0  0  0  0  3  0  0  0  0  0  0
  -29.1160  -21.3530   20.3020 N   0  0  0  0  0  0  0  0  0  0  0  0
  -31.1940  -20.2850   19.8230 N   0  0  0  0  0  0  0  0  0  0  0  0
  -31.8870  -19.5520   19.8750 H   0  0  0  0  0  0  0  0  0  0  0  0
  -31.5170  -21.1870   19.5050 H   0  0  0  0  0  0  0  0  0  0  0  0
  -29.7130  -18.4320   20.8580 C   0  0  0  0  0  2  0  0  0  0  0  0
  -30.9240  -15.6860   21.1100 C   0  0  0  0  0  0  0  0  0  0  0  0
  -31.0210  -13.1300   20.5730 C   0  0  0  0  0  2  0  0  0  0  0  0
  -30.3390  -12.6010   19.2860 C   0  0  0  0  0  2  0  0  0  0  0  0
  -28.8280  -12.4000   19.4970 C   0  0  0  0  0  2  0  0  0  0  0  0
  -28.1830  -13.5340   20.3320 C   0  0  0  0  0  3  0  0  0  0  0  0
  -29.0190  -13.9360   21.5640 C   0  0  0  0  0  2  0  0  0  0  0  0
  -30.3200  -14.3910   21.0380 N   0  0  0  0  0  0  0  0  0  0  0  0
  -32.1490  -15.5710   21.2740 O   0  0  0  0  0  0  0  0  0  0  0  0
  -30.4280  -16.9600   20.4720 N   0  0  0  0  0  0  0  0  0  0  0  0
  -25.7470  -14.1640   20.7280 C   0  0  0  0  0  0  0  0  0  0  0  0
  -24.6220  -13.4200   20.9450 C   0  0  0  0  0  0  0  0  0  0  0  0
  -25.0530  -12.0580   21.0110 C   0  0  0  0  0  0  0  0  0  0  0  0
  -26.7900  -13.2610   20.6590 N   0  0  0  0  0  0  0  0  0  0  0  0
  -26.3760  -11.9890   20.9030 N   0  0  0  0  0  0  0  0  0  0  0  0
  -24.2730  -10.8160   21.1120 C   0  0  0  0  0  0  0  0  0  0  0  0
  -24.5830   -9.8220   22.0650 C   0  0  0  0  0  3  0  0  0  0  0  0
  -23.8070   -8.6480   22.1540 C   0  0  0  0  0  3  0  0  0  0  0  0
  -22.7030   -8.4590   21.2890 C   0  0  0  0  0  0  0  0  0  0  0  0
  -22.4120   -9.4410   20.3260 C   0  0  0  0  0  3  0  0  0  0  0  0
  -23.1900  -10.6070   20.2340 C   0  0  0  0  0  3  0  0  0  0  0  0
  -21.9040   -7.3410   21.2890 O   0  0  0  0  0  0  0  0  0  0  0  0
  -21.7700   -6.5520   22.4020 C   0  0  0  0  0  0  0  0  0  0  0  0
  -21.3180   -7.0730   23.6330 C   0  0  0  0  0  3  0  0  0  0  0  0
  -21.1270   -6.2130   24.7330 C   0  0  0  0  0  3  0  0  0  0  0  0
  -21.3800   -4.8350   24.6040 C   0  0  0  0  0  0  0  0  0  0  0  0
  -21.8230   -4.3140   23.3760 C   0  0  0  0  0  3  0  0  0  0  0  0
  -22.0160   -5.1700   22.2780 C   0  0  0  0  0  0  0  0  0  0  0  0
  -22.4240   -4.6580   21.0920 F   0  0  0  0  0  0  0  0  0  0  0  0
  -21.1880   -4.0070   25.6570 F   0  0  0  0  0  0  0  0  0  0  0  0
  -23.2120  -13.9340   20.9830 C   0  0  0  0  0  0  0  0  0  0  0  0
  -22.3450  -13.2930   21.7600 N   0  0  0  0  0  0  0  0  0  0  0  0
  -22.8870  -14.9440   20.3590 O   0  0  0  0  0  0  0  0  0  0  0  0
  -22.6210  -12.4770   22.2880 H   0  0  0  0  0  0  0  0  0  0  0  0
  -21.3940  -13.6240   21.8280 H   0  0  0  0  0  0  0  0  0  0  0  0
  -25.9750  -15.5250   20.5490 N   0  0  0  0  0  0  0  0  0  0  0  0
  -25.2220  -16.2040   20.5390 H   0  0  0  0  0  0  0  0  0  0  0  0
  -26.8790  -15.9310   20.3510 H   0  0  0  0  0  0  0  0  0  0  0  0
  -31.1330  -17.2150   19.1970 C   0  0  0  0  0  2  0  0  0  0  0  0
  -30.5330  -16.4320   18.0130 C   0  0  0  0  0  2  0  0  0  0  0  0
  -31.3140  -16.6220   16.7810 N   0  0  0  0  0  4  0  0  0  0  0  0
  -31.3230  -17.5880   16.5030 H   0  0  0  0  0  0  0  0  0  0  0  0
  -30.9160  -16.0870   16.0300 H   0  0  0  0  0  0  0  0  0  0  0  0
  -32.2640  -16.3160   16.9040 H   0  0  0  0  0  0  0  0  0  0  0  0
  -28.4210  -24.4090   19.5250 C   0  0  0  0  0  2  0  0  0  0  0  0
  -28.5690  -26.0650   19.5900 O   0  0  0  0  0  0  0  0  0  0  0  0
  -24.8220  -31.6980   22.9410 C   0  0  0  0  0  0  0  0  0  0  0  0
  -27.5070  -27.1200   19.5880 C   0  0  0  0  0  0  0  0  0  0  0  0
  -23.6470  -30.3490   21.2480 C   0  0  0  0  0  3  0  0  0  0  0  0
  -25.1260  -28.9010   19.6930 C   0  0  0  0  0  0  0  0  0  0  0  0
  -26.1950  -30.6880   21.0510 C   0  0  0  0  0  2  0  0  0  0  0  0
  -26.3090  -29.3220   20.3110 C   0  0  0  0  0  0  0  0  0  0  0  0
  -27.4910  -28.4560   20.2320 C   0  0  0  0  0  3  0  0  0  0  0  0
  -26.2890  -26.8550   18.9250 C   0  0  0  0  0  3  0  0  0  0  0  0
  -25.1400  -27.6910   18.9780 C   0  0  0  0  0  3  0  0  0  0  0  0
  -23.8680  -29.7600   19.8270 C   0  0  0  0  0  2  0  0  0  0  0  0
  -24.9110  -30.9400   21.7990 N   0  0  0  0  0  0  0  0  0  0  0  0
  -23.7390  -31.9000   23.5110 O   0  0  0  0  0  0  0  0  0  0  0  0
  -23.0250  -29.2670   22.1710 C   0  0  0  0  0  0  0  0  0  0  0  0
  -21.6970  -29.0640   22.0900 N   0  0  0  0  0  0  0  0  0  0  0  0
  -23.7430  -28.6120   22.9300 O   0  0  0  0  0  0  0  0  0  0  0  0
  -21.1640  -29.6460   21.4580 H   0  0  0  0  0  0  0  0  0  0  0  0
  -18.3790  -27.7050   22.6490 C   0  0  0  0  0  0  0  0  0  0  0  0
  -20.9380  -28.0460   22.8260 C   0  0  0  0  0  3  0  0  0  0  0  0
  -21.0620  -26.6610   22.1470 C   0  0  0  0  0  2  0  0  0  0  0  0
  -19.9290  -26.3700   21.1590 C   0  0  0  0  0  2  0  0  0  0  0  0
  -18.5730  -26.4160   21.8680 C   0  0  0  0  0  2  0  0  0  0  0  0
  -19.4890  -28.4790   23.0850 C   0  0  0  0  0  0  0  0  0  0  0  0
  -19.2500  -29.6850   23.7790 C   0  0  0  0  0  3  0  0  0  0  0  0
  -17.9360  -30.1170   24.0420 C   0  0  0  0  0  3  0  0  0  0  0  0
  -16.8420  -29.3400   23.6210 C   0  0  0  0  0  3  0  0  0  0  0  0
  -17.0650  -28.1370   22.9290 C   0  0  0  0  0  3  0  0  0  0  0  0
  -26.0810  -32.3610   23.5800 C   0  0  0  0  0  3  0  0  0  0  0  0
  -25.6960  -33.7000   24.0600 N   0  0  0  0  0  0  0  0  0  0  0  0
  -25.9580  -34.8510   23.4230 C   0  0  0  0  0  0  0  0  0  0  0  0
  -26.6110  -34.8980   22.3790 O   0  0  0  0  0  0  0  0  0  0  0  0
  -25.1140  -33.7290   24.8840 H   0  0  0  0  0  0  0  0  0  0  0  0
  -24.1340  -36.5840   23.3010 C   0  0  0  0  0  1  0  0  0  0  0  0
  -25.4090  -36.1520   24.0440 C   0  0  0  0  0  3  0  0  0  0  0  0
  -27.5100  -37.0550   24.9390 C   0  0  0  0  0  1  0  0  0  0  0  0
  -26.3830  -37.2660   24.0370 N   0  0  0  0  0  0  0  0  0  0  0  0
  -25.9320  -38.1410   24.2910 H   0  0  0  0  0  0  0  0  0  0  0  0
  -26.6910  -31.5160   24.7660 C   0  0  1  0  0  0  0  0  0  0  0  0
  -25.6620  -31.1310   25.8530 C   0  0  0  0  0  1  0  0  0  0  0  0
  -27.3290  -30.2080   24.2450 C   0  0  0  0  0  1  0  0  0  0  0  0
  -27.8250  -32.3160   25.4490 C   0  0  0  0  0  1  0  0  0  0  0  0
  1  7  1  0
  1 11  1  0
  3  2  1  0
  4  2  1  0
  5  3  1  0
  6 55  1  0
  6  7  1  0
  6  4  1  0
  7  5  1  0
  8  9  1  0
  8  1  1  0
 10  8  1  0
 12 19  2  0
 13 18  1  0
 14 15  1  0
 14 13  1  0
 16 15  1  0
 16 24  1  0
 16 17  1  0
 18 12  1  0
 18 17  1  0
 20 11  1  0
 20 12  1  0
 21 22  2  0
 22 41  1  0
 22 23  1  0
 23 26  1  0
 24 21  1  0
 24 25  1  0
 25 23  2  0
 26 27  1  0
 27 28  2  0
 29 28  1  0
 30 29  2  0
 31 30  1  0
 31 26  2  0
 32 29  1  0
 32 33  1  0
 33 34  1  0
 34 35  2  0
 36 35  1  0
 36 40  1  0
 37 36  2  0
 38 33  2  0
 38 37  1  0
 39 38  1  0
 41 42  1  0
 42 45  1  0
 42 44  1  0
 43 41  2  0
 46 21  1  0
 47 46  1  0
 48 46  1  0
 49 20  1  0
 50 49  1  0
 51 54  1  0
 51 50  1  0
 52 51  1  0
 53 51  1  0
 55 56  1  0
 57 68  2  0
 58 56  1  0
 58 63  1  0
 59 67  1  0
 59 69  1  0
 60 66  1  0
 60 62  1  0
 61 67  1  0
 62 61  1  0
 63 62  2  0
 64 65  1  0
 64 58  2  0
 65 60  2  0
 66 59  1  0
 67 57  1  0
 69 71  2  0
 70 69  1  0
 72 70  1  0
 73 82  2  0
 73 78  1  0
 74 70  1  0
 74 78  1  0
 75 74  1  0
 76 77  1  0
 76 75  1  0
 77 73  1  0
 78 79  2  0
 79 80  1  0
 81 80  2  0
 82 81  1  0
 83 57  1  0
 83 84  1  0
 83 93  1  0
 84 87  1  0
 85 89  1  0
 85 84  1  0
 86 85  2  0
 89 88  1  0
 91 89  1  0
 91 92  1  0
 91 90  1  0
 93 96  1  1
 93 94  1  0
 95 93  1  0
M  ISO  4  12 100  20 100  55 101  56 101
M  END
>  <TORSDO>  (93) 
F 21

>  <SCORE>  (93) 
-11.589

>  <name>  (93) 
93

>  <ligand_id>  (93) 
93

>  <original_smiles>  (93) 
[H]c1c([H])c([H])c2c(c1[H])C([H])([H])C([H])([H])C([H])([H])C2([H])N([H])C(=O)C1([H])N(C(=O)C([H])(N([H])C(=O)C([H])(N([H])C([H])([H])[H])C([H])([H])[H])C(C([H])([H])[H])(C([H])([H])[H])C([H])([H])[H])C([H])([H])c2c([H])c(OC([H])([H])C3([H])N(C(=[N+]([H])[H])C([H])([H])N(C(=O)N4C([H])([H])C([H])([H])C([H])([H])C([H])(n5nc(-c6c([H])c([H])c(Oc7c([H])c([H])c(F)c([H])c7F)c([H])c6[H])c(C(=O)N([H])[H])c5N([H])[H])C4([H])[H])C([H])([H])C([H])([H])[N+]([H])([H])[H])C([H])([H])C([H])([H])C([H])([H])C3([H])[H])c([H])c([H])c2C1([H])[H]

>  <smiles>  (93) 
[H]c1c([H])c([H])c2c(c1[H])C([H])([H])C([H])([H])C([H])([H])C2([H])N([H])C(=O)C1([H])N(C(=O)C([H])(N([H])C(=O)C([H])(N([H])C([H])([H])[H])C([H])([H])[H])C(C([H])([H])[H])(C([H])([H])[H])C([H])([H])[H])C([H])([H])c2c([H])c(OC([H])([H])C3([H])N(C(=[N+]([H])[H])C([H])([H])N(C(=O)N4C([H])([H])C([H])([H])C([H])([H])C([H])(n5nc(-c6c([H])c([H])c(Oc7c([H])c([H])c(F)c([H])c7F)c([H])c6[H])c(C(=O)N([H])[H])c5N([H])[H])C4([H])[H])C([H])([H])C([H])([H])[N+]([H])([H])[H])C([H])([H])C([H])([H])C([H])([H])C3([H])[H])c([H])c([H])c2C1([H])[H]

$$$$
94:0:0
     RDKit          3D

 92100  0  0  1  0  0  0  0  0999 V2000
  -29.3590  -19.8060   19.9070 C   0  0  0  0  0  3  0  0  0  0  0  0
  -30.5620  -15.3130   20.3020 C   0  0  0  0  0  0  0  0  0  0  0  0
  -30.4030  -12.9220   19.3270 C   0  0  0  0  0  2  0  0  0  0  0  0
  -29.4620  -12.6360   18.1400 C   0  0  0  0  0  2  0  0  0  0  0  0
  -28.0470  -12.3270   18.6450 C   0  0  0  0  0  2  0  0  0  0  0  0
  -27.5880  -13.3290   19.7320 C   0  0  0  0  0  3  0  0  0  0  0  0
  -28.6660  -13.5740   20.8150 C   0  0  0  0  0  2  0  0  0  0  0  0
  -29.8500  -14.0950   20.1020 N   0  0  0  0  0  0  0  0  0  0  0  0
  -31.7760  -15.0650   20.3450 O   0  0  0  0  0  0  0  0  0  0  0  0
  -32.0570  -18.1880   20.1950 C   0  0  0  0  0  2  0  0  0  0  0  0
  -31.0890  -18.4650   21.3500 C   0  0  0  0  0  2  0  0  0  0  0  0
  -31.2220  -17.3600   19.1860 C   0  0  0  0  0  2  0  0  0  0  0  0
  -29.7420  -18.2000   20.6730 C   0  0  0  0  0  3  0  0  0  0  0  0
  -30.1290  -16.7250   19.9640 N   0  0  0  0  0  0  0  0  0  0  0  0
  -25.2270  -13.8720   20.5300 C   0  0  0  0  0  0  0  0  0  0  0  0
  -24.1700  -13.0900   20.8990 C   0  0  0  0  0  0  0  0  0  0  0  0
  -24.6410  -11.7400   20.8590 C   0  0  0  0  0  0  0  0  0  0  0  0
  -26.2730  -13.0020   20.2750 N   0  0  0  0  0  0  0  0  0  0  0  0
  -25.9320  -11.7130   20.5410 N   0  0  0  0  0  0  0  0  0  0  0  0
  -23.9210  -10.4740   21.0480 C   0  0  0  0  0  0  0  0  0  0  0  0
  -24.3570   -9.5030   21.9770 C   0  0  0  0  0  3  0  0  0  0  0  0
  -23.6340   -8.3030   22.1550 C   0  0  0  0  0  3  0  0  0  0  0  0
  -22.4590   -8.0640   21.4040 C   0  0  0  0  0  0  0  0  0  0  0  0
  -22.0420   -9.0230   20.4640 C   0  0  0  0  0  3  0  0  0  0  0  0
  -22.7660  -10.2140   20.2830 C   0  0  0  0  0  3  0  0  0  0  0  0
  -21.7070   -6.9170   21.4900 O   0  0  0  0  0  0  0  0  0  0  0  0
  -21.6650   -6.1710   22.6410 C   0  0  0  0  0  0  0  0  0  0  0  0
  -21.2290   -6.7180   23.8680 C   0  0  0  0  0  3  0  0  0  0  0  0
  -21.1340   -5.8970   25.0100 C   0  0  0  0  0  3  0  0  0  0  0  0
  -21.4660   -4.5320   24.9260 C   0  0  0  0  0  0  0  0  0  0  0  0
  -21.9000   -3.9860   23.7050 C   0  0  0  0  0  3  0  0  0  0  0  0
  -21.9950   -4.8040   22.5650 C   0  0  0  0  0  0  0  0  0  0  0  0
  -22.3890   -4.2670   21.3860 F   0  0  0  0  0  0  0  0  0  0  0  0
  -21.3700   -3.7400   26.0210 F   0  0  0  0  0  0  0  0  0  0  0  0
  -22.7700  -13.5560   21.1680 C   0  0  0  0  0  0  0  0  0  0  0  0
  -22.0410  -12.8600   22.0320 N   0  0  0  0  0  0  0  0  0  0  0  0
  -22.3310  -14.5820   20.6500 O   0  0  0  0  0  0  0  0  0  0  0  0
  -22.4060  -12.0300   22.4770 H   0  0  0  0  0  0  0  0  0  0  0  0
  -21.0990  -13.1570   22.2450 H   0  0  0  0  0  0  0  0  0  0  0  0
  -25.3810  -15.2460   20.3590 N   0  0  0  0  0  0  0  0  0  0  0  0
  -24.6120  -15.8940   20.4900 H   0  0  0  0  0  0  0  0  0  0  0  0
  -26.2300  -15.6970   20.0450 H   0  0  0  0  0  0  0  0  0  0  0  0
  -28.8080  -21.2320   20.5560 N   0  0  0  0  0  4  0  0  0  0  0  0
  -27.8190  -21.0550   20.4190 H   0  0  0  0  0  0  0  0  0  0  0  0
  -28.9700  -21.1970   21.5490 H   0  0  0  0  0  0  0  0  0  0  0  0
  -29.0040  -22.8150   20.0660 C   0  0  0  0  0  3  0  0  0  0  0  0
  -28.0310  -24.2840   20.4340 C   0  0  0  0  0  3  0  0  0  0  0  0
  -28.2530  -25.9100   20.2880 O   0  0  0  0  0  0  0  0  0  0  0  0
  -24.6210  -31.8570   23.2050 C   0  0  0  0  0  0  0  0  0  0  0  0
  -27.2150  -26.9760   20.2560 C   0  0  0  0  0  0  0  0  0  0  0  0
  -23.4430  -30.4470   21.5700 C   0  0  0  0  0  3  0  0  0  0  0  0
  -24.9060  -28.8340   20.1770 C   0  0  0  0  0  0  0  0  0  0  0  0
  -26.0110  -30.6650   21.4410 C   0  0  0  0  0  2  0  0  0  0  0  0
  -26.0870  -29.2510   20.8000 C   0  0  0  0  0  0  0  0  0  0  0  0
  -27.2380  -28.3460   20.8110 C   0  0  0  0  0  3  0  0  0  0  0  0
  -26.0020  -26.7040   19.5860 C   0  0  0  0  0  3  0  0  0  0  0  0
  -24.8830  -27.5800   19.5480 C   0  0  0  0  0  3  0  0  0  0  0  0
  -23.6840  -29.7540   20.2010 C   0  0  0  0  0  2  0  0  0  0  0  0
  -24.7130  -31.0170   22.1250 N   0  0  0  0  0  0  0  0  0  0  0  0
  -23.5260  -32.1480   23.7150 O   0  0  0  0  0  0  0  0  0  0  0  0
  -22.7440  -29.4590   22.5400 C   0  0  0  0  0  0  0  0  0  0  0  0
  -21.4150  -29.2970   22.4140 N   0  0  0  0  0  0  0  0  0  0  0  0
  -23.4080  -28.8310   23.3710 O   0  0  0  0  0  0  0  0  0  0  0  0
  -20.9350  -29.8500   21.7180 H   0  0  0  0  0  0  0  0  0  0  0  0
  -18.0210  -28.1220   22.9370 C   0  0  0  0  0  0  0  0  0  0  0  0
  -20.5850  -28.3660   23.1870 C   0  0  0  0  0  3  0  0  0  0  0  0
  -20.6730  -26.9330   22.6090 C   0  0  0  0  0  2  0  0  0  0  0  0
  -19.5630  -26.6190   21.6030 C   0  0  0  0  0  2  0  0  0  0  0  0
  -18.1840  -26.7740   22.2540 C   0  0  0  0  0  2  0  0  0  0  0  0
  -19.1480  -28.8770   23.3610 C   0  0  0  0  0  0  0  0  0  0  0  0
  -18.9400  -30.1380   23.9600 C   0  0  0  0  0  3  0  0  0  0  0  0
  -17.6400  -30.6420   24.1410 C   0  0  0  0  0  3  0  0  0  0  0  0
  -16.5280  -29.8860   23.7310 C   0  0  0  0  0  3  0  0  0  0  0  0
  -16.7200  -28.6280   23.1340 C   0  0  0  0  0  3  0  0  0  0  0  0
  -25.8860  -32.5090   23.8420 C   0  0  0  0  0  3  0  0  0  0  0  0
  -25.5620  -33.9100   24.1640 N   0  0  0  0  0  0  0  0  0  0  0  0
  -25.8990  -34.9680   23.4140 C   0  0  0  0  0  0  0  0  0  0  0  0
  -26.5790  -34.8710   22.3900 O   0  0  0  0  0  0  0  0  0  0  0  0
  -24.9590  -34.0600   24.9590 H   0  0  0  0  0  0  0  0  0  0  0  0
  -24.1750  -36.7680   23.0520 C   0  0  0  0  0  1  0  0  0  0  0  0
  -25.4060  -36.3570   23.8750 C   0  0  0  0  0  3  0  0  0  0  0  0
  -27.5300  -37.2450   24.7330 C   0  0  0  0  0  1  0  0  0  0  0  0
  -26.4400  -37.4120   23.7760 N   0  0  0  0  0  0  0  0  0  0  0  0
  -26.0290  -38.3320   23.9170 H   0  0  0  0  0  0  0  0  0  0  0  0
  -26.3840  -31.7550   25.1370 C   0  0  1  0  0  0  0  0  0  0  0  0
  -25.2750  -31.5260   26.1910 C   0  0  0  0  0  1  0  0  0  0  0  0
  -26.9760  -30.3720   24.7790 C   0  0  0  0  0  1  0  0  0  0  0  0
  -27.5230  -32.5600   25.8040 C   0  0  0  0  0  1  0  0  0  0  0  0
  -28.4510  -19.5720   18.6910 C   0  0  0  0  0  2  0  0  0  0  0  0
  -27.0540  -19.7500   19.0710 N   0  0  0  0  0  0  0  0  0  0  0  0
  -26.7280  -18.8980   19.5220 H   0  0  0  0  0  0  0  0  0  0  0  0
  -26.5060  -19.7900   18.2150 H   0  0  0  0  0  0  0  0  0  0  0  0
  1 89  1  0
  1 43  1  0
  2  9  2  0
  3  8  1  0
  4  5  1  0
  4  3  1  0
  6  5  1  0
  6 18  1  0
  6  7  1  0
  8  2  1  0
  8  7  1  0
 10 11  1  0
 12 14  1  0
 12 10  1  0
 13  1  1  0
 13 11  1  0
 14  2  1  0
 14 13  1  0
 15 16  2  0
 16 35  1  0
 17 16  1  0
 17 20  1  0
 18 15  1  0
 18 19  1  0
 19 17  2  0
 20 21  1  0
 21 22  2  0
 23 26  1  0
 23 22  1  0
 24 23  2  0
 25 24  1  0
 25 20  2  0
 26 27  1  0
 27 28  1  0
 28 29  2  0
 30 29  1  0
 30 34  1  0
 31 30  2  0
 32 27  2  0
 32 31  1  0
 33 32  1  0
 35 36  1  0
 36 39  1  0
 36 38  1  0
 37 35  2  0
 40 41  1  0
 40 15  1  0
 42 40  1  0
 43 45  1  0
 44 43  1  0
 46 47  2  0
 46 43  1  0
 48 47  1  0
 49 60  2  0
 50 48  1  0
 50 55  1  0
 51 59  1  0
 51 61  1  0
 52 58  1  0
 52 54  1  0
 53 59  1  0
 54 55  2  0
 54 53  1  0
 56 50  2  0
 57 56  1  0
 57 52  2  0
 58 51  1  0
 59 49  1  0
 61 63  2  0
 62 61  1  0
 64 62  1  0
 65 74  2  0
 65 70  1  0
 66 62  1  0
 66 70  1  0
 67 66  1  0
 68 69  1  0
 68 67  1  0
 69 65  1  0
 70 71  2  0
 71 72  1  0
 73 72  2  0
 74 73  1  0
 75 49  1  0
 75 76  1  0
 75 85  1  0
 76 79  1  0
 77 81  1  0
 77 76  1  0
 78 77  2  0
 81 80  1  0
 83 81  1  0
 83 84  1  0
 83 82  1  0
 85 88  1  1
 85 86  1  0
 87 85  1  0
 89 90  1  0
 90 91  1  0
 92 90  1  0
M  ISO  4   2 100  14 100  47 101  48 101
M  END
>  <TORSDO>  (94) 
F 21

>  <SCORE>  (94) 
-15.099

>  <name>  (94) 
94

>  <ligand_id>  (94) 
94

>  <original_smiles>  (94) 
[H]c1c([H])c([H])c2c(c1[H])C([H])([H])C([H])([H])C([H])([H])C2([H])N([H])C(=O)C1([H])N(C(=O)C([H])(N([H])C(=O)C([H])(N([H])C([H])([H])[H])C([H])([H])[H])C(C([H])([H])[H])(C([H])([H])[H])C([H])([H])[H])C([H])([H])c2c([H])c(OC([H])([H])C([H])([H])[N+]([H])([H])C([H])(C([H])([H])N([H])[H])C3([H])N(C(=O)N4C([H])([H])C([H])([H])C([H])([H])C([H])(n5nc(-c6c([H])c([H])c(Oc7c([H])c([H])c(F)c([H])c7F)c([H])c6[H])c(C(=O)N([H])[H])c5N([H])[H])C4([H])[H])C([H])([H])C([H])([H])C3([H])[H])c([H])c([H])c2C1([H])[H]

>  <smiles>  (94) 
[H]c1c([H])c([H])c2c(c1[H])C([H])([H])C([H])([H])C([H])([H])C2([H])N([H])C(=O)C1([H])N(C(=O)C([H])(N([H])C(=O)C([H])(N([H])C([H])([H])[H])C([H])([H])[H])C(C([H])([H])[H])(C([H])([H])[H])C([H])([H])[H])C([H])([H])c2c([H])c(OC([H])([H])C([H])([H])[N+]([H])([H])C([H])(C([H])([H])N([H])[H])C3([H])N(C(=O)N4C([H])([H])C([H])([H])C([H])([H])C([H])(n5nc(-c6c([H])c([H])c(Oc7c([H])c([H])c(F)c([H])c7F)c([H])c6[H])c(C(=O)N([H])[H])c5N([H])[H])C4([H])[H])C([H])([H])C([H])([H])C3([H])[H])c([H])c([H])c2C1([H])[H]

$$$$
95:0:0
     RDKit          3D

 95104  0  0  1  0  0  0  0  0999 V2000
  -27.7890  -21.1520   19.4210 C   0  0  0  0  0  2  0  0  0  0  0  0
  -30.1440  -21.6940   19.8220 C   0  0  0  0  0  2  0  0  0  0  0  0
  -27.5020  -22.5800   18.9120 C   0  0  0  0  0  2  0  0  0  0  0  0
  -29.9210  -23.1640   19.3460 C   0  0  0  0  0  2  0  0  0  0  0  0
  -29.2140  -20.7660   19.0350 C   0  0  0  0  0  3  0  0  0  0  0  0
  -28.4910  -23.6330   19.3210 N   0  0  1  0  0  4  0  0  0  0  0  0
  -28.2480  -23.8910   20.2680 H   0  0  0  0  0  0  0  0  0  0  0  0
  -29.5860  -17.2680   17.5740 C   0  0  0  0  0  3  0  0  0  0  0  0
  -29.8960  -16.4800   18.6890 C   0  0  0  0  0  3  0  0  0  0  0  0
  -29.3860  -18.6430   17.7340 C   0  0  0  0  0  3  0  0  0  0  0  0
  -29.8070  -18.4350   20.1320 C   0  0  0  0  0  3  0  0  0  0  0  0
  -30.0250  -17.0260   19.9880 C   0  0  0  0  0  0  0  0  0  0  0  0
  -29.4920  -19.2510   19.0030 C   0  0  0  0  0  0  0  0  0  0  0  0
  -30.3280  -16.0970   21.1480 C   0  0  0  0  0  0  0  0  0  0  0  0
  -29.9870  -16.3850   22.3350 N   0  0  0  0  0  0  0  0  0  0  0  0
  -29.4890  -17.2660   22.3650 H   0  0  0  0  0  0  0  0  0  0  0  0
  -31.1260  -14.8170   20.7990 C   0  0  0  0  0  0  0  0  0  0  0  0
  -30.8790  -12.6140   19.7120 C   0  0  0  0  0  2  0  0  0  0  0  0
  -30.0240  -12.7380   18.4300 C   0  0  0  0  0  2  0  0  0  0  0  0
  -28.5140  -12.6950   18.7490 C   0  0  0  0  0  2  0  0  0  0  0  0
  -28.1020  -13.5530   19.9760 C   0  0  0  0  0  3  0  0  0  0  0  0
  -29.0780  -13.3470   21.1520 C   0  0  0  0  0  2  0  0  0  0  0  0
  -30.4370  -13.6410   20.6740 N   0  0  0  0  0  0  0  0  0  0  0  0
  -32.3040  -14.9350   20.4500 O   0  0  0  0  0  0  0  0  0  0  0  0
  -25.6680  -14.1850   20.5280 C   0  0  0  0  0  0  0  0  0  0  0  0
  -24.5730  -13.4240   20.8340 C   0  0  0  0  0  0  0  0  0  0  0  0
  -25.0260  -12.0690   20.8520 C   0  0  0  0  0  0  0  0  0  0  0  0
  -26.7200  -13.2940   20.3740 N   0  0  0  0  0  0  0  0  0  0  0  0
  -26.3330  -12.0180   20.6320 N   0  0  0  0  0  0  0  0  0  0  0  0
  -24.2800  -10.8130   21.0080 C   0  0  0  0  0  0  0  0  0  0  0  0
  -24.6470   -9.8530   21.9750 C   0  0  0  0  0  3  0  0  0  0  0  0
  -23.9030   -8.6610   22.1190 C   0  0  0  0  0  3  0  0  0  0  0  0
  -22.7790   -8.4230   21.2920 C   0  0  0  0  0  0  0  0  0  0  0  0
  -22.4340   -9.3720   20.3150 C   0  0  0  0  0  3  0  0  0  0  0  0
  -23.1780  -10.5550   20.1700 C   0  0  0  0  0  3  0  0  0  0  0  0
  -22.0140   -7.2830   21.3420 O   0  0  0  0  0  0  0  0  0  0  0  0
  -21.8640   -6.5670   22.5030 C   0  0  0  0  0  0  0  0  0  0  0  0
  -21.3500   -7.1540   23.6800 C   0  0  0  0  0  3  0  0  0  0  0  0
  -21.1470   -6.3650   24.8290 C   0  0  0  0  0  3  0  0  0  0  0  0
  -21.4480   -4.9910   24.8020 C   0  0  0  0  0  0  0  0  0  0  0  0
  -21.9550   -4.4030   23.6290 C   0  0  0  0  0  3  0  0  0  0  0  0
  -22.1590   -5.1890   22.4830 C   0  0  0  0  0  0  0  0  0  0  0  0
  -22.6280   -4.6140   21.3490 F   0  0  0  0  0  0  0  0  0  0  0  0
  -21.2470   -4.2300   25.9040 F   0  0  0  0  0  0  0  0  0  0  0  0
  -23.1640  -13.9130   21.0050 C   0  0  0  0  0  0  0  0  0  0  0  0
  -22.3790  -13.2400   21.8410 N   0  0  0  0  0  0  0  0  0  0  0  0
  -22.7640  -14.9250   20.4340 O   0  0  0  0  0  0  0  0  0  0  0  0
  -22.7140  -12.4220   22.3280 H   0  0  0  0  0  0  0  0  0  0  0  0
  -21.4310  -13.5500   21.9990 H   0  0  0  0  0  0  0  0  0  0  0  0
  -25.8540  -15.5530   20.3460 N   0  0  0  0  0  0  0  0  0  0  0  0
  -25.0870  -16.2140   20.4010 H   0  0  0  0  0  0  0  0  0  0  0  0
  -26.7330  -15.9870   20.0960 H   0  0  0  0  0  0  0  0  0  0  0  0
  -28.2870  -24.8400   18.4440 C   0  0  0  0  0  2  0  0  0  0  0  0
  -28.8180  -26.2180   18.9390 C   0  0  0  0  0  2  0  0  0  0  0  0
  -28.2620  -26.7920   20.1330 O   0  0  0  0  0  0  0  0  0  0  0  0
  -24.5430  -31.9680   23.3000 C   0  0  0  0  0  0  0  0  0  0  0  0
  -27.1120  -27.5580   20.0810 C   0  0  0  0  0  0  0  0  0  0  0  0
  -23.2990  -30.5910   21.6680 C   0  0  0  0  0  3  0  0  0  0  0  0
  -24.7180  -29.0790   20.1820 C   0  0  0  0  0  0  0  0  0  0  0  0
  -25.8220  -30.9460   21.4190 C   0  0  0  0  0  2  0  0  0  0  0  0
  -25.8910  -29.5850   20.7510 C   0  0  0  0  0  0  0  0  0  0  0  0
  -27.0870  -28.8290   20.7070 C   0  0  0  0  0  3  0  0  0  0  0  0
  -25.9100  -27.0630   19.5270 C   0  0  0  0  0  3  0  0  0  0  0  0
  -24.7220  -27.8160   19.5690 C   0  0  0  0  0  3  0  0  0  0  0  0
  -23.4760  -29.9350   20.2730 C   0  0  0  0  0  2  0  0  0  0  0  0
  -24.5750  -31.1820   22.1870 N   0  0  0  0  0  0  0  0  0  0  0  0
  -23.4750  -32.2330   23.8690 O   0  0  0  0  0  0  0  0  0  0  0  0
  -22.6690  -29.5550   22.6280 C   0  0  0  0  0  0  0  0  0  0  0  0
  -21.3480  -29.3470   22.5020 N   0  0  0  0  0  0  0  0  0  0  0  0
  -23.3660  -28.9420   23.4420 O   0  0  0  0  0  0  0  0  0  0  0  0
  -20.8470  -29.8940   21.8180 H   0  0  0  0  0  0  0  0  0  0  0  0
  -18.0050  -28.0550   22.9720 C   0  0  0  0  0  0  0  0  0  0  0  0
  -20.5510  -28.3940   23.2740 C   0  0  0  0  0  3  0  0  0  0  0  0
  -20.7050  -26.9590   22.7170 C   0  0  0  0  0  2  0  0  0  0  0  0
  -19.6260  -26.5920   21.6920 C   0  0  0  0  0  2  0  0  0  0  0  0
  -18.2320  -26.7030   22.3160 C   0  0  0  0  0  2  0  0  0  0  0  0
  -19.0940  -28.8550   23.4080 C   0  0  0  0  0  0  0  0  0  0  0  0
  -18.8300  -30.1190   23.9790 C   0  0  0  0  0  3  0  0  0  0  0  0
  -17.5090  -30.5830   24.1210 C   0  0  0  0  0  3  0  0  0  0  0  0
  -16.4340  -29.7800   23.7030 C   0  0  0  0  0  3  0  0  0  0  0  0
  -16.6830  -28.5180   23.1340 C   0  0  0  0  0  3  0  0  0  0  0  0
  -25.8440  -32.5900   23.8980 C   0  0  0  0  0  3  0  0  0  0  0  0
  -26.3730  -31.8200   25.1700 C   0  0  1  0  0  0  0  0  0  0  0  0
  -25.2940  -31.5930   26.2530 C   0  0  0  0  0  1  0  0  0  0  0  0
  -26.9440  -30.4390   24.7740 C   0  0  0  0  0  1  0  0  0  0  0  0
  -27.5370  -32.6120   25.8140 C   0  0  0  0  0  1  0  0  0  0  0  0
  -25.5540  -33.9930   24.2220 N   0  0  0  0  0  0  0  0  0  0  0  0
  -25.8930  -35.0370   23.4530 C   0  0  0  0  0  0  0  0  0  0  0  0
  -26.5550  -34.9190   22.4190 O   0  0  0  0  0  0  0  0  0  0  0  0
  -24.9670  -34.1590   25.0260 H   0  0  0  0  0  0  0  0  0  0  0  0
  -24.1820  -36.8460   23.1000 C   0  0  0  0  0  1  0  0  0  0  0  0
  -25.4260  -36.4330   23.9050 C   0  0  0  0  0  3  0  0  0  0  0  0
  -27.5760  -37.2970   24.7130 C   0  0  0  0  0  1  0  0  0  0  0  0
  -26.4680  -37.4740   23.7780 N   0  0  0  0  0  0  0  0  0  0  0  0
  -26.0750  -38.3990   23.9230 H   0  0  0  0  0  0  0  0  0  0  0  0
  3  6  1  0
  3  1  1  0
  4  2  1  0
  5 13  1  0
  5  1  1  0
  5  2  1  0
  6  4  1  0
  6  7  1  1
  8 10  2  0
  8  9  1  0
  9 12  2  0
 10 13  1  0
 12 11  1  0
 12 14  1  0
 13 11  2  0
 14 15  2  0
 15 16  1  0
 17 14  1  0
 18 23  1  0
 19 20  1  0
 19 18  1  0
 21 20  1  0
 21 28  1  0
 21 22  1  0
 23 17  1  0
 23 22  1  0
 24 17  2  0
 25 26  2  0
 26 27  1  0
 26 45  1  0
 27 30  1  0
 28 25  1  0
 28 29  1  0
 29 27  2  0
 30 31  1  0
 31 32  2  0
 33 36  1  0
 33 32  1  0
 34 33  2  0
 35 34  1  0
 35 30  2  0
 36 37  1  0
 37 38  1  0
 38 39  2  0
 40 39  1  0
 40 44  1  0
 41 40  2  0
 42 37  2  0
 42 41  1  0
 43 42  1  0
 45 46  1  0
 46 49  1  0
 46 48  1  0
 47 45  2  0
 50 51  1  0
 50 25  1  0
 52 50  1  0
 53 54  1  0
 53  6  1  0
 54 55  1  0
 56 67  2  0
 57 55  1  0
 57 62  1  0
 58 66  1  0
 58 68  1  0
 59 65  1  0
 59 61  1  0
 60 66  1  0
 61 60  1  0
 62 61  2  0
 63 64  1  0
 63 57  2  0
 64 59  2  0
 65 58  1  0
 66 56  1  0
 68 70  2  0
 69 68  1  0
 71 69  1  0
 72 81  2  0
 72 77  1  0
 73 69  1  0
 73 77  1  0
 74 73  1  0
 75 76  1  0
 75 74  1  0
 76 72  1  0
 77 78  2  0
 78 79  1  0
 80 79  2  0
 81 80  1  0
 82 56  1  0
 82 87  1  0
 82 83  1  0
 83 86  1  1
 83 84  1  0
 85 83  1  0
 87 90  1  0
 88 92  1  0
 88 87  1  0
 89 88  2  0
 92 91  1  0
 94 92  1  0
 94 95  1  0
 94 93  1  0
M  ISO  4  14 100  17 100  54 101  55 101
M  END
>  <TORSDO>  (95) 
F 20

>  <SCORE>  (95) 
-12.911

>  <name>  (95) 
95

>  <ligand_id>  (95) 
95

>  <original_smiles>  (95) 
[H]N=C(C(=O)N1C([H])([H])C([H])([H])C([H])([H])C([H])(n2nc(-c3c([H])c([H])c(Oc4c([H])c([H])c(F)c([H])c4F)c([H])c3[H])c(C(=O)N([H])[H])c2N([H])[H])C1([H])[H])c1c([H])c([H])c([H])c(C2([H])C([H])([H])C([H])([H])[N+]([H])(C([H])([H])C([H])([H])Oc3c([H])c([H])c4c(c3[H])C([H])([H])N(C(=O)C([H])(N([H])C(=O)C([H])(N([H])C([H])([H])[H])C([H])([H])[H])C(C([H])([H])[H])(C([H])([H])[H])C([H])([H])[H])C([H])(C(=O)N([H])C3([H])c5c([H])c([H])c([H])c([H])c5C([H])([H])C([H])([H])C3([H])[H])C4([H])[H])C([H])([H])C2([H])[H])c1[H]

>  <smiles>  (95) 
[H]N=C(C(=O)N1C([H])([H])C([H])([H])C([H])([H])C([H])(n2nc(-c3c([H])c([H])c(Oc4c([H])c([H])c(F)c([H])c4F)c([H])c3[H])c(C(=O)N([H])[H])c2N([H])[H])C1([H])[H])c1c([H])c([H])c([H])c(C2([H])C([H])([H])C([H])([H])[N+]([H])(C([H])([H])C([H])([H])Oc3c([H])c([H])c4c(c3[H])C([H])([H])N(C(=O)C([H])(N([H])C(=O)C([H])(N([H])C([H])([H])[H])C([H])([H])[H])C(C([H])([H])[H])(C([H])([H])[H])C([H])([H])[H])C([H])(C(=O)N([H])C3([H])c5c([H])c([H])c([H])c([H])c5C([H])([H])C([H])([H])C3([H])[H])C4([H])[H])C([H])([H])C2([H])[H])c1[H]

$$$$
