0:0:0
     RDKit          3D

 96104  0  0  1  0  0  0  0  0999 V2000
  -28.8830  -19.3820   21.8110 C   0  0  0  0  0  2  0  0  0  0  0  0
  -28.2240  -19.8980   20.5170 C   0  0  0  0  0  2  0  0  0  0  0  0
  -31.1820  -19.0040   20.7280 C   0  0  0  0  0  2  0  0  0  0  0  0
  -30.3800  -19.7340   21.8510 C   0  0  0  0  0  3  0  0  0  0  0  0
  -30.3180  -18.5300   19.5240 C   0  0  0  0  0  3  0  0  0  0  0  0
  -29.1720  -19.8990   19.2960 C   0  0  0  0  0  3  0  0  0  0  0  0
  -30.8100  -15.5890   19.5080 C   0  0  0  0  0  0  0  0  0  0  0  0
  -30.7160  -13.1350   18.6580 C   0  0  0  0  0  2  0  0  0  0  0  0
  -29.6740  -12.8690   17.5420 C   0  0  0  0  0  2  0  0  0  0  0  0
  -28.2960  -12.5790   18.1540 C   0  0  0  0  0  2  0  0  0  0  0  0
  -27.9420  -13.5780   19.2820 C   0  0  0  0  0  3  0  0  0  0  0  0
  -29.0930  -13.7760   20.2900 C   0  0  0  0  0  2  0  0  0  0  0  0
  -30.2440  -14.2800   19.5240 N   0  0  0  0  0  0  0  0  0  0  0  0
  -31.9920  -15.5800   19.1380 O   0  0  0  0  0  0  0  0  0  0  0  0
  -30.0700  -16.8700   19.7090 N   0  0  0  0  0  0  0  0  0  0  0  0
  -29.1240  -16.6820   20.0070 H   0  0  0  0  0  0  0  0  0  0  0  0
  -25.7120  -14.1430   20.3750 C   0  0  0  0  0  0  0  0  0  0  0  0
  -24.6750  -13.3660   20.8170 C   0  0  0  0  0  0  0  0  0  0  0  0
  -25.0850  -12.0110   20.6220 C   0  0  0  0  0  0  0  0  0  0  0  0
  -26.6800  -13.2600   19.9320 N   0  0  0  0  0  0  0  0  0  0  0  0
  -26.3240  -11.9660   20.1470 N   0  0  0  0  0  0  0  0  0  0  0  0
  -24.3410  -10.7580   20.8020 C   0  0  0  0  0  0  0  0  0  0  0  0
  -24.7550   -9.7760   21.7290 C   0  0  0  0  0  3  0  0  0  0  0  0
  -24.0090   -8.5890   21.8940 C   0  0  0  0  0  3  0  0  0  0  0  0
  -22.8340   -8.3780   21.1330 C   0  0  0  0  0  0  0  0  0  0  0  0
  -22.4420   -9.3470   20.1940 C   0  0  0  0  0  3  0  0  0  0  0  0
  -23.1900  -10.5250   20.0250 C   0  0  0  0  0  3  0  0  0  0  0  0
  -22.0570   -7.2470   21.2130 O   0  0  0  0  0  0  0  0  0  0  0  0
  -21.8650   -6.5890   22.4020 C   0  0  0  0  0  0  0  0  0  0  0  0
  -21.2700   -7.2200   23.5160 C   0  0  0  0  0  3  0  0  0  0  0  0
  -21.0240   -6.4860   24.6940 C   0  0  0  0  0  3  0  0  0  0  0  0
  -21.3670   -5.1220   24.7590 C   0  0  0  0  0  0  0  0  0  0  0  0
  -21.9560   -4.4910   23.6490 C   0  0  0  0  0  3  0  0  0  0  0  0
  -22.2020   -5.2220   22.4730 C   0  0  0  0  0  0  0  0  0  0  0  0
  -22.7490   -4.6030   21.4000 F   0  0  0  0  0  0  0  0  0  0  0  0
  -21.1260   -4.4140   25.8880 F   0  0  0  0  0  0  0  0  0  0  0  0
  -23.3400  -13.8590   21.2890 C   0  0  0  0  0  0  0  0  0  0  0  0
  -22.7030  -13.1230   22.1920 N   0  0  0  0  0  0  0  0  0  0  0  0
  -22.8800  -14.9310   20.8970 O   0  0  0  0  0  0  0  0  0  0  0  0
  -23.0890  -12.2500   22.5200 H   0  0  0  0  0  0  0  0  0  0  0  0
  -21.8100  -13.4300   22.5520 H   0  0  0  0  0  0  0  0  0  0  0  0
  -25.9050  -15.5180   20.2780 N   0  0  0  0  0  0  0  0  0  0  0  0
  -25.1890  -16.1890   20.5310 H   0  0  0  0  0  0  0  0  0  0  0  0
  -26.6730  -15.9380   19.7700 H   0  0  0  0  0  0  0  0  0  0  0  0
  -29.5000  -21.4860   18.8830 N   0  0  0  0  0  4  0  0  0  0  0  0
  -29.3950  -21.4860   17.8790 H   0  0  0  0  0  0  0  0  0  0  0  0
  -30.4890  -21.6060   19.0290 H   0  0  0  0  0  0  0  0  0  0  0  0
  -28.7970  -22.9250   19.3700 C   0  0  0  0  0  2  0  0  0  0  0  0
  -28.8280  -24.5560   18.6230 C   0  0  0  0  0  2  0  0  0  0  0  0
  -28.6650  -26.1270   19.0910 O   0  0  0  0  0  0  0  0  0  0  0  0
  -24.6010  -31.2420   22.7700 C   0  0  0  0  0  0  0  0  0  0  0  0
  -27.5390  -27.0960   19.1050 C   0  0  0  0  0  0  0  0  0  0  0  0
  -23.5060  -29.9770   20.9600 C   0  0  0  0  0  3  0  0  0  0  0  0
  -25.0690  -28.7170   19.3250 C   0  0  0  0  0  0  0  0  0  0  0  0
  -26.0320  -30.4570   20.8180 C   0  0  0  0  0  2  0  0  0  0  0  0
  -26.2200  -29.1550   19.9870 C   0  0  0  0  0  0  0  0  0  0  0  0
  -27.4410  -28.3600   19.8690 C   0  0  0  0  0  3  0  0  0  0  0  0
  -26.3480  -26.8070   18.4060 C   0  0  0  0  0  3  0  0  0  0  0  0
  -25.1510  -27.5620   18.5250 C   0  0  0  0  0  3  0  0  0  0  0  0
  -23.7710  -29.5010   19.5030 C   0  0  0  0  0  2  0  0  0  0  0  0
  -24.7340  -30.5800   21.5750 N   0  0  0  0  0  0  0  0  0  0  0  0
  -23.4970  -31.3500   23.3330 O   0  0  0  0  0  0  0  0  0  0  0  0
  -22.9250  -28.8050   21.7890 C   0  0  0  0  0  0  0  0  0  0  0  0
  -21.6110  -28.5420   21.6630 N   0  0  0  0  0  0  0  0  0  0  0  0
  -23.6620  -28.1340   22.5170 O   0  0  0  0  0  0  0  0  0  0  0  0
  -21.0590  -29.1440   21.0680 H   0  0  0  0  0  0  0  0  0  0  0  0
  -18.3480  -27.0230   22.0840 C   0  0  0  0  0  0  0  0  0  0  0  0
  -20.8930  -27.4340   22.3020 C   0  0  0  0  0  3  0  0  0  0  0  0
  -21.0650  -26.1210   21.5000 C   0  0  0  0  0  2  0  0  0  0  0  0
  -19.9420  -25.8830   20.4870 C   0  0  0  0  0  2  0  0  0  0  0  0
  -18.5860  -25.8190   21.1930 C   0  0  0  0  0  2  0  0  0  0  0  0
  -19.4300  -27.7910   22.5930 C   0  0  0  0  0  0  0  0  0  0  0  0
  -19.1480  -28.9220   23.3890 C   0  0  0  0  0  3  0  0  0  0  0  0
  -17.8200  -29.2830   23.6850 C   0  0  0  0  0  3  0  0  0  0  0  0
  -16.7560  -28.5110   23.1880 C   0  0  0  0  0  3  0  0  0  0  0  0
  -17.0190  -27.3830   22.3900 C   0  0  0  0  0  3  0  0  0  0  0  0
  -25.8170  -31.9060   23.4810 C   0  0  0  0  0  3  0  0  0  0  0  0
  -25.4070  -33.2480   23.9290 N   0  0  0  0  0  0  0  0  0  0  0  0
  -25.7150  -34.3930   23.3060 C   0  0  0  0  0  0  0  0  0  0  0  0
  -26.4410  -34.4350   22.3100 O   0  0  0  0  0  0  0  0  0  0  0  0
  -24.7720  -33.2860   24.7120 H   0  0  0  0  0  0  0  0  0  0  0  0
  -23.9170  -36.1370   23.0450 C   0  0  0  0  0  1  0  0  0  0  0  0
  -25.1320  -35.7010   23.8790 C   0  0  0  0  0  3  0  0  0  0  0  0
  -27.1590  -36.6090   24.9270 C   0  0  0  0  0  1  0  0  0  0  0  0
  -26.1060  -36.8100   23.9360 N   0  0  0  0  0  0  0  0  0  0  0  0
  -25.6390  -37.6900   24.1420 H   0  0  0  0  0  0  0  0  0  0  0  0
  -26.3520  -31.0640   24.7050 C   0  0  1  0  0  0  0  0  0  0  0  0
  -25.2540  -30.6740   25.7220 C   0  0  0  0  0  1  0  0  0  0  0  0
  -27.0210  -29.7570   24.2180 C   0  0  0  0  0  1  0  0  0  0  0  0
  -27.4400  -31.8630   25.4580 C   0  0  0  0  0  1  0  0  0  0  0  0
  -30.9830  -19.6460   23.2740 C   0  0  0  0  0  2  0  0  0  0  0  0
  -30.5620  -18.4070   24.0960 C   0  0  0  0  0  2  0  0  0  0  0  0
  -30.1400  -18.7490   25.4650 N   0  0  0  0  0  4  0  0  0  0  0  0
  -30.8460  -19.2890   25.9320 H   0  0  0  0  0  0  0  0  0  0  0  0
  -29.9890  -17.9100   25.9970 H   0  0  0  0  0  0  0  0  0  0  0  0
  -29.2790  -19.2670   25.4580 H   0  0  0  0  0  0  0  0  0  0  0  0
  1  4  1  0
  2  1  1  0
  3  4  1  0
  4 91  1  0
  5 15  1  0
  5  3  1  0
  6 45  1  0
  6  5  1  0
  6  2  1  0
  7 13  1  0
  7 15  1  0
  8 13  1  0
  9 10  1  0
  9  8  1  0
 11 10  1  0
 11 20  1  0
 11 12  1  0
 13 12  1  0
 14  7  2  0
 15 16  1  0
 17 18  2  0
 18 37  1  0
 19 22  1  0
 19 18  1  0
 20 21  1  0
 20 17  1  0
 21 19  2  0
 22 23  1  0
 23 24  2  0
 25 28  1  0
 25 24  1  0
 26 25  2  0
 27 26  1  0
 27 22  2  0
 28 29  1  0
 29 34  2  0
 29 30  1  0
 30 31  2  0
 31 32  1  0
 32 36  1  0
 33 32  2  0
 34 33  1  0
 35 34  1  0
 37 38  1  0
 38 40  1  0
 38 41  1  0
 39 37  2  0
 42 17  1  0
 42 43  1  0
 44 42  1  0
 45 47  1  0
 45 48  1  0
 46 45  1  0
 49 50  1  0
 49 48  1  0
 50 52  1  0
 51 62  2  0
 52 57  1  0
 53 61  1  0
 53 63  1  0
 54 60  1  0
 54 56  1  0
 55 61  1  0
 56 55  1  0
 57 56  2  0
 58 59  1  0
 58 52  2  0
 59 54  2  0
 60 53  1  0
 61 51  1  0
 63 65  2  0
 64 63  1  0
 66 64  1  0
 67 76  2  0
 67 72  1  0
 68 64  1  0
 68 72  1  0
 69 68  1  0
 70 71  1  0
 70 69  1  0
 71 67  1  0
 72 73  2  0
 73 74  1  0
 75 74  2  0
 76 75  1  0
 77 51  1  0
 77 78  1  0
 77 87  1  0
 78 81  1  0
 79 83  1  0
 79 78  1  0
 80 79  2  0
 83 82  1  0
 83 85  1  0
 85 86  1  0
 85 84  1  0
 87 90  1  1
 87 88  1  0
 89 87  1  0
 91 92  1  0
 92 93  1  0
 93 94  1  0
 93 95  1  0
 96 93  1  0
M  ISO  4   7 100  15 100  49 101  50 101
M  END
>  <TORSDO>  (1) 
F 22

>  <SCORE>  (1) 
-8.706

>  <name>  (1) 
0

>  <ligand_id>  (1) 
0

>  <original_smiles>  (1) 
[H]c1c([H])c([H])c2c(c1[H])C([H])([H])C([H])([H])C([H])([H])C2([H])N([H])C(=O)C1([H])N(C(=O)C([H])(N([H])C(=O)C([H])(N([H])C([H])([H])[H])C([H])([H])[H])C(C([H])([H])[H])(C([H])([H])[H])C([H])([H])[H])C([H])([H])c2c([H])c(OC([H])([H])C([H])([H])[N+]([H])([H])C3([H])C([H])([H])C([H])([H])C([H])(C([H])([H])C([H])([H])[N+]([H])([H])[H])C([H])([H])C3([H])N([H])C(=O)N3C([H])([H])C([H])([H])C([H])([H])C([H])(n4nc(-c5c([H])c([H])c(Oc6c([H])c([H])c(F)c([H])c6F)c([H])c5[H])c(C(=O)N([H])[H])c4N([H])[H])C3([H])[H])c([H])c([H])c2C1([H])[H]

>  <smiles>  (1) 
[H]c1c([H])c([H])c2c(c1[H])C([H])([H])C([H])([H])C([H])([H])C2([H])N([H])C(=O)C1([H])N(C(=O)C([H])(N([H])C(=O)C([H])(N([H])C([H])([H])[H])C([H])([H])[H])C(C([H])([H])[H])(C([H])([H])[H])C([H])([H])[H])C([H])([H])c2c([H])c(OC([H])([H])C([H])([H])[N+]([H])([H])C3([H])C([H])([H])C([H])([H])C([H])(C([H])([H])C([H])([H])[N+]([H])([H])[H])C([H])([H])C3([H])N([H])C(=O)N3C([H])([H])C([H])([H])C([H])([H])C([H])(n4nc(-c5c([H])c([H])c(Oc6c([H])c([H])c(F)c([H])c6F)c([H])c5[H])c(C(=O)N([H])[H])c4N([H])[H])C3([H])[H])c([H])c([H])c2C1([H])[H]

$$$$
1:0:0
     RDKit          3D

 93101  0  0  1  0  0  0  0  0999 V2000
  -29.3410  -19.6460   20.0290 C   0  0  0  0  0  3  0  0  0  0  0  0
  -28.8120  -18.9720   21.2780 C   0  0  0  0  0  2  0  0  0  0  0  0
  -29.9960  -18.8220   22.2680 C   0  0  0  0  0  2  0  0  0  0  0  0
  -31.1960  -18.0100   21.7070 C   0  0  0  0  0  2  0  0  0  0  0  0
  -30.3050  -18.2860   19.3610 C   0  0  0  0  0  3  0  0  0  0  0  0
  -31.5920  -18.3590   20.2370 C   0  0  0  0  0  3  0  0  0  0  0  0
  -29.0050  -21.0440   20.0570 N   0  0  0  0  0  2  0  0  0  0  0  0
  -30.7650  -15.3280   19.3520 C   0  0  0  0  0  0  0  0  0  0  0  0
  -30.6970  -12.8090   18.6820 C   0  0  0  0  0  2  0  0  0  0  0  0
  -29.6880  -12.4690   17.5570 C   0  0  0  0  0  2  0  0  0  0  0  0
  -28.2810  -12.2350   18.1350 C   0  0  0  0  0  2  0  0  0  0  0  0
  -27.9070  -13.3000   19.1960 C   0  0  0  0  0  3  0  0  0  0  0  0
  -29.0370  -13.5600   20.2130 C   0  0  0  0  0  2  0  0  0  0  0  0
  -30.1980  -14.0210   19.4350 N   0  0  0  0  0  0  0  0  0  0  0  0
  -31.9740  -15.2940   19.0820 O   0  0  0  0  0  0  0  0  0  0  0  0
  -30.0100  -16.6190   19.3790 N   0  0  0  0  0  0  0  0  0  0  0  0
  -29.0260  -16.4330   19.4920 H   0  0  0  0  0  0  0  0  0  0  0  0
  -25.6590  -13.9440   20.2070 C   0  0  0  0  0  0  0  0  0  0  0  0
  -24.6020  -13.2050   20.6620 C   0  0  0  0  0  0  0  0  0  0  0  0
  -24.9970  -11.8370   20.5490 C   0  0  0  0  0  0  0  0  0  0  0  0
  -26.6270  -13.0280   19.8350 N   0  0  0  0  0  0  0  0  0  0  0  0
  -26.2490  -11.7530   20.1080 N   0  0  0  0  0  0  0  0  0  0  0  0
  -24.2300  -10.6050   20.7760 C   0  0  0  0  0  0  0  0  0  0  0  0
  -24.5910   -9.6840   21.7830 C   0  0  0  0  0  3  0  0  0  0  0  0
  -23.8220   -8.5190   21.9960 C   0  0  0  0  0  3  0  0  0  0  0  0
  -22.6780   -8.2670   21.2010 C   0  0  0  0  0  0  0  0  0  0  0  0
  -22.3370   -9.1760   20.1840 C   0  0  0  0  0  3  0  0  0  0  0  0
  -23.1060  -10.3330   19.9710 C   0  0  0  0  0  3  0  0  0  0  0  0
  -21.8870   -7.1500   21.3200 O   0  0  0  0  0  0  0  0  0  0  0  0
  -21.6060   -6.5930   22.5430 C   0  0  0  0  0  0  0  0  0  0  0  0
  -20.9490   -7.3210   23.5590 C   0  0  0  0  0  3  0  0  0  0  0  0
  -20.6170   -6.6890   24.7740 C   0  0  0  0  0  3  0  0  0  0  0  0
  -20.9320   -5.3310   24.9720 C   0  0  0  0  0  0  0  0  0  0  0  0
  -21.5810   -4.6040   23.9590 C   0  0  0  0  0  3  0  0  0  0  0  0
  -21.9140   -5.2330   22.7460 C   0  0  0  0  0  0  0  0  0  0  0  0
  -22.5200   -4.5210   21.7660 F   0  0  0  0  0  0  0  0  0  0  0  0
  -20.6070   -4.7220   26.1350 F   0  0  0  0  0  0  0  0  0  0  0  0
  -23.2640  -13.7410   21.0780 C   0  0  0  0  0  0  0  0  0  0  0  0
  -22.5960  -13.0680   22.0070 N   0  0  0  0  0  0  0  0  0  0  0  0
  -22.8230  -14.7910   20.6110 O   0  0  0  0  0  0  0  0  0  0  0  0
  -22.9680  -12.2170   22.4040 H   0  0  0  0  0  0  0  0  0  0  0  0
  -21.7020  -13.4090   22.3290 H   0  0  0  0  0  0  0  0  0  0  0  0
  -25.8660  -15.3100   20.0480 N   0  0  0  0  0  0  0  0  0  0  0  0
  -25.1330  -15.9840   20.2390 H   0  0  0  0  0  0  0  0  0  0  0  0
  -26.6690  -15.7190   19.5880 H   0  0  0  0  0  0  0  0  0  0  0  0
  -32.4150  -19.6750   20.1540 C   0  0  0  0  0  2  0  0  0  0  0  0
  -32.9170  -19.9730   18.7980 N   0  0  0  0  0  4  0  0  0  0  0  0
  -33.4470  -19.2040   18.4280 H   0  0  0  0  0  0  0  0  0  0  0  0
  -33.5250  -20.7720   18.8360 H   0  0  0  0  0  0  0  0  0  0  0  0
  -32.1700  -20.1920   18.1640 H   0  0  0  0  0  0  0  0  0  0  0  0
  -29.2840  -22.6200   19.5500 C   0  0  0  0  0  3  0  0  0  0  0  0
  -28.2480  -24.1030   19.8510 C   0  0  0  0  0  3  0  0  0  0  0  0
  -28.4050  -25.7640   19.7520 O   0  0  0  0  0  0  0  0  0  0  0  0
  -24.5620  -31.4600   22.9880 C   0  0  0  0  0  0  0  0  0  0  0  0
  -27.3340  -26.8180   19.7630 C   0  0  0  0  0  0  0  0  0  0  0  0
  -23.4260  -30.0710   21.3060 C   0  0  0  0  0  3  0  0  0  0  0  0
  -24.9390  -28.5960   19.8090 C   0  0  0  0  0  0  0  0  0  0  0  0
  -25.9770  -30.4160   21.1440 C   0  0  0  0  0  2  0  0  0  0  0  0
  -26.1150  -29.0340   20.4350 C   0  0  0  0  0  0  0  0  0  0  0  0
  -27.3040  -28.1700   20.3840 C   0  0  0  0  0  3  0  0  0  0  0  0
  -26.1170  -26.5390   19.1000 C   0  0  0  0  0  3  0  0  0  0  0  0
  -24.9660  -27.3710   19.1230 C   0  0  0  0  0  3  0  0  0  0  0  0
  -23.6760  -29.4530   19.9020 C   0  0  0  0  0  2  0  0  0  0  0  0
  -24.6760  -30.6750   21.8670 N   0  0  0  0  0  0  0  0  0  0  0  0
  -23.4640  -31.6720   23.5310 O   0  0  0  0  0  0  0  0  0  0  0  0
  -22.7920  -29.0040   22.2370 C   0  0  0  0  0  0  0  0  0  0  0  0
  -21.4710  -28.7720   22.1120 N   0  0  0  0  0  0  0  0  0  0  0  0
  -23.4940  -28.3880   23.0420 O   0  0  0  0  0  0  0  0  0  0  0  0
  -20.9520  -29.3240   21.4440 H   0  0  0  0  0  0  0  0  0  0  0  0
  -18.1640  -27.3610   22.6010 C   0  0  0  0  0  0  0  0  0  0  0  0
  -20.7080  -27.7600   22.8520 C   0  0  0  0  0  3  0  0  0  0  0  0
  -20.8820  -26.3590   22.2200 C   0  0  0  0  0  2  0  0  0  0  0  0
  -19.7890  -26.0160   21.2020 C   0  0  0  0  0  2  0  0  0  0  0  0
  -18.4080  -26.0530   21.8640 C   0  0  0  0  0  2  0  0  0  0  0  0
  -19.2420  -28.1690   23.0500 C   0  0  0  0  0  0  0  0  0  0  0  0
  -18.9570  -29.3870   23.7050 C   0  0  0  0  0  3  0  0  0  0  0  0
  -17.6280  -29.8000   23.9100 C   0  0  0  0  0  3  0  0  0  0  0  0
  -16.5650  -28.9910   23.4740 C   0  0  0  0  0  3  0  0  0  0  0  0
  -16.8330  -27.7730   22.8250 C   0  0  0  0  0  3  0  0  0  0  0  0
  -25.8020  -32.1450   23.6370 C   0  0  0  0  0  3  0  0  0  0  0  0
  -26.3620  -31.3570   24.8870 C   0  0  1  0  0  0  0  0  0  0  0  0
  -25.2860  -31.0260   25.9480 C   0  0  0  0  0  1  0  0  0  0  0  0
  -27.0150  -30.0250   24.4530 C   0  0  0  0  0  1  0  0  0  0  0  0
  -27.4720  -32.1860   25.5760 C   0  0  0  0  0  1  0  0  0  0  0  0
  -25.4130  -33.5110   24.0350 N   0  0  0  0  0  0  0  0  0  0  0  0
  -25.6770  -34.6200   23.3340 C   0  0  0  0  0  0  0  0  0  0  0  0
  -26.3380  -34.6080   22.2920 O   0  0  0  0  0  0  0  0  0  0  0  0
  -24.8190  -33.5890   24.8470 H   0  0  0  0  0  0  0  0  0  0  0  0
  -23.8460  -36.3380   23.1100 C   0  0  0  0  0  1  0  0  0  0  0  0
  -25.1270  -35.9590   23.8710 C   0  0  0  0  0  3  0  0  0  0  0  0
  -27.2220  -36.9310   24.7070 C   0  0  0  0  0  1  0  0  0  0  0  0
  -26.0960  -37.0730   23.7890 N   0  0  0  0  0  0  0  0  0  0  0  0
  -25.6410  -37.9610   23.9820 H   0  0  0  0  0  0  0  0  0  0  0  0
  1  7  1  0
  1  2  1  0
  2  3  1  0
  4  3  1  0
  5 16  1  0
  5  1  1  0
  5  6  1  0
  6 46  1  0
  6  4  1  0
  8 16  1  0
  8 14  1  0
  9 14  1  0
 10 11  1  0
 10  9  1  0
 12 11  1  0
 12 21  1  0
 12 13  1  0
 14 13  1  0
 15  8  2  0
 16 17  1  0
 18 19  2  0
 19 38  1  0
 20 19  1  0
 20 23  1  0
 21 22  1  0
 21 18  1  0
 22 20  2  0
 23 24  1  0
 24 25  2  0
 26 29  1  0
 26 25  1  0
 27 26  2  0
 28 27  1  0
 28 23  2  0
 29 30  1  0
 30 35  2  0
 30 31  1  0
 31 32  2  0
 32 33  1  0
 33 37  1  0
 34 33  2  0
 35 34  1  0
 36 35  1  0
 38 39  1  0
 39 42  1  0
 39 41  1  0
 40 38  2  0
 43 18  1  0
 43 44  1  0
 45 43  1  0
 47 49  1  0
 47 46  1  0
 48 47  1  0
 50 47  1  0
 51 52  2  0
 51  7  1  0
 53 55  1  0
 53 52  1  0
 54 65  2  0
 55 60  1  0
 56 64  1  0
 56 66  1  0
 57 63  1  0
 57 59  1  0
 58 64  1  0
 59 58  1  0
 60 59  2  0
 61 62  1  0
 61 55  2  0
 62 57  2  0
 63 56  1  0
 64 54  1  0
 66 68  2  0
 67 66  1  0
 69 67  1  0
 70 79  2  0
 70 75  1  0
 71 67  1  0
 71 75  1  0
 72 71  1  0
 73 74  1  0
 73 72  1  0
 74 70  1  0
 75 76  2  0
 76 77  1  0
 78 77  2  0
 79 78  1  0
 80 54  1  0
 80 85  1  0
 80 81  1  0
 81 84  1  1
 81 82  1  0
 83 81  1  0
 85 88  1  0
 86 90  1  0
 86 85  1  0
 87 86  2  0
 90 89  1  0
 92 90  1  0
 92 93  1  0
 92 91  1  0
M  ISO  4   8 100  16 100  52 101  53 101
M  END
>  <TORSDO>  (2) 
F 20

>  <SCORE>  (2) 
-12.580

>  <name>  (2) 
1

>  <ligand_id>  (2) 
1

>  <original_smiles>  (2) 
[H]c1c([H])c([H])c2c(c1[H])C([H])([H])C([H])([H])C([H])([H])C2([H])N([H])C(=O)C1([H])N(C(=O)C([H])(N([H])C(=O)C([H])(N([H])C([H])([H])[H])C([H])([H])[H])C(C([H])([H])[H])(C([H])([H])[H])C([H])([H])[H])C([H])([H])c2c([H])c(OC([H])([H])C([H])([H])N=C3C([H])([H])C([H])([H])C([H])([H])C([H])(C([H])([H])[N+]([H])([H])[H])C3([H])N([H])C(=O)N3C([H])([H])C([H])([H])C([H])([H])C([H])(n4nc(-c5c([H])c([H])c(Oc6c([H])c([H])c(F)c([H])c6F)c([H])c5[H])c(C(=O)N([H])[H])c4N([H])[H])C3([H])[H])c([H])c([H])c2C1([H])[H]

>  <smiles>  (2) 
[H]c1c([H])c([H])c2c(c1[H])C([H])([H])C([H])([H])C([H])([H])C2([H])N([H])C(=O)C1([H])N(C(=O)C([H])(N([H])C(=O)C([H])(N([H])C([H])([H])[H])C([H])([H])[H])C(C([H])([H])[H])(C([H])([H])[H])C([H])([H])[H])C([H])([H])c2c([H])c(OC([H])([H])C([H])([H])N=C3C([H])([H])C([H])([H])C([H])([H])C([H])(C([H])([H])[N+]([H])([H])[H])C3([H])N([H])C(=O)N3C([H])([H])C([H])([H])C([H])([H])C([H])(n4nc(-c5c([H])c([H])c(Oc6c([H])c([H])c(F)c([H])c6F)c([H])c5[H])c(C(=O)N([H])[H])c4N([H])[H])C3([H])[H])c([H])c([H])c2C1([H])[H]

$$$$
2:0:0
     RDKit          3D

 91 99  0  0  1  0  0  0  0  0999 V2000
  -28.7410  -22.2070   20.1260 N   0  0  1  0  0  4  0  0  0  0  0  0
  -27.9760  -21.9110   19.5360 H   0  0  0  0  0  0  0  0  0  0  0  0
  -30.5320  -18.7700   18.9310 C   0  0  0  0  0  2  0  0  0  0  0  0
  -29.9530  -20.2390   18.7350 C   0  0  0  0  0  2  0  0  0  0  0  0
  -29.4720  -19.5230   20.9150 C   0  0  0  0  0  2  0  0  0  0  0  0
  -30.4490  -18.3000   20.4160 C   0  0  0  0  0  3  0  0  0  0  0  0
  -29.7350  -20.9390   20.1020 C   0  0  0  0  0  3  0  0  0  0  0  0
  -31.0240  -15.5780   20.6050 C   0  0  0  0  0  0  0  0  0  0  0  0
  -31.0640  -13.1750   19.7840 C   0  0  0  0  0  2  0  0  0  0  0  0
  -30.2100  -13.0260   18.5040 C   0  0  0  0  0  2  0  0  0  0  0  0
  -28.7350  -12.7650   18.8610 C   0  0  0  0  0  2  0  0  0  0  0  0
  -28.2170  -13.7240   19.9650 C   0  0  0  0  0  3  0  0  0  0  0  0
  -29.2020  -13.8450   21.1470 C   0  0  0  0  0  2  0  0  0  0  0  0
  -30.4860  -14.2900   20.5910 N   0  0  0  0  0  0  0  0  0  0  0  0
  -32.2370  -15.6760   20.3870 O   0  0  0  0  0  0  0  0  0  0  0  0
  -30.1930  -16.7420   20.6520 N   0  0  0  0  0  0  0  0  0  0  0  0
  -29.2250  -16.5110   20.8160 H   0  0  0  0  0  0  0  0  0  0  0  0
  -25.8050  -14.2360   20.6470 C   0  0  0  0  0  0  0  0  0  0  0  0
  -24.7390  -13.4310   20.9380 C   0  0  0  0  0  0  0  0  0  0  0  0
  -25.2230  -12.0880   20.8560 C   0  0  0  0  0  0  0  0  0  0  0  0
  -26.8680  -13.3830   20.4000 N   0  0  0  0  0  0  0  0  0  0  0  0
  -26.5240  -12.0830   20.5920 N   0  0  0  0  0  0  0  0  0  0  0  0
  -24.5050  -10.8100   20.9550 C   0  0  0  0  0  0  0  0  0  0  0  0
  -24.8960   -9.8120   21.8740 C   0  0  0  0  0  3  0  0  0  0  0  0
  -24.1750   -8.6000   21.9640 C   0  0  0  0  0  3  0  0  0  0  0  0
  -23.0520   -8.3780   21.1330 C   0  0  0  0  0  0  0  0  0  0  0  0
  -22.6820   -9.3670   20.2030 C   0  0  0  0  0  3  0  0  0  0  0  0
  -23.4020  -10.5690   20.1120 C   0  0  0  0  0  3  0  0  0  0  0  0
  -22.3090   -7.2220   21.1310 O   0  0  0  0  0  0  0  0  0  0  0  0
  -22.1580   -6.4640   22.2650 C   0  0  0  0  0  0  0  0  0  0  0  0
  -21.5950   -6.9930   23.4460 C   0  0  0  0  0  3  0  0  0  0  0  0
  -21.3930   -6.1600   24.5640 C   0  0  0  0  0  3  0  0  0  0  0  0
  -21.7430   -4.7980   24.5020 C   0  0  0  0  0  0  0  0  0  0  0  0
  -22.3000   -4.2680   23.3240 C   0  0  0  0  0  3  0  0  0  0  0  0
  -22.5030   -5.0980   22.2080 C   0  0  0  0  0  0  0  0  0  0  0  0
  -23.0190   -4.5780   21.0690 F   0  0  0  0  0  0  0  0  0  0  0  0
  -21.5430   -3.9960   25.5730 F   0  0  0  0  0  0  0  0  0  0  0  0
  -23.3270  -13.8780   21.1780 C   0  0  0  0  0  0  0  0  0  0  0  0
  -22.5780  -13.1380   21.9870 N   0  0  0  0  0  0  0  0  0  0  0  0
  -22.8950  -14.9200   20.6850 O   0  0  0  0  0  0  0  0  0  0  0  0
  -22.9380  -12.2930   22.4080 H   0  0  0  0  0  0  0  0  0  0  0  0
  -21.6300  -13.4200   22.1920 H   0  0  0  0  0  0  0  0  0  0  0  0
  -25.9520  -15.6160   20.5440 N   0  0  0  0  0  0  0  0  0  0  0  0
  -25.1640  -16.2440   20.6520 H   0  0  0  0  0  0  0  0  0  0  0  0
  -26.7910  -16.0850   20.2290 H   0  0  0  0  0  0  0  0  0  0  0  0
  -28.1150  -22.3440   21.4690 C   0  0  0  0  0  2  0  0  0  0  0  0
  -26.3260  -23.7280   22.6480 C   0  0  0  0  0  1  0  0  0  0  0  0
  -26.7080  -22.9540   21.3800 C   0  0  0  0  0  2  0  0  0  0  0  0
  -29.1160  -23.6710   19.5830 C   0  0  0  0  0  3  0  0  0  0  0  0
  -28.0280  -24.9900   19.5580 C   0  0  0  0  0  3  0  0  0  0  0  0
  -28.2920  -26.5330   19.3690 O   0  0  0  0  0  0  0  0  0  0  0  0
  -24.7850  -31.8320   23.1830 C   0  0  0  0  0  0  0  0  0  0  0  0
  -27.2440  -27.5270   19.4910 C   0  0  0  0  0  0  0  0  0  0  0  0
  -23.5330  -30.6680   21.4090 C   0  0  0  0  0  3  0  0  0  0  0  0
  -24.9320  -29.2860   19.7530 C   0  0  0  0  0  0  0  0  0  0  0  0
  -26.0850  -30.9370   21.2120 C   0  0  0  0  0  2  0  0  0  0  0  0
  -26.1310  -29.6390   20.3820 C   0  0  0  0  0  0  0  0  0  0  0  0
  -27.2880  -28.7800   20.2340 C   0  0  0  0  0  3  0  0  0  0  0  0
  -26.0160  -27.2940   18.8300 C   0  0  0  0  0  3  0  0  0  0  0  0
  -24.8870  -28.1300   18.9630 C   0  0  0  0  0  3  0  0  0  0  0  0
  -23.7140  -30.1780   19.9490 C   0  0  0  0  0  2  0  0  0  0  0  0
  -24.8230  -31.1610   21.9910 N   0  0  0  0  0  0  0  0  0  0  0  0
  -23.7150  -32.0480   23.7720 O   0  0  0  0  0  0  0  0  0  0  0  0
  -22.8730  -29.5440   22.2500 C   0  0  0  0  0  0  0  0  0  0  0  0
  -21.5440  -29.3770   22.1140 N   0  0  0  0  0  0  0  0  0  0  0  0
  -23.5570  -28.8310   22.9870 O   0  0  0  0  0  0  0  0  0  0  0  0
  -21.0470  -30.0080   21.5020 H   0  0  0  0  0  0  0  0  0  0  0  0
  -18.1720  -28.1220   22.5480 C   0  0  0  0  0  0  0  0  0  0  0  0
  -20.7380  -28.3460   22.7750 C   0  0  0  0  0  3  0  0  0  0  0  0
  -20.8170  -27.0030   22.0110 C   0  0  0  0  0  2  0  0  0  0  0  0
  -19.6850  -26.8200   20.9940 C   0  0  0  0  0  2  0  0  0  0  0  0
  -18.3230  -26.8780   21.6900 C   0  0  0  0  0  2  0  0  0  0  0  0
  -19.3050  -28.8200   23.0440 C   0  0  0  0  0  0  0  0  0  0  0  0
  -19.1070  -29.9900   23.8110 C   0  0  0  0  0  3  0  0  0  0  0  0
  -17.8100  -30.4630   24.0800 C   0  0  0  0  0  3  0  0  0  0  0  0
  -16.6910  -29.7610   23.5980 C   0  0  0  0  0  3  0  0  0  0  0  0
  -16.8730  -28.5920   22.8380 C   0  0  0  0  0  3  0  0  0  0  0  0
  -26.0840  -32.3760   23.8530 C   0  0  0  0  0  3  0  0  0  0  0  0
  -25.8110  -33.7500   24.3040 N   0  0  0  0  0  0  0  0  0  0  0  0
  -26.1620  -34.8590   23.6380 C   0  0  0  0  0  0  0  0  0  0  0  0
  -26.8150  -34.8280   22.5920 O   0  0  0  0  0  0  0  0  0  0  0  0
  -25.2320  -33.8480   25.1250 H   0  0  0  0  0  0  0  0  0  0  0  0
  -24.4800  -36.7240   23.4740 C   0  0  0  0  0  1  0  0  0  0  0  0
  -25.7210  -36.2150   24.2240 C   0  0  0  0  0  3  0  0  0  0  0  0
  -27.8890  -36.9730   25.0970 C   0  0  0  0  0  1  0  0  0  0  0  0
  -26.7810  -37.2460   24.1850 N   0  0  0  0  0  0  0  0  0  0  0  0
  -26.4010  -38.1620   24.4130 H   0  0  0  0  0  0  0  0  0  0  0  0
  -26.5760  -31.4870   25.0620 C   0  0  1  0  0  0  0  0  0  0  0  0
  -25.4790  -31.2030   26.1140 C   0  0  0  0  0  1  0  0  0  0  0  0
  -27.1100  -30.1250   24.5630 C   0  0  0  0  0  1  0  0  0  0  0  0
  -27.7550  -32.1890   25.7800 C   0  0  0  0  0  1  0  0  0  0  0  0
  1 46  1  0
  1  2  1  6
  3  6  1  0
  4  3  1  0
  4  7  1  0
  6 16  1  0
  6  5  1  0
  7  1  1  0
  7  5  1  0
  8 16  1  0
  9 14  1  0
 10 11  1  0
 10  9  1  0
 12 11  1  0
 12 21  1  0
 12 13  1  0
 14  8  1  0
 14 13  1  0
 15  8  2  0
 16 17  1  0
 18 19  2  0
 19 38  1  0
 20 19  1  0
 20 23  1  0
 21 22  1  0
 21 18  1  0
 22 20  2  0
 23 24  1  0
 24 25  2  0
 26 25  1  0
 27 26  2  0
 28 27  1  0
 28 23  2  0
 29 26  1  0
 29 30  1  0
 30 31  1  0
 31 32  2  0
 33 32  1  0
 33 37  1  0
 34 33  2  0
 35 30  2  0
 35 34  1  0
 36 35  1  0
 38 39  1  0
 39 42  1  0
 39 41  1  0
 40 38  2  0
 43 18  1  0
 43 44  1  0
 45 43  1  0
 48 46  1  0
 48 47  1  0
 49  1  1  0
 50 49  2  0
 51 53  1  0
 51 50  1  0
 52 63  2  0
 53 58  1  0
 54 62  1  0
 54 64  1  0
 55 61  1  0
 55 57  1  0
 56 62  1  0
 57 56  1  0
 58 57  2  0
 59 60  1  0
 59 53  2  0
 60 55  2  0
 61 54  1  0
 62 52  1  0
 64 66  2  0
 65 64  1  0
 67 65  1  0
 68 77  2  0
 68 73  1  0
 69 65  1  0
 69 73  1  0
 70 69  1  0
 71 72  1  0
 71 70  1  0
 72 68  1  0
 73 74  2  0
 74 75  1  0
 76 75  2  0
 77 76  1  0
 78 52  1  0
 78 79  1  0
 78 88  1  0
 79 82  1  0
 80 84  1  0
 80 79  1  0
 81 80  2  0
 84 83  1  0
 86 84  1  0
 86 87  1  0
 86 85  1  0
 88 91  1  1
 88 89  1  0
 90 88  1  0
M  ISO  4   8 100  16 100  50 101  51 101
M  END
>  <TORSDO>  (3) 
F 21

>  <SCORE>  (3) 
-11.920

>  <name>  (3) 
2

>  <ligand_id>  (3) 
2

>  <original_smiles>  (3) 
[H]c1c([H])c([H])c2c(c1[H])C([H])([H])C([H])([H])C([H])([H])C2([H])N([H])C(=O)C1([H])N(C(=O)C([H])(N([H])C(=O)C([H])(N([H])C([H])([H])[H])C([H])([H])[H])C(C([H])([H])[H])(C([H])([H])[H])C([H])([H])[H])C([H])([H])c2c([H])c(OC([H])([H])C([H])([H])[N+]([H])(C([H])([H])C([H])([H])C([H])([H])[H])C3([H])C([H])([H])C([H])([H])C([H])(N([H])C(=O)N4C([H])([H])C([H])([H])C([H])([H])C([H])(n5nc(-c6c([H])c([H])c(Oc7c([H])c([H])c(F)c([H])c7F)c([H])c6[H])c(C(=O)N([H])[H])c5N([H])[H])C4([H])[H])C3([H])[H])c([H])c([H])c2C1([H])[H]

>  <smiles>  (3) 
[H]c1c([H])c([H])c2c(c1[H])C([H])([H])C([H])([H])C([H])([H])C2([H])N([H])C(=O)C1([H])N(C(=O)C([H])(N([H])C(=O)C([H])(N([H])C([H])([H])[H])C([H])([H])[H])C(C([H])([H])[H])(C([H])([H])[H])C([H])([H])[H])C([H])([H])c2c([H])c(OC([H])([H])C([H])([H])[N+]([H])(C([H])([H])C([H])([H])C([H])([H])[H])C3([H])C([H])([H])C([H])([H])C([H])(N([H])C(=O)N4C([H])([H])C([H])([H])C([H])([H])C([H])(n5nc(-c6c([H])c([H])c(Oc7c([H])c([H])c(F)c([H])c7F)c([H])c6[H])c(C(=O)N([H])[H])c5N([H])[H])C4([H])[H])C3([H])[H])c([H])c([H])c2C1([H])[H]

$$$$
3:0:0
     RDKit          3D

 91100  0  0  1  0  0  0  0  0999 V2000
  -27.7690  -18.5130   20.2320 C   0  0  0  0  0  2  0  0  0  0  0  0
  -28.4410  -19.5050   21.2130 C   0  0  0  0  0  2  0  0  0  0  0  0
  -30.7070  -18.7840   20.3680 C   0  0  0  0  0  2  0  0  0  0  0  0
  -28.9430  -19.6550   18.3500 C   0  0  0  0  0  2  0  0  0  0  0  0
  -28.7250  -18.2230   19.0500 C   0  0  0  0  0  3  0  0  0  0  0  0
  -30.0720  -17.5580   19.5570 C   0  0  0  0  0  3  0  0  0  0  0  0
  -29.7410  -20.0620   20.5780 C   0  0  0  0  0  3  0  0  0  0  0  0
  -29.4020  -20.7730   19.2810 N   0  0  2  0  0  4  0  0  0  0  0  0
  -30.2810  -21.0830   18.8920 H   0  0  0  0  0  0  0  0  0  0  0  0
  -30.7380  -14.9470   19.7630 C   0  0  0  0  0  0  0  0  0  0  0  0
  -30.5710  -12.5990   18.8390 C   0  0  0  0  0  2  0  0  0  0  0  0
  -29.5260  -12.5370   17.6990 C   0  0  0  0  0  2  0  0  0  0  0  0
  -28.1020  -12.3250   18.2530 C   0  0  0  0  0  2  0  0  0  0  0  0
  -27.7990  -13.2500   19.4600 C   0  0  0  0  0  3  0  0  0  0  0  0
  -28.9500  -13.2000   20.4810 C   0  0  0  0  0  2  0  0  0  0  0  0
  -30.1630  -13.6750   19.7890 N   0  0  0  0  0  0  0  0  0  0  0  0
  -31.8270  -15.0660   19.1870 O   0  0  0  0  0  0  0  0  0  0  0  0
  -29.4850  -16.0950   21.5330 C   0  0  0  0  0  1  0  0  0  0  0  0
  -30.0160  -16.1040   20.1600 N   0  0  0  0  0  0  0  0  0  0  0  0
  -25.5110  -13.8270   20.4690 C   0  0  0  0  0  0  0  0  0  0  0  0
  -24.4780  -13.0450   20.9050 C   0  0  0  0  0  0  0  0  0  0  0  0
  -24.9080  -11.6930   20.7450 C   0  0  0  0  0  0  0  0  0  0  0  0
  -26.5070  -12.9490   20.0700 N   0  0  0  0  0  0  0  0  0  0  0  0
  -26.1580  -11.6570   20.2950 N   0  0  0  0  0  0  0  0  0  0  0  0
  -24.1830  -10.4310   20.9370 C   0  0  0  0  0  0  0  0  0  0  0  0
  -24.6030   -9.4730   21.8870 C   0  0  0  0  0  3  0  0  0  0  0  0
  -23.8770   -8.2770   22.0670 C   0  0  0  0  0  3  0  0  0  0  0  0
  -22.7170   -8.0280   21.2960 C   0  0  0  0  0  0  0  0  0  0  0  0
  -22.3150   -8.9730   20.3370 C   0  0  0  0  0  3  0  0  0  0  0  0
  -23.0420  -10.1620   20.1540 C   0  0  0  0  0  3  0  0  0  0  0  0
  -21.9630   -6.8820   21.3850 O   0  0  0  0  0  0  0  0  0  0  0  0
  -21.7570   -6.2460   22.5820 C   0  0  0  0  0  0  0  0  0  0  0  0
  -21.1370   -6.8950   23.6730 C   0  0  0  0  0  3  0  0  0  0  0  0
  -20.8820   -6.1840   24.8620 C   0  0  0  0  0  3  0  0  0  0  0  0
  -21.2370   -4.8250   24.9610 C   0  0  0  0  0  0  0  0  0  0  0  0
  -21.8500   -4.1760   23.8750 C   0  0  0  0  0  3  0  0  0  0  0  0
  -22.1060   -4.8850   22.6880 C   0  0  0  0  0  0  0  0  0  0  0  0
  -22.6780   -4.2500   21.6370 F   0  0  0  0  0  0  0  0  0  0  0  0
  -20.9850   -4.1400   26.1010 F   0  0  0  0  0  0  0  0  0  0  0  0
  -23.1270  -13.5230   21.3540 C   0  0  0  0  0  0  0  0  0  0  0  0
  -22.4940  -12.7970   22.2700 N   0  0  0  0  0  0  0  0  0  0  0  0
  -22.6450  -14.5720   20.9290 O   0  0  0  0  0  0  0  0  0  0  0  0
  -22.8980  -11.9470   22.6340 H   0  0  0  0  0  0  0  0  0  0  0  0
  -21.5920  -13.0970   22.6130 H   0  0  0  0  0  0  0  0  0  0  0  0
  -25.6820  -15.2030   20.3550 N   0  0  0  0  0  0  0  0  0  0  0  0
  -24.9440  -15.8590   20.5860 H   0  0  0  0  0  0  0  0  0  0  0  0
  -26.5010  -15.6470   19.9620 H   0  0  0  0  0  0  0  0  0  0  0  0
  -28.5020  -22.0660   19.3000 C   0  0  0  0  0  2  0  0  0  0  0  0
  -29.0570  -23.6100   19.4560 C   0  0  0  0  0  3  0  0  0  0  0  0
  -28.0030  -24.8690   19.2980 C   0  0  0  0  0  3  0  0  0  0  0  0
  -28.2710  -26.3490   19.5620 O   0  0  0  0  0  0  0  0  0  0  0  0
  -24.6540  -31.6370   23.0890 C   0  0  0  0  0  0  0  0  0  0  0  0
  -27.1780  -27.2690   19.6070 C   0  0  0  0  0  0  0  0  0  0  0  0
  -23.4040  -30.3490   21.3970 C   0  0  0  0  0  3  0  0  0  0  0  0
  -24.8130  -28.9200   19.8030 C   0  0  0  0  0  0  0  0  0  0  0  0
  -25.9410  -30.6860   21.1490 C   0  0  0  0  0  2  0  0  0  0  0  0
  -26.0080  -29.3540   20.3930 C   0  0  0  0  0  0  0  0  0  0  0  0
  -27.1900  -28.5440   20.2820 C   0  0  0  0  0  3  0  0  0  0  0  0
  -25.9540  -26.9210   18.9900 C   0  0  0  0  0  3  0  0  0  0  0  0
  -24.7940  -27.7140   19.0910 C   0  0  0  0  0  3  0  0  0  0  0  0
  -23.5760  -29.7830   19.9640 C   0  0  0  0  0  2  0  0  0  0  0  0
  -24.6880  -30.9070   21.9340 N   0  0  0  0  0  0  0  0  0  0  0  0
  -23.5880  -31.8640   23.6800 O   0  0  0  0  0  0  0  0  0  0  0  0
  -22.7820  -29.2590   22.3050 C   0  0  0  0  0  0  0  0  0  0  0  0
  -21.4580  -29.0550   22.1950 N   0  0  0  0  0  0  0  0  0  0  0  0
  -23.4920  -28.6020   23.0700 O   0  0  0  0  0  0  0  0  0  0  0  0
  -20.9400  -29.6390   21.5530 H   0  0  0  0  0  0  0  0  0  0  0  0
  -18.1280  -27.7140   22.6750 C   0  0  0  0  0  0  0  0  0  0  0  0
  -20.6810  -28.0460   22.9200 C   0  0  0  0  0  3  0  0  0  0  0  0
  -20.8210  -26.6530   22.2620 C   0  0  0  0  0  2  0  0  0  0  0  0
  -19.7130  -26.3510   21.2480 C   0  0  0  0  0  2  0  0  0  0  0  0
  -18.3390  -26.4110   21.9200 C   0  0  0  0  0  2  0  0  0  0  0  0
  -19.2280  -28.4880   23.1310 C   0  0  0  0  0  0  0  0  0  0  0  0
  -18.9760  -29.7050   23.8010 C   0  0  0  0  0  3  0  0  0  0  0  0
  -17.6580  -30.1500   24.0150 C   0  0  0  0  0  3  0  0  0  0  0  0
  -16.5730  -29.3730   23.5720 C   0  0  0  0  0  3  0  0  0  0  0  0
  -16.8100  -28.1560   22.9080 C   0  0  0  0  0  3  0  0  0  0  0  0
  -25.9510  -32.2410   23.7080 C   0  0  0  0  0  3  0  0  0  0  0  0
  -26.4920  -31.4160   24.9410 C   0  0  1  0  0  0  0  0  0  0  0  0
  -25.4230  -31.1400   26.0230 C   0  0  0  0  0  1  0  0  0  0  0  0
  -27.0610  -30.0540   24.4830 C   0  0  0  0  0  1  0  0  0  0  0  0
  -27.6610  -32.1800   25.6080 C   0  0  0  0  0  1  0  0  0  0  0  0
  -25.6510  -33.6250   24.1080 N   0  0  0  0  0  0  0  0  0  0  0  0
  -25.9290  -34.7090   23.3710 C   0  0  0  0  0  0  0  0  0  0  0  0
  -26.5330  -34.6490   22.2960 O   0  0  0  0  0  0  0  0  0  0  0  0
  -25.1080  -33.7440   24.9490 H   0  0  0  0  0  0  0  0  0  0  0  0
  -24.1620  -36.4940   23.2070 C   0  0  0  0  0  1  0  0  0  0  0  0
  -25.4630  -36.0760   23.9100 C   0  0  0  0  0  3  0  0  0  0  0  0
  -27.6410  -36.9630   24.6180 C   0  0  0  0  0  1  0  0  0  0  0  0
  -26.4750  -37.1450   23.7580 N   0  0  0  0  0  0  0  0  0  0  0  0
  -26.0700  -38.0550   23.9600 H   0  0  0  0  0  0  0  0  0  0  0  0
  1  2  1  0
  4  8  1  0
  5  4  1  0
  5  6  1  0
  5  1  1  0
  6 19  1  0
  6  3  1  0
  7  3  1  0
  7  2  1  0
  8 48  1  0
  8  7  1  0
  8  9  1  6
 10 16  1  0
 10 19  1  0
 11 16  1  0
 12 13  1  0
 12 11  1  0
 14 13  1  0
 14 23  1  0
 14 15  1  0
 16 15  1  0
 17 10  2  0
 19 18  1  0
 20 21  2  0
 21 40  1  0
 22 21  1  0
 22 25  1  0
 23 24  1  0
 23 20  1  0
 24 22  2  0
 25 26  1  0
 26 27  2  0
 28 31  1  0
 28 27  1  0
 29 28  2  0
 30 29  1  0
 30 25  2  0
 31 32  1  0
 32 37  2  0
 32 33  1  0
 33 34  2  0
 34 35  1  0
 35 39  1  0
 36 35  2  0
 37 36  1  0
 38 37  1  0
 40 41  1  0
 41 44  1  0
 41 43  1  0
 42 40  2  0
 45 20  1  0
 45 46  1  0
 47 45  1  0
 48 49  1  0
 50 49  2  0
 50 51  1  0
 51 53  1  0
 52 63  2  0
 53 58  1  0
 54 62  1  0
 54 64  1  0
 55 61  1  0
 55 57  1  0
 56 62  1  0
 57 56  1  0
 58 57  2  0
 59 60  1  0
 59 53  2  0
 60 55  2  0
 61 54  1  0
 62 52  1  0
 64 66  2  0
 65 64  1  0
 67 65  1  0
 68 77  2  0
 68 73  1  0
 69 65  1  0
 69 73  1  0
 70 69  1  0
 71 72  1  0
 71 70  1  0
 72 68  1  0
 73 74  2  0
 74 75  1  0
 76 75  2  0
 77 76  1  0
 78 52  1  0
 78 83  1  0
 78 79  1  0
 79 82  1  1
 79 80  1  0
 81 79  1  0
 83 86  1  0
 84 88  1  0
 84 83  1  0
 85 84  2  0
 88 87  1  0
 90 88  1  0
 90 91  1  0
 90 89  1  0
M  ISO  4  10 100  19 100  50 101  51 101
M  END
>  <TORSDO>  (4) 
F 19

>  <SCORE>  (4) 
-12.578

>  <name>  (4) 
3

>  <ligand_id>  (4) 
3

>  <original_smiles>  (4) 
[H]c1c([H])c([H])c2c(c1[H])C([H])([H])C([H])([H])C([H])([H])C2([H])N([H])C(=O)C1([H])N(C(=O)C([H])(N([H])C(=O)C([H])(N([H])C([H])([H])[H])C([H])([H])[H])C(C([H])([H])[H])(C([H])([H])[H])C([H])([H])[H])C([H])([H])c2c([H])c(OC([H])([H])C([H])([H])C([H])([H])[N+]3([H])C([H])([H])C4([H])C([H])([H])C([H])([H])C3([H])C([H])([H])C4([H])N(C(=O)N3C([H])([H])C([H])([H])C([H])([H])C([H])(n4nc(-c5c([H])c([H])c(Oc6c([H])c([H])c(F)c([H])c6F)c([H])c5[H])c(C(=O)N([H])[H])c4N([H])[H])C3([H])[H])C([H])([H])[H])c([H])c([H])c2C1([H])[H]

>  <smiles>  (4) 
[H]c1c([H])c([H])c2c(c1[H])C([H])([H])C([H])([H])C([H])([H])C2([H])N([H])C(=O)C1([H])N(C(=O)C([H])(N([H])C(=O)C([H])(N([H])C([H])([H])[H])C([H])([H])[H])C(C([H])([H])[H])(C([H])([H])[H])C([H])([H])[H])C([H])([H])c2c([H])c(OC([H])([H])C([H])([H])C([H])([H])[N+]3([H])C([H])([H])C4([H])C([H])([H])C([H])([H])C3([H])C([H])([H])C4([H])N(C(=O)N3C([H])([H])C([H])([H])C([H])([H])C([H])(n4nc(-c5c([H])c([H])c(Oc6c([H])c([H])c(F)c([H])c6F)c([H])c5[H])c(C(=O)N([H])[H])c4N([H])[H])C3([H])[H])C([H])([H])[H])c([H])c([H])c2C1([H])[H]

$$$$
4:0:0
     RDKit          3D

 93101  0  0  1  0  0  0  0  0999 V2000
  -28.7480  -21.0160   20.2590 N   0  0  0  0  0  4  0  0  0  0  0  0
  -28.2100  -20.7800   21.0770 H   0  0  0  0  0  0  0  0  0  0  0  0
  -28.1250  -20.9640   19.4700 H   0  0  0  0  0  0  0  0  0  0  0  0
  -29.8090  -19.9260   20.0750 C   0  0  0  0  0  2  0  0  0  0  0  0
  -30.9000  -17.7200   22.2020 C   0  0  0  0  0  2  0  0  0  0  0  0
  -29.4460  -18.1010   21.8670 C   0  0  0  0  0  2  0  0  0  0  0  0
  -31.5890  -17.3880   20.8690 C   0  0  0  0  0  2  0  0  0  0  0  0
  -29.4240  -18.3740   20.3550 C   0  0  0  0  0  3  0  0  0  0  0  0
  -30.4540  -17.2470   19.8480 C   0  0  0  0  0  3  0  0  0  0  0  0
  -30.7700  -14.6800   19.5090 C   0  0  0  0  0  0  0  0  0  0  0  0
  -30.4680  -12.4010   18.5540 C   0  0  0  0  0  2  0  0  0  0  0  0
  -29.4110  -12.4670   17.4300 C   0  0  0  0  0  2  0  0  0  0  0  0
  -27.9870  -12.3330   18.0040 C   0  0  0  0  0  2  0  0  0  0  0  0
  -27.7450  -13.2460   19.2360 C   0  0  0  0  0  3  0  0  0  0  0  0
  -28.9050  -13.1380   20.2500 C   0  0  0  0  0  2  0  0  0  0  0  0
  -30.1430  -13.4620   19.5290 N   0  0  0  0  0  0  0  0  0  0  0  0
  -31.9050  -14.7960   19.0380 O   0  0  0  0  0  0  0  0  0  0  0  0
  -30.0280  -15.7890   19.8510 N   0  0  0  0  0  0  0  0  0  0  0  0
  -29.0980  -15.5960   20.1900 H   0  0  0  0  0  0  0  0  0  0  0  0
  -25.4630  -13.8890   20.2250 C   0  0  0  0  0  0  0  0  0  0  0  0
  -24.4180  -13.1320   20.6820 C   0  0  0  0  0  0  0  0  0  0  0  0
  -24.8360  -11.7720   20.5670 C   0  0  0  0  0  0  0  0  0  0  0  0
  -26.4490  -12.9860   19.8560 N   0  0  0  0  0  0  0  0  0  0  0  0
  -26.0840  -11.7070   20.1240 N   0  0  0  0  0  0  0  0  0  0  0  0
  -24.0990  -10.5230   20.8000 C   0  0  0  0  0  0  0  0  0  0  0  0
  -24.5470   -9.5620   21.7340 C   0  0  0  0  0  3  0  0  0  0  0  0
  -23.8110   -8.3780   21.9510 C   0  0  0  0  0  3  0  0  0  0  0  0
  -22.6100   -8.1470   21.2370 C   0  0  0  0  0  0  0  0  0  0  0  0
  -22.1810   -9.0960   20.2920 C   0  0  0  0  0  3  0  0  0  0  0  0
  -22.9190  -10.2700   20.0720 C   0  0  0  0  0  3  0  0  0  0  0  0
  -21.8410   -7.0150   21.3660 O   0  0  0  0  0  0  0  0  0  0  0  0
  -21.7460   -6.3430   22.5590 C   0  0  0  0  0  0  0  0  0  0  0  0
  -21.2860   -6.9720   23.7360 C   0  0  0  0  0  3  0  0  0  0  0  0
  -21.1360   -6.2250   24.9220 C   0  0  0  0  0  3  0  0  0  0  0  0
  -21.4380   -4.8500   24.9320 C   0  0  0  0  0  0  0  0  0  0  0  0
  -21.8920   -4.2220   23.7580 C   0  0  0  0  0  3  0  0  0  0  0  0
  -22.0440   -4.9660   22.5760 C   0  0  0  0  0  0  0  0  0  0  0  0
  -22.4590   -4.3490   21.4430 F   0  0  0  0  0  0  0  0  0  0  0  0
  -21.2890   -4.1320   26.0680 F   0  0  0  0  0  0  0  0  0  0  0  0
  -23.0710  -13.6390   21.1130 C   0  0  0  0  0  0  0  0  0  0  0  0
  -22.4270  -12.9500   22.0480 N   0  0  0  0  0  0  0  0  0  0  0  0
  -22.6020  -14.6790   20.6540 O   0  0  0  0  0  0  0  0  0  0  0  0
  -22.8190  -12.1060   22.4380 H   0  0  0  0  0  0  0  0  0  0  0  0
  -21.5280  -13.2690   22.3780 H   0  0  0  0  0  0  0  0  0  0  0  0
  -25.6490  -15.2590   20.0700 N   0  0  0  0  0  0  0  0  0  0  0  0
  -24.9210  -15.9300   20.2950 H   0  0  0  0  0  0  0  0  0  0  0  0
  -26.4660  -15.6890   19.6580 H   0  0  0  0  0  0  0  0  0  0  0  0
  -29.2090  -22.4710   20.4300 C   0  0  0  0  0  2  0  0  0  0  0  0
  -28.2130  -23.7060   20.0780 C   0  0  0  0  0  3  0  0  0  0  0  0
  -25.9390  -22.6990   19.3190 C   0  0  0  0  0  1  0  0  0  0  0  0
  -26.7440  -23.3700   20.4460 C   0  0  0  0  0  2  0  0  0  0  0  0
  -28.6200  -25.1360   20.7220 C   0  0  0  0  0  2  0  0  0  0  0  0
  -28.4990  -26.4680   20.0630 O   0  0  0  0  0  0  0  0  0  0  0  0
  -24.4970  -31.7050   23.1170 C   0  0  0  0  0  0  0  0  0  0  0  0
  -27.3270  -27.2340   20.1190 C   0  0  0  0  0  0  0  0  0  0  0  0
  -23.3700  -30.2470   21.4700 C   0  0  0  0  0  3  0  0  0  0  0  0
  -24.8980  -28.7450   20.0720 C   0  0  0  0  0  0  0  0  0  0  0  0
  -25.8920  -30.6720   21.3050 C   0  0  0  0  0  2  0  0  0  0  0  0
  -26.0370  -29.2870   20.6820 C   0  0  0  0  0  0  0  0  0  0  0  0
  -27.2550  -28.5430   20.6940 C   0  0  0  0  0  3  0  0  0  0  0  0
  -26.1740  -26.7510   19.4740 C   0  0  0  0  0  3  0  0  0  0  0  0
  -24.9700  -27.4850   19.4560 C   0  0  0  0  0  3  0  0  0  0  0  0
  -23.6220  -29.5630   20.1000 C   0  0  0  0  0  2  0  0  0  0  0  0
  -24.6040  -30.8950   22.0200 N   0  0  0  0  0  0  0  0  0  0  0  0
  -23.3990  -31.9380   23.6420 O   0  0  0  0  0  0  0  0  0  0  0  0
  -22.7420  -29.2120   22.4320 C   0  0  0  0  0  0  0  0  0  0  0  0
  -21.4260  -28.9760   22.2930 N   0  0  0  0  0  0  0  0  0  0  0  0
  -23.4390  -28.6190   23.2610 O   0  0  0  0  0  0  0  0  0  0  0  0
  -20.9220  -29.5120   21.6000 H   0  0  0  0  0  0  0  0  0  0  0  0
  -18.0980  -27.6380   22.7590 C   0  0  0  0  0  0  0  0  0  0  0  0
  -20.6400  -28.0070   23.0570 C   0  0  0  0  0  3  0  0  0  0  0  0
  -20.8090  -26.5800   22.4860 C   0  0  0  0  0  2  0  0  0  0  0  0
  -19.7310  -26.2080   21.4620 C   0  0  0  0  0  2  0  0  0  0  0  0
  -18.3370  -26.2960   22.0900 C   0  0  0  0  0  2  0  0  0  0  0  0
  -19.1780  -28.4490   23.1980 C   0  0  0  0  0  0  0  0  0  0  0  0
  -18.8990  -29.7050   23.7820 C   0  0  0  0  0  3  0  0  0  0  0  0
  -17.5720  -30.1490   23.9350 C   0  0  0  0  0  3  0  0  0  0  0  0
  -16.5070  -29.3360   23.5130 C   0  0  0  0  0  3  0  0  0  0  0  0
  -16.7700  -28.0830   22.9310 C   0  0  0  0  0  3  0  0  0  0  0  0
  -25.7450  -32.3940   23.7500 C   0  0  0  0  0  3  0  0  0  0  0  0
  -25.3770  -33.7850   24.0560 N   0  0  0  0  0  0  0  0  0  0  0  0
  -25.6690  -34.8380   23.2810 C   0  0  0  0  0  0  0  0  0  0  0  0
  -26.3440  -34.7430   22.2510 O   0  0  0  0  0  0  0  0  0  0  0  0
  -24.7880  -33.9290   24.8620 H   0  0  0  0  0  0  0  0  0  0  0  0
  -23.8650  -36.5520   22.8990 C   0  0  0  0  0  1  0  0  0  0  0  0
  -25.1250  -36.2120   23.7140 C   0  0  0  0  0  3  0  0  0  0  0  0
  -27.2180  -37.2060   24.5270 C   0  0  0  0  0  1  0  0  0  0  0  0
  -26.1110  -37.3060   23.5800 N   0  0  0  0  0  0  0  0  0  0  0  0
  -25.6640  -38.2100   23.7080 H   0  0  0  0  0  0  0  0  0  0  0  0
  -26.2680  -31.6620   25.0470 C   0  0  1  0  0  0  0  0  0  0  0  0
  -25.1650  -31.3900   26.0980 C   0  0  0  0  0  1  0  0  0  0  0  0
  -26.9170  -30.3080   24.6810 C   0  0  0  0  0  1  0  0  0  0  0  0
  -27.3720  -32.5120   25.7200 C   0  0  0  0  0  1  0  0  0  0  0  0
  1 48  1  0
  1  2  1  0
  3  1  1  0
  4  1  1  0
  6  5  1  0
  7  5  1  0
  8  4  1  0
  8  6  1  0
  9 18  1  0
  9  8  1  0
  9  7  1  0
 10 16  1  0
 10 18  1  0
 11 16  1  0
 12 13  1  0
 12 11  1  0
 14 13  1  0
 14 23  1  0
 14 15  1  0
 16 15  1  0
 17 10  2  0
 18 19  1  0
 20 21  2  0
 21 40  1  0
 22 21  1  0
 22 25  1  0
 23 24  1  0
 23 20  1  0
 24 22  2  0
 25 26  1  0
 26 27  2  0
 28 31  1  0
 28 27  1  0
 29 28  2  0
 30 29  1  0
 30 25  2  0
 31 32  1  0
 32 37  2  0
 32 33  1  0
 33 34  2  0
 34 35  1  0
 35 39  1  0
 36 35  2  0
 37 36  1  0
 38 37  1  0
 40 41  1  0
 41 44  1  0
 41 43  1  0
 42 40  2  0
 45 20  1  0
 45 46  1  0
 47 45  1  0
 49 48  1  0
 49 51  1  0
 49 52  1  0
 50 51  1  0
 53 55  1  0
 53 52  1  0
 54 65  2  0
 55 60  1  0
 56 64  1  0
 56 66  1  0
 57 63  1  0
 57 59  1  0
 58 64  1  0
 59 60  2  0
 59 58  1  0
 61 55  2  0
 62 61  1  0
 62 57  2  0
 63 56  1  0
 64 54  1  0
 66 68  2  0
 67 66  1  0
 69 67  1  0
 70 79  2  0
 70 75  1  0
 71 67  1  0
 71 75  1  0
 72 71  1  0
 73 74  1  0
 73 72  1  0
 74 70  1  0
 75 76  2  0
 76 77  1  0
 78 77  2  0
 79 78  1  0
 80 54  1  0
 80 81  1  0
 80 90  1  0
 81 84  1  0
 82 86  1  0
 82 81  1  0
 83 82  2  0
 86 85  1  0
 88 89  1  0
 88 86  1  0
 88 87  1  0
 90 93  1  1
 90 91  1  0
 92 90  1  0
M  ISO  4  10 100  18 100  52 101  53 101
M  END
>  <TORSDO>  (5) 
F 22

>  <SCORE>  (5) 
-11.720

>  <name>  (5) 
4

>  <ligand_id>  (5) 
4

>  <original_smiles>  (5) 
[H]c1c([H])c([H])c2c(c1[H])C([H])([H])C([H])([H])C([H])([H])C2([H])N([H])C(=O)C1([H])N(C(=O)C([H])(N([H])C(=O)C([H])(N([H])C([H])([H])[H])C([H])([H])[H])C(C([H])([H])[H])(C([H])([H])[H])C([H])([H])[H])C([H])([H])c2c([H])c(OC([H])([H])C([H])(C([H])([H])C([H])([H])[H])C([H])([H])[N+]([H])([H])C([H])([H])C3([H])C([H])([H])C([H])([H])C([H])([H])C3([H])N([H])C(=O)N3C([H])([H])C([H])([H])C([H])([H])C([H])(n4nc(-c5c([H])c([H])c(Oc6c([H])c([H])c(F)c([H])c6F)c([H])c5[H])c(C(=O)N([H])[H])c4N([H])[H])C3([H])[H])c([H])c([H])c2C1([H])[H]

>  <smiles>  (5) 
[H]c1c([H])c([H])c2c(c1[H])C([H])([H])C([H])([H])C([H])([H])C2([H])N([H])C(=O)C1([H])N(C(=O)C([H])(N([H])C(=O)C([H])(N([H])C([H])([H])[H])C([H])([H])[H])C(C([H])([H])[H])(C([H])([H])[H])C([H])([H])[H])C([H])([H])c2c([H])c(OC([H])([H])C([H])(C([H])([H])C([H])([H])[H])C([H])([H])[N+]([H])([H])C([H])([H])C3([H])C([H])([H])C([H])([H])C([H])([H])C3([H])N([H])C(=O)N3C([H])([H])C([H])([H])C([H])([H])C([H])(n4nc(-c5c([H])c([H])c(Oc6c([H])c([H])c(F)c([H])c6F)c([H])c5[H])c(C(=O)N([H])[H])c4N([H])[H])C3([H])[H])c([H])c([H])c2C1([H])[H]

$$$$
5:0:0
     RDKit          3D

 92100  0  0  1  0  0  0  0  0999 V2000
  -28.5040  -21.3370   20.9040 C   0  0  0  0  0  0  0  0  0  0  0  0
  -29.2570  -19.8380   21.1190 C   0  0  0  0  0  2  0  0  0  0  0  0
  -29.6010  -19.8630   18.7680 C   0  0  0  0  0  2  0  0  0  0  0  0
  -29.0250  -22.6130   20.0180 C   0  0  0  0  0  3  0  0  0  0  0  0
  -29.5890  -21.5960   18.8100 C   0  0  0  0  0  3  0  0  0  0  0  0
  -29.9550  -18.8110   19.9950 C   0  0  0  0  0  3  0  0  0  0  0  0
  -27.4440  -21.5020   21.5140 O   0  0  0  0  0  0  0  0  0  0  0  0
  -30.5860  -15.7680   19.9030 C   0  0  0  0  0  0  0  0  0  0  0  0
  -30.6090  -13.2600   19.0920 C   0  0  0  0  0  2  0  0  0  0  0  0
  -29.6520  -12.9120   17.9190 C   0  0  0  0  0  2  0  0  0  0  0  0
  -28.2350  -12.5990   18.4310 C   0  0  0  0  0  2  0  0  0  0  0  0
  -27.7930  -13.5940   19.5290 C   0  0  0  0  0  3  0  0  0  0  0  0
  -28.8810  -13.8660   20.5930 C   0  0  0  0  0  2  0  0  0  0  0  0
  -30.0440  -14.4320   19.8800 N   0  0  0  0  0  0  0  0  0  0  0  0
  -31.8090  -15.7410   19.6770 O   0  0  0  0  0  0  0  0  0  0  0  0
  -29.8150  -17.0800   19.9810 N   0  0  0  0  0  0  0  0  0  0  0  0
  -28.8380  -16.8360   20.0830 H   0  0  0  0  0  0  0  0  0  0  0  0
  -25.4800  -14.1210   20.4440 C   0  0  0  0  0  0  0  0  0  0  0  0
  -24.4360  -13.3350   20.8470 C   0  0  0  0  0  0  0  0  0  0  0  0
  -24.8950  -11.9860   20.7450 C   0  0  0  0  0  0  0  0  0  0  0  0
  -26.5010  -13.2530   20.1100 N   0  0  0  0  0  0  0  0  0  0  0  0
  -26.1680  -11.9590   20.3580 N   0  0  0  0  0  0  0  0  0  0  0  0
  -24.1710  -10.7200   20.9310 C   0  0  0  0  0  0  0  0  0  0  0  0
  -24.5870   -9.7620   21.8810 C   0  0  0  0  0  3  0  0  0  0  0  0
  -23.8600   -8.5650   22.0560 C   0  0  0  0  0  3  0  0  0  0  0  0
  -22.7010   -8.3180   21.2820 C   0  0  0  0  0  0  0  0  0  0  0  0
  -22.3070   -9.2630   20.3200 C   0  0  0  0  0  3  0  0  0  0  0  0
  -23.0360  -10.4510   20.1420 C   0  0  0  0  0  3  0  0  0  0  0  0
  -21.9460   -7.1740   21.3670 O   0  0  0  0  0  0  0  0  0  0  0  0
  -21.7930   -6.4980   22.5510 C   0  0  0  0  0  0  0  0  0  0  0  0
  -21.1970   -7.1000   23.6810 C   0  0  0  0  0  3  0  0  0  0  0  0
  -20.9960   -6.3470   24.8550 C   0  0  0  0  0  3  0  0  0  0  0  0
  -21.3800   -4.9930   24.9000 C   0  0  0  0  0  0  0  0  0  0  0  0
  -21.9690   -4.3920   23.7740 C   0  0  0  0  0  3  0  0  0  0  0  0
  -22.1710   -5.1410   22.6030 C   0  0  0  0  0  0  0  0  0  0  0  0
  -22.7190   -4.5500   21.5130 F   0  0  0  0  0  0  0  0  0  0  0  0
  -21.1800   -4.2680   26.0250 F   0  0  0  0  0  0  0  0  0  0  0  0
  -23.0580  -13.8090   21.2030 C   0  0  0  0  0  0  0  0  0  0  0  0
  -22.3780  -13.0960   22.0940 N   0  0  0  0  0  0  0  0  0  0  0  0
  -22.5970  -14.8450   20.7290 O   0  0  0  0  0  0  0  0  0  0  0  0
  -22.7650  -12.2540   22.4980 H   0  0  0  0  0  0  0  0  0  0  0  0
  -21.4560  -13.3920   22.3780 H   0  0  0  0  0  0  0  0  0  0  0  0
  -25.6360  -15.4970   20.2980 N   0  0  0  0  0  0  0  0  0  0  0  0
  -24.8740  -16.1470   20.4550 H   0  0  0  0  0  0  0  0  0  0  0  0
  -26.4440  -15.9320   19.8690 H   0  0  0  0  0  0  0  0  0  0  0  0
  -28.1240  -24.2690   19.8320 C   0  0  0  0  0  2  0  0  0  0  0  0
  -28.3040  -25.9570   20.0460 O   0  0  0  0  0  0  0  0  0  0  0  0
  -24.7100  -31.9290   23.2280 C   0  0  0  0  0  0  0  0  0  0  0  0
  -27.2880  -27.0960   20.0280 C   0  0  0  0  0  0  0  0  0  0  0  0
  -23.5150  -30.5710   21.5610 C   0  0  0  0  0  3  0  0  0  0  0  0
  -24.9700  -29.0150   20.0660 C   0  0  0  0  0  0  0  0  0  0  0  0
  -26.0830  -30.7940   21.3930 C   0  0  0  0  0  2  0  0  0  0  0  0
  -26.1640  -29.3960   20.6900 C   0  0  0  0  0  0  0  0  0  0  0  0
  -27.3100  -28.4630   20.6420 C   0  0  0  0  0  3  0  0  0  0  0  0
  -26.0550  -26.8940   19.3630 C   0  0  0  0  0  3  0  0  0  0  0  0
  -24.9450  -27.7880   19.3790 C   0  0  0  0  0  3  0  0  0  0  0  0
  -23.7410  -29.9290   20.1610 C   0  0  0  0  0  2  0  0  0  0  0  0
  -24.7930  -31.1260   22.1150 N   0  0  0  0  0  0  0  0  0  0  0  0
  -23.6200  -32.1890   23.7680 O   0  0  0  0  0  0  0  0  0  0  0  0
  -22.8350  -29.5430   22.5040 C   0  0  0  0  0  0  0  0  0  0  0  0
  -21.5080  -29.3520   22.3750 N   0  0  0  0  0  0  0  0  0  0  0  0
  -23.5130  -28.9170   23.3240 O   0  0  0  0  0  0  0  0  0  0  0  0
  -21.0110  -29.9020   21.6900 H   0  0  0  0  0  0  0  0  0  0  0  0
  -18.1580  -28.0460   22.8580 C   0  0  0  0  0  0  0  0  0  0  0  0
  -20.7110  -28.3750   23.1250 C   0  0  0  0  0  3  0  0  0  0  0  0
  -20.8510  -26.9620   22.5130 C   0  0  0  0  0  2  0  0  0  0  0  0
  -19.7560  -26.6360   21.4930 C   0  0  0  0  0  2  0  0  0  0  0  0
  -18.3710  -26.7240   22.1410 C   0  0  0  0  0  2  0  0  0  0  0  0
  -19.2550  -28.8270   23.3060 C   0  0  0  0  0  0  0  0  0  0  0  0
  -19.0000  -30.0640   23.9390 C   0  0  0  0  0  3  0  0  0  0  0  0
  -17.6810  -30.5150   24.1290 C   0  0  0  0  0  3  0  0  0  0  0  0
  -16.5990  -29.7310   23.6960 C   0  0  0  0  0  3  0  0  0  0  0  0
  -16.8370  -28.4990   23.0640 C   0  0  0  0  0  3  0  0  0  0  0  0
  -25.9760  -32.5710   23.8710 C   0  0  0  0  0  3  0  0  0  0  0  0
  -26.4730  -31.8000   25.1580 C   0  0  1  0  0  0  0  0  0  0  0  0
  -25.3630  -31.5590   26.2080 C   0  0  0  0  0  1  0  0  0  0  0  0
  -27.0670  -30.4240   24.7860 C   0  0  0  0  0  1  0  0  0  0  0  0
  -27.6130  -32.5940   25.8400 C   0  0  0  0  0  1  0  0  0  0  0  0
  -25.6560  -33.9690   24.2160 N   0  0  0  0  0  0  0  0  0  0  0  0
  -25.9490  -35.0350   23.4580 C   0  0  0  0  0  0  0  0  0  0  0  0
  -26.5750  -34.9440   22.4000 O   0  0  0  0  0  0  0  0  0  0  0  0
  -25.0980  -34.1150   25.0450 H   0  0  0  0  0  0  0  0  0  0  0  0
  -24.1740  -36.8060   23.2260 C   0  0  0  0  0  1  0  0  0  0  0  0
  -25.4740  -36.4190   23.9500 C   0  0  0  0  0  3  0  0  0  0  0  0
  -27.6370  -37.3540   24.6440 C   0  0  0  0  0  1  0  0  0  0  0  0
  -26.4800  -37.4890   23.7640 N   0  0  0  0  0  0  0  0  0  0  0  0
  -26.0650  -38.4040   23.9210 H   0  0  0  0  0  0  0  0  0  0  0  0
  -30.9090  -22.1690   18.2310 C   0  0  0  0  0  2  0  0  0  0  0  0
  -32.0220  -22.2370   19.1960 N   0  0  0  0  0  4  0  0  0  0  0  0
  -31.8050  -22.8300   19.9790 H   0  0  0  0  0  0  0  0  0  0  0  0
  -32.8190  -22.6400   18.7340 H   0  0  0  0  0  0  0  0  0  0  0  0
  -32.2920  -21.3300   19.5300 H   0  0  0  0  0  0  0  0  0  0  0  0
  1  2  1  0
  1  7  2  0
  3  5  1  0
  3  6  1  0
  4 46  1  0
  4  1  1  0
  5 88  1  0
  5  4  1  0
  6 16  1  0
  6  2  1  0
  8 16  1  0
  9 14  1  0
 10 11  1  0
 10  9  1  0
 12 11  1  0
 12 21  1  0
 12 13  1  0
 14  8  1  0
 14 13  1  0
 15  8  2  0
 16 17  1  0
 18 19  2  0
 19 38  1  0
 20 19  1  0
 20 23  1  0
 21 22  1  0
 21 18  1  0
 22 20  2  0
 23 24  1  0
 24 25  2  0
 26 29  1  0
 26 25  1  0
 27 26  2  0
 28 27  1  0
 28 23  2  0
 29 30  1  0
 30 35  2  0
 30 31  1  0
 31 32  2  0
 32 33  1  0
 33 37  1  0
 34 33  2  0
 35 34  1  0
 36 35  1  0
 38 39  1  0
 39 42  1  0
 39 41  1  0
 40 38  2  0
 43 18  1  0
 43 44  1  0
 45 43  1  0
 46 47  1  0
 48 59  2  0
 49 47  1  0
 49 54  1  0
 50 58  1  0
 50 60  1  0
 51 57  1  0
 51 53  1  0
 52 58  1  0
 53 52  1  0
 54 53  2  0
 55 56  1  0
 55 49  2  0
 56 51  2  0
 57 50  1  0
 58 48  1  0
 60 62  2  0
 61 60  1  0
 63 61  1  0
 64 73  2  0
 64 69  1  0
 65 61  1  0
 65 69  1  0
 66 65  1  0
 67 68  1  0
 67 66  1  0
 68 64  1  0
 69 70  2  0
 70 71  1  0
 72 71  2  0
 73 72  1  0
 74 48  1  0
 74 79  1  0
 74 75  1  0
 75 78  1  1
 75 76  1  0
 77 75  1  0
 79 82  1  0
 80 84  1  0
 80 79  1  0
 81 80  2  0
 84 83  1  0
 86 87  1  0
 86 84  1  0
 86 85  1  0
 88 89  1  0
 89 92  1  0
 89 90  1  0
 91 89  1  0
M  ISO  4   8 100  16 100  46 101  47 101
M  END
>  <TORSDO>  (6) 
F 19

>  <SCORE>  (6) 
-15.136

>  <name>  (6) 
5

>  <ligand_id>  (6) 
5

>  <original_smiles>  (6) 
[H]c1c([H])c([H])c2c(c1[H])C([H])([H])C([H])([H])C([H])([H])C2([H])N([H])C(=O)C1([H])N(C(=O)C([H])(N([H])C(=O)C([H])(N([H])C([H])([H])[H])C([H])([H])[H])C(C([H])([H])[H])(C([H])([H])[H])C([H])([H])[H])C([H])([H])c2c([H])c(OC([H])([H])C3([H])C(=O)C([H])([H])C([H])(N([H])C(=O)N4C([H])([H])C([H])([H])C([H])([H])C([H])(n5nc(-c6c([H])c([H])c(Oc7c([H])c([H])c(F)c([H])c7F)c([H])c6[H])c(C(=O)N([H])[H])c5N([H])[H])C4([H])[H])C([H])([H])C3([H])C([H])([H])[N+]([H])([H])[H])c([H])c([H])c2C1([H])[H]

>  <smiles>  (6) 
[H]c1c([H])c([H])c2c(c1[H])C([H])([H])C([H])([H])C([H])([H])C2([H])N([H])C(=O)C1([H])N(C(=O)C([H])(N([H])C(=O)C([H])(N([H])C([H])([H])[H])C([H])([H])[H])C(C([H])([H])[H])(C([H])([H])[H])C([H])([H])[H])C([H])([H])c2c([H])c(OC([H])([H])C3([H])C(=O)C([H])([H])C([H])(N([H])C(=O)N4C([H])([H])C([H])([H])C([H])([H])C([H])(n5nc(-c6c([H])c([H])c(Oc7c([H])c([H])c(F)c([H])c7F)c([H])c6[H])c(C(=O)N([H])[H])c5N([H])[H])C4([H])[H])C([H])([H])C3([H])C([H])([H])[N+]([H])([H])[H])c([H])c([H])c2C1([H])[H]

$$$$
6:0:0
     RDKit          3D

 95104  0  0  1  0  0  0  0  0999 V2000
  -27.8510  -21.2190   17.4210 C   0  0  0  0  0  2  0  0  0  0  0  0
  -28.0360  -18.1210   18.7460 C   0  0  0  0  0  2  0  0  0  0  0  0
  -26.7390  -20.8150   18.4450 C   0  0  0  0  0  2  0  0  0  0  0  0
  -26.9660  -18.6060   19.7020 C   0  0  0  0  0  2  0  0  0  0  0  0
  -29.0970  -21.8610   18.0640 C   0  0  0  0  0  2  0  0  0  0  0  0
  -29.3270  -18.7990   19.2580 C   0  0  0  0  0  3  0  0  0  0  0  0
  -27.2410  -20.1030   19.7720 C   0  0  0  0  0  3  0  0  0  0  0  0
  -28.7800  -20.2580   20.0260 C   0  0  0  0  0  3  0  0  0  0  0  0
  -28.9150  -21.7630   19.5140 N   0  0  1  0  0  4  0  0  0  0  0  0
  -27.9090  -21.8380   19.4610 H   0  0  0  0  0  0  0  0  0  0  0  0
  -30.7590  -14.8440   19.9130 C   0  0  0  0  0  0  0  0  0  0  0  0
  -30.5540  -12.4990   18.9760 C   0  0  0  0  0  2  0  0  0  0  0  0
  -29.5420  -12.4780   17.8050 C   0  0  0  0  0  2  0  0  0  0  0  0
  -28.0990  -12.3010   18.3200 C   0  0  0  0  0  2  0  0  0  0  0  0
  -27.7830  -13.2110   19.5360 C   0  0  0  0  0  3  0  0  0  0  0  0
  -28.9120  -13.1920   20.5860 C   0  0  0  0  0  2  0  0  0  0  0  0
  -30.1380  -13.5940   19.8900 N   0  0  0  0  0  0  0  0  0  0  0  0
  -31.9700  -14.8970   19.6630 O   0  0  0  0  0  0  0  0  0  0  0  0
  -30.2530  -17.5640   19.8640 C   0  0  0  0  0  0  0  0  0  0  0  0
  -29.9260  -16.1540   19.8950 N   0  0  0  0  0  0  0  0  0  0  0  0
  -31.4810  -17.9590   20.2450 N   0  0  0  0  0  4  0  0  0  0  0  0
  -28.9300  -16.0400   19.8760 H   0  0  0  0  0  0  0  0  0  0  0  0
  -31.7430  -18.9340   20.2130 H   0  0  0  0  0  0  0  0  0  0  0  0
  -32.2180  -17.3050   20.4770 H   0  0  0  0  0  0  0  0  0  0  0  0
  -25.4830  -13.8250   20.4700 C   0  0  0  0  0  0  0  0  0  0  0  0
  -24.4280  -13.0640   20.8870 C   0  0  0  0  0  0  0  0  0  0  0  0
  -24.8500  -11.7040   20.7700 C   0  0  0  0  0  0  0  0  0  0  0  0
  -26.4790  -12.9290   20.1200 N   0  0  0  0  0  0  0  0  0  0  0  0
  -26.1150  -11.6450   20.3660 N   0  0  0  0  0  0  0  0  0  0  0  0
  -24.1030  -10.4530   20.9620 C   0  0  0  0  0  0  0  0  0  0  0  0
  -24.5310   -9.4700   21.8820 C   0  0  0  0  0  3  0  0  0  0  0  0
  -23.7830   -8.2850   22.0610 C   0  0  0  0  0  3  0  0  0  0  0  0
  -22.5960   -8.0770   21.3210 C   0  0  0  0  0  0  0  0  0  0  0  0
  -22.1900   -9.0460   20.3880 C   0  0  0  0  0  3  0  0  0  0  0  0
  -22.9370  -10.2230   20.2080 C   0  0  0  0  0  3  0  0  0  0  0  0
  -21.8180   -6.9470   21.4120 O   0  0  0  0  0  0  0  0  0  0  0  0
  -21.7120   -6.2400   22.5830 C   0  0  0  0  0  0  0  0  0  0  0  0
  -21.1650   -6.8100   23.7540 C   0  0  0  0  0  3  0  0  0  0  0  0
  -21.0140   -6.0250   24.9140 C   0  0  0  0  0  3  0  0  0  0  0  0
  -21.3960   -4.6710   24.9050 C   0  0  0  0  0  0  0  0  0  0  0  0
  -21.9330   -4.0990   23.7380 C   0  0  0  0  0  3  0  0  0  0  0  0
  -22.0900   -4.8820   22.5800 C   0  0  0  0  0  0  0  0  0  0  0  0
  -22.5890   -4.3230   21.4510 F   0  0  0  0  0  0  0  0  0  0  0  0
  -21.2430   -3.9130   26.0160 F   0  0  0  0  0  0  0  0  0  0  0  0
  -23.0670  -13.5660   21.2710 C   0  0  0  0  0  0  0  0  0  0  0  0
  -22.3840  -12.8580   22.1670 N   0  0  0  0  0  0  0  0  0  0  0  0
  -22.6220  -14.6160   20.8130 O   0  0  0  0  0  0  0  0  0  0  0  0
  -22.7560  -12.0070   22.5590 H   0  0  0  0  0  0  0  0  0  0  0  0
  -21.4710  -13.1740   22.4640 H   0  0  0  0  0  0  0  0  0  0  0  0
  -25.6690  -15.1970   20.3300 N   0  0  0  0  0  0  0  0  0  0  0  0
  -24.9130  -15.8510   20.5060 H   0  0  0  0  0  0  0  0  0  0  0  0
  -26.4550  -15.6230   19.8670 H   0  0  0  0  0  0  0  0  0  0  0  0
  -29.0570  -23.1340   20.3160 C   0  0  0  0  0  3  0  0  0  0  0  0
  -28.0740  -24.4840   20.0070 C   0  0  0  0  0  3  0  0  0  0  0  0
  -28.2940  -25.9900   20.3640 O   0  0  0  0  0  0  0  0  0  0  0  0
  -24.5670  -31.7020   23.1930 C   0  0  0  0  0  0  0  0  0  0  0  0
  -27.2400  -26.9720   20.2590 C   0  0  0  0  0  0  0  0  0  0  0  0
  -23.4180  -30.3010   21.5200 C   0  0  0  0  0  3  0  0  0  0  0  0
  -24.9140  -28.7140   20.1600 C   0  0  0  0  0  0  0  0  0  0  0  0
  -25.9780  -30.5600   21.4420 C   0  0  0  0  0  2  0  0  0  0  0  0
  -26.0750  -29.1630   20.8030 C   0  0  0  0  0  0  0  0  0  0  0  0
  -27.2370  -28.3050   20.8430 C   0  0  0  0  0  3  0  0  0  0  0  0
  -26.0510  -26.6290   19.5730 C   0  0  0  0  0  3  0  0  0  0  0  0
  -24.9110  -27.4590   19.5400 C   0  0  0  0  0  3  0  0  0  0  0  0
  -23.6860  -29.6120   20.1570 C   0  0  0  0  0  2  0  0  0  0  0  0
  -24.6730  -30.8770   22.1080 N   0  0  0  0  0  0  0  0  0  0  0  0
  -23.4650  -31.9870   23.6880 O   0  0  0  0  0  0  0  0  0  0  0  0
  -22.7080  -29.2990   22.4650 C   0  0  0  0  0  0  0  0  0  0  0  0
  -21.3840  -29.1230   22.3000 N   0  0  0  0  0  0  0  0  0  0  0  0
  -23.3520  -28.6800   23.3150 O   0  0  0  0  0  0  0  0  0  0  0  0
  -20.9120  -29.6770   21.5970 H   0  0  0  0  0  0  0  0  0  0  0  0
  -17.9940  -27.9210   22.7240 C   0  0  0  0  0  0  0  0  0  0  0  0
  -20.5440  -28.1870   23.0540 C   0  0  0  0  0  3  0  0  0  0  0  0
  -20.6610  -26.7510   22.4930 C   0  0  0  0  0  2  0  0  0  0  0  0
  -19.5900  -26.4220   21.4490 C   0  0  0  0  0  2  0  0  0  0  0  0
  -18.1900  -26.5720   22.0520 C   0  0  0  0  0  2  0  0  0  0  0  0
  -19.1000  -28.6870   23.1810 C   0  0  0  0  0  0  0  0  0  0  0  0
  -18.8660  -29.9480   23.7700 C   0  0  0  0  0  3  0  0  0  0  0  0
  -17.5590  -30.4540   23.8940 C   0  0  0  0  0  3  0  0  0  0  0  0
  -16.4670  -29.6890   23.4510 C   0  0  0  0  0  3  0  0  0  0  0  0
  -16.6830  -28.4220   22.8800 C   0  0  0  0  0  3  0  0  0  0  0  0
  -25.8250  -32.3450   23.8550 C   0  0  0  0  0  3  0  0  0  0  0  0
  -25.5090  -33.7490   24.1570 N   0  0  0  0  0  0  0  0  0  0  0  0
  -25.8280  -34.7900   23.3780 C   0  0  0  0  0  0  0  0  0  0  0  0
  -26.4890  -34.6710   22.3440 O   0  0  0  0  0  0  0  0  0  0  0  0
  -24.9320  -33.9160   24.9690 H   0  0  0  0  0  0  0  0  0  0  0  0
  -24.0800  -36.5640   23.0190 C   0  0  0  0  0  1  0  0  0  0  0  0
  -25.3370  -36.1840   23.8170 C   0  0  0  0  0  3  0  0  0  0  0  0
  -27.4660  -37.1190   24.6060 C   0  0  0  0  0  1  0  0  0  0  0  0
  -26.3580  -37.2440   23.6630 N   0  0  0  0  0  0  0  0  0  0  0  0
  -25.9400  -38.1630   23.7880 H   0  0  0  0  0  0  0  0  0  0  0  0
  -26.2890  -31.5940   25.1650 C   0  0  1  0  0  0  0  0  0  0  0  0
  -25.1530  -31.3760   26.1910 C   0  0  0  0  0  1  0  0  0  0  0  0
  -26.8880  -30.2110   24.8250 C   0  0  0  0  0  1  0  0  0  0  0  0
  -27.4120  -32.4000   25.8630 C   0  0  0  0  0  1  0  0  0  0  0  0
  1  5  1  0
  1  3  1  0
  2  6  1  0
  2  4  1  0
  4  7  1  0
  5  9  1  0
  6 19  1  0
  6  8  1  0
  7  3  1  0
  7  8  1  0
  8  9  1  0
  9 53  1  0
  9 10  1  6
 12 17  1  0
 13 14  1  0
 13 12  1  0
 15 14  1  0
 15 28  1  0
 15 16  1  0
 17 11  1  0
 17 16  1  0
 18 11  2  0
 19 20  1  0
 19 21  2  0
 20 11  1  0
 21 24  1  0
 22 20  1  0
 23 21  1  0
 25 26  2  0
 26 45  1  0
 27 26  1  0
 27 30  1  0
 28 29  1  0
 28 25  1  0
 29 27  2  0
 30 31  1  0
 31 32  2  0
 33 36  1  0
 33 32  1  0
 34 33  2  0
 35 34  1  0
 35 30  2  0
 36 37  1  0
 37 38  1  0
 38 39  2  0
 40 39  1  0
 40 44  1  0
 41 40  2  0
 42 37  2  0
 42 41  1  0
 43 42  1  0
 45 46  1  0
 46 49  1  0
 46 48  1  0
 47 45  2  0
 50 25  1  0
 50 51  1  0
 52 50  1  0
 54 53  2  0
 54 55  1  0
 56 67  2  0
 57 55  1  0
 57 62  1  0
 58 66  1  0
 58 68  1  0
 59 61  1  0
 60 66  1  0
 61 62  2  0
 61 60  1  0
 63 57  2  0
 64 63  1  0
 64 59  2  0
 65 59  1  0
 65 58  1  0
 66 56  1  0
 68 70  2  0
 69 68  1  0
 71 69  1  0
 72 81  2  0
 72 77  1  0
 73 69  1  0
 73 77  1  0
 74 73  1  0
 75 76  1  0
 75 74  1  0
 76 72  1  0
 77 78  2  0
 78 79  1  0
 80 79  2  0
 81 80  1  0
 82 56  1  0
 82 83  1  0
 82 92  1  0
 83 86  1  0
 84 88  1  0
 84 83  1  0
 85 84  2  0
 88 87  1  0
 90 91  1  0
 90 88  1  0
 90 89  1  0
 92 95  1  1
 92 93  1  0
 94 92  1  0
M  ISO  4  11 100  20 100  54 101  55 101
M  END
>  <TORSDO>  (7) 
F 18

>  <SCORE>  (7) 
-14.925

>  <name>  (7) 
6

>  <ligand_id>  (7) 
6

>  <original_smiles>  (7) 
[H]c1c([H])c([H])c2c(c1[H])C([H])([H])C([H])([H])C([H])([H])C2([H])N([H])C(=O)C1([H])N(C(=O)C([H])(N([H])C(=O)C([H])(N([H])C([H])([H])[H])C([H])([H])[H])C(C([H])([H])[H])(C([H])([H])[H])C([H])([H])[H])C([H])([H])c2c([H])c(OC([H])([H])C([H])([H])[N+]3([H])C([H])([H])C([H])([H])C([H])([H])C4([H])C([H])([H])C([H])([H])C([H])(C(N([H])C(=O)N5C([H])([H])C([H])([H])C([H])([H])C([H])(n6nc(-c7c([H])c([H])c(Oc8c([H])c([H])c(F)c([H])c8F)c([H])c7[H])c(C(=O)N([H])[H])c6N([H])[H])C5([H])[H])=[N+]([H])[H])C43[H])c([H])c([H])c2C1([H])[H]

>  <smiles>  (7) 
[H]c1c([H])c([H])c2c(c1[H])C([H])([H])C([H])([H])C([H])([H])C2([H])N([H])C(=O)C1([H])N(C(=O)C([H])(N([H])C(=O)C([H])(N([H])C([H])([H])[H])C([H])([H])[H])C(C([H])([H])[H])(C([H])([H])[H])C([H])([H])[H])C([H])([H])c2c([H])c(OC([H])([H])C([H])([H])[N+]3([H])C([H])([H])C([H])([H])C([H])([H])C4([H])C([H])([H])C([H])([H])C([H])(C(N([H])C(=O)N5C([H])([H])C([H])([H])C([H])([H])C([H])(n6nc(-c7c([H])c([H])c(Oc8c([H])c([H])c(F)c([H])c8F)c([H])c7[H])c(C(=O)N([H])[H])c6N([H])[H])C5([H])[H])=[N+]([H])[H])C43[H])c([H])c([H])c2C1([H])[H]

$$$$
7:0:0
     RDKit          3D

 97106  0  0  1  0  0  0  0  0999 V2000
  -28.1790  -21.7410   18.2760 C   0  0  0  0  0  2  0  0  0  0  0  0
  -26.6400  -21.9830   18.4710 C   0  0  0  0  0  2  0  0  0  0  0  0
  -27.0710  -23.0050   20.8220 C   0  0  0  0  0  2  0  0  0  0  0  0
  -28.9700  -21.6280   19.6080 C   0  0  0  0  0  3  0  0  0  0  0  0
  -26.1430  -22.1210   19.9520 C   0  0  0  0  0  3  0  0  0  0  0  0
  -28.4730  -23.2150   20.2390 C   0  0  0  0  0  3  0  0  0  0  0  0
  -30.5380  -15.7330   20.6680 C   0  0  0  0  0  0  0  0  0  0  0  0
  -30.5900  -13.2170   20.0320 C   0  0  0  0  0  2  0  0  0  0  0  0
  -29.7960  -12.8880   18.7440 C   0  0  0  0  0  2  0  0  0  0  0  0
  -28.3100  -12.6400   19.0640 C   0  0  0  0  0  2  0  0  0  0  0  0
  -27.7440  -13.6510   20.0880 C   0  0  0  0  0  3  0  0  0  0  0  0
  -28.6960  -13.9770   21.2610 C   0  0  0  0  0  2  0  0  0  0  0  0
  -29.9650  -14.4310   20.6660 N   0  0  0  0  0  0  0  0  0  0  0  0
  -31.7710  -15.7200   20.7780 O   0  0  0  0  0  0  0  0  0  0  0  0
  -28.8880  -16.9930   19.2130 C   0  0  0  0  0  2  0  0  0  0  0  0
  -30.1010  -18.6180   20.3710 C   0  0  0  0  0  2  0  0  0  0  0  0
  -27.6050  -17.7810   19.5620 C   0  0  0  0  0  2  0  0  0  0  0  0
  -28.8900  -19.9040   20.1750 C   0  0  0  0  0  3  0  0  0  0  0  0
  -29.8090  -16.9980   20.3480 N   0  0  0  0  0  0  0  0  0  0  0  0
  -27.8000  -19.2410   19.3920 N   0  0  0  0  0  4  0  0  0  0  0  0
  -26.9170  -19.6980   19.5610 H   0  0  0  0  0  0  0  0  0  0  0  0
  -27.9990  -19.3940   18.4130 H   0  0  0  0  0  0  0  0  0  0  0  0
  -25.3270  -14.2370   20.6070 C   0  0  0  0  0  0  0  0  0  0  0  0
  -24.2330  -13.4710   20.8590 C   0  0  0  0  0  0  0  0  0  0  0  0
  -24.7000  -12.1220   20.9000 C   0  0  0  0  0  0  0  0  0  0  0  0
  -26.3860  -13.3550   20.4950 N   0  0  0  0  0  0  0  0  0  0  0  0
  -26.0160  -12.0790   20.7380 N   0  0  0  0  0  0  0  0  0  0  0  0
  -23.9630  -10.8660   21.0250 C   0  0  0  0  0  0  0  0  0  0  0  0
  -24.3340   -9.8870   21.9710 C   0  0  0  0  0  3  0  0  0  0  0  0
  -23.5930   -8.6920   22.0880 C   0  0  0  0  0  3  0  0  0  0  0  0
  -22.4690   -8.4720   21.2580 C   0  0  0  0  0  0  0  0  0  0  0  0
  -22.1170   -9.4430   20.3040 C   0  0  0  0  0  3  0  0  0  0  0  0
  -22.8590  -10.6280   20.1830 C   0  0  0  0  0  3  0  0  0  0  0  0
  -21.7060   -7.3310   21.2840 O   0  0  0  0  0  0  0  0  0  0  0  0
  -21.6450   -6.5340   22.3980 C   0  0  0  0  0  0  0  0  0  0  0  0
  -21.2280   -7.0320   23.6510 C   0  0  0  0  0  3  0  0  0  0  0  0
  -21.1130   -6.1600   24.7520 C   0  0  0  0  0  3  0  0  0  0  0  0
  -21.4100   -4.7930   24.6010 C   0  0  0  0  0  0  0  0  0  0  0  0
  -21.8250   -4.2950   23.3530 C   0  0  0  0  0  3  0  0  0  0  0  0
  -21.9390   -5.1630   22.2550 C   0  0  0  0  0  0  0  0  0  0  0  0
  -22.3180   -4.6760   21.0480 F   0  0  0  0  0  0  0  0  0  0  0  0
  -21.2930   -3.9530   25.6560 F   0  0  0  0  0  0  0  0  0  0  0  0
  -22.8200  -13.9540   20.9620 C   0  0  0  0  0  0  0  0  0  0  0  0
  -22.0000  -13.2830   21.7600 N   0  0  0  0  0  0  0  0  0  0  0  0
  -22.4490  -14.9710   20.3750 O   0  0  0  0  0  0  0  0  0  0  0  0
  -22.3090  -12.4550   22.2470 H   0  0  0  0  0  0  0  0  0  0  0  0
  -21.0480  -13.6000   21.8770 H   0  0  0  0  0  0  0  0  0  0  0  0
  -25.5070  -15.6040   20.4420 N   0  0  0  0  0  0  0  0  0  0  0  0
  -24.7380  -16.2620   20.5070 H   0  0  0  0  0  0  0  0  0  0  0  0
  -26.4200  -16.0280   20.4180 H   0  0  0  0  0  0  0  0  0  0  0  0
  -24.7030  -22.6970   20.0690 C   0  0  0  0  0  2  0  0  0  0  0  0
  -23.6490  -21.8790   19.4450 N   0  0  0  0  0  4  0  0  0  0  0  0
  -23.8670  -21.6260   18.5000 H   0  0  0  0  0  0  0  0  0  0  0  0
  -22.7990  -22.4150   19.4240 H   0  0  0  0  0  0  0  0  0  0  0  0
  -23.4600  -21.0500   19.9820 H   0  0  0  0  0  0  0  0  0  0  0  0
  -28.3800  -24.7930   19.3960 C   0  0  0  0  0  2  0  0  0  0  0  0
  -28.3580  -26.3700   19.8210 O   0  0  0  0  0  0  0  0  0  0  0  0
  -24.7140  -31.9870   23.1980 C   0  0  0  0  0  0  0  0  0  0  0  0
  -27.2900  -27.3940   19.8060 C   0  0  0  0  0  0  0  0  0  0  0  0
  -23.4980  -30.6550   21.5230 C   0  0  0  0  0  3  0  0  0  0  0  0
  -24.9310  -29.1730   19.9650 C   0  0  0  0  0  0  0  0  0  0  0  0
  -26.0530  -30.9480   21.3040 C   0  0  0  0  0  2  0  0  0  0  0  0
  -26.1300  -29.5900   20.5520 C   0  0  0  0  0  0  0  0  0  0  0  0
  -27.3040  -28.7270   20.4440 C   0  0  0  0  0  3  0  0  0  0  0  0
  -26.0460  -27.1030   19.2050 C   0  0  0  0  0  3  0  0  0  0  0  0
  -24.9060  -27.9430   19.2810 C   0  0  0  0  0  3  0  0  0  0  0  0
  -23.6920  -30.0510   20.1060 C   0  0  0  0  0  2  0  0  0  0  0  0
  -24.7760  -31.2240   22.0590 N   0  0  0  0  0  0  0  0  0  0  0  0
  -23.6380  -32.2240   23.7710 O   0  0  0  0  0  0  0  0  0  0  0  0
  -22.8600  -29.5920   22.4540 C   0  0  0  0  0  0  0  0  0  0  0  0
  -21.5340  -29.3850   22.3480 N   0  0  0  0  0  0  0  0  0  0  0  0
  -23.5670  -28.9490   23.2350 O   0  0  0  0  0  0  0  0  0  0  0  0
  -21.0170  -29.9570   21.6940 H   0  0  0  0  0  0  0  0  0  0  0  0
  -18.2030  -28.0330   22.8450 C   0  0  0  0  0  0  0  0  0  0  0  0
  -20.7570  -28.3850   23.0860 C   0  0  0  0  0  3  0  0  0  0  0  0
  -20.9010  -26.9820   22.4500 C   0  0  0  0  0  2  0  0  0  0  0  0
  -19.7990  -26.6630   21.4370 C   0  0  0  0  0  2  0  0  0  0  0  0
  -18.4210  -26.7260   22.1040 C   0  0  0  0  0  2  0  0  0  0  0  0
  -19.2990  -28.8210   23.2930 C   0  0  0  0  0  0  0  0  0  0  0  0
  -19.0360  -30.0460   23.9430 C   0  0  0  0  0  3  0  0  0  0  0  0
  -17.7130  -30.4810   24.1520 C   0  0  0  0  0  3  0  0  0  0  0  0
  -16.6350  -29.6860   23.7240 C   0  0  0  0  0  3  0  0  0  0  0  0
  -16.8820  -28.4640   23.0730 C   0  0  0  0  0  3  0  0  0  0  0  0
  -25.9910  -32.6210   23.8270 C   0  0  0  0  0  3  0  0  0  0  0  0
  -26.5810  -31.7770   25.0260 C   0  0  1  0  0  0  0  0  0  0  0  0
  -25.5420  -31.4250   26.1170 C   0  0  0  0  0  1  0  0  0  0  0  0
  -27.1850  -30.4470   24.5240 C   0  0  0  0  0  1  0  0  0  0  0  0
  -27.7390  -32.5570   25.6980 C   0  0  0  0  0  1  0  0  0  0  0  0
  -25.6440  -33.9780   24.2870 N   0  0  0  0  0  0  0  0  0  0  0  0
  -25.9510  -35.1090   23.6390 C   0  0  0  0  0  0  0  0  0  0  0  0
  -26.6180  -35.1230   22.6020 O   0  0  0  0  0  0  0  0  0  0  0  0
  -25.0400  -34.0420   25.0920 H   0  0  0  0  0  0  0  0  0  0  0  0
  -24.1880  -36.8980   23.4820 C   0  0  0  0  0  1  0  0  0  0  0  0
  -25.4410  -36.4320   24.2390 C   0  0  0  0  0  3  0  0  0  0  0  0
  -27.5580  -37.2740   25.1530 C   0  0  0  0  0  1  0  0  0  0  0  0
  -26.4480  -37.5140   24.2340 N   0  0  0  0  0  0  0  0  0  0  0  0
  -26.0220  -38.4020   24.4780 H   0  0  0  0  0  0  0  0  0  0  0  0
  1  2  1  0
  2  5  1  0
  4  1  1  0
  4 18  1  0
  4  6  1  0
  5 51  1  0
  5  3  1  0
  6 56  1  0
  6  3  1  0
  7 14  2  0
  8 13  1  0
  9 10  1  0
  9  8  1  0
 11 10  1  0
 11 26  1  0
 11 12  1  0
 13  7  1  0
 13 12  1  0
 15 17  1  0
 15 19  1  0
 18 16  1  0
 19 16  1  0
 19  7  1  0
 20 21  1  0
 20 17  1  0
 20 18  1  0
 22 20  1  0
 23 24  2  0
 24 25  1  0
 24 43  1  0
 25 28  1  0
 26 23  1  0
 26 27  1  0
 27 25  2  0
 28 29  1  0
 29 30  2  0
 31 34  1  0
 31 30  1  0
 32 31  2  0
 33 32  1  0
 33 28  2  0
 34 35  1  0
 35 36  1  0
 36 37  2  0
 38 37  1  0
 38 42  1  0
 39 38  2  0
 40 35  2  0
 40 39  1  0
 41 40  1  0
 43 44  1  0
 44 47  1  0
 44 46  1  0
 45 43  2  0
 48 49  1  0
 48 23  1  0
 50 48  1  0
 52 55  1  0
 52 51  1  0
 53 52  1  0
 54 52  1  0
 56 57  1  0
 58 69  2  0
 59 57  1  0
 59 64  1  0
 60 68  1  0
 60 70  1  0
 61 67  1  0
 61 63  1  0
 62 68  1  0
 63 62  1  0
 64 63  2  0
 65 66  1  0
 65 59  2  0
 66 61  2  0
 67 60  1  0
 68 58  1  0
 70 72  2  0
 71 70  1  0
 73 71  1  0
 74 83  2  0
 74 79  1  0
 75 71  1  0
 75 79  1  0
 76 75  1  0
 77 78  1  0
 77 76  1  0
 78 74  1  0
 79 80  2  0
 80 81  1  0
 82 81  2  0
 83 82  1  0
 84 58  1  0
 84 89  1  0
 84 85  1  0
 85 88  1  1
 85 86  1  0
 87 85  1  0
 89 92  1  0
 90 94  1  0
 90 89  1  0
 91 90  2  0
 94 93  1  0
 96 94  1  0
 96 97  1  0
 96 95  1  0
M  ISO  4   7 100  19 100  56 101  57 101
M  END
>  <TORSDO>  (8) 
F 19

>  <SCORE>  (8) 
-14.417

>  <name>  (8) 
7

>  <ligand_id>  (8) 
7

>  <original_smiles>  (8) 
[H]c1c([H])c([H])c2c(c1[H])C([H])([H])C([H])([H])C([H])([H])C2([H])N([H])C(=O)C1([H])N(C(=O)C([H])(N([H])C(=O)C([H])(N([H])C([H])([H])[H])C([H])([H])[H])C(C([H])([H])[H])(C([H])([H])[H])C([H])([H])[H])C([H])([H])c2c([H])c(OC([H])([H])C3([H])C([H])([H])C([H])(C([H])([H])[N+]([H])([H])[H])C([H])([H])C([H])([H])C3([H])C3([H])C([H])([H])N(C(=O)N4C([H])([H])C([H])([H])C([H])([H])C([H])(n5nc(-c6c([H])c([H])c(Oc7c([H])c([H])c(F)c([H])c7F)c([H])c6[H])c(C(=O)N([H])[H])c5N([H])[H])C4([H])[H])C([H])([H])C([H])([H])[N+]3([H])[H])c([H])c([H])c2C1([H])[H]

>  <smiles>  (8) 
[H]c1c([H])c([H])c2c(c1[H])C([H])([H])C([H])([H])C([H])([H])C2([H])N([H])C(=O)C1([H])N(C(=O)C([H])(N([H])C(=O)C([H])(N([H])C([H])([H])[H])C([H])([H])[H])C(C([H])([H])[H])(C([H])([H])[H])C([H])([H])[H])C([H])([H])c2c([H])c(OC([H])([H])C3([H])C([H])([H])C([H])(C([H])([H])[N+]([H])([H])[H])C([H])([H])C([H])([H])C3([H])C3([H])C([H])([H])N(C(=O)N4C([H])([H])C([H])([H])C([H])([H])C([H])(n5nc(-c6c([H])c([H])c(Oc7c([H])c([H])c(F)c([H])c7F)c([H])c6[H])c(C(=O)N([H])[H])c5N([H])[H])C4([H])[H])C([H])([H])C([H])([H])[N+]3([H])[H])c([H])c([H])c2C1([H])[H]

$$$$
8:0:0
     RDKit          3D

 91 99  0  0  1  0  0  0  0  0999 V2000
  -29.4200  -22.5060   18.9970 C   0  0  0  0  0  2  0  0  0  0  0  0
  -28.5270  -22.6620   21.2010 C   0  0  0  0  0  2  0  0  0  0  0  0
  -29.1710  -20.9340   18.9580 C   0  0  0  0  0  2  0  0  0  0  0  0
  -28.2520  -21.0600   21.1790 C   0  0  0  0  0  2  0  0  0  0  0  0
  -28.4080  -23.4060   19.8120 C   0  0  0  0  0  3  0  0  0  0  0  0
  -29.1450  -20.2040   20.2810 N   0  0  1  0  0  4  0  0  0  0  0  0
  -30.0730  -20.2590   20.6740 H   0  0  0  0  0  0  0  0  0  0  0  0
  -28.6310  -25.0400   19.5330 C   0  0  0  0  0  2  0  0  0  0  0  0
  -28.3400  -26.3340   20.2880 O   0  0  0  0  0  0  0  0  0  0  0  0
  -24.6170  -31.8630   23.2020 C   0  0  0  0  0  0  0  0  0  0  0  0
  -27.2460  -27.2360   20.1350 C   0  0  0  0  0  0  0  0  0  0  0  0
  -23.4280  -30.4630   21.5570 C   0  0  0  0  0  3  0  0  0  0  0  0
  -24.8850  -28.9130   20.1080 C   0  0  0  0  0  0  0  0  0  0  0  0
  -25.9730  -30.7650   21.3860 C   0  0  0  0  0  2  0  0  0  0  0  0
  -26.0510  -29.3820   20.7260 C   0  0  0  0  0  0  0  0  0  0  0  0
  -27.2250  -28.5550   20.7290 C   0  0  0  0  0  3  0  0  0  0  0  0
  -26.0650  -26.8520   19.4660 C   0  0  0  0  0  3  0  0  0  0  0  0
  -24.9040  -27.6660   19.4550 C   0  0  0  0  0  3  0  0  0  0  0  0
  -23.6460  -29.7950   20.1680 C   0  0  0  0  0  2  0  0  0  0  0  0
  -24.6920  -31.0540   22.1020 N   0  0  0  0  0  0  0  0  0  0  0  0
  -23.5310  -32.1320   23.7380 O   0  0  0  0  0  0  0  0  0  0  0  0
  -22.7580  -29.4540   22.5190 C   0  0  0  0  0  0  0  0  0  0  0  0
  -21.4290  -29.2880   22.4070 N   0  0  0  0  0  0  0  0  0  0  0  0
  -23.4380  -28.8210   23.3290 O   0  0  0  0  0  0  0  0  0  0  0  0
  -20.9330  -29.8590   21.7400 H   0  0  0  0  0  0  0  0  0  0  0  0
  -18.0520  -28.0850   22.9250 C   0  0  0  0  0  0  0  0  0  0  0  0
  -20.6140  -28.3450   23.1780 C   0  0  0  0  0  3  0  0  0  0  0  0
  -20.7120  -26.9190   22.5920 C   0  0  0  0  0  2  0  0  0  0  0  0
  -19.6000  -26.5970   21.5870 C   0  0  0  0  0  2  0  0  0  0  0  0
  -18.2220  -26.7450   22.2340 C   0  0  0  0  0  2  0  0  0  0  0  0
  -19.1750  -28.8440   23.3540 C   0  0  0  0  0  0  0  0  0  0  0  0
  -18.9570  -30.1030   23.9530 C   0  0  0  0  0  3  0  0  0  0  0  0
  -17.6540  -30.6050   24.1280 C   0  0  0  0  0  3  0  0  0  0  0  0
  -16.5450  -29.8420   23.7140 C   0  0  0  0  0  3  0  0  0  0  0  0
  -16.7440  -28.5860   23.1180 C   0  0  0  0  0  3  0  0  0  0  0  0
  -25.8930  -32.5040   23.8320 C   0  0  0  0  0  3  0  0  0  0  0  0
  -25.5860  -33.9060   24.1610 N   0  0  0  0  0  0  0  0  0  0  0  0
  -25.9100  -34.9620   23.4090 C   0  0  0  0  0  0  0  0  0  0  0  0
  -26.5840  -34.8660   22.3780 O   0  0  0  0  0  0  0  0  0  0  0  0
  -25.0250  -34.0610   24.9840 H   0  0  0  0  0  0  0  0  0  0  0  0
  -24.1830  -36.7510   23.0670 C   0  0  0  0  0  1  0  0  0  0  0  0
  -25.4240  -36.3470   23.8760 C   0  0  0  0  0  3  0  0  0  0  0  0
  -27.5570  -37.2290   24.7140 C   0  0  0  0  0  1  0  0  0  0  0  0
  -26.4530  -37.4050   23.7730 N   0  0  0  0  0  0  0  0  0  0  0  0
  -26.0420  -38.3260   23.9220 H   0  0  0  0  0  0  0  0  0  0  0  0
  -26.4030  -31.7420   25.1170 C   0  0  1  0  0  0  0  0  0  0  0  0
  -25.3070  -31.5160   26.1790 C   0  0  0  0  0  1  0  0  0  0  0  0
  -26.9880  -30.3650   24.7320 C   0  0  0  0  0  1  0  0  0  0  0  0
  -27.5390  -32.5510   25.7800 C   0  0  0  0  0  1  0  0  0  0  0  0
  -28.8180  -18.6680   20.0920 C   0  0  0  0  0  2  0  0  0  0  0  0
  -29.6520  -17.3890   20.7550 C   0  0  0  0  0  2  0  0  0  0  0  0
  -30.7190  -14.9400   20.2530 C   0  0  0  0  0  0  0  0  0  0  0  0
  -30.4400  -12.6490   19.2410 C   0  0  0  0  0  2  0  0  0  0  0  0
  -29.4920  -12.6120   18.0300 C   0  0  0  0  0  2  0  0  0  0  0  0
  -28.0410  -12.4070   18.5030 C   0  0  0  0  0  2  0  0  0  0  0  0
  -27.6520  -13.3460   19.6740 C   0  0  0  0  0  3  0  0  0  0  0  0
  -28.7310  -13.3900   20.7760 C   0  0  0  0  0  2  0  0  0  0  0  0
  -29.9850  -13.7700   20.1070 N   0  0  0  0  0  0  0  0  0  0  0  0
  -31.9450  -14.7920   20.2060 O   0  0  0  0  0  0  0  0  0  0  0  0
  -30.2150  -16.2240   19.8760 N   0  0  0  0  0  0  0  0  0  0  0  0
  -25.2730  -13.9180   20.4270 C   0  0  0  0  0  0  0  0  0  0  0  0
  -24.2150  -13.1380   20.8060 C   0  0  0  0  0  0  0  0  0  0  0  0
  -24.6890  -11.7920   20.7870 C   0  0  0  0  0  0  0  0  0  0  0  0
  -26.3210  -13.0410   20.1970 N   0  0  0  0  0  0  0  0  0  0  0  0
  -25.9800  -11.7590   20.4800 N   0  0  0  0  0  0  0  0  0  0  0  0
  -23.9670  -10.5260   20.9820 C   0  0  0  0  0  0  0  0  0  0  0  0
  -24.3960   -9.5660   21.9240 C   0  0  0  0  0  3  0  0  0  0  0  0
  -23.6730   -8.3690   22.1090 C   0  0  0  0  0  3  0  0  0  0  0  0
  -22.4970   -8.1250   21.3580 C   0  0  0  0  0  0  0  0  0  0  0  0
  -22.0870   -9.0720   20.4040 C   0  0  0  0  0  3  0  0  0  0  0  0
  -22.8150  -10.2590   20.2150 C   0  0  0  0  0  3  0  0  0  0  0  0
  -21.7410   -6.9860   21.4620 O   0  0  0  0  0  0  0  0  0  0  0  0
  -21.6950   -6.2550   22.6210 C   0  0  0  0  0  0  0  0  0  0  0  0
  -21.2720   -6.8150   23.8460 C   0  0  0  0  0  3  0  0  0  0  0  0
  -21.1740   -6.0050   24.9960 C   0  0  0  0  0  3  0  0  0  0  0  0
  -21.4860   -4.6360   24.9210 C   0  0  0  0  0  0  0  0  0  0  0  0
  -21.9050   -4.0730   23.6990 C   0  0  0  0  0  3  0  0  0  0  0  0
  -22.0040   -4.8800   22.5550 C   0  0  0  0  0  0  0  0  0  0  0  0
  -22.3840   -4.3250   21.3790 F   0  0  0  0  0  0  0  0  0  0  0  0
  -21.3840   -3.8570   26.0230 F   0  0  0  0  0  0  0  0  0  0  0  0
  -22.8150  -13.6060   21.0700 C   0  0  0  0  0  0  0  0  0  0  0  0
  -22.1000  -12.9070   21.9410 N   0  0  0  0  0  0  0  0  0  0  0  0
  -22.3710  -14.6240   20.5440 O   0  0  0  0  0  0  0  0  0  0  0  0
  -22.4780  -12.0770   22.3740 H   0  0  0  0  0  0  0  0  0  0  0  0
  -21.1600  -13.1930   22.1730 H   0  0  0  0  0  0  0  0  0  0  0  0
  -25.4270  -15.2870   20.2260 N   0  0  0  0  0  0  0  0  0  0  0  0
  -24.6490  -15.9320   20.2930 H   0  0  0  0  0  0  0  0  0  0  0  0
  -26.2620  -15.7090   19.8410 H   0  0  0  0  0  0  0  0  0  0  0  0
  -31.0580  -16.8990   18.8200 C   0  0  0  0  0  2  0  0  0  0  0  0
  -33.2850  -18.2430   18.4140 C   0  0  0  0  0  1  0  0  0  0  0  0
  -32.1530  -17.8670   19.3910 C   0  0  0  0  0  2  0  0  0  0  0  0
  1  5  1  0
  3  1  1  0
  3  6  1  0
  4  2  1  0
  5  8  1  0
  5  2  1  0
  6  7  1  1
  6  4  1  0
  8  9  1  0
 10 21  2  0
 11  9  1  0
 11 16  1  0
 12 20  1  0
 12 22  1  0
 13 19  1  0
 13 15  1  0
 14 20  1  0
 15 16  2  0
 15 14  1  0
 17 11  2  0
 18 17  1  0
 18 13  2  0
 19 12  1  0
 20 10  1  0
 22 24  2  0
 23 22  1  0
 25 23  1  0
 26 35  2  0
 26 31  1  0
 27 23  1  0
 27 31  1  0
 28 27  1  0
 29 30  1  0
 29 28  1  0
 30 26  1  0
 31 32  2  0
 32 33  1  0
 34 33  2  0
 35 34  1  0
 36 10  1  0
 36 37  1  0
 36 46  1  0
 37 40  1  0
 38 42  1  0
 38 37  1  0
 39 38  2  0
 42 41  1  0
 44 42  1  0
 44 45  1  0
 44 43  1  0
 46 49  1  1
 46 47  1  0
 48 46  1  0
 50  6  1  0
 50 51  1  0
 53 58  1  0
 54 55  1  0
 54 53  1  0
 56 55  1  0
 56 64  1  0
 56 57  1  0
 58 52  1  0
 58 57  1  0
 59 52  2  0
 60 52  1  0
 60 51  1  0
 61 62  2  0
 62 81  1  0
 63 62  1  0
 63 66  1  0
 64 61  1  0
 64 65  1  0
 65 63  2  0
 66 67  1  0
 67 68  2  0
 69 72  1  0
 69 68  1  0
 70 69  2  0
 71 70  1  0
 71 66  2  0
 72 73  1  0
 73 74  1  0
 74 75  2  0
 76 75  1  0
 76 80  1  0
 77 76  2  0
 78 73  2  0
 78 77  1  0
 79 78  1  0
 81 82  1  0
 82 85  1  0
 82 84  1  0
 83 81  2  0
 86 87  1  0
 86 61  1  0
 88 86  1  0
 89 91  1  0
 89 60  1  0
 90 91  1  0
M  ISO  4   8 101   9 101  52 100  60 100
M  END
>  <TORSDO>  (9) 
F 21

>  <SCORE>  (9) 
-13.550

>  <name>  (9) 
8

>  <ligand_id>  (9) 
8

>  <original_smiles>  (9) 
[H]c1c([H])c([H])c2c(c1[H])C([H])([H])C([H])([H])C([H])([H])C2([H])N([H])C(=O)C1([H])N(C(=O)C([H])(N([H])C(=O)C([H])(N([H])C([H])([H])[H])C([H])([H])[H])C(C([H])([H])[H])(C([H])([H])[H])C([H])([H])[H])C([H])([H])c2c([H])c(OC([H])([H])C3([H])C([H])([H])C([H])([H])[N+]([H])(C([H])([H])C([H])([H])N(C(=O)N4C([H])([H])C([H])([H])C([H])([H])C([H])(n5nc(-c6c([H])c([H])c(Oc7c([H])c([H])c(F)c([H])c7F)c([H])c6[H])c(C(=O)N([H])[H])c5N([H])[H])C4([H])[H])C([H])([H])C([H])([H])C([H])([H])[H])C([H])([H])C3([H])[H])c([H])c([H])c2C1([H])[H]

>  <smiles>  (9) 
[H]c1c([H])c([H])c2c(c1[H])C([H])([H])C([H])([H])C([H])([H])C2([H])N([H])C(=O)C1([H])N(C(=O)C([H])(N([H])C(=O)C([H])(N([H])C([H])([H])[H])C([H])([H])[H])C(C([H])([H])[H])(C([H])([H])[H])C([H])([H])[H])C([H])([H])c2c([H])c(OC([H])([H])C3([H])C([H])([H])C([H])([H])[N+]([H])(C([H])([H])C([H])([H])N(C(=O)N4C([H])([H])C([H])([H])C([H])([H])C([H])(n5nc(-c6c([H])c([H])c(Oc7c([H])c([H])c(F)c([H])c7F)c([H])c6[H])c(C(=O)N([H])[H])c5N([H])[H])C4([H])[H])C([H])([H])C([H])([H])C([H])([H])[H])C([H])([H])C3([H])[H])c([H])c([H])c2C1([H])[H]

$$$$
9:0:0
     RDKit          3D

 98108  0  0  1  0  0  0  0  0999 V2000
  -28.8410  -23.4380   23.7570 C   0  0  0  0  0  2  0  0  0  0  0  0
  -28.9590  -21.4240   18.7080 C   0  0  0  0  0  2  0  0  0  0  0  0
  -29.4060  -22.1930   23.0530 C   0  0  0  0  0  2  0  0  0  0  0  0
  -28.0690  -20.6750   19.7130 C   0  0  0  0  0  2  0  0  0  0  0  0
  -29.2530  -22.8620   19.1720 C   0  0  0  0  0  2  0  0  0  0  0  0
  -29.4290  -24.7800   23.2860 C   0  0  0  0  0  2  0  0  0  0  0  0
  -28.9510  -22.0910   21.5860 C   0  0  0  0  0  3  0  0  0  0  0  0
  -28.7030  -20.6070   21.1220 C   0  0  0  0  0  3  0  0  0  0  0  0
  -29.8530  -22.8950   20.5910 C   0  0  0  0  0  3  0  0  0  0  0  0
  -29.2610  -25.1190   21.7810 C   0  0  0  0  0  3  0  0  0  0  0  0
  -30.2060  -24.2950   20.9780 N   0  0  0  0  0  4  0  0  0  0  0  0
  -30.4010  -24.7940   20.1240 H   0  0  0  0  0  0  0  0  0  0  0  0
  -31.0790  -24.2550   21.4820 H   0  0  0  0  0  0  0  0  0  0  0  0
  -29.9500  -19.6610   21.2100 C   0  0  0  0  0  3  0  0  0  0  0  0
  -29.7260  -18.1150   21.0190 C   0  0  0  0  0  3  0  0  0  0  0  0
  -31.3970  -14.7560   20.5890 C   0  0  0  0  0  0  0  0  0  0  0  0
  -31.1480  -12.4410   19.7990 C   0  0  0  0  0  2  0  0  0  0  0  0
  -30.3010  -12.4360   18.5100 C   0  0  0  0  0  2  0  0  0  0  0  0
  -28.8000  -12.3780   18.8470 C   0  0  0  0  0  2  0  0  0  0  0  0
  -28.3720  -13.3900   19.9450 C   0  0  0  0  0  3  0  0  0  0  0  0
  -29.3490  -13.3910   21.1390 C   0  0  0  0  0  2  0  0  0  0  0  0
  -30.7020  -13.5870   20.6060 N   0  0  0  0  0  0  0  0  0  0  0  0
  -32.6240  -14.7810   20.4640 O   0  0  0  0  0  0  0  0  0  0  0  0
  -31.3910  -17.4460   18.5150 C   0  0  0  0  0  2  0  0  0  0  0  0
  -32.0200  -17.7940   19.8490 C   0  0  0  0  0  2  0  0  0  0  0  0
  -30.6420  -16.1370   18.8040 C   0  0  0  0  0  2  0  0  0  0  0  0
  -31.0080  -17.2120   20.8500 C   0  0  0  0  0  3  0  0  0  0  0  0
  -30.6790  -15.8770   20.2690 N   0  0  0  0  0  0  0  0  0  0  0  0
  -25.9690  -14.0840   20.5350 C   0  0  0  0  0  0  0  0  0  0  0  0
  -24.8570  -13.3530   20.8580 C   0  0  0  0  0  0  0  0  0  0  0  0
  -25.2720  -11.9860   20.8690 C   0  0  0  0  0  0  0  0  0  0  0  0
  -26.9930  -13.1640   20.3670 N   0  0  0  0  0  0  0  0  0  0  0  0
  -26.5750  -11.8990   20.6320 N   0  0  0  0  0  0  0  0  0  0  0  0
  -24.4910  -10.7530   21.0330 C   0  0  0  0  0  0  0  0  0  0  0  0
  -24.8230   -9.7950   22.0170 C   0  0  0  0  0  3  0  0  0  0  0  0
  -24.0460   -8.6270   22.1690 C   0  0  0  0  0  3  0  0  0  0  0  0
  -22.9230   -8.4080   21.3370 C   0  0  0  0  0  0  0  0  0  0  0  0
  -22.6130   -9.3510   20.3420 C   0  0  0  0  0  3  0  0  0  0  0  0
  -23.3880  -10.5120   20.1870 C   0  0  0  0  0  3  0  0  0  0  0  0
  -22.1240   -7.2910   21.3950 O   0  0  0  0  0  0  0  0  0  0  0  0
  -21.9280   -6.6070   22.5690 C   0  0  0  0  0  0  0  0  0  0  0  0
  -21.4050   -7.2380   23.7190 C   0  0  0  0  0  3  0  0  0  0  0  0
  -21.1550   -6.4840   24.8820 C   0  0  0  0  0  3  0  0  0  0  0  0
  -21.4160   -5.1000   24.8940 C   0  0  0  0  0  0  0  0  0  0  0  0
  -21.9280   -4.4690   23.7470 C   0  0  0  0  0  3  0  0  0  0  0  0
  -22.1810   -5.2210   22.5870 C   0  0  0  0  0  0  0  0  0  0  0  0
  -22.6560   -4.6050   21.4780 F   0  0  0  0  0  0  0  0  0  0  0  0
  -21.1680   -4.3740   26.0100 F   0  0  0  0  0  0  0  0  0  0  0  0
  -23.4670  -13.8830   21.0480 C   0  0  0  0  0  0  0  0  0  0  0  0
  -22.6740  -13.2350   21.8950 N   0  0  0  0  0  0  0  0  0  0  0  0
  -23.0890  -14.9060   20.4800 O   0  0  0  0  0  0  0  0  0  0  0  0
  -22.9900  -12.4070   22.3770 H   0  0  0  0  0  0  0  0  0  0  0  0
  -21.7370  -13.5740   22.0630 H   0  0  0  0  0  0  0  0  0  0  0  0
  -26.1900  -15.4440   20.3520 N   0  0  0  0  0  0  0  0  0  0  0  0
  -25.4430  -16.1260   20.4270 H   0  0  0  0  0  0  0  0  0  0  0  0
  -27.0810  -15.8550   20.0990 H   0  0  0  0  0  0  0  0  0  0  0  0
  -29.5490  -26.6400   21.5640 C   0  0  0  0  0  2  0  0  0  0  0  0
  -29.1060  -27.1270   20.2880 O   0  0  0  0  0  0  0  0  0  0  0  0
  -24.7770  -31.9400   23.3190 C   0  0  0  0  0  0  0  0  0  0  0  0
  -27.9110  -27.8140   20.2780 C   0  0  0  0  0  0  0  0  0  0  0  0
  -23.7640  -30.4950   21.5840 C   0  0  0  0  0  3  0  0  0  0  0  0
  -25.4040  -29.1210   20.1930 C   0  0  0  0  0  0  0  0  0  0  0  0
  -26.2560  -31.0640   21.5150 C   0  0  0  0  0  2  0  0  0  0  0  0
  -26.4840  -29.7190   20.8560 C   0  0  0  0  0  0  0  0  0  0  0  0
  -27.7400  -29.0740   20.9000 C   0  0  0  0  0  3  0  0  0  0  0  0
  -26.8240  -27.2390   19.5920 C   0  0  0  0  0  3  0  0  0  0  0  0
  -25.5700  -27.8780   19.5580 C   0  0  0  0  0  3  0  0  0  0  0  0
  -24.0900  -29.8720   20.2000 C   0  0  0  0  0  2  0  0  0  0  0  0
  -24.9450  -31.1820   22.1980 N   0  0  0  0  0  0  0  0  0  0  0  0
  -23.6540  -32.1070   23.8150 O   0  0  0  0  0  0  0  0  0  0  0  0
  -23.1560  -29.3970   22.4870 C   0  0  0  0  0  0  0  0  0  0  0  0
  -21.8530  -29.1230   22.3030 N   0  0  0  0  0  0  0  0  0  0  0  0
  -23.8540  -28.7950   23.3060 O   0  0  0  0  0  0  0  0  0  0  0  0
  -21.3460  -29.6680   21.6180 H   0  0  0  0  0  0  0  0  0  0  0  0
  -18.5560  -27.6910   22.6530 C   0  0  0  0  0  0  0  0  0  0  0  0
  -21.0820  -28.1040   23.0120 C   0  0  0  0  0  3  0  0  0  0  0  0
  -21.2950  -26.7090   22.3810 C   0  0  0  0  0  2  0  0  0  0  0  0
  -20.2450  -26.3570   21.3220 C   0  0  0  0  0  2  0  0  0  0  0  0
  -18.8390  -26.3870   21.9290 C   0  0  0  0  0  2  0  0  0  0  0  0
  -19.6090  -28.5060   23.1470 C   0  0  0  0  0  0  0  0  0  0  0  0
  -19.2910  -29.7270   23.7780 C   0  0  0  0  0  3  0  0  0  0  0  0
  -17.9520  -30.1380   23.9240 C   0  0  0  0  0  3  0  0  0  0  0  0
  -16.9130  -29.3210   23.4470 C   0  0  0  0  0  3  0  0  0  0  0  0
  -17.2150  -28.0990   22.8180 C   0  0  0  0  0  3  0  0  0  0  0  0
  -25.9790  -32.6530   24.0140 C   0  0  0  0  0  3  0  0  0  0  0  0
  -26.4450  -31.9360   25.3400 C   0  0  1  0  0  0  0  0  0  0  0  0
  -25.2920  -31.6430   26.3260 C   0  0  0  0  0  1  0  0  0  0  0  0
  -27.1440  -30.5930   25.0170 C   0  0  0  0  0  1  0  0  0  0  0  0
  -27.4910  -32.8110   26.0710 C   0  0  0  0  0  1  0  0  0  0  0  0
  -25.5750  -34.0390   24.2870 N   0  0  0  0  0  0  0  0  0  0  0  0
  -25.9050  -35.0900   23.5250 C   0  0  0  0  0  0  0  0  0  0  0  0
  -26.6510  -35.0000   22.5450 O   0  0  0  0  0  0  0  0  0  0  0  0
  -24.9180  -34.1780   25.0400 H   0  0  0  0  0  0  0  0  0  0  0  0
  -24.1080  -36.7720   23.0070 C   0  0  0  0  0  1  0  0  0  0  0  0
  -25.3120  -36.4580   23.9090 C   0  0  0  0  0  3  0  0  0  0  0  0
  -27.3380  -37.4780   24.8490 C   0  0  0  0  0  1  0  0  0  0  0  0
  -26.2900  -37.5660   23.8360 N   0  0  0  0  0  0  0  0  0  0  0  0
  -25.8250  -38.4630   23.9400 H   0  0  0  0  0  0  0  0  0  0  0  0
  2  5  1  0
  2  4  1  0
  3  1  1  0
  4  8  1  0
  6  1  1  0
  7  3  1  0
  8 14  1  0
  8  7  1  0
  9  5  1  0
  9 11  1  0
  9  7  1  0
 10 57  1  0
 10  6  1  0
 11 13  1  0
 11 10  1  0
 12 11  1  0
 15 14  2  0
 16 22  1  0
 17 22  1  0
 18 19  1  0
 18 17  1  0
 20 19  1  0
 20 32  1  0
 20 21  1  0
 22 21  1  0
 23 16  2  0
 24 26  1  0
 24 25  1  0
 25 27  1  0
 26 28  1  0
 27 15  1  0
 28 16  1  0
 28 27  1  0
 29 30  2  0
 30 31  1  0
 30 49  1  0
 31 34  1  0
 32 29  1  0
 32 33  1  0
 33 31  2  0
 34 35  1  0
 35 36  2  0
 37 40  1  0
 37 36  1  0
 38 37  2  0
 39 38  1  0
 39 34  2  0
 40 41  1  0
 41 46  2  0
 41 42  1  0
 42 43  2  0
 43 44  1  0
 44 48  1  0
 45 44  2  0
 46 45  1  0
 47 46  1  0
 49 50  1  0
 50 53  1  0
 50 52  1  0
 51 49  2  0
 54 55  1  0
 54 29  1  0
 56 54  1  0
 58 57  1  0
 59 70  2  0
 60 58  1  0
 60 65  1  0
 61 69  1  0
 61 71  1  0
 62 68  1  0
 62 64  1  0
 63 69  1  0
 64 65  2  0
 64 63  1  0
 66 60  2  0
 67 66  1  0
 67 62  2  0
 68 61  1  0
 69 59  1  0
 71 73  2  0
 72 71  1  0
 74 72  1  0
 75 84  2  0
 75 80  1  0
 76 72  1  0
 76 80  1  0
 77 76  1  0
 78 79  1  0
 78 77  1  0
 79 75  1  0
 80 81  2  0
 81 82  1  0
 83 82  2  0
 84 83  1  0
 85 59  1  0
 85 90  1  0
 85 86  1  0
 86 89  1  1
 86 87  1  0
 88 86  1  0
 90 93  1  0
 91 95  1  0
 91 90  1  0
 92 91  2  0
 95 94  1  0
 97 95  1  0
 97 98  1  0
 97 96  1  0
M  ISO  4  16 100  28 100  57 101  58 101
M  END
>  <TORSDO>  (10) 
F 19

>  <SCORE>  (10) 
-12.388

>  <name>  (10) 
9

>  <ligand_id>  (10) 
9

>  <original_smiles>  (10) 
[H]c1c([H])c([H])c2c(c1[H])C([H])([H])C([H])([H])C([H])([H])C2([H])N([H])C(=O)C1([H])N(C(=O)C([H])(N([H])C(=O)C([H])(N([H])C([H])([H])[H])C([H])([H])[H])C(C([H])([H])[H])(C([H])([H])[H])C([H])([H])[H])C([H])([H])c2c([H])c(OC([H])([H])C3([H])C([H])([H])C([H])([H])C([H])([H])C4([H])C([H])(C([H])([H])C([H])([H])C5([H])N(C(=O)N6C([H])([H])C([H])([H])C([H])([H])C([H])(n7nc(-c8c([H])c([H])c(Oc9c([H])c([H])c(F)c([H])c9F)c([H])c8[H])c(C(=O)N([H])[H])c7N([H])[H])C6([H])[H])C([H])([H])C([H])([H])C5([H])[H])C([H])([H])C([H])([H])C([H])([H])C4([H])[N+]3([H])[H])c([H])c([H])c2C1([H])[H]

>  <smiles>  (10) 
[H]c1c([H])c([H])c2c(c1[H])C([H])([H])C([H])([H])C([H])([H])C2([H])N([H])C(=O)C1([H])N(C(=O)C([H])(N([H])C(=O)C([H])(N([H])C([H])([H])[H])C([H])([H])[H])C(C([H])([H])[H])(C([H])([H])[H])C([H])([H])[H])C([H])([H])c2c([H])c(OC([H])([H])C3([H])C([H])([H])C([H])([H])C([H])([H])C4([H])C([H])(C([H])([H])C([H])([H])C5([H])N(C(=O)N6C([H])([H])C([H])([H])C([H])([H])C([H])(n7nc(-c8c([H])c([H])c(Oc9c([H])c([H])c(F)c([H])c9F)c([H])c8[H])c(C(=O)N([H])[H])c7N([H])[H])C6([H])[H])C([H])([H])C([H])([H])C5([H])[H])C([H])([H])C([H])([H])C([H])([H])C4([H])[N+]3([H])[H])c([H])c([H])c2C1([H])[H]

$$$$
10:0:0
     RDKit          3D

 96104  0  0  1  0  0  0  0  0999 V2000
  -31.6460  -18.7190   22.0270 C   0  0  0  0  0  2  0  0  0  0  0  0
  -31.9330  -18.1530   20.6220 C   0  0  0  0  0  2  0  0  0  0  0  0
  -29.1540  -19.0490   21.5080 C   0  0  0  0  0  2  0  0  0  0  0  0
  -30.2060  -18.4600   22.5130 C   0  0  0  0  0  3  0  0  0  0  0  0
  -29.6070  -19.1110   20.0170 C   0  0  0  0  0  3  0  0  0  0  0  0
  -30.6640  -17.8000   19.8070 C   0  0  0  0  0  3  0  0  0  0  0  0
  -30.9890  -15.0420   19.8480 C   0  0  0  0  0  0  0  0  0  0  0  0
  -30.7540  -12.6820   18.9660 C   0  0  0  0  0  2  0  0  0  0  0  0
  -29.7700  -12.6770   17.7750 C   0  0  0  0  0  2  0  0  0  0  0  0
  -28.3330  -12.4530   18.2840 C   0  0  0  0  0  2  0  0  0  0  0  0
  -27.9910  -13.3840   19.4810 C   0  0  0  0  0  3  0  0  0  0  0  0
  -29.1080  -13.4240   20.5510 C   0  0  0  0  0  2  0  0  0  0  0  0
  -30.3510  -13.8000   19.8670 N   0  0  0  0  0  0  0  0  0  0  0  0
  -32.1600  -15.0500   19.4580 O   0  0  0  0  0  0  0  0  0  0  0  0
  -30.2870  -16.2690   20.0620 N   0  0  0  0  0  0  0  0  0  0  0  0
  -29.3380  -16.1310   20.3780 H   0  0  0  0  0  0  0  0  0  0  0  0
  -25.6820  -13.9720   20.4110 C   0  0  0  0  0  0  0  0  0  0  0  0
  -24.6290  -13.1980   20.8240 C   0  0  0  0  0  0  0  0  0  0  0  0
  -25.0600  -11.8450   20.6980 C   0  0  0  0  0  0  0  0  0  0  0  0
  -26.6850  -13.0850   20.0590 N   0  0  0  0  0  0  0  0  0  0  0  0
  -26.3270  -11.7970   20.2960 N   0  0  0  0  0  0  0  0  0  0  0  0
  -24.3180  -10.5880   20.8860 C   0  0  0  0  0  0  0  0  0  0  0  0
  -24.7040   -9.6380   21.8570 C   0  0  0  0  0  3  0  0  0  0  0  0
  -23.9620   -8.4510   22.0320 C   0  0  0  0  0  3  0  0  0  0  0  0
  -22.8190   -8.2030   21.2340 C   0  0  0  0  0  0  0  0  0  0  0  0
  -22.4510   -9.1410   20.2540 C   0  0  0  0  0  3  0  0  0  0  0  0
  -23.1930  -10.3220   20.0780 C   0  0  0  0  0  3  0  0  0  0  0  0
  -22.0540   -7.0650   21.3140 O   0  0  0  0  0  0  0  0  0  0  0  0
  -21.8130   -6.4440   22.5110 C   0  0  0  0  0  0  0  0  0  0  0  0
  -21.1600   -7.1020   23.5760 C   0  0  0  0  0  3  0  0  0  0  0  0
  -20.8690   -6.4020   24.7640 C   0  0  0  0  0  3  0  0  0  0  0  0
  -21.2260   -5.0450   24.8900 C   0  0  0  0  0  0  0  0  0  0  0  0
  -21.8700   -4.3860   23.8280 C   0  0  0  0  0  3  0  0  0  0  0  0
  -22.1620   -5.0830   22.6430 C   0  0  0  0  0  0  0  0  0  0  0  0
  -22.7650   -4.4370   21.6160 F   0  0  0  0  0  0  0  0  0  0  0  0
  -20.9400   -4.3710   26.0290 F   0  0  0  0  0  0  0  0  0  0  0  0
  -23.2660  -13.6910   21.2120 C   0  0  0  0  0  0  0  0  0  0  0  0
  -22.5930  -12.9800   22.1110 N   0  0  0  0  0  0  0  0  0  0  0  0
  -22.8140  -14.7400   20.7580 O   0  0  0  0  0  0  0  0  0  0  0  0
  -22.9770  -12.1330   22.5030 H   0  0  0  0  0  0  0  0  0  0  0  0
  -21.6780  -13.2860   22.4060 H   0  0  0  0  0  0  0  0  0  0  0  0
  -25.8510  -15.3440   20.2830 N   0  0  0  0  0  0  0  0  0  0  0  0
  -25.0750  -15.9810   20.4330 H   0  0  0  0  0  0  0  0  0  0  0  0
  -26.6680  -15.8060   19.9090 H   0  0  0  0  0  0  0  0  0  0  0  0
  -30.0040  -18.9320   23.9800 C   0  0  0  0  0  2  0  0  0  0  0  0
  -31.0770  -18.4860   24.8980 N   0  0  0  0  0  4  0  0  0  0  0  0
  -31.1420  -17.4850   24.9530 H   0  0  0  0  0  0  0  0  0  0  0  0
  -30.9220  -18.8360   25.8290 H   0  0  0  0  0  0  0  0  0  0  0  0
  -31.9610  -18.8480   24.5870 H   0  0  0  0  0  0  0  0  0  0  0  0
  -29.9650  -20.7170   19.5460 C   0  0  0  0  0  2  0  0  0  0  0  0
  -28.9560  -21.9480   19.5670 N   0  0  0  0  0  4  0  0  0  0  0  0
  -28.4410  -21.8980   20.4340 H   0  0  0  0  0  0  0  0  0  0  0  0
  -28.2800  -21.7680   18.8400 H   0  0  0  0  0  0  0  0  0  0  0  0
  -29.4100  -23.4720   19.4090 C   0  0  0  0  0  3  0  0  0  0  0  0
  -28.3230  -24.7480   19.3030 C   0  0  0  0  0  3  0  0  0  0  0  0
  -28.5680  -26.2640   19.5400 O   0  0  0  0  0  0  0  0  0  0  0  0
  -24.7130  -31.4980   23.0300 C   0  0  0  0  0  0  0  0  0  0  0  0
  -27.4690  -27.1950   19.5840 C   0  0  0  0  0  0  0  0  0  0  0  0
  -23.5730  -30.2300   21.2550 C   0  0  0  0  0  3  0  0  0  0  0  0
  -25.0820  -28.8520   19.7050 C   0  0  0  0  0  0  0  0  0  0  0  0
  -26.1180  -30.5950   21.1490 C   0  0  0  0  0  2  0  0  0  0  0  0
  -26.2430  -29.2760   20.3630 C   0  0  0  0  0  0  0  0  0  0  0  0
  -27.4380  -28.4670   20.2850 C   0  0  0  0  0  3  0  0  0  0  0  0
  -26.2700  -26.8700   18.9090 C   0  0  0  0  0  3  0  0  0  0  0  0
  -25.1080  -27.6650   18.9670 C   0  0  0  0  0  3  0  0  0  0  0  0
  -23.8200  -29.6910   19.8250 C   0  0  0  0  0  2  0  0  0  0  0  0
  -24.8200  -30.7860   21.8690 N   0  0  0  0  0  0  0  0  0  0  0  0
  -23.6110  -31.7030   23.5660 O   0  0  0  0  0  0  0  0  0  0  0  0
  -22.9180  -29.1120   22.1040 C   0  0  0  0  0  0  0  0  0  0  0  0
  -21.5880  -28.9470   21.9740 N   0  0  0  0  0  0  0  0  0  0  0  0
  -23.6060  -28.3990   22.8390 O   0  0  0  0  0  0  0  0  0  0  0  0
  -21.0900  -29.5720   21.3560 H   0  0  0  0  0  0  0  0  0  0  0  0
  -18.2080  -27.7500   22.4810 C   0  0  0  0  0  0  0  0  0  0  0  0
  -20.7830  -27.9280   22.6500 C   0  0  0  0  0  3  0  0  0  0  0  0
  -20.8210  -26.5860   21.8810 C   0  0  0  0  0  2  0  0  0  0  0  0
  -19.6640  -26.4250   20.8890 C   0  0  0  0  0  2  0  0  0  0  0  0
  -18.3190  -26.5040   21.6160 C   0  0  0  0  0  2  0  0  0  0  0  0
  -19.3650  -28.4250   22.9530 C   0  0  0  0  0  0  0  0  0  0  0  0
  -19.2080  -29.5970   23.7230 C   0  0  0  0  0  3  0  0  0  0  0  0
  -17.9230  -30.0950   24.0210 C   0  0  0  0  0  3  0  0  0  0  0  0
  -16.7830  -29.4130   23.5640 C   0  0  0  0  0  3  0  0  0  0  0  0
  -16.9270  -28.2400   22.8030 C   0  0  0  0  0  3  0  0  0  0  0  0
  -25.9640  -32.1080   23.7300 C   0  0  0  0  0  3  0  0  0  0  0  0
  -25.6340  -33.4920   24.1060 N   0  0  0  0  0  0  0  0  0  0  0  0
  -25.9520  -34.5720   23.3820 C   0  0  0  0  0  0  0  0  0  0  0  0
  -26.6150  -34.5090   22.3440 O   0  0  0  0  0  0  0  0  0  0  0  0
  -25.0240  -33.6110   24.9030 H   0  0  0  0  0  0  0  0  0  0  0  0
  -24.1820  -36.3410   23.1220 C   0  0  0  0  0  1  0  0  0  0  0  0
  -25.4540  -35.9410   23.8860 C   0  0  0  0  0  3  0  0  0  0  0  0
  -27.5890  -36.8460   24.6960 C   0  0  0  0  0  1  0  0  0  0  0  0
  -26.4680  -37.0130   23.7720 N   0  0  0  0  0  0  0  0  0  0  0  0
  -26.0510  -37.9250   23.9450 H   0  0  0  0  0  0  0  0  0  0  0  0
  -26.4260  -31.2860   24.9970 C   0  0  1  0  0  0  0  0  0  0  0  0
  -25.2810  -31.0070   26.0050 C   0  0  0  0  0  1  0  0  0  0  0  0
  -27.0230  -29.9240   24.5790 C   0  0  0  0  0  1  0  0  0  0  0  0
  -27.5600  -32.0450   25.7260 C   0  0  0  0  0  1  0  0  0  0  0  0
  1  4  1  0
  2  1  1  0
  3  4  1  0
  4 45  1  0
  5 50  1  0
  5  3  1  0
  6  5  1  0
  6 15  1  0
  6  2  1  0
  7 13  1  0
  7 15  1  0
  8 13  1  0
  9 10  1  0
  9  8  1  0
 11 10  1  0
 11 20  1  0
 11 12  1  0
 13 12  1  0
 14  7  2  0
 15 16  1  0
 17 18  2  0
 18 37  1  0
 19 18  1  0
 19 22  1  0
 20 21  1  0
 20 17  1  0
 21 19  2  0
 22 23  1  0
 23 24  2  0
 25 28  1  0
 25 24  1  0
 26 25  2  0
 27 26  1  0
 27 22  2  0
 28 29  1  0
 29 34  2  0
 29 30  1  0
 30 31  2  0
 31 32  1  0
 32 36  1  0
 33 32  2  0
 34 33  1  0
 35 34  1  0
 37 38  1  0
 38 41  1  0
 38 40  1  0
 39 37  2  0
 42 17  1  0
 42 43  1  0
 44 42  1  0
 45 46  1  0
 46 47  1  0
 46 48  1  0
 49 46  1  0
 50 51  1  0
 51 52  1  0
 53 51  1  0
 54 51  1  0
 55 54  2  0
 55 56  1  0
 56 58  1  0
 57 68  2  0
 58 63  1  0
 59 67  1  0
 59 69  1  0
 60 66  1  0
 60 62  1  0
 61 67  1  0
 62 61  1  0
 63 62  2  0
 64 65  1  0
 64 58  2  0
 65 60  2  0
 66 59  1  0
 67 57  1  0
 69 71  2  0
 70 69  1  0
 72 70  1  0
 73 82  2  0
 73 78  1  0
 74 70  1  0
 74 78  1  0
 75 74  1  0
 76 77  1  0
 76 75  1  0
 77 73  1  0
 78 79  2  0
 79 80  1  0
 81 80  2  0
 82 81  1  0
 83 57  1  0
 83 84  1  0
 83 93  1  0
 84 87  1  0
 85 89  1  0
 85 84  1  0
 86 85  2  0
 89 88  1  0
 91 89  1  0
 91 92  1  0
 91 90  1  0
 93 96  1  1
 93 94  1  0
 95 93  1  0
M  ISO  4   7 100  15 100  55 101  56 101
M  END
>  <TORSDO>  (11) 
F 22

>  <SCORE>  (11) 
-8.802

>  <name>  (11) 
10

>  <ligand_id>  (11) 
10

>  <original_smiles>  (11) 
[H]c1c([H])c([H])c2c(c1[H])C([H])([H])C([H])([H])C([H])([H])C2([H])N([H])C(=O)C1([H])N(C(=O)C([H])(N([H])C(=O)C([H])(N([H])C([H])([H])[H])C([H])([H])[H])C(C([H])([H])[H])(C([H])([H])[H])C([H])([H])[H])C([H])([H])c2c([H])c(OC([H])([H])C([H])([H])[N+]([H])([H])C([H])([H])C3([H])C([H])([H])C([H])(C([H])([H])[N+]([H])([H])[H])C([H])([H])C([H])([H])C3([H])N([H])C(=O)N3C([H])([H])C([H])([H])C([H])([H])C([H])(n4nc(-c5c([H])c([H])c(Oc6c([H])c([H])c(F)c([H])c6F)c([H])c5[H])c(C(=O)N([H])[H])c4N([H])[H])C3([H])[H])c([H])c([H])c2C1([H])[H]

>  <smiles>  (11) 
[H]c1c([H])c([H])c2c(c1[H])C([H])([H])C([H])([H])C([H])([H])C2([H])N([H])C(=O)C1([H])N(C(=O)C([H])(N([H])C(=O)C([H])(N([H])C([H])([H])[H])C([H])([H])[H])C(C([H])([H])[H])(C([H])([H])[H])C([H])([H])[H])C([H])([H])c2c([H])c(OC([H])([H])C([H])([H])[N+]([H])([H])C([H])([H])C3([H])C([H])([H])C([H])(C([H])([H])[N+]([H])([H])[H])C([H])([H])C([H])([H])C3([H])N([H])C(=O)N3C([H])([H])C([H])([H])C([H])([H])C([H])(n4nc(-c5c([H])c([H])c(Oc6c([H])c([H])c(F)c([H])c6F)c([H])c5[H])c(C(=O)N([H])[H])c4N([H])[H])C3([H])[H])c([H])c([H])c2C1([H])[H]

$$$$
11:0:0
     RDKit          3D

 91 99  0  0  1  0  0  0  0  0999 V2000
  -29.3010  -22.7750   20.3230 N   0  0  0  0  0  4  0  0  0  0  0  0
  -29.4170  -22.7400   19.3230 H   0  0  0  0  0  0  0  0  0  0  0  0
  -30.2310  -22.9190   20.6940 H   0  0  0  0  0  0  0  0  0  0  0  0
  -28.8920  -21.3790   20.7740 C   0  0  0  0  0  2  0  0  0  0  0  0
  -30.6440  -14.6840   20.3800 C   0  0  0  0  0  0  0  0  0  0  0  0
  -30.3500  -12.4580   19.2890 C   0  0  0  0  0  2  0  0  0  0  0  0
  -29.3980  -12.5380   18.0770 C   0  0  0  0  0  2  0  0  0  0  0  0
  -27.9390  -12.3580   18.5320 C   0  0  0  0  0  2  0  0  0  0  0  0
  -27.5780  -13.2570   19.7420 C   0  0  0  0  0  3  0  0  0  0  0  0
  -28.6460  -13.1720   20.8570 C   0  0  0  0  0  2  0  0  0  0  0  0
  -29.9450  -13.5050   20.2590 N   0  0  0  0  0  0  0  0  0  0  0  0
  -31.8080  -14.7460   19.9730 O   0  0  0  0  0  0  0  0  0  0  0  0
  -30.0830  -20.3490   20.8710 C   0  0  0  0  0  0  0  0  0  0  0  0
  -31.1550  -18.1070   21.1600 C   0  0  0  0  0  2  0  0  0  0  0  0
  -28.7600  -18.1330   20.6730 C   0  0  0  0  0  2  0  0  0  0  0  0
  -30.8320  -16.7160   21.8050 C   0  0  0  0  0  2  0  0  0  0  0  0
  -28.9870  -16.6070   20.2500 C   0  0  0  0  0  2  0  0  0  0  0  0
  -29.9690  -18.9610   20.9030 N   0  0  0  0  0  0  0  0  0  0  0  0
  -30.0520  -15.8130   20.9320 N   0  0  0  0  0  0  0  0  0  0  0  0
  -31.2000  -20.8720   20.9570 O   0  0  0  0  0  0  0  0  0  0  0  0
  -25.1960  -13.8550   20.4860 C   0  0  0  0  0  0  0  0  0  0  0  0
  -24.1340  -13.0800   20.8660 C   0  0  0  0  0  0  0  0  0  0  0  0
  -24.6000  -11.7310   20.8390 C   0  0  0  0  0  0  0  0  0  0  0  0
  -26.2390  -12.9760   20.2470 N   0  0  0  0  0  0  0  0  0  0  0  0
  -25.8890  -11.6940   20.5230 N   0  0  0  0  0  0  0  0  0  0  0  0
  -23.8790  -10.4680   21.0360 C   0  0  0  0  0  0  0  0  0  0  0  0
  -24.3250   -9.4990   21.9600 C   0  0  0  0  0  3  0  0  0  0  0  0
  -23.6020   -8.3010   22.1460 C   0  0  0  0  0  3  0  0  0  0  0  0
  -22.4180   -8.0660   21.4060 C   0  0  0  0  0  0  0  0  0  0  0  0
  -21.9910   -9.0240   20.4710 C   0  0  0  0  0  3  0  0  0  0  0  0
  -22.7170  -10.2130   20.2840 C   0  0  0  0  0  3  0  0  0  0  0  0
  -21.6630   -6.9210   21.5040 O   0  0  0  0  0  0  0  0  0  0  0  0
  -21.6410   -6.1690   22.6500 C   0  0  0  0  0  0  0  0  0  0  0  0
  -21.2460   -6.7150   23.8920 C   0  0  0  0  0  3  0  0  0  0  0  0
  -21.1700   -5.8900   25.0310 C   0  0  0  0  0  3  0  0  0  0  0  0
  -21.4770   -4.5190   24.9310 C   0  0  0  0  0  0  0  0  0  0  0  0
  -21.8650   -3.9740   23.6950 C   0  0  0  0  0  3  0  0  0  0  0  0
  -21.9430   -4.7960   22.5570 C   0  0  0  0  0  0  0  0  0  0  0  0
  -22.2960   -4.2590   21.3630 F   0  0  0  0  0  0  0  0  0  0  0  0
  -21.3970   -3.7240   26.0240 F   0  0  0  0  0  0  0  0  0  0  0  0
  -22.7400  -13.5570   21.1450 C   0  0  0  0  0  0  0  0  0  0  0  0
  -22.0170  -12.8640   22.0200 N   0  0  0  0  0  0  0  0  0  0  0  0
  -22.2950  -14.5770   20.6200 O   0  0  0  0  0  0  0  0  0  0  0  0
  -22.3890  -12.0380   22.4670 H   0  0  0  0  0  0  0  0  0  0  0  0
  -21.0790  -13.1630   22.2460 H   0  0  0  0  0  0  0  0  0  0  0  0
  -25.3490  -15.2240   20.2970 N   0  0  0  0  0  0  0  0  0  0  0  0
  -24.5720  -15.8670   20.4030 H   0  0  0  0  0  0  0  0  0  0  0  0
  -26.1880  -15.6710   19.9530 H   0  0  0  0  0  0  0  0  0  0  0  0
  -28.4350  -23.9870   20.6630 C   0  0  0  0  0  2  0  0  0  0  0  0
  -28.6550  -25.2750   19.7460 C   0  0  0  0  0  2  0  0  0  0  0  0
  -28.4470  -26.6290   20.2810 O   0  0  0  0  0  0  0  0  0  0  0  0
  -24.6080  -31.8770   23.2420 C   0  0  0  0  0  0  0  0  0  0  0  0
  -27.2600  -27.3640   20.1930 C   0  0  0  0  0  0  0  0  0  0  0  0
  -23.3980  -30.4720   21.5990 C   0  0  0  0  0  3  0  0  0  0  0  0
  -24.8570  -28.9110   20.1820 C   0  0  0  0  0  0  0  0  0  0  0  0
  -25.9270  -30.8170   21.4010 C   0  0  0  0  0  2  0  0  0  0  0  0
  -26.0150  -29.4350   20.7680 C   0  0  0  0  0  0  0  0  0  0  0  0
  -27.2120  -28.6700   20.7640 C   0  0  0  0  0  3  0  0  0  0  0  0
  -26.0790  -26.8720   19.5950 C   0  0  0  0  0  3  0  0  0  0  0  0
  -24.8870  -27.6340   19.5930 C   0  0  0  0  0  3  0  0  0  0  0  0
  -23.6110  -29.7730   20.2250 C   0  0  0  0  0  2  0  0  0  0  0  0
  -24.6620  -31.0740   22.1370 N   0  0  0  0  0  0  0  0  0  0  0  0
  -23.5290  -32.1510   23.7860 O   0  0  0  0  0  0  0  0  0  0  0  0
  -22.7410  -29.4640   22.5700 C   0  0  0  0  0  0  0  0  0  0  0  0
  -21.4170  -29.2840   22.4440 N   0  0  0  0  0  0  0  0  0  0  0  0
  -23.4240  -28.8420   23.3870 O   0  0  0  0  0  0  0  0  0  0  0  0
  -20.9290  -29.8360   21.7540 H   0  0  0  0  0  0  0  0  0  0  0  0
  -18.0450  -28.0780   22.9460 C   0  0  0  0  0  0  0  0  0  0  0  0
  -20.6020  -28.3460   23.2180 C   0  0  0  0  0  3  0  0  0  0  0  0
  -20.7090  -26.9150   22.6460 C   0  0  0  0  0  2  0  0  0  0  0  0
  -19.6110  -26.5860   21.6290 C   0  0  0  0  0  2  0  0  0  0  0  0
  -18.2270  -26.7280   22.2720 C   0  0  0  0  0  2  0  0  0  0  0  0
  -19.1620  -28.8450   23.3740 C   0  0  0  0  0  0  0  0  0  0  0  0
  -18.9390  -30.1080   23.9630 C   0  0  0  0  0  3  0  0  0  0  0  0
  -17.6330  -30.6070   24.1270 C   0  0  0  0  0  3  0  0  0  0  0  0
  -16.5320  -29.8380   23.7140 C   0  0  0  0  0  3  0  0  0  0  0  0
  -16.7380  -28.5760   23.1300 C   0  0  0  0  0  3  0  0  0  0  0  0
  -25.8960  -32.5050   23.8610 C   0  0  0  0  0  3  0  0  0  0  0  0
  -26.4180  -31.7340   25.1370 C   0  0  1  0  0  0  0  0  0  0  0  0
  -25.3310  -31.5010   26.2120 C   0  0  0  0  0  1  0  0  0  0  0  0
  -26.9950  -30.3540   24.7460 C   0  0  0  0  0  1  0  0  0  0  0  0
  -27.5750  -32.5250   25.7910 C   0  0  0  0  0  1  0  0  0  0  0  0
  -25.5900  -33.9040   24.1910 N   0  0  0  0  0  0  0  0  0  0  0  0
  -25.9240  -34.9570   23.4320 C   0  0  0  0  0  0  0  0  0  0  0  0
  -26.5910  -34.8520   22.3990 O   0  0  0  0  0  0  0  0  0  0  0  0
  -24.9960  -34.0570   24.9930 H   0  0  0  0  0  0  0  0  0  0  0  0
  -24.1980  -36.7540   23.0810 C   0  0  0  0  0  1  0  0  0  0  0  0
  -25.4400  -36.3460   23.8900 C   0  0  0  0  0  3  0  0  0  0  0  0
  -27.5810  -37.2270   24.7120 C   0  0  0  0  0  1  0  0  0  0  0  0
  -26.4730  -37.3990   23.7750 N   0  0  0  0  0  0  0  0  0  0  0  0
  -26.0690  -38.3180   23.9280 H   0  0  0  0  0  0  0  0  0  0  0  0
  1 49  1  0
  1  3  1  0
  1  4  1  0
  2  1  1  0
  4 13  1  0
  5 19  1  0
  6 11  1  0
  7  8  1  0
  7  6  1  0
  9  8  1  0
  9 24  1  0
  9 10  1  0
 11  5  1  0
 11 10  1  0
 12  5  2  0
 13 18  1  0
 13 20  2  0
 14 16  1  0
 15 18  1  0
 17 15  1  0
 17 19  1  0
 18 14  1  0
 19 16  1  0
 21 22  2  0
 22 41  1  0
 23 22  1  0
 23 26  1  0
 24 21  1  0
 24 25  1  0
 25 23  2  0
 26 27  1  0
 27 28  2  0
 29 32  1  0
 29 28  1  0
 30 29  2  0
 31 30  1  0
 31 26  2  0
 32 33  1  0
 33 34  1  0
 34 35  2  0
 36 35  1  0
 36 40  1  0
 37 36  2  0
 38 33  2  0
 38 37  1  0
 39 38  1  0
 41 42  1  0
 42 45  1  0
 42 44  1  0
 43 41  2  0
 46 47  1  0
 46 21  1  0
 48 46  1  0
 50 51  1  0
 50 49  1  0
 52 63  2  0
 53 51  1  0
 53 58  1  0
 54 62  1  0
 54 64  1  0
 55 61  1  0
 55 57  1  0
 56 62  1  0
 57 56  1  0
 58 57  2  0
 59 53  2  0
 60 59  1  0
 60 55  2  0
 61 54  1  0
 62 52  1  0
 64 66  2  0
 65 64  1  0
 67 65  1  0
 68 77  2  0
 68 73  1  0
 69 65  1  0
 69 73  1  0
 70 69  1  0
 71 72  1  0
 71 70  1  0
 72 68  1  0
 73 74  2  0
 74 75  1  0
 76 75  2  0
 77 76  1  0
 78 52  1  0
 78 83  1  0
 78 79  1  0
 79 82  1  1
 79 80  1  0
 81 79  1  0
 83 86  1  0
 84 88  1  0
 84 83  1  0
 85 84  2  0
 88 87  1  0
 90 88  1  0
 90 91  1  0
 90 89  1  0
M  ISO  4   5 100  19 100  50 101  51 101
M  END
>  <TORSDO>  (12) 
F 19

>  <SCORE>  (12) 
-14.429

>  <name>  (12) 
11

>  <ligand_id>  (12) 
11

>  <original_smiles>  (12) 
[H]c1c([H])c([H])c2c(c1[H])C([H])([H])C([H])([H])C([H])([H])C2([H])N([H])C(=O)C1([H])N(C(=O)C([H])(N([H])C(=O)C([H])(N([H])C([H])([H])[H])C([H])([H])[H])C(C([H])([H])[H])(C([H])([H])[H])C([H])([H])[H])C([H])([H])c2c([H])c(OC([H])([H])C([H])([H])[N+]([H])([H])C([H])([H])C(=O)N3C([H])([H])C([H])([H])N(C(=O)N4C([H])([H])C([H])([H])C([H])([H])C([H])(n5nc(-c6c([H])c([H])c(Oc7c([H])c([H])c(F)c([H])c7F)c([H])c6[H])c(C(=O)N([H])[H])c5N([H])[H])C4([H])[H])C([H])([H])C3([H])[H])c([H])c([H])c2C1([H])[H]

>  <smiles>  (12) 
[H]c1c([H])c([H])c2c(c1[H])C([H])([H])C([H])([H])C([H])([H])C2([H])N([H])C(=O)C1([H])N(C(=O)C([H])(N([H])C(=O)C([H])(N([H])C([H])([H])[H])C([H])([H])[H])C(C([H])([H])[H])(C([H])([H])[H])C([H])([H])[H])C([H])([H])c2c([H])c(OC([H])([H])C([H])([H])[N+]([H])([H])C([H])([H])C(=O)N3C([H])([H])C([H])([H])N(C(=O)N4C([H])([H])C([H])([H])C([H])([H])C([H])(n5nc(-c6c([H])c([H])c(Oc7c([H])c([H])c(F)c([H])c7F)c([H])c6[H])c(C(=O)N([H])[H])c5N([H])[H])C4([H])[H])C([H])([H])C3([H])[H])c([H])c([H])c2C1([H])[H]

$$$$
12:0:0
     RDKit          3D

 92100  0  0  1  0  0  0  0  0999 V2000
  -29.8200  -21.1080   19.7910 N   0  0  1  0  0  4  0  0  0  0  0  0
  -28.8870  -20.7800   19.9840 H   0  0  0  0  0  0  0  0  0  0  0  0
  -29.8220  -22.7060   23.9190 C   0  0  0  0  0  2  0  0  0  0  0  0
  -29.3840  -23.5870   22.7390 C   0  0  0  0  0  2  0  0  0  0  0  0
  -30.9500  -21.7530   23.5060 C   0  0  0  0  0  2  0  0  0  0  0  0
  -29.0050  -22.7350   21.5170 C   0  0  0  0  0  2  0  0  0  0  0  0
  -30.5760  -20.9270   22.2620 C   0  0  0  0  0  2  0  0  0  0  0  0
  -30.1770  -21.8300   21.0570 C   0  0  0  0  0  3  0  0  0  0  0  0
  -29.5180  -22.1220   18.5860 C   0  0  0  0  0  2  0  0  0  0  0  0
  -29.6170  -23.8280   18.5840 C   0  0  0  0  0  3  0  0  0  0  0  0
  -28.4720  -24.9210   17.9780 C   0  0  0  0  0  3  0  0  0  0  0  0
  -28.4310  -26.4830   18.0910 O   0  0  0  0  0  0  0  0  0  0  0  0
  -24.6050  -30.8630   22.6080 C   0  0  0  0  0  0  0  0  0  0  0  0
  -27.2490  -27.2860   18.3250 C   0  0  0  0  0  0  0  0  0  0  0  0
  -23.3490  -29.6490   20.8680 C   0  0  0  0  0  3  0  0  0  0  0  0
  -24.7430  -28.6320   18.9600 C   0  0  0  0  0  0  0  0  0  0  0  0
  -25.7930  -30.3290   20.4470 C   0  0  0  0  0  2  0  0  0  0  0  0
  -25.9360  -29.1210   19.5040 C   0  0  0  0  0  0  0  0  0  0  0  0
  -27.1830  -28.4630   19.1770 C   0  0  0  0  0  3  0  0  0  0  0  0
  -26.0120  -26.9160   17.7520 C   0  0  0  0  0  3  0  0  0  0  0  0
  -24.7890  -27.5520   18.0670 C   0  0  0  0  0  3  0  0  0  0  0  0
  -23.4350  -29.3010   19.3590 C   0  0  0  0  0  2  0  0  0  0  0  0
  -24.6080  -30.2940   21.3630 N   0  0  0  0  0  0  0  0  0  0  0  0
  -23.5860  -30.8690   23.3170 O   0  0  0  0  0  0  0  0  0  0  0  0
  -22.9560  -28.3810   21.6660 C   0  0  0  0  0  0  0  0  0  0  0  0
  -21.6840  -27.9560   21.5560 N   0  0  0  0  0  0  0  0  0  0  0  0
  -23.7950  -27.7860   22.3480 O   0  0  0  0  0  0  0  0  0  0  0  0
  -21.0490  -28.5020   20.9930 H   0  0  0  0  0  0  0  0  0  0  0  0
  -18.7020  -25.9170   21.8300 C   0  0  0  0  0  0  0  0  0  0  0  0
  -21.1230  -26.7550   22.1830 C   0  0  0  0  0  3  0  0  0  0  0  0
  -21.5640  -25.4770   21.4320 C   0  0  0  0  0  2  0  0  0  0  0  0
  -20.5630  -25.0320   20.3610 C   0  0  0  0  0  2  0  0  0  0  0  0
  -19.1940  -24.7520   20.9890 C   0  0  0  0  0  2  0  0  0  0  0  0
  -19.6060  -26.8680   22.3770 C   0  0  0  0  0  0  0  0  0  0  0  0
  -19.0910  -27.9490   23.1220 C   0  0  0  0  0  3  0  0  0  0  0  0
  -17.7060  -28.0900   23.3270 C   0  0  0  0  0  3  0  0  0  0  0  0
  -16.8170  -27.1390   22.7950 C   0  0  0  0  0  3  0  0  0  0  0  0
  -17.3160  -26.0550   22.0520 C   0  0  0  0  0  3  0  0  0  0  0  0
  -25.8770  -31.5500   23.1930 C   0  0  0  0  0  3  0  0  0  0  0  0
  -25.4560  -32.8170   23.8140 N   0  0  0  0  0  0  0  0  0  0  0  0
  -25.6660  -34.0320   23.2900 C   0  0  0  0  0  0  0  0  0  0  0  0
  -26.2990  -34.2090   22.2460 O   0  0  0  0  0  0  0  0  0  0  0  0
  -24.8820  -32.7430   24.6400 H   0  0  0  0  0  0  0  0  0  0  0  0
  -23.8150  -35.7380   23.3250 C   0  0  0  0  0  1  0  0  0  0  0  0
  -25.0810  -35.2450   24.0420 C   0  0  0  0  0  3  0  0  0  0  0  0
  -27.1420  -36.0680   25.0950 C   0  0  0  0  0  1  0  0  0  0  0  0
  -26.0370  -36.3650   24.1880 N   0  0  0  0  0  0  0  0  0  0  0  0
  -25.5640  -37.1990   24.5250 H   0  0  0  0  0  0  0  0  0  0  0  0
  -26.6410  -30.6510   24.2400 C   0  0  1  0  0  0  0  0  0  0  0  0
  -25.7320  -30.0940   25.3620 C   0  0  0  0  0  1  0  0  0  0  0  0
  -27.3140  -29.4460   23.5430 C   0  0  0  0  0  1  0  0  0  0  0  0
  -27.7750  -31.4680   24.9030 C   0  0  0  0  0  1  0  0  0  0  0  0
  -30.5690  -19.7020   19.6260 C   0  0  0  0  0  2  0  0  0  0  0  0
  -29.7640  -18.2140   19.6370 C   0  0  0  0  0  2  0  0  0  0  0  0
  -30.9020  -15.6990   20.1090 C   0  0  0  0  0  0  0  0  0  0  0  0
  -30.8500  -13.2790   19.3660 C   0  0  0  0  0  2  0  0  0  0  0  0
  -29.9260  -13.1450   18.1300 C   0  0  0  0  0  2  0  0  0  0  0  0
  -28.4660  -12.9280   18.5690 C   0  0  0  0  0  2  0  0  0  0  0  0
  -28.0350  -13.9210   19.6780 C   0  0  0  0  0  3  0  0  0  0  0  0
  -29.0810  -14.0270   20.8120 C   0  0  0  0  0  2  0  0  0  0  0  0
  -30.3600  -14.4180   20.2000 N   0  0  0  0  0  0  0  0  0  0  0  0
  -32.0510  -15.8030   19.6640 O   0  0  0  0  0  0  0  0  0  0  0  0
  -30.1040  -16.8450   20.3640 N   0  0  0  0  0  0  0  0  0  0  0  0
  -29.3300  -16.5710   20.9520 H   0  0  0  0  0  0  0  0  0  0  0  0
  -25.6900  -14.5140   20.5200 C   0  0  0  0  0  0  0  0  0  0  0  0
  -24.6100  -13.7460   20.8590 C   0  0  0  0  0  0  0  0  0  0  0  0
  -25.0290  -12.3880   20.7100 C   0  0  0  0  0  0  0  0  0  0  0  0
  -26.6970  -13.6270   20.1830 N   0  0  0  0  0  0  0  0  0  0  0  0
  -26.3090  -12.3370   20.3600 N   0  0  0  0  0  0  0  0  0  0  0  0
  -24.2650  -11.1380   20.8200 C   0  0  0  0  0  0  0  0  0  0  0  0
  -24.6530  -10.1110   21.7080 C   0  0  0  0  0  3  0  0  0  0  0  0
  -23.8900   -8.9280   21.8120 C   0  0  0  0  0  3  0  0  0  0  0  0
  -22.7230   -8.7640   21.0270 C   0  0  0  0  0  0  0  0  0  0  0  0
  -22.3550   -9.7790   20.1280 C   0  0  0  0  0  3  0  0  0  0  0  0
  -23.1180  -10.9540   20.0220 C   0  0  0  0  0  3  0  0  0  0  0  0
  -21.9350   -7.6380   21.0430 O   0  0  0  0  0  0  0  0  0  0  0  0
  -21.7810   -6.8830   22.1780 C   0  0  0  0  0  0  0  0  0  0  0  0
  -21.2490   -7.4260   23.3680 C   0  0  0  0  0  3  0  0  0  0  0  0
  -21.0420   -6.5980   24.4890 C   0  0  0  0  0  3  0  0  0  0  0  0
  -21.3580   -5.2280   24.4210 C   0  0  0  0  0  0  0  0  0  0  0  0
  -21.8830   -4.6840   23.2350 C   0  0  0  0  0  3  0  0  0  0  0  0
  -22.0900   -5.5100   22.1170 C   0  0  0  0  0  0  0  0  0  0  0  0
  -22.5760   -4.9750   20.9700 F   0  0  0  0  0  0  0  0  0  0  0  0
  -21.1530   -4.4310   25.4950 F   0  0  0  0  0  0  0  0  0  0  0  0
  -23.2380  -14.2440   21.2070 C   0  0  0  0  0  0  0  0  0  0  0  0
  -22.5130  -13.5070   22.0420 N   0  0  0  0  0  0  0  0  0  0  0  0
  -22.8210  -15.3200   20.7800 O   0  0  0  0  0  0  0  0  0  0  0  0
  -22.8630  -12.6350   22.4080 H   0  0  0  0  0  0  0  0  0  0  0  0
  -21.5930  -13.8210   22.3190 H   0  0  0  0  0  0  0  0  0  0  0  0
  -25.8930  -15.8890   20.4440 N   0  0  0  0  0  0  0  0  0  0  0  0
  -25.1460  -16.5520   20.6130 H   0  0  0  0  0  0  0  0  0  0  0  0
  -26.7370  -16.3230   20.0920 H   0  0  0  0  0  0  0  0  0  0  0  0
  1  2  1  1
  1  8  1  0
  4  3  1  0
  5  3  1  0
  6  4  1  0
  7  5  1  0
  8  6  1  0
  8  7  1  0
  9  1  1  0
 10  9  1  0
 11 12  1  0
 11 10  2  0
 12 14  1  0
 13 24  2  0
 14 19  1  0
 15 23  1  0
 15 25  1  0
 16 22  1  0
 16 18  1  0
 17 23  1  0
 18 17  1  0
 19 18  2  0
 20 21  1  0
 20 14  2  0
 21 16  2  0
 22 15  1  0
 23 13  1  0
 25 27  2  0
 26 25  1  0
 28 26  1  0
 29 38  2  0
 29 34  1  0
 30 26  1  0
 30 34  1  0
 31 30  1  0
 32 33  1  0
 32 31  1  0
 33 29  1  0
 34 35  2  0
 35 36  1  0
 37 36  2  0
 38 37  1  0
 39 13  1  0
 39 40  1  0
 39 49  1  0
 40 43  1  0
 41 40  1  0
 41 45  1  0
 42 41  2  0
 45 44  1  0
 45 47  1  0
 47 48  1  0
 47 46  1  0
 49 52  1  1
 49 50  1  0
 51 49  1  0
 53 54  1  0
 53  1  1  0
 54 63  1  0
 55 61  1  0
 55 63  1  0
 56 61  1  0
 57 58  1  0
 57 56  1  0
 59 58  1  0
 59 68  1  0
 59 60  1  0
 61 60  1  0
 62 55  2  0
 63 64  1  0
 65 66  2  0
 66 85  1  0
 67 70  1  0
 67 66  1  0
 68 69  1  0
 68 65  1  0
 69 67  2  0
 70 71  1  0
 71 72  2  0
 73 76  1  0
 73 72  1  0
 74 73  2  0
 75 74  1  0
 75 70  2  0
 76 77  1  0
 77 78  1  0
 78 79  2  0
 80 79  1  0
 80 84  1  0
 81 80  2  0
 82 77  2  0
 82 81  1  0
 83 82  1  0
 85 86  1  0
 86 89  1  0
 86 88  1  0
 87 85  2  0
 90 65  1  0
 90 91  1  0
 92 90  1  0
M  ISO  4  11 101  12 101  55 100  63 100
M  END
>  <TORSDO>  (13) 
F 22

>  <SCORE>  (13) 
-10.282

>  <name>  (13) 
12

>  <ligand_id>  (13) 
12

>  <original_smiles>  (13) 
[H]c1c([H])c([H])c2c(c1[H])C([H])([H])C([H])([H])C([H])([H])C2([H])N([H])C(=O)C1([H])N(C(=O)C([H])(N([H])C(=O)C([H])(N([H])C([H])([H])[H])C([H])([H])[H])C(C([H])([H])[H])(C([H])([H])[H])C([H])([H])[H])C([H])([H])c2c([H])c(OC([H])([H])C([H])([H])C([H])([H])[N+]([H])(C([H])([H])C([H])([H])N([H])C(=O)N3C([H])([H])C([H])([H])C([H])([H])C([H])(n4nc(-c5c([H])c([H])c(Oc6c([H])c([H])c(F)c([H])c6F)c([H])c5[H])c(C(=O)N([H])[H])c4N([H])[H])C3([H])[H])C3([H])C([H])([H])C([H])([H])C([H])([H])C([H])([H])C3([H])[H])c([H])c([H])c2C1([H])[H]

>  <smiles>  (13) 
[H]c1c([H])c([H])c2c(c1[H])C([H])([H])C([H])([H])C([H])([H])C2([H])N([H])C(=O)C1([H])N(C(=O)C([H])(N([H])C(=O)C([H])(N([H])C([H])([H])[H])C([H])([H])[H])C(C([H])([H])[H])(C([H])([H])[H])C([H])([H])[H])C([H])([H])c2c([H])c(OC([H])([H])C([H])([H])C([H])([H])[N+]([H])(C([H])([H])C([H])([H])N([H])C(=O)N3C([H])([H])C([H])([H])C([H])([H])C([H])(n4nc(-c5c([H])c([H])c(Oc6c([H])c([H])c(F)c([H])c6F)c([H])c5[H])c(C(=O)N([H])[H])c4N([H])[H])C3([H])[H])C3([H])C([H])([H])C([H])([H])C([H])([H])C([H])([H])C3([H])[H])c([H])c([H])c2C1([H])[H]

$$$$
13:0:0
     RDKit          3D

 97100  0  0  1  0  0  0  0  0999 V2000
  -29.9940  -16.6660   20.2530 C   0  0  0  0  0  0  0  0  0  0  0  0
  -30.3730  -13.8220   19.8070 C   0  0  0  0  0  2  0  0  0  0  0  0
  -29.7170  -12.8390   18.7470 C   0  0  0  0  0  2  0  0  0  0  0  0
  -28.3690  -12.2940   19.2150 C   0  0  0  0  0  2  0  0  0  0  0  0
  -27.6300  -13.4170   19.9500 C   0  0  0  0  0  3  0  0  0  0  0  0
  -28.4880  -14.2670   20.9730 C   0  0  0  0  0  2  0  0  0  0  0  0
  -29.5380  -15.1290   20.2490 N   0  0  0  0  0  0  0  0  0  0  0  0
  -31.2360  -16.3730   20.2660 O   0  0  0  0  0  0  0  0  0  0  0  0
  -30.0710  -21.4710   18.0160 C   0  0  0  0  0 15  0  0  0  0  0  0
  -29.4700  -19.4950   18.5350 C   0  0  0  0  0  1  0  0  0  0  0  0
  -28.5920  -19.6120   21.1500 C   0  0  0  0  0  1  0  0  0  0  0  0
  -28.7850  -21.6580   21.7900 C   0  0  0  0  0  1  0  0  0  0  0  0
  -30.4990  -23.1310   19.2960 C   0  0  0  0  0  2  0  0  0  0  0  0
  -29.4130  -18.3640   20.0290 N   0  0  0  0  0  0  0  0  0  0  0  0
  -29.7750  -23.1230   21.0720 N   0  0  2  0  0  4  0  0  0  0  0  0
  -28.9420  -23.6360   20.8200 H   0  0  0  0  0  0  0  0  0  0  0  0
  -25.2340  -13.8830   20.5760 C   0  0  0  0  0  0  0  0  0  0  0  0
  -24.1590  -13.1090   20.8940 C   0  0  0  0  0  0  0  0  0  0  0  0
  -24.6320  -11.7590   20.9140 C   0  0  0  0  0  0  0  0  0  0  0  0
  -26.3010  -13.0250   20.4220 N   0  0  0  0  0  0  0  0  0  0  0  0
  -25.9480  -11.7290   20.6770 N   0  0  0  0  0  0  0  0  0  0  0  0
  -23.8760  -10.5040   21.0890 C   0  0  0  0  0  0  0  0  0  0  0  0
  -24.2510   -9.5360   22.0460 C   0  0  0  0  0  3  0  0  0  0  0  0
  -23.4880   -8.3590   22.2180 C   0  0  0  0  0  3  0  0  0  0  0  0
  -22.3330   -8.1390   21.4320 C   0  0  0  0  0  0  0  0  0  0  0  0
  -21.9730   -9.0940   20.4650 C   0  0  0  0  0  3  0  0  0  0  0  0
  -22.7370  -10.2620   20.2930 C   0  0  0  0  0  3  0  0  0  0  0  0
  -21.5480   -7.0110   21.5100 O   0  0  0  0  0  0  0  0  0  0  0  0
  -21.4720   -6.2610   22.6570 C   0  0  0  0  0  0  0  0  0  0  0  0
  -21.0770   -6.8260   23.8900 C   0  0  0  0  0  3  0  0  0  0  0  0
  -20.9440   -6.0060   25.0280 C   0  0  0  0  0  3  0  0  0  0  0  0
  -21.1980   -4.6240   24.9360 C   0  0  0  0  0  0  0  0  0  0  0  0
  -21.5860   -4.0600   23.7090 C   0  0  0  0  0  3  0  0  0  0  0  0
  -21.7200   -4.8760   22.5710 C   0  0  0  0  0  0  0  0  0  0  0  0
  -22.0730   -4.3230   21.3860 F   0  0  0  0  0  0  0  0  0  0  0  0
  -21.0660   -3.8360   26.0290 F   0  0  0  0  0  0  0  0  0  0  0  0
  -22.7520  -13.5980   21.0600 C   0  0  0  0  0  0  0  0  0  0  0  0
  -21.9720  -12.9410   21.9080 N   0  0  0  0  0  0  0  0  0  0  0  0
  -22.3550  -14.6080   20.4780 O   0  0  0  0  0  0  0  0  0  0  0  0
  -22.3090  -12.1280   22.4020 H   0  0  0  0  0  0  0  0  0  0  0  0
  -21.0250  -13.2530   22.0680 H   0  0  0  0  0  0  0  0  0  0  0  0
  -25.4020  -15.2510   20.3680 N   0  0  0  0  0  0  0  0  0  0  0  0
  -24.6260  -15.9020   20.3990 H   0  0  0  0  0  0  0  0  0  0  0  0
  -26.2720  -15.6790   20.0790 H   0  0  0  0  0  0  0  0  0  0  0  0
  -31.9760  -23.5250   19.2620 C   0  0  0  0  0  2  0  0  0  0  0  0
  -32.7260  -22.2590   19.5750 C   0  0  0  0  0  2  0  0  0  0  0  0
  -31.8840  -21.3690   20.5120 C   0  0  0  0  0  2  0  0  0  0  0  0
  -30.3540  -21.0030   20.0640 C   0  0  0  0  0  1  0  0  0  0  0  0
  -28.2340  -22.6070   19.5720 C   0  0  0  0  0 15  0  0  0  0  0  0
  -28.0390  -24.6630   19.8190 O   0  0  0  0  0  1  0  0  0  0  0  0
  -24.6700  -31.6070   22.9120 C   0  0  0  0  0  0  0  0  0  0  0  0
  -27.1140  -26.1150   19.7960 C   0  0  0  0  0  0  0  0  0  0  0  0
  -23.4810  -30.2150   21.2760 C   0  0  0  0  0  3  0  0  0  0  0  0
  -24.9040  -28.4900   19.8310 C   0  0  0  0  0  0  0  0  0  0  0  0
  -26.0700  -30.2200   21.1560 C   0  0  0  0  0  2  0  0  0  0  0  0
  -26.1230  -28.7370   20.4670 C   0  0  0  0  0  0  0  0  0  0  0  0
  -27.1830  -27.5990   20.3950 C   0  0  0  0  0  3  0  0  0  0  0  0
  -25.8540  -26.2270   19.0900 C   0  0  0  0  0  3  0  0  0  0  0  0
  -24.8400  -27.2710   19.1200 C   0  0  0  0  0  3  0  0  0  0  0  0
  -23.7310  -29.5100   19.9080 C   0  0  0  0  0  2  0  0  0  0  0  0
  -24.7740  -30.7270   21.8370 N   0  0  0  0  0  0  0  0  0  0  0  0
  -23.5730  -31.9090   23.4110 O   0  0  0  0  0  0  0  0  0  0  0  0
  -22.7360  -29.2670   22.2570 C   0  0  0  0  0  0  0  0  0  0  0  0
  -21.3910  -29.1730   22.1870 N   0  0  0  0  0  0  0  0  0  0  0  0
  -23.3900  -28.6080   23.0660 O   0  0  0  0  0  0  0  0  0  0  0  0
  -20.9040  -29.7570   21.5260 H   0  0  0  0  0  0  0  0  0  0  0  0
  -17.9890  -27.9930   22.8130 C   0  0  0  0  0  0  0  0  0  0  0  0
  -20.5680  -28.2220   22.9560 C   0  0  0  0  0  3  0  0  0  0  0  0
  -20.6120  -26.8080   22.3250 C   0  0  0  0  0  2  0  0  0  0  0  0
  -19.4600  -26.5450   21.3510 C   0  0  0  0  0  2  0  0  0  0  0  0
  -18.1130  -26.6770   22.0650 C   0  0  0  0  0  2  0  0  0  0  0  0
  -19.1400  -28.7270   23.2160 C   0  0  0  0  0  0  0  0  0  0  0  0
  -18.9620  -29.9550   23.8890 C   0  0  0  0  0  3  0  0  0  0  0  0
  -17.6730  -30.4540   24.1530 C   0  0  0  0  0  3  0  0  0  0  0  0
  -16.5400  -29.7200   23.7590 C   0  0  0  0  0  3  0  0  0  0  0  0
  -16.6990  -28.4910   23.0960 C   0  0  0  0  0  3  0  0  0  0  0  0
  -25.9080  -32.2900   23.5640 C   0  0  0  0  0  3  0  0  0  0  0  0
  -26.4520  -31.4960   24.8140 C   0  0  1  0  0  0  0  0  0  0  0  0
  -25.3800  -31.2110   25.8960 C   0  0  0  0  0  1  0  0  0  0  0  0
  -27.0540  -30.1430   24.3890 C   0  0  0  0  0  1  0  0  0  0  0  0
  -27.6020  -32.2930   25.4780 C   0  0  0  0  0  1  0  0  0  0  0  0
  -25.5430  -33.6680   23.9840 N   0  0  0  0  0  0  0  0  0  0  0  0
  -25.8410  -34.7940   23.3170 C   0  0  0  0  0  0  0  0  0  0  0  0
  -26.4930  -34.7830   22.2700 O   0  0  0  0  0  0  0  0  0  0  0  0
  -24.9650  -33.7470   24.8070 H   0  0  0  0  0  0  0  0  0  0  0  0
  -24.0680  -36.5860   23.1670 C   0  0  0  0  0  1  0  0  0  0  0  0
  -25.3490  -36.1440   23.8940 C   0  0  0  0  0  3  0  0  0  0  0  0
  -27.5020  -37.0230   24.6970 C   0  0  0  0  0  1  0  0  0  0  0  0
  -26.3560  -37.2290   23.8170 N   0  0  0  0  0  0  0  0  0  0  0  0
  -25.9360  -38.1260   24.0480 H   0  0  0  0  0  0  0  0  0  0  0  0
  -30.3190  -24.1030   22.0590 C   0  0  0  0  0  2  0  0  0  0  0  0
  -29.9670  -25.6000   21.7720 C   0  0  0  0  0  2  0  0  0  0  0  0
  -30.5270  -26.5170   22.8950 C   0  0  0  0  0  2  0  0  0  0  0  0
  -30.3460  -27.9550   22.6270 N   0  0  0  0  0  4  0  0  0  0  0  0
  -30.8150  -28.2090   21.7750 H   0  0  0  0  0  0  0  0  0  0  0  0
  -30.7490  -28.4910   23.3770 H   0  0  0  0  0  0  0  0  0  0  0  0
  -29.3710  -28.1870   22.5630 H   0  0  0  0  0  0  0  0  0  0  0  0
  1  8  2  0
  2  7  1  0
  3  4  1  0
  3  2  1  0
  5  4  1  0
  5 20  1  0
  5  6  1  0
  7  1  1  0
  7  6  1  0
 10 14  1  0
 13 15  1  0
 14  1  1  0
 14 11  1  0
 15 12  1  0
 15 91  1  0
 15 16  1  6
 17 18  2  0
 18 19  1  0
 18 37  1  0
 19 22  1  0
 20 17  1  0
 20 21  1  0
 21 19  2  0
 22 23  1  0
 23 24  2  0
 25 28  1  0
 25 24  1  0
 26 25  2  0
 27 26  1  0
 27 22  2  0
 28 29  1  0
 29 30  1  0
 30 31  2  0
 32 31  1  0
 32 36  1  0
 33 32  2  0
 34 29  2  0
 34 33  1  0
 35 34  1  0
 37 38  1  0
 38 41  1  0
 38 40  1  0
 39 37  2  0
 42 43  1  0
 42 17  1  0
 44 42  1  0
 45 13  1  0
 45 46  1  0
 46 47  1  0
 48 47  1  0
 51 62  2  0
 52 50  1  0
 52 57  1  0
 53 61  1  0
 53 63  1  0
 54 60  1  0
 54 56  1  0
 55 61  1  0
 56 55  1  0
 57 56  2  0
 58 59  1  0
 58 52  2  0
 59 54  2  0
 60 53  1  0
 61 51  1  0
 63 65  2  0
 64 63  1  0
 66 64  1  0
 67 76  2  0
 67 72  1  0
 68 64  1  0
 68 72  1  0
 69 68  1  0
 70 71  1  0
 70 69  1  0
 71 67  1  0
 72 73  2  0
 73 74  1  0
 75 74  2  0
 76 75  1  0
 77 51  1  0
 77 82  1  0
 77 78  1  0
 78 81  1  1
 78 79  1  0
 80 78  1  0
 82 85  1  0
 83 87  1  0
 83 82  1  0
 84 83  2  0
 87 86  1  0
 89 87  1  0
 89 90  1  0
 89 88  1  0
 92 91  1  0
 92 93  1  0
 94 93  1  0
 94 96  1  0
 95 94  1  0
 97 94  1  0
M  ISO  4   1 100  14 100  49 101  50 101
M  END
>  <TORSDO>  (14) 
F 24

>  <SCORE>  (14) 
-12.972

>  <name>  (14) 
13

>  <ligand_id>  (14) 
13

>  <original_smiles>  (14) 
[H]c1c([H])c([H])c2c(c1[H])C([H])([H])C([H])([H])C([H])([H])C2([H])N([H])C(=O)C1([H])N(C(=O)C([H])(N([H])C(=O)C([H])(N([H])C([H])([H])[H])C([H])([H])[H])C(C([H])([H])[H])(C([H])([H])[H])C([H])([H])[H])C([H])([H])c2c([H])c(OC([H])([H])C([H])([H])C([H])([H])C([H])([H])C([H])([H])C3([H])C([H])([H])C([H])([H])N(C(=O)N4C([H])([H])C([H])([H])C([H])([H])C([H])(n5nc(-c6c([H])c([H])c(Oc7c([H])c([H])c(F)c([H])c7F)c([H])c6[H])c(C(=O)N([H])[H])c5N([H])[H])C4([H])[H])C([H])([H])C([H])([H])[N+]3([H])C([H])([H])C([H])([H])C([H])([H])[N+]([H])([H])[H])c([H])c([H])c2C1([H])[H]

>  <smiles>  (14) 
[H]c1c([H])c([H])c2c(c1[H])C([H])([H])C([H])([H])C([H])([H])C2([H])N([H])C(=O)C1([H])N(C(=O)C([H])(N([H])C(=O)C([H])(N([H])C([H])([H])[H])C([H])([H])[H])C(C([H])([H])[H])(C([H])([H])[H])C([H])([H])[H])C([H])([H])c2c([H])c(OC([H])([H])C([H])([H])C([H])([H])C([H])([H])C([H])([H])C3([H])C([H])([H])C([H])([H])N(C(=O)N4C([H])([H])C([H])([H])C([H])([H])C([H])(n5nc(-c6c([H])c([H])c(Oc7c([H])c([H])c(F)c([H])c7F)c([H])c6[H])c(C(=O)N([H])[H])c5N([H])[H])C4([H])[H])C([H])([H])C([H])([H])[N+]3([H])C([H])([H])C([H])([H])C([H])([H])[N+]([H])([H])[H])c([H])c([H])c2C1([H])[H]

$$$$
14:0:0
     RDKit          3D

 93101  0  0  1  0  0  0  0  0999 V2000
  -28.0230  -21.2230   20.1970 C   0  0  0  0  0  2  0  0  0  0  0  0
  -30.0590  -21.3680   21.7270 C   0  0  0  0  0  2  0  0  0  0  0  0
  -28.6190  -19.9050   19.6460 C   0  0  0  0  0  2  0  0  0  0  0  0
  -30.5450  -20.0200   21.1200 C   0  0  0  0  0  2  0  0  0  0  0  0
  -29.0480  -22.1730   20.8630 C   0  0  0  0  0  3  0  0  0  0  0  0
  -29.4000  -19.1760   20.6820 N   0  0  2  0  0  4  0  0  0  0  0  0
  -28.7870  -19.0760   21.4780 H   0  0  0  0  0  0  0  0  0  0  0  0
  -29.6900  -23.1240   19.9050 N   0  0  0  0  0  4  0  0  0  0  0  0
  -29.2670  -23.0330   18.9940 H   0  0  0  0  0  0  0  0  0  0  0  0
  -30.6550  -22.8530   19.7940 H   0  0  0  0  0  0  0  0  0  0  0  0
  -29.6700  -24.5740   20.2860 C   0  0  0  0  0  2  0  0  0  0  0  0
  -28.3360  -25.2990   19.9700 C   0  0  0  0  0  2  0  0  0  0  0  0
  -28.4010  -26.7100   20.2610 O   0  0  0  0  0  0  0  0  0  0  0  0
  -24.5650  -31.9130   23.2770 C   0  0  0  0  0  0  0  0  0  0  0  0
  -27.2200  -27.4350   20.2320 C   0  0  0  0  0  0  0  0  0  0  0  0
  -23.3660  -30.5040   21.6370 C   0  0  0  0  0  3  0  0  0  0  0  0
  -24.8230  -28.9560   20.2270 C   0  0  0  0  0  0  0  0  0  0  0  0
  -25.8930  -30.8570   21.4450 C   0  0  0  0  0  2  0  0  0  0  0  0
  -25.9810  -29.4800   20.8160 C   0  0  0  0  0  0  0  0  0  0  0  0
  -27.1800  -28.7280   20.8130 C   0  0  0  0  0  3  0  0  0  0  0  0
  -26.0370  -26.9340   19.6370 C   0  0  0  0  0  3  0  0  0  0  0  0
  -24.8470  -27.6840   19.6350 C   0  0  0  0  0  3  0  0  0  0  0  0
  -23.5800  -29.8160   20.2630 C   0  0  0  0  0  2  0  0  0  0  0  0
  -24.6270  -31.1060   22.1790 N   0  0  0  0  0  0  0  0  0  0  0  0
  -23.4820  -32.1890   23.8100 O   0  0  0  0  0  0  0  0  0  0  0  0
  -22.7080  -29.4880   22.6000 C   0  0  0  0  0  0  0  0  0  0  0  0
  -21.3850  -29.3010   22.4630 N   0  0  0  0  0  0  0  0  0  0  0  0
  -23.3860  -28.8720   23.4270 O   0  0  0  0  0  0  0  0  0  0  0  0
  -20.8980  -29.8530   21.7710 H   0  0  0  0  0  0  0  0  0  0  0  0
  -18.0080  -28.1080   22.9440 C   0  0  0  0  0  0  0  0  0  0  0  0
  -20.5650  -28.3660   23.2320 C   0  0  0  0  0  3  0  0  0  0  0  0
  -20.6700  -26.9310   22.6630 C   0  0  0  0  0  2  0  0  0  0  0  0
  -19.5740  -26.6060   21.6430 C   0  0  0  0  0  2  0  0  0  0  0  0
  -18.1890  -26.7550   22.2780 C   0  0  0  0  0  2  0  0  0  0  0  0
  -19.1250  -28.8710   23.3790 C   0  0  0  0  0  0  0  0  0  0  0  0
  -18.9030  -30.1390   23.9600 C   0  0  0  0  0  3  0  0  0  0  0  0
  -17.5980  -30.6430   24.1140 C   0  0  0  0  0  3  0  0  0  0  0  0
  -16.4960  -29.8760   23.6970 C   0  0  0  0  0  3  0  0  0  0  0  0
  -16.7030  -28.6110   23.1170 C   0  0  0  0  0  3  0  0  0  0  0  0
  -25.8490  -32.5470   23.8980 C   0  0  0  0  0  3  0  0  0  0  0  0
  -25.5440  -33.9490   24.2110 N   0  0  0  0  0  0  0  0  0  0  0  0
  -25.8920  -34.9910   23.4430 C   0  0  0  0  0  0  0  0  0  0  0  0
  -26.5740  -34.8720   22.4210 O   0  0  0  0  0  0  0  0  0  0  0  0
  -24.9440  -34.1160   25.0050 H   0  0  0  0  0  0  0  0  0  0  0  0
  -24.1900  -36.7950   23.0290 C   0  0  0  0  0  1  0  0  0  0  0  0
  -25.4050  -36.3870   23.8770 C   0  0  0  0  0  3  0  0  0  0  0  0
  -27.5230  -37.2610   24.7610 C   0  0  0  0  0  1  0  0  0  0  0  0
  -26.4500  -37.4290   23.7840 N   0  0  0  0  0  0  0  0  0  0  0  0
  -26.0480  -38.3540   23.9130 H   0  0  0  0  0  0  0  0  0  0  0  0
  -26.3560  -31.7850   25.1840 C   0  0  1  0  0  0  0  0  0  0  0  0
  -25.2570  -31.5580   26.2470 C   0  0  0  0  0  1  0  0  0  0  0  0
  -26.9380  -30.4040   24.8030 C   0  0  0  0  0  1  0  0  0  0  0  0
  -27.5050  -32.5820   25.8470 C   0  0  0  0  0  1  0  0  0  0  0  0
  -29.7240  -17.7670   20.2830 C   0  0  0  0  0  2  0  0  0  0  0  0
  -30.2060  -16.8530   21.4480 C   0  0  0  0  0  2  0  0  0  0  0  0
  -30.6640  -14.4940   20.5710 C   0  0  0  0  0  0  0  0  0  0  0  0
  -30.4110  -12.3670   19.3350 C   0  0  0  0  0  2  0  0  0  0  0  0
  -29.4730  -12.5920   18.1290 C   0  0  0  0  0  2  0  0  0  0  0  0
  -27.9930  -12.4420   18.5410 C   0  0  0  0  0  2  0  0  0  0  0  0
  -27.6430  -13.2470   19.8210 C   0  0  0  0  0  3  0  0  0  0  0  0
  -28.6840  -12.9730   20.9290 C   0  0  0  0  0  2  0  0  0  0  0  0
  -30.0170  -13.3090   20.3930 N   0  0  0  0  0  0  0  0  0  0  0  0
  -31.7680  -14.7510   20.0820 O   0  0  0  0  0  0  0  0  0  0  0  0
  -29.9380  -15.4220   21.2180 N   0  0  0  0  0  0  0  0  0  0  0  0
  -29.0560  -15.0810   21.5700 H   0  0  0  0  0  0  0  0  0  0  0  0
  -25.2250  -13.8490   20.4760 C   0  0  0  0  0  0  0  0  0  0  0  0
  -24.1550  -13.0740   20.8340 C   0  0  0  0  0  0  0  0  0  0  0  0
  -24.6240  -11.7250   20.8220 C   0  0  0  0  0  0  0  0  0  0  0  0
  -26.2800  -12.9720   20.2730 N   0  0  0  0  0  0  0  0  0  0  0  0
  -25.9200  -11.6900   20.5360 N   0  0  0  0  0  0  0  0  0  0  0  0
  -23.9030  -10.4600   21.0110 C   0  0  0  0  0  0  0  0  0  0  0  0
  -24.3180   -9.5100   21.9690 C   0  0  0  0  0  3  0  0  0  0  0  0
  -23.5980   -8.3090   22.1440 C   0  0  0  0  0  3  0  0  0  0  0  0
  -22.4490   -8.0490   21.3590 C   0  0  0  0  0  0  0  0  0  0  0  0
  -22.0550   -8.9890   20.3890 C   0  0  0  0  0  3  0  0  0  0  0  0
  -22.7760  -10.1810   20.2130 C   0  0  0  0  0  3  0  0  0  0  0  0
  -21.7020   -6.9000   21.4410 O   0  0  0  0  0  0  0  0  0  0  0  0
  -21.6170   -6.1790   22.6060 C   0  0  0  0  0  0  0  0  0  0  0  0
  -21.1180   -6.7480   23.7990 C   0  0  0  0  0  3  0  0  0  0  0  0
  -20.9820   -5.9520   24.9540 C   0  0  0  0  0  3  0  0  0  0  0  0
  -21.3340   -4.5890   24.9180 C   0  0  0  0  0  0  0  0  0  0  0  0
  -21.8250   -4.0210   23.7280 C   0  0  0  0  0  3  0  0  0  0  0  0
  -21.9630   -4.8130   22.5760 C   0  0  0  0  0  0  0  0  0  0  0  0
  -22.4170   -4.2550   21.4280 F   0  0  0  0  0  0  0  0  0  0  0  0
  -21.1960   -3.8220   26.0230 F   0  0  0  0  0  0  0  0  0  0  0  0
  -22.7490  -13.5460   21.0770 C   0  0  0  0  0  0  0  0  0  0  0  0
  -22.0080  -12.8470   21.9290 N   0  0  0  0  0  0  0  0  0  0  0  0
  -22.3180  -14.5680   20.5470 O   0  0  0  0  0  0  0  0  0  0  0  0
  -22.3670  -12.0200   22.3810 H   0  0  0  0  0  0  0  0  0  0  0  0
  -21.0630  -13.1450   22.1330 H   0  0  0  0  0  0  0  0  0  0  0  0
  -25.3850  -15.2190   20.2890 N   0  0  0  0  0  0  0  0  0  0  0  0
  -24.6050  -15.8640   20.3680 H   0  0  0  0  0  0  0  0  0  0  0  0
  -26.2290  -15.6580   19.9470 H   0  0  0  0  0  0  0  0  0  0  0  0
  1  5  1  0
  3  1  1  0
  3  6  1  0
  4  2  1  0
  5  8  1  0
  5  2  1  0
  6  4  1  0
  6  7  1  1
  8 11  1  0
  9  8  1  0
 10  8  1  0
 12 13  1  0
 12 11  1  0
 14 25  2  0
 15 13  1  0
 15 20  1  0
 16 24  1  0
 16 26  1  0
 17 23  1  0
 17 19  1  0
 18 24  1  0
 19 18  1  0
 20 19  2  0
 21 15  2  0
 22 21  1  0
 22 17  2  0
 23 16  1  0
 24 14  1  0
 26 28  2  0
 27 26  1  0
 29 27  1  0
 30 39  2  0
 30 35  1  0
 31 27  1  0
 31 35  1  0
 32 31  1  0
 33 34  1  0
 33 32  1  0
 34 30  1  0
 35 36  2  0
 36 37  1  0
 38 37  2  0
 39 38  1  0
 40 14  1  0
 40 41  1  0
 40 50  1  0
 41 44  1  0
 42 46  1  0
 42 41  1  0
 43 42  2  0
 46 45  1  0
 48 46  1  0
 48 49  1  0
 48 47  1  0
 50 53  1  1
 50 51  1  0
 52 50  1  0
 54  6  1  0
 54 55  1  0
 56 64  1  0
 57 62  1  0
 58 59  1  0
 58 57  1  0
 60 59  1  0
 60 69  1  0
 60 61  1  0
 62 56  1  0
 62 61  1  0
 63 56  2  0
 64 55  1  0
 64 65  1  0
 66 67  2  0
 67 86  1  0
 68 67  1  0
 68 71  1  0
 69 66  1  0
 69 70  1  0
 70 68  2  0
 71 72  1  0
 72 73  2  0
 74 77  1  0
 74 73  1  0
 75 74  2  0
 76 75  1  0
 76 71  2  0
 77 78  1  0
 78 79  1  0
 79 80  2  0
 81 80  1  0
 81 85  1  0
 82 81  2  0
 83 78  2  0
 83 82  1  0
 84 83  1  0
 86 87  1  0
 87 90  1  0
 87 89  1  0
 88 86  2  0
 91 92  1  0
 91 66  1  0
 93 91  1  0
M  ISO  4  12 101  13 101  56 100  64 100
M  END
>  <TORSDO>  (15) 
F 21

>  <SCORE>  (15) 
-13.712

>  <name>  (15) 
14

>  <ligand_id>  (15) 
14

>  <original_smiles>  (15) 
[H]c1c([H])c([H])c2c(c1[H])C([H])([H])C([H])([H])C([H])([H])C2([H])N([H])C(=O)C1([H])N(C(=O)C([H])(N([H])C(=O)C([H])(N([H])C([H])([H])[H])C([H])([H])[H])C(C([H])([H])[H])(C([H])([H])[H])C([H])([H])[H])C([H])([H])c2c([H])c(OC([H])([H])C([H])([H])[N+]([H])([H])C3([H])C([H])([H])C([H])([H])[N+]([H])(C([H])([H])C([H])([H])N([H])C(=O)N4C([H])([H])C([H])([H])C([H])([H])C([H])(n5nc(-c6c([H])c([H])c(Oc7c([H])c([H])c(F)c([H])c7F)c([H])c6[H])c(C(=O)N([H])[H])c5N([H])[H])C4([H])[H])C([H])([H])C3([H])[H])c([H])c([H])c2C1([H])[H]

>  <smiles>  (15) 
[H]c1c([H])c([H])c2c(c1[H])C([H])([H])C([H])([H])C([H])([H])C2([H])N([H])C(=O)C1([H])N(C(=O)C([H])(N([H])C(=O)C([H])(N([H])C([H])([H])[H])C([H])([H])[H])C(C([H])([H])[H])(C([H])([H])[H])C([H])([H])[H])C([H])([H])c2c([H])c(OC([H])([H])C([H])([H])[N+]([H])([H])C3([H])C([H])([H])C([H])([H])[N+]([H])(C([H])([H])C([H])([H])N([H])C(=O)N4C([H])([H])C([H])([H])C([H])([H])C([H])(n5nc(-c6c([H])c([H])c(Oc7c([H])c([H])c(F)c([H])c7F)c([H])c6[H])c(C(=O)N([H])[H])c5N([H])[H])C4([H])[H])C([H])([H])C3([H])[H])c([H])c([H])c2C1([H])[H]

$$$$
15:0:0
     RDKit          3D

 94102  0  0  1  0  0  0  0  0999 V2000
  -29.8970  -18.4260   19.7680 C   0  0  0  0  0  2  0  0  0  0  0  0
  -30.1560  -19.3130   22.0010 C   0  0  0  0  0  2  0  0  0  0  0  0
  -29.5120  -19.7000   20.6560 C   0  0  0  0  0  3  0  0  0  0  0  0
  -30.5110  -17.2550   20.6570 C   0  0  0  0  0  3  0  0  0  0  0  0
  -30.1500  -17.7620   22.0700 C   0  0  0  0  0  3  0  0  0  0  0  0
  -30.8270  -14.6850   20.1570 C   0  0  0  0  0  0  0  0  0  0  0  0
  -30.5380  -12.4340   19.1240 C   0  0  0  0  0  2  0  0  0  0  0  0
  -29.5680  -12.5450   17.9280 C   0  0  0  0  0  2  0  0  0  0  0  0
  -28.1030  -12.4120   18.3960 C   0  0  0  0  0  2  0  0  0  0  0  0
  -27.7870  -13.3020   19.6280 C   0  0  0  0  0  3  0  0  0  0  0  0
  -28.8720  -13.1690   20.7180 C   0  0  0  0  0  2  0  0  0  0  0  0
  -30.1640  -13.4840   20.0920 N   0  0  0  0  0  0  0  0  0  0  0  0
  -32.0050  -14.7760   19.8040 O   0  0  0  0  0  0  0  0  0  0  0  0
  -30.0850  -15.8080   20.4540 N   0  0  0  0  0  0  0  0  0  0  0  0
  -29.1060  -15.6200   20.6160 H   0  0  0  0  0  0  0  0  0  0  0  0
  -25.4380  -13.9590   20.4250 C   0  0  0  0  0  0  0  0  0  0  0  0
  -24.3610  -13.2120   20.8190 C   0  0  0  0  0  0  0  0  0  0  0  0
  -24.7840  -11.8490   20.7640 C   0  0  0  0  0  0  0  0  0  0  0  0
  -26.4500  -13.0520   20.1530 N   0  0  0  0  0  0  0  0  0  0  0  0
  -26.0640  -11.7780   20.4190 N   0  0  0  0  0  0  0  0  0  0  0  0
  -24.0260  -10.6070   20.9630 C   0  0  0  0  0  0  0  0  0  0  0  0
  -24.4610   -9.6140   21.8680 C   0  0  0  0  0  3  0  0  0  0  0  0
  -23.7040   -8.4370   22.0560 C   0  0  0  0  0  3  0  0  0  0  0  0
  -22.4990   -8.2440   21.3390 C   0  0  0  0  0  0  0  0  0  0  0  0
  -22.0840   -9.2250   20.4220 C   0  0  0  0  0  3  0  0  0  0  0  0
  -22.8400  -10.3940   20.2320 C   0  0  0  0  0  3  0  0  0  0  0  0
  -21.7130   -7.1210   21.4380 O   0  0  0  0  0  0  0  0  0  0  0  0
  -21.6850   -6.3620   22.5800 C   0  0  0  0  0  0  0  0  0  0  0  0
  -21.3250   -6.9100   23.8310 C   0  0  0  0  0  3  0  0  0  0  0  0
  -21.2400   -6.0780   24.9650 C   0  0  0  0  0  3  0  0  0  0  0  0
  -21.5040   -4.7010   24.8510 C   0  0  0  0  0  0  0  0  0  0  0  0
  -21.8570   -4.1520   23.6050 C   0  0  0  0  0  3  0  0  0  0  0  0
  -21.9430   -4.9810   22.4720 C   0  0  0  0  0  0  0  0  0  0  0  0
  -22.2630   -4.4440   21.2700 F   0  0  0  0  0  0  0  0  0  0  0  0
  -21.4160   -3.9000   25.9380 F   0  0  0  0  0  0  0  0  0  0  0  0
  -22.9860  -13.7270   21.1310 C   0  0  0  0  0  0  0  0  0  0  0  0
  -22.2640  -13.0510   22.0190 N   0  0  0  0  0  0  0  0  0  0  0  0
  -22.5620  -14.7640   20.6230 O   0  0  0  0  0  0  0  0  0  0  0  0
  -22.6210  -12.2110   22.4490 H   0  0  0  0  0  0  0  0  0  0  0  0
  -21.3420  -13.3790   22.2700 H   0  0  0  0  0  0  0  0  0  0  0  0
  -25.6340  -15.3270   20.2500 N   0  0  0  0  0  0  0  0  0  0  0  0
  -24.8740  -15.9880   20.3660 H   0  0  0  0  0  0  0  0  0  0  0  0
  -26.4550  -15.7400   19.8300 H   0  0  0  0  0  0  0  0  0  0  0  0
  -31.0320  -17.2120   23.1140 N   0  0  0  0  0  4  0  0  0  0  0  0
  -31.9910  -17.4550   22.9460 H   0  0  0  0  0  0  0  0  0  0  0  0
  -30.9590  -16.2100   23.1380 H   0  0  0  0  0  0  0  0  0  0  0  0
  -30.7670  -17.5610   24.0180 H   0  0  0  0  0  0  0  0  0  0  0  0
  -29.8560  -21.2000   20.1480 C   0  0  0  0  0  2  0  0  0  0  0  0
  -28.9450  -22.3520   20.5820 N   0  0  0  0  0  4  0  0  0  0  0  0
  -28.7580  -22.2440   21.5680 H   0  0  0  0  0  0  0  0  0  0  0  0
  -28.0670  -22.2100   20.1080 H   0  0  0  0  0  0  0  0  0  0  0  0
  -29.3800  -23.8120   20.3570 C   0  0  0  0  0  3  0  0  0  0  0  0
  -28.2140  -24.9200   20.3000 C   0  0  0  0  0  3  0  0  0  0  0  0
  -28.4750  -26.3980   20.3080 O   0  0  0  0  0  0  0  0  0  0  0  0
  -24.6370  -31.8340   23.2080 C   0  0  0  0  0  0  0  0  0  0  0  0
  -27.3610  -27.2660   20.2310 C   0  0  0  0  0  0  0  0  0  0  0  0
  -23.4870  -30.4180   21.5490 C   0  0  0  0  0  3  0  0  0  0  0  0
  -24.9860  -28.8810   20.1600 C   0  0  0  0  0  0  0  0  0  0  0  0
  -26.0310  -30.7560   21.4240 C   0  0  0  0  0  2  0  0  0  0  0  0
  -26.1400  -29.3750   20.7820 C   0  0  0  0  0  0  0  0  0  0  0  0
  -27.3310  -28.5810   20.8050 C   0  0  0  0  0  3  0  0  0  0  0  0
  -26.1780  -26.8410   19.5810 C   0  0  0  0  0  3  0  0  0  0  0  0
  -25.0100  -27.6210   19.5500 C   0  0  0  0  0  3  0  0  0  0  0  0
  -23.7400  -29.7440   20.1760 C   0  0  0  0  0  2  0  0  0  0  0  0
  -24.7360  -31.0200   22.1160 N   0  0  0  0  0  0  0  0  0  0  0  0
  -23.5380  -32.1020   23.7150 O   0  0  0  0  0  0  0  0  0  0  0  0
  -22.8130  -29.3960   22.4960 C   0  0  0  0  0  0  0  0  0  0  0  0
  -21.4920  -29.2010   22.3370 N   0  0  0  0  0  0  0  0  0  0  0  0
  -23.4780  -28.7830   23.3340 O   0  0  0  0  0  0  0  0  0  0  0  0
  -21.0150  -29.7470   21.6330 H   0  0  0  0  0  0  0  0  0  0  0  0
  -18.1190  -27.9590   22.7530 C   0  0  0  0  0  0  0  0  0  0  0  0
  -20.6650  -28.2570   23.0920 C   0  0  0  0  0  3  0  0  0  0  0  0
  -20.8040  -26.8230   22.5310 C   0  0  0  0  0  2  0  0  0  0  0  0
  -19.7340  -26.4760   21.4900 C   0  0  0  0  0  2  0  0  0  0  0  0
  -18.3330  -26.6060   22.0940 C   0  0  0  0  0  2  0  0  0  0  0  0
  -19.2140  -28.7400   23.2070 C   0  0  0  0  0  0  0  0  0  0  0  0
  -18.9610  -30.0040   23.7830 C   0  0  0  0  0  3  0  0  0  0  0  0
  -17.6450  -30.4870   23.9080 C   0  0  0  0  0  3  0  0  0  0  0  0
  -16.5630  -29.7030   23.4720 C   0  0  0  0  0  3  0  0  0  0  0  0
  -16.8020  -28.4400   22.8990 C   0  0  0  0  0  3  0  0  0  0  0  0
  -25.8970  -32.4840   23.8560 C   0  0  0  0  0  3  0  0  0  0  0  0
  -25.5610  -33.8780   24.1790 N   0  0  0  0  0  0  0  0  0  0  0  0
  -25.8920  -34.9360   23.4260 C   0  0  0  0  0  0  0  0  0  0  0  0
  -26.5810  -34.8410   22.4060 O   0  0  0  0  0  0  0  0  0  0  0  0
  -24.9490  -34.0240   24.9680 H   0  0  0  0  0  0  0  0  0  0  0  0
  -24.1440  -36.7040   23.0420 C   0  0  0  0  0  1  0  0  0  0  0  0
  -25.3780  -36.3180   23.8730 C   0  0  0  0  0  3  0  0  0  0  0  0
  -27.4860  -37.2340   24.7360 C   0  0  0  0  0  1  0  0  0  0  0  0
  -26.3970  -37.3860   23.7740 N   0  0  0  0  0  0  0  0  0  0  0  0
  -25.9760  -38.3010   23.9130 H   0  0  0  0  0  0  0  0  0  0  0  0
  -26.3930  -31.7210   25.1460 C   0  0  1  0  0  0  0  0  0  0  0  0
  -25.2780  -31.4710   26.1890 C   0  0  0  0  0  1  0  0  0  0  0  0
  -27.0030  -30.3510   24.7710 C   0  0  0  0  0  1  0  0  0  0  0  0
  -27.5180  -32.5310   25.8320 C   0  0  0  0  0  1  0  0  0  0  0  0
  1  3  1  0
  1  4  1  0
  2  5  1  0
  3 48  1  0
  3  2  1  0
  4 14  1  0
  4  5  1  0
  5 44  1  0
  6 14  1  0
  7 12  1  0
  8  9  1  0
  8  7  1  0
 10  9  1  0
 10 19  1  0
 10 11  1  0
 12  6  1  0
 12 11  1  0
 13  6  2  0
 14 15  1  0
 16 17  2  0
 17 36  1  0
 18 17  1  0
 18 21  1  0
 19 20  1  0
 19 16  1  0
 20 18  2  0
 21 22  1  0
 22 23  2  0
 24 27  1  0
 24 23  1  0
 25 24  2  0
 26 25  1  0
 26 21  2  0
 27 28  1  0
 28 29  1  0
 29 30  2  0
 31 30  1  0
 31 35  1  0
 32 31  2  0
 33 28  2  0
 33 32  1  0
 34 33  1  0
 36 37  1  0
 37 40  1  0
 37 39  1  0
 38 36  2  0
 41 42  1  0
 41 16  1  0
 43 41  1  0
 44 46  1  0
 44 47  1  0
 45 44  1  0
 48 49  1  0
 49 50  1  0
 51 49  1  0
 52 49  1  0
 53 54  1  0
 53 52  2  0
 55 66  2  0
 56 54  1  0
 56 61  1  0
 57 65  1  0
 57 67  1  0
 58 64  1  0
 58 60  1  0
 59 65  1  0
 60 61  2  0
 60 59  1  0
 62 56  2  0
 63 62  1  0
 63 58  2  0
 64 57  1  0
 65 55  1  0
 67 69  2  0
 68 67  1  0
 70 68  1  0
 71 80  2  0
 71 76  1  0
 72 68  1  0
 72 76  1  0
 73 72  1  0
 74 75  1  0
 74 73  1  0
 75 71  1  0
 76 77  2  0
 77 78  1  0
 79 78  2  0
 80 79  1  0
 81 55  1  0
 81 82  1  0
 81 91  1  0
 82 85  1  0
 83 87  1  0
 83 82  1  0
 84 83  2  0
 87 86  1  0
 89 87  1  0
 89 90  1  0
 89 88  1  0
 91 94  1  1
 91 92  1  0
 93 91  1  0
M  ISO  4   6 100  14 100  53 101  54 101
M  END
>  <TORSDO>  (16) 
F 21

>  <SCORE>  (16) 
-12.869

>  <name>  (16) 
15

>  <ligand_id>  (16) 
15

>  <original_smiles>  (16) 
[H]c1c([H])c([H])c2c(c1[H])C([H])([H])C([H])([H])C([H])([H])C2([H])N([H])C(=O)C1([H])N(C(=O)C([H])(N([H])C(=O)C([H])(N([H])C([H])([H])[H])C([H])([H])[H])C(C([H])([H])[H])(C([H])([H])[H])C([H])([H])[H])C([H])([H])c2c([H])c(OC([H])([H])C([H])([H])[N+]([H])([H])C([H])([H])C3([H])C([H])([H])C([H])(N([H])C(=O)N4C([H])([H])C([H])([H])C([H])([H])C([H])(n5nc(-c6c([H])c([H])c(Oc7c([H])c([H])c(F)c([H])c7F)c([H])c6[H])c(C(=O)N([H])[H])c5N([H])[H])C4([H])[H])C([H])([N+]([H])([H])[H])C3([H])[H])c([H])c([H])c2C1([H])[H]

>  <smiles>  (16) 
[H]c1c([H])c([H])c2c(c1[H])C([H])([H])C([H])([H])C([H])([H])C2([H])N([H])C(=O)C1([H])N(C(=O)C([H])(N([H])C(=O)C([H])(N([H])C([H])([H])[H])C([H])([H])[H])C(C([H])([H])[H])(C([H])([H])[H])C([H])([H])[H])C([H])([H])c2c([H])c(OC([H])([H])C([H])([H])[N+]([H])([H])C([H])([H])C3([H])C([H])([H])C([H])(N([H])C(=O)N4C([H])([H])C([H])([H])C([H])([H])C([H])(n5nc(-c6c([H])c([H])c(Oc7c([H])c([H])c(F)c([H])c7F)c([H])c6[H])c(C(=O)N([H])[H])c5N([H])[H])C4([H])[H])C([H])([N+]([H])([H])[H])C3([H])[H])c([H])c([H])c2C1([H])[H]

$$$$
16:0:0
     RDKit          3D

 89 96  0  0  1  0  0  0  0  0999 V2000
  -28.4910  -21.7610   20.3230 C   0  0  0  0  0  0  0  0  0  0  0  0
  -27.1830  -21.5530   20.1000 N   0  0  0  0  0  4  0  0  0  0  0  0
  -29.2950  -20.5720   20.4440 N   0  0  0  0  0  0  0  0  0  0  0  0
  -26.5280  -22.3190   20.0200 H   0  0  0  0  0  0  0  0  0  0  0  0
  -26.7820  -20.6270   20.0380 H   0  0  0  0  0  0  0  0  0  0  0  0
  -30.2740  -20.7450   20.6380 H   0  0  0  0  0  0  0  0  0  0  0  0
  -28.9540  -23.3430   20.4580 C   0  0  0  0  0  3  0  0  0  0  0  0
  -27.9510  -24.6700   20.1200 C   0  0  0  0  0  3  0  0  0  0  0  0
  -28.2370  -26.2020   20.2970 O   0  0  0  0  0  0  0  0  0  0  0  0
  -24.6280  -31.9190   23.2450 C   0  0  0  0  0  0  0  0  0  0  0  0
  -27.1930  -27.1980   20.2160 C   0  0  0  0  0  0  0  0  0  0  0  0
  -23.4310  -30.5350   21.5960 C   0  0  0  0  0  3  0  0  0  0  0  0
  -24.8760  -28.9600   20.1720 C   0  0  0  0  0  0  0  0  0  0  0  0
  -25.9860  -30.7900   21.4420 C   0  0  0  0  0  2  0  0  0  0  0  0
  -26.0560  -29.3990   20.7850 C   0  0  0  0  0  0  0  0  0  0  0  0
  -27.2160  -28.5350   20.7890 C   0  0  0  0  0  3  0  0  0  0  0  0
  -25.9880  -26.8660   19.5580 C   0  0  0  0  0  3  0  0  0  0  0  0
  -24.8570  -27.7070   19.5410 C   0  0  0  0  0  3  0  0  0  0  0  0
  -23.6530  -29.8620   20.2160 C   0  0  0  0  0  2  0  0  0  0  0  0
  -24.7020  -31.1040   22.1490 N   0  0  0  0  0  0  0  0  0  0  0  0
  -23.5410  -32.2070   23.7690 O   0  0  0  0  0  0  0  0  0  0  0  0
  -22.7420  -29.5270   22.5520 C   0  0  0  0  0  0  0  0  0  0  0  0
  -21.4140  -29.3630   22.4200 N   0  0  0  0  0  0  0  0  0  0  0  0
  -23.4080  -28.8950   23.3770 O   0  0  0  0  0  0  0  0  0  0  0  0
  -20.9350  -29.9250   21.7300 H   0  0  0  0  0  0  0  0  0  0  0  0
  -18.0230  -28.1890   22.9140 C   0  0  0  0  0  0  0  0  0  0  0  0
  -20.5840  -28.4300   23.1850 C   0  0  0  0  0  3  0  0  0  0  0  0
  -20.6730  -27.0000   22.6020 C   0  0  0  0  0  2  0  0  0  0  0  0
  -19.5690  -26.6930   21.5850 C   0  0  0  0  0  2  0  0  0  0  0  0
  -18.1890  -26.8440   22.2290 C   0  0  0  0  0  2  0  0  0  0  0  0
  -19.1470  -28.9420   23.3490 C   0  0  0  0  0  0  0  0  0  0  0  0
  -18.9350  -30.2000   23.9520 C   0  0  0  0  0  3  0  0  0  0  0  0
  -17.6340  -30.7070   24.1230 C   0  0  0  0  0  3  0  0  0  0  0  0
  -16.5250  -29.9530   23.7030 C   0  0  0  0  0  3  0  0  0  0  0  0
  -16.7200  -28.6970   23.1040 C   0  0  0  0  0  3  0  0  0  0  0  0
  -25.9070  -32.5460   23.8810 C   0  0  0  0  0  3  0  0  0  0  0  0
  -26.4020  -31.7750   25.1650 C   0  0  1  0  0  0  0  0  0  0  0  0
  -25.2950  -31.5480   26.2220 C   0  0  0  0  0  1  0  0  0  0  0  0
  -26.9810  -30.3920   24.7880 C   0  0  0  0  0  1  0  0  0  0  0  0
  -27.5520  -32.5610   25.8370 C   0  0  0  0  0  1  0  0  0  0  0  0
  -25.6010  -33.9470   24.2120 N   0  0  0  0  0  0  0  0  0  0  0  0
  -25.9200  -35.0000   23.4500 C   0  0  0  0  0  0  0  0  0  0  0  0
  -26.5710  -34.8950   22.4060 O   0  0  0  0  0  0  0  0  0  0  0  0
  -25.0200  -34.1000   25.0240 H   0  0  0  0  0  0  0  0  0  0  0  0
  -24.1770  -36.7910   23.1460 C   0  0  0  0  0  1  0  0  0  0  0  0
  -25.4460  -36.3920   23.9170 C   0  0  0  0  0  3  0  0  0  0  0  0
  -27.6020  -37.2920   24.6760 C   0  0  0  0  0  1  0  0  0  0  0  0
  -26.4720  -37.4460   23.7630 N   0  0  0  0  0  0  0  0  0  0  0  0
  -26.0670  -38.3670   23.9110 H   0  0  0  0  0  0  0  0  0  0  0  0
  -28.9540  -19.0060   20.4030 C   0  0  0  0  0  3  0  0  0  0  0  0
  -30.0810  -17.7440   20.4410 C   0  0  0  0  0  3  0  0  0  0  0  0
  -30.5070  -15.0140   20.3370 C   0  0  0  0  0  0  0  0  0  0  0  0
  -30.3930  -12.6700   19.3790 C   0  0  0  0  0  2  0  0  0  0  0  0
  -29.4600  -12.6320   18.1470 C   0  0  0  0  0  2  0  0  0  0  0  0
  -27.9960  -12.4170   18.5780 C   0  0  0  0  0  2  0  0  0  0  0  0
  -27.5890  -13.3330   19.7630 C   0  0  0  0  0  3  0  0  0  0  0  0
  -28.6440  -13.3360   20.8900 C   0  0  0  0  0  2  0  0  0  0  0  0
  -29.9140  -13.7550   20.2830 N   0  0  0  0  0  0  0  0  0  0  0  0
  -31.7050  -15.0850   20.0440 O   0  0  0  0  0  0  0  0  0  0  0  0
  -29.7330  -16.1950   20.5190 N   0  0  0  0  0  0  0  0  0  0  0  0
  -28.7630  -16.0010   20.7250 H   0  0  0  0  0  0  0  0  0  0  0  0
  -25.2070  -13.9000   20.5060 C   0  0  0  0  0  0  0  0  0  0  0  0
  -24.1470  -13.1210   20.8790 C   0  0  0  0  0  0  0  0  0  0  0  0
  -24.6160  -11.7720   20.8430 C   0  0  0  0  0  0  0  0  0  0  0  0
  -26.2520  -13.0270   20.2610 N   0  0  0  0  0  0  0  0  0  0  0  0
  -25.9070  -11.7410   20.5300 N   0  0  0  0  0  0  0  0  0  0  0  0
  -23.8950  -10.5070   21.0310 C   0  0  0  0  0  0  0  0  0  0  0  0
  -24.3210   -9.5450   21.9730 C   0  0  0  0  0  3  0  0  0  0  0  0
  -23.5990   -8.3450   22.1480 C   0  0  0  0  0  3  0  0  0  0  0  0
  -22.4330   -8.1000   21.3820 C   0  0  0  0  0  0  0  0  0  0  0  0
  -22.0250   -9.0510   20.4300 C   0  0  0  0  0  3  0  0  0  0  0  0
  -22.7500  -10.2410   20.2530 C   0  0  0  0  0  3  0  0  0  0  0  0
  -21.6820   -6.9530   21.4660 O   0  0  0  0  0  0  0  0  0  0  0  0
  -21.6140   -6.2200   22.6240 C   0  0  0  0  0  0  0  0  0  0  0  0
  -21.1390   -6.7770   23.8320 C   0  0  0  0  0  3  0  0  0  0  0  0
  -21.0190   -5.9700   24.9810 C   0  0  0  0  0  3  0  0  0  0  0  0
  -21.3640   -4.6070   24.9230 C   0  0  0  0  0  0  0  0  0  0  0  0
  -21.8330   -4.0490   23.7200 C   0  0  0  0  0  3  0  0  0  0  0  0
  -21.9530   -4.8530   22.5730 C   0  0  0  0  0  0  0  0  0  0  0  0
  -22.3850   -4.3060   21.4120 F   0  0  0  0  0  0  0  0  0  0  0  0
  -21.2430   -3.8280   26.0250 F   0  0  0  0  0  0  0  0  0  0  0  0
  -22.7480  -13.5930   21.1500 C   0  0  0  0  0  0  0  0  0  0  0  0
  -22.0230  -12.8960   22.0170 N   0  0  0  0  0  0  0  0  0  0  0  0
  -22.3060  -14.6150   20.6270 O   0  0  0  0  0  0  0  0  0  0  0  0
  -22.3940  -12.0730   22.4680 H   0  0  0  0  0  0  0  0  0  0  0  0
  -21.0830  -13.1920   22.2380 H   0  0  0  0  0  0  0  0  0  0  0  0
  -25.3600  -15.2720   20.3300 N   0  0  0  0  0  0  0  0  0  0  0  0
  -24.5780  -15.9100   20.4240 H   0  0  0  0  0  0  0  0  0  0  0  0
  -26.1830  -15.7130   19.9410 H   0  0  0  0  0  0  0  0  0  0  0  0
  1  3  1  0
  1  7  1  0
  2  1  2  0
  3  6  1  0
  4  2  1  0
  5  2  1  0
  8  9  1  0
  8  7  2  0
 10 21  2  0
 11  9  1  0
 11 16  1  0
 12 20  1  0
 12 22  1  0
 13 19  1  0
 13 15  1  0
 14 20  1  0
 15 16  2  0
 15 14  1  0
 17 11  2  0
 18 17  1  0
 18 13  2  0
 19 12  1  0
 20 10  1  0
 22 24  2  0
 23 22  1  0
 25 23  1  0
 26 35  2  0
 26 31  1  0
 27 23  1  0
 27 31  1  0
 28 27  1  0
 29 30  1  0
 29 28  1  0
 30 26  1  0
 31 32  2  0
 32 33  1  0
 34 33  2  0
 35 34  1  0
 36 10  1  0
 36 41  1  0
 36 37  1  0
 37 40  1  1
 37 38  1  0
 39 37  1  0
 41 44  1  0
 42 46  1  0
 42 41  1  0
 43 42  2  0
 46 45  1  0
 48 49  1  0
 48 46  1  0
 48 47  1  0
 50 51  2  0
 50  3  1  0
 51 60  1  0
 52 60  1  0
 53 58  1  0
 54 55  1  0
 54 53  1  0
 56 55  1  0
 56 65  1  0
 56 57  1  0
 58 52  1  0
 58 57  1  0
 59 52  2  0
 60 61  1  0
 62 63  2  0
 63 82  1  0
 64 63  1  0
 64 67  1  0
 65 62  1  0
 65 66  1  0
 66 64  2  0
 67 68  1  0
 68 69  2  0
 70 73  1  0
 70 69  1  0
 71 70  2  0
 72 71  1  0
 72 67  2  0
 73 74  1  0
 74 75  1  0
 75 76  2  0
 77 76  1  0
 77 81  1  0
 78 77  2  0
 79 74  2  0
 79 78  1  0
 80 79  1  0
 82 83  1  0
 83 86  1  0
 83 85  1  0
 84 82  2  0
 87 88  1  0
 87 62  1  0
 89 87  1  0
M  ISO  4   8 101   9 101  52 100  60 100
M  END
>  <TORSDO>  (17) 
F 20

>  <SCORE>  (17) 
-14.506

>  <name>  (17) 
16

>  <ligand_id>  (17) 
16

>  <original_smiles>  (17) 
[H]c1c([H])c([H])c2c(c1[H])C([H])([H])C([H])([H])C([H])([H])C2([H])N([H])C(=O)C1([H])N(C(=O)C([H])(N([H])C(=O)C([H])(N([H])C([H])([H])[H])C([H])([H])[H])C(C([H])([H])[H])(C([H])([H])[H])C([H])([H])[H])C([H])([H])c2c([H])c(OC([H])([H])C([H])([H])C(N([H])[H])=[N+]([H])C([H])([H])C([H])([H])N([H])C(=O)N3C([H])([H])C([H])([H])C([H])([H])C([H])(n4nc(-c5c([H])c([H])c(Oc6c([H])c([H])c(F)c([H])c6F)c([H])c5[H])c(C(=O)N([H])[H])c4N([H])[H])C3([H])[H])c([H])c([H])c2C1([H])[H]

>  <smiles>  (17) 
[H]c1c([H])c([H])c2c(c1[H])C([H])([H])C([H])([H])C([H])([H])C2([H])N([H])C(=O)C1([H])N(C(=O)C([H])(N([H])C(=O)C([H])(N([H])C([H])([H])[H])C([H])([H])[H])C(C([H])([H])[H])(C([H])([H])[H])C([H])([H])[H])C([H])([H])c2c([H])c(OC([H])([H])C([H])([H])C(N([H])[H])=[N+]([H])C([H])([H])C([H])([H])N([H])C(=O)N3C([H])([H])C([H])([H])C([H])([H])C([H])(n4nc(-c5c([H])c([H])c(Oc6c([H])c([H])c(F)c([H])c6F)c([H])c5[H])c(C(=O)N([H])[H])c4N([H])[H])C3([H])[H])c([H])c([H])c2C1([H])[H]

$$$$
17:0:0
     RDKit          3D

 90 98  0  0  1  0  0  0  0  0999 V2000
  -28.8160  -21.8750   20.2310 N   0  0  0  0  0  4  0  0  0  0  0  0
  -28.4590  -21.7510   21.1660 H   0  0  0  0  0  0  0  0  0  0  0  0
  -28.0280  -21.7440   19.6150 H   0  0  0  0  0  0  0  0  0  0  0  0
  -29.7910  -20.6500   19.9530 C   0  0  0  0  0  2  0  0  0  0  0  0
  -30.9670  -18.4570   22.1440 C   0  0  0  0  0  2  0  0  0  0  0  0
  -29.5110  -18.8490   21.8410 C   0  0  0  0  0  2  0  0  0  0  0  0
  -31.5630  -17.9050   20.8400 C   0  0  0  0  0  2  0  0  0  0  0  0
  -29.4290  -19.0280   20.3200 C   0  0  0  0  0  3  0  0  0  0  0  0
  -30.3770  -17.7020   19.8840 C   0  0  0  0  0  3  0  0  0  0  0  0
  -30.6790  -14.9730   19.8320 C   0  0  0  0  0  0  0  0  0  0  0  0
  -30.4990  -12.6060   18.9530 C   0  0  0  0  0  2  0  0  0  0  0  0
  -29.5070  -12.5140   17.7710 C   0  0  0  0  0  2  0  0  0  0  0  0
  -28.0680  -12.3140   18.2820 C   0  0  0  0  0  2  0  0  0  0  0  0
  -27.7120  -13.2750   19.4460 C   0  0  0  0  0  3  0  0  0  0  0  0
  -28.8220  -13.3260   20.5200 C   0  0  0  0  0  2  0  0  0  0  0  0
  -30.0600  -13.7240   19.8380 N   0  0  0  0  0  0  0  0  0  0  0  0
  -31.8640  -15.0130   19.4900 O   0  0  0  0  0  0  0  0  0  0  0  0
  -29.9460  -16.1810   20.0030 N   0  0  0  0  0  0  0  0  0  0  0  0
  -28.9740  -16.0380   20.2300 H   0  0  0  0  0  0  0  0  0  0  0  0
  -25.3720  -13.8600   20.3000 C   0  0  0  0  0  0  0  0  0  0  0  0
  -24.3250  -13.0870   20.7230 C   0  0  0  0  0  0  0  0  0  0  0  0
  -24.7860  -11.7350   20.6730 C   0  0  0  0  0  0  0  0  0  0  0  0
  -26.4010  -12.9800   20.0140 N   0  0  0  0  0  0  0  0  0  0  0  0
  -26.0610  -11.6970   20.3040 N   0  0  0  0  0  0  0  0  0  0  0  0
  -24.0670  -10.4740   20.8990 C   0  0  0  0  0  0  0  0  0  0  0  0
  -24.4770   -9.5580   21.8940 C   0  0  0  0  0  3  0  0  0  0  0  0
  -23.7560   -8.3630   22.1060 C   0  0  0  0  0  3  0  0  0  0  0  0
  -22.6130   -8.0750   21.3230 C   0  0  0  0  0  0  0  0  0  0  0  0
  -22.2240   -8.9780   20.3200 C   0  0  0  0  0  3  0  0  0  0  0  0
  -22.9450  -10.1650   20.1060 C   0  0  0  0  0  3  0  0  0  0  0  0
  -21.8670   -6.9270   21.4410 O   0  0  0  0  0  0  0  0  0  0  0  0
  -21.6990   -6.2980   22.6490 C   0  0  0  0  0  0  0  0  0  0  0  0
  -21.1300   -6.9570   23.7600 C   0  0  0  0  0  3  0  0  0  0  0  0
  -20.9140   -6.2540   24.9620 C   0  0  0  0  0  3  0  0  0  0  0  0
  -21.2570   -4.8920   25.0520 C   0  0  0  0  0  0  0  0  0  0  0  0
  -21.8210   -4.2320   23.9470 C   0  0  0  0  0  3  0  0  0  0  0  0
  -22.0380   -4.9340   22.7470 C   0  0  0  0  0  0  0  0  0  0  0  0
  -22.5600   -4.2880   21.6770 F   0  0  0  0  0  0  0  0  0  0  0  0
  -21.0430   -4.2140   26.2040 F   0  0  0  0  0  0  0  0  0  0  0  0
  -22.9420  -13.5660   21.0560 C   0  0  0  0  0  0  0  0  0  0  0  0
  -22.2630  -12.8870   21.9730 N   0  0  0  0  0  0  0  0  0  0  0  0
  -22.4750  -14.5780   20.5360 O   0  0  0  0  0  0  0  0  0  0  0  0
  -22.6600  -12.0730   22.4180 H   0  0  0  0  0  0  0  0  0  0  0  0
  -21.3350  -13.1870   22.2370 H   0  0  0  0  0  0  0  0  0  0  0  0
  -25.5290  -15.2300   20.1090 N   0  0  0  0  0  0  0  0  0  0  0  0
  -24.7650  -15.8840   20.2460 H   0  0  0  0  0  0  0  0  0  0  0  0
  -26.3550  -15.6610   19.7140 H   0  0  0  0  0  0  0  0  0  0  0  0
  -29.2320  -23.4100   20.1260 C   0  0  0  0  0  3  0  0  0  0  0  0
  -28.1070  -24.6680   20.0910 C   0  0  0  0  0  3  0  0  0  0  0  0
  -28.3560  -26.2080   20.1610 O   0  0  0  0  0  0  0  0  0  0  0  0
  -24.6370  -31.8150   23.1900 C   0  0  0  0  0  0  0  0  0  0  0  0
  -27.2790  -27.1670   20.1120 C   0  0  0  0  0  0  0  0  0  0  0  0
  -23.4560  -30.4320   21.5260 C   0  0  0  0  0  3  0  0  0  0  0  0
  -24.9260  -28.8830   20.0950 C   0  0  0  0  0  0  0  0  0  0  0  0
  -26.0100  -30.7210   21.3750 C   0  0  0  0  0  2  0  0  0  0  0  0
  -26.1010  -29.3390   20.7060 C   0  0  0  0  0  0  0  0  0  0  0  0
  -27.2780  -28.5000   20.6940 C   0  0  0  0  0  3  0  0  0  0  0  0
  -26.0710  -26.8110   19.4700 C   0  0  0  0  0  3  0  0  0  0  0  0
  -24.9220  -27.6320   19.4650 C   0  0  0  0  0  3  0  0  0  0  0  0
  -23.6900  -29.7690   20.1440 C   0  0  0  0  0  2  0  0  0  0  0  0
  -24.7220  -31.0090   22.0870 N   0  0  0  0  0  0  0  0  0  0  0  0
  -23.5460  -32.0860   23.7140 O   0  0  0  0  0  0  0  0  0  0  0  0
  -22.7780  -29.4080   22.4720 C   0  0  0  0  0  0  0  0  0  0  0  0
  -21.4580  -29.2100   22.3150 N   0  0  0  0  0  0  0  0  0  0  0  0
  -23.4440  -28.7950   23.3100 O   0  0  0  0  0  0  0  0  0  0  0  0
  -20.9780  -29.7540   21.6130 H   0  0  0  0  0  0  0  0  0  0  0  0
  -18.0950  -27.9280   22.7310 C   0  0  0  0  0  0  0  0  0  0  0  0
  -20.6390  -28.2560   23.0670 C   0  0  0  0  0  3  0  0  0  0  0  0
  -20.7910  -26.8240   22.5030 C   0  0  0  0  0  2  0  0  0  0  0  0
  -19.7260  -26.4690   21.4600 C   0  0  0  0  0  2  0  0  0  0  0  0
  -18.3230  -26.5820   22.0650 C   0  0  0  0  0  2  0  0  0  0  0  0
  -19.1820  -28.7200   23.1880 C   0  0  0  0  0  0  0  0  0  0  0  0
  -18.9140  -29.9780   23.7720 C   0  0  0  0  0  3  0  0  0  0  0  0
  -17.5930  -30.4450   23.9020 C   0  0  0  0  0  3  0  0  0  0  0  0
  -16.5200  -29.6510   23.4610 C   0  0  0  0  0  3  0  0  0  0  0  0
  -16.7720  -28.3930   22.8830 C   0  0  0  0  0  3  0  0  0  0  0  0
  -25.9060  -32.4520   23.8310 C   0  0  0  0  0  3  0  0  0  0  0  0
  -26.4070  -31.6790   25.1140 C   0  0  1  0  0  0  0  0  0  0  0  0
  -25.2980  -31.4290   26.1640 C   0  0  0  0  0  1  0  0  0  0  0  0
  -27.0010  -30.3050   24.7260 C   0  0  0  0  0  1  0  0  0  0  0  0
  -27.5480  -32.4720   25.7920 C   0  0  0  0  0  1  0  0  0  0  0  0
  -25.5860  -33.8480   24.1690 N   0  0  0  0  0  0  0  0  0  0  0  0
  -25.9190  -34.9090   23.4220 C   0  0  0  0  0  0  0  0  0  0  0  0
  -26.5950  -34.8160   22.3950 O   0  0  0  0  0  0  0  0  0  0  0  0
  -24.9820  -33.9940   24.9650 H   0  0  0  0  0  0  0  0  0  0  0  0
  -24.1810  -36.6970   23.0860 C   0  0  0  0  0  1  0  0  0  0  0  0
  -25.4270  -36.2930   23.8900 C   0  0  0  0  0  3  0  0  0  0  0  0
  -27.5580  -37.1820   24.7240 C   0  0  0  0  0  1  0  0  0  0  0  0
  -26.4540  -37.3520   23.7830 N   0  0  0  0  0  0  0  0  0  0  0  0
  -26.0440  -38.2680   23.9420 H   0  0  0  0  0  0  0  0  0  0  0  0
  1  2  1  0
  3  1  1  0
  4  1  1  0
  6  5  1  0
  7  5  1  0
  8  4  1  0
  8  6  1  0
  9 18  1  0
  9  8  1  0
  9  7  1  0
 10 16  1  0
 10 18  1  0
 11 16  1  0
 12 13  1  0
 12 11  1  0
 14 13  1  0
 14 23  1  0
 14 15  1  0
 16 15  1  0
 17 10  2  0
 18 19  1  0
 20 21  2  0
 21 40  1  0
 22 21  1  0
 22 25  1  0
 23 20  1  0
 23 24  1  0
 24 22  2  0
 25 26  1  0
 26 27  2  0
 28 31  1  0
 28 27  1  0
 29 28  2  0
 30 29  1  0
 30 25  2  0
 31 32  1  0
 32 37  2  0
 32 33  1  0
 33 34  2  0
 34 35  1  0
 35 39  1  0
 36 35  2  0
 37 36  1  0
 38 37  1  0
 40 41  1  0
 41 44  1  0
 41 43  1  0
 42 40  2  0
 45 46  1  0
 45 20  1  0
 47 45  1  0
 48  1  1  0
 49 48  2  0
 49 50  1  0
 51 62  2  0
 52 50  1  0
 52 57  1  0
 53 61  1  0
 53 63  1  0
 54 60  1  0
 54 56  1  0
 55 61  1  0
 56 55  1  0
 57 56  2  0
 58 52  2  0
 59 58  1  0
 59 54  2  0
 60 53  1  0
 61 51  1  0
 63 65  2  0
 64 63  1  0
 66 64  1  0
 67 76  2  0
 67 72  1  0
 68 64  1  0
 68 72  1  0
 69 68  1  0
 70 71  1  0
 70 69  1  0
 71 67  1  0
 72 73  2  0
 73 74  1  0
 75 74  2  0
 76 75  1  0
 77 51  1  0
 77 82  1  0
 77 78  1  0
 78 81  1  1
 78 79  1  0
 80 78  1  0
 82 85  1  0
 83 87  1  0
 83 82  1  0
 84 83  2  0
 87 86  1  0
 89 87  1  0
 89 90  1  0
 89 88  1  0
M  ISO  4  10 100  18 100  49 101  50 101
M  END
>  <TORSDO>  (18) 
F 20

>  <SCORE>  (18) 
-13.057

>  <name>  (18) 
17

>  <ligand_id>  (18) 
17

>  <original_smiles>  (18) 
[H]c1c([H])c([H])c2c(c1[H])C([H])([H])C([H])([H])C([H])([H])C2([H])N([H])C(=O)C1([H])N(C(=O)C([H])(N([H])C(=O)C([H])(N([H])C([H])([H])[H])C([H])([H])[H])C(C([H])([H])[H])(C([H])([H])[H])C([H])([H])[H])C([H])([H])c2c([H])c(OC([H])([H])C([H])([H])[N+]([H])([H])C([H])([H])C3([H])C([H])([H])C([H])([H])C([H])([H])C3([H])N([H])C(=O)N3C([H])([H])C([H])([H])C([H])([H])C([H])(n4nc(-c5c([H])c([H])c(Oc6c([H])c([H])c(F)c([H])c6F)c([H])c5[H])c(C(=O)N([H])[H])c4N([H])[H])C3([H])[H])c([H])c([H])c2C1([H])[H]

>  <smiles>  (18) 
[H]c1c([H])c([H])c2c(c1[H])C([H])([H])C([H])([H])C([H])([H])C2([H])N([H])C(=O)C1([H])N(C(=O)C([H])(N([H])C(=O)C([H])(N([H])C([H])([H])[H])C([H])([H])[H])C(C([H])([H])[H])(C([H])([H])[H])C([H])([H])[H])C([H])([H])c2c([H])c(OC([H])([H])C([H])([H])[N+]([H])([H])C([H])([H])C3([H])C([H])([H])C([H])([H])C([H])([H])C3([H])N([H])C(=O)N3C([H])([H])C([H])([H])C([H])([H])C([H])(n4nc(-c5c([H])c([H])c(Oc6c([H])c([H])c(F)c([H])c6F)c([H])c5[H])c(C(=O)N([H])[H])c4N([H])[H])C3([H])[H])c([H])c([H])c2C1([H])[H]

$$$$
18:0:0
     RDKit          3D

 89 97  0  0  1  0  0  0  0  0999 V2000
  -31.0420  -22.5570   19.6440 C   0  0  0  0  0  2  0  0  0  0  0  0
  -30.9670  -22.2900   21.1640 C   0  0  0  0  0  2  0  0  0  0  0  0
  -29.6910  -22.8940   18.9850 C   0  0  0  0  0  2  0  0  0  0  0  0
  -29.8610  -21.3190   21.6260 C   0  0  0  0  0  2  0  0  0  0  0  0
  -28.4930  -22.6420   19.9110 C   0  0  0  0  0  3  0  0  0  0  0  0
  -28.7700  -21.1600   20.6380 N   0  0  1  0  0  4  0  0  0  0  0  0
  -27.9560  -21.0360   21.2240 H   0  0  0  0  0  0  0  0  0  0  0  0
  -28.0540  -24.2410   20.6460 C   0  0  0  0  0  2  0  0  0  0  0  0
  -28.1920  -25.8500   20.2450 O   0  0  0  0  0  0  0  0  0  0  0  0
  -24.6360  -31.8570   23.2060 C   0  0  0  0  0  0  0  0  0  0  0  0
  -27.1740  -26.9410   20.2460 C   0  0  0  0  0  0  0  0  0  0  0  0
  -23.4430  -30.4490   21.5790 C   0  0  0  0  0  3  0  0  0  0  0  0
  -24.8920  -28.8340   20.1730 C   0  0  0  0  0  0  0  0  0  0  0  0
  -26.0100  -30.6610   21.4290 C   0  0  0  0  0  2  0  0  0  0  0  0
  -26.0810  -29.2430   20.7870 C   0  0  0  0  0  0  0  0  0  0  0  0
  -27.2220  -28.3180   20.7950 C   0  0  0  0  0  3  0  0  0  0  0  0
  -25.9580  -26.6840   19.5810 C   0  0  0  0  0  3  0  0  0  0  0  0
  -24.8540  -27.5750   19.5500 C   0  0  0  0  0  3  0  0  0  0  0  0
  -23.6750  -29.7580   20.2080 C   0  0  0  0  0  2  0  0  0  0  0  0
  -24.7180  -31.0170   22.1250 N   0  0  0  0  0  0  0  0  0  0  0  0
  -23.5460  -32.1490   23.7240 O   0  0  0  0  0  0  0  0  0  0  0  0
  -22.7530  -29.4570   22.5510 C   0  0  0  0  0  0  0  0  0  0  0  0
  -21.4220  -29.2930   22.4320 N   0  0  0  0  0  0  0  0  0  0  0  0
  -23.4240  -28.8350   23.3790 O   0  0  0  0  0  0  0  0  0  0  0  0
  -20.9360  -29.8470   21.7400 H   0  0  0  0  0  0  0  0  0  0  0  0
  -18.0410  -28.0860   22.9570 C   0  0  0  0  0  0  0  0  0  0  0  0
  -20.6010  -28.3580   23.2110 C   0  0  0  0  0  3  0  0  0  0  0  0
  -20.7040  -26.9230   22.6430 C   0  0  0  0  0  2  0  0  0  0  0  0
  -19.5990  -26.5930   21.6350 C   0  0  0  0  0  2  0  0  0  0  0  0
  -18.2190  -26.7360   22.2840 C   0  0  0  0  0  2  0  0  0  0  0  0
  -19.1590  -28.8540   23.3790 C   0  0  0  0  0  0  0  0  0  0  0  0
  -18.9360  -30.1160   23.9700 C   0  0  0  0  0  3  0  0  0  0  0  0
  -17.6290  -30.6090   24.1440 C   0  0  0  0  0  3  0  0  0  0  0  0
  -16.5270  -29.8380   23.7370 C   0  0  0  0  0  3  0  0  0  0  0  0
  -16.7340  -28.5780   23.1490 C   0  0  0  0  0  3  0  0  0  0  0  0
  -25.9060  -32.5080   23.8330 C   0  0  0  0  0  3  0  0  0  0  0  0
  -26.4220  -31.7450   25.1170 C   0  0  1  0  0  0  0  0  0  0  0  0
  -25.3260  -31.5130   26.1850 C   0  0  0  0  0  1  0  0  0  0  0  0
  -27.0100  -30.3660   24.7450 C   0  0  0  0  0  1  0  0  0  0  0  0
  -27.5700  -32.5470   25.7760 C   0  0  0  0  0  1  0  0  0  0  0  0
  -25.5820  -33.9060   24.1690 N   0  0  0  0  0  0  0  0  0  0  0  0
  -25.9100  -34.9690   23.4250 C   0  0  0  0  0  0  0  0  0  0  0  0
  -26.5790  -34.8770   22.3930 O   0  0  0  0  0  0  0  0  0  0  0  0
  -24.9860  -34.0510   24.9720 H   0  0  0  0  0  0  0  0  0  0  0  0
  -24.1770  -36.7660   23.0960 C   0  0  0  0  0  1  0  0  0  0  0  0
  -25.4220  -36.3540   23.8970 C   0  0  0  0  0  3  0  0  0  0  0  0
  -27.5560  -37.2420   24.7290 C   0  0  0  0  0  1  0  0  0  0  0  0
  -26.4510  -37.4130   23.7900 N   0  0  0  0  0  0  0  0  0  0  0  0
  -26.0420  -38.3290   23.9440 H   0  0  0  0  0  0  0  0  0  0  0  0
  -28.8630  -19.6290   19.9630 C   0  0  0  0  0  3  0  0  0  0  0  0
  -29.5690  -18.1150   20.6530 C   0  0  0  0  0  3  0  0  0  0  0  0
  -30.3380  -15.2710   20.2410 C   0  0  0  0  0  0  0  0  0  0  0  0
  -30.3730  -12.8360   19.3410 C   0  0  0  0  0  2  0  0  0  0  0  0
  -29.4430  -12.6390   18.1190 C   0  0  0  0  0  2  0  0  0  0  0  0
  -27.9960  -12.3650   18.5720 C   0  0  0  0  0  2  0  0  0  0  0  0
  -27.5510  -13.3090   19.7190 C   0  0  0  0  0  3  0  0  0  0  0  0
  -28.6100  -13.4360   20.8290 C   0  0  0  0  0  2  0  0  0  0  0  0
  -29.8140  -13.9580   20.1720 N   0  0  0  0  0  0  0  0  0  0  0  0
  -31.5690  -15.3160   20.0930 O   0  0  0  0  0  0  0  0  0  0  0  0
  -29.4950  -16.4890   20.2790 N   0  0  0  0  0  0  0  0  0  0  0  0
  -28.5300  -16.1970   20.2030 H   0  0  0  0  0  0  0  0  0  0  0  0
  -25.1870  -13.8600   20.4980 C   0  0  0  0  0  0  0  0  0  0  0  0
  -24.1310  -13.0780   20.8790 C   0  0  0  0  0  0  0  0  0  0  0  0
  -24.6050  -11.7310   20.8400 C   0  0  0  0  0  0  0  0  0  0  0  0
  -26.2310  -12.9890   20.2430 N   0  0  0  0  0  0  0  0  0  0  0  0
  -25.8930  -11.7010   20.5200 N   0  0  0  0  0  0  0  0  0  0  0  0
  -23.8850  -10.4650   21.0320 C   0  0  0  0  0  0  0  0  0  0  0  0
  -24.3320   -9.4950   21.9550 C   0  0  0  0  0  3  0  0  0  0  0  0
  -23.6130   -8.2940   22.1360 C   0  0  0  0  0  3  0  0  0  0  0  0
  -22.4320   -8.0540   21.3950 C   0  0  0  0  0  0  0  0  0  0  0  0
  -22.0060   -9.0110   20.4590 C   0  0  0  0  0  3  0  0  0  0  0  0
  -22.7240  -10.2050   20.2760 C   0  0  0  0  0  3  0  0  0  0  0  0
  -21.6800   -6.9060   21.4860 O   0  0  0  0  0  0  0  0  0  0  0  0
  -21.6570   -6.1530   22.6330 C   0  0  0  0  0  0  0  0  0  0  0  0
  -21.2510   -6.6950   23.8710 C   0  0  0  0  0  3  0  0  0  0  0  0
  -21.1750   -5.8690   25.0100 C   0  0  0  0  0  3  0  0  0  0  0  0
  -21.4900   -4.5000   24.9100 C   0  0  0  0  0  0  0  0  0  0  0  0
  -21.8870   -3.9580   23.6760 C   0  0  0  0  0  3  0  0  0  0  0  0
  -21.9690   -4.7830   22.5400 C   0  0  0  0  0  0  0  0  0  0  0  0
  -22.3300   -4.2500   21.3480 F   0  0  0  0  0  0  0  0  0  0  0  0
  -21.4090   -3.7030   26.0020 F   0  0  0  0  0  0  0  0  0  0  0  0
  -22.7370  -13.5490   21.1580 C   0  0  0  0  0  0  0  0  0  0  0  0
  -22.0160  -12.8450   22.0260 N   0  0  0  0  0  0  0  0  0  0  0  0
  -22.2900  -14.5720   20.6410 O   0  0  0  0  0  0  0  0  0  0  0  0
  -22.3900  -12.0180   22.4660 H   0  0  0  0  0  0  0  0  0  0  0  0
  -21.0770  -13.1400   22.2500 H   0  0  0  0  0  0  0  0  0  0  0  0
  -25.3400  -15.2320   20.3150 N   0  0  0  0  0  0  0  0  0  0  0  0
  -24.5720  -15.8850   20.4090 H   0  0  0  0  0  0  0  0  0  0  0  0
  -26.1630  -15.6580   19.9090 H   0  0  0  0  0  0  0  0  0  0  0  0
  1  2  1  0
  2  4  1  0
  3  1  1  0
  3  5  1  0
  5  6  1  0
  5  8  1  0
  6  7  1  1
  6  4  1  0
  9 11  1  0
  9  8  1  0
 10 21  2  0
 11 16  1  0
 12 20  1  0
 12 22  1  0
 13 19  1  0
 13 15  1  0
 14 20  1  0
 15 16  2  0
 15 14  1  0
 17 11  2  0
 18 17  1  0
 18 13  2  0
 19 12  1  0
 20 10  1  0
 22 24  2  0
 23 22  1  0
 25 23  1  0
 26 35  2  0
 26 31  1  0
 27 23  1  0
 27 31  1  0
 28 27  1  0
 29 30  1  0
 29 28  1  0
 30 26  1  0
 31 32  2  0
 32 33  1  0
 34 33  2  0
 35 34  1  0
 36 10  1  0
 36 41  1  0
 36 37  1  0
 37 40  1  1
 37 38  1  0
 39 37  1  0
 41 44  1  0
 42 46  1  0
 42 41  1  0
 43 42  2  0
 46 45  1  0
 48 46  1  0
 48 49  1  0
 48 47  1  0
 50  6  1  0
 50 51  2  0
 52 60  1  0
 53 58  1  0
 54 55  1  0
 54 53  1  0
 56 55  1  0
 56 65  1  0
 56 57  1  0
 58 52  1  0
 58 57  1  0
 59 52  2  0
 60 51  1  0
 61 60  1  0
 62 63  2  0
 63 82  1  0
 64 63  1  0
 64 67  1  0
 65 62  1  0
 65 66  1  0
 66 64  2  0
 67 68  1  0
 68 69  2  0
 70 73  1  0
 70 69  1  0
 71 70  2  0
 72 71  1  0
 72 67  2  0
 73 74  1  0
 74 75  1  0
 75 76  2  0
 77 76  1  0
 77 81  1  0
 78 77  2  0
 79 74  2  0
 79 78  1  0
 80 79  1  0
 82 83  1  0
 83 86  1  0
 83 85  1  0
 84 82  2  0
 87 88  1  0
 87 62  1  0
 89 87  1  0
M  ISO  4   8 101   9 101  52 100  60 100
M  END
>  <TORSDO>  (19) 
F 19

>  <SCORE>  (19) 
-16.475

>  <name>  (19) 
18

>  <ligand_id>  (19) 
18

>  <original_smiles>  (19) 
[H]c1c([H])c([H])c2c(c1[H])C([H])([H])C([H])([H])C([H])([H])C2([H])N([H])C(=O)C1([H])N(C(=O)C([H])(N([H])C(=O)C([H])(N([H])C([H])([H])[H])C([H])([H])[H])C(C([H])([H])[H])(C([H])([H])[H])C([H])([H])[H])C([H])([H])c2c([H])c(OC([H])([H])C3([H])C([H])([H])C([H])([H])C([H])([H])C([H])([H])[N+]3([H])C([H])([H])C([H])([H])N([H])C(=O)N3C([H])([H])C([H])([H])C([H])([H])C([H])(n4nc(-c5c([H])c([H])c(Oc6c([H])c([H])c(F)c([H])c6F)c([H])c5[H])c(C(=O)N([H])[H])c4N([H])[H])C3([H])[H])c([H])c([H])c2C1([H])[H]

>  <smiles>  (19) 
[H]c1c([H])c([H])c2c(c1[H])C([H])([H])C([H])([H])C([H])([H])C2([H])N([H])C(=O)C1([H])N(C(=O)C([H])(N([H])C(=O)C([H])(N([H])C([H])([H])[H])C([H])([H])[H])C(C([H])([H])[H])(C([H])([H])[H])C([H])([H])[H])C([H])([H])c2c([H])c(OC([H])([H])C3([H])C([H])([H])C([H])([H])C([H])([H])C([H])([H])[N+]3([H])C([H])([H])C([H])([H])N([H])C(=O)N3C([H])([H])C([H])([H])C([H])([H])C([H])(n4nc(-c5c([H])c([H])c(Oc6c([H])c([H])c(F)c([H])c6F)c([H])c5[H])c(C(=O)N([H])[H])c4N([H])[H])C3([H])[H])c([H])c([H])c2C1([H])[H]

$$$$
19:0:0
     RDKit          3D

102111  0  0  1  0  0  0  0  0999 V2000
  -28.0970  -19.5770   18.6290 C   0  0  0  0  0  2  0  0  0  0  0  0
  -27.6510  -20.3330   19.9070 C   0  0  0  0  0  2  0  0  0  0  0  0
  -29.6350  -19.6390   18.5820 C   0  0  0  0  0  2  0  0  0  0  0  0
  -28.8840  -21.0930   20.4260 C   0  0  0  0  0  3  0  0  0  0  0  0
  -29.9990  -19.7600   20.0610 C   0  0  2  0  0  0  0  0  0  0  0  0
  -31.3360  -20.3300   20.4380 N   0  0  0  0  0  4  0  0  0  0  0  0
  -31.7890  -19.5790   20.9320 H   0  0  0  0  0  0  0  0  0  0  0  0
  -31.2190  -21.0540   21.1300 H   0  0  0  0  0  0  0  0  0  0  0  0
  -32.3520  -20.7560   19.4470 C   0  0  0  0  0  2  0  0  0  0  0  0
  -32.9430  -24.6740   19.3700 C   0  0  0  0  0  2  0  0  0  0  0  0
  -31.7770  -23.9480   17.2250 C   0  0  0  0  0  2  0  0  0  0  0  0
  -33.3210  -23.1940   19.6430 C   0  0  0  0  0  2  0  0  0  0  0  0
  -32.1180  -22.4870   17.5710 C   0  0  0  0  0  2  0  0  0  0  0  0
  -32.7260  -24.9870   17.8640 C   0  0  0  0  0  3  0  0  0  0  0  0
  -32.2310  -22.2620   19.0870 C   0  0  0  0  0  3  0  0  0  0  0  0
  -32.1540  -26.4080   17.5920 C   0  0  0  0  0  2  0  0  0  0  0  0
  -32.9700  -27.5090   18.1290 N   0  0  0  0  0  4  0  0  0  0  0  0
  -33.9150  -27.4530   17.7940 H   0  0  0  0  0  0  0  0  0  0  0  0
  -32.9800  -27.5140   19.1340 H   0  0  0  0  0  0  0  0  0  0  0  0
  -32.5860  -28.3840   17.8160 H   0  0  0  0  0  0  0  0  0  0  0  0
  -28.7460  -22.7870   19.7980 C   0  0  0  0  0  3  0  0  0  0  0  0
  -28.1290  -24.3360   20.4280 C   0  0  0  0  0  3  0  0  0  0  0  0
  -28.3000  -25.9140   20.0270 O   0  0  0  0  0  0  0  0  0  0  0  0
  -24.5950  -31.7210   23.0570 C   0  0  0  0  0  0  0  0  0  0  0  0
  -27.2530  -26.9590   20.0200 C   0  0  0  0  0  0  0  0  0  0  0  0
  -23.4350  -30.3210   21.4000 C   0  0  0  0  0  3  0  0  0  0  0  0
  -24.9200  -28.7640   19.9730 C   0  0  0  0  0  0  0  0  0  0  0  0
  -25.9980  -30.5990   21.2620 C   0  0  0  0  0  2  0  0  0  0  0  0
  -26.0980  -29.2030   20.5900 C   0  0  0  0  0  0  0  0  0  0  0  0
  -27.2660  -28.3240   20.5780 C   0  0  0  0  0  3  0  0  0  0  0  0
  -26.0420  -26.6570   19.3650 C   0  0  0  0  0  3  0  0  0  0  0  0
  -24.9140  -27.5110   19.3410 C   0  0  0  0  0  3  0  0  0  0  0  0
  -23.6840  -29.6570   20.0190 C   0  0  0  0  0  2  0  0  0  0  0  0
  -24.6970  -30.9060   21.9600 N   0  0  0  0  0  0  0  0  0  0  0  0
  -23.4960  -31.9810   23.5780 O   0  0  0  0  0  0  0  0  0  0  0  0
  -22.7620  -29.2970   22.3520 C   0  0  0  0  0  0  0  0  0  0  0  0
  -21.4360  -29.1120   22.2250 N   0  0  0  0  0  0  0  0  0  0  0  0
  -23.4400  -28.6710   23.1690 O   0  0  0  0  0  0  0  0  0  0  0  0
  -20.9410  -29.6640   21.5400 H   0  0  0  0  0  0  0  0  0  0  0  0
  -18.0750  -27.8430   22.7220 C   0  0  0  0  0  0  0  0  0  0  0  0
  -20.6310  -28.1510   22.9860 C   0  0  0  0  0  3  0  0  0  0  0  0
  -20.7570  -26.7270   22.3950 C   0  0  0  0  0  2  0  0  0  0  0  0
  -19.6600  -26.3960   21.3780 C   0  0  0  0  0  2  0  0  0  0  0  0
  -18.2750  -26.5060   22.0240 C   0  0  0  0  0  2  0  0  0  0  0  0
  -19.1790  -28.6210   23.1590 C   0  0  0  0  0  0  0  0  0  0  0  0
  -18.9340  -29.8690   23.7730 C   0  0  0  0  0  3  0  0  0  0  0  0
  -17.6190  -30.3400   23.9470 C   0  0  0  0  0  3  0  0  0  0  0  0
  -16.5310  -29.5580   23.5250 C   0  0  0  0  0  3  0  0  0  0  0  0
  -16.7580  -28.3090   22.9190 C   0  0  0  0  0  3  0  0  0  0  0  0
  -25.8470  -32.3890   23.6980 C   0  0  0  0  0  3  0  0  0  0  0  0
  -25.4810  -33.7630   24.0790 N   0  0  0  0  0  0  0  0  0  0  0  0
  -25.7720  -34.8610   23.3670 C   0  0  0  0  0  0  0  0  0  0  0  0
  -26.4490  -34.8350   22.3370 O   0  0  0  0  0  0  0  0  0  0  0  0
  -24.8840  -33.8620   24.8870 H   0  0  0  0  0  0  0  0  0  0  0  0
  -23.9860  -36.6130   23.1030 C   0  0  0  0  0  1  0  0  0  0  0  0
  -25.2480  -36.2120   23.8860 C   0  0  0  0  0  3  0  0  0  0  0  0
  -27.3580  -37.1420   24.7250 C   0  0  0  0  0  1  0  0  0  0  0  0
  -26.2600  -37.2810   23.7730 N   0  0  0  0  0  0  0  0  0  0  0  0
  -26.6570  -37.2520   22.8350 H   0  0  0  0  0  0  0  0  0  0  0  0
  -26.3880  -31.6030   24.9580 C   0  0  1  0  0  0  0  0  0  0  0  0
  -25.3050  -31.3080   26.0260 C   0  0  0  0  0  1  0  0  0  0  0  0
  -27.0050  -30.2490   24.5380 C   0  0  0  0  0  1  0  0  0  0  0  0
  -27.5210  -32.4100   25.6310 C   0  0  0  0  0  1  0  0  0  0  0  0
  -30.1800  -18.0740   20.6910 C   0  0  0  0  0  2  0  0  0  0  0  0
  -30.6870  -15.2370   20.2100 C   0  0  0  0  0  0  0  0  0  0  0  0
  -30.6150  -12.7880   19.3660 C   0  0  0  0  0  2  0  0  0  0  0  0
  -29.7000  -12.5570   18.1380 C   0  0  0  0  0  2  0  0  0  0  0  0
  -28.2410  -12.3320   18.5730 C   0  0  0  0  0  2  0  0  0  0  0  0
  -27.7960  -13.3330   19.6720 C   0  0  0  0  0  3  0  0  0  0  0  0
  -28.8410  -13.4910   20.7960 C   0  0  0  0  0  2  0  0  0  0  0  0
  -30.0790  -13.9570   20.1430 N   0  0  0  0  0  0  0  0  0  0  0  0
  -31.9190  -15.2090   20.0950 O   0  0  0  0  0  0  0  0  0  0  0  0
  -29.9530  -16.5140   20.1960 N   0  0  0  0  0  0  0  0  0  0  0  0
  -28.9770  -16.3390   20.0020 H   0  0  0  0  0  0  0  0  0  0  0  0
  -25.4320  -13.9460   20.4120 C   0  0  0  0  0  0  0  0  0  0  0  0
  -24.3570  -13.1920   20.7870 C   0  0  0  0  0  0  0  0  0  0  0  0
  -24.8000  -11.8360   20.7720 C   0  0  0  0  0  0  0  0  0  0  0  0
  -26.4590  -13.0490   20.1790 N   0  0  0  0  0  0  0  0  0  0  0  0
  -26.0920  -11.7740   20.4660 N   0  0  0  0  0  0  0  0  0  0  0  0
  -24.0510  -10.5870   20.9710 C   0  0  0  0  0  0  0  0  0  0  0  0
  -24.4600   -9.6140   21.9110 C   0  0  0  0  0  3  0  0  0  0  0  0
  -23.7040   -8.4340   22.0960 C   0  0  0  0  0  3  0  0  0  0  0  0
  -22.5270   -8.2210   21.3430 C   0  0  0  0  0  0  0  0  0  0  0  0
  -22.1390   -9.1790   20.3900 C   0  0  0  0  0  3  0  0  0  0  0  0
  -22.8940  -10.3490   20.2010 C   0  0  0  0  0  3  0  0  0  0  0  0
  -21.7450   -7.0950   21.4380 O   0  0  0  0  0  0  0  0  0  0  0  0
  -21.6750   -6.3620   22.5960 C   0  0  0  0  0  0  0  0  0  0  0  0
  -21.2760   -6.9410   23.8200 C   0  0  0  0  0  3  0  0  0  0  0  0
  -21.1510   -6.1380   24.9700 C   0  0  0  0  0  3  0  0  0  0  0  0
  -21.4180   -4.7570   24.9000 C   0  0  0  0  0  0  0  0  0  0  0  0
  -21.8110   -4.1790   23.6810 C   0  0  0  0  0  3  0  0  0  0  0  0
  -21.9370   -4.9790   22.5320 C   0  0  0  0  0  0  0  0  0  0  0  0
  -22.2960   -4.4120   21.3550 F   0  0  0  0  0  0  0  0  0  0  0  0
  -21.2900   -3.9840   26.0030 F   0  0  0  0  0  0  0  0  0  0  0  0
  -22.9670  -13.7000   21.0400 C   0  0  0  0  0  0  0  0  0  0  0  0
  -22.2200  -13.0370   21.9160 N   0  0  0  0  0  0  0  0  0  0  0  0
  -22.5500  -14.7220   20.4950 O   0  0  0  0  0  0  0  0  0  0  0  0
  -22.5670  -12.2140   22.3850 H   0  0  0  0  0  0  0  0  0  0  0  0
  -21.2870  -13.3640   22.1260 H   0  0  0  0  0  0  0  0  0  0  0  0
  -25.6130  -15.3130   20.2160 N   0  0  0  0  0  0  0  0  0  0  0  0
  -24.8500  -15.9700   20.3140 H   0  0  0  0  0  0  0  0  0  0  0  0
  -26.4520  -15.7320   19.8380 H   0  0  0  0  0  0  0  0  0  0  0  0
  1  2  1  0
  2  4  1  0
  3  1  1  0
  3  5  1  0
  4 21  1  0
  5  4  1  0
  5  6  1  0
  5 64  1  1
  6  7  1  0
  6  8  1  0
  9  6  1  0
 10 12  1  0
 11 13  1  0
 11 14  1  0
 13 15  1  0
 14 16  1  0
 14 10  1  0
 15  9  1  0
 15 12  1  0
 16 17  1  0
 17 19  1  0
 18 17  1  0
 20 17  1  0
 21 22  2  0
 23 22  1  0
 24 35  2  0
 25 23  1  0
 25 30  1  0
 26 34  1  0
 26 36  1  0
 27 33  1  0
 27 29  1  0
 28 34  1  0
 29 28  1  0
 30 29  2  0
 31 25  2  0
 32 31  1  0
 32 27  2  0
 33 26  1  0
 34 24  1  0
 36 38  2  0
 37 36  1  0
 39 37  1  0
 40 49  2  0
 40 45  1  0
 41 37  1  0
 41 45  1  0
 42 41  1  0
 43 44  1  0
 43 42  1  0
 44 40  1  0
 45 46  2  0
 46 47  1  0
 48 47  2  0
 49 48  1  0
 50 24  1  0
 50 51  1  0
 50 60  1  0
 51 54  1  0
 52 56  1  0
 52 51  1  0
 53 52  2  0
 56 55  1  0
 58 56  1  0
 58 57  1  0
 59 58  1  0
 60 63  1  1
 60 61  1  0
 62 60  1  0
 66 71  1  0
 67 68  1  0
 67 66  1  0
 69 68  1  0
 69 78  1  0
 69 70  1  0
 71 65  1  0
 71 70  1  0
 72 65  2  0
 73 65  1  0
 73 64  1  0
 74 73  1  0
 75 76  2  0
 76 95  1  0
 77 76  1  0
 77 80  1  0
 78 75  1  0
 78 79  1  0
 79 77  2  0
 80 81  1  0
 81 82  2  0
 83 86  1  0
 83 82  1  0
 84 83  2  0
 85 84  1  0
 85 80  2  0
 86 87  1  0
 87 88  1  0
 88 89  2  0
 90 89  1  0
 90 94  1  0
 91 90  2  0
 92 87  2  0
 92 91  1  0
 93 92  1  0
 95 96  1  0
 96 99  1  0
 96 98  1  0
 97 95  2  0
100101  1  0
100 75  1  0
102100  1  0
M  ISO  4  22 101  23 101  65 100  73 100
M  END
>  <TORSDO>  (20) 
F 24

>  <SCORE>  (20) 
-13.854

>  <name>  (20) 
19

>  <ligand_id>  (20) 
19

>  <original_smiles>  (20) 
[H]c1c([H])c([H])c2c(c1[H])C([H])([H])C([H])([H])C([H])([H])C2([H])N([H])C(=O)C1([H])N(C(=O)C([H])(N([H])C(=O)C([H])(N([H])C([H])([H])[H])C([H])([H])[H])C(C([H])([H])[H])(C([H])([H])[H])C([H])([H])[H])C([H])([H])c2c([H])c(OC([H])([H])C([H])([H])C3([H])C([H])([H])C([H])([H])C([H])([H])C3(C([H])([H])N([H])C(=O)N3C([H])([H])C([H])([H])C([H])([H])C([H])(n4nc(-c5c([H])c([H])c(Oc6c([H])c([H])c(F)c([H])c6F)c([H])c5[H])c(C(=O)N([H])[H])c4N([H])[H])C3([H])[H])[N+]([H])([H])C([H])([H])C3([H])C([H])([H])C([H])([H])C([H])(C([H])([H])[N+]([H])([H])[H])C([H])([H])C3([H])[H])c([H])c([H])c2C1([H])[H]

>  <smiles>  (20) 
[H]c1c([H])c([H])c2c(c1[H])C([H])([H])C([H])([H])C([H])([H])C2([H])N([H])C(=O)C1([H])N(C(=O)C([H])(N([H])C(=O)C([H])(N([H])C([H])([H])[H])C([H])([H])[H])C(C([H])([H])[H])(C([H])([H])[H])C([H])([H])[H])C([H])([H])c2c([H])c(OC([H])([H])C([H])([H])C3([H])C([H])([H])C([H])([H])C([H])([H])C3(C([H])([H])N([H])C(=O)N3C([H])([H])C([H])([H])C([H])([H])C([H])(n4nc(-c5c([H])c([H])c(Oc6c([H])c([H])c(F)c([H])c6F)c([H])c5[H])c(C(=O)N([H])[H])c4N([H])[H])C3([H])[H])[N+]([H])([H])C([H])([H])C3([H])C([H])([H])C([H])([H])C([H])(C([H])([H])[N+]([H])([H])[H])C([H])([H])C3([H])[H])c([H])c([H])c2C1([H])[H]

$$$$
20:0:0
     RDKit          3D

102111  0  0  1  0  0  0  0  0999 V2000
  -32.8560  -18.1730   21.7820 C   0  0  0  0  0  2  0  0  0  0  0  0
  -31.5260  -17.4370   21.8510 C   0  0  0  0  0  2  0  0  0  0  0  0
  -31.6260  -20.0530   20.5780 C   0  0  0  0  0  2  0  0  0  0  0  0
  -32.6560  -19.6890   21.6710 C   0  0  0  0  0  3  0  0  0  0  0  0
  -30.2580  -19.3040   20.6630 C   0  0  0  0  0  3  0  0  0  0  0  0
  -30.6890  -17.6670   20.5600 C   0  0  0  0  0  3  0  0  0  0  0  0
  -30.4610  -15.1040   20.0150 C   0  0  0  0  0  0  0  0  0  0  0  0
  -30.2290  -12.8350   18.9360 C   0  0  0  0  0  2  0  0  0  0  0  0
  -29.2060  -12.8410   17.7760 C   0  0  0  0  0  2  0  0  0  0  0  0
  -27.7760  -12.5950   18.2980 C   0  0  0  0  0  2  0  0  0  0  0  0
  -27.4530  -13.4140   19.5780 C   0  0  0  0  0  3  0  0  0  0  0  0
  -28.6080  -13.3700   20.6090 C   0  0  0  0  0  2  0  0  0  0  0  0
  -29.8030  -13.8750   19.9190 N   0  0  0  0  0  0  0  0  0  0  0  0
  -31.6370  -15.1070   19.6420 O   0  0  0  0  0  0  0  0  0  0  0  0
  -29.8600  -16.3620   20.3650 N   0  0  0  0  0  0  0  0  0  0  0  0
  -25.1060  -13.9070   20.4810 C   0  0  0  0  0  0  0  0  0  0  0  0
  -24.0800  -13.0910   20.8570 C   0  0  0  0  0  0  0  0  0  0  0  0
  -24.5860  -11.7600   20.7590 C   0  0  0  0  0  0  0  0  0  0  0  0
  -26.1610  -13.0700   20.1530 N   0  0  0  0  0  0  0  0  0  0  0  0
  -25.8580  -11.7700   20.3860 N   0  0  0  0  0  0  0  0  0  0  0  0
  -23.9130  -10.4750   20.9530 C   0  0  0  0  0  0  0  0  0  0  0  0
  -24.3830   -9.5360   21.8950 C   0  0  0  0  0  3  0  0  0  0  0  0
  -23.7070   -8.3110   22.0770 C   0  0  0  0  0  3  0  0  0  0  0  0
  -22.5490   -8.0230   21.3180 C   0  0  0  0  0  0  0  0  0  0  0  0
  -22.1010   -8.9530   20.3630 C   0  0  0  0  0  3  0  0  0  0  0  0
  -22.7790  -10.1680   20.1780 C   0  0  0  0  0  3  0  0  0  0  0  0
  -21.8440   -6.8470   21.4060 O   0  0  0  0  0  0  0  0  0  0  0  0
  -21.7560   -6.1470   22.5820 C   0  0  0  0  0  0  0  0  0  0  0  0
  -21.1810   -6.7120   23.7400 C   0  0  0  0  0  3  0  0  0  0  0  0
  -21.0400   -5.9350   24.9080 C   0  0  0  0  0  3  0  0  0  0  0  0
  -21.4730   -4.5960   24.9170 C   0  0  0  0  0  0  0  0  0  0  0  0
  -22.0460   -4.0330   23.7650 C   0  0  0  0  0  3  0  0  0  0  0  0
  -22.1810   -4.8050   22.5990 C   0  0  0  0  0  0  0  0  0  0  0  0
  -22.7140   -4.2500   21.4820 F   0  0  0  0  0  0  0  0  0  0  0  0
  -21.3340   -3.8480   26.0380 F   0  0  0  0  0  0  0  0  0  0  0  0
  -22.6910  -13.5230   21.2170 C   0  0  0  0  0  0  0  0  0  0  0  0
  -22.0240  -12.7760   22.0880 N   0  0  0  0  0  0  0  0  0  0  0  0
  -22.2150  -14.5630   20.7650 O   0  0  0  0  0  0  0  0  0  0  0  0
  -22.4350  -11.9430   22.4770 H   0  0  0  0  0  0  0  0  0  0  0  0
  -21.0950  -13.0460   22.3800 H   0  0  0  0  0  0  0  0  0  0  0  0
  -25.2160  -15.2920   20.4010 N   0  0  0  0  0  0  0  0  0  0  0  0
  -24.2810  -15.6370   20.6080 H   0  0  0  0  0  0  0  0  0  0  0  0
  -25.7840  -15.5540   21.1990 H   0  0  0  0  0  0  0  0  0  0  0  0
  -28.4310  -16.6680   20.4330 C   0  0  0  0  0  2  0  0  0  0  0  0
  -27.8920  -17.2070   19.0890 C   0  0  0  0  0  2  0  0  0  0  0  0
  -26.5060  -17.6880   19.2020 N   0  0  0  0  0  4  0  0  0  0  0  0
  -25.9330  -16.9680   19.6550 H   0  0  0  0  0  0  0  0  0  0  0  0
  -26.1150  -17.8540   18.2930 H   0  0  0  0  0  0  0  0  0  0  0  0
  -26.4440  -18.5300   19.7450 H   0  0  0  0  0  0  0  0  0  0  0  0
  -29.2030  -20.2330   19.8050 C   0  0  0  0  0  2  0  0  0  0  0  0
  -28.0570  -22.5650   18.8970 C   0  0  0  0  0  2  0  0  0  0  0  0
  -29.0000  -22.7390   21.1350 C   0  0  0  0  0  2  0  0  0  0  0  0
  -28.0880  -24.1520   18.7290 C   0  0  0  0  0  2  0  0  0  0  0  0
  -29.0100  -24.3380   20.9870 C   0  0  0  0  0  2  0  0  0  0  0  0
  -29.1630  -21.9060   19.8050 C   0  0  0  0  0  3  0  0  0  0  0  0
  -27.9450  -25.0120   20.0330 C   0  0  0  0  0  3  0  0  0  0  0  0
  -28.0770  -26.5240   19.8840 O   0  0  0  0  0  0  0  0  0  0  0  0
  -24.5130  -31.9430   23.1910 C   0  0  0  0  0  0  0  0  0  0  0  0
  -26.9600  -27.4040   19.9070 C   0  0  0  0  0  0  0  0  0  0  0  0
  -23.2270  -30.5850   21.5760 C   0  0  0  0  0  3  0  0  0  0  0  0
  -24.6040  -29.0660   20.0350 C   0  0  0  0  0  0  0  0  0  0  0  0
  -25.7580  -30.8960   21.2750 C   0  0  0  0  0  2  0  0  0  0  0  0
  -25.8040  -29.5300   20.5870 C   0  0  0  0  0  0  0  0  0  0  0  0
  -26.9830  -28.7140   20.5050 C   0  0  0  0  0  3  0  0  0  0  0  0
  -25.7340  -27.0100   19.3300 C   0  0  0  0  0  3  0  0  0  0  0  0
  -24.5760  -27.8170   19.3920 C   0  0  0  0  0  3  0  0  0  0  0  0
  -23.3700  -29.9430   20.1700 C   0  0  0  0  0  2  0  0  0  0  0  0
  -24.5220  -31.1600   22.0690 N   0  0  0  0  0  0  0  0  0  0  0  0
  -23.4580  -32.2050   23.7850 O   0  0  0  0  0  0  0  0  0  0  0  0
  -22.6110  -29.5480   22.5440 C   0  0  0  0  0  0  0  0  0  0  0  0
  -21.2900  -29.3270   22.4390 N   0  0  0  0  0  0  0  0  0  0  0  0
  -23.3210  -28.9430   23.3520 O   0  0  0  0  0  0  0  0  0  0  0  0
  -20.7700  -29.8650   21.7600 H   0  0  0  0  0  0  0  0  0  0  0  0
  -17.9730  -27.9740   22.9570 C   0  0  0  0  0  0  0  0  0  0  0  0
  -20.5180  -28.3580   23.2180 C   0  0  0  0  0  3  0  0  0  0  0  0
  -20.6840  -26.9270   22.6530 C   0  0  0  0  0  2  0  0  0  0  0  0
  -19.5980  -26.5460   21.6420 C   0  0  0  0  0  2  0  0  0  0  0  0
  -18.2120  -26.6320   22.2860 C   0  0  0  0  0  2  0  0  0  0  0  0
  -19.0550  -28.7920   23.3790 C   0  0  0  0  0  0  0  0  0  0  0  0
  -18.7780  -30.0450   23.9660 C   0  0  0  0  0  3  0  0  0  0  0  0
  -17.4510  -30.4860   24.1320 C   0  0  0  0  0  3  0  0  0  0  0  0
  -16.3830  -29.6660   23.7250 C   0  0  0  0  0  3  0  0  0  0  0  0
  -16.6450  -28.4120   23.1430 C   0  0  0  0  0  3  0  0  0  0  0  0
  -25.8240  -32.5580   23.7660 C   0  0  0  0  0  3  0  0  0  0  0  0
  -26.3850  -31.7730   25.0160 C   0  0  1  0  0  0  0  0  0  0  0  0
  -25.3230  -31.5080   26.1080 C   0  0  0  0  0  1  0  0  0  0  0  0
  -26.9720  -30.4070   24.5880 C   0  0  0  0  0  1  0  0  0  0  0  0
  -27.5460  -32.5700   25.6570 C   0  0  0  0  0  1  0  0  0  0  0  0
  -25.5400  -33.9580   24.1210 N   0  0  0  0  0  0  0  0  0  0  0  0
  -25.8420  -35.0150   23.3560 C   0  0  0  0  0  0  0  0  0  0  0  0
  -26.4570  -34.9180   22.2930 O   0  0  0  0  0  0  0  0  0  0  0  0
  -24.9880  -34.1080   24.9510 H   0  0  0  0  0  0  0  0  0  0  0  0
  -24.1090  -36.8220   23.1150 C   0  0  0  0  0  1  0  0  0  0  0  0
  -25.3910  -36.4040   23.8520 C   0  0  0  0  0  3  0  0  0  0  0  0
  -27.5700  -37.2770   24.5750 C   0  0  0  0  0  1  0  0  0  0  0  0
  -26.4230  -37.4520   23.6880 N   0  0  0  0  0  0  0  0  0  0  0  0
  -26.0290  -38.3740   23.8520 H   0  0  0  0  0  0  0  0  0  0  0  0
  -34.0140  -20.3840   21.4260 C   0  0  0  0  0  2  0  0  0  0  0  0
  -34.9370  -20.2030   22.5600 N   0  0  0  0  0  4  0  0  0  0  0  0
  -34.6000  -20.6850   23.3770 H   0  0  0  0  0  0  0  0  0  0  0  0
  -35.8420  -20.5680   22.3270 H   0  0  0  0  0  0  0  0  0  0  0  0
  -35.0390  -19.2290   22.7790 H   0  0  0  0  0  0  0  0  0  0  0  0
  1  2  1  0
  3  5  1  0
  3  4  1  0
  4 98  1  0
  4  1  1  0
  5 50  1  0
  6 15  1  0
  6  5  1  0
  6  2  1  0
  7 15  1  0
  8 13  1  0
  9 10  1  0
  9  8  1  0
 11 10  1  0
 11 19  1  0
 11 12  1  0
 13  7  1  0
 13 12  1  0
 14  7  2  0
 15 44  1  0
 16 17  2  0
 17 36  1  0
 18 17  1  0
 18 21  1  0
 19 20  1  0
 19 16  1  0
 20 18  2  0
 21 22  1  0
 22 23  2  0
 24 27  1  0
 24 23  1  0
 25 24  2  0
 26 25  1  0
 26 21  2  0
 27 28  1  0
 28 33  2  0
 28 29  1  0
 29 30  2  0
 30 31  1  0
 31 35  1  0
 32 31  2  0
 33 32  1  0
 34 33  1  0
 36 37  1  0
 37 40  1  0
 37 39  1  0
 38 36  2  0
 41 16  1  0
 41 42  1  0
 41 43  1  0
 45 46  1  0
 45 44  1  0
 46 47  1  0
 46 49  1  0
 48 46  1  0
 51 55  1  0
 53 51  1  0
 53 56  1  0
 54 52  1  0
 55 50  1  0
 55 52  1  0
 56 57  1  0
 56 54  1  0
 57 59  1  0
 58 69  2  0
 59 64  1  0
 60 68  1  0
 60 70  1  0
 61 67  1  0
 61 63  1  0
 62 68  1  0
 63 62  1  0
 64 63  2  0
 65 66  1  0
 65 59  2  0
 66 61  2  0
 67 60  1  0
 68 58  1  0
 70 72  2  0
 71 70  1  0
 73 71  1  0
 74 83  2  0
 74 79  1  0
 75 71  1  0
 75 79  1  0
 76 75  1  0
 77 78  1  0
 77 76  1  0
 78 74  1  0
 79 80  2  0
 80 81  1  0
 82 81  2  0
 83 82  1  0
 84 58  1  0
 84 89  1  0
 84 85  1  0
 85 88  1  1
 85 86  1  0
 87 85  1  0
 89 92  1  0
 90 94  1  0
 90 89  1  0
 91 90  2  0
 94 93  1  0
 96 97  1  0
 96 94  1  0
 96 95  1  0
 98 99  1  0
 99102  1  0
 99100  1  0
101 99  1  0
M  ISO  4   7 100  15 100  56 101  57 101
M  END
>  <TORSDO>  (21) 
F 23

>  <SCORE>  (21) 
-12.246

>  <name>  (21) 
20

>  <ligand_id>  (21) 
20

>  <original_smiles>  (21) 
[H]c1c([H])c([H])c2c(c1[H])C([H])([H])C([H])([H])C([H])([H])C2([H])N([H])C(=O)C1([H])N(C(=O)C([H])(N([H])C(=O)C([H])(N([H])C([H])([H])[H])C([H])([H])[H])C(C([H])([H])[H])(C([H])([H])[H])C([H])([H])[H])C([H])([H])c2c([H])c(OC3([H])C([H])([H])C([H])([H])C([H])(C([H])([H])C4([H])C([H])([H])C([H])(C([H])([H])[N+]([H])([H])[H])C([H])([H])C([H])([H])C4([H])N(C(=O)N4C([H])([H])C([H])([H])C([H])([H])C([H])(n5nc(-c6c([H])c([H])c(Oc7c([H])c([H])c(F)c([H])c7F)c([H])c6[H])c(C(=O)N([H])[H])c5N([H])[H])C4([H])[H])C([H])([H])C([H])([H])[N+]([H])([H])[H])C([H])([H])C3([H])[H])c([H])c([H])c2C1([H])[H]

>  <smiles>  (21) 
[H]c1c([H])c([H])c2c(c1[H])C([H])([H])C([H])([H])C([H])([H])C2([H])N([H])C(=O)C1([H])N(C(=O)C([H])(N([H])C(=O)C([H])(N([H])C([H])([H])[H])C([H])([H])[H])C(C([H])([H])[H])(C([H])([H])[H])C([H])([H])[H])C([H])([H])c2c([H])c(OC3([H])C([H])([H])C([H])([H])C([H])(C([H])([H])C4([H])C([H])([H])C([H])(C([H])([H])[N+]([H])([H])[H])C([H])([H])C([H])([H])C4([H])N(C(=O)N4C([H])([H])C([H])([H])C([H])([H])C([H])(n5nc(-c6c([H])c([H])c(Oc7c([H])c([H])c(F)c([H])c7F)c([H])c6[H])c(C(=O)N([H])[H])c5N([H])[H])C4([H])[H])C([H])([H])C([H])([H])[N+]([H])([H])[H])C([H])([H])C3([H])[H])c([H])c([H])c2C1([H])[H]

$$$$
21:0:0
     RDKit          3D

 95103  0  0  1  0  0  0  0  0999 V2000
  -29.7420  -20.8360   18.5080 C   0  0  0  0  0  2  0  0  0  0  0  0
  -29.4510  -22.2930   18.9440 C   0  0  0  0  0  2  0  0  0  0  0  0
  -29.6500  -19.7250   19.5690 C   0  0  0  0  0  2  0  0  0  0  0  0
  -31.2370  -22.1150   20.6040 C   0  0  0  0  0  2  0  0  0  0  0  0
  -31.1370  -20.6810   21.2190 C   0  0  0  0  0  2  0  0  0  0  0  0
  -29.9460  -22.7480   20.2540 N   0  0  0  0  0  0  0  0  0  0  0  0
  -30.9110  -19.5350   20.3070 N   0  0  0  0  0  0  0  0  0  0  0  0
  -30.0110  -24.2450   20.2980 C   0  0  0  0  0  3  0  0  0  0  0  0
  -28.7100  -25.0280   19.9250 C   0  0  0  0  0  3  0  0  0  0  0  0
  -28.7970  -26.4770   20.0290 O   0  0  0  0  0  0  0  0  0  0  0  0
  -24.6670  -31.5300   22.9550 C   0  0  0  0  0  0  0  0  0  0  0  0
  -27.6070  -27.1940   19.9470 C   0  0  0  0  0  0  0  0  0  0  0  0
  -23.5770  -30.0660   21.2890 C   0  0  0  0  0  3  0  0  0  0  0  0
  -25.1420  -28.6110   19.8940 C   0  0  0  0  0  0  0  0  0  0  0  0
  -26.0890  -30.5480   21.1520 C   0  0  0  0  0  2  0  0  0  0  0  0
  -26.2620  -29.1830   20.5110 C   0  0  0  0  0  0  0  0  0  0  0  0
  -27.4970  -28.4830   20.5310 C   0  0  0  0  0  3  0  0  0  0  0  0
  -26.4640  -26.6600   19.3040 C   0  0  0  0  0  3  0  0  0  0  0  0
  -25.2410  -27.3510   19.2860 C   0  0  0  0  0  3  0  0  0  0  0  0
  -23.8530  -29.4050   19.9140 C   0  0  0  0  0  2  0  0  0  0  0  0
  -24.7940  -30.7320   21.8560 N   0  0  0  0  0  0  0  0  0  0  0  0
  -23.5610  -31.7430   23.4690 O   0  0  0  0  0  0  0  0  0  0  0  0
  -22.9600  -29.0090   22.2350 C   0  0  0  0  0  0  0  0  0  0  0  0
  -21.6480  -28.7640   22.0870 N   0  0  0  0  0  0  0  0  0  0  0  0
  -23.6600  -28.4130   23.0570 O   0  0  0  0  0  0  0  0  0  0  0  0
  -21.1420  -29.3000   21.3970 H   0  0  0  0  0  0  0  0  0  0  0  0
  -18.3270  -27.4080   22.5370 C   0  0  0  0  0  0  0  0  0  0  0  0
  -20.8660  -27.7840   22.8420 C   0  0  0  0  0  3  0  0  0  0  0  0
  -21.0420  -26.3630   22.2600 C   0  0  0  0  0  2  0  0  0  0  0  0
  -19.9710  -25.9950   21.2300 C   0  0  0  0  0  2  0  0  0  0  0  0
  -18.5740  -26.0730   21.8550 C   0  0  0  0  0  2  0  0  0  0  0  0
  -19.4040  -28.2190   22.9850 C   0  0  0  0  0  0  0  0  0  0  0  0
  -19.1200  -29.4670   23.5800 C   0  0  0  0  0  3  0  0  0  0  0  0
  -17.7920  -29.9080   23.7320 C   0  0  0  0  0  3  0  0  0  0  0  0
  -16.7290  -29.0950   23.3000 C   0  0  0  0  0  3  0  0  0  0  0  0
  -16.9970  -27.8470   22.7100 C   0  0  0  0  0  3  0  0  0  0  0  0
  -25.9020  -32.2320   23.6000 C   0  0  0  0  0  3  0  0  0  0  0  0
  -25.4880  -33.5890   23.9860 N   0  0  0  0  0  0  0  0  0  0  0  0
  -25.7450  -34.6930   23.2730 C   0  0  0  0  0  0  0  0  0  0  0  0
  -26.4260  -34.6830   22.2450 O   0  0  0  0  0  0  0  0  0  0  0  0
  -24.8820  -33.6660   24.7900 H   0  0  0  0  0  0  0  0  0  0  0  0
  -23.8880  -36.3630   22.9770 C   0  0  0  0  0  1  0  0  0  0  0  0
  -25.1520  -36.0210   23.7820 C   0  0  0  0  0  3  0  0  0  0  0  0
  -27.2110  -37.0270   24.6630 C   0  0  0  0  0  1  0  0  0  0  0  0
  -26.1020  -37.1530   23.7200 N   0  0  0  0  0  0  0  0  0  0  0  0
  -25.6270  -38.0320   23.9050 H   0  0  0  0  0  0  0  0  0  0  0  0
  -26.4800  -31.4520   24.8450 C   0  0  1  0  0  0  0  0  0  0  0  0
  -25.4120  -31.0890   25.9030 C   0  0  0  0  0  1  0  0  0  0  0  0
  -27.1660  -30.1400   24.3970 C   0  0  0  0  0  1  0  0  0  0  0  0
  -27.5690  -32.3050   25.5380 C   0  0  0  0  0  1  0  0  0  0  0  0
  -31.0790  -18.1740   20.9370 C   0  0  0  0  0  3  0  0  0  0  0  0
  -31.1940  -17.0170   19.8700 C   0  0  0  0  0  2  0  0  0  0  0  0
  -31.6010  -14.5320   19.8210 C   0  0  0  0  0  0  0  0  0  0  0  0
  -31.0890  -12.4090   18.6680 C   0  0  0  0  0  2  0  0  0  0  0  0
  -30.1080  -12.7080   17.5150 C   0  0  0  0  0  2  0  0  0  0  0  0
  -28.6500  -12.6830   18.0140 C   0  0  0  0  0  2  0  0  0  0  0  0
  -28.4460  -13.5160   19.3100 C   0  0  0  0  0  3  0  0  0  0  0  0
  -29.5330  -13.1870   20.3590 C   0  0  0  0  0  2  0  0  0  0  0  0
  -30.8470  -13.3990   19.7330 N   0  0  0  0  0  0  0  0  0  0  0  0
  -32.7120  -14.6300   19.2940 O   0  0  0  0  0  0  0  0  0  0  0  0
  -30.9630  -15.6180   20.3190 N   0  0  0  0  0  0  0  0  0  0  0  0
  -30.0730  -15.4180   20.7490 H   0  0  0  0  0  0  0  0  0  0  0  0
  -26.1510  -14.3080   20.1580 C   0  0  0  0  0  0  0  0  0  0  0  0
  -25.0390  -13.6220   20.5700 C   0  0  0  0  0  0  0  0  0  0  0  0
  -25.3780  -12.2360   20.4850 C   0  0  0  0  0  0  0  0  0  0  0  0
  -27.1000  -13.3460   19.8520 N   0  0  0  0  0  0  0  0  0  0  0  0
  -26.6420  -12.0940   20.1060 N   0  0  0  0  0  0  0  0  0  0  0  0
  -24.5560  -11.0370   20.6860 C   0  0  0  0  0  0  0  0  0  0  0  0
  -24.9120  -10.0460   21.6290 C   0  0  0  0  0  3  0  0  0  0  0  0
  -24.0940   -8.9110   21.8170 C   0  0  0  0  0  3  0  0  0  0  0  0
  -22.9060   -8.7600   21.0640 C   0  0  0  0  0  0  0  0  0  0  0  0
  -22.5680   -9.7380   20.1120 C   0  0  0  0  0  3  0  0  0  0  0  0
  -23.3850  -10.8630   19.9200 C   0  0  0  0  0  3  0  0  0  0  0  0
  -22.0640   -7.6780   21.1630 O   0  0  0  0  0  0  0  0  0  0  0  0
  -21.9020   -6.9970   22.3420 C   0  0  0  0  0  0  0  0  0  0  0  0
  -21.4770   -7.6430   23.5230 C   0  0  0  0  0  3  0  0  0  0  0  0
  -21.2550   -6.8930   24.6950 C   0  0  0  0  0  3  0  0  0  0  0  0
  -21.4500   -5.4990   24.6860 C   0  0  0  0  0  0  0  0  0  0  0  0
  -21.8670   -4.8530   23.5090 C   0  0  0  0  0  3  0  0  0  0  0  0
  -22.0910   -5.6010   22.3390 C   0  0  0  0  0  0  0  0  0  0  0  0
  -22.4730   -4.9710   21.2020 F   0  0  0  0  0  0  0  0  0  0  0  0
  -21.2300   -4.7760   25.8100 F   0  0  0  0  0  0  0  0  0  0  0  0
  -23.7050  -14.2120   20.9270 C   0  0  0  0  0  0  0  0  0  0  0  0
  -22.9790  -13.5800   21.8430 N   0  0  0  0  0  0  0  0  0  0  0  0
  -23.3210  -15.2680   20.4260 O   0  0  0  0  0  0  0  0  0  0  0  0
  -23.3060  -12.7270   22.2710 H   0  0  0  0  0  0  0  0  0  0  0  0
  -22.0850  -13.9560   22.1240 H   0  0  0  0  0  0  0  0  0  0  0  0
  -26.4270  -15.6630   19.9950 N   0  0  0  0  0  0  0  0  0  0  0  0
  -25.6990  -16.3610   20.1020 H   0  0  0  0  0  0  0  0  0  0  0  0
  -27.2390  -16.0100   19.5020 H   0  0  0  0  0  0  0  0  0  0  0  0
  -30.0560  -17.8390   22.0650 C   0  0  0  0  0  2  0  0  0  0  0  0
  -30.4550  -18.3900   23.3730 N   0  0  0  0  0  4  0  0  0  0  0  0
  -31.3710  -18.0690   23.6360 H   0  0  0  0  0  0  0  0  0  0  0  0
  -29.8080  -18.1010   24.0850 H   0  0  0  0  0  0  0  0  0  0  0  0
  -30.4590  -19.3930   23.3430 H   0  0  0  0  0  0  0  0  0  0  0  0
  1  2  1  0
  1  3  1  0
  2  6  1  0
  3  7  1  0
  4  5  1  0
  6  8  1  0
  6  4  1  0
  7 51  1  0
  7  5  1  0
  9 10  1  0
  9  8  2  0
 11 22  2  0
 12 10  1  0
 12 17  1  0
 13 21  1  0
 13 23  1  0
 14 20  1  0
 14 16  1  0
 15 21  1  0
 16 17  2  0
 16 15  1  0
 18 12  2  0
 19 18  1  0
 19 14  2  0
 20 13  1  0
 21 11  1  0
 23 25  2  0
 24 23  1  0
 26 24  1  0
 27 36  2  0
 27 32  1  0
 28 24  1  0
 28 32  1  0
 29 28  1  0
 30 31  1  0
 30 29  1  0
 31 27  1  0
 32 33  2  0
 33 34  1  0
 35 34  2  0
 36 35  1  0
 37 11  1  0
 37 38  1  0
 37 47  1  0
 38 41  1  0
 39 43  1  0
 39 38  1  0
 40 39  2  0
 43 42  1  0
 45 43  1  0
 45 46  1  0
 45 44  1  0
 47 50  1  1
 47 48  1  0
 49 47  1  0
 51 52  1  0
 51 91  1  0
 52 61  1  0
 53 61  1  0
 54 59  1  0
 55 56  1  0
 55 54  1  0
 57 56  1  0
 57 66  1  0
 57 58  1  0
 59 53  1  0
 59 58  1  0
 60 53  2  0
 61 62  1  0
 63 64  2  0
 64 83  1  0
 65 64  1  0
 65 68  1  0
 66 67  1  0
 66 63  1  0
 67 65  2  0
 68 69  1  0
 69 70  2  0
 71 74  1  0
 71 70  1  0
 72 71  2  0
 73 72  1  0
 73 68  2  0
 74 75  1  0
 75 76  1  0
 76 77  2  0
 78 77  1  0
 78 82  1  0
 79 78  2  0
 80 75  2  0
 80 79  1  0
 81 80  1  0
 83 84  1  0
 84 87  1  0
 84 86  1  0
 85 83  2  0
 88 89  1  0
 88 63  1  0
 90 88  1  0
 91 92  1  0
 92 93  1  0
 92 94  1  0
 95 92  1  0
M  ISO  4   9 101  10 101  53 100  61 100
M  END
>  <TORSDO>  (22) 
F 22

>  <SCORE>  (22) 
-11.045

>  <name>  (22) 
21

>  <ligand_id>  (22) 
21

>  <original_smiles>  (22) 
[H]c1c([H])c([H])c2c(c1[H])C([H])([H])C([H])([H])C([H])([H])C2([H])N([H])C(=O)C1([H])N(C(=O)C([H])(N([H])C(=O)C([H])(N([H])C([H])([H])[H])C([H])([H])[H])C(C([H])([H])[H])(C([H])([H])[H])C([H])([H])[H])C([H])([H])c2c([H])c(OC([H])([H])C([H])([H])N3C([H])([H])C([H])([H])N(C([H])(C([H])([H])N([H])C(=O)N4C([H])([H])C([H])([H])C([H])([H])C([H])(n5nc(-c6c([H])c([H])c(Oc7c([H])c([H])c(F)c([H])c7F)c([H])c6[H])c(C(=O)N([H])[H])c5N([H])[H])C4([H])[H])C([H])([H])[N+]([H])([H])[H])C([H])([H])C([H])([H])C3([H])[H])c([H])c([H])c2C1([H])[H]

>  <smiles>  (22) 
[H]c1c([H])c([H])c2c(c1[H])C([H])([H])C([H])([H])C([H])([H])C2([H])N([H])C(=O)C1([H])N(C(=O)C([H])(N([H])C(=O)C([H])(N([H])C([H])([H])[H])C([H])([H])[H])C(C([H])([H])[H])(C([H])([H])[H])C([H])([H])[H])C([H])([H])c2c([H])c(OC([H])([H])C([H])([H])N3C([H])([H])C([H])([H])N(C([H])(C([H])([H])N([H])C(=O)N4C([H])([H])C([H])([H])C([H])([H])C([H])(n5nc(-c6c([H])c([H])c(Oc7c([H])c([H])c(F)c([H])c7F)c([H])c6[H])c(C(=O)N([H])[H])c5N([H])[H])C4([H])[H])C([H])([H])[N+]([H])([H])[H])C([H])([H])C([H])([H])C3([H])[H])c([H])c([H])c2C1([H])[H]

$$$$
22:0:0
     RDKit          3D

 87 95  0  0  1  0  0  0  0  0999 V2000
  -28.9510  -22.0060   20.5860 O   0  0  0  0  0  0  0  0  0  0  0  0
  -29.6580  -20.7760   19.9840 C   0  0  0  0  0  3  0  0  0  0  0  0
  -29.6490  -19.2190   20.6360 C   0  0  0  0  0  3  0  0  0  0  0  0
  -30.5010  -15.0490   20.2080 C   0  0  0  0  0  0  0  0  0  0  0  0
  -30.3680  -12.7150   19.1860 C   0  0  0  0  0  2  0  0  0  0  0  0
  -29.3920  -12.6590   17.9860 C   0  0  0  0  0  2  0  0  0  0  0  0
  -27.9450  -12.4060   18.4540 C   0  0  0  0  0  2  0  0  0  0  0  0
  -27.5660  -13.2980   19.6590 C   0  0  0  0  0  3  0  0  0  0  0  0
  -28.6660  -13.2550   20.7550 C   0  0  0  0  0  2  0  0  0  0  0  0
  -29.8930  -13.7800   20.1280 N   0  0  0  0  0  0  0  0  0  0  0  0
  -31.6980  -15.0750   19.8910 O   0  0  0  0  0  0  0  0  0  0  0  0
  -27.8200  -17.1010   19.2980 C   0  0  0  0  0  2  0  0  0  0  0  0
  -29.0650  -17.7110   18.6490 C   0  0  0  0  0  2  0  0  0  0  0  0
  -28.3480  -16.4400   20.5920 C   0  0  0  0  0  2  0  0  0  0  0  0
  -30.0380  -17.7700   19.8260 C   0  0  0  0  0  3  0  0  0  0  0  0
  -29.7850  -16.3020   20.3810 N   0  0  0  0  0  0  0  0  0  0  0  0
  -25.1820  -13.8950   20.4120 C   0  0  0  0  0  0  0  0  0  0  0  0
  -24.1280  -13.1220   20.8070 C   0  0  0  0  0  0  0  0  0  0  0  0
  -24.6010  -11.7750   20.7810 C   0  0  0  0  0  0  0  0  0  0  0  0
  -26.2330  -13.0180   20.1760 N   0  0  0  0  0  0  0  0  0  0  0  0
  -25.8880  -11.7390   20.4600 N   0  0  0  0  0  0  0  0  0  0  0  0
  -23.8820  -10.5140   20.9840 C   0  0  0  0  0  0  0  0  0  0  0  0
  -24.3290   -9.5530   21.9170 C   0  0  0  0  0  3  0  0  0  0  0  0
  -23.6100   -8.3560   22.1090 C   0  0  0  0  0  3  0  0  0  0  0  0
  -22.4290   -8.1110   21.3670 C   0  0  0  0  0  0  0  0  0  0  0  0
  -22.0030   -9.0600   20.4220 C   0  0  0  0  0  3  0  0  0  0  0  0
  -22.7230  -10.2500   20.2280 C   0  0  0  0  0  3  0  0  0  0  0  0
  -21.6800   -6.9650   21.4690 O   0  0  0  0  0  0  0  0  0  0  0  0
  -21.6480   -6.2290   22.6250 C   0  0  0  0  0  0  0  0  0  0  0  0
  -21.2320   -6.7880   23.8530 C   0  0  0  0  0  3  0  0  0  0  0  0
  -21.1470   -5.9770   25.0030 C   0  0  0  0  0  3  0  0  0  0  0  0
  -21.4670   -4.6090   24.9260 C   0  0  0  0  0  0  0  0  0  0  0  0
  -21.8760   -4.0500   23.7020 C   0  0  0  0  0  3  0  0  0  0  0  0
  -21.9640   -4.8570   22.5560 C   0  0  0  0  0  0  0  0  0  0  0  0
  -22.3380   -4.3090   21.3740 F   0  0  0  0  0  0  0  0  0  0  0  0
  -21.3780   -3.8280   26.0270 F   0  0  0  0  0  0  0  0  0  0  0  0
  -22.7340  -13.5980   21.0910 C   0  0  0  0  0  0  0  0  0  0  0  0
  -22.0200  -12.9070   21.9720 N   0  0  0  0  0  0  0  0  0  0  0  0
  -22.2870  -14.6200   20.5700 O   0  0  0  0  0  0  0  0  0  0  0  0
  -22.3940  -12.0830   22.4160 H   0  0  0  0  0  0  0  0  0  0  0  0
  -21.0840  -13.2090   22.2070 H   0  0  0  0  0  0  0  0  0  0  0  0
  -25.3040  -15.2630   20.2090 N   0  0  0  0  0  0  0  0  0  0  0  0
  -24.5190  -15.8930   20.3260 H   0  0  0  0  0  0  0  0  0  0  0  0
  -26.1370  -15.7270   19.8700 H   0  0  0  0  0  0  0  0  0  0  0  0
  -29.0880  -23.4570   20.0720 C   0  0  0  0  0  3  0  0  0  0  0  0
  -28.1030  -24.7460   20.5200 C   0  0  0  0  0  3  0  0  0  0  0  0
  -28.3200  -26.2670   20.2760 O   0  0  0  0  0  0  0  0  0  0  0  0
  -24.6120  -31.8990   23.2590 C   0  0  0  0  0  0  0  0  0  0  0  0
  -27.2310  -27.2080   20.2500 C   0  0  0  0  0  0  0  0  0  0  0  0
  -23.4210  -30.4960   21.6180 C   0  0  0  0  0  3  0  0  0  0  0  0
  -24.8820  -28.9220   20.2070 C   0  0  0  0  0  0  0  0  0  0  0  0
  -25.9730  -30.7770   21.4590 C   0  0  0  0  0  2  0  0  0  0  0  0
  -26.0560  -29.3830   20.8150 C   0  0  0  0  0  0  0  0  0  0  0  0
  -27.2320  -28.5450   20.8170 C   0  0  0  0  0  3  0  0  0  0  0  0
  -26.0290  -26.8420   19.6040 C   0  0  0  0  0  3  0  0  0  0  0  0
  -24.8800  -27.6630   19.5860 C   0  0  0  0  0  3  0  0  0  0  0  0
  -23.6500  -29.8110   20.2430 C   0  0  0  0  0  2  0  0  0  0  0  0
  -24.6880  -31.0790   22.1670 N   0  0  0  0  0  0  0  0  0  0  0  0
  -23.5240  -32.1810   23.7830 O   0  0  0  0  0  0  0  0  0  0  0  0
  -22.7430  -29.4890   22.5810 C   0  0  0  0  0  0  0  0  0  0  0  0
  -21.4150  -29.3170   22.4510 N   0  0  0  0  0  0  0  0  0  0  0  0
  -23.4140  -28.8640   23.4060 O   0  0  0  0  0  0  0  0  0  0  0  0
  -20.9310  -29.8720   21.7600 H   0  0  0  0  0  0  0  0  0  0  0  0
  -18.0340  -28.1130   22.9440 C   0  0  0  0  0  0  0  0  0  0  0  0
  -20.5910  -28.3820   23.2220 C   0  0  0  0  0  3  0  0  0  0  0  0
  -20.6990  -26.9470   22.6540 C   0  0  0  0  0  2  0  0  0  0  0  0
  -19.6020  -26.6190   21.6350 C   0  0  0  0  0  2  0  0  0  0  0  0
  -18.2170  -26.7620   22.2720 C   0  0  0  0  0  2  0  0  0  0  0  0
  -19.1500  -28.8800   23.3750 C   0  0  0  0  0  0  0  0  0  0  0  0
  -18.9240  -30.1430   23.9650 C   0  0  0  0  0  3  0  0  0  0  0  0
  -17.6160  -30.6400   24.1250 C   0  0  0  0  0  3  0  0  0  0  0  0
  -16.5160  -29.8720   23.7090 C   0  0  0  0  0  3  0  0  0  0  0  0
  -16.7260  -28.6090   23.1240 C   0  0  0  0  0  3  0  0  0  0  0  0
  -25.8860  -32.5390   23.8890 C   0  0  0  0  0  3  0  0  0  0  0  0
  -26.3860  -31.7830   25.1810 C   0  0  1  0  0  0  0  0  0  0  0  0
  -25.2810  -31.5630   26.2410 C   0  0  0  0  0  1  0  0  0  0  0  0
  -26.9680  -30.3970   24.8170 C   0  0  0  0  0  1  0  0  0  0  0  0
  -27.5330  -32.5800   25.8450 C   0  0  0  0  0  1  0  0  0  0  0  0
  -25.5740  -33.9420   24.2060 N   0  0  0  0  0  0  0  0  0  0  0  0
  -25.9110  -34.9900   23.4420 C   0  0  0  0  0  0  0  0  0  0  0  0
  -26.5840  -34.8790   22.4150 O   0  0  0  0  0  0  0  0  0  0  0  0
  -24.9760  -34.1010   25.0030 H   0  0  0  0  0  0  0  0  0  0  0  0
  -24.1880  -36.7880   23.0730 C   0  0  0  0  0  1  0  0  0  0  0  0
  -25.4260  -36.3840   23.8910 C   0  0  0  0  0  3  0  0  0  0  0  0
  -27.5610  -37.2710   24.7210 C   0  0  0  0  0  1  0  0  0  0  0  0
  -26.4620  -37.4340   23.7730 N   0  0  0  0  0  0  0  0  0  0  0  0
  -26.0580  -38.3560   23.9130 H   0  0  0  0  0  0  0  0  0  0  0  0
  2  1  1  0
  2  3  2  0
  4 16  1  0
  5 10  1  0
  6  7  1  0
  6  5  1  0
  8  7  1  0
  8 20  1  0
  8  9  1  0
 10  4  1  0
 10  9  1  0
 11  4  2  0
 12 14  1  0
 13 12  1  0
 13 15  1  0
 15 16  1  0
 15  3  1  0
 16 14  1  0
 17 18  2  0
 18 37  1  0
 19 18  1  0
 19 22  1  0
 20 17  1  0
 20 21  1  0
 21 19  2  0
 22 23  1  0
 23 24  2  0
 25 28  1  0
 25 24  1  0
 26 25  2  0
 27 26  1  0
 27 22  2  0
 28 29  1  0
 29 30  1  0
 30 31  2  0
 32 31  1  0
 32 36  1  0
 33 32  2  0
 34 29  2  0
 34 33  1  0
 35 34  1  0
 37 38  1  0
 38 41  1  0
 38 40  1  0
 39 37  2  0
 42 43  1  0
 42 17  1  0
 44 42  1  0
 45 46  2  0
 45  1  1  0
 47 46  1  0
 48 59  2  0
 49 47  1  0
 49 54  1  0
 50 58  1  0
 50 60  1  0
 51 57  1  0
 51 53  1  0
 52 58  1  0
 53 54  2  0
 53 52  1  0
 55 49  2  0
 56 55  1  0
 56 51  2  0
 57 50  1  0
 58 48  1  0
 60 62  2  0
 61 60  1  0
 63 61  1  0
 64 73  2  0
 64 69  1  0
 65 61  1  0
 65 69  1  0
 66 65  1  0
 67 68  1  0
 67 66  1  0
 68 64  1  0
 69 70  2  0
 70 71  1  0
 72 71  2  0
 73 72  1  0
 74 48  1  0
 74 79  1  0
 74 75  1  0
 75 78  1  1
 75 76  1  0
 77 75  1  0
 79 82  1  0
 80 84  1  0
 80 79  1  0
 81 80  2  0
 84 83  1  0
 86 84  1  0
 86 87  1  0
 86 85  1  0
M  ISO  4   4 100  16 100  46 101  47 101
M  END
>  <TORSDO>  (23) 
F 20

>  <SCORE>  (23) 
-14.418

>  <name>  (23) 
22

>  <ligand_id>  (23) 
22

>  <original_smiles>  (23) 
[H]c1c([H])c([H])c2c(c1[H])C([H])([H])C([H])([H])C([H])([H])C2([H])N([H])C(=O)C1([H])N(C(=O)C([H])(N([H])C(=O)C([H])(N([H])C([H])([H])[H])C([H])([H])[H])C(C([H])([H])[H])(C([H])([H])[H])C([H])([H])[H])C([H])([H])c2c([H])c(OC([H])([H])C([H])([H])OC([H])([H])C([H])([H])C3([H])N(C(=O)N4C([H])([H])C([H])([H])C([H])([H])C([H])(n5nc(-c6c([H])c([H])c(Oc7c([H])c([H])c(F)c([H])c7F)c([H])c6[H])c(C(=O)N([H])[H])c5N([H])[H])C4([H])[H])C([H])([H])C([H])([H])C3([H])[H])c([H])c([H])c2C1([H])[H]

>  <smiles>  (23) 
[H]c1c([H])c([H])c2c(c1[H])C([H])([H])C([H])([H])C([H])([H])C2([H])N([H])C(=O)C1([H])N(C(=O)C([H])(N([H])C(=O)C([H])(N([H])C([H])([H])[H])C([H])([H])[H])C(C([H])([H])[H])(C([H])([H])[H])C([H])([H])[H])C([H])([H])c2c([H])c(OC([H])([H])C([H])([H])OC([H])([H])C([H])([H])C3([H])N(C(=O)N4C([H])([H])C([H])([H])C([H])([H])C([H])(n5nc(-c6c([H])c([H])c(Oc7c([H])c([H])c(F)c([H])c7F)c([H])c6[H])c(C(=O)N([H])[H])c5N([H])[H])C4([H])[H])C([H])([H])C([H])([H])C3([H])[H])c([H])c([H])c2C1([H])[H]

$$$$
23:0:0
     RDKit          3D

 95102  0  0  1  0  0  0  0  0999 V2000
  -26.8520  -22.6180   23.4520 C   0  0  0  0  0  2  0  0  0  0  0  0
  -26.5550  -23.4670   22.2810 N   0  0  0  0  0  4  0  0  0  0  0  0
  -25.7700  -24.0410   22.5420 H   0  0  0  0  0  0  0  0  0  0  0  0
  -26.2510  -22.8850   21.5150 H   0  0  0  0  0  0  0  0  0  0  0  0
  -27.6340  -24.3800   21.8310 C   0  0  0  0  0  2  0  0  0  0  0  0
  -27.1160  -25.2960   20.7090 C   0  0  0  0  0  2  0  0  0  0  0  0
  -28.1810  -26.1700   20.0000 C   0  0  0  0  0  2  0  0  0  0  0  0
  -27.6290  -27.0300   18.9900 O   0  0  0  0  0  0  0  0  0  0  0  0
  -25.5710  -31.1690   24.3950 C   0  0  0  0  0  0  0  0  0  0  0  0
  -26.7240  -27.9450   19.4670 C   0  0  0  0  0  0  0  0  0  0  0  0
  -23.8960  -30.7860   22.6150 C   0  0  0  0  0  3  0  0  0  0  0  0
  -24.7820  -29.7160   20.4750 C   0  0  0  0  0  0  0  0  0  0  0  0
  -26.3980  -30.7270   22.0910 C   0  0  0  0  0  2  0  0  0  0  0  0
  -26.0830  -29.7350   20.9920 C   0  0  0  0  0  0  0  0  0  0  0  0
  -27.0600  -28.8430   20.4990 C   0  0  0  0  0  3  0  0  0  0  0  0
  -25.4220  -27.9610   18.9240 C   0  0  0  0  0  3  0  0  0  0  0  0
  -24.4430  -28.8270   19.4420 C   0  0  0  0  0  3  0  0  0  0  0  0
  -23.7920  -30.6920   21.0700 C   0  0  0  0  0  2  0  0  0  0  0  0
  -25.3140  -30.8810   23.0890 N   0  0  0  0  0  0  0  0  0  0  0  0
  -24.6510  -31.3960   25.1920 O   0  0  0  0  0  0  0  0  0  0  0  0
  -23.1230  -29.6010   23.2350 C   0  0  0  0  0  0  0  0  0  0  0  0
  -21.7970  -29.5750   23.0210 N   0  0  0  0  0  0  0  0  0  0  0  0
  -23.7120  -28.7190   23.8670 O   0  0  0  0  0  0  0  0  0  0  0  0
  -21.3890  -30.3240   22.4800 H   0  0  0  0  0  0  0  0  0  0  0  0
  -18.3900  -28.4030   22.7730 C   0  0  0  0  0  0  0  0  0  0  0  0
  -20.8700  -28.5480   23.4900 C   0  0  0  0  0  3  0  0  0  0  0  0
  -21.0640  -27.2290   22.7130 C   0  0  0  0  0  2  0  0  0  0  0  0
  -20.1460  -27.1090   21.4930 C   0  0  0  0  0  2  0  0  0  0  0  0
  -18.6770  -27.1770   21.9220 C   0  0  0  0  0  2  0  0  0  0  0  0
  -19.4240  -29.0580   23.4940 C   0  0  0  0  0  0  0  0  0  0  0  0
  -19.1120  -30.2140   24.2420 C   0  0  0  0  0  3  0  0  0  0  0  0
  -17.7960  -30.7120   24.2860 C   0  0  0  0  0  3  0  0  0  0  0  0
  -16.7740  -30.0510   23.5840 C   0  0  0  0  0  3  0  0  0  0  0  0
  -17.0700  -28.8980   22.8330 C   0  0  0  0  0  3  0  0  0  0  0  0
  -27.0300  -31.2540   24.9440 C   0  0  0  0  0  3  0  0  0  0  0  0
  -27.1040  -32.4230   25.8300 N   0  0  0  0  0  0  0  0  0  0  0  0
  -27.7120  -33.5740   25.5170 C   0  0  0  0  0  0  0  0  0  0  0  0
  -28.3420  -33.7370   24.4680 O   0  0  0  0  0  0  0  0  0  0  0  0
  -26.5650  -32.3810   26.6820 H   0  0  0  0  0  0  0  0  0  0  0  0
  -26.5820  -35.7600   26.0300 C   0  0  0  0  0  1  0  0  0  0  0  0
  -27.6080  -34.7310   26.5290 C   0  0  0  0  0  3  0  0  0  0  0  0
  -29.8510  -34.5620   27.5120 C   0  0  0  0  0  1  0  0  0  0  0  0
  -28.9000  -35.4030   26.7910 N   0  0  0  0  0  0  0  0  0  0  0  0
  -28.7610  -36.2560   27.3280 H   0  0  0  0  0  0  0  0  0  0  0  0
  -27.4860  -29.9470   25.7000 C   0  0  1  0  0  0  0  0  0  0  0  0
  -26.4930  -29.4820   26.7910 C   0  0  0  0  0  1  0  0  0  0  0  0
  -27.6760  -28.7760   24.7080 C   0  0  0  0  0  1  0  0  0  0  0  0
  -28.8580  -30.1820   26.3740 C   0  0  0  0  0  1  0  0  0  0  0  0
  -28.3100  -22.1280   23.4920 C   0  0  0  0  0  2  0  0  0  0  0  0
  -28.6780  -21.5140   24.8590 C   0  0  0  0  0  2  0  0  0  0  0  0
  -30.1420  -21.7520   25.2680 C   0  0  0  0  0  2  0  0  0  0  0  0
  -31.0940  -21.3230   24.2220 N   0  0  0  0  0  4  0  0  0  0  0  0
  -30.8270  -21.7730   23.3610 H   0  0  0  0  0  0  0  0  0  0  0  0
  -31.0240  -20.3280   24.0840 H   0  0  0  0  0  0  0  0  0  0  0  0
  -32.4980  -21.6900   24.5020 C   0  0  0  0  0  2  0  0  0  0  0  0
  -33.4060  -21.3840   23.3000 C   0  0  0  0  0  2  0  0  0  0  0  0
  -34.8960  -21.3250   23.6760 C   0  0  0  0  0  2  0  0  0  0  0  0
  -36.4910  -20.0480   22.2810 C   0  0  0  0  0  0  0  0  0  0  0  0
  -36.6280  -17.9830   20.9580 C   0  0  0  0  0  2  0  0  0  0  0  0
  -36.2620  -18.3020   19.4940 C   0  0  0  0  0  2  0  0  0  0  0  0
  -34.7400  -18.1940   19.2800 C   0  0  0  0  0  2  0  0  0  0  0  0
  -33.9330  -18.9780   20.3500 C   0  0  0  0  0  3  0  0  0  0  0  0
  -34.4410  -18.6530   21.7700 C   0  0  0  0  0  2  0  0  0  0  0  0
  -35.8900  -18.9220   21.8150 N   0  0  0  0  0  0  0  0  0  0  0  0
  -37.7080  -20.2340   22.2470 O   0  0  0  0  0  0  0  0  0  0  0  0
  -35.6960  -21.1030   22.4790 N   0  0  0  0  0  0  0  0  0  0  0  0
  -36.1880  -21.9460   22.2200 H   0  0  0  0  0  0  0  0  0  0  0  0
  -31.4550  -19.6460   20.1180 C   0  0  0  0  0  0  0  0  0  0  0  0
  -30.3190  -18.8980   19.9630 C   0  0  0  0  0  0  0  0  0  0  0  0
  -30.7380  -17.5330   19.9820 C   0  0  0  0  0  0  0  0  0  0  0  0
  -32.4970  -18.7350   20.2270 N   0  0  0  0  0  0  0  0  0  0  0  0
  -32.0460  -17.4560   20.1990 N   0  0  0  0  0  0  0  0  0  0  0  0
  -29.9820  -16.2950   19.7530 C   0  0  0  0  0  0  0  0  0  0  0  0
  -29.8110  -15.3330   20.7740 C   0  0  0  0  0  3  0  0  0  0  0  0
  -29.0680  -14.1580   20.5320 C   0  0  0  0  0  3  0  0  0  0  0  0
  -28.4830  -13.9360   19.2640 C   0  0  0  0  0  0  0  0  0  0  0  0
  -28.6740  -14.8870   18.2450 C   0  0  0  0  0  3  0  0  0  0  0  0
  -29.4190  -16.0540   18.4850 C   0  0  0  0  0  3  0  0  0  0  0  0
  -27.7650  -12.8130   18.9290 O   0  0  0  0  0  0  0  0  0  0  0  0
  -26.8330  -12.2750   19.7800 C   0  0  0  0  0  0  0  0  0  0  0  0
  -25.7200  -13.0180   20.2300 C   0  0  0  0  0  3  0  0  0  0  0  0
  -24.7500  -12.4040   21.0480 C   0  0  0  0  0  3  0  0  0  0  0  0
  -24.8850  -11.0500   21.4090 C   0  0  0  0  0  0  0  0  0  0  0  0
  -25.9910  -10.3090   20.9580 C   0  0  0  0  0  3  0  0  0  0  0  0
  -26.9620  -10.9200   20.1440 C   0  0  0  0  0  0  0  0  0  0  0  0
  -28.0140  -10.1940   19.6940 F   0  0  0  0  0  0  0  0  0  0  0  0
  -23.9510  -10.4590   22.1890 F   0  0  0  0  0  0  0  0  0  0  0  0
  -28.9320  -19.4160   19.7140 C   0  0  0  0  0  0  0  0  0  0  0  0
  -27.9140  -18.6850   20.1520 N   0  0  0  0  0  0  0  0  0  0  0  0
  -28.7460  -20.5040   19.1710 O   0  0  0  0  0  0  0  0  0  0  0  0
  -28.0660  -17.8030   20.6170 H   0  0  0  0  0  0  0  0  0  0  0  0
  -26.9680  -19.0150   20.0220 H   0  0  0  0  0  0  0  0  0  0  0  0
  -31.6940  -21.0160   20.1540 N   0  0  0  0  0  0  0  0  0  0  0  0
  -30.9590  -21.6910   19.9690 H   0  0  0  0  0  0  0  0  0  0  0  0
  -32.6190  -21.4250   20.1540 H   0  0  0  0  0  0  0  0  0  0  0  0
  1 49  1  0
  2  3  1  0
  2  1  1  0
  4  2  1  0
  5  2  1  0
  6  5  1  0
  7  6  1  0
  8 10  1  0
  8  7  1  0
  9 20  2  0
 10 15  1  0
 11 19  1  0
 11 21  1  0
 12 14  1  0
 12 18  1  0
 13 19  1  0
 14 13  1  0
 15 14  2  0
 16 17  1  0
 16 10  2  0
 17 12  2  0
 18 11  1  0
 19  9  1  0
 21 23  2  0
 22 21  1  0
 24 22  1  0
 25 34  2  0
 25 30  1  0
 26 22  1  0
 26 30  1  0
 27 26  1  0
 28 29  1  0
 28 27  1  0
 29 25  1  0
 30 31  2  0
 31 32  1  0
 33 32  2  0
 34 33  1  0
 35  9  1  0
 35 45  1  0
 35 36  1  0
 36 39  1  0
 37 36  1  0
 37 41  1  0
 38 37  2  0
 41 40  1  0
 41 43  1  0
 43 44  1  0
 43 42  1  0
 45 48  1  1
 45 46  1  0
 47 45  1  0
 49 50  1  0
 50 51  1  0
 52 55  1  0
 52 51  1  0
 53 52  1  0
 54 52  1  0
 56 57  1  0
 56 55  1  0
 58 66  1  0
 59 64  1  0
 60 59  1  0
 61 60  1  0
 62 61  1  0
 62 63  1  0
 63 64  1  0
 64 58  1  0
 65 58  2  0
 66 57  1  0
 67 66  1  0
 68 93  1  0
 68 71  1  0
 69 70  1  0
 69 68  2  0
 70 72  2  0
 71 62  1  0
 72 71  1  0
 73 70  1  0
 73 74  1  0
 75 74  2  0
 76 75  1  0
 77 78  1  0
 77 76  2  0
 78 73  2  0
 79 76  1  0
 79 80  1  0
 80 85  2  0
 80 81  1  0
 81 82  2  0
 82 83  1  0
 83 87  1  0
 84 83  2  0
 85 84  1  0
 86 85  1  0
 88 69  1  0
 88 89  1  0
 89 91  1  0
 90 88  2  0
 92 89  1  0
 94 93  1  0
 95 93  1  0
M  ISO  4   7 101   8 101  58 100  66 100
M  END
>  <TORSDO>  (24) 
F 27

>  <SCORE>  (24) 
4.970

>  <name>  (24) 
23

>  <ligand_id>  (24) 
23

>  <original_smiles>  (24) 
[H]c1c([H])c([H])c2c(c1[H])C([H])([H])C([H])([H])C([H])([H])C2([H])N([H])C(=O)C1([H])N(C(=O)C([H])(N([H])C(=O)C([H])(N([H])C([H])([H])[H])C([H])([H])[H])C(C([H])([H])[H])(C([H])([H])[H])C([H])([H])[H])C([H])([H])c2c([H])c(OC([H])([H])C([H])([H])C([H])([H])[N+]([H])([H])C([H])([H])C([H])([H])C([H])([H])C([H])([H])[N+]([H])([H])C([H])([H])C([H])([H])C([H])([H])N([H])C(=O)N3C([H])([H])C([H])([H])C([H])([H])C([H])(n4nc(-c5c([H])c([H])c(Oc6c([H])c([H])c(F)c([H])c6F)c([H])c5[H])c(C(=O)N([H])[H])c4N([H])[H])C3([H])[H])c([H])c([H])c2C1([H])[H]

>  <smiles>  (24) 
[H]c1c([H])c([H])c2c(c1[H])C([H])([H])C([H])([H])C([H])([H])C2([H])N([H])C(=O)C1([H])N(C(=O)C([H])(N([H])C(=O)C([H])(N([H])C([H])([H])[H])C([H])([H])[H])C(C([H])([H])[H])(C([H])([H])[H])C([H])([H])[H])C([H])([H])c2c([H])c(OC([H])([H])C([H])([H])C([H])([H])[N+]([H])([H])C([H])([H])C([H])([H])C([H])([H])C([H])([H])[N+]([H])([H])C([H])([H])C([H])([H])C([H])([H])N([H])C(=O)N3C([H])([H])C([H])([H])C([H])([H])C([H])(n4nc(-c5c([H])c([H])c(Oc6c([H])c([H])c(F)c([H])c6F)c([H])c5[H])c(C(=O)N([H])[H])c4N([H])[H])C3([H])[H])c([H])c([H])c2C1([H])[H]

$$$$
24:0:0
     RDKit          3D

 90 98  0  0  1  0  0  0  0  0999 V2000
  -29.2030  -21.2140   20.6560 N   0  0  0  0  0  4  0  0  0  0  0  0
  -28.9950  -21.3450   21.6330 H   0  0  0  0  0  0  0  0  0  0  0  0
  -30.1980  -21.3720   20.6050 H   0  0  0  0  0  0  0  0  0  0  0  0
  -30.4110  -15.3830   20.2250 C   0  0  0  0  0  0  0  0  0  0  0  0
  -30.3560  -12.9450   19.3030 C   0  0  0  0  0  2  0  0  0  0  0  0
  -29.4260  -12.6810   18.0910 C   0  0  0  0  0  2  0  0  0  0  0  0
  -27.9940  -12.3790   18.5620 C   0  0  0  0  0  2  0  0  0  0  0  0
  -27.5360  -13.3530   19.6740 C   0  0  0  0  0  3  0  0  0  0  0  0
  -28.5950  -13.5630   20.7770 C   0  0  0  0  0  2  0  0  0  0  0  0
  -29.8000  -14.0940   20.1170 N   0  0  0  0  0  0  0  0  0  0  0  0
  -31.6400  -15.3070   20.0850 O   0  0  0  0  0  0  0  0  0  0  0  0
  -28.4010  -17.1360   19.8200 C   0  0  0  0  0  2  0  0  0  0  0  0
  -30.2020  -18.2510   20.6640 C   0  0  0  0  0  2  0  0  0  0  0  0
  -28.2450  -18.7180   19.4630 C   0  0  0  0  0  3  0  0  0  0  0  0
  -29.0410  -19.5240   20.5320 C   0  0  0  0  0  3  0  0  0  0  0  0
  -29.7410  -16.7300   20.3430 N   0  0  0  0  0  0  0  0  0  0  0  0
  -25.1800  -13.8840   20.4680 C   0  0  0  0  0  0  0  0  0  0  0  0
  -24.1310  -13.0990   20.8550 C   0  0  0  0  0  0  0  0  0  0  0  0
  -24.6090  -11.7530   20.8170 C   0  0  0  0  0  0  0  0  0  0  0  0
  -26.2250  -13.0210   20.2080 N   0  0  0  0  0  0  0  0  0  0  0  0
  -25.8960  -11.7300   20.4880 N   0  0  0  0  0  0  0  0  0  0  0  0
  -23.8950  -10.4840   21.0150 C   0  0  0  0  0  0  0  0  0  0  0  0
  -24.3440   -9.5160   21.9430 C   0  0  0  0  0  3  0  0  0  0  0  0
  -23.6270   -8.3150   22.1290 C   0  0  0  0  0  3  0  0  0  0  0  0
  -22.4450   -8.0720   21.3880 C   0  0  0  0  0  0  0  0  0  0  0  0
  -22.0130   -9.0270   20.4520 C   0  0  0  0  0  3  0  0  0  0  0  0
  -22.7320  -10.2200   20.2650 C   0  0  0  0  0  3  0  0  0  0  0  0
  -21.6990   -6.9230   21.4870 O   0  0  0  0  0  0  0  0  0  0  0  0
  -21.6710   -6.1780   22.6370 C   0  0  0  0  0  0  0  0  0  0  0  0
  -21.2560   -6.7280   23.8710 C   0  0  0  0  0  3  0  0  0  0  0  0
  -21.1740   -5.9080   25.0130 C   0  0  0  0  0  3  0  0  0  0  0  0
  -21.5000   -4.5410   24.9260 C   0  0  0  0  0  0  0  0  0  0  0  0
  -21.9090   -3.9920   23.6990 C   0  0  0  0  0  3  0  0  0  0  0  0
  -21.9910   -4.8090   22.5570 C   0  0  0  0  0  0  0  0  0  0  0  0
  -22.3660   -4.2690   21.3710 F   0  0  0  0  0  0  0  0  0  0  0  0
  -21.4140   -3.7520   26.0230 F   0  0  0  0  0  0  0  0  0  0  0  0
  -22.7340  -13.5640   21.1430 C   0  0  0  0  0  0  0  0  0  0  0  0
  -22.0200  -12.8640   22.0170 N   0  0  0  0  0  0  0  0  0  0  0  0
  -22.2850  -14.5890   20.6300 O   0  0  0  0  0  0  0  0  0  0  0  0
  -22.3950  -12.0370   22.4580 H   0  0  0  0  0  0  0  0  0  0  0  0
  -21.0870  -13.1680   22.2560 H   0  0  0  0  0  0  0  0  0  0  0  0
  -25.3260  -15.2550   20.2830 N   0  0  0  0  0  0  0  0  0  0  0  0
  -24.5570  -15.9050   20.3960 H   0  0  0  0  0  0  0  0  0  0  0  0
  -26.1590  -15.6850   19.9050 H   0  0  0  0  0  0  0  0  0  0  0  0
  -28.7570  -18.9810   18.0320 C   0  0  0  0  0  2  0  0  0  0  0  0
  -28.3220  -20.2360   17.5490 O   0  0  0  0  0  0  0  0  0  0  0  0
  -28.6700  -20.3430   16.6670 H   0  0  0  0  0  0  0  0  0  0  0  0
  -28.5360  -22.6020   19.9670 C   0  0  0  0  0  2  0  0  0  0  0  0
  -28.2030  -24.2640   20.6600 C   0  0  0  0  0  2  0  0  0  0  0  0
  -28.2570  -25.8770   20.2260 O   0  0  0  0  0  0  0  0  0  0  0  0
  -24.6310  -31.8710   23.2130 C   0  0  0  0  0  0  0  0  0  0  0  0
  -27.2150  -26.9550   20.2600 C   0  0  0  0  0  0  0  0  0  0  0  0
  -23.4500  -30.4590   21.5790 C   0  0  0  0  0  3  0  0  0  0  0  0
  -24.9080  -28.8380   20.1850 C   0  0  0  0  0  0  0  0  0  0  0  0
  -26.0190  -30.6680   21.4460 C   0  0  0  0  0  2  0  0  0  0  0  0
  -26.0950  -29.2500   20.8060 C   0  0  0  0  0  0  0  0  0  0  0  0
  -27.2450  -28.3320   20.8100 C   0  0  0  0  0  3  0  0  0  0  0  0
  -25.9920  -26.6950   19.6000 C   0  0  0  0  0  3  0  0  0  0  0  0
  -24.8820  -27.5780   19.5660 C   0  0  0  0  0  3  0  0  0  0  0  0
  -23.6900  -29.7610   20.2120 C   0  0  0  0  0  2  0  0  0  0  0  0
  -24.7220  -31.0280   22.1320 N   0  0  0  0  0  0  0  0  0  0  0  0
  -23.5360  -32.1630   23.7230 O   0  0  0  0  0  0  0  0  0  0  0  0
  -22.7500  -29.4700   22.5480 C   0  0  0  0  0  0  0  0  0  0  0  0
  -21.4190  -29.3130   22.4230 N   0  0  0  0  0  0  0  0  0  0  0  0
  -23.4130  -28.8430   23.3800 O   0  0  0  0  0  0  0  0  0  0  0  0
  -20.9360  -29.8670   21.7280 H   0  0  0  0  0  0  0  0  0  0  0  0
  -18.0320  -28.1270   22.9480 C   0  0  0  0  0  0  0  0  0  0  0  0
  -20.5910  -28.3830   23.2000 C   0  0  0  0  0  3  0  0  0  0  0  0
  -20.6860  -26.9470   22.6300 C   0  0  0  0  0  2  0  0  0  0  0  0
  -19.5790  -26.6250   21.6210 C   0  0  0  0  0  2  0  0  0  0  0  0
  -18.2010  -26.7790   22.2710 C   0  0  0  0  0  2  0  0  0  0  0  0
  -19.1540  -28.8880   23.3700 C   0  0  0  0  0  0  0  0  0  0  0  0
  -18.9400  -30.1470   23.9710 C   0  0  0  0  0  3  0  0  0  0  0  0
  -17.6370  -30.6490   24.1470 C   0  0  0  0  0  3  0  0  0  0  0  0
  -16.5280  -29.8850   23.7370 C   0  0  0  0  0  3  0  0  0  0  0  0
  -16.7280  -28.6260   23.1460 C   0  0  0  0  0  3  0  0  0  0  0  0
  -25.8950  -32.5230   23.8480 C   0  0  0  0  0  3  0  0  0  0  0  0
  -26.3950  -31.7700   25.1430 C   0  0  1  0  0  0  0  0  0  0  0  0
  -25.2860  -31.5500   26.2010 C   0  0  0  0  0  1  0  0  0  0  0  0
  -26.9830  -30.3850   24.7870 C   0  0  0  0  0  1  0  0  0  0  0  0
  -27.5370  -32.5740   25.8100 C   0  0  0  0  0  1  0  0  0  0  0  0
  -25.5720  -33.9240   24.1710 N   0  0  0  0  0  0  0  0  0  0  0  0
  -25.9080  -34.9820   23.4220 C   0  0  0  0  0  0  0  0  0  0  0  0
  -26.5840  -34.8840   22.3960 O   0  0  0  0  0  0  0  0  0  0  0  0
  -24.9740  -34.0740   24.9700 H   0  0  0  0  0  0  0  0  0  0  0  0
  -24.1800  -36.7800   23.0720 C   0  0  0  0  0  1  0  0  0  0  0  0
  -25.4200  -36.3720   23.8840 C   0  0  0  0  0  3  0  0  0  0  0  0
  -27.5490  -37.2600   24.7230 C   0  0  0  0  0  1  0  0  0  0  0  0
  -26.4510  -37.4260   23.7760 N   0  0  0  0  0  0  0  0  0  0  0  0
  -26.0440  -38.3440   23.9240 H   0  0  0  0  0  0  0  0  0  0  0  0
  1  2  1  0
  3  1  1  0
  4 16  1  0
  5 10  1  0
  6  7  1  0
  6  5  1  0
  8  7  1  0
  8 20  1  0
  8  9  1  0
 10  4  1  0
 10  9  1  0
 11  4  2  0
 12 16  1  0
 14 45  1  0
 14 12  1  0
 14 15  1  0
 15  1  1  0
 15 13  1  0
 16 13  1  0
 17 18  2  0
 18 37  1  0
 19 18  1  0
 19 22  1  0
 20 17  1  0
 20 21  1  0
 21 19  2  0
 22 23  1  0
 23 24  2  0
 25 28  1  0
 25 24  1  0
 26 25  2  0
 27 26  1  0
 27 22  2  0
 28 29  1  0
 29 30  1  0
 30 31  2  0
 32 31  1  0
 32 36  1  0
 33 32  2  0
 34 29  2  0
 34 33  1  0
 35 34  1  0
 37 38  1  0
 38 41  1  0
 38 40  1  0
 39 37  2  0
 42 43  1  0
 42 17  1  0
 44 42  1  0
 46 45  1  0
 47 46  1  0
 48  1  1  0
 48 49  1  0
 50 52  1  0
 50 49  1  0
 51 62  2  0
 52 57  1  0
 53 61  1  0
 53 63  1  0
 54 60  1  0
 54 56  1  0
 55 61  1  0
 56 57  2  0
 56 55  1  0
 58 52  2  0
 59 58  1  0
 59 54  2  0
 60 53  1  0
 61 51  1  0
 63 65  2  0
 64 63  1  0
 66 64  1  0
 67 76  2  0
 67 72  1  0
 68 64  1  0
 68 72  1  0
 69 68  1  0
 70 71  1  0
 70 69  1  0
 71 67  1  0
 72 73  2  0
 73 74  1  0
 75 74  2  0
 76 75  1  0
 77 51  1  0
 77 82  1  0
 77 78  1  0
 78 81  1  1
 78 79  1  0
 80 78  1  0
 82 85  1  0
 83 87  1  0
 83 82  1  0
 84 83  2  0
 87 86  1  0
 89 87  1  0
 89 90  1  0
 89 88  1  0
M  ISO  4   4 100  16 100  49 101  50 101
M  END
>  <TORSDO>  (25) 
F 20

>  <SCORE>  (25) 
-16.066

>  <name>  (25) 
24

>  <ligand_id>  (25) 
24

>  <original_smiles>  (25) 
[H]OC([H])([H])C1([H])C([H])([H])N(C(=O)N2C([H])([H])C([H])([H])C([H])([H])C([H])(n3nc(-c4c([H])c([H])c(Oc5c([H])c([H])c(F)c([H])c5F)c([H])c4[H])c(C(=O)N([H])[H])c3N([H])[H])C2([H])[H])C([H])([H])C1([H])[N+]([H])([H])C([H])([H])C([H])([H])Oc1c([H])c([H])c2c(c1[H])C([H])([H])N(C(=O)C([H])(N([H])C(=O)C([H])(N([H])C([H])([H])[H])C([H])([H])[H])C(C([H])([H])[H])(C([H])([H])[H])C([H])([H])[H])C([H])(C(=O)N([H])C1([H])c3c([H])c([H])c([H])c([H])c3C([H])([H])C([H])([H])C1([H])[H])C2([H])[H]

>  <smiles>  (25) 
[H]OC([H])([H])C1([H])C([H])([H])N(C(=O)N2C([H])([H])C([H])([H])C([H])([H])C([H])(n3nc(-c4c([H])c([H])c(Oc5c([H])c([H])c(F)c([H])c5F)c([H])c4[H])c(C(=O)N([H])[H])c3N([H])[H])C2([H])[H])C([H])([H])C1([H])[N+]([H])([H])C([H])([H])C([H])([H])Oc1c([H])c([H])c2c(c1[H])C([H])([H])N(C(=O)C([H])(N([H])C(=O)C([H])(N([H])C([H])([H])[H])C([H])([H])[H])C(C([H])([H])[H])(C([H])([H])[H])C([H])([H])[H])C([H])(C(=O)N([H])C1([H])c3c([H])c([H])c([H])c([H])c3C([H])([H])C([H])([H])C1([H])[H])C2([H])[H]

$$$$
25:0:0
     RDKit          3D

 92100  0  0  1  0  0  0  0  0999 V2000
  -29.6900  -21.9380   21.1270 C   0  0  0  0  0  2  0  0  0  0  0  0
  -32.2790  -19.3690   19.8630 C   0  0  0  0  0  3  0  0  0  0  0  0
  -31.6090  -18.1400   20.0430 C   0  0  0  0  0  3  0  0  0  0  0  0
  -31.6500  -20.5890   20.1800 C   0  0  0  0  0  3  0  0  0  0  0  0
  -29.6540  -19.3540   20.8260 C   0  0  0  0  0  3  0  0  0  0  0  0
  -30.2840  -18.1090   20.5230 C   0  0  0  0  0  0  0  0  0  0  0  0
  -30.3250  -20.6020   20.6700 C   0  0  0  0  0  0  0  0  0  0  0  0
  -29.4800  -16.7850   20.5970 C   0  0  0  0  0  2  0  0  0  0  0  0
  -30.6600  -14.5410   20.4360 C   0  0  0  0  0  0  0  0  0  0  0  0
  -30.3730  -12.3570   19.3140 C   0  0  0  0  0  2  0  0  0  0  0  0
  -29.4440  -12.5620   18.0970 C   0  0  0  0  0  2  0  0  0  0  0  0
  -27.9620  -12.4390   18.5030 C   0  0  0  0  0  2  0  0  0  0  0  0
  -27.6200  -13.2710   19.7700 C   0  0  0  0  0  3  0  0  0  0  0  0
  -28.6670  -13.0450   20.8880 C   0  0  0  0  0  2  0  0  0  0  0  0
  -30.0060  -13.3430   20.3460 N   0  0  0  0  0  0  0  0  0  0  0  0
  -31.7260  -14.7520   19.8540 O   0  0  0  0  0  0  0  0  0  0  0  0
  -30.0380  -15.5160   21.1380 N   0  0  0  0  0  0  0  0  0  0  0  0
  -29.4330  -15.1250   21.8430 H   0  0  0  0  0  0  0  0  0  0  0  0
  -25.2140  -13.8880   20.4560 C   0  0  0  0  0  0  0  0  0  0  0  0
  -24.1430  -13.1230   20.8280 C   0  0  0  0  0  0  0  0  0  0  0  0
  -24.6000  -11.7690   20.8100 C   0  0  0  0  0  0  0  0  0  0  0  0
  -26.2610  -13.0050   20.2400 N   0  0  0  0  0  0  0  0  0  0  0  0
  -25.8930  -11.7260   20.5090 N   0  0  0  0  0  0  0  0  0  0  0  0
  -23.8660  -10.5110   21.0080 C   0  0  0  0  0  0  0  0  0  0  0  0
  -24.2970   -9.5460   21.9460 C   0  0  0  0  0  3  0  0  0  0  0  0
  -23.5650   -8.3530   22.1340 C   0  0  0  0  0  3  0  0  0  0  0  0
  -22.3880   -8.1170   21.3840 C   0  0  0  0  0  0  0  0  0  0  0  0
  -21.9750   -9.0730   20.4360 C   0  0  0  0  0  3  0  0  0  0  0  0
  -22.7080  -10.2560   20.2480 C   0  0  0  0  0  3  0  0  0  0  0  0
  -21.6280   -6.9770   21.4800 O   0  0  0  0  0  0  0  0  0  0  0  0
  -21.5870   -6.2310   22.6310 C   0  0  0  0  0  0  0  0  0  0  0  0
  -21.1870   -6.7880   23.8660 C   0  0  0  0  0  3  0  0  0  0  0  0
  -21.0950   -5.9690   25.0090 C   0  0  0  0  0  3  0  0  0  0  0  0
  -21.3920   -4.5970   24.9190 C   0  0  0  0  0  0  0  0  0  0  0  0
  -21.7830   -4.0390   23.6890 C   0  0  0  0  0  3  0  0  0  0  0  0
  -21.8780   -4.8540   22.5480 C   0  0  0  0  0  0  0  0  0  0  0  0
  -22.2370   -4.3100   21.3600 F   0  0  0  0  0  0  0  0  0  0  0  0
  -21.2940   -3.8080   26.0150 F   0  0  0  0  0  0  0  0  0  0  0  0
  -22.7450  -13.6080   21.0900 C   0  0  0  0  0  0  0  0  0  0  0  0
  -22.0110  -12.9250   21.9600 N   0  0  0  0  0  0  0  0  0  0  0  0
  -22.3130  -14.6280   20.5550 O   0  0  0  0  0  0  0  0  0  0  0  0
  -22.3760  -12.1030   22.4170 H   0  0  0  0  0  0  0  0  0  0  0  0
  -21.0700  -13.2300   22.1710 H   0  0  0  0  0  0  0  0  0  0  0  0
  -25.3790  -15.2570   20.2690 N   0  0  0  0  0  0  0  0  0  0  0  0
  -24.6010  -15.9020   20.3610 H   0  0  0  0  0  0  0  0  0  0  0  0
  -26.2300  -15.7030   19.9540 H   0  0  0  0  0  0  0  0  0  0  0  0
  -29.5380  -22.9980   20.0810 N   0  0  0  0  0  4  0  0  0  0  0  0
  -30.3400  -22.9520   19.4720 H   0  0  0  0  0  0  0  0  0  0  0  0
  -28.7370  -22.7620   19.5180 H   0  0  0  0  0  0  0  0  0  0  0  0
  -29.4110  -24.4100   20.5870 C   0  0  0  0  0  2  0  0  0  0  0  0
  -28.4140  -25.2920   19.7760 C   0  0  0  0  0  2  0  0  0  0  0  0
  -28.4030  -26.6840   20.1840 O   0  0  0  0  0  0  0  0  0  0  0  0
  -24.5920  -31.8910   23.2290 C   0  0  0  0  0  0  0  0  0  0  0  0
  -27.2220  -27.4160   20.1390 C   0  0  0  0  0  0  0  0  0  0  0  0
  -23.3780  -30.4930   21.5900 C   0  0  0  0  0  3  0  0  0  0  0  0
  -24.8260  -28.9540   20.1540 C   0  0  0  0  0  0  0  0  0  0  0  0
  -25.9070  -30.8390   21.3850 C   0  0  0  0  0  2  0  0  0  0  0  0
  -25.9870  -29.4650   20.7460 C   0  0  0  0  0  0  0  0  0  0  0  0
  -27.1820  -28.7040   20.7380 C   0  0  0  0  0  3  0  0  0  0  0  0
  -26.0360  -26.9390   19.5250 C   0  0  0  0  0  3  0  0  0  0  0  0
  -24.8490  -27.6920   19.5400 C   0  0  0  0  0  3  0  0  0  0  0  0
  -23.5820  -29.8140   20.2090 C   0  0  0  0  0  2  0  0  0  0  0  0
  -24.6440  -31.0880   22.1280 N   0  0  0  0  0  0  0  0  0  0  0  0
  -23.5130  -32.1650   23.7730 O   0  0  0  0  0  0  0  0  0  0  0  0
  -22.7270  -29.4730   22.5510 C   0  0  0  0  0  0  0  0  0  0  0  0
  -21.4000  -29.2950   22.4290 N   0  0  0  0  0  0  0  0  0  0  0  0
  -23.4110  -28.8420   23.3640 O   0  0  0  0  0  0  0  0  0  0  0  0
  -20.9100  -29.8530   21.7430 H   0  0  0  0  0  0  0  0  0  0  0  0
  -18.0250  -28.1150   22.9390 C   0  0  0  0  0  0  0  0  0  0  0  0
  -20.5830  -28.3580   23.2010 C   0  0  0  0  0  3  0  0  0  0  0  0
  -20.6770  -26.9300   22.6180 C   0  0  0  0  0  2  0  0  0  0  0  0
  -19.5690  -26.6180   21.6070 C   0  0  0  0  0  2  0  0  0  0  0  0
  -18.1900  -26.7670   22.2570 C   0  0  0  0  0  2  0  0  0  0  0  0
  -19.1480  -28.8690   23.3680 C   0  0  0  0  0  0  0  0  0  0  0  0
  -18.9390  -30.1330   23.9630 C   0  0  0  0  0  3  0  0  0  0  0  0
  -17.6390  -30.6420   24.1320 C   0  0  0  0  0  3  0  0  0  0  0  0
  -16.5290  -29.8850   23.7200 C   0  0  0  0  0  3  0  0  0  0  0  0
  -16.7220  -28.6230   23.1300 C   0  0  0  0  0  3  0  0  0  0  0  0
  -25.8810  -32.5170   23.8470 C   0  0  0  0  0  3  0  0  0  0  0  0
  -25.5770  -33.9140   24.1800 N   0  0  0  0  0  0  0  0  0  0  0  0
  -25.9130  -34.9690   23.4240 C   0  0  0  0  0  0  0  0  0  0  0  0
  -26.5820  -34.8650   22.3930 O   0  0  0  0  0  0  0  0  0  0  0  0
  -24.9780  -34.0690   24.9790 H   0  0  0  0  0  0  0  0  0  0  0  0
  -24.1870  -36.7650   23.0710 C   0  0  0  0  0  1  0  0  0  0  0  0
  -25.4260  -36.3580   23.8840 C   0  0  0  0  0  3  0  0  0  0  0  0
  -27.5640  -37.2320   24.7140 C   0  0  0  0  0  1  0  0  0  0  0  0
  -26.4620  -37.4080   23.7720 N   0  0  0  0  0  0  0  0  0  0  0  0
  -26.0610  -38.3300   23.9220 H   0  0  0  0  0  0  0  0  0  0  0  0
  -26.4000  -31.7410   25.1200 C   0  0  1  0  0  0  0  0  0  0  0  0
  -25.3080  -31.5050   26.1890 C   0  0  0  0  0  1  0  0  0  0  0  0
  -26.9750  -30.3640   24.7170 C   0  0  0  0  0  1  0  0  0  0  0  0
  -27.5530  -32.5300   25.7800 C   0  0  0  0  0  1  0  0  0  0  0  0
  2  3  2  0
  2  4  1  0
  3  6  1  0
  4  7  2  0
  6  8  1  0
  6  5  2  0
  7  5  1  0
  7  1  1  0
  8 17  1  0
  9 17  1  0
 10 15  1  0
 11 12  1  0
 11 10  1  0
 13 12  1  0
 13 22  1  0
 13 14  1  0
 15  9  1  0
 15 14  1  0
 16  9  2  0
 17 18  1  0
 19 20  2  0
 20 39  1  0
 21 20  1  0
 21 24  1  0
 22 19  1  0
 22 23  1  0
 23 21  2  0
 24 25  1  0
 25 26  2  0
 27 30  1  0
 27 26  1  0
 28 27  2  0
 29 28  1  0
 29 24  2  0
 30 31  1  0
 31 32  1  0
 32 33  2  0
 34 33  1  0
 34 38  1  0
 35 34  2  0
 36 31  2  0
 36 35  1  0
 37 36  1  0
 39 40  1  0
 40 43  1  0
 40 42  1  0
 41 39  2  0
 44 45  1  0
 44 19  1  0
 46 44  1  0
 47 50  1  0
 47  1  1  0
 48 47  1  0
 49 47  1  0
 51 52  1  0
 51 50  1  0
 53 64  2  0
 54 52  1  0
 54 59  1  0
 55 63  1  0
 55 65  1  0
 56 62  1  0
 56 58  1  0
 57 63  1  0
 58 57  1  0
 59 58  2  0
 60 61  1  0
 60 54  2  0
 61 56  2  0
 62 55  1  0
 63 53  1  0
 65 67  2  0
 66 65  1  0
 68 66  1  0
 69 78  2  0
 69 74  1  0
 70 66  1  0
 70 74  1  0
 71 70  1  0
 72 73  1  0
 72 71  1  0
 73 69  1  0
 74 75  2  0
 75 76  1  0
 77 76  2  0
 78 77  1  0
 79 53  1  0
 79 80  1  0
 79 89  1  0
 80 83  1  0
 81 85  1  0
 81 80  1  0
 82 81  2  0
 85 84  1  0
 87 85  1  0
 87 88  1  0
 87 86  1  0
 89 92  1  1
 89 90  1  0
 91 89  1  0
M  ISO  4   9 100  17 100  51 101  52 101
M  END
>  <TORSDO>  (26) 
F 21

>  <SCORE>  (26) 
-13.521

>  <name>  (26) 
25

>  <ligand_id>  (26) 
25

>  <original_smiles>  (26) 
[H]c1c([H])c([H])c2c(c1[H])C([H])([H])C([H])([H])C([H])([H])C2([H])N([H])C(=O)C1([H])N(C(=O)C([H])(N([H])C(=O)C([H])(N([H])C([H])([H])[H])C([H])([H])[H])C(C([H])([H])[H])(C([H])([H])[H])C([H])([H])[H])C([H])([H])c2c([H])c(OC([H])([H])C([H])([H])[N+]([H])([H])C([H])([H])c3c([H])c([H])c([H])c(C([H])([H])N([H])C(=O)N4C([H])([H])C([H])([H])C([H])([H])C([H])(n5nc(-c6c([H])c([H])c(Oc7c([H])c([H])c(F)c([H])c7F)c([H])c6[H])c(C(=O)N([H])[H])c5N([H])[H])C4([H])[H])c3[H])c([H])c([H])c2C1([H])[H]

>  <smiles>  (26) 
[H]c1c([H])c([H])c2c(c1[H])C([H])([H])C([H])([H])C([H])([H])C2([H])N([H])C(=O)C1([H])N(C(=O)C([H])(N([H])C(=O)C([H])(N([H])C([H])([H])[H])C([H])([H])[H])C(C([H])([H])[H])(C([H])([H])[H])C([H])([H])[H])C([H])([H])c2c([H])c(OC([H])([H])C([H])([H])[N+]([H])([H])C([H])([H])c3c([H])c([H])c([H])c(C([H])([H])N([H])C(=O)N4C([H])([H])C([H])([H])C([H])([H])C([H])(n5nc(-c6c([H])c([H])c(Oc7c([H])c([H])c(F)c([H])c7F)c([H])c6[H])c(C(=O)N([H])[H])c5N([H])[H])C4([H])[H])c3[H])c([H])c([H])c2C1([H])[H]

$$$$
26:0:0
     RDKit          3D

 94102  0  0  1  0  0  0  0  0999 V2000
  -30.3130  -20.8060   20.6520 C   0  0  0  0  0  0  0  0  0  0  0  0
  -30.7530  -19.8630   21.7640 C   0  0  0  0  0  2  0  0  0  0  0  0
  -29.7510  -18.7070   21.9590 C   0  0  0  0  0  2  0  0  0  0  0  0
  -29.2020  -18.8010   19.4810 C   0  0  0  0  0  2  0  0  0  0  0  0
  -30.0870  -20.0730   19.3200 C   0  0  0  0  0  3  0  0  0  0  0  0
  -29.5240  -17.8710   20.6810 C   0  0  0  0  0  3  0  0  0  0  0  0
  -30.1740  -22.0590   20.8900 N   0  0  0  0  0  0  0  0  0  0  0  0
  -31.3920  -19.7910   18.6910 N   0  0  0  0  0  4  0  0  0  0  0  0
  -31.9390  -19.1440   19.2300 H   0  0  0  0  0  0  0  0  0  0  0  0
  -31.9160  -20.6450   18.6190 H   0  0  0  0  0  0  0  0  0  0  0  0
  -31.2740  -19.4320   17.7600 H   0  0  0  0  0  0  0  0  0  0  0  0
  -30.6760  -16.8700   20.4090 C   0  0  0  0  0  2  0  0  0  0  0  0
  -30.9390  -14.4420   20.0480 C   0  0  0  0  0  0  0  0  0  0  0  0
  -30.5420  -12.3040   18.9110 C   0  0  0  0  0  2  0  0  0  0  0  0
  -29.5250  -12.5380   17.7740 C   0  0  0  0  0  2  0  0  0  0  0  0
  -28.0830  -12.4070   18.3000 C   0  0  0  0  0  2  0  0  0  0  0  0
  -27.8360  -13.2340   19.5920 C   0  0  0  0  0  3  0  0  0  0  0  0
  -28.9600  -12.9950   20.6260 C   0  0  0  0  0  2  0  0  0  0  0  0
  -30.2490  -13.2770   19.9720 N   0  0  0  0  0  0  0  0  0  0  0  0
  -32.0360  -14.6210   19.5130 O   0  0  0  0  0  0  0  0  0  0  0  0
  -30.2650  -15.4740   20.5740 N   0  0  0  0  0  0  0  0  0  0  0  0
  -29.3650  -15.2810   20.9840 H   0  0  0  0  0  0  0  0  0  0  0  0
  -25.5050  -13.8440   20.4980 C   0  0  0  0  0  0  0  0  0  0  0  0
  -24.4520  -13.0690   20.9080 C   0  0  0  0  0  0  0  0  0  0  0  0
  -24.8860  -11.7140   20.7800 C   0  0  0  0  0  0  0  0  0  0  0  0
  -26.5160  -12.9590   20.1530 N   0  0  0  0  0  0  0  0  0  0  0  0
  -26.1490  -11.6710   20.3760 N   0  0  0  0  0  0  0  0  0  0  0  0
  -24.1540  -10.4540   20.9640 C   0  0  0  0  0  0  0  0  0  0  0  0
  -24.5720   -9.4870   21.9050 C   0  0  0  0  0  3  0  0  0  0  0  0
  -23.8410   -8.2910   22.0760 C   0  0  0  0  0  3  0  0  0  0  0  0
  -22.6770   -8.0540   21.3040 C   0  0  0  0  0  0  0  0  0  0  0  0
  -22.2790   -9.0090   20.3530 C   0  0  0  0  0  3  0  0  0  0  0  0
  -23.0110  -10.1970   20.1810 C   0  0  0  0  0  3  0  0  0  0  0  0
  -21.9210   -6.9090   21.3810 O   0  0  0  0  0  0  0  0  0  0  0  0
  -21.7640   -6.2290   22.5620 C   0  0  0  0  0  0  0  0  0  0  0  0
  -21.1500   -6.8220   23.6860 C   0  0  0  0  0  3  0  0  0  0  0  0
  -20.9450   -6.0650   24.8570 C   0  0  0  0  0  3  0  0  0  0  0  0
  -21.3440   -4.7160   24.9030 C   0  0  0  0  0  0  0  0  0  0  0  0
  -21.9530   -4.1230   23.7820 C   0  0  0  0  0  3  0  0  0  0  0  0
  -22.1580   -4.8770   22.6140 C   0  0  0  0  0  0  0  0  0  0  0  0
  -22.7250   -4.2940   21.5290 F   0  0  0  0  0  0  0  0  0  0  0  0
  -21.1410   -3.9860   26.0240 F   0  0  0  0  0  0  0  0  0  0  0  0
  -23.0870  -13.5530   21.3030 C   0  0  0  0  0  0  0  0  0  0  0  0
  -22.4150  -12.8250   22.1890 N   0  0  0  0  0  0  0  0  0  0  0  0
  -22.6290  -14.6060   20.8660 O   0  0  0  0  0  0  0  0  0  0  0  0
  -22.8000  -11.9700   22.5630 H   0  0  0  0  0  0  0  0  0  0  0  0
  -21.5020  -13.1270   22.4990 H   0  0  0  0  0  0  0  0  0  0  0  0
  -25.6830  -15.2170   20.3700 N   0  0  0  0  0  0  0  0  0  0  0  0
  -24.9330  -15.8780   20.5480 H   0  0  0  0  0  0  0  0  0  0  0  0
  -26.5060  -15.6490   19.9720 H   0  0  0  0  0  0  0  0  0  0  0  0
  -29.6270  -22.9840   19.9020 C   0  0  0  0  0  2  0  0  0  0  0  0
  -29.5850  -24.4320   20.4610 C   0  0  0  0  0  2  0  0  0  0  0  0
  -28.4640  -25.2880   19.8380 C   0  0  0  0  0  2  0  0  0  0  0  0
  -28.5200  -26.6730   20.2360 O   0  0  0  0  0  0  0  0  0  0  0  0
  -24.6800  -31.8840   23.2150 C   0  0  0  0  0  0  0  0  0  0  0  0
  -27.3460  -27.4080   20.1840 C   0  0  0  0  0  0  0  0  0  0  0  0
  -23.4850  -30.4630   21.5850 C   0  0  0  0  0  3  0  0  0  0  0  0
  -24.9460  -28.9230   20.1770 C   0  0  0  0  0  0  0  0  0  0  0  0
  -26.0110  -30.8260   21.3900 C   0  0  0  0  0  2  0  0  0  0  0  0
  -26.1030  -29.4480   20.7660 C   0  0  0  0  0  0  0  0  0  0  0  0
  -27.3010  -28.6960   20.7710 C   0  0  0  0  0  3  0  0  0  0  0  0
  -26.1690  -26.9140   19.5670 C   0  0  0  0  0  3  0  0  0  0  0  0
  -24.9760  -27.6560   19.5750 C   0  0  0  0  0  3  0  0  0  0  0  0
  -23.7000  -29.7770   20.2110 C   0  0  0  0  0  2  0  0  0  0  0  0
  -24.7450  -31.0730   22.1220 N   0  0  0  0  0  0  0  0  0  0  0  0
  -23.5960  -32.1610   23.7470 O   0  0  0  0  0  0  0  0  0  0  0  0
  -22.8360  -29.4450   22.5520 C   0  0  0  0  0  0  0  0  0  0  0  0
  -21.5200  -29.2270   22.3990 N   0  0  0  0  0  0  0  0  0  0  0  0
  -23.5140  -28.8550   23.3980 O   0  0  0  0  0  0  0  0  0  0  0  0
  -21.0320  -29.7580   21.6920 H   0  0  0  0  0  0  0  0  0  0  0  0
  -18.1670  -27.9510   22.8360 C   0  0  0  0  0  0  0  0  0  0  0  0
  -20.7080  -28.2870   23.1710 C   0  0  0  0  0  3  0  0  0  0  0  0
  -20.8640  -26.8440   22.6370 C   0  0  0  0  0  2  0  0  0  0  0  0
  -19.8000  -26.4640   21.6020 C   0  0  0  0  0  2  0  0  0  0  0  0
  -18.3980  -26.5890   22.2040 C   0  0  0  0  0  2  0  0  0  0  0  0
  -19.2520  -28.7540   23.2760 C   0  0  0  0  0  0  0  0  0  0  0  0
  -18.9830  -30.0260   23.8250 C   0  0  0  0  0  3  0  0  0  0  0  0
  -17.6620  -30.4980   23.9390 C   0  0  0  0  0  3  0  0  0  0  0  0
  -16.5910  -29.6910   23.5140 C   0  0  0  0  0  3  0  0  0  0  0  0
  -16.8440  -28.4200   22.9690 C   0  0  0  0  0  3  0  0  0  0  0  0
  -25.9620  -32.5280   23.8310 C   0  0  0  0  0  3  0  0  0  0  0  0
  -25.6380  -33.9180   24.1740 N   0  0  0  0  0  0  0  0  0  0  0  0
  -25.9390  -34.9780   23.4130 C   0  0  0  0  0  0  0  0  0  0  0  0
  -26.5920  -34.8890   22.3700 O   0  0  0  0  0  0  0  0  0  0  0  0
  -25.0540  -34.0610   24.9850 H   0  0  0  0  0  0  0  0  0  0  0  0
  -24.1830  -36.7490   23.0850 C   0  0  0  0  0  1  0  0  0  0  0  0
  -25.4360  -36.3560   23.8830 C   0  0  0  0  0  3  0  0  0  0  0  0
  -27.5560  -37.2750   24.7150 C   0  0  0  0  0  1  0  0  0  0  0  0
  -26.4520  -37.4250   23.7680 N   0  0  0  0  0  0  0  0  0  0  0  0
  -26.0320  -38.3390   23.9110 H   0  0  0  0  0  0  0  0  0  0  0  0
  -26.5010  -31.7490   25.0930 C   0  0  1  0  0  0  0  0  0  0  0  0
  -25.4180  -31.4700   26.1610 C   0  0  0  0  0  1  0  0  0  0  0  0
  -27.1160  -30.3920   24.6790 C   0  0  0  0  0  1  0  0  0  0  0  0
  -27.6350  -32.5610   25.7660 C   0  0  0  0  0  1  0  0  0  0  0  0
  1  7  2  0
  1  2  1  0
  2  3  1  0
  4  6  1  0
  5  8  1  0
  5  4  1  0
  5  1  1  0
  6 12  1  0
  6  3  1  0
  8  9  1  0
 10  8  1  0
 11  8  1  0
 12 21  1  0
 13 21  1  0
 14 19  1  0
 15 16  1  0
 15 14  1  0
 17 16  1  0
 17 26  1  0
 17 18  1  0
 19 13  1  0
 19 18  1  0
 20 13  2  0
 21 22  1  0
 23 24  2  0
 24 43  1  0
 25 24  1  0
 25 28  1  0
 26 27  1  0
 26 23  1  0
 27 25  2  0
 28 29  1  0
 29 30  2  0
 31 34  1  0
 31 30  1  0
 32 31  2  0
 33 32  1  0
 33 28  2  0
 34 35  1  0
 35 40  2  0
 35 36  1  0
 36 37  2  0
 37 38  1  0
 38 42  1  0
 39 38  2  0
 40 39  1  0
 41 40  1  0
 43 44  1  0
 44 47  1  0
 44 46  1  0
 45 43  2  0
 48 23  1  0
 48 49  1  0
 50 48  1  0
 51 52  1  0
 51  7  1  0
 53 54  1  0
 53 52  1  0
 55 66  2  0
 56 54  1  0
 56 61  1  0
 57 65  1  0
 57 67  1  0
 58 64  1  0
 58 60  1  0
 59 65  1  0
 60 61  2  0
 60 59  1  0
 62 63  1  0
 62 56  2  0
 63 58  2  0
 64 57  1  0
 65 55  1  0
 67 69  2  0
 68 67  1  0
 70 68  1  0
 71 80  2  0
 71 76  1  0
 72 68  1  0
 72 76  1  0
 73 72  1  0
 74 75  1  0
 74 73  1  0
 75 71  1  0
 76 77  2  0
 77 78  1  0
 79 78  2  0
 80 79  1  0
 81 55  1  0
 81 82  1  0
 81 91  1  0
 82 85  1  0
 83 87  1  0
 83 82  1  0
 84 83  2  0
 87 86  1  0
 89 87  1  0
 89 90  1  0
 89 88  1  0
 91 94  1  1
 91 92  1  0
 93 91  1  0
M  ISO  4  13 100  21 100  53 101  54 101
M  END
>  <TORSDO>  (27) 
F 21

>  <SCORE>  (27) 
-12.683

>  <name>  (27) 
26

>  <ligand_id>  (27) 
26

>  <original_smiles>  (27) 
[H]c1c([H])c([H])c2c(c1[H])C([H])([H])C([H])([H])C([H])([H])C2([H])N([H])C(=O)C1([H])N(C(=O)C([H])(N([H])C(=O)C([H])(N([H])C([H])([H])[H])C([H])([H])[H])C(C([H])([H])[H])(C([H])([H])[H])C([H])([H])[H])C([H])([H])c2c([H])c(OC([H])([H])C([H])([H])C([H])([H])N=C3C([H])([H])C([H])([H])C([H])(C([H])([H])N([H])C(=O)N4C([H])([H])C([H])([H])C([H])([H])C([H])(n5nc(-c6c([H])c([H])c(Oc7c([H])c([H])c(F)c([H])c7F)c([H])c6[H])c(C(=O)N([H])[H])c5N([H])[H])C4([H])[H])C([H])([H])C3([H])[N+]([H])([H])[H])c([H])c([H])c2C1([H])[H]

>  <smiles>  (27) 
[H]c1c([H])c([H])c2c(c1[H])C([H])([H])C([H])([H])C([H])([H])C2([H])N([H])C(=O)C1([H])N(C(=O)C([H])(N([H])C(=O)C([H])(N([H])C([H])([H])[H])C([H])([H])[H])C(C([H])([H])[H])(C([H])([H])[H])C([H])([H])[H])C([H])([H])c2c([H])c(OC([H])([H])C([H])([H])C([H])([H])N=C3C([H])([H])C([H])([H])C([H])(C([H])([H])N([H])C(=O)N4C([H])([H])C([H])([H])C([H])([H])C([H])(n5nc(-c6c([H])c([H])c(Oc7c([H])c([H])c(F)c([H])c7F)c([H])c6[H])c(C(=O)N([H])[H])c5N([H])[H])C4([H])[H])C([H])([H])C3([H])[N+]([H])([H])[H])c([H])c([H])c2C1([H])[H]

$$$$
27:0:0
     RDKit          3D

 96104  0  0  1  0  0  0  0  0999 V2000
  -31.6460  -18.7190   22.0270 C   0  0  0  0  0  2  0  0  0  0  0  0
  -31.9330  -18.1530   20.6220 C   0  0  0  0  0  2  0  0  0  0  0  0
  -29.1540  -19.0490   21.5080 C   0  0  0  0  0  2  0  0  0  0  0  0
  -30.2060  -18.4600   22.5130 C   0  0  0  0  0  3  0  0  0  0  0  0
  -29.6070  -19.1110   20.0170 C   0  0  0  0  0  3  0  0  0  0  0  0
  -30.6640  -17.8000   19.8070 C   0  0  0  0  0  3  0  0  0  0  0  0
  -30.9890  -15.0420   19.8480 C   0  0  0  0  0  0  0  0  0  0  0  0
  -30.7540  -12.6820   18.9660 C   0  0  0  0  0  2  0  0  0  0  0  0
  -29.7700  -12.6770   17.7750 C   0  0  0  0  0  2  0  0  0  0  0  0
  -28.3330  -12.4530   18.2840 C   0  0  0  0  0  2  0  0  0  0  0  0
  -27.9910  -13.3840   19.4810 C   0  0  0  0  0  3  0  0  0  0  0  0
  -29.1080  -13.4240   20.5510 C   0  0  0  0  0  2  0  0  0  0  0  0
  -30.3510  -13.8000   19.8670 N   0  0  0  0  0  0  0  0  0  0  0  0
  -32.1600  -15.0500   19.4580 O   0  0  0  0  0  0  0  0  0  0  0  0
  -30.2870  -16.2690   20.0620 N   0  0  0  0  0  0  0  0  0  0  0  0
  -29.3380  -16.1310   20.3780 H   0  0  0  0  0  0  0  0  0  0  0  0
  -25.6820  -13.9720   20.4110 C   0  0  0  0  0  0  0  0  0  0  0  0
  -24.6290  -13.1980   20.8240 C   0  0  0  0  0  0  0  0  0  0  0  0
  -25.0600  -11.8450   20.6980 C   0  0  0  0  0  0  0  0  0  0  0  0
  -26.6850  -13.0850   20.0590 N   0  0  0  0  0  0  0  0  0  0  0  0
  -26.3270  -11.7970   20.2960 N   0  0  0  0  0  0  0  0  0  0  0  0
  -24.3180  -10.5880   20.8860 C   0  0  0  0  0  0  0  0  0  0  0  0
  -24.7040   -9.6380   21.8570 C   0  0  0  0  0  3  0  0  0  0  0  0
  -23.9620   -8.4510   22.0320 C   0  0  0  0  0  3  0  0  0  0  0  0
  -22.8190   -8.2030   21.2340 C   0  0  0  0  0  0  0  0  0  0  0  0
  -22.4510   -9.1410   20.2540 C   0  0  0  0  0  3  0  0  0  0  0  0
  -23.1930  -10.3220   20.0780 C   0  0  0  0  0  3  0  0  0  0  0  0
  -22.0540   -7.0650   21.3140 O   0  0  0  0  0  0  0  0  0  0  0  0
  -21.8130   -6.4440   22.5110 C   0  0  0  0  0  0  0  0  0  0  0  0
  -21.1600   -7.1020   23.5760 C   0  0  0  0  0  3  0  0  0  0  0  0
  -20.8690   -6.4020   24.7640 C   0  0  0  0  0  3  0  0  0  0  0  0
  -21.2260   -5.0450   24.8900 C   0  0  0  0  0  0  0  0  0  0  0  0
  -21.8700   -4.3860   23.8280 C   0  0  0  0  0  3  0  0  0  0  0  0
  -22.1620   -5.0830   22.6430 C   0  0  0  0  0  0  0  0  0  0  0  0
  -22.7650   -4.4370   21.6160 F   0  0  0  0  0  0  0  0  0  0  0  0
  -20.9400   -4.3710   26.0290 F   0  0  0  0  0  0  0  0  0  0  0  0
  -23.2660  -13.6910   21.2120 C   0  0  0  0  0  0  0  0  0  0  0  0
  -22.5930  -12.9800   22.1110 N   0  0  0  0  0  0  0  0  0  0  0  0
  -22.8140  -14.7400   20.7580 O   0  0  0  0  0  0  0  0  0  0  0  0
  -22.9770  -12.1330   22.5030 H   0  0  0  0  0  0  0  0  0  0  0  0
  -21.6780  -13.2860   22.4060 H   0  0  0  0  0  0  0  0  0  0  0  0
  -25.8510  -15.3440   20.2830 N   0  0  0  0  0  0  0  0  0  0  0  0
  -25.0750  -15.9810   20.4330 H   0  0  0  0  0  0  0  0  0  0  0  0
  -26.6680  -15.8060   19.9090 H   0  0  0  0  0  0  0  0  0  0  0  0
  -30.0040  -18.9320   23.9800 C   0  0  0  0  0  2  0  0  0  0  0  0
  -31.0770  -18.4860   24.8980 N   0  0  0  0  0  4  0  0  0  0  0  0
  -31.1420  -17.4850   24.9530 H   0  0  0  0  0  0  0  0  0  0  0  0
  -30.9220  -18.8360   25.8290 H   0  0  0  0  0  0  0  0  0  0  0  0
  -31.9610  -18.8480   24.5870 H   0  0  0  0  0  0  0  0  0  0  0  0
  -29.9650  -20.7170   19.5460 C   0  0  0  0  0  2  0  0  0  0  0  0
  -28.9560  -21.9480   19.5670 N   0  0  0  0  0  4  0  0  0  0  0  0
  -28.4410  -21.8980   20.4340 H   0  0  0  0  0  0  0  0  0  0  0  0
  -28.2800  -21.7680   18.8400 H   0  0  0  0  0  0  0  0  0  0  0  0
  -29.4100  -23.4720   19.4090 C   0  0  0  0  0  3  0  0  0  0  0  0
  -28.3230  -24.7480   19.3030 C   0  0  0  0  0  3  0  0  0  0  0  0
  -28.5680  -26.2640   19.5400 O   0  0  0  0  0  0  0  0  0  0  0  0
  -24.7130  -31.4980   23.0300 C   0  0  0  0  0  0  0  0  0  0  0  0
  -27.4690  -27.1950   19.5840 C   0  0  0  0  0  0  0  0  0  0  0  0
  -23.5730  -30.2300   21.2550 C   0  0  0  0  0  3  0  0  0  0  0  0
  -25.0820  -28.8520   19.7050 C   0  0  0  0  0  0  0  0  0  0  0  0
  -26.1180  -30.5950   21.1490 C   0  0  0  0  0  2  0  0  0  0  0  0
  -26.2430  -29.2760   20.3630 C   0  0  0  0  0  0  0  0  0  0  0  0
  -27.4380  -28.4670   20.2850 C   0  0  0  0  0  3  0  0  0  0  0  0
  -26.2700  -26.8700   18.9090 C   0  0  0  0  0  3  0  0  0  0  0  0
  -25.1080  -27.6650   18.9670 C   0  0  0  0  0  3  0  0  0  0  0  0
  -23.8200  -29.6910   19.8250 C   0  0  0  0  0  2  0  0  0  0  0  0
  -24.8200  -30.7860   21.8690 N   0  0  0  0  0  0  0  0  0  0  0  0
  -23.6110  -31.7030   23.5660 O   0  0  0  0  0  0  0  0  0  0  0  0
  -22.9180  -29.1120   22.1040 C   0  0  0  0  0  0  0  0  0  0  0  0
  -21.5880  -28.9470   21.9740 N   0  0  0  0  0  0  0  0  0  0  0  0
  -23.6060  -28.3990   22.8390 O   0  0  0  0  0  0  0  0  0  0  0  0
  -21.0900  -29.5720   21.3560 H   0  0  0  0  0  0  0  0  0  0  0  0
  -18.2080  -27.7500   22.4810 C   0  0  0  0  0  0  0  0  0  0  0  0
  -20.7830  -27.9280   22.6500 C   0  0  0  0  0  3  0  0  0  0  0  0
  -20.8210  -26.5860   21.8810 C   0  0  0  0  0  2  0  0  0  0  0  0
  -19.6640  -26.4250   20.8890 C   0  0  0  0  0  2  0  0  0  0  0  0
  -18.3190  -26.5040   21.6160 C   0  0  0  0  0  2  0  0  0  0  0  0
  -19.3650  -28.4250   22.9530 C   0  0  0  0  0  0  0  0  0  0  0  0
  -19.2080  -29.5970   23.7230 C   0  0  0  0  0  3  0  0  0  0  0  0
  -17.9230  -30.0950   24.0210 C   0  0  0  0  0  3  0  0  0  0  0  0
  -16.7830  -29.4130   23.5640 C   0  0  0  0  0  3  0  0  0  0  0  0
  -16.9270  -28.2400   22.8030 C   0  0  0  0  0  3  0  0  0  0  0  0
  -25.9640  -32.1080   23.7300 C   0  0  0  0  0  3  0  0  0  0  0  0
  -25.6340  -33.4920   24.1060 N   0  0  0  0  0  0  0  0  0  0  0  0
  -25.9520  -34.5720   23.3820 C   0  0  0  0  0  0  0  0  0  0  0  0
  -26.6150  -34.5090   22.3440 O   0  0  0  0  0  0  0  0  0  0  0  0
  -25.0240  -33.6110   24.9030 H   0  0  0  0  0  0  0  0  0  0  0  0
  -24.1820  -36.3410   23.1220 C   0  0  0  0  0  1  0  0  0  0  0  0
  -25.4540  -35.9410   23.8860 C   0  0  0  0  0  3  0  0  0  0  0  0
  -27.5890  -36.8460   24.6960 C   0  0  0  0  0  1  0  0  0  0  0  0
  -26.4680  -37.0130   23.7720 N   0  0  0  0  0  0  0  0  0  0  0  0
  -26.0510  -37.9250   23.9450 H   0  0  0  0  0  0  0  0  0  0  0  0
  -26.4260  -31.2860   24.9970 C   0  0  1  0  0  0  0  0  0  0  0  0
  -25.2810  -31.0070   26.0050 C   0  0  0  0  0  1  0  0  0  0  0  0
  -27.0230  -29.9240   24.5790 C   0  0  0  0  0  1  0  0  0  0  0  0
  -27.5600  -32.0450   25.7260 C   0  0  0  0  0  1  0  0  0  0  0  0
  1  4  1  0
  2  1  1  0
  3  4  1  0
  4 45  1  0
  5 50  1  0
  5  3  1  0
  6  5  1  0
  6 15  1  0
  6  2  1  0
  7 13  1  0
  7 15  1  0
  8 13  1  0
  9 10  1  0
  9  8  1  0
 11 10  1  0
 11 20  1  0
 11 12  1  0
 13 12  1  0
 14  7  2  0
 15 16  1  0
 17 18  2  0
 18 37  1  0
 19 18  1  0
 19 22  1  0
 20 21  1  0
 20 17  1  0
 21 19  2  0
 22 23  1  0
 23 24  2  0
 25 28  1  0
 25 24  1  0
 26 25  2  0
 27 26  1  0
 27 22  2  0
 28 29  1  0
 29 34  2  0
 29 30  1  0
 30 31  2  0
 31 32  1  0
 32 36  1  0
 33 32  2  0
 34 33  1  0
 35 34  1  0
 37 38  1  0
 38 41  1  0
 38 40  1  0
 39 37  2  0
 42 17  1  0
 42 43  1  0
 44 42  1  0
 45 46  1  0
 46 47  1  0
 46 48  1  0
 49 46  1  0
 50 51  1  0
 51 52  1  0
 53 51  1  0
 54 51  1  0
 55 54  2  0
 55 56  1  0
 56 58  1  0
 57 68  2  0
 58 63  1  0
 59 67  1  0
 59 69  1  0
 60 66  1  0
 60 62  1  0
 61 67  1  0
 62 61  1  0
 63 62  2  0
 64 65  1  0
 64 58  2  0
 65 60  2  0
 66 59  1  0
 67 57  1  0
 69 71  2  0
 70 69  1  0
 72 70  1  0
 73 82  2  0
 73 78  1  0
 74 70  1  0
 74 78  1  0
 75 74  1  0
 76 77  1  0
 76 75  1  0
 77 73  1  0
 78 79  2  0
 79 80  1  0
 81 80  2  0
 82 81  1  0
 83 57  1  0
 83 84  1  0
 83 93  1  0
 84 87  1  0
 85 89  1  0
 85 84  1  0
 86 85  2  0
 89 88  1  0
 91 89  1  0
 91 92  1  0
 91 90  1  0
 93 96  1  1
 93 94  1  0
 95 93  1  0
M  ISO  4   7 100  15 100  55 101  56 101
M  END
>  <TORSDO>  (28) 
F 22

>  <SCORE>  (28) 
-8.802

>  <name>  (28) 
27

>  <ligand_id>  (28) 
27

>  <original_smiles>  (28) 
[H]c1c([H])c([H])c2c(c1[H])C([H])([H])C([H])([H])C([H])([H])C2([H])N([H])C(=O)C1([H])N(C(=O)C([H])(N([H])C(=O)C([H])(N([H])C([H])([H])[H])C([H])([H])[H])C(C([H])([H])[H])(C([H])([H])[H])C([H])([H])[H])C([H])([H])c2c([H])c(OC([H])([H])C([H])([H])[N+]([H])([H])C([H])([H])C3([H])C([H])([H])C([H])(C([H])([H])[N+]([H])([H])[H])C([H])([H])C([H])([H])C3([H])N([H])C(=O)N3C([H])([H])C([H])([H])C([H])([H])C([H])(n4nc(-c5c([H])c([H])c(Oc6c([H])c([H])c(F)c([H])c6F)c([H])c5[H])c(C(=O)N([H])[H])c4N([H])[H])C3([H])[H])c([H])c([H])c2C1([H])[H]

>  <smiles>  (28) 
[H]c1c([H])c([H])c2c(c1[H])C([H])([H])C([H])([H])C([H])([H])C2([H])N([H])C(=O)C1([H])N(C(=O)C([H])(N([H])C(=O)C([H])(N([H])C([H])([H])[H])C([H])([H])[H])C(C([H])([H])[H])(C([H])([H])[H])C([H])([H])[H])C([H])([H])c2c([H])c(OC([H])([H])C([H])([H])[N+]([H])([H])C([H])([H])C3([H])C([H])([H])C([H])(C([H])([H])[N+]([H])([H])[H])C([H])([H])C([H])([H])C3([H])N([H])C(=O)N3C([H])([H])C([H])([H])C([H])([H])C([H])(n4nc(-c5c([H])c([H])c(Oc6c([H])c([H])c(F)c([H])c6F)c([H])c5[H])c(C(=O)N([H])[H])c4N([H])[H])C3([H])[H])c([H])c([H])c2C1([H])[H]

$$$$
28:0:0
     RDKit          3D

 88 96  0  0  1  0  0  0  0  0999 V2000
  -28.9470  -21.0570   20.2180 N   0  0  0  0  0  4  0  0  0  0  0  0
  -29.0620  -20.9590   21.2150 H   0  0  0  0  0  0  0  0  0  0  0  0
  -27.9620  -20.9080   20.0520 H   0  0  0  0  0  0  0  0  0  0  0  0
  -29.6770  -19.6960   19.5690 C   0  0  0  0  0  2  0  0  0  0  0  0
  -30.6750  -15.2430   19.5380 C   0  0  0  0  0  0  0  0  0  0  0  0
  -30.4870  -12.8620   18.5210 C   0  0  0  0  0  2  0  0  0  0  0  0
  -29.4170  -12.7090   17.4140 C   0  0  0  0  0  2  0  0  0  0  0  0
  -28.0330  -12.4270   18.0280 C   0  0  0  0  0  2  0  0  0  0  0  0
  -27.7410  -13.3250   19.2590 C   0  0  0  0  0  3  0  0  0  0  0  0
  -28.9330  -13.4330   20.2300 C   0  0  0  0  0  2  0  0  0  0  0  0
  -30.0460  -13.9730   19.4350 N   0  0  0  0  0  0  0  0  0  0  0  0
  -31.8930  -15.1780   19.3150 O   0  0  0  0  0  0  0  0  0  0  0  0
  -28.6680  -17.0020   19.5060 C   0  0  0  0  0  2  0  0  0  0  0  0
  -29.6740  -17.9970   20.1190 C   0  0  1  0  0  0  0  0  0  0  0  0
  -30.0150  -16.5740   19.4040 N   0  0  0  0  0  0  0  0  0  0  0  0
  -25.5120  -13.8350   20.3890 C   0  0  0  0  0  0  0  0  0  0  0  0
  -24.4970  -13.0380   20.8340 C   0  0  0  0  0  0  0  0  0  0  0  0
  -24.9300  -11.6930   20.6320 C   0  0  0  0  0  0  0  0  0  0  0  0
  -26.4960  -12.9760   19.9300 N   0  0  0  0  0  0  0  0  0  0  0  0
  -26.1690  -11.6760   20.1460 N   0  0  0  0  0  0  0  0  0  0  0  0
  -24.2090  -10.4260   20.8150 C   0  0  0  0  0  0  0  0  0  0  0  0
  -24.6850   -9.4230   21.6880 C   0  0  0  0  0  3  0  0  0  0  0  0
  -23.9580   -8.2260   21.8630 C   0  0  0  0  0  3  0  0  0  0  0  0
  -22.7460   -8.0210   21.1630 C   0  0  0  0  0  0  0  0  0  0  0  0
  -22.2890   -9.0140   20.2770 C   0  0  0  0  0  3  0  0  0  0  0  0
  -23.0160  -10.2030   20.1000 C   0  0  0  0  0  3  0  0  0  0  0  0
  -21.9860   -6.8800   21.2510 O   0  0  0  0  0  0  0  0  0  0  0  0
  -21.9200   -6.1500   22.4100 C   0  0  0  0  0  0  0  0  0  0  0  0
  -21.4770   -6.7130   23.6240 C   0  0  0  0  0  3  0  0  0  0  0  0
  -21.3570   -5.9090   24.7740 C   0  0  0  0  0  3  0  0  0  0  0  0
  -21.6700   -4.5380   24.7110 C   0  0  0  0  0  0  0  0  0  0  0  0
  -22.1070   -3.9710   23.5000 C   0  0  0  0  0  3  0  0  0  0  0  0
  -22.2280   -4.7740   22.3520 C   0  0  0  0  0  0  0  0  0  0  0  0
  -22.6290   -4.2190   21.1840 F   0  0  0  0  0  0  0  0  0  0  0  0
  -21.5490   -3.7610   25.8130 F   0  0  0  0  0  0  0  0  0  0  0  0
  -23.1550  -13.5050   21.3240 C   0  0  0  0  0  0  0  0  0  0  0  0
  -22.5440  -12.7640   22.2380 N   0  0  0  0  0  0  0  0  0  0  0  0
  -22.6670  -14.5630   20.9290 O   0  0  0  0  0  0  0  0  0  0  0  0
  -22.9580  -11.9080   22.5780 H   0  0  0  0  0  0  0  0  0  0  0  0
  -21.6520  -13.0570   22.6100 H   0  0  0  0  0  0  0  0  0  0  0  0
  -25.6580  -15.2150   20.2930 N   0  0  0  0  0  0  0  0  0  0  0  0
  -24.8990  -15.8410   20.5450 H   0  0  0  0  0  0  0  0  0  0  0  0
  -26.4170  -15.6770   19.8140 H   0  0  0  0  0  0  0  0  0  0  0  0
  -28.6760  -17.8950   22.4490 C   0  0  0  0  0  1  0  0  0  0  0  0
  -29.9650  -17.9230   21.6110 C   0  0  0  0  0  2  0  0  0  0  0  0
  -29.2060  -22.6860   19.9170 C   0  0  0  0  0  3  0  0  0  0  0  0
  -28.2070  -24.1470   20.2960 C   0  0  0  0  0  3  0  0  0  0  0  0
  -28.4390  -25.7910   20.2710 O   0  0  0  0  0  0  0  0  0  0  0  0
  -24.7270  -31.7590   23.0970 C   0  0  0  0  0  0  0  0  0  0  0  0
  -27.4150  -26.8770   20.2050 C   0  0  0  0  0  0  0  0  0  0  0  0
  -23.6010  -30.3470   21.4250 C   0  0  0  0  0  3  0  0  0  0  0  0
  -25.1070  -28.7450   20.0660 C   0  0  0  0  0  0  0  0  0  0  0  0
  -26.1690  -30.5760   21.3680 C   0  0  0  0  0  2  0  0  0  0  0  0
  -26.2720  -29.1610   20.7250 C   0  0  0  0  0  0  0  0  0  0  0  0
  -27.4220  -28.2510   20.7650 C   0  0  0  0  0  3  0  0  0  0  0  0
  -26.2190  -26.6140   19.5000 C   0  0  0  0  0  3  0  0  0  0  0  0
  -25.1070  -27.4910   19.4360 C   0  0  0  0  0  3  0  0  0  0  0  0
  -23.8840  -29.6610   20.0620 C   0  0  0  0  0  2  0  0  0  0  0  0
  -24.8520  -30.9210   22.0170 N   0  0  0  0  0  0  0  0  0  0  0  0
  -23.6180  -32.0430   23.5780 O   0  0  0  0  0  0  0  0  0  0  0  0
  -22.8820  -29.3490   22.3710 C   0  0  0  0  0  0  0  0  0  0  0  0
  -21.5530  -29.1940   22.2200 N   0  0  0  0  0  0  0  0  0  0  0  0
  -23.5260  -28.7140   23.2100 O   0  0  0  0  0  0  0  0  0  0  0  0
  -21.0860  -29.7560   21.5230 H   0  0  0  0  0  0  0  0  0  0  0  0
  -18.1500  -28.0230   22.6740 C   0  0  0  0  0  0  0  0  0  0  0  0
  -20.7100  -28.2600   22.9720 C   0  0  0  0  0  3  0  0  0  0  0  0
  -20.8010  -26.8320   22.3850 C   0  0  0  0  0  2  0  0  0  0  0  0
  -19.7100  -26.5310   21.3530 C   0  0  0  0  0  2  0  0  0  0  0  0
  -18.3220  -26.6810   21.9800 C   0  0  0  0  0  2  0  0  0  0  0  0
  -19.2700  -28.7690   23.1240 C   0  0  0  0  0  0  0  0  0  0  0  0
  -19.0540  -30.0240   23.7350 C   0  0  0  0  0  3  0  0  0  0  0  0
  -17.7500  -30.5320   23.8960 C   0  0  0  0  0  3  0  0  0  0  0  0
  -16.6450  -29.7820   23.4590 C   0  0  0  0  0  3  0  0  0  0  0  0
  -16.8450  -28.5290   22.8530 C   0  0  0  0  0  3  0  0  0  0  0  0
  -25.9700  -32.4150   23.7700 C   0  0  0  0  0  3  0  0  0  0  0  0
  -26.4410  -31.6540   25.0720 C   0  0  1  0  0  0  0  0  0  0  0  0
  -25.3060  -31.4090   26.0950 C   0  0  0  0  0  1  0  0  0  0  0  0
  -27.0560  -30.2810   24.7180 C   0  0  0  0  0  1  0  0  0  0  0  0
  -27.5540  -32.4640   25.7770 C   0  0  0  0  0  1  0  0  0  0  0  0
  -25.6250  -33.8100   24.0990 N   0  0  0  0  0  0  0  0  0  0  0  0
  -25.9680  -34.8790   23.3670 C   0  0  0  0  0  0  0  0  0  0  0  0
  -26.6690  -34.7950   22.3560 O   0  0  0  0  0  0  0  0  0  0  0  0
  -25.0000  -33.9450   24.8810 H   0  0  0  0  0  0  0  0  0  0  0  0
  -24.2260  -36.6590   22.9950 C   0  0  0  0  0  1  0  0  0  0  0  0
  -25.4540  -36.2580   23.8280 C   0  0  0  0  0  3  0  0  0  0  0  0
  -27.5570  -37.1680   24.7140 C   0  0  0  0  0  1  0  0  0  0  0  0
  -26.4740  -37.3260   23.7470 N   0  0  0  0  0  0  0  0  0  0  0  0
  -26.0540  -38.2410   23.8880 H   0  0  0  0  0  0  0  0  0  0  0  0
  1  2  1  0
  3  1  1  0
  4  1  1  0
  6 11  1  0
  7  8  1  0
  7  6  1  0
  9  8  1  0
  9 19  1  0
  9 10  1  0
 11  5  1  0
 11 10  1  0
 12  5  2  0
 13 14  1  0
 14  4  1  6
 14 45  1  0
 15 13  1  0
 15  5  1  0
 15 14  1  0
 16 17  2  0
 17 36  1  0
 18 21  1  0
 18 17  1  0
 19 20  1  0
 19 16  1  0
 20 18  2  0
 21 22  1  0
 22 23  2  0
 24 27  1  0
 24 23  1  0
 25 24  2  0
 26 25  1  0
 26 21  2  0
 27 28  1  0
 28 29  1  0
 29 30  2  0
 31 30  1  0
 31 35  1  0
 32 31  2  0
 33 28  2  0
 33 32  1  0
 34 33  1  0
 36 37  1  0
 37 39  1  0
 37 40  1  0
 38 36  2  0
 41 16  1  0
 41 42  1  0
 43 41  1  0
 45 44  1  0
 46  1  1  0
 46 47  2  0
 48 47  1  0
 49 60  2  0
 50 48  1  0
 50 55  1  0
 51 59  1  0
 51 61  1  0
 52 54  1  0
 53 59  1  0
 54 55  2  0
 54 53  1  0
 56 50  2  0
 57 56  1  0
 57 52  2  0
 58 52  1  0
 58 51  1  0
 59 49  1  0
 61 63  2  0
 62 61  1  0
 64 62  1  0
 65 74  2  0
 65 70  1  0
 66 62  1  0
 66 70  1  0
 67 66  1  0
 68 69  1  0
 68 67  1  0
 69 65  1  0
 70 71  2  0
 71 72  1  0
 73 72  2  0
 74 73  1  0
 75 49  1  0
 75 80  1  0
 75 76  1  0
 76 79  1  1
 76 77  1  0
 78 76  1  0
 80 83  1  0
 81 85  1  0
 81 80  1  0
 82 81  2  0
 85 84  1  0
 87 85  1  0
 87 88  1  0
 87 86  1  0
M  ISO  4   5 100  15 100  47 101  48 101
M  END
>  <TORSDO>  (29) 
F 20

>  <SCORE>  (29) 
-10.504

>  <name>  (29) 
28

>  <ligand_id>  (29) 
28

>  <original_smiles>  (29) 
[H]c1c([H])c([H])c2c(c1[H])C([H])([H])C([H])([H])C([H])([H])C2([H])N([H])C(=O)C1([H])N(C(=O)C([H])(N([H])C(=O)C([H])(N([H])C([H])([H])[H])C([H])([H])[H])C(C([H])([H])[H])(C([H])([H])[H])C([H])([H])[H])C([H])([H])c2c([H])c(OC([H])([H])C([H])([H])[N+]([H])([H])C([H])([H])C3(C([H])([H])C([H])([H])[H])N(C(=O)N4C([H])([H])C([H])([H])C([H])([H])C([H])(n5nc(-c6c([H])c([H])c(Oc7c([H])c([H])c(F)c([H])c7F)c([H])c6[H])c(C(=O)N([H])[H])c5N([H])[H])C4([H])[H])C3([H])[H])c([H])c([H])c2C1([H])[H]

>  <smiles>  (29) 
[H]c1c([H])c([H])c2c(c1[H])C([H])([H])C([H])([H])C([H])([H])C2([H])N([H])C(=O)C1([H])N(C(=O)C([H])(N([H])C(=O)C([H])(N([H])C([H])([H])[H])C([H])([H])[H])C(C([H])([H])[H])(C([H])([H])[H])C([H])([H])[H])C([H])([H])c2c([H])c(OC([H])([H])C([H])([H])[N+]([H])([H])C([H])([H])C3(C([H])([H])C([H])([H])[H])N(C(=O)N4C([H])([H])C([H])([H])C([H])([H])C([H])(n5nc(-c6c([H])c([H])c(Oc7c([H])c([H])c(F)c([H])c7F)c([H])c6[H])c(C(=O)N([H])[H])c5N([H])[H])C4([H])[H])C3([H])[H])c([H])c([H])c2C1([H])[H]

$$$$
29:0:0
     RDKit          3D

 93102  0  0  1  0  0  0  0  0999 V2000
  -30.9230  -17.9490   19.4160 C   0  0  0  0  0  0  0  0  0  0  0  0
  -28.7480  -19.1890   19.0670 C   0  0  0  0  0  2  0  0  0  0  0  0
  -29.0250  -17.9640   21.2350 C   0  0  0  0  0  2  0  0  0  0  0  0
  -30.8510  -20.6120   19.3380 C   0  0  0  0  0  2  0  0  0  0  0  0
  -29.1720  -20.6200   21.1650 C   0  0  0  0  0  2  0  0  0  0  0  0
  -30.2530  -19.2380   18.8420 C   0  0  0  0  0  3  0  0  0  0  0  0
  -30.3120  -17.2330   20.6820 C   0  0  0  0  0  3  0  0  0  0  0  0
  -28.5500  -19.3030   20.5730 C   0  0  0  0  0  3  0  0  0  0  0  0
  -29.9420  -21.4620   20.1900 N   0  0  2  0  0  4  0  0  0  0  0  0
  -31.9470  -17.5470   18.8630 O   0  0  0  0  0  0  0  0  0  0  0  0
  -30.5720  -21.9890   20.7770 H   0  0  0  0  0  0  0  0  0  0  0  0
  -30.7760  -14.7020   20.0910 C   0  0  0  0  0  0  0  0  0  0  0  0
  -30.4750  -12.4850   19.0100 C   0  0  0  0  0  2  0  0  0  0  0  0
  -29.4840  -12.6330   17.8370 C   0  0  0  0  0  2  0  0  0  0  0  0
  -28.0290  -12.4830   18.3230 C   0  0  0  0  0  2  0  0  0  0  0  0
  -27.7260  -13.3430   19.5790 C   0  0  0  0  0  3  0  0  0  0  0  0
  -28.8300  -13.1820   20.6510 C   0  0  0  0  0  2  0  0  0  0  0  0
  -30.1200  -13.5020   20.0170 N   0  0  0  0  0  0  0  0  0  0  0  0
  -31.9160  -14.8400   19.6440 O   0  0  0  0  0  0  0  0  0  0  0  0
  -30.0430  -15.7520   20.5560 N   0  0  0  0  0  0  0  0  0  0  0  0
  -29.1240  -15.4730   20.8640 H   0  0  0  0  0  0  0  0  0  0  0  0
  -25.3830  -13.9650   20.4310 C   0  0  0  0  0  0  0  0  0  0  0  0
  -24.3170  -13.1980   20.8190 C   0  0  0  0  0  0  0  0  0  0  0  0
  -24.7430  -11.8400   20.7050 C   0  0  0  0  0  0  0  0  0  0  0  0
  -26.3940  -13.0710   20.1130 N   0  0  0  0  0  0  0  0  0  0  0  0
  -26.0170  -11.7860   20.3370 N   0  0  0  0  0  0  0  0  0  0  0  0
  -23.9940  -10.5870   20.8720 C   0  0  0  0  0  0  0  0  0  0  0  0
  -24.4390   -9.5750   21.7500 C   0  0  0  0  0  3  0  0  0  0  0  0
  -23.6930   -8.3870   21.9100 C   0  0  0  0  0  3  0  0  0  0  0  0
  -22.4870   -8.2040   21.1920 C   0  0  0  0  0  0  0  0  0  0  0  0
  -22.0600   -9.2060   20.3030 C   0  0  0  0  0  3  0  0  0  0  0  0
  -22.8060  -10.3850   20.1410 C   0  0  0  0  0  3  0  0  0  0  0  0
  -21.7130   -7.0700   21.2620 O   0  0  0  0  0  0  0  0  0  0  0  0
  -21.6890   -6.2820   22.3840 C   0  0  0  0  0  0  0  0  0  0  0  0
  -21.2850   -6.7840   23.6400 C   0  0  0  0  0  3  0  0  0  0  0  0
  -21.2100   -5.9230   24.7530 C   0  0  0  0  0  3  0  0  0  0  0  0
  -21.5270   -4.5580   24.6100 C   0  0  0  0  0  0  0  0  0  0  0  0
  -21.9220   -4.0540   23.3580 C   0  0  0  0  0  3  0  0  0  0  0  0
  -22.0000   -4.9140   22.2490 C   0  0  0  0  0  0  0  0  0  0  0  0
  -22.3600   -4.4180   21.0390 F   0  0  0  0  0  0  0  0  0  0  0  0
  -21.4480   -3.7290   25.6760 F   0  0  0  0  0  0  0  0  0  0  0  0
  -22.9440  -13.6930   21.1790 C   0  0  0  0  0  0  0  0  0  0  0  0
  -22.2440  -12.9760   22.0500 N   0  0  0  0  0  0  0  0  0  0  0  0
  -22.5030  -14.7480   20.7220 O   0  0  0  0  0  0  0  0  0  0  0  0
  -22.6120  -12.1200   22.4380 H   0  0  0  0  0  0  0  0  0  0  0  0
  -21.3240  -13.2850   22.3320 H   0  0  0  0  0  0  0  0  0  0  0  0
  -25.5730  -15.3380   20.2980 N   0  0  0  0  0  0  0  0  0  0  0  0
  -24.8270  -16.0060   20.4610 H   0  0  0  0  0  0  0  0  0  0  0  0
  -26.4040  -15.7650   19.9110 H   0  0  0  0  0  0  0  0  0  0  0  0
  -29.1640  -22.5590   19.4820 C   0  0  0  0  0  2  0  0  0  0  0  0
  -29.3490  -24.0420   20.0330 C   0  0  0  0  0  3  0  0  0  0  0  0
  -28.3380  -25.1150   19.4570 C   0  0  0  0  0  3  0  0  0  0  0  0
  -28.4870  -26.5490   19.7900 O   0  0  0  0  0  0  0  0  0  0  0  0
  -24.5060  -31.6030   23.0260 C   0  0  0  0  0  0  0  0  0  0  0  0
  -27.3350  -27.3500   19.7490 C   0  0  0  0  0  0  0  0  0  0  0  0
  -23.3740  -30.2430   21.3050 C   0  0  0  0  0  3  0  0  0  0  0  0
  -24.8990  -28.8460   19.8040 C   0  0  0  0  0  0  0  0  0  0  0  0
  -25.8980  -30.6830   21.1660 C   0  0  0  0  0  2  0  0  0  0  0  0
  -26.0390  -29.3550   20.4350 C   0  0  0  0  0  0  0  0  0  0  0  0
  -27.2610  -28.6190   20.4000 C   0  0  0  0  0  3  0  0  0  0  0  0
  -26.1690  -26.9050   19.0810 C   0  0  0  0  0  3  0  0  0  0  0  0
  -24.9640  -27.6250   19.1190 C   0  0  0  0  0  3  0  0  0  0  0  0
  -23.6230  -29.6620   19.8900 C   0  0  0  0  0  2  0  0  0  0  0  0
  -24.6090  -30.8560   21.8890 N   0  0  0  0  0  0  0  0  0  0  0  0
  -23.4090  -31.8080   23.5660 O   0  0  0  0  0  0  0  0  0  0  0  0
  -22.7550  -29.1440   22.2010 C   0  0  0  0  0  0  0  0  0  0  0  0
  -21.4330  -28.9360   22.0760 N   0  0  0  0  0  0  0  0  0  0  0  0
  -23.4620  -28.4860   22.9690 O   0  0  0  0  0  0  0  0  0  0  0  0
  -20.9170  -29.5280   21.4380 H   0  0  0  0  0  0  0  0  0  0  0  0
  -18.0940  -27.6380   22.5680 C   0  0  0  0  0  0  0  0  0  0  0  0
  -20.6520  -27.9280   22.7960 C   0  0  0  0  0  3  0  0  0  0  0  0
  -20.7640  -26.5430   22.1190 C   0  0  0  0  0  2  0  0  0  0  0  0
  -19.6460  -26.2710   21.1080 C   0  0  0  0  0  2  0  0  0  0  0  0
  -18.2780  -26.3420   21.7930 C   0  0  0  0  0  2  0  0  0  0  0  0
  -19.2090  -28.3880   23.0250 C   0  0  0  0  0  0  0  0  0  0  0  0
  -18.9870  -29.6010   23.7120 C   0  0  0  0  0  3  0  0  0  0  0  0
  -17.6790  -30.0640   23.9480 C   0  0  0  0  0  3  0  0  0  0  0  0
  -16.5770  -29.3110   23.5050 C   0  0  0  0  0  3  0  0  0  0  0  0
  -16.7850  -28.1010   22.8200 C   0  0  0  0  0  3  0  0  0  0  0  0
  -25.7590  -32.2570   23.6870 C   0  0  0  0  0  3  0  0  0  0  0  0
  -26.2760  -31.4680   24.9520 C   0  0  1  0  0  0  0  0  0  0  0  0
  -25.1740  -31.1730   25.9960 C   0  0  0  0  0  1  0  0  0  0  0  0
  -26.9090  -30.1170   24.5430 C   0  0  0  0  0  1  0  0  0  0  0  0
  -27.3900  -32.2810   25.6540 C   0  0  0  0  0  1  0  0  0  0  0  0
  -25.3990  -33.6350   24.0490 N   0  0  0  0  0  0  0  0  0  0  0  0
  -25.7120  -34.7190   23.3270 C   0  0  0  0  0  0  0  0  0  0  0  0
  -26.4050  -34.6670   22.3080 O   0  0  0  0  0  0  0  0  0  0  0  0
  -24.7810  -33.7480   24.8410 H   0  0  0  0  0  0  0  0  0  0  0  0
  -23.9340  -36.4650   22.9860 C   0  0  0  0  0  1  0  0  0  0  0  0
  -25.1700  -36.0780   23.8130 C   0  0  0  0  0  3  0  0  0  0  0  0
  -27.2490  -37.0080   24.7260 C   0  0  0  0  0  1  0  0  0  0  0  0
  -26.1710  -37.1650   23.7550 N   0  0  0  0  0  0  0  0  0  0  0  0
  -25.7310  -38.0670   23.9110 H   0  0  0  0  0  0  0  0  0  0  0  0
  1  7  1  0
  4  9  1  0
  6  2  1  0
  6  4  1  0
  6  1  1  0
  7 20  1  0
  7  3  1  0
  8  2  1  0
  8  5  1  0
  8  3  1  0
  9 11  1  1
  9  5  1  0
 10  1  2  0
 12 20  1  0
 13 18  1  0
 14 15  1  0
 14 13  1  0
 16 15  1  0
 16 25  1  0
 16 17  1  0
 18 12  1  0
 18 17  1  0
 19 12  2  0
 20 21  1  0
 22 23  2  0
 23 42  1  0
 24 23  1  0
 24 27  1  0
 25 26  1  0
 25 22  1  0
 26 24  2  0
 27 28  1  0
 28 29  2  0
 30 33  1  0
 30 29  1  0
 31 30  2  0
 32 31  1  0
 32 27  2  0
 33 34  1  0
 34 35  1  0
 35 36  2  0
 37 36  1  0
 37 41  1  0
 38 37  2  0
 39 34  2  0
 39 38  1  0
 40 39  1  0
 42 43  1  0
 43 46  1  0
 43 45  1  0
 44 42  2  0
 47 22  1  0
 47 48  1  0
 49 47  1  0
 50 51  1  0
 50  9  1  0
 52 53  1  0
 52 51  2  0
 54 65  2  0
 55 53  1  0
 55 60  1  0
 56 64  1  0
 56 66  1  0
 57 63  1  0
 57 59  1  0
 58 64  1  0
 59 58  1  0
 60 59  2  0
 61 62  1  0
 61 55  2  0
 62 57  2  0
 63 56  1  0
 64 54  1  0
 66 68  2  0
 67 66  1  0
 69 67  1  0
 70 79  2  0
 70 75  1  0
 71 67  1  0
 71 75  1  0
 72 71  1  0
 73 74  1  0
 73 72  1  0
 74 70  1  0
 75 76  2  0
 76 77  1  0
 78 77  2  0
 79 78  1  0
 80 54  1  0
 80 85  1  0
 80 81  1  0
 81 84  1  1
 81 82  1  0
 83 81  1  0
 85 88  1  0
 86 90  1  0
 86 85  1  0
 87 86  2  0
 90 89  1  0
 92 90  1  0
 92 93  1  0
 92 91  1  0
M  ISO  4  12 100  20 100  52 101  53 101
M  END
>  <TORSDO>  (30) 
F 19

>  <SCORE>  (30) 
-13.331

>  <name>  (30) 
29

>  <ligand_id>  (30) 
29

>  <original_smiles>  (30) 
[H]c1c([H])c([H])c2c(c1[H])C([H])([H])C([H])([H])C([H])([H])C2([H])N([H])C(=O)C1([H])N(C(=O)C([H])(N([H])C(=O)C([H])(N([H])C([H])([H])[H])C([H])([H])[H])C(C([H])([H])[H])(C([H])([H])[H])C([H])([H])[H])C([H])([H])c2c([H])c(OC([H])([H])C([H])([H])C([H])([H])[N+]3([H])C([H])([H])C4([H])C(=O)C([H])(N([H])C(=O)N5C([H])([H])C([H])([H])C([H])([H])C([H])(n6nc(-c7c([H])c([H])c(Oc8c([H])c([H])c(F)c([H])c8F)c([H])c7[H])c(C(=O)N([H])[H])c6N([H])[H])C5([H])[H])C([H])([H])C([H])(C4([H])[H])C3([H])[H])c([H])c([H])c2C1([H])[H]

>  <smiles>  (30) 
[H]c1c([H])c([H])c2c(c1[H])C([H])([H])C([H])([H])C([H])([H])C2([H])N([H])C(=O)C1([H])N(C(=O)C([H])(N([H])C(=O)C([H])(N([H])C([H])([H])[H])C([H])([H])[H])C(C([H])([H])[H])(C([H])([H])[H])C([H])([H])[H])C([H])([H])c2c([H])c(OC([H])([H])C([H])([H])C([H])([H])[N+]3([H])C([H])([H])C4([H])C(=O)C([H])(N([H])C(=O)N5C([H])([H])C([H])([H])C([H])([H])C([H])(n6nc(-c7c([H])c([H])c(Oc8c([H])c([H])c(F)c([H])c8F)c([H])c7[H])c(C(=O)N([H])[H])c6N([H])[H])C5([H])[H])C([H])([H])C([H])(C4([H])[H])C3([H])[H])c([H])c([H])c2C1([H])[H]

$$$$
30:0:0
     RDKit          3D

 89 97  0  0  1  0  0  0  0  0999 V2000
  -30.7340  -20.1060   20.5000 C   0  0  0  0  0  2  0  0  0  0  0  0
  -28.4000  -19.6020   20.7070 C   0  0  0  0  0  2  0  0  0  0  0  0
  -30.3860  -21.5610   19.9590 C   0  0  0  0  0  2  0  0  0  0  0  0
  -28.0470  -21.0990   20.1980 C   0  0  0  0  0  2  0  0  0  0  0  0
  -29.7380  -18.9250   20.1950 C   0  0  0  0  0  3  0  0  0  0  0  0
  -29.0890  -22.1800   20.4230 N   0  0  2  0  0  4  0  0  0  0  0  0
  -29.1790  -22.3000   21.4220 H   0  0  0  0  0  0  0  0  0  0  0  0
  -30.2930  -17.4790   20.8050 C   0  0  0  0  0  2  0  0  0  0  0  0
  -30.5440  -14.8690   20.2450 C   0  0  0  0  0  0  0  0  0  0  0  0
  -30.3380  -12.5850   19.2090 C   0  0  0  0  0  2  0  0  0  0  0  0
  -29.3800  -12.6320   17.9980 C   0  0  0  0  0  2  0  0  0  0  0  0
  -27.9170  -12.4490   18.4510 C   0  0  0  0  0  2  0  0  0  0  0  0
  -27.5600  -13.3300   19.6790 C   0  0  0  0  0  3  0  0  0  0  0  0
  -28.6380  -13.2570   20.7810 C   0  0  0  0  0  2  0  0  0  0  0  0
  -29.9080  -13.6450   20.1550 N   0  0  0  0  0  0  0  0  0  0  0  0
  -31.7380  -14.9350   19.9430 O   0  0  0  0  0  0  0  0  0  0  0  0
  -29.8030  -16.0400   20.4880 N   0  0  0  0  0  0  0  0  0  0  0  0
  -28.8120  -15.8860   20.6180 H   0  0  0  0  0  0  0  0  0  0  0  0
  -25.1880  -13.9140   20.4530 C   0  0  0  0  0  0  0  0  0  0  0  0
  -24.1310  -13.1390   20.8410 C   0  0  0  0  0  0  0  0  0  0  0  0
  -24.5960  -11.7880   20.8010 C   0  0  0  0  0  0  0  0  0  0  0  0
  -26.2280  -13.0360   20.1960 N   0  0  0  0  0  0  0  0  0  0  0  0
  -25.8810  -11.7520   20.4690 N   0  0  0  0  0  0  0  0  0  0  0  0
  -23.8720  -10.5250   20.9970 C   0  0  0  0  0  0  0  0  0  0  0  0
  -24.3160   -9.5560   21.9230 C   0  0  0  0  0  3  0  0  0  0  0  0
  -23.5920   -8.3590   22.1100 C   0  0  0  0  0  3  0  0  0  0  0  0
  -22.4070   -8.1260   21.3720 C   0  0  0  0  0  0  0  0  0  0  0  0
  -21.9830   -9.0820   20.4320 C   0  0  0  0  0  3  0  0  0  0  0  0
  -22.7090  -10.2700   20.2430 C   0  0  0  0  0  3  0  0  0  0  0  0
  -21.6500   -6.9840   21.4670 O   0  0  0  0  0  0  0  0  0  0  0  0
  -21.6130   -6.2380   22.6180 C   0  0  0  0  0  0  0  0  0  0  0  0
  -21.2070   -6.7910   23.8520 C   0  0  0  0  0  3  0  0  0  0  0  0
  -21.1200   -5.9720   24.9960 C   0  0  0  0  0  3  0  0  0  0  0  0
  -21.4280   -4.6020   24.9060 C   0  0  0  0  0  0  0  0  0  0  0  0
  -21.8270   -4.0480   23.6770 C   0  0  0  0  0  3  0  0  0  0  0  0
  -21.9170   -4.8640   22.5360 C   0  0  0  0  0  0  0  0  0  0  0  0
  -22.2830   -4.3220   21.3490 F   0  0  0  0  0  0  0  0  0  0  0  0
  -21.3360   -3.8140   26.0020 F   0  0  0  0  0  0  0  0  0  0  0  0
  -22.7360  -13.6160   21.1300 C   0  0  0  0  0  0  0  0  0  0  0  0
  -22.0160  -12.9210   22.0010 N   0  0  0  0  0  0  0  0  0  0  0  0
  -22.2950  -14.6440   20.6180 O   0  0  0  0  0  0  0  0  0  0  0  0
  -22.3880  -12.0940   22.4430 H   0  0  0  0  0  0  0  0  0  0  0  0
  -21.0810  -13.2260   22.2340 H   0  0  0  0  0  0  0  0  0  0  0  0
  -25.3420  -15.2860   20.2730 N   0  0  0  0  0  0  0  0  0  0  0  0
  -24.5640  -15.9250   20.4010 H   0  0  0  0  0  0  0  0  0  0  0  0
  -26.1660  -15.7360   19.8950 H   0  0  0  0  0  0  0  0  0  0  0  0
  -28.8450  -23.6150   19.8100 C   0  0  0  0  0  2  0  0  0  0  0  0
  -28.1520  -24.8720   20.6150 C   0  0  0  0  0  2  0  0  0  0  0  0
  -28.3230  -26.3390   20.2030 O   0  0  0  0  0  0  0  0  0  0  0  0
  -24.5560  -31.8480   23.1970 C   0  0  0  0  0  0  0  0  0  0  0  0
  -27.2220  -27.2400   20.1790 C   0  0  0  0  0  0  0  0  0  0  0  0
  -23.3860  -30.4450   21.5400 C   0  0  0  0  0  3  0  0  0  0  0  0
  -24.8640  -28.8980   20.1250 C   0  0  0  0  0  0  0  0  0  0  0  0
  -25.9280  -30.7640   21.3890 C   0  0  0  0  0  2  0  0  0  0  0  0
  -26.0270  -29.3790   20.7400 C   0  0  0  0  0  0  0  0  0  0  0  0
  -27.2130  -28.5650   20.7460 C   0  0  0  0  0  3  0  0  0  0  0  0
  -26.0370  -26.8360   19.5320 C   0  0  0  0  0  3  0  0  0  0  0  0
  -24.8760  -27.6370   19.5080 C   0  0  0  0  0  3  0  0  0  0  0  0
  -23.6240  -29.7760   20.1590 C   0  0  0  0  0  2  0  0  0  0  0  0
  -24.6420  -31.0380   22.0990 N   0  0  0  0  0  0  0  0  0  0  0  0
  -23.4630  -32.1150   23.7180 O   0  0  0  0  0  0  0  0  0  0  0  0
  -22.7170  -29.4200   22.4890 C   0  0  0  0  0  0  0  0  0  0  0  0
  -21.3950  -29.2280   22.3420 N   0  0  0  0  0  0  0  0  0  0  0  0
  -23.3890  -28.8030   23.3190 O   0  0  0  0  0  0  0  0  0  0  0  0
  -20.9100  -29.7810   21.6490 H   0  0  0  0  0  0  0  0  0  0  0  0
  -18.0310  -27.9650   22.7790 C   0  0  0  0  0  0  0  0  0  0  0  0
  -20.5770  -28.2790   23.1000 C   0  0  0  0  0  3  0  0  0  0  0  0
  -20.7190  -26.8450   22.5370 C   0  0  0  0  0  2  0  0  0  0  0  0
  -19.6450  -26.4930   21.5000 C   0  0  0  0  0  2  0  0  0  0  0  0
  -18.2480  -26.6150   22.1140 C   0  0  0  0  0  2  0  0  0  0  0  0
  -19.1250  -28.7510   23.2270 C   0  0  0  0  0  0  0  0  0  0  0  0
  -18.8660  -30.0120   23.8090 C   0  0  0  0  0  3  0  0  0  0  0  0
  -17.5470  -30.4850   23.9480 C   0  0  0  0  0  3  0  0  0  0  0  0
  -16.4690  -29.6950   23.5150 C   0  0  0  0  0  3  0  0  0  0  0  0
  -16.7110  -28.4370   22.9340 C   0  0  0  0  0  3  0  0  0  0  0  0
  -25.8240  -32.4920   23.8390 C   0  0  0  0  0  3  0  0  0  0  0  0
  -26.3290  -31.7280   25.1240 C   0  0  1  0  0  0  0  0  0  0  0  0
  -25.2230  -31.4840   26.1770 C   0  0  0  0  0  1  0  0  0  0  0  0
  -26.9280  -30.3540   24.7440 C   0  0  0  0  0  1  0  0  0  0  0  0
  -27.4660  -32.5290   25.7990 C   0  0  0  0  0  1  0  0  0  0  0  0
  -25.4980  -33.8890   24.1660 N   0  0  0  0  0  0  0  0  0  0  0  0
  -25.8350  -34.9460   23.4150 C   0  0  0  0  0  0  0  0  0  0  0  0
  -26.5210  -34.8500   22.3940 O   0  0  0  0  0  0  0  0  0  0  0  0
  -24.8930  -34.0410   24.9590 H   0  0  0  0  0  0  0  0  0  0  0  0
  -24.1060  -36.7330   23.0390 C   0  0  0  0  0  1  0  0  0  0  0  0
  -25.3330  -36.3310   23.8690 C   0  0  0  0  0  3  0  0  0  0  0  0
  -27.4480  -37.2230   24.7420 C   0  0  0  0  0  1  0  0  0  0  0  0
  -26.3630  -37.3890   23.7790 N   0  0  0  0  0  0  0  0  0  0  0  0
  -25.9480  -38.3070   23.9220 H   0  0  0  0  0  0  0  0  0  0  0  0
  3  6  1  0
  3  1  1  0
  4  6  1  0
  4  2  1  0
  5  1  1  0
  5  2  1  0
  5  8  1  0
  6  7  1  1
  9 17  1  0
 10 15  1  0
 11 12  1  0
 11 10  1  0
 13 12  1  0
 13 22  1  0
 13 14  1  0
 15  9  1  0
 15 14  1  0
 16  9  2  0
 17 18  1  0
 17  8  1  0
 19 20  2  0
 20 39  1  0
 21 20  1  0
 21 24  1  0
 22 19  1  0
 22 23  1  0
 23 21  2  0
 24 25  1  0
 25 26  2  0
 27 30  1  0
 27 26  1  0
 28 27  2  0
 29 28  1  0
 29 24  2  0
 30 31  1  0
 31 32  1  0
 32 33  2  0
 34 33  1  0
 34 38  1  0
 35 34  2  0
 36 31  2  0
 36 35  1  0
 37 36  1  0
 39 40  1  0
 40 43  1  0
 40 42  1  0
 41 39  2  0
 44 45  1  0
 44 19  1  0
 46 44  1  0
 47  6  1  0
 47 48  1  0
 49 48  1  0
 50 61  2  0
 51 49  1  0
 51 56  1  0
 52 60  1  0
 52 62  1  0
 53 59  1  0
 53 55  1  0
 54 60  1  0
 55 56  2  0
 55 54  1  0
 57 51  2  0
 58 57  1  0
 58 53  2  0
 59 52  1  0
 60 50  1  0
 62 64  2  0
 63 62  1  0
 65 63  1  0
 66 75  2  0
 66 71  1  0
 67 63  1  0
 67 71  1  0
 68 67  1  0
 69 70  1  0
 69 68  1  0
 70 66  1  0
 71 72  2  0
 72 73  1  0
 74 73  2  0
 75 74  1  0
 76 50  1  0
 76 81  1  0
 76 77  1  0
 77 80  1  1
 77 78  1  0
 79 77  1  0
 81 84  1  0
 82 86  1  0
 82 81  1  0
 83 82  2  0
 86 85  1  0
 88 86  1  0
 88 89  1  0
 88 87  1  0
M  ISO  4   9 100  17 100  48 101  49 101
M  END
>  <TORSDO>  (31) 
F 19

>  <SCORE>  (31) 
-14.022

>  <name>  (31) 
30

>  <ligand_id>  (31) 
30

>  <original_smiles>  (31) 
[H]c1c([H])c([H])c2c(c1[H])C([H])([H])C([H])([H])C([H])([H])C2([H])N([H])C(=O)C1([H])N(C(=O)C([H])(N([H])C(=O)C([H])(N([H])C([H])([H])[H])C([H])([H])[H])C(C([H])([H])[H])(C([H])([H])[H])C([H])([H])[H])C([H])([H])c2c([H])c(OC([H])([H])C([H])([H])[N+]3([H])C([H])([H])C([H])([H])C([H])(C([H])([H])N([H])C(=O)N4C([H])([H])C([H])([H])C([H])([H])C([H])(n5nc(-c6c([H])c([H])c(Oc7c([H])c([H])c(F)c([H])c7F)c([H])c6[H])c(C(=O)N([H])[H])c5N([H])[H])C4([H])[H])C([H])([H])C3([H])[H])c([H])c([H])c2C1([H])[H]

>  <smiles>  (31) 
[H]c1c([H])c([H])c2c(c1[H])C([H])([H])C([H])([H])C([H])([H])C2([H])N([H])C(=O)C1([H])N(C(=O)C([H])(N([H])C(=O)C([H])(N([H])C([H])([H])[H])C([H])([H])[H])C(C([H])([H])[H])(C([H])([H])[H])C([H])([H])[H])C([H])([H])c2c([H])c(OC([H])([H])C([H])([H])[N+]3([H])C([H])([H])C([H])([H])C([H])(C([H])([H])N([H])C(=O)N4C([H])([H])C([H])([H])C([H])([H])C([H])(n5nc(-c6c([H])c([H])c(Oc7c([H])c([H])c(F)c([H])c7F)c([H])c6[H])c(C(=O)N([H])[H])c5N([H])[H])C4([H])[H])C([H])([H])C3([H])[H])c([H])c([H])c2C1([H])[H]

$$$$
31:0:0
     RDKit          3D

 94102  0  0  1  0  0  0  0  0999 V2000
  -30.7740  -15.1970   20.0550 C   0  0  0  0  0  0  0  0  0  0  0  0
  -30.6160  -12.7260   19.3400 C   0  0  0  0  0  2  0  0  0  0  0  0
  -29.7160  -12.4370   18.1140 C   0  0  0  0  0  2  0  0  0  0  0  0
  -28.2570  -12.2300   18.5500 C   0  0  0  0  0  2  0  0  0  0  0  0
  -27.8080  -13.2970   19.5780 C   0  0  0  0  0  3  0  0  0  0  0  0
  -28.8440  -13.5170   20.7000 C   0  0  0  0  0  2  0  0  0  0  0  0
  -30.0910  -13.9530   20.0500 N   0  0  0  0  0  0  0  0  0  0  0  0
  -31.9910  -15.0530   19.8740 O   0  0  0  0  0  0  0  0  0  0  0  0
  -30.9380  -19.3100   19.8430 C   0  0  0  0  0  0  0  0  0  0  0  0
  -31.2040  -17.7830   20.3450 C   0  0  0  0  0  2  0  0  0  0  0  0
  -28.7000  -18.8040   19.3590 C   0  0  0  0  0  2  0  0  0  0  0  0
  -29.5330  -20.0740   19.9290 C   0  0  0  0  0  3  0  0  0  0  0  0
  -28.8710  -17.2870   20.0640 C   0  0  0  0  0  3  0  0  0  0  0  0
  -30.2500  -16.5900   20.1220 N   0  0  0  0  0  0  0  0  0  0  0  0
  -31.9080  -19.9100   19.3680 O   0  0  0  0  0  0  0  0  0  0  0  0
  -25.4630  -13.9620   20.3310 C   0  0  0  0  0  0  0  0  0  0  0  0
  -24.3760  -13.2340   20.7260 C   0  0  0  0  0  0  0  0  0  0  0  0
  -24.7950  -11.8680   20.7250 C   0  0  0  0  0  0  0  0  0  0  0  0
  -26.4720  -13.0440   20.0990 N   0  0  0  0  0  0  0  0  0  0  0  0
  -26.0840  -11.7790   20.4100 N   0  0  0  0  0  0  0  0  0  0  0  0
  -24.0240  -10.6370   20.9440 C   0  0  0  0  0  0  0  0  0  0  0  0
  -24.4340   -9.6640   21.8810 C   0  0  0  0  0  3  0  0  0  0  0  0
  -23.6640   -8.4990   22.0880 C   0  0  0  0  0  3  0  0  0  0  0  0
  -22.4690   -8.3000   21.3590 C   0  0  0  0  0  0  0  0  0  0  0  0
  -22.0760   -9.2610   20.4100 C   0  0  0  0  0  3  0  0  0  0  0  0
  -22.8460  -10.4170   20.2010 C   0  0  0  0  0  3  0  0  0  0  0  0
  -21.6690   -7.1890   21.4760 O   0  0  0  0  0  0  0  0  0  0  0  0
  -21.6270   -6.4510   22.6320 C   0  0  0  0  0  0  0  0  0  0  0  0
  -21.2620   -7.0270   23.8700 C   0  0  0  0  0  3  0  0  0  0  0  0
  -21.1630   -6.2190   25.0190 C   0  0  0  0  0  3  0  0  0  0  0  0
  -21.4180   -4.8370   24.9340 C   0  0  0  0  0  0  0  0  0  0  0  0
  -21.7750   -4.2620   23.7020 C   0  0  0  0  0  3  0  0  0  0  0  0
  -21.8760   -5.0670   22.5550 C   0  0  0  0  0  0  0  0  0  0  0  0
  -22.2020   -4.5040   21.3650 F   0  0  0  0  0  0  0  0  0  0  0  0
  -21.3150   -4.0580   26.0370 F   0  0  0  0  0  0  0  0  0  0  0  0
  -22.9980  -13.7680   20.9780 C   0  0  0  0  0  0  0  0  0  0  0  0
  -22.2460  -13.1340   21.8710 N   0  0  0  0  0  0  0  0  0  0  0  0
  -22.5960  -14.7850   20.4140 O   0  0  0  0  0  0  0  0  0  0  0  0
  -22.5850  -12.3130   22.3530 H   0  0  0  0  0  0  0  0  0  0  0  0
  -21.3200  -13.4780   22.0820 H   0  0  0  0  0  0  0  0  0  0  0  0
  -25.6740  -15.3200   20.1170 N   0  0  0  0  0  0  0  0  0  0  0  0
  -24.8690  -15.9390   20.1260 H   0  0  0  0  0  0  0  0  0  0  0  0
  -26.3920  -15.6330   19.4770 H   0  0  0  0  0  0  0  0  0  0  0  0
  -29.6080  -21.6110   19.3310 N   0  0  0  0  0  4  0  0  0  0  0  0
  -30.0390  -21.5050   18.4260 H   0  0  0  0  0  0  0  0  0  0  0  0
  -30.3480  -22.0050   19.8910 H   0  0  0  0  0  0  0  0  0  0  0  0
  -28.5470  -22.8510   19.1790 C   0  0  0  0  0  2  0  0  0  0  0  0
  -28.6650  -24.5130   19.7650 C   0  0  0  0  0  2  0  0  0  0  0  0
  -28.4880  -26.0280   19.2300 O   0  0  0  0  0  0  0  0  0  0  0  0
  -24.6450  -31.4040   22.8000 C   0  0  0  0  0  0  0  0  0  0  0  0
  -27.3790  -26.9740   19.3920 C   0  0  0  0  0  0  0  0  0  0  0  0
  -23.4890  -30.0960   21.0650 C   0  0  0  0  0  3  0  0  0  0  0  0
  -24.9870  -28.6830   19.5120 C   0  0  0  0  0  0  0  0  0  0  0  0
  -26.0350  -30.4600   20.9010 C   0  0  0  0  0  2  0  0  0  0  0  0
  -26.1610  -29.1140   20.1450 C   0  0  0  0  0  0  0  0  0  0  0  0
  -27.3560  -28.2840   20.0550 C   0  0  0  0  0  3  0  0  0  0  0  0
  -26.1690  -26.6670   18.7320 C   0  0  0  0  0  3  0  0  0  0  0  0
  -25.0090  -27.4780   18.7890 C   0  0  0  0  0  3  0  0  0  0  0  0
  -23.7290  -29.5370   19.6370 C   0  0  0  0  0  2  0  0  0  0  0  0
  -24.7450  -30.6760   21.6450 N   0  0  0  0  0  0  0  0  0  0  0  0
  -23.5530  -31.5990   23.3570 O   0  0  0  0  0  0  0  0  0  0  0  0
  -22.8600  -28.9910   21.9510 C   0  0  0  0  0  0  0  0  0  0  0  0
  -21.5340  -28.7890   21.8430 N   0  0  0  0  0  0  0  0  0  0  0  0
  -23.5720  -28.3150   22.7010 O   0  0  0  0  0  0  0  0  0  0  0  0
  -21.0130  -29.3880   21.2180 H   0  0  0  0  0  0  0  0  0  0  0  0
  -18.2040  -27.4430   22.3400 C   0  0  0  0  0  0  0  0  0  0  0  0
  -20.7630  -27.7580   22.5450 C   0  0  0  0  0  3  0  0  0  0  0  0
  -20.8810  -26.3910   21.8320 C   0  0  0  0  0  2  0  0  0  0  0  0
  -19.7540  -26.1340   20.8270 C   0  0  0  0  0  2  0  0  0  0  0  0
  -18.3920  -26.1730   21.5270 C   0  0  0  0  0  2  0  0  0  0  0  0
  -19.3150  -28.1940   22.8050 C   0  0  0  0  0  0  0  0  0  0  0  0
  -19.0830  -29.3840   23.5290 C   0  0  0  0  0  3  0  0  0  0  0  0
  -17.7700  -29.8220   23.7910 C   0  0  0  0  0  3  0  0  0  0  0  0
  -16.6740  -29.0680   23.3380 C   0  0  0  0  0  3  0  0  0  0  0  0
  -16.8920  -27.8790   22.6190 C   0  0  0  0  0  3  0  0  0  0  0  0
  -25.8980  -32.0490   23.4700 C   0  0  0  0  0  3  0  0  0  0  0  0
  -26.4690  -31.1890   24.6640 C   0  0  1  0  0  0  0  0  0  0  0  0
  -25.4100  -30.8070   25.7240 C   0  0  0  0  0  1  0  0  0  0  0  0
  -27.1050  -29.8800   24.1470 C   0  0  0  0  0  1  0  0  0  0  0  0
  -27.5970  -31.9710   25.3790 C   0  0  0  0  0  1  0  0  0  0  0  0
  -25.5180  -33.3900   23.9450 N   0  0  0  0  0  0  0  0  0  0  0  0
  -25.7890  -34.5350   23.3050 C   0  0  0  0  0  0  0  0  0  0  0  0
  -26.4490  -34.5750   22.2620 O   0  0  0  0  0  0  0  0  0  0  0  0
  -24.9240  -33.4270   24.7620 H   0  0  0  0  0  0  0  0  0  0  0  0
  -23.9700  -36.2710   23.1650 C   0  0  0  0  0  1  0  0  0  0  0  0
  -25.2430  -35.8430   23.9130 C   0  0  0  0  0  3  0  0  0  0  0  0
  -27.3450  -36.7450   24.8080 C   0  0  0  0  0  1  0  0  0  0  0  0
  -26.2210  -36.9530   23.8990 N   0  0  0  0  0  0  0  0  0  0  0  0
  -25.7740  -37.8320   24.1430 H   0  0  0  0  0  0  0  0  0  0  0  0
  -28.1740  -17.3760   21.4670 C   0  0  0  0  0  2  0  0  0  0  0  0
  -28.7120  -16.5310   22.5500 N   0  0  0  0  0  4  0  0  0  0  0  0
  -28.6440  -15.5550   22.3270 H   0  0  0  0  0  0  0  0  0  0  0  0
  -28.1620  -16.6800   23.3790 H   0  0  0  0  0  0  0  0  0  0  0  0
  -29.6600  -16.7680   22.7800 H   0  0  0  0  0  0  0  0  0  0  0  0
  1 14  1  0
  2  7  1  0
  3  4  1  0
  3  2  1  0
  5  4  1  0
  5 19  1  0
  5  6  1  0
  7  1  1  0
  7  6  1  0
  8  1  2  0
  9 12  1  0
  9 10  1  0
 11 12  1  0
 11 13  1  0
 12 44  1  0
 13 14  1  0
 13 90  1  0
 14 10  1  0
 15  9  2  0
 16 17  2  0
 17 36  1  0
 18 17  1  0
 18 21  1  0
 19 16  1  0
 19 20  1  0
 20 18  2  0
 21 22  1  0
 22 23  2  0
 24 27  1  0
 24 23  1  0
 25 24  2  0
 26 25  1  0
 26 21  2  0
 27 28  1  0
 28 29  1  0
 29 30  2  0
 31 30  1  0
 31 35  1  0
 32 31  2  0
 33 28  2  0
 33 32  1  0
 34 33  1  0
 36 37  1  0
 37 40  1  0
 37 39  1  0
 38 36  2  0
 41 42  1  0
 41 16  1  0
 43 41  1  0
 44 46  1  0
 45 44  1  0
 47 44  1  0
 47 48  1  0
 49 51  1  0
 49 48  1  0
 50 61  2  0
 51 56  1  0
 52 60  1  0
 52 62  1  0
 53 59  1  0
 53 55  1  0
 54 60  1  0
 55 54  1  0
 56 55  2  0
 57 58  1  0
 57 51  2  0
 58 53  2  0
 59 52  1  0
 60 50  1  0
 62 64  2  0
 63 62  1  0
 65 63  1  0
 66 75  2  0
 66 71  1  0
 67 63  1  0
 67 71  1  0
 68 67  1  0
 69 70  1  0
 69 68  1  0
 70 66  1  0
 71 72  2  0
 72 73  1  0
 74 73  2  0
 75 74  1  0
 76 50  1  0
 76 81  1  0
 76 77  1  0
 77 80  1  1
 77 78  1  0
 79 77  1  0
 81 84  1  0
 82 86  1  0
 82 81  1  0
 83 82  2  0
 86 85  1  0
 88 86  1  0
 88 89  1  0
 88 87  1  0
 90 91  1  0
 91 94  1  0
 91 93  1  0
 92 91  1  0
M  ISO  4   1 100  14 100  48 101  49 101
M  END
>  <TORSDO>  (32) 
F 20

>  <SCORE>  (32) 
-9.316

>  <name>  (32) 
31

>  <ligand_id>  (32) 
31

>  <original_smiles>  (32) 
[H]c1c([H])c([H])c2c(c1[H])C([H])([H])C([H])([H])C([H])([H])C2([H])N([H])C(=O)C1([H])N(C(=O)C([H])(N([H])C(=O)C([H])(N([H])C([H])([H])[H])C([H])([H])[H])C(C([H])([H])[H])(C([H])([H])[H])C([H])([H])[H])C([H])([H])c2c([H])c(OC([H])([H])C([H])([H])[N+]([H])([H])C3([H])C(=O)C([H])([H])N(C(=O)N4C([H])([H])C([H])([H])C([H])([H])C([H])(n5nc(-c6c([H])c([H])c(Oc7c([H])c([H])c(F)c([H])c7F)c([H])c6[H])c(C(=O)N([H])[H])c5N([H])[H])C4([H])[H])C([H])(C([H])([H])[N+]([H])([H])[H])C3([H])[H])c([H])c([H])c2C1([H])[H]

>  <smiles>  (32) 
[H]c1c([H])c([H])c2c(c1[H])C([H])([H])C([H])([H])C([H])([H])C2([H])N([H])C(=O)C1([H])N(C(=O)C([H])(N([H])C(=O)C([H])(N([H])C([H])([H])[H])C([H])([H])[H])C(C([H])([H])[H])(C([H])([H])[H])C([H])([H])[H])C([H])([H])c2c([H])c(OC([H])([H])C([H])([H])[N+]([H])([H])C3([H])C(=O)C([H])([H])N(C(=O)N4C([H])([H])C([H])([H])C([H])([H])C([H])(n5nc(-c6c([H])c([H])c(Oc7c([H])c([H])c(F)c([H])c7F)c([H])c6[H])c(C(=O)N([H])[H])c5N([H])[H])C4([H])[H])C([H])(C([H])([H])[N+]([H])([H])[H])C3([H])[H])c([H])c([H])c2C1([H])[H]

$$$$
32:0:0
     RDKit          3D

 95104  0  0  1  0  0  0  0  0999 V2000
  -28.6090  -20.2960   19.6240 C   0  0  0  0  0  2  0  0  0  0  0  0
  -29.9770  -20.6580   21.6470 C   0  0  0  0  0  2  0  0  0  0  0  0
  -28.0420  -21.7670   19.7590 C   0  0  0  0  0  2  0  0  0  0  0  0
  -29.3680  -22.0950   21.7820 C   0  0  0  0  0  2  0  0  0  0  0  0
  -29.0220  -19.6310   20.9770 C   0  0  0  0  0  3  0  0  0  0  0  0
  -28.9320  -22.7290   20.4920 N   0  0  2  0  0  4  0  0  0  0  0  0
  -29.7710  -22.8330   19.9380 H   0  0  0  0  0  0  0  0  0  0  0  0
  -29.4500  -18.0660   21.0180 C   0  0  0  0  0  2  0  0  0  0  0  0
  -30.9920  -14.8790   20.1800 C   0  0  0  0  0  0  0  0  0  0  0  0
  -30.6880  -12.6140   19.2040 C   0  0  0  0  0  2  0  0  0  0  0  0
  -29.7110  -12.6220   18.0010 C   0  0  0  0  0  2  0  0  0  0  0  0
  -28.2550  -12.5280   18.4720 C   0  0  0  0  0  2  0  0  0  0  0  0
  -27.9200  -13.4740   19.6580 C   0  0  0  0  0  3  0  0  0  0  0  0
  -29.0000  -13.4170   20.7580 C   0  0  0  0  0  2  0  0  0  0  0  0
  -30.2860  -13.7050   20.1120 N   0  0  0  0  0  0  0  0  0  0  0  0
  -32.2220  -14.8500   20.2210 O   0  0  0  0  0  0  0  0  0  0  0  0
  -30.8750  -16.0120   18.1030 C   0  0  0  0  0  2  0  0  0  0  0  0
  -32.2360  -16.7380   17.8660 C   0  0  0  0  0  2  0  0  0  0  0  0
  -31.7890  -18.0510   19.9060 C   0  0  0  0  0  2  0  0  0  0  0  0
  -30.3630  -17.4670   19.8810 C   0  0  0  0  0  3  0  0  0  0  0  0
  -30.4220  -15.9710   19.5300 N   0  0  0  0  0  0  0  0  0  0  0  0
  -32.3340  -18.0480   18.5380 N   0  0  0  0  0  4  0  0  0  0  0  0
  -31.8270  -18.7260   17.9930 H   0  0  0  0  0  0  0  0  0  0  0  0
  -33.2960  -18.3490   18.5540 H   0  0  0  0  0  0  0  0  0  0  0  0
  -25.5480  -14.0980   20.4020 C   0  0  0  0  0  0  0  0  0  0  0  0
  -24.4720  -13.3360   20.7710 C   0  0  0  0  0  0  0  0  0  0  0  0
  -24.9220  -11.9810   20.7510 C   0  0  0  0  0  0  0  0  0  0  0  0
  -26.5810  -13.2080   20.1730 N   0  0  0  0  0  0  0  0  0  0  0  0
  -26.2130  -11.9300   20.4540 N   0  0  0  0  0  0  0  0  0  0  0  0
  -24.1840  -10.7240   20.9400 C   0  0  0  0  0  0  0  0  0  0  0  0
  -24.5820   -9.7720   21.9040 C   0  0  0  0  0  3  0  0  0  0  0  0
  -23.8450   -8.5820   22.0830 C   0  0  0  0  0  3  0  0  0  0  0  0
  -22.6960   -8.3350   21.2960 C   0  0  0  0  0  0  0  0  0  0  0  0
  -22.3170   -9.2730   20.3200 C   0  0  0  0  0  3  0  0  0  0  0  0
  -23.0550  -10.4550   20.1400 C   0  0  0  0  0  3  0  0  0  0  0  0
  -21.9320   -7.1950   21.3830 O   0  0  0  0  0  0  0  0  0  0  0  0
  -21.8070   -6.5010   22.5600 C   0  0  0  0  0  0  0  0  0  0  0  0
  -21.2790   -7.0970   23.7250 C   0  0  0  0  0  3  0  0  0  0  0  0
  -21.1040   -6.3290   24.8920 C   0  0  0  0  0  3  0  0  0  0  0  0
  -21.4470   -4.9630   24.8940 C   0  0  0  0  0  0  0  0  0  0  0  0
  -21.9690   -4.3660   23.7330 C   0  0  0  0  0  3  0  0  0  0  0  0
  -22.1450   -5.1330   22.5680 C   0  0  0  0  0  0  0  0  0  0  0  0
  -22.6290   -4.5470   21.4460 F   0  0  0  0  0  0  0  0  0  0  0  0
  -21.2710   -4.2220   26.0130 F   0  0  0  0  0  0  0  0  0  0  0  0
  -23.0760  -13.8250   21.0280 C   0  0  0  0  0  0  0  0  0  0  0  0
  -22.3390  -13.1470   21.8990 N   0  0  0  0  0  0  0  0  0  0  0  0
  -22.6500  -14.8460   20.4910 O   0  0  0  0  0  0  0  0  0  0  0  0
  -22.6990  -12.3210   22.3570 H   0  0  0  0  0  0  0  0  0  0  0  0
  -21.4030  -13.4590   22.1170 H   0  0  0  0  0  0  0  0  0  0  0  0
  -25.7260  -15.4660   20.2140 N   0  0  0  0  0  0  0  0  0  0  0  0
  -24.9650  -16.1280   20.3100 H   0  0  0  0  0  0  0  0  0  0  0  0
  -26.5870  -15.8940   19.8990 H   0  0  0  0  0  0  0  0  0  0  0  0
  -28.3680  -24.1410   20.7070 C   0  0  0  0  0  2  0  0  0  0  0  0
  -28.4590  -25.2040   19.5290 C   0  0  0  0  0  2  0  0  0  0  0  0
  -28.4060  -26.6460   19.8720 O   0  0  0  0  0  0  0  0  0  0  0  0
  -24.6140  -31.8390   23.0760 C   0  0  0  0  0  0  0  0  0  0  0  0
  -27.2350  -27.4150   19.8540 C   0  0  0  0  0  0  0  0  0  0  0  0
  -23.3970  -30.4660   21.4210 C   0  0  0  0  0  3  0  0  0  0  0  0
  -24.8420  -28.9760   19.9260 C   0  0  0  0  0  0  0  0  0  0  0  0
  -25.9230  -30.8380   21.1920 C   0  0  0  0  0  2  0  0  0  0  0  0
  -26.0120  -29.4760   20.5110 C   0  0  0  0  0  0  0  0  0  0  0  0
  -27.2080  -28.7060   20.4650 C   0  0  0  0  0  3  0  0  0  0  0  0
  -26.0390  -26.9570   19.2580 C   0  0  0  0  0  3  0  0  0  0  0  0
  -24.8560  -27.7240   19.2900 C   0  0  0  0  0  3  0  0  0  0  0  0
  -23.5930  -29.8300   20.0190 C   0  0  0  0  0  2  0  0  0  0  0  0
  -24.6650  -31.0630   21.9540 N   0  0  0  0  0  0  0  0  0  0  0  0
  -23.5390  -32.0830   23.6410 O   0  0  0  0  0  0  0  0  0  0  0  0
  -22.7720  -29.4140   22.3670 C   0  0  0  0  0  0  0  0  0  0  0  0
  -21.4450  -29.2270   22.2700 N   0  0  0  0  0  0  0  0  0  0  0  0
  -23.4790  -28.7680   23.1450 O   0  0  0  0  0  0  0  0  0  0  0  0
  -20.9310  -29.8060   21.6200 H   0  0  0  0  0  0  0  0  0  0  0  0
  -18.0930  -27.9890   22.8250 C   0  0  0  0  0  0  0  0  0  0  0  0
  -20.6550  -28.2590   23.0330 C   0  0  0  0  0  3  0  0  0  0  0  0
  -20.7500  -26.8470   22.4090 C   0  0  0  0  0  2  0  0  0  0  0  0
  -19.6240  -26.5490   21.4160 C   0  0  0  0  0  2  0  0  0  0  0  0
  -18.2590  -26.6640   22.1010 C   0  0  0  0  0  2  0  0  0  0  0  0
  -19.2170  -28.7460   23.2490 C   0  0  0  0  0  0  0  0  0  0  0  0
  -19.0060  -29.9870   23.8870 C   0  0  0  0  0  3  0  0  0  0  0  0
  -17.7030  -30.4750   24.1020 C   0  0  0  0  0  3  0  0  0  0  0  0
  -16.5930  -29.7150   23.6940 C   0  0  0  0  0  3  0  0  0  0  0  0
  -16.7880  -28.4740   23.0620 C   0  0  0  0  0  3  0  0  0  0  0  0
  -25.9000  -32.4760   23.6890 C   0  0  0  0  0  3  0  0  0  0  0  0
  -26.4570  -31.6770   24.9320 C   0  0  1  0  0  0  0  0  0  0  0  0
  -25.3920  -31.3930   26.0170 C   0  0  0  0  0  1  0  0  0  0  0  0
  -27.0490  -30.3190   24.4870 C   0  0  0  0  0  1  0  0  0  0  0  0
  -27.6090  -32.4700   25.5920 C   0  0  0  0  0  1  0  0  0  0  0  0
  -25.5740  -33.8570   24.0670 N   0  0  0  0  0  0  0  0  0  0  0  0
  -25.8860  -34.9400   23.3420 C   0  0  0  0  0  0  0  0  0  0  0  0
  -26.5470  -34.8820   22.3020 O   0  0  0  0  0  0  0  0  0  0  0  0
  -24.9810  -33.9750   24.8760 H   0  0  0  0  0  0  0  0  0  0  0  0
  -24.1450  -36.7330   23.0500 C   0  0  0  0  0  1  0  0  0  0  0  0
  -25.3850  -36.3060   23.8510 C   0  0  0  0  0  3  0  0  0  0  0  0
  -27.5070  -37.1760   24.7310 C   0  0  0  0  0  1  0  0  0  0  0  0
  -26.4100  -37.3720   23.7860 N   0  0  0  0  0  0  0  0  0  0  0  0
  -25.9940  -38.2810   23.9690 H   0  0  0  0  0  0  0  0  0  0  0  0
  1  3  1  0
  1  5  1  0
  2  4  1  0
  3  6  1  0
  5  8  1  0
  5  2  1  0
  6 53  1  0
  6  4  1  0
  6  7  1  6
  9 16  2  0
 10 15  1  0
 11 12  1  0
 11 10  1  0
 13 12  1  0
 13 28  1  0
 13 14  1  0
 15  9  1  0
 15 14  1  0
 17 21  1  0
 18 17  1  0
 18 22  1  0
 20 19  1  0
 20  8  1  0
 21 20  1  0
 21  9  1  0
 22 24  1  0
 22 19  1  0
 23 22  1  0
 25 26  2  0
 26 45  1  0
 27 26  1  0
 27 30  1  0
 28 25  1  0
 28 29  1  0
 29 27  2  0
 30 31  1  0
 31 32  2  0
 33 36  1  0
 33 32  1  0
 34 33  2  0
 35 34  1  0
 35 30  2  0
 36 37  1  0
 37 42  2  0
 37 38  1  0
 38 39  2  0
 39 40  1  0
 40 44  1  0
 41 40  2  0
 42 41  1  0
 43 42  1  0
 45 46  1  0
 46 49  1  0
 46 48  1  0
 47 45  2  0
 50 51  1  0
 50 25  1  0
 52 50  1  0
 54 55  1  0
 54 53  1  0
 56 67  2  0
 57 55  1  0
 57 62  1  0
 58 66  1  0
 58 68  1  0
 59 65  1  0
 59 61  1  0
 60 66  1  0
 61 60  1  0
 62 61  2  0
 63 64  1  0
 63 57  2  0
 64 59  2  0
 65 58  1  0
 66 56  1  0
 68 70  2  0
 69 68  1  0
 71 69  1  0
 72 81  2  0
 72 77  1  0
 73 69  1  0
 73 77  1  0
 74 73  1  0
 75 76  1  0
 75 74  1  0
 76 72  1  0
 77 78  2  0
 78 79  1  0
 80 79  2  0
 81 80  1  0
 82 56  1  0
 82 87  1  0
 82 83  1  0
 83 86  1  1
 83 84  1  0
 85 83  1  0
 87 90  1  0
 88 92  1  0
 88 87  1  0
 89 88  2  0
 92 91  1  0
 94 92  1  0
 94 95  1  0
 94 93  1  0
M  ISO  4   9 100  21 100  54 101  55 101
M  END
>  <TORSDO>  (33) 
F 19

>  <SCORE>  (33) 
-13.619

>  <name>  (33) 
32

>  <ligand_id>  (33) 
32

>  <original_smiles>  (33) 
[H]c1c([H])c([H])c2c(c1[H])C([H])([H])C([H])([H])C([H])([H])C2([H])N([H])C(=O)C1([H])N(C(=O)C([H])(N([H])C(=O)C([H])(N([H])C([H])([H])[H])C([H])([H])[H])C(C([H])([H])[H])(C([H])([H])[H])C([H])([H])[H])C([H])([H])c2c([H])c(OC([H])([H])C([H])([H])[N+]3([H])C([H])([H])C([H])([H])C([H])(C([H])([H])C4([H])N(C(=O)N5C([H])([H])C([H])([H])C([H])([H])C([H])(n6nc(-c7c([H])c([H])c(Oc8c([H])c([H])c(F)c([H])c8F)c([H])c7[H])c(C(=O)N([H])[H])c6N([H])[H])C5([H])[H])C([H])([H])C([H])([H])[N+]([H])([H])C4([H])[H])C([H])([H])C3([H])[H])c([H])c([H])c2C1([H])[H]

>  <smiles>  (33) 
[H]c1c([H])c([H])c2c(c1[H])C([H])([H])C([H])([H])C([H])([H])C2([H])N([H])C(=O)C1([H])N(C(=O)C([H])(N([H])C(=O)C([H])(N([H])C([H])([H])[H])C([H])([H])[H])C(C([H])([H])[H])(C([H])([H])[H])C([H])([H])[H])C([H])([H])c2c([H])c(OC([H])([H])C([H])([H])[N+]3([H])C([H])([H])C([H])([H])C([H])(C([H])([H])C4([H])N(C(=O)N5C([H])([H])C([H])([H])C([H])([H])C([H])(n6nc(-c7c([H])c([H])c(Oc8c([H])c([H])c(F)c([H])c8F)c([H])c7[H])c(C(=O)N([H])[H])c6N([H])[H])C5([H])[H])C([H])([H])C([H])([H])[N+]([H])([H])C4([H])[H])C([H])([H])C3([H])[H])c([H])c([H])c2C1([H])[H]

$$$$
33:0:0
     RDKit          3D

 93101  0  0  1  0  0  0  0  0999 V2000
  -29.3960  -22.4240   20.8270 N   0  0  1  0  0  4  0  0  0  0  0  0
  -28.6510  -22.9110   20.3510 H   0  0  0  0  0  0  0  0  0  0  0  0
  -30.6070  -22.9550   20.1500 C   0  0  0  0  0  2  0  0  0  0  0  0
  -29.7610  -26.7700   18.2340 C   0  0  0  0  0  3  0  0  0  0  0  0
  -28.9420  -25.6550   17.9730 C   0  0  0  0  0  3  0  0  0  0  0  0
  -30.8670  -26.6420   19.0940 C   0  0  0  0  0  3  0  0  0  0  0  0
  -29.2230  -24.4170   18.5820 C   0  0  0  0  0  3  0  0  0  0  0  0
  -31.1450  -25.4060   19.7100 C   0  0  0  0  0  3  0  0  0  0  0  0
  -30.3160  -24.2860   19.4690 C   0  0  0  0  0  0  0  0  0  0  0  0
  -29.1450  -20.8970   20.4400 C   0  0  0  0  0  2  0  0  0  0  0  0
  -30.3150  -19.6710   20.5040 C   0  0  0  0  0  3  0  0  0  0  0  0
  -30.4670  -18.3860   19.4230 C   0  0  0  0  0  3  0  0  0  0  0  0
  -32.6410  -16.7720   19.0350 C   0  0  0  0  0  0  0  0  0  0  0  0
  -33.8920  -14.8380   17.9890 C   0  0  0  0  0  2  0  0  0  0  0  0
  -32.9110  -13.9220   17.2220 C   0  0  0  0  0  2  0  0  0  0  0  0
  -32.2950  -12.8740   18.1660 C   0  0  0  0  0  2  0  0  0  0  0  0
  -31.8030  -13.4940   19.5000 C   0  0  0  0  0  3  0  0  0  0  0  0
  -32.8400  -14.4540   20.1190 C   0  0  0  0  0  2  0  0  0  0  0  0
  -33.1390  -15.4740   19.1070 N   0  0  0  0  0  0  0  0  0  0  0  0
  -33.2290  -17.5680   18.2970 O   0  0  0  0  0  0  0  0  0  0  0  0
  -31.3890  -17.1160   19.6100 N   0  0  0  0  0  0  0  0  0  0  0  0
  -30.9890  -16.3800   20.1730 H   0  0  0  0  0  0  0  0  0  0  0  0
  -30.1220  -12.3420   21.0460 C   0  0  0  0  0  0  0  0  0  0  0  0
  -30.1800  -11.1850   21.7740 C   0  0  0  0  0  0  0  0  0  0  0  0
  -31.4940  -10.6600   21.5760 C   0  0  0  0  0  0  0  0  0  0  0  0
  -31.3610  -12.4750   20.4460 N   0  0  0  0  0  0  0  0  0  0  0  0
  -32.2120  -11.4850   20.8230 N   0  0  0  0  0  0  0  0  0  0  0  0
  -32.0890   -9.3890   22.0120 C   0  0  0  0  0  0  0  0  0  0  0  0
  -32.5580   -9.2050   23.3320 C   0  0  0  0  0  3  0  0  0  0  0  0
  -33.1040   -7.9660   23.7320 C   0  0  0  0  0  3  0  0  0  0  0  0
  -33.1820   -6.8950   22.8110 C   0  0  0  0  0  0  0  0  0  0  0  0
  -32.7350   -7.0910   21.4920 C   0  0  0  0  0  3  0  0  0  0  0  0
  -32.1960   -8.3260   21.0940 C   0  0  0  0  0  3  0  0  0  0  0  0
  -33.7210   -5.6650   23.1020 O   0  0  0  0  0  0  0  0  0  0  0  0
  -32.9730   -4.6700   23.6790 C   0  0  0  0  0  0  0  0  0  0  0  0
  -31.5940   -4.5270   23.4160 C   0  0  0  0  0  3  0  0  0  0  0  0
  -30.8790   -3.4500   23.9750 C   0  0  0  0  0  3  0  0  0  0  0  0
  -31.5410   -2.5120   24.7900 C   0  0  0  0  0  0  0  0  0  0  0  0
  -32.9150   -2.6500   25.0490 C   0  0  0  0  0  3  0  0  0  0  0  0
  -33.6300   -3.7250   24.4940 C   0  0  0  0  0  0  0  0  0  0  0  0
  -34.9580   -3.8420   24.7290 F   0  0  0  0  0  0  0  0  0  0  0  0
  -30.8560   -1.4720   25.3210 F   0  0  0  0  0  0  0  0  0  0  0  0
  -29.0480  -10.5510   22.5270 C   0  0  0  0  0  0  0  0  0  0  0  0
  -29.3200  -10.0430   23.7240 N   0  0  0  0  0  0  0  0  0  0  0  0
  -27.9040  -10.5470   22.0780 O   0  0  0  0  0  0  0  0  0  0  0  0
  -30.2580  -10.0630   24.0980 H   0  0  0  0  0  0  0  0  0  0  0  0
  -28.5820   -9.6250   24.2740 H   0  0  0  0  0  0  0  0  0  0  0  0
  -29.1130  -13.2750   20.8230 N   0  0  0  0  0  0  0  0  0  0  0  0
  -28.1780  -13.1500   21.1950 H   0  0  0  0  0  0  0  0  0  0  0  0
  -29.1820  -14.0490   20.1760 H   0  0  0  0  0  0  0  0  0  0  0  0
  -29.2760  -22.9440   22.3350 C   0  0  0  0  0  2  0  0  0  0  0  0
  -29.0550  -24.5670   22.7680 C   0  0  0  0  0  2  0  0  0  0  0  0
  -29.7420  -25.3910   23.9020 O   0  0  0  0  0  0  0  0  0  0  0  0
  -30.3500  -32.1840   26.7190 C   0  0  0  0  0  0  0  0  0  0  0  0
  -30.0330  -26.7950   23.7520 C   0  0  0  0  0  0  0  0  0  0  0  0
  -29.9940  -31.9770   24.2890 C   0  0  0  0  0  3  0  0  0  0  0  0
  -30.3700  -29.6450   23.2850 C   0  0  0  0  0  0  0  0  0  0  0  0
  -31.2330  -30.1220   25.5690 C   0  0  0  0  0  2  0  0  0  0  0  0
  -30.7280  -29.1080   24.5290 C   0  0  0  0  0  0  0  0  0  0  0  0
  -30.5830  -27.6890   24.7570 C   0  0  0  0  0  3  0  0  0  0  0  0
  -29.7720  -27.4030   22.5040 C   0  0  0  0  0  3  0  0  0  0  0  0
  -29.9140  -28.7870   22.2730 C   0  0  0  0  0  3  0  0  0  0  0  0
  -30.4900  -31.1450   23.0770 C   0  0  0  0  0  2  0  0  0  0  0  0
  -30.5120  -31.4340   25.5870 N   0  0  0  0  0  0  0  0  0  0  0  0
  -29.8020  -33.2960   26.6870 O   0  0  0  0  0  0  0  0  0  0  0  0
  -28.4490  -32.0750   24.2410 C   0  0  0  0  0  0  0  0  0  0  0  0
  -27.8790  -33.1080   24.8880 N   0  0  0  0  0  0  0  0  0  0  0  0
  -27.7890  -31.2450   23.6110 O   0  0  0  0  0  0  0  0  0  0  0  0
  -28.4840  -33.7440   25.3890 H   0  0  0  0  0  0  0  0  0  0  0  0
  -25.2880  -35.1850   23.4410 C   0  0  0  0  0  0  0  0  0  0  0  0
  -26.4470  -33.4130   24.9260 C   0  0  0  0  0  3  0  0  0  0  0  0
  -25.6340  -32.3650   24.1290 C   0  0  0  0  0  2  0  0  0  0  0  0
  -25.3850  -32.7750   22.6750 C   0  0  0  0  0  2  0  0  0  0  0  0
  -24.6210  -34.1000   22.6120 C   0  0  0  0  0  2  0  0  0  0  0  0
  -26.1580  -34.8610   24.5170 C   0  0  0  0  0  0  0  0  0  0  0  0
  -26.7780  -35.9080   25.2330 C   0  0  0  0  0  3  0  0  0  0  0  0
  -26.5400  -37.2540   24.8930 C   0  0  0  0  0  3  0  0  0  0  0  0
  -25.6680  -37.5680   23.8360 C   0  0  0  0  0  3  0  0  0  0  0  0
  -25.0410  -36.5350   23.1170 C   0  0  0  0  0  3  0  0  0  0  0  0
  -30.8600  -31.6870   28.1050 C   0  0  0  0  0  3  0  0  0  0  0  0
  -31.5840  -32.8000   28.7410 N   0  0  0  0  0  0  0  0  0  0  0  0
  -32.6200  -33.4490   28.1940 C   0  0  0  0  0  0  0  0  0  0  0  0
  -33.1130  -33.1270   27.1100 O   0  0  0  0  0  0  0  0  0  0  0  0
  -31.1990  -33.1550   29.6040 H   0  0  0  0  0  0  0  0  0  0  0  0
  -32.4410  -35.9280   28.5890 C   0  0  0  0  0  1  0  0  0  0  0  0
  -33.2010  -34.6480   28.9700 C   0  0  0  0  0  3  0  0  0  0  0  0
  -35.4860  -34.0150   29.6110 C   0  0  0  0  0  1  0  0  0  0  0  0
  -34.6510  -34.8460   28.7470 N   0  0  0  0  0  0  0  0  0  0  0  0
  -34.9100  -35.8180   28.8960 H   0  0  0  0  0  0  0  0  0  0  0  0
  -29.7010  -31.1770   29.0470 C   0  0  1  0  0  0  0  0  0  0  0  0
  -28.2840  -31.5240   28.5320 C   0  0  0  0  0  1  0  0  0  0  0  0
  -29.7710  -29.6430   29.2240 C   0  0  0  0  0  1  0  0  0  0  0  0
  -29.8630  -31.7880   30.4580 C   0  0  0  0  0  1  0  0  0  0  0  0
  1 51  1  0
  1  2  1  6
  3  1  1  0
  4  6  1  0
  5  4  2  0
  5  7  1  0
  6  8  2  0
  7  9  2  0
  9  8  1  0
  9  3  1  0
 10 11  1  0
 10  1  1  0
 12 21  1  0
 12 11  2  0
 13 19  1  0
 13 21  1  0
 14 19  1  0
 15 14  1  0
 15 16  1  0
 17 16  1  0
 17 18  1  0
 17 26  1  0
 19 18  1  0
 20 13  2  0
 21 22  1  0
 23 24  2  0
 24 43  1  0
 25 24  1  0
 25 28  1  0
 26 27  1  0
 26 23  1  0
 27 25  2  0
 28 29  1  0
 29 30  2  0
 31 34  1  0
 31 30  1  0
 32 31  2  0
 33 32  1  0
 33 28  2  0
 34 35  1  0
 35 40  1  0
 36 35  2  0
 36 37  1  0
 37 38  2  0
 38 39  1  0
 38 42  1  0
 40 41  1  0
 40 39  2  0
 43 44  1  0
 44 46  1  0
 44 47  1  0
 45 43  2  0
 48 23  1  0
 48 49  1  0
 50 48  1  0
 51 52  1  0
 52 53  1  0
 55 53  1  0
 55 60  1  0
 56 66  1  0
 56 64  1  0
 57 59  1  0
 58 64  1  0
 59 60  2  0
 59 58  1  0
 61 55  2  0
 62 61  1  0
 62 57  2  0
 63 57  1  0
 63 56  1  0
 64 54  1  0
 65 54  2  0
 66 67  1  0
 67 69  1  0
 68 66  2  0
 70 75  1  0
 71 67  1  0
 72 71  1  0
 73 72  1  0
 74 73  1  0
 74 70  1  0
 75 71  1  0
 75 76  2  0
 77 76  1  0
 78 77  2  0
 79 70  2  0
 79 78  1  0
 80 54  1  0
 80 81  1  0
 80 90  1  0
 81 84  1  0
 82 81  1  0
 82 86  1  0
 83 82  2  0
 86 85  1  0
 88 89  1  0
 88 86  1  0
 88 87  1  0
 90 92  1  1
 90 93  1  0
 91 90  1  0
M  ISO  4  13 100  21 100  52 101  53 101
M  END
>  <TORSDO>  (34) 
F 23

>  <SCORE>  (34) 
-7.380

>  <name>  (34) 
33

>  <ligand_id>  (34) 
33

>  <original_smiles>  (34) 
[H]c1c([H])c([H])c(C([H])([H])[N+]([H])(C([H])([H])C([H])([H])Oc2c([H])c([H])c3c(c2[H])C([H])([H])N(C(=O)C([H])(N([H])C(=O)C([H])(N([H])C([H])([H])[H])C([H])([H])[H])C(C([H])([H])[H])(C([H])([H])[H])C([H])([H])[H])C([H])(C(=O)N([H])C2([H])c4c([H])c([H])c([H])c([H])c4C([H])([H])C([H])([H])C2([H])[H])C3([H])[H])C([H])([H])C([H])([H])C([H])([H])N([H])C(=O)N2C([H])([H])C([H])([H])C([H])([H])C([H])(n3nc(-c4c([H])c([H])c(Oc5c([H])c([H])c(F)c([H])c5F)c([H])c4[H])c(C(=O)N([H])[H])c3N([H])[H])C2([H])[H])c([H])c1[H]

>  <smiles>  (34) 
[H]c1c([H])c([H])c(C([H])([H])[N+]([H])(C([H])([H])C([H])([H])Oc2c([H])c([H])c3c(c2[H])C([H])([H])N(C(=O)C([H])(N([H])C(=O)C([H])(N([H])C([H])([H])[H])C([H])([H])[H])C(C([H])([H])[H])(C([H])([H])[H])C([H])([H])[H])C([H])(C(=O)N([H])C2([H])c4c([H])c([H])c([H])c([H])c4C([H])([H])C([H])([H])C2([H])[H])C3([H])[H])C([H])([H])C([H])([H])C([H])([H])N([H])C(=O)N2C([H])([H])C([H])([H])C([H])([H])C([H])(n3nc(-c4c([H])c([H])c(Oc5c([H])c([H])c(F)c([H])c5F)c([H])c4[H])c(C(=O)N([H])[H])c3N([H])[H])C2([H])[H])c([H])c1[H]

$$$$
34:0:0
     RDKit          3D

100108  0  0  1  0  0  0  0  0999 V2000
  -29.3100  -20.4050   19.8170 N   0  0  1  0  0  4  0  0  0  0  0  0
  -30.2470  -20.7500   19.9530 H   0  0  0  0  0  0  0  0  0  0  0  0
  -29.2210  -20.0440   18.3700 C   0  0  0  0  0  2  0  0  0  0  0  0
  -32.3020  -21.9070   16.7870 C   0  0  0  0  0  2  0  0  0  0  0  0
  -30.5470  -21.5730   15.0160 C   0  0  0  0  0  2  0  0  0  0  0  0
  -31.5130  -20.9980   17.7450 C   0  0  0  0  0  2  0  0  0  0  0  0
  -29.7590  -20.6550   15.9650 C   0  0  0  0  0  2  0  0  0  0  0  0
  -32.0600  -21.5290   15.3100 C   0  0  0  0  0  3  0  0  0  0  0  0
  -29.9960  -21.0140   17.4460 C   0  0  0  0  0  3  0  0  0  0  0  0
  -32.8430  -22.4340   14.3310 C   0  0  0  0  0  2  0  0  0  0  0  0
  -34.2960  -22.2040   14.3870 N   0  0  0  0  0  4  0  0  0  0  0  0
  -34.6600  -22.3980   15.3030 H   0  0  0  0  0  0  0  0  0  0  0  0
  -34.7600  -22.8100   13.7340 H   0  0  0  0  0  0  0  0  0  0  0  0
  -34.5170  -21.2570   14.1420 H   0  0  0  0  0  0  0  0  0  0  0  0
  -28.3740  -21.5390   20.1610 C   0  0  0  0  0  2  0  0  0  0  0  0
  -29.0450  -22.9300   20.3950 C   0  0  0  0  0  2  0  0  0  0  0  0
  -28.1160  -24.1660   20.1330 C   0  0  0  0  0  2  0  0  0  0  0  0
  -28.5350  -25.4840   20.8520 C   0  0  0  0  0  2  0  0  0  0  0  0
  -28.3960  -26.7050   20.1010 O   0  0  0  0  0  0  0  0  0  0  0  0
  -24.5620  -31.8720   23.2500 C   0  0  0  0  0  0  0  0  0  0  0  0
  -27.2120  -27.4090   20.1870 C   0  0  0  0  0  0  0  0  0  0  0  0
  -23.3600  -30.4720   21.6010 C   0  0  0  0  0  3  0  0  0  0  0  0
  -24.8170  -28.9220   20.1900 C   0  0  0  0  0  0  0  0  0  0  0  0
  -25.8880  -30.8230   21.4120 C   0  0  0  0  0  2  0  0  0  0  0  0
  -25.9740  -29.4470   20.7790 C   0  0  0  0  0  0  0  0  0  0  0  0
  -27.1760  -28.6990   20.7690 C   0  0  0  0  0  3  0  0  0  0  0  0
  -26.0370  -26.8950   19.6010 C   0  0  0  0  0  3  0  0  0  0  0  0
  -24.8430  -27.6450   19.6000 C   0  0  0  0  0  3  0  0  0  0  0  0
  -23.5750  -29.7860   20.2240 C   0  0  0  0  0  2  0  0  0  0  0  0
  -24.6220  -31.0710   22.1470 N   0  0  0  0  0  0  0  0  0  0  0  0
  -23.4800  -32.1450   23.7860 O   0  0  0  0  0  0  0  0  0  0  0  0
  -22.7010  -29.4540   22.5600 C   0  0  0  0  0  0  0  0  0  0  0  0
  -21.3750  -29.2830   22.4340 N   0  0  0  0  0  0  0  0  0  0  0  0
  -23.3800  -28.8210   23.3720 O   0  0  0  0  0  0  0  0  0  0  0  0
  -20.8890  -29.8460   21.7490 H   0  0  0  0  0  0  0  0  0  0  0  0
  -17.9910  -28.1200   22.9340 C   0  0  0  0  0  0  0  0  0  0  0  0
  -20.5510  -28.3480   23.2000 C   0  0  0  0  0  3  0  0  0  0  0  0
  -20.6380  -26.9200   22.6110 C   0  0  0  0  0  2  0  0  0  0  0  0
  -19.5280  -26.6180   21.5980 C   0  0  0  0  0  2  0  0  0  0  0  0
  -18.1500  -26.7740   22.2470 C   0  0  0  0  0  2  0  0  0  0  0  0
  -19.1190  -28.8660   23.3670 C   0  0  0  0  0  0  0  0  0  0  0  0
  -18.9160  -30.1270   23.9670 C   0  0  0  0  0  3  0  0  0  0  0  0
  -17.6180  -30.6430   24.1400 C   0  0  0  0  0  3  0  0  0  0  0  0
  -16.5040  -29.8930   23.7250 C   0  0  0  0  0  3  0  0  0  0  0  0
  -16.6910  -28.6340   23.1290 C   0  0  0  0  0  3  0  0  0  0  0  0
  -25.8480  -32.4980   23.8750 C   0  0  0  0  0  3  0  0  0  0  0  0
  -25.5440  -33.8990   24.1980 N   0  0  0  0  0  0  0  0  0  0  0  0
  -25.8900  -34.9460   23.4370 C   0  0  0  0  0  0  0  0  0  0  0  0
  -26.5690  -34.8340   22.4110 O   0  0  0  0  0  0  0  0  0  0  0  0
  -24.9440  -34.0610   24.9930 H   0  0  0  0  0  0  0  0  0  0  0  0
  -24.1750  -36.7460   23.0590 C   0  0  0  0  0  1  0  0  0  0  0  0
  -25.4060  -36.3400   23.8840 C   0  0  0  0  0  3  0  0  0  0  0  0
  -27.5390  -37.2150   24.7280 C   0  0  0  0  0  1  0  0  0  0  0  0
  -26.4460  -37.3860   23.7740 N   0  0  0  0  0  0  0  0  0  0  0  0
  -26.0440  -38.3090   23.9150 H   0  0  0  0  0  0  0  0  0  0  0  0
  -26.3550  -31.7290   25.1560 C   0  0  1  0  0  0  0  0  0  0  0  0
  -25.2550  -31.4980   26.2190 C   0  0  0  0  0  1  0  0  0  0  0  0
  -26.9330  -30.3490   24.7680 C   0  0  0  0  0  1  0  0  0  0  0  0
  -27.5070  -32.5190   25.8200 C   0  0  0  0  0  1  0  0  0  0  0  0
  -29.1990  -19.2300   20.7590 C   0  0  0  0  0  2  0  0  0  0  0  0
  -29.8430  -17.8680   20.3070 C   0  0  0  0  0  2  0  0  0  0  0  0
  -30.1560  -16.8570   21.4510 C   0  0  0  0  0  2  0  0  0  0  0  0
  -30.6110  -14.4940   20.5490 C   0  0  0  0  0  0  0  0  0  0  0  0
  -30.3710  -12.3410   19.3460 C   0  0  0  0  0  2  0  0  0  0  0  0
  -29.4180  -12.5380   18.1480 C   0  0  0  0  0  2  0  0  0  0  0  0
  -27.9440  -12.3870   18.5760 C   0  0  0  0  0  2  0  0  0  0  0  0
  -27.6040  -13.2080   19.8490 C   0  0  0  0  0  3  0  0  0  0  0  0
  -28.6560  -12.9560   20.9500 C   0  0  0  0  0  2  0  0  0  0  0  0
  -29.9770  -13.2980   20.3910 N   0  0  0  0  0  0  0  0  0  0  0  0
  -31.7310  -14.7310   20.0890 O   0  0  0  0  0  0  0  0  0  0  0  0
  -29.8560  -15.4460   21.1370 N   0  0  0  0  0  0  0  0  0  0  0  0
  -28.9510  -15.1180   21.4420 H   0  0  0  0  0  0  0  0  0  0  0  0
  -25.2000  -13.8140   20.5450 C   0  0  0  0  0  0  0  0  0  0  0  0
  -24.1330  -13.0400   20.9130 C   0  0  0  0  0  0  0  0  0  0  0  0
  -24.5980  -11.6890   20.8880 C   0  0  0  0  0  0  0  0  0  0  0  0
  -26.2480  -12.9340   20.3210 N   0  0  0  0  0  0  0  0  0  0  0  0
  -25.8900  -11.6520   20.5840 N   0  0  0  0  0  0  0  0  0  0  0  0
  -23.8760  -10.4250   21.0800 C   0  0  0  0  0  0  0  0  0  0  0  0
  -24.3200   -9.4540   22.0040 C   0  0  0  0  0  3  0  0  0  0  0  0
  -23.5990   -8.2540   22.1830 C   0  0  0  0  0  3  0  0  0  0  0  0
  -22.4210   -8.0170   21.4370 C   0  0  0  0  0  0  0  0  0  0  0  0
  -21.9960   -8.9760   20.5000 C   0  0  0  0  0  3  0  0  0  0  0  0
  -22.7180  -10.1680   20.3200 C   0  0  0  0  0  3  0  0  0  0  0  0
  -21.6700   -6.8700   21.5260 O   0  0  0  0  0  0  0  0  0  0  0  0
  -21.6440   -6.1140   22.6700 C   0  0  0  0  0  0  0  0  0  0  0  0
  -21.2480   -6.6560   23.9120 C   0  0  0  0  0  3  0  0  0  0  0  0
  -21.1690   -5.8270   25.0500 C   0  0  0  0  0  3  0  0  0  0  0  0
  -21.4730   -4.4570   24.9450 C   0  0  0  0  0  0  0  0  0  0  0  0
  -21.8630   -3.9140   23.7080 C   0  0  0  0  0  3  0  0  0  0  0  0
  -21.9440   -4.7410   22.5730 C   0  0  0  0  0  0  0  0  0  0  0  0
  -22.2990   -4.2080   21.3790 F   0  0  0  0  0  0  0  0  0  0  0  0
  -21.3900   -3.6580   26.0350 F   0  0  0  0  0  0  0  0  0  0  0  0
  -22.7330  -13.5130   21.1800 C   0  0  0  0  0  0  0  0  0  0  0  0
  -22.0060  -12.8180   22.0480 N   0  0  0  0  0  0  0  0  0  0  0  0
  -22.2910  -14.5330   20.6530 O   0  0  0  0  0  0  0  0  0  0  0  0
  -22.3750  -11.9920   22.4940 H   0  0  0  0  0  0  0  0  0  0  0  0
  -21.0670  -13.1150   22.2690 H   0  0  0  0  0  0  0  0  0  0  0  0
  -25.3620  -15.1840   20.3640 N   0  0  0  0  0  0  0  0  0  0  0  0
  -24.5920  -15.8360   20.4630 H   0  0  0  0  0  0  0  0  0  0  0  0
  -26.2090  -15.6220   20.0260 H   0  0  0  0  0  0  0  0  0  0  0  0
  1  2  1  6
  1 15  1  0
  1 60  1  0
  3  1  1  0
  4  6  1  0
  5  8  1  0
  5  7  1  0
  7  9  1  0
  8 10  1  0
  8  4  1  0
  9  6  1  0
  9  3  1  0
 10 11  1  0
 11 12  1  0
 13 11  1  0
 14 11  1  0
 15 16  1  0
 17 16  1  0
 17 18  1  0
 19 21  1  0
 19 18  1  0
 20 31  2  0
 21 26  1  0
 22 30  1  0
 22 32  1  0
 23 29  1  0
 23 25  1  0
 24 30  1  0
 25 24  1  0
 26 25  2  0
 27 21  2  0
 28 27  1  0
 28 23  2  0
 29 22  1  0
 30 20  1  0
 32 34  2  0
 33 32  1  0
 35 33  1  0
 36 45  2  0
 36 41  1  0
 37 33  1  0
 37 41  1  0
 38 37  1  0
 39 40  1  0
 39 38  1  0
 40 36  1  0
 41 42  2  0
 42 43  1  0
 44 43  2  0
 45 44  1  0
 46 20  1  0
 46 47  1  0
 46 56  1  0
 47 50  1  0
 48 52  1  0
 48 47  1  0
 49 48  2  0
 52 51  1  0
 54 52  1  0
 54 55  1  0
 54 53  1  0
 56 59  1  1
 56 57  1  0
 58 56  1  0
 61 60  1  0
 61 62  1  0
 63 71  1  0
 64 69  1  0
 65 66  1  0
 65 64  1  0
 67 66  1  0
 67 76  1  0
 67 68  1  0
 69 63  1  0
 69 68  1  0
 70 63  2  0
 71 72  1  0
 71 62  1  0
 73 74  2  0
 74 93  1  0
 75 74  1  0
 75 78  1  0
 76 73  1  0
 76 77  1  0
 77 75  2  0
 78 79  1  0
 79 80  2  0
 81 84  1  0
 81 80  1  0
 82 81  2  0
 83 82  1  0
 83 78  2  0
 84 85  1  0
 85 86  1  0
 86 87  2  0
 88 87  1  0
 88 92  1  0
 89 88  2  0
 90 85  2  0
 90 89  1  0
 91 90  1  0
 93 94  1  0
 94 97  1  0
 94 96  1  0
 95 93  2  0
 98 99  1  0
 98 73  1  0
100 98  1  0
M  ISO  4  18 101  19 101  63 100  71 100
M  END
>  <TORSDO>  (35) 
F 27

>  <SCORE>  (35) 
-11.861

>  <name>  (35) 
34

>  <ligand_id>  (35) 
34

>  <original_smiles>  (35) 
[H]c1c([H])c([H])c2c(c1[H])C([H])([H])C([H])([H])C([H])([H])C2([H])N([H])C(=O)C1([H])N(C(=O)C([H])(N([H])C(=O)C([H])(N([H])C([H])([H])[H])C([H])([H])[H])C(C([H])([H])[H])(C([H])([H])[H])C([H])([H])[H])C([H])([H])c2c([H])c(OC([H])([H])C([H])([H])C([H])([H])C([H])([H])[N+]([H])(C([H])([H])C([H])([H])C([H])([H])N([H])C(=O)N3C([H])([H])C([H])([H])C([H])([H])C([H])(n4nc(-c5c([H])c([H])c(Oc6c([H])c([H])c(F)c([H])c6F)c([H])c5[H])c(C(=O)N([H])[H])c4N([H])[H])C3([H])[H])C([H])([H])C3([H])C([H])([H])C([H])([H])C([H])(C([H])([H])[N+]([H])([H])[H])C([H])([H])C3([H])[H])c([H])c([H])c2C1([H])[H]

>  <smiles>  (35) 
[H]c1c([H])c([H])c2c(c1[H])C([H])([H])C([H])([H])C([H])([H])C2([H])N([H])C(=O)C1([H])N(C(=O)C([H])(N([H])C(=O)C([H])(N([H])C([H])([H])[H])C([H])([H])[H])C(C([H])([H])[H])(C([H])([H])[H])C([H])([H])[H])C([H])([H])c2c([H])c(OC([H])([H])C([H])([H])C([H])([H])C([H])([H])[N+]([H])(C([H])([H])C([H])([H])C([H])([H])N([H])C(=O)N3C([H])([H])C([H])([H])C([H])([H])C([H])(n4nc(-c5c([H])c([H])c(Oc6c([H])c([H])c(F)c([H])c6F)c([H])c5[H])c(C(=O)N([H])[H])c4N([H])[H])C3([H])[H])C([H])([H])C3([H])C([H])([H])C([H])([H])C([H])(C([H])([H])[N+]([H])([H])[H])C([H])([H])C3([H])[H])c([H])c([H])c2C1([H])[H]

$$$$
35:0:0
     RDKit          3D

 93101  0  0  1  0  0  0  0  0999 V2000
  -30.4390  -23.4230   21.5230 C   0  0  0  0  0  2  0  0  0  0  0  0
  -30.0300  -21.9170   21.3750 C   0  0  0  0  0  2  0  0  0  0  0  0
  -28.7200  -23.0550   19.4970 C   0  0  0  0  0  2  0  0  0  0  0  0
  -29.3480  -24.5600   21.5270 C   0  0  0  0  0  3  0  0  0  0  0  0
  -28.3670  -24.6060   20.3110 C   0  0  0  0  0  3  0  0  0  0  0  0
  -29.1100  -21.6230   20.2450 N   0  0  1  0  0  4  0  0  0  0  0  0
  -28.2490  -21.4570   20.7470 H   0  0  0  0  0  0  0  0  0  0  0  0
  -28.3520  -26.2150   19.8960 O   0  0  0  0  0  0  0  0  0  0  0  0
  -24.6300  -31.9800   23.1480 C   0  0  0  0  0  0  0  0  0  0  0  0
  -27.2830  -27.2530   19.9800 C   0  0  0  0  0  0  0  0  0  0  0  0
  -23.4620  -30.6150   21.4660 C   0  0  0  0  0  3  0  0  0  0  0  0
  -24.9400  -29.0800   19.9990 C   0  0  0  0  0  0  0  0  0  0  0  0
  -26.0230  -30.8850   21.3200 C   0  0  0  0  0  2  0  0  0  0  0  0
  -26.1220  -29.4950   20.6240 C   0  0  0  0  0  0  0  0  0  0  0  0
  -27.2910  -28.6080   20.5820 C   0  0  0  0  0  3  0  0  0  0  0  0
  -26.0630  -26.9850   19.3230 C   0  0  0  0  0  3  0  0  0  0  0  0
  -24.9340  -27.8460   19.3290 C   0  0  0  0  0  3  0  0  0  0  0  0
  -23.7040  -29.9770   20.0700 C   0  0  0  0  0  2  0  0  0  0  0  0
  -24.7260  -31.1860   22.0320 N   0  0  0  0  0  0  0  0  0  0  0  0
  -23.5360  -32.2290   23.6800 O   0  0  0  0  0  0  0  0  0  0  0  0
  -22.7910  -29.5740   22.3990 C   0  0  0  0  0  0  0  0  0  0  0  0
  -21.4590  -29.4060   22.2910 N   0  0  0  0  0  0  0  0  0  0  0  0
  -23.4740  -28.9170   23.1880 O   0  0  0  0  0  0  0  0  0  0  0  0
  -20.9600  -29.9880   21.6330 H   0  0  0  0  0  0  0  0  0  0  0  0
  -18.0770  -28.2510   22.9180 C   0  0  0  0  0  0  0  0  0  0  0  0
  -20.6560  -28.4300   23.0340 C   0  0  0  0  0  3  0  0  0  0  0  0
  -20.6760  -27.0480   22.3380 C   0  0  0  0  0  2  0  0  0  0  0  0
  -19.5030  -26.8400   21.3750 C   0  0  0  0  0  2  0  0  0  0  0  0
  -18.1690  -26.9630   22.1180 C   0  0  0  0  0  2  0  0  0  0  0  0
  -19.2430  -28.9490   23.3340 C   0  0  0  0  0  0  0  0  0  0  0  0
  -19.0980  -30.1570   24.0480 C   0  0  0  0  0  3  0  0  0  0  0  0
  -17.8220  -30.6690   24.3470 C   0  0  0  0  0  3  0  0  0  0  0  0
  -16.6720  -29.9700   23.9420 C   0  0  0  0  0  3  0  0  0  0  0  0
  -16.8000  -28.7620   23.2340 C   0  0  0  0  0  3  0  0  0  0  0  0
  -25.8880  -32.6290   23.8020 C   0  0  0  0  0  3  0  0  0  0  0  0
  -26.3950  -31.8460   25.0760 C   0  0  1  0  0  0  0  0  0  0  0  0
  -25.2890  -31.5690   26.1200 C   0  0  0  0  0  1  0  0  0  0  0  0
  -27.0130  -30.4850   24.6780 C   0  0  0  0  0  1  0  0  0  0  0  0
  -27.5180  -32.6510   25.7720 C   0  0  0  0  0  1  0  0  0  0  0  0
  -25.5470  -34.0160   24.1630 N   0  0  0  0  0  0  0  0  0  0  0  0
  -25.8220  -35.0950   23.4170 C   0  0  0  0  0  0  0  0  0  0  0  0
  -26.4520  -35.0270   22.3580 O   0  0  0  0  0  0  0  0  0  0  0  0
  -24.9800  -34.1390   24.9900 H   0  0  0  0  0  0  0  0  0  0  0  0
  -24.0300  -36.8500   23.1850 C   0  0  0  0  0  1  0  0  0  0  0  0
  -25.3220  -36.4640   23.9220 C   0  0  0  0  0  3  0  0  0  0  0  0
  -27.4610  -37.4130   24.6720 C   0  0  0  0  0  1  0  0  0  0  0  0
  -26.3190  -37.5480   23.7720 N   0  0  0  0  0  0  0  0  0  0  0  0
  -25.8920  -38.4560   23.9350 H   0  0  0  0  0  0  0  0  0  0  0  0
  -28.7060  -24.8840   22.9050 C   0  0  0  0  0  2  0  0  0  0  0  0
  -27.8490  -23.8280   23.4820 N   0  0  0  0  0  4  0  0  0  0  0  0
  -28.3700  -22.9990   23.7000 H   0  0  0  0  0  0  0  0  0  0  0  0
  -27.0630  -23.5980   22.8990 H   0  0  0  0  0  0  0  0  0  0  0  0
  -27.4730  -24.1640   24.3520 H   0  0  0  0  0  0  0  0  0  0  0  0
  -29.2850  -20.0750   19.6070 C   0  0  0  0  0  2  0  0  0  0  0  0
  -29.9890  -18.5570   20.3010 C   0  0  0  0  0  2  0  0  0  0  0  0
  -30.6030  -15.6530   19.8900 C   0  0  0  0  0  0  0  0  0  0  0  0
  -30.5600  -13.2080   18.9970 C   0  0  0  0  0  2  0  0  0  0  0  0
  -29.5800  -12.9750   17.8200 C   0  0  0  0  0  2  0  0  0  0  0  0
  -28.1570  -12.6960   18.3360 C   0  0  0  0  0  2  0  0  0  0  0  0
  -27.7530  -13.6640   19.4760 C   0  0  0  0  0  3  0  0  0  0  0  0
  -28.8560  -13.8290   20.5410 C   0  0  0  0  0  2  0  0  0  0  0  0
  -30.0400  -14.3470   19.8360 N   0  0  0  0  0  0  0  0  0  0  0  0
  -31.8260  -15.6570   19.6850 O   0  0  0  0  0  0  0  0  0  0  0  0
  -29.8190  -16.9160   19.9710 N   0  0  0  0  0  0  0  0  0  0  0  0
  -28.8400  -16.6750   19.9530 H   0  0  0  0  0  0  0  0  0  0  0  0
  -25.4310  -14.2150   20.3700 C   0  0  0  0  0  0  0  0  0  0  0  0
  -24.3870  -13.4350   20.7790 C   0  0  0  0  0  0  0  0  0  0  0  0
  -24.8460  -12.0850   20.6960 C   0  0  0  0  0  0  0  0  0  0  0  0
  -26.4550  -13.3420   20.0530 N   0  0  0  0  0  0  0  0  0  0  0  0
  -26.1200  -12.0520   20.3180 N   0  0  0  0  0  0  0  0  0  0  0  0
  -24.1240  -10.8210   20.8970 C   0  0  0  0  0  0  0  0  0  0  0  0
  -24.5440   -9.8720   21.8540 C   0  0  0  0  0  3  0  0  0  0  0  0
  -23.8190   -8.6760   22.0440 C   0  0  0  0  0  3  0  0  0  0  0  0
  -22.6590   -8.4190   21.2740 C   0  0  0  0  0  0  0  0  0  0  0  0
  -22.2580   -9.3560   20.3050 C   0  0  0  0  0  3  0  0  0  0  0  0
  -22.9850  -10.5440   20.1140 C   0  0  0  0  0  3  0  0  0  0  0  0
  -21.9070   -7.2730   21.3700 O   0  0  0  0  0  0  0  0  0  0  0  0
  -21.7880   -6.5880   22.5530 C   0  0  0  0  0  0  0  0  0  0  0  0
  -21.1770   -7.1640   23.6880 C   0  0  0  0  0  3  0  0  0  0  0  0
  -21.0130   -6.4000   24.8610 C   0  0  0  0  0  3  0  0  0  0  0  0
  -21.4480   -5.0630   24.8990 C   0  0  0  0  0  0  0  0  0  0  0  0
  -22.0500   -4.4860   23.7670 C   0  0  0  0  0  3  0  0  0  0  0  0
  -22.2170   -5.2460   22.5960 C   0  0  0  0  0  0  0  0  0  0  0  0
  -22.7790   -4.6800   21.5010 F   0  0  0  0  0  0  0  0  0  0  0  0
  -21.2830   -4.3260   26.0230 F   0  0  0  0  0  0  0  0  0  0  0  0
  -23.0070  -13.9110   21.1250 C   0  0  0  0  0  0  0  0  0  0  0  0
  -22.3200  -13.2040   22.0140 N   0  0  0  0  0  0  0  0  0  0  0  0
  -22.5500  -14.9470   20.6430 O   0  0  0  0  0  0  0  0  0  0  0  0
  -22.7040  -12.3650   22.4240 H   0  0  0  0  0  0  0  0  0  0  0  0
  -21.3950  -13.5040   22.2890 H   0  0  0  0  0  0  0  0  0  0  0  0
  -25.5860  -15.5900   20.2100 N   0  0  0  0  0  0  0  0  0  0  0  0
  -24.8210  -16.2370   20.3680 H   0  0  0  0  0  0  0  0  0  0  0  0
  -26.3990  -16.0320   19.8040 H   0  0  0  0  0  0  0  0  0  0  0  0
  1  4  1  0
  2  1  1  0
  3  6  1  0
  3  5  1  0
  4 49  1  0
  5  8  1  0
  5  4  1  0
  6  7  1  1
  6  2  1  0
  8 10  1  0
  9 20  2  0
 10 15  1  0
 11 19  1  0
 11 21  1  0
 12 18  1  0
 12 14  1  0
 13 19  1  0
 14 13  1  0
 15 14  2  0
 16 17  1  0
 16 10  2  0
 17 12  2  0
 18 11  1  0
 19  9  1  0
 21 23  2  0
 22 21  1  0
 24 22  1  0
 25 34  2  0
 25 30  1  0
 26 22  1  0
 26 30  1  0
 27 26  1  0
 28 29  1  0
 28 27  1  0
 29 25  1  0
 30 31  2  0
 31 32  1  0
 33 32  2  0
 34 33  1  0
 35  9  1  0
 35 40  1  0
 35 36  1  0
 36 39  1  1
 36 37  1  0
 38 36  1  0
 40 43  1  0
 41 45  1  0
 41 40  1  0
 42 41  2  0
 45 44  1  0
 47 45  1  0
 47 48  1  0
 47 46  1  0
 49 50  1  0
 50 51  1  0
 50 53  1  0
 52 50  1  0
 54  6  1  0
 54 55  1  0
 56 64  1  0
 57 62  1  0
 58 59  1  0
 58 57  1  0
 60 59  1  0
 60 69  1  0
 60 61  1  0
 62 56  1  0
 62 61  1  0
 63 56  2  0
 64 55  1  0
 65 64  1  0
 66 67  2  0
 67 86  1  0
 68 67  1  0
 68 71  1  0
 69 70  1  0
 69 66  1  0
 70 68  2  0
 71 72  1  0
 72 73  2  0
 74 77  1  0
 74 73  1  0
 75 74  2  0
 76 75  1  0
 76 71  2  0
 77 78  1  0
 78 83  2  0
 78 79  1  0
 79 80  2  0
 80 81  1  0
 81 85  1  0
 82 81  2  0
 83 82  1  0
 84 83  1  0
 86 87  1  0
 87 90  1  0
 87 89  1  0
 88 86  2  0
 91 92  1  0
 91 66  1  0
 93 91  1  0
M  ISO  4   5 101   8 101  56 100  64 100
M  END
>  <TORSDO>  (36) 
F 20

>  <SCORE>  (36) 
-13.986

>  <name>  (36) 
35

>  <ligand_id>  (36) 
35

>  <original_smiles>  (36) 
[H]c1c([H])c([H])c2c(c1[H])C([H])([H])C([H])([H])C([H])([H])C2([H])N([H])C(=O)C1([H])N(C(=O)C([H])(N([H])C(=O)C([H])(N([H])C([H])([H])[H])C([H])([H])[H])C(C([H])([H])[H])(C([H])([H])[H])C([H])([H])[H])C([H])([H])c2c([H])c(OC3([H])C([H])(C([H])([H])[N+]([H])([H])[H])C([H])([H])C([H])([H])[N+]([H])(C([H])([H])C([H])([H])N([H])C(=O)N4C([H])([H])C([H])([H])C([H])([H])C([H])(n5nc(-c6c([H])c([H])c(Oc7c([H])c([H])c(F)c([H])c7F)c([H])c6[H])c(C(=O)N([H])[H])c5N([H])[H])C4([H])[H])C3([H])[H])c([H])c([H])c2C1([H])[H]

>  <smiles>  (36) 
[H]c1c([H])c([H])c2c(c1[H])C([H])([H])C([H])([H])C([H])([H])C2([H])N([H])C(=O)C1([H])N(C(=O)C([H])(N([H])C(=O)C([H])(N([H])C([H])([H])[H])C([H])([H])[H])C(C([H])([H])[H])(C([H])([H])[H])C([H])([H])[H])C([H])([H])c2c([H])c(OC3([H])C([H])(C([H])([H])[N+]([H])([H])[H])C([H])([H])C([H])([H])[N+]([H])(C([H])([H])C([H])([H])N([H])C(=O)N4C([H])([H])C([H])([H])C([H])([H])C([H])(n5nc(-c6c([H])c([H])c(Oc7c([H])c([H])c(F)c([H])c7F)c([H])c6[H])c(C(=O)N([H])[H])c5N([H])[H])C4([H])[H])C3([H])[H])c([H])c([H])c2C1([H])[H]

$$$$
36:0:0
     RDKit          3D

 96105  0  0  1  0  0  0  0  0999 V2000
  -27.5570  -21.4280   20.9880 C   0  0  0  0  0  2  0  0  0  0  0  0
  -27.4630  -20.3400   19.9010 C   0  0  0  0  0  2  0  0  0  0  0  0
  -29.7110  -20.6080   18.6650 C   0  0  0  0  0  2  0  0  0  0  0  0
  -29.8970  -21.0860   22.0730 C   0  0  0  0  0  2  0  0  0  0  0  0
  -29.4710  -22.1330   18.7880 C   0  0  0  0  0  2  0  0  0  0  0  0
  -30.4810  -19.8390   21.3790 C   0  0  0  0  0  2  0  0  0  0  0  0
  -28.9570  -22.0270   21.2810 C   0  0  0  0  0  3  0  0  0  0  0  0
  -28.7950  -19.6770   19.5090 C   0  0  0  0  0  3  0  0  0  0  0  0
  -29.6020  -22.7570   20.1390 N   0  0  2  0  0  4  0  0  0  0  0  0
  -29.4560  -19.0110   20.6790 N   0  0  1  0  0  4  0  0  0  0  0  0
  -30.5920  -22.8160   20.3340 H   0  0  0  0  0  0  0  0  0  0  0  0
  -28.7160  -18.8700   21.3540 H   0  0  0  0  0  0  0  0  0  0  0  0
  -29.1360  -24.1750   20.0750 C   0  0  0  0  0  2  0  0  0  0  0  0
  -29.8420  -25.1350   21.0570 C   0  0  0  0  0  2  0  0  0  0  0  0
  -29.0180  -26.4130   21.2830 C   0  0  0  0  0  2  0  0  0  0  0  0
  -28.5510  -26.8830   20.0240 O   0  0  0  0  0  0  0  0  0  0  0  0
  -24.5630  -31.8540   23.2020 C   0  0  0  0  0  0  0  0  0  0  0  0
  -27.3700  -27.5770   20.0740 C   0  0  0  0  0  0  0  0  0  0  0  0
  -23.4130  -30.4600   21.5090 C   0  0  0  0  0  3  0  0  0  0  0  0
  -24.9280  -28.9830   20.0820 C   0  0  0  0  0  0  0  0  0  0  0  0
  -25.9270  -30.8880   21.3610 C   0  0  0  0  0  2  0  0  0  0  0  0
  -26.0580  -29.5320   20.7070 C   0  0  0  0  0  0  0  0  0  0  0  0
  -27.2810  -28.8310   20.7130 C   0  0  0  0  0  3  0  0  0  0  0  0
  -26.2350  -27.0330   19.4430 C   0  0  0  0  0  3  0  0  0  0  0  0
  -25.0090  -27.7260   19.4540 C   0  0  0  0  0  3  0  0  0  0  0  0
  -23.6610  -29.8050   20.1220 C   0  0  0  0  0  2  0  0  0  0  0  0
  -24.6500  -31.0810   22.0840 N   0  0  0  0  0  0  0  0  0  0  0  0
  -23.4690  -32.0920   23.7330 O   0  0  0  0  0  0  0  0  0  0  0  0
  -22.7690  -29.4070   22.4400 C   0  0  0  0  0  0  0  0  0  0  0  0
  -21.4480  -29.2170   22.3020 N   0  0  0  0  0  0  0  0  0  0  0  0
  -23.4570  -28.7630   23.2370 O   0  0  0  0  0  0  0  0  0  0  0  0
  -20.9550  -29.7880   21.6300 H   0  0  0  0  0  0  0  0  0  0  0  0
  -18.0750  -28.0280   22.7970 C   0  0  0  0  0  0  0  0  0  0  0  0
  -20.6370  -28.2510   23.0420 C   0  0  0  0  0  3  0  0  0  0  0  0
  -20.7190  -26.8470   22.4000 C   0  0  0  0  0  2  0  0  0  0  0  0
  -19.6010  -26.5810   21.3880 C   0  0  0  0  0  2  0  0  0  0  0  0
  -18.2290  -26.7110   22.0550 C   0  0  0  0  0  2  0  0  0  0  0  0
  -19.2060  -28.7590   23.2460 C   0  0  0  0  0  0  0  0  0  0  0  0
  -19.0100  -29.9960   23.8970 C   0  0  0  0  0  3  0  0  0  0  0  0
  -17.7120  -30.5020   24.1050 C   0  0  0  0  0  3  0  0  0  0  0  0
  -16.5950  -29.7660   23.6740 C   0  0  0  0  0  3  0  0  0  0  0  0
  -16.7770  -28.5310   23.0260 C   0  0  0  0  0  3  0  0  0  0  0  0
  -25.8280  -32.4960   23.8550 C   0  0  0  0  0  3  0  0  0  0  0  0
  -25.4940  -33.8860   24.1920 N   0  0  0  0  0  0  0  0  0  0  0  0
  -25.8620  -34.9530   23.4700 C   0  0  0  0  0  0  0  0  0  0  0  0
  -26.5910  -34.8700   22.4770 O   0  0  0  0  0  0  0  0  0  0  0  0
  -24.8560  -34.0240   24.9620 H   0  0  0  0  0  0  0  0  0  0  0  0
  -24.1800  -36.7620   23.0110 C   0  0  0  0  0  1  0  0  0  0  0  0
  -25.3400  -36.3300   23.9210 C   0  0  0  0  0  3  0  0  0  0  0  0
  -27.3900  -37.1810   24.9720 C   0  0  0  0  0  1  0  0  0  0  0  0
  -26.3820  -37.3790   23.9330 N   0  0  0  0  0  0  0  0  0  0  0  0
  -25.9670  -38.2970   24.0650 H   0  0  0  0  0  0  0  0  0  0  0  0
  -26.3330  -31.7170   25.1310 C   0  0  1  0  0  0  0  0  0  0  0  0
  -25.2240  -31.4460   26.1730 C   0  0  0  0  0  1  0  0  0  0  0  0
  -26.9500  -30.3560   24.7300 C   0  0  0  0  0  1  0  0  0  0  0  0
  -27.4560  -32.5240   25.8270 C   0  0  0  0  0  1  0  0  0  0  0  0
  -29.8750  -17.6120   20.3560 C   0  0  0  0  0  2  0  0  0  0  0  0
  -30.5310  -16.8290   21.5220 C   0  0  0  0  0  2  0  0  0  0  0  0
  -31.0430  -14.5430   20.5660 C   0  0  0  0  0  0  0  0  0  0  0  0
  -30.7730  -12.4350   19.3120 C   0  0  0  0  0  2  0  0  0  0  0  0
  -29.8250  -12.6680   18.1170 C   0  0  0  0  0  2  0  0  0  0  0  0
  -28.3460  -12.5370   18.5370 C   0  0  0  0  0  2  0  0  0  0  0  0
  -28.0140  -13.3630   19.8060 C   0  0  0  0  0  3  0  0  0  0  0  0
  -29.0470  -13.0500   20.9100 C   0  0  0  0  0  2  0  0  0  0  0  0
  -30.3920  -13.3670   20.3800 N   0  0  0  0  0  0  0  0  0  0  0  0
  -32.0980  -14.8490   20.0030 O   0  0  0  0  0  0  0  0  0  0  0  0
  -30.3680  -15.3910   21.3510 N   0  0  0  0  0  0  0  0  0  0  0  0
  -29.5430  -14.9880   21.7750 H   0  0  0  0  0  0  0  0  0  0  0  0
  -25.6170  -14.0290   20.4870 C   0  0  0  0  0  0  0  0  0  0  0  0
  -24.5280  -13.2790   20.8430 C   0  0  0  0  0  0  0  0  0  0  0  0
  -24.9600  -11.9180   20.8040 C   0  0  0  0  0  0  0  0  0  0  0  0
  -26.6460  -13.1250   20.2640 N   0  0  0  0  0  0  0  0  0  0  0  0
  -26.2500  -11.8500   20.5070 N   0  0  0  0  0  0  0  0  0  0  0  0
  -24.2070  -10.6690   20.9790 C   0  0  0  0  0  0  0  0  0  0  0  0
  -24.5720   -9.7180   21.9570 C   0  0  0  0  0  3  0  0  0  0  0  0
  -23.8240   -8.5330   22.1160 C   0  0  0  0  0  3  0  0  0  0  0  0
  -22.6950   -8.2910   21.2970 C   0  0  0  0  0  0  0  0  0  0  0  0
  -22.3500   -9.2290   20.3090 C   0  0  0  0  0  3  0  0  0  0  0  0
  -23.1000  -10.4060   20.1480 C   0  0  0  0  0  3  0  0  0  0  0  0
  -21.9220   -7.1550   21.3640 O   0  0  0  0  0  0  0  0  0  0  0  0
  -21.7340   -6.4830   22.5440 C   0  0  0  0  0  0  0  0  0  0  0  0
  -21.1280   -7.0950   23.6630 C   0  0  0  0  0  3  0  0  0  0  0  0
  -20.8910   -6.3450   24.8330 C   0  0  0  0  0  3  0  0  0  0  0  0
  -21.2480   -4.9850   24.8830 C   0  0  0  0  0  0  0  0  0  0  0  0
  -21.8470   -4.3730   23.7670 C   0  0  0  0  0  3  0  0  0  0  0  0
  -22.0860   -5.1190   22.6010 C   0  0  0  0  0  0  0  0  0  0  0  0
  -22.6440   -4.5180   21.5210 F   0  0  0  0  0  0  0  0  0  0  0  0
  -21.0140   -4.2630   26.0040 F   0  0  0  0  0  0  0  0  0  0  0  0
  -23.1390  -13.7820   21.1100 C   0  0  0  0  0  0  0  0  0  0  0  0
  -22.3950  -13.1000   21.9750 N   0  0  0  0  0  0  0  0  0  0  0  0
  -22.7200  -14.8140   20.5860 O   0  0  0  0  0  0  0  0  0  0  0  0
  -22.7450  -12.2640   22.4200 H   0  0  0  0  0  0  0  0  0  0  0  0
  -21.4610  -13.4160   22.1940 H   0  0  0  0  0  0  0  0  0  0  0  0
  -25.8160  -15.3970   20.3180 N   0  0  0  0  0  0  0  0  0  0  0  0
  -25.0620  -16.0700   20.4030 H   0  0  0  0  0  0  0  0  0  0  0  0
  -26.6640  -15.7970   19.9420 H   0  0  0  0  0  0  0  0  0  0  0  0
  2  1  1  0
  3  5  1  0
  5  9  1  0
  6  4  1  0
  7  1  1  0
  7  4  1  0
  8  3  1  0
  8  2  1  0
  8 10  1  0
  9 11  1  1
  9  7  1  0
 10 12  1  1
 10  6  1  0
 13  9  1  0
 13 14  1  0
 14 15  1  0
 16 18  1  0
 16 15  1  0
 17 28  2  0
 18 23  1  0
 19 27  1  0
 19 29  1  0
 20 26  1  0
 20 22  1  0
 21 27  1  0
 22 23  2  0
 22 21  1  0
 24 25  1  0
 24 18  2  0
 25 20  2  0
 26 19  1  0
 27 17  1  0
 29 31  2  0
 30 29  1  0
 32 30  1  0
 33 42  2  0
 33 38  1  0
 34 30  1  0
 34 38  1  0
 35 34  1  0
 36 37  1  0
 36 35  1  0
 37 33  1  0
 38 39  2  0
 39 40  1  0
 41 40  2  0
 42 41  1  0
 43 17  1  0
 43 44  1  0
 43 53  1  0
 44 47  1  0
 45 49  1  0
 45 44  1  0
 46 45  2  0
 49 48  1  0
 49 51  1  0
 51 52  1  0
 51 50  1  0
 53 56  1  1
 53 54  1  0
 55 53  1  0
 57 10  1  0
 57 58  1  0
 59 67  1  0
 60 65  1  0
 61 62  1  0
 61 60  1  0
 63 62  1  0
 63 72  1  0
 63 64  1  0
 65 59  1  0
 65 64  1  0
 66 59  2  0
 67 58  1  0
 67 68  1  0
 69 70  2  0
 70 89  1  0
 71 70  1  0
 71 74  1  0
 72 69  1  0
 72 73  1  0
 73 71  2  0
 74 75  1  0
 75 76  2  0
 77 80  1  0
 77 76  1  0
 78 77  2  0
 79 78  1  0
 79 74  2  0
 80 81  1  0
 81 86  2  0
 81 82  1  0
 82 83  2  0
 83 84  1  0
 84 88  1  0
 85 84  2  0
 86 85  1  0
 87 86  1  0
 89 90  1  0
 90 93  1  0
 90 92  1  0
 91 89  2  0
 94 95  1  0
 94 69  1  0
 96 94  1  0
M  ISO  4  15 101  16 101  59 100  67 100
M  END
>  <TORSDO>  (37) 
F 21

>  <SCORE>  (37) 
-13.221

>  <name>  (37) 
36

>  <ligand_id>  (37) 
36

>  <original_smiles>  (37) 
[H]c1c([H])c([H])c2c(c1[H])C([H])([H])C([H])([H])C([H])([H])C2([H])N([H])C(=O)C1([H])N(C(=O)C([H])(N([H])C(=O)C([H])(N([H])C([H])([H])[H])C([H])([H])[H])C(C([H])([H])[H])(C([H])([H])[H])C([H])([H])[H])C([H])([H])c2c([H])c(OC([H])([H])C([H])([H])C([H])([H])[N+]3([H])C([H])([H])C([H])([H])C4([H])C([H])([H])C([H])([H])C3([H])C([H])([H])C([H])([H])[N+]4([H])C([H])([H])C([H])([H])N([H])C(=O)N3C([H])([H])C([H])([H])C([H])([H])C([H])(n4nc(-c5c([H])c([H])c(Oc6c([H])c([H])c(F)c([H])c6F)c([H])c5[H])c(C(=O)N([H])[H])c4N([H])[H])C3([H])[H])c([H])c([H])c2C1([H])[H]

>  <smiles>  (37) 
[H]c1c([H])c([H])c2c(c1[H])C([H])([H])C([H])([H])C([H])([H])C2([H])N([H])C(=O)C1([H])N(C(=O)C([H])(N([H])C(=O)C([H])(N([H])C([H])([H])[H])C([H])([H])[H])C(C([H])([H])[H])(C([H])([H])[H])C([H])([H])[H])C([H])([H])c2c([H])c(OC([H])([H])C([H])([H])C([H])([H])[N+]3([H])C([H])([H])C([H])([H])C4([H])C([H])([H])C([H])([H])C3([H])C([H])([H])C([H])([H])[N+]4([H])C([H])([H])C([H])([H])N([H])C(=O)N3C([H])([H])C([H])([H])C([H])([H])C([H])(n4nc(-c5c([H])c([H])c(Oc6c([H])c([H])c(F)c([H])c6F)c([H])c5[H])c(C(=O)N([H])[H])c4N([H])[H])C3([H])[H])c([H])c([H])c2C1([H])[H]

$$$$
37:0:0
     RDKit          3D

 94103  0  0  1  0  0  0  0  0999 V2000
  -26.8700  -23.1030   22.0580 C   0  0  0  0  0  2  0  0  0  0  0  0
  -27.6570  -24.1110   22.9270 C   0  0  0  0  0  2  0  0  0  0  0  0
  -27.1240  -23.2380   20.5360 C   0  0  0  0  0  2  0  0  0  0  0  0
  -27.7770  -25.4660   22.2320 C   0  0  0  0  0  2  0  0  0  0  0  0
  -28.5060  -23.8360   20.2370 C   0  0  0  0  0  3  0  0  0  0  0  0
  -28.5420  -25.3470   20.8860 C   0  0  0  0  0  3  0  0  0  0  0  0
  -28.3620  -26.6070   20.0910 O   0  0  0  0  0  0  0  0  0  0  0  0
  -24.5820  -31.9610   23.1980 C   0  0  0  0  0  0  0  0  0  0  0  0
  -27.2090  -27.4180   20.1370 C   0  0  0  0  0  0  0  0  0  0  0  0
  -23.3750  -30.5570   21.5650 C   0  0  0  0  0  3  0  0  0  0  0  0
  -24.8230  -29.0090   20.1300 C   0  0  0  0  0  0  0  0  0  0  0  0
  -25.9070  -30.9000   21.3540 C   0  0  0  0  0  2  0  0  0  0  0  0
  -25.9910  -29.5160   20.7160 C   0  0  0  0  0  0  0  0  0  0  0  0
  -27.1880  -28.7340   20.7000 C   0  0  0  0  0  3  0  0  0  0  0  0
  -26.0190  -26.9610   19.5340 C   0  0  0  0  0  3  0  0  0  0  0  0
  -24.8420  -27.7430   19.5210 C   0  0  0  0  0  3  0  0  0  0  0  0
  -23.5740  -29.8660   20.1880 C   0  0  0  0  0  2  0  0  0  0  0  0
  -24.6410  -31.1610   22.0960 N   0  0  0  0  0  0  0  0  0  0  0  0
  -23.5030  -32.2310   23.7470 O   0  0  0  0  0  0  0  0  0  0  0  0
  -22.7290  -29.5410   22.5360 C   0  0  0  0  0  0  0  0  0  0  0  0
  -21.3990  -29.3710   22.4310 N   0  0  0  0  0  0  0  0  0  0  0  0
  -23.4190  -28.9070   23.3380 O   0  0  0  0  0  0  0  0  0  0  0  0
  -20.9030  -29.9360   21.7570 H   0  0  0  0  0  0  0  0  0  0  0  0
  -18.0290  -28.1630   22.9420 C   0  0  0  0  0  0  0  0  0  0  0  0
  -20.5890  -28.4240   23.1970 C   0  0  0  0  0  3  0  0  0  0  0  0
  -20.6900  -26.9980   22.6080 C   0  0  0  0  0  2  0  0  0  0  0  0
  -19.5810  -26.6780   21.6000 C   0  0  0  0  0  2  0  0  0  0  0  0
  -18.2040  -26.8180   22.2570 C   0  0  0  0  0  2  0  0  0  0  0  0
  -19.1510  -28.9240   23.3690 C   0  0  0  0  0  0  0  0  0  0  0  0
  -18.9330  -30.1820   23.9710 C   0  0  0  0  0  3  0  0  0  0  0  0
  -17.6300  -30.6810   24.1480 C   0  0  0  0  0  3  0  0  0  0  0  0
  -16.5240  -29.9160   23.7400 C   0  0  0  0  0  3  0  0  0  0  0  0
  -16.7240  -28.6600   23.1430 C   0  0  0  0  0  3  0  0  0  0  0  0
  -25.8670  -32.5940   23.8140 C   0  0  0  0  0  3  0  0  0  0  0  0
  -26.4040  -31.8150   25.0780 C   0  0  1  0  0  0  0  0  0  0  0  0
  -25.3300  -31.5700   26.1630 C   0  0  0  0  0  1  0  0  0  0  0  0
  -26.9790  -30.4380   24.6650 C   0  0  0  0  0  1  0  0  0  0  0  0
  -27.5730  -32.6020   25.7200 C   0  0  0  0  0  1  0  0  0  0  0  0
  -25.5520  -33.9890   24.1500 N   0  0  0  0  0  0  0  0  0  0  0  0
  -25.9100  -35.0500   23.4140 C   0  0  0  0  0  0  0  0  0  0  0  0
  -26.5990  -34.9540   22.3940 O   0  0  0  0  0  0  0  0  0  0  0  0
  -24.9110  -34.1320   24.9170 H   0  0  0  0  0  0  0  0  0  0  0  0
  -24.1900  -36.8550   23.0670 C   0  0  0  0  0  1  0  0  0  0  0  0
  -25.4250  -36.4370   23.8810 C   0  0  0  0  0  3  0  0  0  0  0  0
  -27.5590  -37.3070   24.7320 C   0  0  0  0  0  1  0  0  0  0  0  0
  -26.4640  -37.4850   23.7820 N   0  0  0  0  0  0  0  0  0  0  0  0
  -26.0640  -38.4080   23.9250 H   0  0  0  0  0  0  0  0  0  0  0  0
  -29.5560  -22.6730   20.7090 C   0  0  0  0  0  2  0  0  0  0  0  0
  -30.0280  -21.4260   19.7900 C   0  0  0  0  0  2  0  0  0  0  0  0
  -30.5290  -18.9440   20.5120 C   0  0  0  0  0  0  0  0  0  0  0  0
  -29.7050  -19.9650   20.0790 N   0  0  0  0  0  0  0  0  0  0  0  0
  -31.3160  -19.1370   21.4380 O   0  0  0  0  0  0  0  0  0  0  0  0
  -28.9890  -19.5950   19.4660 H   0  0  0  0  0  0  0  0  0  0  0  0
  -30.6440  -14.9980   20.2860 C   0  0  0  0  0  0  0  0  0  0  0  0
  -30.4120  -12.6670   19.4100 C   0  0  0  0  0  2  0  0  0  0  0  0
  -29.5040  -12.6180   18.1660 C   0  0  0  0  0  2  0  0  0  0  0  0
  -28.0390  -12.3840   18.5890 C   0  0  0  0  0  2  0  0  0  0  0  0
  -27.5920  -13.3380   19.7210 C   0  0  0  0  0  3  0  0  0  0  0  0
  -28.6450  -13.4710   20.8540 C   0  0  0  0  0  2  0  0  0  0  0  0
  -29.9480  -13.7970   20.2510 N   0  0  0  0  0  0  0  0  0  0  0  0
  -31.8770  -14.9550   20.2420 O   0  0  0  0  0  0  0  0  0  0  0  0
  -28.7060  -17.5150   18.3740 C   0  0  0  0  0  2  0  0  0  0  0  0
  -30.1720  -17.8500   18.2390 C   0  0  0  0  0  2  0  0  0  0  0  0
  -28.7820  -16.2450   19.2120 C   0  0  0  0  0  2  0  0  0  0  0  0
  -30.6530  -17.5800   19.6730 C   0  0  0  0  0  3  0  0  0  0  0  0
  -30.0040  -16.2310   20.0330 N   0  0  0  0  0  0  0  0  0  0  0  0
  -25.2270  -13.9790   20.4250 C   0  0  0  0  0  0  0  0  0  0  0  0
  -24.1520  -13.2180   20.7870 C   0  0  0  0  0  0  0  0  0  0  0  0
  -24.6150  -11.8680   20.7950 C   0  0  0  0  0  0  0  0  0  0  0  0
  -26.2630  -13.0770   20.2240 N   0  0  0  0  0  0  0  0  0  0  0  0
  -25.9080  -11.8100   20.5200 N   0  0  0  0  0  0  0  0  0  0  0  0
  -23.8880  -10.6150   20.9900 C   0  0  0  0  0  0  0  0  0  0  0  0
  -24.3070   -9.6640   21.9450 C   0  0  0  0  0  3  0  0  0  0  0  0
  -23.5800   -8.4710   22.1270 C   0  0  0  0  0  3  0  0  0  0  0  0
  -22.4220   -8.2230   21.3530 C   0  0  0  0  0  0  0  0  0  0  0  0
  -22.0250   -9.1600   20.3850 C   0  0  0  0  0  3  0  0  0  0  0  0
  -22.7540  -10.3460   20.1990 C   0  0  0  0  0  3  0  0  0  0  0  0
  -21.6660   -7.0820   21.4490 O   0  0  0  0  0  0  0  0  0  0  0  0
  -21.6050   -6.3590   22.6130 C   0  0  0  0  0  0  0  0  0  0  0  0
  -21.1780   -6.9360   23.8280 C   0  0  0  0  0  3  0  0  0  0  0  0
  -21.0610   -6.1360   24.9840 C   0  0  0  0  0  3  0  0  0  0  0  0
  -21.3660   -4.7630   24.9230 C   0  0  0  0  0  0  0  0  0  0  0  0
  -21.7940   -4.1890   23.7140 C   0  0  0  0  0  3  0  0  0  0  0  0
  -21.9110   -4.9850   22.5610 C   0  0  0  0  0  0  0  0  0  0  0  0
  -22.3020   -4.4230   21.3920 F   0  0  0  0  0  0  0  0  0  0  0  0
  -21.2470   -3.9930   26.0290 F   0  0  0  0  0  0  0  0  0  0  0  0
  -22.7550  -13.7070   21.0130 C   0  0  0  0  0  0  0  0  0  0  0  0
  -22.0090  -13.0320   21.8810 N   0  0  0  0  0  0  0  0  0  0  0  0
  -22.3310  -14.7190   20.4550 O   0  0  0  0  0  0  0  0  0  0  0  0
  -22.3700  -12.2100   22.3460 H   0  0  0  0  0  0  0  0  0  0  0  0
  -21.0660  -13.3340   22.0770 H   0  0  0  0  0  0  0  0  0  0  0  0
  -25.3850  -15.3450   20.2210 N   0  0  0  0  0  0  0  0  0  0  0  0
  -24.6090  -15.9910   20.3180 H   0  0  0  0  0  0  0  0  0  0  0  0
  -26.2400  -15.7920   19.9170 H   0  0  0  0  0  0  0  0  0  0  0  0
  1  2  1  0
  3  1  1  0
  4  2  1  0
  5  3  1  0
  5 48  1  0
  5  6  1  0
  6  7  1  0
  6  4  1  0
  7  9  1  0
  8 19  2  0
  9 14  1  0
 10 18  1  0
 10 20  1  0
 11 17  1  0
 11 13  1  0
 12 18  1  0
 13 12  1  0
 14 13  2  0
 15  9  2  0
 16 15  1  0
 16 11  2  0
 17 10  1  0
 18  8  1  0
 20 22  2  0
 21 20  1  0
 23 21  1  0
 24 33  2  0
 24 29  1  0
 25 21  1  0
 25 29  1  0
 26 25  1  0
 27 28  1  0
 27 26  1  0
 28 24  1  0
 29 30  2  0
 30 31  1  0
 32 31  2  0
 33 32  1  0
 34  8  1  0
 34 39  1  0
 34 35  1  0
 35 38  1  1
 35 36  1  0
 37 35  1  0
 39 42  1  0
 40 44  1  0
 40 39  1  0
 41 40  2  0
 44 43  1  0
 46 44  1  0
 46 47  1  0
 46 45  1  0
 49 51  1  0
 49 48  1  0
 50 52  2  0
 51 50  1  0
 53 51  1  0
 55 60  1  0
 56 57  1  0
 56 55  1  0
 58 57  1  0
 58 70  1  0
 58 59  1  0
 60 54  1  0
 60 59  1  0
 61 54  2  0
 62 64  1  0
 63 62  1  0
 63 65  1  0
 64 66  1  0
 65 66  1  0
 65 50  1  0
 66 54  1  0
 67 68  2  0
 68 69  1  0
 68 87  1  0
 69 72  1  0
 70 67  1  0
 70 71  1  0
 71 69  2  0
 72 73  1  0
 73 74  2  0
 75 78  1  0
 75 74  1  0
 76 75  2  0
 77 76  1  0
 77 72  2  0
 78 79  1  0
 79 80  1  0
 80 81  2  0
 82 81  1  0
 82 86  1  0
 83 82  2  0
 84 79  2  0
 84 83  1  0
 85 84  1  0
 87 88  1  0
 88 91  1  0
 88 90  1  0
 89 87  2  0
 92 93  1  0
 92 67  1  0
 94 92  1  0
M  ISO  4   6 101   7 101  54 100  66 100
M  END
>  <TORSDO>  (38) 
F 19

>  <SCORE>  (38) 
-13.371

>  <name>  (38) 
37

>  <ligand_id>  (38) 
37

>  <original_smiles>  (38) 
[H]c1c([H])c([H])c2c(c1[H])C([H])([H])C([H])([H])C([H])([H])C2([H])N([H])C(=O)C1([H])N(C(=O)C([H])(N([H])C(=O)C([H])(N([H])C([H])([H])[H])C([H])([H])[H])C(C([H])([H])[H])(C([H])([H])[H])C([H])([H])[H])C([H])([H])c2c([H])c(OC3([H])C([H])([H])C([H])([H])C([H])([H])C([H])([H])C3([H])C([H])([H])C([H])([H])N([H])C(=O)C3([H])N(C(=O)N4C([H])([H])C([H])([H])C([H])([H])C([H])(n5nc(-c6c([H])c([H])c(Oc7c([H])c([H])c(F)c([H])c7F)c([H])c6[H])c(C(=O)N([H])[H])c5N([H])[H])C4([H])[H])C([H])([H])C([H])([H])C3([H])[H])c([H])c([H])c2C1([H])[H]

>  <smiles>  (38) 
[H]c1c([H])c([H])c2c(c1[H])C([H])([H])C([H])([H])C([H])([H])C2([H])N([H])C(=O)C1([H])N(C(=O)C([H])(N([H])C(=O)C([H])(N([H])C([H])([H])[H])C([H])([H])[H])C(C([H])([H])[H])(C([H])([H])[H])C([H])([H])[H])C([H])([H])c2c([H])c(OC3([H])C([H])([H])C([H])([H])C([H])([H])C([H])([H])C3([H])C([H])([H])C([H])([H])N([H])C(=O)C3([H])N(C(=O)N4C([H])([H])C([H])([H])C([H])([H])C([H])(n5nc(-c6c([H])c([H])c(Oc7c([H])c([H])c(F)c([H])c7F)c([H])c6[H])c(C(=O)N([H])[H])c5N([H])[H])C4([H])[H])C([H])([H])C([H])([H])C3([H])[H])c([H])c([H])c2C1([H])[H]

$$$$
38:0:0
     RDKit          3D

 93102  0  0  1  0  0  0  0  0999 V2000
  -30.1750  -19.8410   21.2850 C   0  0  0  0  0  2  0  0  0  0  0  0
  -27.8490  -19.9430   20.5320 C   0  0  0  0  0  2  0  0  0  0  0  0
  -30.4290  -21.2920   20.8590 C   0  0  0  0  0  2  0  0  0  0  0  0
  -28.0170  -21.4250   20.1090 C   0  0  0  0  0  2  0  0  0  0  0  0
  -29.1770  -19.2180   20.3040 C   0  0  0  0  0  3  0  0  0  0  0  0
  -29.1930  -22.1210   20.7270 N   0  0  2  0  0  4  0  0  0  0  0  0
  -28.9270  -22.3630   21.6710 H   0  0  0  0  0  0  0  0  0  0  0  0
  -29.1590  -17.6650   20.2770 C   0  0  0  0  0  2  0  0  0  0  0  0
  -31.0120  -14.6830   20.3580 C   0  0  0  0  0  0  0  0  0  0  0  0
  -30.7620  -12.3840   19.5870 C   0  0  0  0  0  2  0  0  0  0  0  0
  -29.8420  -12.3230   18.3430 C   0  0  0  0  0  2  0  0  0  0  0  0
  -28.3580  -12.3030   18.7330 C   0  0  0  0  0  2  0  0  0  0  0  0
  -27.9670  -13.3060   19.8520 C   0  0  0  0  0  3  0  0  0  0  0  0
  -28.9980  -13.3120   21.0020 C   0  0  0  0  0  2  0  0  0  0  0  0
  -30.3270  -13.5130   20.4140 N   0  0  0  0  0  0  0  0  0  0  0  0
  -32.2330  -14.7550   20.4820 O   0  0  0  0  0  0  0  0  0  0  0  0
  -31.7870  -16.6380   17.7890 C   0  0  0  0  0  2  0  0  0  0  0  0
  -31.0630  -17.7220   18.5220 C   0  0  0  0  0  2  0  0  0  0  0  0
  -30.9060  -15.4500   18.1210 C   0  0  0  0  0  2  0  0  0  0  0  0
  -30.5120  -17.0500   19.8020 C   0  0  0  0  0  3  0  0  0  0  0  0
  -30.4450  -15.5920   19.5220 N   0  0  0  0  0  0  0  0  0  0  0  0
  -25.5610  -13.9290   20.5150 C   0  0  0  0  0  0  0  0  0  0  0  0
  -24.4790  -13.1600   20.8570 C   0  0  0  0  0  0  0  0  0  0  0  0
  -24.9390  -11.8070   20.8560 C   0  0  0  0  0  0  0  0  0  0  0  0
  -26.6100  -13.0440   20.3260 N   0  0  0  0  0  0  0  0  0  0  0  0
  -26.2390  -11.7650   20.6000 N   0  0  0  0  0  0  0  0  0  0  0  0
  -24.2070  -10.5450   21.0300 C   0  0  0  0  0  0  0  0  0  0  0  0
  -24.6010   -9.5890   21.9910 C   0  0  0  0  0  3  0  0  0  0  0  0
  -23.8680   -8.3950   22.1560 C   0  0  0  0  0  3  0  0  0  0  0  0
  -22.7280   -8.1450   21.3560 C   0  0  0  0  0  0  0  0  0  0  0  0
  -22.3550   -9.0880   20.3830 C   0  0  0  0  0  3  0  0  0  0  0  0
  -23.0880  -10.2750   20.2170 C   0  0  0  0  0  3  0  0  0  0  0  0
  -21.9720   -7.0000   21.4280 O   0  0  0  0  0  0  0  0  0  0  0  0
  -21.8570   -6.2850   22.5940 C   0  0  0  0  0  0  0  0  0  0  0  0
  -21.3290   -6.8590   23.7710 C   0  0  0  0  0  3  0  0  0  0  0  0
  -21.1630   -6.0700   24.9250 C   0  0  0  0  0  3  0  0  0  0  0  0
  -21.5160   -4.7070   24.9050 C   0  0  0  0  0  0  0  0  0  0  0  0
  -22.0370   -4.1320   23.7340 C   0  0  0  0  0  3  0  0  0  0  0  0
  -22.2060   -4.9190   22.5800 C   0  0  0  0  0  0  0  0  0  0  0  0
  -22.6890   -4.3550   21.4470 F   0  0  0  0  0  0  0  0  0  0  0  0
  -21.3500   -3.9460   26.0130 F   0  0  0  0  0  0  0  0  0  0  0  0
  -23.0750  -13.6390   21.0800 C   0  0  0  0  0  0  0  0  0  0  0  0
  -22.3260  -12.9570   21.9390 N   0  0  0  0  0  0  0  0  0  0  0  0
  -22.6500  -14.6540   20.5280 O   0  0  0  0  0  0  0  0  0  0  0  0
  -22.6860  -12.1340   22.4000 H   0  0  0  0  0  0  0  0  0  0  0  0
  -21.3830  -13.2580   22.1390 H   0  0  0  0  0  0  0  0  0  0  0  0
  -25.7400  -15.2940   20.3240 N   0  0  0  0  0  0  0  0  0  0  0  0
  -24.9820  -15.9640   20.3980 H   0  0  0  0  0  0  0  0  0  0  0  0
  -26.6170  -15.7150   20.0480 H   0  0  0  0  0  0  0  0  0  0  0  0
  -29.5440  -23.3780   20.0090 C   0  0  0  0  0  2  0  0  0  0  0  0
  -28.6150  -24.5740   20.2660 C   0  0  0  0  0  2  0  0  0  0  0  0
  -29.1050  -25.7940   19.4600 C   0  0  0  0  0  2  0  0  0  0  0  0
  -28.8640  -27.0110   20.1470 O   0  0  0  0  0  0  0  0  0  0  0  0
  -24.6910  -31.8400   23.1840 C   0  0  0  0  0  0  0  0  0  0  0  0
  -27.6250  -27.6030   20.1050 C   0  0  0  0  0  0  0  0  0  0  0  0
  -23.6000  -30.4340   21.4630 C   0  0  0  0  0  3  0  0  0  0  0  0
  -25.1620  -28.9840   20.0660 C   0  0  0  0  0  0  0  0  0  0  0  0
  -26.1100  -30.9000   21.3670 C   0  0  0  0  0  2  0  0  0  0  0  0
  -26.2700  -29.5480   20.7070 C   0  0  0  0  0  0  0  0  0  0  0  0
  -27.5000  -28.8610   20.7310 C   0  0  0  0  0  3  0  0  0  0  0  0
  -26.4940  -27.0360   19.4720 C   0  0  0  0  0  3  0  0  0  0  0  0
  -25.2650  -27.7240   19.4500 C   0  0  0  0  0  3  0  0  0  0  0  0
  -23.8840  -29.7900   20.0800 C   0  0  0  0  0  2  0  0  0  0  0  0
  -24.8150  -31.0730   22.0650 N   0  0  0  0  0  0  0  0  0  0  0  0
  -23.5820  -32.0570   23.6910 O   0  0  0  0  0  0  0  0  0  0  0  0
  -22.9570  -29.3660   22.3760 C   0  0  0  0  0  0  0  0  0  0  0  0
  -21.6320  -29.1860   22.2420 N   0  0  0  0  0  0  0  0  0  0  0  0
  -23.6450  -28.7040   23.1570 O   0  0  0  0  0  0  0  0  0  0  0  0
  -21.1400  -29.7720   21.5820 H   0  0  0  0  0  0  0  0  0  0  0  0
  -18.2510  -28.0310   22.7630 C   0  0  0  0  0  0  0  0  0  0  0  0
  -20.8220  -28.2120   22.9690 C   0  0  0  0  0  3  0  0  0  0  0  0
  -20.8710  -26.8260   22.2860 C   0  0  0  0  0  2  0  0  0  0  0  0
  -19.7320  -26.6040   21.2870 C   0  0  0  0  0  2  0  0  0  0  0  0
  -18.3740  -26.7310   21.9840 C   0  0  0  0  0  2  0  0  0  0  0  0
  -19.4000  -28.7330   23.2110 C   0  0  0  0  0  0  0  0  0  0  0  0
  -19.2330  -29.9550   23.9000 C   0  0  0  0  0  3  0  0  0  0  0  0
  -17.9480  -30.4740   24.1430 C   0  0  0  0  0  3  0  0  0  0  0  0
  -16.8120  -29.7670   23.7100 C   0  0  0  0  0  3  0  0  0  0  0  0
  -16.9650  -28.5470   23.0260 C   0  0  0  0  0  3  0  0  0  0  0  0
  -25.9300  -32.5030   23.8660 C   0  0  0  0  0  3  0  0  0  0  0  0
  -26.4150  -31.7350   25.1550 C   0  0  1  0  0  0  0  0  0  0  0  0
  -25.2860  -31.4510   26.1730 C   0  0  0  0  0  1  0  0  0  0  0  0
  -27.0580  -30.3800   24.7750 C   0  0  0  0  0  1  0  0  0  0  0  0
  -27.5120  -32.5550   25.8740 C   0  0  0  0  0  1  0  0  0  0  0  0
  -25.5670  -33.8870   24.1910 N   0  0  0  0  0  0  0  0  0  0  0  0
  -25.8910  -34.9530   23.4450 C   0  0  0  0  0  0  0  0  0  0  0  0
  -26.5990  -34.8740   22.4360 O   0  0  0  0  0  0  0  0  0  0  0  0
  -24.9380  -34.0200   24.9690 H   0  0  0  0  0  0  0  0  0  0  0  0
  -24.1160  -36.6860   23.0360 C   0  0  0  0  0  1  0  0  0  0  0  0
  -25.3410  -36.3220   23.8880 C   0  0  0  0  0  3  0  0  0  0  0  0
  -27.4110  -37.2780   24.7980 C   0  0  0  0  0  1  0  0  0  0  0  0
  -26.3420  -37.4100   23.8130 N   0  0  0  0  0  0  0  0  0  0  0  0
  -25.8990  -38.3160   23.9450 H   0  0  0  0  0  0  0  0  0  0  0  0
  3  1  1  0
  4  2  1  0
  4  6  1  0
  5  8  1  0
  5  2  1  0
  5  1  1  0
  6  3  1  0
  6  7  1  1
  9 15  1  0
  9 16  2  0
 10 15  1  0
 11 12  1  0
 11 10  1  0
 13 12  1  0
 13 25  1  0
 13 14  1  0
 15 14  1  0
 17 19  1  0
 17 18  1  0
 18 20  1  0
 19 21  1  0
 20  8  1  0
 21 20  1  0
 21  9  1  0
 22 23  2  0
 23 42  1  0
 24 23  1  0
 24 27  1  0
 25 22  1  0
 25 26  1  0
 26 24  2  0
 27 28  1  0
 28 29  2  0
 30 33  1  0
 30 29  1  0
 31 30  2  0
 32 31  1  0
 32 27  2  0
 33 34  1  0
 34 35  1  0
 35 36  2  0
 37 36  1  0
 37 41  1  0
 38 37  2  0
 39 34  2  0
 39 38  1  0
 40 39  1  0
 42 43  1  0
 43 46  1  0
 43 45  1  0
 44 42  2  0
 47 48  1  0
 47 22  1  0
 49 47  1  0
 50 51  1  0
 50  6  1  0
 52 53  1  0
 52 51  1  0
 54 65  2  0
 55 53  1  0
 55 60  1  0
 56 64  1  0
 56 66  1  0
 57 63  1  0
 57 59  1  0
 58 64  1  0
 59 60  2  0
 59 58  1  0
 61 55  2  0
 62 61  1  0
 62 57  2  0
 63 56  1  0
 64 54  1  0
 66 68  2  0
 67 66  1  0
 69 67  1  0
 70 79  2  0
 70 75  1  0
 71 67  1  0
 71 75  1  0
 72 71  1  0
 73 74  1  0
 73 72  1  0
 74 70  1  0
 75 76  2  0
 76 77  1  0
 78 77  2  0
 79 78  1  0
 80 54  1  0
 80 85  1  0
 80 81  1  0
 81 84  1  1
 81 82  1  0
 83 81  1  0
 85 88  1  0
 86 90  1  0
 86 85  1  0
 87 86  2  0
 90 89  1  0
 92 90  1  0
 92 93  1  0
 92 91  1  0
M  ISO  4   9 100  21 100  52 101  53 101
M  END
>  <TORSDO>  (39) 
F 20

>  <SCORE>  (39) 
-13.218

>  <name>  (39) 
38

>  <ligand_id>  (39) 
38

>  <original_smiles>  (39) 
[H]c1c([H])c([H])c2c(c1[H])C([H])([H])C([H])([H])C([H])([H])C2([H])N([H])C(=O)C1([H])N(C(=O)C([H])(N([H])C(=O)C([H])(N([H])C([H])([H])[H])C([H])([H])[H])C(C([H])([H])[H])(C([H])([H])[H])C([H])([H])[H])C([H])([H])c2c([H])c(OC([H])([H])C([H])([H])C([H])([H])[N+]3([H])C([H])([H])C([H])([H])C([H])(C([H])([H])C4([H])N(C(=O)N5C([H])([H])C([H])([H])C([H])([H])C([H])(n6nc(-c7c([H])c([H])c(Oc8c([H])c([H])c(F)c([H])c8F)c([H])c7[H])c(C(=O)N([H])[H])c6N([H])[H])C5([H])[H])C([H])([H])C([H])([H])C4([H])[H])C([H])([H])C3([H])[H])c([H])c([H])c2C1([H])[H]

>  <smiles>  (39) 
[H]c1c([H])c([H])c2c(c1[H])C([H])([H])C([H])([H])C([H])([H])C2([H])N([H])C(=O)C1([H])N(C(=O)C([H])(N([H])C(=O)C([H])(N([H])C([H])([H])[H])C([H])([H])[H])C(C([H])([H])[H])(C([H])([H])[H])C([H])([H])[H])C([H])([H])c2c([H])c(OC([H])([H])C([H])([H])C([H])([H])[N+]3([H])C([H])([H])C([H])([H])C([H])(C([H])([H])C4([H])N(C(=O)N5C([H])([H])C([H])([H])C([H])([H])C([H])(n6nc(-c7c([H])c([H])c(Oc8c([H])c([H])c(F)c([H])c8F)c([H])c7[H])c(C(=O)N([H])[H])c6N([H])[H])C5([H])[H])C([H])([H])C([H])([H])C4([H])[H])C([H])([H])C3([H])[H])c([H])c([H])c2C1([H])[H]

$$$$
39:0:0
     RDKit          3D

 94102  0  0  1  0  0  0  0  0999 V2000
  -29.8210  -19.1230   20.1070 C   0  0  0  0  0  0  0  0  0  0  0  0
  -29.3520  -20.4140   20.4970 N   0  0  0  0  0  0  0  0  0  0  0  0
  -30.5760  -19.0710   19.1350 O   0  0  0  0  0  0  0  0  0  0  0  0
  -28.8470  -20.4110   21.3750 H   0  0  0  0  0  0  0  0  0  0  0  0
  -30.6840  -15.0980   20.7300 C   0  0  0  0  0  0  0  0  0  0  0  0
  -30.7400  -12.6290   20.1070 C   0  0  0  0  0  2  0  0  0  0  0  0
  -29.9430  -12.3380   18.8140 C   0  0  0  0  0  2  0  0  0  0  0  0
  -28.4420  -12.1370   19.1180 C   0  0  0  0  0  2  0  0  0  0  0  0
  -27.8720  -13.1650   20.1320 C   0  0  0  0  0  3  0  0  0  0  0  0
  -28.8240  -13.4080   21.3240 C   0  0  0  0  0  2  0  0  0  0  0  0
  -30.1250  -13.8130   20.7670 N   0  0  0  0  0  0  0  0  0  0  0  0
  -31.9160  -15.1720   20.7720 O   0  0  0  0  0  0  0  0  0  0  0  0
  -28.1500  -17.0530   18.8160 C   0  0  0  0  0  2  0  0  0  0  0  0
  -29.3720  -16.1110   18.8930 C   0  0  0  0  0  2  0  0  0  0  0  0
  -29.3750  -17.6380   20.7640 C   0  0  0  0  0  3  0  0  0  0  0  0
  -27.9150  -17.4070   20.2980 C   0  0  0  0  0  3  0  0  0  0  0  0
  -29.9080  -16.2160   20.2630 N   0  0  0  0  0  0  0  0  0  0  0  0
  -25.4270  -13.7250   20.6250 C   0  0  0  0  0  0  0  0  0  0  0  0
  -24.3510  -12.9490   20.9480 C   0  0  0  0  0  0  0  0  0  0  0  0
  -24.8370  -11.6100   20.9970 C   0  0  0  0  0  0  0  0  0  0  0  0
  -26.5050  -12.8620   20.5320 N   0  0  0  0  0  0  0  0  0  0  0  0
  -26.1510  -11.5840   20.8110 N   0  0  0  0  0  0  0  0  0  0  0  0
  -24.1080  -10.3450   21.1400 C   0  0  0  0  0  0  0  0  0  0  0  0
  -24.4760   -9.3960   22.1150 C   0  0  0  0  0  3  0  0  0  0  0  0
  -23.7520   -8.1920   22.2490 C   0  0  0  0  0  3  0  0  0  0  0  0
  -22.6450   -7.9330   21.4080 C   0  0  0  0  0  0  0  0  0  0  0  0
  -22.2980   -8.8710   20.4200 C   0  0  0  0  0  3  0  0  0  0  0  0
  -23.0230  -10.0680   20.2830 C   0  0  0  0  0  3  0  0  0  0  0  0
  -21.8970   -6.7830   21.4570 O   0  0  0  0  0  0  0  0  0  0  0  0
  -21.7550   -6.0680   22.6180 C   0  0  0  0  0  0  0  0  0  0  0  0
  -21.1640   -6.6270   23.7710 C   0  0  0  0  0  3  0  0  0  0  0  0
  -20.9700   -5.8310   24.9190 C   0  0  0  0  0  3  0  0  0  0  0  0
  -21.3590   -4.4790   24.9130 C   0  0  0  0  0  0  0  0  0  0  0  0
  -21.9460   -3.9180   23.7650 C   0  0  0  0  0  3  0  0  0  0  0  0
  -22.1400   -4.7120   22.6200 C   0  0  0  0  0  0  0  0  0  0  0  0
  -22.6830   -4.1610   21.5090 F   0  0  0  0  0  0  0  0  0  0  0  0
  -21.1700   -3.7130   26.0140 F   0  0  0  0  0  0  0  0  0  0  0  0
  -22.9320  -13.4160   21.0620 C   0  0  0  0  0  0  0  0  0  0  0  0
  -22.1360  -12.7650   21.9040 N   0  0  0  0  0  0  0  0  0  0  0  0
  -22.5370  -14.3990   20.4370 O   0  0  0  0  0  0  0  0  0  0  0  0
  -22.4690  -11.9740   22.4340 H   0  0  0  0  0  0  0  0  0  0  0  0
  -21.1760  -13.0630   22.0190 H   0  0  0  0  0  0  0  0  0  0  0  0
  -25.5410  -15.0760   20.3240 N   0  0  0  0  0  0  0  0  0  0  0  0
  -24.6020  -15.3530   20.0450 H   0  0  0  0  0  0  0  0  0  0  0  0
  -26.1770  -15.1600   19.5370 H   0  0  0  0  0  0  0  0  0  0  0  0
  -26.7690  -18.3970   20.6870 C   0  0  0  0  0  2  0  0  0  0  0  0
  -25.5870  -18.3240   19.8020 N   0  0  0  0  0  4  0  0  0  0  0  0
  -24.8420  -18.8910   20.1690 H   0  0  0  0  0  0  0  0  0  0  0  0
  -25.2480  -17.3770   19.7410 H   0  0  0  0  0  0  0  0  0  0  0  0
  -25.8060  -18.6700   18.8820 H   0  0  0  0  0  0  0  0  0  0  0  0
  -29.2910  -21.8130   19.7450 C   0  0  0  0  0  2  0  0  0  0  0  0
  -28.9690  -23.3360   20.4240 C   0  0  0  0  0  3  0  0  0  0  0  0
  -28.3740  -24.6850   19.5860 C   0  0  0  0  0  3  0  0  0  0  0  0
  -28.4150  -26.1980   19.9710 O   0  0  0  0  0  0  0  0  0  0  0  0
  -24.5950  -31.7080   22.9900 C   0  0  0  0  0  0  0  0  0  0  0  0
  -27.3190  -27.1390   19.8690 C   0  0  0  0  0  0  0  0  0  0  0  0
  -23.4360  -30.3170   21.3160 C   0  0  0  0  0  3  0  0  0  0  0  0
  -24.9350  -28.8180   19.8600 C   0  0  0  0  0  0  0  0  0  0  0  0
  -25.9800  -30.6540   21.1730 C   0  0  0  0  0  2  0  0  0  0  0  0
  -26.0960  -29.2820   20.4890 C   0  0  0  0  0  0  0  0  0  0  0  0
  -27.2790  -28.4530   20.4890 C   0  0  0  0  0  3  0  0  0  0  0  0
  -26.1350  -26.7900   19.1780 C   0  0  0  0  0  3  0  0  0  0  0  0
  -24.9670  -27.5860   19.1910 C   0  0  0  0  0  3  0  0  0  0  0  0
  -23.6800  -29.6770   19.9210 C   0  0  0  0  0  2  0  0  0  0  0  0
  -24.6880  -30.9140   21.8810 N   0  0  0  0  0  0  0  0  0  0  0  0
  -23.5030  -31.9540   23.5230 O   0  0  0  0  0  0  0  0  0  0  0  0
  -22.7850  -29.2710   22.2560 C   0  0  0  0  0  0  0  0  0  0  0  0
  -21.4520  -29.1150   22.1700 N   0  0  0  0  0  0  0  0  0  0  0  0
  -23.4790  -28.6030   23.0260 O   0  0  0  0  0  0  0  0  0  0  0  0
  -20.9490  -29.7130   21.5320 H   0  0  0  0  0  0  0  0  0  0  0  0
  -18.0780  -27.9530   22.7870 C   0  0  0  0  0  0  0  0  0  0  0  0
  -20.6510  -28.1480   22.9270 C   0  0  0  0  0  3  0  0  0  0  0  0
  -20.6870  -26.7500   22.2670 C   0  0  0  0  0  2  0  0  0  0  0  0
  -19.5250  -26.5110   21.2980 C   0  0  0  0  0  2  0  0  0  0  0  0
  -18.1830  -26.6440   22.0220 C   0  0  0  0  0  2  0  0  0  0  0  0
  -19.2350  -28.6660   23.1970 C   0  0  0  0  0  0  0  0  0  0  0  0
  -19.0770  -29.8950   23.8730 C   0  0  0  0  0  3  0  0  0  0  0  0
  -17.7960  -30.4090   24.1410 C   0  0  0  0  0  3  0  0  0  0  0  0
  -16.6530  -29.6930   23.7440 C   0  0  0  0  0  3  0  0  0  0  0  0
  -16.7960  -28.4640   23.0740 C   0  0  0  0  0  3  0  0  0  0  0  0
  -25.8540  -32.3630   23.6350 C   0  0  0  0  0  3  0  0  0  0  0  0
  -25.5000  -33.7400   24.0170 N   0  0  0  0  0  0  0  0  0  0  0  0
  -25.8130  -34.8320   23.3090 C   0  0  0  0  0  0  0  0  0  0  0  0
  -26.4930  -34.7890   22.2800 O   0  0  0  0  0  0  0  0  0  0  0  0
  -24.8930  -33.8460   24.8170 H   0  0  0  0  0  0  0  0  0  0  0  0
  -24.0510  -36.6040   23.0000 C   0  0  0  0  0  1  0  0  0  0  0  0
  -25.2830  -36.1870   23.8190 C   0  0  0  0  0  3  0  0  0  0  0  0
  -27.3690  -37.0850   24.7480 C   0  0  0  0  0  1  0  0  0  0  0  0
  -26.2920  -37.2650   23.7790 N   0  0  0  0  0  0  0  0  0  0  0  0
  -25.8620  -38.1700   23.9490 H   0  0  0  0  0  0  0  0  0  0  0  0
  -26.3950  -31.5680   24.8880 C   0  0  1  0  0  0  0  0  0  0  0  0
  -25.3140  -31.2750   25.9560 C   0  0  0  0  0  1  0  0  0  0  0  0
  -27.0120  -30.2160   24.4630 C   0  0  0  0  0  1  0  0  0  0  0  0
  -27.5280  -32.3710   25.5680 C   0  0  0  0  0  1  0  0  0  0  0  0
  1  2  1  0
  2  4  1  0
  3  1  2  0
  5 11  1  0
  5 12  2  0
  6 11  1  0
  7  8  1  0
  7  6  1  0
  9  8  1  0
  9 21  1  0
  9 10  1  0
 11 10  1  0
 13 14  1  0
 13 16  1  0
 14 17  1  0
 15  1  1  0
 16 46  1  0
 16 15  1  0
 17  5  1  0
 17 15  1  0
 18 19  2  0
 19 20  1  0
 19 38  1  0
 20 23  1  0
 21 18  1  0
 21 22  1  0
 22 20  2  0
 23 24  1  0
 24 25  2  0
 26 29  1  0
 26 25  1  0
 27 26  2  0
 28 27  1  0
 28 23  2  0
 29 30  1  0
 30 35  2  0
 30 31  1  0
 31 32  2  0
 33 32  1  0
 33 37  1  0
 34 33  2  0
 35 34  1  0
 36 35  1  0
 38 39  1  0
 39 42  1  0
 39 41  1  0
 40 38  2  0
 43 18  1  0
 44 43  1  0
 45 43  1  0
 47 48  1  0
 47 46  1  0
 49 47  1  0
 50 47  1  0
 51 52  1  0
 51  2  1  0
 53 54  1  0
 53 52  2  0
 55 66  2  0
 56 54  1  0
 56 61  1  0
 57 65  1  0
 57 67  1  0
 58 64  1  0
 58 60  1  0
 59 65  1  0
 60 61  2  0
 60 59  1  0
 62 63  1  0
 62 56  2  0
 63 58  2  0
 64 57  1  0
 65 55  1  0
 67 69  2  0
 68 67  1  0
 70 68  1  0
 71 80  2  0
 71 76  1  0
 72 68  1  0
 72 76  1  0
 73 72  1  0
 74 75  1  0
 74 73  1  0
 75 71  1  0
 76 77  2  0
 77 78  1  0
 79 78  2  0
 80 79  1  0
 81 55  1  0
 81 82  1  0
 81 91  1  0
 82 85  1  0
 83 87  1  0
 83 82  1  0
 84 83  2  0
 87 86  1  0
 89 87  1  0
 89 90  1  0
 89 88  1  0
 91 94  1  1
 91 92  1  0
 93 91  1  0
M  ISO  4   5 100  17 100  53 101  54 101
M  END
>  <TORSDO>  (40) 
F 21

>  <SCORE>  (40) 
-13.186

>  <name>  (40) 
39

>  <ligand_id>  (40) 
39

>  <original_smiles>  (40) 
[H]c1c([H])c([H])c2c(c1[H])C([H])([H])C([H])([H])C([H])([H])C2([H])N([H])C(=O)C1([H])N(C(=O)C([H])(N([H])C(=O)C([H])(N([H])C([H])([H])[H])C([H])([H])[H])C(C([H])([H])[H])(C([H])([H])[H])C([H])([H])[H])C([H])([H])c2c([H])c(OC([H])([H])C([H])([H])C([H])([H])N([H])C(=O)C3([H])N(C(=O)N4C([H])([H])C([H])([H])C([H])([H])C([H])(n5nc(-c6c([H])c([H])c(Oc7c([H])c([H])c(F)c([H])c7F)c([H])c6[H])c(C(=O)N([H])[H])c5N([H])[H])C4([H])[H])C([H])([H])C([H])([H])C3([H])C([H])([H])[N+]([H])([H])[H])c([H])c([H])c2C1([H])[H]

>  <smiles>  (40) 
[H]c1c([H])c([H])c2c(c1[H])C([H])([H])C([H])([H])C([H])([H])C2([H])N([H])C(=O)C1([H])N(C(=O)C([H])(N([H])C(=O)C([H])(N([H])C([H])([H])[H])C([H])([H])[H])C(C([H])([H])[H])(C([H])([H])[H])C([H])([H])[H])C([H])([H])c2c([H])c(OC([H])([H])C([H])([H])C([H])([H])N([H])C(=O)C3([H])N(C(=O)N4C([H])([H])C([H])([H])C([H])([H])C([H])(n5nc(-c6c([H])c([H])c(Oc7c([H])c([H])c(F)c([H])c7F)c([H])c6[H])c(C(=O)N([H])[H])c5N([H])[H])C4([H])[H])C([H])([H])C([H])([H])C3([H])C([H])([H])[N+]([H])([H])[H])c([H])c([H])c2C1([H])[H]

$$$$
40:0:0
     RDKit          3D

 96104  0  0  1  0  0  0  0  0999 V2000
  -29.2180  -22.9620   20.2570 N   0  0  0  0  0  0  0  0  0  0  0  0
  -29.5340  -22.7340   18.8380 C   0  0  0  0  0  2  0  0  0  0  0  0
  -27.2830  -19.4310   17.1430 C   0  0  0  0  0  3  0  0  0  0  0  0
  -28.6910  -19.4210   17.0860 C   0  0  0  0  0  3  0  0  0  0  0  0
  -26.6100  -20.5230   17.7230 C   0  0  0  0  0  3  0  0  0  0  0  0
  -29.4280  -20.4980   17.6220 C   0  0  0  0  0  3  0  0  0  0  0  0
  -27.3470  -21.5910   18.2680 C   0  0  0  0  0  3  0  0  0  0  0  0
  -28.7580  -21.5760   18.2380 C   0  0  0  0  0  0  0  0  0  0  0  0
  -29.9670  -22.0320   21.1370 C   0  0  0  0  0  2  0  0  0  0  0  0
  -29.3340  -20.6170   21.3770 C   0  0  0  0  0  2  0  0  0  0  0  0
  -30.0200  -19.5030   20.6620 N   0  0  0  0  0  4  0  0  0  0  0  0
  -29.9340  -19.6760   19.6740 H   0  0  0  0  0  0  0  0  0  0  0  0
  -30.9980  -19.5330   20.9050 H   0  0  0  0  0  0  0  0  0  0  0  0
  -29.5100  -18.1260   20.9450 C   0  0  0  0  0  2  0  0  0  0  0  0
  -30.4270  -17.0150   20.3560 C   0  0  0  0  0  2  0  0  0  0  0  0
  -30.6920  -14.5470   20.1960 C   0  0  0  0  0  0  0  0  0  0  0  0
  -30.3330  -12.3920   19.0680 C   0  0  0  0  0  2  0  0  0  0  0  0
  -29.3490  -12.5970   17.8970 C   0  0  0  0  0  2  0  0  0  0  0  0
  -27.9010  -12.4240   18.3910 C   0  0  0  0  0  2  0  0  0  0  0  0
  -27.6000  -13.2790   19.6500 C   0  0  0  0  0  3  0  0  0  0  0  0
  -28.6950  -13.0950   20.7260 C   0  0  0  0  0  2  0  0  0  0  0  0
  -29.9990  -13.3810   20.1070 N   0  0  0  0  0  0  0  0  0  0  0  0
  -31.8160  -14.6910   19.7080 O   0  0  0  0  0  0  0  0  0  0  0  0
  -30.0100  -15.6230   20.6430 N   0  0  0  0  0  0  0  0  0  0  0  0
  -29.0860  -15.4610   21.0140 H   0  0  0  0  0  0  0  0  0  0  0  0
  -25.2360  -13.8820   20.4670 C   0  0  0  0  0  0  0  0  0  0  0  0
  -24.1800  -13.1050   20.8610 C   0  0  0  0  0  0  0  0  0  0  0  0
  -24.6330  -11.7530   20.7850 C   0  0  0  0  0  0  0  0  0  0  0  0
  -26.2660  -13.0000   20.1780 N   0  0  0  0  0  0  0  0  0  0  0  0
  -25.9100  -11.7150   20.4280 N   0  0  0  0  0  0  0  0  0  0  0  0
  -23.9110  -10.4900   20.9740 C   0  0  0  0  0  0  0  0  0  0  0  0
  -24.3480   -9.5190   21.9030 C   0  0  0  0  0  3  0  0  0  0  0  0
  -23.6260   -8.3200   22.0790 C   0  0  0  0  0  3  0  0  0  0  0  0
  -22.4520   -8.0820   21.3270 C   0  0  0  0  0  0  0  0  0  0  0  0
  -22.0320   -9.0420   20.3870 C   0  0  0  0  0  3  0  0  0  0  0  0
  -22.7560  -10.2310   20.2090 C   0  0  0  0  0  3  0  0  0  0  0  0
  -21.6970   -6.9370   21.4140 O   0  0  0  0  0  0  0  0  0  0  0  0
  -21.6310   -6.2050   22.5730 C   0  0  0  0  0  0  0  0  0  0  0  0
  -21.1450   -6.7610   23.7780 C   0  0  0  0  0  3  0  0  0  0  0  0
  -21.0290   -5.9570   24.9280 C   0  0  0  0  0  3  0  0  0  0  0  0
  -21.3860   -4.5950   24.8740 C   0  0  0  0  0  0  0  0  0  0  0  0
  -21.8630   -4.0390   23.6750 C   0  0  0  0  0  3  0  0  0  0  0  0
  -21.9820   -4.8420   22.5270 C   0  0  0  0  0  0  0  0  0  0  0  0
  -22.4230   -4.2960   21.3680 F   0  0  0  0  0  0  0  0  0  0  0  0
  -21.2680   -3.8190   25.9760 F   0  0  0  0  0  0  0  0  0  0  0  0
  -22.7970  -13.5810   21.1990 C   0  0  0  0  0  0  0  0  0  0  0  0
  -22.0980  -12.8620   22.0700 N   0  0  0  0  0  0  0  0  0  0  0  0
  -22.3450  -14.6220   20.7240 O   0  0  0  0  0  0  0  0  0  0  0  0
  -22.4800  -12.0180   22.4700 H   0  0  0  0  0  0  0  0  0  0  0  0
  -21.1710  -13.1580   22.3400 H   0  0  0  0  0  0  0  0  0  0  0  0
  -25.4010  -15.2550   20.3050 N   0  0  0  0  0  0  0  0  0  0  0  0
  -24.6320  -15.9050   20.4240 H   0  0  0  0  0  0  0  0  0  0  0  0
  -26.2320  -15.6880   19.9250 H   0  0  0  0  0  0  0  0  0  0  0  0
  -29.4460  -24.3800   20.6350 C   0  0  0  0  0  2  0  0  0  0  0  0
  -28.3370  -25.3230   20.0780 C   0  0  0  0  0  2  0  0  0  0  0  0
  -28.4770  -26.7330   20.3610 O   0  0  0  0  0  0  0  0  0  0  0  0
  -24.5930  -31.9450   23.3030 C   0  0  0  0  0  0  0  0  0  0  0  0
  -27.3140  -27.4890   20.2860 C   0  0  0  0  0  0  0  0  0  0  0  0
  -23.4220  -30.5240   21.6560 C   0  0  0  0  0  3  0  0  0  0  0  0
  -24.9100  -29.0000   20.2530 C   0  0  0  0  0  0  0  0  0  0  0  0
  -25.9500  -30.9020   21.4860 C   0  0  0  0  0  2  0  0  0  0  0  0
  -26.0580  -29.5280   20.8550 C   0  0  0  0  0  0  0  0  0  0  0  0
  -27.2630  -28.7800   20.8680 C   0  0  0  0  0  3  0  0  0  0  0  0
  -26.1430  -26.9950   19.6580 C   0  0  0  0  0  3  0  0  0  0  0  0
  -24.9500  -27.7360   19.6470 C   0  0  0  0  0  3  0  0  0  0  0  0
  -23.6530  -29.8420   20.2830 C   0  0  0  0  0  2  0  0  0  0  0  0
  -24.6740  -31.1370   22.2080 N   0  0  0  0  0  0  0  0  0  0  0  0
  -23.5000  -32.2120   23.8240 O   0  0  0  0  0  0  0  0  0  0  0  0
  -22.7650  -29.5010   22.6110 C   0  0  0  0  0  0  0  0  0  0  0  0
  -21.4430  -29.3140   22.4700 N   0  0  0  0  0  0  0  0  0  0  0  0
  -23.4440  -28.8770   23.4300 O   0  0  0  0  0  0  0  0  0  0  0  0
  -20.9560  -29.8730   21.7840 H   0  0  0  0  0  0  0  0  0  0  0  0
  -18.0620  -28.1300   22.9640 C   0  0  0  0  0  0  0  0  0  0  0  0
  -20.6220  -28.3710   23.2300 C   0  0  0  0  0  3  0  0  0  0  0  0
  -20.7170  -26.9450   22.6380 C   0  0  0  0  0  2  0  0  0  0  0  0
  -19.6100  -26.6380   21.6260 C   0  0  0  0  0  2  0  0  0  0  0  0
  -18.2300  -26.7860   22.2740 C   0  0  0  0  0  2  0  0  0  0  0  0
  -19.1860  -28.8810   23.3970 C   0  0  0  0  0  0  0  0  0  0  0  0
  -18.9780  -30.1420   23.9970 C   0  0  0  0  0  3  0  0  0  0  0  0
  -17.6760  -30.6500   24.1700 C   0  0  0  0  0  3  0  0  0  0  0  0
  -16.5660  -29.8930   23.7550 C   0  0  0  0  0  3  0  0  0  0  0  0
  -16.7600  -28.6350   23.1570 C   0  0  0  0  0  3  0  0  0  0  0  0
  -25.8620  -32.5920   23.9400 C   0  0  0  0  0  3  0  0  0  0  0  0
  -26.3550  -31.8430   25.2390 C   0  0  1  0  0  0  0  0  0  0  0  0
  -25.2380  -31.6000   26.2810 C   0  0  0  0  0  1  0  0  0  0  0  0
  -26.9690  -30.4720   24.8730 C   0  0  0  0  0  1  0  0  0  0  0  0
  -27.4780  -32.6620   25.9200 C   0  0  0  0  0  1  0  0  0  0  0  0
  -25.5460  -33.9950   24.2370 N   0  0  0  0  0  0  0  0  0  0  0  0
  -25.9000  -35.0330   23.4670 C   0  0  0  0  0  0  0  0  0  0  0  0
  -26.5980  -34.9080   22.4550 O   0  0  0  0  0  0  0  0  0  0  0  0
  -24.9400  -34.1650   25.0260 H   0  0  0  0  0  0  0  0  0  0  0  0
  -24.1890  -36.8200   23.0170 C   0  0  0  0  0  1  0  0  0  0  0  0
  -25.4000  -36.4290   23.8810 C   0  0  0  0  0  3  0  0  0  0  0  0
  -27.5020  -37.3290   24.7740 C   0  0  0  0  0  1  0  0  0  0  0  0
  -26.4390  -37.4780   23.7840 N   0  0  0  0  0  0  0  0  0  0  0  0
  -26.0310  -38.4020   23.8940 H   0  0  0  0  0  0  0  0  0  0  0  0
  1 54  1  0
  1  9  1  0
  2  1  1  0
  3  5  1  0
  4  3  2  0
  4  6  1  0
  5  7  2  0
  6  8  2  0
  8  7  1  0
  8  2  1  0
  9 10  1  0
 11 13  1  0
 11 14  1  0
 11 10  1  0
 12 11  1  0
 15 24  1  0
 15 14  1  0
 16 24  1  0
 17 22  1  0
 18 19  1  0
 18 17  1  0
 20 19  1  0
 20 29  1  0
 20 21  1  0
 22 16  1  0
 22 21  1  0
 23 16  2  0
 24 25  1  0
 26 27  2  0
 27 46  1  0
 28 27  1  0
 28 31  1  0
 29 30  1  0
 29 26  1  0
 30 28  2  0
 31 32  1  0
 32 33  2  0
 34 37  1  0
 34 33  1  0
 35 34  2  0
 36 35  1  0
 36 31  2  0
 37 38  1  0
 38 39  1  0
 39 40  2  0
 41 40  1  0
 41 45  1  0
 42 41  2  0
 43 38  2  0
 43 42  1  0
 44 43  1  0
 46 47  1  0
 47 50  1  0
 47 49  1  0
 48 46  2  0
 51 52  1  0
 51 26  1  0
 53 51  1  0
 55 56  1  0
 55 54  1  0
 57 68  2  0
 58 56  1  0
 58 63  1  0
 59 67  1  0
 59 69  1  0
 60 66  1  0
 60 62  1  0
 61 67  1  0
 62 63  2  0
 62 61  1  0
 64 58  2  0
 65 64  1  0
 65 60  2  0
 66 59  1  0
 67 57  1  0
 69 71  2  0
 70 69  1  0
 72 70  1  0
 73 82  2  0
 73 78  1  0
 74 70  1  0
 74 78  1  0
 75 74  1  0
 76 77  1  0
 76 75  1  0
 77 73  1  0
 78 79  2  0
 79 80  1  0
 81 80  2  0
 82 81  1  0
 83 57  1  0
 83 88  1  0
 83 84  1  0
 84 87  1  1
 84 85  1  0
 86 84  1  0
 88 91  1  0
 89 93  1  0
 89 88  1  0
 90 89  2  0
 93 92  1  0
 95 93  1  0
 95 96  1  0
 95 94  1  0
M  ISO  4  16 100  24 100  55 101  56 101
M  END
>  <TORSDO>  (41) 
F 25

>  <SCORE>  (41) 
-12.343

>  <name>  (41) 
40

>  <ligand_id>  (41) 
40

>  <original_smiles>  (41) 
[H]c1c([H])c([H])c(C([H])([H])N(C([H])([H])C([H])([H])Oc2c([H])c([H])c3c(c2[H])C([H])([H])N(C(=O)C([H])(N([H])C(=O)C([H])(N([H])C([H])([H])[H])C([H])([H])[H])C(C([H])([H])[H])(C([H])([H])[H])C([H])([H])[H])C([H])(C(=O)N([H])C2([H])c4c([H])c([H])c([H])c([H])c4C([H])([H])C([H])([H])C2([H])[H])C3([H])[H])C([H])([H])C([H])([H])[N+]([H])([H])C([H])([H])C([H])([H])N([H])C(=O)N2C([H])([H])C([H])([H])C([H])([H])C([H])(n3nc(-c4c([H])c([H])c(Oc5c([H])c([H])c(F)c([H])c5F)c([H])c4[H])c(C(=O)N([H])[H])c3N([H])[H])C2([H])[H])c([H])c1[H]

>  <smiles>  (41) 
[H]c1c([H])c([H])c(C([H])([H])N(C([H])([H])C([H])([H])Oc2c([H])c([H])c3c(c2[H])C([H])([H])N(C(=O)C([H])(N([H])C(=O)C([H])(N([H])C([H])([H])[H])C([H])([H])[H])C(C([H])([H])[H])(C([H])([H])[H])C([H])([H])[H])C([H])(C(=O)N([H])C2([H])c4c([H])c([H])c([H])c([H])c4C([H])([H])C([H])([H])C2([H])[H])C3([H])[H])C([H])([H])C([H])([H])[N+]([H])([H])C([H])([H])C([H])([H])N([H])C(=O)N2C([H])([H])C([H])([H])C([H])([H])C([H])(n3nc(-c4c([H])c([H])c(Oc5c([H])c([H])c(F)c([H])c5F)c([H])c4[H])c(C(=O)N([H])[H])c3N([H])[H])C2([H])[H])c([H])c1[H]

$$$$
41:0:0
     RDKit          3D

 99108  0  0  1  0  0  0  0  0999 V2000
  -29.5560  -18.5270   20.4420 N   0  0  0  0  0  4  0  0  0  0  0  0
  -28.6180  -18.3300   20.7550 H   0  0  0  0  0  0  0  0  0  0  0  0
  -30.0800  -18.8570   21.2350 H   0  0  0  0  0  0  0  0  0  0  0  0
  -29.4850  -19.6290   19.4420 C   0  0  0  0  0  2  0  0  0  0  0  0
  -29.7040  -22.1530   18.9780 C   0  0  0  0  0  2  0  0  0  0  0  0
  -28.1000  -21.4310   20.7480 C   0  0  0  0  0  2  0  0  0  0  0  0
  -29.7360  -23.5900   19.5550 C   0  0  0  0  0  2  0  0  0  0  0  0
  -28.1380  -22.8530   21.3570 C   0  0  0  0  0  2  0  0  0  0  0  0
  -29.4310  -21.0680   20.0520 C   0  0  0  0  0  3  0  0  0  0  0  0
  -28.4520  -23.9680   20.3270 C   0  0  0  0  0  3  0  0  0  0  0  0
  -28.5630  -25.3530   21.0300 C   0  0  0  0  0  2  0  0  0  0  0  0
  -28.6180  -26.4890   20.1490 O   0  0  0  0  0  0  0  0  0  0  0  0
  -24.7470  -31.7110   23.0870 C   0  0  0  0  0  0  0  0  0  0  0  0
  -27.4610  -27.2350   20.1230 C   0  0  0  0  0  0  0  0  0  0  0  0
  -23.5670  -30.2590   21.4690 C   0  0  0  0  0  3  0  0  0  0  0  0
  -25.0480  -28.7060   20.0870 C   0  0  0  0  0  0  0  0  0  0  0  0
  -26.0880  -30.6460   21.2740 C   0  0  0  0  0  2  0  0  0  0  0  0
  -26.1960  -29.2610   20.6670 C   0  0  0  0  0  0  0  0  0  0  0  0
  -27.4090  -28.5330   20.6820 C   0  0  0  0  0  3  0  0  0  0  0  0
  -26.2980  -26.6890   19.5420 C   0  0  0  0  0  3  0  0  0  0  0  0
  -25.0930  -27.4180   19.5230 C   0  0  0  0  0  3  0  0  0  0  0  0
  -23.7930  -29.5480   20.1070 C   0  0  0  0  0  2  0  0  0  0  0  0
  -24.8190  -30.8880   22.0020 N   0  0  0  0  0  0  0  0  0  0  0  0
  -23.6590  -31.9810   23.6160 O   0  0  0  0  0  0  0  0  0  0  0  0
  -22.9230  -29.2530   22.4490 C   0  0  0  0  0  0  0  0  0  0  0  0
  -21.6100  -29.0170   22.2880 N   0  0  0  0  0  0  0  0  0  0  0  0
  -23.6010  -28.6840   23.3080 O   0  0  0  0  0  0  0  0  0  0  0  0
  -21.1240  -29.5270   21.5630 H   0  0  0  0  0  0  0  0  0  0  0  0
  -18.2640  -27.7320   22.7410 C   0  0  0  0  0  0  0  0  0  0  0  0
  -20.8040  -28.0800   23.0700 C   0  0  0  0  0  3  0  0  0  0  0  0
  -20.9670  -26.6360   22.5440 C   0  0  0  0  0  2  0  0  0  0  0  0
  -19.9040  -26.2450   21.5140 C   0  0  0  0  0  2  0  0  0  0  0  0
  -18.5010  -26.3670   22.1160 C   0  0  0  0  0  2  0  0  0  0  0  0
  -19.3460  -28.5430   23.1730 C   0  0  0  0  0  0  0  0  0  0  0  0
  -19.0730  -29.8180   23.7150 C   0  0  0  0  0  3  0  0  0  0  0  0
  -17.7490  -30.2840   23.8280 C   0  0  0  0  0  3  0  0  0  0  0  0
  -16.6810  -29.4700   23.4140 C   0  0  0  0  0  3  0  0  0  0  0  0
  -16.9390  -28.1970   22.8750 C   0  0  0  0  0  3  0  0  0  0  0  0
  -26.0220  -32.3720   23.7000 C   0  0  0  0  0  3  0  0  0  0  0  0
  -25.6590  -33.7350   24.1110 N   0  0  0  0  0  0  0  0  0  0  0  0
  -25.8980  -34.8370   23.3860 C   0  0  0  0  0  0  0  0  0  0  0  0
  -26.5190  -34.8160   22.3200 O   0  0  0  0  0  0  0  0  0  0  0  0
  -25.1040  -33.8220   24.9480 H   0  0  0  0  0  0  0  0  0  0  0  0
  -24.0540  -36.5400   23.2130 C   0  0  0  0  0  1  0  0  0  0  0  0
  -25.3630  -36.1750   23.9320 C   0  0  0  0  0  3  0  0  0  0  0  0
  -27.4950  -37.1450   24.6670 C   0  0  0  0  0  1  0  0  0  0  0  0
  -26.3270  -37.2900   23.8040 N   0  0  0  0  0  0  0  0  0  0  0  0
  -25.8820  -38.1780   24.0200 H   0  0  0  0  0  0  0  0  0  0  0  0
  -26.6200  -31.5620   24.9150 C   0  0  1  0  0  0  0  0  0  0  0  0
  -25.5650  -31.1490   25.9670 C   0  0  0  0  0  1  0  0  0  0  0  0
  -27.3220  -30.2760   24.4210 C   0  0  0  0  0  1  0  0  0  0  0  0
  -27.7020  -32.4090   25.6260 C   0  0  0  0  0  1  0  0  0  0  0  0
  -30.1970  -17.2610   19.9720 C   0  0  0  0  0  2  0  0  0  0  0  0
  -30.5830  -14.2190   19.2440 C   0  0  0  0  0  0  0  0  0  0  0  0
  -29.8530  -12.3080   17.8560 C   0  0  0  0  0  2  0  0  0  0  0  0
  -28.6730  -12.6810   16.9410 C   0  0  0  0  0  2  0  0  0  0  0  0
  -27.3340  -12.5020   17.6780 C   0  0  0  0  0  2  0  0  0  0  0  0
  -27.3310  -13.1820   19.0740 C   0  0  0  0  0  3  0  0  0  0  0  0
  -28.5920  -12.7990   19.8790 C   0  0  0  0  0  2  0  0  0  0  0  0
  -29.7820  -13.1320   19.0730 N   0  0  0  0  0  0  0  0  0  0  0  0
  -31.4160  -14.5800   18.4060 O   0  0  0  0  0  0  0  0  0  0  0  0
  -31.6390  -15.6430   22.4530 C   0  0  0  0  0  2  0  0  0  0  0  0
  -30.2290  -16.2000   22.3360 C   0  0  0  0  0  2  0  0  0  0  0  0
  -31.7260  -14.5460   21.3790 C   0  0  0  0  0  3  0  0  0  0  0  0
  -29.8550  -16.0130   20.8570 C   0  0  0  0  0  3  0  0  0  0  0  0
  -30.5750  -14.7670   20.4820 N   0  0  0  0  0  0  0  0  0  0  0  0
  -25.1530  -13.7420   20.3260 C   0  0  0  0  0  0  0  0  0  0  0  0
  -24.1730  -12.9480   20.8580 C   0  0  0  0  0  0  0  0  0  0  0  0
  -24.5840  -11.6010   20.6240 C   0  0  0  0  0  0  0  0  0  0  0  0
  -26.1060  -12.8760   19.8100 N   0  0  0  0  0  0  0  0  0  0  0  0
  -25.7770  -11.5800   20.0410 N   0  0  0  0  0  0  0  0  0  0  0  0
  -23.8880  -10.3310   20.8700 C   0  0  0  0  0  0  0  0  0  0  0  0
  -24.4090   -9.3630   21.7570 C   0  0  0  0  0  3  0  0  0  0  0  0
  -23.7120   -8.1580   21.9910 C   0  0  0  0  0  3  0  0  0  0  0  0
  -22.4800   -7.9120   21.3380 C   0  0  0  0  0  0  0  0  0  0  0  0
  -21.9780   -8.8700   20.4390 C   0  0  0  0  0  3  0  0  0  0  0  0
  -22.6750  -10.0660   20.2030 C   0  0  0  0  0  3  0  0  0  0  0  0
  -21.7450   -6.7600   21.4850 O   0  0  0  0  0  0  0  0  0  0  0  0
  -21.7050   -6.0780   22.6740 C   0  0  0  0  0  0  0  0  0  0  0  0
  -21.2660   -6.6880   23.8690 C   0  0  0  0  0  3  0  0  0  0  0  0
  -21.1760   -5.9320   25.0540 C   0  0  0  0  0  3  0  0  0  0  0  0
  -21.5130   -4.5660   25.0450 C   0  0  0  0  0  0  0  0  0  0  0  0
  -21.9450   -3.9540   23.8540 C   0  0  0  0  0  3  0  0  0  0  0  0
  -22.0370   -4.7090   22.6720 C   0  0  0  0  0  0  0  0  0  0  0  0
  -22.4340   -4.1100   21.5230 F   0  0  0  0  0  0  0  0  0  0  0  0
  -21.4200   -3.8360   26.1810 F   0  0  0  0  0  0  0  0  0  0  0  0
  -22.8770  -13.4100   21.4630 C   0  0  0  0  0  0  0  0  0  0  0  0
  -22.3690  -12.6790   22.4490 N   0  0  0  0  0  0  0  0  0  0  0  0
  -22.3340  -14.4510   21.0960 O   0  0  0  0  0  0  0  0  0  0  0  0
  -22.8270  -11.8370   22.7650 H   0  0  0  0  0  0  0  0  0  0  0  0
  -21.5080  -12.9650   22.8940 H   0  0  0  0  0  0  0  0  0  0  0  0
  -25.3060  -15.1210   20.2210 N   0  0  0  0  0  0  0  0  0  0  0  0
  -24.5880  -15.7660   20.5290 H   0  0  0  0  0  0  0  0  0  0  0  0
  -26.0510  -15.5750   19.7090 H   0  0  0  0  0  0  0  0  0  0  0  0
  -31.7250  -13.1070   21.9600 C   0  0  0  0  0  2  0  0  0  0  0  0
  -33.0260  -12.7200   22.5340 N   0  0  0  0  0  4  0  0  0  0  0  0
  -33.7460  -12.7290   21.8340 H   0  0  0  0  0  0  0  0  0  0  0  0
  -32.9710  -11.7870   22.9030 H   0  0  0  0  0  0  0  0  0  0  0  0
  -33.2980  -13.3290   23.2850 H   0  0  0  0  0  0  0  0  0  0  0  0
  1  2  1  0
  1  3  1  0
  4  1  1  0
  5  7  1  0
  5  9  1  0
  6  8  1  0
  7 10  1  0
  9  4  1  0
  9  6  1  0
 10 11  1  0
 10  8  1  0
 12 11  1  0
 13 24  2  0
 14 12  1  0
 14 19  1  0
 15 23  1  0
 15 25  1  0
 16 22  1  0
 16 18  1  0
 17 23  1  0
 18 19  2  0
 18 17  1  0
 20 14  2  0
 21 20  1  0
 21 16  2  0
 22 15  1  0
 23 13  1  0
 25 27  2  0
 26 25  1  0
 28 26  1  0
 29 38  2  0
 29 34  1  0
 30 26  1  0
 30 34  1  0
 31 30  1  0
 32 33  1  0
 32 31  1  0
 33 29  1  0
 34 35  2  0
 35 36  1  0
 37 36  2  0
 38 37  1  0
 39 13  1  0
 39 40  1  0
 39 49  1  0
 40 43  1  0
 41 45  1  0
 41 40  1  0
 42 41  2  0
 45 44  1  0
 47 45  1  0
 47 48  1  0
 47 46  1  0
 49 52  1  1
 49 50  1  0
 51 49  1  0
 53  1  1  0
 54 66  1  0
 55 60  1  0
 56 57  1  0
 56 55  1  0
 58 57  1  0
 58 70  1  0
 58 59  1  0
 60 54  1  0
 60 59  1  0
 61 54  2  0
 63 62  1  0
 64 95  1  0
 64 62  1  0
 65 53  1  0
 65 63  1  0
 66 65  1  0
 66 64  1  0
 67 68  2  0
 68 87  1  0
 69 68  1  0
 69 72  1  0
 70 71  1  0
 70 67  1  0
 71 69  2  0
 72 73  1  0
 73 74  2  0
 75 78  1  0
 75 74  1  0
 76 75  2  0
 77 76  1  0
 77 72  2  0
 78 79  1  0
 79 80  1  0
 80 81  2  0
 82 81  1  0
 82 86  1  0
 83 82  2  0
 84 79  2  0
 84 83  1  0
 85 84  1  0
 87 88  1  0
 88 90  1  0
 88 91  1  0
 89 87  2  0
 92 67  1  0
 92 93  1  0
 94 92  1  0
 95 96  1  0
 96 98  1  0
 96 99  1  0
 97 96  1  0
M  ISO  4  11 101  12 101  54 100  66 100
M  END
>  <TORSDO>  (42) 
F 22

>  <SCORE>  (42) 
-9.225

>  <name>  (42) 
41

>  <ligand_id>  (42) 
41

>  <original_smiles>  (42) 
[H]c1c([H])c([H])c2c(c1[H])C([H])([H])C([H])([H])C([H])([H])C2([H])N([H])C(=O)C1([H])N(C(=O)C([H])(N([H])C(=O)C([H])(N([H])C([H])([H])[H])C([H])([H])[H])C(C([H])([H])[H])(C([H])([H])[H])C([H])([H])[H])C([H])([H])c2c([H])c(OC([H])([H])C3([H])C([H])([H])C([H])([H])C([H])(C([H])([H])[N+]([H])([H])C([H])([H])C4([H])N(C(=O)N5C([H])([H])C([H])([H])C([H])([H])C([H])(n6nc(-c7c([H])c([H])c(Oc8c([H])c([H])c(F)c([H])c8F)c([H])c7[H])c(C(=O)N([H])[H])c6N([H])[H])C5([H])[H])C([H])(C([H])([H])[N+]([H])([H])[H])C([H])([H])C4([H])[H])C([H])([H])C3([H])[H])c([H])c([H])c2C1([H])[H]

>  <smiles>  (42) 
[H]c1c([H])c([H])c2c(c1[H])C([H])([H])C([H])([H])C([H])([H])C2([H])N([H])C(=O)C1([H])N(C(=O)C([H])(N([H])C(=O)C([H])(N([H])C([H])([H])[H])C([H])([H])[H])C(C([H])([H])[H])(C([H])([H])[H])C([H])([H])[H])C([H])([H])c2c([H])c(OC([H])([H])C3([H])C([H])([H])C([H])([H])C([H])(C([H])([H])[N+]([H])([H])C([H])([H])C4([H])N(C(=O)N5C([H])([H])C([H])([H])C([H])([H])C([H])(n6nc(-c7c([H])c([H])c(Oc8c([H])c([H])c(F)c([H])c8F)c([H])c7[H])c(C(=O)N([H])[H])c6N([H])[H])C5([H])[H])C([H])(C([H])([H])[N+]([H])([H])[H])C([H])([H])C4([H])[H])C([H])([H])C3([H])[H])c([H])c([H])c2C1([H])[H]

$$$$
42:0:0
     RDKit          3D

 92100  0  0  1  0  0  0  0  0999 V2000
  -29.8710  -21.9940   20.3120 C   0  0  0  0  0  2  0  0  0  0  0  0
  -29.2970  -23.1650   19.6120 N   0  0  0  0  0  4  0  0  0  0  0  0
  -28.3170  -22.9640   19.4860 H   0  0  0  0  0  0  0  0  0  0  0  0
  -29.7080  -23.2160   18.6910 H   0  0  0  0  0  0  0  0  0  0  0  0
  -29.3980  -24.4850   20.2880 C   0  0  0  0  0  2  0  0  0  0  0  0
  -28.6440  -25.5560   19.4710 C   0  0  0  0  0  2  0  0  0  0  0  0
  -28.4660  -26.7770   20.2100 O   0  0  0  0  0  0  0  0  0  0  0  0
  -24.5670  -31.9020   23.2380 C   0  0  0  0  0  0  0  0  0  0  0  0
  -27.2640  -27.4670   20.1670 C   0  0  0  0  0  0  0  0  0  0  0  0
  -23.3860  -30.5000   21.5810 C   0  0  0  0  0  3  0  0  0  0  0  0
  -24.8590  -28.9750   20.1750 C   0  0  0  0  0  0  0  0  0  0  0  0
  -25.9150  -30.8610   21.4200 C   0  0  0  0  0  2  0  0  0  0  0  0
  -26.0110  -29.4940   20.7760 C   0  0  0  0  0  0  0  0  0  0  0  0
  -27.2100  -28.7450   20.7740 C   0  0  0  0  0  3  0  0  0  0  0  0
  -26.0810  -26.9690   19.5620 C   0  0  0  0  0  3  0  0  0  0  0  0
  -24.8890  -27.7100   19.5720 C   0  0  0  0  0  3  0  0  0  0  0  0
  -23.6140  -29.8280   20.2030 C   0  0  0  0  0  2  0  0  0  0  0  0
  -24.6390  -31.1020   22.1380 N   0  0  0  0  0  0  0  0  0  0  0  0
  -23.4770  -32.1700   23.7630 O   0  0  0  0  0  0  0  0  0  0  0  0
  -22.7250  -29.4720   22.5270 C   0  0  0  0  0  0  0  0  0  0  0  0
  -21.4000  -29.2980   22.3900 N   0  0  0  0  0  0  0  0  0  0  0  0
  -23.4010  -28.8350   23.3400 O   0  0  0  0  0  0  0  0  0  0  0  0
  -20.9180  -29.8640   21.7060 H   0  0  0  0  0  0  0  0  0  0  0  0
  -18.0090  -28.1590   22.9000 C   0  0  0  0  0  0  0  0  0  0  0  0
  -20.5730  -28.3610   23.1490 C   0  0  0  0  0  3  0  0  0  0  0  0
  -20.6430  -26.9410   22.5410 C   0  0  0  0  0  2  0  0  0  0  0  0
  -19.5230  -26.6590   21.5340 C   0  0  0  0  0  2  0  0  0  0  0  0
  -18.1510  -26.8180   22.1980 C   0  0  0  0  0  2  0  0  0  0  0  0
  -19.1470  -28.8900   23.3340 C   0  0  0  0  0  0  0  0  0  0  0  0
  -18.9600  -30.1460   23.9510 C   0  0  0  0  0  3  0  0  0  0  0  0
  -17.6690  -30.6690   24.1400 C   0  0  0  0  0  3  0  0  0  0  0  0
  -16.5450  -29.9350   23.7220 C   0  0  0  0  0  3  0  0  0  0  0  0
  -16.7160  -28.6810   23.1090 C   0  0  0  0  0  3  0  0  0  0  0  0
  -25.8430  -32.5340   23.8740 C   0  0  0  0  0  3  0  0  0  0  0  0
  -25.5310  -33.9330   24.1880 N   0  0  0  0  0  0  0  0  0  0  0  0
  -25.8770  -34.9800   23.4260 C   0  0  0  0  0  0  0  0  0  0  0  0
  -26.5640  -34.8680   22.4080 O   0  0  0  0  0  0  0  0  0  0  0  0
  -24.9260  -34.0970   24.9810 H   0  0  0  0  0  0  0  0  0  0  0  0
  -24.1660  -36.7760   23.0140 C   0  0  0  0  0  1  0  0  0  0  0  0
  -25.3820  -36.3710   23.8640 C   0  0  0  0  0  3  0  0  0  0  0  0
  -27.4920  -37.2530   24.7570 C   0  0  0  0  0  1  0  0  0  0  0  0
  -26.4200  -37.4210   23.7780 N   0  0  0  0  0  0  0  0  0  0  0  0
  -26.0110  -38.3420   23.9140 H   0  0  0  0  0  0  0  0  0  0  0  0
  -26.3390  -31.7710   25.1620 C   0  0  1  0  0  0  0  0  0  0  0  0
  -25.2330  -31.5480   26.2190 C   0  0  0  0  0  1  0  0  0  0  0  0
  -26.9210  -30.3870   24.7880 C   0  0  0  0  0  1  0  0  0  0  0  0
  -27.4860  -32.5640   25.8330 C   0  0  0  0  0  1  0  0  0  0  0  0
  -29.1240  -20.7250   19.8470 C   0  0  0  0  0  2  0  0  0  0  0  0
  -30.8980  -17.6830   21.3370 C   0  0  0  0  0  2  0  0  0  0  0  0
  -29.3820  -17.0220   19.4830 C   0  0  0  0  0  2  0  0  0  0  0  0
  -30.3180  -19.1190   21.2510 C   0  0  0  0  0  2  0  0  0  0  0  0
  -28.8550  -18.4580   19.4230 C   0  0  0  0  0  2  0  0  0  0  0  0
  -29.8090  -16.6880   20.9180 C   0  0  0  0  0  3  0  0  0  0  0  0
  -29.8460  -19.4440   19.8920 N   0  0  0  0  0  0  0  0  0  0  0  0
  -30.7290  -14.4260   20.3050 C   0  0  0  0  0  0  0  0  0  0  0  0
  -30.3910  -12.3580   19.0050 C   0  0  0  0  0  2  0  0  0  0  0  0
  -29.4030  -12.6440   17.8560 C   0  0  0  0  0  2  0  0  0  0  0  0
  -27.9400  -12.4950   18.3260 C   0  0  0  0  0  2  0  0  0  0  0  0
  -27.6590  -13.2560   19.6490 C   0  0  0  0  0  3  0  0  0  0  0  0
  -28.7450  -12.9220   20.6970 C   0  0  0  0  0  2  0  0  0  0  0  0
  -30.0680  -13.2510   20.1250 N   0  0  0  0  0  0  0  0  0  0  0  0
  -31.7450  -14.7480   19.6830 O   0  0  0  0  0  0  0  0  0  0  0  0
  -30.0920  -15.2660   21.1320 N   0  0  0  0  0  0  0  0  0  0  0  0
  -29.4020  -14.7970   21.7000 H   0  0  0  0  0  0  0  0  0  0  0  0
  -25.2740  -13.8660   20.4210 C   0  0  0  0  0  0  0  0  0  0  0  0
  -24.2140  -13.0890   20.8070 C   0  0  0  0  0  0  0  0  0  0  0  0
  -24.6740  -11.7370   20.7470 C   0  0  0  0  0  0  0  0  0  0  0  0
  -26.3130  -12.9850   20.1510 N   0  0  0  0  0  0  0  0  0  0  0  0
  -25.9530  -11.7000   20.3990 N   0  0  0  0  0  0  0  0  0  0  0  0
  -23.9550  -10.4740   20.9470 C   0  0  0  0  0  0  0  0  0  0  0  0
  -24.3940   -9.5180   21.8890 C   0  0  0  0  0  3  0  0  0  0  0  0
  -23.6790   -8.3150   22.0750 C   0  0  0  0  0  3  0  0  0  0  0  0
  -22.5110   -8.0610   21.3180 C   0  0  0  0  0  0  0  0  0  0  0  0
  -22.0890   -9.0070   20.3660 C   0  0  0  0  0  3  0  0  0  0  0  0
  -22.8060  -10.2010   20.1790 C   0  0  0  0  0  3  0  0  0  0  0  0
  -21.7690   -6.9080   21.4110 O   0  0  0  0  0  0  0  0  0  0  0  0
  -21.6890   -6.1950   22.5800 C   0  0  0  0  0  0  0  0  0  0  0  0
  -21.1780   -6.7640   23.7660 C   0  0  0  0  0  3  0  0  0  0  0  0
  -21.0500   -5.9760   24.9270 C   0  0  0  0  0  3  0  0  0  0  0  0
  -21.4230   -4.6200   24.9030 C   0  0  0  0  0  0  0  0  0  0  0  0
  -21.9310   -4.0500   23.7230 C   0  0  0  0  0  3  0  0  0  0  0  0
  -22.0610   -4.8360   22.5640 C   0  0  0  0  0  0  0  0  0  0  0  0
  -22.5300   -4.2760   21.4220 F   0  0  0  0  0  0  0  0  0  0  0  0
  -21.2930   -3.8600   26.0160 F   0  0  0  0  0  0  0  0  0  0  0  0
  -22.8260  -13.5630   21.1290 C   0  0  0  0  0  0  0  0  0  0  0  0
  -22.1230  -12.8550   22.0050 N   0  0  0  0  0  0  0  0  0  0  0  0
  -22.3720  -14.5970   20.6370 O   0  0  0  0  0  0  0  0  0  0  0  0
  -22.5010  -12.0190   22.4280 H   0  0  0  0  0  0  0  0  0  0  0  0
  -21.1940  -13.1570   22.2630 H   0  0  0  0  0  0  0  0  0  0  0  0
  -25.4400  -15.2380   20.2640 N   0  0  0  0  0  0  0  0  0  0  0  0
  -24.6910  -15.9000   20.4320 H   0  0  0  0  0  0  0  0  0  0  0  0
  -26.2990  -15.6780   19.9620 H   0  0  0  0  0  0  0  0  0  0  0  0
  2  5  1  0
  2  1  1  0
  3  2  1  0
  4  2  1  0
  6  7  1  0
  6  5  1  0
  8 19  2  0
  9  7  1  0
  9 14  1  0
 10 18  1  0
 10 20  1  0
 11 17  1  0
 11 13  1  0
 12 18  1  0
 13 12  1  0
 14 13  2  0
 15 16  1  0
 15  9  2  0
 16 11  2  0
 17 10  1  0
 18  8  1  0
 20 22  2  0
 21 20  1  0
 23 21  1  0
 24 33  2  0
 24 29  1  0
 25 21  1  0
 25 29  1  0
 26 25  1  0
 27 28  1  0
 27 26  1  0
 28 24  1  0
 29 30  2  0
 30 31  1  0
 32 31  2  0
 33 32  1  0
 34  8  1  0
 34 35  1  0
 34 44  1  0
 35 38  1  0
 36 40  1  0
 36 35  1  0
 37 36  2  0
 40 39  1  0
 42 40  1  0
 42 43  1  0
 42 41  1  0
 44 47  1  1
 44 45  1  0
 46 44  1  0
 48 54  1  0
 48  1  1  0
 50 53  1  0
 51 49  1  0
 52 50  1  0
 52 54  1  0
 53 63  1  0
 53 49  1  0
 54 51  1  0
 55 63  1  0
 56 61  1  0
 57 58  1  0
 57 56  1  0
 59 58  1  0
 59 68  1  0
 59 60  1  0
 61 55  1  0
 61 60  1  0
 62 55  2  0
 63 64  1  0
 65 66  2  0
 66 85  1  0
 67 66  1  0
 67 70  1  0
 68 69  1  0
 68 65  1  0
 69 67  2  0
 70 71  1  0
 71 72  2  0
 73 76  1  0
 73 72  1  0
 74 73  2  0
 75 74  1  0
 75 70  2  0
 76 77  1  0
 77 78  1  0
 78 79  2  0
 80 79  1  0
 80 84  1  0
 81 80  2  0
 82 77  2  0
 82 81  1  0
 83 82  1  0
 85 86  1  0
 86 89  1  0
 86 88  1  0
 87 85  2  0
 90 65  1  0
 90 91  1  0
 92 90  1  0
M  ISO  4   6 101   7 101  55 100  63 100
M  END
>  <TORSDO>  (43) 
F 21

>  <SCORE>  (43) 
-13.568

>  <name>  (43) 
42

>  <ligand_id>  (43) 
42

>  <original_smiles>  (43) 
[H]c1c([H])c([H])c2c(c1[H])C([H])([H])C([H])([H])C([H])([H])C2([H])N([H])C(=O)C1([H])N(C(=O)C([H])(N([H])C(=O)C([H])(N([H])C([H])([H])[H])C([H])([H])[H])C(C([H])([H])[H])(C([H])([H])[H])C([H])([H])[H])C([H])([H])c2c([H])c(OC([H])([H])C([H])([H])[N+]([H])([H])C([H])([H])C([H])([H])N3C([H])([H])C([H])([H])C([H])(N([H])C(=O)N4C([H])([H])C([H])([H])C([H])([H])C([H])(n5nc(-c6c([H])c([H])c(Oc7c([H])c([H])c(F)c([H])c7F)c([H])c6[H])c(C(=O)N([H])[H])c5N([H])[H])C4([H])[H])C([H])([H])C3([H])[H])c([H])c([H])c2C1([H])[H]

>  <smiles>  (43) 
[H]c1c([H])c([H])c2c(c1[H])C([H])([H])C([H])([H])C([H])([H])C2([H])N([H])C(=O)C1([H])N(C(=O)C([H])(N([H])C(=O)C([H])(N([H])C([H])([H])[H])C([H])([H])[H])C(C([H])([H])[H])(C([H])([H])[H])C([H])([H])[H])C([H])([H])c2c([H])c(OC([H])([H])C([H])([H])[N+]([H])([H])C([H])([H])C([H])([H])N3C([H])([H])C([H])([H])C([H])(N([H])C(=O)N4C([H])([H])C([H])([H])C([H])([H])C([H])(n5nc(-c6c([H])c([H])c(Oc7c([H])c([H])c(F)c([H])c7F)c([H])c6[H])c(C(=O)N([H])[H])c5N([H])[H])C4([H])[H])C([H])([H])C3([H])[H])c([H])c([H])c2C1([H])[H]

$$$$
43:0:0
     RDKit          3D

 95104  0  0  1  0  0  0  0  0999 V2000
  -31.8000  -19.9820   19.3300 C   0  0  0  0  0  3  0  0  0  0  0  0
  -31.9520  -20.7860   20.4140 C   0  0  0  0  0  0  0  0  0  0  0  0
  -31.0340  -18.6600   19.1950 C   0  0  0  0  0  2  0  0  0  0  0  0
  -31.9480  -19.1230   22.2220 C   0  0  0  0  0  2  0  0  0  0  0  0
  -31.0760  -18.0070   21.6480 C   0  0  0  0  0  2  0  0  0  0  0  0
  -29.8590  -20.3920   21.9910 C   0  0  0  0  0  2  0  0  0  0  0  0
  -31.4020  -20.4690   21.8170 C   0  0  0  0  0  3  0  0  0  0  0  0
  -29.1810  -19.8230   20.7300 C   0  0  0  0  0  3  0  0  0  0  0  0
  -30.1430  -18.2780   20.3920 C   0  0  1  0  0  0  0  0  0  0  0  0
  -30.4260  -15.3480   20.1270 C   0  0  0  0  0  0  0  0  0  0  0  0
  -30.3770  -12.9090   19.2460 C   0  0  0  0  0  2  0  0  0  0  0  0
  -29.4410  -12.6920   18.0310 C   0  0  0  0  0  2  0  0  0  0  0  0
  -28.0080  -12.4060   18.5020 C   0  0  0  0  0  2  0  0  0  0  0  0
  -27.5660  -13.3750   19.6270 C   0  0  0  0  0  3  0  0  0  0  0  0
  -28.6260  -13.5450   20.7340 C   0  0  0  0  0  2  0  0  0  0  0  0
  -29.8400  -14.0530   20.0750 N   0  0  0  0  0  0  0  0  0  0  0  0
  -31.6380  -15.3090   19.8690 O   0  0  0  0  0  0  0  0  0  0  0  0
  -29.7160  -16.6530   20.2830 N   0  0  0  0  0  0  0  0  0  0  0  0
  -28.7210  -16.5170   20.4000 H   0  0  0  0  0  0  0  0  0  0  0  0
  -25.2010  -13.9060   20.4080 C   0  0  0  0  0  0  0  0  0  0  0  0
  -24.1550  -13.1160   20.7950 C   0  0  0  0  0  0  0  0  0  0  0  0
  -24.6410  -11.7730   20.7680 C   0  0  0  0  0  0  0  0  0  0  0  0
  -26.2520  -13.0450   20.1590 N   0  0  0  0  0  0  0  0  0  0  0  0
  -25.9290  -11.7550   20.4440 N   0  0  0  0  0  0  0  0  0  0  0  0
  -23.9350  -10.5020   20.9730 C   0  0  0  0  0  0  0  0  0  0  0  0
  -24.3790   -9.5520   21.9200 C   0  0  0  0  0  3  0  0  0  0  0  0
  -23.6680   -8.3480   22.1140 C   0  0  0  0  0  3  0  0  0  0  0  0
  -22.5010   -8.0830   21.3590 C   0  0  0  0  0  0  0  0  0  0  0  0
  -22.0760   -9.0200   20.4010 C   0  0  0  0  0  3  0  0  0  0  0  0
  -22.7870  -10.2160   20.2070 C   0  0  0  0  0  3  0  0  0  0  0  0
  -21.7620   -6.9300   21.4620 O   0  0  0  0  0  0  0  0  0  0  0  0
  -21.7130   -6.2070   22.6260 C   0  0  0  0  0  0  0  0  0  0  0  0
  -21.2540   -6.7720   23.8350 C   0  0  0  0  0  3  0  0  0  0  0  0
  -21.1550   -5.9760   24.9920 C   0  0  0  0  0  3  0  0  0  0  0  0
  -21.5050   -4.6140   24.9410 C   0  0  0  0  0  0  0  0  0  0  0  0
  -21.9560   -4.0470   23.7380 C   0  0  0  0  0  3  0  0  0  0  0  0
  -22.0570   -4.8410   22.5830 C   0  0  0  0  0  0  0  0  0  0  0  0
  -22.4730   -4.2850   21.4180 F   0  0  0  0  0  0  0  0  0  0  0  0
  -21.4020   -3.8450   26.0520 F   0  0  0  0  0  0  0  0  0  0  0  0
  -22.7540  -13.5750   21.0750 C   0  0  0  0  0  0  0  0  0  0  0  0
  -22.0410  -12.8690   21.9450 N   0  0  0  0  0  0  0  0  0  0  0  0
  -22.3020  -14.5950   20.5570 O   0  0  0  0  0  0  0  0  0  0  0  0
  -22.4200  -12.0420   22.3810 H   0  0  0  0  0  0  0  0  0  0  0  0
  -21.1030  -13.1610   22.1810 H   0  0  0  0  0  0  0  0  0  0  0  0
  -25.3400  -15.2770   20.2170 N   0  0  0  0  0  0  0  0  0  0  0  0
  -24.5610  -15.9170   20.3220 H   0  0  0  0  0  0  0  0  0  0  0  0
  -26.1650  -15.7200   19.8320 H   0  0  0  0  0  0  0  0  0  0  0  0
  -28.9490  -21.2420   19.8640 N   0  0  0  0  0  4  0  0  0  0  0  0
  -28.1870  -21.0360   19.2370 H   0  0  0  0  0  0  0  0  0  0  0  0
  -29.7600  -21.3120   19.2690 H   0  0  0  0  0  0  0  0  0  0  0  0
  -28.6750  -22.7990   20.4440 C   0  0  0  0  0  2  0  0  0  0  0  0
  -28.1060  -24.3240   19.6740 C   0  0  0  0  0  2  0  0  0  0  0  0
  -28.2040  -25.9340   20.0450 O   0  0  0  0  0  0  0  0  0  0  0  0
  -24.6170  -31.8390   23.0410 C   0  0  0  0  0  0  0  0  0  0  0  0
  -27.1880  -27.0210   19.9490 C   0  0  0  0  0  0  0  0  0  0  0  0
  -23.4270  -30.4570   21.3870 C   0  0  0  0  0  3  0  0  0  0  0  0
  -24.8790  -28.8840   19.9340 C   0  0  0  0  0  0  0  0  0  0  0  0
  -25.9900  -30.6850   21.2380 C   0  0  0  0  0  2  0  0  0  0  0  0
  -26.0650  -29.2870   20.5610 C   0  0  0  0  0  0  0  0  0  0  0  0
  -27.2100  -28.3730   20.5490 C   0  0  0  0  0  3  0  0  0  0  0  0
  -25.9780  -26.7760   19.2590 C   0  0  0  0  0  3  0  0  0  0  0  0
  -24.8620  -27.6520   19.2620 C   0  0  0  0  0  3  0  0  0  0  0  0
  -23.6560  -29.7970   20.0010 C   0  0  0  0  0  2  0  0  0  0  0  0
  -24.6990  -31.0200   21.9420 N   0  0  0  0  0  0  0  0  0  0  0  0
  -23.5270  -32.1170   23.5680 O   0  0  0  0  0  0  0  0  0  0  0  0
  -22.7430  -29.4430   22.3400 C   0  0  0  0  0  0  0  0  0  0  0  0
  -21.4070  -29.3020   22.2430 N   0  0  0  0  0  0  0  0  0  0  0  0
  -23.4190  -28.7840   23.1340 O   0  0  0  0  0  0  0  0  0  0  0  0
  -20.9130  -29.8860   21.5830 H   0  0  0  0  0  0  0  0  0  0  0  0
  -18.0150  -28.1570   22.8330 C   0  0  0  0  0  0  0  0  0  0  0  0
  -20.5890  -28.3550   23.0110 C   0  0  0  0  0  3  0  0  0  0  0  0
  -20.6350  -26.9450   22.3810 C   0  0  0  0  0  2  0  0  0  0  0  0
  -19.4900  -26.6870   21.3970 C   0  0  0  0  0  2  0  0  0  0  0  0
  -18.1350  -26.8340   22.0950 C   0  0  0  0  0  2  0  0  0  0  0  0
  -19.1670  -28.8790   23.2480 C   0  0  0  0  0  0  0  0  0  0  0  0
  -18.9990  -30.1170   23.9040 C   0  0  0  0  0  3  0  0  0  0  0  0
  -17.7120  -30.6340   24.1480 C   0  0  0  0  0  3  0  0  0  0  0  0
  -16.5750  -29.9110   23.7450 C   0  0  0  0  0  3  0  0  0  0  0  0
  -16.7280  -28.6740   23.0930 C   0  0  0  0  0  3  0  0  0  0  0  0
  -25.8860  -32.4770   23.6790 C   0  0  0  0  0  3  0  0  0  0  0  0
  -26.4060  -31.6910   24.9460 C   0  0  1  0  0  0  0  0  0  0  0  0
  -25.3120  -31.4340   26.0080 C   0  0  0  0  0  1  0  0  0  0  0  0
  -26.9990  -30.3210   24.5430 C   0  0  0  0  0  1  0  0  0  0  0  0
  -27.5550  -32.4820   25.6150 C   0  0  0  0  0  1  0  0  0  0  0  0
  -25.5580  -33.8670   24.0440 N   0  0  0  0  0  0  0  0  0  0  0  0
  -25.8940  -34.9490   23.3300 C   0  0  0  0  0  0  0  0  0  0  0  0
  -26.5750  -34.8820   22.3030 O   0  0  0  0  0  0  0  0  0  0  0  0
  -24.9520  -33.9920   24.8420 H   0  0  0  0  0  0  0  0  0  0  0  0
  -24.1750  -36.7630   23.0130 C   0  0  0  0  0  1  0  0  0  0  0  0
  -25.4000  -36.3230   23.8300 C   0  0  0  0  0  3  0  0  0  0  0  0
  -27.5140  -37.1790   24.7390 C   0  0  0  0  0  1  0  0  0  0  0  0
  -26.4350  -37.3780   23.7760 N   0  0  0  0  0  0  0  0  0  0  0  0
  -26.0260  -38.2940   23.9420 H   0  0  0  0  0  0  0  0  0  0  0  0
  -32.2550  -23.3420   20.4790 C   0  0  0  0  0  1  0  0  0  0  0  0
  -32.9160  -21.9660   20.3450 C   0  0  0  0  0  2  0  0  0  0  0  0
  1  2  2  0
  2  7  1  0
  3  1  1  0
  3  9  1  0
  5  4  1  0
  7  6  1  0
  7  4  1  0
  8 48  1  0
  8  6  1  0
  9 18  1  6
  9  8  1  0
  9  5  1  0
 10 18  1  0
 11 16  1  0
 12 13  1  0
 12 11  1  0
 14 13  1  0
 14 23  1  0
 14 15  1  0
 16 10  1  0
 16 15  1  0
 17 10  2  0
 18 19  1  0
 20 21  2  0
 21 40  1  0
 22 21  1  0
 22 25  1  0
 23 20  1  0
 23 24  1  0
 24 22  2  0
 25 26  1  0
 26 27  2  0
 28 31  1  0
 28 27  1  0
 29 28  2  0
 30 29  1  0
 30 25  2  0
 31 32  1  0
 32 33  1  0
 33 34  2  0
 35 34  1  0
 35 39  1  0
 36 35  2  0
 37 32  2  0
 37 36  1  0
 38 37  1  0
 40 41  1  0
 41 44  1  0
 41 43  1  0
 42 40  2  0
 45 46  1  0
 45 20  1  0
 47 45  1  0
 48 51  1  0
 49 48  1  0
 50 48  1  0
 52 53  1  0
 52 51  1  0
 54 65  2  0
 55 53  1  0
 55 60  1  0
 56 64  1  0
 56 66  1  0
 57 63  1  0
 57 59  1  0
 58 64  1  0
 59 58  1  0
 60 59  2  0
 61 62  1  0
 61 55  2  0
 62 57  2  0
 63 56  1  0
 64 54  1  0
 66 68  2  0
 67 66  1  0
 69 67  1  0
 70 79  2  0
 70 75  1  0
 71 67  1  0
 71 75  1  0
 72 71  1  0
 73 74  1  0
 73 72  1  0
 74 70  1  0
 75 76  2  0
 76 77  1  0
 78 77  2  0
 79 78  1  0
 80 54  1  0
 80 85  1  0
 80 81  1  0
 81 84  1  1
 81 82  1  0
 83 81  1  0
 85 88  1  0
 86 90  1  0
 86 85  1  0
 87 86  2  0
 90 89  1  0
 92 90  1  0
 92 93  1  0
 92 91  1  0
 95  2  1  0
 95 94  1  0
M  ISO  4  10 100  18 100  52 101  53 101
M  END
>  <TORSDO>  (44) 
F 20

>  <SCORE>  (44) 
-15.997

>  <name>  (44) 
43

>  <ligand_id>  (44) 
43

>  <original_smiles>  (44) 
[H]C1=C(C([H])([H])C([H])([H])[H])C2([H])C([H])([H])C([H])([H])C(N([H])C(=O)N3C([H])([H])C([H])([H])C([H])([H])C([H])(n4nc(-c5c([H])c([H])c(Oc6c([H])c([H])c(F)c([H])c6F)c([H])c5[H])c(C(=O)N([H])[H])c4N([H])[H])C3([H])[H])(C1([H])[H])C([H])([N+]([H])([H])C([H])([H])C([H])([H])Oc1c([H])c([H])c3c(c1[H])C([H])([H])N(C(=O)C([H])(N([H])C(=O)C([H])(N([H])C([H])([H])[H])C([H])([H])[H])C(C([H])([H])[H])(C([H])([H])[H])C([H])([H])[H])C([H])(C(=O)N([H])C1([H])c4c([H])c([H])c([H])c([H])c4C([H])([H])C([H])([H])C1([H])[H])C3([H])[H])C2([H])[H]

>  <smiles>  (44) 
[H]C1=C(C([H])([H])C([H])([H])[H])C2([H])C([H])([H])C([H])([H])C(N([H])C(=O)N3C([H])([H])C([H])([H])C([H])([H])C([H])(n4nc(-c5c([H])c([H])c(Oc6c([H])c([H])c(F)c([H])c6F)c([H])c5[H])c(C(=O)N([H])[H])c4N([H])[H])C3([H])[H])(C1([H])[H])C([H])([N+]([H])([H])C([H])([H])C([H])([H])Oc1c([H])c([H])c3c(c1[H])C([H])([H])N(C(=O)C([H])(N([H])C(=O)C([H])(N([H])C([H])([H])[H])C([H])([H])[H])C(C([H])([H])[H])(C([H])([H])[H])C([H])([H])[H])C([H])(C(=O)N([H])C1([H])c4c([H])c([H])c([H])c([H])c4C([H])([H])C([H])([H])C1([H])[H])C3([H])[H])C2([H])[H]

$$$$
44:0:0
     RDKit          3D

 95103  0  0  1  0  0  0  0  0999 V2000
  -29.0640  -20.0610   21.0740 N   0  0  0  0  0  4  0  0  0  0  0  0
  -28.5760  -20.0450   21.9560 H   0  0  0  0  0  0  0  0  0  0  0  0
  -28.3630  -19.9580   20.3600 H   0  0  0  0  0  0  0  0  0  0  0  0
  -29.9680  -18.8220   21.0160 C   0  0  0  0  0  2  0  0  0  0  0  0
  -30.7950  -15.1550   20.7950 C   0  0  0  0  0  0  0  0  0  0  0  0
  -30.6440  -12.9210   19.7020 C   0  0  0  0  0  2  0  0  0  0  0  0
  -29.7690  -12.9880   18.4320 C   0  0  0  0  0  2  0  0  0  0  0  0
  -28.2820  -12.8020   18.7830 C   0  0  0  0  0  2  0  0  0  0  0  0
  -27.8280  -13.6540   19.9980 C   0  0  0  0  0  3  0  0  0  0  0  0
  -28.8310  -13.5790   21.1670 C   0  0  0  0  0  2  0  0  0  0  0  0
  -30.1410  -13.9590   20.6250 N   0  0  0  0  0  0  0  0  0  0  0  0
  -32.0280  -15.1610   20.7710 O   0  0  0  0  0  0  0  0  0  0  0  0
  -28.5150  -17.6530   19.2670 C   0  0  0  0  0  2  0  0  0  0  0  0
  -30.6630  -16.6230   18.8480 C   0  0  0  0  0  2  0  0  0  0  0  0
  -29.4100  -17.1330   18.1290 C   0  0  0  0  0  3  0  0  0  0  0  0
  -29.2910  -17.4130   20.5870 C   0  0  0  0  0  3  0  0  0  0  0  0
  -30.2040  -16.2600   20.1900 N   0  0  0  0  0  0  0  0  0  0  0  0
  -25.3750  -14.1630   20.5450 C   0  0  0  0  0  0  0  0  0  0  0  0
  -24.3120  -13.3550   20.8430 C   0  0  0  0  0  0  0  0  0  0  0  0
  -24.8300  -12.0230   20.8800 C   0  0  0  0  0  0  0  0  0  0  0  0
  -26.4670  -13.3230   20.4080 N   0  0  0  0  0  0  0  0  0  0  0  0
  -26.1430  -12.0320   20.6760 N   0  0  0  0  0  0  0  0  0  0  0  0
  -24.1410  -10.7350   21.0360 C   0  0  0  0  0  0  0  0  0  0  0  0
  -24.4990   -9.8260   22.0550 C   0  0  0  0  0  3  0  0  0  0  0  0
  -23.8070   -8.6040   22.2010 C   0  0  0  0  0  3  0  0  0  0  0  0
  -22.7440   -8.2810   21.3250 C   0  0  0  0  0  0  0  0  0  0  0  0
  -22.4080   -9.1800   20.2960 C   0  0  0  0  0  3  0  0  0  0  0  0
  -23.1010  -10.3930   20.1490 C   0  0  0  0  0  3  0  0  0  0  0  0
  -22.0340   -7.1070   21.3720 O   0  0  0  0  0  0  0  0  0  0  0  0
  -21.8170   -6.4460   22.5550 C   0  0  0  0  0  0  0  0  0  0  0  0
  -21.1530   -7.0590   23.6400 C   0  0  0  0  0  3  0  0  0  0  0  0
  -20.8860   -6.3210   24.8110 C   0  0  0  0  0  3  0  0  0  0  0  0
  -21.2780   -4.9710   24.8970 C   0  0  0  0  0  0  0  0  0  0  0  0
  -21.9340   -4.3570   23.8160 C   0  0  0  0  0  3  0  0  0  0  0  0
  -22.2010   -5.0920   22.6470 C   0  0  0  0  0  0  0  0  0  0  0  0
  -22.8160   -4.4900   21.6010 F   0  0  0  0  0  0  0  0  0  0  0  0
  -21.0150   -4.2610   26.0180 F   0  0  0  0  0  0  0  0  0  0  0  0
  -22.8810  -13.7800   20.9930 C   0  0  0  0  0  0  0  0  0  0  0  0
  -22.1240  -13.0900   21.8370 N   0  0  0  0  0  0  0  0  0  0  0  0
  -22.4380  -14.7590   20.3920 O   0  0  0  0  0  0  0  0  0  0  0  0
  -22.4970  -12.3010   22.3420 H   0  0  0  0  0  0  0  0  0  0  0  0
  -21.1610  -13.3560   21.9840 H   0  0  0  0  0  0  0  0  0  0  0  0
  -25.5030  -15.5360   20.3560 N   0  0  0  0  0  0  0  0  0  0  0  0
  -24.7130  -16.1720   20.4050 H   0  0  0  0  0  0  0  0  0  0  0  0
  -26.3700  -15.9940   20.1130 H   0  0  0  0  0  0  0  0  0  0  0  0
  -29.7290  -18.1420   17.0010 C   0  0  0  0  0  2  0  0  0  0  0  0
  -28.5160  -18.6470   16.3330 N   0  0  0  0  0  4  0  0  0  0  0  0
  -27.9740  -17.8920   15.9530 H   0  0  0  0  0  0  0  0  0  0  0  0
  -28.7720  -19.2520   15.5720 H   0  0  0  0  0  0  0  0  0  0  0  0
  -27.9380  -19.1730   16.9630 H   0  0  0  0  0  0  0  0  0  0  0  0
  -29.6760  -21.4540   20.9000 C   0  0  0  0  0  3  0  0  0  0  0  0
  -28.6680  -22.6990   20.7310 C   0  0  0  0  0  3  0  0  0  0  0  0
  -29.2060  -24.2100   20.5550 C   0  0  0  0  0  3  0  0  0  0  0  0
  -28.1300  -25.3270   20.1520 C   0  0  0  0  0  3  0  0  0  0  0  0
  -28.3970  -26.7960   20.1990 O   0  0  0  0  0  0  0  0  0  0  0  0
  -24.6450  -32.1010   23.3830 C   0  0  0  0  0  0  0  0  0  0  0  0
  -27.2810  -27.6610   20.1660 C   0  0  0  0  0  0  0  0  0  0  0  0
  -23.4440  -30.7410   21.7120 C   0  0  0  0  0  3  0  0  0  0  0  0
  -24.9000  -29.2580   20.2240 C   0  0  0  0  0  0  0  0  0  0  0  0
  -25.9800  -31.0940   21.5160 C   0  0  0  0  0  2  0  0  0  0  0  0
  -26.0720  -29.7400   20.8210 C   0  0  0  0  0  0  0  0  0  0  0  0
  -27.2680  -28.9560   20.7760 C   0  0  0  0  0  3  0  0  0  0  0  0
  -26.0820  -27.2430   19.5410 C   0  0  0  0  0  3  0  0  0  0  0  0
  -24.9080  -28.0170   19.5730 C   0  0  0  0  0  3  0  0  0  0  0  0
  -23.6510  -30.1100   20.3110 C   0  0  0  0  0  2  0  0  0  0  0  0
  -24.7100  -31.3280   22.2600 N   0  0  0  0  0  0  0  0  0  0  0  0
  -23.5620  -32.3500   23.9330 O   0  0  0  0  0  0  0  0  0  0  0  0
  -22.7990  -29.6880   22.6460 C   0  0  0  0  0  0  0  0  0  0  0  0
  -21.4800  -29.4750   22.5010 N   0  0  0  0  0  0  0  0  0  0  0  0
  -23.4860  -29.0650   23.4610 O   0  0  0  0  0  0  0  0  0  0  0  0
  -20.9840  -30.0280   21.8150 H   0  0  0  0  0  0  0  0  0  0  0  0
  -18.1330  -28.1750   22.9420 C   0  0  0  0  0  0  0  0  0  0  0  0
  -20.6790  -28.5030   23.2460 C   0  0  0  0  0  3  0  0  0  0  0  0
  -20.8280  -27.0850   22.6480 C   0  0  0  0  0  2  0  0  0  0  0  0
  -19.7470  -26.7490   21.6160 C   0  0  0  0  0  2  0  0  0  0  0  0
  -18.3540  -26.8440   22.2460 C   0  0  0  0  0  2  0  0  0  0  0  0
  -19.2240  -28.9630   23.3970 C   0  0  0  0  0  0  0  0  0  0  0  0
  -18.9610  -30.2080   24.0080 C   0  0  0  0  0  3  0  0  0  0  0  0
  -17.6410  -30.6670   24.1690 C   0  0  0  0  0  3  0  0  0  0  0  0
  -16.5640  -29.8780   23.7290 C   0  0  0  0  0  3  0  0  0  0  0  0
  -16.8100  -28.6340   23.1210 C   0  0  0  0  0  3  0  0  0  0  0  0
  -25.9260  -32.7300   24.0140 C   0  0  0  0  0  3  0  0  0  0  0  0
  -25.6110  -34.1230   24.3590 N   0  0  0  0  0  0  0  0  0  0  0  0
  -25.9230  -35.1840   23.6040 C   0  0  0  0  0  0  0  0  0  0  0  0
  -26.5740  -35.0930   22.5580 O   0  0  0  0  0  0  0  0  0  0  0  0
  -25.0240  -34.2670   25.1680 H   0  0  0  0  0  0  0  0  0  0  0  0
  -24.1660  -36.9620   23.3120 C   0  0  0  0  0  1  0  0  0  0  0  0
  -25.4370  -36.5670   24.0810 C   0  0  0  0  0  3  0  0  0  0  0  0
  -27.5830  -37.4730   24.8550 C   0  0  0  0  0  1  0  0  0  0  0  0
  -26.4540  -37.6310   23.9410 N   0  0  0  0  0  0  0  0  0  0  0  0
  -26.0430  -38.5470   24.1010 H   0  0  0  0  0  0  0  0  0  0  0  0
  -26.4400  -31.9460   25.2840 C   0  0  1  0  0  0  0  0  0  0  0  0
  -25.3400  -31.6770   26.3360 C   0  0  0  0  0  1  0  0  0  0  0  0
  -27.0470  -30.5830   24.8800 C   0  0  0  0  0  1  0  0  0  0  0  0
  -27.5740  -32.7460   25.9660 C   0  0  0  0  0  1  0  0  0  0  0  0
  1  2  1  0
  3  1  1  0
  4  1  1  0
  6 11  1  0
  7  8  1  0
  7  6  1  0
  9  8  1  0
  9 21  1  0
  9 10  1  0
 11  5  1  0
 11 10  1  0
 12  5  2  0
 13 16  1  0
 14 17  1  0
 15 46  1  0
 15 14  1  0
 15 13  1  0
 16  4  1  0
 17 16  1  0
 17  5  1  0
 18 19  2  0
 19 20  1  0
 19 38  1  0
 20 23  1  0
 21 18  1  0
 21 22  1  0
 22 20  2  0
 23 24  1  0
 24 25  2  0
 26 29  1  0
 26 25  1  0
 27 26  2  0
 28 27  1  0
 28 23  2  0
 29 30  1  0
 30 35  2  0
 30 31  1  0
 31 32  2  0
 32 33  1  0
 33 37  1  0
 34 33  2  0
 35 34  1  0
 36 35  1  0
 38 39  1  0
 39 42  1  0
 39 41  1  0
 40 38  2  0
 43 44  1  0
 43 18  1  0
 45 43  1  0
 47 50  1  0
 47 46  1  0
 48 47  1  0
 49 47  1  0
 51  1  1  0
 52 51  2  0
 53 52  1  0
 54 55  1  0
 54 53  2  0
 56 67  2  0
 57 55  1  0
 57 62  1  0
 58 66  1  0
 58 68  1  0
 59 65  1  0
 59 61  1  0
 60 66  1  0
 61 60  1  0
 62 61  2  0
 63 64  1  0
 63 57  2  0
 64 59  2  0
 65 58  1  0
 66 56  1  0
 68 70  2  0
 69 68  1  0
 71 69  1  0
 72 81  2  0
 72 77  1  0
 73 69  1  0
 73 77  1  0
 74 73  1  0
 75 76  1  0
 75 74  1  0
 76 72  1  0
 77 78  2  0
 78 79  1  0
 80 79  2  0
 81 80  1  0
 82 56  1  0
 82 83  1  0
 82 92  1  0
 83 86  1  0
 84 88  1  0
 84 83  1  0
 85 84  2  0
 88 87  1  0
 90 88  1  0
 90 91  1  0
 90 89  1  0
 92 95  1  1
 92 93  1  0
 94 92  1  0
M  ISO  4   5 100  17 100  54 101  55 101
M  END
>  <TORSDO>  (45) 
F 23

>  <SCORE>  (45) 
-12.426

>  <name>  (45) 
44

>  <ligand_id>  (45) 
44

>  <original_smiles>  (45) 
[H]c1c([H])c([H])c2c(c1[H])C([H])([H])C([H])([H])C([H])([H])C2([H])N([H])C(=O)C1([H])N(C(=O)C([H])(N([H])C(=O)C([H])(N([H])C([H])([H])[H])C([H])([H])[H])C(C([H])([H])[H])(C([H])([H])[H])C([H])([H])[H])C([H])([H])c2c([H])c(OC([H])([H])C([H])([H])C([H])([H])C([H])([H])[N+]([H])([H])C([H])([H])C3([H])N(C(=O)N4C([H])([H])C([H])([H])C([H])([H])C([H])(n5nc(-c6c([H])c([H])c(Oc7c([H])c([H])c(F)c([H])c7F)c([H])c6[H])c(C(=O)N([H])[H])c5N([H])[H])C4([H])[H])C([H])([H])C([H])(C([H])([H])[N+]([H])([H])[H])C3([H])[H])c([H])c([H])c2C1([H])[H]

>  <smiles>  (45) 
[H]c1c([H])c([H])c2c(c1[H])C([H])([H])C([H])([H])C([H])([H])C2([H])N([H])C(=O)C1([H])N(C(=O)C([H])(N([H])C(=O)C([H])(N([H])C([H])([H])[H])C([H])([H])[H])C(C([H])([H])[H])(C([H])([H])[H])C([H])([H])[H])C([H])([H])c2c([H])c(OC([H])([H])C([H])([H])C([H])([H])C([H])([H])[N+]([H])([H])C([H])([H])C3([H])N(C(=O)N4C([H])([H])C([H])([H])C([H])([H])C([H])(n5nc(-c6c([H])c([H])c(Oc7c([H])c([H])c(F)c([H])c7F)c([H])c6[H])c(C(=O)N([H])[H])c5N([H])[H])C4([H])[H])C([H])([H])C([H])(C([H])([H])[N+]([H])([H])[H])C3([H])[H])c([H])c([H])c2C1([H])[H]

$$$$
45:0:0
     RDKit          3D

 96104  0  0  1  0  0  0  0  0999 V2000
  -29.0680  -22.2720   20.3120 N   0  0  0  0  0  0  0  0  0  0  0  0
  -29.5210  -22.6370   21.6650 C   0  0  0  0  0  2  0  0  0  0  0  0
  -27.8000  -25.8970   24.1610 C   0  0  0  0  0  2  0  0  0  0  0  0
  -27.1770  -25.6090   22.7880 C   0  0  0  0  0  2  0  0  0  0  0  0
  -29.3200  -25.6720   24.1440 C   0  0  0  0  0  2  0  0  0  0  0  0
  -27.5460  -24.2020   22.2780 C   0  0  0  0  0  2  0  0  0  0  0  0
  -29.6800  -24.2740   23.6110 C   0  0  0  0  0  2  0  0  0  0  0  0
  -29.0760  -24.0210   22.2130 C   0  0  0  0  0  3  0  0  0  0  0  0
  -28.2280  -23.4450   19.6800 C   0  0  0  0  0  2  0  0  0  0  0  0
  -28.6850  -25.0310   19.2920 C   0  0  0  0  0  2  0  0  0  0  0  0
  -28.4710  -26.4390   19.9040 O   0  0  0  0  0  0  0  0  0  0  0  0
  -24.6810  -31.8540   23.0420 C   0  0  0  0  0  0  0  0  0  0  0  0
  -27.3580  -27.3440   19.8030 C   0  0  0  0  0  0  0  0  0  0  0  0
  -23.4920  -30.4710   21.3780 C   0  0  0  0  0  3  0  0  0  0  0  0
  -24.9630  -28.9900   19.8680 C   0  0  0  0  0  0  0  0  0  0  0  0
  -26.0270  -30.8320   21.1710 C   0  0  0  0  0  2  0  0  0  0  0  0
  -26.1330  -29.4640   20.4730 C   0  0  0  0  0  0  0  0  0  0  0  0
  -27.3220  -28.6530   20.4310 C   0  0  0  0  0  3  0  0  0  0  0  0
  -26.1640  -26.9620   19.1550 C   0  0  0  0  0  3  0  0  0  0  0  0
  -24.9900  -27.7550   19.1950 C   0  0  0  0  0  3  0  0  0  0  0  0
  -23.7060  -29.8420   19.9720 C   0  0  0  0  0  2  0  0  0  0  0  0
  -24.7530  -31.0730   21.9190 N   0  0  0  0  0  0  0  0  0  0  0  0
  -23.5980  -32.0870   23.6000 O   0  0  0  0  0  0  0  0  0  0  0  0
  -22.8670  -29.4150   22.3240 C   0  0  0  0  0  0  0  0  0  0  0  0
  -21.5390  -29.2290   22.2400 N   0  0  0  0  0  0  0  0  0  0  0  0
  -23.5790  -28.7670   23.0960 O   0  0  0  0  0  0  0  0  0  0  0  0
  -21.0190  -29.8020   21.5920 H   0  0  0  0  0  0  0  0  0  0  0  0
  -18.1950  -27.9610   22.8200 C   0  0  0  0  0  0  0  0  0  0  0  0
  -20.7600  -28.2480   23.0010 C   0  0  0  0  0  3  0  0  0  0  0  0
  -20.8580  -26.8440   22.3600 C   0  0  0  0  0  2  0  0  0  0  0  0
  -19.7210  -26.5510   21.3760 C   0  0  0  0  0  2  0  0  0  0  0  0
  -18.3630  -26.6460   22.0770 C   0  0  0  0  0  2  0  0  0  0  0  0
  -19.3210  -28.7210   23.2390 C   0  0  0  0  0  0  0  0  0  0  0  0
  -19.1080  -29.9510   23.8990 C   0  0  0  0  0  3  0  0  0  0  0  0
  -17.8030  -30.4220   24.1420 C   0  0  0  0  0  3  0  0  0  0  0  0
  -16.6940  -29.6610   23.7340 C   0  0  0  0  0  3  0  0  0  0  0  0
  -16.8910  -28.4320   23.0800 C   0  0  0  0  0  3  0  0  0  0  0  0
  -25.9530  -32.5100   23.6630 C   0  0  0  0  0  3  0  0  0  0  0  0
  -26.5100  -31.7210   24.9120 C   0  0  1  0  0  0  0  0  0  0  0  0
  -25.4430  -31.4380   25.9950 C   0  0  0  0  0  1  0  0  0  0  0  0
  -27.1150  -30.3660   24.4790 C   0  0  0  0  0  1  0  0  0  0  0  0
  -27.6550  -32.5260   25.5700 C   0  0  0  0  0  1  0  0  0  0  0  0
  -25.6060  -33.8890   24.0440 N   0  0  0  0  0  0  0  0  0  0  0  0
  -25.8970  -34.9790   23.3210 C   0  0  0  0  0  0  0  0  0  0  0  0
  -26.5550  -34.9310   22.2770 O   0  0  0  0  0  0  0  0  0  0  0  0
  -25.0230  -34.0000   24.8610 H   0  0  0  0  0  0  0  0  0  0  0  0
  -24.1090  -36.7300   23.0710 C   0  0  0  0  0  1  0  0  0  0  0  0
  -25.3830  -36.3370   23.8360 C   0  0  0  0  0  3  0  0  0  0  0  0
  -27.5130  -37.2590   24.6380 C   0  0  0  0  0  1  0  0  0  0  0  0
  -26.3800  -37.4250   23.7310 N   0  0  0  0  0  0  0  0  0  0  0  0
  -25.9500  -38.3270   23.9260 H   0  0  0  0  0  0  0  0  0  0  0  0
  -28.7950  -20.7280   20.0850 C   0  0  0  0  0  2  0  0  0  0  0  0
  -29.5510  -19.3570   20.7870 C   0  0  0  0  0  3  0  0  0  0  0  0
  -30.9480  -19.7110   21.0850 N   0  0  0  0  0  4  0  0  0  0  0  0
  -31.4610  -19.8690   20.2350 H   0  0  0  0  0  0  0  0  0  0  0  0
  -31.3950  -18.9740   21.6010 H   0  0  0  0  0  0  0  0  0  0  0  0
  -30.9820  -20.5530   21.6300 H   0  0  0  0  0  0  0  0  0  0  0  0
  -29.5950  -17.8070   20.0860 C   0  0  0  0  0  2  0  0  0  0  0  0
  -30.5290  -15.2240   20.5930 C   0  0  0  0  0  0  0  0  0  0  0  0
  -30.5290  -12.8260   19.7640 C   0  0  0  0  0  2  0  0  0  0  0  0
  -29.6630  -12.7240   18.4860 C   0  0  0  0  0  2  0  0  0  0  0  0
  -28.1810  -12.4980   18.8400 C   0  0  0  0  0  2  0  0  0  0  0  0
  -27.7000  -13.4460   19.9690 C   0  0  0  0  0  3  0  0  0  0  0  0
  -28.6930  -13.5120   21.1510 C   0  0  0  0  0  2  0  0  0  0  0  0
  -29.9900  -13.9360   20.6080 N   0  0  0  0  0  0  0  0  0  0  0  0
  -31.7110  -15.3340   20.2480 O   0  0  0  0  0  0  0  0  0  0  0  0
  -29.7050  -16.3730   20.7780 N   0  0  0  0  0  0  0  0  0  0  0  0
  -28.8320  -16.1120   21.2150 H   0  0  0  0  0  0  0  0  0  0  0  0
  -25.2990  -14.0050   20.6540 C   0  0  0  0  0  0  0  0  0  0  0  0
  -24.2220  -13.2210   20.9620 C   0  0  0  0  0  0  0  0  0  0  0  0
  -24.6810  -11.8700   20.8880 C   0  0  0  0  0  0  0  0  0  0  0  0
  -26.3450  -13.1330   20.4090 N   0  0  0  0  0  0  0  0  0  0  0  0
  -25.9810  -11.8390   20.6140 N   0  0  0  0  0  0  0  0  0  0  0  0
  -23.9430  -10.6040   21.0020 C   0  0  0  0  0  0  0  0  0  0  0  0
  -24.3770   -9.5710   21.8610 C   0  0  0  0  0  3  0  0  0  0  0  0
  -23.6370   -8.3730   21.9710 C   0  0  0  0  0  3  0  0  0  0  0  0
  -22.4500   -8.2010   21.2190 C   0  0  0  0  0  0  0  0  0  0  0  0
  -22.0380   -9.2230   20.3460 C   0  0  0  0  0  3  0  0  0  0  0  0
  -22.7780  -10.4130   20.2350 C   0  0  0  0  0  3  0  0  0  0  0  0
  -21.6830   -7.0610   21.2400 O   0  0  0  0  0  0  0  0  0  0  0  0
  -21.6690   -6.2230   22.3260 C   0  0  0  0  0  0  0  0  0  0  0  0
  -21.3160   -6.6780   23.6150 C   0  0  0  0  0  3  0  0  0  0  0  0
  -21.2470   -5.7670   24.6890 C   0  0  0  0  0  3  0  0  0  0  0  0
  -21.5230   -4.4030   24.4750 C   0  0  0  0  0  0  0  0  0  0  0  0
  -21.8710   -3.9480   23.1910 C   0  0  0  0  0  3  0  0  0  0  0  0
  -21.9410   -4.8540   22.1200 C   0  0  0  0  0  0  0  0  0  0  0  0
  -22.2550   -4.4070   20.8800 F   0  0  0  0  0  0  0  0  0  0  0  0
  -21.4510   -3.5280   25.5050 F   0  0  0  0  0  0  0  0  0  0  0  0
  -22.8190  -13.6950   21.2110 C   0  0  0  0  0  0  0  0  0  0  0  0
  -22.0680  -12.9760   22.0370 N   0  0  0  0  0  0  0  0  0  0  0  0
  -22.3980  -14.7370   20.7080 O   0  0  0  0  0  0  0  0  0  0  0  0
  -22.4230  -12.1350   22.4680 H   0  0  0  0  0  0  0  0  0  0  0  0
  -21.1250  -13.2720   22.2440 H   0  0  0  0  0  0  0  0  0  0  0  0
  -25.4730  -15.3820   20.5340 N   0  0  0  0  0  0  0  0  0  0  0  0
  -24.7000  -16.0320   20.6290 H   0  0  0  0  0  0  0  0  0  0  0  0
  -26.3220  -15.8220   20.2040 H   0  0  0  0  0  0  0  0  0  0  0  0
  1  2  1  0
  2  8  1  0
  4  3  1  0
  5  3  1  0
  6  4  1  0
  7  5  1  0
  8  6  1  0
  8  7  1  0
  9  1  1  0
 10  9  1  0
 10 11  1  0
 12 23  2  0
 13 11  1  0
 13 18  1  0
 14 22  1  0
 14 24  1  0
 15 21  1  0
 15 17  1  0
 16 22  1  0
 17 16  1  0
 18 17  2  0
 19 20  1  0
 19 13  2  0
 20 15  2  0
 21 14  1  0
 22 12  1  0
 24 26  2  0
 25 24  1  0
 27 25  1  0
 28 37  2  0
 28 33  1  0
 29 25  1  0
 29 33  1  0
 30 29  1  0
 31 32  1  0
 31 30  1  0
 32 28  1  0
 33 34  2  0
 34 35  1  0
 36 35  2  0
 37 36  1  0
 38 12  1  0
 38 43  1  0
 38 39  1  0
 39 42  1  1
 39 40  1  0
 41 39  1  0
 43 46  1  0
 44 48  1  0
 44 43  1  0
 45 44  2  0
 48 47  1  0
 50 48  1  0
 50 51  1  0
 50 49  1  0
 52  1  1  0
 53 52  1  0
 53 54  1  0
 54 56  1  0
 54 57  1  0
 55 54  1  0
 58 67  1  0
 58 53  1  0
 59 65  1  0
 59 67  1  0
 60 65  1  0
 61 62  1  0
 61 60  1  0
 63 62  1  0
 63 72  1  0
 63 64  1  0
 65 64  1  0
 66 59  2  0
 67 68  1  0
 69 70  2  0
 70 89  1  0
 71 70  1  0
 71 74  1  0
 72 73  1  0
 72 69  1  0
 73 71  2  0
 74 75  1  0
 75 76  2  0
 77 80  1  0
 77 76  1  0
 78 77  2  0
 79 78  1  0
 79 74  2  0
 80 81  1  0
 81 82  1  0
 82 83  2  0
 84 83  1  0
 84 88  1  0
 85 84  2  0
 86 81  2  0
 86 85  1  0
 87 86  1  0
 89 90  1  0
 90 93  1  0
 90 92  1  0
 91 89  2  0
 94 95  1  0
 94 69  1  0
 96 94  1  0
M  ISO  4  10 101  11 101  59 100  67 100
M  END
>  <TORSDO>  (46) 
F 24

>  <SCORE>  (46) 
-13.566

>  <name>  (46) 
45

>  <ligand_id>  (46) 
45

>  <original_smiles>  (46) 
[H]c1c([H])c([H])c2c(c1[H])C([H])([H])C([H])([H])C([H])([H])C2([H])N([H])C(=O)C1([H])N(C(=O)C([H])(N([H])C(=O)C([H])(N([H])C([H])([H])[H])C([H])([H])[H])C(C([H])([H])[H])(C([H])([H])[H])C([H])([H])[H])C([H])([H])c2c([H])c(OC([H])([H])C([H])([H])N(C([H])([H])C3([H])C([H])([H])C([H])([H])C([H])([H])C([H])([H])C3([H])[H])C([H])([H])C([H])(C([H])([H])N([H])C(=O)N3C([H])([H])C([H])([H])C([H])([H])C([H])(n4nc(-c5c([H])c([H])c(Oc6c([H])c([H])c(F)c([H])c6F)c([H])c5[H])c(C(=O)N([H])[H])c4N([H])[H])C3([H])[H])[N+]([H])([H])[H])c([H])c([H])c2C1([H])[H]

>  <smiles>  (46) 
[H]c1c([H])c([H])c2c(c1[H])C([H])([H])C([H])([H])C([H])([H])C2([H])N([H])C(=O)C1([H])N(C(=O)C([H])(N([H])C(=O)C([H])(N([H])C([H])([H])[H])C([H])([H])[H])C(C([H])([H])[H])(C([H])([H])[H])C([H])([H])[H])C([H])([H])c2c([H])c(OC([H])([H])C([H])([H])N(C([H])([H])C3([H])C([H])([H])C([H])([H])C([H])([H])C([H])([H])C3([H])[H])C([H])([H])C([H])(C([H])([H])N([H])C(=O)N3C([H])([H])C([H])([H])C([H])([H])C([H])(n4nc(-c5c([H])c([H])c(Oc6c([H])c([H])c(F)c([H])c6F)c([H])c5[H])c(C(=O)N([H])[H])c4N([H])[H])C3([H])[H])[N+]([H])([H])[H])c([H])c([H])c2C1([H])[H]

$$$$
46:0:0
     RDKit          3D

 95103  0  0  1  0  0  0  0  0999 V2000
  -28.9790  -23.3690   20.1680 C   0  0  0  0  0  3  0  0  0  0  0  0
  -28.6200  -21.7390   20.4980 C   0  0  0  0  0  3  0  0  0  0  0  0
  -27.7760  -19.6620   18.0480 C   0  0  0  0  0  2  0  0  0  0  0  0
  -28.9370  -20.5970   17.6480 C   0  0  0  0  0  2  0  0  0  0  0  0
  -28.2460  -18.5230   18.9650 C   0  0  0  0  0  2  0  0  0  0  0  0
  -30.0600  -20.6850   18.7110 C   0  0  0  0  0  2  0  0  0  0  0  0
  -29.0570  -18.9650   20.2200 C   0  0  0  0  0  3  0  0  0  0  0  0
  -29.5290  -20.4920   20.0810 N   0  0  2  0  0  4  0  0  0  0  0  0
  -30.3280  -20.5630   20.6940 H   0  0  0  0  0  0  0  0  0  0  0  0
  -30.1460  -17.6970   20.4730 C   0  0  0  0  0  2  0  0  0  0  0  0
  -30.5240  -14.9770   20.3350 C   0  0  0  0  0  0  0  0  0  0  0  0
  -30.3900  -12.6390   19.3750 C   0  0  0  0  0  2  0  0  0  0  0  0
  -29.4550  -12.6110   18.1450 C   0  0  0  0  0  2  0  0  0  0  0  0
  -27.9920  -12.3980   18.5760 C   0  0  0  0  0  2  0  0  0  0  0  0
  -27.5880  -13.3120   19.7650 C   0  0  0  0  0  3  0  0  0  0  0  0
  -28.6470  -13.3160   20.8890 C   0  0  0  0  0  2  0  0  0  0  0  0
  -29.9180  -13.7250   20.2800 N   0  0  0  0  0  0  0  0  0  0  0  0
  -31.7230  -15.0440   20.0450 O   0  0  0  0  0  0  0  0  0  0  0  0
  -29.7600  -16.1610   20.5100 N   0  0  0  0  0  0  0  0  0  0  0  0
  -28.7850  -15.9830   20.7030 H   0  0  0  0  0  0  0  0  0  0  0  0
  -25.2080  -13.8820   20.5100 C   0  0  0  0  0  0  0  0  0  0  0  0
  -24.1460  -13.1020   20.8770 C   0  0  0  0  0  0  0  0  0  0  0  0
  -24.6130  -11.7520   20.8370 C   0  0  0  0  0  0  0  0  0  0  0  0
  -26.2530  -13.0070   20.2640 N   0  0  0  0  0  0  0  0  0  0  0  0
  -25.9050  -11.7210   20.5260 N   0  0  0  0  0  0  0  0  0  0  0  0
  -23.8890  -10.4870   21.0200 C   0  0  0  0  0  0  0  0  0  0  0  0
  -24.3090   -9.5260   21.9660 C   0  0  0  0  0  3  0  0  0  0  0  0
  -23.5870   -8.3250   22.1360 C   0  0  0  0  0  3  0  0  0  0  0  0
  -22.4290   -8.0770   21.3620 C   0  0  0  0  0  0  0  0  0  0  0  0
  -22.0280   -9.0260   20.4040 C   0  0  0  0  0  3  0  0  0  0  0  0
  -22.7520  -10.2180   20.2330 C   0  0  0  0  0  3  0  0  0  0  0  0
  -21.6780   -6.9290   21.4420 O   0  0  0  0  0  0  0  0  0  0  0  0
  -21.5940   -6.2030   22.6030 C   0  0  0  0  0  0  0  0  0  0  0  0
  -21.0960   -6.7650   23.7990 C   0  0  0  0  0  3  0  0  0  0  0  0
  -20.9630   -5.9650   24.9510 C   0  0  0  0  0  3  0  0  0  0  0  0
  -21.3150   -4.6020   24.9070 C   0  0  0  0  0  0  0  0  0  0  0  0
  -21.8050   -4.0400   23.7150 C   0  0  0  0  0  3  0  0  0  0  0  0
  -21.9400   -4.8380   22.5650 C   0  0  0  0  0  0  0  0  0  0  0  0
  -22.3930   -4.2860   21.4130 F   0  0  0  0  0  0  0  0  0  0  0  0
  -21.1790   -3.8300   26.0100 F   0  0  0  0  0  0  0  0  0  0  0  0
  -22.7470  -13.5730   21.1500 C   0  0  0  0  0  0  0  0  0  0  0  0
  -22.0190  -12.8650   22.0050 N   0  0  0  0  0  0  0  0  0  0  0  0
  -22.3090  -14.6030   20.6410 O   0  0  0  0  0  0  0  0  0  0  0  0
  -22.3870  -12.0310   22.4400 H   0  0  0  0  0  0  0  0  0  0  0  0
  -21.0780  -13.1600   22.2280 H   0  0  0  0  0  0  0  0  0  0  0  0
  -25.3660  -15.2530   20.3370 N   0  0  0  0  0  0  0  0  0  0  0  0
  -24.5900  -15.8980   20.4400 H   0  0  0  0  0  0  0  0  0  0  0  0
  -26.1930  -15.6880   19.9520 H   0  0  0  0  0  0  0  0  0  0  0  0
  -27.9730  -24.6880   20.4980 C   0  0  0  0  0  3  0  0  0  0  0  0
  -28.2460  -26.2050   20.2070 O   0  0  0  0  0  0  0  0  0  0  0  0
  -24.6260  -31.8800   23.2420 C   0  0  0  0  0  0  0  0  0  0  0  0
  -27.1880  -27.1880   20.1730 C   0  0  0  0  0  0  0  0  0  0  0  0
  -23.4200  -30.4990   21.5970 C   0  0  0  0  0  3  0  0  0  0  0  0
  -24.8600  -28.9340   20.1580 C   0  0  0  0  0  0  0  0  0  0  0  0
  -25.9730  -30.7620   21.4260 C   0  0  0  0  0  2  0  0  0  0  0  0
  -26.0420  -29.3740   20.7670 C   0  0  0  0  0  0  0  0  0  0  0  0
  -27.2080  -28.5180   20.7570 C   0  0  0  0  0  3  0  0  0  0  0  0
  -25.9830  -26.8550   19.5140 C   0  0  0  0  0  3  0  0  0  0  0  0
  -24.8430  -27.6870   19.5160 C   0  0  0  0  0  3  0  0  0  0  0  0
  -23.6340  -29.8320   20.2130 C   0  0  0  0  0  2  0  0  0  0  0  0
  -24.6930  -31.0680   22.1430 N   0  0  0  0  0  0  0  0  0  0  0  0
  -23.5410  -32.1630   23.7740 O   0  0  0  0  0  0  0  0  0  0  0  0
  -22.7420  -29.4850   22.5530 C   0  0  0  0  0  0  0  0  0  0  0  0
  -21.4160  -29.3090   22.4190 N   0  0  0  0  0  0  0  0  0  0  0  0
  -23.4130  -28.8580   23.3760 O   0  0  0  0  0  0  0  0  0  0  0  0
  -20.9300  -29.8650   21.7300 H   0  0  0  0  0  0  0  0  0  0  0  0
  -18.0370  -28.0900   22.9010 C   0  0  0  0  0  0  0  0  0  0  0  0
  -20.5930  -28.3660   23.1840 C   0  0  0  0  0  3  0  0  0  0  0  0
  -20.7060  -26.9350   22.6090 C   0  0  0  0  0  2  0  0  0  0  0  0
  -19.6120  -26.6070   21.5870 C   0  0  0  0  0  2  0  0  0  0  0  0
  -18.2250  -26.7420   22.2230 C   0  0  0  0  0  2  0  0  0  0  0  0
  -19.1500  -28.8590   23.3370 C   0  0  0  0  0  0  0  0  0  0  0  0
  -18.9190  -30.1180   23.9320 C   0  0  0  0  0  3  0  0  0  0  0  0
  -17.6100  -30.6100   24.0940 C   0  0  0  0  0  3  0  0  0  0  0  0
  -16.5120  -29.8390   23.6730 C   0  0  0  0  0  3  0  0  0  0  0  0
  -16.7280  -28.5800   23.0830 C   0  0  0  0  0  3  0  0  0  0  0  0
  -25.9070  -32.5090   23.8700 C   0  0  0  0  0  3  0  0  0  0  0  0
  -25.6010  -33.9080   24.2030 N   0  0  0  0  0  0  0  0  0  0  0  0
  -25.9390  -34.9660   23.4520 C   0  0  0  0  0  0  0  0  0  0  0  0
  -26.6080  -34.8650   22.4200 O   0  0  0  0  0  0  0  0  0  0  0  0
  -25.0070  -34.0630   25.0060 H   0  0  0  0  0  0  0  0  0  0  0  0
  -24.2270  -36.7790   23.1050 C   0  0  0  0  0  1  0  0  0  0  0  0
  -25.4610  -36.3560   23.9190 C   0  0  0  0  0  3  0  0  0  0  0  0
  -27.5940  -37.2210   24.7730 C   0  0  0  0  0  1  0  0  0  0  0  0
  -26.5030  -37.4010   23.8200 N   0  0  0  0  0  0  0  0  0  0  0  0
  -26.1020  -38.3230   23.9670 H   0  0  0  0  0  0  0  0  0  0  0  0
  -26.4120  -31.7370   25.1510 C   0  0  1  0  0  0  0  0  0  0  0  0
  -25.3120  -31.5090   26.2140 C   0  0  0  0  0  1  0  0  0  0  0  0
  -26.9890  -30.3550   24.7680 C   0  0  0  0  0  1  0  0  0  0  0  0
  -27.5640  -32.5260   25.8170 C   0  0  0  0  0  1  0  0  0  0  0  0
  -27.6160  -24.6550   22.0050 C   0  0  0  0  0  2  0  0  0  0  0  0
  -26.2310  -24.2020   22.2780 N   0  0  0  0  0  4  0  0  0  0  0  0
  -25.5550  -24.8290   21.8730 H   0  0  0  0  0  0  0  0  0  0  0  0
  -26.0680  -24.1850   23.2700 H   0  0  0  0  0  0  0  0  0  0  0  0
  -26.0570  -23.2760   21.9280 H   0  0  0  0  0  0  0  0  0  0  0  0
  1  2  2  0
  3  5  1  0
  4  3  1  0
  4  6  1  0
  5  7  1  0
  6  8  1  0
  7 10  1  0
  8  7  1  0
  8  2  1  0
  8  9  1  1
 10 19  1  0
 11 19  1  0
 12 17  1  0
 13 14  1  0
 13 12  1  0
 15 14  1  0
 15 24  1  0
 15 16  1  0
 17 11  1  0
 17 16  1  0
 18 11  2  0
 19 20  1  0
 21 22  2  0
 22 41  1  0
 23 22  1  0
 23 26  1  0
 24 21  1  0
 24 25  1  0
 25 23  2  0
 26 27  1  0
 27 28  2  0
 29 32  1  0
 29 28  1  0
 30 29  2  0
 31 30  1  0
 31 26  2  0
 32 33  1  0
 33 34  1  0
 34 35  2  0
 36 35  1  0
 36 40  1  0
 37 36  2  0
 38 33  2  0
 38 37  1  0
 39 38  1  0
 41 42  1  0
 42 45  1  0
 42 44  1  0
 43 41  2  0
 46 47  1  0
 46 21  1  0
 48 46  1  0
 49  1  1  0
 49 91  1  0
 50 49  1  0
 51 62  2  0
 52 50  1  0
 52 57  1  0
 53 61  1  0
 53 63  1  0
 54 60  1  0
 54 56  1  0
 55 61  1  0
 56 55  1  0
 57 56  2  0
 58 59  1  0
 58 52  2  0
 59 54  2  0
 60 53  1  0
 61 51  1  0
 63 65  2  0
 64 63  1  0
 66 64  1  0
 67 76  2  0
 67 72  1  0
 68 64  1  0
 68 72  1  0
 69 68  1  0
 70 71  1  0
 70 69  1  0
 71 67  1  0
 72 73  2  0
 73 74  1  0
 75 74  2  0
 76 75  1  0
 77 51  1  0
 77 78  1  0
 77 87  1  0
 78 81  1  0
 79 83  1  0
 79 78  1  0
 80 79  2  0
 83 82  1  0
 85 83  1  0
 85 86  1  0
 85 84  1  0
 87 90  1  1
 87 88  1  0
 89 87  1  0
 91 92  1  0
 92 94  1  0
 93 92  1  0
 95 92  1  0
M  ISO  4  11 100  19 100  49 101  50 101
M  END
>  <TORSDO>  (47) 
F 22

>  <SCORE>  (47) 
-14.327

>  <name>  (47) 
46

>  <ligand_id>  (47) 
46

>  <original_smiles>  (47) 
[H]c1c([H])c([H])c2c(c1[H])C([H])([H])C([H])([H])C([H])([H])C2([H])N([H])C(=O)C1([H])N(C(=O)C([H])(N([H])C(=O)C([H])(N([H])C([H])([H])[H])C([H])([H])[H])C(C([H])([H])[H])(C([H])([H])[H])C([H])([H])[H])C([H])([H])c2c([H])c(OC([H])(C([H])([H])C([H])([H])[N+]3([H])C([H])([H])C([H])([H])C([H])([H])C([H])([H])C3([H])C([H])([H])N([H])C(=O)N3C([H])([H])C([H])([H])C([H])([H])C([H])(n4nc(-c5c([H])c([H])c(Oc6c([H])c([H])c(F)c([H])c6F)c([H])c5[H])c(C(=O)N([H])[H])c4N([H])[H])C3([H])[H])C([H])([H])[N+]([H])([H])[H])c([H])c([H])c2C1([H])[H]

>  <smiles>  (47) 
[H]c1c([H])c([H])c2c(c1[H])C([H])([H])C([H])([H])C([H])([H])C2([H])N([H])C(=O)C1([H])N(C(=O)C([H])(N([H])C(=O)C([H])(N([H])C([H])([H])[H])C([H])([H])[H])C(C([H])([H])[H])(C([H])([H])[H])C([H])([H])[H])C([H])([H])c2c([H])c(OC([H])(C([H])([H])C([H])([H])[N+]3([H])C([H])([H])C([H])([H])C([H])([H])C([H])([H])C3([H])C([H])([H])N([H])C(=O)N3C([H])([H])C([H])([H])C([H])([H])C([H])(n4nc(-c5c([H])c([H])c(Oc6c([H])c([H])c(F)c([H])c6F)c([H])c5[H])c(C(=O)N([H])[H])c4N([H])[H])C3([H])[H])C([H])([H])[N+]([H])([H])[H])c([H])c([H])c2C1([H])[H]

$$$$
47:0:0
     RDKit          3D

 98106  0  0  1  0  0  0  0  0999 V2000
  -25.8770  -23.2080   19.5610 C   0  0  0  0  0  2  0  0  0  0  0  0
  -26.8530  -23.2710   20.7660 C   0  0  0  0  0  2  0  0  0  0  0  0
  -27.5370  -24.6450   18.1310 C   0  0  0  0  0  2  0  0  0  0  0  0
  -26.5010  -23.4850   18.1590 C   0  0  0  0  0  3  0  0  0  0  0  0
  -28.3200  -23.4490   20.3540 C   0  0  0  0  0  3  0  0  0  0  0  0
  -28.2970  -24.8850   19.4570 C   0  0  0  0  0  3  0  0  0  0  0  0
  -29.2540  -20.7940   20.4420 C   0  0  0  0  0  0  0  0  0  0  0  0
  -29.5230  -20.8720   21.7560 N   0  0  0  0  0  4  0  0  0  0  0  0
  -28.8260  -22.0170   19.8140 N   0  0  0  0  0  0  0  0  0  0  0  0
  -29.7860  -20.0550   22.2890 H   0  0  0  0  0  0  0  0  0  0  0  0
  -29.4920  -21.7420   22.2670 H   0  0  0  0  0  0  0  0  0  0  0  0
  -28.6810  -21.9290   18.8170 H   0  0  0  0  0  0  0  0  0  0  0  0
  -29.3870  -19.2790   19.7820 C   0  0  0  0  0  2  0  0  0  0  0  0
  -30.2330  -17.9750   20.4710 C   0  0  0  0  0  2  0  0  0  0  0  0
  -30.7600  -15.2470   20.1830 C   0  0  0  0  0  0  0  0  0  0  0  0
  -30.6770  -12.8610   19.3110 C   0  0  0  0  0  2  0  0  0  0  0  0
  -29.7230  -12.7440   18.1000 C   0  0  0  0  0  2  0  0  0  0  0  0
  -28.2710  -12.5220   18.5670 C   0  0  0  0  0  2  0  0  0  0  0  0
  -27.8630  -13.4820   19.7140 C   0  0  0  0  0  3  0  0  0  0  0  0
  -28.9370  -13.5580   20.8190 C   0  0  0  0  0  2  0  0  0  0  0  0
  -30.1850  -13.9770   20.1670 N   0  0  0  0  0  0  0  0  0  0  0  0
  -31.9690  -15.3210   19.9360 O   0  0  0  0  0  0  0  0  0  0  0  0
  -29.9520  -16.4180   20.2740 N   0  0  0  0  0  0  0  0  0  0  0  0
  -28.9730  -16.1880   20.3550 H   0  0  0  0  0  0  0  0  0  0  0  0
  -25.5140  -14.0550   20.5490 C   0  0  0  0  0  0  0  0  0  0  0  0
  -24.4540  -13.2760   20.9250 C   0  0  0  0  0  0  0  0  0  0  0  0
  -24.9060  -11.9240   20.8350 C   0  0  0  0  0  0  0  0  0  0  0  0
  -26.5410  -13.1780   20.2470 N   0  0  0  0  0  0  0  0  0  0  0  0
  -26.1870  -11.8880   20.4860 N   0  0  0  0  0  0  0  0  0  0  0  0
  -24.1740  -10.6620   21.0030 C   0  0  0  0  0  0  0  0  0  0  0  0
  -24.5740   -9.6940   21.9500 C   0  0  0  0  0  3  0  0  0  0  0  0
  -23.8410   -8.4990   22.1070 C   0  0  0  0  0  3  0  0  0  0  0  0
  -22.6920   -8.2620   21.3140 C   0  0  0  0  0  0  0  0  0  0  0  0
  -22.3110   -9.2170   20.3570 C   0  0  0  0  0  3  0  0  0  0  0  0
  -23.0450  -10.4040   20.1980 C   0  0  0  0  0  3  0  0  0  0  0  0
  -21.9330   -7.1180   21.3790 O   0  0  0  0  0  0  0  0  0  0  0  0
  -21.7790   -6.4220   22.5520 C   0  0  0  0  0  0  0  0  0  0  0  0
  -21.2120   -7.0140   23.7010 C   0  0  0  0  0  3  0  0  0  0  0  0
  -21.0090   -6.2430   24.8630 C   0  0  0  0  0  3  0  0  0  0  0  0
  -21.3620   -4.8810   24.8750 C   0  0  0  0  0  0  0  0  0  0  0  0
  -21.9210   -4.2880   23.7300 C   0  0  0  0  0  3  0  0  0  0  0  0
  -22.1260   -5.0560   22.5700 C   0  0  0  0  0  0  0  0  0  0  0  0
  -22.6460   -4.4750   21.4620 F   0  0  0  0  0  0  0  0  0  0  0  0
  -21.1590   -4.1370   25.9880 F   0  0  0  0  0  0  0  0  0  0  0  0
  -23.0690  -13.7560   21.2490 C   0  0  0  0  0  0  0  0  0  0  0  0
  -22.3690  -13.0520   22.1320 N   0  0  0  0  0  0  0  0  0  0  0  0
  -22.6190  -14.7880   20.7540 O   0  0  0  0  0  0  0  0  0  0  0  0
  -22.7480  -12.2180   22.5540 H   0  0  0  0  0  0  0  0  0  0  0  0
  -21.4390  -13.3530   22.3910 H   0  0  0  0  0  0  0  0  0  0  0  0
  -25.6800  -15.4300   20.4090 N   0  0  0  0  0  0  0  0  0  0  0  0
  -24.9140  -16.0770   20.5580 H   0  0  0  0  0  0  0  0  0  0  0  0
  -26.5010  -15.8740   20.0210 H   0  0  0  0  0  0  0  0  0  0  0  0
  -28.1720  -26.3880   19.9320 O   0  0  0  0  0  0  0  0  0  0  0  0
  -24.5860  -31.9570   23.1920 C   0  0  0  0  0  0  0  0  0  0  0  0
  -27.0660  -27.3250   19.9280 C   0  0  0  0  0  0  0  0  0  0  0  0
  -23.3290  -30.6000   21.5630 C   0  0  0  0  0  3  0  0  0  0  0  0
  -24.7260  -29.0670   20.0450 C   0  0  0  0  0  0  0  0  0  0  0  0
  -25.8750  -30.8770   21.3080 C   0  0  0  0  0  2  0  0  0  0  0  0
  -25.9270  -29.5020   20.6160 C   0  0  0  0  0  0  0  0  0  0  0  0
  -27.0920  -28.6480   20.5400 C   0  0  0  0  0  3  0  0  0  0  0  0
  -25.8230  -26.9890   19.3510 C   0  0  0  0  0  3  0  0  0  0  0  0
  -24.6860  -27.8230   19.4000 C   0  0  0  0  0  3  0  0  0  0  0  0
  -23.4990  -29.9590   20.1600 C   0  0  0  0  0  2  0  0  0  0  0  0
  -24.6200  -31.1660   22.0760 N   0  0  0  0  0  0  0  0  0  0  0  0
  -23.5180  -32.2220   23.7670 O   0  0  0  0  0  0  0  0  0  0  0  0
  -22.6900  -29.5650   22.5240 C   0  0  0  0  0  0  0  0  0  0  0  0
  -21.3630  -29.3680   22.4190 N   0  0  0  0  0  0  0  0  0  0  0  0
  -23.3900  -28.9430   23.3270 O   0  0  0  0  0  0  0  0  0  0  0  0
  -20.8540  -29.9240   21.7460 H   0  0  0  0  0  0  0  0  0  0  0  0
  -18.0300  -28.0410   22.9180 C   0  0  0  0  0  0  0  0  0  0  0  0
  -20.5760  -28.4030   23.1900 C   0  0  0  0  0  3  0  0  0  0  0  0
  -20.7340  -26.9740   22.6220 C   0  0  0  0  0  2  0  0  0  0  0  0
  -19.6480  -26.6040   21.6060 C   0  0  0  0  0  2  0  0  0  0  0  0
  -18.2610  -26.6980   22.2460 C   0  0  0  0  0  2  0  0  0  0  0  0
  -19.1160  -28.8490   23.3470 C   0  0  0  0  0  0  0  0  0  0  0  0
  -18.8460  -30.1030   23.9360 C   0  0  0  0  0  3  0  0  0  0  0  0
  -17.5210  -30.5510   24.0990 C   0  0  0  0  0  3  0  0  0  0  0  0
  -16.4500  -29.7410   23.6850 C   0  0  0  0  0  3  0  0  0  0  0  0
  -16.7040  -28.4890   23.1000 C   0  0  0  0  0  3  0  0  0  0  0  0
  -25.8830  -32.5820   23.7880 C   0  0  0  0  0  3  0  0  0  0  0  0
  -25.5820  -33.9750   24.1540 N   0  0  0  0  0  0  0  0  0  0  0  0
  -25.8870  -35.0450   23.4070 C   0  0  0  0  0  0  0  0  0  0  0  0
  -26.5180  -34.9610   22.3500 O   0  0  0  0  0  0  0  0  0  0  0  0
  -25.0170  -34.1130   24.9790 H   0  0  0  0  0  0  0  0  0  0  0  0
  -24.1550  -36.8540   23.1510 C   0  0  0  0  0  1  0  0  0  0  0  0
  -25.4210  -36.4250   23.9110 C   0  0  0  0  0  3  0  0  0  0  0  0
  -27.5780  -37.2950   24.7030 C   0  0  0  0  0  1  0  0  0  0  0  0
  -26.4530  -37.4770   23.7880 N   0  0  0  0  0  0  0  0  0  0  0  0
  -26.0530  -38.3960   23.9580 H   0  0  0  0  0  0  0  0  0  0  0  0
  -26.4330  -31.7920   25.0400 C   0  0  1  0  0  0  0  0  0  0  0  0
  -25.3690  -31.5450   26.1360 C   0  0  0  0  0  1  0  0  0  0  0  0
  -26.9990  -30.4170   24.6190 C   0  0  0  0  0  1  0  0  0  0  0  0
  -27.6050  -32.5730   25.6780 C   0  0  0  0  0  1  0  0  0  0  0  0
  -25.4310  -23.6840   17.0550 C   0  0  0  0  0  2  0  0  0  0  0  0
  -24.4620  -22.5760   16.9810 N   0  0  0  0  0  4  0  0  0  0  0  0
  -24.9230  -21.7030   16.7970 H   0  0  0  0  0  0  0  0  0  0  0  0
  -23.8170  -22.7450   16.2290 H   0  0  0  0  0  0  0  0  0  0  0  0
  -23.9310  -22.4960   17.8290 H   0  0  0  0  0  0  0  0  0  0  0  0
  1  2  1  0
  3  4  1  0
  3  6  1  0
  4 94  1  0
  4  1  1  0
  5  9  1  0
  5  2  1  0
  6 53  1  0
  6  5  1  0
  7  8  2  0
  8 11  1  0
  8 10  1  0
  9  7  1  0
 12  9  1  0
 13  7  1  0
 13 14  1  0
 15 23  1  0
 16 21  1  0
 17 18  1  0
 17 16  1  0
 19 18  1  0
 19 28  1  0
 19 20  1  0
 21 15  1  0
 21 20  1  0
 22 15  2  0
 23 24  1  0
 23 14  1  0
 25 26  2  0
 26 45  1  0
 27 26  1  0
 27 30  1  0
 28 29  1  0
 28 25  1  0
 29 27  2  0
 30 31  1  0
 31 32  2  0
 33 36  1  0
 33 32  1  0
 34 33  2  0
 35 34  1  0
 35 30  2  0
 36 37  1  0
 37 42  2  0
 37 38  1  0
 38 39  2  0
 39 40  1  0
 40 44  1  0
 41 40  2  0
 42 41  1  0
 43 42  1  0
 45 46  1  0
 46 49  1  0
 46 48  1  0
 47 45  2  0
 50 25  1  0
 50 51  1  0
 52 50  1  0
 54 65  2  0
 55 53  1  0
 55 60  1  0
 56 64  1  0
 56 66  1  0
 57 63  1  0
 57 59  1  0
 58 64  1  0
 59 58  1  0
 60 59  2  0
 61 62  1  0
 61 55  2  0
 62 57  2  0
 63 56  1  0
 64 54  1  0
 66 68  2  0
 67 66  1  0
 69 67  1  0
 70 79  2  0
 70 75  1  0
 71 67  1  0
 71 75  1  0
 72 71  1  0
 73 74  1  0
 73 72  1  0
 74 70  1  0
 75 76  2  0
 76 77  1  0
 78 77  2  0
 79 78  1  0
 80 54  1  0
 80 81  1  0
 80 90  1  0
 81 84  1  0
 82 86  1  0
 82 81  1  0
 83 82  2  0
 86 85  1  0
 88 86  1  0
 88 89  1  0
 88 87  1  0
 90 93  1  1
 90 91  1  0
 92 90  1  0
 95 94  1  0
 95 98  1  0
 96 95  1  0
 97 95  1  0
M  ISO  4   6 101  15 100  23 100  53 101
M  END
>  <TORSDO>  (48) 
F 21

>  <SCORE>  (48) 
-14.244

>  <name>  (48) 
47

>  <ligand_id>  (48) 
47

>  <original_smiles>  (48) 
[H]c1c([H])c([H])c2c(c1[H])C([H])([H])C([H])([H])C([H])([H])C2([H])N([H])C(=O)C1([H])N(C(=O)C([H])(N([H])C(=O)C([H])(N([H])C([H])([H])[H])C([H])([H])[H])C(C([H])([H])[H])(C([H])([H])[H])C([H])([H])[H])C([H])([H])c2c([H])c(OC3([H])C([H])([H])C([H])(C([H])([H])[N+]([H])([H])[H])C([H])([H])C([H])([H])C3([H])[N+]([H])=C(N([H])[H])C([H])([H])C([H])([H])N([H])C(=O)N3C([H])([H])C([H])([H])C([H])([H])C([H])(n4nc(-c5c([H])c([H])c(Oc6c([H])c([H])c(F)c([H])c6F)c([H])c5[H])c(C(=O)N([H])[H])c4N([H])[H])C3([H])[H])c([H])c([H])c2C1([H])[H]

>  <smiles>  (48) 
[H]c1c([H])c([H])c2c(c1[H])C([H])([H])C([H])([H])C([H])([H])C2([H])N([H])C(=O)C1([H])N(C(=O)C([H])(N([H])C(=O)C([H])(N([H])C([H])([H])[H])C([H])([H])[H])C(C([H])([H])[H])(C([H])([H])[H])C([H])([H])[H])C([H])([H])c2c([H])c(OC3([H])C([H])([H])C([H])(C([H])([H])[N+]([H])([H])[H])C([H])([H])C([H])([H])C3([H])[N+]([H])=C(N([H])[H])C([H])([H])C([H])([H])N([H])C(=O)N3C([H])([H])C([H])([H])C([H])([H])C([H])(n4nc(-c5c([H])c([H])c(Oc6c([H])c([H])c(F)c([H])c6F)c([H])c5[H])c(C(=O)N([H])[H])c4N([H])[H])C3([H])[H])c([H])c([H])c2C1([H])[H]

$$$$
48:0:0
     RDKit          3D

 90 98  0  0  1  0  0  0  0  0999 V2000
  -30.2870  -19.6230   22.1270 C   0  0  0  0  0  2  0  0  0  0  0  0
  -30.1300  -18.0890   21.8420 C   0  0  0  0  0  2  0  0  0  0  0  0
  -29.7890  -18.5710   19.3870 C   0  0  0  0  0  2  0  0  0  0  0  0
  -29.1800  -20.5790   21.5620 C   0  0  0  0  0  2  0  0  0  0  0  0
  -30.2150  -20.1330   19.3540 C   0  0  0  0  0  2  0  0  0  0  0  0
  -30.4770  -17.5640   20.4200 C   0  0  0  0  0  3  0  0  0  0  0  0
  -29.4250  -21.1360   20.1940 N   0  0  2  0  0  4  0  0  0  0  0  0
  -28.5120  -21.1610   19.7660 H   0  0  0  0  0  0  0  0  0  0  0  0
  -30.8870  -14.9360   19.9930 C   0  0  0  0  0  0  0  0  0  0  0  0
  -30.6160  -12.6780   18.9320 C   0  0  0  0  0  2  0  0  0  0  0  0
  -29.6000  -12.7610   17.7710 C   0  0  0  0  0  2  0  0  0  0  0  0
  -28.1610  -12.5830   18.2920 C   0  0  0  0  0  2  0  0  0  0  0  0
  -27.8640  -13.4600   19.5370 C   0  0  0  0  0  3  0  0  0  0  0  0
  -28.9900  -13.3490   20.5900 C   0  0  0  0  0  2  0  0  0  0  0  0
  -30.2470  -13.7160   19.9240 N   0  0  0  0  0  0  0  0  0  0  0  0
  -32.0540  -15.0380   19.6060 O   0  0  0  0  0  0  0  0  0  0  0  0
  -30.1330  -16.0620   20.3100 N   0  0  0  0  0  0  0  0  0  0  0  0
  -29.1810  -15.8350   20.5540 H   0  0  0  0  0  0  0  0  0  0  0  0
  -25.5340  -14.0550   20.4330 C   0  0  0  0  0  0  0  0  0  0  0  0
  -24.4820  -13.2830   20.8420 C   0  0  0  0  0  0  0  0  0  0  0  0
  -24.9250  -11.9270   20.7410 C   0  0  0  0  0  0  0  0  0  0  0  0
  -26.5500  -13.1730   20.1050 N   0  0  0  0  0  0  0  0  0  0  0  0
  -26.1940  -11.8850   20.3550 N   0  0  0  0  0  0  0  0  0  0  0  0
  -24.1950  -10.6680   20.9350 C   0  0  0  0  0  0  0  0  0  0  0  0
  -24.6260   -9.6980   21.8670 C   0  0  0  0  0  3  0  0  0  0  0  0
  -23.8960   -8.5050   22.0480 C   0  0  0  0  0  3  0  0  0  0  0  0
  -22.7180   -8.2720   21.2990 C   0  0  0  0  0  0  0  0  0  0  0  0
  -22.3040   -9.2300   20.3560 C   0  0  0  0  0  3  0  0  0  0  0  0
  -23.0360  -10.4150   20.1720 C   0  0  0  0  0  3  0  0  0  0  0  0
  -21.9590   -7.1310   21.3900 O   0  0  0  0  0  0  0  0  0  0  0  0
  -21.8580   -6.4250   22.5620 C   0  0  0  0  0  0  0  0  0  0  0  0
  -21.3260   -7.0030   23.7370 C   0  0  0  0  0  3  0  0  0  0  0  0
  -21.1790   -6.2210   24.9000 C   0  0  0  0  0  3  0  0  0  0  0  0
  -21.5500   -4.8620   24.8890 C   0  0  0  0  0  0  0  0  0  0  0  0
  -22.0720   -4.2850   23.7200 C   0  0  0  0  0  3  0  0  0  0  0  0
  -22.2230   -5.0640   22.5580 C   0  0  0  0  0  0  0  0  0  0  0  0
  -22.7070   -4.4960   21.4270 F   0  0  0  0  0  0  0  0  0  0  0  0
  -21.4000   -4.1100   26.0040 F   0  0  0  0  0  0  0  0  0  0  0  0
  -23.1100  -13.7660   21.2130 C   0  0  0  0  0  0  0  0  0  0  0  0
  -22.4340  -13.0620   22.1130 N   0  0  0  0  0  0  0  0  0  0  0  0
  -22.6480  -14.8040   20.7380 O   0  0  0  0  0  0  0  0  0  0  0  0
  -22.8190  -12.2190   22.5140 H   0  0  0  0  0  0  0  0  0  0  0  0
  -21.5180  -13.3680   22.4080 H   0  0  0  0  0  0  0  0  0  0  0  0
  -25.7030  -15.4300   20.2870 N   0  0  0  0  0  0  0  0  0  0  0  0
  -24.9430  -16.0820   20.4520 H   0  0  0  0  0  0  0  0  0  0  0  0
  -26.5250  -15.8730   19.8970 H   0  0  0  0  0  0  0  0  0  0  0  0
  -29.8710  -22.6270   20.1890 C   0  0  0  0  0  2  0  0  0  0  0  0
  -28.8000  -23.8250   19.8950 C   0  0  0  0  0  2  0  0  0  0  0  0
  -28.8480  -25.2480   20.6860 C   0  0  0  0  0  2  0  0  0  0  0  0
  -28.8060  -26.6140   20.0690 O   0  0  0  0  0  0  0  0  0  0  0  0
  -24.7220  -31.7390   23.2420 C   0  0  0  0  0  0  0  0  0  0  0  0
  -27.6390  -27.4030   20.1190 C   0  0  0  0  0  0  0  0  0  0  0  0
  -23.6380  -30.3610   21.5030 C   0  0  0  0  0  3  0  0  0  0  0  0
  -25.2060  -28.9250   20.0780 C   0  0  0  0  0  0  0  0  0  0  0  0
  -26.1660  -30.7970   21.4190 C   0  0  0  0  0  2  0  0  0  0  0  0
  -26.3330  -29.4440   20.7270 C   0  0  0  0  0  0  0  0  0  0  0  0
  -27.5560  -28.6990   20.7310 C   0  0  0  0  0  3  0  0  0  0  0  0
  -26.4800  -26.9280   19.4740 C   0  0  0  0  0  3  0  0  0  0  0  0
  -25.2810  -27.6720   19.4480 C   0  0  0  0  0  3  0  0  0  0  0  0
  -23.9290  -29.7460   20.1080 C   0  0  0  0  0  2  0  0  0  0  0  0
  -24.8590  -30.9800   22.1150 N   0  0  0  0  0  0  0  0  0  0  0  0
  -23.6080  -31.9440   23.7470 O   0  0  0  0  0  0  0  0  0  0  0  0
  -22.9860  -29.2820   22.3990 C   0  0  0  0  0  0  0  0  0  0  0  0
  -21.6740  -29.0520   22.2180 N   0  0  0  0  0  0  0  0  0  0  0  0
  -23.6620  -28.6530   23.2190 O   0  0  0  0  0  0  0  0  0  0  0  0
  -21.1850  -29.6060   21.5290 H   0  0  0  0  0  0  0  0  0  0  0  0
  -18.3350  -27.7130   22.5770 C   0  0  0  0  0  0  0  0  0  0  0  0
  -20.8740  -28.0480   22.9220 C   0  0  0  0  0  3  0  0  0  0  0  0
  -21.0460  -26.6530   22.2770 C   0  0  0  0  0  2  0  0  0  0  0  0
  -19.9790  -26.3420   21.2230 C   0  0  0  0  0  2  0  0  0  0  0  0
  -18.5770  -26.4080   21.8360 C   0  0  0  0  0  2  0  0  0  0  0  0
  -19.4140  -28.4910   23.0720 C   0  0  0  0  0  0  0  0  0  0  0  0
  -19.1350  -29.7140   23.7200 C   0  0  0  0  0  3  0  0  0  0  0  0
  -17.8090  -30.1550   23.8860 C   0  0  0  0  0  3  0  0  0  0  0  0
  -16.7430  -29.3720   23.4090 C   0  0  0  0  0  3  0  0  0  0  0  0
  -17.0060  -28.1540   22.7560 C   0  0  0  0  0  3  0  0  0  0  0  0
  -25.9510  -32.4030   23.9370 C   0  0  0  0  0  3  0  0  0  0  0  0
  -26.4200  -31.6380   25.2340 C   0  0  1  0  0  0  0  0  0  0  0  0
  -25.2740  -31.3500   26.2320 C   0  0  0  0  0  1  0  0  0  0  0  0
  -27.0770  -30.2890   24.8650 C   0  0  0  0  0  1  0  0  0  0  0  0
  -27.5000  -32.4660   25.9720 C   0  0  0  0  0  1  0  0  0  0  0  0
  -25.5800  -33.7870   24.2630 N   0  0  0  0  0  0  0  0  0  0  0  0
  -25.9090  -34.8590   23.5290 C   0  0  0  0  0  0  0  0  0  0  0  0
  -26.6200  -34.7890   22.5230 O   0  0  0  0  0  0  0  0  0  0  0  0
  -24.9540  -33.9170   25.0420 H   0  0  0  0  0  0  0  0  0  0  0  0
  -24.1400  -36.6030   23.1330 C   0  0  0  0  0  1  0  0  0  0  0  0
  -25.3600  -36.2240   23.9860 C   0  0  0  0  0  3  0  0  0  0  0  0
  -27.4180  -37.1710   24.9250 C   0  0  0  0  0  1  0  0  0  0  0  0
  -26.3590  -37.3120   23.9300 N   0  0  0  0  0  0  0  0  0  0  0  0
  -25.9130  -38.2140   24.0730 H   0  0  0  0  0  0  0  0  0  0  0  0
  2  1  1  0
  3  6  1  0
  4  1  1  0
  5  3  1  0
  5  7  1  0
  6 17  1  0
  6  2  1  0
  7  4  1  0
  7  8  1  6
  9 17  1  0
 10 15  1  0
 11 12  1  0
 11 10  1  0
 13 12  1  0
 13 22  1  0
 13 14  1  0
 15  9  1  0
 15 14  1  0
 16  9  2  0
 17 18  1  0
 19 20  2  0
 20 39  1  0
 21 20  1  0
 21 24  1  0
 22 23  1  0
 22 19  1  0
 23 21  2  0
 24 25  1  0
 25 26  2  0
 27 30  1  0
 27 26  1  0
 28 27  2  0
 29 28  1  0
 29 24  2  0
 30 31  1  0
 31 32  1  0
 32 33  2  0
 34 33  1  0
 34 38  1  0
 35 34  2  0
 36 31  2  0
 36 35  1  0
 37 36  1  0
 39 40  1  0
 40 43  1  0
 40 42  1  0
 41 39  2  0
 44 19  1  0
 44 45  1  0
 46 44  1  0
 47  7  1  0
 48 47  1  0
 48 49  1  0
 50 52  1  0
 50 49  1  0
 51 62  2  0
 52 57  1  0
 53 61  1  0
 53 63  1  0
 54 60  1  0
 54 56  1  0
 55 61  1  0
 56 57  2  0
 56 55  1  0
 58 52  2  0
 59 58  1  0
 59 54  2  0
 60 53  1  0
 61 51  1  0
 63 65  2  0
 64 63  1  0
 66 64  1  0
 67 76  2  0
 67 72  1  0
 68 64  1  0
 68 72  1  0
 69 68  1  0
 70 71  1  0
 70 69  1  0
 71 67  1  0
 72 73  2  0
 73 74  1  0
 75 74  2  0
 76 75  1  0
 77 51  1  0
 77 82  1  0
 77 78  1  0
 78 81  1  1
 78 79  1  0
 80 78  1  0
 82 85  1  0
 83 87  1  0
 83 82  1  0
 84 83  2  0
 87 86  1  0
 89 87  1  0
 89 90  1  0
 89 88  1  0
M  ISO  4   9 100  17 100  49 101  50 101
M  END
>  <TORSDO>  (49) 
F 19

>  <SCORE>  (49) 
-12.821

>  <name>  (49) 
48

>  <ligand_id>  (49) 
48

>  <original_smiles>  (49) 
[H]c1c([H])c([H])c2c(c1[H])C([H])([H])C([H])([H])C([H])([H])C2([H])N([H])C(=O)C1([H])N(C(=O)C([H])(N([H])C(=O)C([H])(N([H])C([H])([H])[H])C([H])([H])[H])C(C([H])([H])[H])(C([H])([H])[H])C([H])([H])[H])C([H])([H])c2c([H])c(OC([H])([H])C([H])([H])C([H])([H])[N+]3([H])C([H])([H])C([H])([H])C([H])([H])C([H])(N([H])C(=O)N4C([H])([H])C([H])([H])C([H])([H])C([H])(n5nc(-c6c([H])c([H])c(Oc7c([H])c([H])c(F)c([H])c7F)c([H])c6[H])c(C(=O)N([H])[H])c5N([H])[H])C4([H])[H])C([H])([H])C3([H])[H])c([H])c([H])c2C1([H])[H]

>  <smiles>  (49) 
[H]c1c([H])c([H])c2c(c1[H])C([H])([H])C([H])([H])C([H])([H])C2([H])N([H])C(=O)C1([H])N(C(=O)C([H])(N([H])C(=O)C([H])(N([H])C([H])([H])[H])C([H])([H])[H])C(C([H])([H])[H])(C([H])([H])[H])C([H])([H])[H])C([H])([H])c2c([H])c(OC([H])([H])C([H])([H])C([H])([H])[N+]3([H])C([H])([H])C([H])([H])C([H])([H])C([H])(N([H])C(=O)N4C([H])([H])C([H])([H])C([H])([H])C([H])(n5nc(-c6c([H])c([H])c(Oc7c([H])c([H])c(F)c([H])c7F)c([H])c6[H])c(C(=O)N([H])[H])c5N([H])[H])C4([H])[H])C([H])([H])C3([H])[H])c([H])c([H])c2C1([H])[H]

$$$$
49:0:0
     RDKit          3D

 92100  0  0  1  0  0  0  0  0999 V2000
  -30.6510  -21.9390   20.5320 C   0  0  0  0  0  2  0  0  0  0  0  0
  -29.4800  -22.8610   20.7280 N   0  0  0  0  0  4  0  0  0  0  0  0
  -29.0840  -22.6810   21.6380 H   0  0  0  0  0  0  0  0  0  0  0  0
  -28.7900  -22.6020   20.0390 H   0  0  0  0  0  0  0  0  0  0  0  0
  -29.7280  -24.3440   20.5930 C   0  0  0  0  0  2  0  0  0  0  0  0
  -28.4360  -25.1710   20.2630 C   0  0  0  0  0  2  0  0  0  0  0  0
  -28.5780  -26.6210   20.2370 O   0  0  0  0  0  0  0  0  0  0  0  0
  -24.7690  -31.8610   23.2400 C   0  0  0  0  0  0  0  0  0  0  0  0
  -27.4120  -27.3800   20.1850 C   0  0  0  0  0  0  0  0  0  0  0  0
  -23.5590  -30.4590   21.6000 C   0  0  0  0  0  3  0  0  0  0  0  0
  -25.0120  -28.9170   20.1730 C   0  0  0  0  0  0  0  0  0  0  0  0
  -26.0910  -30.8110   21.4020 C   0  0  0  0  0  2  0  0  0  0  0  0
  -26.1750  -29.4390   20.7550 C   0  0  0  0  0  0  0  0  0  0  0  0
  -27.3770  -28.6850   20.7400 C   0  0  0  0  0  3  0  0  0  0  0  0
  -26.2240  -26.8840   19.5940 C   0  0  0  0  0  3  0  0  0  0  0  0
  -25.0380  -27.6440   19.5790 C   0  0  0  0  0  3  0  0  0  0  0  0
  -23.7640  -29.7720   20.2220 C   0  0  0  0  0  2  0  0  0  0  0  0
  -24.8230  -31.0610   22.1380 N   0  0  0  0  0  0  0  0  0  0  0  0
  -23.6890  -32.1310   23.7850 O   0  0  0  0  0  0  0  0  0  0  0  0
  -22.9080  -29.4420   22.5650 C   0  0  0  0  0  0  0  0  0  0  0  0
  -21.5850  -29.2520   22.4350 N   0  0  0  0  0  0  0  0  0  0  0  0
  -23.5920  -28.8240   23.3850 O   0  0  0  0  0  0  0  0  0  0  0  0
  -21.0950  -29.8010   21.7430 H   0  0  0  0  0  0  0  0  0  0  0  0
  -18.2190  -28.0250   22.9240 C   0  0  0  0  0  0  0  0  0  0  0  0
  -20.7730  -28.3130   23.2090 C   0  0  0  0  0  3  0  0  0  0  0  0
  -20.8910  -26.8760   22.6500 C   0  0  0  0  0  2  0  0  0  0  0  0
  -19.8010  -26.5310   21.6300 C   0  0  0  0  0  2  0  0  0  0  0  0
  -18.4140  -26.6700   22.2640 C   0  0  0  0  0  2  0  0  0  0  0  0
  -19.3280  -28.8020   23.3540 C   0  0  0  0  0  0  0  0  0  0  0  0
  -19.0930  -30.0690   23.9340 C   0  0  0  0  0  3  0  0  0  0  0  0
  -17.7830  -30.5590   24.0850 C   0  0  0  0  0  3  0  0  0  0  0  0
  -16.6890  -29.7800   23.6700 C   0  0  0  0  0  3  0  0  0  0  0  0
  -16.9090  -28.5140   23.0980 C   0  0  0  0  0  3  0  0  0  0  0  0
  -26.0550  -32.4940   23.8570 C   0  0  0  0  0  3  0  0  0  0  0  0
  -25.7440  -33.8900   24.1890 N   0  0  0  0  0  0  0  0  0  0  0  0
  -26.0760  -34.9440   23.4330 C   0  0  0  0  0  0  0  0  0  0  0  0
  -26.7420  -34.8420   22.3980 O   0  0  0  0  0  0  0  0  0  0  0  0
  -25.1440  -34.0420   24.9870 H   0  0  0  0  0  0  0  0  0  0  0  0
  -24.3420  -36.7340   23.0850 C   0  0  0  0  0  1  0  0  0  0  0  0
  -25.5880  -36.3300   23.8930 C   0  0  0  0  0  3  0  0  0  0  0  0
  -27.7250  -37.2140   24.7170 C   0  0  0  0  0  1  0  0  0  0  0  0
  -26.6190  -37.3850   23.7790 N   0  0  0  0  0  0  0  0  0  0  0  0
  -26.2130  -38.3040   23.9280 H   0  0  0  0  0  0  0  0  0  0  0  0
  -26.5800  -31.7260   25.1320 C   0  0  1  0  0  0  0  0  0  0  0  0
  -25.4910  -31.4880   26.2050 C   0  0  0  0  0  1  0  0  0  0  0  0
  -27.1690  -30.3500   24.7430 C   0  0  0  0  0  1  0  0  0  0  0  0
  -27.7330  -32.5260   25.7860 C   0  0  0  0  0  1  0  0  0  0  0  0
  -30.3440  -20.4110   20.7740 C   0  0  0  0  0  2  0  0  0  0  0  0
  -31.5690  -18.0790   20.2040 C   0  0  0  0  0  3  0  0  0  0  0  0
  -31.3280  -19.4260   20.0910 C   0  0  0  0  0  3  0  0  0  0  0  0
  -30.8830  -14.7130   19.8260 C   0  0  0  0  0  0  0  0  0  0  0  0
  -30.4730  -12.5870   18.5850 C   0  0  0  0  0  2  0  0  0  0  0  0
  -29.3810  -12.7580   17.5040 C   0  0  0  0  0  2  0  0  0  0  0  0
  -27.9780  -12.5040   18.0890 C   0  0  0  0  0  2  0  0  0  0  0  0
  -27.7530  -13.3010   19.3910 C   0  0  0  0  0  3  0  0  0  0  0  0
  -28.9470  -13.1210   20.3690 C   0  0  0  0  0  2  0  0  0  0  0  0
  -30.1720  -13.5420   19.6710 N   0  0  0  0  0  0  0  0  0  0  0  0
  -32.0320  -14.8000   19.3750 O   0  0  0  0  0  0  0  0  0  0  0  0
  -28.7590  -17.7770   22.0180 C   0  0  0  0  0  2  0  0  0  0  0  0
  -28.4340  -17.5970   20.5300 C   0  0  0  0  0  2  0  0  0  0  0  0
  -30.2190  -17.4060   22.3400 C   0  0  0  0  0  2  0  0  0  0  0  0
  -28.9030  -16.2160   20.0570 C   0  0  0  0  0  2  0  0  0  0  0  0
  -31.0260  -16.9320   21.1070 C   0  0  0  0  0  3  0  0  0  0  0  0
  -30.2870  -15.8260   20.4020 N   0  0  0  0  0  0  0  0  0  0  0  0
  -25.4760  -13.9040   20.4300 C   0  0  0  0  0  0  0  0  0  0  0  0
  -24.4520  -13.1220   20.8770 C   0  0  0  0  0  0  0  0  0  0  0  0
  -24.8890  -11.7730   20.7110 C   0  0  0  0  0  0  0  0  0  0  0  0
  -26.4740  -13.0250   20.0230 N   0  0  0  0  0  0  0  0  0  0  0  0
  -26.1330  -11.7370   20.2560 N   0  0  0  0  0  0  0  0  0  0  0  0
  -24.1740  -10.5090   20.8950 C   0  0  0  0  0  0  0  0  0  0  0  0
  -24.6660   -9.5120   21.7660 C   0  0  0  0  0  3  0  0  0  0  0  0
  -23.9580   -8.3060   21.9400 C   0  0  0  0  0  3  0  0  0  0  0  0
  -22.7420   -8.0920   21.2470 C   0  0  0  0  0  0  0  0  0  0  0  0
  -22.2700   -9.0780   20.3650 C   0  0  0  0  0  3  0  0  0  0  0  0
  -22.9790  -10.2770   20.1860 C   0  0  0  0  0  3  0  0  0  0  0  0
  -21.9990   -6.9420   21.3380 O   0  0  0  0  0  0  0  0  0  0  0  0
  -21.9660   -6.1970   22.4880 C   0  0  0  0  0  0  0  0  0  0  0  0
  -21.5560   -6.7470   23.7220 C   0  0  0  0  0  3  0  0  0  0  0  0
  -21.4650   -5.9260   24.8630 C   0  0  0  0  0  3  0  0  0  0  0  0
  -21.7780   -4.5550   24.7720 C   0  0  0  0  0  0  0  0  0  0  0  0
  -22.1820   -4.0060   23.5420 C   0  0  0  0  0  3  0  0  0  0  0  0
  -22.2720   -4.8250   22.4030 C   0  0  0  0  0  0  0  0  0  0  0  0
  -22.6410   -4.2850   21.2150 F   0  0  0  0  0  0  0  0  0  0  0  0
  -21.6850   -3.7630   25.8650 F   0  0  0  0  0  0  0  0  0  0  0  0
  -23.0980  -13.5930   21.3320 C   0  0  0  0  0  0  0  0  0  0  0  0
  -22.4690  -12.8630   22.2460 N   0  0  0  0  0  0  0  0  0  0  0  0
  -22.6090  -14.6400   20.9080 O   0  0  0  0  0  0  0  0  0  0  0  0
  -22.8740  -12.0150   22.6140 H   0  0  0  0  0  0  0  0  0  0  0  0
  -21.5650  -13.1610   22.5870 H   0  0  0  0  0  0  0  0  0  0  0  0
  -25.6190  -15.2840   20.3040 N   0  0  0  0  0  0  0  0  0  0  0  0
  -24.8640  -15.9170   20.5400 H   0  0  0  0  0  0  0  0  0  0  0  0
  -26.4150  -15.7500   19.8900 H   0  0  0  0  0  0  0  0  0  0  0  0
  1  2  1  0
  1 48  1  0
  2  3  1  0
  4  2  1  0
  5  2  1  0
  6  5  1  0
  7  6  1  0
  8 19  2  0
  9  7  1  0
  9 14  1  0
 10 18  1  0
 10 20  1  0
 11 17  1  0
 11 13  1  0
 12 18  1  0
 13 12  1  0
 14 13  2  0
 15  9  2  0
 16 15  1  0
 16 11  2  0
 17 10  1  0
 18  8  1  0
 20 22  2  0
 21 20  1  0
 23 21  1  0
 24 33  2  0
 24 29  1  0
 25 21  1  0
 25 29  1  0
 26 25  1  0
 27 28  1  0
 27 26  1  0
 28 24  1  0
 29 30  2  0
 30 31  1  0
 32 31  2  0
 33 32  1  0
 34  8  1  0
 34 35  1  0
 34 44  1  0
 35 38  1  0
 36 40  1  0
 36 35  1  0
 37 36  2  0
 40 39  1  0
 42 40  1  0
 42 43  1  0
 42 41  1  0
 44 47  1  1
 44 45  1  0
 46 44  1  0
 50 49  2  0
 50 48  1  0
 51 64  1  0
 52 57  1  0
 53 54  1  0
 53 52  1  0
 55 54  1  0
 55 68  1  0
 55 56  1  0
 57 51  1  0
 57 56  1  0
 58 51  2  0
 59 61  1  0
 60 59  1  0
 62 64  1  0
 62 60  1  0
 63 49  1  0
 63 61  1  0
 64 63  1  0
 65 66  2  0
 66 85  1  0
 67 66  1  0
 67 70  1  0
 68 69  1  0
 68 65  1  0
 69 67  2  0
 70 71  1  0
 71 72  2  0
 73 76  1  0
 73 72  1  0
 74 73  2  0
 75 74  1  0
 75 70  2  0
 76 77  1  0
 77 78  1  0
 78 79  2  0
 80 79  1  0
 80 84  1  0
 81 80  2  0
 82 77  2  0
 82 81  1  0
 83 82  1  0
 85 86  1  0
 86 89  1  0
 86 88  1  0
 87 85  2  0
 90 65  1  0
 90 91  1  0
 92 90  1  0
M  ISO  4   6 101   7 101  51 100  64 100
M  END
>  <TORSDO>  (50) 
F 21

>  <SCORE>  (50) 
-10.605

>  <name>  (50) 
49

>  <ligand_id>  (50) 
49

>  <original_smiles>  (50) 
[H]C(=C([H])C1([H])N(C(=O)N2C([H])([H])C([H])([H])C([H])([H])C([H])(n3nc(-c4c([H])c([H])c(Oc5c([H])c([H])c(F)c([H])c5F)c([H])c4[H])c(C(=O)N([H])[H])c3N([H])[H])C2([H])[H])C([H])([H])C([H])([H])C([H])([H])C1([H])[H])C([H])([H])C([H])([H])[N+]([H])([H])C([H])([H])C([H])([H])Oc1c([H])c([H])c2c(c1[H])C([H])([H])N(C(=O)C([H])(N([H])C(=O)C([H])(N([H])C([H])([H])[H])C([H])([H])[H])C(C([H])([H])[H])(C([H])([H])[H])C([H])([H])[H])C([H])(C(=O)N([H])C1([H])c3c([H])c([H])c([H])c([H])c3C([H])([H])C([H])([H])C1([H])[H])C2([H])[H]

>  <smiles>  (50) 
[H]C(=C([H])C1([H])N(C(=O)N2C([H])([H])C([H])([H])C([H])([H])C([H])(n3nc(-c4c([H])c([H])c(Oc5c([H])c([H])c(F)c([H])c5F)c([H])c4[H])c(C(=O)N([H])[H])c3N([H])[H])C2([H])[H])C([H])([H])C([H])([H])C([H])([H])C1([H])[H])C([H])([H])C([H])([H])[N+]([H])([H])C([H])([H])C([H])([H])Oc1c([H])c([H])c2c(c1[H])C([H])([H])N(C(=O)C([H])(N([H])C(=O)C([H])(N([H])C([H])([H])[H])C([H])([H])[H])C(C([H])([H])[H])(C([H])([H])[H])C([H])([H])[H])C([H])(C(=O)N([H])C1([H])c3c([H])c([H])c([H])c([H])c3C([H])([H])C([H])([H])C1([H])[H])C2([H])[H]

$$$$
50:0:0
     RDKit          3D

 92101  0  0  1  0  0  0  0  0999 V2000
  -30.4160  -15.7610   20.3470 C   0  0  0  0  0  0  0  0  0  0  0  0
  -30.4410  -13.2560   19.4420 C   0  0  0  0  0  2  0  0  0  0  0  0
  -29.5450  -12.8710   18.2370 C   0  0  0  0  0  2  0  0  0  0  0  0
  -28.1200  -12.5240   18.7000 C   0  0  0  0  0  2  0  0  0  0  0  0
  -27.6130  -13.5160   19.7730 C   0  0  0  0  0  3  0  0  0  0  0  0
  -28.6570  -13.8090   20.8750 C   0  0  0  0  0  2  0  0  0  0  0  0
  -29.8220  -14.4320   20.1970 N   0  0  0  0  0  0  0  0  0  0  0  0
  -31.6550  -15.6130   20.3190 O   0  0  0  0  0  0  0  0  0  0  0  0
  -31.4660  -20.9090   20.5230 C   0  0  0  0  0  2  0  0  0  0  0  0
  -30.6160  -22.2010   20.1470 C   0  0  0  0  0  2  0  0  0  0  0  0
  -30.8270  -19.0020   18.6880 C   0  0  0  0  0  2  0  0  0  0  0  0
  -28.7660  -20.3810   20.6820 C   0  0  0  0  0  2  0  0  0  0  0  0
  -31.0900  -19.4140   20.1280 C   0  0  0  0  0  3  0  0  0  0  0  0
  -29.0720  -22.2150   20.3990 C   0  0  0  0  0  3  0  0  0  0  0  0
  -29.8340  -18.8410   20.7420 C   0  0  0  0  0  3  0  0  0  0  0  0
  -30.0650  -17.6190   18.7280 C   0  0  0  0  0  3  0  0  0  0  0  0
  -29.7860  -17.1840   20.1440 N   0  0  0  0  0  0  0  0  0  0  0  0
  -25.2480  -14.0380   20.5570 C   0  0  0  0  0  0  0  0  0  0  0  0
  -24.1850  -13.2540   20.9040 C   0  0  0  0  0  0  0  0  0  0  0  0
  -24.6560  -11.9050   20.8520 C   0  0  0  0  0  0  0  0  0  0  0  0
  -26.2950  -13.1730   20.3000 N   0  0  0  0  0  0  0  0  0  0  0  0
  -25.9510  -11.8800   20.5430 N   0  0  0  0  0  0  0  0  0  0  0  0
  -23.9280  -10.6370   21.0150 C   0  0  0  0  0  0  0  0  0  0  0  0
  -24.3560   -9.6470   21.9270 C   0  0  0  0  0  3  0  0  0  0  0  0
  -23.6210   -8.4500   22.0840 C   0  0  0  0  0  3  0  0  0  0  0  0
  -22.4450   -8.2350   21.3270 C   0  0  0  0  0  0  0  0  0  0  0  0
  -22.0330   -9.2150   20.4040 C   0  0  0  0  0  3  0  0  0  0  0  0
  -22.7700  -10.4020   20.2470 C   0  0  0  0  0  3  0  0  0  0  0  0
  -21.6850   -7.0930   21.3920 O   0  0  0  0  0  0  0  0  0  0  0  0
  -21.6380   -6.3220   22.5250 C   0  0  0  0  0  0  0  0  0  0  0  0
  -21.1980   -6.8420   23.7630 C   0  0  0  0  0  3  0  0  0  0  0  0
  -21.1000   -5.9960   24.8850 C   0  0  0  0  0  3  0  0  0  0  0  0
  -21.4360   -4.6340   24.7740 C   0  0  0  0  0  0  0  0  0  0  0  0
  -21.8680   -4.1140   23.5410 C   0  0  0  0  0  3  0  0  0  0  0  0
  -21.9640   -4.9540   22.4200 C   0  0  0  0  0  0  0  0  0  0  0  0
  -22.3610   -4.4450   21.2290 F   0  0  0  0  0  0  0  0  0  0  0  0
  -21.3300   -3.8200   25.8510 F   0  0  0  0  0  0  0  0  0  0  0  0
  -22.7840  -13.7280   21.1610 C   0  0  0  0  0  0  0  0  0  0  0  0
  -22.0370  -13.0210   22.0020 N   0  0  0  0  0  0  0  0  0  0  0  0
  -22.3600  -14.7650   20.6530 O   0  0  0  0  0  0  0  0  0  0  0  0
  -22.3840  -12.1870   22.4540 H   0  0  0  0  0  0  0  0  0  0  0  0
  -21.0950  -13.3260   22.2030 H   0  0  0  0  0  0  0  0  0  0  0  0
  -25.4050  -15.4120   20.3980 N   0  0  0  0  0  0  0  0  0  0  0  0
  -24.6420  -16.0650   20.5340 H   0  0  0  0  0  0  0  0  0  0  0  0
  -26.2670  -15.8660   20.1200 H   0  0  0  0  0  0  0  0  0  0  0  0
  -28.2840  -23.9370   20.8570 C   0  0  0  0  0  2  0  0  0  0  0  0
  -28.3860  -25.6810   20.6230 O   0  0  0  0  0  0  0  0  0  0  0  0
  -24.6720  -31.9830   23.2970 C   0  0  0  0  0  0  0  0  0  0  0  0
  -27.3600  -26.8460   20.5680 C   0  0  0  0  0  0  0  0  0  0  0  0
  -23.5420  -30.4970   21.6980 C   0  0  0  0  0  3  0  0  0  0  0  0
  -25.0460  -28.8180   20.3910 C   0  0  0  0  0  0  0  0  0  0  0  0
  -26.1200  -30.6870   21.6130 C   0  0  0  0  0  2  0  0  0  0  0  0
  -26.2250  -29.2300   21.0230 C   0  0  0  0  0  0  0  0  0  0  0  0
  -27.3670  -28.2720   21.0740 C   0  0  0  0  0  3  0  0  0  0  0  0
  -26.1390  -26.6350   19.8780 C   0  0  0  0  0  3  0  0  0  0  0  0
  -25.0400  -27.5440   19.7960 C   0  0  0  0  0  3  0  0  0  0  0  0
  -23.8220  -29.7450   20.3640 C   0  0  0  0  0  2  0  0  0  0  0  0
  -24.8020  -31.0900   22.2550 N   0  0  0  0  0  0  0  0  0  0  0  0
  -23.5650  -32.2800   23.7770 O   0  0  0  0  0  0  0  0  0  0  0  0
  -22.8250  -29.5480   22.6950 C   0  0  0  0  0  0  0  0  0  0  0  0
  -21.5050  -29.3330   22.5290 N   0  0  0  0  0  0  0  0  0  0  0  0
  -23.4690  -28.9990   23.5910 O   0  0  0  0  0  0  0  0  0  0  0  0
  -21.0330  -29.8270   21.7850 H   0  0  0  0  0  0  0  0  0  0  0  0
  -18.1520  -27.9940   22.9660 C   0  0  0  0  0  0  0  0  0  0  0  0
  -20.6830  -28.4070   23.3210 C   0  0  0  0  0  3  0  0  0  0  0  0
  -20.8770  -26.9460   22.8490 C   0  0  0  0  0  2  0  0  0  0  0  0
  -19.8410  -26.5070   21.8090 C   0  0  0  0  0  2  0  0  0  0  0  0
  -18.4250  -26.6190   22.3810 C   0  0  0  0  0  2  0  0  0  0  0  0
  -19.2120  -28.8390   23.3930 C   0  0  0  0  0  0  0  0  0  0  0  0
  -18.9010  -30.1160   23.9040 C   0  0  0  0  0  3  0  0  0  0  0  0
  -17.5660  -30.5540   23.9900 C   0  0  0  0  0  3  0  0  0  0  0  0
  -16.5220  -29.7100   23.5770 C   0  0  0  0  0  3  0  0  0  0  0  0
  -16.8140  -28.4320   23.0710 C   0  0  0  0  0  3  0  0  0  0  0  0
  -25.9090  -32.6820   23.9350 C   0  0  0  0  0  3  0  0  0  0  0  0
  -26.4050  -31.9750   25.2570 C   0  0  1  0  0  0  0  0  0  0  0  0
  -25.2790  -31.7010   26.2830 C   0  0  0  0  0  1  0  0  0  0  0  0
  -27.0840  -30.6240   24.9400 C   0  0  0  0  0  1  0  0  0  0  0  0
  -27.4800  -32.8470   25.9470 C   0  0  0  0  0  1  0  0  0  0  0  0
  -25.5470  -34.0850   24.2270 N   0  0  0  0  0  0  0  0  0  0  0  0
  -25.8640  -35.1400   23.4650 C   0  0  0  0  0  0  0  0  0  0  0  0
  -26.5480  -35.0370   22.4430 O   0  0  0  0  0  0  0  0  0  0  0  0
  -24.9320  -34.2340   25.0140 H   0  0  0  0  0  0  0  0  0  0  0  0
  -24.0960  -36.8940   23.0790 C   0  0  0  0  0  1  0  0  0  0  0  0
  -25.3460  -36.5290   23.8960 C   0  0  0  0  0  3  0  0  0  0  0  0
  -27.4530  -37.4880   24.7160 C   0  0  0  0  0  1  0  0  0  0  0  0
  -26.3530  -37.6050   23.7620 N   0  0  0  0  0  0  0  0  0  0  0  0
  -25.9240  -38.5180   23.8820 H   0  0  0  0  0  0  0  0  0  0  0  0
  -28.7530  -17.6350   17.8950 C   0  0  0  0  0  2  0  0  0  0  0  0
  -28.9120  -18.2170   16.5460 N   0  0  0  0  0  4  0  0  0  0  0  0
  -29.2590  -19.1600   16.5850 H   0  0  0  0  0  0  0  0  0  0  0  0
  -28.0210  -18.2480   16.0830 H   0  0  0  0  0  0  0  0  0  0  0  0
  -29.5290  -17.6650   15.9750 H   0  0  0  0  0  0  0  0  0  0  0  0
  2  7  1  0
  3  4  1  0
  3  2  1  0
  5  4  1  0
  5 21  1  0
  5  6  1  0
  7  1  1  0
  7  6  1  0
  8  1  2  0
 10 14  1  0
 10  9  1  0
 11 16  1  0
 13 11  1  0
 13  9  1  0
 13 15  1  0
 14 12  1  0
 14 46  1  0
 15 12  1  0
 16 88  1  0
 16 17  1  0
 17  1  1  0
 17 15  1  0
 18 19  2  0
 19 38  1  0
 20 19  1  0
 20 23  1  0
 21 22  1  0
 21 18  1  0
 22 20  2  0
 23 24  1  0
 24 25  2  0
 26 29  1  0
 26 25  1  0
 27 26  2  0
 28 27  1  0
 28 23  2  0
 29 30  1  0
 30 31  1  0
 31 32  2  0
 33 32  1  0
 33 37  1  0
 34 33  2  0
 35 30  2  0
 35 34  1  0
 36 35  1  0
 38 39  1  0
 39 42  1  0
 39 41  1  0
 40 38  2  0
 43 44  1  0
 43 18  1  0
 45 43  1  0
 47 46  1  0
 48 59  2  0
 49 47  1  0
 49 54  1  0
 50 58  1  0
 50 60  1  0
 51 53  1  0
 52 58  1  0
 53 54  2  0
 53 52  1  0
 55 49  2  0
 56 55  1  0
 56 51  2  0
 57 51  1  0
 57 50  1  0
 58 48  1  0
 60 62  2  0
 61 60  1  0
 63 61  1  0
 64 73  2  0
 64 69  1  0
 65 61  1  0
 65 69  1  0
 66 65  1  0
 67 68  1  0
 67 66  1  0
 68 64  1  0
 69 70  2  0
 70 71  1  0
 72 71  2  0
 73 72  1  0
 74 48  1  0
 74 79  1  0
 74 75  1  0
 75 78  1  1
 75 76  1  0
 77 75  1  0
 79 82  1  0
 80 84  1  0
 80 79  1  0
 81 80  2  0
 84 83  1  0
 86 87  1  0
 86 84  1  0
 86 85  1  0
 89 90  1  0
 89 88  1  0
 91 89  1  0
 92 89  1  0
M  ISO  4   1 100  17 100  46 101  47 101
M  END
>  <TORSDO>  (51) 
F 18

>  <SCORE>  (51) 
-15.778

>  <name>  (51) 
50

>  <ligand_id>  (51) 
50

>  <original_smiles>  (51) 
[H]c1c([H])c([H])c2c(c1[H])C([H])([H])C([H])([H])C([H])([H])C2([H])N([H])C(=O)C1([H])N(C(=O)C([H])(N([H])C(=O)C([H])(N([H])C([H])([H])[H])C([H])([H])[H])C(C([H])([H])[H])(C([H])([H])[H])C([H])([H])[H])C([H])([H])c2c([H])c(OC([H])([H])C3([H])C([H])([H])C([H])([H])C4([H])C([H])([H])C([H])(C([H])([H])[N+]([H])([H])[H])N(C(=O)N5C([H])([H])C([H])([H])C([H])([H])C([H])(n6nc(-c7c([H])c([H])c(Oc8c([H])c([H])c(F)c([H])c8F)c([H])c7[H])c(C(=O)N([H])[H])c6N([H])[H])C5([H])[H])C4([H])C3([H])[H])c([H])c([H])c2C1([H])[H]

>  <smiles>  (51) 
[H]c1c([H])c([H])c2c(c1[H])C([H])([H])C([H])([H])C([H])([H])C2([H])N([H])C(=O)C1([H])N(C(=O)C([H])(N([H])C(=O)C([H])(N([H])C([H])([H])[H])C([H])([H])[H])C(C([H])([H])[H])(C([H])([H])[H])C([H])([H])[H])C([H])([H])c2c([H])c(OC([H])([H])C3([H])C([H])([H])C([H])([H])C4([H])C([H])([H])C([H])(C([H])([H])[N+]([H])([H])[H])N(C(=O)N5C([H])([H])C([H])([H])C([H])([H])C([H])(n6nc(-c7c([H])c([H])c(Oc8c([H])c([H])c(F)c([H])c8F)c([H])c7[H])c(C(=O)N([H])[H])c6N([H])[H])C5([H])[H])C4([H])C3([H])[H])c([H])c([H])c2C1([H])[H]

$$$$
51:0:0
     RDKit          3D

 97105  0  0  1  0  0  0  0  0999 V2000
  -28.5620  -20.0920   21.0150 C   0  0  0  0  0  3  0  0  0  0  0  0
  -29.3990  -20.6580   18.7960 C   0  0  0  0  0  3  0  0  0  0  0  0
  -28.3950  -21.4610   21.2960 C   0  0  0  0  0  3  0  0  0  0  0  0
  -29.2390  -22.0280   19.0840 C   0  0  0  0  0  3  0  0  0  0  0  0
  -29.0670  -19.6790   19.7600 C   0  0  0  0  0  0  0  0  0  0  0  0
  -28.7400  -22.4370   20.3380 C   0  0  0  0  0  0  0  0  0  0  0  0
  -29.2060  -18.2090   19.3820 C   0  0  0  0  0  2  0  0  0  0  0  0
  -29.6930  -17.3320   20.4700 N   0  0  0  0  0  4  0  0  0  0  0  0
  -30.0310  -17.9090   21.2220 H   0  0  0  0  0  0  0  0  0  0  0  0
  -28.8890  -16.8240   20.8020 H   0  0  0  0  0  0  0  0  0  0  0  0
  -30.7210  -16.3460   20.0590 C   0  0  0  0  0  2  0  0  0  0  0  0
  -31.1920  -15.4520   21.2340 C   0  0  0  0  0  2  0  0  0  0  0  0
  -32.3240  -13.4380   20.0770 C   0  0  0  0  0  0  0  0  0  0  0  0
  -31.8730  -11.0080   19.9200 C   0  0  0  0  0  2  0  0  0  0  0  0
  -30.9110  -10.6250   18.7770 C   0  0  0  0  0  2  0  0  0  0  0  0
  -29.4400  -10.7640   19.2020 C   0  0  0  0  0  2  0  0  0  0  0  0
  -29.1640  -12.1250   19.8750 C   0  0  0  0  0  3  0  0  0  0  0  0
  -30.1970  -12.3810   20.9890 C   0  0  0  0  0  2  0  0  0  0  0  0
  -31.5470  -12.3670   20.4040 N   0  0  0  0  0  0  0  0  0  0  0  0
  -33.2750  -13.3540   19.2980 O   0  0  0  0  0  0  0  0  0  0  0  0
  -32.2750  -14.5120   20.8940 N   0  0  0  0  0  0  0  0  0  0  0  0
  -33.1620  -14.9920   20.8710 H   0  0  0  0  0  0  0  0  0  0  0  0
  -27.0790  -13.3120   20.8090 C   0  0  0  0  0  0  0  0  0  0  0  0
  -25.8330  -12.8450   21.1320 C   0  0  0  0  0  0  0  0  0  0  0  0
  -25.8610  -11.4400   20.8810 C   0  0  0  0  0  0  0  0  0  0  0  0
  -27.7990  -12.2050   20.3890 N   0  0  0  0  0  0  0  0  0  0  0  0
  -27.0690  -11.0660   20.4860 N   0  0  0  0  0  0  0  0  0  0  0  0
  -24.7910  -10.4360   20.9300 C   0  0  0  0  0  0  0  0  0  0  0  0
  -24.9360   -9.2420   21.6700 C   0  0  0  0  0  3  0  0  0  0  0  0
  -23.8880   -8.2970   21.7100 C   0  0  0  0  0  3  0  0  0  0  0  0
  -22.6820   -8.5460   21.0140 C   0  0  0  0  0  0  0  0  0  0  0  0
  -22.5540   -9.7240   20.2590 C   0  0  0  0  0  3  0  0  0  0  0  0
  -23.5980  -10.6620   20.2140 C   0  0  0  0  0  3  0  0  0  0  0  0
  -21.6170   -7.6770   20.9810 O   0  0  0  0  0  0  0  0  0  0  0  0
  -21.2930   -6.8980   22.0630 C   0  0  0  0  0  0  0  0  0  0  0  0
  -20.9740   -7.4620   23.3190 C   0  0  0  0  0  3  0  0  0  0  0  0
  -20.5820   -6.6300   24.3870 C   0  0  0  0  0  3  0  0  0  0  0  0
  -20.4900   -5.2380   24.1980 C   0  0  0  0  0  0  0  0  0  0  0  0
  -20.8000   -4.6730   22.9490 C   0  0  0  0  0  3  0  0  0  0  0  0
  -21.1960   -5.5030   21.8830 C   0  0  0  0  0  0  0  0  0  0  0  0
  -21.4720   -4.9570   20.6750 F   0  0  0  0  0  0  0  0  0  0  0  0
  -20.1040   -4.4390   25.2210 F   0  0  0  0  0  0  0  0  0  0  0  0
  -24.6480  -13.6670   21.5470 C   0  0  0  0  0  0  0  0  0  0  0  0
  -23.7950  -13.1140   22.4020 N   0  0  0  0  0  0  0  0  0  0  0  0
  -24.5030  -14.8240   21.1530 O   0  0  0  0  0  0  0  0  0  0  0  0
  -23.9300  -12.1710   22.7350 H   0  0  0  0  0  0  0  0  0  0  0  0
  -22.9920  -13.6350   22.7210 H   0  0  0  0  0  0  0  0  0  0  0  0
  -27.6510  -14.5820   20.8080 N   0  0  0  0  0  0  0  0  0  0  0  0
  -26.9790  -15.3420   20.8300 H   0  0  0  0  0  0  0  0  0  0  0  0
  -28.3450  -14.7290   20.0870 H   0  0  0  0  0  0  0  0  0  0  0  0
  -28.5900  -23.9170   20.6580 C   0  0  0  0  0  2  0  0  0  0  0  0
  -29.1540  -24.7240   19.5620 N   0  0  0  0  0  4  0  0  0  0  0  0
  -29.4180  -24.0740   18.8400 H   0  0  0  0  0  0  0  0  0  0  0  0
  -30.0020  -25.1560   19.8940 H   0  0  0  0  0  0  0  0  0  0  0  0
  -28.2470  -25.7510   19.0020 C   0  0  0  0  0  2  0  0  0  0  0  0
  -28.8580  -26.4400   17.7590 C   0  0  0  0  0  2  0  0  0  0  0  0
  -28.0990  -27.4870   17.1410 O   0  0  0  0  0  0  0  0  0  0  0  0
  -24.5710  -29.5020   23.0010 C   0  0  0  0  0  0  0  0  0  0  0  0
  -26.9140  -27.8380   17.7310 C   0  0  0  0  0  0  0  0  0  0  0  0
  -23.1820  -28.8630   21.0560 C   0  0  0  0  0  3  0  0  0  0  0  0
  -24.4360  -28.5660   18.8550 C   0  0  0  0  0  0  0  0  0  0  0  0
  -25.5370  -29.8040   20.7260 C   0  0  0  0  0  2  0  0  0  0  0  0
  -25.6300  -28.9700   19.4680 C   0  0  0  0  0  0  0  0  0  0  0  0
  -26.8770  -28.6060   18.9150 C   0  0  0  0  0  3  0  0  0  0  0  0
  -25.7090  -27.4570   17.1090 C   0  0  0  0  0  3  0  0  0  0  0  0
  -24.4700  -27.8020   17.6740 C   0  0  0  0  0  3  0  0  0  0  0  0
  -23.1440  -29.0040   19.5110 C   0  0  0  0  0  2  0  0  0  0  0  0
  -24.4600  -29.3760   21.6490 N   0  0  0  0  0  0  0  0  0  0  0  0
  -23.6180  -29.2390   23.7490 O   0  0  0  0  0  0  0  0  0  0  0  0
  -22.8870  -27.3900   21.4180 C   0  0  0  0  0  0  0  0  0  0  0  0
  -21.6340  -26.9600   21.2030 N   0  0  0  0  0  0  0  0  0  0  0  0
  -23.7750  -26.6550   21.8520 O   0  0  0  0  0  0  0  0  0  0  0  0
  -20.9620  -27.6230   20.8430 H   0  0  0  0  0  0  0  0  0  0  0  0
  -18.7690  -24.8000   20.7910 C   0  0  0  0  0  0  0  0  0  0  0  0
  -21.1420  -25.6040   21.4320 C   0  0  0  0  0  3  0  0  0  0  0  0
  -21.6540  -24.6310   20.3470 C   0  0  0  0  0  2  0  0  0  0  0  0
  -20.6820  -24.4770   19.1730 C   0  0  0  0  0  2  0  0  0  0  0  0
  -19.3310  -23.9520   19.6630 C   0  0  0  0  0  2  0  0  0  0  0  0
  -19.6210  -25.5850   21.6110 C   0  0  0  0  0  0  0  0  0  0  0  0
  -19.0450  -26.3830   22.6230 C   0  0  0  0  0  3  0  0  0  0  0  0
  -17.6530  -26.4040   22.8210 C   0  0  0  0  0  3  0  0  0  0  0  0
  -16.8170  -25.6130   22.0120 C   0  0  0  0  0  3  0  0  0  0  0  0
  -17.3760  -24.8080   21.0060 C   0  0  0  0  0  3  0  0  0  0  0  0
  -25.8870  -30.0030   23.6700 C   0  0  0  0  0  3  0  0  0  0  0  0
  -25.6180  -31.3340   24.2280 N   0  0  0  0  0  0  0  0  0  0  0  0
  -26.0240  -32.4850   23.6740 C   0  0  0  0  0  0  0  0  0  0  0  0
  -26.7350  -32.5280   22.6670 O   0  0  0  0  0  0  0  0  0  0  0  0
  -24.9890  -31.3770   25.0170 H   0  0  0  0  0  0  0  0  0  0  0  0
  -24.3980  -34.3990   23.5610 C   0  0  0  0  0  1  0  0  0  0  0  0
  -25.5690  -33.7910   24.3490 C   0  0  0  0  0  3  0  0  0  0  0  0
  -27.7060  -34.3830   25.4020 C   0  0  0  0  0  1  0  0  0  0  0  0
  -26.6500  -34.7910   24.4800 N   0  0  0  0  0  0  0  0  0  0  0  0
  -26.2800  -35.6820   24.7970 H   0  0  0  0  0  0  0  0  0  0  0  0
  -26.4280  -29.0260   24.7860 C   0  0  1  0  0  0  0  0  0  0  0  0
  -25.3630  -28.6250   25.8310 C   0  0  0  0  0  1  0  0  0  0  0  0
  -26.9810  -27.7260   24.1530 C   0  0  0  0  0  1  0  0  0  0  0  0
  -27.6060  -29.6900   25.5390 C   0  0  0  0  0  1  0  0  0  0  0  0
  1  3  1  0
  2  4  2  0
  2  5  1  0
  4  6  1  0
  5  1  2  0
  6 51  1  0
  6  3  2  0
  7  5  1  0
  7  8  1  0
  8 10  1  0
  8  9  1  0
 11  8  1  0
 11 12  1  0
 13 19  1  0
 13 21  1  0
 14 19  1  0
 15 16  1  0
 15 14  1  0
 17 16  1  0
 17 26  1  0
 17 18  1  0
 19 18  1  0
 20 13  2  0
 21 12  1  0
 22 21  1  0
 23 24  2  0
 24 43  1  0
 25 28  1  0
 25 24  1  0
 26 27  1  0
 26 23  1  0
 27 25  2  0
 28 29  1  0
 29 30  2  0
 31 30  1  0
 32 31  2  0
 33 32  1  0
 33 28  2  0
 34 31  1  0
 34 35  1  0
 35 36  1  0
 36 37  2  0
 38 37  1  0
 38 42  1  0
 39 38  2  0
 40 35  2  0
 40 39  1  0
 41 40  1  0
 43 44  1  0
 44 47  1  0
 44 46  1  0
 45 43  2  0
 48 23  1  0
 48 49  1  0
 50 48  1  0
 52 54  1  0
 52 51  1  0
 53 52  1  0
 55 52  1  0
 56 55  1  0
 57 59  1  0
 57 56  1  0
 58 69  2  0
 59 64  1  0
 60 70  1  0
 60 68  1  0
 61 63  1  0
 61 67  1  0
 62 68  1  0
 63 62  1  0
 64 63  2  0
 65 66  1  0
 65 59  2  0
 66 61  2  0
 67 60  1  0
 68 58  1  0
 70 72  2  0
 71 70  1  0
 73 71  1  0
 74 83  2  0
 74 79  1  0
 75 71  1  0
 75 79  1  0
 76 75  1  0
 77 78  1  0
 77 76  1  0
 78 74  1  0
 79 80  2  0
 80 81  1  0
 82 81  2  0
 83 82  1  0
 84 58  1  0
 84 85  1  0
 84 94  1  0
 85 88  1  0
 86 85  1  0
 86 90  1  0
 87 86  2  0
 90 89  1  0
 90 92  1  0
 92 93  1  0
 92 91  1  0
 94 97  1  1
 94 95  1  0
 96 94  1  0
M  ISO  4  13 100  21 100  56 101  57 101
M  END
>  <TORSDO>  (52) 
F 24

>  <SCORE>  (52) 
-7.747

>  <name>  (52) 
51

>  <ligand_id>  (52) 
51

>  <original_smiles>  (52) 
[H]c1c([H])c([H])c2c(c1[H])C([H])([H])C([H])([H])C([H])([H])C2([H])N([H])C(=O)C1([H])N(C(=O)C([H])(N([H])C(=O)C([H])(N([H])C([H])([H])[H])C([H])([H])[H])C(C([H])([H])[H])(C([H])([H])[H])C([H])([H])[H])C([H])([H])c2c([H])c(OC([H])([H])C([H])([H])[N+]([H])([H])C([H])([H])c3c([H])c([H])c(C([H])([H])[N+]([H])([H])C([H])([H])C([H])([H])N([H])C(=O)N4C([H])([H])C([H])([H])C([H])([H])C([H])(n5nc(-c6c([H])c([H])c(Oc7c([H])c([H])c(F)c([H])c7F)c([H])c6[H])c(C(=O)N([H])[H])c5N([H])[H])C4([H])[H])c([H])c3[H])c([H])c([H])c2C1([H])[H]

>  <smiles>  (52) 
[H]c1c([H])c([H])c2c(c1[H])C([H])([H])C([H])([H])C([H])([H])C2([H])N([H])C(=O)C1([H])N(C(=O)C([H])(N([H])C(=O)C([H])(N([H])C([H])([H])[H])C([H])([H])[H])C(C([H])([H])[H])(C([H])([H])[H])C([H])([H])[H])C([H])([H])c2c([H])c(OC([H])([H])C([H])([H])[N+]([H])([H])C([H])([H])c3c([H])c([H])c(C([H])([H])[N+]([H])([H])C([H])([H])C([H])([H])N([H])C(=O)N4C([H])([H])C([H])([H])C([H])([H])C([H])(n5nc(-c6c([H])c([H])c(Oc7c([H])c([H])c(F)c([H])c7F)c([H])c6[H])c(C(=O)N([H])[H])c5N([H])[H])C4([H])[H])c([H])c3[H])c([H])c([H])c2C1([H])[H]

$$$$
52:0:0
     RDKit          3D

 95104  0  0  1  0  0  0  0  0999 V2000
  -28.4530  -21.6890   20.5360 C   0  0  0  0  0  3  0  0  0  0  0  0
  -29.2490  -20.6040   19.8640 N   0  0  0  0  0  4  0  0  0  0  0  0
  -28.8270  -20.4220   18.9650 H   0  0  0  0  0  0  0  0  0  0  0  0
  -30.1870  -20.9230   19.6840 H   0  0  0  0  0  0  0  0  0  0  0  0
  -29.6360  -18.0950   19.6350 C   0  0  0  0  0  0  0  0  0  0  0  0
  -30.8680  -17.7060   21.6650 C   0  0  0  0  0  2  0  0  0  0  0  0
  -30.4580  -19.1930   21.6200 C   0  0  0  0  0  2  0  0  0  0  0  0
  -30.7160  -17.1450   20.2320 C   0  0  0  0  0  3  0  0  0  0  0  0
  -29.3250  -19.2860   20.5850 C   0  0  0  0  0  3  0  0  0  0  0  0
  -29.0800  -17.9130   18.5490 O   0  0  0  0  0  0  0  0  0  0  0  0
  -31.0550  -14.6440   19.7910 C   0  0  0  0  0  0  0  0  0  0  0  0
  -30.7710  -12.3570   18.8730 C   0  0  0  0  0  2  0  0  0  0  0  0
  -29.7570  -12.4040   17.7100 C   0  0  0  0  0  2  0  0  0  0  0  0
  -28.3130  -12.2840   18.2380 C   0  0  0  0  0  2  0  0  0  0  0  0
  -28.0250  -13.2460   19.4230 C   0  0  0  0  0  3  0  0  0  0  0  0
  -29.1430  -13.1540   20.4850 C   0  0  0  0  0  2  0  0  0  0  0  0
  -30.4200  -13.4370   19.8130 N   0  0  0  0  0  0  0  0  0  0  0  0
  -32.1620  -14.7930   19.2650 O   0  0  0  0  0  0  0  0  0  0  0  0
  -30.3420  -15.7000   20.2580 N   0  0  0  0  0  0  0  0  0  0  0  0
  -29.4220  -15.4780   20.6070 H   0  0  0  0  0  0  0  0  0  0  0  0
  -25.7190  -13.9280   20.3370 C   0  0  0  0  0  0  0  0  0  0  0  0
  -24.6530  -13.1900   20.7730 C   0  0  0  0  0  0  0  0  0  0  0  0
  -25.0550  -11.8220   20.6740 C   0  0  0  0  0  0  0  0  0  0  0  0
  -26.7040  -13.0120   20.0020 N   0  0  0  0  0  0  0  0  0  0  0  0
  -26.3150  -11.7390   20.2640 N   0  0  0  0  0  0  0  0  0  0  0  0
  -24.2920  -10.5840   20.8880 C   0  0  0  0  0  0  0  0  0  0  0  0
  -24.7070   -9.6170   21.8300 C   0  0  0  0  0  3  0  0  0  0  0  0
  -23.9490   -8.4440   22.0320 C   0  0  0  0  0  3  0  0  0  0  0  0
  -22.7610   -8.2300   21.2910 C   0  0  0  0  0  0  0  0  0  0  0  0
  -22.3670   -9.1840   20.3380 C   0  0  0  0  0  3  0  0  0  0  0  0
  -23.1250  -10.3490   20.1340 C   0  0  0  0  0  3  0  0  0  0  0  0
  -21.9740   -7.1090   21.4030 O   0  0  0  0  0  0  0  0  0  0  0  0
  -21.8520   -6.4290   22.5880 C   0  0  0  0  0  0  0  0  0  0  0  0
  -21.3520   -7.0480   23.7550 C   0  0  0  0  0  3  0  0  0  0  0  0
  -21.1780   -6.2940   24.9320 C   0  0  0  0  0  3  0  0  0  0  0  0
  -21.4960   -4.9230   24.9440 C   0  0  0  0  0  0  0  0  0  0  0  0
  -21.9880   -4.3030   23.7820 C   0  0  0  0  0  3  0  0  0  0  0  0
  -22.1650   -5.0540   22.6070 C   0  0  0  0  0  0  0  0  0  0  0  0
  -22.6200   -4.4490   21.4850 F   0  0  0  0  0  0  0  0  0  0  0  0
  -21.3220   -4.1960   26.0720 F   0  0  0  0  0  0  0  0  0  0  0  0
  -23.3010  -13.7160   21.1640 C   0  0  0  0  0  0  0  0  0  0  0  0
  -22.6170  -13.0300   22.0730 N   0  0  0  0  0  0  0  0  0  0  0  0
  -22.8640  -14.7660   20.6970 O   0  0  0  0  0  0  0  0  0  0  0  0
  -22.9810  -12.1770   22.4720 H   0  0  0  0  0  0  0  0  0  0  0  0
  -21.7100  -13.3630   22.3750 H   0  0  0  0  0  0  0  0  0  0  0  0
  -25.9270  -15.2960   20.1760 N   0  0  0  0  0  0  0  0  0  0  0  0
  -25.1840  -15.9680   20.3260 H   0  0  0  0  0  0  0  0  0  0  0  0
  -26.7320  -15.6960   19.7140 H   0  0  0  0  0  0  0  0  0  0  0  0
  -28.9620  -23.1650   20.2890 C   0  0  0  0  0  3  0  0  0  0  0  0
  -28.8100  -25.2750   23.2010 C   0  0  0  0  0  2  0  0  0  0  0  0
  -28.0730  -24.1170   22.5270 C   0  0  0  0  0  2  0  0  0  0  0  0
  -28.6170  -26.4370   22.2420 C   0  0  0  0  0  2  0  0  0  0  0  0
  -28.1620  -24.3380   20.9870 C   0  0  0  0  0  3  0  0  0  0  0  0
  -28.7750  -25.7910   20.8560 C   0  0  0  0  0  3  0  0  0  0  0  0
  -28.4160  -26.6780   19.7630 O   0  0  0  0  0  0  0  0  0  0  0  0
  -24.6700  -31.8140   23.0750 C   0  0  0  0  0  0  0  0  0  0  0  0
  -27.2640  -27.4400   19.8490 C   0  0  0  0  0  0  0  0  0  0  0  0
  -23.4400  -30.4500   21.4240 C   0  0  0  0  0  3  0  0  0  0  0  0
  -24.8710  -28.9570   19.9250 C   0  0  0  0  0  0  0  0  0  0  0  0
  -25.9570  -30.8330   21.1750 C   0  0  0  0  0  2  0  0  0  0  0  0
  -26.0380  -29.4750   20.4980 C   0  0  0  0  0  0  0  0  0  0  0  0
  -27.2420  -28.7260   20.4470 C   0  0  0  0  0  3  0  0  0  0  0  0
  -26.0840  -26.9490   19.2610 C   0  0  0  0  0  3  0  0  0  0  0  0
  -24.8870  -27.6960   19.3020 C   0  0  0  0  0  3  0  0  0  0  0  0
  -23.6230  -29.8110   20.0200 C   0  0  0  0  0  2  0  0  0  0  0  0
  -24.7110  -31.0440   21.9510 N   0  0  0  0  0  0  0  0  0  0  0  0
  -23.5980  -32.0620   23.6470 O   0  0  0  0  0  0  0  0  0  0  0  0
  -22.8160  -29.4000   22.3720 C   0  0  0  0  0  0  0  0  0  0  0  0
  -21.4920  -29.1990   22.2640 N   0  0  0  0  0  0  0  0  0  0  0  0
  -23.5230  -28.7680   23.1630 O   0  0  0  0  0  0  0  0  0  0  0  0
  -20.9750  -29.7720   21.6110 H   0  0  0  0  0  0  0  0  0  0  0  0
  -18.1530  -27.9160   22.7600 C   0  0  0  0  0  0  0  0  0  0  0  0
  -20.7050  -28.2260   23.0250 C   0  0  0  0  0  3  0  0  0  0  0  0
  -20.8400  -26.8070   22.4280 C   0  0  0  0  0  2  0  0  0  0  0  0
  -19.7400  -26.4720   21.4160 C   0  0  0  0  0  2  0  0  0  0  0  0
  -18.3570  -26.5790   22.0660 C   0  0  0  0  0  2  0  0  0  0  0  0
  -19.2560  -28.6940   23.1980 C   0  0  0  0  0  0  0  0  0  0  0  0
  -19.0140  -29.9430   23.8100 C   0  0  0  0  0  3  0  0  0  0  0  0
  -17.7020  -30.4160   23.9850 C   0  0  0  0  0  3  0  0  0  0  0  0
  -16.6110  -29.6350   23.5690 C   0  0  0  0  0  3  0  0  0  0  0  0
  -16.8380  -28.3870   22.9600 C   0  0  0  0  0  3  0  0  0  0  0  0
  -25.9650  -32.4380   23.6830 C   0  0  0  0  0  3  0  0  0  0  0  0
  -26.5120  -31.6380   24.9270 C   0  0  1  0  0  0  0  0  0  0  0  0
  -25.4460  -31.3740   26.0130 C   0  0  0  0  0  1  0  0  0  0  0  0
  -27.0890  -30.2730   24.4820 C   0  0  0  0  0  1  0  0  0  0  0  0
  -27.6710  -32.4200   25.5850 C   0  0  0  0  0  1  0  0  0  0  0  0
  -25.6540  -33.8260   24.0510 N   0  0  0  0  0  0  0  0  0  0  0  0
  -25.9850  -34.8980   23.3200 C   0  0  0  0  0  0  0  0  0  0  0  0
  -26.6480  -34.8230   22.2840 O   0  0  0  0  0  0  0  0  0  0  0  0
  -25.0560  -33.9580   24.8540 H   0  0  0  0  0  0  0  0  0  0  0  0
  -24.2590  -36.6980   23.0120 C   0  0  0  0  0  1  0  0  0  0  0  0
  -25.4970  -36.2710   23.8150 C   0  0  0  0  0  3  0  0  0  0  0  0
  -27.6310  -37.1360   24.6720 C   0  0  0  0  0  1  0  0  0  0  0  0
  -26.5310  -37.3270   23.7300 N   0  0  0  0  0  0  0  0  0  0  0  0
  -26.1250  -38.2440   23.9020 H   0  0  0  0  0  0  0  0  0  0  0  0
  2  1  1  0
  3  2  1  0
  4  2  1  0
  5  8  1  0
  5  9  1  0
  7  6  1  0
  8 19  1  0
  8  6  1  0
  9  2  1  0
  9  7  1  0
 10  5  2  0
 11 17  1  0
 11 19  1  0
 12 17  1  0
 13 14  1  0
 13 12  1  0
 15 14  1  0
 15 24  1  0
 15 16  1  0
 17 16  1  0
 18 11  2  0
 19 20  1  0
 21 22  2  0
 22 41  1  0
 23 22  1  0
 23 26  1  0
 24 25  1  0
 24 21  1  0
 25 23  2  0
 26 27  1  0
 27 28  2  0
 29 32  1  0
 29 28  1  0
 30 29  2  0
 31 30  1  0
 31 26  2  0
 32 33  1  0
 33 38  2  0
 33 34  1  0
 34 35  2  0
 35 36  1  0
 36 40  1  0
 37 36  2  0
 38 37  1  0
 39 38  1  0
 41 42  1  0
 42 45  1  0
 42 44  1  0
 43 41  2  0
 46 47  1  0
 46 21  1  0
 48 46  1  0
 49  1  2  0
 51 50  1  0
 52 50  1  0
 53 49  1  0
 53 51  1  0
 54 55  1  0
 54 53  1  0
 54 52  1  0
 55 57  1  0
 56 67  2  0
 57 62  1  0
 58 66  1  0
 58 68  1  0
 59 65  1  0
 59 61  1  0
 60 66  1  0
 61 60  1  0
 62 61  2  0
 63 64  1  0
 63 57  2  0
 64 59  2  0
 65 58  1  0
 66 56  1  0
 68 70  2  0
 69 68  1  0
 71 69  1  0
 72 81  2  0
 72 77  1  0
 73 69  1  0
 73 77  1  0
 74 73  1  0
 75 76  1  0
 75 74  1  0
 76 72  1  0
 77 78  2  0
 78 79  1  0
 80 79  2  0
 81 80  1  0
 82 56  1  0
 82 87  1  0
 82 83  1  0
 83 86  1  1
 83 84  1  0
 85 83  1  0
 87 90  1  0
 88 92  1  0
 88 87  1  0
 89 88  2  0
 92 91  1  0
 94 92  1  0
 94 95  1  0
 94 93  1  0
M  ISO  4  11 100  19 100  54 101  55 101
M  END
>  <TORSDO>  (53) 
F 20

>  <SCORE>  (53) 
-13.161

>  <name>  (53) 
52

>  <ligand_id>  (53) 
52

>  <original_smiles>  (53) 
[H]c1c([H])c([H])c2c(c1[H])C([H])([H])C([H])([H])C([H])([H])C2([H])N([H])C(=O)C1([H])N(C(=O)C([H])(N([H])C(=O)C([H])(N([H])C([H])([H])[H])C([H])([H])[H])C(C([H])([H])[H])(C([H])([H])[H])C([H])([H])[H])C([H])([H])c2c([H])c(OC3([H])C([H])([H])C([H])([H])C([H])([H])C3([H])C([H])([H])C([H])([H])[N+]([H])([H])C3([H])C(=O)C([H])(N([H])C(=O)N4C([H])([H])C([H])([H])C([H])([H])C([H])(n5nc(-c6c([H])c([H])c(Oc7c([H])c([H])c(F)c([H])c7F)c([H])c6[H])c(C(=O)N([H])[H])c5N([H])[H])C4([H])[H])C([H])([H])C3([H])[H])c([H])c([H])c2C1([H])[H]

>  <smiles>  (53) 
[H]c1c([H])c([H])c2c(c1[H])C([H])([H])C([H])([H])C([H])([H])C2([H])N([H])C(=O)C1([H])N(C(=O)C([H])(N([H])C(=O)C([H])(N([H])C([H])([H])[H])C([H])([H])[H])C(C([H])([H])[H])(C([H])([H])[H])C([H])([H])[H])C([H])([H])c2c([H])c(OC3([H])C([H])([H])C([H])([H])C([H])([H])C3([H])C([H])([H])C([H])([H])[N+]([H])([H])C3([H])C(=O)C([H])(N([H])C(=O)N4C([H])([H])C([H])([H])C([H])([H])C([H])(n5nc(-c6c([H])c([H])c(Oc7c([H])c([H])c(F)c([H])c7F)c([H])c6[H])c(C(=O)N([H])[H])c5N([H])[H])C4([H])[H])C([H])([H])C3([H])[H])c([H])c([H])c2C1([H])[H]

$$$$
53:0:0
     RDKit          3D

 93101  0  0  1  0  0  0  0  0999 V2000
  -28.7060  -20.4750   20.1850 C   0  0  0  0  0  2  0  0  0  0  0  0
  -31.0050  -17.7940   21.9100 C   0  0  0  0  0  2  0  0  0  0  0  0
  -31.5700  -19.2200   22.0290 C   0  0  0  0  0  2  0  0  0  0  0  0
  -31.1440  -19.4950   19.5710 C   0  0  0  0  0  2  0  0  0  0  0  0
  -29.7070  -19.0920   19.9830 C   0  0  0  0  0  3  0  0  0  0  0  0
  -29.8110  -17.6800   20.9260 C   0  0  0  0  0  3  0  0  0  0  0  0
  -32.0550  -19.7200   20.7220 N   0  0  0  0  0  4  0  0  0  0  0  0
  -32.9250  -19.2580   20.5090 H   0  0  0  0  0  0  0  0  0  0  0  0
  -32.2840  -20.6970   20.8070 H   0  0  0  0  0  0  0  0  0  0  0  0
  -30.4940  -14.9980   20.2960 C   0  0  0  0  0  0  0  0  0  0  0  0
  -30.3800  -12.6560   19.3170 C   0  0  0  0  0  2  0  0  0  0  0  0
  -29.4160  -12.6030   18.1090 C   0  0  0  0  0  2  0  0  0  0  0  0
  -27.9640  -12.3830   18.5750 C   0  0  0  0  0  2  0  0  0  0  0  0
  -27.5760  -13.3000   19.7650 C   0  0  0  0  0  3  0  0  0  0  0  0
  -28.6560  -13.3100   20.8640 C   0  0  0  0  0  2  0  0  0  0  0  0
  -29.9070  -13.7370   20.2230 N   0  0  0  0  0  0  0  0  0  0  0  0
  -31.7020  -15.0750   20.0490 O   0  0  0  0  0  0  0  0  0  0  0  0
  -29.6790  -16.1590   20.4540 N   0  0  0  0  0  0  0  0  0  0  0  0
  -28.7100  -15.8770   20.4460 H   0  0  0  0  0  0  0  0  0  0  0  0
  -25.2120  -13.8640   20.5650 C   0  0  0  0  0  0  0  0  0  0  0  0
  -24.1590  -13.0820   20.9520 C   0  0  0  0  0  0  0  0  0  0  0  0
  -24.6280  -11.7340   20.8990 C   0  0  0  0  0  0  0  0  0  0  0  0
  -26.2530  -12.9930   20.2920 N   0  0  0  0  0  0  0  0  0  0  0  0
  -25.9130  -11.7050   20.5600 N   0  0  0  0  0  0  0  0  0  0  0  0
  -23.9110  -10.4670   21.0920 C   0  0  0  0  0  0  0  0  0  0  0  0
  -24.3650   -9.4910   22.0060 C   0  0  0  0  0  3  0  0  0  0  0  0
  -23.6450   -8.2910   22.1880 C   0  0  0  0  0  3  0  0  0  0  0  0
  -22.4570   -8.0570   21.4550 C   0  0  0  0  0  0  0  0  0  0  0  0
  -22.0210   -9.0220   20.5300 C   0  0  0  0  0  3  0  0  0  0  0  0
  -22.7430  -10.2130   20.3460 C   0  0  0  0  0  3  0  0  0  0  0  0
  -21.7070   -6.9100   21.5480 O   0  0  0  0  0  0  0  0  0  0  0  0
  -21.6850   -6.1550   22.6940 C   0  0  0  0  0  0  0  0  0  0  0  0
  -21.2720   -6.6920   23.9330 C   0  0  0  0  0  3  0  0  0  0  0  0
  -21.1980   -5.8630   25.0700 C   0  0  0  0  0  3  0  0  0  0  0  0
  -21.5260   -4.4980   24.9700 C   0  0  0  0  0  0  0  0  0  0  0  0
  -21.9330   -3.9600   23.7350 C   0  0  0  0  0  3  0  0  0  0  0  0
  -22.0080   -4.7860   22.6000 C   0  0  0  0  0  0  0  0  0  0  0  0
  -22.3790   -4.2590   21.4090 F   0  0  0  0  0  0  0  0  0  0  0  0
  -21.4480   -3.6990   26.0580 F   0  0  0  0  0  0  0  0  0  0  0  0
  -22.7660  -13.5520   21.2530 C   0  0  0  0  0  0  0  0  0  0  0  0
  -22.0570  -12.8460   22.1270 N   0  0  0  0  0  0  0  0  0  0  0  0
  -22.3170  -14.5810   20.7500 O   0  0  0  0  0  0  0  0  0  0  0  0
  -22.4340  -12.0150   22.5560 H   0  0  0  0  0  0  0  0  0  0  0  0
  -21.1220  -13.1440   22.3700 H   0  0  0  0  0  0  0  0  0  0  0  0
  -25.3630  -15.2380   20.3950 N   0  0  0  0  0  0  0  0  0  0  0  0
  -24.5850  -15.8770   20.5200 H   0  0  0  0  0  0  0  0  0  0  0  0
  -26.1780  -15.6840   19.9960 H   0  0  0  0  0  0  0  0  0  0  0  0
  -29.0950  -21.9760   20.5740 N   0  0  0  0  0  4  0  0  0  0  0  0
  -30.0910  -22.0840   20.4920 H   0  0  0  0  0  0  0  0  0  0  0  0
  -28.8980  -22.0470   21.5610 H   0  0  0  0  0  0  0  0  0  0  0  0
  -28.4750  -23.2910   19.9080 C   0  0  0  0  0  2  0  0  0  0  0  0
  -28.2340  -24.7640   20.7160 C   0  0  0  0  0  2  0  0  0  0  0  0
  -28.3090  -26.2370   20.2020 O   0  0  0  0  0  0  0  0  0  0  0  0
  -24.6090  -31.9000   23.1970 C   0  0  0  0  0  0  0  0  0  0  0  0
  -27.2170  -27.1750   20.2220 C   0  0  0  0  0  0  0  0  0  0  0  0
  -23.4180  -30.4850   21.5650 C   0  0  0  0  0  3  0  0  0  0  0  0
  -24.8760  -28.8970   20.1660 C   0  0  0  0  0  0  0  0  0  0  0  0
  -25.9690  -30.7650   21.3990 C   0  0  0  0  0  2  0  0  0  0  0  0
  -26.0520  -29.3640   20.7660 C   0  0  0  0  0  0  0  0  0  0  0  0
  -27.2260  -28.5220   20.7680 C   0  0  0  0  0  3  0  0  0  0  0  0
  -26.0120  -26.7990   19.5960 C   0  0  0  0  0  3  0  0  0  0  0  0
  -24.8680  -27.6280   19.5650 C   0  0  0  0  0  3  0  0  0  0  0  0
  -23.6460  -29.7920   20.1950 C   0  0  0  0  0  2  0  0  0  0  0  0
  -24.6860  -31.0730   22.1090 N   0  0  0  0  0  0  0  0  0  0  0  0
  -23.5200  -32.1830   23.7210 O   0  0  0  0  0  0  0  0  0  0  0  0
  -22.7410  -29.4860   22.5350 C   0  0  0  0  0  0  0  0  0  0  0  0
  -21.4120  -29.3160   22.4120 N   0  0  0  0  0  0  0  0  0  0  0  0
  -23.4140  -28.8620   23.3600 O   0  0  0  0  0  0  0  0  0  0  0  0
  -20.9270  -29.8710   21.7220 H   0  0  0  0  0  0  0  0  0  0  0  0
  -18.0280  -28.1350   22.9380 C   0  0  0  0  0  0  0  0  0  0  0  0
  -20.5910  -28.3830   23.1880 C   0  0  0  0  0  3  0  0  0  0  0  0
  -20.6810  -26.9510   22.6130 C   0  0  0  0  0  2  0  0  0  0  0  0
  -19.5700  -26.6330   21.6060 C   0  0  0  0  0  2  0  0  0  0  0  0
  -18.1940  -26.7850   22.2600 C   0  0  0  0  0  2  0  0  0  0  0  0
  -19.1540  -28.8920   23.3590 C   0  0  0  0  0  0  0  0  0  0  0  0
  -18.9450  -30.1550   23.9560 C   0  0  0  0  0  3  0  0  0  0  0  0
  -17.6420  -30.6590   24.1330 C   0  0  0  0  0  3  0  0  0  0  0  0
  -16.5330  -29.9000   23.7250 C   0  0  0  0  0  3  0  0  0  0  0  0
  -16.7260  -28.6400   23.1330 C   0  0  0  0  0  3  0  0  0  0  0  0
  -25.8830  -32.5440   23.8240 C   0  0  0  0  0  3  0  0  0  0  0  0
  -26.3960  -31.7810   25.1060 C   0  0  1  0  0  0  0  0  0  0  0  0
  -25.3000  -31.5450   26.1720 C   0  0  0  0  0  1  0  0  0  0  0  0
  -26.9870  -30.4040   24.7260 C   0  0  0  0  0  1  0  0  0  0  0  0
  -27.5410  -32.5840   25.7710 C   0  0  0  0  0  1  0  0  0  0  0  0
  -25.5620  -33.9420   24.1550 N   0  0  0  0  0  0  0  0  0  0  0  0
  -25.8890  -35.0010   23.4020 C   0  0  0  0  0  0  0  0  0  0  0  0
  -26.5590  -34.9030   22.3700 O   0  0  0  0  0  0  0  0  0  0  0  0
  -24.9640  -34.0910   24.9540 H   0  0  0  0  0  0  0  0  0  0  0  0
  -24.1560  -36.7920   23.0520 C   0  0  0  0  0  1  0  0  0  0  0  0
  -25.3960  -36.3860   23.8640 C   0  0  0  0  0  3  0  0  0  0  0  0
  -27.5250  -37.2790   24.7050 C   0  0  0  0  0  1  0  0  0  0  0  0
  -26.4260  -37.4430   23.7570 N   0  0  0  0  0  0  0  0  0  0  0  0
  -26.0160  -38.3620   23.9040 H   0  0  0  0  0  0  0  0  0  0  0  0
  1 48  1  0
  2  3  1  0
  4  5  1  0
  4  7  1  0
  5  1  1  0
  5  6  1  0
  6 18  1  0
  6  2  1  0
  7  9  1  0
  7  3  1  0
  8  7  1  0
 10 18  1  0
 11 16  1  0
 12 13  1  0
 12 11  1  0
 14 13  1  0
 14 23  1  0
 14 15  1  0
 16 10  1  0
 16 15  1  0
 17 10  2  0
 19 18  1  0
 20 21  2  0
 21 40  1  0
 22 21  1  0
 22 25  1  0
 23 24  1  0
 23 20  1  0
 24 22  2  0
 25 26  1  0
 26 27  2  0
 28 31  1  0
 28 27  1  0
 29 28  2  0
 30 29  1  0
 30 25  2  0
 31 32  1  0
 32 33  1  0
 33 34  2  0
 35 34  1  0
 35 39  1  0
 36 35  2  0
 37 32  2  0
 37 36  1  0
 38 37  1  0
 40 41  1  0
 41 44  1  0
 41 43  1  0
 42 40  2  0
 45 46  1  0
 45 20  1  0
 47 45  1  0
 48 50  1  0
 49 48  1  0
 51 48  1  0
 51 52  1  0
 53 55  1  0
 53 52  1  0
 54 65  2  0
 55 60  1  0
 56 64  1  0
 56 66  1  0
 57 63  1  0
 57 59  1  0
 58 64  1  0
 59 60  2  0
 59 58  1  0
 61 55  2  0
 62 61  1  0
 62 57  2  0
 63 56  1  0
 64 54  1  0
 66 68  2  0
 67 66  1  0
 69 67  1  0
 70 79  2  0
 70 75  1  0
 71 67  1  0
 71 75  1  0
 72 71  1  0
 73 74  1  0
 73 72  1  0
 74 70  1  0
 75 76  2  0
 76 77  1  0
 78 77  2  0
 79 78  1  0
 80 54  1  0
 80 85  1  0
 80 81  1  0
 81 84  1  1
 81 82  1  0
 83 81  1  0
 85 88  1  0
 86 90  1  0
 86 85  1  0
 87 86  2  0
 90 89  1  0
 92 90  1  0
 92 93  1  0
 92 91  1  0
M  ISO  4  10 100  18 100  52 101  53 101
M  END
>  <TORSDO>  (54) 
F 20

>  <SCORE>  (54) 
-15.415

>  <name>  (54) 
53

>  <ligand_id>  (54) 
53

>  <original_smiles>  (54) 
[H]c1c([H])c([H])c2c(c1[H])C([H])([H])C([H])([H])C([H])([H])C2([H])N([H])C(=O)C1([H])N(C(=O)C([H])(N([H])C(=O)C([H])(N([H])C([H])([H])[H])C([H])([H])[H])C(C([H])([H])[H])(C([H])([H])[H])C([H])([H])[H])C([H])([H])c2c([H])c(OC([H])([H])C([H])([H])[N+]([H])([H])C([H])([H])C3([H])C([H])(N([H])C(=O)N4C([H])([H])C([H])([H])C([H])([H])C([H])(n5nc(-c6c([H])c([H])c(Oc7c([H])c([H])c(F)c([H])c7F)c([H])c6[H])c(C(=O)N([H])[H])c5N([H])[H])C4([H])[H])C([H])([H])C([H])([H])[N+]([H])([H])C3([H])[H])c([H])c([H])c2C1([H])[H]

>  <smiles>  (54) 
[H]c1c([H])c([H])c2c(c1[H])C([H])([H])C([H])([H])C([H])([H])C2([H])N([H])C(=O)C1([H])N(C(=O)C([H])(N([H])C(=O)C([H])(N([H])C([H])([H])[H])C([H])([H])[H])C(C([H])([H])[H])(C([H])([H])[H])C([H])([H])[H])C([H])([H])c2c([H])c(OC([H])([H])C([H])([H])[N+]([H])([H])C([H])([H])C3([H])C([H])(N([H])C(=O)N4C([H])([H])C([H])([H])C([H])([H])C([H])(n5nc(-c6c([H])c([H])c(Oc7c([H])c([H])c(F)c([H])c7F)c([H])c6[H])c(C(=O)N([H])[H])c5N([H])[H])C4([H])[H])C([H])([H])C([H])([H])[N+]([H])([H])C3([H])[H])c([H])c([H])c2C1([H])[H]

$$$$
54:0:0
     RDKit          3D

 96105  0  0  1  0  0  0  0  0999 V2000
  -28.2130  -21.8190   20.9190 C   0  0  0  0  0  2  0  0  0  0  0  0
  -29.0390  -20.3890   21.1480 C   0  0  0  0  0  2  0  0  0  0  0  0
  -31.0320  -17.9370   18.7670 C   0  0  0  0  0  2  0  0  0  0  0  0
  -30.5690  -19.1840   17.9940 C   0  0  0  0  0  2  0  0  0  0  0  0
  -29.3470  -21.3570   18.4090 C   0  0  0  0  0  2  0  0  0  0  0  0
  -28.8300  -23.2320   20.3390 C   0  0  0  0  0  3  0  0  0  0  0  0
  -29.6700  -22.7880   19.0620 C   0  0  0  0  0  3  0  0  0  0  0  0
  -30.2130  -17.8350   20.0770 C   0  0  0  0  0  3  0  0  0  0  0  0
  -29.2980  -19.2840   19.9750 C   0  0  0  0  0  3  0  0  0  0  0  0
  -30.0410  -20.1330   18.9910 N   0  0  1  0  0  4  0  0  0  0  0  0
  -30.8580  -20.4730   19.4730 H   0  0  0  0  0  0  0  0  0  0  0  0
  -30.5120  -15.0830   20.1810 C   0  0  0  0  0  0  0  0  0  0  0  0
  -30.3680  -12.7230   19.2540 C   0  0  0  0  0  2  0  0  0  0  0  0
  -29.4070  -12.6580   18.0450 C   0  0  0  0  0  2  0  0  0  0  0  0
  -27.9570  -12.4370   18.5140 C   0  0  0  0  0  2  0  0  0  0  0  0
  -27.5720  -13.3580   19.7030 C   0  0  0  0  0  3  0  0  0  0  0  0
  -28.6570  -13.4010   20.7990 C   0  0  0  0  0  2  0  0  0  0  0  0
  -29.9010  -13.8270   20.1470 N   0  0  0  0  0  0  0  0  0  0  0  0
  -31.7150  -15.1080   19.9000 O   0  0  0  0  0  0  0  0  0  0  0  0
  -29.7750  -16.3100   20.2940 N   0  0  0  0  0  0  0  0  0  0  0  0
  -28.7960  -16.1810   20.5060 H   0  0  0  0  0  0  0  0  0  0  0  0
  -25.2190  -13.9130   20.5330 C   0  0  0  0  0  0  0  0  0  0  0  0
  -24.1670  -13.1290   20.9170 C   0  0  0  0  0  0  0  0  0  0  0  0
  -24.6300  -11.7790   20.8400 C   0  0  0  0  0  0  0  0  0  0  0  0
  -26.2540  -13.0420   20.2390 N   0  0  0  0  0  0  0  0  0  0  0  0
  -25.9110  -11.7520   20.4900 N   0  0  0  0  0  0  0  0  0  0  0  0
  -23.9090  -10.5130   21.0230 C   0  0  0  0  0  0  0  0  0  0  0  0
  -24.3410   -9.5420   21.9540 C   0  0  0  0  0  3  0  0  0  0  0  0
  -23.6180   -8.3420   22.1260 C   0  0  0  0  0  3  0  0  0  0  0  0
  -22.4470   -8.1040   21.3670 C   0  0  0  0  0  0  0  0  0  0  0  0
  -22.0330   -9.0640   20.4260 C   0  0  0  0  0  3  0  0  0  0  0  0
  -22.7580  -10.2550   20.2520 C   0  0  0  0  0  3  0  0  0  0  0  0
  -21.6940   -6.9570   21.4480 O   0  0  0  0  0  0  0  0  0  0  0  0
  -21.6080   -6.2340   22.6100 C   0  0  0  0  0  0  0  0  0  0  0  0
  -21.1090   -6.7980   23.8040 C   0  0  0  0  0  3  0  0  0  0  0  0
  -20.9720   -6.0000   24.9570 C   0  0  0  0  0  3  0  0  0  0  0  0
  -21.3230   -4.6370   24.9170 C   0  0  0  0  0  0  0  0  0  0  0  0
  -21.8160   -4.0720   23.7270 C   0  0  0  0  0  3  0  0  0  0  0  0
  -21.9550   -4.8680   22.5770 C   0  0  0  0  0  0  0  0  0  0  0  0
  -22.4100   -4.3130   21.4280 F   0  0  0  0  0  0  0  0  0  0  0  0
  -21.1860   -3.8680   26.0210 F   0  0  0  0  0  0  0  0  0  0  0  0
  -22.7790  -13.6000   21.2370 C   0  0  0  0  0  0  0  0  0  0  0  0
  -22.0740  -12.8860   22.1080 N   0  0  0  0  0  0  0  0  0  0  0  0
  -22.3270  -14.6350   20.7500 O   0  0  0  0  0  0  0  0  0  0  0  0
  -22.4550  -12.0500   22.5260 H   0  0  0  0  0  0  0  0  0  0  0  0
  -21.1430  -13.1820   22.3620 H   0  0  0  0  0  0  0  0  0  0  0  0
  -25.3750  -15.2880   20.3800 N   0  0  0  0  0  0  0  0  0  0  0  0
  -24.6040  -15.9320   20.5220 H   0  0  0  0  0  0  0  0  0  0  0  0
  -26.1950  -15.7340   19.9940 H   0  0  0  0  0  0  0  0  0  0  0  0
  -29.7060  -23.8940   17.9700 C   0  0  0  0  0  2  0  0  0  0  0  0
  -30.3670  -25.1390   18.4110 N   0  0  0  0  0  4  0  0  0  0  0  0
  -29.8540  -25.5790   19.1600 H   0  0  0  0  0  0  0  0  0  0  0  0
  -30.4060  -25.7880   17.6440 H   0  0  0  0  0  0  0  0  0  0  0  0
  -31.3090  -24.9650   18.7140 H   0  0  0  0  0  0  0  0  0  0  0  0
  -27.8510  -24.6380   20.2490 C   0  0  0  0  0  2  0  0  0  0  0  0
  -28.2000  -26.1750   20.2430 O   0  0  0  0  0  0  0  0  0  0  0  0
  -24.6450  -31.9490   23.2490 C   0  0  0  0  0  0  0  0  0  0  0  0
  -27.1640  -27.1940   20.1990 C   0  0  0  0  0  0  0  0  0  0  0  0
  -23.4260  -30.5620   21.6200 C   0  0  0  0  0  3  0  0  0  0  0  0
  -24.8540  -28.9800   20.1830 C   0  0  0  0  0  0  0  0  0  0  0  0
  -25.9830  -30.8050   21.4380 C   0  0  0  0  0  2  0  0  0  0  0  0
  -26.0430  -29.4100   20.7840 C   0  0  0  0  0  0  0  0  0  0  0  0
  -27.2000  -28.5340   20.7720 C   0  0  0  0  0  3  0  0  0  0  0  0
  -25.9460  -26.8800   19.5540 C   0  0  0  0  0  3  0  0  0  0  0  0
  -24.8200  -27.7300   19.5520 C   0  0  0  0  0  3  0  0  0  0  0  0
  -23.6340  -29.8870   20.2390 C   0  0  0  0  0  2  0  0  0  0  0  0
  -24.7060  -31.1270   22.1570 N   0  0  0  0  0  0  0  0  0  0  0  0
  -23.5630  -32.2400   23.7840 O   0  0  0  0  0  0  0  0  0  0  0  0
  -22.7480  -29.5570   22.5850 C   0  0  0  0  0  0  0  0  0  0  0  0
  -21.4190  -29.3830   22.4610 N   0  0  0  0  0  0  0  0  0  0  0  0
  -23.4200  -28.9350   23.4110 O   0  0  0  0  0  0  0  0  0  0  0  0
  -20.9330  -29.9390   21.7700 H   0  0  0  0  0  0  0  0  0  0  0  0
  -18.0400  -28.1790   22.9680 C   0  0  0  0  0  0  0  0  0  0  0  0
  -20.5980  -28.4490   23.2350 C   0  0  0  0  0  3  0  0  0  0  0  0
  -20.7020  -27.0130   22.6690 C   0  0  0  0  0  2  0  0  0  0  0  0
  -19.6020  -26.6820   21.6560 C   0  0  0  0  0  2  0  0  0  0  0  0
  -18.2190  -26.8270   22.2980 C   0  0  0  0  0  2  0  0  0  0  0  0
  -19.1560  -28.9470   23.3940 C   0  0  0  0  0  0  0  0  0  0  0  0
  -18.9320  -30.2110   23.9820 C   0  0  0  0  0  3  0  0  0  0  0  0
  -17.6250  -30.7070   24.1480 C   0  0  0  0  0  3  0  0  0  0  0  0
  -16.5240  -29.9360   23.7380 C   0  0  0  0  0  3  0  0  0  0  0  0
  -16.7320  -28.6740   23.1540 C   0  0  0  0  0  3  0  0  0  0  0  0
  -25.9300  -32.5790   23.8680 C   0  0  0  0  0  3  0  0  0  0  0  0
  -26.4490  -31.8030   25.1410 C   0  0  1  0  0  0  0  0  0  0  0  0
  -25.3590  -31.5620   26.2120 C   0  0  0  0  0  1  0  0  0  0  0  0
  -27.0290  -30.4260   24.7470 C   0  0  0  0  0  1  0  0  0  0  0  0
  -27.6030  -32.5930   25.8010 C   0  0  0  0  0  1  0  0  0  0  0  0
  -25.6240  -33.9770   24.2120 N   0  0  0  0  0  0  0  0  0  0  0  0
  -25.9270  -35.0360   23.4500 C   0  0  0  0  0  0  0  0  0  0  0  0
  -26.5610  -34.9390   22.3950 O   0  0  0  0  0  0  0  0  0  0  0  0
  -25.0550  -34.1250   25.0330 H   0  0  0  0  0  0  0  0  0  0  0  0
  -24.1740  -36.8220   23.1810 C   0  0  0  0  0  1  0  0  0  0  0  0
  -25.4540  -36.4220   23.9310 C   0  0  0  0  0  3  0  0  0  0  0  0
  -27.6170  -37.3250   24.6680 C   0  0  0  0  0  1  0  0  0  0  0  0
  -26.4750  -37.4820   23.7700 N   0  0  0  0  0  0  0  0  0  0  0  0
  -26.0690  -38.4000   23.9320 H   0  0  0  0  0  0  0  0  0  0  0  0
  1  2  1  0
  3  8  1  0
  4  3  1  0
  4 10  1  0
  5 10  1  0
  5  7  1  0
  6 55  1  0
  6  1  1  0
  7 50  1  0
  7  6  1  0
  8 20  1  0
  9  8  1  0
  9  2  1  0
 10 11  1  1
 10  9  1  0
 12 20  1  0
 13 18  1  0
 14 15  1  0
 14 13  1  0
 16 15  1  0
 16 25  1  0
 16 17  1  0
 18 12  1  0
 18 17  1  0
 19 12  2  0
 20 21  1  0
 22 23  2  0
 23 42  1  0
 24 23  1  0
 24 27  1  0
 25 26  1  0
 25 22  1  0
 26 24  2  0
 27 28  1  0
 28 29  2  0
 30 33  1  0
 30 29  1  0
 31 30  2  0
 32 31  1  0
 32 27  2  0
 33 34  1  0
 34 35  1  0
 35 36  2  0
 37 36  1  0
 37 41  1  0
 38 37  2  0
 39 34  2  0
 39 38  1  0
 40 39  1  0
 42 43  1  0
 43 46  1  0
 43 45  1  0
 44 42  2  0
 47 48  1  0
 47 22  1  0
 49 47  1  0
 50 51  1  0
 51 54  1  0
 51 52  1  0
 53 51  1  0
 56 55  1  0
 57 68  2  0
 58 56  1  0
 58 63  1  0
 59 67  1  0
 59 69  1  0
 60 66  1  0
 60 62  1  0
 61 67  1  0
 62 61  1  0
 63 62  2  0
 64 58  2  0
 65 64  1  0
 65 60  2  0
 66 59  1  0
 67 57  1  0
 69 71  2  0
 70 69  1  0
 72 70  1  0
 73 82  2  0
 73 78  1  0
 74 70  1  0
 74 78  1  0
 75 74  1  0
 76 77  1  0
 76 75  1  0
 77 73  1  0
 78 79  2  0
 79 80  1  0
 81 80  2  0
 82 81  1  0
 83 57  1  0
 83 88  1  0
 83 84  1  0
 84 87  1  1
 84 85  1  0
 86 84  1  0
 88 91  1  0
 89 93  1  0
 89 88  1  0
 90 89  2  0
 93 92  1  0
 95 93  1  0
 95 96  1  0
 95 94  1  0
M  ISO  4  12 100  20 100  55 101  56 101
M  END
>  <TORSDO>  (55) 
F 19

>  <SCORE>  (55) 
-15.099

>  <name>  (55) 
54

>  <ligand_id>  (55) 
54

>  <original_smiles>  (55) 
[H]c1c([H])c([H])c2c(c1[H])C([H])([H])C([H])([H])C([H])([H])C2([H])N([H])C(=O)C1([H])N(C(=O)C([H])(N([H])C(=O)C([H])(N([H])C([H])([H])[H])C([H])([H])[H])C(C([H])([H])[H])(C([H])([H])[H])C([H])([H])[H])C([H])([H])c2c([H])c(OC([H])([H])C3([H])C([H])([H])C([H])([H])C4([H])C([H])(N([H])C(=O)N5C([H])([H])C([H])([H])C([H])([H])C([H])(n6nc(-c7c([H])c([H])c(Oc8c([H])c([H])c(F)c([H])c8F)c([H])c7[H])c(C(=O)N([H])[H])c6N([H])[H])C5([H])[H])C([H])([H])C([H])([H])[N+]4([H])C([H])([H])C3([H])C([H])([H])[N+]([H])([H])[H])c([H])c([H])c2C1([H])[H]

>  <smiles>  (55) 
[H]c1c([H])c([H])c2c(c1[H])C([H])([H])C([H])([H])C([H])([H])C2([H])N([H])C(=O)C1([H])N(C(=O)C([H])(N([H])C(=O)C([H])(N([H])C([H])([H])[H])C([H])([H])[H])C(C([H])([H])[H])(C([H])([H])[H])C([H])([H])[H])C([H])([H])c2c([H])c(OC([H])([H])C3([H])C([H])([H])C([H])([H])C4([H])C([H])(N([H])C(=O)N5C([H])([H])C([H])([H])C([H])([H])C([H])(n6nc(-c7c([H])c([H])c(Oc8c([H])c([H])c(F)c([H])c8F)c([H])c7[H])c(C(=O)N([H])[H])c6N([H])[H])C5([H])[H])C([H])([H])C([H])([H])[N+]4([H])C([H])([H])C3([H])C([H])([H])[N+]([H])([H])[H])c([H])c([H])c2C1([H])[H]

$$$$
55:0:0
     RDKit          3D

 98107  0  0  1  0  0  0  0  0999 V2000
  -31.1890  -21.1960   18.6110 C   0  0  0  0  0  2  0  0  0  0  0  0
  -30.0180  -20.2080   18.4790 C   0  0  0  0  0  2  0  0  0  0  0  0
  -31.2280  -21.5990   20.0850 C   0  0  0  0  0  2  0  0  0  0  0  0
  -29.4820  -19.9320   19.9030 C   0  0  0  0  0  3  0  0  0  0  0  0
  -29.8060  -21.3470   20.5870 C   0  0  0  0  0  3  0  0  0  0  0  0
  -30.8560  -14.9160   20.5510 C   0  0  0  0  0  0  0  0  0  0  0  0
  -30.6830  -12.6560   19.5140 C   0  0  0  0  0  2  0  0  0  0  0  0
  -29.7780  -12.7090   18.2630 C   0  0  0  0  0  2  0  0  0  0  0  0
  -28.2960  -12.5540   18.6530 C   0  0  0  0  0  2  0  0  0  0  0  0
  -27.8850  -13.4390   19.8620 C   0  0  0  0  0  3  0  0  0  0  0  0
  -28.9120  -13.3500   21.0110 C   0  0  0  0  0  2  0  0  0  0  0  0
  -30.2240  -13.7020   20.4530 N   0  0  0  0  0  0  0  0  0  0  0  0
  -32.0290  -15.0440   20.1890 O   0  0  0  0  0  0  0  0  0  0  0  0
  -29.9030  -18.2420   21.9280 C   0  0  0  0  0  2  0  0  0  0  0  0
  -30.2880  -16.7480   22.1040 C   0  0  0  0  0  2  0  0  0  0  0  0
  -30.1280  -18.5520   20.4520 C   0  0  0  0  0  3  0  0  0  0  0  0
  -29.6760  -17.1390   19.8680 C   0  0  0  0  0  3  0  0  0  0  0  0
  -30.0890  -16.0390   20.8260 N   0  0  0  0  0  0  0  0  0  0  0  0
  -25.4690  -13.9950   20.5270 C   0  0  0  0  0  0  0  0  0  0  0  0
  -24.4040  -13.2040   20.8590 C   0  0  0  0  0  0  0  0  0  0  0  0
  -24.8890  -11.8600   20.8400 C   0  0  0  0  0  0  0  0  0  0  0  0
  -26.5320  -13.1330   20.3170 N   0  0  0  0  0  0  0  0  0  0  0  0
  -26.1880  -11.8440   20.5710 N   0  0  0  0  0  0  0  0  0  0  0  0
  -24.1800  -10.5850   21.0070 C   0  0  0  0  0  0  0  0  0  0  0  0
  -24.5790   -9.6400   21.9790 C   0  0  0  0  0  3  0  0  0  0  0  0
  -23.8690   -8.4300   22.1350 C   0  0  0  0  0  3  0  0  0  0  0  0
  -22.7460   -8.1570   21.3200 C   0  0  0  0  0  0  0  0  0  0  0  0
  -22.3660   -9.0900   20.3390 C   0  0  0  0  0  3  0  0  0  0  0  0
  -23.0770  -10.2910   20.1810 C   0  0  0  0  0  3  0  0  0  0  0  0
  -22.0120   -6.9970   21.3810 O   0  0  0  0  0  0  0  0  0  0  0  0
  -21.8510   -6.3080   22.5570 C   0  0  0  0  0  0  0  0  0  0  0  0
  -21.2690   -6.9040   23.6960 C   0  0  0  0  0  3  0  0  0  0  0  0
  -21.0610   -6.1390   24.8620 C   0  0  0  0  0  3  0  0  0  0  0  0
  -21.4230   -4.7800   24.8870 C   0  0  0  0  0  0  0  0  0  0  0  0
  -21.9960   -4.1830   23.7510 C   0  0  0  0  0  3  0  0  0  0  0  0
  -22.2070   -4.9440   22.5890 C   0  0  0  0  0  0  0  0  0  0  0  0
  -22.7400   -4.3590   21.4880 F   0  0  0  0  0  0  0  0  0  0  0  0
  -21.2160   -4.0430   26.0030 F   0  0  0  0  0  0  0  0  0  0  0  0
  -22.9910  -13.6560   21.0920 C   0  0  0  0  0  0  0  0  0  0  0  0
  -22.2520  -12.9490   21.9380 N   0  0  0  0  0  0  0  0  0  0  0  0
  -22.5500  -14.6740   20.5580 O   0  0  0  0  0  0  0  0  0  0  0  0
  -22.6220  -12.1270   22.3920 H   0  0  0  0  0  0  0  0  0  0  0  0
  -21.3040  -13.2320   22.1360 H   0  0  0  0  0  0  0  0  0  0  0  0
  -25.6210  -15.3690   20.3670 N   0  0  0  0  0  0  0  0  0  0  0  0
  -24.8540  -16.0160   20.5120 H   0  0  0  0  0  0  0  0  0  0  0  0
  -26.5060  -15.8240   20.1960 H   0  0  0  0  0  0  0  0  0  0  0  0
  -30.0090  -16.8410   18.3740 C   0  0  0  0  0  2  0  0  0  0  0  0
  -29.2060  -17.6420   17.3690 C   0  0  0  0  0  0  0  0  0  0  0  0
  -29.7670  -17.9300   16.1840 N   0  0  0  0  0  4  0  0  0  0  0  0
  -27.9350  -18.0120   17.5980 N   0  0  0  0  0  0  0  0  0  0  0  0
  -30.7080  -17.6250   15.9710 H   0  0  0  0  0  0  0  0  0  0  0  0
  -29.2930  -18.4340   15.4480 H   0  0  0  0  0  0  0  0  0  0  0  0
  -27.4790  -17.7890   18.4700 H   0  0  0  0  0  0  0  0  0  0  0  0
  -27.3780  -18.5170   16.9240 H   0  0  0  0  0  0  0  0  0  0  0  0
  -28.8450  -22.5790   20.1860 C   0  0  0  0  0  2  0  0  0  0  0  0
  -29.2220  -24.1020   20.5270 C   0  0  0  0  0  3  0  0  0  0  0  0
  -28.1760  -25.2180   20.0840 C   0  0  0  0  0  3  0  0  0  0  0  0
  -28.4150  -26.6670   20.3220 O   0  0  0  0  0  0  0  0  0  0  0  0
  -24.6470  -32.0550   23.3080 C   0  0  0  0  0  0  0  0  0  0  0  0
  -27.3020  -27.5260   20.2480 C   0  0  0  0  0  0  0  0  0  0  0  0
  -23.4600  -30.6520   21.6620 C   0  0  0  0  0  3  0  0  0  0  0  0
  -24.9270  -29.1250   20.2320 C   0  0  0  0  0  0  0  0  0  0  0  0
  -25.9980  -30.9920   21.4880 C   0  0  0  0  0  2  0  0  0  0  0  0
  -26.0910  -29.6170   20.8360 C   0  0  0  0  0  0  0  0  0  0  0  0
  -27.2810  -28.8290   20.8360 C   0  0  0  0  0  3  0  0  0  0  0  0
  -26.1140  -27.0970   19.6060 C   0  0  0  0  0  3  0  0  0  0  0  0
  -24.9410  -27.8710   19.6080 C   0  0  0  0  0  3  0  0  0  0  0  0
  -23.6840  -29.9880   20.2800 C   0  0  0  0  0  2  0  0  0  0  0  0
  -24.7210  -31.2510   22.2090 N   0  0  0  0  0  0  0  0  0  0  0  0
  -23.5600  -32.3210   23.8410 O   0  0  0  0  0  0  0  0  0  0  0  0
  -22.8060  -29.6230   22.6160 C   0  0  0  0  0  0  0  0  0  0  0  0
  -21.4880  -29.4110   22.4650 N   0  0  0  0  0  0  0  0  0  0  0  0
  -23.4860  -29.0190   23.4510 O   0  0  0  0  0  0  0  0  0  0  0  0
  -20.9970  -29.9520   21.7670 H   0  0  0  0  0  0  0  0  0  0  0  0
  -18.1320  -28.1380   22.9160 C   0  0  0  0  0  0  0  0  0  0  0  0
  -20.6780  -28.4600   23.2290 C   0  0  0  0  0  3  0  0  0  0  0  0
  -20.8230  -27.0260   22.6690 C   0  0  0  0  0  2  0  0  0  0  0  0
  -19.7480  -26.6680   21.6380 C   0  0  0  0  0  2  0  0  0  0  0  0
  -18.3520  -26.7860   22.2550 C   0  0  0  0  0  2  0  0  0  0  0  0
  -19.2240  -28.9290   23.3590 C   0  0  0  0  0  0  0  0  0  0  0  0
  -18.9660  -30.1920   23.9360 C   0  0  0  0  0  3  0  0  0  0  0  0
  -17.6470  -30.6640   24.0720 C   0  0  0  0  0  3  0  0  0  0  0  0
  -16.5680  -29.8700   23.6450 C   0  0  0  0  0  3  0  0  0  0  0  0
  -16.8120  -28.6080   23.0740 C   0  0  0  0  0  3  0  0  0  0  0  0
  -25.9240  -32.6990   23.9340 C   0  0  0  0  0  3  0  0  0  0  0  0
  -25.6140  -34.1070   24.2220 N   0  0  0  0  0  0  0  0  0  0  0  0
  -25.9270  -35.1350   23.4230 C   0  0  0  0  0  0  0  0  0  0  0  0
  -26.5790  -34.9990   22.3840 O   0  0  0  0  0  0  0  0  0  0  0  0
  -25.0360  -34.2860   25.0300 H   0  0  0  0  0  0  0  0  0  0  0  0
  -24.1710  -36.8990   23.0590 C   0  0  0  0  0  1  0  0  0  0  0  0
  -25.4430  -36.5360   23.8420 C   0  0  0  0  0  3  0  0  0  0  0  0
  -27.5920  -37.4750   24.5690 C   0  0  0  0  0  1  0  0  0  0  0  0
  -26.4610  -37.5930   23.6530 N   0  0  0  0  0  0  0  0  0  0  0  0
  -26.0500  -38.5140   23.7720 H   0  0  0  0  0  0  0  0  0  0  0  0
  -26.4150  -31.9610   25.2390 C   0  0  1  0  0  0  0  0  0  0  0  0
  -25.2970  -31.7280   26.2800 C   0  0  0  0  0  1  0  0  0  0  0  0
  -27.0280  -30.5830   24.8910 C   0  0  0  0  0  1  0  0  0  0  0  0
  -27.5350  -32.7850   25.9160 C   0  0  0  0  0  1  0  0  0  0  0  0
  1  3  1  0
  2  1  1  0
  3  5  1  0
  4  2  1  0
  4 16  1  0
  4  5  1  0
  5 55  1  0
  6 18  1  0
  7 12  1  0
  8  9  1  0
  8  7  1  0
 10  9  1  0
 10 22  1  0
 10 11  1  0
 12  6  1  0
 12 11  1  0
 13  6  2  0
 14 15  1  0
 16 14  1  0
 17 47  1  0
 17 16  1  0
 17 18  1  0
 18 15  1  0
 19 20  2  0
 20 39  1  0
 21 20  1  0
 21 24  1  0
 22 19  1  0
 22 23  1  0
 23 21  2  0
 24 25  1  0
 25 26  2  0
 27 30  1  0
 27 26  1  0
 28 27  2  0
 29 28  1  0
 29 24  2  0
 30 31  1  0
 31 36  2  0
 31 32  1  0
 32 33  2  0
 33 34  1  0
 34 38  1  0
 35 34  2  0
 36 35  1  0
 37 36  1  0
 39 40  1  0
 40 43  1  0
 40 42  1  0
 41 39  2  0
 44 45  1  0
 44 19  1  0
 46 44  1  0
 48 50  1  0
 48 47  1  0
 49 48  2  0
 50 53  1  0
 51 49  1  0
 52 49  1  0
 54 50  1  0
 55 56  1  0
 57 58  1  0
 57 56  2  0
 59 70  2  0
 60 58  1  0
 60 65  1  0
 61 69  1  0
 61 71  1  0
 62 68  1  0
 62 64  1  0
 63 69  1  0
 64 65  2  0
 64 63  1  0
 66 67  1  0
 66 60  2  0
 67 62  2  0
 68 61  1  0
 69 59  1  0
 71 73  2  0
 72 71  1  0
 74 72  1  0
 75 84  2  0
 75 80  1  0
 76 72  1  0
 76 80  1  0
 77 76  1  0
 78 79  1  0
 78 77  1  0
 79 75  1  0
 80 81  2  0
 81 82  1  0
 83 82  2  0
 84 83  1  0
 85 59  1  0
 85 86  1  0
 85 95  1  0
 86 89  1  0
 87 91  1  0
 87 86  1  0
 88 87  2  0
 91 90  1  0
 93 94  1  0
 93 91  1  0
 93 92  1  0
 95 98  1  1
 95 96  1  0
 97 95  1  0
M  ISO  4   6 100  18 100  57 101  58 101
M  END
>  <TORSDO>  (56) 
F 21

>  <SCORE>  (56) 
-12.377

>  <name>  (56) 
55

>  <ligand_id>  (56) 
55

>  <original_smiles>  (56) 
[H]c1c([H])c([H])c2c(c1[H])C([H])([H])C([H])([H])C([H])([H])C2([H])N([H])C(=O)C1([H])N(C(=O)C([H])(N([H])C(=O)C([H])(N([H])C([H])([H])[H])C([H])([H])[H])C(C([H])([H])[H])(C([H])([H])[H])C([H])([H])[H])C([H])([H])c2c([H])c(OC([H])([H])C([H])([H])C([H])([H])C3([H])C([H])([H])C([H])([H])C([H])([H])C3([H])C3([H])C([H])([H])C([H])([H])N(C(=O)N4C([H])([H])C([H])([H])C([H])([H])C([H])(n5nc(-c6c([H])c([H])c(Oc7c([H])c([H])c(F)c([H])c7F)c([H])c6[H])c(C(=O)N([H])[H])c5N([H])[H])C4([H])[H])C3([H])C([H])([H])C(N([H])[H])=[N+]([H])[H])c([H])c([H])c2C1([H])[H]

>  <smiles>  (56) 
[H]c1c([H])c([H])c2c(c1[H])C([H])([H])C([H])([H])C([H])([H])C2([H])N([H])C(=O)C1([H])N(C(=O)C([H])(N([H])C(=O)C([H])(N([H])C([H])([H])[H])C([H])([H])[H])C(C([H])([H])[H])(C([H])([H])[H])C([H])([H])[H])C([H])([H])c2c([H])c(OC([H])([H])C([H])([H])C([H])([H])C3([H])C([H])([H])C([H])([H])C([H])([H])C3([H])C3([H])C([H])([H])C([H])([H])N(C(=O)N4C([H])([H])C([H])([H])C([H])([H])C([H])(n5nc(-c6c([H])c([H])c(Oc7c([H])c([H])c(F)c([H])c7F)c([H])c6[H])c(C(=O)N([H])[H])c5N([H])[H])C4([H])[H])C3([H])C([H])([H])C(N([H])[H])=[N+]([H])[H])c([H])c([H])c2C1([H])[H]

$$$$
56:0:0
     RDKit          3D

 94103  0  0  1  0  0  0  0  0999 V2000
  -27.7210  -23.5740   19.8820 C   0  0  0  0  0  2  0  0  0  0  0  0
  -30.1940  -23.9390   19.9140 C   0  0  0  0  0  2  0  0  0  0  0  0
  -27.9270  -22.0460   19.7280 C   0  0  0  0  0  2  0  0  0  0  0  0
  -30.4580  -22.4200   19.7440 C   0  0  0  0  0  2  0  0  0  0  0  0
  -28.8790  -24.3460   19.2180 C   0  0  0  0  0  3  0  0  0  0  0  0
  -29.2970  -21.5170   20.2440 C   0  0  0  0  0  3  0  0  0  0  0  0
  -29.4850  -20.1000   19.8050 N   0  0  0  0  0  4  0  0  0  0  0  0
  -30.1210  -20.0610   19.0250 H   0  0  0  0  0  0  0  0  0  0  0  0
  -28.5870  -19.8080   19.4530 H   0  0  0  0  0  0  0  0  0  0  0  0
  -31.5310  -17.3840   21.5170 C   0  0  0  0  0  2  0  0  0  0  0  0
  -31.3760  -18.8190   20.9550 C   0  0  0  0  0  2  0  0  0  0  0  0
  -29.3320  -17.6680   20.4910 C   0  0  0  0  0  2  0  0  0  0  0  0
  -30.1300  -16.7420   21.4270 C   0  0  0  0  0  3  0  0  0  0  0  0
  -29.8620  -19.0770   20.8220 C   0  0  0  0  0  3  0  0  0  0  0  0
  -30.6470  -14.4610   20.2630 C   0  0  0  0  0  0  0  0  0  0  0  0
  -30.3220  -12.3620   18.9860 C   0  0  0  0  0  2  0  0  0  0  0  0
  -29.3200  -12.6040   17.8360 C   0  0  0  0  0  2  0  0  0  0  0  0
  -27.8620  -12.4590   18.3180 C   0  0  0  0  0  2  0  0  0  0  0  0
  -27.5870  -13.2460   19.6260 C   0  0  0  0  0  3  0  0  0  0  0  0
  -28.6780  -12.9390   20.6750 C   0  0  0  0  0  2  0  0  0  0  0  0
  -29.9890  -13.2820   20.0860 N   0  0  0  0  0  0  0  0  0  0  0  0
  -31.6820  -14.7530   19.6570 O   0  0  0  0  0  0  0  0  0  0  0  0
  -30.0140  -15.3050   21.1020 N   0  0  0  0  0  0  0  0  0  0  0  0
  -29.2190  -14.8610   21.5380 H   0  0  0  0  0  0  0  0  0  0  0  0
  -25.2140  -13.8680   20.4150 C   0  0  0  0  0  0  0  0  0  0  0  0
  -24.1540  -13.1010   20.8200 C   0  0  0  0  0  0  0  0  0  0  0  0
  -24.6050  -11.7470   20.7670 C   0  0  0  0  0  0  0  0  0  0  0  0
  -26.2450  -12.9810   20.1450 N   0  0  0  0  0  0  0  0  0  0  0  0
  -25.8830  -11.7000   20.4120 N   0  0  0  0  0  0  0  0  0  0  0  0
  -23.8790  -10.4890   20.9790 C   0  0  0  0  0  0  0  0  0  0  0  0
  -24.3420   -9.5170   21.8930 C   0  0  0  0  0  3  0  0  0  0  0  0
  -23.6200   -8.3200   22.0920 C   0  0  0  0  0  3  0  0  0  0  0  0
  -22.4210   -8.0890   21.3780 C   0  0  0  0  0  0  0  0  0  0  0  0
  -21.9770   -9.0500   20.4520 C   0  0  0  0  0  3  0  0  0  0  0  0
  -22.7000  -10.2370   20.2510 C   0  0  0  0  0  3  0  0  0  0  0  0
  -21.6660   -6.9460   21.4880 O   0  0  0  0  0  0  0  0  0  0  0  0
  -21.6530   -6.1990   22.6390 C   0  0  0  0  0  0  0  0  0  0  0  0
  -21.2760   -6.7520   23.8820 C   0  0  0  0  0  3  0  0  0  0  0  0
  -21.2120   -5.9310   25.0260 C   0  0  0  0  0  3  0  0  0  0  0  0
  -21.5130   -4.5590   24.9280 C   0  0  0  0  0  0  0  0  0  0  0  0
  -21.8810   -4.0060   23.6890 C   0  0  0  0  0  3  0  0  0  0  0  0
  -21.9490   -4.8240   22.5470 C   0  0  0  0  0  0  0  0  0  0  0  0
  -22.2850   -4.2830   21.3510 F   0  0  0  0  0  0  0  0  0  0  0  0
  -21.4440   -3.7690   26.0230 F   0  0  0  0  0  0  0  0  0  0  0  0
  -22.7720  -13.5870   21.1480 C   0  0  0  0  0  0  0  0  0  0  0  0
  -22.0700  -12.8880   22.0350 N   0  0  0  0  0  0  0  0  0  0  0  0
  -22.3210  -14.6180   20.6520 O   0  0  0  0  0  0  0  0  0  0  0  0
  -22.4460  -12.0540   22.4610 H   0  0  0  0  0  0  0  0  0  0  0  0
  -21.1420  -13.1930   22.2930 H   0  0  0  0  0  0  0  0  0  0  0  0
  -25.3830  -15.2390   20.2380 N   0  0  0  0  0  0  0  0  0  0  0  0
  -24.6260  -15.9000   20.3710 H   0  0  0  0  0  0  0  0  0  0  0  0
  -26.2280  -15.6680   19.8820 H   0  0  0  0  0  0  0  0  0  0  0  0
  -28.6740  -25.8760   18.9910 C   0  0  0  0  0  2  0  0  0  0  0  0
  -28.3540  -26.6910   20.1320 O   0  0  0  0  0  0  0  0  0  0  0  0
  -24.5540  -31.8760   23.2270 C   0  0  0  0  0  0  0  0  0  0  0  0
  -27.1780  -27.4220   20.1180 C   0  0  0  0  0  0  0  0  0  0  0  0
  -23.3410  -30.4830   21.5810 C   0  0  0  0  0  3  0  0  0  0  0  0
  -24.7850  -28.9470   20.1480 C   0  0  0  0  0  0  0  0  0  0  0  0
  -25.8710  -30.8280   21.3850 C   0  0  0  0  0  2  0  0  0  0  0  0
  -25.9470  -29.4580   20.7410 C   0  0  0  0  0  0  0  0  0  0  0  0
  -27.1410  -28.6980   20.7340 C   0  0  0  0  0  3  0  0  0  0  0  0
  -25.9880  -26.9230   19.5390 C   0  0  0  0  0  3  0  0  0  0  0  0
  -24.8010  -27.6780   19.5470 C   0  0  0  0  0  3  0  0  0  0  0  0
  -23.5450  -29.8100   20.1980 C   0  0  0  0  0  2  0  0  0  0  0  0
  -24.6070  -31.0780   22.1220 N   0  0  0  0  0  0  0  0  0  0  0  0
  -23.4750  -32.1480   23.7700 O   0  0  0  0  0  0  0  0  0  0  0  0
  -22.6910  -29.4600   22.5400 C   0  0  0  0  0  0  0  0  0  0  0  0
  -21.3650  -29.2800   22.4140 N   0  0  0  0  0  0  0  0  0  0  0  0
  -23.3750  -28.8310   23.3520 O   0  0  0  0  0  0  0  0  0  0  0  0
  -20.8770  -29.8400   21.7290 H   0  0  0  0  0  0  0  0  0  0  0  0
  -17.9890  -28.0860   22.9010 C   0  0  0  0  0  0  0  0  0  0  0  0
  -20.5460  -28.3420   23.1810 C   0  0  0  0  0  3  0  0  0  0  0  0
  -20.6500  -26.9120   22.6050 C   0  0  0  0  0  2  0  0  0  0  0  0
  -19.5530  -26.5890   21.5870 C   0  0  0  0  0  2  0  0  0  0  0  0
  -18.1680  -26.7370   22.2230 C   0  0  0  0  0  2  0  0  0  0  0  0
  -19.1070  -28.8460   23.3360 C   0  0  0  0  0  0  0  0  0  0  0  0
  -18.8870  -30.1090   23.9260 C   0  0  0  0  0  3  0  0  0  0  0  0
  -17.5820  -30.6120   24.0880 C   0  0  0  0  0  3  0  0  0  0  0  0
  -16.4790  -29.8470   23.6720 C   0  0  0  0  0  3  0  0  0  0  0  0
  -16.6830  -28.5860   23.0850 C   0  0  0  0  0  3  0  0  0  0  0  0
  -25.8450  -32.5000   23.8450 C   0  0  0  0  0  3  0  0  0  0  0  0
  -26.3670  -31.7200   25.1140 C   0  0  1  0  0  0  0  0  0  0  0  0
  -25.2800  -31.4840   26.1870 C   0  0  0  0  0  1  0  0  0  0  0  0
  -26.9400  -30.3420   24.7110 C   0  0  0  0  0  1  0  0  0  0  0  0
  -27.5240  -32.5080   25.7730 C   0  0  0  0  0  1  0  0  0  0  0  0
  -25.5410  -33.8970   24.1830 N   0  0  0  0  0  0  0  0  0  0  0  0
  -25.8700  -34.9520   23.4260 C   0  0  0  0  0  0  0  0  0  0  0  0
  -26.5320  -34.8520   22.3890 O   0  0  0  0  0  0  0  0  0  0  0  0
  -24.9530  -34.0500   24.9900 H   0  0  0  0  0  0  0  0  0  0  0  0
  -24.1360  -36.7440   23.0940 C   0  0  0  0  0  1  0  0  0  0  0  0
  -25.3860  -36.3390   23.8920 C   0  0  0  0  0  3  0  0  0  0  0  0
  -27.5280  -37.2230   24.7040 C   0  0  0  0  0  1  0  0  0  0  0  0
  -26.4160  -37.3930   23.7710 N   0  0  0  0  0  0  0  0  0  0  0  0
  -26.0110  -38.3130   23.9240 H   0  0  0  0  0  0  0  0  0  0  0  0
  3  1  1  0
  3  6  1  0
  4  2  1  0
  4  6  1  0
  5 53  1  0
  5  1  1  0
  5  2  1  0
  6  7  1  0
  8  7  1  0
  9  7  1  0
 11 10  1  0
 12 14  1  0
 12 13  1  0
 13 23  1  0
 13 10  1  0
 14  7  1  0
 14 11  1  0
 15 23  1  0
 16 21  1  0
 17 18  1  0
 17 16  1  0
 19 18  1  0
 19 28  1  0
 19 20  1  0
 21 15  1  0
 21 20  1  0
 22 15  2  0
 23 24  1  0
 25 26  2  0
 26 45  1  0
 27 26  1  0
 27 30  1  0
 28 29  1  0
 28 25  1  0
 29 27  2  0
 30 31  1  0
 31 32  2  0
 33 36  1  0
 33 32  1  0
 34 33  2  0
 35 34  1  0
 35 30  2  0
 36 37  1  0
 37 38  1  0
 38 39  2  0
 40 39  1  0
 40 44  1  0
 41 40  2  0
 42 37  2  0
 42 41  1  0
 43 42  1  0
 45 46  1  0
 46 49  1  0
 46 48  1  0
 47 45  2  0
 50 51  1  0
 50 25  1  0
 52 50  1  0
 53 54  1  0
 55 66  2  0
 56 54  1  0
 56 61  1  0
 57 65  1  0
 57 67  1  0
 58 64  1  0
 58 60  1  0
 59 65  1  0
 60 59  1  0
 61 60  2  0
 62 63  1  0
 62 56  2  0
 63 58  2  0
 64 57  1  0
 65 55  1  0
 67 69  2  0
 68 67  1  0
 70 68  1  0
 71 80  2  0
 71 76  1  0
 72 68  1  0
 72 76  1  0
 73 72  1  0
 74 75  1  0
 74 73  1  0
 75 71  1  0
 76 77  2  0
 77 78  1  0
 79 78  2  0
 80 79  1  0
 81 55  1  0
 81 86  1  0
 81 82  1  0
 82 85  1  1
 82 83  1  0
 84 82  1  0
 86 89  1  0
 87 91  1  0
 87 86  1  0
 88 87  2  0
 91 90  1  0
 93 91  1  0
 93 94  1  0
 93 92  1  0
M  ISO  4  15 100  23 100  53 101  54 101
M  END
>  <TORSDO>  (57) 
F 19

>  <SCORE>  (57) 
-14.356

>  <name>  (57) 
56

>  <ligand_id>  (57) 
56

>  <original_smiles>  (57) 
[H]c1c([H])c([H])c2c(c1[H])C([H])([H])C([H])([H])C([H])([H])C2([H])N([H])C(=O)C1([H])N(C(=O)C([H])(N([H])C(=O)C([H])(N([H])C([H])([H])[H])C([H])([H])[H])C(C([H])([H])[H])(C([H])([H])[H])C([H])([H])[H])C([H])([H])c2c([H])c(OC([H])([H])C3([H])C([H])([H])C([H])([H])C([H])([N+]([H])([H])C4([H])C([H])([H])C([H])([H])C([H])(N([H])C(=O)N5C([H])([H])C([H])([H])C([H])([H])C([H])(n6nc(-c7c([H])c([H])c(Oc8c([H])c([H])c(F)c([H])c8F)c([H])c7[H])c(C(=O)N([H])[H])c6N([H])[H])C5([H])[H])C4([H])[H])C([H])([H])C3([H])[H])c([H])c([H])c2C1([H])[H]

>  <smiles>  (57) 
[H]c1c([H])c([H])c2c(c1[H])C([H])([H])C([H])([H])C([H])([H])C2([H])N([H])C(=O)C1([H])N(C(=O)C([H])(N([H])C(=O)C([H])(N([H])C([H])([H])[H])C([H])([H])[H])C(C([H])([H])[H])(C([H])([H])[H])C([H])([H])[H])C([H])([H])c2c([H])c(OC([H])([H])C3([H])C([H])([H])C([H])([H])C([H])([N+]([H])([H])C4([H])C([H])([H])C([H])([H])C([H])(N([H])C(=O)N5C([H])([H])C([H])([H])C([H])([H])C([H])(n6nc(-c7c([H])c([H])c(Oc8c([H])c([H])c(F)c([H])c8F)c([H])c7[H])c(C(=O)N([H])[H])c6N([H])[H])C5([H])[H])C4([H])[H])C([H])([H])C3([H])[H])c([H])c([H])c2C1([H])[H]

$$$$
57:0:0
     RDKit          3D

 93102  0  0  1  0  0  0  0  0999 V2000
  -30.9590  -21.8830   20.6200 C   0  0  0  0  0  2  0  0  0  0  0  0
  -30.0670  -22.0030   22.9250 C   0  0  0  0  0  2  0  0  0  0  0  0
  -30.5510  -24.2260   21.6860 C   0  0  0  0  0  2  0  0  0  0  0  0
  -28.7760  -23.2830   21.0410 C   0  0  0  0  0  2  0  0  0  0  0  0
  -30.4840  -20.4140   20.5330 C   0  0  0  0  0  2  0  0  0  0  0  0
  -29.5740  -20.5490   22.7950 C   0  0  0  0  0  2  0  0  0  0  0  0
  -29.3840  -24.6730   20.8000 C   0  0  0  0  0  3  0  0  0  0  0  0
  -30.1200  -22.7490   21.5820 C   0  0  1  0  0  0  0  0  0  0  0  0
  -30.4560  -19.7870   21.8780 N   0  0  1  0  0  4  0  0  0  0  0  0
  -31.3830  -19.8850   22.2620 H   0  0  0  0  0  0  0  0  0  0  0  0
  -28.5880  -25.9190   21.2020 C   0  0  0  0  0  2  0  0  0  0  0  0
  -28.5600  -26.8910   20.1580 O   0  0  0  0  0  0  0  0  0  0  0  0
  -24.6730  -31.9630   23.2840 C   0  0  0  0  0  0  0  0  0  0  0  0
  -27.3990  -27.6220   20.1610 C   0  0  0  0  0  0  0  0  0  0  0  0
  -23.4910  -30.5520   21.6280 C   0  0  0  0  0  3  0  0  0  0  0  0
  -24.9740  -29.0560   20.1910 C   0  0  0  0  0  0  0  0  0  0  0  0
  -26.0050  -30.9680   21.4310 C   0  0  0  0  0  2  0  0  0  0  0  0
  -26.1190  -29.6040   20.7830 C   0  0  0  0  0  0  0  0  0  0  0  0
  -27.3380  -28.8930   20.7700 C   0  0  0  0  0  3  0  0  0  0  0  0
  -26.2440  -27.0780   19.5660 C   0  0  0  0  0  3  0  0  0  0  0  0
  -25.0290  -27.7890   19.5810 C   0  0  0  0  0  3  0  0  0  0  0  0
  -23.7110  -29.8850   20.2440 C   0  0  0  0  0  2  0  0  0  0  0  0
  -24.7410  -31.1750   22.1730 N   0  0  0  0  0  0  0  0  0  0  0  0
  -23.5870  -32.2110   23.8270 O   0  0  0  0  0  0  0  0  0  0  0  0
  -22.8600  -29.5120   22.5810 C   0  0  0  0  0  0  0  0  0  0  0  0
  -21.5430  -29.2940   22.4390 N   0  0  0  0  0  0  0  0  0  0  0  0
  -23.5520  -28.9040   23.4020 O   0  0  0  0  0  0  0  0  0  0  0  0
  -21.0450  -29.8380   21.7480 H   0  0  0  0  0  0  0  0  0  0  0  0
  -18.2050  -27.9800   22.8650 C   0  0  0  0  0  0  0  0  0  0  0  0
  -20.7440  -28.3340   23.1990 C   0  0  0  0  0  3  0  0  0  0  0  0
  -20.9130  -26.9030   22.6380 C   0  0  0  0  0  2  0  0  0  0  0  0
  -19.8490  -26.5300   21.6000 C   0  0  0  0  0  2  0  0  0  0  0  0
  -18.4480  -26.6320   22.2080 C   0  0  0  0  0  2  0  0  0  0  0  0
  -19.2840  -28.7860   23.3160 C   0  0  0  0  0  0  0  0  0  0  0  0
  -19.0050  -30.0460   23.8870 C   0  0  0  0  0  3  0  0  0  0  0  0
  -17.6790  -30.5030   24.0140 C   0  0  0  0  0  3  0  0  0  0  0  0
  -16.6140  -29.6940   23.5820 C   0  0  0  0  0  3  0  0  0  0  0  0
  -16.8780  -28.4340   23.0130 C   0  0  0  0  0  3  0  0  0  0  0  0
  -25.9480  -32.6110   23.9070 C   0  0  0  0  0  3  0  0  0  0  0  0
  -26.4680  -31.8510   25.1890 C   0  0  1  0  0  0  0  0  0  0  0  0
  -25.3720  -31.5980   26.2490 C   0  0  0  0  0  1  0  0  0  0  0  0
  -27.0750  -30.4820   24.8010 C   0  0  0  0  0  1  0  0  0  0  0  0
  -27.6030  -32.6630   25.8560 C   0  0  0  0  0  1  0  0  0  0  0  0
  -25.6240  -34.0070   24.2270 N   0  0  0  0  0  0  0  0  0  0  0  0
  -25.9550  -35.0570   23.4630 C   0  0  0  0  0  0  0  0  0  0  0  0
  -26.6370  -34.9540   22.4390 O   0  0  0  0  0  0  0  0  0  0  0  0
  -25.0210  -34.1620   25.0220 H   0  0  0  0  0  0  0  0  0  0  0  0
  -24.2190  -36.8330   23.0710 C   0  0  0  0  0  1  0  0  0  0  0  0
  -25.4480  -36.4440   23.9050 C   0  0  0  0  0  3  0  0  0  0  0  0
  -27.5580  -37.3520   24.7720 C   0  0  0  0  0  1  0  0  0  0  0  0
  -26.4740  -37.5040   23.8060 N   0  0  0  0  0  0  0  0  0  0  0  0
  -26.0590  -38.4220   23.9380 H   0  0  0  0  0  0  0  0  0  0  0  0
  -30.1820  -18.3230   21.8740 C   0  0  0  0  0  2  0  0  0  0  0  0
  -31.3810  -17.5120   21.3340 C   0  0  0  0  0  2  0  0  0  0  0  0
  -31.4810  -16.0650   21.8640 C   0  0  0  0  0  2  0  0  0  0  0  0
  -30.8420  -14.4220   20.1120 C   0  0  0  0  0  0  0  0  0  0  0  0
  -30.3780  -12.3700   18.8230 C   0  0  0  0  0  2  0  0  0  0  0  0
  -29.3540  -12.6010   17.6980 C   0  0  0  0  0  2  0  0  0  0  0  0
  -27.9180  -12.4390   18.2300 C   0  0  0  0  0  2  0  0  0  0  0  0
  -27.6690  -13.2590   19.5230 C   0  0  0  0  0  3  0  0  0  0  0  0
  -28.7910  -13.0170   20.5550 C   0  0  0  0  0  2  0  0  0  0  0  0
  -30.0880  -13.3100   19.9160 N   0  0  0  0  0  0  0  0  0  0  0  0
  -31.7860  -14.7390   19.3820 O   0  0  0  0  0  0  0  0  0  0  0  0
  -30.5710  -15.1080   21.2300 N   0  0  0  0  0  0  0  0  0  0  0  0
  -29.7940  -14.7700   21.7810 H   0  0  0  0  0  0  0  0  0  0  0  0
  -25.3250  -13.8520   20.4120 C   0  0  0  0  0  0  0  0  0  0  0  0
  -24.2810  -13.0710   20.8320 C   0  0  0  0  0  0  0  0  0  0  0  0
  -24.7340  -11.7200   20.7290 C   0  0  0  0  0  0  0  0  0  0  0  0
  -26.3490  -12.9750   20.0850 N   0  0  0  0  0  0  0  0  0  0  0  0
  -25.9990  -11.6870   20.3300 N   0  0  0  0  0  0  0  0  0  0  0  0
  -24.0180  -10.4540   20.9330 C   0  0  0  0  0  0  0  0  0  0  0  0
  -24.4650   -9.4940   21.8670 C   0  0  0  0  0  3  0  0  0  0  0  0
  -23.7500   -8.2930   22.0580 C   0  0  0  0  0  3  0  0  0  0  0  0
  -22.5720   -8.0420   21.3140 C   0  0  0  0  0  0  0  0  0  0  0  0
  -22.1420   -8.9910   20.3700 C   0  0  0  0  0  3  0  0  0  0  0  0
  -22.8590  -10.1840   20.1770 C   0  0  0  0  0  3  0  0  0  0  0  0
  -21.8270   -6.8920   21.4140 O   0  0  0  0  0  0  0  0  0  0  0  0
  -21.7460   -6.1870   22.5880 C   0  0  0  0  0  0  0  0  0  0  0  0
  -21.2510   -6.7690   23.7750 C   0  0  0  0  0  3  0  0  0  0  0  0
  -21.1200   -5.9880   24.9420 C   0  0  0  0  0  3  0  0  0  0  0  0
  -21.4720   -4.6260   24.9210 C   0  0  0  0  0  0  0  0  0  0  0  0
  -21.9610   -4.0430   23.7380 C   0  0  0  0  0  3  0  0  0  0  0  0
  -22.0940   -4.8200   22.5740 C   0  0  0  0  0  0  0  0  0  0  0  0
  -22.5440   -4.2490   21.4310 F   0  0  0  0  0  0  0  0  0  0  0  0
  -21.3400   -3.8730   26.0380 F   0  0  0  0  0  0  0  0  0  0  0  0
  -22.9090  -13.5430   21.2160 C   0  0  0  0  0  0  0  0  0  0  0  0
  -22.2380  -12.8180   22.1050 N   0  0  0  0  0  0  0  0  0  0  0  0
  -22.4410  -14.5880   20.7660 O   0  0  0  0  0  0  0  0  0  0  0  0
  -22.6300  -11.9720   22.4910 H   0  0  0  0  0  0  0  0  0  0  0  0
  -21.3200  -13.1140   22.4040 H   0  0  0  0  0  0  0  0  0  0  0  0
  -25.4840  -15.2270   20.2630 N   0  0  0  0  0  0  0  0  0  0  0  0
  -24.7320  -15.8830   20.4420 H   0  0  0  0  0  0  0  0  0  0  0  0
  -26.3170  -15.6700   19.8950 H   0  0  0  0  0  0  0  0  0  0  0  0
  8  4  1  6
  5  1  1  0
  5  9  1  0
  6  2  1  0
  7  4  1  0
  7 11  1  0
  7  3  1  0
  8  1  1  0
  8  3  1  0
  8  2  1  0
  9 10  1  1
  9  6  1  0
 12 14  1  0
 12 11  1  0
 13 24  2  0
 14 19  1  0
 15 23  1  0
 15 25  1  0
 16 22  1  0
 16 18  1  0
 17 23  1  0
 18 17  1  0
 19 18  2  0
 20 21  1  0
 20 14  2  0
 21 16  2  0
 22 15  1  0
 23 13  1  0
 25 27  2  0
 26 25  1  0
 28 26  1  0
 29 38  2  0
 29 34  1  0
 30 26  1  0
 30 34  1  0
 31 30  1  0
 32 33  1  0
 32 31  1  0
 33 29  1  0
 34 35  2  0
 35 36  1  0
 37 36  2  0
 38 37  1  0
 39 13  1  0
 39 44  1  0
 39 40  1  0
 40 43  1  1
 40 41  1  0
 42 40  1  0
 44 47  1  0
 45 49  1  0
 45 44  1  0
 46 45  2  0
 49 48  1  0
 51 49  1  0
 51 52  1  0
 51 50  1  0
 53  9  1  0
 54 55  1  0
 54 53  1  0
 56 64  1  0
 57 62  1  0
 58 59  1  0
 58 57  1  0
 60 59  1  0
 60 69  1  0
 60 61  1  0
 62 56  1  0
 62 61  1  0
 63 56  2  0
 64 65  1  0
 64 55  1  0
 66 67  2  0
 67 86  1  0
 68 67  1  0
 68 71  1  0
 69 70  1  0
 69 66  1  0
 70 68  2  0
 71 72  1  0
 72 73  2  0
 74 77  1  0
 74 73  1  0
 75 74  2  0
 76 75  1  0
 76 71  2  0
 77 78  1  0
 78 79  1  0
 79 80  2  0
 81 80  1  0
 81 85  1  0
 82 81  2  0
 83 78  2  0
 83 82  1  0
 84 83  1  0
 86 87  1  0
 87 90  1  0
 87 89  1  0
 88 86  2  0
 91 66  1  0
 91 92  1  0
 93 91  1  0
M  ISO  4  11 101  12 101  56 100  64 100
M  END
>  <TORSDO>  (58) 
F 20

>  <SCORE>  (58) 
-12.658

>  <name>  (58) 
57

>  <ligand_id>  (58) 
57

>  <original_smiles>  (58) 
[H]c1c([H])c([H])c2c(c1[H])C([H])([H])C([H])([H])C([H])([H])C2([H])N([H])C(=O)C1([H])N(C(=O)C([H])(N([H])C(=O)C([H])(N([H])C([H])([H])[H])C([H])([H])[H])C(C([H])([H])[H])(C([H])([H])[H])C([H])([H])[H])C([H])([H])c2c([H])c(OC([H])([H])C3([H])C([H])([H])C4(C3([H])[H])C([H])([H])C([H])([H])[N+]([H])(C([H])([H])C([H])([H])C([H])([H])N([H])C(=O)N3C([H])([H])C([H])([H])C([H])([H])C([H])(n5nc(-c6c([H])c([H])c(Oc7c([H])c([H])c(F)c([H])c7F)c([H])c6[H])c(C(=O)N([H])[H])c5N([H])[H])C3([H])[H])C([H])([H])C4([H])[H])c([H])c([H])c2C1([H])[H]

>  <smiles>  (58) 
[H]c1c([H])c([H])c2c(c1[H])C([H])([H])C([H])([H])C([H])([H])C2([H])N([H])C(=O)C1([H])N(C(=O)C([H])(N([H])C(=O)C([H])(N([H])C([H])([H])[H])C([H])([H])[H])C(C([H])([H])[H])(C([H])([H])[H])C([H])([H])[H])C([H])([H])c2c([H])c(OC([H])([H])C3([H])C([H])([H])C4(C3([H])[H])C([H])([H])C([H])([H])[N+]([H])(C([H])([H])C([H])([H])C([H])([H])N([H])C(=O)N3C([H])([H])C([H])([H])C([H])([H])C([H])(n5nc(-c6c([H])c([H])c(Oc7c([H])c([H])c(F)c([H])c7F)c([H])c6[H])c(C(=O)N([H])[H])c5N([H])[H])C3([H])[H])C([H])([H])C4([H])[H])c([H])c([H])c2C1([H])[H]

$$$$
58:0:0
     RDKit          3D

 99107  0  0  1  0  0  0  0  0999 V2000
  -29.4040  -20.2980   17.1580 C   0  0  0  0  0  2  0  0  0  0  0  0
  -29.8920  -21.7020   17.5450 C   0  0  0  0  0  2  0  0  0  0  0  0
  -30.5640  -19.2880   17.0950 C   0  0  0  0  0  2  0  0  0  0  0  0
  -31.8280  -20.6780   18.8090 C   0  0  0  0  0  2  0  0  0  0  0  0
  -30.6650  -21.7060   18.8860 C   0  0  0  0  0  3  0  0  0  0  0  0
  -31.3800  -19.2520   18.4020 C   0  0  0  0  0  3  0  0  0  0  0  0
  -31.0410  -17.6080   20.0460 C   0  0  0  0  0  3  0  0  0  0  0  0
  -30.5780  -18.6320   19.4520 N   0  0  0  0  0  0  0  0  0  0  0  0
  -30.2480  -16.8720   21.1250 C   0  0  0  0  0  3  0  0  0  0  0  0
  -30.7590  -14.4480   20.3800 C   0  0  0  0  0  0  0  0  0  0  0  0
  -30.4560  -12.3340   19.1500 C   0  0  0  0  0  2  0  0  0  0  0  0
  -29.4910  -12.5870   17.9720 C   0  0  0  0  0  2  0  0  0  0  0  0
  -28.0220  -12.4390   18.4170 C   0  0  0  0  0  2  0  0  0  0  0  0
  -27.7080  -13.2510   19.7020 C   0  0  0  0  0  3  0  0  0  0  0  0
  -28.7700  -12.9720   20.7890 C   0  0  0  0  0  2  0  0  0  0  0  0
  -30.0900  -13.2800   20.2120 N   0  0  0  0  0  0  0  0  0  0  0  0
  -31.9190  -14.6260   19.9970 O   0  0  0  0  0  0  0  0  0  0  0  0
  -29.9810  -15.4490   20.8290 N   0  0  0  0  0  0  0  0  0  0  0  0
  -29.0180  -15.1830   20.9560 H   0  0  0  0  0  0  0  0  0  0  0  0
  -25.3100  -13.8870   20.3990 C   0  0  0  0  0  0  0  0  0  0  0  0
  -24.2380  -13.1240   20.7760 C   0  0  0  0  0  0  0  0  0  0  0  0
  -24.6910  -11.7670   20.7670 C   0  0  0  0  0  0  0  0  0  0  0  0
  -26.3530  -12.9970   20.1880 N   0  0  0  0  0  0  0  0  0  0  0  0
  -25.9840  -11.7180   20.4670 N   0  0  0  0  0  0  0  0  0  0  0  0
  -23.9580  -10.5130   20.9720 C   0  0  0  0  0  0  0  0  0  0  0  0
  -24.3900   -9.5490   21.9140 C   0  0  0  0  0  3  0  0  0  0  0  0
  -23.6550   -8.3570   22.1040 C   0  0  0  0  0  3  0  0  0  0  0  0
  -22.4790   -8.1190   21.3560 C   0  0  0  0  0  0  0  0  0  0  0  0
  -22.0690   -9.0700   20.4060 C   0  0  0  0  0  3  0  0  0  0  0  0
  -22.8020  -10.2530   20.2100 C   0  0  0  0  0  3  0  0  0  0  0  0
  -21.7130   -6.9840   21.4600 O   0  0  0  0  0  0  0  0  0  0  0  0
  -21.6730   -6.2500   22.6170 C   0  0  0  0  0  0  0  0  0  0  0  0
  -21.2690   -6.8160   23.8460 C   0  0  0  0  0  3  0  0  0  0  0  0
  -21.1720   -6.0110   24.9980 C   0  0  0  0  0  3  0  0  0  0  0  0
  -21.4650   -4.6350   24.9200 C   0  0  0  0  0  0  0  0  0  0  0  0
  -21.8680   -4.0680   23.6980 C   0  0  0  0  0  3  0  0  0  0  0  0
  -21.9670   -4.8720   22.5500 C   0  0  0  0  0  0  0  0  0  0  0  0
  -22.3320   -4.3160   21.3690 F   0  0  0  0  0  0  0  0  0  0  0  0
  -21.3610   -3.8560   26.0220 F   0  0  0  0  0  0  0  0  0  0  0  0
  -22.8410  -13.6120   21.0380 C   0  0  0  0  0  0  0  0  0  0  0  0
  -22.1140  -12.9290   21.9140 N   0  0  0  0  0  0  0  0  0  0  0  0
  -22.4090  -14.6360   20.5100 O   0  0  0  0  0  0  0  0  0  0  0  0
  -22.4750  -12.1000   22.3620 H   0  0  0  0  0  0  0  0  0  0  0  0
  -21.1780  -13.2330   22.1370 H   0  0  0  0  0  0  0  0  0  0  0  0
  -25.4820  -15.2550   20.2020 N   0  0  0  0  0  0  0  0  0  0  0  0
  -24.7160  -15.9140   20.2910 H   0  0  0  0  0  0  0  0  0  0  0  0
  -26.3300  -15.6930   19.8680 H   0  0  0  0  0  0  0  0  0  0  0  0
  -30.8360  -17.0520   22.5470 C   0  0  0  0  0  2  0  0  0  0  0  0
  -30.9140  -18.4620   22.9830 N   0  0  0  0  0  4  0  0  0  0  0  0
  -31.4680  -19.0090   22.3510 H   0  0  0  0  0  0  0  0  0  0  0  0
  -31.3370  -18.5210   23.8930 H   0  0  0  0  0  0  0  0  0  0  0  0
  -29.9990  -18.8770   23.0440 H   0  0  0  0  0  0  0  0  0  0  0  0
  -31.1630  -23.1350   19.2400 C   0  0  0  0  0  2  0  0  0  0  0  0
  -30.0340  -24.0630   19.5030 N   0  0  0  0  0  4  0  0  0  0  0  0
  -29.8850  -24.1310   20.4980 H   0  0  0  0  0  0  0  0  0  0  0  0
  -29.2120  -23.6390   19.1080 H   0  0  0  0  0  0  0  0  0  0  0  0
  -30.1690  -25.4280   18.9290 C   0  0  0  0  0  2  0  0  0  0  0  0
  -28.8140  -26.1580   18.8230 C   0  0  0  0  0  2  0  0  0  0  0  0
  -28.4350  -26.7370   20.0760 O   0  0  0  0  0  0  0  0  0  0  0  0
  -24.6010  -31.8510   23.2190 C   0  0  0  0  0  0  0  0  0  0  0  0
  -27.2450  -27.4320   20.0930 C   0  0  0  0  0  0  0  0  0  0  0  0
  -23.3870  -30.4530   21.5800 C   0  0  0  0  0  3  0  0  0  0  0  0
  -24.8330  -28.9180   20.1450 C   0  0  0  0  0  0  0  0  0  0  0  0
  -25.9120  -30.8090   21.3760 C   0  0  0  0  0  2  0  0  0  0  0  0
  -25.9930  -29.4400   20.7340 C   0  0  0  0  0  0  0  0  0  0  0  0
  -27.1950  -28.7000   20.7160 C   0  0  0  0  0  3  0  0  0  0  0  0
  -26.0600  -26.9090   19.5260 C   0  0  0  0  0  3  0  0  0  0  0  0
  -24.8600  -27.6460   19.5500 C   0  0  0  0  0  3  0  0  0  0  0  0
  -23.5890  -29.7760   20.1980 C   0  0  0  0  0  2  0  0  0  0  0  0
  -24.6520  -31.0540   22.1150 N   0  0  0  0  0  0  0  0  0  0  0  0
  -23.5230  -32.1260   23.7620 O   0  0  0  0  0  0  0  0  0  0  0  0
  -22.7400  -29.4290   22.5400 C   0  0  0  0  0  0  0  0  0  0  0  0
  -21.4130  -29.2550   22.4200 N   0  0  0  0  0  0  0  0  0  0  0  0
  -23.4270  -28.7950   23.3460 O   0  0  0  0  0  0  0  0  0  0  0  0
  -20.9240  -29.8160   21.7380 H   0  0  0  0  0  0  0  0  0  0  0  0
  -18.0330  -28.0910   22.9390 C   0  0  0  0  0  0  0  0  0  0  0  0
  -20.5950  -28.3200   23.1910 C   0  0  0  0  0  3  0  0  0  0  0  0
  -20.6790  -26.8930   22.6020 C   0  0  0  0  0  2  0  0  0  0  0  0
  -19.5640  -26.5880   21.5960 C   0  0  0  0  0  2  0  0  0  0  0  0
  -18.1890  -26.7440   22.2530 C   0  0  0  0  0  2  0  0  0  0  0  0
  -19.1630  -28.8380   23.3640 C   0  0  0  0  0  0  0  0  0  0  0  0
  -18.9630  -30.1010   23.9640 C   0  0  0  0  0  3  0  0  0  0  0  0
  -17.6650  -30.6150   24.1440 C   0  0  0  0  0  3  0  0  0  0  0  0
  -16.5480  -29.8640   23.7360 C   0  0  0  0  0  3  0  0  0  0  0  0
  -16.7340  -28.6030   23.1400 C   0  0  0  0  0  3  0  0  0  0  0  0
  -25.8900  -32.4780   23.8340 C   0  0  0  0  0  3  0  0  0  0  0  0
  -25.5850  -33.8750   24.1750 N   0  0  0  0  0  0  0  0  0  0  0  0
  -25.9110  -34.9300   23.4170 C   0  0  0  0  0  0  0  0  0  0  0  0
  -26.5760  -34.8310   22.3810 O   0  0  0  0  0  0  0  0  0  0  0  0
  -24.9950  -34.0240   24.9790 H   0  0  0  0  0  0  0  0  0  0  0  0
  -24.1770  -36.7190   23.0800 C   0  0  0  0  0  1  0  0  0  0  0  0
  -25.4230  -36.3150   23.8840 C   0  0  0  0  0  3  0  0  0  0  0  0
  -27.5650  -37.1930   24.7050 C   0  0  0  0  0  1  0  0  0  0  0  0
  -26.4530  -37.3700   23.7730 N   0  0  0  0  0  0  0  0  0  0  0  0
  -26.0470  -38.2870   23.9380 H   0  0  0  0  0  0  0  0  0  0  0  0
  -26.4180  -31.6970   25.1000 C   0  0  1  0  0  0  0  0  0  0  0  0
  -25.3320  -31.4490   26.1730 C   0  0  0  0  0  1  0  0  0  0  0  0
  -26.9990  -30.3230   24.6910 C   0  0  0  0  0  1  0  0  0  0  0  0
  -27.5730  -32.4870   25.7600 C   0  0  0  0  0  1  0  0  0  0  0  0
  1  2  1  0
  2  5  1  0
  3  1  1  0
  3  6  1  0
  4  5  1  0
  5 53  1  0
  6  4  1  0
  6  8  1  0
  8  7  2  0
  9  7  1  0
  9 48  1  0
 10 18  1  0
 11 16  1  0
 12 13  1  0
 12 11  1  0
 14 13  1  0
 14 23  1  0
 14 15  1  0
 16 10  1  0
 16 15  1  0
 17 10  2  0
 18 19  1  0
 18  9  1  0
 20 21  2  0
 21 40  1  0
 22 21  1  0
 22 25  1  0
 23 20  1  0
 23 24  1  0
 24 22  2  0
 25 26  1  0
 26 27  2  0
 28 31  1  0
 28 27  1  0
 29 28  2  0
 30 29  1  0
 30 25  2  0
 31 32  1  0
 32 33  1  0
 33 34  2  0
 35 34  1  0
 35 39  1  0
 36 35  2  0
 37 32  2  0
 37 36  1  0
 38 37  1  0
 40 41  1  0
 41 44  1  0
 41 43  1  0
 42 40  2  0
 45 46  1  0
 45 20  1  0
 47 45  1  0
 48 49  1  0
 49 52  1  0
 49 51  1  0
 50 49  1  0
 53 54  1  0
 54 55  1  0
 56 54  1  0
 57 54  1  0
 58 57  1  0
 58 59  1  0
 59 61  1  0
 60 71  2  0
 61 66  1  0
 62 70  1  0
 62 72  1  0
 63 69  1  0
 63 65  1  0
 64 70  1  0
 65 64  1  0
 66 65  2  0
 67 68  1  0
 67 61  2  0
 68 63  2  0
 69 62  1  0
 70 60  1  0
 72 74  2  0
 73 72  1  0
 75 73  1  0
 76 85  2  0
 76 81  1  0
 77 73  1  0
 77 81  1  0
 78 77  1  0
 79 80  1  0
 79 78  1  0
 80 76  1  0
 81 82  2  0
 82 83  1  0
 84 83  2  0
 85 84  1  0
 86 60  1  0
 86 87  1  0
 86 96  1  0
 87 90  1  0
 88 92  1  0
 88 87  1  0
 89 88  2  0
 92 91  1  0
 94 92  1  0
 94 95  1  0
 94 93  1  0
 96 99  1  1
 96 97  1  0
 98 96  1  0
M  ISO  4  10 100  18 100  58 101  59 101
M  END
>  <TORSDO>  (59) 
F 24

>  <SCORE>  (59) 
-12.638

>  <name>  (59) 
58

>  <ligand_id>  (59) 
58

>  <original_smiles>  (59) 
[H]C(=NC1([H])C([H])([H])C([H])([H])C([H])([H])C([H])(C([H])([H])[N+]([H])([H])C([H])([H])C([H])([H])Oc2c([H])c([H])c3c(c2[H])C([H])([H])N(C(=O)C([H])(N([H])C(=O)C([H])(N([H])C([H])([H])[H])C([H])([H])[H])C(C([H])([H])[H])(C([H])([H])[H])C([H])([H])[H])C([H])(C(=O)N([H])C2([H])c4c([H])c([H])c([H])c([H])c4C([H])([H])C([H])([H])C2([H])[H])C3([H])[H])C1([H])[H])C([H])(N([H])C(=O)N1C([H])([H])C([H])([H])C([H])([H])C([H])(n2nc(-c3c([H])c([H])c(Oc4c([H])c([H])c(F)c([H])c4F)c([H])c3[H])c(C(=O)N([H])[H])c2N([H])[H])C1([H])[H])C([H])([H])[N+]([H])([H])[H]

>  <smiles>  (59) 
[H]C(=NC1([H])C([H])([H])C([H])([H])C([H])([H])C([H])(C([H])([H])[N+]([H])([H])C([H])([H])C([H])([H])Oc2c([H])c([H])c3c(c2[H])C([H])([H])N(C(=O)C([H])(N([H])C(=O)C([H])(N([H])C([H])([H])[H])C([H])([H])[H])C(C([H])([H])[H])(C([H])([H])[H])C([H])([H])[H])C([H])(C(=O)N([H])C2([H])c4c([H])c([H])c([H])c([H])c4C([H])([H])C([H])([H])C2([H])[H])C3([H])[H])C1([H])[H])C([H])(N([H])C(=O)N1C([H])([H])C([H])([H])C([H])([H])C([H])(n2nc(-c3c([H])c([H])c(Oc4c([H])c([H])c(F)c([H])c4F)c([H])c3[H])c(C(=O)N([H])[H])c2N([H])[H])C1([H])[H])C([H])([H])[N+]([H])([H])[H]

$$$$
59:0:0
     RDKit          3D

 90 98  0  0  1  0  0  0  0  0999 V2000
  -29.4430  -21.8780   20.2530 C   0  0  0  0  0  3  0  0  0  0  0  0
  -28.2990  -22.8470   20.1080 C   0  0  0  0  0  2  0  0  0  0  0  0
  -29.0050  -24.2100   20.1050 C   0  0  0  0  0  3  0  0  0  0  0  0
  -30.3450  -23.8440   20.7860 C   0  0  0  0  0  3  0  0  0  0  0  0
  -31.5400  -24.6450   20.2550 C   0  0  0  0  0  1  0  0  0  0  0  0
  -30.5470  -22.4130   20.5770 N   0  0  0  0  0  2  0  0  0  0  0  0
  -29.1850  -20.3910   19.9660 C   0  0  0  0  0  2  0  0  0  0  0  0
  -30.0040  -19.3730   20.8060 C   0  0  0  0  0  2  0  0  0  0  0  0
  -29.6050  -17.8930   20.5490 C   0  0  0  0  0  2  0  0  0  0  0  0
  -30.4420  -16.8580   21.3440 C   0  0  0  0  0  2  0  0  0  0  0  0
  -30.6610  -14.4750   20.5350 C   0  0  0  0  0  0  0  0  0  0  0  0
  -30.3580  -12.3250   19.3590 C   0  0  0  0  0  2  0  0  0  0  0  0
  -29.4250  -12.5310   18.1490 C   0  0  0  0  0  2  0  0  0  0  0  0
  -27.9480  -12.3990   18.5690 C   0  0  0  0  0  2  0  0  0  0  0  0
  -27.6050  -13.2360   19.8290 C   0  0  0  0  0  3  0  0  0  0  0  0
  -28.6490  -13.0060   20.9450 C   0  0  0  0  0  2  0  0  0  0  0  0
  -29.9800  -13.3050   20.3890 N   0  0  0  0  0  0  0  0  0  0  0  0
  -31.7780  -14.6640   20.0460 O   0  0  0  0  0  0  0  0  0  0  0  0
  -29.9890  -15.4680   21.1470 N   0  0  0  0  0  0  0  0  0  0  0  0
  -29.0760  -15.2290   21.5070 H   0  0  0  0  0  0  0  0  0  0  0  0
  -25.1990  -13.8550   20.5060 C   0  0  0  0  0  0  0  0  0  0  0  0
  -24.1260  -13.0880   20.8710 C   0  0  0  0  0  0  0  0  0  0  0  0
  -24.5860  -11.7340   20.8570 C   0  0  0  0  0  0  0  0  0  0  0  0
  -26.2460  -12.9690   20.2950 N   0  0  0  0  0  0  0  0  0  0  0  0
  -25.8780  -11.6910   20.5620 N   0  0  0  0  0  0  0  0  0  0  0  0
  -23.8550  -10.4750   21.0500 C   0  0  0  0  0  0  0  0  0  0  0  0
  -24.2880   -9.5050   21.9820 C   0  0  0  0  0  3  0  0  0  0  0  0
  -23.5590   -8.3100   22.1620 C   0  0  0  0  0  3  0  0  0  0  0  0
  -22.3810   -8.0770   21.4110 C   0  0  0  0  0  0  0  0  0  0  0  0
  -21.9680   -9.0360   20.4690 C   0  0  0  0  0  3  0  0  0  0  0  0
  -22.6980  -10.2220   20.2870 C   0  0  0  0  0  3  0  0  0  0  0  0
  -21.6240   -6.9340   21.5010 O   0  0  0  0  0  0  0  0  0  0  0  0
  -21.5920   -6.1800   22.6470 C   0  0  0  0  0  0  0  0  0  0  0  0
  -21.1920   -6.7250   23.8870 C   0  0  0  0  0  3  0  0  0  0  0  0
  -21.1080   -5.8980   25.0250 C   0  0  0  0  0  3  0  0  0  0  0  0
  -21.4130   -4.5270   24.9240 C   0  0  0  0  0  0  0  0  0  0  0  0
  -21.8060   -3.9820   23.6890 C   0  0  0  0  0  3  0  0  0  0  0  0
  -21.8940   -4.8070   22.5530 C   0  0  0  0  0  0  0  0  0  0  0  0
  -22.2530   -4.2730   21.3610 F   0  0  0  0  0  0  0  0  0  0  0  0
  -21.3240   -3.7310   26.0140 F   0  0  0  0  0  0  0  0  0  0  0  0
  -22.7270  -13.5700   21.1240 C   0  0  0  0  0  0  0  0  0  0  0  0
  -21.9850  -12.8830   21.9870 N   0  0  0  0  0  0  0  0  0  0  0  0
  -22.2980  -14.5930   20.5920 O   0  0  0  0  0  0  0  0  0  0  0  0
  -22.3410  -12.0570   22.4430 H   0  0  0  0  0  0  0  0  0  0  0  0
  -21.0460  -13.1910   22.1930 H   0  0  0  0  0  0  0  0  0  0  0  0
  -25.3700  -15.2230   20.3190 N   0  0  0  0  0  0  0  0  0  0  0  0
  -24.6040  -15.8810   20.4150 H   0  0  0  0  0  0  0  0  0  0  0  0
  -26.2230  -15.6560   19.9880 H   0  0  0  0  0  0  0  0  0  0  0  0
  -28.1940  -25.3490   20.7860 C   0  0  0  0  0  2  0  0  0  0  0  0
  -28.3680  -26.6570   20.1940 O   0  0  0  0  0  0  0  0  0  0  0  0
  -24.5860  -31.8790   23.2450 C   0  0  0  0  0  0  0  0  0  0  0  0
  -27.2230  -27.4280   20.1680 C   0  0  0  0  0  0  0  0  0  0  0  0
  -23.3790  -30.4760   21.6040 C   0  0  0  0  0  3  0  0  0  0  0  0
  -24.8320  -28.9430   20.1750 C   0  0  0  0  0  0  0  0  0  0  0  0
  -25.9040  -30.8370   21.4020 C   0  0  0  0  0  2  0  0  0  0  0  0
  -25.9920  -29.4650   20.7620 C   0  0  0  0  0  0  0  0  0  0  0  0
  -27.1940  -28.7160   20.7540 C   0  0  0  0  0  3  0  0  0  0  0  0
  -26.0510  -26.9340   19.5540 C   0  0  0  0  0  3  0  0  0  0  0  0
  -24.8570  -27.6770   19.5670 C   0  0  0  0  0  3  0  0  0  0  0  0
  -23.5870  -29.7990   20.2240 C   0  0  0  0  0  2  0  0  0  0  0  0
  -24.6420  -31.0790   22.1430 N   0  0  0  0  0  0  0  0  0  0  0  0
  -23.5050  -32.1490   23.7870 O   0  0  0  0  0  0  0  0  0  0  0  0
  -22.7290  -29.4550   22.5660 C   0  0  0  0  0  0  0  0  0  0  0  0
  -21.4040  -29.2730   22.4420 N   0  0  0  0  0  0  0  0  0  0  0  0
  -23.4150  -28.8270   23.3780 O   0  0  0  0  0  0  0  0  0  0  0  0
  -20.9120  -29.8320   21.7600 H   0  0  0  0  0  0  0  0  0  0  0  0
  -18.0300  -28.0830   22.9510 C   0  0  0  0  0  0  0  0  0  0  0  0
  -20.5900  -28.3330   23.2130 C   0  0  0  0  0  3  0  0  0  0  0  0
  -20.6860  -26.9040   22.6310 C   0  0  0  0  0  2  0  0  0  0  0  0
  -19.5790  -26.5870   21.6210 C   0  0  0  0  0  2  0  0  0  0  0  0
  -18.2000  -26.7340   22.2710 C   0  0  0  0  0  2  0  0  0  0  0  0
  -19.1520  -28.8410   23.3790 C   0  0  0  0  0  0  0  0  0  0  0  0
  -18.9390  -30.1030   23.9730 C   0  0  0  0  0  3  0  0  0  0  0  0
  -17.6380  -30.6080   24.1440 C   0  0  0  0  0  3  0  0  0  0  0  0
  -16.5290  -29.8470   23.7330 C   0  0  0  0  0  3  0  0  0  0  0  0
  -16.7260  -28.5870   23.1430 C   0  0  0  0  0  3  0  0  0  0  0  0
  -25.8730  -32.5110   23.8630 C   0  0  0  0  0  3  0  0  0  0  0  0
  -25.5660  -33.9110   24.1850 N   0  0  0  0  0  0  0  0  0  0  0  0
  -25.9040  -34.9590   23.4220 C   0  0  0  0  0  0  0  0  0  0  0  0
  -26.5780  -34.8480   22.3940 O   0  0  0  0  0  0  0  0  0  0  0  0
  -24.9700  -34.0710   24.9840 H   0  0  0  0  0  0  0  0  0  0  0  0
  -24.1850  -36.7550   23.0450 C   0  0  0  0  0  1  0  0  0  0  0  0
  -25.4180  -36.3510   23.8690 C   0  0  0  0  0  3  0  0  0  0  0  0
  -27.5500  -37.2300   24.7120 C   0  0  0  0  0  1  0  0  0  0  0  0
  -26.4550  -37.3990   23.7590 N   0  0  0  0  0  0  0  0  0  0  0  0
  -26.0520  -38.3210   23.9000 H   0  0  0  0  0  0  0  0  0  0  0  0
  -26.3910  -31.7440   25.1400 C   0  0  1  0  0  0  0  0  0  0  0  0
  -25.3000  -31.5110   26.2110 C   0  0  0  0  0  1  0  0  0  0  0  0
  -26.9720  -30.3650   24.7500 C   0  0  0  0  0  1  0  0  0  0  0  0
  -27.5450  -32.5380   25.7970 C   0  0  0  0  0  1  0  0  0  0  0  0
  1  7  1  0
  1  6  1  0
  2  1  1  0
  3  2  1  0
  3  4  1  0
  3 49  1  0
  4  5  1  0
  6  4  1  0
  7  8  1  0
  9  8  1  0
  9 10  1  0
 11 19  1  0
 12 17  1  0
 13 14  1  0
 13 12  1  0
 15 14  1  0
 15 24  1  0
 15 16  1  0
 17 11  1  0
 17 16  1  0
 18 11  2  0
 19 10  1  0
 19 20  1  0
 21 22  2  0
 22 41  1  0
 23 22  1  0
 23 26  1  0
 24 21  1  0
 24 25  1  0
 25 23  2  0
 26 27  1  0
 27 28  2  0
 29 32  1  0
 29 28  1  0
 30 29  2  0
 31 30  1  0
 31 26  2  0
 32 33  1  0
 33 34  1  0
 34 35  2  0
 36 35  1  0
 36 40  1  0
 37 36  2  0
 38 33  2  0
 38 37  1  0
 39 38  1  0
 41 42  1  0
 42 45  1  0
 42 44  1  0
 43 41  2  0
 46 47  1  0
 46 21  1  0
 48 46  1  0
 50 49  1  0
 51 62  2  0
 52 50  1  0
 52 57  1  0
 53 61  1  0
 53 63  1  0
 54 60  1  0
 54 56  1  0
 55 61  1  0
 56 55  1  0
 57 56  2  0
 58 59  1  0
 58 52  2  0
 59 54  2  0
 60 53  1  0
 61 51  1  0
 63 65  2  0
 64 63  1  0
 66 64  1  0
 67 76  2  0
 67 72  1  0
 68 64  1  0
 68 72  1  0
 69 68  1  0
 70 71  1  0
 70 69  1  0
 71 67  1  0
 72 73  2  0
 73 74  1  0
 75 74  2  0
 76 75  1  0
 77 51  1  0
 77 78  1  0
 77 87  1  0
 78 81  1  0
 79 83  1  0
 79 78  1  0
 80 79  2  0
 83 82  1  0
 85 83  1  0
 85 86  1  0
 85 84  1  0
 87 90  1  1
 87 88  1  0
 89 87  1  0
M  ISO  4  11 100  19 100  49 101  50 101
M  END
>  <TORSDO>  (60) 
F 21

>  <SCORE>  (60) 
-13.512

>  <name>  (60) 
59

>  <ligand_id>  (60) 
59

>  <original_smiles>  (60) 
[H]c1c([H])c([H])c2c(c1[H])C([H])([H])C([H])([H])C([H])([H])C2([H])N([H])C(=O)C1([H])N(C(=O)C([H])(N([H])C(=O)C([H])(N([H])C([H])([H])[H])C([H])([H])[H])C(C([H])([H])[H])(C([H])([H])[H])C([H])([H])[H])C([H])([H])c2c([H])c(OC([H])([H])C3([H])C([H])([H])C(C([H])([H])C([H])([H])C([H])([H])C([H])([H])N([H])C(=O)N4C([H])([H])C([H])([H])C([H])([H])C([H])(n5nc(-c6c([H])c([H])c(Oc7c([H])c([H])c(F)c([H])c7F)c([H])c6[H])c(C(=O)N([H])[H])c5N([H])[H])C4([H])[H])=NC3([H])C([H])([H])[H])c([H])c([H])c2C1([H])[H]

>  <smiles>  (60) 
[H]c1c([H])c([H])c2c(c1[H])C([H])([H])C([H])([H])C([H])([H])C2([H])N([H])C(=O)C1([H])N(C(=O)C([H])(N([H])C(=O)C([H])(N([H])C([H])([H])[H])C([H])([H])[H])C(C([H])([H])[H])(C([H])([H])[H])C([H])([H])[H])C([H])([H])c2c([H])c(OC([H])([H])C3([H])C([H])([H])C(C([H])([H])C([H])([H])C([H])([H])C([H])([H])N([H])C(=O)N4C([H])([H])C([H])([H])C([H])([H])C([H])(n5nc(-c6c([H])c([H])c(Oc7c([H])c([H])c(F)c([H])c7F)c([H])c6[H])c(C(=O)N([H])[H])c5N([H])[H])C4([H])[H])=NC3([H])C([H])([H])[H])c([H])c([H])c2C1([H])[H]

$$$$
60:0:0
     RDKit          3D

 87 94  0  0  1  0  0  0  0  0999 V2000
  -30.2880  -15.7860   20.2870 C   0  0  0  0  0  0  0  0  0  0  0  0
  -30.4440  -13.1910   19.5450 C   0  0  0  0  0  2  0  0  0  0  0  0
  -29.6090  -12.6890   18.3280 C   0  0  0  0  0  2  0  0  0  0  0  0
  -28.1830  -12.3100   18.7480 C   0  0  0  0  0  2  0  0  0  0  0  0
  -27.6200  -13.3310   19.7620 C   0  0  0  0  0  3  0  0  0  0  0  0
  -28.6090  -13.7360   20.8850 C   0  0  0  0  0  2  0  0  0  0  0  0
  -29.7690  -14.3990   20.2320 N   0  0  0  0  0  0  0  0  0  0  0  0
  -31.5250  -15.6810   20.1590 O   0  0  0  0  0  0  0  0  0  0  0  0
  -29.3810  -18.4460   19.2830 C   0  0  0  0  0  3  0  0  0  0  0  0
  -29.8820  -18.6070   21.0970 C   0  0  0  0  0  3  0  0  0  0  0  0
  -28.9350  -19.7930   20.2710 C   0  0  0  0  0  3  0  0  0  0  0  0
  -29.5720  -17.2170   20.3240 N   0  0  0  0  0  0  0  0  0  0  0  0
  -25.2370  -13.8370   20.4630 C   0  0  0  0  0  0  0  0  0  0  0  0
  -24.1790  -13.0500   20.8160 C   0  0  0  0  0  0  0  0  0  0  0  0
  -24.6660  -11.7070   20.8210 C   0  0  0  0  0  0  0  0  0  0  0  0
  -26.2980  -12.9780   20.2610 N   0  0  0  0  0  0  0  0  0  0  0  0
  -25.9690  -11.6890   20.5440 N   0  0  0  0  0  0  0  0  0  0  0  0
  -23.9470  -10.4390   21.0120 C   0  0  0  0  0  0  0  0  0  0  0  0
  -24.3690   -9.4850   21.9650 C   0  0  0  0  0  3  0  0  0  0  0  0
  -23.6430   -8.2880   22.1500 C   0  0  0  0  0  3  0  0  0  0  0  0
  -22.4810   -8.0340   21.3820 C   0  0  0  0  0  0  0  0  0  0  0  0
  -22.0790   -8.9760   20.4210 C   0  0  0  0  0  3  0  0  0  0  0  0
  -22.8050  -10.1660   20.2330 C   0  0  0  0  0  3  0  0  0  0  0  0
  -21.7300   -6.8860   21.4710 O   0  0  0  0  0  0  0  0  0  0  0  0
  -21.6780   -6.1510   22.6280 C   0  0  0  0  0  0  0  0  0  0  0  0
  -21.2590   -6.7160   23.8520 C   0  0  0  0  0  3  0  0  0  0  0  0
  -21.1510   -5.9080   25.0010 C   0  0  0  0  0  3  0  0  0  0  0  0
  -21.4510   -4.5350   24.9290 C   0  0  0  0  0  0  0  0  0  0  0  0
  -21.8640   -3.9680   23.7090 C   0  0  0  0  0  3  0  0  0  0  0  0
  -21.9740   -4.7740   22.5620 C   0  0  0  0  0  0  0  0  0  0  0  0
  -22.3500   -4.2170   21.3840 F   0  0  0  0  0  0  0  0  0  0  0  0
  -21.3410   -3.7580   26.0300 F   0  0  0  0  0  0  0  0  0  0  0  0
  -22.7700  -13.5170   21.0340 C   0  0  0  0  0  0  0  0  0  0  0  0
  -22.0240  -12.8390   21.8970 N   0  0  0  0  0  0  0  0  0  0  0  0
  -22.3390  -14.5230   20.4710 O   0  0  0  0  0  0  0  0  0  0  0  0
  -22.3880  -12.0290   22.3780 H   0  0  0  0  0  0  0  0  0  0  0  0
  -21.0780  -13.1370   22.0840 H   0  0  0  0  0  0  0  0  0  0  0  0
  -25.3820  -15.2070   20.2630 N   0  0  0  0  0  0  0  0  0  0  0  0
  -24.5940  -15.8430   20.3160 H   0  0  0  0  0  0  0  0  0  0  0  0
  -26.2280  -15.6410   19.9200 H   0  0  0  0  0  0  0  0  0  0  0  0
  -27.5400  -19.5690   20.7100 N   0  0  0  0  0  4  0  0  0  0  0  0
  -27.3400  -20.0780   21.5520 H   0  0  0  0  0  0  0  0  0  0  0  0
  -27.3850  -18.5930   20.8980 H   0  0  0  0  0  0  0  0  0  0  0  0
  -26.8840  -19.8540   20.0050 H   0  0  0  0  0  0  0  0  0  0  0  0
  -29.0770  -21.8080   20.0950 C   0  0  0  0  0 15  0  0  0  0  0  0
  -28.0520  -23.5400   20.0940 C   0  0  0  0  0  1  0  0  0  0  0  0
  -28.1930  -25.3550   20.1000 O   0  0  0  0  0  0  0  0  0  0  0  0
  -24.7250  -31.7800   23.0580 C   0  0  0  0  0  0  0  0  0  0  0  0
  -27.2260  -26.6100   20.0720 C   0  0  0  0  0  0  0  0  0  0  0  0
  -23.5270  -30.3820   21.4280 C   0  0  0  0  0  3  0  0  0  0  0  0
  -24.9680  -28.7110   20.0160 C   0  0  0  0  0  0  0  0  0  0  0  0
  -26.1080  -30.4940   21.3040 C   0  0  0  0  0  2  0  0  0  0  0  0
  -26.1690  -29.0480   20.6510 C   0  0  0  0  0  0  0  0  0  0  0  0
  -27.2790  -28.0320   20.6400 C   0  0  0  0  0  3  0  0  0  0  0  0
  -25.9850  -26.5110   19.3810 C   0  0  0  0  0  3  0  0  0  0  0  0
  -24.9220  -27.4710   19.3540 C   0  0  0  0  0  3  0  0  0  0  0  0
  -23.7660  -29.6770   20.0610 C   0  0  0  0  0  2  0  0  0  0  0  0
  -24.8120  -30.9210   21.9820 N   0  0  0  0  0  0  0  0  0  0  0  0
  -23.6340  -32.0880   23.5690 O   0  0  0  0  0  0  0  0  0  0  0  0
  -22.8070  -29.4140   22.4080 C   0  0  0  0  0  0  0  0  0  0  0  0
  -21.4680  -29.2900   22.3070 N   0  0  0  0  0  0  0  0  0  0  0  0
  -23.4640  -28.7720   23.2300 O   0  0  0  0  0  0  0  0  0  0  0  0
  -20.9860  -29.8580   21.6230 H   0  0  0  0  0  0  0  0  0  0  0  0
  -18.0650  -28.1430   22.8890 C   0  0  0  0  0  0  0  0  0  0  0  0
  -20.6370  -28.3620   23.0860 C   0  0  0  0  0  3  0  0  0  0  0  0
  -20.6950  -26.9360   22.4920 C   0  0  0  0  0  2  0  0  0  0  0  0
  -19.5620  -26.6500   21.5000 C   0  0  0  0  0  2  0  0  0  0  0  0
  -18.2000  -26.8060   22.1820 C   0  0  0  0  0  2  0  0  0  0  0  0
  -19.2080  -28.8830   23.2990 C   0  0  0  0  0  0  0  0  0  0  0  0
  -19.0220  -30.1330   23.9270 C   0  0  0  0  0  3  0  0  0  0  0  0
  -17.7280  -30.6450   24.1450 C   0  0  0  0  0  3  0  0  0  0  0  0
  -16.6030  -29.9050   23.7440 C   0  0  0  0  0  3  0  0  0  0  0  0
  -16.7730  -28.6560   23.1230 C   0  0  0  0  0  3  0  0  0  0  0  0
  -25.9900  -32.4300   23.6990 C   0  0  0  0  0  3  0  0  0  0  0  0
  -26.5220  -31.6320   24.9560 C   0  0  1  0  0  0  0  0  0  0  0  0
  -25.4420  -31.3630   26.0300 C   0  0  0  0  0  1  0  0  0  0  0  0
  -27.1130  -30.2670   24.5390 C   0  0  0  0  0  1  0  0  0  0  0  0
  -27.6760  -32.4190   25.6230 C   0  0  0  0  0  1  0  0  0  0  0  0
  -25.6490  -33.8110   24.0980 N   0  0  0  0  0  0  0  0  0  0  0  0
  -25.9460  -34.9140   23.3970 C   0  0  0  0  0  0  0  0  0  0  0  0
  -26.5920  -34.8780   22.3460 O   0  0  0  0  0  0  0  0  0  0  0  0
  -25.0680  -33.9090   24.9170 H   0  0  0  0  0  0  0  0  0  0  0  0
  -24.1780  -36.7010   23.2060 C   0  0  0  0  0  1  0  0  0  0  0  0
  -25.4560  -36.2720   23.9450 C   0  0  0  0  0  3  0  0  0  0  0  0
  -27.6090  -37.1600   24.7340 C   0  0  0  0  0  1  0  0  0  0  0  0
  -26.4660  -37.3510   23.8450 N   0  0  0  0  0  0  0  0  0  0  0  0
  -26.0520  -38.2560   24.0490 H   0  0  0  0  0  0  0  0  0  0  0  0
  1 12  1  0
  2  7  1  0
  3  4  1  0
  3  2  1  0
  5  4  1  0
  5 16  1  0
  5  6  1  0
  7  1  1  0
  7  6  1  0
  8  1  2  0
  9 11  1  0
  9 12  1  0
  9 10  1  0
 10 12  1  0
 11 41  1  0
 11 10  1  0
 13 14  2  0
 14 15  1  0
 14 33  1  0
 15 18  1  0
 16 13  1  0
 16 17  1  0
 17 15  2  0
 18 19  1  0
 19 20  2  0
 21 24  1  0
 21 20  1  0
 22 21  2  0
 23 22  1  0
 23 18  2  0
 24 25  1  0
 25 26  1  0
 26 27  2  0
 28 27  1  0
 28 32  1  0
 29 28  2  0
 30 25  2  0
 30 29  1  0
 31 30  1  0
 33 34  1  0
 34 37  1  0
 34 36  1  0
 35 33  2  0
 38 39  1  0
 38 13  1  0
 40 38  1  0
 41 43  1  0
 41 42  1  0
 44 41  1  0
 46 47  1  0
 48 59  2  0
 49 47  1  0
 49 54  1  0
 50 58  1  0
 50 60  1  0
 51 57  1  0
 51 53  1  0
 52 58  1  0
 53 52  1  0
 54 53  2  0
 55 49  2  0
 56 55  1  0
 56 51  2  0
 57 50  1  0
 58 48  1  0
 60 62  2  0
 61 60  1  0
 63 61  1  0
 64 73  2  0
 64 69  1  0
 65 61  1  0
 65 69  1  0
 66 65  1  0
 67 68  1  0
 67 66  1  0
 68 64  1  0
 69 70  2  0
 70 71  1  0
 72 71  2  0
 73 72  1  0
 74 48  1  0
 74 79  1  0
 74 75  1  0
 75 78  1  1
 75 76  1  0
 77 75  1  0
 79 82  1  0
 80 84  1  0
 80 79  1  0
 81 80  2  0
 84 83  1  0
 86 84  1  0
 86 87  1  0
 86 85  1  0
M  ISO  4   1 100  12 100  46 101  47 101
M  END
>  <TORSDO>  (61) 
F 18

>  <SCORE>  (61) 
-16.073

>  <name>  (61) 
60

>  <ligand_id>  (61) 
60

>  <original_smiles>  (61) 
[H]c1c([H])c([H])c2c(c1[H])C([H])([H])C([H])([H])C([H])([H])C2([H])N([H])C(=O)C1([H])N(C(=O)C([H])(N([H])C(=O)C([H])(N([H])C([H])([H])[H])C([H])([H])[H])C(C([H])([H])[H])(C([H])([H])[H])C([H])([H])[H])C([H])([H])c2c([H])c(OC([H])([H])C([H])([H])C3([N+]([H])([H])[H])C([H])([H])N(C(=O)N4C([H])([H])C([H])([H])C([H])([H])C([H])(n5nc(-c6c([H])c([H])c(Oc7c([H])c([H])c(F)c([H])c7F)c([H])c6[H])c(C(=O)N([H])[H])c5N([H])[H])C4([H])[H])C3([H])[H])c([H])c([H])c2C1([H])[H]

>  <smiles>  (61) 
[H]c1c([H])c([H])c2c(c1[H])C([H])([H])C([H])([H])C([H])([H])C2([H])N([H])C(=O)C1([H])N(C(=O)C([H])(N([H])C(=O)C([H])(N([H])C([H])([H])[H])C([H])([H])[H])C(C([H])([H])[H])(C([H])([H])[H])C([H])([H])[H])C([H])([H])c2c([H])c(OC([H])([H])C([H])([H])C3([N+]([H])([H])[H])C([H])([H])N(C(=O)N4C([H])([H])C([H])([H])C([H])([H])C([H])(n5nc(-c6c([H])c([H])c(Oc7c([H])c([H])c(F)c([H])c7F)c([H])c6[H])c(C(=O)N([H])[H])c5N([H])[H])C4([H])[H])C3([H])[H])c([H])c([H])c2C1([H])[H]

$$$$
61:0:0
     RDKit          3D

 88 97  0  0  1  0  0  0  0  0999 V2000
  -30.4620  -15.3500   20.3570 C   0  0  0  0  0  0  0  0  0  0  0  0
  -30.4200  -12.8890   19.5040 C   0  0  0  0  0  2  0  0  0  0  0  0
  -29.5380  -12.6180   18.2610 C   0  0  0  0  0  2  0  0  0  0  0  0
  -28.0890  -12.3260   18.6810 C   0  0  0  0  0  2  0  0  0  0  0  0
  -27.5930  -13.3160   19.7640 C   0  0  0  0  0  3  0  0  0  0  0  0
  -28.6140  -13.5460   20.9010 C   0  0  0  0  0  2  0  0  0  0  0  0
  -29.8420  -14.0620   20.2680 N   0  0  0  0  0  0  0  0  0  0  0  0
  -31.6920  -15.2590   20.2200 O   0  0  0  0  0  0  0  0  0  0  0  0
  -30.5590  -20.9540   20.6130 C   0  0  0  0  0  3  0  0  0  0  0  0
  -29.9750  -22.3100   20.5190 C   0  0  0  0  0  3  0  0  0  0  0  0
  -27.9390  -21.3030   20.0260 C   0  0  0  0  0  3  0  0  0  0  0  0
  -29.8830  -19.6790   20.4190 C   0  0  0  0  0  0  0  0  0  0  0  0
  -28.5270  -19.9120   20.1270 C   0  0  0  0  0  3  0  0  0  0  0  0
  -28.6000  -22.6360   20.2080 C   0  0  0  0  0  0  0  0  0  0  0  0
  -27.8140  -18.5420   19.8470 C   0  0  0  0  0  3  0  0  0  0  0  0
  -30.5600  -18.1390   20.4630 C   0  0  0  0  0  3  0  0  0  0  0  0
  -28.3760  -17.1150   20.4360 C   0  0  0  0  0  3  0  0  0  0  0  0
  -29.8340  -16.7190   20.3850 N   0  0  0  0  0  0  0  0  0  0  0  0
  -25.2020  -13.8590   20.4580 C   0  0  0  0  0  0  0  0  0  0  0  0
  -24.1420  -13.0770   20.8140 C   0  0  0  0  0  0  0  0  0  0  0  0
  -24.6260  -11.7330   20.8200 C   0  0  0  0  0  0  0  0  0  0  0  0
  -26.2620  -12.9930   20.2560 N   0  0  0  0  0  0  0  0  0  0  0  0
  -25.9260  -11.7090   20.5440 N   0  0  0  0  0  0  0  0  0  0  0  0
  -23.9070  -10.4670   21.0110 C   0  0  0  0  0  0  0  0  0  0  0  0
  -24.3290   -9.5120   21.9630 C   0  0  0  0  0  3  0  0  0  0  0  0
  -23.6080   -8.3130   22.1440 C   0  0  0  0  0  3  0  0  0  0  0  0
  -22.4490   -8.0590   21.3730 C   0  0  0  0  0  0  0  0  0  0  0  0
  -22.0450   -9.0020   20.4110 C   0  0  0  0  0  3  0  0  0  0  0  0
  -22.7680  -10.1920   20.2280 C   0  0  0  0  0  3  0  0  0  0  0  0
  -21.6990   -6.9110   21.4630 O   0  0  0  0  0  0  0  0  0  0  0  0
  -21.6420   -6.1770   22.6200 C   0  0  0  0  0  0  0  0  0  0  0  0
  -21.2090   -6.7420   23.8400 C   0  0  0  0  0  3  0  0  0  0  0  0
  -21.1000   -5.9350   24.9890 C   0  0  0  0  0  3  0  0  0  0  0  0
  -21.4140   -4.5640   24.9200 C   0  0  0  0  0  0  0  0  0  0  0  0
  -21.8390   -3.9990   23.7050 C   0  0  0  0  0  3  0  0  0  0  0  0
  -21.9500   -4.8040   22.5580 C   0  0  0  0  0  0  0  0  0  0  0  0
  -22.3410   -4.2490   21.3850 F   0  0  0  0  0  0  0  0  0  0  0  0
  -21.3010   -3.7870   26.0230 F   0  0  0  0  0  0  0  0  0  0  0  0
  -22.7330  -13.5450   21.0330 C   0  0  0  0  0  0  0  0  0  0  0  0
  -21.9890  -12.8660   21.8970 N   0  0  0  0  0  0  0  0  0  0  0  0
  -22.3000  -14.5500   20.4700 O   0  0  0  0  0  0  0  0  0  0  0  0
  -22.3520  -12.0550   22.3760 H   0  0  0  0  0  0  0  0  0  0  0  0
  -21.0420  -13.1650   22.0870 H   0  0  0  0  0  0  0  0  0  0  0  0
  -25.3450  -15.2280   20.2560 N   0  0  0  0  0  0  0  0  0  0  0  0
  -24.5590  -15.8640   20.3320 H   0  0  0  0  0  0  0  0  0  0  0  0
  -26.1840  -15.6720   19.9120 H   0  0  0  0  0  0  0  0  0  0  0  0
  -27.8210  -24.2130   20.0160 C   0  0  0  0  0  2  0  0  0  0  0  0
  -28.1850  -25.8140   20.2200 O   0  0  0  0  0  0  0  0  0  0  0  0
  -24.6660  -31.8480   23.1640 C   0  0  0  0  0  0  0  0  0  0  0  0
  -27.2020  -26.9460   20.1470 C   0  0  0  0  0  0  0  0  0  0  0  0
  -23.4690  -30.4590   21.5240 C   0  0  0  0  0  3  0  0  0  0  0  0
  -24.9140  -28.8510   20.1000 C   0  0  0  0  0  0  0  0  0  0  0  0
  -26.0390  -30.6550   21.3830 C   0  0  0  0  0  2  0  0  0  0  0  0
  -26.1040  -29.2440   20.7240 C   0  0  0  0  0  0  0  0  0  0  0  0
  -27.2420  -28.3130   20.7240 C   0  0  0  0  0  3  0  0  0  0  0  0
  -25.9830  -26.7160   19.4680 C   0  0  0  0  0  3  0  0  0  0  0  0
  -24.8800  -27.6080   19.4500 C   0  0  0  0  0  3  0  0  0  0  0  0
  -23.6980  -29.7760   20.1470 C   0  0  0  0  0  2  0  0  0  0  0  0
  -24.7470  -31.0140   22.0760 N   0  0  0  0  0  0  0  0  0  0  0  0
  -23.5770  -32.1420   23.6840 O   0  0  0  0  0  0  0  0  0  0  0  0
  -22.7690  -29.4650   22.4880 C   0  0  0  0  0  0  0  0  0  0  0  0
  -21.4350  -29.3210   22.3740 N   0  0  0  0  0  0  0  0  0  0  0  0
  -23.4330  -28.8250   23.3070 O   0  0  0  0  0  0  0  0  0  0  0  0
  -20.9530  -29.8870   21.6900 H   0  0  0  0  0  0  0  0  0  0  0  0
  -18.0390  -28.1590   22.9140 C   0  0  0  0  0  0  0  0  0  0  0  0
  -20.6060  -28.3880   23.1470 C   0  0  0  0  0  3  0  0  0  0  0  0
  -20.6790  -26.9600   22.5580 C   0  0  0  0  0  2  0  0  0  0  0  0
  -19.5610  -26.6630   21.5540 C   0  0  0  0  0  2  0  0  0  0  0  0
  -18.1890  -26.8180   22.2180 C   0  0  0  0  0  2  0  0  0  0  0  0
  -19.1730  -28.9050   23.3360 C   0  0  0  0  0  0  0  0  0  0  0  0
  -18.9760  -30.1600   23.9500 C   0  0  0  0  0  3  0  0  0  0  0  0
  -17.6790  -30.6720   24.1450 C   0  0  0  0  0  3  0  0  0  0  0  0
  -16.5600  -29.9250   23.7370 C   0  0  0  0  0  3  0  0  0  0  0  0
  -16.7410  -28.6700   23.1270 C   0  0  0  0  0  3  0  0  0  0  0  0
  -25.9380  -32.4870   23.8000 C   0  0  0  0  0  3  0  0  0  0  0  0
  -25.6190  -33.8810   24.1520 N   0  0  0  0  0  0  0  0  0  0  0  0
  -25.9330  -34.9530   23.4120 C   0  0  0  0  0  0  0  0  0  0  0  0
  -26.5850  -34.8710   22.3680 O   0  0  0  0  0  0  0  0  0  0  0  0
  -25.0370  -34.0170   24.9650 H   0  0  0  0  0  0  0  0  0  0  0  0
  -24.1830  -36.7430   23.1420 C   0  0  0  0  0  1  0  0  0  0  0  0
  -25.4520  -36.3330   23.9060 C   0  0  0  0  0  3  0  0  0  0  0  0
  -27.6060  -37.2270   24.6780 C   0  0  0  0  0  1  0  0  0  0  0  0
  -26.4720  -37.3970   23.7730 N   0  0  0  0  0  0  0  0  0  0  0  0
  -26.0640  -38.3120   23.9440 H   0  0  0  0  0  0  0  0  0  0  0  0
  -26.4490  -31.7090   25.0750 C   0  0  1  0  0  0  0  0  0  0  0  0
  -25.3530  -31.4700   26.1420 C   0  0  0  0  0  1  0  0  0  0  0  0
  -27.0290  -30.3300   24.6880 C   0  0  0  0  0  1  0  0  0  0  0  0
  -27.6010  -32.4970   25.7430 C   0  0  0  0  0  1  0  0  0  0  0  0
  1 18  1  0
  2  7  1  0
  3  4  1  0
  3  2  1  0
  5  4  1  0
  5 22  1  0
  5  6  1  0
  7  1  1  0
  7  6  1  0
  8  1  2  0
 10  9  2  0
 11 13  1  0
 11 14  2  0
 12 16  2  0
 12  9  1  0
 13 15  1  0
 13 12  1  0
 14 10  1  0
 15 17  2  0
 18 17  1  0
 18 16  1  0
 19 20  2  0
 20 21  1  0
 20 39  1  0
 21 24  1  0
 22 19  1  0
 22 23  1  0
 23 21  2  0
 24 25  1  0
 25 26  2  0
 27 30  1  0
 27 26  1  0
 28 27  2  0
 29 28  1  0
 29 24  2  0
 30 31  1  0
 31 32  1  0
 32 33  2  0
 34 33  1  0
 34 38  1  0
 35 34  2  0
 36 31  2  0
 36 35  1  0
 37 36  1  0
 39 40  1  0
 40 43  1  0
 40 42  1  0
 41 39  2  0
 44 45  1  0
 44 19  1  0
 46 44  1  0
 47 14  1  0
 47 48  1  0
 49 60  2  0
 50 48  1  0
 50 55  1  0
 51 59  1  0
 51 61  1  0
 52 58  1  0
 52 54  1  0
 53 59  1  0
 54 55  2  0
 54 53  1  0
 56 50  2  0
 57 56  1  0
 57 52  2  0
 58 51  1  0
 59 49  1  0
 61 63  2  0
 62 61  1  0
 64 62  1  0
 65 74  2  0
 65 70  1  0
 66 62  1  0
 66 70  1  0
 67 66  1  0
 68 69  1  0
 68 67  1  0
 69 65  1  0
 70 71  2  0
 71 72  1  0
 73 72  2  0
 74 73  1  0
 75 49  1  0
 75 76  1  0
 75 85  1  0
 76 79  1  0
 77 81  1  0
 77 76  1  0
 78 77  2  0
 81 80  1  0
 83 81  1  0
 83 84  1  0
 83 82  1  0
 85 88  1  1
 85 86  1  0
 87 85  1  0
M  ISO  4   1 100  18 100  47 101  48 101
M  END
>  <TORSDO>  (62) 
F 16

>  <SCORE>  (62) 
-16.831

>  <name>  (62) 
61

>  <ligand_id>  (62) 
61

>  <original_smiles>  (62) 
[H]c1c([H])c([H])c2c(c1[H])C([H])([H])C([H])([H])C([H])([H])C2([H])N([H])C(=O)C1([H])N(C(=O)C([H])(N([H])C(=O)C([H])(N([H])C([H])([H])[H])C([H])([H])[H])C(C([H])([H])[H])(C([H])([H])[H])C([H])([H])[H])C([H])([H])c2c([H])c(OC([H])([H])c3c([H])c([H])c4c(c3[H])C([H])([H])C([H])([H])N(C(=O)N3C([H])([H])C([H])([H])C([H])([H])C([H])(n5nc(-c6c([H])c([H])c(Oc7c([H])c([H])c(F)c([H])c7F)c([H])c6[H])c(C(=O)N([H])[H])c5N([H])[H])C3([H])[H])C4([H])[H])c([H])c([H])c2C1([H])[H]

>  <smiles>  (62) 
[H]c1c([H])c([H])c2c(c1[H])C([H])([H])C([H])([H])C([H])([H])C2([H])N([H])C(=O)C1([H])N(C(=O)C([H])(N([H])C(=O)C([H])(N([H])C([H])([H])[H])C([H])([H])[H])C(C([H])([H])[H])(C([H])([H])[H])C([H])([H])[H])C([H])([H])c2c([H])c(OC([H])([H])c3c([H])c([H])c4c(c3[H])C([H])([H])C([H])([H])N(C(=O)N3C([H])([H])C([H])([H])C([H])([H])C([H])(n5nc(-c6c([H])c([H])c(Oc7c([H])c([H])c(F)c([H])c7F)c([H])c6[H])c(C(=O)N([H])[H])c5N([H])[H])C3([H])[H])C4([H])[H])c([H])c([H])c2C1([H])[H]

$$$$
62:0:0
     RDKit          3D

 90 98  0  0  1  0  0  0  0  0999 V2000
  -29.9440  -21.1250   20.1090 C   0  0  0  0  0  3  0  0  0  0  0  0
  -29.5640  -19.7650   19.5170 N   0  0  0  0  0  4  0  0  0  0  0  0
  -28.7160  -19.4790   19.9780 H   0  0  0  0  0  0  0  0  0  0  0  0
  -29.3370  -19.9020   18.5450 H   0  0  0  0  0  0  0  0  0  0  0  0
  -30.5350  -18.5790   19.5990 C   0  0  0  0  0  2  0  0  0  0  0  0
  -31.2360  -14.8360   19.7680 C   0  0  0  0  0  0  0  0  0  0  0  0
  -30.9840  -12.4900   18.9280 C   0  0  0  0  0  2  0  0  0  0  0  0
  -29.9650  -12.4240   17.7680 C   0  0  0  0  0  2  0  0  0  0  0  0
  -28.5300  -12.2610   18.3050 C   0  0  0  0  0  2  0  0  0  0  0  0
  -28.2110  -13.2490   19.4560 C   0  0  0  0  0  3  0  0  0  0  0  0
  -29.3390  -13.2760   20.5080 C   0  0  0  0  0  2  0  0  0  0  0  0
  -30.6040  -13.6090   19.8260 N   0  0  0  0  0  0  0  0  0  0  0  0
  -32.2800  -14.9670   19.1220 O   0  0  0  0  0  0  0  0  0  0  0  0
  -29.3480  -16.9730   22.0790 C   0  0  0  0  0  2  0  0  0  0  0  0
  -28.7040  -17.1820   20.7110 C   0  0  0  0  0  2  0  0  0  0  0  0
  -30.5870  -16.1100   21.7930 C   0  0  0  0  0  2  0  0  0  0  0  0
  -29.8690  -17.1100   19.7210 C   0  0  0  0  0  3  0  0  0  0  0  0
  -30.6360  -15.9480   20.3370 N   0  0  0  0  0  0  0  0  0  0  0  0
  -25.9210  -13.8650   20.4590 C   0  0  0  0  0  0  0  0  0  0  0  0
  -24.8780  -13.1030   20.9040 C   0  0  0  0  0  0  0  0  0  0  0  0
  -25.2820  -11.7450   20.7310 C   0  0  0  0  0  0  0  0  0  0  0  0
  -26.9080  -12.9750   20.0620 N   0  0  0  0  0  0  0  0  0  0  0  0
  -26.5310  -11.6880   20.2830 N   0  0  0  0  0  0  0  0  0  0  0  0
  -24.5260  -10.4990   20.9070 C   0  0  0  0  0  0  0  0  0  0  0  0
  -24.9020   -9.5360   21.8680 C   0  0  0  0  0  3  0  0  0  0  0  0
  -24.1460   -8.3550   22.0320 C   0  0  0  0  0  3  0  0  0  0  0  0
  -22.9980   -8.1310   21.2350 C   0  0  0  0  0  0  0  0  0  0  0  0
  -22.6420   -9.0810   20.2630 C   0  0  0  0  0  3  0  0  0  0  0  0
  -23.3980  -10.2540   20.0970 C   0  0  0  0  0  3  0  0  0  0  0  0
  -22.2190   -7.0020   21.3060 O   0  0  0  0  0  0  0  0  0  0  0  0
  -21.9620   -6.3800   22.5020 C   0  0  0  0  0  0  0  0  0  0  0  0
  -21.3660   -7.0640   23.5840 C   0  0  0  0  0  3  0  0  0  0  0  0
  -21.0560   -6.3690   24.7700 C   0  0  0  0  0  3  0  0  0  0  0  0
  -21.3310   -4.9920   24.8730 C   0  0  0  0  0  0  0  0  0  0  0  0
  -21.9200   -4.3090   23.7940 C   0  0  0  0  0  3  0  0  0  0  0  0
  -22.2310   -5.0010   22.6100 C   0  0  0  0  0  0  0  0  0  0  0  0
  -22.7790   -4.3340   21.5660 F   0  0  0  0  0  0  0  0  0  0  0  0
  -21.0270   -4.3220   26.0090 F   0  0  0  0  0  0  0  0  0  0  0  0
  -23.5380  -13.6090   21.3560 C   0  0  0  0  0  0  0  0  0  0  0  0
  -22.8960  -12.9040   22.2800 N   0  0  0  0  0  0  0  0  0  0  0  0
  -23.0740  -14.6650   20.9270 O   0  0  0  0  0  0  0  0  0  0  0  0
  -23.2840  -12.0510   22.6530 H   0  0  0  0  0  0  0  0  0  0  0  0
  -22.0000  -13.2240   22.6210 H   0  0  0  0  0  0  0  0  0  0  0  0
  -26.0880  -15.2370   20.3290 N   0  0  0  0  0  0  0  0  0  0  0  0
  -25.3320  -15.8820   20.5320 H   0  0  0  0  0  0  0  0  0  0  0  0
  -26.8670  -15.6750   19.8570 H   0  0  0  0  0  0  0  0  0  0  0  0
  -28.9180  -22.3520   19.8830 C   0  0  0  0  0  3  0  0  0  0  0  0
  -29.2640  -23.8480   20.3830 C   0  0  0  0  0  3  0  0  0  0  0  0
  -28.2240  -25.0170   20.0300 C   0  0  0  0  0  3  0  0  0  0  0  0
  -28.4250  -26.4390   20.4420 O   0  0  0  0  0  0  0  0  0  0  0  0
  -24.7060  -31.8830   23.4380 C   0  0  0  0  0  0  0  0  0  0  0  0
  -27.3230  -27.3190   20.3710 C   0  0  0  0  0  0  0  0  0  0  0  0
  -23.5140  -30.5110   21.7690 C   0  0  0  0  0  3  0  0  0  0  0  0
  -24.9710  -28.9670   20.3440 C   0  0  0  0  0  0  0  0  0  0  0  0
  -26.0610  -30.8070   21.6240 C   0  0  0  0  0  2  0  0  0  0  0  0
  -26.1380  -29.4340   20.9630 C   0  0  0  0  0  0  0  0  0  0  0  0
  -27.3150  -28.6230   20.9670 C   0  0  0  0  0  3  0  0  0  0  0  0
  -26.1320  -26.9190   19.7190 C   0  0  0  0  0  3  0  0  0  0  0  0
  -24.9730  -27.7170   19.7110 C   0  0  0  0  0  3  0  0  0  0  0  0
  -23.7400  -29.8500   20.3850 C   0  0  0  0  0  2  0  0  0  0  0  0
  -24.7790  -31.0850   22.3340 N   0  0  0  0  0  0  0  0  0  0  0  0
  -23.6170  -32.1650   23.9610 O   0  0  0  0  0  0  0  0  0  0  0  0
  -22.8300  -29.4900   22.7110 C   0  0  0  0  0  0  0  0  0  0  0  0
  -21.5160  -29.2830   22.5270 N   0  0  0  0  0  0  0  0  0  0  0  0
  -23.4850  -28.8880   23.5670 O   0  0  0  0  0  0  0  0  0  0  0  0
  -21.0460  -29.8210   21.8110 H   0  0  0  0  0  0  0  0  0  0  0  0
  -18.1460  -28.0160   22.8850 C   0  0  0  0  0  0  0  0  0  0  0  0
  -20.6820  -28.3360   23.2710 C   0  0  0  0  0  3  0  0  0  0  0  0
  -20.8420  -26.9010   22.7200 C   0  0  0  0  0  2  0  0  0  0  0  0
  -19.7970  -26.5400   21.6610 C   0  0  0  0  0  2  0  0  0  0  0  0
  -18.3830  -26.6640   22.2370 C   0  0  0  0  0  2  0  0  0  0  0  0
  -19.2260  -28.8090   23.3570 C   0  0  0  0  0  0  0  0  0  0  0  0
  -18.9530  -30.0730   23.9220 C   0  0  0  0  0  3  0  0  0  0  0  0
  -17.6310  -30.5470   24.0200 C   0  0  0  0  0  3  0  0  0  0  0  0
  -16.5640  -29.7530   23.5670 C   0  0  0  0  0  3  0  0  0  0  0  0
  -16.8220  -28.4890   23.0050 C   0  0  0  0  0  3  0  0  0  0  0  0
  -25.9850  -32.5000   24.0830 C   0  0  0  0  0  3  0  0  0  0  0  0
  -25.7170  -33.9250   24.3240 N   0  0  0  0  0  0  0  0  0  0  0  0
  -26.0990  -34.9200   23.5130 C   0  0  0  0  0  0  0  0  0  0  0  0
  -26.7820  -34.7350   22.5020 O   0  0  0  0  0  0  0  0  0  0  0  0
  -25.1150  -34.1460   25.1030 H   0  0  0  0  0  0  0  0  0  0  0  0
  -24.4350  -36.7450   23.0300 C   0  0  0  0  0  1  0  0  0  0  0  0
  -25.6530  -36.3500   23.8810 C   0  0  0  0  0  3  0  0  0  0  0  0
  -27.8000  -37.2200   24.6930 C   0  0  0  0  0  1  0  0  0  0  0  0
  -26.7200  -37.3600   23.7200 N   0  0  0  0  0  0  0  0  0  0  0  0
  -26.3420  -38.3000   23.7990 H   0  0  0  0  0  0  0  0  0  0  0  0
  -26.4130  -31.7820   25.4220 C   0  0  1  0  0  0  0  0  0  0  0  0
  -25.2600  -31.6290   26.4400 C   0  0  0  0  0  1  0  0  0  0  0  0
  -26.9760  -30.3710   25.1300 C   0  0  0  0  0  1  0  0  0  0  0  0
  -27.5490  -32.5800   26.1040 C   0  0  0  0  0  1  0  0  0  0  0  0
  2  5  1  0
  2  3  1  0
  2  1  1  0
  4  2  1  0
  6 12  1  0
  6 18  1  0
  7 12  1  0
  8  9  1  0
  8  7  1  0
 10  9  1  0
 10 22  1  0
 10 11  1  0
 12 11  1  0
 13  6  2  0
 15 14  1  0
 16 14  1  0
 17  5  1  0
 17 18  1  0
 17 15  1  0
 18 16  1  0
 19 20  2  0
 20 39  1  0
 21 20  1  0
 21 24  1  0
 22 23  1  0
 22 19  1  0
 23 21  2  0
 24 25  1  0
 25 26  2  0
 27 30  1  0
 27 26  1  0
 28 27  2  0
 29 28  1  0
 29 24  2  0
 30 31  1  0
 31 36  2  0
 31 32  1  0
 32 33  2  0
 33 34  1  0
 34 38  1  0
 35 34  2  0
 36 35  1  0
 37 36  1  0
 39 40  1  0
 40 43  1  0
 40 42  1  0
 41 39  2  0
 44 19  1  0
 44 45  1  0
 46 44  1  0
 47  1  2  0
 47 48  1  0
 49 48  2  0
 49 50  1  0
 51 62  2  0
 52 50  1  0
 52 57  1  0
 53 61  1  0
 53 63  1  0
 54 60  1  0
 54 56  1  0
 55 61  1  0
 56 57  2  0
 56 55  1  0
 58 52  2  0
 59 58  1  0
 59 54  2  0
 60 53  1  0
 61 51  1  0
 63 65  2  0
 64 63  1  0
 66 64  1  0
 67 76  2  0
 67 72  1  0
 68 64  1  0
 68 72  1  0
 69 68  1  0
 70 71  1  0
 70 69  1  0
 71 67  1  0
 72 73  2  0
 73 74  1  0
 75 74  2  0
 76 75  1  0
 77 51  1  0
 77 78  1  0
 77 87  1  0
 78 81  1  0
 79 83  1  0
 79 78  1  0
 80 79  2  0
 83 82  1  0
 85 86  1  0
 85 83  1  0
 85 84  1  0
 87 90  1  1
 87 88  1  0
 89 87  1  0
M  ISO  4   6 100  18 100  49 101  50 101
M  END
>  <TORSDO>  (63) 
F 21

>  <SCORE>  (63) 
-11.520

>  <name>  (63) 
62

>  <ligand_id>  (63) 
62

>  <original_smiles>  (63) 
[H]c1c([H])c([H])c2c(c1[H])C([H])([H])C([H])([H])C([H])([H])C2([H])N([H])C(=O)C1([H])N(C(=O)C([H])(N([H])C(=O)C([H])(N([H])C([H])([H])[H])C([H])([H])[H])C(C([H])([H])[H])(C([H])([H])[H])C([H])([H])[H])C([H])([H])c2c([H])c(OC([H])([H])C([H])([H])C([H])([H])C([H])([H])[N+]([H])([H])C([H])([H])C3([H])N(C(=O)N4C([H])([H])C([H])([H])C([H])([H])C([H])(n5nc(-c6c([H])c([H])c(Oc7c([H])c([H])c(F)c([H])c7F)c([H])c6[H])c(C(=O)N([H])[H])c5N([H])[H])C4([H])[H])C([H])([H])C([H])([H])C3([H])[H])c([H])c([H])c2C1([H])[H]

>  <smiles>  (63) 
[H]c1c([H])c([H])c2c(c1[H])C([H])([H])C([H])([H])C([H])([H])C2([H])N([H])C(=O)C1([H])N(C(=O)C([H])(N([H])C(=O)C([H])(N([H])C([H])([H])[H])C([H])([H])[H])C(C([H])([H])[H])(C([H])([H])[H])C([H])([H])[H])C([H])([H])c2c([H])c(OC([H])([H])C([H])([H])C([H])([H])C([H])([H])[N+]([H])([H])C([H])([H])C3([H])N(C(=O)N4C([H])([H])C([H])([H])C([H])([H])C([H])(n5nc(-c6c([H])c([H])c(Oc7c([H])c([H])c(F)c([H])c7F)c([H])c6[H])c(C(=O)N([H])[H])c5N([H])[H])C4([H])[H])C([H])([H])C([H])([H])C3([H])[H])c([H])c([H])c2C1([H])[H]

$$$$
63:0:0
     RDKit          3D

100108  0  0  1  0  0  0  0  0999 V2000
  -26.9700  -23.4650   18.5980 C   0  0  0  0  0  3  0  0  0  0  0  0
  -25.4190  -21.9830   19.7660 C   0  0  0  0  0  3  0  0  0  0  0  0
  -27.3710  -22.3970   17.7750 C   0  0  0  0  0  3  0  0  0  0  0  0
  -25.8110  -20.9120   18.9410 C   0  0  0  0  0  3  0  0  0  0  0  0
  -26.0420  -23.2450   19.6380 C   0  0  0  0  0  0  0  0  0  0  0  0
  -26.8440  -21.1090   17.9980 C   0  0  0  0  0  0  0  0  0  0  0  0
  -25.7020  -24.3050   20.5910 C   0  0  0  0  0  0  0  0  0  0  0  0
  -24.4170  -24.5560   20.8110 N   0  0  0  0  0  4  0  0  0  0  0  0
  -26.6010  -25.0110   21.2930 N   0  0  0  0  0  0  0  0  0  0  0  0
  -23.7450  -24.0340   20.2690 H   0  0  0  0  0  0  0  0  0  0  0  0
  -24.0850  -25.1360   21.5630 H   0  0  0  0  0  0  0  0  0  0  0  0
  -26.2390  -25.7010   21.9290 H   0  0  0  0  0  0  0  0  0  0  0  0
  -28.0760  -24.8740   21.3580 C   0  0  0  0  0  2  0  0  0  0  0  0
  -28.7770  -26.2510   21.4030 C   0  0  0  0  0  2  0  0  0  0  0  0
  -28.6160  -26.9490   20.1630 O   0  0  0  0  0  0  0  0  0  0  0  0
  -24.7340  -31.9270   23.3730 C   0  0  0  0  0  0  0  0  0  0  0  0
  -27.4770  -27.7090   20.1240 C   0  0  0  0  0  0  0  0  0  0  0  0
  -23.5720  -30.5990   21.6320 C   0  0  0  0  0  3  0  0  0  0  0  0
  -25.0700  -29.1660   20.1440 C   0  0  0  0  0  0  0  0  0  0  0  0
  -26.0920  -31.0050   21.5010 C   0  0  0  0  0  2  0  0  0  0  0  0
  -26.2010  -29.6760   20.7940 C   0  0  0  0  0  0  0  0  0  0  0  0
  -27.4090  -28.9500   20.7930 C   0  0  0  0  0  3  0  0  0  0  0  0
  -26.3460  -27.2220   19.4400 C   0  0  0  0  0  3  0  0  0  0  0  0
  -25.1370  -27.9410   19.4570 C   0  0  0  0  0  3  0  0  0  0  0  0
  -23.8070  -29.9950   20.2200 C   0  0  0  0  0  2  0  0  0  0  0  0
  -24.8150  -31.1890   22.2280 N   0  0  0  0  0  0  0  0  0  0  0  0
  -23.6410  -32.1550   23.9090 O   0  0  0  0  0  0  0  0  0  0  0  0
  -22.9170  -29.5210   22.5230 C   0  0  0  0  0  0  0  0  0  0  0  0
  -21.6110  -29.2980   22.3180 N   0  0  0  0  0  0  0  0  0  0  0  0
  -23.5820  -28.8940   23.3520 O   0  0  0  0  0  0  0  0  0  0  0  0
  -21.1410  -29.8460   21.6110 H   0  0  0  0  0  0  0  0  0  0  0  0
  -18.2580  -28.0000   22.6410 C   0  0  0  0  0  0  0  0  0  0  0  0
  -20.7930  -28.3100   23.0170 C   0  0  0  0  0  3  0  0  0  0  0  0
  -20.9480  -26.9090   22.3870 C   0  0  0  0  0  2  0  0  0  0  0  0
  -19.8950  -26.6190   21.3120 C   0  0  0  0  0  2  0  0  0  0  0  0
  -18.4980  -26.6780   21.9300 C   0  0  0  0  0  2  0  0  0  0  0  0
  -19.3380  -28.7700   23.1430 C   0  0  0  0  0  0  0  0  0  0  0  0
  -19.0680  -29.9990   23.7810 C   0  0  0  0  0  3  0  0  0  0  0  0
  -17.7440  -30.4590   23.9200 C   0  0  0  0  0  3  0  0  0  0  0  0
  -16.6740  -29.6890   23.4270 C   0  0  0  0  0  3  0  0  0  0  0  0
  -16.9330  -28.4600   22.7950 C   0  0  0  0  0  3  0  0  0  0  0  0
  -26.0040  -32.5310   24.0510 C   0  0  0  0  0  3  0  0  0  0  0  0
  -25.7170  -33.9380   24.3560 N   0  0  0  0  0  0  0  0  0  0  0  0
  -26.0820  -34.9720   23.5890 C   0  0  0  0  0  0  0  0  0  0  0  0
  -26.7760  -34.8450   22.5770 O   0  0  0  0  0  0  0  0  0  0  0  0
  -25.1140  -34.1170   25.1450 H   0  0  0  0  0  0  0  0  0  0  0  0
  -24.3750  -36.7760   23.1810 C   0  0  0  0  0  1  0  0  0  0  0  0
  -25.6020  -36.3710   24.0130 C   0  0  0  0  0  3  0  0  0  0  0  0
  -27.7280  -37.2580   24.8600 C   0  0  0  0  0  1  0  0  0  0  0  0
  -26.6440  -37.4120   23.8940 N   0  0  0  0  0  0  0  0  0  0  0  0
  -26.2430  -38.3380   24.0120 H   0  0  0  0  0  0  0  0  0  0  0  0
  -26.4490  -31.7540   25.3530 C   0  0  1  0  0  0  0  0  0  0  0  0
  -25.2960  -31.4920   26.3470 C   0  0  0  0  0  1  0  0  0  0  0  0
  -27.0720  -30.3860   24.9880 C   0  0  0  0  0  1  0  0  0  0  0  0
  -27.5390  -32.5600   26.1030 C   0  0  0  0  0  1  0  0  0  0  0  0
  -27.5690  -19.9130   17.4300 C   0  0  0  0  0  2  0  0  0  0  0  0
  -28.2150  -19.3200   18.6090 N   0  0  0  0  0  4  0  0  0  0  0  0
  -27.4910  -19.0100   19.2360 H   0  0  0  0  0  0  0  0  0  0  0  0
  -28.7100  -20.0640   19.0710 H   0  0  0  0  0  0  0  0  0  0  0  0
  -29.1690  -18.2280   18.4090 C   0  0  0  0  0  2  0  0  0  0  0  0
  -29.8920  -17.9830   19.7440 C   0  0  0  0  0  2  0  0  0  0  0  0
  -31.0920  -17.0480   19.6260 C   0  0  0  0  0  2  0  0  0  0  0  0
  -31.3930  -14.5980   19.5780 C   0  0  0  0  0  0  0  0  0  0  0  0
  -31.1210  -12.2150   19.0660 C   0  0  0  0  0  2  0  0  0  0  0  0
  -30.1360  -12.0720   17.8880 C   0  0  0  0  0  2  0  0  0  0  0  0
  -28.6800  -12.0320   18.3970 C   0  0  0  0  0  2  0  0  0  0  0  0
  -28.3570  -13.1730   19.3960 C   0  0  0  0  0  3  0  0  0  0  0  0
  -29.4530  -13.2730   20.4830 C   0  0  0  0  0  2  0  0  0  0  0  0
  -30.7530  -13.4280   19.8050 N   0  0  0  0  0  0  0  0  0  0  0  0
  -32.4590  -14.6960   18.9650 O   0  0  0  0  0  0  0  0  0  0  0  0
  -30.7130  -15.6810   19.9540 N   0  0  0  0  0  0  0  0  0  0  0  0
  -29.8410  -15.5250   20.4410 H   0  0  0  0  0  0  0  0  0  0  0  0
  -26.1130  -13.9730   20.3820 C   0  0  0  0  0  0  0  0  0  0  0  0
  -25.0030  -13.2850   20.8040 C   0  0  0  0  0  0  0  0  0  0  0  0
  -25.3040  -11.9020   20.6240 C   0  0  0  0  0  0  0  0  0  0  0  0
  -27.0260  -13.0080   19.9830 N   0  0  0  0  0  0  0  0  0  0  0  0
  -26.5470  -11.7530   20.1800 N   0  0  0  0  0  0  0  0  0  0  0  0
  -24.4610  -10.7120   20.7920 C   0  0  0  0  0  0  0  0  0  0  0  0
  -24.8100   -9.6820   21.6910 C   0  0  0  0  0  3  0  0  0  0  0  0
  -23.9760   -8.5520   21.8470 C   0  0  0  0  0  3  0  0  0  0  0  0
  -22.7780   -8.4470   21.1010 C   0  0  0  0  0  0  0  0  0  0  0  0
  -22.4440   -9.4650   20.1890 C   0  0  0  0  0  3  0  0  0  0  0  0
  -23.2790  -10.5870   20.0330 C   0  0  0  0  0  3  0  0  0  0  0  0
  -21.9210   -7.3750   21.1680 O   0  0  0  0  0  0  0  0  0  0  0  0
  -21.7180   -6.6860   22.3350 C   0  0  0  0  0  0  0  0  0  0  0  0
  -21.1990   -7.3110   23.4900 C   0  0  0  0  0  3  0  0  0  0  0  0
  -20.9380   -6.5510   24.6470 C   0  0  0  0  0  3  0  0  0  0  0  0
  -21.1910   -5.1650   24.6510 C   0  0  0  0  0  0  0  0  0  0  0  0
  -21.7030   -4.5390   23.5020 C   0  0  0  0  0  3  0  0  0  0  0  0
  -21.9630   -5.2970   22.3470 C   0  0  0  0  0  0  0  0  0  0  0  0
  -22.4360   -4.6840   21.2350 F   0  0  0  0  0  0  0  0  0  0  0  0
  -20.9340   -4.4330   25.7620 F   0  0  0  0  0  0  0  0  0  0  0  0
  -23.7010  -13.8850   21.2480 C   0  0  0  0  0  0  0  0  0  0  0  0
  -22.9970  -13.2170   22.1560 N   0  0  0  0  0  0  0  0  0  0  0  0
  -23.3190  -14.9740   20.8220 O   0  0  0  0  0  0  0  0  0  0  0  0
  -23.3180  -12.3320   22.5180 H   0  0  0  0  0  0  0  0  0  0  0  0
  -22.1230  -13.5940   22.4920 H   0  0  0  0  0  0  0  0  0  0  0  0
  -26.4060  -15.3270   20.2730 N   0  0  0  0  0  0  0  0  0  0  0  0
  -25.6190  -15.9610   20.3600 H   0  0  0  0  0  0  0  0  0  0  0  0
  -27.0450  -15.6020   19.5380 H   0  0  0  0  0  0  0  0  0  0  0  0
  1  5  1  0
  3  6  1  0
  3  1  2  0
  4  2  1  0
  5  2  2  0
  5  7  1  0
  6  4  2  0
  7  8  2  0
  7  9  1  0
  8 11  1  0
  9 13  1  0
  9 12  1  0
 10  8  1  0
 13 14  1  0
 15 14  1  0
 16 27  2  0
 17 15  1  0
 17 22  1  0
 18 26  1  0
 18 28  1  0
 19 25  1  0
 19 21  1  0
 20 26  1  0
 21 20  1  0
 22 21  2  0
 23 24  1  0
 23 17  2  0
 24 19  2  0
 25 18  1  0
 26 16  1  0
 28 30  2  0
 29 28  1  0
 31 29  1  0
 32 41  2  0
 32 37  1  0
 33 29  1  0
 33 37  1  0
 34 33  1  0
 35 36  1  0
 35 34  1  0
 36 32  1  0
 37 38  2  0
 38 39  1  0
 40 39  2  0
 41 40  1  0
 42 16  1  0
 42 43  1  0
 42 52  1  0
 43 46  1  0
 44 48  1  0
 44 43  1  0
 45 44  2  0
 48 47  1  0
 50 51  1  0
 50 48  1  0
 50 49  1  0
 52 55  1  1
 52 53  1  0
 54 52  1  0
 56  6  1  0
 56 57  1  0
 57 59  1  0
 57 58  1  0
 60 57  1  0
 60 61  1  0
 62 61  1  0
 62 71  1  0
 63 69  1  0
 63 71  1  0
 64 69  1  0
 65 66  1  0
 65 64  1  0
 67 66  1  0
 67 76  1  0
 67 68  1  0
 69 68  1  0
 70 63  2  0
 71 72  1  0
 73 74  2  0
 74 93  1  0
 75 78  1  0
 75 74  1  0
 76 77  1  0
 76 73  1  0
 77 75  2  0
 78 79  1  0
 79 80  2  0
 81 84  1  0
 81 80  1  0
 82 81  2  0
 83 82  1  0
 83 78  2  0
 84 85  1  0
 85 90  2  0
 85 86  1  0
 86 87  2  0
 87 88  1  0
 88 92  1  0
 89 88  2  0
 90 89  1  0
 91 90  1  0
 93 94  1  0
 94 97  1  0
 94 96  1  0
 95 93  2  0
 98 99  1  0
 98 73  1  0
100 98  1  0
M  ISO  4  14 101  15 101  63 100  71 100
M  END
>  <TORSDO>  (64) 
F 24

>  <SCORE>  (64) 
-11.028

>  <name>  (64) 
63

>  <ligand_id>  (64) 
63

>  <original_smiles>  (64) 
[H]c1c([H])c([H])c2c(c1[H])C([H])([H])C([H])([H])C([H])([H])C2([H])N([H])C(=O)C1([H])N(C(=O)C([H])(N([H])C(=O)C([H])(N([H])C([H])([H])[H])C([H])([H])[H])C(C([H])([H])[H])(C([H])([H])[H])C([H])([H])[H])C([H])([H])c2c([H])c(OC([H])([H])C([H])([H])[N+]([H])=C(c3c([H])c([H])c(C([H])([H])[N+]([H])([H])C([H])([H])C([H])([H])C([H])([H])N([H])C(=O)N4C([H])([H])C([H])([H])C([H])([H])C([H])(n5nc(-c6c([H])c([H])c(Oc7c([H])c([H])c(F)c([H])c7F)c([H])c6[H])c(C(=O)N([H])[H])c5N([H])[H])C4([H])[H])c([H])c3[H])N([H])[H])c([H])c([H])c2C1([H])[H]

>  <smiles>  (64) 
[H]c1c([H])c([H])c2c(c1[H])C([H])([H])C([H])([H])C([H])([H])C2([H])N([H])C(=O)C1([H])N(C(=O)C([H])(N([H])C(=O)C([H])(N([H])C([H])([H])[H])C([H])([H])[H])C(C([H])([H])[H])(C([H])([H])[H])C([H])([H])[H])C([H])([H])c2c([H])c(OC([H])([H])C([H])([H])[N+]([H])=C(c3c([H])c([H])c(C([H])([H])[N+]([H])([H])C([H])([H])C([H])([H])C([H])([H])N([H])C(=O)N4C([H])([H])C([H])([H])C([H])([H])C([H])(n5nc(-c6c([H])c([H])c(Oc7c([H])c([H])c(F)c([H])c7F)c([H])c6[H])c(C(=O)N([H])[H])c5N([H])[H])C4([H])[H])c([H])c3[H])N([H])[H])c([H])c([H])c2C1([H])[H]

$$$$
64:0:0
     RDKit          3D

 93101  0  0  1  0  0  0  0  0999 V2000
  -31.2440  -23.7520   17.4060 C   0  0  0  0  0  2  0  0  0  0  0  0
  -31.3760  -22.2580   17.0880 C   0  0  0  0  0  2  0  0  0  0  0  0
  -30.0770  -24.0430   18.3540 C   0  0  0  0  0  2  0  0  0  0  0  0
  -31.8580  -21.4010   18.2660 C   0  0  0  0  0  2  0  0  0  0  0  0
  -31.1190  -22.5920   20.3120 C   0  0  0  0  0  2  0  0  0  0  0  0
  -30.4200  -23.9270   19.8580 C   0  0  0  0  0  3  0  0  0  0  0  0
  -30.9180  -21.3990   19.4250 N   0  0  2  0  0  4  0  0  0  0  0  0
  -29.9790  -21.4720   19.0630 H   0  0  0  0  0  0  0  0  0  0  0  0
  -29.2250  -24.2830   20.7880 C   0  0  0  0  0  2  0  0  0  0  0  0
  -28.1080  -25.2170   20.2610 C   0  0  0  0  0  2  0  0  0  0  0  0
  -28.3790  -26.6330   20.2000 O   0  0  0  0  0  0  0  0  0  0  0  0
  -24.6340  -31.8800   23.2440 C   0  0  0  0  0  0  0  0  0  0  0  0
  -27.2380  -27.4190   20.1450 C   0  0  0  0  0  0  0  0  0  0  0  0
  -23.4140  -30.4830   21.6120 C   0  0  0  0  0  3  0  0  0  0  0  0
  -24.8540  -28.9560   20.1700 C   0  0  0  0  0  0  0  0  0  0  0  0
  -25.9450  -30.8340   21.3990 C   0  0  0  0  0  2  0  0  0  0  0  0
  -26.0230  -29.4670   20.7480 C   0  0  0  0  0  0  0  0  0  0  0  0
  -27.2190  -28.7100   20.7290 C   0  0  0  0  0  3  0  0  0  0  0  0
  -26.0460  -26.9420   19.5440 C   0  0  0  0  0  3  0  0  0  0  0  0
  -24.8610  -27.6930   19.5640 C   0  0  0  0  0  3  0  0  0  0  0  0
  -23.6140  -29.8150   20.2280 C   0  0  0  0  0  2  0  0  0  0  0  0
  -24.6840  -31.0790   22.1420 N   0  0  0  0  0  0  0  0  0  0  0  0
  -23.5560  -32.1540   23.7900 O   0  0  0  0  0  0  0  0  0  0  0  0
  -22.7690  -29.4580   22.5730 C   0  0  0  0  0  0  0  0  0  0  0  0
  -21.4440  -29.2750   22.4540 N   0  0  0  0  0  0  0  0  0  0  0  0
  -23.4580  -28.8310   23.3820 O   0  0  0  0  0  0  0  0  0  0  0  0
  -20.9480  -29.8340   21.7740 H   0  0  0  0  0  0  0  0  0  0  0  0
  -18.0740  -28.0740   22.9700 C   0  0  0  0  0  0  0  0  0  0  0  0
  -20.6330  -28.3380   23.2320 C   0  0  0  0  0  3  0  0  0  0  0  0
  -20.7360  -26.9050   22.6620 C   0  0  0  0  0  2  0  0  0  0  0  0
  -19.6310  -26.5760   21.6530 C   0  0  0  0  0  2  0  0  0  0  0  0
  -18.2500  -26.7220   22.3000 C   0  0  0  0  0  2  0  0  0  0  0  0
  -19.1940  -28.8400   23.3940 C   0  0  0  0  0  0  0  0  0  0  0  0
  -18.9750  -30.1060   23.9790 C   0  0  0  0  0  3  0  0  0  0  0  0
  -17.6710  -30.6070   24.1460 C   0  0  0  0  0  3  0  0  0  0  0  0
  -16.5660  -29.8390   23.7390 C   0  0  0  0  0  3  0  0  0  0  0  0
  -16.7690  -28.5750   23.1570 C   0  0  0  0  0  3  0  0  0  0  0  0
  -25.9260  -32.5120   23.8510 C   0  0  0  0  0  3  0  0  0  0  0  0
  -25.6190  -33.9060   24.1890 N   0  0  0  0  0  0  0  0  0  0  0  0
  -25.9400  -34.9610   23.4270 C   0  0  0  0  0  0  0  0  0  0  0  0
  -26.5970  -34.8610   22.3880 O   0  0  0  0  0  0  0  0  0  0  0  0
  -25.0380  -34.0590   25.0010 H   0  0  0  0  0  0  0  0  0  0  0  0
  -24.2020  -36.7480   23.0950 C   0  0  0  0  0  1  0  0  0  0  0  0
  -25.4520  -36.3470   23.8930 C   0  0  0  0  0  3  0  0  0  0  0  0
  -27.5950  -37.2310   24.7030 C   0  0  0  0  0  1  0  0  0  0  0  0
  -26.4810  -37.4020   23.7730 N   0  0  0  0  0  0  0  0  0  0  0  0
  -26.0750  -38.3210   23.9310 H   0  0  0  0  0  0  0  0  0  0  0  0
  -26.4610  -31.7340   25.1150 C   0  0  1  0  0  0  0  0  0  0  0  0
  -25.3830  -31.4880   26.1960 C   0  0  0  0  0  1  0  0  0  0  0  0
  -27.0430  -30.3590   24.7080 C   0  0  0  0  0  1  0  0  0  0  0  0
  -27.6180  -32.5260   25.7660 C   0  0  0  0  0  1  0  0  0  0  0  0
  -30.9610  -20.0790   20.1400 C   0  0  0  0  0  2  0  0  0  0  0  0
  -30.0260  -19.0270   19.4820 C   0  0  0  0  0  2  0  0  0  0  0  0
  -30.3850  -17.5240   19.6480 C   0  0  0  0  0  2  0  0  0  0  0  0
  -30.2720  -16.9130   21.0680 C   0  0  0  0  0  2  0  0  0  0  0  0
  -30.6700  -14.4610   20.5460 C   0  0  0  0  0  0  0  0  0  0  0  0
  -30.3680  -12.3090   19.3840 C   0  0  0  0  0  2  0  0  0  0  0  0
  -29.4400  -12.5280   18.1720 C   0  0  0  0  0  2  0  0  0  0  0  0
  -27.9570  -12.4090   18.5840 C   0  0  0  0  0  2  0  0  0  0  0  0
  -27.6160  -13.2420   19.8490 C   0  0  0  0  0  3  0  0  0  0  0  0
  -28.6580  -12.9960   20.9650 C   0  0  0  0  0  2  0  0  0  0  0  0
  -29.9930  -13.2880   20.4140 N   0  0  0  0  0  0  0  0  0  0  0  0
  -31.8010  -14.6440   20.0930 O   0  0  0  0  0  0  0  0  0  0  0  0
  -29.9480  -15.4740   21.0530 N   0  0  0  0  0  0  0  0  0  0  0  0
  -29.0330  -15.2210   21.3970 H   0  0  0  0  0  0  0  0  0  0  0  0
  -25.2080  -13.8720   20.5140 C   0  0  0  0  0  0  0  0  0  0  0  0
  -24.1290  -13.1100   20.8750 C   0  0  0  0  0  0  0  0  0  0  0  0
  -24.5820  -11.7540   20.8650 C   0  0  0  0  0  0  0  0  0  0  0  0
  -26.2520  -12.9830   20.3100 N   0  0  0  0  0  0  0  0  0  0  0  0
  -25.8780  -11.7050   20.5780 N   0  0  0  0  0  0  0  0  0  0  0  0
  -23.8460  -10.4990   21.0550 C   0  0  0  0  0  0  0  0  0  0  0  0
  -24.2710   -9.5280   21.9890 C   0  0  0  0  0  3  0  0  0  0  0  0
  -23.5350   -8.3360   22.1690 C   0  0  0  0  0  3  0  0  0  0  0  0
  -22.3610   -8.1060   21.4140 C   0  0  0  0  0  0  0  0  0  0  0  0
  -21.9560   -9.0630   20.4680 C   0  0  0  0  0  3  0  0  0  0  0  0
  -22.6920  -10.2460   20.2870 C   0  0  0  0  0  3  0  0  0  0  0  0
  -21.5990   -6.9660   21.5030 O   0  0  0  0  0  0  0  0  0  0  0  0
  -21.5560   -6.2150   22.6500 C   0  0  0  0  0  0  0  0  0  0  0  0
  -21.1630   -6.7680   23.8880 C   0  0  0  0  0  3  0  0  0  0  0  0
  -21.0640   -5.9450   25.0290 C   0  0  0  0  0  3  0  0  0  0  0  0
  -21.3530   -4.5700   24.9310 C   0  0  0  0  0  0  0  0  0  0  0  0
  -21.7400   -4.0160   23.6970 C   0  0  0  0  0  3  0  0  0  0  0  0
  -21.8380   -4.8370   22.5610 C   0  0  0  0  0  0  0  0  0  0  0  0
  -22.1910   -4.2950   21.3700 F   0  0  0  0  0  0  0  0  0  0  0  0
  -21.2510   -3.7780   26.0230 F   0  0  0  0  0  0  0  0  0  0  0  0
  -22.7300  -13.5960   21.1210 C   0  0  0  0  0  0  0  0  0  0  0  0
  -21.9860  -12.9140   21.9850 N   0  0  0  0  0  0  0  0  0  0  0  0
  -22.3030  -14.6170   20.5820 O   0  0  0  0  0  0  0  0  0  0  0  0
  -22.3400  -12.0890   22.4450 H   0  0  0  0  0  0  0  0  0  0  0  0
  -21.0450  -13.2210   22.1890 H   0  0  0  0  0  0  0  0  0  0  0  0
  -25.3830  -15.2400   20.3250 N   0  0  0  0  0  0  0  0  0  0  0  0
  -24.6200  -15.9000   20.4260 H   0  0  0  0  0  0  0  0  0  0  0  0
  -26.2400  -15.6700   19.9980 H   0  0  0  0  0  0  0  0  0  0  0  0
  1  3  1  0
  2  1  1  0
  2  4  1  0
  3  6  1  0
  4  7  1  0
  6  5  1  0
  6  9  1  0
  7 52  1  0
  7  5  1  0
  7  8  1  6
 10  9  1  0
 11 10  1  0
 12 23  2  0
 13 11  1  0
 13 18  1  0
 14 22  1  0
 14 24  1  0
 15 21  1  0
 15 17  1  0
 16 22  1  0
 17 16  1  0
 18 17  2  0
 19 20  1  0
 19 13  2  0
 20 15  2  0
 21 14  1  0
 22 12  1  0
 24 26  2  0
 25 24  1  0
 27 25  1  0
 28 37  2  0
 28 33  1  0
 29 25  1  0
 29 33  1  0
 30 29  1  0
 31 32  1  0
 31 30  1  0
 32 28  1  0
 33 34  2  0
 34 35  1  0
 36 35  2  0
 37 36  1  0
 38 12  1  0
 38 39  1  0
 38 48  1  0
 39 42  1  0
 40 44  1  0
 40 39  1  0
 41 40  2  0
 44 43  1  0
 46 44  1  0
 46 47  1  0
 46 45  1  0
 48 51  1  1
 48 49  1  0
 50 48  1  0
 53 54  1  0
 53 52  1  0
 54 55  1  0
 56 64  1  0
 57 62  1  0
 58 59  1  0
 58 57  1  0
 60 59  1  0
 60 69  1  0
 60 61  1  0
 62 56  1  0
 62 61  1  0
 63 56  2  0
 64 55  1  0
 64 65  1  0
 66 67  2  0
 67 86  1  0
 68 67  1  0
 68 71  1  0
 69 66  1  0
 69 70  1  0
 70 68  2  0
 71 72  1  0
 72 73  2  0
 74 77  1  0
 74 73  1  0
 75 74  2  0
 76 75  1  0
 76 71  2  0
 77 78  1  0
 78 79  1  0
 79 80  2  0
 81 80  1  0
 81 85  1  0
 82 81  2  0
 83 78  2  0
 83 82  1  0
 84 83  1  0
 86 87  1  0
 87 90  1  0
 87 89  1  0
 88 86  2  0
 91 92  1  0
 91 66  1  0
 93 91  1  0
M  ISO  4  10 101  11 101  56 100  64 100
M  END
>  <TORSDO>  (65) 
F 22

>  <SCORE>  (65) 
-12.980

>  <name>  (65) 
64

>  <ligand_id>  (65) 
64

>  <original_smiles>  (65) 
[H]c1c([H])c([H])c2c(c1[H])C([H])([H])C([H])([H])C([H])([H])C2([H])N([H])C(=O)C1([H])N(C(=O)C([H])(N([H])C(=O)C([H])(N([H])C([H])([H])[H])C([H])([H])[H])C(C([H])([H])[H])(C([H])([H])[H])C([H])([H])[H])C([H])([H])c2c([H])c(OC([H])([H])C([H])([H])C3([H])C([H])([H])C([H])([H])C([H])([H])C([H])([H])[N+]([H])(C([H])([H])C([H])([H])C([H])([H])C([H])([H])N([H])C(=O)N4C([H])([H])C([H])([H])C([H])([H])C([H])(n5nc(-c6c([H])c([H])c(Oc7c([H])c([H])c(F)c([H])c7F)c([H])c6[H])c(C(=O)N([H])[H])c5N([H])[H])C4([H])[H])C3([H])[H])c([H])c([H])c2C1([H])[H]

>  <smiles>  (65) 
[H]c1c([H])c([H])c2c(c1[H])C([H])([H])C([H])([H])C([H])([H])C2([H])N([H])C(=O)C1([H])N(C(=O)C([H])(N([H])C(=O)C([H])(N([H])C([H])([H])[H])C([H])([H])[H])C(C([H])([H])[H])(C([H])([H])[H])C([H])([H])[H])C([H])([H])c2c([H])c(OC([H])([H])C([H])([H])C3([H])C([H])([H])C([H])([H])C([H])([H])C([H])([H])[N+]([H])(C([H])([H])C([H])([H])C([H])([H])C([H])([H])N([H])C(=O)N4C([H])([H])C([H])([H])C([H])([H])C([H])(n5nc(-c6c([H])c([H])c(Oc7c([H])c([H])c(F)c([H])c7F)c([H])c6[H])c(C(=O)N([H])[H])c5N([H])[H])C4([H])[H])C3([H])[H])c([H])c([H])c2C1([H])[H]

$$$$
65:0:0
     RDKit          3D

 97106  0  0  1  0  0  0  0  0999 V2000
  -30.6280  -20.2430   19.4530 C   0  0  0  0  0  2  0  0  0  0  0  0
  -30.6150  -18.6470   19.2250 C   0  0  0  0  0  2  0  0  0  0  0  0
  -27.2180  -20.8260   20.6670 C   0  0  0  0  0  2  0  0  0  0  0  0
  -28.7290  -18.6510   20.8150 C   0  0  0  0  0  2  0  0  0  0  0  0
  -27.9240  -22.1640   20.9830 C   0  0  0  0  0  2  0  0  0  0  0  0
  -28.2210  -19.9140   19.9450 C   0  0  0  0  0  3  0  0  0  0  0  0
  -29.2310  -20.9660   19.3590 C   0  0  0  0  0  3  0  0  0  0  0  0
  -30.0160  -17.7740   20.4020 C   0  0  1  0  0  0  0  0  0  0  0  0
  -29.0180  -22.3750   20.0030 N   0  0  1  0  0  4  0  0  0  0  0  0
  -29.8310  -22.5280   20.5820 H   0  0  0  0  0  0  0  0  0  0  0  0
  -30.4860  -15.1500   19.6720 C   0  0  0  0  0  0  0  0  0  0  0  0
  -30.2770  -12.8940   18.5600 C   0  0  0  0  0  2  0  0  0  0  0  0
  -29.2000  -12.9350   17.4540 C   0  0  0  0  0  2  0  0  0  0  0  0
  -27.8100  -12.6430   18.0470 C   0  0  0  0  0  2  0  0  0  0  0  0
  -27.5310  -13.4760   19.3250 C   0  0  0  0  0  3  0  0  0  0  0  0
  -28.7130  -13.4270   20.3160 C   0  0  0  0  0  2  0  0  0  0  0  0
  -29.9020  -13.8960   19.5920 N   0  0  0  0  0  0  0  0  0  0  0  0
  -31.6290  -15.2900   19.2290 O   0  0  0  0  0  0  0  0  0  0  0  0
  -29.7240  -16.2580   20.1050 N   0  0  0  0  0  0  0  0  0  0  0  0
  -28.7790  -15.9880   20.3320 H   0  0  0  0  0  0  0  0  0  0  0  0
  -25.2410  -13.9250   20.3800 C   0  0  0  0  0  0  0  0  0  0  0  0
  -24.2540  -13.0900   20.8250 C   0  0  0  0  0  0  0  0  0  0  0  0
  -24.7500  -11.7610   20.6470 C   0  0  0  0  0  0  0  0  0  0  0  0
  -26.2710  -13.1030   19.9580 N   0  0  0  0  0  0  0  0  0  0  0  0
  -25.9930  -11.7920   20.1830 N   0  0  0  0  0  0  0  0  0  0  0  0
  -24.0910  -10.4640   20.8370 C   0  0  0  0  0  0  0  0  0  0  0  0
  -24.5760   -9.5170   21.7640 C   0  0  0  0  0  3  0  0  0  0  0  0
  -23.9110   -8.2840   21.9420 C   0  0  0  0  0  3  0  0  0  0  0  0
  -22.7480   -7.9900   21.1920 C   0  0  0  0  0  0  0  0  0  0  0  0
  -22.2840   -8.9260   20.2510 C   0  0  0  0  0  3  0  0  0  0  0  0
  -22.9490  -10.1510   20.0720 C   0  0  0  0  0  3  0  0  0  0  0  0
  -22.0520   -6.8080   21.2800 O   0  0  0  0  0  0  0  0  0  0  0  0
  -21.9620   -6.1120   22.4600 C   0  0  0  0  0  0  0  0  0  0  0  0
  -21.4020   -6.6840   23.6220 C   0  0  0  0  0  3  0  0  0  0  0  0
  -21.2640   -5.9100   24.7910 C   0  0  0  0  0  3  0  0  0  0  0  0
  -21.6790   -4.5650   24.7990 C   0  0  0  0  0  0  0  0  0  0  0  0
  -22.2310   -3.9920   23.6400 C   0  0  0  0  0  3  0  0  0  0  0  0
  -22.3700   -4.7630   22.4720 C   0  0  0  0  0  0  0  0  0  0  0  0
  -22.8840   -4.2010   21.3520 F   0  0  0  0  0  0  0  0  0  0  0  0
  -21.5390   -3.8180   25.9190 F   0  0  0  0  0  0  0  0  0  0  0  0
  -22.8870  -13.4950   21.2940 C   0  0  0  0  0  0  0  0  0  0  0  0
  -22.3170  -12.7490   22.2340 N   0  0  0  0  0  0  0  0  0  0  0  0
  -22.3380  -14.5080   20.8640 O   0  0  0  0  0  0  0  0  0  0  0  0
  -22.7790  -11.9290   22.5990 H   0  0  0  0  0  0  0  0  0  0  0  0
  -21.4070  -12.9990   22.5920 H   0  0  0  0  0  0  0  0  0  0  0  0
  -25.3380  -15.3110   20.2760 N   0  0  0  0  0  0  0  0  0  0  0  0
  -24.5560  -15.9180   20.4950 H   0  0  0  0  0  0  0  0  0  0  0  0
  -26.1130  -15.8040   19.8530 H   0  0  0  0  0  0  0  0  0  0  0  0
  -31.0370  -17.8300   21.5870 C   0  0  0  0  0  2  0  0  0  0  0  0
  -30.5430  -17.3160   22.9630 C   0  0  0  0  0  2  0  0  0  0  0  0
  -31.3820  -17.8020   24.0750 N   0  0  0  0  0  4  0  0  0  0  0  0
  -32.3430  -17.5390   23.9530 H   0  0  0  0  0  0  0  0  0  0  0  0
  -31.0580  -17.4100   24.9430 H   0  0  0  0  0  0  0  0  0  0  0  0
  -31.3280  -18.8020   24.1530 H   0  0  0  0  0  0  0  0  0  0  0  0
  -28.8970  -23.7010   19.1520 C   0  0  0  0  0  3  0  0  0  0  0  0
  -28.2500  -25.1090   19.7580 C   0  0  0  0  0  3  0  0  0  0  0  0
  -28.2670  -26.4970   19.1040 O   0  0  0  0  0  0  0  0  0  0  0  0
  -24.7800  -31.6950   22.9150 C   0  0  0  0  0  0  0  0  0  0  0  0
  -27.1800  -27.4060   19.2600 C   0  0  0  0  0  0  0  0  0  0  0  0
  -23.4750  -30.4610   21.2220 C   0  0  0  0  0  3  0  0  0  0  0  0
  -24.8340  -29.0640   19.5500 C   0  0  0  0  0  0  0  0  0  0  0  0
  -26.0030  -30.7960   20.9090 C   0  0  0  0  0  2  0  0  0  0  0  0
  -26.0450  -29.4830   20.1180 C   0  0  0  0  0  0  0  0  0  0  0  0
  -27.2230  -28.6730   19.9530 C   0  0  0  0  0  3  0  0  0  0  0  0
  -25.9460  -27.0690   18.6710 C   0  0  0  0  0  3  0  0  0  0  0  0
  -24.7940  -27.8710   18.8100 C   0  0  0  0  0  3  0  0  0  0  0  0
  -23.6020  -29.9270   19.7700 C   0  0  0  0  0  2  0  0  0  0  0  0
  -24.7760  -30.9990   21.7380 N   0  0  0  0  0  0  0  0  0  0  0  0
  -23.7320  -31.9090   23.5430 O   0  0  0  0  0  0  0  0  0  0  0  0
  -22.8740  -29.3500   22.1180 C   0  0  0  0  0  0  0  0  0  0  0  0
  -21.5420  -29.1720   22.0560 N   0  0  0  0  0  0  0  0  0  0  0  0
  -23.6040  -28.6530   22.8270 O   0  0  0  0  0  0  0  0  0  0  0  0
  -21.0090  -29.7930   21.4620 H   0  0  0  0  0  0  0  0  0  0  0  0
  -18.2100  -27.8840   22.6390 C   0  0  0  0  0  0  0  0  0  0  0  0
  -20.7780  -28.1500   22.7750 C   0  0  0  0  0  3  0  0  0  0  0  0
  -20.8540  -26.7860   22.0520 C   0  0  0  0  0  2  0  0  0  0  0  0
  -19.6920  -26.5530   21.0800 C   0  0  0  0  0  2  0  0  0  0  0  0
  -18.3510  -26.6150   21.8180 C   0  0  0  0  0  2  0  0  0  0  0  0
  -19.3480  -28.6140   23.0750 C   0  0  0  0  0  0  0  0  0  0  0  0
  -19.1580  -29.8070   23.8070 C   0  0  0  0  0  3  0  0  0  0  0  0
  -17.8640  -30.2680   24.1080 C   0  0  0  0  0  3  0  0  0  0  0  0
  -16.7400  -29.5340   23.6880 C   0  0  0  0  0  3  0  0  0  0  0  0
  -16.9150  -28.3430   22.9600 C   0  0  0  0  0  3  0  0  0  0  0  0
  -26.0950  -32.2730   23.5190 C   0  0  0  0  0  3  0  0  0  0  0  0
  -25.8060  -33.6310   24.0040 N   0  0  0  0  0  0  0  0  0  0  0  0
  -26.1140  -34.7580   23.3500 C   0  0  0  0  0  0  0  0  0  0  0  0
  -26.7420  -34.7630   22.2880 O   0  0  0  0  0  0  0  0  0  0  0  0
  -25.2500  -33.7000   24.8420 H   0  0  0  0  0  0  0  0  0  0  0  0
  -24.3860  -36.5860   23.2570 C   0  0  0  0  0  1  0  0  0  0  0  0
  -25.6550  -36.0920   23.9720 C   0  0  0  0  0  3  0  0  0  0  0  0
  -27.8220  -36.8820   24.8130 C   0  0  0  0  0  1  0  0  0  0  0  0
  -26.6880  -37.1490   23.9330 N   0  0  0  0  0  0  0  0  0  0  0  0
  -26.2920  -38.0490   24.1920 H   0  0  0  0  0  0  0  0  0  0  0  0
  -26.6870  -31.3870   24.6840 C   0  0  1  0  0  0  0  0  0  0  0  0
  -25.6610  -31.0560   25.7940 C   0  0  0  0  0  1  0  0  0  0  0  0
  -27.2330  -30.0490   24.1330 C   0  0  0  0  0  1  0  0  0  0  0  0
  -27.8840  -32.1160   25.3390 C   0  0  0  0  0  1  0  0  0  0  0  0
  2  1  1  0
  2  8  1  0
  3  5  1  0
  6  3  1  0
  6  4  1  0
  7  1  1  0
  7  6  1  0
  7  9  1  0
  8  4  1  0
  8 49  1  1
  9 10  1  1
  9  5  1  0
 11 19  1  0
 12 17  1  0
 13 14  1  0
 13 12  1  0
 15 14  1  0
 15 24  1  0
 15 16  1  0
 17 11  1  0
 17 16  1  0
 18 11  2  0
 19 20  1  0
 19  8  1  0
 21 22  2  0
 22 41  1  0
 23 22  1  0
 23 26  1  0
 24 25  1  0
 24 21  1  0
 25 23  2  0
 26 27  1  0
 27 28  2  0
 29 32  1  0
 29 28  1  0
 30 29  2  0
 31 30  1  0
 31 26  2  0
 32 33  1  0
 33 38  2  0
 33 34  1  0
 34 35  2  0
 35 36  1  0
 36 40  1  0
 37 36  2  0
 38 37  1  0
 39 38  1  0
 41 42  1  0
 42 45  1  0
 42 44  1  0
 43 41  2  0
 46 21  1  0
 46 47  1  0
 48 46  1  0
 49 50  1  0
 50 51  1  0
 51 54  1  0
 51 53  1  0
 52 51  1  0
 55 56  2  0
 55  9  1  0
 57 59  1  0
 57 56  1  0
 58 69  2  0
 59 64  1  0
 60 68  1  0
 60 70  1  0
 61 67  1  0
 61 63  1  0
 62 68  1  0
 63 62  1  0
 64 63  2  0
 65 66  1  0
 65 59  2  0
 66 61  2  0
 67 60  1  0
 68 58  1  0
 70 72  2  0
 71 70  1  0
 73 71  1  0
 74 83  2  0
 74 79  1  0
 75 71  1  0
 75 79  1  0
 76 75  1  0
 77 78  1  0
 77 76  1  0
 78 74  1  0
 79 80  2  0
 80 81  1  0
 82 81  2  0
 83 82  1  0
 84 58  1  0
 84 85  1  0
 84 94  1  0
 85 88  1  0
 86 90  1  0
 86 85  1  0
 87 86  2  0
 90 89  1  0
 92 90  1  0
 92 93  1  0
 92 91  1  0
 94 97  1  1
 94 95  1  0
 96 94  1  0
M  ISO  4  11 100  19 100  56 101  57 101
M  END
>  <TORSDO>  (66) 
F 21

>  <SCORE>  (66) 
-10.063

>  <name>  (66) 
65

>  <ligand_id>  (66) 
65

>  <original_smiles>  (66) 
[H]c1c([H])c([H])c2c(c1[H])C([H])([H])C([H])([H])C([H])([H])C2([H])N([H])C(=O)C1([H])N(C(=O)C([H])(N([H])C(=O)C([H])(N([H])C([H])([H])[H])C([H])([H])[H])C(C([H])([H])[H])(C([H])([H])[H])C([H])([H])[H])C([H])([H])c2c([H])c(OC([H])([H])C([H])([H])[N+]3([H])C([H])([H])C([H])([H])C4([H])C([H])([H])C(N([H])C(=O)N5C([H])([H])C([H])([H])C([H])([H])C([H])(n6nc(-c7c([H])c([H])c(Oc8c([H])c([H])c(F)c([H])c8F)c([H])c7[H])c(C(=O)N([H])[H])c6N([H])[H])C5([H])[H])(C([H])([H])C([H])([H])[N+]([H])([H])[H])C([H])([H])C([H])([H])C43[H])c([H])c([H])c2C1([H])[H]

>  <smiles>  (66) 
[H]c1c([H])c([H])c2c(c1[H])C([H])([H])C([H])([H])C([H])([H])C2([H])N([H])C(=O)C1([H])N(C(=O)C([H])(N([H])C(=O)C([H])(N([H])C([H])([H])[H])C([H])([H])[H])C(C([H])([H])[H])(C([H])([H])[H])C([H])([H])[H])C([H])([H])c2c([H])c(OC([H])([H])C([H])([H])[N+]3([H])C([H])([H])C([H])([H])C4([H])C([H])([H])C(N([H])C(=O)N5C([H])([H])C([H])([H])C([H])([H])C([H])(n6nc(-c7c([H])c([H])c(Oc8c([H])c([H])c(F)c([H])c8F)c([H])c7[H])c(C(=O)N([H])[H])c6N([H])[H])C5([H])[H])(C([H])([H])C([H])([H])[N+]([H])([H])[H])C([H])([H])C([H])([H])C43[H])c([H])c([H])c2C1([H])[H]

$$$$
66:0:0
     RDKit          3D

 97105  0  0  1  0  0  0  0  0999 V2000
  -29.1460  -17.9790   19.8740 C   0  0  0  0  0  2  0  0  0  0  0  0
  -30.3100  -14.2780   19.0120 C   0  0  0  0  0  0  0  0  0  0  0  0
  -29.6790  -12.2030   17.7620 C   0  0  0  0  0  2  0  0  0  0  0  0
  -28.4830  -12.4600   16.8200 C   0  0  0  0  0  2  0  0  0  0  0  0
  -27.1460  -12.2700   17.5640 C   0  0  0  0  0  2  0  0  0  0  0  0
  -27.1250  -12.9920   18.9340 C   0  0  0  0  0  3  0  0  0  0  0  0
  -28.4050  -12.7020   19.7370 C   0  0  0  0  0  2  0  0  0  0  0  0
  -29.5630  -13.1170   18.9270 N   0  0  0  0  0  0  0  0  0  0  0  0
  -31.2560  -14.4320   18.2310 O   0  0  0  0  0  0  0  0  0  0  0  0
  -31.7190  -17.0480   21.4350 C   0  0  0  0  0  2  0  0  0  0  0  0
  -31.3100  -15.6450   21.9000 C   0  0  0  0  0  2  0  0  0  0  0  0
  -31.5990  -17.1900   19.9130 C   0  0  0  0  0  2  0  0  0  0  0  0
  -29.9840  -15.1160   21.2940 C   0  0  0  0  0  3  0  0  0  0  0  0
  -30.1780  -16.8140   19.4340 C   0  0  0  0  0  3  0  0  0  0  0  0
  -29.9020  -15.3450   19.8210 N   0  0  0  0  0  0  0  0  0  0  0  0
  -25.0110  -13.5270   20.2890 C   0  0  0  0  0  0  0  0  0  0  0  0
  -24.0390  -12.7290   20.8270 C   0  0  0  0  0  0  0  0  0  0  0  0
  -24.4340  -11.3850   20.5490 C   0  0  0  0  0  0  0  0  0  0  0  0
  -25.9300  -12.6700   19.7080 N   0  0  0  0  0  0  0  0  0  0  0  0
  -25.6070  -11.3690   19.9270 N   0  0  0  0  0  0  0  0  0  0  0  0
  -23.7330  -10.1170   20.7870 C   0  0  0  0  0  0  0  0  0  0  0  0
  -24.2970   -9.0990   21.5870 C   0  0  0  0  0  3  0  0  0  0  0  0
  -23.5940   -7.8960   21.8140 C   0  0  0  0  0  3  0  0  0  0  0  0
  -22.3140   -7.7030   21.2420 C   0  0  0  0  0  0  0  0  0  0  0  0
  -21.7680   -8.7090   20.4270 C   0  0  0  0  0  3  0  0  0  0  0  0
  -22.4710   -9.9040   20.1980 C   0  0  0  0  0  3  0  0  0  0  0  0
  -21.5690   -6.5570   21.3860 O   0  0  0  0  0  0  0  0  0  0  0  0
  -21.6340   -5.7950   22.5250 C   0  0  0  0  0  0  0  0  0  0  0  0
  -21.3550   -6.3340   23.8010 C   0  0  0  0  0  3  0  0  0  0  0  0
  -21.3660   -5.4990   24.9360 C   0  0  0  0  0  3  0  0  0  0  0  0
  -21.6470   -4.1270   24.7980 C   0  0  0  0  0  0  0  0  0  0  0  0
  -21.9210   -3.5870   23.5300 C   0  0  0  0  0  3  0  0  0  0  0  0
  -21.9120   -4.4190   22.3960 C   0  0  0  0  0  0  0  0  0  0  0  0
  -22.1560   -3.8900   21.1720 F   0  0  0  0  0  0  0  0  0  0  0  0
  -21.6500   -3.3230   25.8860 F   0  0  0  0  0  0  0  0  0  0  0  0
  -22.7660  -13.1900   21.4750 C   0  0  0  0  0  0  0  0  0  0  0  0
  -22.2610  -12.4290   22.4400 N   0  0  0  0  0  0  0  0  0  0  0  0
  -22.2420  -14.2570   21.1620 O   0  0  0  0  0  0  0  0  0  0  0  0
  -22.7020  -11.5640   22.7120 H   0  0  0  0  0  0  0  0  0  0  0  0
  -21.4140  -12.7160   22.9110 H   0  0  0  0  0  0  0  0  0  0  0  0
  -25.1850  -14.9070   20.2350 N   0  0  0  0  0  0  0  0  0  0  0  0
  -24.4150  -15.5230   20.4770 H   0  0  0  0  0  0  0  0  0  0  0  0
  -25.8590  -15.3480   19.6230 H   0  0  0  0  0  0  0  0  0  0  0  0
  -28.6950  -15.5440   22.0450 C   0  0  0  0  0  2  0  0  0  0  0  0
  -27.6000  -14.4570   22.1060 C   0  0  0  0  0  2  0  0  0  0  0  0
  -26.2460  -15.0390   22.0590 N   0  0  0  0  0  4  0  0  0  0  0  0
  -26.0730  -15.6180   22.8610 H   0  0  0  0  0  0  0  0  0  0  0  0
  -25.5590  -14.3050   22.0520 H   0  0  0  0  0  0  0  0  0  0  0  0
  -26.1180  -15.5920   21.2290 H   0  0  0  0  0  0  0  0  0  0  0  0
  -29.3170  -19.3750   19.2720 N   0  0  0  0  0  4  0  0  0  0  0  0
  -28.7690  -19.3950   18.4270 H   0  0  0  0  0  0  0  0  0  0  0  0
  -30.2750  -19.4870   18.9870 H   0  0  0  0  0  0  0  0  0  0  0  0
  -28.9510  -20.6050   20.1050 C   0  0  0  0  0  3  0  0  0  0  0  0
  -28.6190  -21.9740   19.3320 C   0  0  0  0  0  3  0  0  0  0  0  0
  -28.6830  -23.3870   20.0950 C   0  0  0  0  0  3  0  0  0  0  0  0
  -27.8970  -24.6220   19.4540 C   0  0  0  0  0  3  0  0  0  0  0  0
  -28.1070  -26.0240   19.9210 O   0  0  0  0  0  0  0  0  0  0  0  0
  -24.7890  -31.6080   23.1090 C   0  0  0  0  0  0  0  0  0  0  0  0
  -27.0410  -26.9490   19.8930 C   0  0  0  0  0  0  0  0  0  0  0  0
  -23.4560  -30.2950   21.5020 C   0  0  0  0  0  3  0  0  0  0  0  0
  -24.7690  -28.6990   19.9980 C   0  0  0  0  0  0  0  0  0  0  0  0
  -26.0020  -30.4790   21.2300 C   0  0  0  0  0  2  0  0  0  0  0  0
  -25.9830  -29.1080   20.5630 C   0  0  0  0  0  0  0  0  0  0  0  0
  -27.1190  -28.2420   20.5090 C   0  0  0  0  0  3  0  0  0  0  0  0
  -25.8100  -26.6230   19.2740 C   0  0  0  0  0  3  0  0  0  0  0  0
  -24.6880  -27.4630   19.3450 C   0  0  0  0  0  3  0  0  0  0  0  0
  -23.5830  -29.6340   20.1050 C   0  0  0  0  0  2  0  0  0  0  0  0
  -24.7700  -30.8110   22.0020 N   0  0  0  0  0  0  0  0  0  0  0  0
  -23.7420  -31.9330   23.6860 O   0  0  0  0  0  0  0  0  0  0  0  0
  -22.7790  -29.2980   22.4740 C   0  0  0  0  0  0  0  0  0  0  0  0
  -21.4550  -29.1170   22.3310 N   0  0  0  0  0  0  0  0  0  0  0  0
  -23.4450  -28.6920   23.3180 O   0  0  0  0  0  0  0  0  0  0  0  0
  -20.9760  -29.6560   21.6230 H   0  0  0  0  0  0  0  0  0  0  0  0
  -18.0830  -27.8770   22.7580 C   0  0  0  0  0  0  0  0  0  0  0  0
  -20.6240  -28.1980   23.1120 C   0  0  0  0  0  3  0  0  0  0  0  0
  -20.7750  -26.7450   22.6060 C   0  0  0  0  0  2  0  0  0  0  0  0
  -19.7180  -26.3570   21.5660 C   0  0  0  0  0  2  0  0  0  0  0  0
  -18.3100  -26.5040   22.1510 C   0  0  0  0  0  2  0  0  0  0  0  0
  -19.1710  -28.6790   23.1960 C   0  0  0  0  0  0  0  0  0  0  0  0
  -18.9060  -29.9620   23.7230 C   0  0  0  0  0  3  0  0  0  0  0  0
  -17.5880  -30.4440   23.8170 C   0  0  0  0  0  3  0  0  0  0  0  0
  -16.5140  -29.6410   23.3960 C   0  0  0  0  0  3  0  0  0  0  0  0
  -16.7630  -28.3600   22.8730 C   0  0  0  0  0  3  0  0  0  0  0  0
  -26.1250  -32.1690   23.6870 C   0  0  0  0  0  3  0  0  0  0  0  0
  -25.8790  -33.5530   24.1130 N   0  0  0  0  0  0  0  0  0  0  0  0
  -26.1890  -34.6390   23.3920 C   0  0  0  0  0  0  0  0  0  0  0  0
  -26.7840  -34.5780   22.3140 O   0  0  0  0  0  0  0  0  0  0  0  0
  -25.3460  -33.6780   24.9630 H   0  0  0  0  0  0  0  0  0  0  0  0
  -24.4960  -36.4950   23.2560 C   0  0  0  0  0  1  0  0  0  0  0  0
  -25.7750  -36.0120   23.9590 C   0  0  0  0  0  3  0  0  0  0  0  0
  -27.9790  -36.7970   24.7040 C   0  0  0  0  0  1  0  0  0  0  0  0
  -26.8290  -37.0410   23.8370 N   0  0  0  0  0  0  0  0  0  0  0  0
  -26.4590  -37.9630   24.0540 H   0  0  0  0  0  0  0  0  0  0  0  0
  -26.6910  -31.3120   24.8860 C   0  0  1  0  0  0  0  0  0  0  0  0
  -25.6460  -31.0220   25.9890 C   0  0  0  0  0  1  0  0  0  0  0  0
  -27.2320  -29.9530   24.3840 C   0  0  0  0  0  1  0  0  0  0  0  0
  -27.8830  -32.0490   25.5410 C   0  0  0  0  0  1  0  0  0  0  0  0
  2 15  1  0
  3  8  1  0
  4  5  1  0
  4  3  1  0
  6  5  1  0
  6 19  1  0
  6  7  1  0
  8  2  1  0
  8  7  1  0
  9  2  2  0
 10 11  1  0
 12 10  1  0
 13 11  1  0
 13 44  1  0
 14 15  1  0
 14  1  1  0
 14 12  1  0
 15 13  1  0
 16 17  2  0
 17 36  1  0
 18 21  1  0
 18 17  1  0
 19 20  1  0
 19 16  1  0
 20 18  2  0
 21 22  1  0
 22 23  2  0
 24 27  1  0
 24 23  1  0
 25 24  2  0
 26 25  1  0
 26 21  2  0
 27 28  1  0
 28 29  1  0
 29 30  2  0
 31 30  1  0
 31 35  1  0
 32 31  2  0
 33 28  2  0
 33 32  1  0
 34 33  1  0
 36 37  1  0
 37 39  1  0
 37 40  1  0
 38 36  2  0
 41 16  1  0
 41 42  1  0
 43 41  1  0
 44 45  1  0
 46 45  1  0
 46 47  1  0
 48 46  1  0
 49 46  1  0
 50  1  1  0
 50 53  1  0
 51 50  1  0
 52 50  1  0
 54 55  1  0
 54 53  2  0
 56 57  1  0
 56 55  2  0
 58 69  2  0
 59 57  1  0
 59 64  1  0
 60 68  1  0
 60 70  1  0
 61 67  1  0
 61 63  1  0
 62 68  1  0
 63 62  1  0
 64 63  2  0
 65 66  1  0
 65 59  2  0
 66 61  2  0
 67 60  1  0
 68 58  1  0
 70 72  2  0
 71 70  1  0
 73 71  1  0
 74 83  2  0
 74 79  1  0
 75 71  1  0
 75 79  1  0
 76 75  1  0
 77 78  1  0
 77 76  1  0
 78 74  1  0
 79 80  2  0
 80 81  1  0
 82 81  2  0
 83 82  1  0
 84 58  1  0
 84 85  1  0
 84 94  1  0
 85 88  1  0
 86 90  1  0
 86 85  1  0
 87 86  2  0
 90 89  1  0
 92 90  1  0
 92 93  1  0
 92 91  1  0
 94 97  1  1
 94 95  1  0
 96 94  1  0
M  ISO  4   2 100  15 100  56 101  57 101
M  END
>  <TORSDO>  (67) 
F 24

>  <SCORE>  (67) 
-4.886

>  <name>  (67) 
66

>  <ligand_id>  (67) 
66

>  <original_smiles>  (67) 
[H]c1c([H])c([H])c2c(c1[H])C([H])([H])C([H])([H])C([H])([H])C2([H])N([H])C(=O)C1([H])N(C(=O)C([H])(N([H])C(=O)C([H])(N([H])C([H])([H])[H])C([H])([H])[H])C(C([H])([H])[H])(C([H])([H])[H])C([H])([H])[H])C([H])([H])c2c([H])c(OC([H])([H])C([H])([H])C([H])([H])C([H])([H])[N+]([H])([H])C([H])([H])C3([H])N(C(=O)N4C([H])([H])C([H])([H])C([H])([H])C([H])(n5nc(-c6c([H])c([H])c(Oc7c([H])c([H])c(F)c([H])c7F)c([H])c6[H])c(C(=O)N([H])[H])c5N([H])[H])C4([H])[H])C([H])(C([H])([H])C([H])([H])[N+]([H])([H])[H])C([H])([H])C([H])([H])C3([H])[H])c([H])c([H])c2C1([H])[H]

>  <smiles>  (67) 
[H]c1c([H])c([H])c2c(c1[H])C([H])([H])C([H])([H])C([H])([H])C2([H])N([H])C(=O)C1([H])N(C(=O)C([H])(N([H])C(=O)C([H])(N([H])C([H])([H])[H])C([H])([H])[H])C(C([H])([H])[H])(C([H])([H])[H])C([H])([H])[H])C([H])([H])c2c([H])c(OC([H])([H])C([H])([H])C([H])([H])C([H])([H])[N+]([H])([H])C([H])([H])C3([H])N(C(=O)N4C([H])([H])C([H])([H])C([H])([H])C([H])(n5nc(-c6c([H])c([H])c(Oc7c([H])c([H])c(F)c([H])c7F)c([H])c6[H])c(C(=O)N([H])[H])c5N([H])[H])C4([H])[H])C([H])(C([H])([H])C([H])([H])[N+]([H])([H])[H])C([H])([H])C([H])([H])C3([H])[H])c([H])c([H])c2C1([H])[H]

$$$$
67:0:0
     RDKit          3D

 94103  0  0  1  0  0  0  0  0999 V2000
  -30.7160  -23.5070   18.9460 C   0  0  0  0  0  2  0  0  0  0  0  0
  -30.0150  -24.6670   18.2090 C   0  0  0  0  0  2  0  0  0  0  0  0
  -30.0590  -23.1610   20.3000 C   0  0  0  0  0  2  0  0  0  0  0  0
  -28.4910  -24.4740   18.1180 C   0  0  0  0  0  2  0  0  0  0  0  0
  -28.5640  -22.8280   20.1470 C   0  0  0  0  0  3  0  0  0  0  0  0
  -27.8980  -24.3820   19.5300 C   0  0  0  0  0  3  0  0  0  0  0  0
  -28.0180  -25.9530   20.0130 O   0  0  0  0  0  0  0  0  0  0  0  0
  -24.5170  -31.8600   23.0910 C   0  0  0  0  0  0  0  0  0  0  0  0
  -27.0180  -27.0540   19.9340 C   0  0  0  0  0  0  0  0  0  0  0  0
  -23.2980  -30.4950   21.4450 C   0  0  0  0  0  3  0  0  0  0  0  0
  -24.7240  -28.9280   19.9610 C   0  0  0  0  0  0  0  0  0  0  0  0
  -25.8610  -30.7140   21.2640 C   0  0  0  0  0  2  0  0  0  0  0  0
  -25.9190  -29.3190   20.5760 C   0  0  0  0  0  0  0  0  0  0  0  0
  -27.0590  -28.4020   20.5420 C   0  0  0  0  0  3  0  0  0  0  0  0
  -25.7990  -26.8180   19.2610 C   0  0  0  0  0  3  0  0  0  0  0  0
  -24.6880  -27.7000   19.2800 C   0  0  0  0  0  3  0  0  0  0  0  0
  -23.5040  -29.8430   20.0510 C   0  0  0  0  0  2  0  0  0  0  0  0
  -24.5810  -31.0510   21.9870 N   0  0  0  0  0  0  0  0  0  0  0  0
  -23.4370  -32.1400   23.6350 O   0  0  0  0  0  0  0  0  0  0  0  0
  -22.6220  -29.4800   22.4030 C   0  0  0  0  0  0  0  0  0  0  0  0
  -21.2890  -29.3200   22.3010 N   0  0  0  0  0  0  0  0  0  0  0  0
  -23.3030  -28.8360   23.2040 O   0  0  0  0  0  0  0  0  0  0  0  0
  -20.7930  -29.8910   21.6330 H   0  0  0  0  0  0  0  0  0  0  0  0
  -17.9140  -28.1100   22.8520 C   0  0  0  0  0  0  0  0  0  0  0  0
  -20.4800  -28.3680   23.0690 C   0  0  0  0  0  3  0  0  0  0  0  0
  -20.5670  -26.9470   22.4620 C   0  0  0  0  0  2  0  0  0  0  0  0
  -19.4440  -26.6480   21.4630 C   0  0  0  0  0  2  0  0  0  0  0  0
  -18.0760  -26.7770   22.1390 C   0  0  0  0  0  2  0  0  0  0  0  0
  -19.0420  -28.8640   23.2750 C   0  0  0  0  0  0  0  0  0  0  0  0
  -18.8330  -30.1090   23.9060 C   0  0  0  0  0  3  0  0  0  0  0  0
  -17.5310  -30.6040   24.1120 C   0  0  0  0  0  3  0  0  0  0  0  0
  -16.4200  -29.8470   23.7050 C   0  0  0  0  0  3  0  0  0  0  0  0
  -16.6120  -28.6010   23.0820 C   0  0  0  0  0  3  0  0  0  0  0  0
  -25.8000  -32.4910   23.7150 C   0  0  0  0  0  3  0  0  0  0  0  0
  -26.3250  -31.7050   24.9810 C   0  0  1  0  0  0  0  0  0  0  0  0
  -25.2420  -31.4600   26.0570 C   0  0  0  0  0  1  0  0  0  0  0  0
  -26.9000  -30.3290   24.5770 C   0  0  0  0  0  1  0  0  0  0  0  0
  -27.4830  -32.4910   25.6420 C   0  0  0  0  0  1  0  0  0  0  0  0
  -25.4880  -33.8850   24.0780 N   0  0  0  0  0  0  0  0  0  0  0  0
  -25.8010  -34.9600   23.3410 C   0  0  0  0  0  0  0  0  0  0  0  0
  -26.4450  -34.8810   22.2920 O   0  0  0  0  0  0  0  0  0  0  0  0
  -24.9130  -34.0190   24.8960 H   0  0  0  0  0  0  0  0  0  0  0  0
  -24.0590  -36.7610   23.0870 C   0  0  0  0  0  1  0  0  0  0  0  0
  -25.3270  -36.3390   23.8460 C   0  0  0  0  0  3  0  0  0  0  0  0
  -27.4850  -37.2160   24.6230 C   0  0  0  0  0  1  0  0  0  0  0  0
  -26.3520  -37.3980   23.7210 N   0  0  0  0  0  0  0  0  0  0  0  0
  -25.9470  -38.3130   23.9000 H   0  0  0  0  0  0  0  0  0  0  0  0
  -28.4980  -21.1330   19.5290 C   0  0  0  0  0  2  0  0  0  0  0  0
  -30.3330  -15.3640   19.6170 C   0  0  0  0  0  0  0  0  0  0  0  0
  -30.1340  -12.9230   18.7690 C   0  0  0  0  0  2  0  0  0  0  0  0
  -29.1160  -12.7460   17.6190 C   0  0  0  0  0  2  0  0  0  0  0  0
  -27.7190  -12.4700   18.1900 C   0  0  0  0  0  2  0  0  0  0  0  0
  -27.3780  -13.4170   19.3680 C   0  0  0  0  0  3  0  0  0  0  0  0
  -28.5280  -13.5920   20.3870 C   0  0  0  0  0  2  0  0  0  0  0  0
  -29.6940  -14.0870   19.6380 N   0  0  0  0  0  0  0  0  0  0  0  0
  -31.4890  -15.2500   19.1850 O   0  0  0  0  0  0  0  0  0  0  0  0
  -30.5130  -19.2400   20.4000 C   0  0  0  0  0  2  0  0  0  0  0  0
  -28.9020  -17.9050   19.4600 C   0  0  0  0  0  2  0  0  0  0  0  0
  -29.0380  -19.5070   20.1030 C   0  0  0  0  0  3  0  0  0  0  0  0
  -30.7390  -17.7020   20.7900 C   0  0  0  0  0  3  0  0  0  0  0  0
  -29.8480  -16.7260   20.0300 N   0  0  0  0  0  0  0  0  0  0  0  0
  -25.1010  -13.9310   20.3820 C   0  0  0  0  0  0  0  0  0  0  0  0
  -24.0850  -13.1350   20.8310 C   0  0  0  0  0  0  0  0  0  0  0  0
  -24.5510  -11.7880   20.7110 C   0  0  0  0  0  0  0  0  0  0  0  0
  -26.1150  -13.0700   20.0050 N   0  0  0  0  0  0  0  0  0  0  0  0
  -25.8040  -11.7730   20.2690 N   0  0  0  0  0  0  0  0  0  0  0  0
  -23.8490  -10.5170   20.9320 C   0  0  0  0  0  0  0  0  0  0  0  0
  -24.3460   -9.5400   21.8240 C   0  0  0  0  0  3  0  0  0  0  0  0
  -23.6370   -8.3380   22.0370 C   0  0  0  0  0  3  0  0  0  0  0  0
  -22.4190   -8.1020   21.3580 C   0  0  0  0  0  0  0  0  0  0  0  0
  -21.9410   -9.0650   20.4530 C   0  0  0  0  0  3  0  0  0  0  0  0
  -22.6490  -10.2590   20.2380 C   0  0  0  0  0  3  0  0  0  0  0  0
  -21.6760   -6.9510   21.4830 O   0  0  0  0  0  0  0  0  0  0  0  0
  -21.6790   -6.2140   22.6400 C   0  0  0  0  0  0  0  0  0  0  0  0
  -21.3070   -6.7750   23.8820 C   0  0  0  0  0  3  0  0  0  0  0  0
  -21.2590   -5.9650   25.0340 C   0  0  0  0  0  3  0  0  0  0  0  0
  -21.5690   -4.5950   24.9470 C   0  0  0  0  0  0  0  0  0  0  0  0
  -21.9320   -4.0330   23.7100 C   0  0  0  0  0  3  0  0  0  0  0  0
  -21.9840   -4.8410   22.5600 C   0  0  0  0  0  0  0  0  0  0  0  0
  -22.3170   -4.2900   21.3680 F   0  0  0  0  0  0  0  0  0  0  0  0
  -21.5140   -3.8150   26.0520 F   0  0  0  0  0  0  0  0  0  0  0  0
  -22.7210  -13.5950   21.2540 C   0  0  0  0  0  0  0  0  0  0  0  0
  -22.0900  -12.8760   22.1760 N   0  0  0  0  0  0  0  0  0  0  0  0
  -22.2300  -14.6290   20.8040 O   0  0  0  0  0  0  0  0  0  0  0  0
  -22.5070  -12.0400   22.5590 H   0  0  0  0  0  0  0  0  0  0  0  0
  -21.1790  -13.1630   22.5020 H   0  0  0  0  0  0  0  0  0  0  0  0
  -25.2430  -15.3070   20.2360 N   0  0  0  0  0  0  0  0  0  0  0  0
  -24.4950  -15.9580   20.4500 H   0  0  0  0  0  0  0  0  0  0  0  0
  -26.0630  -15.7600   19.8510 H   0  0  0  0  0  0  0  0  0  0  0  0
  -32.2660  -17.3810   20.8010 C   0  0  0  0  0  2  0  0  0  0  0  0
  -33.0760  -18.4130   21.4720 N   0  0  0  0  0  4  0  0  0  0  0  0
  -32.9560  -19.3060   21.0280 H   0  0  0  0  0  0  0  0  0  0  0  0
  -34.0500  -18.1700   21.4100 H   0  0  0  0  0  0  0  0  0  0  0  0
  -32.8320  -18.4900   22.4430 H   0  0  0  0  0  0  0  0  0  0  0  0
  1  3  1  0
  2  1  1  0
  4  2  1  0
  4  6  1  0
  5 48  1  0
  5  3  1  0
  6  7  1  0
  6  5  1  0
  8 19  2  0
  9  7  1  0
  9 14  1  0
 10 18  1  0
 10 20  1  0
 11 17  1  0
 11 13  1  0
 12 18  1  0
 13 12  1  0
 14 13  2  0
 15 16  1  0
 15  9  2  0
 16 11  2  0
 17 10  1  0
 18  8  1  0
 20 22  2  0
 21 20  1  0
 23 21  1  0
 24 33  2  0
 24 29  1  0
 25 21  1  0
 25 29  1  0
 26 25  1  0
 27 28  1  0
 27 26  1  0
 28 24  1  0
 29 30  2  0
 30 31  1  0
 32 31  2  0
 33 32  1  0
 34  8  1  0
 34 39  1  0
 34 35  1  0
 35 38  1  1
 35 36  1  0
 37 35  1  0
 39 42  1  0
 40 44  1  0
 40 39  1  0
 41 40  2  0
 44 43  1  0
 46 44  1  0
 46 47  1  0
 46 45  1  0
 49 55  1  0
 49 61  1  0
 50 55  1  0
 51 52  1  0
 51 50  1  0
 53 52  1  0
 53 65  1  0
 53 54  1  0
 55 54  1  0
 56 49  2  0
 57 60  1  0
 58 61  1  0
 58 59  1  0
 59 48  1  0
 59 57  1  0
 60 90  1  0
 61 60  1  0
 62 63  2  0
 63 82  1  0
 64 63  1  0
 64 67  1  0
 65 66  1  0
 65 62  1  0
 66 64  2  0
 67 68  1  0
 68 69  2  0
 70 73  1  0
 70 69  1  0
 71 70  2  0
 72 71  1  0
 72 67  2  0
 73 74  1  0
 74 75  1  0
 75 76  2  0
 77 76  1  0
 77 81  1  0
 78 77  2  0
 79 74  2  0
 79 78  1  0
 80 79  1  0
 82 83  1  0
 83 86  1  0
 83 85  1  0
 84 82  2  0
 87 62  1  0
 87 88  1  0
 89 87  1  0
 90 91  1  0
 91 94  1  0
 92 91  1  0
 93 91  1  0
M  ISO  4   6 101   7 101  49 100  61 100
M  END
>  <TORSDO>  (68) 
F 19

>  <SCORE>  (68) 
-14.353

>  <name>  (68) 
67

>  <ligand_id>  (68) 
67

>  <original_smiles>  (68) 
[H]c1c([H])c([H])c2c(c1[H])C([H])([H])C([H])([H])C([H])([H])C2([H])N([H])C(=O)C1([H])N(C(=O)C([H])(N([H])C(=O)C([H])(N([H])C([H])([H])[H])C([H])([H])[H])C(C([H])([H])[H])(C([H])([H])[H])C([H])([H])[H])C([H])([H])c2c([H])c(OC3([H])C([H])([H])C([H])([H])C([H])([H])C([H])([H])C3([H])C([H])([H])C3([H])C([H])([H])N(C(=O)N4C([H])([H])C([H])([H])C([H])([H])C([H])(n5nc(-c6c([H])c([H])c(Oc7c([H])c([H])c(F)c([H])c7F)c([H])c6[H])c(C(=O)N([H])[H])c5N([H])[H])C4([H])[H])C([H])(C([H])([H])[N+]([H])([H])[H])C3([H])[H])c([H])c([H])c2C1([H])[H]

>  <smiles>  (68) 
[H]c1c([H])c([H])c2c(c1[H])C([H])([H])C([H])([H])C([H])([H])C2([H])N([H])C(=O)C1([H])N(C(=O)C([H])(N([H])C(=O)C([H])(N([H])C([H])([H])[H])C([H])([H])[H])C(C([H])([H])[H])(C([H])([H])[H])C([H])([H])[H])C([H])([H])c2c([H])c(OC3([H])C([H])([H])C([H])([H])C([H])([H])C([H])([H])C3([H])C([H])([H])C3([H])C([H])([H])N(C(=O)N4C([H])([H])C([H])([H])C([H])([H])C([H])(n5nc(-c6c([H])c([H])c(Oc7c([H])c([H])c(F)c([H])c7F)c([H])c6[H])c(C(=O)N([H])[H])c5N([H])[H])C4([H])[H])C([H])(C([H])([H])[N+]([H])([H])[H])C3([H])[H])c([H])c([H])c2C1([H])[H]

$$$$
68:0:0
     RDKit          3D

 97101  0  0  1  0  0  0  0  0999 V2000
  -22.0920  -27.3530   19.9020 C   0  0  0  0  0  1  0  0  0  0  0  0
  -23.6200  -23.2100   18.3250 C   0  0  0  0  0  2  0  0  0  0  0  0
  -23.3870  -24.8640   18.3740 C   0  0  0  0  0  2  0  0  0  0  0  0
  -24.2450  -24.3780   20.6160 C   0  0  0  0  0  2  0  0  0  0  0  0
  -25.0530  -22.3880   18.0540 C   0  0  0  0  0  2  0  0  0  0  0  0
  -25.4900  -22.9800   20.3580 C   0  0  0  0  0  2  0  0  0  0  0  0
  -23.2980  -25.7210   19.7690 C   0  0  0  0  0  2  0  0  0  0  0  0
  -25.9130  -21.8110   19.2070 N   0  0  1  0  0  4  0  0  0  0  0  0
  -26.8110  -22.1800   18.9340 H   0  0  0  0  0  0  0  0  0  0  0  0
  -26.4980  -20.0660   19.2620 C   0  0  0  0  0  1  0  0  0  0  0  0
  -28.1220  -18.8870   18.9900 C   0  0  0  0  0  1  0  0  0  0  0  0
  -29.9390  -16.0700   19.0930 C   0  0  0  0  0  0  0  0  0  0  0  0
  -30.6130  -13.4960   18.5770 C   0  0  0  0  0  2  0  0  0  0  0  0
  -29.6980  -12.7980   17.5300 C   0  0  0  0  0  2  0  0  0  0  0  0
  -28.3540  -12.3890   18.1600 C   0  0  0  0  0  2  0  0  0  0  0  0
  -27.8580  -13.4830   19.1320 C   0  0  0  0  0  3  0  0  0  0  0  0
  -28.9160  -13.9320   20.1340 C   0  0  0  0  0  2  0  0  0  0  0  0
  -29.8540  -14.6310   19.2870 N   0  0  0  0  0  0  0  0  0  0  0  0
  -31.1280  -16.2570   18.7490 O   0  0  0  0  0  0  0  0  0  0  0  0
  -28.7410  -17.1470   19.1750 N   0  0  0  0  0  0  0  0  0  0  0  0
  -27.9270  -16.6130   19.4540 H   0  0  0  0  0  0  0  0  0  0  0  0
  -25.7700  -14.0940   20.3750 C   0  0  0  0  0  0  0  0  0  0  0  0
  -24.7460  -13.3350   20.8680 C   0  0  0  0  0  0  0  0  0  0  0  0
  -25.0930  -11.9750   20.6000 C   0  0  0  0  0  0  0  0  0  0  0  0
  -26.6430  -13.1820   19.8260 N   0  0  0  0  0  0  0  0  0  0  0  0
  -26.2880  -11.8950   20.0350 N   0  0  0  0  0  0  0  0  0  0  0  0
  -24.3210  -10.7450   20.7810 C   0  0  0  0  0  0  0  0  0  0  0  0
  -24.7380   -9.7380   21.6790 C   0  0  0  0  0  3  0  0  0  0  0  0
  -23.9620   -8.5720   21.8460 C   0  0  0  0  0  3  0  0  0  0  0  0
  -22.7640   -8.4090   21.1090 C   0  0  0  0  0  0  0  0  0  0  0  0
  -22.3730   -9.4030   20.1960 C   0  0  0  0  0  3  0  0  0  0  0  0
  -23.1470  -10.5600   20.0270 C   0  0  0  0  0  3  0  0  0  0  0  0
  -21.9570   -7.2990   21.1910 O   0  0  0  0  0  0  0  0  0  0  0  0
  -21.7360   -6.6590   22.3840 C   0  0  0  0  0  0  0  0  0  0  0  0
  -21.1620   -7.3210   23.4910 C   0  0  0  0  0  3  0  0  0  0  0  0
  -20.8880   -6.6040   24.6730 C   0  0  0  0  0  3  0  0  0  0  0  0
  -21.1780   -5.2290   24.7460 C   0  0  0  0  0  0  0  0  0  0  0  0
  -21.7440   -4.5680   23.6430 C   0  0  0  0  0  3  0  0  0  0  0  0
  -22.0210   -5.2800   22.4640 C   0  0  0  0  0  0  0  0  0  0  0  0
  -22.5480   -4.6360   21.3950 F   0  0  0  0  0  0  0  0  0  0  0  0
  -20.9060   -4.5390   25.8780 F   0  0  0  0  0  0  0  0  0  0  0  0
  -23.4650  -13.8640   21.4280 C   0  0  0  0  0  0  0  0  0  0  0  0
  -22.8520  -13.1190   22.3450 N   0  0  0  0  0  0  0  0  0  0  0  0
  -23.0260  -14.9630   21.0940 O   0  0  0  0  0  0  0  0  0  0  0  0
  -23.2300  -12.2290   22.6290 H   0  0  0  0  0  0  0  0  0  0  0  0
  -21.9930  -13.4450   22.7640 H   0  0  0  0  0  0  0  0  0  0  0  0
  -26.0120  -15.4600   20.3080 N   0  0  0  0  0  0  0  0  0  0  0  0
  -25.2360  -16.0600   20.5630 H   0  0  0  0  0  0  0  0  0  0  0  0
  -26.4900  -15.8070   19.4920 H   0  0  0  0  0  0  0  0  0  0  0  0
  -21.6000  -28.9390   20.7250 N   0  0  0  0  0  4  0  0  0  0  0  0
  -20.5930  -28.8950   20.6100 H   0  0  0  0  0  0  0  0  0  0  0  0
  -21.8360  -29.6160   20.0140 H   0  0  0  0  0  0  0  0  0  0  0  0
  -21.8870  -29.9640   22.2550 C   0  0  0  0  0  1  0  0  0  0  0  0
  -22.7860  -29.4660   24.0860 C   0  0  0  0  0 15  0  0  0  0  0  0
  -24.5470  -28.5570   24.5300 C   0  0  0  0  0  1  0  0  0  0  0  0
  -26.2730  -28.1450   23.6950 C   0  0  0  0  0  2  0  0  0  0  0  0
  -27.2030  -27.2140   22.6170 O   0  0  0  0  0  0  0  0  0  0  0  0
  -24.7620  -31.6300   23.2340 C   0  0  0  0  0  0  0  0  0  0  0  0
  -27.5150  -27.5090   21.2930 C   0  0  0  0  0  3  0  0  0  0  0  0
  -24.2800  -29.3670   21.7630 C   0  0  0  0  0  3  0  0  0  0  0  0
  -25.6880  -29.0050   19.9710 C   0  0  0  0  0  3  0  0  0  0  0  0
  -26.3560  -30.7890   21.6460 C   0  0  0  0  0  2  0  0  0  0  0  0
  -26.7120  -29.6160   20.7310 C   0  0  0  0  0  3  0  0  0  0  0  0
  -27.8090  -28.8480   21.1210 C   0  0  0  0  0  2  0  0  0  0  0  0
  -26.7320  -26.8500   20.3170 C   0  0  0  0  0  3  0  0  0  0  0  0
  -25.7580  -27.6260   19.6720 C   0  0  0  0  0  3  0  0  0  0  0  0
  -24.3330  -29.6290   20.2210 C   0  0  0  0  0  2  0  0  0  0  0  0
  -25.1000  -30.5700   22.3960 N   0  0  0  0  0  0  0  0  0  0  0  0
  -23.5990  -32.0350   23.3260 O   0  0  0  0  0  0  0  0  0  0  0  0
  -23.7010  -27.8040   22.3950 C   0  0  0  0  0  0  0  0  0  0  0  0
  -22.4660  -27.3580   23.0020 N   0  0  0  0  0  0  0  0  0  0  0  0
  -24.4060  -26.9200   22.7530 O   0  0  0  0  0  0  0  0  0  0  0  0
  -22.7640  -26.5810   23.5780 H   0  0  0  0  0  0  0  0  0  0  0  0
  -18.3630  -27.4450   22.4970 C   0  0  0  0  0  0  0  0  0  0  0  0
  -20.9100  -27.3510   23.2890 C   0  0  0  0  0  3  0  0  0  0  0  0
  -20.7750  -25.8920   22.9520 C   0  0  0  0  0  2  0  0  0  0  0  0
  -19.7910  -25.4520   21.8910 C   0  0  0  0  0  2  0  0  0  0  0  0
  -18.4100  -26.0050   22.0710 C   0  0  0  0  0  2  0  0  0  0  0  0
  -19.5020  -28.1640   23.0040 C   0  0  0  0  0  0  0  0  0  0  0  0
  -19.1250  -29.4160   23.6080 C   0  0  0  0  0  3  0  0  0  0  0  0
  -17.7960  -29.9670   23.5580 C   0  0  0  0  0  3  0  0  0  0  0  0
  -16.7430  -29.2490   22.9640 C   0  0  0  0  0  3  0  0  0  0  0  0
  -17.0410  -27.9740   22.4700 C   0  0  0  0  0  3  0  0  0  0  0  0
  -25.8120  -32.4140   24.1310 C   0  0  0  0  0  3  0  0  0  0  0  0
  -25.3960  -33.8200   24.2190 N   0  0  0  0  0  0  0  0  0  0  0  0
  -25.8640  -34.8060   23.4570 C   0  0  0  0  0  0  0  0  0  0  0  0
  -26.6910  -34.6120   22.5690 O   0  0  0  0  0  0  0  0  0  0  0  0
  -24.6790  -34.0510   24.8890 H   0  0  0  0  0  0  0  0  0  0  0  0
  -24.2090  -36.5090   22.6970 C   0  0  0  0  0  1  0  0  0  0  0  0
  -25.3300  -36.2140   23.7040 C   0  0  0  0  0  3  0  0  0  0  0  0
  -27.3290  -37.1790   24.7320 C   0  0  0  0  0  1  0  0  0  0  0  0
  -26.3770  -37.2550   23.6260 N   0  0  0  0  0  0  0  0  0  0  0  0
  -25.9680  -38.1860   23.6320 H   0  0  0  0  0  0  0  0  0  0  0  0
  -26.0450  -31.9120   25.6220 C   0  0  1  0  0  0  0  0  0  0  0  0
  -24.7060  -31.6970   26.4260 C   0  0  0  0  0  1  0  0  0  0  0  0
  -27.1030  -30.7850   25.6320 C   0  0  0  0  0  1  0  0  0  0  0  0
  -26.7830  -32.9970   26.4680 C   0  0  0  0  0  1  0  0  0  0  0  0
  1 50  1  0
  2  3  1  0
  3  7  1  0
  5  2  1  0
  5  8  1  0
  6  4  1  0
  7  4  1  0
  8 10  1  0
  8  6  1  0
  8  9  1  6
 11 20  1  0
 12 20  1  0
 12 18  1  0
 13 18  1  0
 14 15  1  0
 14 13  1  0
 16 15  1  0
 16 25  1  0
 16 17  1  0
 18 17  1  0
 19 12  2  0
 20 21  1  0
 22 23  2  0
 23 42  1  0
 24 27  1  0
 24 23  1  0
 25 26  1  0
 25 22  1  0
 26 24  2  0
 27 28  1  0
 28 29  2  0
 30 33  1  0
 30 29  1  0
 31 30  2  0
 32 31  1  0
 32 27  2  0
 33 34  1  0
 34 39  2  0
 34 35  1  0
 35 36  2  0
 36 37  1  0
 37 41  1  0
 38 37  2  0
 39 38  1  0
 40 39  1  0
 42 43  1  0
 43 45  1  0
 43 46  1  0
 44 42  2  0
 47 22  1  0
 47 48  1  0
 49 47  1  0
 50 53  1  0
 51 50  1  0
 52 50  1  0
 56 55  1  0
 57 56  1  0
 58 69  2  0
 59 57  1  0
 60 70  1  0
 60 68  1  0
 61 66  1  0
 61 67  1  0
 61 63  1  0
 62 68  1  0
 63 64  1  0
 63 62  1  0
 64 59  1  0
 65 59  1  0
 66 65  2  0
 67 60  1  0
 68 58  1  0
 70 72  2  0
 70 71  1  0
 71 73  1  0
 74 79  1  0
 75 71  1  0
 76 75  1  0
 77 78  1  0
 77 76  1  0
 78 74  1  0
 79 75  1  0
 79 80  2  0
 81 80  1  0
 82 81  2  0
 83 74  2  0
 83 82  1  0
 84 58  1  0
 84 85  1  0
 84 94  1  0
 85 88  1  0
 86 90  1  0
 86 85  1  0
 87 86  2  0
 90 89  1  0
 92 93  1  0
 92 90  1  0
 92 91  1  0
 94 96  1  6
 94 95  1  0
 94 97  1  0
M  ISO  4  12 100  20 100  56 101  57 101
M  END
>  <TORSDO>  (69) 
F 24

>  <SCORE>  (69) 
-13.444

>  <name>  (69) 
68

>  <ligand_id>  (69) 
68

>  <original_smiles>  (69) 
[H]c1c([H])c([H])c2c(c1[H])C([H])([H])C([H])([H])C([H])([H])C2([H])N([H])C(=O)C1([H])N(C(=O)C([H])(N([H])C(=O)C([H])(N([H])C([H])([H])[H])C([H])([H])[H])C(C([H])([H])[H])(C([H])([H])[H])C([H])([H])[H])C([H])([H])c2c([H])c(OC([H])([H])C([H])([H])C([H])([H])C([H])([H])[N+]([H])([H])C([H])([H])C3([H])C([H])([H])C([H])([H])C([H])([H])[N+]([H])(C([H])([H])C([H])([H])N([H])C(=O)N4C([H])([H])C([H])([H])C([H])([H])C([H])(n5nc(-c6c([H])c([H])c(Oc7c([H])c([H])c(F)c([H])c7F)c([H])c6[H])c(C(=O)N([H])[H])c5N([H])[H])C4([H])[H])C([H])([H])C3([H])[H])c([H])c([H])c2C1([H])[H]

>  <smiles>  (69) 
[H]c1c([H])c([H])c2c(c1[H])C([H])([H])C([H])([H])C([H])([H])C2([H])N([H])C(=O)C1([H])N(C(=O)C([H])(N([H])C(=O)C([H])(N([H])C([H])([H])[H])C([H])([H])[H])C(C([H])([H])[H])(C([H])([H])[H])C([H])([H])[H])C([H])([H])c2c([H])c(OC([H])([H])C([H])([H])C([H])([H])C([H])([H])[N+]([H])([H])C([H])([H])C3([H])C([H])([H])C([H])([H])C([H])([H])[N+]([H])(C([H])([H])C([H])([H])N([H])C(=O)N4C([H])([H])C([H])([H])C([H])([H])C([H])(n5nc(-c6c([H])c([H])c(Oc7c([H])c([H])c(F)c([H])c7F)c([H])c6[H])c(C(=O)N([H])[H])c5N([H])[H])C4([H])[H])C([H])([H])C3([H])[H])c([H])c([H])c2C1([H])[H]

$$$$
69:0:0
     RDKit          3D

 91 99  0  0  1  0  0  0  0  0999 V2000
  -30.7640  -19.9750   22.6630 C   0  0  0  0  0  3  0  0  0  0  0  0
  -29.8740  -18.8630   22.1410 C   0  0  0  0  0  2  0  0  0  0  0  0
  -30.9680  -21.1830   20.4560 C   0  0  0  0  0  2  0  0  0  0  0  0
  -29.5990  -20.6160   20.0610 C   0  0  0  0  0  3  0  0  0  0  0  0
  -29.8720  -18.7860   20.6040 C   0  0  0  0  0  3  0  0  0  0  0  0
  -31.2110  -20.9970   21.8950 N   0  0  0  0  0  0  0  0  0  0  0  0
  -31.1310  -19.9320   23.9530 N   0  0  0  0  0  0  0  0  0  0  0  0
  -31.8050  -21.7030   22.3070 H   0  0  0  0  0  0  0  0  0  0  0  0
  -30.8340  -19.1710   24.5520 H   0  0  0  0  0  0  0  0  0  0  0  0
  -31.7390  -20.6200   24.3810 H   0  0  0  0  0  0  0  0  0  0  0  0
  -30.4500  -15.7320   20.0780 C   0  0  0  0  0  0  0  0  0  0  0  0
  -30.4850  -13.2370   19.1530 C   0  0  0  0  0  2  0  0  0  0  0  0
  -29.5320  -12.8710   17.9830 C   0  0  0  0  0  2  0  0  0  0  0  0
  -28.1300  -12.5150   18.5020 C   0  0  0  0  0  2  0  0  0  0  0  0
  -27.6730  -13.4930   19.6090 C   0  0  0  0  0  3  0  0  0  0  0  0
  -28.7580  -13.7700   20.6730 C   0  0  0  0  0  2  0  0  0  0  0  0
  -29.9000  -14.3910   19.9610 N   0  0  0  0  0  0  0  0  0  0  0  0
  -31.6850  -15.6710   19.9330 O   0  0  0  0  0  0  0  0  0  0  0  0
  -29.7050  -17.0850   20.1520 N   0  0  0  0  0  0  0  0  0  0  0  0
  -28.7220  -16.8840   20.0370 H   0  0  0  0  0  0  0  0  0  0  0  0
  -25.3470  -13.9970   20.5080 C   0  0  0  0  0  0  0  0  0  0  0  0
  -24.3100  -13.2020   20.9020 C   0  0  0  0  0  0  0  0  0  0  0  0
  -24.7850  -11.8570   20.8110 C   0  0  0  0  0  0  0  0  0  0  0  0
  -26.3820  -13.1390   20.1880 N   0  0  0  0  0  0  0  0  0  0  0  0
  -26.0620  -11.8420   20.4380 N   0  0  0  0  0  0  0  0  0  0  0  0
  -24.0730  -10.5850   20.9970 C   0  0  0  0  0  0  0  0  0  0  0  0
  -24.5230   -9.6100   21.9160 C   0  0  0  0  0  3  0  0  0  0  0  0
  -23.8050   -8.4060   22.0940 C   0  0  0  0  0  3  0  0  0  0  0  0
  -22.6230   -8.1680   21.3530 C   0  0  0  0  0  0  0  0  0  0  0  0
  -22.1920   -9.1310   20.4240 C   0  0  0  0  0  3  0  0  0  0  0  0
  -22.9090  -10.3260   20.2440 C   0  0  0  0  0  3  0  0  0  0  0  0
  -21.8760   -7.0180   21.4400 O   0  0  0  0  0  0  0  0  0  0  0  0
  -21.8140   -6.2870   22.5990 C   0  0  0  0  0  0  0  0  0  0  0  0
  -21.3240   -6.8390   23.8030 C   0  0  0  0  0  3  0  0  0  0  0  0
  -21.2140   -6.0310   24.9540 C   0  0  0  0  0  3  0  0  0  0  0  0
  -21.5830   -4.6740   24.9000 C   0  0  0  0  0  0  0  0  0  0  0  0
  -22.0660   -4.1230   23.7010 C   0  0  0  0  0  3  0  0  0  0  0  0
  -22.1780   -4.9260   22.5530 C   0  0  0  0  0  0  0  0  0  0  0  0
  -22.6240   -4.3840   21.3930 F   0  0  0  0  0  0  0  0  0  0  0  0
  -21.4690   -3.8960   26.0020 F   0  0  0  0  0  0  0  0  0  0  0  0
  -22.9230  -13.6630   21.2420 C   0  0  0  0  0  0  0  0  0  0  0  0
  -22.2330  -12.9420   22.1190 N   0  0  0  0  0  0  0  0  0  0  0  0
  -22.4610  -14.6980   20.7630 O   0  0  0  0  0  0  0  0  0  0  0  0
  -22.6210  -12.1050   22.5290 H   0  0  0  0  0  0  0  0  0  0  0  0
  -21.3050  -13.2370   22.3900 H   0  0  0  0  0  0  0  0  0  0  0  0
  -25.4890  -15.3730   20.3580 N   0  0  0  0  0  0  0  0  0  0  0  0
  -24.7170  -16.0110   20.5190 H   0  0  0  0  0  0  0  0  0  0  0  0
  -26.3020  -15.8260   19.9670 H   0  0  0  0  0  0  0  0  0  0  0  0
  -28.5240  -22.1900   20.2760 C   0  0  0  0  0  2  0  0  0  0  0  0
  -28.4890  -24.0790   20.6930 C   0  0  0  0  0  2  0  0  0  0  0  0
  -28.4090  -25.7530   20.2010 O   0  0  0  0  0  0  0  0  0  0  0  0
  -24.7360  -31.9160   23.1860 C   0  0  0  0  0  0  0  0  0  0  0  0
  -27.3760  -26.8980   20.2580 C   0  0  0  0  0  0  0  0  0  0  0  0
  -23.5840  -30.4950   21.5450 C   0  0  0  0  0  3  0  0  0  0  0  0
  -25.0710  -28.8650   20.1630 C   0  0  0  0  0  0  0  0  0  0  0  0
  -26.1600  -30.6890   21.4410 C   0  0  0  0  0  2  0  0  0  0  0  0
  -26.2540  -29.2540   20.8010 C   0  0  0  0  0  0  0  0  0  0  0  0
  -27.3970  -28.3020   20.8070 C   0  0  0  0  0  3  0  0  0  0  0  0
  -26.1530  -26.7050   19.5690 C   0  0  0  0  0  3  0  0  0  0  0  0
  -25.0540  -27.6130   19.5240 C   0  0  0  0  0  3  0  0  0  0  0  0
  -23.8480  -29.7950   20.1810 C   0  0  0  0  0  2  0  0  0  0  0  0
  -24.8500  -31.0670   22.1090 N   0  0  0  0  0  0  0  0  0  0  0  0
  -23.6340  -32.2010   23.6860 O   0  0  0  0  0  0  0  0  0  0  0  0
  -22.8780  -29.5070   22.5120 C   0  0  0  0  0  0  0  0  0  0  0  0
  -21.5480  -29.3390   22.3840 N   0  0  0  0  0  0  0  0  0  0  0  0
  -23.5390  -28.8890   23.3510 O   0  0  0  0  0  0  0  0  0  0  0  0
  -21.0640  -29.8910   21.6880 H   0  0  0  0  0  0  0  0  0  0  0  0
  -18.1650  -28.1190   22.9060 C   0  0  0  0  0  0  0  0  0  0  0  0
  -20.7280  -28.3940   23.1510 C   0  0  0  0  0  3  0  0  0  0  0  0
  -20.8270  -26.9660   22.5650 C   0  0  0  0  0  2  0  0  0  0  0  0
  -19.7190  -26.6490   21.5560 C   0  0  0  0  0  2  0  0  0  0  0  0
  -18.3420  -26.7790   22.2120 C   0  0  0  0  0  2  0  0  0  0  0  0
  -19.2830  -28.8840   23.3320 C   0  0  0  0  0  0  0  0  0  0  0  0
  -19.0600  -30.1360   23.9460 C   0  0  0  0  0  3  0  0  0  0  0  0
  -17.7530  -30.6220   24.1380 C   0  0  0  0  0  3  0  0  0  0  0  0
  -16.6500  -29.8560   23.7210 C   0  0  0  0  0  3  0  0  0  0  0  0
  -16.8570  -28.6050   23.1120 C   0  0  0  0  0  3  0  0  0  0  0  0
  -25.9860  -32.5860   23.8380 C   0  0  0  0  0  3  0  0  0  0  0  0
  -25.6410  -33.9860   24.1560 N   0  0  0  0  0  0  0  0  0  0  0  0
  -25.9710  -35.0500   23.4110 C   0  0  0  0  0  0  0  0  0  0  0  0
  -26.6520  -34.9570   22.3880 O   0  0  0  0  0  0  0  0  0  0  0  0
  -25.0320  -34.1310   24.9480 H   0  0  0  0  0  0  0  0  0  0  0  0
  -24.2310  -36.8380   23.0510 C   0  0  0  0  0  1  0  0  0  0  0  0
  -25.4680  -36.4350   23.8700 C   0  0  0  0  0  3  0  0  0  0  0  0
  -27.5800  -37.3470   24.7310 C   0  0  0  0  0  1  0  0  0  0  0  0
  -26.4920  -37.4990   23.7690 N   0  0  0  0  0  0  0  0  0  0  0  0
  -26.0740  -38.4160   23.9060 H   0  0  0  0  0  0  0  0  0  0  0  0
  -26.4740  -31.8440   25.1440 C   0  0  1  0  0  0  0  0  0  0  0  0
  -25.3540  -31.6070   26.1840 C   0  0  0  0  0  1  0  0  0  0  0  0
  -27.0910  -30.4680   24.8040 C   0  0  0  0  0  1  0  0  0  0  0  0
  -27.5910  -32.6680   25.8260 C   0  0  0  0  0  1  0  0  0  0  0  0
  1  7  1  0
  2  1  1  0
  3  6  1  0
  4 49  1  0
  4  3  1  0
  4  5  1  0
  5 19  1  0
  5  2  1  0
  6  8  1  0
  6  1  1  0
  7 10  1  0
  7  9  1  0
 11 19  1  0
 12 17  1  0
 13 14  1  0
 13 12  1  0
 15 14  1  0
 15 24  1  0
 15 16  1  0
 17 11  1  0
 17 16  1  0
 18 11  2  0
 20 19  1  0
 21 22  2  0
 22 41  1  0
 23 22  1  0
 23 26  1  0
 24 25  1  0
 24 21  1  0
 25 23  2  0
 26 27  1  0
 27 28  2  0
 29 32  1  0
 29 28  1  0
 30 29  2  0
 31 30  1  0
 31 26  2  0
 32 33  1  0
 33 34  1  0
 34 35  2  0
 36 35  1  0
 36 40  1  0
 37 36  2  0
 38 33  2  0
 38 37  1  0
 39 38  1  0
 41 42  1  0
 42 45  1  0
 42 44  1  0
 43 41  2  0
 46 21  1  0
 46 47  1  0
 48 46  1  0
 49 50  1  0
 51 53  1  0
 51 50  1  0
 52 63  2  0
 53 58  1  0
 54 62  1  0
 54 64  1  0
 55 61  1  0
 55 57  1  0
 56 62  1  0
 57 58  2  0
 57 56  1  0
 59 53  2  0
 60 59  1  0
 60 55  2  0
 61 54  1  0
 62 52  1  0
 64 66  2  0
 65 64  1  0
 67 65  1  0
 68 77  2  0
 68 73  1  0
 69 65  1  0
 69 73  1  0
 70 69  1  0
 71 72  1  0
 71 70  1  0
 72 68  1  0
 73 74  2  0
 74 75  1  0
 76 75  2  0
 77 76  1  0
 78 52  1  0
 78 79  1  0
 78 88  1  0
 79 82  1  0
 80 84  1  0
 80 79  1  0
 81 80  2  0
 84 83  1  0
 86 84  1  0
 86 87  1  0
 86 85  1  0
 88 91  1  1
 88 89  1  0
 90 88  1  0
M  ISO  4  11 100  19 100  50 101  51 101
M  END
>  <TORSDO>  (70) 
F 18

>  <SCORE>  (70) 
-15.867

>  <name>  (70) 
69

>  <ligand_id>  (70) 
69

>  <original_smiles>  (70) 
[H]c1c([H])c([H])c2c(c1[H])C([H])([H])C([H])([H])C([H])([H])C2([H])N([H])C(=O)C1([H])N(C(=O)C([H])(N([H])C(=O)C([H])(N([H])C([H])([H])[H])C([H])([H])[H])C(C([H])([H])[H])(C([H])([H])[H])C([H])([H])[H])C([H])([H])c2c([H])c(OC([H])([H])C([H])([H])C3([H])C([H])([H])[N+]([H])=C(N([H])[H])C([H])([H])C3([H])N([H])C(=O)N3C([H])([H])C([H])([H])C([H])([H])C([H])(n4nc(-c5c([H])c([H])c(Oc6c([H])c([H])c(F)c([H])c6F)c([H])c5[H])c(C(=O)N([H])[H])c4N([H])[H])C3([H])[H])c([H])c([H])c2C1([H])[H]

>  <smiles>  (70) 
[H]c1c([H])c([H])c2c(c1[H])C([H])([H])C([H])([H])C([H])([H])C2([H])N([H])C(=O)C1([H])N(C(=O)C([H])(N([H])C(=O)C([H])(N([H])C([H])([H])[H])C([H])([H])[H])C(C([H])([H])[H])(C([H])([H])[H])C([H])([H])[H])C([H])([H])c2c([H])c(OC([H])([H])C([H])([H])C3([H])C([H])([H])[N+]([H])=C(N([H])[H])C([H])([H])C3([H])N([H])C(=O)N3C([H])([H])C([H])([H])C([H])([H])C([H])(n4nc(-c5c([H])c([H])c(Oc6c([H])c([H])c(F)c([H])c6F)c([H])c5[H])c(C(=O)N([H])[H])c4N([H])[H])C3([H])[H])c([H])c([H])c2C1([H])[H]

$$$$
70:0:0
     RDKit          3D

102111  0  0  1  0  0  0  0  0999 V2000
  -29.2710  -18.1530   21.1370 C   0  0  0  0  0  3  0  0  0  0  0  0
  -28.9650  -19.4430   20.8120 C   0  0  0  0  0  3  0  0  0  0  0  0
  -30.5650  -17.9020   19.0290 C   0  0  0  0  0  2  0  0  0  0  0  0
  -30.3180  -17.2710   20.4290 C   0  0  0  0  0  3  0  0  0  0  0  0
  -29.5910  -20.2730   19.6730 C   0  0  0  0  0  3  0  0  0  0  0  0
  -30.8000  -19.4530   19.0870 C   0  0  0  0  0  3  0  0  0  0  0  0
  -30.7620  -14.7110   20.3160 C   0  0  0  0  0  0  0  0  0  0  0  0
  -30.5360  -12.4310   19.3620 C   0  0  0  0  0  2  0  0  0  0  0  0
  -29.6130  -12.5230   18.1290 C   0  0  0  0  0  2  0  0  0  0  0  0
  -28.1330  -12.3920   18.5460 C   0  0  0  0  0  2  0  0  0  0  0  0
  -27.7600  -13.3060   19.7460 C   0  0  0  0  0  3  0  0  0  0  0  0
  -28.8090  -13.2080   20.8730 C   0  0  0  0  0  2  0  0  0  0  0  0
  -30.1230  -13.5020   20.2870 N   0  0  0  0  0  0  0  0  0  0  0  0
  -31.9530  -14.8260   20.0260 O   0  0  0  0  0  0  0  0  0  0  0  0
  -29.9620  -15.8110   20.4440 N   0  0  0  0  0  0  0  0  0  0  0  0
  -28.9900  -15.6000   20.5940 H   0  0  0  0  0  0  0  0  0  0  0  0
  -25.3650  -13.9420   20.4310 C   0  0  0  0  0  0  0  0  0  0  0  0
  -24.2860  -13.1850   20.8000 C   0  0  0  0  0  0  0  0  0  0  0  0
  -24.7370  -11.8290   20.8000 C   0  0  0  0  0  0  0  0  0  0  0  0
  -26.4040  -13.0470   20.2250 N   0  0  0  0  0  0  0  0  0  0  0  0
  -26.0320  -11.7740   20.5040 N   0  0  0  0  0  0  0  0  0  0  0  0
  -23.9930  -10.5790   21.0040 C   0  0  0  0  0  0  0  0  0  0  0  0
  -24.4200   -9.6150   21.9450 C   0  0  0  0  0  3  0  0  0  0  0  0
  -23.6830   -8.4240   22.1380 C   0  0  0  0  0  3  0  0  0  0  0  0
  -22.5020   -8.1940   21.3930 C   0  0  0  0  0  0  0  0  0  0  0  0
  -22.0960   -9.1430   20.4410 C   0  0  0  0  0  3  0  0  0  0  0  0
  -22.8300  -10.3240   20.2480 C   0  0  0  0  0  3  0  0  0  0  0  0
  -21.7400   -7.0530   21.4890 O   0  0  0  0  0  0  0  0  0  0  0  0
  -21.7150   -6.3010   22.6370 C   0  0  0  0  0  0  0  0  0  0  0  0
  -21.3300   -6.8490   23.8790 C   0  0  0  0  0  3  0  0  0  0  0  0
  -21.2580   -6.0230   25.0200 C   0  0  0  0  0  3  0  0  0  0  0  0
  -21.5530   -4.6510   24.9180 C   0  0  0  0  0  0  0  0  0  0  0  0
  -21.9340   -4.1030   23.6810 C   0  0  0  0  0  3  0  0  0  0  0  0
  -22.0100   -4.9250   22.5430 C   0  0  0  0  0  0  0  0  0  0  0  0
  -22.3580   -4.3860   21.3500 F   0  0  0  0  0  0  0  0  0  0  0  0
  -21.4700   -3.8590   26.0120 F   0  0  0  0  0  0  0  0  0  0  0  0
  -22.8910  -13.6780   21.0420 C   0  0  0  0  0  0  0  0  0  0  0  0
  -22.1440  -13.0130   21.9190 N   0  0  0  0  0  0  0  0  0  0  0  0
  -22.4650  -14.6900   20.4830 O   0  0  0  0  0  0  0  0  0  0  0  0
  -22.4930  -12.1980   22.3970 H   0  0  0  0  0  0  0  0  0  0  0  0
  -21.2060  -13.3310   22.1150 H   0  0  0  0  0  0  0  0  0  0  0  0
  -25.5430  -15.3060   20.2350 N   0  0  0  0  0  0  0  0  0  0  0  0
  -24.7750  -15.9610   20.3140 H   0  0  0  0  0  0  0  0  0  0  0  0
  -26.3800  -15.7300   19.8570 H   0  0  0  0  0  0  0  0  0  0  0  0
  -31.2030  -19.9580   17.7150 C   0  0  0  0  0  0  0  0  0  0  0  0
  -32.4060  -20.5200   17.5410 N   0  0  0  0  0  0  0  0  0  0  0  0
  -30.3810  -19.8460   16.6570 N   0  0  0  0  0  4  0  0  0  0  0  0
  -33.0940  -20.5610   18.2860 H   0  0  0  0  0  0  0  0  0  0  0  0
  -32.7070  -20.8930   16.6500 H   0  0  0  0  0  0  0  0  0  0  0  0
  -29.4920  -19.3670   16.7210 H   0  0  0  0  0  0  0  0  0  0  0  0
  -30.6350  -20.1650   15.7310 H   0  0  0  0  0  0  0  0  0  0  0  0
  -29.9710  -21.6830   20.1100 N   0  0  0  0  0  4  0  0  0  0  0  0
  -30.9220  -21.8430   19.8070 H   0  0  0  0  0  0  0  0  0  0  0  0
  -30.0080  -21.7030   21.1140 H   0  0  0  0  0  0  0  0  0  0  0  0
  -29.2110  -22.9240   19.6600 C   0  0  0  0  0  2  0  0  0  0  0  0
  -29.3050  -24.4230   23.2930 C   0  0  0  0  0  2  0  0  0  0  0  0
  -27.8960  -25.0510   23.2200 C   0  0  0  0  0  2  0  0  0  0  0  0
  -29.9400  -24.1730   21.8990 C   0  0  0  0  0  2  0  0  0  0  0  0
  -27.7530  -25.9800   22.0030 C   0  0  0  0  0  2  0  0  0  0  0  0
  -28.8540  -23.9550   20.8200 C   0  0  0  0  0  3  0  0  0  0  0  0
  -27.9970  -25.3110   20.5990 C   0  0  0  0  0  3  0  0  0  0  0  0
  -28.3630  -26.4650   19.7120 O   0  0  0  0  0  0  0  0  0  0  0  0
  -24.7540  -31.6700   23.0740 C   0  0  0  0  0  0  0  0  0  0  0  0
  -27.3340  -27.4160   19.6200 C   0  0  0  0  0  0  0  0  0  0  0  0
  -23.5280  -30.3710   21.3690 C   0  0  0  0  0  3  0  0  0  0  0  0
  -24.9630  -28.9850   19.7740 C   0  0  0  0  0  0  0  0  0  0  0  0
  -26.0520  -30.7630   21.1420 C   0  0  0  0  0  2  0  0  0  0  0  0
  -26.1380  -29.4430   20.3850 C   0  0  0  0  0  0  0  0  0  0  0  0
  -27.3300  -28.6690   20.3060 C   0  0  0  0  0  3  0  0  0  0  0  0
  -26.1570  -27.0450   18.9350 C   0  0  0  0  0  3  0  0  0  0  0  0
  -24.9750  -27.7970   19.0310 C   0  0  0  0  0  3  0  0  0  0  0  0
  -23.7060  -29.8130   19.9330 C   0  0  0  0  0  2  0  0  0  0  0  0
  -24.7980  -30.9460   21.9190 N   0  0  0  0  0  0  0  0  0  0  0  0
  -23.6820  -31.8870   23.6550 O   0  0  0  0  0  0  0  0  0  0  0  0
  -22.9140  -29.2690   22.2680 C   0  0  0  0  0  0  0  0  0  0  0  0
  -21.5910  -29.0630   22.1580 N   0  0  0  0  0  0  0  0  0  0  0  0
  -23.6310  -28.6100   23.0260 O   0  0  0  0  0  0  0  0  0  0  0  0
  -21.0680  -29.6450   21.5190 H   0  0  0  0  0  0  0  0  0  0  0  0
  -18.2670  -27.7370   22.6380 C   0  0  0  0  0  0  0  0  0  0  0  0
  -20.8190  -28.0540   22.8850 C   0  0  0  0  0  3  0  0  0  0  0  0
  -20.9540  -26.6640   22.2180 C   0  0  0  0  0  2  0  0  0  0  0  0
  -19.8460  -26.3730   21.2020 C   0  0  0  0  0  2  0  0  0  0  0  0
  -18.4730  -26.4380   21.8760 C   0  0  0  0  0  2  0  0  0  0  0  0
  -19.3690  -28.5020   23.0980 C   0  0  0  0  0  0  0  0  0  0  0  0
  -19.1230  -29.7190   23.7700 C   0  0  0  0  0  3  0  0  0  0  0  0
  -17.8080  -30.1710   23.9860 C   0  0  0  0  0  3  0  0  0  0  0  0
  -16.7200  -29.4000   23.5450 C   0  0  0  0  0  3  0  0  0  0  0  0
  -16.9500  -28.1860   22.8760 C   0  0  0  0  0  3  0  0  0  0  0  0
  -26.0420  -32.2880   23.6980 C   0  0  0  0  0  3  0  0  0  0  0  0
  -26.6690  -31.3890   24.8330 C   0  0  1  0  0  0  0  0  0  0  0  0
  -25.6550  -30.9720   25.9230 C   0  0  0  0  0  1  0  0  0  0  0  0
  -27.2770  -30.0960   24.2390 C   0  0  0  0  0  1  0  0  0  0  0  0
  -27.8270  -32.1450   25.5240 C   0  0  0  0  0  1  0  0  0  0  0  0
  -25.6900  -33.6140   24.2190 N   0  0  0  0  0  0  0  0  0  0  0  0
  -25.9600  -34.7710   23.6020 C   0  0  0  0  0  0  0  0  0  0  0  0
  -26.6000  -34.8380   22.5490 O   0  0  0  0  0  0  0  0  0  0  0  0
  -25.1170  -33.6350   25.0510 H   0  0  0  0  0  0  0  0  0  0  0  0
  -24.1590  -36.5220   23.5360 C   0  0  0  0  0  1  0  0  0  0  0  0
  -25.4370  -36.0610   24.2570 C   0  0  0  0  0  3  0  0  0  0  0  0
  -27.5560  -36.9060   25.1640 C   0  0  0  0  0  1  0  0  0  0  0  0
  -26.4250  -37.1600   24.2730 N   0  0  0  0  0  0  0  0  0  0  0  0
  -25.9890  -38.0320   24.5580 H   0  0  0  0  0  0  0  0  0  0  0  0
  2  1  2  0
  3  6  1  0
  3  4  1  0
  4 15  1  0
  4  1  1  0
  5 52  1  0
  5  2  1  0
  6 45  1  0
  6  5  1  0
  7 15  1  0
  8 13  1  0
  9 10  1  0
  9  8  1  0
 11 10  1  0
 11 20  1  0
 11 12  1  0
 13  7  1  0
 13 12  1  0
 14  7  2  0
 15 16  1  0
 17 18  2  0
 18 19  1  0
 18 37  1  0
 19 22  1  0
 20 17  1  0
 20 21  1  0
 21 19  2  0
 22 23  1  0
 23 24  2  0
 25 28  1  0
 25 24  1  0
 26 25  2  0
 27 26  1  0
 27 22  2  0
 28 29  1  0
 29 30  1  0
 30 31  2  0
 32 31  1  0
 32 36  1  0
 33 32  2  0
 34 29  2  0
 34 33  1  0
 35 34  1  0
 37 38  1  0
 38 41  1  0
 38 40  1  0
 39 37  2  0
 42 43  1  0
 42 17  1  0
 44 42  1  0
 46 45  1  0
 46 48  1  0
 47 50  1  0
 47 45  2  0
 49 46  1  0
 51 47  1  0
 52 54  1  0
 53 52  1  0
 55 52  1  0
 57 56  1  0
 58 56  1  0
 59 57  1  0
 60 55  1  0
 60 58  1  0
 61 62  1  0
 61 60  1  0
 61 59  1  0
 63 74  2  0
 64 62  1  0
 64 69  1  0
 65 73  1  0
 65 75  1  0
 66 72  1  0
 66 68  1  0
 67 73  1  0
 68 67  1  0
 69 68  2  0
 70 71  1  0
 70 64  2  0
 71 66  2  0
 72 65  1  0
 73 63  1  0
 75 77  2  0
 76 75  1  0
 78 76  1  0
 79 88  2  0
 79 84  1  0
 80 76  1  0
 80 84  1  0
 81 80  1  0
 82 83  1  0
 82 81  1  0
 83 79  1  0
 84 85  2  0
 85 86  1  0
 87 86  2  0
 88 87  1  0
 89 63  1  0
 89 94  1  0
 89 90  1  0
 90 93  1  1
 90 91  1  0
 92 90  1  0
 94 97  1  0
 95 94  1  0
 95 99  1  0
 96 95  2  0
 99 98  1  0
 99101  1  0
101102  1  0
101100  1  0
M  ISO  4   7 100  15 100  61 101  62 101
M  END
>  <TORSDO>  (71) 
F 20

>  <SCORE>  (71) 
-12.652

>  <name>  (71) 
70

>  <ligand_id>  (71) 
70

>  <original_smiles>  (71) 
[H]C1=C([H])C([H])([N+]([H])([H])C([H])([H])C2([H])C([H])([H])C([H])([H])C([H])([H])C([H])([H])C2([H])Oc2c([H])c([H])c3c(c2[H])C([H])([H])N(C(=O)C([H])(N([H])C(=O)C([H])(N([H])C([H])([H])[H])C([H])([H])[H])C(C([H])([H])[H])(C([H])([H])[H])C([H])([H])[H])C([H])(C(=O)N([H])C2([H])c4c([H])c([H])c([H])c([H])c4C([H])([H])C([H])([H])C2([H])[H])C3([H])[H])C([H])(C(N([H])[H])=[N+]([H])[H])C([H])([H])C1([H])N([H])C(=O)N1C([H])([H])C([H])([H])C([H])([H])C([H])(n2nc(-c3c([H])c([H])c(Oc4c([H])c([H])c(F)c([H])c4F)c([H])c3[H])c(C(=O)N([H])[H])c2N([H])[H])C1([H])[H]

>  <smiles>  (71) 
[H]C1=C([H])C([H])([N+]([H])([H])C([H])([H])C2([H])C([H])([H])C([H])([H])C([H])([H])C([H])([H])C2([H])Oc2c([H])c([H])c3c(c2[H])C([H])([H])N(C(=O)C([H])(N([H])C(=O)C([H])(N([H])C([H])([H])[H])C([H])([H])[H])C(C([H])([H])[H])(C([H])([H])[H])C([H])([H])[H])C([H])(C(=O)N([H])C2([H])c4c([H])c([H])c([H])c([H])c4C([H])([H])C([H])([H])C2([H])[H])C3([H])[H])C([H])(C(N([H])[H])=[N+]([H])[H])C([H])([H])C1([H])N([H])C(=O)N1C([H])([H])C([H])([H])C([H])([H])C([H])(n2nc(-c3c([H])c([H])c(Oc4c([H])c([H])c(F)c([H])c4F)c([H])c3[H])c(C(=O)N([H])[H])c2N([H])[H])C1([H])[H]

$$$$
71:0:0
     RDKit          3D

 95104  0  0  1  0  0  0  0  0999 V2000
  -30.6040  -15.0050   20.3720 C   0  0  0  0  0  0  0  0  0  0  0  0
  -30.4450  -12.6500   19.4640 C   0  0  0  0  0  2  0  0  0  0  0  0
  -29.5460  -12.6250   18.2060 C   0  0  0  0  0  2  0  0  0  0  0  0
  -28.0660  -12.4480   18.6000 C   0  0  0  0  0  2  0  0  0  0  0  0
  -27.6490  -13.3860   19.7630 C   0  0  0  0  0  3  0  0  0  0  0  0
  -28.6760  -13.3860   20.9170 C   0  0  0  0  0  2  0  0  0  0  0  0
  -29.9750  -13.7600   20.3440 N   0  0  0  0  0  0  0  0  0  0  0  0
  -31.7990  -15.0550   20.0430 O   0  0  0  0  0  0  0  0  0  0  0  0
  -30.2210  -17.7000   20.2790 C   0  0  0  0  0  3  0  0  0  0  0  0
  -29.4640  -19.0870   20.7480 C   0  0  0  0  0  2  0  0  0  0  0  0
  -31.2130  -19.9340   18.2010 C   0  0  0  0  0  2  0  0  0  0  0  0
  -29.6770  -19.9850   18.3600 C   0  0  0  0  0  2  0  0  0  0  0  0
  -27.5830  -20.5190   19.5990 C   0  0  0  0  0  2  0  0  0  0  0  0
  -29.5710  -22.0350   20.0060 C   0  0  0  0  0  2  0  0  0  0  0  0
  -31.9750  -19.1960   19.3090 C   0  0  0  0  0  2  0  0  0  0  0  0
  -26.9160  -21.4790   20.6120 C   0  0  0  0  0  2  0  0  0  0  0  0
  -28.5710  -23.3530   20.3470 C   0  0  0  0  0  3  0  0  0  0  0  0
  -29.1280  -20.4180   19.7480 C   0  0  1  0  0  0  0  0  0  0  0  0
  -31.3820  -17.8870   19.6130 N   0  0  0  0  0  0  0  0  0  0  0  0
  -29.8400  -16.3420   20.5720 N   0  0  0  0  0  0  0  0  0  0  0  0
  -27.1570  -22.9020   20.2640 N   0  0  0  0  0  4  0  0  0  0  0  0
  -31.9310  -17.0750   19.3460 H   0  0  0  0  0  0  0  0  0  0  0  0
  -28.9020  -16.2940   20.9300 H   0  0  0  0  0  0  0  0  0  0  0  0
  -26.5960  -23.4790   20.8740 H   0  0  0  0  0  0  0  0  0  0  0  0
  -26.8100  -23.0530   19.3300 H   0  0  0  0  0  0  0  0  0  0  0  0
  -25.2560  -14.0100   20.4190 C   0  0  0  0  0  0  0  0  0  0  0  0
  -24.1740  -13.2570   20.7820 C   0  0  0  0  0  0  0  0  0  0  0  0
  -24.6230  -11.9000   20.7990 C   0  0  0  0  0  0  0  0  0  0  0  0
  -26.2950  -13.1150   20.2290 N   0  0  0  0  0  0  0  0  0  0  0  0
  -25.9220  -11.8420   20.5230 N   0  0  0  0  0  0  0  0  0  0  0  0
  -23.8770  -10.6510   20.9970 C   0  0  0  0  0  0  0  0  0  0  0  0
  -24.2870   -9.6870   21.9440 C   0  0  0  0  0  3  0  0  0  0  0  0
  -23.5410   -8.5030   22.1320 C   0  0  0  0  0  3  0  0  0  0  0  0
  -22.3680   -8.2760   21.3730 C   0  0  0  0  0  0  0  0  0  0  0  0
  -21.9760   -9.2280   20.4160 C   0  0  0  0  0  3  0  0  0  0  0  0
  -22.7240  -10.4030   20.2250 C   0  0  0  0  0  3  0  0  0  0  0  0
  -21.5940   -7.1450   21.4700 O   0  0  0  0  0  0  0  0  0  0  0  0
  -21.5460   -6.4020   22.6220 C   0  0  0  0  0  0  0  0  0  0  0  0
  -21.1600   -6.9670   23.8580 C   0  0  0  0  0  3  0  0  0  0  0  0
  -21.0570   -6.1520   25.0030 C   0  0  0  0  0  3  0  0  0  0  0  0
  -21.3300   -4.7750   24.9150 C   0  0  0  0  0  0  0  0  0  0  0  0
  -21.7090   -4.2090   23.6850 C   0  0  0  0  0  3  0  0  0  0  0  0
  -21.8140   -5.0210   22.5410 C   0  0  0  0  0  0  0  0  0  0  0  0
  -22.1600   -4.4670   21.3540 F   0  0  0  0  0  0  0  0  0  0  0  0
  -21.2230   -3.9900   26.0120 F   0  0  0  0  0  0  0  0  0  0  0  0
  -22.7750  -13.7570   20.9980 C   0  0  0  0  0  0  0  0  0  0  0  0
  -22.0170  -13.1020   21.8700 N   0  0  0  0  0  0  0  0  0  0  0  0
  -22.3630  -14.7650   20.4260 O   0  0  0  0  0  0  0  0  0  0  0  0
  -22.3620  -12.2880   22.3560 H   0  0  0  0  0  0  0  0  0  0  0  0
  -21.0750  -13.4200   22.0540 H   0  0  0  0  0  0  0  0  0  0  0  0
  -25.4400  -15.3730   20.2090 N   0  0  0  0  0  0  0  0  0  0  0  0
  -24.6600  -16.0200   20.2480 H   0  0  0  0  0  0  0  0  0  0  0  0
  -26.2610  -15.7710   19.7740 H   0  0  0  0  0  0  0  0  0  0  0  0
  -28.7070  -24.8810   19.6230 C   0  0  0  0  0  2  0  0  0  0  0  0
  -28.5440  -26.3170   20.2020 O   0  0  0  0  0  0  0  0  0  0  0  0
  -24.6280  -31.8100   23.0850 C   0  0  0  0  0  0  0  0  0  0  0  0
  -27.4330  -27.2220   20.0670 C   0  0  0  0  0  0  0  0  0  0  0  0
  -23.5110  -30.3910   21.4060 C   0  0  0  0  0  3  0  0  0  0  0  0
  -25.0410  -28.8750   19.9980 C   0  0  0  0  0  0  0  0  0  0  0  0
  -26.0550  -30.7420   21.3020 C   0  0  0  0  0  2  0  0  0  0  0  0
  -26.1870  -29.3590   20.6400 C   0  0  0  0  0  0  0  0  0  0  0  0
  -27.3770  -28.5460   20.6620 C   0  0  0  0  0  3  0  0  0  0  0  0
  -26.2590  -26.8300   19.3880 C   0  0  0  0  0  3  0  0  0  0  0  0
  -25.0890  -27.6250   19.3590 C   0  0  0  0  0  3  0  0  0  0  0  0
  -23.7830  -29.7310   20.0270 C   0  0  0  0  0  2  0  0  0  0  0  0
  -24.7500  -31.0050   21.9860 N   0  0  0  0  0  0  0  0  0  0  0  0
  -23.5220  -32.0560   23.5890 O   0  0  0  0  0  0  0  0  0  0  0  0
  -22.8430  -29.3570   22.3450 C   0  0  0  0  0  0  0  0  0  0  0  0
  -21.5140  -29.1880   22.2240 N   0  0  0  0  0  0  0  0  0  0  0  0
  -23.5210  -28.7090   23.1440 O   0  0  0  0  0  0  0  0  0  0  0  0
  -21.0230  -29.7620   21.5530 H   0  0  0  0  0  0  0  0  0  0  0  0
  -18.1300  -28.0100   22.7550 C   0  0  0  0  0  0  0  0  0  0  0  0
  -20.6990  -28.2280   22.9730 C   0  0  0  0  0  3  0  0  0  0  0  0
  -20.7680  -26.8220   22.3340 C   0  0  0  0  0  2  0  0  0  0  0  0
  -19.6370  -26.5570   21.3340 C   0  0  0  0  0  2  0  0  0  0  0  0
  -18.2730  -26.6890   22.0160 C   0  0  0  0  0  2  0  0  0  0  0  0
  -19.2680  -28.7390   23.1910 C   0  0  0  0  0  0  0  0  0  0  0  0
  -19.0790  -29.9760   23.8450 C   0  0  0  0  0  3  0  0  0  0  0  0
  -17.7840  -30.4820   24.0680 C   0  0  0  0  0  3  0  0  0  0  0  0
  -16.6600  -29.7480   23.6490 C   0  0  0  0  0  3  0  0  0  0  0  0
  -16.8350  -28.5140   22.9970 C   0  0  0  0  0  3  0  0  0  0  0  0
  -25.8710  -32.4800   23.7480 C   0  0  0  0  0  3  0  0  0  0  0  0
  -25.5000  -33.8610   24.1000 N   0  0  0  0  0  0  0  0  0  0  0  0
  -25.8030  -34.9430   23.3720 C   0  0  0  0  0  0  0  0  0  0  0  0
  -26.4890  -34.8880   22.3480 O   0  0  0  0  0  0  0  0  0  0  0  0
  -24.8890  -33.9730   24.8950 H   0  0  0  0  0  0  0  0  0  0  0  0
  -24.0090  -36.6780   23.0450 C   0  0  0  0  0  1  0  0  0  0  0  0
  -25.2600  -36.3030   23.8550 C   0  0  0  0  0  3  0  0  0  0  0  0
  -27.3550  -37.2560   24.7140 C   0  0  0  0  0  1  0  0  0  0  0  0
  -26.2520  -37.3980   23.7680 N   0  0  0  0  0  0  0  0  0  0  0  0
  -25.8100  -38.2990   23.9280 H   0  0  0  0  0  0  0  0  0  0  0  0
  -26.3840  -31.7070   25.0250 C   0  0  1  0  0  0  0  0  0  0  0  0
  -25.2770  -31.4210   26.0670 C   0  0  0  0  0  1  0  0  0  0  0  0
  -27.0190  -30.3530   24.6310 C   0  0  0  0  0  1  0  0  0  0  0  0
  -27.4940  -32.5270   25.7220 C   0  0  0  0  0  1  0  0  0  0  0  0
  1 20  1  0
  2  7  1  0
  3  4  1  0
  3  2  1  0
  5  4  1  0
  5 29  1  0
  5  6  1  0
  7  1  1  0
  7  6  1  0
  8  1  2  0
  9 20  1  0
  9 10  1  0
 11 12  1  0
 11 15  1  0
 18 13  1  6
 13 16  1  0
 14 17  1  0
 15 19  1  0
 17 54  1  0
 18 12  1  0
 18 14  1  0
 18 10  1  0
 19  9  1  0
 20 23  1  0
 21 17  1  0
 21 16  1  0
 21 24  1  0
 22 19  1  0
 25 21  1  0
 26 27  2  0
 27 28  1  0
 27 46  1  0
 28 31  1  0
 29 26  1  0
 29 30  1  0
 30 28  2  0
 31 32  1  0
 32 33  2  0
 34 37  1  0
 34 33  1  0
 35 34  2  0
 36 35  1  0
 36 31  2  0
 37 38  1  0
 38 39  1  0
 39 40  2  0
 41 40  1  0
 41 45  1  0
 42 41  2  0
 43 38  2  0
 43 42  1  0
 44 43  1  0
 46 47  1  0
 47 50  1  0
 47 49  1  0
 48 46  2  0
 51 52  1  0
 51 26  1  0
 53 51  1  0
 54 55  1  0
 56 67  2  0
 57 55  1  0
 57 62  1  0
 58 66  1  0
 58 68  1  0
 59 65  1  0
 59 61  1  0
 60 66  1  0
 61 62  2  0
 61 60  1  0
 63 57  2  0
 64 63  1  0
 64 59  2  0
 65 58  1  0
 66 56  1  0
 68 70  2  0
 69 68  1  0
 71 69  1  0
 72 81  2  0
 72 77  1  0
 73 69  1  0
 73 77  1  0
 74 73  1  0
 75 76  1  0
 75 74  1  0
 76 72  1  0
 77 78  2  0
 78 79  1  0
 80 79  2  0
 81 80  1  0
 82 56  1  0
 82 83  1  0
 82 92  1  0
 83 86  1  0
 84 88  1  0
 84 83  1  0
 85 84  2  0
 88 87  1  0
 90 88  1  0
 90 91  1  0
 90 89  1  0
 92 95  1  1
 92 93  1  0
 94 92  1  0
M  ISO  4   1 100  20 100  54 101  55 101
M  END
>  <TORSDO>  (72) 
F 16

>  <SCORE>  (72) 
-15.261

>  <name>  (72) 
71

>  <ligand_id>  (72) 
71

>  <original_smiles>  (72) 
[H]c1c([H])c([H])c2c(c1[H])C([H])([H])C([H])([H])C([H])([H])C2([H])N([H])C(=O)C1([H])N(C(=O)C([H])(N([H])C(=O)C([H])(N([H])C([H])([H])[H])C([H])([H])[H])C(C([H])([H])[H])(C([H])([H])[H])C([H])([H])[H])C([H])([H])c2c([H])c(OC([H])([H])C3([H])C([H])([H])C4(C([H])([H])C(N([H])C(=O)N5C([H])([H])C([H])([H])C([H])([H])C([H])(n6nc(-c7c([H])c([H])c(Oc8c([H])c([H])c(F)c([H])c8F)c([H])c7[H])c(C(=O)N([H])[H])c6N([H])[H])C5([H])[H])=[N+]([H])C([H])([H])C([H])([H])C4([H])[H])C([H])([H])C([H])([H])[N+]3([H])[H])c([H])c([H])c2C1([H])[H]

>  <smiles>  (72) 
[H]c1c([H])c([H])c2c(c1[H])C([H])([H])C([H])([H])C([H])([H])C2([H])N([H])C(=O)C1([H])N(C(=O)C([H])(N([H])C(=O)C([H])(N([H])C([H])([H])[H])C([H])([H])[H])C(C([H])([H])[H])(C([H])([H])[H])C([H])([H])[H])C([H])([H])c2c([H])c(OC([H])([H])C3([H])C([H])([H])C4(C([H])([H])C(N([H])C(=O)N5C([H])([H])C([H])([H])C([H])([H])C([H])(n6nc(-c7c([H])c([H])c(Oc8c([H])c([H])c(F)c([H])c8F)c([H])c7[H])c(C(=O)N([H])[H])c6N([H])[H])C5([H])[H])=[N+]([H])C([H])([H])C([H])([H])C4([H])[H])C([H])([H])C([H])([H])[N+]3([H])[H])c([H])c([H])c2C1([H])[H]

$$$$
72:0:0
     RDKit          3D

 90 98  0  0  1  0  0  0  0  0999 V2000
  -29.7040  -19.7160   21.3720 C   0  0  0  0  0  2  0  0  0  0  0  0
  -28.6700  -19.5520   19.2950 C   0  0  0  0  0  2  0  0  0  0  0  0
  -28.9190  -21.2560   21.4120 C   0  0  0  0  0  2  0  0  0  0  0  0
  -28.8180  -21.2490   19.0940 C   0  0  0  0  0  2  0  0  0  0  0  0
  -29.6990  -18.5780   20.1510 C   0  0  0  0  0  3  0  0  0  0  0  0
  -28.9610  -22.4580   20.2510 C   0  0  2  0  0  0  0  0  0  0  0  0
  -30.3620  -15.5550   20.1710 C   0  0  0  0  0  0  0  0  0  0  0  0
  -30.3920  -13.0650   19.3080 C   0  0  0  0  0  2  0  0  0  0  0  0
  -29.4560  -12.7410   18.1110 C   0  0  0  0  0  2  0  0  0  0  0  0
  -28.0350  -12.4230   18.5990 C   0  0  0  0  0  2  0  0  0  0  0  0
  -27.5740  -13.4110   19.6960 C   0  0  0  0  0  3  0  0  0  0  0  0
  -28.6360  -13.6550   20.7910 C   0  0  0  0  0  2  0  0  0  0  0  0
  -29.8230  -14.2190   20.1210 N   0  0  0  0  0  0  0  0  0  0  0  0
  -31.5830  -15.5420   19.9290 O   0  0  0  0  0  0  0  0  0  0  0  0
  -29.5840  -16.8550   20.2980 N   0  0  0  0  0  0  0  0  0  0  0  0
  -28.6170  -16.6050   20.4550 H   0  0  0  0  0  0  0  0  0  0  0  0
  -25.2330  -13.9260   20.5360 C   0  0  0  0  0  0  0  0  0  0  0  0
  -24.1880  -13.1330   20.9190 C   0  0  0  0  0  0  0  0  0  0  0  0
  -24.6660  -11.7880   20.8480 C   0  0  0  0  0  0  0  0  0  0  0  0
  -26.2730  -13.0660   20.2460 N   0  0  0  0  0  0  0  0  0  0  0  0
  -25.9500  -11.7720   20.5020 N   0  0  0  0  0  0  0  0  0  0  0  0
  -23.9540  -10.5170   21.0320 C   0  0  0  0  0  0  0  0  0  0  0  0
  -24.3990   -9.5450   21.9540 C   0  0  0  0  0  3  0  0  0  0  0  0
  -23.6850   -8.3400   22.1260 C   0  0  0  0  0  3  0  0  0  0  0  0
  -22.5100   -8.0980   21.3750 C   0  0  0  0  0  0  0  0  0  0  0  0
  -22.0840   -9.0570   20.4400 C   0  0  0  0  0  3  0  0  0  0  0  0
  -22.8010  -10.2540   20.2680 C   0  0  0  0  0  3  0  0  0  0  0  0
  -21.7640   -6.9470   21.4590 O   0  0  0  0  0  0  0  0  0  0  0  0
  -21.6990   -6.2140   22.6160 C   0  0  0  0  0  0  0  0  0  0  0  0
  -21.2230   -6.7680   23.8240 C   0  0  0  0  0  3  0  0  0  0  0  0
  -21.1090   -5.9590   24.9720 C   0  0  0  0  0  3  0  0  0  0  0  0
  -21.4610   -4.5970   24.9130 C   0  0  0  0  0  0  0  0  0  0  0  0
  -21.9310   -4.0430   23.7090 C   0  0  0  0  0  3  0  0  0  0  0  0
  -22.0470   -4.8490   22.5640 C   0  0  0  0  0  0  0  0  0  0  0  0
  -22.4820   -4.3060   21.4010 F   0  0  0  0  0  0  0  0  0  0  0  0
  -21.3450   -3.8180   26.0140 F   0  0  0  0  0  0  0  0  0  0  0  0
  -22.7980  -13.5910   21.2340 C   0  0  0  0  0  0  0  0  0  0  0  0
  -22.1030  -12.8790   22.1130 N   0  0  0  0  0  0  0  0  0  0  0  0
  -22.3380  -14.6210   20.7380 O   0  0  0  0  0  0  0  0  0  0  0  0
  -22.4890  -12.0420   22.5260 H   0  0  0  0  0  0  0  0  0  0  0  0
  -21.1730  -13.1720   22.3780 H   0  0  0  0  0  0  0  0  0  0  0  0
  -25.3750  -15.3020   20.3830 N   0  0  0  0  0  0  0  0  0  0  0  0
  -24.5980  -15.9370   20.5350 H   0  0  0  0  0  0  0  0  0  0  0  0
  -26.1900  -15.7620   20.0070 H   0  0  0  0  0  0  0  0  0  0  0  0
  -30.3680  -22.9150   20.2240 N   0  0  0  0  0  4  0  0  0  0  0  0
  -31.0020  -22.1350   20.2090 H   0  0  0  0  0  0  0  0  0  0  0  0
  -30.5800  -23.4640   21.0390 H   0  0  0  0  0  0  0  0  0  0  0  0
  -30.5570  -23.4830   19.4150 H   0  0  0  0  0  0  0  0  0  0  0  0
  -27.9810  -24.0760   20.2100 C   0  0  0  0  0  2  0  0  0  0  0  0
  -28.1870  -25.7710   20.3370 O   0  0  0  0  0  0  0  0  0  0  0  0
  -24.6300  -31.9060   23.2570 C   0  0  0  0  0  0  0  0  0  0  0  0
  -27.1840  -26.9200   20.2730 C   0  0  0  0  0  0  0  0  0  0  0  0
  -23.4440  -30.5070   21.6180 C   0  0  0  0  0  3  0  0  0  0  0  0
  -24.8960  -28.8760   20.2070 C   0  0  0  0  0  0  0  0  0  0  0  0
  -26.0150  -30.6860   21.4880 C   0  0  0  0  0  2  0  0  0  0  0  0
  -26.0850  -29.2610   20.8350 C   0  0  0  0  0  0  0  0  0  0  0  0
  -27.2190  -28.3100   20.8350 C   0  0  0  0  0  3  0  0  0  0  0  0
  -25.9570  -26.7140   19.5980 C   0  0  0  0  0  3  0  0  0  0  0  0
  -24.8630  -27.6270   19.5630 C   0  0  0  0  0  3  0  0  0  0  0  0
  -23.6820  -29.8110   20.2470 C   0  0  0  0  0  2  0  0  0  0  0  0
  -24.7200  -31.0640   22.1750 N   0  0  0  0  0  0  0  0  0  0  0  0
  -23.5380  -32.2040   23.7690 O   0  0  0  0  0  0  0  0  0  0  0  0
  -22.7330  -29.5260   22.5880 C   0  0  0  0  0  0  0  0  0  0  0  0
  -21.4010  -29.3720   22.4600 N   0  0  0  0  0  0  0  0  0  0  0  0
  -23.3880  -28.9040   23.4270 O   0  0  0  0  0  0  0  0  0  0  0  0
  -20.9260  -29.9260   21.7610 H   0  0  0  0  0  0  0  0  0  0  0  0
  -18.0100  -28.1720   22.9640 C   0  0  0  0  0  0  0  0  0  0  0  0
  -20.5710  -28.4390   23.2290 C   0  0  0  0  0  3  0  0  0  0  0  0
  -20.6710  -27.0070   22.6560 C   0  0  0  0  0  2  0  0  0  0  0  0
  -19.5700  -26.6830   21.6400 C   0  0  0  0  0  2  0  0  0  0  0  0
  -18.1880  -26.8260   22.2830 C   0  0  0  0  0  2  0  0  0  0  0  0
  -19.1290  -28.9380   23.3930 C   0  0  0  0  0  0  0  0  0  0  0  0
  -18.9050  -30.1940   23.9950 C   0  0  0  0  0  3  0  0  0  0  0  0
  -17.5990  -30.6900   24.1670 C   0  0  0  0  0  3  0  0  0  0  0  0
  -16.4960  -29.9250   23.7500 C   0  0  0  0  0  3  0  0  0  0  0  0
  -16.7030  -28.6680   23.1550 C   0  0  0  0  0  3  0  0  0  0  0  0
  -25.8960  -32.5510   23.9000 C   0  0  0  0  0  3  0  0  0  0  0  0
  -26.3800  -31.7980   25.2020 C   0  0  1  0  0  0  0  0  0  0  0  0
  -25.2640  -31.5870   26.2530 C   0  0  0  0  0  1  0  0  0  0  0  0
  -26.9600  -30.4100   24.8530 C   0  0  0  0  0  1  0  0  0  0  0  0
  -27.5250  -32.5940   25.8710 C   0  0  0  0  0  1  0  0  0  0  0  0
  -25.5820  -33.9550   24.2220 N   0  0  0  0  0  0  0  0  0  0  0  0
  -25.9000  -35.0100   23.4580 C   0  0  0  0  0  0  0  0  0  0  0  0
  -26.5460  -34.9030   22.4130 O   0  0  0  0  0  0  0  0  0  0  0  0
  -24.9990  -34.1120   25.0320 H   0  0  0  0  0  0  0  0  0  0  0  0
  -24.1510  -36.8000   23.1720 C   0  0  0  0  0  1  0  0  0  0  0  0
  -25.4290  -36.4020   23.9260 C   0  0  0  0  0  3  0  0  0  0  0  0
  -27.5910  -37.3130   24.6550 C   0  0  0  0  0  1  0  0  0  0  0  0
  -26.4510  -37.4580   23.7560 N   0  0  0  0  0  0  0  0  0  0  0  0
  -26.0450  -38.3790   23.9060 H   0  0  0  0  0  0  0  0  0  0  0  0
  1  3  1  0
  2  5  1  0
  4  2  1  0
  4  6  1  0
  5 15  1  0
  5  1  1  0
  6 49  1  1
  6  3  1  0
  7 15  1  0
  8 13  1  0
  9 10  1  0
  9  8  1  0
 11 10  1  0
 11 20  1  0
 11 12  1  0
 13  7  1  0
 13 12  1  0
 14  7  2  0
 15 16  1  0
 17 18  2  0
 18 37  1  0
 19 18  1  0
 19 22  1  0
 20 21  1  0
 20 17  1  0
 21 19  2  0
 22 23  1  0
 23 24  2  0
 25 28  1  0
 25 24  1  0
 26 25  2  0
 27 26  1  0
 27 22  2  0
 28 29  1  0
 29 30  1  0
 30 31  2  0
 32 31  1  0
 32 36  1  0
 33 32  2  0
 34 29  2  0
 34 33  1  0
 35 34  1  0
 37 38  1  0
 38 41  1  0
 38 40  1  0
 39 37  2  0
 42 43  1  0
 42 17  1  0
 44 42  1  0
 45  6  1  0
 45 47  1  0
 46 45  1  0
 48 45  1  0
 49 50  1  0
 51 62  2  0
 52 50  1  0
 52 57  1  0
 53 61  1  0
 53 63  1  0
 54 60  1  0
 54 56  1  0
 55 61  1  0
 56 57  2  0
 56 55  1  0
 58 52  2  0
 59 58  1  0
 59 54  2  0
 60 53  1  0
 61 51  1  0
 63 65  2  0
 64 63  1  0
 66 64  1  0
 67 76  2  0
 67 72  1  0
 68 64  1  0
 68 72  1  0
 69 68  1  0
 70 71  1  0
 70 69  1  0
 71 67  1  0
 72 73  2  0
 73 74  1  0
 75 74  2  0
 76 75  1  0
 77 51  1  0
 77 82  1  0
 77 78  1  0
 78 81  1  1
 78 79  1  0
 80 78  1  0
 82 85  1  0
 83 87  1  0
 83 82  1  0
 84 83  2  0
 87 86  1  0
 89 90  1  0
 89 87  1  0
 89 88  1  0
M  ISO  4   7 100  15 100  49 101  50 101
M  END
>  <TORSDO>  (73) 
F 18

>  <SCORE>  (73) 
-16.187

>  <name>  (73) 
72

>  <ligand_id>  (73) 
72

>  <original_smiles>  (73) 
[H]c1c([H])c([H])c2c(c1[H])C([H])([H])C([H])([H])C([H])([H])C2([H])N([H])C(=O)C1([H])N(C(=O)C([H])(N([H])C(=O)C([H])(N([H])C([H])([H])[H])C([H])([H])[H])C(C([H])([H])[H])(C([H])([H])[H])C([H])([H])[H])C([H])([H])c2c([H])c(OC([H])([H])C3([N+]([H])([H])[H])C([H])([H])C([H])([H])C([H])(N([H])C(=O)N4C([H])([H])C([H])([H])C([H])([H])C([H])(n5nc(-c6c([H])c([H])c(Oc7c([H])c([H])c(F)c([H])c7F)c([H])c6[H])c(C(=O)N([H])[H])c5N([H])[H])C4([H])[H])C([H])([H])C3([H])[H])c([H])c([H])c2C1([H])[H]

>  <smiles>  (73) 
[H]c1c([H])c([H])c2c(c1[H])C([H])([H])C([H])([H])C([H])([H])C2([H])N([H])C(=O)C1([H])N(C(=O)C([H])(N([H])C(=O)C([H])(N([H])C([H])([H])[H])C([H])([H])[H])C(C([H])([H])[H])(C([H])([H])[H])C([H])([H])[H])C([H])([H])c2c([H])c(OC([H])([H])C3([N+]([H])([H])[H])C([H])([H])C([H])([H])C([H])(N([H])C(=O)N4C([H])([H])C([H])([H])C([H])([H])C([H])(n5nc(-c6c([H])c([H])c(Oc7c([H])c([H])c(F)c([H])c7F)c([H])c6[H])c(C(=O)N([H])[H])c5N([H])[H])C4([H])[H])C([H])([H])C3([H])[H])c([H])c([H])c2C1([H])[H]

$$$$
73:0:0
     RDKit          3D

 93101  0  0  1  0  0  0  0  0999 V2000
  -29.5650  -20.5170   20.4870 N   0  0  0  0  0  4  0  0  0  0  0  0
  -30.4870  -20.7430   20.1520 H   0  0  0  0  0  0  0  0  0  0  0  0
  -29.6350  -20.5060   21.4910 H   0  0  0  0  0  0  0  0  0  0  0  0
  -30.8730  -18.3350   18.2400 C   0  0  0  0  0  2  0  0  0  0  0  0
  -31.4850  -18.0260   19.6110 C   0  0  0  0  0  2  0  0  0  0  0  0
  -29.4780  -18.9390   18.5100 C   0  0  0  0  0  3  0  0  0  0  0  0
  -30.2870  -17.7350   20.5330 C   0  0  0  0  0  3  0  0  0  0  0  0
  -29.2940  -19.0130   20.0540 C   0  0  0  0  0  3  0  0  0  0  0  0
  -30.5770  -14.9650   20.3340 C   0  0  0  0  0  0  0  0  0  0  0  0
  -30.3810  -12.6350   19.3720 C   0  0  0  0  0  2  0  0  0  0  0  0
  -29.4480  -12.6130   18.1440 C   0  0  0  0  0  2  0  0  0  0  0  0
  -27.9900  -12.3940   18.5800 C   0  0  0  0  0  2  0  0  0  0  0  0
  -27.5850  -13.3040   19.7730 C   0  0  0  0  0  3  0  0  0  0  0  0
  -28.6530  -13.3430   20.8880 C   0  0  0  0  0  2  0  0  0  0  0  0
  -29.9200  -13.7400   20.2590 N   0  0  0  0  0  0  0  0  0  0  0  0
  -31.7910  -14.9500   20.1180 O   0  0  0  0  0  0  0  0  0  0  0  0
  -29.8740  -16.1960   20.4440 N   0  0  0  0  0  0  0  0  0  0  0  0
  -28.8740  -16.0610   20.4990 H   0  0  0  0  0  0  0  0  0  0  0  0
  -25.2120  -13.8560   20.5500 C   0  0  0  0  0  0  0  0  0  0  0  0
  -24.1580  -13.0690   20.9260 C   0  0  0  0  0  0  0  0  0  0  0  0
  -24.6310  -11.7210   20.8820 C   0  0  0  0  0  0  0  0  0  0  0  0
  -26.2570  -12.9870   20.2880 N   0  0  0  0  0  0  0  0  0  0  0  0
  -25.9200  -11.6990   20.5580 N   0  0  0  0  0  0  0  0  0  0  0  0
  -23.9130  -10.4530   21.0690 C   0  0  0  0  0  0  0  0  0  0  0  0
  -24.3610   -9.4800   21.9890 C   0  0  0  0  0  3  0  0  0  0  0  0
  -23.6430   -8.2780   22.1670 C   0  0  0  0  0  3  0  0  0  0  0  0
  -22.4590   -8.0400   21.4270 C   0  0  0  0  0  0  0  0  0  0  0  0
  -22.0290   -9.0010   20.4960 C   0  0  0  0  0  3  0  0  0  0  0  0
  -22.7480  -10.1960   20.3160 C   0  0  0  0  0  3  0  0  0  0  0  0
  -21.7120   -6.8900   21.5170 O   0  0  0  0  0  0  0  0  0  0  0  0
  -21.6860   -6.1340   22.6620 C   0  0  0  0  0  0  0  0  0  0  0  0
  -21.2680   -6.6690   23.9000 C   0  0  0  0  0  3  0  0  0  0  0  0
  -21.1890   -5.8360   25.0340 C   0  0  0  0  0  3  0  0  0  0  0  0
  -21.5220   -4.4730   24.9340 C   0  0  0  0  0  0  0  0  0  0  0  0
  -21.9320   -3.9370   23.7010 C   0  0  0  0  0  3  0  0  0  0  0  0
  -22.0130   -4.7650   22.5670 C   0  0  0  0  0  0  0  0  0  0  0  0
  -22.3880   -4.2410   21.3760 F   0  0  0  0  0  0  0  0  0  0  0  0
  -21.4380   -3.6720   26.0230 F   0  0  0  0  0  0  0  0  0  0  0  0
  -22.7580  -13.5360   21.2030 C   0  0  0  0  0  0  0  0  0  0  0  0
  -22.0360  -12.8330   22.0690 N   0  0  0  0  0  0  0  0  0  0  0  0
  -22.3110  -14.5580   20.6840 O   0  0  0  0  0  0  0  0  0  0  0  0
  -22.4050  -12.0100   22.5230 H   0  0  0  0  0  0  0  0  0  0  0  0
  -21.0930  -13.1240   22.2840 H   0  0  0  0  0  0  0  0  0  0  0  0
  -25.3620  -15.2280   20.3760 N   0  0  0  0  0  0  0  0  0  0  0  0
  -24.5850  -15.8720   20.4840 H   0  0  0  0  0  0  0  0  0  0  0  0
  -26.1820  -15.6650   19.9740 H   0  0  0  0  0  0  0  0  0  0  0  0
  -28.4350  -18.1440   17.8770 N   0  0  0  0  0  0  0  0  0  0  0  0
  -28.6350  -18.0580   16.8830 H   0  0  0  0  0  0  0  0  0  0  0  0
  -27.5470  -18.6350   17.9140 H   0  0  0  0  0  0  0  0  0  0  0  0
  -28.6140  -21.7390   20.1230 C   0  0  0  0  0  2  0  0  0  0  0  0
  -28.9890  -23.3650   20.4070 C   0  0  0  0  0  3  0  0  0  0  0  0
  -27.9770  -24.6750   20.0790 C   0  0  0  0  0  3  0  0  0  0  0  0
  -28.2370  -26.1950   20.3090 O   0  0  0  0  0  0  0  0  0  0  0  0
  -24.6340  -31.9110   23.2590 C   0  0  0  0  0  0  0  0  0  0  0  0
  -27.1790  -27.1770   20.2380 C   0  0  0  0  0  0  0  0  0  0  0  0
  -23.4240  -30.5200   21.6250 C   0  0  0  0  0  3  0  0  0  0  0  0
  -24.8590  -28.9320   20.2060 C   0  0  0  0  0  0  0  0  0  0  0  0
  -25.9800  -30.7710   21.4570 C   0  0  0  0  0  2  0  0  0  0  0  0
  -26.0440  -29.3770   20.8040 C   0  0  0  0  0  0  0  0  0  0  0  0
  -27.2070  -28.5180   20.7980 C   0  0  0  0  0  3  0  0  0  0  0  0
  -25.9660  -26.8300   19.6050 C   0  0  0  0  0  3  0  0  0  0  0  0
  -24.8330  -27.6710   19.5930 C   0  0  0  0  0  3  0  0  0  0  0  0
  -23.6360  -29.8340   20.2520 C   0  0  0  0  0  2  0  0  0  0  0  0
  -24.7000  -31.0880   22.1690 N   0  0  0  0  0  0  0  0  0  0  0  0
  -23.5510  -32.2060   23.7880 O   0  0  0  0  0  0  0  0  0  0  0  0
  -22.7370  -29.5230   22.5930 C   0  0  0  0  0  0  0  0  0  0  0  0
  -21.4080  -29.3590   22.4630 N   0  0  0  0  0  0  0  0  0  0  0  0
  -23.4040  -28.9010   23.4260 O   0  0  0  0  0  0  0  0  0  0  0  0
  -20.9260  -29.9070   21.7620 H   0  0  0  0  0  0  0  0  0  0  0  0
  -18.0200  -28.1790   22.9700 C   0  0  0  0  0  0  0  0  0  0  0  0
  -20.5800  -28.4330   23.2390 C   0  0  0  0  0  3  0  0  0  0  0  0
  -20.6780  -26.9970   22.6770 C   0  0  0  0  0  2  0  0  0  0  0  0
  -19.5770  -26.6690   21.6630 C   0  0  0  0  0  2  0  0  0  0  0  0
  -18.1940  -26.8250   22.3020 C   0  0  0  0  0  2  0  0  0  0  0  0
  -19.1420  -28.9410   23.3960 C   0  0  0  0  0  0  0  0  0  0  0  0
  -18.9260  -30.2060   23.9830 C   0  0  0  0  0  3  0  0  0  0  0  0
  -17.6250  -30.7140   24.1430 C   0  0  0  0  0  3  0  0  0  0  0  0
  -16.5180  -29.9500   23.7340 C   0  0  0  0  0  3  0  0  0  0  0  0
  -16.7150  -28.6840   23.1550 C   0  0  0  0  0  3  0  0  0  0  0  0
  -25.9170  -32.5410   23.8830 C   0  0  0  0  0  3  0  0  0  0  0  0
  -25.6140  -33.9430   24.2120 N   0  0  0  0  0  0  0  0  0  0  0  0
  -25.9380  -34.9950   23.4470 C   0  0  0  0  0  0  0  0  0  0  0  0
  -26.5900  -34.8870   22.4070 O   0  0  0  0  0  0  0  0  0  0  0  0
  -25.0300  -34.1040   25.0200 H   0  0  0  0  0  0  0  0  0  0  0  0
  -24.2060  -36.7940   23.1280 C   0  0  0  0  0  1  0  0  0  0  0  0
  -25.4630  -36.3860   23.9130 C   0  0  0  0  0  3  0  0  0  0  0  0
  -27.6160  -37.2740   24.6920 C   0  0  0  0  0  1  0  0  0  0  0  0
  -26.4930  -37.4380   23.7720 N   0  0  0  0  0  0  0  0  0  0  0  0
  -26.0890  -38.3590   23.9240 H   0  0  0  0  0  0  0  0  0  0  0  0
  -26.4250  -31.7730   25.1670 C   0  0  1  0  0  0  0  0  0  0  0  0
  -25.3320  -31.5450   26.2360 C   0  0  0  0  0  1  0  0  0  0  0  0
  -26.9980  -30.3880   24.7930 C   0  0  0  0  0  1  0  0  0  0  0  0
  -27.5780  -32.5680   25.8250 C   0  0  0  0  0  1  0  0  0  0  0  0
  1  3  1  0
  2  1  1  0
  4  6  1  0
  4  5  1  0
  5  7  1  0
  6 47  1  0
  6  8  1  0
  7 17  1  0
  8  1  1  0
  8  7  1  0
  9 17  1  0
 10 15  1  0
 11 12  1  0
 11 10  1  0
 13 12  1  0
 13 22  1  0
 13 14  1  0
 15  9  1  0
 15 14  1  0
 16  9  2  0
 17 18  1  0
 19 20  2  0
 20 39  1  0
 21 20  1  0
 21 24  1  0
 22 19  1  0
 22 23  1  0
 23 21  2  0
 24 25  1  0
 25 26  2  0
 27 30  1  0
 27 26  1  0
 28 27  2  0
 29 28  1  0
 29 24  2  0
 30 31  1  0
 31 32  1  0
 32 33  2  0
 34 33  1  0
 34 38  1  0
 35 34  2  0
 36 31  2  0
 36 35  1  0
 37 36  1  0
 39 40  1  0
 40 43  1  0
 40 42  1  0
 41 39  2  0
 44 45  1  0
 44 19  1  0
 46 44  1  0
 47 49  1  0
 48 47  1  0
 50 51  1  0
 50  1  1  0
 52 53  1  0
 52 51  2  0
 54 65  2  0
 55 53  1  0
 55 60  1  0
 56 64  1  0
 56 66  1  0
 57 63  1  0
 57 59  1  0
 58 64  1  0
 59 58  1  0
 60 59  2  0
 61 55  2  0
 62 61  1  0
 62 57  2  0
 63 56  1  0
 64 54  1  0
 66 68  2  0
 67 66  1  0
 69 67  1  0
 70 79  2  0
 70 75  1  0
 71 67  1  0
 71 75  1  0
 72 71  1  0
 73 74  1  0
 73 72  1  0
 74 70  1  0
 75 76  2  0
 76 77  1  0
 78 77  2  0
 79 78  1  0
 80 54  1  0
 80 81  1  0
 80 90  1  0
 81 84  1  0
 82 86  1  0
 82 81  1  0
 83 82  2  0
 86 85  1  0
 88 86  1  0
 88 89  1  0
 88 87  1  0
 90 93  1  1
 90 91  1  0
 92 90  1  0
M  ISO  4   9 100  17 100  52 101  53 101
M  END
>  <TORSDO>  (74) 
F 21

>  <SCORE>  (74) 
-13.752

>  <name>  (74) 
73

>  <ligand_id>  (74) 
73

>  <original_smiles>  (74) 
[H]c1c([H])c([H])c2c(c1[H])C([H])([H])C([H])([H])C([H])([H])C2([H])N([H])C(=O)C1([H])N(C(=O)C([H])(N([H])C(=O)C([H])(N([H])C([H])([H])[H])C([H])([H])[H])C(C([H])([H])[H])(C([H])([H])[H])C([H])([H])[H])C([H])([H])c2c([H])c(OC([H])([H])C([H])([H])C([H])([H])[N+]([H])([H])C3([H])C([H])(N([H])[H])C([H])([H])C([H])([H])C3([H])N([H])C(=O)N3C([H])([H])C([H])([H])C([H])([H])C([H])(n4nc(-c5c([H])c([H])c(Oc6c([H])c([H])c(F)c([H])c6F)c([H])c5[H])c(C(=O)N([H])[H])c4N([H])[H])C3([H])[H])c([H])c([H])c2C1([H])[H]

>  <smiles>  (74) 
[H]c1c([H])c([H])c2c(c1[H])C([H])([H])C([H])([H])C([H])([H])C2([H])N([H])C(=O)C1([H])N(C(=O)C([H])(N([H])C(=O)C([H])(N([H])C([H])([H])[H])C([H])([H])[H])C(C([H])([H])[H])(C([H])([H])[H])C([H])([H])[H])C([H])([H])c2c([H])c(OC([H])([H])C([H])([H])C([H])([H])[N+]([H])([H])C3([H])C([H])(N([H])[H])C([H])([H])C([H])([H])C3([H])N([H])C(=O)N3C([H])([H])C([H])([H])C([H])([H])C([H])(n4nc(-c5c([H])c([H])c(Oc6c([H])c([H])c(F)c([H])c6F)c([H])c5[H])c(C(=O)N([H])[H])c4N([H])[H])C3([H])[H])c([H])c([H])c2C1([H])[H]

$$$$
74:0:0
     RDKit          3D

 91 99  0  0  1  0  0  0  0  0999 V2000
  -31.2940  -18.3830   21.3680 C   0  0  0  0  0  2  0  0  0  0  0  0
  -31.7510  -19.8450   21.5660 C   0  0  0  0  0  2  0  0  0  0  0  0
  -30.7040  -20.2080   19.3170 C   0  0  0  0  0  2  0  0  0  0  0  0
  -29.8450  -18.2390   20.8230 C   0  0  0  0  0  3  0  0  0  0  0  0
  -29.4160  -19.8300   20.0580 C   0  0  0  0  0  3  0  0  0  0  0  0
  -31.7160  -20.6360   20.3080 N   0  0  0  0  0  4  0  0  0  0  0  0
  -32.6260  -20.6730   19.8780 H   0  0  0  0  0  0  0  0  0  0  0  0
  -31.4560  -21.5710   20.5770 H   0  0  0  0  0  0  0  0  0  0  0  0
  -30.4290  -15.3500   20.2750 C   0  0  0  0  0  0  0  0  0  0  0  0
  -30.3880  -12.9290   19.3240 C   0  0  0  0  0  2  0  0  0  0  0  0
  -29.4530  -12.7370   18.1040 C   0  0  0  0  0  2  0  0  0  0  0  0
  -28.0060  -12.4530   18.5530 C   0  0  0  0  0  2  0  0  0  0  0  0
  -27.5650  -13.3890   19.7100 C   0  0  0  0  0  3  0  0  0  0  0  0
  -28.6320  -13.5260   20.8160 C   0  0  0  0  0  2  0  0  0  0  0  0
  -29.8450  -14.0550   20.1670 N   0  0  0  0  0  0  0  0  0  0  0  0
  -31.6580  -15.3330   20.1130 O   0  0  0  0  0  0  0  0  0  0  0  0
  -29.6740  -16.6290   20.3640 N   0  0  0  0  0  0  0  0  0  0  0  0
  -28.6920  -16.4210   20.2600 H   0  0  0  0  0  0  0  0  0  0  0  0
  -25.1930  -13.9200   20.4890 C   0  0  0  0  0  0  0  0  0  0  0  0
  -24.1430  -13.1320   20.8680 C   0  0  0  0  0  0  0  0  0  0  0  0
  -24.6250  -11.7870   20.8310 C   0  0  0  0  0  0  0  0  0  0  0  0
  -26.2440  -13.0560   20.2330 N   0  0  0  0  0  0  0  0  0  0  0  0
  -25.9150  -11.7670   20.5060 N   0  0  0  0  0  0  0  0  0  0  0  0
  -23.9120  -10.5150   21.0210 C   0  0  0  0  0  0  0  0  0  0  0  0
  -24.3540   -9.5510   21.9540 C   0  0  0  0  0  3  0  0  0  0  0  0
  -23.6370   -8.3490   22.1360 C   0  0  0  0  0  3  0  0  0  0  0  0
  -22.4660   -8.1000   21.3830 C   0  0  0  0  0  0  0  0  0  0  0  0
  -22.0430   -9.0540   20.4390 C   0  0  0  0  0  3  0  0  0  0  0  0
  -22.7600  -10.2460   20.2560 C   0  0  0  0  0  3  0  0  0  0  0  0
  -21.7210   -6.9490   21.4740 O   0  0  0  0  0  0  0  0  0  0  0  0
  -21.6730   -6.2100   22.6290 C   0  0  0  0  0  0  0  0  0  0  0  0
  -21.2320   -6.7630   23.8500 C   0  0  0  0  0  3  0  0  0  0  0  0
  -21.1330   -5.9510   24.9960 C   0  0  0  0  0  3  0  0  0  0  0  0
  -21.4650   -4.5850   24.9230 C   0  0  0  0  0  0  0  0  0  0  0  0
  -21.8990   -4.0310   23.7080 C   0  0  0  0  0  3  0  0  0  0  0  0
  -22.0010   -4.8390   22.5620 C   0  0  0  0  0  0  0  0  0  0  0  0
  -22.3990   -4.2950   21.3870 F   0  0  0  0  0  0  0  0  0  0  0  0
  -21.3650   -3.8030   26.0230 F   0  0  0  0  0  0  0  0  0  0  0  0
  -22.7410  -13.5960   21.1440 C   0  0  0  0  0  0  0  0  0  0  0  0
  -22.0160  -12.8970   22.0080 N   0  0  0  0  0  0  0  0  0  0  0  0
  -22.2990  -14.6210   20.6270 O   0  0  0  0  0  0  0  0  0  0  0  0
  -22.3790  -12.0690   22.4550 H   0  0  0  0  0  0  0  0  0  0  0  0
  -21.0760  -13.1970   22.2240 H   0  0  0  0  0  0  0  0  0  0  0  0
  -25.3430  -15.2910   20.3060 N   0  0  0  0  0  0  0  0  0  0  0  0
  -24.5780  -15.9500   20.4220 H   0  0  0  0  0  0  0  0  0  0  0  0
  -26.1750  -15.7230   19.9280 H   0  0  0  0  0  0  0  0  0  0  0  0
  -28.9750  -21.2940   20.6860 N   0  0  0  0  0  0  0  0  0  0  0  0
  -28.1390  -21.1490   21.2470 H   0  0  0  0  0  0  0  0  0  0  0  0
  -28.8710  -22.8210   20.0660 C   0  0  0  0  0  3  0  0  0  0  0  0
  -28.1740  -24.3750   20.6670 C   0  0  0  0  0  3  0  0  0  0  0  0
  -28.3100  -25.9770   20.3140 O   0  0  0  0  0  0  0  0  0  0  0  0
  -24.6250  -31.9010   23.2500 C   0  0  0  0  0  0  0  0  0  0  0  0
  -27.2570  -27.0290   20.3130 C   0  0  0  0  0  0  0  0  0  0  0  0
  -23.4600  -30.4790   21.6170 C   0  0  0  0  0  3  0  0  0  0  0  0
  -24.9320  -28.8670   20.2300 C   0  0  0  0  0  0  0  0  0  0  0  0
  -26.0250  -30.7160   21.4820 C   0  0  0  0  0  2  0  0  0  0  0  0
  -26.1120  -29.2990   20.8460 C   0  0  0  0  0  0  0  0  0  0  0  0
  -27.2750  -28.4050   20.8510 C   0  0  0  0  0  3  0  0  0  0  0  0
  -26.0400  -26.7340   19.6610 C   0  0  0  0  0  3  0  0  0  0  0  0
  -24.9170  -27.6030   19.6160 C   0  0  0  0  0  3  0  0  0  0  0  0
  -23.7080  -29.7830   20.2510 C   0  0  0  0  0  2  0  0  0  0  0  0
  -24.7260  -31.0580   22.1720 N   0  0  0  0  0  0  0  0  0  0  0  0
  -23.5270  -32.1880   23.7550 O   0  0  0  0  0  0  0  0  0  0  0  0
  -22.7600  -29.4880   22.5840 C   0  0  0  0  0  0  0  0  0  0  0  0
  -21.4320  -29.3180   22.4500 N   0  0  0  0  0  0  0  0  0  0  0  0
  -23.4210  -28.8690   23.4220 O   0  0  0  0  0  0  0  0  0  0  0  0
  -20.9500  -29.8740   21.7580 H   0  0  0  0  0  0  0  0  0  0  0  0
  -18.0440  -28.1110   22.9430 C   0  0  0  0  0  0  0  0  0  0  0  0
  -20.6030  -28.3820   23.2170 C   0  0  0  0  0  3  0  0  0  0  0  0
  -20.7060  -26.9470   22.6480 C   0  0  0  0  0  2  0  0  0  0  0  0
  -19.6090  -26.6200   21.6300 C   0  0  0  0  0  2  0  0  0  0  0  0
  -18.2250  -26.7620   22.2690 C   0  0  0  0  0  2  0  0  0  0  0  0
  -19.1590  -28.8790   23.3730 C   0  0  0  0  0  0  0  0  0  0  0  0
  -18.9320  -30.1400   23.9650 C   0  0  0  0  0  3  0  0  0  0  0  0
  -17.6250  -30.6370   24.1260 C   0  0  0  0  0  3  0  0  0  0  0  0
  -16.5250  -29.8660   23.7120 C   0  0  0  0  0  3  0  0  0  0  0  0
  -16.7350  -28.6040   23.1270 C   0  0  0  0  0  3  0  0  0  0  0  0
  -25.8840  -32.5590   23.8910 C   0  0  0  0  0  3  0  0  0  0  0  0
  -26.3700  -31.8180   25.1980 C   0  0  1  0  0  0  0  0  0  0  0  0
  -25.2540  -31.5950   26.2470 C   0  0  0  0  0  1  0  0  0  0  0  0
  -26.9640  -30.4340   24.8510 C   0  0  0  0  0  1  0  0  0  0  0  0
  -27.5060  -32.6260   25.8670 C   0  0  0  0  0  1  0  0  0  0  0  0
  -25.5560  -33.9640   24.1990 N   0  0  0  0  0  0  0  0  0  0  0  0
  -25.8990  -35.0150   23.4420 C   0  0  0  0  0  0  0  0  0  0  0  0
  -26.5890  -34.9050   22.4250 O   0  0  0  0  0  0  0  0  0  0  0  0
  -24.9400  -34.1210   24.9830 H   0  0  0  0  0  0  0  0  0  0  0  0
  -24.1790  -36.8100   23.0450 C   0  0  0  0  0  1  0  0  0  0  0  0
  -25.4080  -36.4100   23.8800 C   0  0  0  0  0  3  0  0  0  0  0  0
  -27.5270  -37.3050   24.7400 C   0  0  0  0  0  1  0  0  0  0  0  0
  -26.4430  -37.4620   23.7720 N   0  0  0  0  0  0  0  0  0  0  0  0
  -26.0370  -38.3860   23.8950 H   0  0  0  0  0  0  0  0  0  0  0  0
  1  2  1  0
  3  5  1  0
  3  6  1  0
  4 17  1  0
  4  1  1  0
  5 47  1  0
  5  4  1  0
  6  8  1  0
  6  2  1  0
  7  6  1  0
  9 17  1  0
 10 15  1  0
 11 12  1  0
 11 10  1  0
 13 12  1  0
 13 22  1  0
 13 14  1  0
 15  9  1  0
 15 14  1  0
 16  9  2  0
 18 17  1  0
 19 20  2  0
 20 39  1  0
 21 20  1  0
 21 24  1  0
 22 19  1  0
 22 23  1  0
 23 21  2  0
 24 25  1  0
 25 26  2  0
 27 30  1  0
 27 26  1  0
 28 27  2  0
 29 28  1  0
 29 24  2  0
 30 31  1  0
 31 32  1  0
 32 33  2  0
 34 33  1  0
 34 38  1  0
 35 34  2  0
 36 31  2  0
 36 35  1  0
 37 36  1  0
 39 40  1  0
 40 43  1  0
 40 42  1  0
 41 39  2  0
 44 45  1  0
 44 19  1  0
 46 44  1  0
 47 48  1  0
 49 50  2  0
 49 47  1  0
 51 50  1  0
 52 63  2  0
 53 51  1  0
 53 58  1  0
 54 62  1  0
 54 64  1  0
 55 61  1  0
 55 57  1  0
 56 62  1  0
 57 58  2  0
 57 56  1  0
 59 53  2  0
 60 59  1  0
 60 55  2  0
 61 54  1  0
 62 52  1  0
 64 66  2  0
 65 64  1  0
 67 65  1  0
 68 77  2  0
 68 73  1  0
 69 65  1  0
 69 73  1  0
 70 69  1  0
 71 72  1  0
 71 70  1  0
 72 68  1  0
 73 74  2  0
 74 75  1  0
 76 75  2  0
 77 76  1  0
 78 52  1  0
 78 83  1  0
 78 79  1  0
 79 82  1  1
 79 80  1  0
 81 79  1  0
 83 86  1  0
 84 88  1  0
 84 83  1  0
 85 84  2  0
 88 87  1  0
 90 88  1  0
 90 91  1  0
 90 89  1  0
M  ISO  4   9 100  17 100  50 101  51 101
M  END
>  <TORSDO>  (75) 
F 19

>  <SCORE>  (75) 
-15.571

>  <name>  (75) 
74

>  <ligand_id>  (75) 
74

>  <original_smiles>  (75) 
[H]c1c([H])c([H])c2c(c1[H])C([H])([H])C([H])([H])C([H])([H])C2([H])N([H])C(=O)C1([H])N(C(=O)C([H])(N([H])C(=O)C([H])(N([H])C([H])([H])[H])C([H])([H])[H])C(C([H])([H])[H])(C([H])([H])[H])C([H])([H])[H])C([H])([H])c2c([H])c(OC([H])([H])C([H])([H])N([H])C3([H])C([H])(N([H])C(=O)N4C([H])([H])C([H])([H])C([H])([H])C([H])(n5nc(-c6c([H])c([H])c(Oc7c([H])c([H])c(F)c([H])c7F)c([H])c6[H])c(C(=O)N([H])[H])c5N([H])[H])C4([H])[H])C([H])([H])C([H])([H])[N+]([H])([H])C3([H])[H])c([H])c([H])c2C1([H])[H]

>  <smiles>  (75) 
[H]c1c([H])c([H])c2c(c1[H])C([H])([H])C([H])([H])C([H])([H])C2([H])N([H])C(=O)C1([H])N(C(=O)C([H])(N([H])C(=O)C([H])(N([H])C([H])([H])[H])C([H])([H])[H])C(C([H])([H])[H])(C([H])([H])[H])C([H])([H])[H])C([H])([H])c2c([H])c(OC([H])([H])C([H])([H])N([H])C3([H])C([H])(N([H])C(=O)N4C([H])([H])C([H])([H])C([H])([H])C([H])(n5nc(-c6c([H])c([H])c(Oc7c([H])c([H])c(F)c([H])c7F)c([H])c6[H])c(C(=O)N([H])[H])c5N([H])[H])C4([H])[H])C([H])([H])C([H])([H])[N+]([H])([H])C3([H])[H])c([H])c([H])c2C1([H])[H]

$$$$
75:0:0
     RDKit          3D

100108  0  0  1  0  0  0  0  0999 V2000
  -27.2750  -23.9840   16.3940 C   0  0  0  0  0  2  0  0  0  0  0  0
  -29.3670  -25.3670   16.1950 C   0  0  0  0  0  3  0  0  0  0  0  0
  -30.4300  -26.2740   16.8020 C   0  0  0  0  0  2  0  0  0  0  0  0
  -30.1590  -26.6600   18.2750 C   0  0  0  0  0  2  0  0  0  0  0  0
  -28.4090  -24.9750   18.3960 C   0  0  0  0  0  2  0  0  0  0  0  0
  -28.6970  -26.4530   18.6220 C   0  0  0  0  0  3  0  0  0  0  0  0
  -28.4140  -24.7510   16.9490 N   0  0  0  0  0  0  0  0  0  0  0  0
  -29.4090  -25.2010   14.8610 N   0  0  0  0  0  0  0  0  0  0  0  0
  -30.1300  -25.6380   14.3020 H   0  0  0  0  0  0  0  0  0  0  0  0
  -28.7410  -24.6250   14.3660 H   0  0  0  0  0  0  0  0  0  0  0  0
  -28.4020  -26.8870   19.9520 O   0  0  0  0  0  0  0  0  0  0  0  0
  -24.6240  -31.9820   23.2160 C   0  0  0  0  0  0  0  0  0  0  0  0
  -27.2110  -27.5670   20.0620 C   0  0  0  0  0  0  0  0  0  0  0  0
  -23.3870  -30.5880   21.5870 C   0  0  0  0  0  3  0  0  0  0  0  0
  -24.8090  -29.0580   20.1400 C   0  0  0  0  0  0  0  0  0  0  0  0
  -25.9080  -30.9390   21.3580 C   0  0  0  0  0  2  0  0  0  0  0  0
  -25.9750  -29.5730   20.7180 C   0  0  0  0  0  0  0  0  0  0  0  0
  -27.1760  -28.8280   20.6900 C   0  0  0  0  0  3  0  0  0  0  0  0
  -26.0120  -27.0500   19.5080 C   0  0  0  0  0  3  0  0  0  0  0  0
  -24.8210  -27.7880   19.5450 C   0  0  0  0  0  3  0  0  0  0  0  0
  -23.5690  -29.9150   20.2030 C   0  0  0  0  0  2  0  0  0  0  0  0
  -24.6570  -31.1850   22.1100 N   0  0  0  0  0  0  0  0  0  0  0  0
  -23.5510  -32.2510   23.7750 O   0  0  0  0  0  0  0  0  0  0  0  0
  -22.7550  -29.5610   22.5540 C   0  0  0  0  0  0  0  0  0  0  0  0
  -21.4280  -29.3740   22.4520 N   0  0  0  0  0  0  0  0  0  0  0  0
  -23.4550  -28.9300   23.3520 O   0  0  0  0  0  0  0  0  0  0  0  0
  -20.9200  -29.9350   21.7830 H   0  0  0  0  0  0  0  0  0  0  0  0
  -18.0680  -28.1610   22.9690 C   0  0  0  0  0  0  0  0  0  0  0  0
  -20.6260  -28.4320   23.2310 C   0  0  0  0  0  3  0  0  0  0  0  0
  -20.7360  -27.0000   22.6590 C   0  0  0  0  0  2  0  0  0  0  0  0
  -19.6320  -26.6620   21.6540 C   0  0  0  0  0  2  0  0  0  0  0  0
  -18.2500  -26.8060   22.3020 C   0  0  0  0  0  2  0  0  0  0  0  0
  -19.1830  -28.9330   23.3900 C   0  0  0  0  0  0  0  0  0  0  0  0
  -18.9630  -30.2000   23.9680 C   0  0  0  0  0  3  0  0  0  0  0  0
  -17.6570  -30.6960   24.1360 C   0  0  0  0  0  3  0  0  0  0  0  0
  -16.5540  -29.9190   23.7420 C   0  0  0  0  0  3  0  0  0  0  0  0
  -16.7610  -28.6550   23.1620 C   0  0  0  0  0  3  0  0  0  0  0  0
  -25.9240  -32.6110   23.8060 C   0  0  0  0  0  3  0  0  0  0  0  0
  -26.4840  -31.8190   25.0530 C   0  0  1  0  0  0  0  0  0  0  0  0
  -25.4270  -31.5530   26.1500 C   0  0  0  0  0  1  0  0  0  0  0  0
  -27.0750  -30.4580   24.6150 C   0  0  0  0  0  1  0  0  0  0  0  0
  -27.6400  -32.6190   25.7000 C   0  0  0  0  0  1  0  0  0  0  0  0
  -25.6170  -33.9990   24.1720 N   0  0  0  0  0  0  0  0  0  0  0  0
  -25.9220  -35.0660   23.4220 C   0  0  0  0  0  0  0  0  0  0  0  0
  -26.5650  -34.9870   22.3680 O   0  0  0  0  0  0  0  0  0  0  0  0
  -25.0590  -34.1400   25.0000 H   0  0  0  0  0  0  0  0  0  0  0  0
  -24.1710  -36.8450   23.1420 C   0  0  0  0  0  1  0  0  0  0  0  0
  -25.4340  -36.4400   23.9150 C   0  0  0  0  0  3  0  0  0  0  0  0
  -27.5830  -37.3260   24.7090 C   0  0  0  0  0  1  0  0  0  0  0  0
  -26.4550  -37.5040   23.7990 N   0  0  0  0  0  0  0  0  0  0  0  0
  -26.0410  -38.4150   23.9760 H   0  0  0  0  0  0  0  0  0  0  0  0
  -27.2650  -22.5140   16.8710 C   0  0  0  0  0  2  0  0  0  0  0  0
  -25.9740  -22.1180   17.6160 C   0  0  0  0  0  2  0  0  0  0  0  0
  -26.0050  -20.6580   18.1160 C   0  0  0  0  0  2  0  0  0  0  0  0
  -26.8690  -20.4490   19.3780 C   0  0  0  0  0  2  0  0  0  0  0  0
  -27.3680  -19.0590   19.4970 N   0  0  0  0  0  4  0  0  0  0  0  0
  -27.8440  -18.8280   18.6420 H   0  0  0  0  0  0  0  0  0  0  0  0
  -26.5880  -18.4300   19.6020 H   0  0  0  0  0  0  0  0  0  0  0  0
  -28.3110  -18.8440   20.6130 C   0  0  0  0  0  2  0  0  0  0  0  0
  -29.1730  -17.5810   20.4020 C   0  0  0  0  0  2  0  0  0  0  0  0
  -30.2040  -17.3650   21.5290 C   0  0  0  0  0  2  0  0  0  0  0  0
  -31.2870  -16.3110   21.2180 C   0  0  0  0  0  2  0  0  0  0  0  0
  -31.2280  -14.0610   20.1270 C   0  0  0  0  0  0  0  0  0  0  0  0
  -30.7250  -11.9420   18.9580 C   0  0  0  0  0  2  0  0  0  0  0  0
  -29.7600  -12.1880   17.7800 C   0  0  0  0  0  2  0  0  0  0  0  0
  -28.2950  -12.1700   18.2600 C   0  0  0  0  0  2  0  0  0  0  0  0
  -28.0670  -13.0700   19.5040 C   0  0  0  0  0  3  0  0  0  0  0  0
  -29.1230  -12.7560   20.5890 C   0  0  0  0  0  2  0  0  0  0  0  0
  -30.4600  -12.9500   19.9930 N   0  0  0  0  0  0  0  0  0  0  0  0
  -32.2870  -14.2330   19.5120 O   0  0  0  0  0  0  0  0  0  0  0  0
  -30.7250  -14.9900   20.9540 N   0  0  0  0  0  0  0  0  0  0  0  0
  -29.8750  -14.7400   21.4380 H   0  0  0  0  0  0  0  0  0  0  0  0
  -25.7530  -13.9030   20.2630 C   0  0  0  0  0  0  0  0  0  0  0  0
  -24.6340  -13.2320   20.6790 C   0  0  0  0  0  0  0  0  0  0  0  0
  -24.9700  -11.8450   20.6520 C   0  0  0  0  0  0  0  0  0  0  0  0
  -26.7090  -12.9280   20.0200 N   0  0  0  0  0  0  0  0  0  0  0  0
  -26.2410  -11.6880   20.3060 N   0  0  0  0  0  0  0  0  0  0  0  0
  -24.1440  -10.6540   20.8780 C   0  0  0  0  0  0  0  0  0  0  0  0
  -24.5240   -9.6590   21.8030 C   0  0  0  0  0  3  0  0  0  0  0  0
  -23.7020   -8.5320   22.0190 C   0  0  0  0  0  3  0  0  0  0  0  0
  -22.4860   -8.3940   21.3090 C   0  0  0  0  0  0  0  0  0  0  0  0
  -22.1230   -9.3770   20.3730 C   0  0  0  0  0  3  0  0  0  0  0  0
  -22.9430  -10.4950   20.1550 C   0  0  0  0  0  3  0  0  0  0  0  0
  -21.6380   -7.3200   21.4340 O   0  0  0  0  0  0  0  0  0  0  0  0
  -21.5700   -6.5880   22.5900 C   0  0  0  0  0  0  0  0  0  0  0  0
  -21.2710   -7.1830   23.8350 C   0  0  0  0  0  3  0  0  0  0  0  0
  -21.1480   -6.3830   24.9870 C   0  0  0  0  0  3  0  0  0  0  0  0
  -21.3090   -4.9870   24.8960 C   0  0  0  0  0  0  0  0  0  0  0  0
  -21.6020   -4.3910   23.6570 C   0  0  0  0  0  3  0  0  0  0  0  0
  -21.7290   -5.1900   22.5070 C   0  0  0  0  0  0  0  0  0  0  0  0
  -21.9900   -4.6080   21.3130 F   0  0  0  0  0  0  0  0  0  0  0  0
  -21.1820   -4.2150   26.0020 F   0  0  0  0  0  0  0  0  0  0  0  0
  -23.2940  -13.8350   20.9850 C   0  0  0  0  0  0  0  0  0  0  0  0
  -22.5410  -13.2220   21.8920 N   0  0  0  0  0  0  0  0  0  0  0  0
  -22.9270  -14.8840   20.4550 O   0  0  0  0  0  0  0  0  0  0  0  0
  -22.8480  -12.3700   22.3380 H   0  0  0  0  0  0  0  0  0  0  0  0
  -21.6390  -13.6050   22.1410 H   0  0  0  0  0  0  0  0  0  0  0  0
  -26.0360  -15.2480   20.0530 N   0  0  0  0  0  0  0  0  0  0  0  0
  -25.3210  -15.9620   20.1430 H   0  0  0  0  0  0  0  0  0  0  0  0
  -26.8950  -15.5760   19.6400 H   0  0  0  0  0  0  0  0  0  0  0  0
  1 52  1  0
  1  7  1  0
  2  8  1  0
  2  3  1  0
  2  7  1  0
  3  4  1  0
  4  6  1  0
  5  6  1  0
  6 11  1  0
  7  5  1  0
  9  8  1  0
 10  8  1  0
 11 13  1  0
 12 23  2  0
 13 18  1  0
 14 22  1  0
 14 24  1  0
 15 21  1  0
 15 17  1  0
 16 22  1  0
 17 16  1  0
 18 17  2  0
 19 20  1  0
 19 13  2  0
 20 15  2  0
 21 14  1  0
 22 12  1  0
 24 26  2  0
 25 24  1  0
 27 25  1  0
 28 37  2  0
 28 33  1  0
 29 25  1  0
 29 33  1  0
 30 29  1  0
 31 32  1  0
 31 30  1  0
 32 28  1  0
 33 34  2  0
 34 35  1  0
 36 35  2  0
 37 36  1  0
 38 12  1  0
 38 43  1  0
 38 39  1  0
 39 42  1  1
 39 40  1  0
 41 39  1  0
 43 46  1  0
 44 48  1  0
 44 43  1  0
 45 44  2  0
 48 47  1  0
 50 48  1  0
 50 51  1  0
 50 49  1  0
 52 53  1  0
 53 54  1  0
 54 55  1  0
 55 56  1  0
 56 58  1  0
 56 59  1  0
 57 56  1  0
 60 59  1  0
 60 61  1  0
 62 61  1  0
 63 71  1  0
 64 69  1  0
 65 66  1  0
 65 64  1  0
 67 66  1  0
 67 76  1  0
 67 68  1  0
 69 63  1  0
 69 68  1  0
 70 63  2  0
 71 62  1  0
 71 72  1  0
 73 74  2  0
 74 93  1  0
 75 74  1  0
 75 78  1  0
 76 73  1  0
 76 77  1  0
 77 75  2  0
 78 79  1  0
 79 80  2  0
 81 84  1  0
 81 80  1  0
 82 81  2  0
 83 82  1  0
 83 78  2  0
 84 85  1  0
 85 86  1  0
 86 87  2  0
 88 87  1  0
 88 92  1  0
 89 88  2  0
 90 85  2  0
 90 89  1  0
 91 90  1  0
 93 94  1  0
 94 97  1  0
 94 96  1  0
 95 93  2  0
 98 99  1  0
 98 73  1  0
100 98  1  0
M  ISO  4   6 101  11 101  63 100  71 100
M  END
>  <TORSDO>  (76) 
F 26

>  <SCORE>  (76) 
-10.201

>  <name>  (76) 
75

>  <ligand_id>  (76) 
75

>  <original_smiles>  (76) 
[H]c1c([H])c([H])c2c(c1[H])C([H])([H])C([H])([H])C([H])([H])C2([H])N([H])C(=O)C1([H])N(C(=O)C([H])(N([H])C(=O)C([H])(N([H])C([H])([H])[H])C([H])([H])[H])C(C([H])([H])[H])(C([H])([H])[H])C([H])([H])[H])C([H])([H])c2c([H])c(OC3([H])C([H])([H])N(C([H])([H])C([H])([H])C([H])([H])C([H])([H])C([H])([H])[N+]([H])([H])C([H])([H])C([H])([H])C([H])([H])C([H])([H])N([H])C(=O)N4C([H])([H])C([H])([H])C([H])([H])C([H])(n5nc(-c6c([H])c([H])c(Oc7c([H])c([H])c(F)c([H])c7F)c([H])c6[H])c(C(=O)N([H])[H])c5N([H])[H])C4([H])[H])C(=[N+]([H])[H])C([H])([H])C3([H])[H])c([H])c([H])c2C1([H])[H]

>  <smiles>  (76) 
[H]c1c([H])c([H])c2c(c1[H])C([H])([H])C([H])([H])C([H])([H])C2([H])N([H])C(=O)C1([H])N(C(=O)C([H])(N([H])C(=O)C([H])(N([H])C([H])([H])[H])C([H])([H])[H])C(C([H])([H])[H])(C([H])([H])[H])C([H])([H])[H])C([H])([H])c2c([H])c(OC3([H])C([H])([H])N(C([H])([H])C([H])([H])C([H])([H])C([H])([H])C([H])([H])[N+]([H])([H])C([H])([H])C([H])([H])C([H])([H])C([H])([H])N([H])C(=O)N4C([H])([H])C([H])([H])C([H])([H])C([H])(n5nc(-c6c([H])c([H])c(Oc7c([H])c([H])c(F)c([H])c7F)c([H])c6[H])c(C(=O)N([H])[H])c5N([H])[H])C4([H])[H])C(=[N+]([H])[H])C([H])([H])C3([H])[H])c([H])c([H])c2C1([H])[H]

$$$$
76:0:0
     RDKit          3D

 97105  0  0  1  0  0  0  0  0999 V2000
  -30.2160  -18.9980   22.3360 C   0  0  0  0  0  3  0  0  0  0  0  0
  -31.4930  -19.0800   20.2780 C   0  0  0  0  0  3  0  0  0  0  0  0
  -29.8100  -20.3380   22.1340 C   0  0  0  0  0  3  0  0  0  0  0  0
  -31.0780  -20.4180   20.0700 C   0  0  0  0  0  3  0  0  0  0  0  0
  -31.0290  -18.3350   21.3850 C   0  0  0  0  0  0  0  0  0  0  0  0
  -30.2090  -21.0620   20.9870 C   0  0  0  0  0  0  0  0  0  0  0  0
  -31.3640  -16.8280   21.5320 C   0  0  0  0  0  2  0  0  0  0  0  0
  -31.0110  -14.7910   20.1110 C   0  0  0  0  0  0  0  0  0  0  0  0
  -30.6640  -12.6570   18.8700 C   0  0  0  0  0  2  0  0  0  0  0  0
  -29.6340  -12.8330   17.7320 C   0  0  0  0  0  2  0  0  0  0  0  0
  -28.1970  -12.6240   18.2510 C   0  0  0  0  0  2  0  0  0  0  0  0
  -27.9260  -13.4140   19.5550 C   0  0  0  0  0  3  0  0  0  0  0  0
  -29.0670  -13.1860   20.5830 C   0  0  0  0  0  2  0  0  0  0  0  0
  -30.3210  -13.6130   19.9470 N   0  0  0  0  0  0  0  0  0  0  0  0
  -32.1240  -14.9190   19.5900 O   0  0  0  0  0  0  0  0  0  0  0  0
  -30.4750  -15.8360   20.8400 N   0  0  0  0  0  0  0  0  0  0  0  0
  -25.5890  -14.0180   20.4420 C   0  0  0  0  0  0  0  0  0  0  0  0
  -24.5400  -13.2350   20.8410 C   0  0  0  0  0  0  0  0  0  0  0  0
  -24.9940  -11.8860   20.7350 C   0  0  0  0  0  0  0  0  0  0  0  0
  -26.6110  -13.1380   20.1140 N   0  0  0  0  0  0  0  0  0  0  0  0
  -26.2620  -11.8520   20.3500 N   0  0  0  0  0  0  0  0  0  0  0  0
  -24.2800  -10.6220   20.9250 C   0  0  0  0  0  0  0  0  0  0  0  0
  -24.7100   -9.6680   21.8720 C   0  0  0  0  0  3  0  0  0  0  0  0
  -23.9960   -8.4630   22.0440 C   0  0  0  0  0  3  0  0  0  0  0  0
  -22.8420   -8.2060   21.2680 C   0  0  0  0  0  0  0  0  0  0  0  0
  -22.4320   -9.1490   20.3100 C   0  0  0  0  0  3  0  0  0  0  0  0
  -23.1450  -10.3460   20.1350 C   0  0  0  0  0  3  0  0  0  0  0  0
  -22.1010   -7.0540   21.3510 O   0  0  0  0  0  0  0  0  0  0  0  0
  -21.9650   -6.3690   22.5320 C   0  0  0  0  0  0  0  0  0  0  0  0
  -21.3700   -6.9560   23.6680 C   0  0  0  0  0  3  0  0  0  0  0  0
  -21.1880   -6.1940   24.8400 C   0  0  0  0  0  3  0  0  0  0  0  0
  -21.5910   -4.8460   24.8730 C   0  0  0  0  0  0  0  0  0  0  0  0
  -22.1800   -4.2580   23.7400 C   0  0  0  0  0  3  0  0  0  0  0  0
  -22.3630   -5.0180   22.5720 C   0  0  0  0  0  0  0  0  0  0  0  0
  -22.9110   -4.4410   21.4740 F   0  0  0  0  0  0  0  0  0  0  0  0
  -21.4080   -4.1120   25.9950 F   0  0  0  0  0  0  0  0  0  0  0  0
  -23.1690  -13.7100   21.2230 C   0  0  0  0  0  0  0  0  0  0  0  0
  -22.4970  -12.9930   22.1170 N   0  0  0  0  0  0  0  0  0  0  0  0
  -22.7120  -14.7580   20.7680 O   0  0  0  0  0  0  0  0  0  0  0  0
  -22.8840  -12.1500   22.5100 H   0  0  0  0  0  0  0  0  0  0  0  0
  -21.5800  -13.2960   22.4150 H   0  0  0  0  0  0  0  0  0  0  0  0
  -25.7430  -15.3990   20.3320 N   0  0  0  0  0  0  0  0  0  0  0  0
  -24.7880  -15.7560   20.3480 H   0  0  0  0  0  0  0  0  0  0  0  0
  -26.1130  -15.6650   21.2400 H   0  0  0  0  0  0  0  0  0  0  0  0
  -29.0810  -16.3250   20.7130 C   0  0  0  0  0  2  0  0  0  0  0  0
  -28.7810  -16.9890   19.3440 C   0  0  0  0  0  2  0  0  0  0  0  0
  -27.4440  -17.6040   19.3160 N   0  0  0  0  0  4  0  0  0  0  0  0
  -26.7310  -16.9190   19.5610 H   0  0  0  0  0  0  0  0  0  0  0  0
  -27.2400  -17.9700   18.4030 H   0  0  0  0  0  0  0  0  0  0  0  0
  -27.3850  -18.3600   19.9760 H   0  0  0  0  0  0  0  0  0  0  0  0
  -29.6360  -22.4780   20.7590 C   0  0  0  0  0  2  0  0  0  0  0  0
  -30.5390  -23.4460   20.0820 N   0  0  0  0  0  4  0  0  0  0  0  0
  -30.5150  -23.2630   19.0900 H   0  0  0  0  0  0  0  0  0  0  0  0
  -31.4720  -23.2340   20.3970 H   0  0  0  0  0  0  0  0  0  0  0  0
  -30.3000  -24.9020   20.3480 C   0  0  0  0  0  2  0  0  0  0  0  0
  -29.0070  -25.5200   19.7410 C   0  0  0  0  0  2  0  0  0  0  0  0
  -28.9060  -26.9070   20.1300 O   0  0  0  0  0  0  0  0  0  0  0  0
  -24.8310  -31.8690   23.2150 C   0  0  0  0  0  0  0  0  0  0  0  0
  -27.6870  -27.5700   20.0890 C   0  0  0  0  0  0  0  0  0  0  0  0
  -23.7020  -30.4700   21.5130 C   0  0  0  0  0  3  0  0  0  0  0  0
  -25.2350  -29.0060   20.0840 C   0  0  0  0  0  0  0  0  0  0  0  0
  -26.2220  -30.9070   21.3810 C   0  0  0  0  0  2  0  0  0  0  0  0
  -26.3630  -29.5540   20.7060 C   0  0  0  0  0  0  0  0  0  0  0  0
  -27.5870  -28.8450   20.7000 C   0  0  0  0  0  3  0  0  0  0  0  0
  -26.5380  -27.0420   19.4550 C   0  0  0  0  0  3  0  0  0  0  0  0
  -25.3190  -27.7530   19.4520 C   0  0  0  0  0  3  0  0  0  0  0  0
  -23.9620  -29.8230   20.1250 C   0  0  0  0  0  2  0  0  0  0  0  0
  -24.9350  -31.0970   22.0950 N   0  0  0  0  0  0  0  0  0  0  0  0
  -23.7330  -32.0980   23.7380 O   0  0  0  0  0  0  0  0  0  0  0  0
  -23.0570  -29.4130   22.4400 C   0  0  0  0  0  0  0  0  0  0  0  0
  -21.7330  -29.2260   22.3090 N   0  0  0  0  0  0  0  0  0  0  0  0
  -23.7450  -28.7650   23.2330 O   0  0  0  0  0  0  0  0  0  0  0  0
  -21.2350  -29.8020   21.6450 H   0  0  0  0  0  0  0  0  0  0  0  0
  -18.3580  -28.0310   22.8160 C   0  0  0  0  0  0  0  0  0  0  0  0
  -20.9240  -28.2540   23.0450 C   0  0  0  0  0  3  0  0  0  0  0  0
  -21.0020  -26.8560   22.3880 C   0  0  0  0  0  2  0  0  0  0  0  0
  -19.8760  -26.5980   21.3820 C   0  0  0  0  0  2  0  0  0  0  0  0
  -18.5100  -26.7200   22.0630 C   0  0  0  0  0  2  0  0  0  0  0  0
  -19.4930  -28.7600   23.2620 C   0  0  0  0  0  0  0  0  0  0  0  0
  -19.2990  -29.9910   23.9240 C   0  0  0  0  0  3  0  0  0  0  0  0
  -18.0020  -30.4930   24.1460 C   0  0  0  0  0  3  0  0  0  0  0  0
  -16.8830  -29.7610   23.7140 C   0  0  0  0  0  3  0  0  0  0  0  0
  -17.0610  -28.5310   23.0540 C   0  0  0  0  0  3  0  0  0  0  0  0
  -26.0860  -32.5220   23.8780 C   0  0  0  0  0  3  0  0  0  0  0  0
  -25.7440  -33.9170   24.1940 N   0  0  0  0  0  0  0  0  0  0  0  0
  -26.0810  -34.9700   23.4390 C   0  0  0  0  0  0  0  0  0  0  0  0
  -26.7800  -34.8740   22.4260 O   0  0  0  0  0  0  0  0  0  0  0  0
  -25.1290  -34.0670   24.9800 H   0  0  0  0  0  0  0  0  0  0  0  0
  -24.3420  -36.7370   23.0210 C   0  0  0  0  0  1  0  0  0  0  0  0
  -25.5600  -36.3530   23.8760 C   0  0  0  0  0  3  0  0  0  0  0  0
  -27.6430  -37.2780   24.7890 C   0  0  0  0  0  1  0  0  0  0  0  0
  -26.5820  -37.4180   23.7950 N   0  0  0  0  0  0  0  0  0  0  0  0
  -26.1550  -38.3340   23.9130 H   0  0  0  0  0  0  0  0  0  0  0  0
  -26.5760  -31.7590   25.1700 C   0  0  1  0  0  0  0  0  0  0  0  0
  -25.4510  -31.4930   26.1950 C   0  0  0  0  0  1  0  0  0  0  0  0
  -27.2080  -30.3980   24.7970 C   0  0  0  0  0  1  0  0  0  0  0  0
  -27.6800  -32.5810   25.8750 C   0  0  0  0  0  1  0  0  0  0  0  0
  2  5  1  0
  3  1  1  0
  4  2  2  0
  4  6  1  0
  5  7  1  0
  5  1  2  0
  6  3  2  0
  8 16  1  0
  9 14  1  0
 10 11  1  0
 10  9  1  0
 12 11  1  0
 12 20  1  0
 12 13  1  0
 14  8  1  0
 14 13  1  0
 15  8  2  0
 16  7  1  0
 17 18  2  0
 18 37  1  0
 19 18  1  0
 19 22  1  0
 20 21  1  0
 20 17  1  0
 21 19  2  0
 22 23  1  0
 23 24  2  0
 25 28  1  0
 25 24  1  0
 26 25  2  0
 27 26  1  0
 27 22  2  0
 28 29  1  0
 29 34  2  0
 29 30  1  0
 30 31  2  0
 31 32  1  0
 32 36  1  0
 33 32  2  0
 34 33  1  0
 35 34  1  0
 37 38  1  0
 38 41  1  0
 38 40  1  0
 39 37  2  0
 42 43  1  0
 42 17  1  0
 42 44  1  0
 45 16  1  0
 46 45  1  0
 47 46  1  0
 47 48  1  0
 47 50  1  0
 49 47  1  0
 51  6  1  0
 52 55  1  0
 52 54  1  0
 52 51  1  0
 53 52  1  0
 56 57  1  0
 56 55  1  0
 58 69  2  0
 59 57  1  0
 59 64  1  0
 60 68  1  0
 60 70  1  0
 61 67  1  0
 61 63  1  0
 62 68  1  0
 63 62  1  0
 64 63  2  0
 65 59  2  0
 66 65  1  0
 66 61  2  0
 67 60  1  0
 68 58  1  0
 70 72  2  0
 71 70  1  0
 73 71  1  0
 74 83  2  0
 74 79  1  0
 75 71  1  0
 75 79  1  0
 76 75  1  0
 77 78  1  0
 77 76  1  0
 78 74  1  0
 79 80  2  0
 80 81  1  0
 82 81  2  0
 83 82  1  0
 84 58  1  0
 84 85  1  0
 84 94  1  0
 85 88  1  0
 86 90  1  0
 86 85  1  0
 87 86  2  0
 90 89  1  0
 92 90  1  0
 92 93  1  0
 92 91  1  0
 94 97  1  1
 94 95  1  0
 96 94  1  0
M  ISO  4   8 100  16 100  56 101  57 101
M  END
>  <TORSDO>  (77) 
F 24

>  <SCORE>  (77) 
-11.425

>  <name>  (77) 
76

>  <ligand_id>  (77) 
76

>  <original_smiles>  (77) 
[H]c1c([H])c([H])c2c(c1[H])C([H])([H])C([H])([H])C([H])([H])C2([H])N([H])C(=O)C1([H])N(C(=O)C([H])(N([H])C(=O)C([H])(N([H])C([H])([H])[H])C([H])([H])[H])C(C([H])([H])[H])(C([H])([H])[H])C([H])([H])[H])C([H])([H])c2c([H])c(OC([H])([H])C([H])([H])[N+]([H])([H])C([H])([H])c3c([H])c([H])c(C([H])([H])N(C(=O)N4C([H])([H])C([H])([H])C([H])([H])C([H])(n5nc(-c6c([H])c([H])c(Oc7c([H])c([H])c(F)c([H])c7F)c([H])c6[H])c(C(=O)N([H])[H])c5N([H])[H])C4([H])[H])C([H])([H])C([H])([H])[N+]([H])([H])[H])c([H])c3[H])c([H])c([H])c2C1([H])[H]

>  <smiles>  (77) 
[H]c1c([H])c([H])c2c(c1[H])C([H])([H])C([H])([H])C([H])([H])C2([H])N([H])C(=O)C1([H])N(C(=O)C([H])(N([H])C(=O)C([H])(N([H])C([H])([H])[H])C([H])([H])[H])C(C([H])([H])[H])(C([H])([H])[H])C([H])([H])[H])C([H])([H])c2c([H])c(OC([H])([H])C([H])([H])[N+]([H])([H])C([H])([H])c3c([H])c([H])c(C([H])([H])N(C(=O)N4C([H])([H])C([H])([H])C([H])([H])C([H])(n5nc(-c6c([H])c([H])c(Oc7c([H])c([H])c(F)c([H])c7F)c([H])c6[H])c(C(=O)N([H])[H])c5N([H])[H])C4([H])[H])C([H])([H])C([H])([H])[N+]([H])([H])[H])c([H])c3[H])c([H])c([H])c2C1([H])[H]

$$$$
77:0:0
     RDKit          3D

 99107  0  0  1  0  0  0  0  0999 V2000
  -29.5150  -20.7610   21.7370 C   0  0  0  0  0  3  0  0  0  0  0  0
  -29.5990  -21.9940   20.7860 C   0  0  0  0  0  0  0  0  0  0  0  0
  -28.8040  -23.0710   20.9690 N   0  0  0  0  0  0  0  0  0  0  0  0
  -30.4130  -21.9570   19.8590 O   0  0  0  0  0  0  0  0  0  0  0  0
  -28.1210  -23.0490   21.7130 H   0  0  0  0  0  0  0  0  0  0  0  0
  -28.8120  -24.2620   20.0870 C   0  0  0  0  0  2  0  0  0  0  0  0
  -28.1390  -25.5260   20.6930 C   0  0  0  0  0  2  0  0  0  0  0  0
  -28.1980  -26.6810   19.8270 O   0  0  0  0  0  0  0  0  0  0  0  0
  -24.5210  -31.8460   23.0960 C   0  0  0  0  0  0  0  0  0  0  0  0
  -27.0580  -27.4560   19.8500 C   0  0  0  0  0  0  0  0  0  0  0  0
  -23.2670  -30.4920   21.4520 C   0  0  0  0  0  3  0  0  0  0  0  0
  -24.6760  -28.9760   19.9530 C   0  0  0  0  0  0  0  0  0  0  0  0
  -25.7870  -30.8390   21.1950 C   0  0  0  0  0  2  0  0  0  0  0  0
  -25.8520  -29.4800   20.5270 C   0  0  0  0  0  0  0  0  0  0  0  0
  -27.0460  -28.7240   20.4800 C   0  0  0  0  0  3  0  0  0  0  0  0
  -25.8740  -26.9740   19.2560 C   0  0  0  0  0  3  0  0  0  0  0  0
  -24.6800  -27.7200   19.3210 C   0  0  0  0  0  3  0  0  0  0  0  0
  -23.4390  -29.8440   20.0540 C   0  0  0  0  0  2  0  0  0  0  0  0
  -24.5460  -31.0710   21.9750 N   0  0  0  0  0  0  0  0  0  0  0  0
  -23.4560  -32.1070   23.6720 O   0  0  0  0  0  0  0  0  0  0  0  0
  -22.6310  -29.4540   22.4030 C   0  0  0  0  0  0  0  0  0  0  0  0
  -21.3090  -29.2520   22.2780 N   0  0  0  0  0  0  0  0  0  0  0  0
  -23.3270  -28.8300   23.2090 O   0  0  0  0  0  0  0  0  0  0  0  0
  -20.8040  -29.7970   21.5930 H   0  0  0  0  0  0  0  0  0  0  0  0
  -17.9690  -27.9610   22.7410 C   0  0  0  0  0  0  0  0  0  0  0  0
  -20.5140  -28.2930   23.0430 C   0  0  0  0  0  3  0  0  0  0  0  0
  -20.6670  -26.8650   22.4720 C   0  0  0  0  0  2  0  0  0  0  0  0
  -19.5880  -26.5080   21.4460 C   0  0  0  0  0  2  0  0  0  0  0  0
  -18.1940  -26.6150   22.0730 C   0  0  0  0  0  2  0  0  0  0  0  0
  -19.0610  -28.7540   23.1830 C   0  0  0  0  0  0  0  0  0  0  0  0
  -18.7990  -30.0100   23.7710 C   0  0  0  0  0  3  0  0  0  0  0  0
  -17.4810  -30.4760   23.9180 C   0  0  0  0  0  3  0  0  0  0  0  0
  -16.4040  -29.6780   23.4970 C   0  0  0  0  0  3  0  0  0  0  0  0
  -16.6480  -28.4240   22.9120 C   0  0  0  0  0  3  0  0  0  0  0  0
  -25.8240  -32.4580   23.6940 C   0  0  0  0  0  3  0  0  0  0  0  0
  -25.5310  -33.8480   24.0650 N   0  0  0  0  0  0  0  0  0  0  0  0
  -25.8720  -34.9200   23.3360 C   0  0  0  0  0  0  0  0  0  0  0  0
  -26.5420  -34.8390   22.3030 O   0  0  0  0  0  0  0  0  0  0  0  0
  -24.9400  -33.9870   24.8740 H   0  0  0  0  0  0  0  0  0  0  0  0
  -24.1810  -36.7470   23.0210 C   0  0  0  0  0  1  0  0  0  0  0  0
  -25.4020  -36.2980   23.8370 C   0  0  0  0  0  3  0  0  0  0  0  0
  -27.5360  -37.1170   24.7310 C   0  0  0  0  0  1  0  0  0  0  0  0
  -26.4520  -37.3370   23.7770 N   0  0  0  0  0  0  0  0  0  0  0  0
  -26.0580  -38.2600   23.9490 H   0  0  0  0  0  0  0  0  0  0  0  0
  -26.3750  -31.6510   24.9320 C   0  0  1  0  0  0  0  0  0  0  0  0
  -25.3160  -31.3850   26.0290 C   0  0  0  0  0  1  0  0  0  0  0  0
  -26.9410  -30.2830   24.4820 C   0  0  0  0  0  1  0  0  0  0  0  0
  -27.5520  -32.4210   25.5750 C   0  0  0  0  0  1  0  0  0  0  0  0
  -30.4420  -19.7040   21.2310 N   0  0  0  0  0  4  0  0  0  0  0  0
  -30.5070  -19.9450   20.2510 H   0  0  0  0  0  0  0  0  0  0  0  0
  -31.3690  -19.8350   21.6040 H   0  0  0  0  0  0  0  0  0  0  0  0
  -30.0130  -18.2740   21.3390 C   0  0  0  0  0  2  0  0  0  0  0  0
  -30.9980  -14.7940   20.5210 C   0  0  0  0  0  0  0  0  0  0  0  0
  -30.7720  -12.4960   19.6860 C   0  0  0  0  0  2  0  0  0  0  0  0
  -29.9050  -12.4900   18.4110 C   0  0  0  0  0  2  0  0  0  0  0  0
  -28.3980  -12.4360   18.7550 C   0  0  0  0  0  2  0  0  0  0  0  0
  -27.9630  -13.3780   19.9170 C   0  0  0  0  0  3  0  0  0  0  0  0
  -28.9760  -13.3700   21.0810 C   0  0  0  0  0  2  0  0  0  0  0  0
  -30.3090  -13.6160   20.5190 N   0  0  0  0  0  0  0  0  0  0  0  0
  -32.2290  -14.8150   20.4550 O   0  0  0  0  0  0  0  0  0  0  0  0
  -30.7060  -16.8360   18.1000 C   0  0  0  0  0  2  0  0  0  0  0  0
  -31.1470  -17.9160   19.0600 C   0  0  0  0  0  2  0  0  0  0  0  0
  -29.6770  -16.1110   18.9420 C   0  0  0  0  0  2  0  0  0  0  0  0
  -30.8970  -17.3170   20.4750 C   0  0  0  0  0  3  0  0  0  0  0  0
  -30.2930  -15.9550   20.2730 N   0  0  0  0  0  0  0  0  0  0  0  0
  -25.5620  -14.0270   20.5270 C   0  0  0  0  0  0  0  0  0  0  0  0
  -24.4710  -13.2700   20.8550 C   0  0  0  0  0  0  0  0  0  0  0  0
  -24.9220  -11.9170   20.8770 C   0  0  0  0  0  0  0  0  0  0  0  0
  -26.6030  -13.1250   20.3600 N   0  0  0  0  0  0  0  0  0  0  0  0
  -26.2240  -11.8560   20.6390 N   0  0  0  0  0  0  0  0  0  0  0  0
  -24.1800  -10.6650   21.0550 C   0  0  0  0  0  0  0  0  0  0  0  0
  -24.5680   -9.7140   22.0220 C   0  0  0  0  0  3  0  0  0  0  0  0
  -23.8300   -8.5220   22.1870 C   0  0  0  0  0  3  0  0  0  0  0  0
  -22.6910   -8.2770   21.3830 C   0  0  0  0  0  0  0  0  0  0  0  0
  -22.3250   -9.2180   20.4050 C   0  0  0  0  0  3  0  0  0  0  0  0
  -23.0630  -10.4000   20.2380 C   0  0  0  0  0  3  0  0  0  0  0  0
  -21.9270   -7.1370   21.4540 O   0  0  0  0  0  0  0  0  0  0  0  0
  -21.8270   -6.4130   22.6140 C   0  0  0  0  0  0  0  0  0  0  0  0
  -21.3400   -6.9840   23.8100 C   0  0  0  0  0  3  0  0  0  0  0  0
  -21.1870   -6.1850   24.9600 C   0  0  0  0  0  3  0  0  0  0  0  0
  -21.5100   -4.8150   24.9150 C   0  0  0  0  0  0  0  0  0  0  0  0
  -21.9900   -4.2430   23.7220 C   0  0  0  0  0  3  0  0  0  0  0  0
  -22.1440   -5.0400   22.5750 C   0  0  0  0  0  0  0  0  0  0  0  0
  -22.5870   -4.4810   21.4240 F   0  0  0  0  0  0  0  0  0  0  0  0
  -21.3560   -4.0440   26.0170 F   0  0  0  0  0  0  0  0  0  0  0  0
  -23.0660  -13.7670   21.0410 C   0  0  0  0  0  0  0  0  0  0  0  0
  -22.2930  -13.0960   21.8880 N   0  0  0  0  0  0  0  0  0  0  0  0
  -22.6640  -14.7800   20.4730 O   0  0  0  0  0  0  0  0  0  0  0  0
  -22.6360  -12.2810   22.3740 H   0  0  0  0  0  0  0  0  0  0  0  0
  -21.3450  -13.4050   22.0530 H   0  0  0  0  0  0  0  0  0  0  0  0
  -25.7470  -15.3940   20.3360 N   0  0  0  0  0  0  0  0  0  0  0  0
  -24.9860  -16.0590   20.4160 H   0  0  0  0  0  0  0  0  0  0  0  0
  -26.6220  -15.8270   20.0700 H   0  0  0  0  0  0  0  0  0  0  0  0
  -29.7830  -21.0810   23.2400 C   0  0  0  0  0  2  0  0  0  0  0  0
  -30.7750  -22.2320   23.5510 C   0  0  0  0  0  2  0  0  0  0  0  0
  -31.3870  -22.1100   24.8900 N   0  0  0  0  0  4  0  0  0  0  0  0
  -30.7100  -21.8670   25.5900 H   0  0  0  0  0  0  0  0  0  0  0  0
  -31.8010  -22.9850   25.1590 H   0  0  0  0  0  0  0  0  0  0  0  0
  -32.1160  -21.4210   24.8940 H   0  0  0  0  0  0  0  0  0  0  0  0
  1 94  1  0
  2  3  1  0
  2  1  1  0
  3  5  1  0
  4  2  2  0
  6  7  1  0
  6  3  1  0
  8 10  1  0
  8  7  1  0
  9 20  2  0
 10 15  1  0
 11 19  1  0
 11 21  1  0
 12 18  1  0
 12 14  1  0
 13 19  1  0
 14 13  1  0
 15 14  2  0
 16 17  1  0
 16 10  2  0
 17 12  2  0
 18 11  1  0
 19  9  1  0
 21 23  2  0
 22 21  1  0
 24 22  1  0
 25 34  2  0
 25 30  1  0
 26 22  1  0
 26 30  1  0
 27 26  1  0
 28 29  1  0
 28 27  1  0
 29 25  1  0
 30 31  2  0
 31 32  1  0
 33 32  2  0
 34 33  1  0
 35  9  1  0
 35 36  1  0
 35 45  1  0
 36 39  1  0
 37 41  1  0
 37 36  1  0
 38 37  2  0
 41 40  1  0
 43 41  1  0
 43 44  1  0
 43 42  1  0
 45 48  1  1
 45 46  1  0
 47 45  1  0
 49 52  1  0
 49 51  1  0
 49  1  1  0
 50 49  1  0
 54 59  1  0
 55 56  1  0
 55 54  1  0
 57 56  1  0
 57 69  1  0
 57 58  1  0
 59 53  1  0
 59 58  1  0
 60 53  2  0
 61 63  1  0
 61 62  1  0
 62 64  1  0
 63 65  1  0
 64 52  1  0
 65 64  1  0
 65 53  1  0
 66 67  2  0
 67 68  1  0
 67 86  1  0
 68 71  1  0
 69 66  1  0
 69 70  1  0
 70 68  2  0
 71 72  1  0
 72 73  2  0
 74 77  1  0
 74 73  1  0
 75 74  2  0
 76 75  1  0
 76 71  2  0
 77 78  1  0
 78 79  1  0
 79 80  2  0
 81 80  1  0
 81 85  1  0
 82 81  2  0
 83 78  2  0
 83 82  1  0
 84 83  1  0
 86 87  1  0
 87 90  1  0
 87 89  1  0
 88 86  2  0
 91 92  1  0
 91 66  1  0
 93 91  1  0
 94 95  1  0
 95 96  1  0
 96 99  1  0
 96 98  1  0
 96 97  1  0
M  ISO  4   7 101   8 101  53 100  65 100
M  END
>  <TORSDO>  (78) 
F 24

>  <SCORE>  (78) 
-11.922

>  <name>  (78) 
77

>  <ligand_id>  (78) 
77

>  <original_smiles>  (78) 
[H]c1c([H])c([H])c2c(c1[H])C([H])([H])C([H])([H])C([H])([H])C2([H])N([H])C(=O)C1([H])N(C(=O)C([H])(N([H])C(=O)C([H])(N([H])C([H])([H])[H])C([H])([H])[H])C(C([H])([H])[H])(C([H])([H])[H])C([H])([H])[H])C([H])([H])c2c([H])c(OC([H])([H])C([H])([H])N([H])C(=O)C([H])(C([H])([H])C([H])([H])[N+]([H])([H])[H])[N+]([H])([H])C([H])([H])C3([H])N(C(=O)N4C([H])([H])C([H])([H])C([H])([H])C([H])(n5nc(-c6c([H])c([H])c(Oc7c([H])c([H])c(F)c([H])c7F)c([H])c6[H])c(C(=O)N([H])[H])c5N([H])[H])C4([H])[H])C([H])([H])C([H])([H])C3([H])[H])c([H])c([H])c2C1([H])[H]

>  <smiles>  (78) 
[H]c1c([H])c([H])c2c(c1[H])C([H])([H])C([H])([H])C([H])([H])C2([H])N([H])C(=O)C1([H])N(C(=O)C([H])(N([H])C(=O)C([H])(N([H])C([H])([H])[H])C([H])([H])[H])C(C([H])([H])[H])(C([H])([H])[H])C([H])([H])[H])C([H])([H])c2c([H])c(OC([H])([H])C([H])([H])N([H])C(=O)C([H])(C([H])([H])C([H])([H])[N+]([H])([H])[H])[N+]([H])([H])C([H])([H])C3([H])N(C(=O)N4C([H])([H])C([H])([H])C([H])([H])C([H])(n5nc(-c6c([H])c([H])c(Oc7c([H])c([H])c(F)c([H])c7F)c([H])c6[H])c(C(=O)N([H])[H])c5N([H])[H])C4([H])[H])C([H])([H])C([H])([H])C3([H])[H])c([H])c([H])c2C1([H])[H]

$$$$
78:0:0
     RDKit          3D

 99107  0  0  1  0  0  0  0  0999 V2000
  -29.0120  -22.8210   19.2300 N   0  0  1  0  0  4  0  0  0  0  0  0
  -28.4990  -22.4130   19.9970 H   0  0  0  0  0  0  0  0  0  0  0  0
  -28.0100  -23.1130   18.1540 C   0  0  0  0  0  2  0  0  0  0  0  0
  -26.7100  -22.2730   18.2540 C   0  0  0  0  0  2  0  0  0  0  0  0
  -25.5530  -22.9860   18.9910 C   0  0  0  0  0  2  0  0  0  0  0  0
  -24.4210  -22.0800   19.2690 N   0  0  0  0  0  4  0  0  0  0  0  0
  -24.0540  -21.6890   18.4190 H   0  0  0  0  0  0  0  0  0  0  0  0
  -23.6790  -22.5890   19.7170 H   0  0  0  0  0  0  0  0  0  0  0  0
  -24.6890  -21.3300   19.8810 H   0  0  0  0  0  0  0  0  0  0  0  0
  -29.9540  -21.7130   18.7760 C   0  0  0  0  0  2  0  0  0  0  0  0
  -30.2820  -20.6040   19.8340 C   0  0  0  0  0  2  0  0  0  0  0  0
  -30.6590  -18.0700   19.4620 C   0  0  0  0  0  0  0  0  0  0  0  0
  -29.9060  -19.2000   19.4880 N   0  0  0  0  0  0  0  0  0  0  0  0
  -31.8810  -18.0970   19.3080 O   0  0  0  0  0  0  0  0  0  0  0  0
  -28.9110  -19.0240   19.5330 H   0  0  0  0  0  0  0  0  0  0  0  0
  -31.2500  -14.5440   19.5350 C   0  0  0  0  0  0  0  0  0  0  0  0
  -30.8360  -12.2940   18.5540 C   0  0  0  0  0  2  0  0  0  0  0  0
  -29.7680  -12.3740   17.4430 C   0  0  0  0  0  2  0  0  0  0  0  0
  -28.3400  -12.2970   18.0160 C   0  0  0  0  0  2  0  0  0  0  0  0
  -28.1420  -13.2290   19.2350 C   0  0  0  0  0  3  0  0  0  0  0  0
  -29.2940  -13.0830   20.2460 C   0  0  0  0  0  2  0  0  0  0  0  0
  -30.5620  -13.3570   19.5430 N   0  0  0  0  0  0  0  0  0  0  0  0
  -32.2410  -14.7160   18.8220 O   0  0  0  0  0  0  0  0  0  0  0  0
  -30.1420  -16.8450   22.2070 C   0  0  0  0  0  2  0  0  0  0  0  0
  -29.1120  -17.0200   21.0930 C   0  0  0  0  0  2  0  0  0  0  0  0
  -30.9350  -15.6210   21.7390 C   0  0  0  0  0  2  0  0  0  0  0  0
  -29.9220  -16.7270   19.8160 C   0  0  0  0  0  3  0  0  0  0  0  0
  -30.7350  -15.5590   20.2820 N   0  0  0  0  0  0  0  0  0  0  0  0
  -25.9090  -13.9700   20.2710 C   0  0  0  0  0  0  0  0  0  0  0  0
  -24.8340  -13.2620   20.7370 C   0  0  0  0  0  0  0  0  0  0  0  0
  -25.1720  -11.8840   20.5800 C   0  0  0  0  0  0  0  0  0  0  0  0
  -26.8380  -13.0270   19.8650 N   0  0  0  0  0  0  0  0  0  0  0  0
  -26.4060  -11.7630   20.1060 N   0  0  0  0  0  0  0  0  0  0  0  0
  -24.3700  -10.6730   20.7980 C   0  0  0  0  0  0  0  0  0  0  0  0
  -24.7660   -9.6800   21.7210 C   0  0  0  0  0  3  0  0  0  0  0  0
  -23.9680   -8.5340   21.9250 C   0  0  0  0  0  3  0  0  0  0  0  0
  -22.7600   -8.3740   21.2050 C   0  0  0  0  0  0  0  0  0  0  0  0
  -22.3820   -9.3540   20.2710 C   0  0  0  0  0  3  0  0  0  0  0  0
  -23.1810  -10.4910   20.0640 C   0  0  0  0  0  3  0  0  0  0  0  0
  -21.9340   -7.2810   21.3190 O   0  0  0  0  0  0  0  0  0  0  0  0
  -21.7890   -6.6100   22.5050 C   0  0  0  0  0  0  0  0  0  0  0  0
  -21.3460   -7.2560   23.6800 C   0  0  0  0  0  3  0  0  0  0  0  0
  -21.1450   -6.5150   24.8610 C   0  0  0  0  0  3  0  0  0  0  0  0
  -21.3780   -5.1260   24.8690 C   0  0  0  0  0  0  0  0  0  0  0  0
  -21.8130   -4.4780   23.7000 C   0  0  0  0  0  3  0  0  0  0  0  0
  -22.0140   -5.2170   22.5200 C   0  0  0  0  0  0  0  0  0  0  0  0
  -22.4140   -4.5840   21.3920 F   0  0  0  0  0  0  0  0  0  0  0  0
  -21.1770   -4.4110   26.0010 F   0  0  0  0  0  0  0  0  0  0  0  0
  -23.5260  -13.8330   21.2070 C   0  0  0  0  0  0  0  0  0  0  0  0
  -22.8770  -13.1710   22.1610 N   0  0  0  0  0  0  0  0  0  0  0  0
  -23.0970  -14.8980   20.7660 O   0  0  0  0  0  0  0  0  0  0  0  0
  -23.2350  -12.3090   22.5430 H   0  0  0  0  0  0  0  0  0  0  0  0
  -22.0050  -13.5390   22.5120 H   0  0  0  0  0  0  0  0  0  0  0  0
  -26.1660  -15.3300   20.1420 N   0  0  0  0  0  0  0  0  0  0  0  0
  -25.4910  -16.0370   20.4140 H   0  0  0  0  0  0  0  0  0  0  0  0
  -27.0120  -15.7150   19.7430 H   0  0  0  0  0  0  0  0  0  0  0  0
  -29.6000  -24.1190   19.7680 C   0  0  0  0  0  2  0  0  0  0  0  0
  -28.5230  -25.1250   20.3500 C   0  0  0  0  0  2  0  0  0  0  0  0
  -28.7020  -26.5850   20.2250 O   0  0  0  0  0  0  0  0  0  0  0  0
  -24.7430  -31.8060   23.2510 C   0  0  0  0  0  0  0  0  0  0  0  0
  -27.5380  -27.3700   20.1920 C   0  0  0  0  0  0  0  0  0  0  0  0
  -23.6040  -30.3750   21.5970 C   0  0  0  0  0  3  0  0  0  0  0  0
  -25.1160  -28.8910   20.1810 C   0  0  0  0  0  0  0  0  0  0  0  0
  -26.1330  -30.7890   21.4360 C   0  0  0  0  0  2  0  0  0  0  0  0
  -26.2660  -29.4200   20.7800 C   0  0  0  0  0  0  0  0  0  0  0  0
  -27.4810  -28.6760   20.7680 C   0  0  0  0  0  3  0  0  0  0  0  0
  -26.3520  -26.8920   19.5800 C   0  0  0  0  0  3  0  0  0  0  0  0
  -25.1580  -27.6310   19.5760 C   0  0  0  0  0  3  0  0  0  0  0  0
  -23.8510  -29.7200   20.2170 C   0  0  0  0  0  2  0  0  0  0  0  0
  -24.8450  -31.0060   22.1520 N   0  0  0  0  0  0  0  0  0  0  0  0
  -23.6460  -32.0470   23.7740 O   0  0  0  0  0  0  0  0  0  0  0  0
  -22.9660  -29.3300   22.5420 C   0  0  0  0  0  0  0  0  0  0  0  0
  -21.6560  -29.0800   22.3700 N   0  0  0  0  0  0  0  0  0  0  0  0
  -23.6480  -28.7460   23.3880 O   0  0  0  0  0  0  0  0  0  0  0  0
  -21.1630  -29.6070   21.6640 H   0  0  0  0  0  0  0  0  0  0  0  0
  -18.3380  -27.6910   22.7390 C   0  0  0  0  0  0  0  0  0  0  0  0
  -20.8600  -28.1090   23.1210 C   0  0  0  0  0  3  0  0  0  0  0  0
  -21.0740  -26.6760   22.5810 C   0  0  0  0  0  2  0  0  0  0  0  0
  -20.0400  -26.2680   21.5260 C   0  0  0  0  0  2  0  0  0  0  0  0
  -18.6240  -26.3420   22.1020 C   0  0  0  0  0  2  0  0  0  0  0  0
  -19.3880  -28.5280   23.2030 C   0  0  0  0  0  0  0  0  0  0  0  0
  -19.0670  -29.7850   23.7560 C   0  0  0  0  0  3  0  0  0  0  0  0
  -17.7290  -30.2120   23.8510 C   0  0  0  0  0  3  0  0  0  0  0  0
  -16.6920  -29.3740   23.4030 C   0  0  0  0  0  3  0  0  0  0  0  0
  -16.9960  -28.1160   22.8540 C   0  0  0  0  0  3  0  0  0  0  0  0
  -25.9990  -32.4760   23.8920 C   0  0  0  0  0  3  0  0  0  0  0  0
  -26.5160  -31.7210   25.1780 C   0  0  1  0  0  0  0  0  0  0  0  0
  -25.4130  -31.4500   26.2260 C   0  0  0  0  0  1  0  0  0  0  0  0
  -27.1490  -30.3620   24.7980 C   0  0  0  0  0  1  0  0  0  0  0  0
  -27.6280  -32.5550   25.8570 C   0  0  0  0  0  1  0  0  0  0  0  0
  -25.6430  -33.8650   24.2140 N   0  0  0  0  0  0  0  0  0  0  0  0
  -25.9470  -34.9230   23.4520 C   0  0  0  0  0  0  0  0  0  0  0  0
  -26.6270  -34.8350   22.4250 O   0  0  0  0  0  0  0  0  0  0  0  0
  -25.0380  -34.0050   25.0110 H   0  0  0  0  0  0  0  0  0  0  0  0
  -24.1640  -36.6570   23.0820 C   0  0  0  0  0  1  0  0  0  0  0  0
  -25.4150  -36.2970   23.9000 C   0  0  0  0  0  3  0  0  0  0  0  0
  -27.5150  -37.2560   24.7310 C   0  0  0  0  0  1  0  0  0  0  0  0
  -26.4120  -37.3830   23.7840 N   0  0  0  0  0  0  0  0  0  0  0  0
  -25.9750  -38.2890   23.9250 H   0  0  0  0  0  0  0  0  0  0  0  0
  1 57  1  0
  1  2  1  1
  3  4  1  0
  3  1  1  0
  4  5  1  0
  5  6  1  0
  6  8  1  0
  6  9  1  0
  7  6  1  0
 10  1  1  0
 10 11  1  0
 12 13  1  0
 13 15  1  0
 13 11  1  0
 14 12  2  0
 16 22  1  0
 16 28  1  0
 17 22  1  0
 18 19  1  0
 18 17  1  0
 20 19  1  0
 20 32  1  0
 20 21  1  0
 22 21  1  0
 23 16  2  0
 25 24  1  0
 26 24  1  0
 27 12  1  0
 27 28  1  0
 27 25  1  0
 28 26  1  0
 29 30  2  0
 30 49  1  0
 31 30  1  0
 31 34  1  0
 32 33  1  0
 32 29  1  0
 33 31  2  0
 34 35  1  0
 35 36  2  0
 37 40  1  0
 37 36  1  0
 38 37  2  0
 39 38  1  0
 39 34  2  0
 40 41  1  0
 41 46  2  0
 41 42  1  0
 42 43  2  0
 43 44  1  0
 44 48  1  0
 45 44  2  0
 46 45  1  0
 47 46  1  0
 49 50  1  0
 50 53  1  0
 50 52  1  0
 51 49  2  0
 54 29  1  0
 54 55  1  0
 56 54  1  0
 57 58  1  0
 59 58  1  0
 60 71  2  0
 61 59  1  0
 61 66  1  0
 62 70  1  0
 62 72  1  0
 63 69  1  0
 63 65  1  0
 64 70  1  0
 65 64  1  0
 66 65  2  0
 67 61  2  0
 68 67  1  0
 68 63  2  0
 69 62  1  0
 70 60  1  0
 72 74  2  0
 73 72  1  0
 75 73  1  0
 76 85  2  0
 76 81  1  0
 77 73  1  0
 77 81  1  0
 78 77  1  0
 79 80  1  0
 79 78  1  0
 80 76  1  0
 81 82  2  0
 82 83  1  0
 84 83  2  0
 85 84  1  0
 86 60  1  0
 86 91  1  0
 86 87  1  0
 87 90  1  1
 87 88  1  0
 89 87  1  0
 91 94  1  0
 92 96  1  0
 92 91  1  0
 93 92  2  0
 96 95  1  0
 98 96  1  0
 98 99  1  0
 98 97  1  0
M  ISO  4  16 100  28 100  58 101  59 101
M  END
>  <TORSDO>  (79) 
F 25

>  <SCORE>  (79) 
-11.831

>  <name>  (79) 
78

>  <ligand_id>  (79) 
78

>  <original_smiles>  (79) 
[H]c1c([H])c([H])c2c(c1[H])C([H])([H])C([H])([H])C([H])([H])C2([H])N([H])C(=O)C1([H])N(C(=O)C([H])(N([H])C(=O)C([H])(N([H])C([H])([H])[H])C([H])([H])[H])C(C([H])([H])[H])(C([H])([H])[H])C([H])([H])[H])C([H])([H])c2c([H])c(OC([H])([H])C([H])([H])[N+]([H])(C([H])([H])C([H])([H])N([H])C(=O)C3([H])N(C(=O)N4C([H])([H])C([H])([H])C([H])([H])C([H])(n5nc(-c6c([H])c([H])c(Oc7c([H])c([H])c(F)c([H])c7F)c([H])c6[H])c(C(=O)N([H])[H])c5N([H])[H])C4([H])[H])C([H])([H])C([H])([H])C3([H])[H])C([H])([H])C([H])([H])C([H])([H])[N+]([H])([H])[H])c([H])c([H])c2C1([H])[H]

>  <smiles>  (79) 
[H]c1c([H])c([H])c2c(c1[H])C([H])([H])C([H])([H])C([H])([H])C2([H])N([H])C(=O)C1([H])N(C(=O)C([H])(N([H])C(=O)C([H])(N([H])C([H])([H])[H])C([H])([H])[H])C(C([H])([H])[H])(C([H])([H])[H])C([H])([H])[H])C([H])([H])c2c([H])c(OC([H])([H])C([H])([H])[N+]([H])(C([H])([H])C([H])([H])N([H])C(=O)C3([H])N(C(=O)N4C([H])([H])C([H])([H])C([H])([H])C([H])(n5nc(-c6c([H])c([H])c(Oc7c([H])c([H])c(F)c([H])c7F)c([H])c6[H])c(C(=O)N([H])[H])c5N([H])[H])C4([H])[H])C([H])([H])C([H])([H])C3([H])[H])C([H])([H])C([H])([H])C([H])([H])[N+]([H])([H])[H])c([H])c([H])c2C1([H])[H]

$$$$
79:0:0
     RDKit          3D

 95103  0  0  1  0  0  0  0  0999 V2000
  -28.4870  -21.5100   19.8220 N   0  0  1  0  0  4  0  0  0  0  0  0
  -28.8370  -21.6800   18.8890 H   0  0  0  0  0  0  0  0  0  0  0  0
  -30.5190  -15.2170   20.2950 C   0  0  0  0  0  0  0  0  0  0  0  0
  -30.3820  -12.8290   19.3870 C   0  0  0  0  0  2  0  0  0  0  0  0
  -29.4570  -12.6990   18.1560 C   0  0  0  0  0  2  0  0  0  0  0  0
  -28.0100  -12.4380   18.6080 C   0  0  0  0  0  2  0  0  0  0  0  0
  -27.5750  -13.3820   19.7570 C   0  0  0  0  0  3  0  0  0  0  0  0
  -28.6350  -13.5100   20.8700 C   0  0  0  0  0  2  0  0  0  0  0  0
  -29.8700  -13.9670   20.2220 N   0  0  0  0  0  0  0  0  0  0  0  0
  -31.7430  -15.1410   20.1280 O   0  0  0  0  0  0  0  0  0  0  0  0
  -28.1390  -18.6740   19.9310 C   0  0  0  0  0  2  0  0  0  0  0  0
  -28.6180  -17.0920   19.8390 C   0  0  0  0  0  2  0  0  0  0  0  0
  -30.7640  -17.8130   20.6230 C   0  0  0  0  0  2  0  0  0  0  0  0
  -30.2110  -19.3630   20.9150 C   0  0  0  0  0  3  0  0  0  0  0  0
  -29.1170  -19.9650   19.9100 C   0  0  0  0  0  3  0  0  0  0  0  0
  -29.9110  -16.5530   20.4120 N   0  0  0  0  0  0  0  0  0  0  0  0
  -25.2080  -13.9090   20.5510 C   0  0  0  0  0  0  0  0  0  0  0  0
  -24.1590  -13.1180   20.9250 C   0  0  0  0  0  0  0  0  0  0  0  0
  -24.6390  -11.7720   20.8700 C   0  0  0  0  0  0  0  0  0  0  0  0
  -26.2570  -13.0480   20.2810 N   0  0  0  0  0  0  0  0  0  0  0  0
  -25.9280  -11.7560   20.5460 N   0  0  0  0  0  0  0  0  0  0  0  0
  -23.9250  -10.5020   21.0470 C   0  0  0  0  0  0  0  0  0  0  0  0
  -24.3470   -9.5390   21.9910 C   0  0  0  0  0  3  0  0  0  0  0  0
  -23.6300   -8.3360   22.1560 C   0  0  0  0  0  3  0  0  0  0  0  0
  -22.4740   -8.0850   21.3760 C   0  0  0  0  0  0  0  0  0  0  0  0
  -22.0710   -9.0350   20.4230 C   0  0  0  0  0  3  0  0  0  0  0  0
  -22.7910  -10.2310   20.2540 C   0  0  0  0  0  3  0  0  0  0  0  0
  -21.7290   -6.9330   21.4520 O   0  0  0  0  0  0  0  0  0  0  0  0
  -21.6270   -6.2150   22.6160 C   0  0  0  0  0  0  0  0  0  0  0  0
  -21.0660   -6.7680   23.7880 C   0  0  0  0  0  3  0  0  0  0  0  0
  -20.9200   -5.9710   24.9420 C   0  0  0  0  0  3  0  0  0  0  0  0
  -21.3260   -4.6230   24.9230 C   0  0  0  0  0  0  0  0  0  0  0  0
  -21.8820   -4.0700   23.7560 C   0  0  0  0  0  3  0  0  0  0  0  0
  -22.0290   -4.8630   22.6050 C   0  0  0  0  0  0  0  0  0  0  0  0
  -22.5460   -4.3190   21.4770 F   0  0  0  0  0  0  0  0  0  0  0  0
  -21.1790   -3.8570   26.0300 F   0  0  0  0  0  0  0  0  0  0  0  0
  -22.7590  -13.5800   21.2060 C   0  0  0  0  0  0  0  0  0  0  0  0
  -22.0410  -12.8770   22.0730 N   0  0  0  0  0  0  0  0  0  0  0  0
  -22.3090  -14.6030   20.6910 O   0  0  0  0  0  0  0  0  0  0  0  0
  -22.4140  -12.0500   22.5150 H   0  0  0  0  0  0  0  0  0  0  0  0
  -21.1040  -13.1760   22.3030 H   0  0  0  0  0  0  0  0  0  0  0  0
  -25.3490  -15.2830   20.3880 N   0  0  0  0  0  0  0  0  0  0  0  0
  -24.5690  -15.9190   20.5160 H   0  0  0  0  0  0  0  0  0  0  0  0
  -26.1720  -15.7300   20.0090 H   0  0  0  0  0  0  0  0  0  0  0  0
  -31.4000  -20.3570   20.9860 C   0  0  0  0  0  2  0  0  0  0  0  0
  -32.6000  -19.8450   21.6740 N   0  0  0  0  0  4  0  0  0  0  0  0
  -32.3970  -19.5570   22.6140 H   0  0  0  0  0  0  0  0  0  0  0  0
  -33.3040  -20.5620   21.7070 H   0  0  0  0  0  0  0  0  0  0  0  0
  -32.9930  -19.0670   21.1720 H   0  0  0  0  0  0  0  0  0  0  0  0
  -27.0390  -21.4640   19.4850 C   0  0  0  0  0  2  0  0  0  0  0  0
  -25.3740  -20.7580   17.6580 C   0  0  0  0  0  1  0  0  0  0  0  0
  -26.8340  -21.0660   18.0060 C   0  0  0  0  0  2  0  0  0  0  0  0
  -28.9090  -23.0070   20.3450 C   0  0  0  0  0  3  0  0  0  0  0  0
  -28.0160  -24.5040   20.0180 C   0  0  0  0  0  3  0  0  0  0  0  0
  -28.2420  -26.0750   20.3100 O   0  0  0  0  0  0  0  0  0  0  0  0
  -24.6510  -31.9360   23.2750 C   0  0  0  0  0  0  0  0  0  0  0  0
  -27.2140  -27.1290   20.2320 C   0  0  0  0  0  0  0  0  0  0  0  0
  -23.4570  -30.5450   21.6280 C   0  0  0  0  0  3  0  0  0  0  0  0
  -24.9040  -28.9540   20.2020 C   0  0  0  0  0  0  0  0  0  0  0  0
  -26.0210  -30.7720   21.4870 C   0  0  0  0  0  2  0  0  0  0  0  0
  -26.0890  -29.3720   20.8240 C   0  0  0  0  0  0  0  0  0  0  0  0
  -27.2390  -28.4750   20.8190 C   0  0  0  0  0  3  0  0  0  0  0  0
  -26.0030  -26.8460   19.5620 C   0  0  0  0  0  3  0  0  0  0  0  0
  -24.8810  -27.7100   19.5540 C   0  0  0  0  0  3  0  0  0  0  0  0
  -23.6890  -29.8700   20.2470 C   0  0  0  0  0  2  0  0  0  0  0  0
  -24.7300  -31.1090   22.1830 N   0  0  0  0  0  0  0  0  0  0  0  0
  -23.5620  -32.2230   23.7990 O   0  0  0  0  0  0  0  0  0  0  0  0
  -22.7640  -29.5420   22.5890 C   0  0  0  0  0  0  0  0  0  0  0  0
  -21.4380  -29.3630   22.4490 N   0  0  0  0  0  0  0  0  0  0  0  0
  -23.4270  -28.9270   23.4280 O   0  0  0  0  0  0  0  0  0  0  0  0
  -20.9550  -29.9120   21.7520 H   0  0  0  0  0  0  0  0  0  0  0  0
  -18.0570  -28.1410   22.9370 C   0  0  0  0  0  0  0  0  0  0  0  0
  -20.6140  -28.4210   23.2160 C   0  0  0  0  0  3  0  0  0  0  0  0
  -20.7270  -26.9880   22.6450 C   0  0  0  0  0  2  0  0  0  0  0  0
  -19.6340  -26.6570   21.6240 C   0  0  0  0  0  2  0  0  0  0  0  0
  -18.2480  -26.7940   22.2590 C   0  0  0  0  0  2  0  0  0  0  0  0
  -19.1690  -28.9120   23.3720 C   0  0  0  0  0  0  0  0  0  0  0  0
  -18.9350  -30.1700   23.9690 C   0  0  0  0  0  3  0  0  0  0  0  0
  -17.6260  -30.6580   24.1340 C   0  0  0  0  0  3  0  0  0  0  0  0
  -16.5290  -29.8850   23.7130 C   0  0  0  0  0  3  0  0  0  0  0  0
  -16.7460  -28.6280   23.1210 C   0  0  0  0  0  3  0  0  0  0  0  0
  -25.9280  -32.5730   23.9060 C   0  0  0  0  0  3  0  0  0  0  0  0
  -25.6190  -33.9740   24.2380 N   0  0  0  0  0  0  0  0  0  0  0  0
  -25.9200  -35.0260   23.4670 C   0  0  0  0  0  0  0  0  0  0  0  0
  -26.5500  -34.9210   22.4130 O   0  0  0  0  0  0  0  0  0  0  0  0
  -25.0670  -34.1300   25.0690 H   0  0  0  0  0  0  0  0  0  0  0  0
  -24.1700  -36.8120   23.1770 C   0  0  0  0  0  1  0  0  0  0  0  0
  -25.4450  -36.4170   23.9370 C   0  0  0  0  0  3  0  0  0  0  0  0
  -27.5980  -37.3310   24.6850 C   0  0  0  0  0  1  0  0  0  0  0  0
  -26.4660  -37.4740   23.7740 N   0  0  0  0  0  0  0  0  0  0  0  0
  -26.0580  -38.3940   23.9190 H   0  0  0  0  0  0  0  0  0  0  0  0
  -26.4300  -31.8090   25.1940 C   0  0  1  0  0  0  0  0  0  0  0  0
  -25.3240  -31.5720   26.2510 C   0  0  0  0  0  1  0  0  0  0  0  0
  -27.0210  -30.4280   24.8270 C   0  0  0  0  0  1  0  0  0  0  0  0
  -27.5730  -32.6050   25.8650 C   0  0  0  0  0  1  0  0  0  0  0  0
  1 53  1  0
  1  2  1  6
  3 16  1  0
  4  9  1  0
  5  6  1  0
  5  4  1  0
  7  6  1  0
  7 20  1  0
  7  8  1  0
  9  3  1  0
  9  8  1  0
 10  3  2  0
 12 11  1  0
 12 16  1  0
 13 14  1  0
 14 45  1  0
 15  1  1  0
 15 11  1  0
 15 14  1  0
 16 13  1  0
 17 18  2  0
 18 37  1  0
 19 18  1  0
 19 22  1  0
 20 21  1  0
 20 17  1  0
 21 19  2  0
 22 23  1  0
 23 24  2  0
 25 28  1  0
 25 24  1  0
 26 25  2  0
 27 26  1  0
 27 22  2  0
 28 29  1  0
 29 30  1  0
 30 31  2  0
 32 31  1  0
 32 36  1  0
 33 32  2  0
 34 29  2  0
 34 33  1  0
 35 34  1  0
 37 38  1  0
 38 41  1  0
 38 40  1  0
 39 37  2  0
 42 43  1  0
 42 17  1  0
 44 42  1  0
 45 46  1  0
 46 48  1  0
 46 47  1  0
 49 46  1  0
 50  1  1  0
 51 52  1  0
 52 50  1  0
 54 55  1  0
 54 53  2  0
 56 67  2  0
 57 55  1  0
 57 62  1  0
 58 66  1  0
 58 68  1  0
 59 65  1  0
 59 61  1  0
 60 66  1  0
 61 60  1  0
 62 61  2  0
 63 57  2  0
 64 63  1  0
 64 59  2  0
 65 58  1  0
 66 56  1  0
 68 70  2  0
 69 68  1  0
 71 69  1  0
 72 81  2  0
 72 77  1  0
 73 69  1  0
 73 77  1  0
 74 73  1  0
 75 76  1  0
 75 74  1  0
 76 72  1  0
 77 78  2  0
 78 79  1  0
 80 79  2  0
 81 80  1  0
 82 56  1  0
 82 83  1  0
 82 92  1  0
 83 86  1  0
 84 88  1  0
 84 83  1  0
 85 84  2  0
 88 87  1  0
 90 91  1  0
 90 88  1  0
 90 89  1  0
 92 95  1  1
 92 93  1  0
 94 92  1  0
M  ISO  4   3 100  16 100  54 101  55 101
M  END
>  <TORSDO>  (80) 
F 22

>  <SCORE>  (80) 
-14.395

>  <name>  (80) 
79

>  <ligand_id>  (80) 
79

>  <original_smiles>  (80) 
[H]c1c([H])c([H])c2c(c1[H])C([H])([H])C([H])([H])C([H])([H])C2([H])N([H])C(=O)C1([H])N(C(=O)C([H])(N([H])C(=O)C([H])(N([H])C([H])([H])[H])C([H])([H])[H])C(C([H])([H])[H])(C([H])([H])[H])C([H])([H])[H])C([H])([H])c2c([H])c(OC([H])([H])C([H])([H])[N+]([H])(C([H])([H])C([H])([H])C([H])([H])[H])C3([H])C([H])([H])C([H])([H])N(C(=O)N4C([H])([H])C([H])([H])C([H])([H])C([H])(n5nc(-c6c([H])c([H])c(Oc7c([H])c([H])c(F)c([H])c7F)c([H])c6[H])c(C(=O)N([H])[H])c5N([H])[H])C4([H])[H])C([H])([H])C3([H])C([H])([H])[N+]([H])([H])[H])c([H])c([H])c2C1([H])[H]

>  <smiles>  (80) 
[H]c1c([H])c([H])c2c(c1[H])C([H])([H])C([H])([H])C([H])([H])C2([H])N([H])C(=O)C1([H])N(C(=O)C([H])(N([H])C(=O)C([H])(N([H])C([H])([H])[H])C([H])([H])[H])C(C([H])([H])[H])(C([H])([H])[H])C([H])([H])[H])C([H])([H])c2c([H])c(OC([H])([H])C([H])([H])[N+]([H])(C([H])([H])C([H])([H])C([H])([H])[H])C3([H])C([H])([H])C([H])([H])N(C(=O)N4C([H])([H])C([H])([H])C([H])([H])C([H])(n5nc(-c6c([H])c([H])c(Oc7c([H])c([H])c(F)c([H])c7F)c([H])c6[H])c(C(=O)N([H])[H])c5N([H])[H])C4([H])[H])C([H])([H])C3([H])C([H])([H])[N+]([H])([H])[H])c([H])c([H])c2C1([H])[H]

$$$$
80:0:0
     RDKit          3D

 91100  0  0  1  0  0  0  0  0999 V2000
  -30.6070  -14.9400   20.3520 C   0  0  0  0  0  0  0  0  0  0  0  0
  -30.4290  -12.6130   19.3930 C   0  0  0  0  0  2  0  0  0  0  0  0
  -29.4970  -12.6010   18.1620 C   0  0  0  0  0  2  0  0  0  0  0  0
  -28.0300  -12.4120   18.5970 C   0  0  0  0  0  2  0  0  0  0  0  0
  -27.6360  -13.3350   19.7810 C   0  0  0  0  0  3  0  0  0  0  0  0
  -28.6930  -13.3360   20.9030 C   0  0  0  0  0  2  0  0  0  0  0  0
  -29.9670  -13.7100   20.2840 N   0  0  0  0  0  0  0  0  0  0  0  0
  -31.8240  -14.9620   20.1420 O   0  0  0  0  0  0  0  0  0  0  0  0
  -29.4330  -19.8450   22.1690 C   0  0  0  0  0  2  0  0  0  0  0  0
  -29.5330  -21.3900   21.8070 C   0  0  0  0  0  2  0  0  0  0  0  0
  -29.5600  -18.2540   18.7120 C   0  0  0  0  0  2  0  0  0  0  0  0
  -29.3480  -16.7120   19.0440 C   0  0  0  0  0  2  0  0  0  0  0  0
  -29.8370  -17.2460   21.4140 C   0  0  0  0  0  2  0  0  0  0  0  0
  -29.8920  -18.8420   21.0510 C   0  0  0  0  0  3  0  0  0  0  0  0
  -29.1020  -19.2820   19.7980 C   0  0  0  0  0  3  0  0  0  0  0  0
  -28.8450  -21.8580   20.4730 C   0  0  0  0  0  3  0  0  0  0  0  0
  -29.8690  -16.1590   20.3360 N   0  0  0  0  0  0  0  0  0  0  0  0
  -29.2650  -20.7860   19.4490 N   0  0  0  0  0  4  0  0  0  0  0  0
  -28.7390  -20.9560   18.6050 H   0  0  0  0  0  0  0  0  0  0  0  0
  -30.2320  -20.9450   19.2170 H   0  0  0  0  0  0  0  0  0  0  0  0
  -25.2640  -13.9330   20.5260 C   0  0  0  0  0  0  0  0  0  0  0  0
  -24.1910  -13.1660   20.8870 C   0  0  0  0  0  0  0  0  0  0  0  0
  -24.6440  -11.8100   20.8510 C   0  0  0  0  0  0  0  0  0  0  0  0
  -26.2970  -13.0470   20.2810 N   0  0  0  0  0  0  0  0  0  0  0  0
  -25.9360  -11.7650   20.5440 N   0  0  0  0  0  0  0  0  0  0  0  0
  -23.9070  -10.5540   21.0330 C   0  0  0  0  0  0  0  0  0  0  0  0
  -24.3230   -9.5820   21.9690 C   0  0  0  0  0  3  0  0  0  0  0  0
  -23.5850   -8.3910   22.1400 C   0  0  0  0  0  3  0  0  0  0  0  0
  -22.4160   -8.1640   21.3740 C   0  0  0  0  0  0  0  0  0  0  0  0
  -22.0190   -9.1240   20.4270 C   0  0  0  0  0  3  0  0  0  0  0  0
  -22.7580  -10.3070   20.2550 C   0  0  0  0  0  3  0  0  0  0  0  0
  -21.6500   -7.0260   21.4540 O   0  0  0  0  0  0  0  0  0  0  0  0
  -21.5730   -6.2890   22.6100 C   0  0  0  0  0  0  0  0  0  0  0  0
  -21.1340   -6.8560   23.8250 C   0  0  0  0  0  3  0  0  0  0  0  0
  -21.0040   -6.0480   24.9720 C   0  0  0  0  0  3  0  0  0  0  0  0
  -21.3030   -4.6730   24.9030 C   0  0  0  0  0  0  0  0  0  0  0  0
  -21.7350   -4.1060   23.6910 C   0  0  0  0  0  3  0  0  0  0  0  0
  -21.8680   -4.9120   22.5460 C   0  0  0  0  0  0  0  0  0  0  0  0
  -22.2650   -4.3560   21.3760 F   0  0  0  0  0  0  0  0  0  0  0  0
  -21.1690   -3.8950   26.0010 F   0  0  0  0  0  0  0  0  0  0  0  0
  -22.7970  -13.6540   21.1550 C   0  0  0  0  0  0  0  0  0  0  0  0
  -22.0640  -12.9650   22.0200 N   0  0  0  0  0  0  0  0  0  0  0  0
  -22.3700  -14.6830   20.6310 O   0  0  0  0  0  0  0  0  0  0  0  0
  -22.4240  -12.1340   22.4650 H   0  0  0  0  0  0  0  0  0  0  0  0
  -21.1290  -13.2760   22.2440 H   0  0  0  0  0  0  0  0  0  0  0  0
  -25.4420  -15.3030   20.3590 N   0  0  0  0  0  0  0  0  0  0  0  0
  -24.6860  -15.9690   20.4760 H   0  0  0  0  0  0  0  0  0  0  0  0
  -26.3050  -15.7350   20.0560 H   0  0  0  0  0  0  0  0  0  0  0  0
  -29.0770  -23.4760   20.0570 C   0  0  0  0  0  3  0  0  0  0  0  0
  -28.1490  -24.7810   20.5260 C   0  0  0  0  0  3  0  0  0  0  0  0
  -28.3870  -26.2700   20.1650 O   0  0  0  0  0  0  0  0  0  0  0  0
  -24.7120  -31.8860   23.1740 C   0  0  0  0  0  0  0  0  0  0  0  0
  -27.3100  -27.2170   20.1400 C   0  0  0  0  0  0  0  0  0  0  0  0
  -23.5110  -30.4750   21.5480 C   0  0  0  0  0  3  0  0  0  0  0  0
  -24.9620  -28.9140   20.1160 C   0  0  0  0  0  0  0  0  0  0  0  0
  -26.0570  -30.7750   21.3580 C   0  0  0  0  0  2  0  0  0  0  0  0
  -26.1410  -29.3840   20.7110 C   0  0  0  0  0  0  0  0  0  0  0  0
  -27.3170  -28.5500   20.7050 C   0  0  0  0  0  3  0  0  0  0  0  0
  -26.1090  -26.8450   19.4990 C   0  0  0  0  0  3  0  0  0  0  0  0
  -24.9570  -27.6570   19.4940 C   0  0  0  0  0  3  0  0  0  0  0  0
  -23.7250  -29.7950   20.1700 C   0  0  0  0  0  2  0  0  0  0  0  0
  -24.7800  -31.0670   22.0810 N   0  0  0  0  0  0  0  0  0  0  0  0
  -23.6270  -32.1610   23.7110 O   0  0  0  0  0  0  0  0  0  0  0  0
  -22.8510  -29.4610   22.5160 C   0  0  0  0  0  0  0  0  0  0  0  0
  -21.5230  -29.2820   22.4020 N   0  0  0  0  0  0  0  0  0  0  0  0
  -23.5360  -28.8410   23.3320 O   0  0  0  0  0  0  0  0  0  0  0  0
  -21.0260  -29.8350   21.7170 H   0  0  0  0  0  0  0  0  0  0  0  0
  -18.1530  -28.0710   22.9460 C   0  0  0  0  0  0  0  0  0  0  0  0
  -20.7150  -28.3420   23.1830 C   0  0  0  0  0  3  0  0  0  0  0  0
  -20.8150  -26.9100   22.6060 C   0  0  0  0  0  2  0  0  0  0  0  0
  -19.7020  -26.5840   21.6050 C   0  0  0  0  0  2  0  0  0  0  0  0
  -18.3270  -26.7240   22.2640 C   0  0  0  0  0  2  0  0  0  0  0  0
  -19.2750  -28.8380   23.3630 C   0  0  0  0  0  0  0  0  0  0  0  0
  -19.0580  -30.0980   23.9600 C   0  0  0  0  0  3  0  0  0  0  0  0
  -17.7530  -30.5920   24.1450 C   0  0  0  0  0  3  0  0  0  0  0  0
  -16.6470  -29.8230   23.7450 C   0  0  0  0  0  3  0  0  0  0  0  0
  -16.8470  -28.5640   23.1520 C   0  0  0  0  0  3  0  0  0  0  0  0
  -25.9890  -32.5330   23.7880 C   0  0  0  0  0  3  0  0  0  0  0  0
  -25.6570  -33.9200   24.1530 N   0  0  0  0  0  0  0  0  0  0  0  0
  -25.9380  -34.9950   23.4060 C   0  0  0  0  0  0  0  0  0  0  0  0
  -26.5720  -34.9270   22.3490 O   0  0  0  0  0  0  0  0  0  0  0  0
  -25.0900  -34.0450   24.9780 H   0  0  0  0  0  0  0  0  0  0  0  0
  -24.1500  -36.7490   23.1610 C   0  0  0  0  0  1  0  0  0  0  0  0
  -25.4370  -36.3640   23.9080 C   0  0  0  0  0  3  0  0  0  0  0  0
  -27.5860  -37.2880   24.6540 C   0  0  0  0  0  1  0  0  0  0  0  0
  -26.4350  -37.4460   23.7700 N   0  0  0  0  0  0  0  0  0  0  0  0
  -26.0130  -38.3510   23.9600 H   0  0  0  0  0  0  0  0  0  0  0  0
  -26.5400  -31.7510   25.0440 C   0  0  1  0  0  0  0  0  0  0  0  0
  -25.4690  -31.4810   26.1270 C   0  0  0  0  0  1  0  0  0  0  0  0
  -27.1380  -30.3880   24.6260 C   0  0  0  0  0  1  0  0  0  0  0  0
  -27.6890  -32.5540   25.6990 C   0  0  0  0  0  1  0  0  0  0  0  0
  2  7  1  0
  3  4  1  0
  3  2  1  0
  5  4  1  0
  5 24  1  0
  5  6  1  0
  7  1  1  0
  7  6  1  0
  8  1  2  0
 10  9  1  0
 11 12  1  0
 12 17  1  0
 14 13  1  0
 14  9  1  0
 15 11  1  0
 15 14  1  0
 16 49  1  0
 16 10  1  0
 17  1  1  0
 17 13  1  0
 18 15  1  0
 18 16  1  0
 19 18  1  0
 20 18  1  0
 21 22  2  0
 22 41  1  0
 23 22  1  0
 23 26  1  0
 24 21  1  0
 24 25  1  0
 25 23  2  0
 26 27  1  0
 27 28  2  0
 29 32  1  0
 29 28  1  0
 30 29  2  0
 31 30  1  0
 31 26  2  0
 32 33  1  0
 33 34  1  0
 34 35  2  0
 36 35  1  0
 36 40  1  0
 37 36  2  0
 38 33  2  0
 38 37  1  0
 39 38  1  0
 41 42  1  0
 42 45  1  0
 42 44  1  0
 43 41  2  0
 46 47  1  0
 46 21  1  0
 48 46  1  0
 49 50  2  0
 51 50  1  0
 52 63  2  0
 53 51  1  0
 53 58  1  0
 54 62  1  0
 54 64  1  0
 55 61  1  0
 55 57  1  0
 56 62  1  0
 57 56  1  0
 58 57  2  0
 59 53  2  0
 60 59  1  0
 60 55  2  0
 61 54  1  0
 62 52  1  0
 64 66  2  0
 65 64  1  0
 67 65  1  0
 68 77  2  0
 68 73  1  0
 69 65  1  0
 69 73  1  0
 70 69  1  0
 71 72  1  0
 71 70  1  0
 72 68  1  0
 73 74  2  0
 74 75  1  0
 76 75  2  0
 77 76  1  0
 78 52  1  0
 78 79  1  0
 78 88  1  0
 79 82  1  0
 80 84  1  0
 80 79  1  0
 81 80  2  0
 84 83  1  0
 86 84  1  0
 86 87  1  0
 86 85  1  0
 88 91  1  1
 88 89  1  0
 90 88  1  0
M  ISO  4   1 100  17 100  50 101  51 101
M  END
>  <TORSDO>  (81) 
F 17

>  <SCORE>  (81) 
-13.949

>  <name>  (81) 
80

>  <ligand_id>  (81) 
80

>  <original_smiles>  (81) 
[H]c1c([H])c([H])c2c(c1[H])C([H])([H])C([H])([H])C([H])([H])C2([H])N([H])C(=O)C1([H])N(C(=O)C([H])(N([H])C(=O)C([H])(N([H])C([H])([H])[H])C([H])([H])[H])C(C([H])([H])[H])(C([H])([H])[H])C([H])([H])[H])C([H])([H])c2c([H])c(OC([H])([H])C([H])([H])C3([H])C([H])([H])C([H])([H])C4([H])C([H])([H])N(C(=O)N5C([H])([H])C([H])([H])C([H])([H])C([H])(n6nc(-c7c([H])c([H])c(Oc8c([H])c([H])c(F)c([H])c8F)c([H])c7[H])c(C(=O)N([H])[H])c6N([H])[H])C5([H])[H])C([H])([H])C([H])([H])C4([H])[N+]3([H])[H])c([H])c([H])c2C1([H])[H]

>  <smiles>  (81) 
[H]c1c([H])c([H])c2c(c1[H])C([H])([H])C([H])([H])C([H])([H])C2([H])N([H])C(=O)C1([H])N(C(=O)C([H])(N([H])C(=O)C([H])(N([H])C([H])([H])[H])C([H])([H])[H])C(C([H])([H])[H])(C([H])([H])[H])C([H])([H])[H])C([H])([H])c2c([H])c(OC([H])([H])C([H])([H])C3([H])C([H])([H])C([H])([H])C4([H])C([H])([H])N(C(=O)N5C([H])([H])C([H])([H])C([H])([H])C([H])(n6nc(-c7c([H])c([H])c(Oc8c([H])c([H])c(F)c([H])c8F)c([H])c7[H])c(C(=O)N([H])[H])c6N([H])[H])C5([H])[H])C([H])([H])C([H])([H])C4([H])[N+]3([H])[H])c([H])c([H])c2C1([H])[H]

$$$$
81:0:0
     RDKit          3D

 93 99  0  0  1  0  0  0  0  0999 V2000
  -29.0390  -20.6290   21.3850 C   0  0  0  0  0  2  0  0  0  0  0  0
  -29.2250  -21.5390   19.3450 C   0  0  0  0  0  2  0  0  0  0  0  0
  -28.4060  -22.2360   21.3760 C   0  0  0  0  0  3  0  0  0  0  0  0
  -28.6950  -23.2660   20.1290 C   0  0  0  0  0  2  0  0  0  0  0  0
  -29.1110  -19.7030   20.0300 C   0  0  0  0  0  3  0  0  0  0  0  0
  -30.4550  -16.3450   19.8620 C   0  0  0  0  0  0  0  0  0  0  0  0
  -30.7330  -13.6800   19.0910 C   0  0  0  0  0  2  0  0  0  0  0  0
  -29.8560  -12.9940   17.9850 C   0  0  0  0  0  2  0  0  0  0  0  0
  -28.5150  -12.5030   18.5460 C   0  0  0  0  0  2  0  0  0  0  0  0
  -27.9580  -13.5310   19.5470 C   0  0  0  0  0  3  0  0  0  0  0  0
  -28.9990  -14.0870   20.5630 C   0  0  0  0  0  2  0  0  0  0  0  0
  -30.0230  -14.8840   19.8020 N   0  0  0  0  0  0  0  0  0  0  0  0
  -31.6980  -16.2380   19.7090 O   0  0  0  0  0  0  0  0  0  0  0  0
  -29.6250  -17.7990   19.9190 N   0  0  0  0  0  2  0  0  0  0  0  0
  -28.7070  -17.3770   19.9310 H   0  0  0  0  0  0  0  0  0  0  0  0
  -25.6680  -13.9780   20.5190 C   0  0  0  0  0  0  0  0  0  0  0  0
  -24.6420  -13.1720   20.9170 C   0  0  0  0  0  0  0  0  0  0  0  0
  -25.1110  -11.8300   20.7760 C   0  0  0  0  0  0  0  0  0  0  0  0
  -26.6960  -13.1310   20.1540 N   0  0  0  0  0  0  0  0  0  0  0  0
  -26.3790  -11.8240   20.3690 N   0  0  0  0  0  0  0  0  0  0  0  0
  -24.3930  -10.5570   20.9470 C   0  0  0  0  0  0  0  0  0  0  0  0
  -24.8150   -9.5880   21.8850 C   0  0  0  0  0  3  0  0  0  0  0  0
  -24.0900   -8.3860   22.0490 C   0  0  0  0  0  3  0  0  0  0  0  0
  -22.9300   -8.1450   21.2770 C   0  0  0  0  0  0  0  0  0  0  0  0
  -22.5270   -9.1020   20.3280 C   0  0  0  0  0  3  0  0  0  0  0  0
  -23.2520  -10.2940   20.1620 C   0  0  0  0  0  3  0  0  0  0  0  0
  -22.1800   -6.9950   21.3490 O   0  0  0  0  0  0  0  0  0  0  0  0
  -21.9990   -6.3260   22.5340 C   0  0  0  0  0  0  0  0  0  0  0  0
  -21.3860   -6.9380   23.6480 C   0  0  0  0  0  3  0  0  0  0  0  0
  -21.1580   -6.1920   24.8230 C   0  0  0  0  0  3  0  0  0  0  0  0
  -21.5330   -4.8370   24.8820 C   0  0  0  0  0  0  0  0  0  0  0  0
  -22.1390   -4.2250   23.7710 C   0  0  0  0  0  3  0  0  0  0  0  0
  -22.3690   -4.9670   22.5990 C   0  0  0  0  0  0  0  0  0  0  0  0
  -22.9330   -4.3660   21.5240 F   0  0  0  0  0  0  0  0  0  0  0  0
  -21.3080   -4.1190   26.0070 F   0  0  0  0  0  0  0  0  0  0  0  0
  -23.2660  -13.6310   21.3020 C   0  0  0  0  0  0  0  0  0  0  0  0
  -22.6020  -12.9020   22.1900 N   0  0  0  0  0  0  0  0  0  0  0  0
  -22.7940  -14.6750   20.8510 O   0  0  0  0  0  0  0  0  0  0  0  0
  -23.0010  -12.0580   22.5760 H   0  0  0  0  0  0  0  0  0  0  0  0
  -21.6820  -13.1900   22.4890 H   0  0  0  0  0  0  0  0  0  0  0  0
  -25.8080  -15.3570   20.3960 N   0  0  0  0  0  0  0  0  0  0  0  0
  -25.0260  -15.9830   20.5540 H   0  0  0  0  0  0  0  0  0  0  0  0
  -26.5920  -15.7970   19.9360 H   0  0  0  0  0  0  0  0  0  0  0  0
  -28.7360  -22.9180   22.6490 N   0  0  0  0  0  4  0  0  0  0  0  0
  -28.4200  -22.3890   23.4440 H   0  0  0  0  0  0  0  0  0  0  0  0
  -28.2920  -23.8200   22.6890 H   0  0  0  0  0  0  0  0  0  0  0  0
  -29.7260  -23.0640   22.7440 H   0  0  0  0  0  0  0  0  0  0  0  0
  -28.4790  -25.2110   20.0850 O   0  0  0  0  0  1  0  0  0  0  0  0
  -24.9610  -31.8280   23.1860 C   0  0  0  0  0  0  0  0  0  0  0  0
  -27.5020  -26.5440   20.1140 C   0  0  0  0  0  0  0  0  0  0  0  0
  -23.8050  -30.4730   21.4990 C   0  0  0  0  0  3  0  0  0  0  0  0
  -25.2680  -28.7920   20.0820 C   0  0  0  0  0  0  0  0  0  0  0  0
  -26.3990  -30.5160   21.4490 C   0  0  0  0  0  2  0  0  0  0  0  0
  -26.4630  -29.0670   20.7540 C   0  0  0  0  0  0  0  0  0  0  0  0
  -27.5470  -27.9870   20.7230 C   0  0  0  0  0  3  0  0  0  0  0  0
  -26.2650  -26.5670   19.3920 C   0  0  0  0  0  3  0  0  0  0  0  0
  -25.2270  -27.5730   19.3760 C   0  0  0  0  0  3  0  0  0  0  0  0
  -24.0780  -29.7860   20.1240 C   0  0  0  0  0  2  0  0  0  0  0  0
  -25.0830  -30.9790   22.0980 N   0  0  0  0  0  0  0  0  0  0  0  0
  -23.8560  -32.1300   23.6730 O   0  0  0  0  0  0  0  0  0  0  0  0
  -23.0430  -29.4980   22.4420 C   0  0  0  0  0  0  0  0  0  0  0  0
  -21.7100  -29.3640   22.2930 N   0  0  0  0  0  0  0  0  0  0  0  0
  -23.6710  -28.8560   23.2860 O   0  0  0  0  0  0  0  0  0  0  0  0
  -21.2470  -29.9320   21.5960 H   0  0  0  0  0  0  0  0  0  0  0  0
  -18.2940  -28.2050   22.7990 C   0  0  0  0  0  0  0  0  0  0  0  0
  -20.8650  -28.4100   23.0280 C   0  0  0  0  0  3  0  0  0  0  0  0
  -20.9240  -27.0060   22.3820 C   0  0  0  0  0  2  0  0  0  0  0  0
  -19.8020  -26.7610   21.3690 C   0  0  0  0  0  2  0  0  0  0  0  0
  -18.4330  -26.8950   22.0410 C   0  0  0  0  0  2  0  0  0  0  0  0
  -19.4340  -28.9250   23.2480 C   0  0  0  0  0  0  0  0  0  0  0  0
  -19.2450  -30.1480   23.9250 C   0  0  0  0  0  3  0  0  0  0  0  0
  -17.9510  -30.6540   24.1520 C   0  0  0  0  0  3  0  0  0  0  0  0
  -16.8270  -29.9340   23.7140 C   0  0  0  0  0  3  0  0  0  0  0  0
  -17.0000  -28.7090   23.0440 C   0  0  0  0  0  3  0  0  0  0  0  0
  -26.2020  -32.4740   23.8770 C   0  0  0  0  0  3  0  0  0  0  0  0
  -26.6810  -31.6750   25.1530 C   0  0  1  0  0  0  0  0  0  0  0  0
  -25.5570  -31.4060   26.1830 C   0  0  0  0  0  1  0  0  0  0  0  0
  -27.2850  -30.3100   24.7620 C   0  0  0  0  0  1  0  0  0  0  0  0
  -27.8070  -32.4580   25.8700 C   0  0  0  0  0  1  0  0  0  0  0  0
  -25.8580  -33.8600   24.2690 N   0  0  0  0  0  0  0  0  0  0  0  0
  -26.1680  -34.9660   23.5780 C   0  0  0  0  0  0  0  0  0  0  0  0
  -26.8240  -34.9290   22.5350 O   0  0  0  0  0  0  0  0  0  0  0  0
  -25.2680  -33.9590   25.0820 H   0  0  0  0  0  0  0  0  0  0  0  0
  -24.4060  -36.7620   23.3850 C   0  0  0  0  0  1  0  0  0  0  0  0
  -25.6820  -36.3280   24.1260 C   0  0  0  0  0  3  0  0  0  0  0  0
  -27.8250  -37.2220   24.9330 C   0  0  0  0  0  1  0  0  0  0  0  0
  -26.6950  -37.4040   24.0270 N   0  0  0  0  0  0  0  0  0  0  0  0
  -26.2770  -38.3100   24.2180 H   0  0  0  0  0  0  0  0  0  0  0  0
  -27.6440  -19.3060   19.6420 C   0  0  0  0  0  2  0  0  0  0  0  0
  -26.7000  -20.3690   19.2530 N   0  0  0  0  0  4  0  0  0  0  0  0
  -27.0510  -20.8930   18.4720 H   0  0  0  0  0  0  0  0  0  0  0  0
  -26.4910  -20.9760   20.0250 H   0  0  0  0  0  0  0  0  0  0  0  0
  -25.8340  -19.9450   18.9660 H   0  0  0  0  0  0  0  0  0  0  0  0
  2  5  1  0
  2  4  1  0
  3  1  1  0
  3 44  1  0
  4  3  1  0
  5 89  1  0
  5  1  1  0
  6 14  1  0
  7 12  1  0
  8  9  1  0
  8  7  1  0
 10  9  1  0
 10 19  1  0
 10 11  1  0
 12  6  1  0
 12 11  1  0
 13  6  2  0
 14 15  1  0
 16 17  2  0
 17 36  1  0
 18 17  1  0
 18 21  1  0
 19 20  1  0
 19 16  1  0
 20 18  2  0
 21 22  1  0
 22 23  2  0
 24 27  1  0
 24 23  1  0
 25 24  2  0
 26 25  1  0
 26 21  2  0
 27 28  1  0
 28 33  2  0
 28 29  1  0
 29 30  2  0
 30 31  1  0
 31 35  1  0
 32 31  2  0
 33 32  1  0
 34 33  1  0
 36 37  1  0
 37 40  1  0
 37 39  1  0
 38 36  2  0
 41 16  1  0
 41 42  1  0
 43 41  1  0
 44 46  1  0
 44 47  1  0
 44 45  1  0
 48 50  1  0
 49 60  2  0
 50 55  1  0
 51 59  1  0
 51 61  1  0
 52 58  1  0
 52 54  1  0
 53 59  1  0
 54 53  1  0
 55 54  2  0
 56 50  2  0
 57 56  1  0
 57 52  2  0
 58 51  1  0
 59 49  1  0
 61 63  2  0
 62 61  1  0
 64 62  1  0
 65 74  2  0
 65 70  1  0
 66 62  1  0
 66 70  1  0
 67 66  1  0
 68 69  1  0
 68 67  1  0
 69 65  1  0
 70 71  2  0
 71 72  1  0
 73 72  2  0
 74 73  1  0
 75 49  1  0
 75 80  1  0
 75 76  1  0
 76 79  1  1
 76 77  1  0
 78 76  1  0
 80 83  1  0
 81 85  1  0
 81 80  1  0
 82 81  2  0
 85 84  1  0
 87 85  1  0
 87 88  1  0
 87 86  1  0
 90 89  1  0
 90 92  1  0
 91 90  1  0
 93 90  1  0
M  ISO  4   4 101   6 100  14 100  48 101
M  END
>  <TORSDO>  (82) 
F 19

>  <SCORE>  (82) 
-15.016

>  <name>  (82) 
81

>  <ligand_id>  (82) 
81

>  <original_smiles>  (82) 
[H]c1c([H])c([H])c2c(c1[H])C([H])([H])C([H])([H])C([H])([H])C2([H])N([H])C(=O)C1([H])N(C(=O)C([H])(N([H])C(=O)C([H])(N([H])C([H])([H])[H])C([H])([H])[H])C(C([H])([H])[H])(C([H])([H])[H])C([H])([H])[H])C([H])([H])c2c([H])c(OC3([H])C([H])([H])C(N([H])C(=O)N4C([H])([H])C([H])([H])C([H])([H])C([H])(n5nc(-c6c([H])c([H])c(Oc7c([H])c([H])c(F)c([H])c7F)c([H])c6[H])c(C(=O)N([H])[H])c5N([H])[H])C4([H])[H])(C([H])([H])[N+]([H])([H])[H])C([H])([H])C3([H])[N+]([H])([H])[H])c([H])c([H])c2C1([H])[H]

>  <smiles>  (82) 
[H]c1c([H])c([H])c2c(c1[H])C([H])([H])C([H])([H])C([H])([H])C2([H])N([H])C(=O)C1([H])N(C(=O)C([H])(N([H])C(=O)C([H])(N([H])C([H])([H])[H])C([H])([H])[H])C(C([H])([H])[H])(C([H])([H])[H])C([H])([H])[H])C([H])([H])c2c([H])c(OC3([H])C([H])([H])C(N([H])C(=O)N4C([H])([H])C([H])([H])C([H])([H])C([H])(n5nc(-c6c([H])c([H])c(Oc7c([H])c([H])c(F)c([H])c7F)c([H])c6[H])c(C(=O)N([H])[H])c5N([H])[H])C4([H])[H])(C([H])([H])[N+]([H])([H])[H])C([H])([H])C3([H])[N+]([H])([H])[H])c([H])c([H])c2C1([H])[H]

$$$$
82:0:0
     RDKit          3D

 92101  0  0  1  0  0  0  0  0999 V2000
  -29.2730  -17.8920   21.4820 C   0  0  0  0  0  2  0  0  0  0  0  0
  -29.5900  -19.3920   21.7760 C   0  0  0  0  0  2  0  0  0  0  0  0
  -30.2900  -20.3770   18.1950 C   0  0  0  0  0  2  0  0  0  0  0  0
  -30.2080  -17.9880   19.2250 C   0  0  0  0  0  2  0  0  0  0  0  0
  -29.0560  -21.1820   18.6310 C   0  0  0  0  0  2  0  0  0  0  0  0
  -30.6490  -19.4850   19.3870 C   0  0  0  0  0  3  0  0  0  0  0  0
  -30.2860  -17.1800   20.5470 C   0  0  0  0  0  3  0  0  0  0  0  0
  -30.0820  -20.2910   20.5970 C   0  0  0  0  0  3  0  0  0  0  0  0
  -29.1360  -21.3690   20.0980 N   0  0  1  0  0  4  0  0  0  0  0  0
  -28.2150  -21.1450   20.4480 H   0  0  0  0  0  0  0  0  0  0  0  0
  -30.7520  -14.6630   20.0230 C   0  0  0  0  0  0  0  0  0  0  0  0
  -30.4540  -12.4600   18.9180 C   0  0  0  0  0  2  0  0  0  0  0  0
  -29.4430  -12.6270   17.7620 C   0  0  0  0  0  2  0  0  0  0  0  0
  -27.9950  -12.4790   18.2720 C   0  0  0  0  0  2  0  0  0  0  0  0
  -27.7190  -13.3220   19.5450 C   0  0  0  0  0  3  0  0  0  0  0  0
  -28.8350  -13.1240   20.5950 C   0  0  0  0  0  2  0  0  0  0  0  0
  -30.1130  -13.4570   19.9490 N   0  0  0  0  0  0  0  0  0  0  0  0
  -31.8950  -14.8260   19.5850 O   0  0  0  0  0  0  0  0  0  0  0  0
  -29.9810  -15.7150   20.4270 N   0  0  0  0  0  0  0  0  0  0  0  0
  -29.0510  -15.4470   20.7130 H   0  0  0  0  0  0  0  0  0  0  0  0
  -25.3770  -13.9420   20.4020 C   0  0  0  0  0  0  0  0  0  0  0  0
  -24.3210  -13.1760   20.8170 C   0  0  0  0  0  0  0  0  0  0  0  0
  -24.7640  -11.8190   20.7390 C   0  0  0  0  0  0  0  0  0  0  0  0
  -26.3950  -13.0520   20.0970 N   0  0  0  0  0  0  0  0  0  0  0  0
  -26.0340  -11.7700   20.3590 N   0  0  0  0  0  0  0  0  0  0  0  0
  -24.0330  -10.5630   20.9460 C   0  0  0  0  0  0  0  0  0  0  0  0
  -24.4840   -9.5890   21.8650 C   0  0  0  0  0  3  0  0  0  0  0  0
  -23.7540   -8.3970   22.0600 C   0  0  0  0  0  3  0  0  0  0  0  0
  -22.5580   -8.1710   21.3370 C   0  0  0  0  0  0  0  0  0  0  0  0
  -22.1270   -9.1330   20.4080 C   0  0  0  0  0  3  0  0  0  0  0  0
  -22.8580  -10.3160   20.2100 C   0  0  0  0  0  3  0  0  0  0  0  0
  -21.7980   -7.0320   21.4430 O   0  0  0  0  0  0  0  0  0  0  0  0
  -21.7550   -6.3010   22.6020 C   0  0  0  0  0  0  0  0  0  0  0  0
  -21.3030   -6.8570   23.8190 C   0  0  0  0  0  3  0  0  0  0  0  0
  -21.2100   -6.0500   24.9700 C   0  0  0  0  0  3  0  0  0  0  0  0
  -21.5580   -4.6880   24.9070 C   0  0  0  0  0  0  0  0  0  0  0  0
  -22.0030   -4.1310   23.6950 C   0  0  0  0  0  3  0  0  0  0  0  0
  -22.0980   -4.9340   22.5450 C   0  0  0  0  0  0  0  0  0  0  0  0
  -22.5060   -4.3870   21.3750 F   0  0  0  0  0  0  0  0  0  0  0  0
  -21.4610   -3.9100   26.0110 F   0  0  0  0  0  0  0  0  0  0  0  0
  -22.9480  -13.6650   21.1740 C   0  0  0  0  0  0  0  0  0  0  0  0
  -22.2590  -12.9610   22.0660 N   0  0  0  0  0  0  0  0  0  0  0  0
  -22.4950  -14.7040   20.6970 O   0  0  0  0  0  0  0  0  0  0  0  0
  -22.6400  -12.1190   22.4730 H   0  0  0  0  0  0  0  0  0  0  0  0
  -21.3400  -13.2690   22.3490 H   0  0  0  0  0  0  0  0  0  0  0  0
  -25.5490  -15.3130   20.2370 N   0  0  0  0  0  0  0  0  0  0  0  0
  -24.7930  -15.9720   20.3940 H   0  0  0  0  0  0  0  0  0  0  0  0
  -26.3720  -15.7470   19.8370 H   0  0  0  0  0  0  0  0  0  0  0  0
  -29.4360  -22.7900   20.5690 C   0  0  0  0  0  3  0  0  0  0  0  0
  -28.6450  -24.0200   19.9330 C   0  0  0  0  0  3  0  0  0  0  0  0
  -28.6540  -25.3650   20.7730 C   0  0  0  0  0  2  0  0  0  0  0  0
  -28.6220  -26.6580   20.0840 O   0  0  0  0  0  0  0  0  0  0  0  0
  -24.6620  -31.7960   23.2060 C   0  0  0  0  0  0  0  0  0  0  0  0
  -27.4510  -27.4080   20.1190 C   0  0  0  0  0  0  0  0  0  0  0  0
  -23.5210  -30.4030   21.5120 C   0  0  0  0  0  3  0  0  0  0  0  0
  -25.0380  -28.9140   20.0920 C   0  0  0  0  0  0  0  0  0  0  0  0
  -26.0480  -30.8040   21.3780 C   0  0  0  0  0  2  0  0  0  0  0  0
  -26.1760  -29.4400   20.7140 C   0  0  0  0  0  0  0  0  0  0  0  0
  -27.3900  -28.6990   20.7140 C   0  0  0  0  0  3  0  0  0  0  0  0
  -26.2930  -26.9090   19.4930 C   0  0  0  0  0  3  0  0  0  0  0  0
  -25.0940  -27.6520   19.4750 C   0  0  0  0  0  3  0  0  0  0  0  0
  -23.7760  -29.7550   20.1250 C   0  0  0  0  0  2  0  0  0  0  0  0
  -24.7600  -31.0180   22.0910 N   0  0  0  0  0  0  0  0  0  0  0  0
  -23.5620  -32.0350   23.7280 O   0  0  0  0  0  0  0  0  0  0  0  0
  -22.8670  -29.3530   22.4400 C   0  0  0  0  0  0  0  0  0  0  0  0
  -21.5460  -29.1550   22.2880 N   0  0  0  0  0  0  0  0  0  0  0  0
  -23.5460  -28.7180   23.2500 O   0  0  0  0  0  0  0  0  0  0  0  0
  -21.0590  -29.7190   21.6070 H   0  0  0  0  0  0  0  0  0  0  0  0
  -18.1800  -27.9080   22.7220 C   0  0  0  0  0  0  0  0  0  0  0  0
  -20.7330  -28.1870   23.0230 C   0  0  0  0  0  3  0  0  0  0  0  0
  -20.8570  -26.7750   22.4040 C   0  0  0  0  0  2  0  0  0  0  0  0
  -19.7670  -26.4720   21.3710 C   0  0  0  0  0  2  0  0  0  0  0  0
  -18.3780  -26.5820   22.0070 C   0  0  0  0  0  2  0  0  0  0  0  0
  -19.2880  -28.6690   23.1850 C   0  0  0  0  0  0  0  0  0  0  0  0
  -19.0490  -29.9110   23.8130 C   0  0  0  0  0  3  0  0  0  0  0  0
  -17.7380  -30.3930   23.9820 C   0  0  0  0  0  3  0  0  0  0  0  0
  -16.6460  -29.6290   23.5360 C   0  0  0  0  0  3  0  0  0  0  0  0
  -16.8690  -28.3880   22.9120 C   0  0  0  0  0  3  0  0  0  0  0  0
  -25.9180  -32.4430   23.8680 C   0  0  0  0  0  3  0  0  0  0  0  0
  -26.4030  -31.6780   25.1610 C   0  0  1  0  0  0  0  0  0  0  0  0
  -25.2800  -31.4270   26.1940 C   0  0  0  0  0  1  0  0  0  0  0  0
  -27.0150  -30.3080   24.7890 C   0  0  0  0  0  1  0  0  0  0  0  0
  -27.5250  -32.4850   25.8580 C   0  0  0  0  0  1  0  0  0  0  0  0
  -25.5830  -33.8380   24.1860 N   0  0  0  0  0  0  0  0  0  0  0  0
  -25.9200  -34.8930   23.4320 C   0  0  0  0  0  0  0  0  0  0  0  0
  -26.6160  -34.7960   22.4180 O   0  0  0  0  0  0  0  0  0  0  0  0
  -24.9690  -33.9860   24.9730 H   0  0  0  0  0  0  0  0  0  0  0  0
  -24.1790  -36.6630   23.0310 C   0  0  0  0  0  1  0  0  0  0  0  0
  -25.4050  -36.2760   23.8740 C   0  0  0  0  0  3  0  0  0  0  0  0
  -27.5020  -37.1950   24.7620 C   0  0  0  0  0  1  0  0  0  0  0  0
  -26.4260  -37.3420   23.7840 N   0  0  0  0  0  0  0  0  0  0  0  0
  -26.0030  -38.2580   23.9110 H   0  0  0  0  0  0  0  0  0  0  0  0
  1  2  1  0
  3  5  1  0
  4  6  1  0
  4  7  1  0
  5  9  1  0
  6  3  1  0
  6  8  1  0
  7 19  1  0
  7  1  1  0
  8  2  1  0
  9 10  1  1
  9 49  1  0
  9  8  1  0
 11 19  1  0
 12 17  1  0
 13 14  1  0
 13 12  1  0
 15 14  1  0
 15 24  1  0
 15 16  1  0
 17 11  1  0
 17 16  1  0
 18 11  2  0
 19 20  1  0
 21 22  2  0
 22 41  1  0
 23 22  1  0
 23 26  1  0
 24 25  1  0
 24 21  1  0
 25 23  2  0
 26 27  1  0
 27 28  2  0
 29 32  1  0
 29 28  1  0
 30 29  2  0
 31 30  1  0
 31 26  2  0
 32 33  1  0
 33 34  1  0
 34 35  2  0
 36 35  1  0
 36 40  1  0
 37 36  2  0
 38 33  2  0
 38 37  1  0
 39 38  1  0
 41 42  1  0
 42 45  1  0
 42 44  1  0
 43 41  2  0
 46 47  1  0
 46 21  1  0
 48 46  1  0
 50 49  2  0
 50 51  1  0
 52 54  1  0
 52 51  1  0
 53 64  2  0
 54 59  1  0
 55 63  1  0
 55 65  1  0
 56 62  1  0
 56 58  1  0
 57 63  1  0
 58 57  1  0
 59 58  2  0
 60 54  2  0
 61 60  1  0
 61 56  2  0
 62 55  1  0
 63 53  1  0
 65 67  2  0
 66 65  1  0
 68 66  1  0
 69 78  2  0
 69 74  1  0
 70 66  1  0
 70 74  1  0
 71 70  1  0
 72 73  1  0
 72 71  1  0
 73 69  1  0
 74 75  2  0
 75 76  1  0
 77 76  2  0
 78 77  1  0
 79 53  1  0
 79 84  1  0
 79 80  1  0
 80 83  1  1
 80 81  1  0
 82 80  1  0
 84 87  1  0
 85 89  1  0
 85 84  1  0
 86 85  2  0
 89 88  1  0
 91 89  1  0
 91 92  1  0
 91 90  1  0
M  ISO  4  11 100  19 100  51 101  52 101
M  END
>  <TORSDO>  (83) 
F 19

>  <SCORE>  (83) 
-12.989

>  <name>  (83) 
82

>  <ligand_id>  (83) 
82

>  <original_smiles>  (83) 
[H]c1c([H])c([H])c2c(c1[H])C([H])([H])C([H])([H])C([H])([H])C2([H])N([H])C(=O)C1([H])N(C(=O)C([H])(N([H])C(=O)C([H])(N([H])C([H])([H])[H])C([H])([H])[H])C(C([H])([H])[H])(C([H])([H])[H])C([H])([H])[H])C([H])([H])c2c([H])c(OC([H])([H])C([H])([H])C([H])([H])[N+]3([H])C([H])([H])C([H])([H])C4([H])C([H])([H])C([H])(N([H])C(=O)N5C([H])([H])C([H])([H])C([H])([H])C([H])(n6nc(-c7c([H])c([H])c(Oc8c([H])c([H])c(F)c([H])c8F)c([H])c7[H])c(C(=O)N([H])[H])c6N([H])[H])C5([H])[H])C([H])([H])C([H])([H])C43[H])c([H])c([H])c2C1([H])[H]

>  <smiles>  (83) 
[H]c1c([H])c([H])c2c(c1[H])C([H])([H])C([H])([H])C([H])([H])C2([H])N([H])C(=O)C1([H])N(C(=O)C([H])(N([H])C(=O)C([H])(N([H])C([H])([H])[H])C([H])([H])[H])C(C([H])([H])[H])(C([H])([H])[H])C([H])([H])[H])C([H])([H])c2c([H])c(OC([H])([H])C([H])([H])C([H])([H])[N+]3([H])C([H])([H])C([H])([H])C4([H])C([H])([H])C([H])(N([H])C(=O)N5C([H])([H])C([H])([H])C([H])([H])C([H])(n6nc(-c7c([H])c([H])c(Oc8c([H])c([H])c(F)c([H])c8F)c([H])c7[H])c(C(=O)N([H])[H])c6N([H])[H])C5([H])[H])C([H])([H])C([H])([H])C43[H])c([H])c([H])c2C1([H])[H]

$$$$
83:0:0
     RDKit          3D

 90 98  0  0  1  0  0  0  0  0999 V2000
  -28.6350  -22.6320   20.8410 N   0  0  0  0  0  4  0  0  0  0  0  0
  -28.8820  -22.6910   21.8180 H   0  0  0  0  0  0  0  0  0  0  0  0
  -27.6370  -22.4880   20.8020 H   0  0  0  0  0  0  0  0  0  0  0  0
  -29.2850  -21.3810   20.2900 C   0  0  0  0  0  2  0  0  0  0  0  0
  -29.0550  -20.0700   21.1590 C   0  0  0  0  0  2  0  0  0  0  0  0
  -30.8110  -14.6590   20.0150 C   0  0  0  0  0  0  0  0  0  0  0  0
  -30.4830  -12.4640   18.9100 C   0  0  0  0  0  2  0  0  0  0  0  0
  -29.4870  -12.6280   17.7440 C   0  0  0  0  0  2  0  0  0  0  0  0
  -28.0390  -12.4670   18.2470 C   0  0  0  0  0  2  0  0  0  0  0  0
  -27.7470  -13.3000   19.5250 C   0  0  0  0  0  3  0  0  0  0  0  0
  -28.8630  -13.1460   20.5810 C   0  0  0  0  0  2  0  0  0  0  0  0
  -30.1340  -13.4730   19.9290 N   0  0  0  0  0  0  0  0  0  0  0  0
  -31.9560  -14.7690   19.5630 O   0  0  0  0  0  0  0  0  0  0  0  0
  -30.4570  -16.4880   21.5950 C   0  0  0  0  0  2  0  0  0  0  0  0
  -29.9440  -16.8000   19.2610 C   0  0  0  0  0  2  0  0  0  0  0  0
  -29.6700  -17.8100   21.8760 C   0  0  0  0  0  2  0  0  0  0  0  0
  -29.1490  -18.0950   19.6350 C   0  0  0  0  0  2  0  0  0  0  0  0
  -30.0970  -15.7910   20.3410 N   0  0  0  0  0  0  0  0  0  0  0  0
  -29.7480  -18.7940   20.7790 N   0  0  0  0  0  0  0  0  0  0  0  0
  -25.3980  -13.8630   20.3930 C   0  0  0  0  0  0  0  0  0  0  0  0
  -24.3580  -13.0730   20.8040 C   0  0  0  0  0  0  0  0  0  0  0  0
  -24.8260  -11.7270   20.7130 C   0  0  0  0  0  0  0  0  0  0  0  0
  -26.4310  -12.9960   20.0800 N   0  0  0  0  0  0  0  0  0  0  0  0
  -26.0960  -11.7050   20.3320 N   0  0  0  0  0  0  0  0  0  0  0  0
  -24.1190  -10.4550   20.9160 C   0  0  0  0  0  0  0  0  0  0  0  0
  -24.5440   -9.5180   21.8830 C   0  0  0  0  0  3  0  0  0  0  0  0
  -23.8350   -8.3110   22.0720 C   0  0  0  0  0  3  0  0  0  0  0  0
  -22.6860   -8.0340   21.2930 C   0  0  0  0  0  0  0  0  0  0  0  0
  -22.2810   -8.9590   20.3150 C   0  0  0  0  0  3  0  0  0  0  0  0
  -22.9900  -10.1570   20.1240 C   0  0  0  0  0  3  0  0  0  0  0  0
  -21.9500   -6.8770   21.3890 O   0  0  0  0  0  0  0  0  0  0  0  0
  -21.7960   -6.2180   22.5810 C   0  0  0  0  0  0  0  0  0  0  0  0
  -21.2250   -6.8460   23.7110 C   0  0  0  0  0  3  0  0  0  0  0  0
  -21.0210   -6.1110   24.8960 C   0  0  0  0  0  3  0  0  0  0  0  0
  -21.3770   -4.7510   24.9520 C   0  0  0  0  0  0  0  0  0  0  0  0
  -21.9390   -4.1240   23.8260 C   0  0  0  0  0  3  0  0  0  0  0  0
  -22.1460   -4.8550   22.6440 C   0  0  0  0  0  0  0  0  0  0  0  0
  -22.6680   -4.2400   21.5550 F   0  0  0  0  0  0  0  0  0  0  0  0
  -21.1750   -4.0420   26.0890 F   0  0  0  0  0  0  0  0  0  0  0  0
  -22.9760  -13.5330   21.1660 C   0  0  0  0  0  0  0  0  0  0  0  0
  -22.3060  -12.8160   22.0610 N   0  0  0  0  0  0  0  0  0  0  0  0
  -22.5000  -14.5650   20.6900 O   0  0  0  0  0  0  0  0  0  0  0  0
  -22.7030  -11.9820   22.4660 H   0  0  0  0  0  0  0  0  0  0  0  0
  -21.3800  -13.1050   22.3430 H   0  0  0  0  0  0  0  0  0  0  0  0
  -25.5460  -15.2380   20.2430 N   0  0  0  0  0  0  0  0  0  0  0  0
  -24.7890  -15.8880   20.4220 H   0  0  0  0  0  0  0  0  0  0  0  0
  -26.3870  -15.6900   19.9060 H   0  0  0  0  0  0  0  0  0  0  0  0
  -28.9550  -23.9680   20.1910 C   0  0  0  0  0  2  0  0  0  0  0  0
  -28.1510  -25.2040   20.7710 C   0  0  0  0  0  2  0  0  0  0  0  0
  -28.4010  -26.5490   20.2150 O   0  0  0  0  0  0  0  0  0  0  0  0
  -24.6680  -31.9040   23.2130 C   0  0  0  0  0  0  0  0  0  0  0  0
  -27.2910  -27.3900   20.1660 C   0  0  0  0  0  0  0  0  0  0  0  0
  -23.4600  -30.4910   21.5850 C   0  0  0  0  0  3  0  0  0  0  0  0
  -24.9140  -28.9560   20.1490 C   0  0  0  0  0  0  0  0  0  0  0  0
  -25.9880  -30.8470   21.3730 C   0  0  0  0  0  2  0  0  0  0  0  0
  -26.0790  -29.4670   20.7370 C   0  0  0  0  0  0  0  0  0  0  0  0
  -27.2740  -28.6960   20.7380 C   0  0  0  0  0  3  0  0  0  0  0  0
  -26.1130  -26.9300   19.5400 C   0  0  0  0  0  3  0  0  0  0  0  0
  -24.9310  -27.6920   19.5390 C   0  0  0  0  0  3  0  0  0  0  0  0
  -23.6660  -29.8130   20.2050 C   0  0  0  0  0  2  0  0  0  0  0  0
  -24.7250  -31.0970   22.1150 N   0  0  0  0  0  0  0  0  0  0  0  0
  -23.5880  -32.1720   23.7580 O   0  0  0  0  0  0  0  0  0  0  0  0
  -22.8170  -29.4680   22.5530 C   0  0  0  0  0  0  0  0  0  0  0  0
  -21.4930  -29.2820   22.4390 N   0  0  0  0  0  0  0  0  0  0  0  0
  -23.5100  -28.8470   23.3630 O   0  0  0  0  0  0  0  0  0  0  0  0
  -20.9940  -29.8350   21.7560 H   0  0  0  0  0  0  0  0  0  0  0  0
  -18.1310  -28.0530   22.9490 C   0  0  0  0  0  0  0  0  0  0  0  0
  -20.6860  -28.3420   23.2190 C   0  0  0  0  0  3  0  0  0  0  0  0
  -20.8030  -26.9060   22.6590 C   0  0  0  0  0  2  0  0  0  0  0  0
  -19.7080  -26.5640   21.6440 C   0  0  0  0  0  2  0  0  0  0  0  0
  -18.3230  -26.7000   22.2830 C   0  0  0  0  0  2  0  0  0  0  0  0
  -19.2410  -28.8310   23.3740 C   0  0  0  0  0  0  0  0  0  0  0  0
  -19.0080  -30.0960   23.9540 C   0  0  0  0  0  3  0  0  0  0  0  0
  -17.6970  -30.5850   24.1150 C   0  0  0  0  0  3  0  0  0  0  0  0
  -16.6020  -29.8040   23.7050 C   0  0  0  0  0  3  0  0  0  0  0  0
  -16.8200  -28.5400   23.1290 C   0  0  0  0  0  3  0  0  0  0  0  0
  -25.9520  -32.5470   23.8220 C   0  0  0  0  0  3  0  0  0  0  0  0
  -26.4950  -31.7700   25.0840 C   0  0  1  0  0  0  0  0  0  0  0  0
  -25.4180  -31.5100   26.1620 C   0  0  0  0  0  1  0  0  0  0  0  0
  -27.0860  -30.4010   24.6690 C   0  0  0  0  0  1  0  0  0  0  0  0
  -27.6450  -32.5690   25.7390 C   0  0  0  0  0  1  0  0  0  0  0  0
  -25.6310  -33.9380   24.1680 N   0  0  0  0  0  0  0  0  0  0  0  0
  -25.9370  -35.0000   23.4090 C   0  0  0  0  0  0  0  0  0  0  0  0
  -26.5900  -34.9100   22.3670 O   0  0  0  0  0  0  0  0  0  0  0  0
  -25.0480  -34.0800   24.9800 H   0  0  0  0  0  0  0  0  0  0  0  0
  -24.1780  -36.7700   23.0960 C   0  0  0  0  0  1  0  0  0  0  0  0
  -25.4390  -36.3790   23.8830 C   0  0  0  0  0  3  0  0  0  0  0  0
  -27.5780  -37.2890   24.6770 C   0  0  0  0  0  1  0  0  0  0  0  0
  -26.4560  -37.4460   23.7560 N   0  0  0  0  0  0  0  0  0  0  0  0
  -26.0400  -38.3590   23.9160 H   0  0  0  0  0  0  0  0  0  0  0  0
  1  2  1  0
  3  1  1  0
  4  1  1  0
  4  5  1  0
  6 18  1  0
  7 12  1  0
  8  9  1  0
  8  7  1  0
 10  9  1  0
 10 23  1  0
 10 11  1  0
 12  6  1  0
 12 11  1  0
 13  6  2  0
 14 16  1  0
 15 17  1  0
 15 18  1  0
 17 19  1  0
 18 14  1  0
 19  5  1  0
 19 16  1  0
 20 21  2  0
 21 40  1  0
 22 21  1  0
 22 25  1  0
 23 24  1  0
 23 20  1  0
 24 22  2  0
 25 26  1  0
 26 27  2  0
 28 31  1  0
 28 27  1  0
 29 28  2  0
 30 29  1  0
 30 25  2  0
 31 32  1  0
 32 37  2  0
 32 33  1  0
 33 34  2  0
 34 35  1  0
 35 39  1  0
 36 35  2  0
 37 36  1  0
 38 37  1  0
 40 41  1  0
 41 44  1  0
 41 43  1  0
 42 40  2  0
 45 20  1  0
 45 46  1  0
 47 45  1  0
 48 49  1  0
 48  1  1  0
 50 49  1  0
 51 62  2  0
 52 50  1  0
 52 57  1  0
 53 61  1  0
 53 63  1  0
 54 60  1  0
 54 56  1  0
 55 61  1  0
 56 57  2  0
 56 55  1  0
 58 52  2  0
 59 58  1  0
 59 54  2  0
 60 53  1  0
 61 51  1  0
 63 65  2  0
 64 63  1  0
 66 64  1  0
 67 76  2  0
 67 72  1  0
 68 64  1  0
 68 72  1  0
 69 68  1  0
 70 71  1  0
 70 69  1  0
 71 67  1  0
 72 73  2  0
 73 74  1  0
 75 74  2  0
 76 75  1  0
 77 51  1  0
 77 82  1  0
 77 78  1  0
 78 81  1  1
 78 79  1  0
 80 78  1  0
 82 85  1  0
 83 87  1  0
 83 82  1  0
 84 83  2  0
 87 86  1  0
 89 87  1  0
 89 90  1  0
 89 88  1  0
M  ISO  4   6 100  18 100  49 101  50 101
M  END
>  <TORSDO>  (84) 
F 20

>  <SCORE>  (84) 
-12.986

>  <name>  (84) 
83

>  <ligand_id>  (84) 
83

>  <original_smiles>  (84) 
[H]c1c([H])c([H])c2c(c1[H])C([H])([H])C([H])([H])C([H])([H])C2([H])N([H])C(=O)C1([H])N(C(=O)C([H])(N([H])C(=O)C([H])(N([H])C([H])([H])[H])C([H])([H])[H])C(C([H])([H])[H])(C([H])([H])[H])C([H])([H])[H])C([H])([H])c2c([H])c(OC([H])([H])C([H])([H])[N+]([H])([H])C([H])([H])C([H])([H])N3C([H])([H])C([H])([H])N(C(=O)N4C([H])([H])C([H])([H])C([H])([H])C([H])(n5nc(-c6c([H])c([H])c(Oc7c([H])c([H])c(F)c([H])c7F)c([H])c6[H])c(C(=O)N([H])[H])c5N([H])[H])C4([H])[H])C([H])([H])C3([H])[H])c([H])c([H])c2C1([H])[H]

>  <smiles>  (84) 
[H]c1c([H])c([H])c2c(c1[H])C([H])([H])C([H])([H])C([H])([H])C2([H])N([H])C(=O)C1([H])N(C(=O)C([H])(N([H])C(=O)C([H])(N([H])C([H])([H])[H])C([H])([H])[H])C(C([H])([H])[H])(C([H])([H])[H])C([H])([H])[H])C([H])([H])c2c([H])c(OC([H])([H])C([H])([H])[N+]([H])([H])C([H])([H])C([H])([H])N3C([H])([H])C([H])([H])N(C(=O)N4C([H])([H])C([H])([H])C([H])([H])C([H])(n5nc(-c6c([H])c([H])c(Oc7c([H])c([H])c(F)c([H])c7F)c([H])c6[H])c(C(=O)N([H])[H])c5N([H])[H])C4([H])[H])C([H])([H])C3([H])[H])c([H])c([H])c2C1([H])[H]

$$$$
84:0:0
     RDKit          3D

 91100  0  0  1  0  0  0  0  0999 V2000
  -30.6900  -20.8810   20.8190 C   0  0  0  0  0  2  0  0  0  0  0  0
  -28.2730  -20.2770   20.8590 C   0  0  0  0  0  2  0  0  0  0  0  0
  -30.3000  -22.3610   20.4720 C   0  0  0  0  0  2  0  0  0  0  0  0
  -27.9260  -21.7760   20.5120 C   0  0  0  0  0  2  0  0  0  0  0  0
  -29.6710  -19.7940   20.3590 C   0  0  0  0  0  3  0  0  0  0  0  0
  -28.9610  -22.7270   21.0140 N   0  0  2  0  0  4  0  0  0  0  0  0
  -29.0390  -22.4610   21.9840 H   0  0  0  0  0  0  0  0  0  0  0  0
  -30.1240  -18.2990   20.7450 C   0  0  0  0  0  2  0  0  0  0  0  0
  -30.5840  -14.7370   20.2710 C   0  0  0  0  0  0  0  0  0  0  0  0
  -30.3790  -12.4690   19.2840 C   0  0  0  0  0  2  0  0  0  0  0  0
  -29.4270  -12.5490   18.0690 C   0  0  0  0  0  2  0  0  0  0  0  0
  -27.9510  -12.4300   18.5040 C   0  0  0  0  0  2  0  0  0  0  0  0
  -27.6000  -13.3070   19.7370 C   0  0  0  0  0  3  0  0  0  0  0  0
  -28.6690  -13.1960   20.8460 C   0  0  0  0  0  2  0  0  0  0  0  0
  -29.9660  -13.5150   20.2380 N   0  0  0  0  0  0  0  0  0  0  0  0
  -31.7980  -14.8400   20.0710 O   0  0  0  0  0  0  0  0  0  0  0  0
  -28.5620  -17.1370   18.9520 C   0  0  0  0  0  2  0  0  0  0  0  0
  -29.7680  -16.3170   18.5110 C   0  0  0  0  0  2  0  0  0  0  0  0
  -29.1800  -17.0920   20.3490 C   0  0  0  0  0  3  0  0  0  0  0  0
  -29.7610  -15.7690   19.8700 N   0  0  0  0  0  0  0  0  0  0  0  0
  -25.2130  -13.9180   20.4640 C   0  0  0  0  0  0  0  0  0  0  0  0
  -24.1450  -13.1490   20.8390 C   0  0  0  0  0  0  0  0  0  0  0  0
  -24.6070  -11.7970   20.8210 C   0  0  0  0  0  0  0  0  0  0  0  0
  -26.2550  -13.0340   20.2360 N   0  0  0  0  0  0  0  0  0  0  0  0
  -25.8970  -11.7540   20.5130 N   0  0  0  0  0  0  0  0  0  0  0  0
  -23.8810  -10.5380   21.0200 C   0  0  0  0  0  0  0  0  0  0  0  0
  -24.3230   -9.5700   21.9510 C   0  0  0  0  0  3  0  0  0  0  0  0
  -23.5980   -8.3730   22.1360 C   0  0  0  0  0  3  0  0  0  0  0  0
  -22.4180   -8.1350   21.3920 C   0  0  0  0  0  0  0  0  0  0  0  0
  -21.9970   -9.0900   20.4500 C   0  0  0  0  0  3  0  0  0  0  0  0
  -22.7220  -10.2780   20.2620 C   0  0  0  0  0  3  0  0  0  0  0  0
  -21.6630   -6.9910   21.4890 O   0  0  0  0  0  0  0  0  0  0  0  0
  -21.6340   -6.2450   22.6390 C   0  0  0  0  0  0  0  0  0  0  0  0
  -21.2400   -6.7980   23.8780 C   0  0  0  0  0  3  0  0  0  0  0  0
  -21.1560   -5.9790   25.0210 C   0  0  0  0  0  3  0  0  0  0  0  0
  -21.4550   -4.6060   24.9280 C   0  0  0  0  0  0  0  0  0  0  0  0
  -21.8430   -4.0530   23.6940 C   0  0  0  0  0  3  0  0  0  0  0  0
  -21.9280   -4.8690   22.5540 C   0  0  0  0  0  0  0  0  0  0  0  0
  -22.2820   -4.3250   21.3630 F   0  0  0  0  0  0  0  0  0  0  0  0
  -21.3680   -3.8170   26.0240 F   0  0  0  0  0  0  0  0  0  0  0  0
  -22.7480  -13.6280   21.1070 C   0  0  0  0  0  0  0  0  0  0  0  0
  -22.0200  -12.9370   21.9780 N   0  0  0  0  0  0  0  0  0  0  0  0
  -22.3090  -14.6480   20.5790 O   0  0  0  0  0  0  0  0  0  0  0  0
  -22.3890  -12.1120   22.4260 H   0  0  0  0  0  0  0  0  0  0  0  0
  -21.0820  -13.2390   22.1980 H   0  0  0  0  0  0  0  0  0  0  0  0
  -25.3800  -15.2870   20.2800 N   0  0  0  0  0  0  0  0  0  0  0  0
  -24.6210  -15.9510   20.3900 H   0  0  0  0  0  0  0  0  0  0  0  0
  -26.2510  -15.7190   19.9990 H   0  0  0  0  0  0  0  0  0  0  0  0
  -28.6060  -24.2120   21.1540 C   0  0  0  0  0  3  0  0  0  0  0  0
  -28.5200  -25.1690   19.8980 C   0  0  0  0  0  3  0  0  0  0  0  0
  -28.4560  -26.6200   20.1990 O   0  0  0  0  0  0  0  0  0  0  0  0
  -24.6410  -31.9060   23.2250 C   0  0  0  0  0  0  0  0  0  0  0  0
  -27.2810  -27.3820   20.1590 C   0  0  0  0  0  0  0  0  0  0  0  0
  -23.4370  -30.4970   21.5910 C   0  0  0  0  0  3  0  0  0  0  0  0
  -24.8920  -28.9570   20.1610 C   0  0  0  0  0  0  0  0  0  0  0  0
  -25.9690  -30.8430   21.3890 C   0  0  0  0  0  2  0  0  0  0  0  0
  -26.0560  -29.4650   20.7460 C   0  0  0  0  0  0  0  0  0  0  0  0
  -27.2490  -28.6890   20.7340 C   0  0  0  0  0  3  0  0  0  0  0  0
  -26.0880  -26.9170   19.5570 C   0  0  0  0  0  3  0  0  0  0  0  0
  -24.9100  -27.6880   19.5590 C   0  0  0  0  0  3  0  0  0  0  0  0
  -23.6470  -29.8180   20.2110 C   0  0  0  0  0  2  0  0  0  0  0  0
  -24.7020  -31.0990   22.1260 N   0  0  0  0  0  0  0  0  0  0  0  0
  -23.5590  -32.1740   23.7670 O   0  0  0  0  0  0  0  0  0  0  0  0
  -22.7900  -29.4760   22.5560 C   0  0  0  0  0  0  0  0  0  0  0  0
  -21.4650  -29.2910   22.4390 N   0  0  0  0  0  0  0  0  0  0  0  0
  -23.4790  -28.8530   23.3670 O   0  0  0  0  0  0  0  0  0  0  0  0
  -20.9690  -29.8440   21.7530 H   0  0  0  0  0  0  0  0  0  0  0  0
  -18.0990  -28.0760   22.9560 C   0  0  0  0  0  0  0  0  0  0  0  0
  -20.6560  -28.3500   23.2140 C   0  0  0  0  0  3  0  0  0  0  0  0
  -20.7640  -26.9190   22.6380 C   0  0  0  0  0  2  0  0  0  0  0  0
  -19.6590  -26.5900   21.6300 C   0  0  0  0  0  2  0  0  0  0  0  0
  -18.2790  -26.7280   22.2800 C   0  0  0  0  0  2  0  0  0  0  0  0
  -19.2150  -28.8450   23.3810 C   0  0  0  0  0  0  0  0  0  0  0  0
  -18.9920  -30.1070   23.9730 C   0  0  0  0  0  3  0  0  0  0  0  0
  -17.6860  -30.6010   24.1460 C   0  0  0  0  0  3  0  0  0  0  0  0
  -16.5840  -29.8300   23.7380 C   0  0  0  0  0  3  0  0  0  0  0  0
  -16.7910  -28.5690   23.1490 C   0  0  0  0  0  3  0  0  0  0  0  0
  -25.9240  -32.5470   23.8400 C   0  0  0  0  0  3  0  0  0  0  0  0
  -26.4570  -31.7760   25.1100 C   0  0  1  0  0  0  0  0  0  0  0  0
  -25.3730  -31.5260   26.1840 C   0  0  0  0  0  1  0  0  0  0  0  0
  -27.0480  -30.4040   24.7100 C   0  0  0  0  0  1  0  0  0  0  0  0
  -27.6060  -32.5770   25.7660 C   0  0  0  0  0  1  0  0  0  0  0  0
  -25.6050  -33.9410   24.1780 N   0  0  0  0  0  0  0  0  0  0  0  0
  -25.9220  -35.0000   23.4220 C   0  0  0  0  0  0  0  0  0  0  0  0
  -26.5860  -34.9070   22.3850 O   0  0  0  0  0  0  0  0  0  0  0  0
  -25.0140  -34.0870   24.9840 H   0  0  0  0  0  0  0  0  0  0  0  0
  -24.1730  -36.7770   23.0910 C   0  0  0  0  0  1  0  0  0  0  0  0
  -25.4260  -36.3820   23.8890 C   0  0  0  0  0  3  0  0  0  0  0  0
  -27.5600  -37.2810   24.7040 C   0  0  0  0  0  1  0  0  0  0  0  0
  -26.4470  -37.4450   23.7720 N   0  0  0  0  0  0  0  0  0  0  0  0
  -26.0340  -38.3600   23.9320 H   0  0  0  0  0  0  0  0  0  0  0  0
  3  1  1  0
  3  6  1  0
  4  2  1  0
  4  6  1  0
  5  8  1  0
  5  1  1  0
  5  2  1  0
  6 49  1  0
  6  7  1  1
 10 15  1  0
 11 12  1  0
 11 10  1  0
 13 12  1  0
 13 24  1  0
 13 14  1  0
 15  9  1  0
 15 14  1  0
 16  9  2  0
 17 19  1  0
 18 17  1  0
 18 20  1  0
 19  8  1  0
 20  9  1  0
 20 19  1  0
 21 22  2  0
 22 41  1  0
 23 22  1  0
 23 26  1  0
 24 21  1  0
 24 25  1  0
 25 23  2  0
 26 27  1  0
 27 28  2  0
 29 32  1  0
 29 28  1  0
 30 29  2  0
 31 30  1  0
 31 26  2  0
 32 33  1  0
 33 34  1  0
 34 35  2  0
 36 35  1  0
 36 40  1  0
 37 36  2  0
 38 33  2  0
 38 37  1  0
 39 38  1  0
 41 42  1  0
 42 45  1  0
 42 44  1  0
 43 41  2  0
 46 47  1  0
 46 21  1  0
 48 46  1  0
 50 51  1  0
 50 49  2  0
 52 63  2  0
 53 51  1  0
 53 58  1  0
 54 62  1  0
 54 64  1  0
 55 61  1  0
 55 57  1  0
 56 62  1  0
 57 56  1  0
 58 57  2  0
 59 60  1  0
 59 53  2  0
 60 55  2  0
 61 54  1  0
 62 52  1  0
 64 66  2  0
 65 64  1  0
 67 65  1  0
 68 77  2  0
 68 73  1  0
 69 65  1  0
 69 73  1  0
 70 69  1  0
 71 72  1  0
 71 70  1  0
 72 68  1  0
 73 74  2  0
 74 75  1  0
 76 75  2  0
 77 76  1  0
 78 52  1  0
 78 83  1  0
 78 79  1  0
 79 82  1  1
 79 80  1  0
 81 79  1  0
 83 86  1  0
 84 88  1  0
 84 83  1  0
 85 84  2  0
 88 87  1  0
 90 88  1  0
 90 91  1  0
 90 89  1  0
M  ISO  4   9 100  20 100  50 101  51 101
M  END
>  <TORSDO>  (85) 
F 19

>  <SCORE>  (85) 
-13.983

>  <name>  (85) 
84

>  <ligand_id>  (85) 
84

>  <original_smiles>  (85) 
[H]c1c([H])c([H])c2c(c1[H])C([H])([H])C([H])([H])C([H])([H])C2([H])N([H])C(=O)C1([H])N(C(=O)C([H])(N([H])C(=O)C([H])(N([H])C([H])([H])[H])C([H])([H])[H])C(C([H])([H])[H])(C([H])([H])[H])C([H])([H])[H])C([H])([H])c2c([H])c(OC([H])([H])C([H])([H])[N+]3([H])C([H])([H])C([H])([H])C([H])(C([H])([H])C4([H])N(C(=O)N5C([H])([H])C([H])([H])C([H])([H])C([H])(n6nc(-c7c([H])c([H])c(Oc8c([H])c([H])c(F)c([H])c8F)c([H])c7[H])c(C(=O)N([H])[H])c6N([H])[H])C5([H])[H])C([H])([H])C4([H])[H])C([H])([H])C3([H])[H])c([H])c([H])c2C1([H])[H]

>  <smiles>  (85) 
[H]c1c([H])c([H])c2c(c1[H])C([H])([H])C([H])([H])C([H])([H])C2([H])N([H])C(=O)C1([H])N(C(=O)C([H])(N([H])C(=O)C([H])(N([H])C([H])([H])[H])C([H])([H])[H])C(C([H])([H])[H])(C([H])([H])[H])C([H])([H])[H])C([H])([H])c2c([H])c(OC([H])([H])C([H])([H])[N+]3([H])C([H])([H])C([H])([H])C([H])(C([H])([H])C4([H])N(C(=O)N5C([H])([H])C([H])([H])C([H])([H])C([H])(n6nc(-c7c([H])c([H])c(Oc8c([H])c([H])c(F)c([H])c8F)c([H])c7[H])c(C(=O)N([H])[H])c6N([H])[H])C5([H])[H])C([H])([H])C4([H])[H])C([H])([H])C3([H])[H])c([H])c([H])c2C1([H])[H]

$$$$
85:0:0
     RDKit          3D

 90 98  0  0  1  0  0  0  0  0999 V2000
  -28.7000  -21.7600   20.0250 N   0  0  0  0  0  4  0  0  0  0  0  0
  -27.7030  -21.6210   19.9570 H   0  0  0  0  0  0  0  0  0  0  0  0
  -29.0300  -21.7430   19.0730 H   0  0  0  0  0  0  0  0  0  0  0  0
  -28.8150  -18.9300   20.0870 C   0  0  0  0  0  0  0  0  0  0  0  0
  -30.9590  -18.5760   21.1330 C   0  0  0  0  0  2  0  0  0  0  0  0
  -30.7370  -20.1310   20.8660 C   0  0  0  0  0  2  0  0  0  0  0  0
  -29.9810  -17.7790   20.2280 C   0  0  0  0  0  3  0  0  0  0  0  0
  -29.2150  -20.4050   20.7100 C   0  0  0  0  0  3  0  0  0  0  0  0
  -27.7240  -18.6990   19.5610 O   0  0  0  0  0  0  0  0  0  0  0  0
  -30.4960  -15.0340   20.3170 C   0  0  0  0  0  0  0  0  0  0  0  0
  -30.3730  -12.6750   19.3780 C   0  0  0  0  0  2  0  0  0  0  0  0
  -29.4340  -12.6260   18.1480 C   0  0  0  0  0  2  0  0  0  0  0  0
  -27.9750  -12.4080   18.5900 C   0  0  0  0  0  2  0  0  0  0  0  0
  -27.5730  -13.3290   19.7700 C   0  0  0  0  0  3  0  0  0  0  0  0
  -28.6340  -13.3470   20.8920 C   0  0  0  0  0  2  0  0  0  0  0  0
  -29.9000  -13.7690   20.2790 N   0  0  0  0  0  0  0  0  0  0  0  0
  -31.6860  -15.0940   19.9930 O   0  0  0  0  0  0  0  0  0  0  0  0
  -29.7310  -16.2260   20.5190 N   0  0  0  0  0  0  0  0  0  0  0  0
  -28.7750  -16.0320   20.7770 H   0  0  0  0  0  0  0  0  0  0  0  0
  -25.1960  -13.9010   20.5240 C   0  0  0  0  0  0  0  0  0  0  0  0
  -24.1350  -13.1230   20.8960 C   0  0  0  0  0  0  0  0  0  0  0  0
  -24.6010  -11.7730   20.8590 C   0  0  0  0  0  0  0  0  0  0  0  0
  -26.2390  -13.0250   20.2740 N   0  0  0  0  0  0  0  0  0  0  0  0
  -25.8920  -11.7400   20.5430 N   0  0  0  0  0  0  0  0  0  0  0  0
  -23.8770  -10.5100   21.0470 C   0  0  0  0  0  0  0  0  0  0  0  0
  -24.3120   -9.5380   21.9760 C   0  0  0  0  0  3  0  0  0  0  0  0
  -23.5850   -8.3410   22.1540 C   0  0  0  0  0  3  0  0  0  0  0  0
  -22.4090   -8.1060   21.4010 C   0  0  0  0  0  0  0  0  0  0  0  0
  -21.9940   -9.0660   20.4620 C   0  0  0  0  0  3  0  0  0  0  0  0
  -22.7210  -10.2540   20.2830 C   0  0  0  0  0  3  0  0  0  0  0  0
  -21.6540   -6.9610   21.4890 O   0  0  0  0  0  0  0  0  0  0  0  0
  -21.6070   -6.2160   22.6400 C   0  0  0  0  0  0  0  0  0  0  0  0
  -21.1710   -6.7650   23.8660 C   0  0  0  0  0  3  0  0  0  0  0  0
  -21.0720   -5.9460   25.0080 C   0  0  0  0  0  3  0  0  0  0  0  0
  -21.3990   -4.5790   24.9250 C   0  0  0  0  0  0  0  0  0  0  0  0
  -21.8270   -4.0300   23.7040 C   0  0  0  0  0  3  0  0  0  0  0  0
  -21.9280   -4.8460   22.5640 C   0  0  0  0  0  0  0  0  0  0  0  0
  -22.3210   -4.3060   21.3860 F   0  0  0  0  0  0  0  0  0  0  0  0
  -21.2950   -3.7900   26.0210 F   0  0  0  0  0  0  0  0  0  0  0  0
  -22.7390  -13.5980   21.1720 C   0  0  0  0  0  0  0  0  0  0  0  0
  -22.0130  -12.8990   22.0380 N   0  0  0  0  0  0  0  0  0  0  0  0
  -22.3010  -14.6260   20.6570 O   0  0  0  0  0  0  0  0  0  0  0  0
  -22.3810  -12.0680   22.4760 H   0  0  0  0  0  0  0  0  0  0  0  0
  -21.0770  -13.2000   22.2670 H   0  0  0  0  0  0  0  0  0  0  0  0
  -25.3550  -15.2720   20.3470 N   0  0  0  0  0  0  0  0  0  0  0  0
  -24.5790  -15.9180   20.4540 H   0  0  0  0  0  0  0  0  0  0  0  0
  -26.1830  -15.7140   19.9680 H   0  0  0  0  0  0  0  0  0  0  0  0
  -28.8950  -23.2550   20.5780 C   0  0  0  0  0  3  0  0  0  0  0  0
  -28.0150  -24.6160   20.0310 C   0  0  0  0  0  3  0  0  0  0  0  0
  -28.2300  -26.1480   20.3320 O   0  0  0  0  0  0  0  0  0  0  0  0
  -24.6220  -31.9020   23.2510 C   0  0  0  0  0  0  0  0  0  0  0  0
  -27.1850  -27.1520   20.2350 C   0  0  0  0  0  0  0  0  0  0  0  0
  -23.4200  -30.5080   21.6130 C   0  0  0  0  0  3  0  0  0  0  0  0
  -24.8660  -28.9240   20.1900 C   0  0  0  0  0  0  0  0  0  0  0  0
  -25.9770  -30.7570   21.4550 C   0  0  0  0  0  2  0  0  0  0  0  0
  -26.0460  -29.3610   20.8040 C   0  0  0  0  0  0  0  0  0  0  0  0
  -27.2040  -28.4910   20.8100 C   0  0  0  0  0  3  0  0  0  0  0  0
  -25.9810  -26.8280   19.5690 C   0  0  0  0  0  3  0  0  0  0  0  0
  -24.8490  -27.6720   19.5550 C   0  0  0  0  0  3  0  0  0  0  0  0
  -23.6430  -29.8280   20.2350 C   0  0  0  0  0  2  0  0  0  0  0  0
  -24.6940  -31.0790   22.1610 N   0  0  0  0  0  0  0  0  0  0  0  0
  -23.5360  -32.1930   23.7770 O   0  0  0  0  0  0  0  0  0  0  0  0
  -22.7350  -29.5060   22.5760 C   0  0  0  0  0  0  0  0  0  0  0  0
  -21.4070  -29.3400   22.4470 N   0  0  0  0  0  0  0  0  0  0  0  0
  -23.4020  -28.8810   23.4040 O   0  0  0  0  0  0  0  0  0  0  0  0
  -20.9250  -29.8960   21.7540 H   0  0  0  0  0  0  0  0  0  0  0  0
  -18.0210  -28.1510   22.9450 C   0  0  0  0  0  0  0  0  0  0  0  0
  -20.5800  -28.4070   23.2180 C   0  0  0  0  0  3  0  0  0  0  0  0
  -20.6790  -26.9730   22.6470 C   0  0  0  0  0  2  0  0  0  0  0  0
  -19.5780  -26.6520   21.6310 C   0  0  0  0  0  2  0  0  0  0  0  0
  -18.1960  -26.8010   22.2710 C   0  0  0  0  0  2  0  0  0  0  0  0
  -19.1410  -28.9130   23.3750 C   0  0  0  0  0  0  0  0  0  0  0  0
  -18.9220  -30.1750   23.9680 C   0  0  0  0  0  3  0  0  0  0  0  0
  -17.6180  -30.6780   24.1330 C   0  0  0  0  0  3  0  0  0  0  0  0
  -16.5130  -29.9140   23.7180 C   0  0  0  0  0  3  0  0  0  0  0  0
  -16.7150  -28.6530   23.1300 C   0  0  0  0  0  3  0  0  0  0  0  0
  -25.9010  -32.5370   23.8800 C   0  0  0  0  0  3  0  0  0  0  0  0
  -26.4010  -31.7730   25.1690 C   0  0  1  0  0  0  0  0  0  0  0  0
  -25.2970  -31.5520   26.2300 C   0  0  0  0  0  1  0  0  0  0  0  0
  -26.9790  -30.3880   24.7990 C   0  0  0  0  0  1  0  0  0  0  0  0
  -27.5510  -32.5660   25.8330 C   0  0  0  0  0  1  0  0  0  0  0  0
  -25.5940  -33.9390   24.2040 N   0  0  0  0  0  0  0  0  0  0  0  0
  -25.9220  -34.9900   23.4410 C   0  0  0  0  0  0  0  0  0  0  0  0
  -26.5820  -34.8810   22.4040 O   0  0  0  0  0  0  0  0  0  0  0  0
  -25.0060  -34.0970   25.0090 H   0  0  0  0  0  0  0  0  0  0  0  0
  -24.1920  -36.7890   23.1080 C   0  0  0  0  0  1  0  0  0  0  0  0
  -25.4470  -36.3830   23.9000 C   0  0  0  0  0  3  0  0  0  0  0  0
  -27.5940  -37.2720   24.6950 C   0  0  0  0  0  1  0  0  0  0  0  0
  -26.4790  -37.4340   23.7650 N   0  0  0  0  0  0  0  0  0  0  0  0
  -26.0760  -38.3560   23.9100 H   0  0  0  0  0  0  0  0  0  0  0  0
  1 48  1  0
  2  1  1  0
  3  1  1  0
  4  7  1  0
  4  8  1  0
  6  5  1  0
  7 18  1  0
  7  5  1  0
  8  1  1  0
  8  6  1  0
  9  4  2  0
 10 18  1  0
 11 16  1  0
 12 13  1  0
 12 11  1  0
 14 13  1  0
 14 23  1  0
 14 15  1  0
 16 10  1  0
 16 15  1  0
 17 10  2  0
 18 19  1  0
 20 21  2  0
 21 40  1  0
 22 21  1  0
 22 25  1  0
 23 20  1  0
 23 24  1  0
 24 22  2  0
 25 26  1  0
 26 27  2  0
 28 31  1  0
 28 27  1  0
 29 28  2  0
 30 29  1  0
 30 25  2  0
 31 32  1  0
 32 33  1  0
 33 34  2  0
 35 34  1  0
 35 39  1  0
 36 35  2  0
 37 32  2  0
 37 36  1  0
 38 37  1  0
 40 41  1  0
 41 44  1  0
 41 43  1  0
 42 40  2  0
 45 46  1  0
 45 20  1  0
 47 45  1  0
 49 50  1  0
 49 48  2  0
 51 62  2  0
 52 50  1  0
 52 57  1  0
 53 61  1  0
 53 63  1  0
 54 60  1  0
 54 56  1  0
 55 61  1  0
 56 57  2  0
 56 55  1  0
 58 52  2  0
 59 58  1  0
 59 54  2  0
 60 53  1  0
 61 51  1  0
 63 65  2  0
 64 63  1  0
 66 64  1  0
 67 76  2  0
 67 72  1  0
 68 64  1  0
 68 72  1  0
 69 68  1  0
 70 71  1  0
 70 69  1  0
 71 67  1  0
 72 73  2  0
 73 74  1  0
 75 74  2  0
 76 75  1  0
 77 51  1  0
 77 82  1  0
 77 78  1  0
 78 81  1  1
 78 79  1  0
 80 78  1  0
 82 85  1  0
 83 87  1  0
 83 82  1  0
 84 83  2  0
 87 86  1  0
 89 87  1  0
 89 90  1  0
 89 88  1  0
M  ISO  4  10 100  18 100  49 101  50 101
M  END
>  <TORSDO>  (86) 
F 19

>  <SCORE>  (86) 
-15.156

>  <name>  (86) 
85

>  <ligand_id>  (86) 
85

>  <original_smiles>  (86) 
[H]c1c([H])c([H])c2c(c1[H])C([H])([H])C([H])([H])C([H])([H])C2([H])N([H])C(=O)C1([H])N(C(=O)C([H])(N([H])C(=O)C([H])(N([H])C([H])([H])[H])C([H])([H])[H])C(C([H])([H])[H])(C([H])([H])[H])C([H])([H])[H])C([H])([H])c2c([H])c(OC([H])([H])C([H])([H])[N+]([H])([H])C3([H])C(=O)C([H])(N([H])C(=O)N4C([H])([H])C([H])([H])C([H])([H])C([H])(n5nc(-c6c([H])c([H])c(Oc7c([H])c([H])c(F)c([H])c7F)c([H])c6[H])c(C(=O)N([H])[H])c5N([H])[H])C4([H])[H])C([H])([H])C3([H])[H])c([H])c([H])c2C1([H])[H]

>  <smiles>  (86) 
[H]c1c([H])c([H])c2c(c1[H])C([H])([H])C([H])([H])C([H])([H])C2([H])N([H])C(=O)C1([H])N(C(=O)C([H])(N([H])C(=O)C([H])(N([H])C([H])([H])[H])C([H])([H])[H])C(C([H])([H])[H])(C([H])([H])[H])C([H])([H])[H])C([H])([H])c2c([H])c(OC([H])([H])C([H])([H])[N+]([H])([H])C3([H])C(=O)C([H])(N([H])C(=O)N4C([H])([H])C([H])([H])C([H])([H])C([H])(n5nc(-c6c([H])c([H])c(Oc7c([H])c([H])c(F)c([H])c7F)c([H])c6[H])c(C(=O)N([H])[H])c5N([H])[H])C4([H])[H])C([H])([H])C3([H])[H])c([H])c([H])c2C1([H])[H]

$$$$
86:0:0
     RDKit          3D

 94103  0  0  1  0  0  0  0  0999 V2000
  -26.3880  -22.8900   21.4480 C   0  0  0  0  0  2  0  0  0  0  0  0
  -27.6070  -22.7860   22.3590 C   0  0  0  0  0  2  0  0  0  0  0  0
  -26.6580  -24.1290   20.6040 C   0  0  0  0  0  2  0  0  0  0  0  0
  -28.8030  -23.3090   21.5360 C   0  0  0  0  0  3  0  0  0  0  0  0
  -28.1850  -24.3670   20.5670 C   0  0  0  0  0  3  0  0  0  0  0  0
  -28.8330  -21.2610   19.9060 C   0  0  0  0  0  2  0  0  0  0  0  0
  -30.4270  -21.3180   21.8840 C   0  0  0  0  0  2  0  0  0  0  0  0
  -29.6410  -20.0710   19.3580 C   0  0  0  0  0  2  0  0  0  0  0  0
  -31.1480  -20.0890   21.2660 C   0  0  0  0  0  2  0  0  0  0  0  0
  -29.6510  -22.1800   20.8480 C   0  0  0  0  0  3  0  0  0  0  0  0
  -30.1730  -19.2760   20.4920 N   0  0  2  0  0  4  0  0  0  0  0  0
  -29.3820  -19.1540   21.1060 H   0  0  0  0  0  0  0  0  0  0  0  0
  -30.5600  -17.8730   20.1370 C   0  0  0  0  0  2  0  0  0  0  0  0
  -30.5910  -16.9220   21.3700 C   0  0  0  0  0  2  0  0  0  0  0  0
  -30.8140  -14.5690   20.4030 C   0  0  0  0  0  0  0  0  0  0  0  0
  -30.4870  -12.4090   19.2360 C   0  0  0  0  0  2  0  0  0  0  0  0
  -29.5410  -12.6070   18.0320 C   0  0  0  0  0  2  0  0  0  0  0  0
  -28.0720  -12.4520   18.4720 C   0  0  0  0  0  2  0  0  0  0  0  0
  -27.7350  -13.3110   19.7190 C   0  0  0  0  0  3  0  0  0  0  0  0
  -28.7930  -13.1050   20.8270 C   0  0  0  0  0  2  0  0  0  0  0  0
  -30.1230  -13.4010   20.2600 N   0  0  0  0  0  0  0  0  0  0  0  0
  -31.8980  -14.7870   19.8630 O   0  0  0  0  0  0  0  0  0  0  0  0
  -30.1850  -15.5260   21.1030 N   0  0  0  0  0  0  0  0  0  0  0  0
  -29.3040  -15.2400   21.5050 H   0  0  0  0  0  0  0  0  0  0  0  0
  -25.3340  -13.9250   20.4230 C   0  0  0  0  0  0  0  0  0  0  0  0
  -24.2650  -13.1540   20.7970 C   0  0  0  0  0  0  0  0  0  0  0  0
  -24.7270  -11.8040   20.7770 C   0  0  0  0  0  0  0  0  0  0  0  0
  -26.3810  -13.0440   20.2010 N   0  0  0  0  0  0  0  0  0  0  0  0
  -26.0190  -11.7620   20.4710 N   0  0  0  0  0  0  0  0  0  0  0  0
  -24.0020  -10.5410   20.9760 C   0  0  0  0  0  0  0  0  0  0  0  0
  -24.4320   -9.5840   21.9200 C   0  0  0  0  0  3  0  0  0  0  0  0
  -23.7080   -8.3870   22.1060 C   0  0  0  0  0  3  0  0  0  0  0  0
  -22.5390   -8.1390   21.3490 C   0  0  0  0  0  0  0  0  0  0  0  0
  -22.1270   -9.0850   20.3960 C   0  0  0  0  0  3  0  0  0  0  0  0
  -22.8510  -10.2750   20.2070 C   0  0  0  0  0  3  0  0  0  0  0  0
  -21.7850   -6.9940   21.4460 O   0  0  0  0  0  0  0  0  0  0  0  0
  -21.7300   -6.2630   22.6050 C   0  0  0  0  0  0  0  0  0  0  0  0
  -21.2990   -6.8310   23.8240 C   0  0  0  0  0  3  0  0  0  0  0  0
  -21.1910   -6.0260   24.9760 C   0  0  0  0  0  3  0  0  0  0  0  0
  -21.5070   -4.6550   24.9100 C   0  0  0  0  0  0  0  0  0  0  0  0
  -21.9320   -4.0880   23.6970 C   0  0  0  0  0  3  0  0  0  0  0  0
  -22.0430   -4.8900   22.5480 C   0  0  0  0  0  0  0  0  0  0  0  0
  -22.4330   -4.3340   21.3750 F   0  0  0  0  0  0  0  0  0  0  0  0
  -21.3980   -3.8810   26.0150 F   0  0  0  0  0  0  0  0  0  0  0  0
  -22.8670  -13.6320   21.0650 C   0  0  0  0  0  0  0  0  0  0  0  0
  -22.1410  -12.9400   21.9370 N   0  0  0  0  0  0  0  0  0  0  0  0
  -22.4280  -14.6530   20.5370 O   0  0  0  0  0  0  0  0  0  0  0  0
  -22.5120  -12.1150   22.3840 H   0  0  0  0  0  0  0  0  0  0  0  0
  -21.2020  -13.2370   22.1580 H   0  0  0  0  0  0  0  0  0  0  0  0
  -25.5010  -15.2920   20.2300 N   0  0  0  0  0  0  0  0  0  0  0  0
  -24.7360  -15.9520   20.3180 H   0  0  0  0  0  0  0  0  0  0  0  0
  -26.3540  -15.7200   19.8920 H   0  0  0  0  0  0  0  0  0  0  0  0
  -28.5580  -25.8400   20.9220 C   0  0  0  0  0  2  0  0  0  0  0  0
  -28.3230  -26.7780   19.8600 O   0  0  0  0  0  0  0  0  0  0  0  0
  -24.6090  -31.8990   23.1910 C   0  0  0  0  0  0  0  0  0  0  0  0
  -27.1700  -27.5250   19.9500 C   0  0  0  0  0  0  0  0  0  0  0  0
  -23.3630  -30.5380   21.5450 C   0  0  0  0  0  3  0  0  0  0  0  0
  -24.7830  -29.0330   20.0580 C   0  0  0  0  0  0  0  0  0  0  0  0
  -25.8890  -30.8950   21.3050 C   0  0  0  0  0  2  0  0  0  0  0  0
  -25.9570  -29.5370   20.6360 C   0  0  0  0  0  0  0  0  0  0  0  0
  -27.1560  -28.7870   20.5830 C   0  0  0  0  0  3  0  0  0  0  0  0
  -25.9900  -27.0500   19.3440 C   0  0  0  0  0  3  0  0  0  0  0  0
  -24.7920  -27.7830   19.4140 C   0  0  0  0  0  3  0  0  0  0  0  0
  -23.5430  -29.8910   20.1470 C   0  0  0  0  0  2  0  0  0  0  0  0
  -24.6400  -31.1240   22.0710 N   0  0  0  0  0  0  0  0  0  0  0  0
  -23.5380  -32.1620   23.7560 O   0  0  0  0  0  0  0  0  0  0  0  0
  -22.7280  -29.4970   22.4950 C   0  0  0  0  0  0  0  0  0  0  0  0
  -21.4020  -29.3220   22.3850 N   0  0  0  0  0  0  0  0  0  0  0  0
  -23.4250  -28.8540   23.2840 O   0  0  0  0  0  0  0  0  0  0  0  0
  -20.9010  -29.8950   21.7200 H   0  0  0  0  0  0  0  0  0  0  0  0
  -18.0380  -28.1130   22.9050 C   0  0  0  0  0  0  0  0  0  0  0  0
  -20.5970  -28.3720   23.1530 C   0  0  0  0  0  3  0  0  0  0  0  0
  -20.6960  -26.9510   22.5540 C   0  0  0  0  0  2  0  0  0  0  0  0
  -19.5840  -26.6380   21.5480 C   0  0  0  0  0  2  0  0  0  0  0  0
  -18.2100  -26.7730   22.2100 C   0  0  0  0  0  2  0  0  0  0  0  0
  -19.1590  -28.8700   23.3350 C   0  0  0  0  0  0  0  0  0  0  0  0
  -18.9440  -30.1230   23.9480 C   0  0  0  0  0  3  0  0  0  0  0  0
  -17.6410  -30.6200   24.1330 C   0  0  0  0  0  3  0  0  0  0  0  0
  -16.5330  -29.8600   23.7210 C   0  0  0  0  0  3  0  0  0  0  0  0
  -16.7330  -28.6070   23.1130 C   0  0  0  0  0  3  0  0  0  0  0  0
  -25.9090  -32.5120   23.7960 C   0  0  0  0  0  3  0  0  0  0  0  0
  -26.4570  -31.7060   25.0380 C   0  0  1  0  0  0  0  0  0  0  0  0
  -25.3920  -31.4380   26.1270 C   0  0  0  0  0  1  0  0  0  0  0  0
  -27.0280  -30.3380   24.5940 C   0  0  0  0  0  1  0  0  0  0  0  0
  -27.6270  -32.4830   25.6870 C   0  0  0  0  0  1  0  0  0  0  0  0
  -25.6080  -33.9010   24.1670 N   0  0  0  0  0  0  0  0  0  0  0  0
  -25.9330  -34.9700   23.4290 C   0  0  0  0  0  0  0  0  0  0  0  0
  -26.5860  -34.8930   22.3850 O   0  0  0  0  0  0  0  0  0  0  0  0
  -25.0090  -34.0330   24.9700 H   0  0  0  0  0  0  0  0  0  0  0  0
  -24.2080  -36.7820   23.1550 C   0  0  0  0  0  1  0  0  0  0  0  0
  -25.4610  -36.3480   23.9310 C   0  0  0  0  0  3  0  0  0  0  0  0
  -27.6130  -37.2020   24.7470 C   0  0  0  0  0  1  0  0  0  0  0  0
  -26.4960  -37.3980   23.8300 N   0  0  0  0  0  0  0  0  0  0  0  0
  -26.0960  -38.3140   24.0090 H   0  0  0  0  0  0  0  0  0  0  0  0
  1  2  1  0
  3  1  1  0
  4  2  1  0
  5  3  1  0
  5 53  1  0
  5  4  1  0
  8  6  1  0
  8 11  1  0
  9  7  1  0
 10  6  1  0
 10  4  1  0
 10  7  1  0
 11 12  1  1
 11  9  1  0
 13 11  1  0
 13 14  1  0
 15 23  1  0
 16 21  1  0
 17 18  1  0
 17 16  1  0
 19 18  1  0
 19 28  1  0
 19 20  1  0
 21 15  1  0
 21 20  1  0
 22 15  2  0
 23 14  1  0
 23 24  1  0
 25 26  2  0
 26 45  1  0
 27 26  1  0
 27 30  1  0
 28 25  1  0
 28 29  1  0
 29 27  2  0
 30 31  1  0
 31 32  2  0
 33 36  1  0
 33 32  1  0
 34 33  2  0
 35 34  1  0
 35 30  2  0
 36 37  1  0
 37 38  1  0
 38 39  2  0
 40 39  1  0
 40 44  1  0
 41 40  2  0
 42 37  2  0
 42 41  1  0
 43 42  1  0
 45 46  1  0
 46 49  1  0
 46 48  1  0
 47 45  2  0
 50 51  1  0
 50 25  1  0
 52 50  1  0
 54 56  1  0
 54 53  1  0
 55 66  2  0
 56 61  1  0
 57 65  1  0
 57 67  1  0
 58 64  1  0
 58 60  1  0
 59 65  1  0
 60 59  1  0
 61 60  2  0
 62 63  1  0
 62 56  2  0
 63 58  2  0
 64 57  1  0
 65 55  1  0
 67 69  2  0
 68 67  1  0
 70 68  1  0
 71 80  2  0
 71 76  1  0
 72 68  1  0
 72 76  1  0
 73 72  1  0
 74 75  1  0
 74 73  1  0
 75 71  1  0
 76 77  2  0
 77 78  1  0
 79 78  2  0
 80 79  1  0
 81 55  1  0
 81 86  1  0
 81 82  1  0
 82 85  1  1
 82 83  1  0
 84 82  1  0
 86 89  1  0
 87 91  1  0
 87 86  1  0
 88 87  2  0
 91 90  1  0
 93 91  1  0
 93 94  1  0
 93 92  1  0
M  ISO  4  15 100  23 100  53 101  54 101
M  END
>  <TORSDO>  (87) 
F 20

>  <SCORE>  (87) 
-13.434

>  <name>  (87) 
86

>  <ligand_id>  (87) 
86

>  <original_smiles>  (87) 
[H]c1c([H])c([H])c2c(c1[H])C([H])([H])C([H])([H])C([H])([H])C2([H])N([H])C(=O)C1([H])N(C(=O)C([H])(N([H])C(=O)C([H])(N([H])C([H])([H])[H])C([H])([H])[H])C(C([H])([H])[H])(C([H])([H])[H])C([H])([H])[H])C([H])([H])c2c([H])c(OC([H])([H])C3([H])C([H])([H])C([H])([H])C([H])([H])C3([H])C3([H])C([H])([H])C([H])([H])[N+]([H])(C([H])([H])C([H])([H])N([H])C(=O)N4C([H])([H])C([H])([H])C([H])([H])C([H])(n5nc(-c6c([H])c([H])c(Oc7c([H])c([H])c(F)c([H])c7F)c([H])c6[H])c(C(=O)N([H])[H])c5N([H])[H])C4([H])[H])C([H])([H])C3([H])[H])c([H])c([H])c2C1([H])[H]

>  <smiles>  (87) 
[H]c1c([H])c([H])c2c(c1[H])C([H])([H])C([H])([H])C([H])([H])C2([H])N([H])C(=O)C1([H])N(C(=O)C([H])(N([H])C(=O)C([H])(N([H])C([H])([H])[H])C([H])([H])[H])C(C([H])([H])[H])(C([H])([H])[H])C([H])([H])[H])C([H])([H])c2c([H])c(OC([H])([H])C3([H])C([H])([H])C([H])([H])C([H])([H])C3([H])C3([H])C([H])([H])C([H])([H])[N+]([H])(C([H])([H])C([H])([H])N([H])C(=O)N4C([H])([H])C([H])([H])C([H])([H])C([H])(n5nc(-c6c([H])c([H])c(Oc7c([H])c([H])c(F)c([H])c7F)c([H])c6[H])c(C(=O)N([H])[H])c5N([H])[H])C4([H])[H])C([H])([H])C3([H])[H])c([H])c([H])c2C1([H])[H]

$$$$
87:0:0
     RDKit          3D

 97106  0  0  1  0  0  0  0  0999 V2000
  -32.9970  -22.1150   18.9770 C   0  0  0  0  0  2  0  0  0  0  0  0
  -32.4510  -20.7020   18.7820 C   0  0  0  0  0  2  0  0  0  0  0  0
  -30.4000  -19.3640   18.0870 C   0  0  0  0  0  2  0  0  0  0  0  0
  -29.2600  -20.9970   19.5120 C   0  0  0  0  0  2  0  0  0  0  0  0
  -31.9540  -22.9870   19.6910 C   0  0  0  0  0  2  0  0  0  0  0  0
  -31.1380  -20.7180   17.9730 C   0  0  0  0  0  3  0  0  0  0  0  0
  -30.1180  -21.7650   18.4860 C   0  0  0  0  0  3  0  0  0  0  0  0
  -29.0370  -19.6900   18.7340 C   0  0  0  0  0  3  0  0  0  0  0  0
  -30.7130  -23.0780   18.8820 N   0  0  1  0  0  4  0  0  0  0  0  0
  -31.0240  -23.4570   17.9980 H   0  0  0  0  0  0  0  0  0  0  0  0
  -28.2990  -18.5860   19.4080 N   0  0  0  0  0  4  0  0  0  0  0  0
  -28.0330  -17.9220   18.6980 H   0  0  0  0  0  0  0  0  0  0  0  0
  -27.4300  -18.9770   19.7390 H   0  0  0  0  0  0  0  0  0  0  0  0
  -28.8750  -17.8250   20.5480 C   0  0  0  0  0  2  0  0  0  0  0  0
  -29.9580  -16.8030   20.1380 C   0  0  0  0  0  2  0  0  0  0  0  0
  -30.6390  -14.4860   20.4840 C   0  0  0  0  0  0  0  0  0  0  0  0
  -30.3470  -12.3400   19.3390 C   0  0  0  0  0  2  0  0  0  0  0  0
  -29.4120  -12.5770   18.1340 C   0  0  0  0  0  2  0  0  0  0  0  0
  -27.9330  -12.4440   18.5480 C   0  0  0  0  0  2  0  0  0  0  0  0
  -27.5940  -13.2690   19.8180 C   0  0  0  0  0  3  0  0  0  0  0  0
  -28.6410  -13.0150   20.9320 C   0  0  0  0  0  2  0  0  0  0  0  0
  -29.9750  -13.3060   20.3830 N   0  0  0  0  0  0  0  0  0  0  0  0
  -31.7640  -14.6790   20.0190 O   0  0  0  0  0  0  0  0  0  0  0  0
  -29.8710  -15.5230   20.8510 N   0  0  0  0  0  0  0  0  0  0  0  0
  -28.9960  -15.2960   21.2990 H   0  0  0  0  0  0  0  0  0  0  0  0
  -25.1840  -13.8860   20.4820 C   0  0  0  0  0  0  0  0  0  0  0  0
  -24.1100  -13.1190   20.8480 C   0  0  0  0  0  0  0  0  0  0  0  0
  -24.5700  -11.7680   20.8380 C   0  0  0  0  0  0  0  0  0  0  0  0
  -26.2330  -13.0030   20.2800 N   0  0  0  0  0  0  0  0  0  0  0  0
  -25.8650  -11.7240   20.5460 N   0  0  0  0  0  0  0  0  0  0  0  0
  -23.8420  -10.5070   21.0310 C   0  0  0  0  0  0  0  0  0  0  0  0
  -24.2700   -9.5470   21.9740 C   0  0  0  0  0  3  0  0  0  0  0  0
  -23.5500   -8.3470   22.1520 C   0  0  0  0  0  3  0  0  0  0  0  0
  -22.3850   -8.0990   21.3890 C   0  0  0  0  0  0  0  0  0  0  0  0
  -21.9760   -9.0470   20.4340 C   0  0  0  0  0  3  0  0  0  0  0  0
  -22.6970  -10.2380   20.2550 C   0  0  0  0  0  3  0  0  0  0  0  0
  -21.6300   -6.9540   21.4790 O   0  0  0  0  0  0  0  0  0  0  0  0
  -21.5790   -6.2170   22.6340 C   0  0  0  0  0  0  0  0  0  0  0  0
  -21.1490   -6.7760   23.8570 C   0  0  0  0  0  3  0  0  0  0  0  0
  -21.0470   -5.9640   25.0050 C   0  0  0  0  0  3  0  0  0  0  0  0
  -21.3610   -4.5940   24.9290 C   0  0  0  0  0  0  0  0  0  0  0  0
  -21.7840   -4.0340   23.7110 C   0  0  0  0  0  3  0  0  0  0  0  0
  -21.8920   -4.8440   22.5680 C   0  0  0  0  0  0  0  0  0  0  0  0
  -22.2790   -4.2950   21.3910 F   0  0  0  0  0  0  0  0  0  0  0  0
  -21.2570   -3.8140   26.0290 F   0  0  0  0  0  0  0  0  0  0  0  0
  -22.7100  -13.6000   21.1000 C   0  0  0  0  0  0  0  0  0  0  0  0
  -21.9680  -12.9130   21.9600 N   0  0  0  0  0  0  0  0  0  0  0  0
  -22.2810  -14.6230   20.5640 O   0  0  0  0  0  0  0  0  0  0  0  0
  -22.3240  -12.0850   22.4180 H   0  0  0  0  0  0  0  0  0  0  0  0
  -21.0280  -13.2200   22.1690 H   0  0  0  0  0  0  0  0  0  0  0  0
  -25.3570  -15.2500   20.2760 N   0  0  0  0  0  0  0  0  0  0  0  0
  -24.5720  -15.8940   20.2840 H   0  0  0  0  0  0  0  0  0  0  0  0
  -26.1720  -15.6190   19.8050 H   0  0  0  0  0  0  0  0  0  0  0  0
  -29.7350  -24.0870   19.3680 C   0  0  0  0  0  2  0  0  0  0  0  0
  -30.1230  -25.5080   18.9080 C   0  0  0  0  0  2  0  0  0  0  0  0
  -28.9340  -26.4760   18.8260 C   0  0  0  0  0  2  0  0  0  0  0  0
  -28.4680  -26.8180   20.1280 O   0  0  0  0  0  0  0  0  0  0  0  0
  -24.6100  -31.9140   23.2470 C   0  0  0  0  0  0  0  0  0  0  0  0
  -27.2830  -27.5120   20.1500 C   0  0  0  0  0  0  0  0  0  0  0  0
  -23.4100  -30.5060   21.6020 C   0  0  0  0  0  3  0  0  0  0  0  0
  -24.8720  -28.9750   20.1810 C   0  0  0  0  0  0  0  0  0  0  0  0
  -25.9310  -30.8820   21.4050 C   0  0  0  0  0  2  0  0  0  0  0  0
  -26.0230  -29.5120   20.7720 C   0  0  0  0  0  0  0  0  0  0  0  0
  -27.2290  -28.7790   20.7670 C   0  0  0  0  0  3  0  0  0  0  0  0
  -26.1110  -26.9740   19.5740 C   0  0  0  0  0  3  0  0  0  0  0  0
  -24.9070  -27.7030   19.5860 C   0  0  0  0  0  3  0  0  0  0  0  0
  -23.6230  -29.8270   20.2240 C   0  0  0  0  0  2  0  0  0  0  0  0
  -24.6690  -31.1140   22.1440 N   0  0  0  0  0  0  0  0  0  0  0  0
  -23.5290  -32.1810   23.7870 O   0  0  0  0  0  0  0  0  0  0  0  0
  -22.7650  -29.4820   22.5620 C   0  0  0  0  0  0  0  0  0  0  0  0
  -21.4420  -29.2910   22.4330 N   0  0  0  0  0  0  0  0  0  0  0  0
  -23.4500  -28.8600   23.3780 O   0  0  0  0  0  0  0  0  0  0  0  0
  -20.9490  -29.8450   21.7470 H   0  0  0  0  0  0  0  0  0  0  0  0
  -18.0740  -28.0800   22.9150 C   0  0  0  0  0  0  0  0  0  0  0  0
  -20.6280  -28.3510   23.2000 C   0  0  0  0  0  3  0  0  0  0  0  0
  -20.7410  -26.9200   22.6260 C   0  0  0  0  0  2  0  0  0  0  0  0
  -19.6460  -26.5910   21.6060 C   0  0  0  0  0  2  0  0  0  0  0  0
  -18.2610  -26.7300   22.2440 C   0  0  0  0  0  2  0  0  0  0  0  0
  -19.1870  -28.8490   23.3500 C   0  0  0  0  0  0  0  0  0  0  0  0
  -18.9590  -30.1130   23.9350 C   0  0  0  0  0  3  0  0  0  0  0  0
  -17.6510  -30.6100   24.0910 C   0  0  0  0  0  3  0  0  0  0  0  0
  -16.5530  -29.8380   23.6740 C   0  0  0  0  0  3  0  0  0  0  0  0
  -16.7660  -28.5760   23.0920 C   0  0  0  0  0  3  0  0  0  0  0  0
  -25.8950  -32.5480   23.8650 C   0  0  0  0  0  3  0  0  0  0  0  0
  -25.5880  -33.9490   24.1810 N   0  0  0  0  0  0  0  0  0  0  0  0
  -25.9290  -34.9940   23.4140 C   0  0  0  0  0  0  0  0  0  0  0  0
  -26.6060  -34.8790   22.3890 O   0  0  0  0  0  0  0  0  0  0  0  0
  -24.9870  -34.1120   24.9750 H   0  0  0  0  0  0  0  0  0  0  0  0
  -24.2080  -36.7860   23.0240 C   0  0  0  0  0  1  0  0  0  0  0  0
  -25.4390  -36.3860   23.8530 C   0  0  0  0  0  3  0  0  0  0  0  0
  -27.5670  -37.2710   24.7000 C   0  0  0  0  0  1  0  0  0  0  0  0
  -26.4750  -37.4360   23.7430 N   0  0  0  0  0  0  0  0  0  0  0  0
  -26.0700  -38.3580   23.8830 H   0  0  0  0  0  0  0  0  0  0  0  0
  -26.4110  -31.7850   25.1470 C   0  0  1  0  0  0  0  0  0  0  0  0
  -25.3170  -31.5550   26.2160 C   0  0  0  0  0  1  0  0  0  0  0  0
  -26.9930  -30.4060   24.7620 C   0  0  0  0  0  1  0  0  0  0  0  0
  -27.5620  -32.5830   25.8040 C   0  0  0  0  0  1  0  0  0  0  0  0
  1  5  1  0
  2  1  1  0
  3  8  1  0
  6  3  1  0
  6  7  1  0
  6  2  1  0
  7  9  1  0
  7  4  1  0
  8 11  1  0
  8  4  1  0
  9 54  1  0
  9  5  1  0
  9 10  1  6
 11 13  1  0
 11 14  1  0
 12 11  1  0
 15 14  1  0
 15 24  1  0
 16 24  1  0
 17 22  1  0
 18 19  1  0
 18 17  1  0
 20 19  1  0
 20 29  1  0
 20 21  1  0
 22 16  1  0
 22 21  1  0
 23 16  2  0
 24 25  1  0
 26 27  2  0
 27 46  1  0
 28 27  1  0
 28 31  1  0
 29 26  1  0
 29 30  1  0
 30 28  2  0
 31 32  1  0
 32 33  2  0
 34 37  1  0
 34 33  1  0
 35 34  2  0
 36 35  1  0
 36 31  2  0
 37 38  1  0
 38 39  1  0
 39 40  2  0
 41 40  1  0
 41 45  1  0
 42 41  2  0
 43 38  2  0
 43 42  1  0
 44 43  1  0
 46 47  1  0
 47 50  1  0
 47 49  1  0
 48 46  2  0
 51 52  1  0
 51 26  1  0
 53 51  1  0
 55 54  1  0
 56 55  1  0
 56 57  1  0
 57 59  1  0
 58 69  2  0
 59 64  1  0
 60 68  1  0
 60 70  1  0
 61 67  1  0
 61 63  1  0
 62 68  1  0
 63 62  1  0
 64 63  2  0
 65 66  1  0
 65 59  2  0
 66 61  2  0
 67 60  1  0
 68 58  1  0
 70 72  2  0
 71 70  1  0
 73 71  1  0
 74 83  2  0
 74 79  1  0
 75 71  1  0
 75 79  1  0
 76 75  1  0
 77 78  1  0
 77 76  1  0
 78 74  1  0
 79 80  2  0
 80 81  1  0
 82 81  2  0
 83 82  1  0
 84 58  1  0
 84 85  1  0
 84 94  1  0
 85 88  1  0
 86 90  1  0
 86 85  1  0
 87 86  2  0
 90 89  1  0
 92 90  1  0
 92 93  1  0
 92 91  1  0
 94 97  1  1
 94 95  1  0
 96 94  1  0
M  ISO  4  16 100  24 100  56 101  57 101
M  END
>  <TORSDO>  (88) 
F 22

>  <SCORE>  (88) 
-13.135

>  <name>  (88) 
87

>  <ligand_id>  (88) 
87

>  <original_smiles>  (88) 
[H]c1c([H])c([H])c2c(c1[H])C([H])([H])C([H])([H])C([H])([H])C2([H])N([H])C(=O)C1([H])N(C(=O)C([H])(N([H])C(=O)C([H])(N([H])C([H])([H])[H])C([H])([H])[H])C(C([H])([H])[H])(C([H])([H])[H])C([H])([H])[H])C([H])([H])c2c([H])c(OC([H])([H])C([H])([H])C([H])([H])[N+]3([H])C([H])([H])C([H])([H])C([H])([H])C4([H])C([H])([H])C([H])([N+]([H])([H])C([H])([H])C([H])([H])N([H])C(=O)N5C([H])([H])C([H])([H])C([H])([H])C([H])(n6nc(-c7c([H])c([H])c(Oc8c([H])c([H])c(F)c([H])c8F)c([H])c7[H])c(C(=O)N([H])[H])c6N([H])[H])C5([H])[H])C([H])([H])C43[H])c([H])c([H])c2C1([H])[H]

>  <smiles>  (88) 
[H]c1c([H])c([H])c2c(c1[H])C([H])([H])C([H])([H])C([H])([H])C2([H])N([H])C(=O)C1([H])N(C(=O)C([H])(N([H])C(=O)C([H])(N([H])C([H])([H])[H])C([H])([H])[H])C(C([H])([H])[H])(C([H])([H])[H])C([H])([H])[H])C([H])([H])c2c([H])c(OC([H])([H])C([H])([H])C([H])([H])[N+]3([H])C([H])([H])C([H])([H])C([H])([H])C4([H])C([H])([H])C([H])([N+]([H])([H])C([H])([H])C([H])([H])N([H])C(=O)N5C([H])([H])C([H])([H])C([H])([H])C([H])(n6nc(-c7c([H])c([H])c(Oc8c([H])c([H])c(F)c([H])c8F)c([H])c7[H])c(C(=O)N([H])[H])c6N([H])[H])C5([H])[H])C([H])([H])C43[H])c([H])c([H])c2C1([H])[H]

$$$$
88:0:0
     RDKit          3D

 99107  0  0  1  0  0  0  0  0999 V2000
  -31.0720  -21.6130   20.4590 C   0  0  0  0  0  2  0  0  0  0  0  0
  -30.2330  -22.8330   20.0250 C   0  0  0  0  0  2  0  0  0  0  0  0
  -28.1300  -21.6600   20.1810 C   0  0  0  0  0  2  0  0  0  0  0  0
  -28.4890  -20.3570   20.9880 C   0  0  0  0  0  2  0  0  0  0  0  0
  -30.6650  -20.2650   19.7870 C   0  0  0  0  0  3  0  0  0  0  0  0
  -28.8640  -22.8960   20.5510 N   0  0  0  0  0  0  0  0  0  0  0  0
  -29.6940  -19.5390   20.6420 N   0  0  0  0  0  0  0  0  0  0  0  0
  -31.9420  -19.4710   19.3890 C   0  0  0  0  0  2  0  0  0  0  0  0
  -32.6590  -20.0860   18.2470 N   0  0  0  0  0  4  0  0  0  0  0  0
  -32.9080  -21.0330   18.4800 H   0  0  0  0  0  0  0  0  0  0  0  0
  -32.0410  -20.1130   17.4530 H   0  0  0  0  0  0  0  0  0  0  0  0
  -33.8880  -19.3680   17.8540 C   0  0  0  0  0  2  0  0  0  0  0  0
  -34.5420  -20.0010   16.6100 C   0  0  0  0  0  2  0  0  0  0  0  0
  -35.7670  -19.3020   16.2560 N   0  0  0  0  0  0  0  0  0  0  0  0
  -36.4570  -19.4330   16.9930 H   0  0  0  0  0  0  0  0  0  0  0  0
  -36.1870  -19.7530   15.4470 H   0  0  0  0  0  0  0  0  0  0  0  0
  -29.3990  -18.1010   20.3260 C   0  0  0  0  0  3  0  0  0  0  0  0
  -30.3220  -17.0290   21.0170 C   0  0  0  0  0  3  0  0  0  0  0  0
  -30.6370  -14.5880   20.3360 C   0  0  0  0  0  0  0  0  0  0  0  0
  -30.3590  -12.4180   19.1790 C   0  0  0  0  0  2  0  0  0  0  0  0
  -29.4010  -12.6130   17.9850 C   0  0  0  0  0  2  0  0  0  0  0  0
  -27.9330  -12.4630   18.4300 C   0  0  0  0  0  2  0  0  0  0  0  0
  -27.6040  -13.2940   19.6990 C   0  0  0  0  0  3  0  0  0  0  0  0
  -28.6700  -13.0740   20.7950 C   0  0  0  0  0  2  0  0  0  0  0  0
  -29.9830  -13.3980   20.2130 N   0  0  0  0  0  0  0  0  0  0  0  0
  -31.7750  -14.7640   19.8960 O   0  0  0  0  0  0  0  0  0  0  0  0
  -29.9030  -15.6180   20.8240 N   0  0  0  0  0  0  0  0  0  0  0  0
  -28.9720  -15.3810   21.1320 H   0  0  0  0  0  0  0  0  0  0  0  0
  -25.2110  -13.8990   20.4210 C   0  0  0  0  0  0  0  0  0  0  0  0
  -24.1480  -13.1260   20.8030 C   0  0  0  0  0  0  0  0  0  0  0  0
  -24.6130  -11.7760   20.7770 C   0  0  0  0  0  0  0  0  0  0  0  0
  -26.2560  -13.0180   20.1900 N   0  0  0  0  0  0  0  0  0  0  0  0
  -25.9010  -11.7380   20.4620 N   0  0  0  0  0  0  0  0  0  0  0  0
  -23.8910  -10.5130   20.9780 C   0  0  0  0  0  0  0  0  0  0  0  0
  -24.3280   -9.5540   21.9180 C   0  0  0  0  0  3  0  0  0  0  0  0
  -23.6070   -8.3550   22.1060 C   0  0  0  0  0  3  0  0  0  0  0  0
  -22.4340   -8.1080   21.3540 C   0  0  0  0  0  0  0  0  0  0  0  0
  -22.0160   -9.0550   20.4030 C   0  0  0  0  0  3  0  0  0  0  0  0
  -22.7390  -10.2450   20.2140 C   0  0  0  0  0  3  0  0  0  0  0  0
  -21.6840   -6.9610   21.4510 O   0  0  0  0  0  0  0  0  0  0  0  0
  -21.6380   -6.2270   22.6090 C   0  0  0  0  0  0  0  0  0  0  0  0
  -21.2040   -6.7880   23.8300 C   0  0  0  0  0  3  0  0  0  0  0  0
  -21.1070   -5.9790   24.9800 C   0  0  0  0  0  3  0  0  0  0  0  0
  -21.4320   -4.6120   24.9110 C   0  0  0  0  0  0  0  0  0  0  0  0
  -21.8580   -4.0510   23.6950 C   0  0  0  0  0  3  0  0  0  0  0  0
  -21.9570   -4.8560   22.5460 C   0  0  0  0  0  0  0  0  0  0  0  0
  -22.3480   -4.3050   21.3720 F   0  0  0  0  0  0  0  0  0  0  0  0
  -21.3300   -3.8330   26.0140 F   0  0  0  0  0  0  0  0  0  0  0  0
  -22.7510  -13.6030   21.0800 C   0  0  0  0  0  0  0  0  0  0  0  0
  -22.0290  -12.9060   21.9520 N   0  0  0  0  0  0  0  0  0  0  0  0
  -22.3090  -14.6250   20.5600 O   0  0  0  0  0  0  0  0  0  0  0  0
  -22.3990  -12.0780   22.3940 H   0  0  0  0  0  0  0  0  0  0  0  0
  -21.0920  -13.2080   22.1800 H   0  0  0  0  0  0  0  0  0  0  0  0
  -25.3730  -15.2680   20.2330 N   0  0  0  0  0  0  0  0  0  0  0  0
  -24.5990  -15.9190   20.3290 H   0  0  0  0  0  0  0  0  0  0  0  0
  -26.2090  -15.7020   19.8650 H   0  0  0  0  0  0  0  0  0  0  0  0
  -28.1870  -24.1460   20.0710 C   0  0  0  0  0  2  0  0  0  0  0  0
  -28.5340  -25.4770   20.8320 C   0  0  0  0  0  2  0  0  0  0  0  0
  -28.4490  -26.7220   20.0970 O   0  0  0  0  0  0  0  0  0  0  0  0
  -24.6000  -31.8960   23.2350 C   0  0  0  0  0  0  0  0  0  0  0  0
  -27.2750  -27.4490   20.1590 C   0  0  0  0  0  0  0  0  0  0  0  0
  -23.4080  -30.4950   21.5830 C   0  0  0  0  0  3  0  0  0  0  0  0
  -24.8750  -28.9620   20.1610 C   0  0  0  0  0  0  0  0  0  0  0  0
  -25.9340  -30.8620   21.3950 C   0  0  0  0  0  2  0  0  0  0  0  0
  -26.0310  -29.4890   20.7530 C   0  0  0  0  0  0  0  0  0  0  0  0
  -27.2360  -28.7420   20.7410 C   0  0  0  0  0  3  0  0  0  0  0  0
  -26.1020  -26.9410   19.5640 C   0  0  0  0  0  3  0  0  0  0  0  0
  -24.9080  -27.6900   19.5630 C   0  0  0  0  0  3  0  0  0  0  0  0
  -23.6270  -29.8180   20.2030 C   0  0  0  0  0  2  0  0  0  0  0  0
  -24.6650  -31.1000   22.1300 N   0  0  0  0  0  0  0  0  0  0  0  0
  -23.5160  -32.1610   23.7730 O   0  0  0  0  0  0  0  0  0  0  0  0
  -22.7570  -29.4680   22.5390 C   0  0  0  0  0  0  0  0  0  0  0  0
  -21.4320  -29.2830   22.4060 N   0  0  0  0  0  0  0  0  0  0  0  0
  -23.4390  -28.8420   23.3520 O   0  0  0  0  0  0  0  0  0  0  0  0
  -20.9430  -29.8400   21.7200 H   0  0  0  0  0  0  0  0  0  0  0  0
  -18.0600  -28.0750   22.8920 C   0  0  0  0  0  0  0  0  0  0  0  0
  -20.6180  -28.3360   23.1680 C   0  0  0  0  0  3  0  0  0  0  0  0
  -20.7240  -26.9110   22.5790 C   0  0  0  0  0  2  0  0  0  0  0  0
  -19.6230  -26.5950   21.5610 C   0  0  0  0  0  2  0  0  0  0  0  0
  -18.2400  -26.7320   22.2050 C   0  0  0  0  0  2  0  0  0  0  0  0
  -19.1770  -28.8360   23.3300 C   0  0  0  0  0  0  0  0  0  0  0  0
  -18.9560  -30.0940   23.9300 C   0  0  0  0  0  3  0  0  0  0  0  0
  -17.6510  -30.5920   24.0980 C   0  0  0  0  0  3  0  0  0  0  0  0
  -16.5480  -29.8280   23.6780 C   0  0  0  0  0  3  0  0  0  0  0  0
  -16.7530  -28.5720   23.0810 C   0  0  0  0  0  3  0  0  0  0  0  0
  -25.8800  -32.5320   23.8630 C   0  0  0  0  0  3  0  0  0  0  0  0
  -26.3910  -31.7630   25.1430 C   0  0  1  0  0  0  0  0  0  0  0  0
  -25.2920  -31.5250   26.2050 C   0  0  0  0  0  1  0  0  0  0  0  0
  -26.9780  -30.3860   24.7540 C   0  0  0  0  0  1  0  0  0  0  0  0
  -27.5370  -32.5590   25.8110 C   0  0  0  0  0  1  0  0  0  0  0  0
  -25.5680  -33.9300   24.1870 N   0  0  0  0  0  0  0  0  0  0  0  0
  -25.9040  -34.9800   23.4260 C   0  0  0  0  0  0  0  0  0  0  0  0
  -26.5790  -34.8740   22.3990 O   0  0  0  0  0  0  0  0  0  0  0  0
  -24.9690  -34.0860   24.9840 H   0  0  0  0  0  0  0  0  0  0  0  0
  -24.1750  -36.7680   23.0530 C   0  0  0  0  0  1  0  0  0  0  0  0
  -25.4110  -36.3690   23.8750 C   0  0  0  0  0  3  0  0  0  0  0  0
  -27.5360  -37.2590   24.7220 C   0  0  0  0  0  1  0  0  0  0  0  0
  -26.4420  -37.4230   23.7680 N   0  0  0  0  0  0  0  0  0  0  0  0
  -26.0340  -38.3430   23.9090 H   0  0  0  0  0  0  0  0  0  0  0  0
  2  1  1  0
  2  6  1  0
  3  6  1  0
  3  4  1  0
  5  8  1  0
  5  1  1  0
  5  7  1  0
  7  4  1  0
  9 10  1  0
  9  8  1  0
 11  9  1  0
 12  9  1  0
 13 12  1  0
 14 13  1  0
 14 15  1  0
 16 14  1  0
 17  7  1  0
 17 18  2  0
 19 27  1  0
 20 25  1  0
 21 22  1  0
 21 20  1  0
 23 22  1  0
 23 32  1  0
 23 24  1  0
 25 19  1  0
 25 24  1  0
 26 19  2  0
 27 18  1  0
 27 28  1  0
 29 30  2  0
 30 49  1  0
 31 30  1  0
 31 34  1  0
 32 29  1  0
 32 33  1  0
 33 31  2  0
 34 35  1  0
 35 36  2  0
 37 40  1  0
 37 36  1  0
 38 37  2  0
 39 38  1  0
 39 34  2  0
 40 41  1  0
 41 42  1  0
 42 43  2  0
 44 43  1  0
 44 48  1  0
 45 44  2  0
 46 41  2  0
 46 45  1  0
 47 46  1  0
 49 50  1  0
 50 53  1  0
 50 52  1  0
 51 49  2  0
 54 55  1  0
 54 29  1  0
 56 54  1  0
 57  6  1  0
 57 58  1  0
 59 61  1  0
 59 58  1  0
 60 71  2  0
 61 66  1  0
 62 70  1  0
 62 72  1  0
 63 69  1  0
 63 65  1  0
 64 70  1  0
 65 64  1  0
 66 65  2  0
 67 61  2  0
 68 67  1  0
 68 63  2  0
 69 62  1  0
 70 60  1  0
 72 74  2  0
 73 72  1  0
 75 73  1  0
 76 85  2  0
 76 81  1  0
 77 73  1  0
 77 81  1  0
 78 77  1  0
 79 80  1  0
 79 78  1  0
 80 76  1  0
 81 82  2  0
 82 83  1  0
 84 83  2  0
 85 84  1  0
 86 60  1  0
 86 91  1  0
 86 87  1  0
 87 90  1  1
 87 88  1  0
 89 87  1  0
 91 94  1  0
 92 96  1  0
 92 91  1  0
 93 92  2  0
 96 95  1  0
 98 96  1  0
 98 99  1  0
 98 97  1  0
M  ISO  4  19 100  27 100  58 101  59 101
M  END
>  <TORSDO>  (89) 
F 25

>  <SCORE>  (89) 
-12.416

>  <name>  (89) 
88

>  <ligand_id>  (89) 
88

>  <original_smiles>  (89) 
[H]c1c([H])c([H])c2c(c1[H])C([H])([H])C([H])([H])C([H])([H])C2([H])N([H])C(=O)C1([H])N(C(=O)C([H])(N([H])C(=O)C([H])(N([H])C([H])([H])[H])C([H])([H])[H])C(C([H])([H])[H])(C([H])([H])[H])C([H])([H])[H])C([H])([H])c2c([H])c(OC([H])([H])C([H])([H])N3C([H])([H])C([H])([H])N(C([H])([H])C([H])([H])N([H])C(=O)N4C([H])([H])C([H])([H])C([H])([H])C([H])(n5nc(-c6c([H])c([H])c(Oc7c([H])c([H])c(F)c([H])c7F)c([H])c6[H])c(C(=O)N([H])[H])c5N([H])[H])C4([H])[H])C([H])(C([H])([H])[N+]([H])([H])C([H])([H])C([H])([H])N([H])[H])C([H])([H])C3([H])[H])c([H])c([H])c2C1([H])[H]

>  <smiles>  (89) 
[H]c1c([H])c([H])c2c(c1[H])C([H])([H])C([H])([H])C([H])([H])C2([H])N([H])C(=O)C1([H])N(C(=O)C([H])(N([H])C(=O)C([H])(N([H])C([H])([H])[H])C([H])([H])[H])C(C([H])([H])[H])(C([H])([H])[H])C([H])([H])[H])C([H])([H])c2c([H])c(OC([H])([H])C([H])([H])N3C([H])([H])C([H])([H])N(C([H])([H])C([H])([H])N([H])C(=O)N4C([H])([H])C([H])([H])C([H])([H])C([H])(n5nc(-c6c([H])c([H])c(Oc7c([H])c([H])c(F)c([H])c7F)c([H])c6[H])c(C(=O)N([H])[H])c5N([H])[H])C4([H])[H])C([H])(C([H])([H])[N+]([H])([H])C([H])([H])C([H])([H])N([H])[H])C([H])([H])C3([H])[H])c([H])c([H])c2C1([H])[H]

$$$$
89:0:0
     RDKit          3D

 99107  0  0  1  0  0  0  0  0999 V2000
  -29.3020  -21.4980   25.7450 C   0  0  0  0  0  3  0  0  0  0  0  0
  -30.1580  -20.5910   25.0920 C   0  0  0  0  0  3  0  0  0  0  0  0
  -29.0760  -22.7790   25.1990 C   0  0  0  0  0  3  0  0  0  0  0  0
  -30.5820  -22.2510   23.3540 C   0  0  0  0  0  3  0  0  0  0  0  0
  -30.7880  -20.9570   23.8860 C   0  0  0  0  0  0  0  0  0  0  0  0
  -29.7080  -23.1590   23.9930 C   0  0  0  0  0  0  0  0  0  0  0  0
  -31.6310  -19.9420   23.1270 C   0  0  0  0  0  2  0  0  0  0  0  0
  -30.9220  -19.5810   21.8870 N   0  0  0  0  0  4  0  0  0  0  0  0
  -31.4140  -20.0090   21.1190 H   0  0  0  0  0  0  0  0  0  0  0  0
  -30.0080  -19.9990   21.9440 H   0  0  0  0  0  0  0  0  0  0  0  0
  -30.7620  -18.1370   21.6200 C   0  0  0  0  0  2  0  0  0  0  0  0
  -29.7110  -17.8960   20.5180 C   0  0  0  0  0  2  0  0  0  0  0  0
  -29.9920  -16.6690   19.6410 C   0  0  0  0  0  2  0  0  0  0  0  0
  -30.7350  -14.3580   19.9960 C   0  0  0  0  0  0  0  0  0  0  0  0
  -30.3570  -12.2240   18.8740 C   0  0  0  0  0  2  0  0  0  0  0  0
  -29.3470  -12.4830   17.7360 C   0  0  0  0  0  2  0  0  0  0  0  0
  -27.8990  -12.3650   18.2510 C   0  0  0  0  0  2  0  0  0  0  0  0
  -27.6540  -13.1800   19.5480 C   0  0  0  0  0  3  0  0  0  0  0  0
  -28.7670  -12.9100   20.5860 C   0  0  0  0  0  2  0  0  0  0  0  0
  -30.0660  -13.1820   19.9470 N   0  0  0  0  0  0  0  0  0  0  0  0
  -31.8480  -14.5410   19.4950 O   0  0  0  0  0  0  0  0  0  0  0  0
  -29.9660  -15.3950   20.3610 N   0  0  0  0  0  0  0  0  0  0  0  0
  -29.0960  -15.1450   20.8070 H   0  0  0  0  0  0  0  0  0  0  0  0
  -25.3280  -13.8220   20.4440 C   0  0  0  0  0  0  0  0  0  0  0  0
  -24.2630  -13.0620   20.8460 C   0  0  0  0  0  0  0  0  0  0  0  0
  -24.6760  -11.7010   20.7080 C   0  0  0  0  0  0  0  0  0  0  0  0
  -26.3260  -12.9250   20.0980 N   0  0  0  0  0  0  0  0  0  0  0  0
  -25.9390  -11.6430   20.3070 N   0  0  0  0  0  0  0  0  0  0  0  0
  -23.9250  -10.4510   20.8770 C   0  0  0  0  0  0  0  0  0  0  0  0
  -24.3990   -9.4110   21.7060 C   0  0  0  0  0  3  0  0  0  0  0  0
  -23.6470   -8.2260   21.8660 C   0  0  0  0  0  3  0  0  0  0  0  0
  -22.4110   -8.0730   21.1960 C   0  0  0  0  0  0  0  0  0  0  0  0
  -21.9560   -9.1030   20.3530 C   0  0  0  0  0  3  0  0  0  0  0  0
  -22.7060  -10.2790   20.1910 C   0  0  0  0  0  3  0  0  0  0  0  0
  -21.6270   -6.9470   21.2710 O   0  0  0  0  0  0  0  0  0  0  0  0
  -21.6490   -6.1300   22.3720 C   0  0  0  0  0  0  0  0  0  0  0  0
  -21.3650   -6.6130   23.6680 C   0  0  0  0  0  3  0  0  0  0  0  0
  -21.3320   -5.7230   24.7600 C   0  0  0  0  0  3  0  0  0  0  0  0
  -21.5710   -4.3500   24.5590 C   0  0  0  0  0  0  0  0  0  0  0  0
  -21.8510   -3.8660   23.2690 C   0  0  0  0  0  3  0  0  0  0  0  0
  -21.8860   -4.7530   22.1800 C   0  0  0  0  0  0  0  0  0  0  0  0
  -22.1340   -4.2790   20.9340 F   0  0  0  0  0  0  0  0  0  0  0  0
  -21.5320   -3.4940   25.6060 F   0  0  0  0  0  0  0  0  0  0  0  0
  -22.9040  -13.5610   21.2410 C   0  0  0  0  0  0  0  0  0  0  0  0
  -22.2240  -12.8470   22.1330 N   0  0  0  0  0  0  0  0  0  0  0  0
  -22.4600  -14.6210   20.8000 O   0  0  0  0  0  0  0  0  0  0  0  0
  -22.5990  -11.9860   22.5080 H   0  0  0  0  0  0  0  0  0  0  0  0
  -21.3140  -13.1600   22.4390 H   0  0  0  0  0  0  0  0  0  0  0  0
  -25.5260  -15.1950   20.3330 N   0  0  0  0  0  0  0  0  0  0  0  0
  -24.7860  -15.8610   20.5270 H   0  0  0  0  0  0  0  0  0  0  0  0
  -26.3570  -15.6290   19.9480 H   0  0  0  0  0  0  0  0  0  0  0  0
  -29.4310  -24.5250   23.3640 C   0  0  0  0  0  2  0  0  0  0  0  0
  -28.7480  -24.4120   22.0400 N   0  0  1  0  0  4  0  0  0  0  0  0
  -29.4120  -23.9770   21.4170 H   0  0  0  0  0  0  0  0  0  0  0  0
  -27.7970  -22.1220   21.4590 C   0  0  0  0  0  1  0  0  0  0  0  0
  -27.5490  -23.5210   22.0540 C   0  0  0  0  0  2  0  0  0  0  0  0
  -28.4010  -25.7180   21.4020 C   0  0  0  0  0  2  0  0  0  0  0  0
  -29.5560  -26.6940   21.0490 C   0  0  0  0  0  2  0  0  0  0  0  0
  -29.2620  -27.4540   19.8650 O   0  0  0  0  0  0  0  0  0  0  0  0
  -24.6280  -31.7530   23.0980 C   0  0  0  0  0  0  0  0  0  0  0  0
  -28.0170  -28.0370   19.8480 C   0  0  0  0  0  0  0  0  0  0  0  0
  -23.6970  -30.2940   21.3320 C   0  0  0  0  0  3  0  0  0  0  0  0
  -25.4120  -29.1100   19.8610 C   0  0  0  0  0  0  0  0  0  0  0  0
  -26.1330  -31.0710   21.2360 C   0  0  0  0  0  2  0  0  0  0  0  0
  -26.4510  -29.7760   20.5240 C   0  0  0  0  0  0  0  0  0  0  0  0
  -27.7550  -29.2440   20.5280 C   0  0  0  0  0  3  0  0  0  0  0  0
  -26.9730  -27.3860   19.1560 C   0  0  0  0  0  3  0  0  0  0  0  0
  -25.6670  -27.9120   19.1720 C   0  0  0  0  0  3  0  0  0  0  0  0
  -24.0410  -29.7460   19.9200 C   0  0  0  0  0  2  0  0  0  0  0  0
  -24.8350  -31.0540   21.9480 N   0  0  0  0  0  0  0  0  0  0  0  0
  -23.5070  -31.8080   23.6200 O   0  0  0  0  0  0  0  0  0  0  0  0
  -23.2000  -29.1220   22.2060 C   0  0  0  0  0  0  0  0  0  0  0  0
  -21.9160  -28.7600   22.0460 N   0  0  0  0  0  0  0  0  0  0  0  0
  -23.9660  -28.5380   22.9820 O   0  0  0  0  0  0  0  0  0  0  0  0
  -21.3560  -29.2840   21.3870 H   0  0  0  0  0  0  0  0  0  0  0  0
  -18.7350  -27.0890   22.4260 C   0  0  0  0  0  0  0  0  0  0  0  0
  -21.2380  -27.6620   22.7330 C   0  0  0  0  0  3  0  0  0  0  0  0
  -21.5310  -26.3090   22.0430 C   0  0  0  0  0  2  0  0  0  0  0  0
  -20.4750  -25.9240   21.0030 C   0  0  0  0  0  2  0  0  0  0  0  0
  -19.0870  -25.8340   21.6440 C   0  0  0  0  0  2  0  0  0  0  0  0
  -19.7460  -27.9540   22.9230 C   0  0  0  0  0  0  0  0  0  0  0  0
  -19.3630  -29.1250   23.6100 C   0  0  0  0  0  3  0  0  0  0  0  0
  -18.0040  -29.4370   23.8080 C   0  0  0  0  0  3  0  0  0  0  0  0
  -17.0100  -28.5650   23.3290 C   0  0  0  0  0  3  0  0  0  0  0  0
  -17.3760  -27.3940   22.6430 C   0  0  0  0  0  3  0  0  0  0  0  0
  -25.7830  -32.5370   23.7980 C   0  0  0  0  0  3  0  0  0  0  0  0
  -26.2700  -31.8620   25.1380 C   0  0  1  0  0  0  0  0  0  0  0  0
  -25.1200  -31.5340   26.1200 C   0  0  0  0  0  1  0  0  0  0  0  0
  -27.0270  -30.5480   24.8420 C   0  0  0  0  0  1  0  0  0  0  0  0
  -27.2710  -32.7940   25.8600 C   0  0  0  0  0  1  0  0  0  0  0  0
  -25.3040  -33.9020   24.0410 N   0  0  0  0  0  0  0  0  0  0  0  0
  -25.5930  -34.9600   23.2700 C   0  0  0  0  0  0  0  0  0  0  0  0
  -26.3630  -34.8970   22.3080 O   0  0  0  0  0  0  0  0  0  0  0  0
  -24.6330  -34.0220   24.7860 H   0  0  0  0  0  0  0  0  0  0  0  0
  -23.7210  -36.5380   22.7030 C   0  0  0  0  0  1  0  0  0  0  0  0
  -24.9270  -36.3040   23.6280 C   0  0  0  0  0  3  0  0  0  0  0  0
  -26.8920  -37.4300   24.5750 C   0  0  0  0  0  1  0  0  0  0  0  0
  -25.8480  -37.4590   23.5510 N   0  0  0  0  0  0  0  0  0  0  0  0
  -25.3380  -38.3330   23.6430 H   0  0  0  0  0  0  0  0  0  0  0  0
  2  1  2  0
  3  1  1  0
  4  5  2  0
  4  6  1  0
  5  2  1  0
  6  3  2  0
  7  5  1  0
  8 10  1  0
  8  7  1  0
  9  8  1  0
 11  8  1  0
 12 11  1  0
 13 22  1  0
 13 12  1  0
 14 22  1  0
 15 20  1  0
 16 17  1  0
 16 15  1  0
 18 17  1  0
 18 27  1  0
 18 19  1  0
 20 14  1  0
 20 19  1  0
 21 14  2  0
 22 23  1  0
 24 25  2  0
 25 44  1  0
 26 25  1  0
 26 29  1  0
 27 28  1  0
 27 24  1  0
 28 26  2  0
 29 30  1  0
 30 31  2  0
 32 35  1  0
 32 31  1  0
 33 32  2  0
 34 33  1  0
 34 29  2  0
 35 36  1  0
 36 37  1  0
 37 38  2  0
 39 38  1  0
 39 43  1  0
 40 39  2  0
 41 36  2  0
 41 40  1  0
 42 41  1  0
 44 45  1  0
 45 48  1  0
 45 47  1  0
 46 44  2  0
 49 24  1  0
 49 50  1  0
 51 49  1  0
 52  6  1  0
 53 56  1  0
 53 52  1  0
 53 54  1  6
 55 56  1  0
 57 53  1  0
 58 57  1  0
 59 58  1  0
 60 71  2  0
 61 59  1  0
 61 66  1  0
 62 70  1  0
 62 72  1  0
 63 69  1  0
 63 65  1  0
 64 70  1  0
 65 66  2  0
 65 64  1  0
 67 68  1  0
 67 61  2  0
 68 63  2  0
 69 62  1  0
 70 60  1  0
 72 74  2  0
 73 72  1  0
 75 73  1  0
 76 85  2  0
 76 81  1  0
 77 73  1  0
 77 81  1  0
 78 77  1  0
 79 80  1  0
 79 78  1  0
 80 76  1  0
 81 82  2  0
 82 83  1  0
 84 83  2  0
 85 84  1  0
 86 60  1  0
 86 91  1  0
 86 87  1  0
 87 90  1  1
 87 88  1  0
 89 87  1  0
 91 94  1  0
 92 96  1  0
 92 91  1  0
 93 92  2  0
 96 95  1  0
 98 96  1  0
 98 99  1  0
 98 97  1  0
M  ISO  4  14 100  22 100  58 101  59 101
M  END
>  <TORSDO>  (90) 
F 26

>  <SCORE>  (90) 
-6.550

>  <name>  (90) 
89

>  <ligand_id>  (90) 
89

>  <original_smiles>  (90) 
[H]c1c([H])c([H])c2c(c1[H])C([H])([H])C([H])([H])C([H])([H])C2([H])N([H])C(=O)C1([H])N(C(=O)C([H])(N([H])C(=O)C([H])(N([H])C([H])([H])[H])C([H])([H])[H])C(C([H])([H])[H])(C([H])([H])[H])C([H])([H])[H])C([H])([H])c2c([H])c(OC([H])([H])C([H])([H])[N+]([H])(C([H])([H])c3c([H])c([H])c([H])c(C([H])([H])[N+]([H])([H])C([H])([H])C([H])([H])C([H])([H])N([H])C(=O)N4C([H])([H])C([H])([H])C([H])([H])C([H])(n5nc(-c6c([H])c([H])c(Oc7c([H])c([H])c(F)c([H])c7F)c([H])c6[H])c(C(=O)N([H])[H])c5N([H])[H])C4([H])[H])c3[H])C([H])([H])C([H])([H])[H])c([H])c([H])c2C1([H])[H]

>  <smiles>  (90) 
[H]c1c([H])c([H])c2c(c1[H])C([H])([H])C([H])([H])C([H])([H])C2([H])N([H])C(=O)C1([H])N(C(=O)C([H])(N([H])C(=O)C([H])(N([H])C([H])([H])[H])C([H])([H])[H])C(C([H])([H])[H])(C([H])([H])[H])C([H])([H])[H])C([H])([H])c2c([H])c(OC([H])([H])C([H])([H])[N+]([H])(C([H])([H])c3c([H])c([H])c([H])c(C([H])([H])[N+]([H])([H])C([H])([H])C([H])([H])C([H])([H])N([H])C(=O)N4C([H])([H])C([H])([H])C([H])([H])C([H])(n5nc(-c6c([H])c([H])c(Oc7c([H])c([H])c(F)c([H])c7F)c([H])c6[H])c(C(=O)N([H])[H])c5N([H])[H])C4([H])[H])c3[H])C([H])([H])C([H])([H])[H])c([H])c([H])c2C1([H])[H]

$$$$
90:0:0
     RDKit          3D

 94102  0  0  1  0  0  0  0  0999 V2000
  -30.2230  -21.2040   23.2340 C   0  0  0  0  0  2  0  0  0  0  0  0
  -30.2900  -22.4450   22.3260 C   0  0  0  0  0  2  0  0  0  0  0  0
  -30.7270  -21.4170   20.2200 C   0  0  0  0  0  2  0  0  0  0  0  0
  -30.5700  -19.8660   20.3120 C   0  0  0  0  0  2  0  0  0  0  0  0
  -31.0570  -19.9630   22.8310 C   0  0  0  0  0  3  0  0  0  0  0  0
  -29.7460  -22.2180   20.9780 N   0  0  0  0  0  0  0  0  0  0  0  0
  -30.4570  -19.2400   21.6680 N   0  0  2  0  0  4  0  0  0  0  0  0
  -29.4700  -19.3300   21.8620 H   0  0  0  0  0  0  0  0  0  0  0  0
  -32.5670  -20.2270   22.6400 C   0  0  0  0  0  3  0  0  0  0  0  0
  -33.1810  -21.1790   23.1320 O   0  0  0  0  0  0  0  0  0  0  0  0
  -29.5900  -23.5460   20.3400 C   0  0  0  0  0  2  0  0  0  0  0  0
  -28.3500  -24.3370   20.8500 C   0  0  0  0  0  2  0  0  0  0  0  0
  -28.6090  -25.8150   21.2430 C   0  0  0  0  0  2  0  0  0  0  0  0
  -28.4890  -26.7480   20.1590 O   0  0  0  0  0  0  0  0  0  0  0  0
  -24.6250  -31.9000   23.2330 C   0  0  0  0  0  0  0  0  0  0  0  0
  -27.3260  -27.4840   20.1710 C   0  0  0  0  0  0  0  0  0  0  0  0
  -23.4400  -30.4910   21.5780 C   0  0  0  0  0  3  0  0  0  0  0  0
  -24.9190  -28.9610   20.1660 C   0  0  0  0  0  0  0  0  0  0  0  0
  -25.9630  -30.8680   21.4010 C   0  0  0  0  0  2  0  0  0  0  0  0
  -26.0660  -29.4970   20.7650 C   0  0  0  0  0  0  0  0  0  0  0  0
  -27.2750  -28.7650   20.7670 C   0  0  0  0  0  3  0  0  0  0  0  0
  -26.1670  -26.9580   19.5690 C   0  0  0  0  0  3  0  0  0  0  0  0
  -24.9630  -27.6900   19.5660 C   0  0  0  0  0  3  0  0  0  0  0  0
  -23.6660  -29.8100   20.2010 C   0  0  0  0  0  2  0  0  0  0  0  0
  -24.6940  -31.1010   22.1290 N   0  0  0  0  0  0  0  0  0  0  0  0
  -23.5380  -32.1640   23.7650 O   0  0  0  0  0  0  0  0  0  0  0  0
  -22.7880  -29.4660   22.5340 C   0  0  0  0  0  0  0  0  0  0  0  0
  -21.4640  -29.2840   22.4020 N   0  0  0  0  0  0  0  0  0  0  0  0
  -23.4700  -28.8380   23.3480 O   0  0  0  0  0  0  0  0  0  0  0  0
  -20.9750  -29.8440   21.7180 H   0  0  0  0  0  0  0  0  0  0  0  0
  -18.0860  -28.1020   22.8980 C   0  0  0  0  0  0  0  0  0  0  0  0
  -20.6450  -28.3420   23.1650 C   0  0  0  0  0  3  0  0  0  0  0  0
  -20.7380  -26.9170   22.5730 C   0  0  0  0  0  2  0  0  0  0  0  0
  -19.6310  -26.6120   21.5590 C   0  0  0  0  0  2  0  0  0  0  0  0
  -18.2520  -26.7580   22.2100 C   0  0  0  0  0  2  0  0  0  0  0  0
  -19.2100  -28.8530   23.3340 C   0  0  0  0  0  0  0  0  0  0  0  0
  -19.0010  -30.1120   23.9370 C   0  0  0  0  0  3  0  0  0  0  0  0
  -17.6990  -30.6190   24.1120 C   0  0  0  0  0  3  0  0  0  0  0  0
  -16.5890  -29.8660   23.6930 C   0  0  0  0  0  3  0  0  0  0  0  0
  -16.7830  -28.6080   23.0930 C   0  0  0  0  0  3  0  0  0  0  0  0
  -25.9020  -32.5370   23.8630 C   0  0  0  0  0  3  0  0  0  0  0  0
  -25.5880  -33.9360   24.1810 N   0  0  0  0  0  0  0  0  0  0  0  0
  -25.9300  -34.9840   23.4200 C   0  0  0  0  0  0  0  0  0  0  0  0
  -26.6140  -34.8750   22.3980 O   0  0  0  0  0  0  0  0  0  0  0  0
  -24.9830  -34.0950   24.9740 H   0  0  0  0  0  0  0  0  0  0  0  0
  -24.2070  -36.7730   23.0240 C   0  0  0  0  0  1  0  0  0  0  0  0
  -25.4340  -36.3750   23.8600 C   0  0  0  0  0  3  0  0  0  0  0  0
  -27.5530  -37.2640   24.7240 C   0  0  0  0  0  1  0  0  0  0  0  0
  -26.4680  -37.4270   23.7600 N   0  0  0  0  0  0  0  0  0  0  0  0
  -26.0590  -38.3480   23.8950 H   0  0  0  0  0  0  0  0  0  0  0  0
  -26.4100  -31.7730   25.1480 C   0  0  1  0  0  0  0  0  0  0  0  0
  -25.3100  -31.5370   26.2070 C   0  0  0  0  0  1  0  0  0  0  0  0
  -27.0000  -30.3950   24.7640 C   0  0  0  0  0  1  0  0  0  0  0  0
  -27.5530  -32.5730   25.8160 C   0  0  0  0  0  1  0  0  0  0  0  0
  -30.7020  -17.7570   21.7260 C   0  0  0  0  0  2  0  0  0  0  0  0
  -29.8960  -16.9170   20.7060 C   0  0  0  0  0  2  0  0  0  0  0  0
  -30.6460  -14.5130   20.4460 C   0  0  0  0  0  0  0  0  0  0  0  0
  -30.3830  -12.3730   19.2510 C   0  0  0  0  0  2  0  0  0  0  0  0
  -29.4210  -12.6090   18.0640 C   0  0  0  0  0  2  0  0  0  0  0  0
  -27.9500  -12.4620   18.5040 C   0  0  0  0  0  2  0  0  0  0  0  0
  -27.6280  -13.2600   19.7960 C   0  0  0  0  0  3  0  0  0  0  0  0
  -28.6940  -12.9840   20.8830 C   0  0  0  0  0  2  0  0  0  0  0  0
  -30.0160  -13.3130   20.3200 N   0  0  0  0  0  0  0  0  0  0  0  0
  -31.7430  -14.7680   19.9410 O   0  0  0  0  0  0  0  0  0  0  0  0
  -29.8800  -15.4740   20.9930 N   0  0  0  0  0  0  0  0  0  0  0  0
  -29.0310  -15.1280   21.4180 H   0  0  0  0  0  0  0  0  0  0  0  0
  -25.2290  -13.8620   20.5160 C   0  0  0  0  0  0  0  0  0  0  0  0
  -24.1670  -13.0850   20.8920 C   0  0  0  0  0  0  0  0  0  0  0  0
  -24.6330  -11.7350   20.8540 C   0  0  0  0  0  0  0  0  0  0  0  0
  -26.2770  -12.9840   20.2770 N   0  0  0  0  0  0  0  0  0  0  0  0
  -25.9200  -11.7000   20.5360 N   0  0  0  0  0  0  0  0  0  0  0  0
  -23.9130  -10.4700   21.0460 C   0  0  0  0  0  0  0  0  0  0  0  0
  -24.3570   -9.5030   21.9750 C   0  0  0  0  0  3  0  0  0  0  0  0
  -23.6390   -8.3010   22.1540 C   0  0  0  0  0  3  0  0  0  0  0  0
  -22.4640   -8.0580   21.4040 C   0  0  0  0  0  0  0  0  0  0  0  0
  -22.0400   -9.0150   20.4640 C   0  0  0  0  0  3  0  0  0  0  0  0
  -22.7590  -10.2070   20.2840 C   0  0  0  0  0  3  0  0  0  0  0  0
  -21.7160   -6.9090   21.4930 O   0  0  0  0  0  0  0  0  0  0  0  0
  -21.6770   -6.1630   22.6440 C   0  0  0  0  0  0  0  0  0  0  0  0
  -21.2490   -6.7100   23.8730 C   0  0  0  0  0  3  0  0  0  0  0  0
  -21.1570   -5.8910   25.0150 C   0  0  0  0  0  3  0  0  0  0  0  0
  -21.4850   -4.5240   24.9290 C   0  0  0  0  0  0  0  0  0  0  0  0
  -21.9070   -3.9760   23.7050 C   0  0  0  0  0  3  0  0  0  0  0  0
  -22.0000   -4.7930   22.5650 C   0  0  0  0  0  0  0  0  0  0  0  0
  -22.3860   -4.2550   21.3840 F   0  0  0  0  0  0  0  0  0  0  0  0
  -21.3900   -3.7330   26.0240 F   0  0  0  0  0  0  0  0  0  0  0  0
  -22.7690  -13.5560   21.1770 C   0  0  0  0  0  0  0  0  0  0  0  0
  -22.0490  -12.8520   22.0440 N   0  0  0  0  0  0  0  0  0  0  0  0
  -22.3240  -14.5830   20.6690 O   0  0  0  0  0  0  0  0  0  0  0  0
  -22.4200  -12.0220   22.4800 H   0  0  0  0  0  0  0  0  0  0  0  0
  -21.1110  -13.1490   22.2740 H   0  0  0  0  0  0  0  0  0  0  0  0
  -25.3870  -15.2340   20.3380 N   0  0  0  0  0  0  0  0  0  0  0  0
  -24.6120  -15.8800   20.4410 H   0  0  0  0  0  0  0  0  0  0  0  0
  -26.2230  -15.6720   19.9750 H   0  0  0  0  0  0  0  0  0  0  0  0
  2  1  1  0
  3  4  1  0
  3  6  1  0
  4  7  1  0
  5  9  1  0
  5  1  1  0
  6  2  1  0
  7 55  1  0
  7  8  1  1
  7  5  1  0
  9 10  2  0
 11 12  1  0
 11  6  1  0
 12 13  1  0
 14 16  1  0
 14 13  1  0
 15 26  2  0
 16 21  1  0
 17 25  1  0
 17 27  1  0
 18 24  1  0
 18 20  1  0
 19 25  1  0
 20 21  2  0
 20 19  1  0
 22 16  2  0
 23 22  1  0
 23 18  2  0
 24 17  1  0
 25 15  1  0
 27 29  2  0
 28 27  1  0
 30 28  1  0
 31 40  2  0
 31 36  1  0
 32 28  1  0
 32 36  1  0
 33 32  1  0
 34 35  1  0
 34 33  1  0
 35 31  1  0
 36 37  2  0
 37 38  1  0
 39 38  2  0
 40 39  1  0
 41 15  1  0
 41 42  1  0
 41 51  1  0
 42 45  1  0
 43 47  1  0
 43 42  1  0
 44 43  2  0
 47 46  1  0
 49 47  1  0
 49 50  1  0
 49 48  1  0
 51 54  1  1
 51 52  1  0
 53 51  1  0
 56 65  1  0
 56 55  1  0
 57 65  1  0
 58 63  1  0
 59 60  1  0
 59 58  1  0
 61 60  1  0
 61 70  1  0
 61 62  1  0
 63 57  1  0
 63 62  1  0
 64 57  2  0
 65 66  1  0
 67 68  2  0
 68 87  1  0
 69 68  1  0
 69 72  1  0
 70 67  1  0
 70 71  1  0
 71 69  2  0
 72 73  1  0
 73 74  2  0
 75 78  1  0
 75 74  1  0
 76 75  2  0
 77 76  1  0
 77 72  2  0
 78 79  1  0
 79 80  1  0
 80 81  2  0
 82 81  1  0
 82 86  1  0
 83 82  2  0
 84 79  2  0
 84 83  1  0
 85 84  1  0
 87 88  1  0
 88 91  1  0
 88 90  1  0
 89 87  2  0
 92 93  1  0
 92 67  1  0
 94 92  1  0
M  ISO  4  13 101  14 101  57 100  65 100
M  END
>  <TORSDO>  (91) 
F 22

>  <SCORE>  (91) 
-13.530

>  <name>  (91) 
90

>  <ligand_id>  (91) 
90

>  <original_smiles>  (91) 
[H]C(=O)C1([H])C([H])([H])C([H])([H])N(C([H])([H])C([H])([H])C([H])([H])Oc2c([H])c([H])c3c(c2[H])C([H])([H])N(C(=O)C([H])(N([H])C(=O)C([H])(N([H])C([H])([H])[H])C([H])([H])[H])C(C([H])([H])[H])(C([H])([H])[H])C([H])([H])[H])C([H])(C(=O)N([H])C2([H])c4c([H])c([H])c([H])c([H])c4C([H])([H])C([H])([H])C2([H])[H])C3([H])[H])C([H])([H])C([H])([H])[N+]1([H])C([H])([H])C([H])([H])N([H])C(=O)N1C([H])([H])C([H])([H])C([H])([H])C([H])(n2nc(-c3c([H])c([H])c(Oc4c([H])c([H])c(F)c([H])c4F)c([H])c3[H])c(C(=O)N([H])[H])c2N([H])[H])C1([H])[H]

>  <smiles>  (91) 
[H]C(=O)C1([H])C([H])([H])C([H])([H])N(C([H])([H])C([H])([H])C([H])([H])Oc2c([H])c([H])c3c(c2[H])C([H])([H])N(C(=O)C([H])(N([H])C(=O)C([H])(N([H])C([H])([H])[H])C([H])([H])[H])C(C([H])([H])[H])(C([H])([H])[H])C([H])([H])[H])C([H])(C(=O)N([H])C2([H])c4c([H])c([H])c([H])c([H])c4C([H])([H])C([H])([H])C2([H])[H])C3([H])[H])C([H])([H])C([H])([H])[N+]1([H])C([H])([H])C([H])([H])N([H])C(=O)N1C([H])([H])C([H])([H])C([H])([H])C([H])(n2nc(-c3c([H])c([H])c(Oc4c([H])c([H])c(F)c([H])c4F)c([H])c3[H])c(C(=O)N([H])[H])c2N([H])[H])C1([H])[H]

$$$$
91:0:0
     RDKit          3D

 92100  0  0  1  0  0  0  0  0999 V2000
  -28.7360  -20.5390   20.5510 C   0  0  0  0  0  2  0  0  0  0  0  0
  -29.2010  -22.0210   20.2190 N   0  0  0  0  0  4  0  0  0  0  0  0
  -29.3900  -22.0350   19.2290 H   0  0  0  0  0  0  0  0  0  0  0  0
  -30.0920  -22.1600   20.6670 H   0  0  0  0  0  0  0  0  0  0  0  0
  -28.3300  -23.3210   20.5500 C   0  0  0  0  0  2  0  0  0  0  0  0
  -28.3960  -24.7740   19.6850 C   0  0  0  0  0  2  0  0  0  0  0  0
  -28.2890  -26.2520   20.1740 O   0  0  0  0  0  0  0  0  0  0  0  0
  -24.6230  -31.8700   23.1390 C   0  0  0  0  0  0  0  0  0  0  0  0
  -27.1900  -27.1800   20.0670 C   0  0  0  0  0  0  0  0  0  0  0  0
  -23.4040  -30.4690   21.5140 C   0  0  0  0  0  3  0  0  0  0  0  0
  -24.8410  -28.8990   20.0650 C   0  0  0  0  0  0  0  0  0  0  0  0
  -25.9510  -30.7510   21.3110 C   0  0  0  0  0  2  0  0  0  0  0  0
  -26.0220  -29.3600   20.6580 C   0  0  0  0  0  0  0  0  0  0  0  0
  -27.1910  -28.5130   20.6440 C   0  0  0  0  0  3  0  0  0  0  0  0
  -25.9830  -26.8120   19.4350 C   0  0  0  0  0  3  0  0  0  0  0  0
  -24.8340  -27.6410   19.4390 C   0  0  0  0  0  3  0  0  0  0  0  0
  -23.6070  -29.7880   20.1330 C   0  0  0  0  0  2  0  0  0  0  0  0
  -24.6800  -31.0520   22.0440 N   0  0  0  0  0  0  0  0  0  0  0  0
  -23.5450  -32.1490   23.6850 O   0  0  0  0  0  0  0  0  0  0  0  0
  -22.7450  -29.4610   22.4880 C   0  0  0  0  0  0  0  0  0  0  0  0
  -21.4150  -29.2900   22.3860 N   0  0  0  0  0  0  0  0  0  0  0  0
  -23.4320  -28.8340   23.2990 O   0  0  0  0  0  0  0  0  0  0  0  0
  -20.9170  -29.8460   21.7060 H   0  0  0  0  0  0  0  0  0  0  0  0
  -18.0450  -28.0840   22.9430 C   0  0  0  0  0  0  0  0  0  0  0  0
  -20.6080  -28.3500   23.1680 C   0  0  0  0  0  3  0  0  0  0  0  0
  -20.7020  -26.9190   22.5890 C   0  0  0  0  0  2  0  0  0  0  0  0
  -19.5840  -26.5970   21.5920 C   0  0  0  0  0  2  0  0  0  0  0  0
  -18.2130  -26.7370   22.2590 C   0  0  0  0  0  2  0  0  0  0  0  0
  -19.1700  -28.8480   23.3550 C   0  0  0  0  0  0  0  0  0  0  0  0
  -18.9570  -30.1080   23.9560 C   0  0  0  0  0  3  0  0  0  0  0  0
  -17.6540  -30.6040   24.1480 C   0  0  0  0  0  3  0  0  0  0  0  0
  -16.5440  -29.8370   23.7510 C   0  0  0  0  0  3  0  0  0  0  0  0
  -16.7420  -28.5790   23.1540 C   0  0  0  0  0  3  0  0  0  0  0  0
  -25.9080  -32.5100   23.7490 C   0  0  0  0  0  3  0  0  0  0  0  0
  -26.4540  -31.7290   25.0080 C   0  0  1  0  0  0  0  0  0  0  0  0
  -25.3820  -31.4740   26.0950 C   0  0  0  0  0  1  0  0  0  0  0  0
  -27.0370  -30.3590   24.5940 C   0  0  0  0  0  1  0  0  0  0  0  0
  -27.6130  -32.5230   25.6560 C   0  0  0  0  0  1  0  0  0  0  0  0
  -25.5900  -33.9010   24.1090 N   0  0  0  0  0  0  0  0  0  0  0  0
  -25.9110  -34.9740   23.3750 C   0  0  0  0  0  0  0  0  0  0  0  0
  -26.5740  -34.8970   22.3360 O   0  0  0  0  0  0  0  0  0  0  0  0
  -24.9990  -34.0330   24.9170 H   0  0  0  0  0  0  0  0  0  0  0  0
  -24.1750  -36.7710   23.0740 C   0  0  0  0  0  1  0  0  0  0  0  0
  -25.4220  -36.3510   23.8670 C   0  0  0  0  0  3  0  0  0  0  0  0
  -27.5590  -37.2260   24.7070 C   0  0  0  0  0  1  0  0  0  0  0  0
  -26.4500  -37.4100   23.7740 N   0  0  0  0  0  0  0  0  0  0  0  0
  -26.0420  -38.3260   23.9440 H   0  0  0  0  0  0  0  0  0  0  0  0
  -29.6660  -19.2070   21.0840 C   0  0  0  0  0  2  0  0  0  0  0  0
  -30.7070  -15.1650   20.9540 C   0  0  0  0  0  0  0  0  0  0  0  0
  -30.7790  -12.6950   20.3490 C   0  0  0  0  0  2  0  0  0  0  0  0
  -30.0130  -12.3680   19.0440 C   0  0  0  0  0  2  0  0  0  0  0  0
  -28.4890  -12.2510   19.2840 C   0  0  0  0  0  2  0  0  0  0  0  0
  -27.9090  -13.2770   20.3010 C   0  0  0  0  0  3  0  0  0  0  0  0
  -28.8310  -13.4840   21.5190 C   0  0  0  0  0  2  0  0  0  0  0  0
  -30.1470  -13.8810   20.9940 N   0  0  0  0  0  0  0  0  0  0  0  0
  -31.9350  -15.2320   21.0810 O   0  0  0  0  0  0  0  0  0  0  0  0
  -29.7340  -15.9230   18.9370 C   0  0  0  0  0  2  0  0  0  0  0  0
  -30.9980  -16.1540   18.0580 C   0  0  0  0  0  2  0  0  0  0  0  0
  -31.4960  -18.1320   19.5010 C   0  0  0  0  0  2  0  0  0  0  0  0
  -30.1290  -17.8780   20.1730 C   0  0  0  0  0  3  0  0  0  0  0  0
  -29.9730  -16.2740   20.3700 N   0  0  0  0  0  0  0  0  0  0  0  0
  -31.5230  -17.5350   18.1470 N   0  0  0  0  0  4  0  0  0  0  0  0
  -30.9700  -18.1160   17.5380 H   0  0  0  0  0  0  0  0  0  0  0  0
  -32.4650  -17.5600   17.7880 H   0  0  0  0  0  0  0  0  0  0  0  0
  -25.4640  -13.8660   20.7470 C   0  0  0  0  0  0  0  0  0  0  0  0
  -24.3670  -13.0940   21.0070 C   0  0  0  0  0  0  0  0  0  0  0  0
  -24.8400  -11.7480   21.0800 C   0  0  0  0  0  0  0  0  0  0  0  0
  -26.5320  -12.9870   20.6670 N   0  0  0  0  0  0  0  0  0  0  0  0
  -26.1590  -11.7110   20.9370 N   0  0  0  0  0  0  0  0  0  0  0  0
  -24.1060  -10.4860   21.2200 C   0  0  0  0  0  0  0  0  0  0  0  0
  -24.4580   -9.5360   22.2030 C   0  0  0  0  0  3  0  0  0  0  0  0
  -23.7230   -8.3370   22.3320 C   0  0  0  0  0  3  0  0  0  0  0  0
  -22.6260   -8.0810   21.4760 C   0  0  0  0  0  0  0  0  0  0  0  0
  -22.2960   -9.0210   20.4840 C   0  0  0  0  0  3  0  0  0  0  0  0
  -23.0310  -10.2110   20.3520 C   0  0  0  0  0  3  0  0  0  0  0  0
  -21.8700   -6.9350   21.5140 O   0  0  0  0  0  0  0  0  0  0  0  0
  -21.7400   -6.1970   22.6630 C   0  0  0  0  0  0  0  0  0  0  0  0
  -21.2300   -6.7580   23.8540 C   0  0  0  0  0  3  0  0  0  0  0  0
  -21.0480   -5.9460   24.9910 C   0  0  0  0  0  3  0  0  0  0  0  0
  -21.3640   -4.5750   24.9380 C   0  0  0  0  0  0  0  0  0  0  0  0
  -21.8670   -4.0150   23.7500 C   0  0  0  0  0  3  0  0  0  0  0  0
  -22.0520   -4.8240   22.6150 C   0  0  0  0  0  0  0  0  0  0  0  0
  -22.5160   -4.2750   21.4670 F   0  0  0  0  0  0  0  0  0  0  0  0
  -21.1810   -3.7940   26.0270 F   0  0  0  0  0  0  0  0  0  0  0  0
  -22.9460  -13.5670   21.0830 C   0  0  0  0  0  0  0  0  0  0  0  0
  -22.1230  -12.9010   21.8860 N   0  0  0  0  0  0  0  0  0  0  0  0
  -22.5680  -14.5640   20.4690 O   0  0  0  0  0  0  0  0  0  0  0  0
  -22.4380  -12.0960   22.4060 H   0  0  0  0  0  0  0  0  0  0  0  0
  -21.1620  -13.1990   21.9820 H   0  0  0  0  0  0  0  0  0  0  0  0
  -25.6400  -15.2330   20.5450 N   0  0  0  0  0  0  0  0  0  0  0  0
  -24.8630  -15.8840   20.5510 H   0  0  0  0  0  0  0  0  0  0  0  0
  -26.5270  -15.6770   20.3470 H   0  0  0  0  0  0  0  0  0  0  0  0
  1 48  1  0
  2  5  1  0
  2  1  1  0
  2  4  1  0
  3  2  1  0
  6  7  1  0
  6  5  1  0
  8 19  2  0
  9  7  1  0
  9 14  1  0
 10 18  1  0
 10 20  1  0
 11 17  1  0
 11 13  1  0
 12 18  1  0
 13 12  1  0
 14 13  2  0
 15 16  1  0
 15  9  2  0
 16 11  2  0
 17 10  1  0
 18  8  1  0
 20 22  2  0
 21 20  1  0
 23 21  1  0
 24 33  2  0
 24 29  1  0
 25 21  1  0
 25 29  1  0
 26 25  1  0
 27 28  1  0
 27 26  1  0
 28 24  1  0
 29 30  2  0
 30 31  1  0
 32 31  2  0
 33 32  1  0
 34  8  1  0
 34 39  1  0
 34 35  1  0
 35 38  1  1
 35 36  1  0
 37 35  1  0
 39 42  1  0
 40 44  1  0
 40 39  1  0
 41 40  2  0
 44 43  1  0
 46 44  1  0
 46 47  1  0
 46 45  1  0
 49 55  1  0
 49 56  2  0
 50 55  1  0
 51 52  1  0
 51 50  1  0
 53 52  1  0
 53 68  1  0
 53 54  1  0
 55 54  1  0
 57 61  1  0
 58 62  1  0
 58 57  1  0
 59 60  1  0
 60 61  1  0
 60 48  1  0
 61 49  1  0
 62 59  1  0
 63 62  1  0
 64 62  1  0
 65 66  2  0
 66 67  1  0
 66 85  1  0
 67 70  1  0
 68 65  1  0
 68 69  1  0
 69 67  2  0
 70 71  1  0
 71 72  2  0
 73 76  1  0
 73 72  1  0
 74 73  2  0
 75 74  1  0
 75 70  2  0
 76 77  1  0
 77 78  1  0
 78 79  2  0
 80 79  1  0
 80 84  1  0
 81 80  2  0
 82 77  2  0
 82 81  1  0
 83 82  1  0
 85 86  1  0
 86 89  1  0
 86 88  1  0
 87 85  2  0
 90 91  1  0
 90 65  1  0
 92 90  1  0
M  ISO  4   6 101   7 101  49 100  61 100
M  END
>  <TORSDO>  (92) 
F 20

>  <SCORE>  (92) 
-13.544

>  <name>  (92) 
91

>  <ligand_id>  (92) 
91

>  <original_smiles>  (92) 
[H]c1c([H])c([H])c2c(c1[H])C([H])([H])C([H])([H])C([H])([H])C2([H])N([H])C(=O)C1([H])N(C(=O)C([H])(N([H])C(=O)C([H])(N([H])C([H])([H])[H])C([H])([H])[H])C(C([H])([H])[H])(C([H])([H])[H])C([H])([H])[H])C([H])([H])c2c([H])c(OC([H])([H])C([H])([H])[N+]([H])([H])C([H])([H])C([H])([H])C3([H])N(C(=O)N4C([H])([H])C([H])([H])C([H])([H])C([H])(n5nc(-c6c([H])c([H])c(Oc7c([H])c([H])c(F)c([H])c7F)c([H])c6[H])c(C(=O)N([H])[H])c5N([H])[H])C4([H])[H])C([H])([H])C([H])([H])[N+]([H])([H])C3([H])[H])c([H])c([H])c2C1([H])[H]

>  <smiles>  (92) 
[H]c1c([H])c([H])c2c(c1[H])C([H])([H])C([H])([H])C([H])([H])C2([H])N([H])C(=O)C1([H])N(C(=O)C([H])(N([H])C(=O)C([H])(N([H])C([H])([H])[H])C([H])([H])[H])C(C([H])([H])[H])(C([H])([H])[H])C([H])([H])[H])C([H])([H])c2c([H])c(OC([H])([H])C([H])([H])[N+]([H])([H])C([H])([H])C([H])([H])C3([H])N(C(=O)N4C([H])([H])C([H])([H])C([H])([H])C([H])(n5nc(-c6c([H])c([H])c(Oc7c([H])c([H])c(F)c([H])c7F)c([H])c6[H])c(C(=O)N([H])[H])c5N([H])[H])C4([H])[H])C([H])([H])C([H])([H])[N+]([H])([H])C3([H])[H])c([H])c([H])c2C1([H])[H]

$$$$
92:0:0
     RDKit          3D

100109  0  0  1  0  0  0  0  0999 V2000
  -24.4140  -23.2060   19.8110 C   0  0  0  0  0  2  0  0  0  0  0  0
  -24.6170  -22.6290   18.4070 C   0  0  0  0  0  2  0  0  0  0  0  0
  -25.5810  -24.0370   20.3750 C   0  0  0  0  0  2  0  0  0  0  0  0
  -24.7890  -23.6910   17.3030 C   0  0  0  0  0  2  0  0  0  0  0  0
  -26.9920  -23.3980   20.2660 C   0  0  0  0  0  2  0  0  0  0  0  0
  -29.2580  -24.4880   19.8330 C   0  0  0  0  0  2  0  0  0  0  0  0
  -28.6000  -22.5100   18.4630 C   0  0  0  0  0  2  0  0  0  0  0  0
  -26.0690  -23.4950   16.4640 C   0  0  0  0  0  2  0  0  0  0  0  0
  -30.1200  -23.5710   20.7210 C   0  0  0  0  0  2  0  0  0  0  0  0
  -29.5030  -21.6450   19.3750 C   0  0  0  0  0  2  0  0  0  0  0  0
  -27.5000  -24.8710   18.1010 C   0  0  0  0  0  2  0  0  0  0  0  0
  -28.0330  -23.7970   19.1400 C   0  0  1  0  0  0  0  0  0  0  0  0
  -27.1610  -24.4860   16.6950 N   0  0  2  0  0  4  0  0  0  0  0  0
  -30.6330  -22.4330   19.9260 N   0  0  2  0  0  4  0  0  0  0  0  0
  -27.9830  -24.0230   16.3350 H   0  0  0  0  0  0  0  0  0  0  0  0
  -31.1310  -22.8460   19.1500 H   0  0  0  0  0  0  0  0  0  0  0  0
  -27.0180  -25.7050   15.8440 C   0  0  0  0  0  2  0  0  0  0  0  0
  -28.3900  -26.2500   15.3840 C   0  0  0  0  0  2  0  0  0  0  0  0
  -28.8500  -27.5770   16.0380 C   0  0  0  0  0  2  0  0  0  0  0  0
  -28.0780  -28.7160   15.6540 O   0  0  0  0  0  0  0  0  0  0  0  0
  -25.5020  -28.5170   22.2830 C   0  0  0  0  0  0  0  0  0  0  0  0
  -27.0370  -28.9810   16.5000 C   0  0  0  0  0  0  0  0  0  0  0  0
  -23.8610  -28.9570   20.4830 C   0  0  0  0  0  3  0  0  0  0  0  0
  -24.8460  -29.4850   18.1920 C   0  0  0  0  0  0  0  0  0  0  0  0
  -26.3090  -29.6340   20.2120 C   0  0  0  0  0  2  0  0  0  0  0  0
  -26.1400  -29.4140   18.7250 C   0  0  0  0  0  0  0  0  0  0  0  0
  -27.2420  -29.1450   17.8870 C   0  0  0  0  0  3  0  0  0  0  0  0
  -25.7420  -29.1070   15.9670 C   0  0  0  0  0  3  0  0  0  0  0  0
  -24.6390  -29.3240   16.8100 C   0  0  0  0  0  3  0  0  0  0  0  0
  -23.7180  -29.7540   19.1580 C   0  0  0  0  0  2  0  0  0  0  0  0
  -25.2550  -28.9980   21.0320 N   0  0  0  0  0  0  0  0  0  0  0  0
  -24.5850  -28.0850   22.9960 O   0  0  0  0  0  0  0  0  0  0  0  0
  -23.3360  -27.5230   20.2530 C   0  0  0  0  0  0  0  0  0  0  0  0
  -22.0020  -27.3840   20.1710 N   0  0  0  0  0  0  0  0  0  0  0  0
  -24.1150  -26.5760   20.1290 O   0  0  0  0  0  0  0  0  0  0  0  0
  -21.4290  -28.2060   20.2960 H   0  0  0  0  0  0  0  0  0  0  0  0
  -18.7110  -25.9640   19.7480 C   0  0  0  0  0  0  0  0  0  0  0  0
  -21.2830  -26.1370   19.9220 C   0  0  0  0  0  3  0  0  0  0  0  0
  -21.3050  -25.7650   18.4230 C   0  0  0  0  0  2  0  0  0  0  0  0
  -20.0890  -26.2840   17.6500 C   0  0  0  0  0  2  0  0  0  0  0  0
  -18.7940  -25.7290   18.2500 C   0  0  0  0  0  2  0  0  0  0  0  0
  -19.8780  -26.1710   20.5300 C   0  0  0  0  0  0  0  0  0  0  0  0
  -19.7420  -26.4250   21.9120 C   0  0  0  0  0  3  0  0  0  0  0  0
  -18.4720  -26.4700   22.5140 C   0  0  0  0  0  3  0  0  0  0  0  0
  -17.3210  -26.2470   21.7390 C   0  0  0  0  0  3  0  0  0  0  0  0
  -17.4420  -25.9900   20.3620 C   0  0  0  0  0  3  0  0  0  0  0  0
  -26.9410  -28.5080   22.8860 C   0  0  0  0  0  3  0  0  0  0  0  0
  -26.8230  -28.8400   24.3120 N   0  0  0  0  0  0  0  0  0  0  0  0
  -27.1250  -30.0330   24.8430 C   0  0  0  0  0  0  0  0  0  0  0  0
  -27.6090  -30.9580   24.1850 O   0  0  0  0  0  0  0  0  0  0  0  0
  -26.3720  -28.1540   24.8970 H   0  0  0  0  0  0  0  0  0  0  0  0
  -25.5440  -31.0300   26.5280 C   0  0  0  0  0  1  0  0  0  0  0  0
  -26.8440  -30.2300   26.3440 C   0  0  0  0  0  3  0  0  0  0  0  0
  -29.1530  -30.0870   27.1640 C   0  0  0  0  0  1  0  0  0  0  0  0
  -27.9460  -30.9020   27.0650 N   0  0  0  0  0  0  0  0  0  0  0  0
  -27.6570  -31.1560   28.0060 H   0  0  0  0  0  0  0  0  0  0  0  0
  -27.6890  -27.1330   22.6900 C   0  0  1  0  0  0  0  0  0  0  0  0
  -26.8470  -25.9080   23.1100 C   0  0  0  0  0  1  0  0  0  0  0  0
  -28.1040  -26.9450   21.2110 C   0  0  0  0  0  1  0  0  0  0  0  0
  -28.9910  -27.1220   23.5260 C   0  0  0  0  0  1  0  0  0  0  0  0
  -31.6450  -21.6280   20.6600 C   0  0  0  0  0  2  0  0  0  0  0  0
  -32.8230  -21.1950   19.7680 C   0  0  0  0  0  2  0  0  0  0  0  0
  -34.4220  -19.3680   19.7950 C   0  0  0  0  0  0  0  0  0  0  0  0
  -34.7400  -17.0080   19.1580 C   0  0  0  0  0  2  0  0  0  0  0  0
  -34.0090  -16.6930   17.8390 C   0  0  0  0  0  2  0  0  0  0  0  0
  -32.5420  -16.3060   18.1050 C   0  0  0  0  0  2  0  0  0  0  0  0
  -31.8210  -17.3200   19.0300 C   0  0  0  0  0  3  0  0  0  0  0  0
  -32.6720  -17.6210   20.2830 C   0  0  0  0  0  2  0  0  0  0  0  0
  -34.0040  -18.0790   19.8420 N   0  0  0  0  0  0  0  0  0  0  0  0
  -35.4540  -19.7430   19.2340 O   0  0  0  0  0  0  0  0  0  0  0  0
  -33.6660  -20.2340   20.4700 N   0  0  0  0  0  0  0  0  0  0  0  0
  -34.2070  -20.6980   21.1870 H   0  0  0  0  0  0  0  0  0  0  0  0
  -29.3200  -17.5880   19.5760 C   0  0  0  0  0  0  0  0  0  0  0  0
  -28.3350  -16.6670   19.8270 C   0  0  0  0  0  0  0  0  0  0  0  0
  -28.9640  -15.3870   19.7550 C   0  0  0  0  0  0  0  0  0  0  0  0
  -30.4810  -16.8550   19.3850 N   0  0  0  0  0  0  0  0  0  0  0  0
  -30.2670  -15.5240   19.5450 N   0  0  0  0  0  0  0  0  0  0  0  0
  -28.3930  -14.0340   19.8150 C   0  0  0  0  0  0  0  0  0  0  0  0
  -28.5230  -13.2280   20.9670 C   0  0  0  0  0  3  0  0  0  0  0  0
  -27.9510  -11.9390   21.0070 C   0  0  0  0  0  3  0  0  0  0  0  0
  -27.2360  -11.4440   19.8900 C   0  0  0  0  0  0  0  0  0  0  0  0
  -27.1310  -12.2410   18.7360 C   0  0  0  0  0  3  0  0  0  0  0  0
  -27.7060  -13.5220   18.6960 C   0  0  0  0  0  3  0  0  0  0  0  0
  -26.6690  -10.1950   19.8310 O   0  0  0  0  0  0  0  0  0  0  0  0
  -25.8050   -9.7500   20.8010 C   0  0  0  0  0  0  0  0  0  0  0  0
  -24.6730  -10.4990   21.1900 C   0  0  0  0  0  3  0  0  0  0  0  0
  -23.7740   -9.9730   22.1420 C   0  0  0  0  0  3  0  0  0  0  0  0
  -24.0020   -8.6990   22.6950 C   0  0  0  0  0  0  0  0  0  0  0  0
  -25.1250   -7.9490   22.3030 C   0  0  0  0  0  3  0  0  0  0  0  0
  -26.0220   -8.4740   21.3570 C   0  0  0  0  0  0  0  0  0  0  0  0
  -27.0930   -7.7400   20.9680 F   0  0  0  0  0  0  0  0  0  0  0  0
  -23.1360   -8.1890   23.6020 F   0  0  0  0  0  0  0  0  0  0  0  0
  -26.8730  -16.9510   20.0160 C   0  0  0  0  0  0  0  0  0  0  0  0
  -26.1830  -16.1130   20.7840 N   0  0  0  0  0  0  0  0  0  0  0  0
  -26.3440  -17.9450   19.5240 O   0  0  0  0  0  0  0  0  0  0  0  0
  -26.6240  -15.3070   21.2020 H   0  0  0  0  0  0  0  0  0  0  0  0
  -25.2030  -16.2800   20.9600 H   0  0  0  0  0  0  0  0  0  0  0  0
  -29.3270  -18.9740   19.4690 N   0  0  0  0  0  0  0  0  0  0  0  0
  -28.4350  -19.4460   19.3720 H   0  0  0  0  0  0  0  0  0  0  0  0
  -30.0570  -19.4130   18.9250 H   0  0  0  0  0  0  0  0  0  0  0  0
  1  3  1  0
  2  1  1  0
  4  2  1  0
  5  3  1  0
  6  9  1  0
 12  7  1  6
  7 10  1  0
  8 13  1  0
  8  4  1  0
 10 14  1  0
 12 11  1  0
 12  6  1  0
 12  5  1  0
 13 11  1  0
 14 61  1  0
 14  9  1  0
 13 15  1  6
 14 16  1  6
 17 13  1  0
 18 17  1  0
 18 19  1  0
 20 19  1  0
 20 22  1  0
 21 32  2  0
 22 27  1  0
 23 33  1  0
 23 31  1  0
 24 26  1  0
 24 30  1  0
 25 31  1  0
 26 25  1  0
 27 26  2  0
 28 22  2  0
 28 29  1  0
 29 24  2  0
 30 23  1  0
 31 21  1  0
 34 33  1  0
 34 36  1  0
 35 33  2  0
 37 46  2  0
 37 42  1  0
 38 34  1  0
 38 42  1  0
 39 38  1  0
 40 41  1  0
 40 39  1  0
 41 37  1  0
 42 43  2  0
 43 44  1  0
 45 44  2  0
 46 45  1  0
 47 21  1  0
 47 48  1  0
 48 49  1  0
 48 51  1  0
 49 53  1  0
 50 49  2  0
 53 52  1  0
 53 55  1  0
 55 54  1  0
 55 56  1  0
 57 47  1  0
 57 58  1  1
 57 60  1  0
 59 57  1  0
 62 71  1  0
 62 61  1  0
 63 69  1  0
 63 71  1  0
 64 69  1  0
 65 66  1  0
 65 64  1  0
 67 66  1  0
 67 76  1  0
 67 68  1  0
 69 68  1  0
 70 63  2  0
 71 72  1  0
 73 74  2  0
 74 93  1  0
 75 78  1  0
 75 74  1  0
 76 77  1  0
 76 73  1  0
 77 75  2  0
 78 79  1  0
 79 80  2  0
 81 80  1  0
 82 81  2  0
 83 82  1  0
 83 78  2  0
 84 81  1  0
 84 85  1  0
 85 86  2  0
 85 90  1  0
 86 87  1  0
 87 88  2  0
 88 92  1  0
 89 88  1  0
 90 89  2  0
 91 90  1  0
 93 94  1  0
 94 97  1  0
 94 96  1  0
 95 93  2  0
 98 73  1  0
 99 98  1  0
100 98  1  0
M  ISO  4  19 101  20 101  63 100  71 100
M  END
>  <TORSDO>  (93) 
F 21

>  <SCORE>  (93) 
-3.244

>  <name>  (93) 
92

>  <ligand_id>  (93) 
92

>  <original_smiles>  (93) 
[H]c1c([H])c([H])c2c(c1[H])C([H])([H])C([H])([H])C([H])([H])C2([H])N([H])C(=O)C1([H])N(C(=O)C([H])(N([H])C(=O)C([H])(N([H])C([H])([H])[H])C([H])([H])[H])C(C([H])([H])[H])(C([H])([H])[H])C([H])([H])[H])C([H])([H])c2c([H])c(OC([H])([H])C([H])([H])C([H])([H])[N+]3([H])C([H])([H])C([H])([H])C([H])([H])C([H])([H])C([H])([H])C([H])([H])C4(C([H])([H])C([H])([H])[N+]([H])(C([H])([H])C([H])([H])N([H])C(=O)N5C([H])([H])C([H])([H])C([H])([H])C([H])(n6nc(-c7c([H])c([H])c(Oc8c([H])c([H])c(F)c([H])c8F)c([H])c7[H])c(C(=O)N([H])[H])c6N([H])[H])C5([H])[H])C([H])([H])C4([H])[H])C3([H])[H])c([H])c([H])c2C1([H])[H]

>  <smiles>  (93) 
[H]c1c([H])c([H])c2c(c1[H])C([H])([H])C([H])([H])C([H])([H])C2([H])N([H])C(=O)C1([H])N(C(=O)C([H])(N([H])C(=O)C([H])(N([H])C([H])([H])[H])C([H])([H])[H])C(C([H])([H])[H])(C([H])([H])[H])C([H])([H])[H])C([H])([H])c2c([H])c(OC([H])([H])C([H])([H])C([H])([H])[N+]3([H])C([H])([H])C([H])([H])C([H])([H])C([H])([H])C([H])([H])C([H])([H])C4(C([H])([H])C([H])([H])[N+]([H])(C([H])([H])C([H])([H])N([H])C(=O)N5C([H])([H])C([H])([H])C([H])([H])C([H])(n6nc(-c7c([H])c([H])c(Oc8c([H])c([H])c(F)c([H])c8F)c([H])c7[H])c(C(=O)N([H])[H])c6N([H])[H])C5([H])[H])C([H])([H])C4([H])[H])C3([H])[H])c([H])c([H])c2C1([H])[H]

$$$$
93:0:0
     RDKit          3D

 99107  0  0  1  0  0  0  0  0999 V2000
  -28.5860  -20.3050   21.4850 C   0  0  0  0  0  2  0  0  0  0  0  0
  -29.1330  -18.8340   21.5280 C   0  0  0  0  0  2  0  0  0  0  0  0
  -30.8110  -20.9140   20.3650 C   0  0  0  0  0  2  0  0  0  0  0  0
  -29.5970  -21.4650   21.1850 C   0  0  0  0  0  3  0  0  0  0  0  0
  -30.3720  -18.5010   20.6470 C   0  0  0  0  0  3  0  0  0  0  0  0
  -30.6090  -19.6090   19.6830 N   0  0  0  0  0  0  0  0  0  0  0  0
  -28.8960  -22.6430   20.5430 N   0  0  0  0  0  4  0  0  0  0  0  0
  -27.9500  -22.6070   20.8930 H   0  0  0  0  0  0  0  0  0  0  0  0
  -28.8430  -22.4720   19.5520 H   0  0  0  0  0  0  0  0  0  0  0  0
  -29.3640  -24.0680   20.7790 C   0  0  0  0  0  2  0  0  0  0  0  0
  -28.3930  -25.1460   20.1430 C   0  0  0  0  0  2  0  0  0  0  0  0
  -28.6030  -26.5900   20.3530 O   0  0  0  0  0  0  0  0  0  0  0  0
  -24.6910  -31.8650   23.2550 C   0  0  0  0  0  0  0  0  0  0  0  0
  -27.4750  -27.4140   20.2350 C   0  0  0  0  0  0  0  0  0  0  0  0
  -23.5620  -30.4730   21.5560 C   0  0  0  0  0  3  0  0  0  0  0  0
  -25.0830  -28.9740   20.1560 C   0  0  0  0  0  0  0  0  0  0  0  0
  -26.0970  -30.8420   21.4580 C   0  0  0  0  0  2  0  0  0  0  0  0
  -26.2210  -29.4760   20.7980 C   0  0  0  0  0  0  0  0  0  0  0  0
  -27.4200  -28.7080   20.8300 C   0  0  0  0  0  3  0  0  0  0  0  0
  -26.3170  -26.9680   19.5510 C   0  0  0  0  0  3  0  0  0  0  0  0
  -25.1330  -27.7250   19.5210 C   0  0  0  0  0  3  0  0  0  0  0  0
  -23.8290  -29.8220   20.1750 C   0  0  0  0  0  2  0  0  0  0  0  0
  -24.8010  -31.0750   22.1480 N   0  0  0  0  0  0  0  0  0  0  0  0
  -23.5880  -32.1190   23.7580 O   0  0  0  0  0  0  0  0  0  0  0  0
  -22.8850  -29.4320   22.4780 C   0  0  0  0  0  0  0  0  0  0  0  0
  -21.5560  -29.2770   22.3410 N   0  0  0  0  0  0  0  0  0  0  0  0
  -23.5520  -28.7690   23.2770 O   0  0  0  0  0  0  0  0  0  0  0  0
  -21.0790  -29.8660   21.6730 H   0  0  0  0  0  0  0  0  0  0  0  0
  -18.1510  -28.1650   22.8360 C   0  0  0  0  0  0  0  0  0  0  0  0
  -20.7210  -28.3290   23.0770 C   0  0  0  0  0  3  0  0  0  0  0  0
  -20.7670  -26.9250   22.4290 C   0  0  0  0  0  2  0  0  0  0  0  0
  -19.6400  -26.6890   21.4180 C   0  0  0  0  0  2  0  0  0  0  0  0
  -18.2740  -26.8460   22.0910 C   0  0  0  0  0  2  0  0  0  0  0  0
  -19.3010  -28.8680   23.2850 C   0  0  0  0  0  0  0  0  0  0  0  0
  -19.1320  -30.1060   23.9430 C   0  0  0  0  0  3  0  0  0  0  0  0
  -17.8470  -30.6410   24.1530 C   0  0  0  0  0  3  0  0  0  0  0  0
  -16.7130  -29.9330   23.7200 C   0  0  0  0  0  3  0  0  0  0  0  0
  -16.8660  -28.6960   23.0690 C   0  0  0  0  0  3  0  0  0  0  0  0
  -25.9450  -32.5050   23.9290 C   0  0  0  0  0  3  0  0  0  0  0  0
  -26.4140  -31.7350   25.2220 C   0  0  1  0  0  0  0  0  0  0  0  0
  -25.2820  -31.4920   26.2480 C   0  0  0  0  0  1  0  0  0  0  0  0
  -27.0170  -30.3600   24.8520 C   0  0  0  0  0  1  0  0  0  0  0  0
  -27.5360  -32.5330   25.9290 C   0  0  0  0  0  1  0  0  0  0  0  0
  -25.6130  -33.9010   24.2450 N   0  0  0  0  0  0  0  0  0  0  0  0
  -25.9630  -34.9560   23.4980 C   0  0  0  0  0  0  0  0  0  0  0  0
  -26.6690  -34.8550   22.4890 O   0  0  0  0  0  0  0  0  0  0  0  0
  -24.9910  -34.0520   25.0270 H   0  0  0  0  0  0  0  0  0  0  0  0
  -24.2270  -36.7290   23.0890 C   0  0  0  0  0  1  0  0  0  0  0  0
  -25.4500  -36.3400   23.9350 C   0  0  0  0  0  3  0  0  0  0  0  0
  -27.5520  -37.2510   24.8200 C   0  0  0  0  0  1  0  0  0  0  0  0
  -26.4750  -37.4040   23.8450 N   0  0  0  0  0  0  0  0  0  0  0  0
  -26.0560  -38.3200   23.9770 H   0  0  0  0  0  0  0  0  0  0  0  0
  -30.4400  -17.0650   19.9570 C   0  0  0  0  0  2  0  0  0  0  0  0
  -31.1070  -14.6810   20.4500 C   0  0  0  0  0  0  0  0  0  0  0  0
  -30.7820  -12.4980   19.3300 C   0  0  0  0  0  2  0  0  0  0  0  0
  -29.8710  -12.7230   18.1030 C   0  0  0  0  0  2  0  0  0  0  0  0
  -28.3860  -12.6230   18.5020 C   0  0  0  0  0  2  0  0  0  0  0  0
  -28.0480  -13.4620   19.7630 C   0  0  0  0  0  3  0  0  0  0  0  0
  -29.0800  -13.2290   20.8940 C   0  0  0  0  0  2  0  0  0  0  0  0
  -30.4180  -13.5040   20.3490 N   0  0  0  0  0  0  0  0  0  0  0  0
  -32.2690  -14.7820   20.0480 O   0  0  0  0  0  0  0  0  0  0  0  0
  -30.3810  -15.7960   20.7500 N   0  0  0  0  0  0  0  0  0  0  0  0
  -29.4890  -15.6070   21.1820 H   0  0  0  0  0  0  0  0  0  0  0  0
  -25.6490  -14.1370   20.3910 C   0  0  0  0  0  0  0  0  0  0  0  0
  -24.5520  -13.3980   20.7430 C   0  0  0  0  0  0  0  0  0  0  0  0
  -24.9810  -12.0350   20.7540 C   0  0  0  0  0  0  0  0  0  0  0  0
  -26.6790  -13.2250   20.2110 N   0  0  0  0  0  0  0  0  0  0  0  0
  -26.2780  -11.9570   20.4870 N   0  0  0  0  0  0  0  0  0  0  0  0
  -24.2150  -10.7950   20.9500 C   0  0  0  0  0  0  0  0  0  0  0  0
  -24.6100   -9.8280   21.9000 C   0  0  0  0  0  3  0  0  0  0  0  0
  -23.8500   -8.6540   22.0820 C   0  0  0  0  0  3  0  0  0  0  0  0
  -22.6800   -8.4400   21.3170 C   0  0  0  0  0  0  0  0  0  0  0  0
  -22.3040   -9.3940   20.3560 C   0  0  0  0  0  3  0  0  0  0  0  0
  -23.0650  -10.5610   20.1710 C   0  0  0  0  0  3  0  0  0  0  0  0
  -21.8940   -7.3170   21.4090 O   0  0  0  0  0  0  0  0  0  0  0  0
  -21.8090   -6.5890   22.5690 C   0  0  0  0  0  0  0  0  0  0  0  0
  -21.3940   -7.1720   23.7870 C   0  0  0  0  0  3  0  0  0  0  0  0
  -21.2560   -6.3730   24.9390 C   0  0  0  0  0  3  0  0  0  0  0  0
  -21.5210   -4.9920   24.8740 C   0  0  0  0  0  0  0  0  0  0  0  0
  -21.9290   -4.4090   23.6620 C   0  0  0  0  0  3  0  0  0  0  0  0
  -22.0710   -5.2060   22.5120 C   0  0  0  0  0  0  0  0  0  0  0  0
  -22.4430   -4.6350   21.3410 F   0  0  0  0  0  0  0  0  0  0  0  0
  -21.3830   -4.2220   25.9780 F   0  0  0  0  0  0  0  0  0  0  0  0
  -23.1610  -13.9140   20.9640 C   0  0  0  0  0  0  0  0  0  0  0  0
  -22.3980  -13.2670   21.8370 N   0  0  0  0  0  0  0  0  0  0  0  0
  -22.7580  -14.9280   20.3950 O   0  0  0  0  0  0  0  0  0  0  0  0
  -22.7350  -12.4470   22.3210 H   0  0  0  0  0  0  0  0  0  0  0  0
  -21.4620  -13.5960   22.0260 H   0  0  0  0  0  0  0  0  0  0  0  0
  -25.8540  -15.4970   20.1860 N   0  0  0  0  0  0  0  0  0  0  0  0
  -25.1020  -16.1750   20.2560 H   0  0  0  0  0  0  0  0  0  0  0  0
  -26.7200  -15.9030   19.8600 H   0  0  0  0  0  0  0  0  0  0  0  0
  -29.6780  -19.7210   18.5490 C   0  0  0  0  0  2  0  0  0  0  0  0
  -30.4270  -20.1200   17.2660 C   0  0  0  0  0  2  0  0  0  0  0  0
  -29.4650  -20.4760   16.1150 C   0  0  0  0  0  2  0  0  0  0  0  0
  -30.1480  -20.5610   14.7350 C   0  0  0  0  0  2  0  0  0  0  0  0
  -31.1800  -21.6120   14.6650 N   0  0  0  0  0  4  0  0  0  0  0  0
  -30.7870  -22.5210   14.8310 H   0  0  0  0  0  0  0  0  0  0  0  0
  -31.5930  -21.6170   13.7490 H   0  0  0  0  0  0  0  0  0  0  0  0
  -31.9140  -21.4430   15.3290 H   0  0  0  0  0  0  0  0  0  0  0  0
  1  2  1  0
  3  4  1  0
  4  7  1  0
  4  1  1  0
  5 53  1  0
  5  2  1  0
  6  3  1  0
  6  5  1  0
  7 10  1  0
  7  8  1  0
  9  7  1  0
 11 12  1  0
 11 10  1  0
 13 24  2  0
 14 12  1  0
 14 19  1  0
 15 23  1  0
 15 25  1  0
 16 22  1  0
 16 18  1  0
 17 23  1  0
 18 19  2  0
 18 17  1  0
 20 14  2  0
 21 20  1  0
 21 16  2  0
 22 15  1  0
 23 13  1  0
 25 27  2  0
 26 25  1  0
 28 26  1  0
 29 38  2  0
 29 34  1  0
 30 26  1  0
 30 34  1  0
 31 30  1  0
 32 33  1  0
 32 31  1  0
 33 29  1  0
 34 35  2  0
 35 36  1  0
 37 36  2  0
 38 37  1  0
 39 13  1  0
 39 44  1  0
 39 40  1  0
 40 43  1  1
 40 41  1  0
 42 40  1  0
 44 47  1  0
 45 49  1  0
 45 44  1  0
 46 45  2  0
 49 48  1  0
 51 49  1  0
 51 52  1  0
 51 50  1  0
 53 62  1  0
 54 62  1  0
 55 60  1  0
 56 57  1  0
 56 55  1  0
 58 57  1  0
 58 67  1  0
 58 59  1  0
 60 54  1  0
 60 59  1  0
 61 54  2  0
 62 63  1  0
 64 65  2  0
 65 66  1  0
 65 84  1  0
 66 69  1  0
 67 64  1  0
 67 68  1  0
 68 66  2  0
 69 70  1  0
 70 71  2  0
 72 75  1  0
 72 71  1  0
 73 72  2  0
 74 73  1  0
 74 69  2  0
 75 76  1  0
 76 77  1  0
 77 78  2  0
 79 78  1  0
 79 83  1  0
 80 79  2  0
 81 76  2  0
 81 80  1  0
 82 81  1  0
 84 85  1  0
 85 88  1  0
 85 87  1  0
 86 84  2  0
 89 90  1  0
 89 64  1  0
 91 89  1  0
 92  6  1  0
 93 92  1  0
 94 93  1  0
 95 94  1  0
 96 95  1  0
 96 97  1  0
 96 99  1  0
 98 96  1  0
M  ISO  4  11 101  12 101  54 100  62 100
M  END
>  <TORSDO>  (94) 
F 25

>  <SCORE>  (94) 
-11.157

>  <name>  (94) 
93

>  <ligand_id>  (94) 
93

>  <original_smiles>  (94) 
[H]c1c([H])c([H])c2c(c1[H])C([H])([H])C([H])([H])C([H])([H])C2([H])N([H])C(=O)C1([H])N(C(=O)C([H])(N([H])C(=O)C([H])(N([H])C([H])([H])[H])C([H])([H])[H])C(C([H])([H])[H])(C([H])([H])[H])C([H])([H])[H])C([H])([H])c2c([H])c(OC([H])([H])C([H])([H])[N+]([H])([H])C3([H])C([H])([H])N(C([H])([H])C([H])([H])C([H])([H])C([H])([H])[N+]([H])([H])[H])C([H])(C([H])([H])N([H])C(=O)N4C([H])([H])C([H])([H])C([H])([H])C([H])(n5nc(-c6c([H])c([H])c(Oc7c([H])c([H])c(F)c([H])c7F)c([H])c6[H])c(C(=O)N([H])[H])c5N([H])[H])C4([H])[H])C([H])([H])C3([H])[H])c([H])c([H])c2C1([H])[H]

>  <smiles>  (94) 
[H]c1c([H])c([H])c2c(c1[H])C([H])([H])C([H])([H])C([H])([H])C2([H])N([H])C(=O)C1([H])N(C(=O)C([H])(N([H])C(=O)C([H])(N([H])C([H])([H])[H])C([H])([H])[H])C(C([H])([H])[H])(C([H])([H])[H])C([H])([H])[H])C([H])([H])c2c([H])c(OC([H])([H])C([H])([H])[N+]([H])([H])C3([H])C([H])([H])N(C([H])([H])C([H])([H])C([H])([H])C([H])([H])[N+]([H])([H])[H])C([H])(C([H])([H])N([H])C(=O)N4C([H])([H])C([H])([H])C([H])([H])C([H])(n5nc(-c6c([H])c([H])c(Oc7c([H])c([H])c(F)c([H])c7F)c([H])c6[H])c(C(=O)N([H])[H])c5N([H])[H])C4([H])[H])C([H])([H])C3([H])[H])c([H])c([H])c2C1([H])[H]

$$$$
94:0:0
     RDKit          3D

 88 96  0  0  1  0  0  0  0  0999 V2000
  -29.3650  -19.7310   20.5820 C   0  0  0  0  0  0  0  0  0  0  0  0
  -29.1310  -21.2620   19.8040 C   0  0  0  0  0  0  0  0  0  0  0  0
  -29.3510  -18.5980   18.3170 C   0  0  0  0  0  2  0  0  0  0  0  0
  -29.7180  -20.0350   17.7850 C   0  0  0  0  0  2  0  0  0  0  0  0
  -29.8760  -18.2850   19.7380 C   0  0  0  0  0  3  0  0  0  0  0  0
  -29.2180  -21.2300   18.5230 N   0  0  0  0  0  0  0  0  0  0  0  0
  -29.1700  -19.6590   21.7980 O   0  0  0  0  0  0  0  0  0  0  0  0
  -30.5120  -15.4050   19.9040 C   0  0  0  0  0  0  0  0  0  0  0  0
  -30.4340  -12.9770   19.0030 C   0  0  0  0  0  2  0  0  0  0  0  0
  -29.4500  -12.8150   17.8180 C   0  0  0  0  0  2  0  0  0  0  0  0
  -28.0250  -12.5400   18.3290 C   0  0  0  0  0  2  0  0  0  0  0  0
  -27.6420  -13.4760   19.5020 C   0  0  0  0  0  3  0  0  0  0  0  0
  -28.7490  -13.5920   20.5730 C   0  0  0  0  0  2  0  0  0  0  0  0
  -29.9510  -14.0980   19.8910 N   0  0  0  0  0  0  0  0  0  0  0  0
  -31.6970  -15.4250   19.5420 O   0  0  0  0  0  0  0  0  0  0  0  0
  -29.7570  -16.6590   20.1180 N   0  0  0  0  0  0  0  0  0  0  0  0
  -28.8420  -16.4510   20.4890 H   0  0  0  0  0  0  0  0  0  0  0  0
  -25.3170  -14.0170   20.4010 C   0  0  0  0  0  0  0  0  0  0  0  0
  -24.2770  -13.2310   20.8100 C   0  0  0  0  0  0  0  0  0  0  0  0
  -24.7400  -11.8820   20.7180 C   0  0  0  0  0  0  0  0  0  0  0  0
  -26.3430  -13.1480   20.0750 N   0  0  0  0  0  0  0  0  0  0  0  0
  -26.0120  -11.8560   20.3340 N   0  0  0  0  0  0  0  0  0  0  0  0
  -24.0230  -10.6140   20.9160 C   0  0  0  0  0  0  0  0  0  0  0  0
  -24.4810   -9.6390   21.8280 C   0  0  0  0  0  3  0  0  0  0  0  0
  -23.7590   -8.4390   22.0150 C   0  0  0  0  0  3  0  0  0  0  0  0
  -22.5660   -8.2070   21.2920 C   0  0  0  0  0  0  0  0  0  0  0  0
  -22.1260   -9.1730   20.3690 C   0  0  0  0  0  3  0  0  0  0  0  0
  -22.8470  -10.3620   20.1790 C   0  0  0  0  0  3  0  0  0  0  0  0
  -21.8130   -7.0610   21.3910 O   0  0  0  0  0  0  0  0  0  0  0  0
  -21.7690   -6.3280   22.5490 C   0  0  0  0  0  0  0  0  0  0  0  0
  -21.2980   -6.8770   23.7620 C   0  0  0  0  0  3  0  0  0  0  0  0
  -21.2040   -6.0670   24.9120 C   0  0  0  0  0  3  0  0  0  0  0  0
  -21.5700   -4.7100   24.8500 C   0  0  0  0  0  0  0  0  0  0  0  0
  -22.0340   -4.1600   23.6420 C   0  0  0  0  0  3  0  0  0  0  0  0
  -22.1300   -4.9670   22.4940 C   0  0  0  0  0  0  0  0  0  0  0  0
  -22.5580   -4.4260   21.3270 F   0  0  0  0  0  0  0  0  0  0  0  0
  -21.4730   -3.9300   25.9520 F   0  0  0  0  0  0  0  0  0  0  0  0
  -22.8980  -13.7010   21.1670 C   0  0  0  0  0  0  0  0  0  0  0  0
  -22.2170  -12.9860   22.0550 N   0  0  0  0  0  0  0  0  0  0  0  0
  -22.4360  -14.7390   20.6940 O   0  0  0  0  0  0  0  0  0  0  0  0
  -22.6060  -12.1460   22.4580 H   0  0  0  0  0  0  0  0  0  0  0  0
  -21.2940  -13.2830   22.3360 H   0  0  0  0  0  0  0  0  0  0  0  0
  -25.4690  -15.3910   20.2470 N   0  0  0  0  0  0  0  0  0  0  0  0
  -24.7030  -16.0360   20.4090 H   0  0  0  0  0  0  0  0  0  0  0  0
  -26.2790  -15.8370   19.8360 H   0  0  0  0  0  0  0  0  0  0  0  0
  -28.8780  -22.8860   20.4860 C   0  0  0  0  0  3  0  0  0  0  0  0
  -28.1690  -24.4170   19.8580 C   0  0  0  0  0  3  0  0  0  0  0  0
  -28.2460  -26.0080   20.2910 O   0  0  0  0  0  0  0  0  0  0  0  0
  -24.6170  -31.9110   23.2300 C   0  0  0  0  0  0  0  0  0  0  0  0
  -27.2250  -27.0870   20.1860 C   0  0  0  0  0  0  0  0  0  0  0  0
  -23.4410  -30.5230   21.5690 C   0  0  0  0  0  3  0  0  0  0  0  0
  -24.9100  -28.9430   20.1380 C   0  0  0  0  0  0  0  0  0  0  0  0
  -26.0060  -30.7530   21.4430 C   0  0  0  0  0  2  0  0  0  0  0  0
  -26.0880  -29.3520   20.7750 C   0  0  0  0  0  0  0  0  0  0  0  0
  -27.2370  -28.4430   20.7770 C   0  0  0  0  0  3  0  0  0  0  0  0
  -26.0200  -26.8300   19.4920 C   0  0  0  0  0  3  0  0  0  0  0  0
  -24.9000  -27.7030   19.4780 C   0  0  0  0  0  3  0  0  0  0  0  0
  -23.6830  -29.8530   20.1880 C   0  0  0  0  0  2  0  0  0  0  0  0
  -24.7090  -31.0890   22.1350 N   0  0  0  0  0  0  0  0  0  0  0  0
  -23.5220  -32.1890   23.7470 O   0  0  0  0  0  0  0  0  0  0  0  0
  -22.7480  -29.5130   22.5220 C   0  0  0  0  0  0  0  0  0  0  0  0
  -21.4180  -29.3500   22.3940 N   0  0  0  0  0  0  0  0  0  0  0  0
  -23.4130  -28.8780   23.3440 O   0  0  0  0  0  0  0  0  0  0  0  0
  -20.9350  -29.9140   21.7090 H   0  0  0  0  0  0  0  0  0  0  0  0
  -18.0330  -28.1460   22.8960 C   0  0  0  0  0  0  0  0  0  0  0  0
  -20.5950  -28.4020   23.1520 C   0  0  0  0  0  3  0  0  0  0  0  0
  -20.6900  -26.9790   22.5530 C   0  0  0  0  0  2  0  0  0  0  0  0
  -19.5830  -26.6770   21.5380 C   0  0  0  0  0  2  0  0  0  0  0  0
  -18.2040  -26.8100   22.1920 C   0  0  0  0  0  2  0  0  0  0  0  0
  -19.1540  -28.9010   23.3330 C   0  0  0  0  0  0  0  0  0  0  0  0
  -18.9370  -30.1490   23.9550 C   0  0  0  0  0  3  0  0  0  0  0  0
  -17.6340  -30.6440   24.1420 C   0  0  0  0  0  3  0  0  0  0  0  0
  -16.5270  -29.8880   23.7180 C   0  0  0  0  0  3  0  0  0  0  0  0
  -16.7270  -28.6400   23.1020 C   0  0  0  0  0  3  0  0  0  0  0  0
  -25.8800  -32.5540   23.8770 C   0  0  0  0  0  3  0  0  0  0  0  0
  -25.5640  -33.9600   24.1870 N   0  0  0  0  0  0  0  0  0  0  0  0
  -25.9050  -35.0090   23.4260 C   0  0  0  0  0  0  0  0  0  0  0  0
  -26.5800  -34.8960   22.4000 O   0  0  0  0  0  0  0  0  0  0  0  0
  -24.9640  -34.1220   24.9820 H   0  0  0  0  0  0  0  0  0  0  0  0
  -24.1880  -36.8150   23.0520 C   0  0  0  0  0  1  0  0  0  0  0  0
  -25.4230  -36.4060   23.8720 C   0  0  0  0  0  3  0  0  0  0  0  0
  -27.5500  -37.2970   24.7170 C   0  0  0  0  0  1  0  0  0  0  0  0
  -26.4620  -37.4540   23.7560 N   0  0  0  0  0  0  0  0  0  0  0  0
  -26.0570  -38.3770   23.8840 H   0  0  0  0  0  0  0  0  0  0  0  0
  -26.3570  -31.8060   25.1840 C   0  0  1  0  0  0  0  0  0  0  0  0
  -25.2330  -31.5930   26.2260 C   0  0  0  0  0  1  0  0  0  0  0  0
  -26.9450  -30.4180   24.8430 C   0  0  0  0  0  1  0  0  0  0  0  0
  -27.4920  -32.6090   25.8630 C   0  0  0  0  0  1  0  0  0  0  0  0
  1  7  2  0
  2 46  1  0
  2  1  1  0
  3  5  1  0
  4  3  1  0
  4  6  1  0
  5 16  1  0
  5  1  1  0
  6  2  2  0
  8 16  1  0
  9 14  1  0
 10 11  1  0
 10  9  1  0
 12 11  1  0
 12 21  1  0
 12 13  1  0
 14  8  1  0
 14 13  1  0
 15  8  2  0
 16 17  1  0
 18 19  2  0
 19 38  1  0
 20 19  1  0
 20 23  1  0
 21 22  1  0
 21 18  1  0
 22 20  2  0
 23 24  1  0
 24 25  2  0
 26 29  1  0
 26 25  1  0
 27 26  2  0
 28 27  1  0
 28 23  2  0
 29 30  1  0
 30 31  1  0
 31 32  2  0
 33 32  1  0
 33 37  1  0
 34 33  2  0
 35 30  2  0
 35 34  1  0
 36 35  1  0
 38 39  1  0
 39 42  1  0
 39 41  1  0
 40 38  2  0
 43 18  1  0
 43 44  1  0
 45 43  1  0
 47 48  1  0
 47 46  2  0
 49 60  2  0
 50 48  1  0
 50 55  1  0
 51 59  1  0
 51 61  1  0
 52 58  1  0
 52 54  1  0
 53 59  1  0
 54 55  2  0
 54 53  1  0
 56 50  2  0
 57 56  1  0
 57 52  2  0
 58 51  1  0
 59 49  1  0
 61 63  2  0
 62 61  1  0
 64 62  1  0
 65 74  2  0
 65 70  1  0
 66 62  1  0
 66 70  1  0
 67 66  1  0
 68 69  1  0
 68 67  1  0
 69 65  1  0
 70 71  2  0
 71 72  1  0
 73 72  2  0
 74 73  1  0
 75 49  1  0
 75 76  1  0
 75 85  1  0
 76 79  1  0
 77 81  1  0
 77 76  1  0
 78 77  2  0
 81 80  1  0
 83 81  1  0
 83 84  1  0
 83 82  1  0
 85 88  1  1
 85 86  1  0
 87 85  1  0
M  ISO  4   8 100  16 100  47 101  48 101
M  END
>  <TORSDO>  (95) 
F 18

>  <SCORE>  (95) 
-15.831

>  <name>  (95) 
94

>  <ligand_id>  (95) 
94

>  <original_smiles>  (95) 
[H]c1c([H])c([H])c2c(c1[H])C([H])([H])C([H])([H])C([H])([H])C2([H])N([H])C(=O)C1([H])N(C(=O)C([H])(N([H])C(=O)C([H])(N([H])C([H])([H])[H])C([H])([H])[H])C(C([H])([H])[H])(C([H])([H])[H])C([H])([H])[H])C([H])([H])c2c([H])c(OC([H])([H])C([H])([H])C3=NC([H])([H])C([H])([H])C([H])(N([H])C(=O)N4C([H])([H])C([H])([H])C([H])([H])C([H])(n5nc(-c6c([H])c([H])c(Oc7c([H])c([H])c(F)c([H])c7F)c([H])c6[H])c(C(=O)N([H])[H])c5N([H])[H])C4([H])[H])C3=O)c([H])c([H])c2C1([H])[H]

>  <smiles>  (95) 
[H]c1c([H])c([H])c2c(c1[H])C([H])([H])C([H])([H])C([H])([H])C2([H])N([H])C(=O)C1([H])N(C(=O)C([H])(N([H])C(=O)C([H])(N([H])C([H])([H])[H])C([H])([H])[H])C(C([H])([H])[H])(C([H])([H])[H])C([H])([H])[H])C([H])([H])c2c([H])c(OC([H])([H])C([H])([H])C3=NC([H])([H])C([H])([H])C([H])(N([H])C(=O)N4C([H])([H])C([H])([H])C([H])([H])C([H])(n5nc(-c6c([H])c([H])c(Oc7c([H])c([H])c(F)c([H])c7F)c([H])c6[H])c(C(=O)N([H])[H])c5N([H])[H])C4([H])[H])C3=O)c([H])c([H])c2C1([H])[H]

$$$$
95:0:0
     RDKit          3D

 89 97  0  0  1  0  0  0  0  0999 V2000
  -26.9780  -22.3670   19.3110 C   0  0  0  0  0  2  0  0  0  0  0  0
  -27.6450  -23.7590   18.9660 C   0  0  0  0  0  2  0  0  0  0  0  0
  -29.0860  -23.4270   20.9390 C   0  0  0  0  0  2  0  0  0  0  0  0
  -27.7770  -21.0180   19.1410 C   0  0  0  0  0  2  0  0  0  0  0  0
  -29.6500  -21.9310   20.3600 C   0  0  0  0  0  2  0  0  0  0  0  0
  -28.0540  -24.5410   20.2470 C   0  0  0  0  0  3  0  0  0  0  0  0
  -28.7960  -20.6270   20.1850 N   0  0  2  0  0  4  0  0  0  0  0  0
  -28.2910  -20.4900   21.0470 H   0  0  0  0  0  0  0  0  0  0  0  0
  -28.2530  -26.1220   20.2210 O   0  0  0  0  0  0  0  0  0  0  0  0
  -24.6200  -31.8890   23.2120 C   0  0  0  0  0  0  0  0  0  0  0  0
  -27.1870  -27.1190   20.1940 C   0  0  0  0  0  0  0  0  0  0  0  0
  -23.4170  -30.4840   21.5870 C   0  0  0  0  0  3  0  0  0  0  0  0
  -24.8610  -28.9000   20.1670 C   0  0  0  0  0  0  0  0  0  0  0  0
  -25.9740  -30.7410   21.4100 C   0  0  0  0  0  2  0  0  0  0  0  0
  -26.0480  -29.3410   20.7620 C   0  0  0  0  0  0  0  0  0  0  0  0
  -27.2130  -28.4720   20.7480 C   0  0  0  0  0  3  0  0  0  0  0  0
  -25.9570  -26.7890   19.5840 C   0  0  0  0  0  3  0  0  0  0  0  0
  -24.8300  -27.6380   19.5620 C   0  0  0  0  0  3  0  0  0  0  0  0
  -23.6350  -29.8020   20.2120 C   0  0  0  0  0  2  0  0  0  0  0  0
  -24.6920  -31.0600   22.1250 N   0  0  0  0  0  0  0  0  0  0  0  0
  -23.5350  -32.1750   23.7410 O   0  0  0  0  0  0  0  0  0  0  0  0
  -22.7400  -29.4820   22.5570 C   0  0  0  0  0  0  0  0  0  0  0  0
  -21.4120  -29.3110   22.4380 N   0  0  0  0  0  0  0  0  0  0  0  0
  -23.4150  -28.8600   23.3810 O   0  0  0  0  0  0  0  0  0  0  0  0
  -20.9230  -29.8640   21.7470 H   0  0  0  0  0  0  0  0  0  0  0  0
  -18.0310  -28.1160   22.9700 C   0  0  0  0  0  0  0  0  0  0  0  0
  -20.5920  -28.3760   23.2160 C   0  0  0  0  0  3  0  0  0  0  0  0
  -20.6870  -26.9430   22.6440 C   0  0  0  0  0  2  0  0  0  0  0  0
  -19.5770  -26.6190   21.6390 C   0  0  0  0  0  2  0  0  0  0  0  0
  -18.2000  -26.7660   22.2940 C   0  0  0  0  0  2  0  0  0  0  0  0
  -19.1540  -28.8780   23.3880 C   0  0  0  0  0  0  0  0  0  0  0  0
  -18.9390  -30.1410   23.9840 C   0  0  0  0  0  3  0  0  0  0  0  0
  -17.6360  -30.6400   24.1640 C   0  0  0  0  0  3  0  0  0  0  0  0
  -16.5280  -29.8750   23.7600 C   0  0  0  0  0  3  0  0  0  0  0  0
  -16.7260  -28.6150   23.1680 C   0  0  0  0  0  3  0  0  0  0  0  0
  -25.8960  -32.5330   23.8320 C   0  0  0  0  0  3  0  0  0  0  0  0
  -25.5790  -33.9320   24.1630 N   0  0  0  0  0  0  0  0  0  0  0  0
  -25.9050  -34.9890   23.4090 C   0  0  0  0  0  0  0  0  0  0  0  0
  -26.5710  -34.8910   22.3760 O   0  0  0  0  0  0  0  0  0  0  0  0
  -24.9850  -34.0810   24.9650 H   0  0  0  0  0  0  0  0  0  0  0  0
  -24.1760  -36.7880   23.0700 C   0  0  0  0  0  1  0  0  0  0  0  0
  -25.4180  -36.3760   23.8750 C   0  0  0  0  0  3  0  0  0  0  0  0
  -27.5530  -37.2610   24.7090 C   0  0  0  0  0  1  0  0  0  0  0  0
  -26.4510  -37.4310   23.7660 N   0  0  0  0  0  0  0  0  0  0  0  0
  -26.0440  -38.3500   23.9180 H   0  0  0  0  0  0  0  0  0  0  0  0
  -26.4120  -31.7700   25.1150 C   0  0  1  0  0  0  0  0  0  0  0  0
  -25.3190  -31.5380   26.1840 C   0  0  0  0  0  1  0  0  0  0  0  0
  -26.9980  -30.3910   24.7370 C   0  0  0  0  0  1  0  0  0  0  0  0
  -27.5620  -32.5710   25.7710 C   0  0  0  0  0  1  0  0  0  0  0  0
  -29.3980  -19.1670   19.7830 C   0  0  0  0  0  2  0  0  0  0  0  0
  -29.8030  -17.8280   20.7660 C   0  0  0  0  0  2  0  0  0  0  0  0
  -30.5120  -15.0810   20.3410 C   0  0  0  0  0  0  0  0  0  0  0  0
  -30.4410  -12.7060   19.4030 C   0  0  0  0  0  2  0  0  0  0  0  0
  -29.5120  -12.6080   18.1690 C   0  0  0  0  0  2  0  0  0  0  0  0
  -28.0500  -12.3840   18.5990 C   0  0  0  0  0  2  0  0  0  0  0  0
  -27.6230  -13.3260   19.7530 C   0  0  0  0  0  3  0  0  0  0  0  0
  -28.6710  -13.3730   20.8840 C   0  0  0  0  0  2  0  0  0  0  0  0
  -29.9310  -13.8100   20.2680 N   0  0  0  0  0  0  0  0  0  0  0  0
  -31.7340  -15.1420   20.1680 O   0  0  0  0  0  0  0  0  0  0  0  0
  -29.6930  -16.2600   20.4020 N   0  0  0  0  0  0  0  0  0  0  0  0
  -28.7240  -15.9840   20.3510 H   0  0  0  0  0  0  0  0  0  0  0  0
  -25.2380  -13.9070   20.4740 C   0  0  0  0  0  0  0  0  0  0  0  0
  -24.1720  -13.1350   20.8390 C   0  0  0  0  0  0  0  0  0  0  0  0
  -24.6390  -11.7840   20.8230 C   0  0  0  0  0  0  0  0  0  0  0  0
  -26.2830  -13.0290   20.2470 N   0  0  0  0  0  0  0  0  0  0  0  0
  -25.9330  -11.7460   20.5270 N   0  0  0  0  0  0  0  0  0  0  0  0
  -23.9110  -10.5230   21.0120 C   0  0  0  0  0  0  0  0  0  0  0  0
  -24.3300   -9.5610   21.9570 C   0  0  0  0  0  3  0  0  0  0  0  0
  -23.6020   -8.3660   22.1350 C   0  0  0  0  0  3  0  0  0  0  0  0
  -22.4370   -8.1240   21.3680 C   0  0  0  0  0  0  0  0  0  0  0  0
  -22.0360   -9.0730   20.4130 C   0  0  0  0  0  3  0  0  0  0  0  0
  -22.7660  -10.2600   20.2330 C   0  0  0  0  0  3  0  0  0  0  0  0
  -21.6800   -6.9800   21.4550 O   0  0  0  0  0  0  0  0  0  0  0  0
  -21.6160   -6.2460   22.6120 C   0  0  0  0  0  0  0  0  0  0  0  0
  -21.1730   -6.8090   23.8280 C   0  0  0  0  0  3  0  0  0  0  0  0
  -21.0570   -6.0010   24.9770 C   0  0  0  0  0  3  0  0  0  0  0  0
  -21.3730   -4.6310   24.9100 C   0  0  0  0  0  0  0  0  0  0  0  0
  -21.8090   -4.0670   23.6980 C   0  0  0  0  0  3  0  0  0  0  0  0
  -21.9270   -4.8720   22.5510 C   0  0  0  0  0  0  0  0  0  0  0  0
  -22.3270   -4.3190   21.3810 F   0  0  0  0  0  0  0  0  0  0  0  0
  -21.2530   -3.8530   26.0110 F   0  0  0  0  0  0  0  0  0  0  0  0
  -22.7710  -13.6120   21.0870 C   0  0  0  0  0  0  0  0  0  0  0  0
  -22.0310  -12.9230   21.9470 N   0  0  0  0  0  0  0  0  0  0  0  0
  -22.3420  -14.6350   20.5530 O   0  0  0  0  0  0  0  0  0  0  0  0
  -22.3910  -12.0950   22.4000 H   0  0  0  0  0  0  0  0  0  0  0  0
  -21.0900  -13.2260   22.1570 H   0  0  0  0  0  0  0  0  0  0  0  0
  -25.3990  -15.2770   20.2850 N   0  0  0  0  0  0  0  0  0  0  0  0
  -24.6210  -15.9220   20.3770 H   0  0  0  0  0  0  0  0  0  0  0  0
  -26.2290  -15.7130   19.9070 H   0  0  0  0  0  0  0  0  0  0  0  0
  2  1  1  0
  2  6  1  0
  4  1  1  0
  4  7  1  0
  5  3  1  0
  6  9  1  0
  6  3  1  0
  7  5  1  0
  7  8  1  1
 10 21  2  0
 11  9  1  0
 11 16  1  0
 12 20  1  0
 12 22  1  0
 13 19  1  0
 13 15  1  0
 14 20  1  0
 15 14  1  0
 16 15  2  0
 17 11  2  0
 18 17  1  0
 18 13  2  0
 19 12  1  0
 20 10  1  0
 22 24  2  0
 23 22  1  0
 25 23  1  0
 26 35  2  0
 26 31  1  0
 27 23  1  0
 27 31  1  0
 28 27  1  0
 29 30  1  0
 29 28  1  0
 30 26  1  0
 31 32  2  0
 32 33  1  0
 34 33  2  0
 35 34  1  0
 36 10  1  0
 36 37  1  0
 36 46  1  0
 37 40  1  0
 38 42  1  0
 38 37  1  0
 39 38  2  0
 42 41  1  0
 44 42  1  0
 44 45  1  0
 44 43  1  0
 46 49  1  1
 46 47  1  0
 48 46  1  0
 50  7  1  0
 50 51  1  0
 52 60  1  0
 53 58  1  0
 54 55  1  0
 54 53  1  0
 56 55  1  0
 56 65  1  0
 56 57  1  0
 58 52  1  0
 58 57  1  0
 59 52  2  0
 60 51  1  0
 61 60  1  0
 62 63  2  0
 63 82  1  0
 64 63  1  0
 64 67  1  0
 65 62  1  0
 65 66  1  0
 66 64  2  0
 67 68  1  0
 68 69  2  0
 70 73  1  0
 70 69  1  0
 71 70  2  0
 72 71  1  0
 72 67  2  0
 73 74  1  0
 74 75  1  0
 75 76  2  0
 77 76  1  0
 77 81  1  0
 78 77  2  0
 79 74  2  0
 79 78  1  0
 80 79  1  0
 82 83  1  0
 83 86  1  0
 83 85  1  0
 84 82  2  0
 87 88  1  0
 87 62  1  0
 89 87  1  0
M  ISO  4   6 101   9 101  52 100  60 100
M  END
>  <TORSDO>  (96) 
F 18

>  <SCORE>  (96) 
-15.388

>  <name>  (96) 
95

>  <ligand_id>  (96) 
95

>  <original_smiles>  (96) 
[H]c1c([H])c([H])c2c(c1[H])C([H])([H])C([H])([H])C([H])([H])C2([H])N([H])C(=O)C1([H])N(C(=O)C([H])(N([H])C(=O)C([H])(N([H])C([H])([H])[H])C([H])([H])[H])C(C([H])([H])[H])(C([H])([H])[H])C([H])([H])[H])C([H])([H])c2c([H])c(OC3([H])C([H])([H])C([H])([H])C([H])([H])[N+]([H])(C([H])([H])C([H])([H])N([H])C(=O)N4C([H])([H])C([H])([H])C([H])([H])C([H])(n5nc(-c6c([H])c([H])c(Oc7c([H])c([H])c(F)c([H])c7F)c([H])c6[H])c(C(=O)N([H])[H])c5N([H])[H])C4([H])[H])C([H])([H])C3([H])[H])c([H])c([H])c2C1([H])[H]

>  <smiles>  (96) 
[H]c1c([H])c([H])c2c(c1[H])C([H])([H])C([H])([H])C([H])([H])C2([H])N([H])C(=O)C1([H])N(C(=O)C([H])(N([H])C(=O)C([H])(N([H])C([H])([H])[H])C([H])([H])[H])C(C([H])([H])[H])(C([H])([H])[H])C([H])([H])[H])C([H])([H])c2c([H])c(OC3([H])C([H])([H])C([H])([H])C([H])([H])[N+]([H])(C([H])([H])C([H])([H])N([H])C(=O)N4C([H])([H])C([H])([H])C([H])([H])C([H])(n5nc(-c6c([H])c([H])c(Oc7c([H])c([H])c(F)c([H])c7F)c([H])c6[H])c(C(=O)N([H])[H])c5N([H])[H])C4([H])[H])C([H])([H])C3([H])[H])c([H])c([H])c2C1([H])[H]

$$$$
96:0:0
     RDKit          3D

 92100  0  0  1  0  0  0  0  0999 V2000
  -31.9980  -22.2500   18.5300 C   0  0  0  0  0  2  0  0  0  0  0  0
  -30.7650  -23.0520   18.0740 C   0  0  0  0  0  2  0  0  0  0  0  0
  -32.0640  -22.0920   20.0600 C   0  0  0  0  0  2  0  0  0  0  0  0
  -29.5930  -21.7370   19.9270 C   0  0  0  0  0  2  0  0  0  0  0  0
  -29.6280  -23.0690   19.1230 C   0  0  0  0  0  3  0  0  0  0  0  0
  -30.8770  -21.3730   20.6030 N   0  0  1  0  0  4  0  0  0  0  0  0
  -30.7960  -21.7100   21.5520 H   0  0  0  0  0  0  0  0  0  0  0  0
  -29.5920  -24.3750   19.9760 C   0  0  0  0  0  2  0  0  0  0  0  0
  -28.3370  -25.2240   19.6810 C   0  0  0  0  0  2  0  0  0  0  0  0
  -28.3750  -26.5490   20.2310 O   0  0  0  0  0  0  0  0  0  0  0  0
  -24.5810  -31.7850   23.2240 C   0  0  0  0  0  0  0  0  0  0  0  0
  -27.2020  -27.2850   20.1910 C   0  0  0  0  0  0  0  0  0  0  0  0
  -23.3720  -30.3820   21.5870 C   0  0  0  0  0  3  0  0  0  0  0  0
  -24.8170  -28.8250   20.1820 C   0  0  0  0  0  0  0  0  0  0  0  0
  -25.9030  -30.7120   21.4040 C   0  0  0  0  0  2  0  0  0  0  0  0
  -25.9780  -29.3350   20.7760 C   0  0  0  0  0  0  0  0  0  0  0  0
  -27.1690  -28.5710   20.7820 C   0  0  0  0  0  3  0  0  0  0  0  0
  -26.0150  -26.8000   19.5830 C   0  0  0  0  0  3  0  0  0  0  0  0
  -24.8300  -27.5560   19.5860 C   0  0  0  0  0  3  0  0  0  0  0  0
  -23.5820  -29.6940   20.2140 C   0  0  0  0  0  2  0  0  0  0  0  0
  -24.6380  -30.9760   22.1290 N   0  0  0  0  0  0  0  0  0  0  0  0
  -23.4980  -32.0710   23.7550 O   0  0  0  0  0  0  0  0  0  0  0  0
  -22.7060  -29.3720   22.5510 C   0  0  0  0  0  0  0  0  0  0  0  0
  -21.3790  -29.2090   22.4230 N   0  0  0  0  0  0  0  0  0  0  0  0
  -23.3810  -28.7390   23.3670 O   0  0  0  0  0  0  0  0  0  0  0  0
  -20.8980  -29.7710   21.7350 H   0  0  0  0  0  0  0  0  0  0  0  0
  -17.9850  -28.0850   22.9380 C   0  0  0  0  0  0  0  0  0  0  0  0
  -20.5480  -28.2870   23.1960 C   0  0  0  0  0  3  0  0  0  0  0  0
  -20.6170  -26.8550   22.6170 C   0  0  0  0  0  2  0  0  0  0  0  0
  -19.5030  -26.5590   21.6080 C   0  0  0  0  0  2  0  0  0  0  0  0
  -18.1280  -26.7330   22.2600 C   0  0  0  0  0  2  0  0  0  0  0  0
  -19.1220  -28.8210   23.3630 C   0  0  0  0  0  0  0  0  0  0  0  0
  -18.9340  -30.0890   23.9560 C   0  0  0  0  0  3  0  0  0  0  0  0
  -17.6410  -30.6190   24.1280 C   0  0  0  0  0  3  0  0  0  0  0  0
  -16.5180  -29.8780   23.7190 C   0  0  0  0  0  3  0  0  0  0  0  0
  -16.6910  -28.6130   23.1300 C   0  0  0  0  0  3  0  0  0  0  0  0
  -25.8690  -32.4080   23.8470 C   0  0  0  0  0  3  0  0  0  0  0  0
  -25.5680  -33.8070   24.1750 N   0  0  0  0  0  0  0  0  0  0  0  0
  -25.9050  -34.8560   23.4120 C   0  0  0  0  0  0  0  0  0  0  0  0
  -26.5750  -34.7470   22.3810 O   0  0  0  0  0  0  0  0  0  0  0  0
  -24.9770  -33.9670   24.9770 H   0  0  0  0  0  0  0  0  0  0  0  0
  -24.1860  -36.6550   23.0490 C   0  0  0  0  0  1  0  0  0  0  0  0
  -25.4220  -36.2470   23.8660 C   0  0  0  0  0  3  0  0  0  0  0  0
  -27.5570  -37.1240   24.7030 C   0  0  0  0  0  1  0  0  0  0  0  0
  -26.4610  -37.2950   23.7540 N   0  0  0  0  0  0  0  0  0  0  0  0
  -26.0590  -38.2180   23.8950 H   0  0  0  0  0  0  0  0  0  0  0  0
  -26.3810  -31.6330   25.1230 C   0  0  1  0  0  0  0  0  0  0  0  0
  -25.2840  -31.4000   26.1890 C   0  0  0  0  0  1  0  0  0  0  0  0
  -26.9570  -30.2540   24.7290 C   0  0  0  0  0  1  0  0  0  0  0  0
  -27.5330  -32.4220   25.7890 C   0  0  0  0  0  1  0  0  0  0  0  0
  -31.1080  -19.8990   20.7240 C   0  0  0  0  0  2  0  0  0  0  0  0
  -29.9810  -19.1300   21.4590 C   0  0  0  0  0  2  0  0  0  0  0  0
  -30.2590  -17.6280   21.7230 C   0  0  0  0  0  2  0  0  0  0  0  0
  -30.3200  -16.7530   20.4550 C   0  0  0  0  0  2  0  0  0  0  0  0
  -30.7980  -14.3200   20.1500 C   0  0  0  0  0  0  0  0  0  0  0  0
  -30.3800  -12.2310   18.9200 C   0  0  0  0  0  2  0  0  0  0  0  0
  -29.3870  -12.5390   17.7780 C   0  0  0  0  0  2  0  0  0  0  0  0
  -27.9310  -12.4260   18.2730 C   0  0  0  0  0  2  0  0  0  0  0  0
  -27.6870  -13.2010   19.5950 C   0  0  0  0  0  3  0  0  0  0  0  0
  -28.7860  -12.8760   20.6350 C   0  0  0  0  0  2  0  0  0  0  0  0
  -30.0960  -13.1620   20.0210 N   0  0  0  0  0  0  0  0  0  0  0  0
  -31.8900  -14.5120   19.6090 O   0  0  0  0  0  0  0  0  0  0  0  0
  -30.1240  -15.3240   20.7350 N   0  0  0  0  0  0  0  0  0  0  0  0
  -29.2490  -15.0640   21.1660 H   0  0  0  0  0  0  0  0  0  0  0  0
  -25.3260  -13.8460   20.3990 C   0  0  0  0  0  0  0  0  0  0  0  0
  -24.2610  -13.0890   20.8070 C   0  0  0  0  0  0  0  0  0  0  0  0
  -24.6970  -11.7300   20.7490 C   0  0  0  0  0  0  0  0  0  0  0  0
  -26.3480  -12.9480   20.1230 N   0  0  0  0  0  0  0  0  0  0  0  0
  -25.9730  -11.6710   20.3900 N   0  0  0  0  0  0  0  0  0  0  0  0
  -23.9590  -10.4780   20.9630 C   0  0  0  0  0  0  0  0  0  0  0  0
  -24.4070   -9.5060   21.8850 C   0  0  0  0  0  3  0  0  0  0  0  0
  -23.6720   -8.3180   22.0850 C   0  0  0  0  0  3  0  0  0  0  0  0
  -22.4750   -8.0940   21.3630 C   0  0  0  0  0  0  0  0  0  0  0  0
  -22.0460   -9.0550   20.4310 C   0  0  0  0  0  3  0  0  0  0  0  0
  -22.7810  -10.2350   20.2280 C   0  0  0  0  0  3  0  0  0  0  0  0
  -21.7090   -6.9580   21.4740 O   0  0  0  0  0  0  0  0  0  0  0  0
  -21.6740   -6.2230   22.6320 C   0  0  0  0  0  0  0  0  0  0  0  0
  -21.2750   -6.7900   23.8630 C   0  0  0  0  0  3  0  0  0  0  0  0
  -21.1870   -5.9820   25.0140 C   0  0  0  0  0  3  0  0  0  0  0  0
  -21.4880   -4.6090   24.9370 C   0  0  0  0  0  0  0  0  0  0  0  0
  -21.8800   -4.0420   23.7110 C   0  0  0  0  0  3  0  0  0  0  0  0
  -21.9700   -4.8470   22.5620 C   0  0  0  0  0  0  0  0  0  0  0  0
  -22.3280   -4.2920   21.3790 F   0  0  0  0  0  0  0  0  0  0  0  0
  -21.3950   -3.8300   26.0400 F   0  0  0  0  0  0  0  0  0  0  0  0
  -22.8840  -13.5870   21.1410 C   0  0  0  0  0  0  0  0  0  0  0  0
  -22.1810  -12.8960   22.0320 N   0  0  0  0  0  0  0  0  0  0  0  0
  -22.4410  -14.6230   20.6460 O   0  0  0  0  0  0  0  0  0  0  0  0
  -22.5530  -12.0590   22.4550 H   0  0  0  0  0  0  0  0  0  0  0  0
  -21.2590  -13.2110   22.2980 H   0  0  0  0  0  0  0  0  0  0  0  0
  -25.5070  -15.2140   20.2220 N   0  0  0  0  0  0  0  0  0  0  0  0
  -24.7590  -15.8830   20.3640 H   0  0  0  0  0  0  0  0  0  0  0  0
  -26.3520  -15.6370   19.8600 H   0  0  0  0  0  0  0  0  0  0  0  0
  1  3  1  0
  2  1  1  0
  2  5  1  0
  3  6  1  0
  4  6  1  0
  5  4  1  0
  5  8  1  0
  6 51  1  0
  6  7  1  1
  9  8  1  0
  9 10  1  0
 11 22  2  0
 12 10  1  0
 12 17  1  0
 13 21  1  0
 13 23  1  0
 14 20  1  0
 14 16  1  0
 15 21  1  0
 16 17  2  0
 16 15  1  0
 18 19  1  0
 18 12  2  0
 19 14  2  0
 20 13  1  0
 21 11  1  0
 23 25  2  0
 24 23  1  0
 26 24  1  0
 27 36  2  0
 27 32  1  0
 28 24  1  0
 28 32  1  0
 29 28  1  0
 30 31  1  0
 30 29  1  0
 31 27  1  0
 32 33  2  0
 33 34  1  0
 35 34  2  0
 36 35  1  0
 37 11  1  0
 37 38  1  0
 37 47  1  0
 38 41  1  0
 39 43  1  0
 39 38  1  0
 40 39  2  0
 43 42  1  0
 45 43  1  0
 45 46  1  0
 45 44  1  0
 47 50  1  1
 47 48  1  0
 49 47  1  0
 51 52  1  0
 52 53  1  0
 54 63  1  0
 54 53  1  0
 55 63  1  0
 56 61  1  0
 57 58  1  0
 57 56  1  0
 59 58  1  0
 59 68  1  0
 59 60  1  0
 61 55  1  0
 61 60  1  0
 62 55  2  0
 63 64  1  0
 65 66  2  0
 66 85  1  0
 67 66  1  0
 67 70  1  0
 68 69  1  0
 68 65  1  0
 69 67  2  0
 70 71  1  0
 71 72  2  0
 73 76  1  0
 73 72  1  0
 74 73  2  0
 75 74  1  0
 75 70  2  0
 76 77  1  0
 77 78  1  0
 78 79  2  0
 80 79  1  0
 80 84  1  0
 81 80  2  0
 82 77  2  0
 82 81  1  0
 83 82  1  0
 85 86  1  0
 86 89  1  0
 86 88  1  0
 87 85  2  0
 90 91  1  0
 90 65  1  0
 92 90  1  0
M  ISO  4   9 101  10 101  55 100  63 100
M  END
>  <TORSDO>  (97) 
F 22

>  <SCORE>  (97) 
-12.671

>  <name>  (97) 
96

>  <ligand_id>  (97) 
96

>  <original_smiles>  (97) 
[H]c1c([H])c([H])c2c(c1[H])C([H])([H])C([H])([H])C([H])([H])C2([H])N([H])C(=O)C1([H])N(C(=O)C([H])(N([H])C(=O)C([H])(N([H])C([H])([H])[H])C([H])([H])[H])C(C([H])([H])[H])(C([H])([H])[H])C([H])([H])[H])C([H])([H])c2c([H])c(OC([H])([H])C([H])([H])C3([H])C([H])([H])C([H])([H])C([H])([H])[N+]([H])(C([H])([H])C([H])([H])C([H])([H])C([H])([H])N([H])C(=O)N4C([H])([H])C([H])([H])C([H])([H])C([H])(n5nc(-c6c([H])c([H])c(Oc7c([H])c([H])c(F)c([H])c7F)c([H])c6[H])c(C(=O)N([H])[H])c5N([H])[H])C4([H])[H])C3([H])[H])c([H])c([H])c2C1([H])[H]

>  <smiles>  (97) 
[H]c1c([H])c([H])c2c(c1[H])C([H])([H])C([H])([H])C([H])([H])C2([H])N([H])C(=O)C1([H])N(C(=O)C([H])(N([H])C(=O)C([H])(N([H])C([H])([H])[H])C([H])([H])[H])C(C([H])([H])[H])(C([H])([H])[H])C([H])([H])[H])C([H])([H])c2c([H])c(OC([H])([H])C([H])([H])C3([H])C([H])([H])C([H])([H])C([H])([H])[N+]([H])(C([H])([H])C([H])([H])C([H])([H])C([H])([H])N([H])C(=O)N4C([H])([H])C([H])([H])C([H])([H])C([H])(n5nc(-c6c([H])c([H])c(Oc7c([H])c([H])c(F)c([H])c7F)c([H])c6[H])c(C(=O)N([H])[H])c5N([H])[H])C4([H])[H])C3([H])[H])c([H])c([H])c2C1([H])[H]

$$$$
97:0:0
     RDKit          3D

 96105  0  0  1  0  0  0  0  0999 V2000
  -29.8910  -19.4490   21.8470 C   0  0  0  0  0  3  0  0  0  0  0  0
  -28.3140  -19.9070   20.1650 C   0  0  0  0  0  2  0  0  0  0  0  0
  -28.9540  -18.5320   19.9450 C   0  0  0  0  0  2  0  0  0  0  0  0
  -29.2210  -20.6130   21.1910 C   0  0  0  0  0  3  0  0  0  0  0  0
  -29.7280  -18.3000   21.1650 N   0  0  0  0  0  0  0  0  0  0  0  0
  -30.5960  -19.5830   22.9850 N   0  0  0  0  0  0  0  0  0  0  0  0
  -31.0360  -18.8020   23.4500 H   0  0  0  0  0  0  0  0  0  0  0  0
  -30.6490  -20.4820   23.4500 H   0  0  0  0  0  0  0  0  0  0  0  0
  -30.3170  -21.5260   20.5820 C   0  0  0  0  0  2  0  0  0  0  0  0
  -31.2890  -23.8820   20.3140 C   0  0  0  0  0  2  0  0  0  0  0  0
  -28.8240  -23.5710   20.7970 C   0  0  0  0  0  2  0  0  0  0  0  0
  -31.1660  -25.3820   20.6660 C   0  0  0  0  0  2  0  0  0  0  0  0
  -28.7350  -25.0510   21.1820 C   0  0  0  0  0  2  0  0  0  0  0  0
  -30.2360  -23.0030   21.0300 C   0  0  0  0  0  3  0  0  0  0  0  0
  -29.7460  -25.8950   20.3770 C   0  0  0  0  0  3  0  0  0  0  0  0
  -29.6040  -27.2860   20.7050 O   0  0  0  0  0  0  0  0  0  0  0  0
  -24.8020  -31.8270   23.3620 C   0  0  0  0  0  0  0  0  0  0  0  0
  -28.3480  -27.8510   20.5550 C   0  0  0  0  0  0  0  0  0  0  0  0
  -23.9900  -30.3260   21.5770 C   0  0  0  0  0  3  0  0  0  0  0  0
  -25.7860  -29.0340   20.3170 C   0  0  0  0  0  0  0  0  0  0  0  0
  -26.4560  -31.0150   21.6810 C   0  0  0  0  0  2  0  0  0  0  0  0
  -26.7920  -29.6860   21.0390 C   0  0  0  0  0  0  0  0  0  0  0  0
  -28.0750  -29.1030   21.1540 C   0  0  0  0  0  3  0  0  0  0  0  0
  -27.3140  -27.2160   19.8240 C   0  0  0  0  0  3  0  0  0  0  0  0
  -26.0390  -27.7960   19.7090 C   0  0  0  0  0  3  0  0  0  0  0  0
  -24.4430  -29.7190   20.2250 C   0  0  0  0  0  2  0  0  0  0  0  0
  -25.0930  -31.0700   22.2670 N   0  0  0  0  0  0  0  0  0  0  0  0
  -23.6370  -31.9430   23.7720 O   0  0  0  0  0  0  0  0  0  0  0  0
  -23.3770  -29.2010   22.4420 C   0  0  0  0  0  0  0  0  0  0  0  0
  -22.0910  -28.8980   22.2000 N   0  0  0  0  0  0  0  0  0  0  0  0
  -24.0560  -28.6040   23.2800 O   0  0  0  0  0  0  0  0  0  0  0  0
  -21.5990  -29.4310   21.4980 H   0  0  0  0  0  0  0  0  0  0  0  0
  -18.7970  -27.4300   22.4480 C   0  0  0  0  0  0  0  0  0  0  0  0
  -21.3140  -27.8520   22.8660 C   0  0  0  0  0  3  0  0  0  0  0  0
  -21.5520  -26.4760   22.2030 C   0  0  0  0  0  2  0  0  0  0  0  0
  -20.5240  -26.1440   21.1170 C   0  0  0  0  0  2  0  0  0  0  0  0
  -19.1060  -26.1440   21.6980 C   0  0  0  0  0  2  0  0  0  0  0  0
  -19.8340  -28.2380   22.9840 C   0  0  0  0  0  0  0  0  0  0  0  0
  -19.4930  -29.4400   23.6420 C   0  0  0  0  0  3  0  0  0  0  0  0
  -18.1490  -29.8350   23.7730 C   0  0  0  0  0  3  0  0  0  0  0  0
  -17.1270  -29.0210   23.2560 C   0  0  0  0  0  3  0  0  0  0  0  0
  -17.4500  -27.8200   22.5990 C   0  0  0  0  0  3  0  0  0  0  0  0
  -25.9130  -32.6040   24.1360 C   0  0  0  0  0  3  0  0  0  0  0  0
  -26.2830  -31.9430   25.5200 C   0  0  1  0  0  0  0  0  0  0  0  0
  -25.0560  -31.6310   26.4050 C   0  0  0  0  0  1  0  0  0  0  0  0
  -27.0590  -30.6220   25.3030 C   0  0  0  0  0  1  0  0  0  0  0  0
  -27.2210  -32.8820   26.3160 C   0  0  0  0  0  1  0  0  0  0  0  0
  -25.4390  -33.9820   24.3280 N   0  0  0  0  0  0  0  0  0  0  0  0
  -25.7870  -35.0190   23.5540 C   0  0  0  0  0  0  0  0  0  0  0  0
  -26.6090  -34.9240   22.6380 O   0  0  0  0  0  0  0  0  0  0  0  0
  -24.7230  -34.1250   25.0250 H   0  0  0  0  0  0  0  0  0  0  0  0
  -23.9670  -36.6010   22.8480 C   0  0  0  0  0  1  0  0  0  0  0  0
  -25.1160  -36.3750   23.8430 C   0  0  0  0  0  3  0  0  0  0  0  0
  -27.0360  -37.5080   24.8720 C   0  0  0  0  0  1  0  0  0  0  0  0
  -26.0540  -37.5170   23.7920 N   0  0  0  0  0  0  0  0  0  0  0  0
  -25.5480  -38.3990   23.8290 H   0  0  0  0  0  0  0  0  0  0  0  0
  -30.3240  -16.9870   21.4610 C   0  0  0  0  0  2  0  0  0  0  0  0
  -31.0500  -16.4370   20.2220 C   0  0  0  0  0  2  0  0  0  0  0  0
  -32.2270  -14.3650   19.7180 C   0  0  0  0  0  0  0  0  0  0  0  0
  -31.6250  -12.0920   18.9830 C   0  0  0  0  0  2  0  0  0  0  0  0
  -30.6470  -12.1210   17.7940 C   0  0  0  0  0  2  0  0  0  0  0  0
  -29.1890  -12.2110   18.2810 C   0  0  0  0  0  2  0  0  0  0  0  0
  -28.9830  -13.3340   19.3290 C   0  0  0  0  0  3  0  0  0  0  0  0
  -30.0630  -13.2650   20.4340 C   0  0  0  0  0  2  0  0  0  0  0  0
  -31.3920  -13.2950   19.7960 N   0  0  0  0  0  0  0  0  0  0  0  0
  -33.2430  -14.3870   19.0210 O   0  0  0  0  0  0  0  0  0  0  0  0
  -31.9930  -15.3720   20.5640 N   0  0  0  0  0  0  0  0  0  0  0  0
  -32.8710  -15.7690   20.8670 H   0  0  0  0  0  0  0  0  0  0  0  0
  -26.8010  -14.3540   20.2360 C   0  0  0  0  0  0  0  0  0  0  0  0
  -25.6250  -13.7810   20.6370 C   0  0  0  0  0  0  0  0  0  0  0  0
  -25.8070  -12.3710   20.5120 C   0  0  0  0  0  0  0  0  0  0  0  0
  -27.6340  -13.3010   19.8870 N   0  0  0  0  0  0  0  0  0  0  0  0
  -27.0400  -12.1010   20.1080 N   0  0  0  0  0  0  0  0  0  0  0  0
  -24.8610  -11.2630   20.6930 C   0  0  0  0  0  0  0  0  0  0  0  0
  -25.1650  -10.1570   21.5150 C   0  0  0  0  0  3  0  0  0  0  0  0
  -24.2300   -9.1120   21.6870 C   0  0  0  0  0  3  0  0  0  0  0  0
  -22.9750   -9.1700   21.0360 C   0  0  0  0  0  0  0  0  0  0  0  0
  -22.6860  -10.2640   20.1990 C   0  0  0  0  0  3  0  0  0  0  0  0
  -23.6210  -11.2980   20.0250 C   0  0  0  0  0  3  0  0  0  0  0  0
  -22.0150   -8.1900   21.1300 O   0  0  0  0  0  0  0  0  0  0  0  0
  -21.9160   -7.3810   22.2330 C   0  0  0  0  0  0  0  0  0  0  0  0
  -21.7260   -7.9080   23.5290 C   0  0  0  0  0  3  0  0  0  0  0  0
  -21.5530   -7.0380   24.6240 C   0  0  0  0  0  3  0  0  0  0  0  0
  -21.5660   -5.6440   24.4250 C   0  0  0  0  0  0  0  0  0  0  0  0
  -21.7540   -5.1180   23.1360 C   0  0  0  0  0  3  0  0  0  0  0  0
  -21.9210   -5.9840   22.0410 C   0  0  0  0  0  0  0  0  0  0  0  0
  -22.0780   -5.4690   20.7980 F   0  0  0  0  0  0  0  0  0  0  0  0
  -21.3930   -4.8110   25.4780 F   0  0  0  0  0  0  0  0  0  0  0  0
  -24.3630  -14.5010   21.0230 C   0  0  0  0  0  0  0  0  0  0  0  0
  -23.5680  -13.9120   21.9090 N   0  0  0  0  0  0  0  0  0  0  0  0
  -24.0930  -15.6150   20.5730 O   0  0  0  0  0  0  0  0  0  0  0  0
  -23.7900  -13.0100   22.3060 H   0  0  0  0  0  0  0  0  0  0  0  0
  -22.7270  -14.3830   22.2090 H   0  0  0  0  0  0  0  0  0  0  0  0
  -27.2170  -15.6780   20.1170 N   0  0  0  0  0  0  0  0  0  0  0  0
  -26.5910  -16.4520   20.3150 H   0  0  0  0  0  0  0  0  0  0  0  0
  -28.0970  -15.9710   19.7200 H   0  0  0  0  0  0  0  0  0  0  0  0
  1  6  1  0
  2  4  1  0
  3  2  1  0
  3  5  1  0
  4  9  1  0
  4  1  1  0
  5 57  1  0
  5  1  1  0
  6  8  1  0
  6  7  1  0
 10 12  1  0
 10 14  1  0
 11 14  1  0
 11 13  1  0
 14  9  1  0
 15 12  1  0
 15 16  1  0
 15 13  1  0
 17 28  2  0
 18 16  1  0
 18 23  1  0
 19 27  1  0
 19 29  1  0
 20 22  1  0
 21 27  1  0
 22 23  2  0
 22 21  1  0
 24 18  2  0
 25 24  1  0
 25 20  2  0
 26 20  1  0
 26 19  1  0
 27 17  1  0
 29 31  2  0
 30 29  1  0
 32 30  1  0
 33 42  2  0
 33 38  1  0
 34 30  1  0
 34 38  1  0
 35 34  1  0
 36 37  1  0
 36 35  1  0
 37 33  1  0
 38 39  2  0
 39 40  1  0
 41 40  2  0
 42 41  1  0
 43 17  1  0
 43 48  1  0
 43 44  1  0
 44 47  1  1
 44 45  1  0
 46 44  1  0
 48 51  1  0
 49 53  1  0
 49 48  1  0
 50 49  2  0
 53 52  1  0
 55 56  1  0
 55 53  1  0
 55 54  1  0
 58 67  1  0
 58 57  1  0
 59 65  1  0
 59 67  1  0
 60 65  1  0
 61 62  1  0
 61 60  1  0
 63 62  1  0
 63 72  1  0
 63 64  1  0
 65 64  1  0
 66 59  2  0
 67 68  1  0
 69 70  2  0
 70 89  1  0
 71 70  1  0
 71 74  1  0
 72 73  1  0
 72 69  1  0
 73 71  2  0
 74 75  1  0
 75 76  2  0
 77 80  1  0
 77 76  1  0
 78 77  2  0
 79 78  1  0
 79 74  2  0
 80 81  1  0
 81 82  1  0
 82 83  2  0
 84 83  1  0
 84 88  1  0
 85 84  2  0
 86 81  2  0
 86 85  1  0
 87 86  1  0
 89 90  1  0
 90 93  1  0
 90 92  1  0
 91 89  2  0
 94 69  1  0
 94 95  1  0
 96 94  1  0
M  ISO  4  15 101  16 101  59 100  67 100
M  END
>  <TORSDO>  (98) 
F 20

>  <SCORE>  (98) 
-11.292

>  <name>  (98) 
97

>  <ligand_id>  (98) 
97

>  <original_smiles>  (98) 
[H]c1c([H])c([H])c2c(c1[H])C([H])([H])C([H])([H])C([H])([H])C2([H])N([H])C(=O)C1([H])N(C(=O)C([H])(N([H])C(=O)C([H])(N([H])C([H])([H])[H])C([H])([H])[H])C(C([H])([H])[H])(C([H])([H])[H])C([H])([H])[H])C([H])([H])c2c([H])c(OC3([H])C([H])([H])C([H])([H])C([H])(C([H])([H])C4([H])C(=[N+]([H])[H])N(C([H])([H])C([H])([H])N([H])C(=O)N5C([H])([H])C([H])([H])C([H])([H])C([H])(n6nc(-c7c([H])c([H])c(Oc8c([H])c([H])c(F)c([H])c8F)c([H])c7[H])c(C(=O)N([H])[H])c6N([H])[H])C5([H])[H])C([H])([H])C4([H])[H])C([H])([H])C3([H])[H])c([H])c([H])c2C1([H])[H]

>  <smiles>  (98) 
[H]c1c([H])c([H])c2c(c1[H])C([H])([H])C([H])([H])C([H])([H])C2([H])N([H])C(=O)C1([H])N(C(=O)C([H])(N([H])C(=O)C([H])(N([H])C([H])([H])[H])C([H])([H])[H])C(C([H])([H])[H])(C([H])([H])[H])C([H])([H])[H])C([H])([H])c2c([H])c(OC3([H])C([H])([H])C([H])([H])C([H])(C([H])([H])C4([H])C(=[N+]([H])[H])N(C([H])([H])C([H])([H])N([H])C(=O)N5C([H])([H])C([H])([H])C([H])([H])C([H])(n6nc(-c7c([H])c([H])c(Oc8c([H])c([H])c(F)c([H])c8F)c([H])c7[H])c(C(=O)N([H])[H])c6N([H])[H])C5([H])[H])C([H])([H])C4([H])[H])C([H])([H])C3([H])[H])c([H])c([H])c2C1([H])[H]

$$$$
