0:0:0
     RDKit          3D

 92100  0  0  1  0  0  0  0  0999 V2000
  -28.7780  -21.3220   20.2570 N   0  0  0  0  0  0  0  0  0  0  0  0
  -30.7510  -15.5920   20.5820 C   0  0  0  0  0  0  0  0  0  0  0  0
  -30.8610  -13.1090   19.8200 C   0  0  0  0  0  2  0  0  0  0  0  0
  -30.0330  -12.7890   18.5520 C   0  0  0  0  0  2  0  0  0  0  0  0
  -28.5680  -12.4920   18.9200 C   0  0  0  0  0  2  0  0  0  0  0  0
  -28.0090  -13.5030   19.9500 C   0  0  0  0  0  3  0  0  0  0  0  0
  -28.9760  -13.7630   21.1230 C   0  0  0  0  0  2  0  0  0  0  0  0
  -30.2150  -14.2780   20.5220 N   0  0  0  0  0  0  0  0  0  0  0  0
  -31.9910  -15.5890   20.5830 O   0  0  0  0  0  0  0  0  0  0  0  0
  -30.6390  -18.3440   18.2610 C   0  0  0  0  0  2  0  0  0  0  0  0
  -29.8850  -19.6710   18.5540 C   0  0  0  0  0  2  0  0  0  0  0  0
  -29.9210  -17.0490   18.7470 C   0  0  0  0  0  2  0  0  0  0  0  0
  -29.5820  -18.3190   20.8100 C   0  0  0  0  0  2  0  0  0  0  0  0
  -29.6590  -19.9370   20.0550 C   0  0  0  0  0  3  0  0  0  0  0  0
  -30.0140  -16.8380   20.2010 N   0  0  0  0  0  0  0  0  0  0  0  0
  -25.5940  -14.0170   20.5750 C   0  0  0  0  0  0  0  0  0  0  0  0
  -24.5270  -13.2200   20.8830 C   0  0  0  0  0  0  0  0  0  0  0  0
  -25.0240  -11.8800   20.8930 C   0  0  0  0  0  0  0  0  0  0  0  0
  -26.6660  -13.1620   20.3980 N   0  0  0  0  0  0  0  0  0  0  0  0
  -26.3320  -11.8720   20.6620 N   0  0  0  0  0  0  0  0  0  0  0  0
  -24.3130  -10.6040   21.0480 C   0  0  0  0  0  0  0  0  0  0  0  0
  -24.6720   -9.6730   22.0480 C   0  0  0  0  0  3  0  0  0  0  0  0
  -23.9560   -8.4650   22.1910 C   0  0  0  0  0  3  0  0  0  0  0  0
  -22.8710   -8.1760   21.3310 C   0  0  0  0  0  0  0  0  0  0  0  0
  -22.5310   -9.0970   20.3250 C   0  0  0  0  0  3  0  0  0  0  0  0
  -23.2470  -10.2960   20.1810 C   0  0  0  0  0  3  0  0  0  0  0  0
  -22.1360   -7.0160   21.3780 O   0  0  0  0  0  0  0  0  0  0  0  0
  -21.9340   -6.3380   22.5530 C   0  0  0  0  0  0  0  0  0  0  0  0
  -21.2630   -6.9280   23.6470 C   0  0  0  0  0  3  0  0  0  0  0  0
  -21.0150   -6.1730   24.8120 C   0  0  0  0  0  3  0  0  0  0  0  0
  -21.4310   -4.8300   24.8820 C   0  0  0  0  0  0  0  0  0  0  0  0
  -22.0940   -4.2400   23.7920 C   0  0  0  0  0  3  0  0  0  0  0  0
  -22.3440   -4.9920   22.6300 C   0  0  0  0  0  0  0  0  0  0  0  0
  -22.9650   -4.4110   21.5750 F   0  0  0  0  0  0  0  0  0  0  0  0
  -21.1860   -4.1030   25.9980 F   0  0  0  0  0  0  0  0  0  0  0  0
  -23.1070  -13.6700   21.0580 C   0  0  0  0  0  0  0  0  0  0  0  0
  -22.3430  -12.9780   21.8920 N   0  0  0  0  0  0  0  0  0  0  0  0
  -22.6820  -14.6740   20.4870 O   0  0  0  0  0  0  0  0  0  0  0  0
  -22.6930  -12.1630   22.3740 H   0  0  0  0  0  0  0  0  0  0  0  0
  -21.3920  -13.2730   22.0600 H   0  0  0  0  0  0  0  0  0  0  0  0
  -25.7370  -15.3910   20.4010 N   0  0  0  0  0  0  0  0  0  0  0  0
  -24.9550  -16.0280   20.5070 H   0  0  0  0  0  0  0  0  0  0  0  0
  -26.6090  -15.8520   20.1710 H   0  0  0  0  0  0  0  0  0  0  0  0
  -27.3330  -21.0930   20.3460 C   0  0  0  0  0  2  0  0  0  0  0  0
  -26.5870  -21.2000   18.9940 C   0  0  0  0  0  2  0  0  0  0  0  0
  -26.5390  -19.9220   18.2620 N   0  0  0  0  0  4  0  0  0  0  0  0
  -27.4700  -19.5710   18.1370 H   0  0  0  0  0  0  0  0  0  0  0  0
  -26.1270  -20.0640   17.3570 H   0  0  0  0  0  0  0  0  0  0  0  0
  -25.9830  -19.2450   18.7570 H   0  0  0  0  0  0  0  0  0  0  0  0
  -29.0960  -22.9380   20.1130 C   0  0  0  0  0  3  0  0  0  0  0  0
  -28.0890  -24.4470   20.1360 C   0  0  0  0  0  3  0  0  0  0  0  0
  -28.3640  -26.0810   20.1730 O   0  0  0  0  0  0  0  0  0  0  0  0
  -24.7480  -31.9570   23.3150 C   0  0  0  0  0  0  0  0  0  0  0  0
  -27.3560  -27.1820   20.1650 C   0  0  0  0  0  0  0  0  0  0  0  0
  -23.5900  -30.6220   21.6030 C   0  0  0  0  0  3  0  0  0  0  0  0
  -25.0660  -29.0740   20.1520 C   0  0  0  0  0  0  0  0  0  0  0  0
  -26.1590  -30.8320   21.5230 C   0  0  0  0  0  2  0  0  0  0  0  0
  -26.2430  -29.4470   20.8140 C   0  0  0  0  0  0  0  0  0  0  0  0
  -27.3850  -28.5240   20.7910 C   0  0  0  0  0  3  0  0  0  0  0  0
  -26.1470  -26.9640   19.4670 C   0  0  0  0  0  3  0  0  0  0  0  0
  -25.0440  -27.8550   19.4600 C   0  0  0  0  0  3  0  0  0  0  0  0
  -23.8480  -29.9950   20.2080 C   0  0  0  0  0  2  0  0  0  0  0  0
  -24.8520  -31.1620   22.2030 N   0  0  0  0  0  0  0  0  0  0  0  0
  -23.6460  -32.2270   23.8230 O   0  0  0  0  0  0  0  0  0  0  0  0
  -22.8760  -29.5900   22.5150 C   0  0  0  0  0  0  0  0  0  0  0  0
  -21.5490  -29.4330   22.3550 N   0  0  0  0  0  0  0  0  0  0  0  0
  -23.5240  -28.9310   23.3310 O   0  0  0  0  0  0  0  0  0  0  0  0
  -21.0750  -30.0170   21.6790 H   0  0  0  0  0  0  0  0  0  0  0  0
  -18.1470  -28.2550   22.8070 C   0  0  0  0  0  0  0  0  0  0  0  0
  -20.7100  -28.4670   23.0760 C   0  0  0  0  0  3  0  0  0  0  0  0
  -20.7900  -27.0680   22.4230 C   0  0  0  0  0  2  0  0  0  0  0  0
  -19.6830  -26.8210   21.3940 C   0  0  0  0  0  2  0  0  0  0  0  0
  -18.3030  -26.9470   22.0480 C   0  0  0  0  0  2  0  0  0  0  0  0
  -19.2780  -28.9770   23.2740 C   0  0  0  0  0  0  0  0  0  0  0  0
  -19.0760  -30.2000   23.9480 C   0  0  0  0  0  3  0  0  0  0  0  0
  -17.7790  -30.7100   24.1460 C   0  0  0  0  0  3  0  0  0  0  0  0
  -16.6630  -29.9880   23.6940 C   0  0  0  0  0  3  0  0  0  0  0  0
  -16.8470  -28.7590   23.0340 C   0  0  0  0  0  3  0  0  0  0  0  0
  -26.0030  -32.5770   24.0010 C   0  0  0  0  0  3  0  0  0  0  0  0
  -25.6960  -33.9800   24.3300 N   0  0  0  0  0  0  0  0  0  0  0  0
  -26.0420  -35.0360   23.5810 C   0  0  0  0  0  0  0  0  0  0  0  0
  -26.7110  -34.9290   22.5510 O   0  0  0  0  0  0  0  0  0  0  0  0
  -25.0980  -34.1360   25.1280 H   0  0  0  0  0  0  0  0  0  0  0  0
  -24.3210  -36.8430   23.2490 C   0  0  0  0  0  1  0  0  0  0  0  0
  -25.5710  -36.4300   24.0420 C   0  0  0  0  0  3  0  0  0  0  0  0
  -27.7120  -37.3140   24.8570 C   0  0  0  0  0  1  0  0  0  0  0  0
  -26.6080  -37.4780   23.9150 N   0  0  0  0  0  0  0  0  0  0  0  0
  -26.2070  -38.4010   24.0580 H   0  0  0  0  0  0  0  0  0  0  0  0
  -26.4450  -31.8020   25.3030 C   0  0  1  0  0  0  0  0  0  0  0  0
  -25.2940  -31.5750   26.3150 C   0  0  0  0  0  1  0  0  0  0  0  0
  -27.0290  -30.4150   24.9500 C   0  0  0  0  0  1  0  0  0  0  0  0
  -27.5760  -32.5780   26.0180 C   0  0  0  0  0  1  0  0  0  0  0  0
  1 44  1  0
  2  9  2  0
  3  8  1  0
  4  5  1  0
  4  3  1  0
  6  5  1  0
  6 19  1  0
  6  7  1  0
  8  2  1  0
  8  7  1  0
 10 11  1  0
 10 12  1  0
 11 14  1  0
 12 15  1  0
 14  1  1  0
 14 13  1  0
 15  2  1  0
 15 13  1  0
 16 17  2  0
 17 18  1  0
 17 36  1  0
 18 21  1  0
 19 16  1  0
 19 20  1  0
 20 18  2  0
 21 22  1  0
 22 23  2  0
 24 27  1  0
 24 23  1  0
 25 24  2  0
 26 25  1  0
 26 21  2  0
 27 28  1  0
 28 33  2  0
 28 29  1  0
 29 30  2  0
 30 31  1  0
 31 35  1  0
 32 31  2  0
 33 32  1  0
 34 33  1  0
 36 37  1  0
 37 40  1  0
 37 39  1  0
 38 36  2  0
 41 42  1  0
 41 16  1  0
 43 41  1  0
 45 44  1  0
 46 49  1  0
 46 45  1  0
 47 46  1  0
 48 46  1  0
 50 51  2  0
 50  1  1  0
 51 52  1  0
 53 64  2  0
 54 52  1  0
 54 59  1  0
 55 63  1  0
 55 65  1  0
 56 62  1  0
 56 58  1  0
 57 63  1  0
 58 57  1  0
 59 58  2  0
 60 54  2  0
 61 60  1  0
 61 56  2  0
 62 55  1  0
 63 53  1  0
 65 67  2  0
 66 65  1  0
 68 66  1  0
 69 78  2  0
 69 74  1  0
 70 66  1  0
 70 74  1  0
 71 70  1  0
 72 73  1  0
 72 71  1  0
 73 69  1  0
 74 75  2  0
 75 76  1  0
 77 76  2  0
 78 77  1  0
 79 53  1  0
 79 80  1  0
 79 89  1  0
 80 83  1  0
 81 85  1  0
 81 80  1  0
 82 81  2  0
 85 84  1  0
 87 85  1  0
 87 88  1  0
 87 86  1  0
 89 92  1  1
 89 90  1  0
 91 89  1  0
M  ISO  4   2 100  15 100  51 101  52 101
M  END
>  <TORSDO>  (1) 
F 21

>  <SCORE>  (1) 
-13.758

>  <name>  (1) 
0

>  <ligand_id>  (1) 
0

>  <original_smiles>  (1) 
[H]c1c([H])c([H])c2c(c1[H])C([H])([H])C([H])([H])C([H])([H])C2([H])N([H])C(=O)C1([H])N(C(=O)C([H])(N([H])C(=O)C([H])(N([H])C([H])([H])[H])C([H])([H])[H])C(C([H])([H])[H])(C([H])([H])[H])C([H])([H])[H])C([H])([H])c2c([H])c(OC([H])([H])C([H])([H])N(C([H])([H])C([H])([H])[N+]([H])([H])[H])C3([H])C([H])([H])N(C(=O)N4C([H])([H])C([H])([H])C([H])([H])C([H])(n5nc(-c6c([H])c([H])c(Oc7c([H])c([H])c(F)c([H])c7F)c([H])c6[H])c(C(=O)N([H])[H])c5N([H])[H])C4([H])[H])C([H])([H])C([H])([H])C3([H])[H])c([H])c([H])c2C1([H])[H]

>  <smiles>  (1) 
[H]c1c([H])c([H])c2c(c1[H])C([H])([H])C([H])([H])C([H])([H])C2([H])N([H])C(=O)C1([H])N(C(=O)C([H])(N([H])C(=O)C([H])(N([H])C([H])([H])[H])C([H])([H])[H])C(C([H])([H])[H])(C([H])([H])[H])C([H])([H])[H])C([H])([H])c2c([H])c(OC([H])([H])C([H])([H])N(C([H])([H])C([H])([H])[N+]([H])([H])[H])C3([H])C([H])([H])N(C(=O)N4C([H])([H])C([H])([H])C([H])([H])C([H])(n5nc(-c6c([H])c([H])c(Oc7c([H])c([H])c(F)c([H])c7F)c([H])c6[H])c(C(=O)N([H])[H])c5N([H])[H])C4([H])[H])C([H])([H])C([H])([H])C3([H])[H])c([H])c([H])c2C1([H])[H]

$$$$
1:0:0
     RDKit          3D

103111  0  0  1  0  0  0  0  0999 V2000
  -31.2530  -18.3320   19.4240 C   0  0  0  0  0  3  0  0  0  0  0  0
  -31.0000  -16.8910   23.6720 C   0  0  0  0  0  2  0  0  0  0  0  0
  -29.7220  -16.8680   22.8210 C   0  0  0  0  0  2  0  0  0  0  0  0
  -32.2410  -16.5360   22.8350 C   0  0  0  0  0  2  0  0  0  0  0  0
  -29.8760  -17.7420   21.5580 C   0  0  0  0  0  2  0  0  0  0  0  0
  -32.3570  -17.4160   21.5710 C   0  0  0  0  0  2  0  0  0  0  0  0
  -31.0960  -17.3540   20.6640 C   0  0  2  0  0  0  0  0  0  0  0  0
  -31.5790  -14.9820   19.7110 C   0  0  0  0  0  0  0  0  0  0  0  0
  -31.2060  -12.8110   18.5940 C   0  0  0  0  0  2  0  0  0  0  0  0
  -30.1570  -12.9980   17.4770 C   0  0  0  0  0  2  0  0  0  0  0  0
  -28.7170  -12.9120   18.0270 C   0  0  0  0  0  2  0  0  0  0  0  0
  -28.5000  -13.7770   19.2960 C   0  0  0  0  0  3  0  0  0  0  0  0
  -29.6350  -13.5010   20.3090 C   0  0  0  0  0  2  0  0  0  0  0  0
  -30.9160  -13.7980   19.6410 N   0  0  0  0  0  0  0  0  0  0  0  0
  -32.6580  -15.2090   19.1620 O   0  0  0  0  0  0  0  0  0  0  0  0
  -30.8370  -15.9500   20.2830 N   0  0  0  0  0  0  0  0  0  0  0  0
  -29.9700  -15.5920   20.6540 H   0  0  0  0  0  0  0  0  0  0  0  0
  -26.2300  -14.4860   20.2920 C   0  0  0  0  0  0  0  0  0  0  0  0
  -25.1500  -13.7570   20.7070 C   0  0  0  0  0  0  0  0  0  0  0  0
  -25.5040  -12.3860   20.5210 C   0  0  0  0  0  0  0  0  0  0  0  0
  -27.1810  -13.5590   19.8850 N   0  0  0  0  0  0  0  0  0  0  0  0
  -26.7510  -12.2880   20.0770 N   0  0  0  0  0  0  0  0  0  0  0  0
  -24.7110  -11.1620   20.6830 C   0  0  0  0  0  0  0  0  0  0  0  0
  -25.1020  -10.1450   21.5810 C   0  0  0  0  0  3  0  0  0  0  0  0
  -24.3140   -8.9830   21.7310 C   0  0  0  0  0  3  0  0  0  0  0  0
  -23.1230   -8.8310   20.9850 C   0  0  0  0  0  0  0  0  0  0  0  0
  -22.7490   -9.8360   20.0760 C   0  0  0  0  0  3  0  0  0  0  0  0
  -23.5370  -10.9900   19.9230 C   0  0  0  0  0  3  0  0  0  0  0  0
  -22.3090   -7.7250   21.0460 O   0  0  0  0  0  0  0  0  0  0  0  0
  -22.1130   -7.0410   22.2180 C   0  0  0  0  0  0  0  0  0  0  0  0
  -21.5840   -7.6690   23.3670 C   0  0  0  0  0  3  0  0  0  0  0  0
  -21.3320   -6.9120   24.5290 C   0  0  0  0  0  3  0  0  0  0  0  0
  -21.5990   -5.5310   24.5430 C   0  0  0  0  0  0  0  0  0  0  0  0
  -22.1200   -4.9030   23.3990 C   0  0  0  0  0  3  0  0  0  0  0  0
  -22.3740   -5.6550   22.2370 C   0  0  0  0  0  0  0  0  0  0  0  0
  -22.8560   -5.0410   21.1310 F   0  0  0  0  0  0  0  0  0  0  0  0
  -21.3460   -4.8050   25.6570 F   0  0  0  0  0  0  0  0  0  0  0  0
  -23.8240  -14.2990   21.1590 C   0  0  0  0  0  0  0  0  0  0  0  0
  -23.1400  -13.5870   22.0470 N   0  0  0  0  0  0  0  0  0  0  0  0
  -23.4080  -15.3870   20.7600 O   0  0  0  0  0  0  0  0  0  0  0  0
  -23.4880  -12.7050   22.3930 H   0  0  0  0  0  0  0  0  0  0  0  0
  -22.2550  -13.9300   22.3910 H   0  0  0  0  0  0  0  0  0  0  0  0
  -26.4750  -15.8540   20.2030 N   0  0  0  0  0  0  0  0  0  0  0  0
  -25.7670  -16.5380   20.4440 H   0  0  0  0  0  0  0  0  0  0  0  0
  -27.2800  -16.2650   19.7510 H   0  0  0  0  0  0  0  0  0  0  0  0
  -30.7560  -17.6970   18.1820 N   0  0  0  0  0  4  0  0  0  0  0  0
  -30.7300  -16.7090   18.3660 H   0  0  0  0  0  0  0  0  0  0  0  0
  -29.8140  -18.0030   18.0000 H   0  0  0  0  0  0  0  0  0  0  0  0
  -31.5980  -17.9080   16.9860 C   0  0  0  0  0  2  0  0  0  0  0  0
  -30.9550  -17.2830   15.7360 C   0  0  0  0  0  2  0  0  0  0  0  0
  -31.7570  -17.5590   14.5560 N   0  0  0  0  0  0  0  0  0  0  0  0
  -31.7830  -18.5620   14.3930 H   0  0  0  0  0  0  0  0  0  0  0  0
  -31.2830  -17.1890   13.7370 H   0  0  0  0  0  0  0  0  0  0  0  0
  -30.5610  -19.7160   19.6320 C   0  0  0  0  0  2  0  0  0  0  0  0
  -30.9190  -20.8810   18.6760 C   0  0  0  0  0  2  0  0  0  0  0  0
  -30.0870  -22.1410   19.0120 C   0  0  0  0  0  2  0  0  0  0  0  0
  -30.4270  -23.4030   18.1910 C   0  0  0  0  0  2  0  0  0  0  0  0
  -29.4830  -24.5060   18.4890 N   0  0  0  0  0  4  0  0  0  0  0  0
  -29.3840  -24.6030   19.4900 H   0  0  0  0  0  0  0  0  0  0  0  0
  -28.5780  -24.2520   18.1240 H   0  0  0  0  0  0  0  0  0  0  0  0
  -29.8590  -25.8280   17.9370 C   0  0  0  0  0  2  0  0  0  0  0  0
  -28.6900  -26.8260   18.0150 C   0  0  0  0  0  2  0  0  0  0  0  0
  -28.3230  -27.0620   19.3800 O   0  0  0  0  0  0  0  0  0  0  0  0
  -24.5260  -31.7820   23.1530 C   0  0  0  0  0  0  0  0  0  0  0  0
  -27.1260  -27.7190   19.5510 C   0  0  0  0  0  0  0  0  0  0  0  0
  -23.2740  -30.4940   21.4530 C   0  0  0  0  0  3  0  0  0  0  0  0
  -24.6910  -29.1200   19.8430 C   0  0  0  0  0  0  0  0  0  0  0  0
  -25.7780  -30.9360   21.1730 C   0  0  0  0  0  2  0  0  0  0  0  0
  -25.8640  -29.6280   20.4170 C   0  0  0  0  0  0  0  0  0  0  0  0
  -27.0830  -28.9280   20.2820 C   0  0  0  0  0  3  0  0  0  0  0  0
  -25.9290  -27.2030   19.0080 C   0  0  0  0  0  3  0  0  0  0  0  0
  -24.7150  -27.9000   19.1470 C   0  0  0  0  0  3  0  0  0  0  0  0
  -23.4310  -29.9390   20.0140 C   0  0  0  0  0  2  0  0  0  0  0  0
  -24.5460  -31.0810   21.9850 N   0  0  0  0  0  0  0  0  0  0  0  0
  -23.4660  -31.9790   23.7640 O   0  0  0  0  0  0  0  0  0  0  0  0
  -22.6920  -29.3790   22.3490 C   0  0  0  0  0  0  0  0  0  0  0  0
  -21.3770  -29.1350   22.2240 N   0  0  0  0  0  0  0  0  0  0  0  0
  -23.4190  -28.7370   23.1130 O   0  0  0  0  0  0  0  0  0  0  0  0
  -20.8490  -29.7090   21.5810 H   0  0  0  0  0  0  0  0  0  0  0  0
  -18.0890  -27.6990   22.6320 C   0  0  0  0  0  0  0  0  0  0  0  0
  -20.6210  -28.1060   22.9380 C   0  0  0  0  0  3  0  0  0  0  0  0
  -20.8200  -26.7170   22.2910 C   0  0  0  0  0  2  0  0  0  0  0  0
  -19.7490  -26.3770   21.2510 C   0  0  0  0  0  2  0  0  0  0  0  0
  -18.3560  -26.4000   21.8900 C   0  0  0  0  0  2  0  0  0  0  0  0
  -19.1520  -28.5080   23.1100 C   0  0  0  0  0  0  0  0  0  0  0  0
  -18.8490  -29.7230   23.7620 C   0  0  0  0  0  3  0  0  0  0  0  0
  -17.5150  -30.1300   23.9400 C   0  0  0  0  0  3  0  0  0  0  0  0
  -16.4640  -29.3180   23.4780 C   0  0  0  0  0  3  0  0  0  0  0  0
  -16.7520  -28.1030   22.8300 C   0  0  0  0  0  3  0  0  0  0  0  0
  -25.8270  -32.3900   23.7630 C   0  0  0  0  0  3  0  0  0  0  0  0
  -25.5270  -33.7760   24.1490 N   0  0  0  0  0  0  0  0  0  0  0  0
  -25.8460  -34.8530   23.4200 C   0  0  0  0  0  0  0  0  0  0  0  0
  -26.4960  -34.7850   22.3740 O   0  0  0  0  0  0  0  0  0  0  0  0
  -24.9450  -33.9020   24.9640 H   0  0  0  0  0  0  0  0  0  0  0  0
  -24.1060  -36.6520   23.1660 C   0  0  0  0  0  1  0  0  0  0  0  0
  -25.3670  -36.2240   23.9330 C   0  0  0  0  0  3  0  0  0  0  0  0
  -27.5180  -37.0890   24.7430 C   0  0  0  0  0  1  0  0  0  0  0  0
  -26.3950  -37.2830   23.8290 N   0  0  0  0  0  0  0  0  0  0  0  0
  -25.9890  -38.1960   24.0160 H   0  0  0  0  0  0  0  0  0  0  0  0
  -26.3750  -31.5740   24.9980 C   0  0  1  0  0  0  0  0  0  0  0  0
  -25.3080  -31.2920   26.0810 C   0  0  0  0  0  1  0  0  0  0  0  0
  -26.9540  -30.2150   24.5400 C   0  0  0  0  0  1  0  0  0  0  0  0
  -27.5380  -32.3480   25.6630 C   0  0  0  0  0  1  0  0  0  0  0  0
  1 54  1  0
  7  1  1  6
  3  2  1  0
  4  2  1  0
  5  3  1  0
  6  4  1  0
  7  5  1  0
  7  6  1  0
  8 16  1  0
  9 14  1  0
 10 11  1  0
 10  9  1  0
 12 11  1  0
 12 21  1  0
 12 13  1  0
 14  8  1  0
 14 13  1  0
 15  8  2  0
 16 17  1  0
 16  7  1  0
 18 19  2  0
 19 38  1  0
 20 23  1  0
 20 19  1  0
 21 22  1  0
 21 18  1  0
 22 20  2  0
 23 24  1  0
 24 25  2  0
 26 29  1  0
 26 25  1  0
 27 26  2  0
 28 27  1  0
 28 23  2  0
 29 30  1  0
 30 35  2  0
 30 31  1  0
 31 32  2  0
 32 33  1  0
 33 37  1  0
 34 33  2  0
 35 34  1  0
 36 35  1  0
 38 39  1  0
 39 42  1  0
 39 41  1  0
 40 38  2  0
 43 18  1  0
 43 44  1  0
 45 43  1  0
 46 47  1  0
 46  1  1  0
 48 46  1  0
 49 46  1  0
 50 49  1  0
 51 50  1  0
 52 51  1  0
 53 51  1  0
 55 56  1  0
 55 54  1  0
 57 58  1  0
 57 56  1  0
 58 59  1  0
 60 58  1  0
 61 62  1  0
 61 58  1  0
 62 63  1  0
 63 65  1  0
 64 75  2  0
 65 70  1  0
 66 74  1  0
 66 76  1  0
 67 73  1  0
 67 69  1  0
 68 74  1  0
 69 68  1  0
 70 69  2  0
 71 72  1  0
 71 65  2  0
 72 67  2  0
 73 66  1  0
 74 64  1  0
 76 78  2  0
 77 76  1  0
 79 77  1  0
 80 89  2  0
 80 85  1  0
 81 77  1  0
 81 85  1  0
 82 81  1  0
 83 84  1  0
 83 82  1  0
 84 80  1  0
 85 86  2  0
 86 87  1  0
 88 87  2  0
 89 88  1  0
 90 64  1  0
 90 91  1  0
 90100  1  0
 91 94  1  0
 92 96  1  0
 92 91  1  0
 93 92  2  0
 96 95  1  0
 98 96  1  0
 98 99  1  0
 98 97  1  0
100103  1  1
100101  1  0
102100  1  0
M  ISO  4   8 100  16 100  62 101  63 101
M  END
>  <TORSDO>  (2) 
F 28

>  <SCORE>  (2) 
-3.963

>  <name>  (2) 
1

>  <ligand_id>  (2) 
1

>  <original_smiles>  (2) 
[H]c1c([H])c([H])c2c(c1[H])C([H])([H])C([H])([H])C([H])([H])C2([H])N([H])C(=O)C1([H])N(C(=O)C([H])(N([H])C(=O)C([H])(N([H])C([H])([H])[H])C([H])([H])[H])C(C([H])([H])[H])(C([H])([H])[H])C([H])([H])[H])C([H])([H])c2c([H])c(OC([H])([H])C([H])([H])[N+]([H])([H])C([H])([H])C([H])([H])C([H])([H])C([H])([H])C([H])(C3(N([H])C(=O)N4C([H])([H])C([H])([H])C([H])([H])C([H])(n5nc(-c6c([H])c([H])c(Oc7c([H])c([H])c(F)c([H])c7F)c([H])c6[H])c(C(=O)N([H])[H])c5N([H])[H])C4([H])[H])C([H])([H])C([H])([H])C([H])([H])C([H])([H])C3([H])[H])[N+]([H])([H])C([H])([H])C([H])([H])N([H])[H])c([H])c([H])c2C1([H])[H]

>  <smiles>  (2) 
[H]c1c([H])c([H])c2c(c1[H])C([H])([H])C([H])([H])C([H])([H])C2([H])N([H])C(=O)C1([H])N(C(=O)C([H])(N([H])C(=O)C([H])(N([H])C([H])([H])[H])C([H])([H])[H])C(C([H])([H])[H])(C([H])([H])[H])C([H])([H])[H])C([H])([H])c2c([H])c(OC([H])([H])C([H])([H])[N+]([H])([H])C([H])([H])C([H])([H])C([H])([H])C([H])([H])C([H])(C3(N([H])C(=O)N4C([H])([H])C([H])([H])C([H])([H])C([H])(n5nc(-c6c([H])c([H])c(Oc7c([H])c([H])c(F)c([H])c7F)c([H])c6[H])c(C(=O)N([H])[H])c5N([H])[H])C4([H])[H])C([H])([H])C([H])([H])C([H])([H])C([H])([H])C3([H])[H])[N+]([H])([H])C([H])([H])C([H])([H])N([H])[H])c([H])c([H])c2C1([H])[H]

$$$$
2:0:0
     RDKit          3D

 97105  0  0  1  0  0  0  0  0999 V2000
  -28.6820  -20.8440   20.8790 C   0  0  0  0  0  2  0  0  0  0  0  0
  -30.2390  -21.0700   18.9200 C   0  0  0  0  0  2  0  0  0  0  0  0
  -28.2360  -22.3350   20.7700 C   0  0  0  0  0  2  0  0  0  0  0  0
  -29.2890  -22.2430   18.5420 C   0  0  0  0  0  2  0  0  0  0  0  0
  -30.1400  -20.6660   20.4150 C   0  0  0  0  0  3  0  0  0  0  0  0
  -28.9670  -23.1030   19.7150 N   0  0  1  0  0  4  0  0  0  0  0  0
  -29.8670  -23.3410   20.1090 H   0  0  0  0  0  0  0  0  0  0  0  0
  -28.3490  -24.4200   19.3480 C   0  0  0  0  0  2  0  0  0  0  0  0
  -28.3000  -25.4330   20.5230 C   0  0  0  0  0  2  0  0  0  0  0  0
  -28.3080  -26.8060   20.1030 O   0  0  0  0  0  0  0  0  0  0  0  0
  -24.5140  -31.9590   23.2430 C   0  0  0  0  0  0  0  0  0  0  0  0
  -27.1210  -27.5010   20.1520 C   0  0  0  0  0  0  0  0  0  0  0  0
  -23.2890  -30.5550   21.6180 C   0  0  0  0  0  3  0  0  0  0  0  0
  -24.7240  -29.0030   20.1900 C   0  0  0  0  0  0  0  0  0  0  0  0
  -25.8120  -30.9080   21.3900 C   0  0  0  0  0  2  0  0  0  0  0  0
  -25.8890  -29.5320   20.7580 C   0  0  0  0  0  0  0  0  0  0  0  0
  -27.0900  -28.7910   20.7320 C   0  0  0  0  0  3  0  0  0  0  0  0
  -25.9360  -26.9770   19.5900 C   0  0  0  0  0  3  0  0  0  0  0  0
  -24.7410  -27.7230   19.6080 C   0  0  0  0  0  3  0  0  0  0  0  0
  -23.4820  -29.8660   20.2410 C   0  0  0  0  0  2  0  0  0  0  0  0
  -24.5580  -31.1550   22.1430 N   0  0  0  0  0  0  0  0  0  0  0  0
  -23.4380  -32.2340   23.7930 O   0  0  0  0  0  0  0  0  0  0  0  0
  -22.6420  -29.5400   22.5860 C   0  0  0  0  0  0  0  0  0  0  0  0
  -21.3160  -29.3550   22.4620 N   0  0  0  0  0  0  0  0  0  0  0  0
  -23.3280  -28.9200   23.4030 O   0  0  0  0  0  0  0  0  0  0  0  0
  -20.8240  -29.9050   21.7720 H   0  0  0  0  0  0  0  0  0  0  0  0
  -17.9440  -28.1650   22.9690 C   0  0  0  0  0  0  0  0  0  0  0  0
  -20.5020  -28.4210   23.2390 C   0  0  0  0  0  3  0  0  0  0  0  0
  -20.6050  -26.9870   22.6690 C   0  0  0  0  0  2  0  0  0  0  0  0
  -19.5010  -26.6600   21.6590 C   0  0  0  0  0  2  0  0  0  0  0  0
  -18.1200  -26.8100   22.3030 C   0  0  0  0  0  2  0  0  0  0  0  0
  -19.0640  -28.9270   23.3950 C   0  0  0  0  0  0  0  0  0  0  0  0
  -18.8470  -30.1960   23.9770 C   0  0  0  0  0  3  0  0  0  0  0  0
  -17.5440  -30.7010   24.1370 C   0  0  0  0  0  3  0  0  0  0  0  0
  -16.4380  -29.9320   23.7320 C   0  0  0  0  0  3  0  0  0  0  0  0
  -16.6390  -28.6670   23.1530 C   0  0  0  0  0  3  0  0  0  0  0  0
  -25.8060  -32.5880   23.8500 C   0  0  0  0  0  3  0  0  0  0  0  0
  -26.3300  -31.8200   25.1250 C   0  0  1  0  0  0  0  0  0  0  0  0
  -25.2450  -31.5900   26.2030 C   0  0  0  0  0  1  0  0  0  0  0  0
  -26.9010  -30.4390   24.7280 C   0  0  0  0  0  1  0  0  0  0  0  0
  -27.4930  -32.6070   25.7720 C   0  0  0  0  0  1  0  0  0  0  0  0
  -25.5070  -33.9890   24.1740 N   0  0  0  0  0  0  0  0  0  0  0  0
  -25.8560  -35.0350   23.4120 C   0  0  0  0  0  0  0  0  0  0  0  0
  -26.5330  -34.9210   22.3860 O   0  0  0  0  0  0  0  0  0  0  0  0
  -24.9060  -34.1550   24.9680 H   0  0  0  0  0  0  0  0  0  0  0  0
  -24.1570  -36.8480   23.0250 C   0  0  0  0  0  1  0  0  0  0  0  0
  -25.3760  -36.4290   23.8600 C   0  0  0  0  0  3  0  0  0  0  0  0
  -27.5060  -37.2860   24.7320 C   0  0  0  0  0  1  0  0  0  0  0  0
  -26.4230  -37.4700   23.7680 N   0  0  0  0  0  0  0  0  0  0  0  0
  -26.0260  -38.3940   23.9120 H   0  0  0  0  0  0  0  0  0  0  0  0
  -30.7650  -19.3740   20.7930 N   0  0  0  0  0  0  0  0  0  0  0  0
  -30.1590  -18.1000   20.3540 C   0  0  0  0  0  2  0  0  0  0  0  0
  -30.5660  -16.9470   21.3300 C   0  0  0  0  0  2  0  0  0  0  0  0
  -30.7520  -14.5920   20.4550 C   0  0  0  0  0  0  0  0  0  0  0  0
  -30.4730  -12.4080   19.3360 C   0  0  0  0  0  2  0  0  0  0  0  0
  -29.5270  -12.5740   18.1300 C   0  0  0  0  0  2  0  0  0  0  0  0
  -28.0540  -12.4360   18.5650 C   0  0  0  0  0  2  0  0  0  0  0  0
  -27.7120  -13.3000   19.8080 C   0  0  0  0  0  3  0  0  0  0  0  0
  -28.7670  -13.1050   20.9190 C   0  0  0  0  0  2  0  0  0  0  0  0
  -30.0860  -13.4100   20.3400 N   0  0  0  0  0  0  0  0  0  0  0  0
  -31.8830  -14.7700   19.9960 O   0  0  0  0  0  0  0  0  0  0  0  0
  -30.0520  -15.6060   21.0000 N   0  0  0  0  0  0  0  0  0  0  0  0
  -29.1140  -15.3900   21.3030 H   0  0  0  0  0  0  0  0  0  0  0  0
  -25.3210  -13.9180   20.5290 C   0  0  0  0  0  0  0  0  0  0  0  0
  -24.2500  -13.1510   20.9000 C   0  0  0  0  0  0  0  0  0  0  0  0
  -24.7030  -11.7970   20.8630 C   0  0  0  0  0  0  0  0  0  0  0  0
  -26.3600  -13.0320   20.2920 N   0  0  0  0  0  0  0  0  0  0  0  0
  -25.9930  -11.7510   20.5510 N   0  0  0  0  0  0  0  0  0  0  0  0
  -23.9700  -10.5380   21.0520 C   0  0  0  0  0  0  0  0  0  0  0  0
  -24.4050   -9.5620   21.9750 C   0  0  0  0  0  3  0  0  0  0  0  0
  -23.6740   -8.3670   22.1510 C   0  0  0  0  0  3  0  0  0  0  0  0
  -22.4950   -8.1410   21.4020 C   0  0  0  0  0  0  0  0  0  0  0  0
  -22.0800   -9.1050   20.4670 C   0  0  0  0  0  3  0  0  0  0  0  0
  -22.8110  -10.2910   20.2890 C   0  0  0  0  0  3  0  0  0  0  0  0
  -21.7340   -7.0000   21.4880 O   0  0  0  0  0  0  0  0  0  0  0  0
  -21.6830   -6.2540   22.6390 C   0  0  0  0  0  0  0  0  0  0  0  0
  -21.2550   -6.8050   23.8660 C   0  0  0  0  0  3  0  0  0  0  0  0
  -21.1510   -5.9850   25.0070 C   0  0  0  0  0  3  0  0  0  0  0  0
  -21.4660   -4.6150   24.9220 C   0  0  0  0  0  0  0  0  0  0  0  0
  -21.8870   -4.0640   23.6990 C   0  0  0  0  0  3  0  0  0  0  0  0
  -21.9930   -4.8800   22.5600 C   0  0  0  0  0  0  0  0  0  0  0  0
  -22.3790   -4.3400   21.3800 F   0  0  0  0  0  0  0  0  0  0  0  0
  -21.3590   -3.8260   26.0160 F   0  0  0  0  0  0  0  0  0  0  0  0
  -22.8560  -13.6340   21.1780 C   0  0  0  0  0  0  0  0  0  0  0  0
  -22.1270  -12.9400   22.0450 N   0  0  0  0  0  0  0  0  0  0  0  0
  -22.4210  -14.6640   20.6610 O   0  0  0  0  0  0  0  0  0  0  0  0
  -22.4910  -12.1070   22.4840 H   0  0  0  0  0  0  0  0  0  0  0  0
  -21.1910  -13.2450   22.2740 H   0  0  0  0  0  0  0  0  0  0  0  0
  -25.4940  -15.2890   20.3540 N   0  0  0  0  0  0  0  0  0  0  0  0
  -24.7310  -15.9470   20.4630 H   0  0  0  0  0  0  0  0  0  0  0  0
  -26.3440  -15.7200   20.0130 H   0  0  0  0  0  0  0  0  0  0  0  0
  -32.2260  -19.4020   20.6050 C   0  0  0  0  0  2  0  0  0  0  0  0
  -32.9400  -19.7910   21.9140 C   0  0  0  0  0  2  0  0  0  0  0  0
  -34.4030  -19.6900   21.7900 N   0  0  0  0  0  4  0  0  0  0  0  0
  -34.6800  -18.7540   21.5560 H   0  0  0  0  0  0  0  0  0  0  0  0
  -34.8390  -19.9340   22.6620 H   0  0  0  0  0  0  0  0  0  0  0  0
  -34.7460  -20.3160   21.0840 H   0  0  0  0  0  0  0  0  0  0  0  0
  2  5  1  0
  3  1  1  0
  4  2  1  0
  4  6  1  0
  5 51  1  0
  5  1  1  0
  6  7  1  1
  6  3  1  0
  8  6  1  0
  8  9  1  0
 10 12  1  0
 10  9  1  0
 11 22  2  0
 12 17  1  0
 13 21  1  0
 13 23  1  0
 14 20  1  0
 14 16  1  0
 15 21  1  0
 16 15  1  0
 17 16  2  0
 18 19  1  0
 18 12  2  0
 19 14  2  0
 20 13  1  0
 21 11  1  0
 23 25  2  0
 24 23  1  0
 26 24  1  0
 27 36  2  0
 27 32  1  0
 28 24  1  0
 28 32  1  0
 29 28  1  0
 30 31  1  0
 30 29  1  0
 31 27  1  0
 32 33  2  0
 33 34  1  0
 35 34  2  0
 36 35  1  0
 37 11  1  0
 37 42  1  0
 37 38  1  0
 38 41  1  1
 38 39  1  0
 40 38  1  0
 42 45  1  0
 43 47  1  0
 43 42  1  0
 44 43  2  0
 47 46  1  0
 49 47  1  0
 49 50  1  0
 49 48  1  0
 52 51  1  0
 52 53  1  0
 54 62  1  0
 55 60  1  0
 56 57  1  0
 56 55  1  0
 58 57  1  0
 58 67  1  0
 58 59  1  0
 60 54  1  0
 60 59  1  0
 61 54  2  0
 62 63  1  0
 62 53  1  0
 64 65  2  0
 65 84  1  0
 66 65  1  0
 66 69  1  0
 67 64  1  0
 67 68  1  0
 68 66  2  0
 69 70  1  0
 70 71  2  0
 72 75  1  0
 72 71  1  0
 73 72  2  0
 74 73  1  0
 74 69  2  0
 75 76  1  0
 76 77  1  0
 77 78  2  0
 79 78  1  0
 79 83  1  0
 80 79  2  0
 81 76  2  0
 81 80  1  0
 82 81  1  0
 84 85  1  0
 85 88  1  0
 85 87  1  0
 86 84  2  0
 89 90  1  0
 89 64  1  0
 91 89  1  0
 92 51  1  0
 92 93  1  0
 94 93  1  0
 94 96  1  0
 95 94  1  0
 97 94  1  0
M  ISO  4   9 101  10 101  54 100  62 100
M  END
>  <TORSDO>  (3) 
F 24

>  <SCORE>  (3) 
-12.952

>  <name>  (3) 
2

>  <ligand_id>  (3) 
2

>  <original_smiles>  (3) 
[H]c1c([H])c([H])c2c(c1[H])C([H])([H])C([H])([H])C([H])([H])C2([H])N([H])C(=O)C1([H])N(C(=O)C([H])(N([H])C(=O)C([H])(N([H])C([H])([H])[H])C([H])([H])[H])C(C([H])([H])[H])(C([H])([H])[H])C([H])([H])[H])C([H])([H])c2c([H])c(OC([H])([H])C([H])([H])[N+]3([H])C([H])([H])C([H])([H])C([H])(N(C([H])([H])C([H])([H])N([H])C(=O)N4C([H])([H])C([H])([H])C([H])([H])C([H])(n5nc(-c6c([H])c([H])c(Oc7c([H])c([H])c(F)c([H])c7F)c([H])c6[H])c(C(=O)N([H])[H])c5N([H])[H])C4([H])[H])C([H])([H])C([H])([H])[N+]([H])([H])[H])C([H])([H])C3([H])[H])c([H])c([H])c2C1([H])[H]

>  <smiles>  (3) 
[H]c1c([H])c([H])c2c(c1[H])C([H])([H])C([H])([H])C([H])([H])C2([H])N([H])C(=O)C1([H])N(C(=O)C([H])(N([H])C(=O)C([H])(N([H])C([H])([H])[H])C([H])([H])[H])C(C([H])([H])[H])(C([H])([H])[H])C([H])([H])[H])C([H])([H])c2c([H])c(OC([H])([H])C([H])([H])[N+]3([H])C([H])([H])C([H])([H])C([H])(N(C([H])([H])C([H])([H])N([H])C(=O)N4C([H])([H])C([H])([H])C([H])([H])C([H])(n5nc(-c6c([H])c([H])c(Oc7c([H])c([H])c(F)c([H])c7F)c([H])c6[H])c(C(=O)N([H])[H])c5N([H])[H])C4([H])[H])C([H])([H])C([H])([H])[N+]([H])([H])[H])C([H])([H])C3([H])[H])c([H])c([H])c2C1([H])[H]

$$$$
3:0:0
     RDKit          3D

101108  0  0  1  0  0  0  0  0999 V2000
  -29.7420  -18.1310   20.6950 N   0  0  1  0  0  4  0  0  0  0  0  0
  -30.4740  -18.3810   20.0470 H   0  0  0  0  0  0  0  0  0  0  0  0
  -28.4240  -18.2910   19.9940 C   0  0  0  0  0  2  0  0  0  0  0  0
  -28.5090  -18.8430   18.5510 C   0  0  0  0  0  2  0  0  0  0  0  0
  -29.9100  -18.7390   17.9970 C   0  0  0  0  0  0  0  0  0  0  0  0
  -30.4280  -17.5330   17.7160 N   0  0  0  0  0  4  0  0  0  0  0  0
  -30.6330  -19.8480   17.7680 N   0  0  0  0  0  0  0  0  0  0  0  0
  -29.8790  -16.6900   17.8260 H   0  0  0  0  0  0  0  0  0  0  0  0
  -31.3450  -17.3940   17.3150 H   0  0  0  0  0  0  0  0  0  0  0  0
  -30.2580  -20.7730   17.9270 H   0  0  0  0  0  0  0  0  0  0  0  0
  -31.5050  -19.8320   17.2590 H   0  0  0  0  0  0  0  0  0  0  0  0
  -29.9020  -19.0180   21.8930 C   0  0  0  0  0  2  0  0  0  0  0  0
  -29.3170  -20.4560   21.7780 C   0  0  0  0  0  2  0  0  0  0  0  0
  -30.0710  -21.4610   20.8760 C   0  0  0  0  0  2  0  0  0  0  0  0
  -29.2310  -22.7430   20.6670 C   0  0  0  0  0  2  0  0  0  0  0  0
  -29.9650  -23.8670   20.0400 N   0  0  0  0  0  4  0  0  0  0  0  0
  -29.2690  -24.5420   19.7600 H   0  0  0  0  0  0  0  0  0  0  0  0
  -30.4220  -23.5640   19.1920 H   0  0  0  0  0  0  0  0  0  0  0  0
  -30.9330  -24.5760   20.9130 C   0  0  0  0  0  2  0  0  0  0  0  0
  -30.5000  -26.0330   21.1990 C   0  0  0  0  0  2  0  0  0  0  0  0
  -29.9130  -26.5910   20.0240 O   0  0  0  0  0  0  0  0  0  0  0  0
  -25.1780  -30.2600   23.9430 C   0  0  0  0  0  0  0  0  0  0  0  0
  -28.6660  -27.1530   20.1610 C   0  0  0  0  0  0  0  0  0  0  0  0
  -24.3050  -29.1640   21.9030 C   0  0  0  0  0  3  0  0  0  0  0  0
  -26.0670  -28.2460   20.3030 C   0  0  0  0  0  0  0  0  0  0  0  0
  -26.7490  -29.9050   22.0440 C   0  0  0  0  0  2  0  0  0  0  0  0
  -27.0850  -28.7580   21.1170 C   0  0  0  0  0  0  0  0  0  0  0  0
  -28.3880  -28.2160   21.0560 C   0  0  0  0  0  3  0  0  0  0  0  0
  -27.6360  -26.6600   19.3380 C   0  0  0  0  0  3  0  0  0  0  0  0
  -26.3350  -27.1910   19.4120 C   0  0  0  0  0  3  0  0  0  0  0  0
  -24.7020  -28.8860   20.4280 C   0  0  0  0  0  2  0  0  0  0  0  0
  -25.4220  -29.7780   22.6920 N   0  0  0  0  0  0  0  0  0  0  0  0
  -24.0380  -30.2380   24.4250 O   0  0  0  0  0  0  0  0  0  0  0  0
  -23.7650  -27.8560   22.5250 C   0  0  0  0  0  0  0  0  0  0  0  0
  -22.5490  -27.4580   22.1190 N   0  0  0  0  0  0  0  0  0  0  0  0
  -24.4440  -27.2110   23.3280 O   0  0  0  0  0  0  0  0  0  0  0  0
  -22.0510  -28.0480   21.4670 H   0  0  0  0  0  0  0  0  0  0  0  0
  -19.5860  -25.4650   21.5820 C   0  0  0  0  0  0  0  0  0  0  0  0
  -21.8600  -26.2380   22.5340 C   0  0  0  0  0  3  0  0  0  0  0  0
  -22.4590  -24.9940   21.8380 C   0  0  0  0  0  2  0  0  0  0  0  0
  -21.7330  -24.6190   20.5430 C   0  0  0  0  0  2  0  0  0  0  0  0
  -20.2530  -24.3340   20.8180 C   0  0  0  0  0  2  0  0  0  0  0  0
  -20.3410  -26.3680   22.3740 C   0  0  0  0  0  0  0  0  0  0  0  0
  -19.6760  -27.4270   23.0320 C   0  0  0  0  0  3  0  0  0  0  0  0
  -18.2840  -27.5870   22.9100 C   0  0  0  0  0  3  0  0  0  0  0  0
  -17.5380  -26.6810   22.1380 C   0  0  0  0  0  3  0  0  0  0  0  0
  -18.1870  -25.6210   21.4790 C   0  0  0  0  0  3  0  0  0  0  0  0
  -26.3130  -30.8810   24.8170 C   0  0  0  0  0  3  0  0  0  0  0  0
  -26.0810  -32.3280   24.8790 N   0  0  0  0  0  0  0  0  0  0  0  0
  -26.8410  -33.2470   24.2660 C   0  0  0  0  0  0  0  0  0  0  0  0
  -27.8640  -32.9600   23.6410 O   0  0  0  0  0  0  0  0  0  0  0  0
  -25.2290  -32.6320   25.3290 H   0  0  0  0  0  0  0  0  0  0  0  0
  -25.8590  -35.1840   22.9980 C   0  0  0  0  0  1  0  0  0  0  0  0
  -26.3910  -34.7180   24.3630 C   0  0  0  0  0  3  0  0  0  0  0  0
  -27.8340  -35.4320   26.2170 C   0  0  0  0  0  1  0  0  0  0  0  0
  -27.4600  -35.6320   24.8180 N   0  0  0  0  0  0  0  0  0  0  0  0
  -27.1790  -36.6010   24.6990 H   0  0  0  0  0  0  0  0  0  0  0  0
  -26.3900  -30.2630   26.2670 C   0  0  1  0  0  0  0  0  0  0  0  0
  -25.0480  -30.3130   27.0330 C   0  0  0  0  0  1  0  0  0  0  0  0
  -26.8490  -28.7870   26.2080 C   0  0  0  0  0  1  0  0  0  0  0  0
  -27.4460  -31.0220   27.1040 C   0  0  0  0  0  1  0  0  0  0  0  0
  -29.9610  -16.6850   21.0030 C   0  0  0  0  0  2  0  0  0  0  0  0
  -31.4050  -16.1280   20.9060 C   0  0  0  0  0  2  0  0  0  0  0  0
  -31.8130  -13.7440   20.1370 C   0  0  0  0  0  0  0  0  0  0  0  0
  -31.2420  -11.6170   19.0150 C   0  0  0  0  0  2  0  0  0  0  0  0
  -30.2890  -11.8820   17.8290 C   0  0  0  0  0  2  0  0  0  0  0  0
  -28.8170  -11.9860   18.2800 C   0  0  0  0  0  2  0  0  0  0  0  0
  -28.6380  -12.9180   19.5060 C   0  0  0  0  0  3  0  0  0  0  0  0
  -29.6540  -12.5350   20.6040 C   0  0  0  0  0  2  0  0  0  0  0  0
  -31.0150  -12.6490   20.0350 N   0  0  0  0  0  0  0  0  0  0  0  0
  -32.8610  -13.9020   19.5010 O   0  0  0  0  0  0  0  0  0  0  0  0
  -31.2920  -14.6740   20.9470 N   0  0  0  0  0  0  0  0  0  0  0  0
  -30.5040  -14.3210   21.4660 H   0  0  0  0  0  0  0  0  0  0  0  0
  -26.4010  -13.9410   20.2790 C   0  0  0  0  0  0  0  0  0  0  0  0
  -25.2170  -13.3700   20.6600 C   0  0  0  0  0  0  0  0  0  0  0  0
  -25.4220  -11.9600   20.5860 C   0  0  0  0  0  0  0  0  0  0  0  0
  -27.2640  -12.8910   20.0040 N   0  0  0  0  0  0  0  0  0  0  0  0
  -26.6750  -11.6920   20.2410 N   0  0  0  0  0  0  0  0  0  0  0  0
  -24.4840  -10.8460   20.7690 C   0  0  0  0  0  0  0  0  0  0  0  0
  -24.8100   -9.7400   21.5830 C   0  0  0  0  0  3  0  0  0  0  0  0
  -23.8910   -8.6830   21.7550 C   0  0  0  0  0  3  0  0  0  0  0  0
  -22.6300   -8.7310   21.1140 C   0  0  0  0  0  0  0  0  0  0  0  0
  -22.3200   -9.8240   20.2860 C   0  0  0  0  0  3  0  0  0  0  0  0
  -23.2390  -10.8710   20.1110 C   0  0  0  0  0  3  0  0  0  0  0  0
  -21.6800   -7.7420   21.2030 O   0  0  0  0  0  0  0  0  0  0  0  0
  -21.5680   -6.9520   22.3170 C   0  0  0  0  0  0  0  0  0  0  0  0
  -21.3210   -7.4940   23.5960 C   0  0  0  0  0  3  0  0  0  0  0  0
  -21.1440   -6.6390   24.7020 C   0  0  0  0  0  3  0  0  0  0  0  0
  -21.2060   -5.2420   24.5290 C   0  0  0  0  0  0  0  0  0  0  0  0
  -21.4500   -4.7000   23.2540 C   0  0  0  0  0  3  0  0  0  0  0  0
  -21.6260   -5.5530   22.1520 C   0  0  0  0  0  0  0  0  0  0  0  0
  -21.8410   -5.0250   20.9210 F   0  0  0  0  0  0  0  0  0  0  0  0
  -21.0270   -4.4190   25.5890 F   0  0  0  0  0  0  0  0  0  0  0  0
  -23.9390  -14.0890   20.9890 C   0  0  0  0  0  0  0  0  0  0  0  0
  -23.1540  -13.5530   21.9180 N   0  0  0  0  0  0  0  0  0  0  0  0
  -23.6550  -15.1630   20.4600 O   0  0  0  0  0  0  0  0  0  0  0  0
  -23.3940  -12.6840   22.3740 H   0  0  0  0  0  0  0  0  0  0  0  0
  -22.2960  -14.0200   22.1760 H   0  0  0  0  0  0  0  0  0  0  0  0
  -26.8160  -15.2590   20.1200 N   0  0  0  0  0  0  0  0  0  0  0  0
  -26.1670  -16.0260   20.2070 H   0  0  0  0  0  0  0  0  0  0  0  0
  -27.6760  -15.5160   19.6550 H   0  0  0  0  0  0  0  0  0  0  0  0
  1 62  1  0
  1 12  1  0
  1  2  1  6
  3  1  1  0
  4  3  1  0
  5  4  1  0
  6  8  1  0
  6  5  2  0
  7 10  1  0
  7  5  1  0
  9  6  1  0
 11  7  1  0
 13 12  1  0
 14 13  1  0
 15 14  1  0
 16 15  1  0
 16 19  1  0
 17 16  1  0
 18 16  1  0
 19 20  1  0
 21 23  1  0
 21 20  1  0
 22 33  2  0
 23 28  1  0
 24 34  1  0
 24 32  1  0
 25 31  1  0
 25 27  1  0
 26 32  1  0
 27 26  1  0
 28 27  2  0
 29 30  1  0
 29 23  2  0
 30 25  2  0
 31 24  1  0
 32 22  1  0
 34 36  2  0
 35 34  1  0
 37 35  1  0
 38 43  1  0
 39 35  1  0
 40 39  1  0
 41 42  1  0
 41 40  1  0
 42 38  1  0
 43 39  1  0
 43 44  2  0
 45 44  1  0
 46 45  2  0
 47 38  2  0
 47 46  1  0
 48 22  1  0
 48 49  1  0
 48 58  1  0
 49 52  1  0
 50 54  1  0
 50 49  1  0
 51 50  2  0
 54 53  1  0
 54 56  1  0
 56 55  1  0
 57 56  1  0
 58 59  1  1
 58 61  1  0
 60 58  1  0
 63 72  1  0
 63 62  1  0
 64 72  1  0
 65 70  1  0
 66 67  1  0
 66 65  1  0
 68 67  1  0
 68 77  1  0
 68 69  1  0
 70 64  1  0
 70 69  1  0
 71 64  2  0
 72 73  1  0
 74 75  2  0
 75 94  1  0
 76 75  1  0
 76 79  1  0
 77 78  1  0
 77 74  1  0
 78 76  2  0
 79 80  1  0
 80 81  2  0
 82 85  1  0
 82 81  1  0
 83 82  2  0
 84 83  1  0
 84 79  2  0
 85 86  1  0
 86 87  1  0
 87 88  2  0
 89 88  1  0
 89 93  1  0
 90 89  2  0
 91 86  2  0
 91 90  1  0
 92 91  1  0
 94 95  1  0
 95 98  1  0
 95 97  1  0
 96 94  2  0
 99100  1  0
 99 74  1  0
101 99  1  0
M  ISO  4  20 101  21 101  64 100  72 100
M  END
>  <TORSDO>  (4) 
F 28

>  <SCORE>  (4) 
-8.766

>  <name>  (4) 
3

>  <ligand_id>  (4) 
3

>  <original_smiles>  (4) 
[H]c1c([H])c([H])c2c(c1[H])C([H])([H])C([H])([H])C([H])([H])C2([H])N([H])C(=O)C1([H])N(C(=O)C([H])(N([H])C(=O)C([H])(N([H])C([H])([H])[H])C([H])([H])[H])C(C([H])([H])[H])(C([H])([H])[H])C([H])([H])[H])C([H])([H])c2c([H])c(OC([H])([H])C([H])([H])[N+]([H])([H])C([H])([H])C([H])([H])C([H])([H])C([H])([H])[N+]([H])(C([H])([H])C([H])([H])C(N([H])[H])=[N+]([H])[H])C([H])([H])C([H])([H])N([H])C(=O)N3C([H])([H])C([H])([H])C([H])([H])C([H])(n4nc(-c5c([H])c([H])c(Oc6c([H])c([H])c(F)c([H])c6F)c([H])c5[H])c(C(=O)N([H])[H])c4N([H])[H])C3([H])[H])c([H])c([H])c2C1([H])[H]

>  <smiles>  (4) 
[H]c1c([H])c([H])c2c(c1[H])C([H])([H])C([H])([H])C([H])([H])C2([H])N([H])C(=O)C1([H])N(C(=O)C([H])(N([H])C(=O)C([H])(N([H])C([H])([H])[H])C([H])([H])[H])C(C([H])([H])[H])(C([H])([H])[H])C([H])([H])[H])C([H])([H])c2c([H])c(OC([H])([H])C([H])([H])[N+]([H])([H])C([H])([H])C([H])([H])C([H])([H])C([H])([H])[N+]([H])(C([H])([H])C([H])([H])C(N([H])[H])=[N+]([H])[H])C([H])([H])C([H])([H])N([H])C(=O)N3C([H])([H])C([H])([H])C([H])([H])C([H])(n4nc(-c5c([H])c([H])c(Oc6c([H])c([H])c(F)c([H])c6F)c([H])c5[H])c(C(=O)N([H])[H])c4N([H])[H])C3([H])[H])c([H])c([H])c2C1([H])[H]

$$$$
4:0:0
     RDKit          3D

 97105  0  0  1  0  0  0  0  0999 V2000
  -28.6820  -20.8440   20.8790 C   0  0  0  0  0  2  0  0  0  0  0  0
  -30.2390  -21.0700   18.9200 C   0  0  0  0  0  2  0  0  0  0  0  0
  -28.2360  -22.3350   20.7700 C   0  0  0  0  0  2  0  0  0  0  0  0
  -29.2890  -22.2430   18.5420 C   0  0  0  0  0  2  0  0  0  0  0  0
  -30.1400  -20.6660   20.4150 C   0  0  0  0  0  3  0  0  0  0  0  0
  -28.9670  -23.1030   19.7150 N   0  0  1  0  0  4  0  0  0  0  0  0
  -29.8670  -23.3410   20.1090 H   0  0  0  0  0  0  0  0  0  0  0  0
  -28.3490  -24.4200   19.3480 C   0  0  0  0  0  2  0  0  0  0  0  0
  -28.3000  -25.4330   20.5230 C   0  0  0  0  0  2  0  0  0  0  0  0
  -28.3080  -26.8060   20.1030 O   0  0  0  0  0  0  0  0  0  0  0  0
  -24.5140  -31.9590   23.2430 C   0  0  0  0  0  0  0  0  0  0  0  0
  -27.1210  -27.5010   20.1520 C   0  0  0  0  0  0  0  0  0  0  0  0
  -23.2890  -30.5550   21.6180 C   0  0  0  0  0  3  0  0  0  0  0  0
  -24.7240  -29.0030   20.1900 C   0  0  0  0  0  0  0  0  0  0  0  0
  -25.8120  -30.9080   21.3900 C   0  0  0  0  0  2  0  0  0  0  0  0
  -25.8890  -29.5320   20.7580 C   0  0  0  0  0  0  0  0  0  0  0  0
  -27.0900  -28.7910   20.7320 C   0  0  0  0  0  3  0  0  0  0  0  0
  -25.9360  -26.9770   19.5900 C   0  0  0  0  0  3  0  0  0  0  0  0
  -24.7410  -27.7230   19.6080 C   0  0  0  0  0  3  0  0  0  0  0  0
  -23.4820  -29.8660   20.2410 C   0  0  0  0  0  2  0  0  0  0  0  0
  -24.5580  -31.1550   22.1430 N   0  0  0  0  0  0  0  0  0  0  0  0
  -23.4380  -32.2340   23.7930 O   0  0  0  0  0  0  0  0  0  0  0  0
  -22.6420  -29.5400   22.5860 C   0  0  0  0  0  0  0  0  0  0  0  0
  -21.3160  -29.3550   22.4620 N   0  0  0  0  0  0  0  0  0  0  0  0
  -23.3280  -28.9200   23.4030 O   0  0  0  0  0  0  0  0  0  0  0  0
  -20.8240  -29.9050   21.7720 H   0  0  0  0  0  0  0  0  0  0  0  0
  -17.9440  -28.1650   22.9690 C   0  0  0  0  0  0  0  0  0  0  0  0
  -20.5020  -28.4210   23.2390 C   0  0  0  0  0  3  0  0  0  0  0  0
  -20.6050  -26.9870   22.6690 C   0  0  0  0  0  2  0  0  0  0  0  0
  -19.5010  -26.6600   21.6590 C   0  0  0  0  0  2  0  0  0  0  0  0
  -18.1200  -26.8100   22.3030 C   0  0  0  0  0  2  0  0  0  0  0  0
  -19.0640  -28.9270   23.3950 C   0  0  0  0  0  0  0  0  0  0  0  0
  -18.8470  -30.1960   23.9770 C   0  0  0  0  0  3  0  0  0  0  0  0
  -17.5440  -30.7010   24.1370 C   0  0  0  0  0  3  0  0  0  0  0  0
  -16.4380  -29.9320   23.7320 C   0  0  0  0  0  3  0  0  0  0  0  0
  -16.6390  -28.6670   23.1530 C   0  0  0  0  0  3  0  0  0  0  0  0
  -25.8060  -32.5880   23.8500 C   0  0  0  0  0  3  0  0  0  0  0  0
  -26.3300  -31.8200   25.1250 C   0  0  1  0  0  0  0  0  0  0  0  0
  -25.2450  -31.5900   26.2030 C   0  0  0  0  0  1  0  0  0  0  0  0
  -26.9010  -30.4390   24.7280 C   0  0  0  0  0  1  0  0  0  0  0  0
  -27.4930  -32.6070   25.7720 C   0  0  0  0  0  1  0  0  0  0  0  0
  -25.5070  -33.9890   24.1740 N   0  0  0  0  0  0  0  0  0  0  0  0
  -25.8560  -35.0350   23.4120 C   0  0  0  0  0  0  0  0  0  0  0  0
  -26.5330  -34.9210   22.3860 O   0  0  0  0  0  0  0  0  0  0  0  0
  -24.9060  -34.1550   24.9680 H   0  0  0  0  0  0  0  0  0  0  0  0
  -24.1570  -36.8480   23.0250 C   0  0  0  0  0  1  0  0  0  0  0  0
  -25.3760  -36.4290   23.8600 C   0  0  0  0  0  3  0  0  0  0  0  0
  -27.5060  -37.2860   24.7320 C   0  0  0  0  0  1  0  0  0  0  0  0
  -26.4230  -37.4700   23.7680 N   0  0  0  0  0  0  0  0  0  0  0  0
  -26.0260  -38.3940   23.9120 H   0  0  0  0  0  0  0  0  0  0  0  0
  -30.7650  -19.3740   20.7930 N   0  0  0  0  0  0  0  0  0  0  0  0
  -30.1590  -18.1000   20.3540 C   0  0  0  0  0  2  0  0  0  0  0  0
  -30.5660  -16.9470   21.3300 C   0  0  0  0  0  2  0  0  0  0  0  0
  -30.7520  -14.5920   20.4550 C   0  0  0  0  0  0  0  0  0  0  0  0
  -30.4730  -12.4080   19.3360 C   0  0  0  0  0  2  0  0  0  0  0  0
  -29.5270  -12.5740   18.1300 C   0  0  0  0  0  2  0  0  0  0  0  0
  -28.0540  -12.4360   18.5650 C   0  0  0  0  0  2  0  0  0  0  0  0
  -27.7120  -13.3000   19.8080 C   0  0  0  0  0  3  0  0  0  0  0  0
  -28.7670  -13.1050   20.9190 C   0  0  0  0  0  2  0  0  0  0  0  0
  -30.0860  -13.4100   20.3400 N   0  0  0  0  0  0  0  0  0  0  0  0
  -31.8830  -14.7700   19.9960 O   0  0  0  0  0  0  0  0  0  0  0  0
  -30.0520  -15.6060   21.0000 N   0  0  0  0  0  0  0  0  0  0  0  0
  -29.1140  -15.3900   21.3030 H   0  0  0  0  0  0  0  0  0  0  0  0
  -25.3210  -13.9180   20.5290 C   0  0  0  0  0  0  0  0  0  0  0  0
  -24.2500  -13.1510   20.9000 C   0  0  0  0  0  0  0  0  0  0  0  0
  -24.7030  -11.7970   20.8630 C   0  0  0  0  0  0  0  0  0  0  0  0
  -26.3600  -13.0320   20.2920 N   0  0  0  0  0  0  0  0  0  0  0  0
  -25.9930  -11.7510   20.5510 N   0  0  0  0  0  0  0  0  0  0  0  0
  -23.9700  -10.5380   21.0520 C   0  0  0  0  0  0  0  0  0  0  0  0
  -24.4050   -9.5620   21.9750 C   0  0  0  0  0  3  0  0  0  0  0  0
  -23.6740   -8.3670   22.1510 C   0  0  0  0  0  3  0  0  0  0  0  0
  -22.4950   -8.1410   21.4020 C   0  0  0  0  0  0  0  0  0  0  0  0
  -22.0800   -9.1050   20.4670 C   0  0  0  0  0  3  0  0  0  0  0  0
  -22.8110  -10.2910   20.2890 C   0  0  0  0  0  3  0  0  0  0  0  0
  -21.7340   -7.0000   21.4880 O   0  0  0  0  0  0  0  0  0  0  0  0
  -21.6830   -6.2540   22.6390 C   0  0  0  0  0  0  0  0  0  0  0  0
  -21.2550   -6.8050   23.8660 C   0  0  0  0  0  3  0  0  0  0  0  0
  -21.1510   -5.9850   25.0070 C   0  0  0  0  0  3  0  0  0  0  0  0
  -21.4660   -4.6150   24.9220 C   0  0  0  0  0  0  0  0  0  0  0  0
  -21.8870   -4.0640   23.6990 C   0  0  0  0  0  3  0  0  0  0  0  0
  -21.9930   -4.8800   22.5600 C   0  0  0  0  0  0  0  0  0  0  0  0
  -22.3790   -4.3400   21.3800 F   0  0  0  0  0  0  0  0  0  0  0  0
  -21.3590   -3.8260   26.0160 F   0  0  0  0  0  0  0  0  0  0  0  0
  -22.8560  -13.6340   21.1780 C   0  0  0  0  0  0  0  0  0  0  0  0
  -22.1270  -12.9400   22.0450 N   0  0  0  0  0  0  0  0  0  0  0  0
  -22.4210  -14.6640   20.6610 O   0  0  0  0  0  0  0  0  0  0  0  0
  -22.4910  -12.1070   22.4840 H   0  0  0  0  0  0  0  0  0  0  0  0
  -21.1910  -13.2450   22.2740 H   0  0  0  0  0  0  0  0  0  0  0  0
  -25.4940  -15.2890   20.3540 N   0  0  0  0  0  0  0  0  0  0  0  0
  -24.7310  -15.9470   20.4630 H   0  0  0  0  0  0  0  0  0  0  0  0
  -26.3440  -15.7200   20.0130 H   0  0  0  0  0  0  0  0  0  0  0  0
  -32.2260  -19.4020   20.6050 C   0  0  0  0  0  2  0  0  0  0  0  0
  -32.9400  -19.7910   21.9140 C   0  0  0  0  0  2  0  0  0  0  0  0
  -34.4030  -19.6900   21.7900 N   0  0  0  0  0  4  0  0  0  0  0  0
  -34.6800  -18.7540   21.5560 H   0  0  0  0  0  0  0  0  0  0  0  0
  -34.8390  -19.9340   22.6620 H   0  0  0  0  0  0  0  0  0  0  0  0
  -34.7460  -20.3160   21.0840 H   0  0  0  0  0  0  0  0  0  0  0  0
  2  5  1  0
  3  1  1  0
  4  2  1  0
  4  6  1  0
  5 51  1  0
  5  1  1  0
  6  7  1  1
  6  3  1  0
  8  6  1  0
  8  9  1  0
 10 12  1  0
 10  9  1  0
 11 22  2  0
 12 17  1  0
 13 21  1  0
 13 23  1  0
 14 20  1  0
 14 16  1  0
 15 21  1  0
 16 15  1  0
 17 16  2  0
 18 19  1  0
 18 12  2  0
 19 14  2  0
 20 13  1  0
 21 11  1  0
 23 25  2  0
 24 23  1  0
 26 24  1  0
 27 36  2  0
 27 32  1  0
 28 24  1  0
 28 32  1  0
 29 28  1  0
 30 31  1  0
 30 29  1  0
 31 27  1  0
 32 33  2  0
 33 34  1  0
 35 34  2  0
 36 35  1  0
 37 11  1  0
 37 42  1  0
 37 38  1  0
 38 41  1  1
 38 39  1  0
 40 38  1  0
 42 45  1  0
 43 47  1  0
 43 42  1  0
 44 43  2  0
 47 46  1  0
 49 47  1  0
 49 50  1  0
 49 48  1  0
 52 51  1  0
 52 53  1  0
 54 62  1  0
 55 60  1  0
 56 57  1  0
 56 55  1  0
 58 57  1  0
 58 67  1  0
 58 59  1  0
 60 54  1  0
 60 59  1  0
 61 54  2  0
 62 63  1  0
 62 53  1  0
 64 65  2  0
 65 84  1  0
 66 65  1  0
 66 69  1  0
 67 64  1  0
 67 68  1  0
 68 66  2  0
 69 70  1  0
 70 71  2  0
 72 75  1  0
 72 71  1  0
 73 72  2  0
 74 73  1  0
 74 69  2  0
 75 76  1  0
 76 77  1  0
 77 78  2  0
 79 78  1  0
 79 83  1  0
 80 79  2  0
 81 76  2  0
 81 80  1  0
 82 81  1  0
 84 85  1  0
 85 88  1  0
 85 87  1  0
 86 84  2  0
 89 90  1  0
 89 64  1  0
 91 89  1  0
 92 51  1  0
 92 93  1  0
 94 93  1  0
 94 96  1  0
 95 94  1  0
 97 94  1  0
M  ISO  4   9 101  10 101  54 100  62 100
M  END
>  <TORSDO>  (5) 
F 24

>  <SCORE>  (5) 
-12.952

>  <name>  (5) 
4

>  <ligand_id>  (5) 
4

>  <original_smiles>  (5) 
[H]c1c([H])c([H])c2c(c1[H])C([H])([H])C([H])([H])C([H])([H])C2([H])N([H])C(=O)C1([H])N(C(=O)C([H])(N([H])C(=O)C([H])(N([H])C([H])([H])[H])C([H])([H])[H])C(C([H])([H])[H])(C([H])([H])[H])C([H])([H])[H])C([H])([H])c2c([H])c(OC([H])([H])C([H])([H])[N+]3([H])C([H])([H])C([H])([H])C([H])(N(C([H])([H])C([H])([H])N([H])C(=O)N4C([H])([H])C([H])([H])C([H])([H])C([H])(n5nc(-c6c([H])c([H])c(Oc7c([H])c([H])c(F)c([H])c7F)c([H])c6[H])c(C(=O)N([H])[H])c5N([H])[H])C4([H])[H])C([H])([H])C([H])([H])[N+]([H])([H])[H])C([H])([H])C3([H])[H])c([H])c([H])c2C1([H])[H]

>  <smiles>  (5) 
[H]c1c([H])c([H])c2c(c1[H])C([H])([H])C([H])([H])C([H])([H])C2([H])N([H])C(=O)C1([H])N(C(=O)C([H])(N([H])C(=O)C([H])(N([H])C([H])([H])[H])C([H])([H])[H])C(C([H])([H])[H])(C([H])([H])[H])C([H])([H])[H])C([H])([H])c2c([H])c(OC([H])([H])C([H])([H])[N+]3([H])C([H])([H])C([H])([H])C([H])(N(C([H])([H])C([H])([H])N([H])C(=O)N4C([H])([H])C([H])([H])C([H])([H])C([H])(n5nc(-c6c([H])c([H])c(Oc7c([H])c([H])c(F)c([H])c7F)c([H])c6[H])c(C(=O)N([H])[H])c5N([H])[H])C4([H])[H])C([H])([H])C([H])([H])[N+]([H])([H])[H])C([H])([H])C3([H])[H])c([H])c([H])c2C1([H])[H]

$$$$
5:0:0
     RDKit          3D

 96105  0  0  1  0  0  0  0  0999 V2000
  -29.2380  -21.0560   20.6650 C   0  0  0  0  0  2  0  0  0  0  0  0
  -29.1400  -21.4280   18.1420 C   0  0  0  0  0  2  0  0  0  0  0  0
  -29.9290  -22.4240   20.7880 C   0  0  0  0  0  2  0  0  0  0  0  0
  -29.8290  -22.7830   18.3700 C   0  0  0  0  0  2  0  0  0  0  0  0
  -29.4350  -20.4130   19.2690 C   0  0  0  0  0  3  0  0  0  0  0  0
  -29.4430  -23.3010   19.7030 N   0  0  2  0  0  4  0  0  0  0  0  0
  -28.4390  -23.2020   19.7420 H   0  0  0  0  0  0  0  0  0  0  0  0
  -28.5580  -19.1570   19.0800 C   0  0  0  0  0  2  0  0  0  0  0  0
  -29.2620  -16.9020   19.8700 C   0  0  0  0  0  0  0  0  0  0  0  0
  -28.8400  -18.1500   20.0960 N   0  0  0  0  0  0  0  0  0  0  0  0
  -29.3360  -16.4500   18.7280 O   0  0  0  0  0  0  0  0  0  0  0  0
  -28.7390  -18.4330   21.0600 H   0  0  0  0  0  0  0  0  0  0  0  0
  -30.7870  -14.2470   19.7890 C   0  0  0  0  0  0  0  0  0  0  0  0
  -30.1330  -12.2930   18.4310 C   0  0  0  0  0  2  0  0  0  0  0  0
  -29.0610  -12.6820   17.3960 C   0  0  0  0  0  2  0  0  0  0  0  0
  -27.6500  -12.5710   18.0060 C   0  0  0  0  0  2  0  0  0  0  0  0
  -27.5380  -13.2840   19.3800 C   0  0  0  0  0  3  0  0  0  0  0  0
  -28.7130  -12.8880   20.3050 C   0  0  0  0  0  2  0  0  0  0  0  0
  -29.9760  -13.1700   19.5980 N   0  0  0  0  0  0  0  0  0  0  0  0
  -31.7540  -14.5000   19.0620 O   0  0  0  0  0  0  0  0  0  0  0  0
  -31.1270  -15.9390   23.0260 C   0  0  0  0  0  2  0  0  0  0  0  0
  -30.1830  -16.8750   22.2880 C   0  0  0  0  0  2  0  0  0  0  0  0
  -31.6240  -14.9680   21.9570 C   0  0  0  0  0  2  0  0  0  0  0  0
  -29.6100  -16.0460   21.1190 C   0  0  0  0  0  3  0  0  0  0  0  0
  -30.5900  -14.9480   20.9200 N   0  0  0  0  0  0  0  0  0  0  0  0
  -25.2630  -13.9290   20.3950 C   0  0  0  0  0  0  0  0  0  0  0  0
  -24.2230  -13.1730   20.8650 C   0  0  0  0  0  0  0  0  0  0  0  0
  -24.6290  -11.8110   20.7230 C   0  0  0  0  0  0  0  0  0  0  0  0
  -26.2440  -13.0280   20.0080 N   0  0  0  0  0  0  0  0  0  0  0  0
  -25.8710  -11.7480   20.2600 N   0  0  0  0  0  0  0  0  0  0  0  0
  -23.8890  -10.5640   20.9550 C   0  0  0  0  0  0  0  0  0  0  0  0
  -24.3740   -9.5700   21.8340 C   0  0  0  0  0  3  0  0  0  0  0  0
  -23.6360   -8.3870   22.0520 C   0  0  0  0  0  3  0  0  0  0  0  0
  -22.3960   -8.1910   21.3970 C   0  0  0  0  0  0  0  0  0  0  0  0
  -21.9290   -9.1730   20.5060 C   0  0  0  0  0  3  0  0  0  0  0  0
  -22.6670  -10.3490   20.2840 C   0  0  0  0  0  3  0  0  0  0  0  0
  -21.6230   -7.0630   21.5310 O   0  0  0  0  0  0  0  0  0  0  0  0
  -21.6290   -6.3190   22.6850 C   0  0  0  0  0  0  0  0  0  0  0  0
  -21.3110   -6.8850   23.9380 C   0  0  0  0  0  3  0  0  0  0  0  0
  -21.2610   -6.0690   25.0860 C   0  0  0  0  0  3  0  0  0  0  0  0
  -21.5180   -4.6890   24.9820 C   0  0  0  0  0  0  0  0  0  0  0  0
  -21.8290   -4.1230   23.7320 C   0  0  0  0  0  3  0  0  0  0  0  0
  -21.8830   -4.9360   22.5880 C   0  0  0  0  0  0  0  0  0  0  0  0
  -22.1620   -4.3830   21.3820 F   0  0  0  0  0  0  0  0  0  0  0  0
  -21.4630   -3.9030   26.0830 F   0  0  0  0  0  0  0  0  0  0  0  0
  -22.8870  -13.6800   21.3320 C   0  0  0  0  0  0  0  0  0  0  0  0
  -22.2590  -12.9810   22.2720 N   0  0  0  0  0  0  0  0  0  0  0  0
  -22.4140  -14.7300   20.8930 O   0  0  0  0  0  0  0  0  0  0  0  0
  -22.6550  -12.1340   22.6520 H   0  0  0  0  0  0  0  0  0  0  0  0
  -21.3680  -13.3000   22.6230 H   0  0  0  0  0  0  0  0  0  0  0  0
  -25.4490  -15.2990   20.2470 N   0  0  0  0  0  0  0  0  0  0  0  0
  -24.7110  -15.9630   20.4570 H   0  0  0  0  0  0  0  0  0  0  0  0
  -26.2380  -15.7190   19.7730 H   0  0  0  0  0  0  0  0  0  0  0  0
  -29.6630  -24.7530   19.9080 C   0  0  0  0  0  2  0  0  0  0  0  0
  -28.3610  -25.4890   19.5800 C   0  0  0  0  0  2  0  0  0  0  0  0
  -28.3730  -26.8210   20.0740 O   0  0  0  0  0  0  0  0  0  0  0  0
  -24.5370  -31.9000   23.2250 C   0  0  0  0  0  0  0  0  0  0  0  0
  -27.1720  -27.4980   20.0850 C   0  0  0  0  0  0  0  0  0  0  0  0
  -23.3250  -30.5130   21.5770 C   0  0  0  0  0  3  0  0  0  0  0  0
  -24.7690  -28.9840   20.1400 C   0  0  0  0  0  0  0  0  0  0  0  0
  -25.8500  -30.8670   21.3790 C   0  0  0  0  0  2  0  0  0  0  0  0
  -25.9290  -29.5030   20.7290 C   0  0  0  0  0  0  0  0  0  0  0  0
  -27.1290  -28.7650   20.7030 C   0  0  0  0  0  3  0  0  0  0  0  0
  -25.9880  -26.9890   19.4920 C   0  0  0  0  0  3  0  0  0  0  0  0
  -24.7910  -27.7240   19.5240 C   0  0  0  0  0  3  0  0  0  0  0  0
  -23.5280  -29.8440   20.1910 C   0  0  0  0  0  2  0  0  0  0  0  0
  -24.5890  -31.1060   22.1190 N   0  0  0  0  0  0  0  0  0  0  0  0
  -23.4580  -32.1710   23.7680 O   0  0  0  0  0  0  0  0  0  0  0  0
  -22.6740  -29.4830   22.5290 C   0  0  0  0  0  0  0  0  0  0  0  0
  -21.3530  -29.2910   22.3880 N   0  0  0  0  0  0  0  0  0  0  0  0
  -23.3540  -28.8610   23.3500 O   0  0  0  0  0  0  0  0  0  0  0  0
  -20.8650  -29.8460   21.6970 H   0  0  0  0  0  0  0  0  0  0  0  0
  -17.9820  -28.0740   22.8450 C   0  0  0  0  0  0  0  0  0  0  0  0
  -20.5340  -28.3490   23.1500 C   0  0  0  0  0  3  0  0  0  0  0  0
  -20.6540  -26.9170   22.5780 C   0  0  0  0  0  2  0  0  0  0  0  0
  -19.5660  -26.5850   21.5510 C   0  0  0  0  0  2  0  0  0  0  0  0
  -18.1760  -26.7230   22.1780 C   0  0  0  0  0  2  0  0  0  0  0  0
  -19.0900  -28.8430   23.2890 C   0  0  0  0  0  0  0  0  0  0  0  0
  -18.8560  -30.1080   23.8720 C   0  0  0  0  0  3  0  0  0  0  0  0
  -17.5460  -30.6020   24.0180 C   0  0  0  0  0  3  0  0  0  0  0  0
  -16.4520  -29.8290   23.5920 C   0  0  0  0  0  3  0  0  0  0  0  0
  -16.6710  -28.5670   23.0130 C   0  0  0  0  0  3  0  0  0  0  0  0
  -25.8260  -32.5210   23.8470 C   0  0  0  0  0  3  0  0  0  0  0  0
  -26.3520  -31.7330   25.1080 C   0  0  1  0  0  0  0  0  0  0  0  0
  -25.2660  -31.4750   26.1770 C   0  0  0  0  0  1  0  0  0  0  0  0
  -26.9390  -30.3640   24.6900 C   0  0  0  0  0  1  0  0  0  0  0  0
  -27.5030  -32.5220   25.7760 C   0  0  0  0  0  1  0  0  0  0  0  0
  -25.5210  -33.9140   24.1930 N   0  0  0  0  0  0  0  0  0  0  0  0
  -25.8510  -34.9740   23.4430 C   0  0  0  0  0  0  0  0  0  0  0  0
  -26.5170  -34.8810   22.4080 O   0  0  0  0  0  0  0  0  0  0  0  0
  -24.9300  -34.0620   24.9990 H   0  0  0  0  0  0  0  0  0  0  0  0
  -24.1210  -36.7680   23.1090 C   0  0  0  0  0  1  0  0  0  0  0  0
  -25.3650  -36.3570   23.9140 C   0  0  0  0  0  3  0  0  0  0  0  0
  -27.5040  -37.2310   24.7430 C   0  0  0  0  0  1  0  0  0  0  0  0
  -26.3970  -37.4120   23.8080 N   0  0  0  0  0  0  0  0  0  0  0  0
  -25.9930  -38.3310   23.9690 H   0  0  0  0  0  0  0  0  0  0  0  0
  1  3  1  0
  2  4  1  0
  2  5  1  0
  4  6  1  0
  5  8  1  0
  5  1  1  0
  6  7  1  6
  6 54  1  0
  6  3  1  0
  8 10  1  0
  9 10  1  0
 10 12  1  0
 11  9  2  0
 13 25  1  0
 14 19  1  0
 15 16  1  0
 15 14  1  0
 17 16  1  0
 17 29  1  0
 17 18  1  0
 19 13  1  0
 19 18  1  0
 20 13  2  0
 22 21  1  0
 23 21  1  0
 24  9  1  0
 24 22  1  0
 25 24  1  0
 25 23  1  0
 26 27  2  0
 27 46  1  0
 28 27  1  0
 28 31  1  0
 29 30  1  0
 29 26  1  0
 30 28  2  0
 31 32  1  0
 32 33  2  0
 34 37  1  0
 34 33  1  0
 35 34  2  0
 36 35  1  0
 36 31  2  0
 37 38  1  0
 38 39  1  0
 39 40  2  0
 41 40  1  0
 41 45  1  0
 42 41  2  0
 43 38  2  0
 43 42  1  0
 44 43  1  0
 46 47  1  0
 47 50  1  0
 47 49  1  0
 48 46  2  0
 51 26  1  0
 51 52  1  0
 53 51  1  0
 55 54  1  0
 55 56  1  0
 56 58  1  0
 57 68  2  0
 58 63  1  0
 59 67  1  0
 59 69  1  0
 60 66  1  0
 60 62  1  0
 61 67  1  0
 62 61  1  0
 63 62  2  0
 64 65  1  0
 64 58  2  0
 65 60  2  0
 66 59  1  0
 67 57  1  0
 69 71  2  0
 70 69  1  0
 72 70  1  0
 73 82  2  0
 73 78  1  0
 74 70  1  0
 74 78  1  0
 75 74  1  0
 76 77  1  0
 76 75  1  0
 77 73  1  0
 78 79  2  0
 79 80  1  0
 81 80  2  0
 82 81  1  0
 83 57  1  0
 83 88  1  0
 83 84  1  0
 84 87  1  1
 84 85  1  0
 86 84  1  0
 88 91  1  0
 89 93  1  0
 89 88  1  0
 90 89  2  0
 93 92  1  0
 95 93  1  0
 95 96  1  0
 95 94  1  0
M  ISO  4  13 100  25 100  55 101  56 101
M  END
>  <TORSDO>  (6) 
F 20

>  <SCORE>  (6) 
-11.375

>  <name>  (6) 
5

>  <ligand_id>  (6) 
5

>  <original_smiles>  (6) 
[H]c1c([H])c([H])c2c(c1[H])C([H])([H])C([H])([H])C([H])([H])C2([H])N([H])C(=O)C1([H])N(C(=O)C([H])(N([H])C(=O)C([H])(N([H])C([H])([H])[H])C([H])([H])[H])C(C([H])([H])[H])(C([H])([H])[H])C([H])([H])[H])C([H])([H])c2c([H])c(OC([H])([H])C([H])([H])[N+]3([H])C([H])([H])C([H])([H])C([H])(C([H])([H])N([H])C(=O)C4([H])N(C(=O)N5C([H])([H])C([H])([H])C([H])([H])C([H])(n6nc(-c7c([H])c([H])c(Oc8c([H])c([H])c(F)c([H])c8F)c([H])c7[H])c(C(=O)N([H])[H])c6N([H])[H])C5([H])[H])C([H])([H])C([H])([H])C4([H])[H])C([H])([H])C3([H])[H])c([H])c([H])c2C1([H])[H]

>  <smiles>  (6) 
[H]c1c([H])c([H])c2c(c1[H])C([H])([H])C([H])([H])C([H])([H])C2([H])N([H])C(=O)C1([H])N(C(=O)C([H])(N([H])C(=O)C([H])(N([H])C([H])([H])[H])C([H])([H])[H])C(C([H])([H])[H])(C([H])([H])[H])C([H])([H])[H])C([H])([H])c2c([H])c(OC([H])([H])C([H])([H])[N+]3([H])C([H])([H])C([H])([H])C([H])(C([H])([H])N([H])C(=O)C4([H])N(C(=O)N5C([H])([H])C([H])([H])C([H])([H])C([H])(n6nc(-c7c([H])c([H])c(Oc8c([H])c([H])c(F)c([H])c8F)c([H])c7[H])c(C(=O)N([H])[H])c6N([H])[H])C5([H])[H])C([H])([H])C([H])([H])C4([H])[H])C([H])([H])C3([H])[H])c([H])c([H])c2C1([H])[H]

$$$$
6:0:0
     RDKit          3D

 88 96  0  0  1  0  0  0  0  0999 V2000
  -28.7530  -23.1110   20.1740 C   0  0  0  0  0  3  0  0  0  0  0  0
  -27.7980  -24.3750   20.5070 N   0  0  0  0  0  0  0  0  0  0  0  0
  -27.5790  -24.3580   21.5000 H   0  0  0  0  0  0  0  0  0  0  0  0
  -28.2140  -25.9560   20.1900 O   0  0  0  0  0  0  0  0  0  0  0  0
  -24.6140  -31.8470   23.1890 C   0  0  0  0  0  0  0  0  0  0  0  0
  -27.1780  -27.0080   20.1970 C   0  0  0  0  0  0  0  0  0  0  0  0
  -23.4180  -30.4350   21.5640 C   0  0  0  0  0  3  0  0  0  0  0  0
  -24.8670  -28.8340   20.1480 C   0  0  0  0  0  0  0  0  0  0  0  0
  -25.9780  -30.6700   21.4030 C   0  0  0  0  0  2  0  0  0  0  0  0
  -26.0510  -29.2600   20.7640 C   0  0  0  0  0  0  0  0  0  0  0  0
  -27.2030  -28.3630   20.7710 C   0  0  0  0  0  3  0  0  0  0  0  0
  -25.9690  -26.7200   19.5290 C   0  0  0  0  0  3  0  0  0  0  0  0
  -24.8450  -27.5820   19.5140 C   0  0  0  0  0  3  0  0  0  0  0  0
  -23.6430  -29.7440   20.1910 C   0  0  0  0  0  2  0  0  0  0  0  0
  -24.6910  -31.0100   22.1050 N   0  0  0  0  0  0  0  0  0  0  0  0
  -23.5270  -32.1340   23.7140 O   0  0  0  0  0  0  0  0  0  0  0  0
  -22.7370  -29.4380   22.5380 C   0  0  0  0  0  0  0  0  0  0  0  0
  -21.4060  -29.2710   22.4240 N   0  0  0  0  0  0  0  0  0  0  0  0
  -23.4110  -28.8160   23.3630 O   0  0  0  0  0  0  0  0  0  0  0  0
  -20.9170  -29.8230   21.7340 H   0  0  0  0  0  0  0  0  0  0  0  0
  -18.0300  -28.0620   22.9610 C   0  0  0  0  0  0  0  0  0  0  0  0
  -20.5900  -28.3370   23.2070 C   0  0  0  0  0  3  0  0  0  0  0  0
  -20.6920  -26.9010   22.6400 C   0  0  0  0  0  2  0  0  0  0  0  0
  -19.5840  -26.5700   21.6350 C   0  0  0  0  0  2  0  0  0  0  0  0
  -18.2060  -26.7120   22.2880 C   0  0  0  0  0  2  0  0  0  0  0  0
  -19.1490  -28.8320   23.3770 C   0  0  0  0  0  0  0  0  0  0  0  0
  -18.9270  -30.0940   23.9700 C   0  0  0  0  0  3  0  0  0  0  0  0
  -17.6200  -30.5890   24.1470 C   0  0  0  0  0  3  0  0  0  0  0  0
  -16.5160  -29.8160   23.7440 C   0  0  0  0  0  3  0  0  0  0  0  0
  -16.7220  -28.5550   23.1570 C   0  0  0  0  0  3  0  0  0  0  0  0
  -25.8870  -32.4970   23.8100 C   0  0  0  0  0  3  0  0  0  0  0  0
  -25.5590  -33.8900   24.1570 N   0  0  0  0  0  0  0  0  0  0  0  0
  -25.8710  -34.9590   23.4120 C   0  0  0  0  0  0  0  0  0  0  0  0
  -26.5270  -34.8770   22.3710 O   0  0  0  0  0  0  0  0  0  0  0  0
  -24.9730  -34.0260   24.9670 H   0  0  0  0  0  0  0  0  0  0  0  0
  -24.1170  -36.7420   23.1160 C   0  0  0  0  0  1  0  0  0  0  0  0
  -25.3780  -36.3380   23.8970 C   0  0  0  0  0  3  0  0  0  0  0  0
  -27.5200  -37.2380   24.6960 C   0  0  0  0  0  1  0  0  0  0  0  0
  -26.3970  -37.4050   23.7770 N   0  0  0  0  0  0  0  0  0  0  0  0
  -25.9850  -38.3180   23.9420 H   0  0  0  0  0  0  0  0  0  0  0  0
  -26.4160  -31.7280   25.0850 C   0  0  1  0  0  0  0  0  0  0  0  0
  -25.3300  -31.4840   26.1590 C   0  0  0  0  0  1  0  0  0  0  0  0
  -27.0060  -30.3540   24.6960 C   0  0  0  0  0  1  0  0  0  0  0  0
  -27.5650  -32.5300   25.7390 C   0  0  0  0  0  1  0  0  0  0  0  0
  -28.4760  -21.4300   20.6710 C   0  0  0  0  0  3  0  0  0  0  0  0
  -30.4940  -15.1900   20.2220 C   0  0  0  0  0  0  0  0  0  0  0  0
  -30.3360  -12.7870   19.3160 C   0  0  0  0  0  2  0  0  0  0  0  0
  -29.3950  -12.6130   18.1020 C   0  0  0  0  0  2  0  0  0  0  0  0
  -27.9560  -12.3560   18.5770 C   0  0  0  0  0  2  0  0  0  0  0  0
  -27.5360  -13.3220   19.7130 C   0  0  0  0  0  3  0  0  0  0  0  0
  -28.6080  -13.4740   20.8140 C   0  0  0  0  0  2  0  0  0  0  0  0
  -29.8300  -13.9420   20.1450 N   0  0  0  0  0  0  0  0  0  0  0  0
  -31.7140  -15.0880   20.0280 O   0  0  0  0  0  0  0  0  0  0  0  0
  -28.5960  -17.1710   19.9470 C   0  0  0  0  0  2  0  0  0  0  0  0
  -30.8070  -17.8110   20.4140 C   0  0  0  0  0  2  0  0  0  0  0  0
  -28.1350  -18.7440   20.2830 C   0  0  0  0  0  2  0  0  0  0  0  0
  -30.3010  -19.3370   20.8320 C   0  0  0  0  0  2  0  0  0  0  0  0
  -29.9260  -16.5530   20.3590 N   0  0  0  0  0  0  0  0  0  0  0  0
  -29.0740  -19.9650   20.1750 N   0  0  2  0  0  4  0  0  0  0  0  0
  -29.2810  -20.0740   19.1940 H   0  0  0  0  0  0  0  0  0  0  0  0
  -25.1820  -13.8730   20.5200 C   0  0  0  0  0  0  0  0  0  0  0  0
  -24.1300  -13.0930   20.9040 C   0  0  0  0  0  0  0  0  0  0  0  0
  -24.5980  -11.7440   20.8560 C   0  0  0  0  0  0  0  0  0  0  0  0
  -26.2210  -13.0020   20.2510 N   0  0  0  0  0  0  0  0  0  0  0  0
  -25.8850  -11.7140   20.5240 N   0  0  0  0  0  0  0  0  0  0  0  0
  -23.8760  -10.4790   21.0470 C   0  0  0  0  0  0  0  0  0  0  0  0
  -24.3310   -9.4980   21.9550 C   0  0  0  0  0  3  0  0  0  0  0  0
  -23.6040   -8.3010   22.1380 C   0  0  0  0  0  3  0  0  0  0  0  0
  -22.4100   -8.0770   21.4130 C   0  0  0  0  0  0  0  0  0  0  0  0
  -21.9750   -9.0470   20.4930 C   0  0  0  0  0  3  0  0  0  0  0  0
  -22.7020  -10.2350   20.3090 C   0  0  0  0  0  3  0  0  0  0  0  0
  -21.6540   -6.9340   21.5060 O   0  0  0  0  0  0  0  0  0  0  0  0
  -21.6450   -6.1690   22.6450 C   0  0  0  0  0  0  0  0  0  0  0  0
  -21.2770   -6.7030   23.8990 C   0  0  0  0  0  3  0  0  0  0  0  0
  -21.2130   -5.8650   25.0310 C   0  0  0  0  0  3  0  0  0  0  0  0
  -21.5080   -4.4940   24.9100 C   0  0  0  0  0  0  0  0  0  0  0  0
  -21.8710   -3.9590   23.6610 C   0  0  0  0  0  3  0  0  0  0  0  0
  -21.9350   -4.7930   22.5310 C   0  0  0  0  0  0  0  0  0  0  0  0
  -22.2640   -4.2690   21.3260 F   0  0  0  0  0  0  0  0  0  0  0  0
  -21.4400   -3.6870   25.9940 F   0  0  0  0  0  0  0  0  0  0  0  0
  -22.7360  -13.5660   21.1960 C   0  0  0  0  0  0  0  0  0  0  0  0
  -22.0220  -12.8690   22.0710 N   0  0  0  0  0  0  0  0  0  0  0  0
  -22.2910  -14.5920   20.6820 O   0  0  0  0  0  0  0  0  0  0  0  0
  -22.3970  -12.0380   22.5070 H   0  0  0  0  0  0  0  0  0  0  0  0
  -21.0890  -13.1700   22.3120 H   0  0  0  0  0  0  0  0  0  0  0  0
  -25.3330  -15.2440   20.3420 N   0  0  0  0  0  0  0  0  0  0  0  0
  -24.5560  -15.8860   20.4530 H   0  0  0  0  0  0  0  0  0  0  0  0
  -26.1530  -15.6780   19.9420 H   0  0  0  0  0  0  0  0  0  0  0  0
  1  2  1  0
  1 45  2  0
  2  3  1  0
  4  6  1  0
  4  2  1  0
  5 16  2  0
  6 11  1  0
  7 15  1  0
  7 17  1  0
  8 14  1  0
  8 10  1  0
  9 15  1  0
 10 11  2  0
 10  9  1  0
 12  6  2  0
 13 12  1  0
 13  8  2  0
 14  7  1  0
 15  5  1  0
 17 19  2  0
 18 17  1  0
 20 18  1  0
 21 30  2  0
 21 26  1  0
 22 18  1  0
 22 26  1  0
 23 22  1  0
 24 25  1  0
 24 23  1  0
 25 21  1  0
 26 27  2  0
 27 28  1  0
 29 28  2  0
 30 29  1  0
 31  5  1  0
 31 32  1  0
 31 41  1  0
 32 35  1  0
 33 37  1  0
 33 32  1  0
 34 33  2  0
 37 36  1  0
 39 37  1  0
 39 40  1  0
 39 38  1  0
 41 44  1  1
 41 42  1  0
 43 41  1  0
 46 58  1  0
 47 52  1  0
 48 49  1  0
 48 47  1  0
 50 49  1  0
 50 64  1  0
 50 51  1  0
 52 46  1  0
 52 51  1  0
 53 46  2  0
 54 56  1  0
 54 58  1  0
 55 57  1  0
 58 55  1  0
 59 56  1  0
 59 45  1  0
 59 57  1  0
 59 60  1  6
 61 62  2  0
 62 81  1  0
 63 62  1  0
 63 66  1  0
 64 61  1  0
 64 65  1  0
 65 63  2  0
 66 67  1  0
 67 68  2  0
 69 72  1  0
 69 68  1  0
 70 69  2  0
 71 70  1  0
 71 66  2  0
 72 73  1  0
 73 74  1  0
 74 75  2  0
 76 75  1  0
 76 80  1  0
 77 76  2  0
 78 73  2  0
 78 77  1  0
 79 78  1  0
 81 82  1  0
 82 85  1  0
 82 84  1  0
 83 81  2  0
 86 87  1  0
 86 61  1  0
 88 86  1  0
M  ISO  4   2 101   4 101  46 100  58 100
M  END
>  <TORSDO>  (7) 
F 18

>  <SCORE>  (7) 
-16.491

>  <name>  (7) 
6

>  <ligand_id>  (7) 
6

>  <original_smiles>  (7) 
[H]c1c([H])c([H])c2c(c1[H])C([H])([H])C([H])([H])C([H])([H])C2([H])N([H])C(=O)C1([H])N(C(=O)C([H])(N([H])C(=O)C([H])(N([H])C([H])([H])[H])C([H])([H])[H])C(C([H])([H])[H])(C([H])([H])[H])C([H])([H])[H])C([H])([H])c2c([H])c(ON([H])C([H])([H])C([H])([H])[N+]3([H])C([H])([H])C([H])([H])N(C(=O)N4C([H])([H])C([H])([H])C([H])([H])C([H])(n5nc(-c6c([H])c([H])c(Oc7c([H])c([H])c(F)c([H])c7F)c([H])c6[H])c(C(=O)N([H])[H])c5N([H])[H])C4([H])[H])C([H])([H])C3([H])[H])c([H])c([H])c2C1([H])[H]

>  <smiles>  (7) 
[H]c1c([H])c([H])c2c(c1[H])C([H])([H])C([H])([H])C([H])([H])C2([H])N([H])C(=O)C1([H])N(C(=O)C([H])(N([H])C(=O)C([H])(N([H])C([H])([H])[H])C([H])([H])[H])C(C([H])([H])[H])(C([H])([H])[H])C([H])([H])[H])C([H])([H])c2c([H])c(ON([H])C([H])([H])C([H])([H])[N+]3([H])C([H])([H])C([H])([H])N(C(=O)N4C([H])([H])C([H])([H])C([H])([H])C([H])(n5nc(-c6c([H])c([H])c(Oc7c([H])c([H])c(F)c([H])c7F)c([H])c6[H])c(C(=O)N([H])[H])c5N([H])[H])C4([H])[H])C([H])([H])C3([H])[H])c([H])c([H])c2C1([H])[H]

$$$$
7:0:0
     RDKit          3D

 98106  0  0  1  0  0  0  0  0999 V2000
  -26.6540  -19.9540   19.3910 C   0  0  0  0  0  2  0  0  0  0  0  0
  -27.1500  -21.3090   19.9160 C   0  0  0  0  0  2  0  0  0  0  0  0
  -27.1040  -18.8040   20.3050 C   0  0  0  0  0  2  0  0  0  0  0  0
  -28.9980  -20.1240   21.1660 C   0  0  0  0  0  2  0  0  0  0  0  0
  -28.6720  -21.2610   20.1790 C   0  0  0  0  0  3  0  0  0  0  0  0
  -28.5700  -18.8550   20.5340 N   0  0  1  0  0  4  0  0  0  0  0  0
  -28.9700  -18.8690   19.6080 H   0  0  0  0  0  0  0  0  0  0  0  0
  -29.2080  -22.6450   20.5730 C   0  0  0  0  0  2  0  0  0  0  0  0
  -28.9250  -23.5620   19.4540 N   0  0  0  0  0  4  0  0  0  0  0  0
  -29.7150  -23.5620   18.8250 H   0  0  0  0  0  0  0  0  0  0  0  0
  -28.1410  -23.1800   18.9470 H   0  0  0  0  0  0  0  0  0  0  0  0
  -28.5720  -24.9460   19.8080 C   0  0  0  0  0  2  0  0  0  0  0  0
  -28.4100  -25.7670   18.5250 C   0  0  0  0  0  2  0  0  0  0  0  0
  -28.3040  -27.1390   18.8480 O   0  0  0  0  0  0  0  0  0  0  0  0
  -24.7160  -31.5210   23.0600 C   0  0  0  0  0  0  0  0  0  0  0  0
  -27.0780  -27.7270   19.0600 C   0  0  0  0  0  0  0  0  0  0  0  0
  -23.3670  -30.4300   21.2940 C   0  0  0  0  0  3  0  0  0  0  0  0
  -24.6880  -29.1560   19.5260 C   0  0  0  0  0  0  0  0  0  0  0  0
  -25.8660  -30.8290   20.9640 C   0  0  0  0  0  2  0  0  0  0  0  0
  -25.8850  -29.5890   20.1020 C   0  0  0  0  0  0  0  0  0  0  0  0
  -27.0790  -28.8770   19.8710 C   0  0  0  0  0  3  0  0  0  0  0  0
  -25.8580  -27.2860   18.4930 C   0  0  0  0  0  3  0  0  0  0  0  0
  -24.6660  -28.0000   18.7260 C   0  0  0  0  0  3  0  0  0  0  0  0
  -23.4590  -29.9910   19.8080 C   0  0  0  0  0  2  0  0  0  0  0  0
  -24.6740  -30.9300   21.8330 N   0  0  0  0  0  0  0  0  0  0  0  0
  -23.6830  -31.6970   23.7210 O   0  0  0  0  0  0  0  0  0  0  0  0
  -22.7780  -29.2590   22.1100 C   0  0  0  0  0  0  0  0  0  0  0  0
  -21.4470  -29.0930   22.0400 N   0  0  0  0  0  0  0  0  0  0  0  0
  -23.5110  -28.5070   22.7580 O   0  0  0  0  0  0  0  0  0  0  0  0
  -20.9170  -29.7600   21.4950 H   0  0  0  0  0  0  0  0  0  0  0  0
  -18.1120  -27.7920   22.5010 C   0  0  0  0  0  0  0  0  0  0  0  0
  -20.6780  -28.0340   22.6890 C   0  0  0  0  0  3  0  0  0  0  0  0
  -20.7590  -26.7170   21.8810 C   0  0  0  0  0  2  0  0  0  0  0  0
  -19.6110  -26.5530   20.8830 C   0  0  0  0  0  2  0  0  0  0  0  0
  -18.2630  -26.5690   21.6090 C   0  0  0  0  0  2  0  0  0  0  0  0
  -19.2470  -28.4890   22.9940 C   0  0  0  0  0  0  0  0  0  0  0  0
  -19.0530  -29.6410   23.7840 C   0  0  0  0  0  3  0  0  0  0  0  0
  -17.7560  -30.1000   24.0820 C   0  0  0  0  0  3  0  0  0  0  0  0
  -16.6360  -29.3950   23.6090 C   0  0  0  0  0  3  0  0  0  0  0  0
  -16.8150  -28.2400   22.8270 C   0  0  0  0  0  3  0  0  0  0  0  0
  -26.0570  -32.0260   23.6790 C   0  0  0  0  0  3  0  0  0  0  0  0
  -25.8080  -33.3560   24.2520 N   0  0  0  0  0  0  0  0  0  0  0  0
  -26.1440  -34.5120   23.6630 C   0  0  0  0  0  0  0  0  0  0  0  0
  -26.7720  -34.5640   22.6020 O   0  0  0  0  0  0  0  0  0  0  0  0
  -25.2480  -33.3920   25.0910 H   0  0  0  0  0  0  0  0  0  0  0  0
  -24.4600  -36.3790   23.6740 C   0  0  0  0  0  1  0  0  0  0  0  0
  -25.7150  -35.8160   24.3600 C   0  0  0  0  0  3  0  0  0  0  0  0
  -27.8970  -36.5030   25.2510 C   0  0  0  0  0  1  0  0  0  0  0  0
  -26.7740  -36.8470   24.3810 N   0  0  0  0  0  0  0  0  0  0  0  0
  -26.4000  -37.7430   24.6860 H   0  0  0  0  0  0  0  0  0  0  0  0
  -26.6460  -31.0520   24.7730 C   0  0  1  0  0  0  0  0  0  0  0  0
  -25.6330  -30.6700   25.8760 C   0  0  0  0  0  1  0  0  0  0  0  0
  -27.1500  -29.7450   24.1180 C   0  0  0  0  0  1  0  0  0  0  0  0
  -27.8730  -31.7040   25.4540 C   0  0  0  0  0  1  0  0  0  0  0  0
  -29.1300  -17.6140   21.1080 C   0  0  0  0  0  2  0  0  0  0  0  0
  -30.5030  -17.2010   20.4920 C   0  0  0  0  0  3  0  0  0  0  0  0
  -31.5060  -14.8350   20.5450 C   0  0  0  0  0  0  0  0  0  0  0  0
  -31.3800  -12.5900   19.5630 C   0  0  0  0  0  2  0  0  0  0  0  0
  -30.4760  -12.6600   18.3120 C   0  0  0  0  0  2  0  0  0  0  0  0
  -28.9830  -12.5280   18.6800 C   0  0  0  0  0  2  0  0  0  0  0  0
  -28.5620  -13.4380   19.8650 C   0  0  0  0  0  3  0  0  0  0  0  0
  -29.5730  -13.2990   21.0280 C   0  0  0  0  0  2  0  0  0  0  0  0
  -30.9210  -13.6120   20.5070 N   0  0  0  0  0  0  0  0  0  0  0  0
  -32.6460  -15.0830   20.1470 O   0  0  0  0  0  0  0  0  0  0  0  0
  -30.6080  -15.7830   20.8240 N   0  0  0  0  0  0  0  0  0  0  0  0
  -29.7500  -15.3750   21.1670 H   0  0  0  0  0  0  0  0  0  0  0  0
  -26.1360  -14.0510   20.4910 C   0  0  0  0  0  0  0  0  0  0  0  0
  -25.0570  -13.2800   20.8310 C   0  0  0  0  0  0  0  0  0  0  0  0
  -25.5190  -11.9300   20.8020 C   0  0  0  0  0  0  0  0  0  0  0  0
  -27.1900  -13.1700   20.2930 N   0  0  0  0  0  0  0  0  0  0  0  0
  -26.8180  -11.8910   20.5370 N   0  0  0  0  0  0  0  0  0  0  0  0
  -24.7890  -10.6680   20.9600 C   0  0  0  0  0  0  0  0  0  0  0  0
  -25.1100   -9.7600   21.9920 C   0  0  0  0  0  3  0  0  0  0  0  0
  -24.3850   -8.5590   22.1370 C   0  0  0  0  0  3  0  0  0  0  0  0
  -23.3280   -8.2560   21.2480 C   0  0  0  0  0  0  0  0  0  0  0  0
  -23.0250   -9.1560   20.2100 C   0  0  0  0  0  3  0  0  0  0  0  0
  -23.7520  -10.3480   20.0630 C   0  0  0  0  0  3  0  0  0  0  0  0
  -22.5850   -7.1010   21.2950 O   0  0  0  0  0  0  0  0  0  0  0  0
  -22.2790   -6.4910   22.4840 C   0  0  0  0  0  0  0  0  0  0  0  0
  -21.5620   -7.1580   23.5010 C   0  0  0  0  0  3  0  0  0  0  0  0
  -21.2070   -6.4720   24.6790 C   0  0  0  0  0  3  0  0  0  0  0  0
  -21.5610   -5.1190   24.8400 C   0  0  0  0  0  0  0  0  0  0  0  0
  -22.2740   -4.4520   23.8290 C   0  0  0  0  0  3  0  0  0  0  0  0
  -22.6300   -5.1370   22.6530 C   0  0  0  0  0  0  0  0  0  0  0  0
  -23.2960   -4.4830   21.6700 F   0  0  0  0  0  0  0  0  0  0  0  0
  -21.2160   -4.4570   25.9700 F   0  0  0  0  0  0  0  0  0  0  0  0
  -23.6520  -13.7570   21.0600 C   0  0  0  0  0  0  0  0  0  0  0  0
  -22.8980  -13.0590   21.9040 N   0  0  0  0  0  0  0  0  0  0  0  0
  -23.2320  -14.7830   20.5280 O   0  0  0  0  0  0  0  0  0  0  0  0
  -23.2540  -12.2300   22.3580 H   0  0  0  0  0  0  0  0  0  0  0  0
  -21.9530  -13.3630   22.0980 H   0  0  0  0  0  0  0  0  0  0  0  0
  -26.2930  -15.4190   20.3020 N   0  0  0  0  0  0  0  0  0  0  0  0
  -25.4180  -15.9280   20.2260 H   0  0  0  0  0  0  0  0  0  0  0  0
  -26.9500  -15.6910   19.5850 H   0  0  0  0  0  0  0  0  0  0  0  0
  -30.5180  -16.4110   17.9440 C   0  0  0  0  0  1  0  0  0  0  0  0
  -30.6890  -17.5590   18.9600 C   0  0  0  0  0  3  0  0  0  0  0  0
  -32.1400  -18.9780   17.3510 C   0  0  0  0  0  1  0  0  0  0  0  0
  -32.0170  -18.3170   18.7340 C   0  0  0  0  0  2  0  0  0  0  0  0
  1  2  1  0
  1  3  1  0
  2  5  1  0
  3  6  1  0
  5  8  1  0
  5  4  1  0
  6 55  1  0
  6  4  1  0
  6  7  1  6
  9 12  1  0
  9  8  1  0
 10  9  1  0
 11  9  1  0
 13 14  1  0
 13 12  1  0
 14 16  1  0
 15 26  2  0
 16 21  1  0
 17 25  1  0
 17 27  1  0
 18 24  1  0
 18 20  1  0
 19 25  1  0
 20 19  1  0
 21 20  2  0
 22 23  1  0
 22 16  2  0
 23 18  2  0
 24 17  1  0
 25 15  1  0
 27 29  2  0
 28 27  1  0
 30 28  1  0
 31 40  2  0
 31 36  1  0
 32 28  1  0
 32 36  1  0
 33 32  1  0
 34 35  1  0
 34 33  1  0
 35 31  1  0
 36 37  2  0
 37 38  1  0
 39 38  2  0
 40 39  1  0
 41 15  1  0
 41 42  1  0
 41 51  1  0
 42 45  1  0
 43 42  1  0
 43 47  1  0
 44 43  2  0
 47 46  1  0
 47 49  1  0
 49 50  1  0
 49 48  1  0
 51 54  1  1
 51 52  1  0
 53 51  1  0
 56 65  1  0
 56 55  1  0
 57 65  1  0
 58 63  1  0
 59 60  1  0
 59 58  1  0
 61 60  1  0
 61 70  1  0
 61 62  1  0
 63 57  1  0
 63 62  1  0
 64 57  2  0
 65 66  1  0
 67 68  2  0
 68 87  1  0
 69 68  1  0
 69 72  1  0
 70 67  1  0
 70 71  1  0
 71 69  2  0
 72 73  1  0
 73 74  2  0
 75 78  1  0
 75 74  1  0
 76 75  2  0
 77 76  1  0
 77 72  2  0
 78 79  1  0
 79 84  2  0
 79 80  1  0
 80 81  2  0
 81 82  1  0
 82 86  1  0
 83 82  2  0
 84 83  1  0
 85 84  1  0
 87 88  1  0
 88 91  1  0
 88 90  1  0
 89 87  2  0
 92 67  1  0
 93 92  1  0
 94 92  1  0
 96 95  1  0
 96 56  1  0
 97 98  1  0
 98 96  1  0
M  ISO  4  13 101  14 101  57 100  65 100
M  END
>  <TORSDO>  (8) 
F 24

>  <SCORE>  (8) 
-8.947

>  <name>  (8) 
7

>  <ligand_id>  (8) 
7

>  <original_smiles>  (8) 
[H]c1c([H])c([H])c2c(c1[H])C([H])([H])C([H])([H])C([H])([H])C2([H])N([H])C(=O)C1([H])N(C(=O)C([H])(N([H])C(=O)C([H])(N([H])C([H])([H])[H])C([H])([H])[H])C(C([H])([H])[H])(C([H])([H])[H])C([H])([H])[H])C([H])([H])c2c([H])c(OC([H])([H])C([H])([H])[N+]([H])([H])C([H])([H])C3([H])C([H])([H])C([H])([H])C([H])([H])[N+]([H])(C([H])([H])C([H])(N([H])C(=O)N4C([H])([H])C([H])([H])C([H])([H])C([H])(n5nc(-c6c([H])c([H])c(Oc7c([H])c([H])c(F)c([H])c7F)c([H])c6[H])c(C(=O)N([H])[H])c5N([H])[H])C4([H])[H])C([H])(C([H])([H])[H])C([H])([H])C([H])([H])[H])C3([H])[H])c([H])c([H])c2C1([H])[H]

>  <smiles>  (8) 
[H]c1c([H])c([H])c2c(c1[H])C([H])([H])C([H])([H])C([H])([H])C2([H])N([H])C(=O)C1([H])N(C(=O)C([H])(N([H])C(=O)C([H])(N([H])C([H])([H])[H])C([H])([H])[H])C(C([H])([H])[H])(C([H])([H])[H])C([H])([H])[H])C([H])([H])c2c([H])c(OC([H])([H])C([H])([H])[N+]([H])([H])C([H])([H])C3([H])C([H])([H])C([H])([H])C([H])([H])[N+]([H])(C([H])([H])C([H])(N([H])C(=O)N4C([H])([H])C([H])([H])C([H])([H])C([H])(n5nc(-c6c([H])c([H])c(Oc7c([H])c([H])c(F)c([H])c7F)c([H])c6[H])c(C(=O)N([H])[H])c5N([H])[H])C4([H])[H])C([H])(C([H])([H])[H])C([H])([H])C([H])([H])[H])C3([H])[H])c([H])c([H])c2C1([H])[H]

$$$$
8:0:0
     RDKit          3D

102110  0  0  1  0  0  0  0  0999 V2000
  -29.8910  -19.4890   23.3630 C   0  0  0  0  0  2  0  0  0  0  0  0
  -28.8810  -21.4170   20.1730 C   0  0  0  0  0  2  0  0  0  0  0  0
  -29.3050  -20.2860   21.1280 C   0  0  0  0  0  2  0  0  0  0  0  0
  -29.6660  -22.7290   20.2740 C   0  0  0  0  0  2  0  0  0  0  0  0
  -28.9950  -21.7350   23.0470 C   0  0  0  0  0  2  0  0  0  0  0  0
  -29.5170  -23.1330   22.6580 C   0  0  0  0  0  2  0  0  0  0  0  0
  -29.7980  -20.6550   22.4600 N   0  0  0  0  0  0  0  0  0  0  0  0
  -29.1590  -23.6200   21.3220 N   0  0  0  0  0  0  0  0  0  0  0  0
  -29.6480  -24.9960   21.1560 C   0  0  0  0  0  2  0  0  0  0  0  0
  -29.2660  -25.6680   19.8260 C   0  0  0  0  0  2  0  0  0  0  0  0
  -29.1040  -27.0720   20.0340 O   0  0  0  0  0  0  0  0  0  0  0  0
  -24.8520  -31.6470   23.4190 C   0  0  0  0  0  0  0  0  0  0  0  0
  -27.8430  -27.6250   20.0900 C   0  0  0  0  0  0  0  0  0  0  0  0
  -23.7660  -30.2610   21.6820 C   0  0  0  0  0  3  0  0  0  0  0  0
  -25.3330  -28.9280   20.1840 C   0  0  0  0  0  0  0  0  0  0  0  0
  -26.2550  -30.8260   21.5300 C   0  0  0  0  0  2  0  0  0  0  0  0
  -26.4440  -29.5040   20.8120 C   0  0  0  0  0  0  0  0  0  0  0  0
  -27.6960  -28.8580   20.7650 C   0  0  0  0  0  3  0  0  0  0  0  0
  -26.7070  -27.0600   19.4580 C   0  0  0  0  0  3  0  0  0  0  0  0
  -25.4580  -27.7040   19.5090 C   0  0  0  0  0  3  0  0  0  0  0  0
  -24.0310  -29.6870   20.2660 C   0  0  0  0  0  2  0  0  0  0  0  0
  -24.9740  -30.9250   22.2690 N   0  0  0  0  0  0  0  0  0  0  0  0
  -23.7520  -31.8020   23.9660 O   0  0  0  0  0  0  0  0  0  0  0  0
  -23.1910  -29.1340   22.5720 C   0  0  0  0  0  0  0  0  0  0  0  0
  -21.9130  -28.7900   22.3480 N   0  0  0  0  0  0  0  0  0  0  0  0
  -23.8940  -28.5730   23.4150 O   0  0  0  0  0  0  0  0  0  0  0  0
  -21.3990  -29.3070   21.6500 H   0  0  0  0  0  0  0  0  0  0  0  0
  -18.7210  -27.1070   22.5150 C   0  0  0  0  0  0  0  0  0  0  0  0
  -21.1740  -27.7330   23.0380 C   0  0  0  0  0  3  0  0  0  0  0  0
  -21.5430  -26.3400   22.4800 C   0  0  0  0  0  2  0  0  0  0  0  0
  -20.6060  -25.8710   21.3630 C   0  0  0  0  0  2  0  0  0  0  0  0
  -19.1610  -25.8040   21.8670 C   0  0  0  0  0  2  0  0  0  0  0  0
  -19.6690  -28.0190   23.0500 C   0  0  0  0  0  0  0  0  0  0  0  0
  -19.2110  -29.2310   23.6090 C   0  0  0  0  0  3  0  0  0  0  0  0
  -17.8380  -29.5340   23.6470 C   0  0  0  0  0  3  0  0  0  0  0  0
  -16.9030  -28.6190   23.1320 C   0  0  0  0  0  3  0  0  0  0  0  0
  -17.3450  -27.4090   22.5700 C   0  0  0  0  0  3  0  0  0  0  0  0
  -26.0860  -32.3340   24.0850 C   0  0  0  0  0  3  0  0  0  0  0  0
  -25.6880  -33.6980   24.4540 N   0  0  0  0  0  0  0  0  0  0  0  0
  -25.9610  -34.7910   23.7310 C   0  0  0  0  0  0  0  0  0  0  0  0
  -26.6470  -34.7640   22.7050 O   0  0  0  0  0  0  0  0  0  0  0  0
  -25.0730  -33.7890   25.2510 H   0  0  0  0  0  0  0  0  0  0  0  0
  -24.1150  -36.4710   23.4170 C   0  0  0  0  0  1  0  0  0  0  0  0
  -25.3780  -36.1300   24.2230 C   0  0  0  0  0  3  0  0  0  0  0  0
  -27.4430  -37.1350   25.0910 C   0  0  0  0  0  1  0  0  0  0  0  0
  -26.3380  -37.2530   24.1450 N   0  0  0  0  0  0  0  0  0  0  0  0
  -25.8690  -38.1380   24.3150 H   0  0  0  0  0  0  0  0  0  0  0  0
  -26.6310  -31.5510   25.3420 C   0  0  1  0  0  0  0  0  0  0  0  0
  -25.5360  -31.2010   26.3760 C   0  0  0  0  0  1  0  0  0  0  0  0
  -27.3140  -30.2340   24.9080 C   0  0  0  0  0  1  0  0  0  0  0  0
  -27.7090  -32.3940   26.0600 C   0  0  0  0  0  1  0  0  0  0  0  0
  -31.0480  -18.4880   23.1020 C   0  0  0  0  0  2  0  0  0  0  0  0
  -30.6740  -17.2970   22.2770 N   0  0  2  0  0  4  0  0  0  0  0  0
  -29.8020  -16.9650   22.6570 H   0  0  0  0  0  0  0  0  0  0  0  0
  -31.6350  -16.1710   22.4640 C   0  0  0  0  0  2  0  0  0  0  0  0
  -31.4730  -15.0360   21.4320 C   0  0  0  0  0  2  0  0  0  0  0  0
  -32.5520  -13.9500   21.5610 C   0  0  0  0  0  2  0  0  0  0  0  0
  -32.5960  -13.0190   20.3350 C   0  0  0  0  0  2  0  0  0  0  0  0
  -33.6860  -12.0350   20.4310 N   0  0  0  0  0  4  0  0  0  0  0  0
  -34.5700  -12.4970   20.5390 H   0  0  0  0  0  0  0  0  0  0  0  0
  -33.7240  -11.4820   19.5940 H   0  0  0  0  0  0  0  0  0  0  0  0
  -33.5470  -11.4130   21.2080 H   0  0  0  0  0  0  0  0  0  0  0  0
  -30.4230  -17.6200   20.8430 C   0  0  0  0  0  2  0  0  0  0  0  0
  -29.0900  -17.0330   20.3340 C   0  0  0  0  0  2  0  0  0  0  0  0
  -29.6440  -14.7030   19.7080 C   0  0  0  0  0  0  0  0  0  0  0  0
  -29.3990  -12.5390   18.5700 C   0  0  0  0  0  2  0  0  0  0  0  0
  -28.2550  -12.6490   17.5400 C   0  0  0  0  0  2  0  0  0  0  0  0
  -26.8950  -12.3510   18.1990 C   0  0  0  0  0  2  0  0  0  0  0  0
  -26.6800  -13.1470   19.5140 C   0  0  0  0  0  3  0  0  0  0  0  0
  -27.9160  -13.0200   20.4330 C   0  0  0  0  0  2  0  0  0  0  0  0
  -29.0980  -13.4610   19.6710 N   0  0  0  0  0  0  0  0  0  0  0  0
  -30.5990  -15.0550   19.0120 O   0  0  0  0  0  0  0  0  0  0  0  0
  -28.9800  -15.5810   20.4690 N   0  0  0  0  0  0  0  0  0  0  0  0
  -28.1870  -15.2140   20.9750 H   0  0  0  0  0  0  0  0  0  0  0  0
  -24.4200  -13.5100   20.6980 C   0  0  0  0  0  0  0  0  0  0  0  0
  -23.4860  -12.6290   21.1740 C   0  0  0  0  0  0  0  0  0  0  0  0
  -24.0110  -11.3250   20.9200 C   0  0  0  0  0  0  0  0  0  0  0  0
  -25.4540  -12.7340   20.1950 N   0  0  0  0  0  0  0  0  0  0  0  0
  -25.2200  -11.4110   20.3810 N   0  0  0  0  0  0  0  0  0  0  0  0
  -23.4100   -9.9980   21.1090 C   0  0  0  0  0  0  0  0  0  0  0  0
  -23.9940   -9.0380   21.9630 C   0  0  0  0  0  3  0  0  0  0  0  0
  -23.3900   -7.7750   22.1420 C   0  0  0  0  0  3  0  0  0  0  0  0
  -22.1880   -7.4630   21.4640 C   0  0  0  0  0  0  0  0  0  0  0  0
  -21.6220   -8.4140   20.5970 C   0  0  0  0  0  3  0  0  0  0  0  0
  -22.2270   -9.6690   20.4170 C   0  0  0  0  0  3  0  0  0  0  0  0
  -21.5420   -6.2530   21.5560 O   0  0  0  0  0  0  0  0  0  0  0  0
  -21.5570   -5.5160   22.7130 C   0  0  0  0  0  0  0  0  0  0  0  0
  -21.0890   -6.0400   23.9370 C   0  0  0  0  0  3  0  0  0  0  0  0
  -21.0570   -5.2260   25.0860 C   0  0  0  0  0  3  0  0  0  0  0  0
  -21.4840   -3.8860   25.0120 C   0  0  0  0  0  0  0  0  0  0  0  0
  -21.9450   -3.3600   23.7930 C   0  0  0  0  0  3  0  0  0  0  0  0
  -21.9790   -4.1730   22.6460 C   0  0  0  0  0  0  0  0  0  0  0  0
  -22.4050   -3.6550   21.4690 F   0  0  0  0  0  0  0  0  0  0  0  0
  -21.4460   -3.1000   26.1140 F   0  0  0  0  0  0  0  0  0  0  0  0
  -22.1400  -12.9700   21.7450 C   0  0  0  0  0  0  0  0  0  0  0  0
  -21.6470  -12.1600   22.6750 N   0  0  0  0  0  0  0  0  0  0  0  0
  -21.5380  -13.9870   21.4010 O   0  0  0  0  0  0  0  0  0  0  0  0
  -22.1500  -11.3370   22.9710 H   0  0  0  0  0  0  0  0  0  0  0  0
  -20.7520  -12.3650   23.0970 H   0  0  0  0  0  0  0  0  0  0  0  0
  -24.4700  -14.9000   20.6330 N   0  0  0  0  0  0  0  0  0  0  0  0
  -23.6950  -15.4820   20.9330 H   0  0  0  0  0  0  0  0  0  0  0  0
  -25.2080  -15.4250   20.1820 H   0  0  0  0  0  0  0  0  0  0  0  0
  2  4  1  0
  2  3  1  0
  3  7  1  0
  4  8  1  0
  6  5  1  0
  7  5  1  0
  7  1  1  0
  8  6  1  0
  9  8  1  0
 10 11  1  0
 10  9  1  0
 11 13  1  0
 12 23  2  0
 13 18  1  0
 14 22  1  0
 14 24  1  0
 15 21  1  0
 15 17  1  0
 16 22  1  0
 17 16  1  0
 18 17  2  0
 19 20  1  0
 19 13  2  0
 20 15  2  0
 21 14  1  0
 22 12  1  0
 24 26  2  0
 25 24  1  0
 27 25  1  0
 28 37  2  0
 28 33  1  0
 29 25  1  0
 29 33  1  0
 30 29  1  0
 31 32  1  0
 31 30  1  0
 32 28  1  0
 33 34  2  0
 34 35  1  0
 36 35  2  0
 37 36  1  0
 38 12  1  0
 38 39  1  0
 38 48  1  0
 39 42  1  0
 40 44  1  0
 40 39  1  0
 41 40  2  0
 44 43  1  0
 46 44  1  0
 46 47  1  0
 46 45  1  0
 48 51  1  1
 48 49  1  0
 50 48  1  0
 52  1  1  0
 53 55  1  0
 53 54  1  1
 53 52  1  0
 56 57  1  0
 56 55  1  0
 58 59  1  0
 58 57  1  0
 59 60  1  0
 59 62  1  0
 61 59  1  0
 63 53  1  0
 64 73  1  0
 64 63  1  0
 65 73  1  0
 66 71  1  0
 67 68  1  0
 67 66  1  0
 69 68  1  0
 69 78  1  0
 69 70  1  0
 71 65  1  0
 71 70  1  0
 72 65  2  0
 73 74  1  0
 75 76  2  0
 76 95  1  0
 77 80  1  0
 77 76  1  0
 78 79  1  0
 78 75  1  0
 79 77  2  0
 80 81  1  0
 81 82  2  0
 83 86  1  0
 83 82  1  0
 84 83  2  0
 85 84  1  0
 85 80  2  0
 86 87  1  0
 87 88  1  0
 88 89  2  0
 90 89  1  0
 90 94  1  0
 91 90  2  0
 92 87  2  0
 92 91  1  0
 93 92  1  0
 95 96  1  0
 96 98  1  0
 96 99  1  0
 97 95  2  0
100 75  1  0
100101  1  0
102100  1  0
M  ISO  4  10 101  11 101  65 100  73 100
M  END
>  <TORSDO>  (9) 
F 28

>  <SCORE>  (9) 
-6.287

>  <name>  (9) 
8

>  <ligand_id>  (9) 
8

>  <original_smiles>  (9) 
[H]c1c([H])c([H])c2c(c1[H])C([H])([H])C([H])([H])C([H])([H])C2([H])N([H])C(=O)C1([H])N(C(=O)C([H])(N([H])C(=O)C([H])(N([H])C([H])([H])[H])C([H])([H])[H])C(C([H])([H])[H])(C([H])([H])[H])C([H])([H])[H])C([H])([H])c2c([H])c(OC([H])([H])C([H])([H])N3C([H])([H])C([H])([H])N(C([H])([H])C([H])([H])[N+]([H])(C([H])([H])C([H])([H])N([H])C(=O)N4C([H])([H])C([H])([H])C([H])([H])C([H])(n5nc(-c6c([H])c([H])c(Oc7c([H])c([H])c(F)c([H])c7F)c([H])c6[H])c(C(=O)N([H])[H])c5N([H])[H])C4([H])[H])C([H])([H])C([H])([H])C([H])([H])C([H])([H])[N+]([H])([H])[H])C([H])([H])C([H])([H])C3([H])[H])c([H])c([H])c2C1([H])[H]

>  <smiles>  (9) 
[H]c1c([H])c([H])c2c(c1[H])C([H])([H])C([H])([H])C([H])([H])C2([H])N([H])C(=O)C1([H])N(C(=O)C([H])(N([H])C(=O)C([H])(N([H])C([H])([H])[H])C([H])([H])[H])C(C([H])([H])[H])(C([H])([H])[H])C([H])([H])[H])C([H])([H])c2c([H])c(OC([H])([H])C([H])([H])N3C([H])([H])C([H])([H])N(C([H])([H])C([H])([H])[N+]([H])(C([H])([H])C([H])([H])N([H])C(=O)N4C([H])([H])C([H])([H])C([H])([H])C([H])(n5nc(-c6c([H])c([H])c(Oc7c([H])c([H])c(F)c([H])c7F)c([H])c6[H])c(C(=O)N([H])[H])c5N([H])[H])C4([H])[H])C([H])([H])C([H])([H])C([H])([H])C([H])([H])[N+]([H])([H])[H])C([H])([H])C([H])([H])C3([H])[H])c([H])c([H])c2C1([H])[H]

$$$$
9:0:0
     RDKit          3D

104114  0  0  1  0  0  0  0  0999 V2000
  -28.0270  -23.8810   16.8970 C   0  0  0  0  0  2  0  0  0  0  0  0
  -27.6080  -24.9870   17.9150 C   0  0  0  0  0  2  0  0  0  0  0  0
  -31.7270  -24.4950   19.2860 C   0  0  0  0  0  2  0  0  0  0  0  0
  -29.4280  -23.9140   16.2590 C   0  0  0  0  0  2  0  0  0  0  0  0
  -31.1440  -24.6470   20.7050 C   0  0  0  0  0  2  0  0  0  0  0  0
  -30.6160  -23.8270   18.4360 C   0  0  0  0  0  3  0  0  0  0  0  0
  -29.3780  -24.0020   19.3740 C   0  0  0  0  0  3  0  0  0  0  0  0
  -28.6200  -25.3930   19.0400 C   0  0  0  0  0  3  0  0  0  0  0  0
  -30.5260  -24.4330   17.0890 N   0  0  0  0  0  0  0  0  0  0  0  0
  -29.9440  -23.7840   20.7300 N   0  0  1  0  0  4  0  0  0  0  0  0
  -29.2940  -24.1250   21.4210 H   0  0  0  0  0  0  0  0  0  0  0  0
  -28.3050  -26.4400   20.0870 O   0  0  0  0  0  0  0  0  0  0  0  0
  -24.6120  -31.8850   23.2480 C   0  0  0  0  0  0  0  0  0  0  0  0
  -27.2020  -27.3310   20.0760 C   0  0  0  0  0  0  0  0  0  0  0  0
  -23.4080  -30.5180   21.5900 C   0  0  0  0  0  3  0  0  0  0  0  0
  -24.8540  -28.9970   20.1420 C   0  0  0  0  0  0  0  0  0  0  0  0
  -25.9640  -30.8120   21.4280 C   0  0  0  0  0  2  0  0  0  0  0  0
  -26.0390  -29.4500   20.7360 C   0  0  0  0  0  0  0  0  0  0  0  0
  -27.2130  -28.6270   20.7000 C   0  0  0  0  0  3  0  0  0  0  0  0
  -25.9540  -26.9220   19.5610 C   0  0  0  0  0  3  0  0  0  0  0  0
  -24.8160  -27.7350   19.5520 C   0  0  0  0  0  3  0  0  0  0  0  0
  -23.6190  -29.8740   20.2020 C   0  0  0  0  0  2  0  0  0  0  0  0
  -24.6810  -31.0830   22.1460 N   0  0  0  0  0  0  0  0  0  0  0  0
  -23.5250  -32.1630   23.7760 O   0  0  0  0  0  0  0  0  0  0  0  0
  -22.7380  -29.4850   22.5290 C   0  0  0  0  0  0  0  0  0  0  0  0
  -21.4130  -29.3080   22.3850 N   0  0  0  0  0  0  0  0  0  0  0  0
  -23.4070  -28.8480   23.3460 O   0  0  0  0  0  0  0  0  0  0  0  0
  -20.9340  -29.8680   21.6940 H   0  0  0  0  0  0  0  0  0  0  0  0
  -18.0270  -28.1210   22.8470 C   0  0  0  0  0  0  0  0  0  0  0  0
  -20.5850  -28.3630   23.1360 C   0  0  0  0  0  3  0  0  0  0  0  0
  -20.6860  -26.9420   22.5390 C   0  0  0  0  0  2  0  0  0  0  0  0
  -19.5880  -26.6360   21.5150 C   0  0  0  0  0  2  0  0  0  0  0  0
  -18.2020  -26.7810   22.1540 C   0  0  0  0  0  2  0  0  0  0  0  0
  -19.1450  -28.8700   23.2930 C   0  0  0  0  0  0  0  0  0  0  0  0
  -18.9310  -30.1270   23.9010 C   0  0  0  0  0  3  0  0  0  0  0  0
  -17.6280  -30.6320   24.0680 C   0  0  0  0  0  3  0  0  0  0  0  0
  -16.5220  -29.8760   23.6430 C   0  0  0  0  0  3  0  0  0  0  0  0
  -16.7230  -28.6230   23.0360 C   0  0  0  0  0  3  0  0  0  0  0  0
  -25.8920  -32.5090   23.8870 C   0  0  0  0  0  3  0  0  0  0  0  0
  -25.5860  -33.9080   24.2120 N   0  0  0  0  0  0  0  0  0  0  0  0
  -25.8980  -34.9560   23.4400 C   0  0  0  0  0  0  0  0  0  0  0  0
  -26.5410  -34.8480   22.3930 O   0  0  0  0  0  0  0  0  0  0  0  0
  -25.0130  -34.0680   25.0260 H   0  0  0  0  0  0  0  0  0  0  0  0
  -24.1500  -36.7370   23.1290 C   0  0  0  0  0  1  0  0  0  0  0  0
  -25.4200  -36.3470   23.9030 C   0  0  0  0  0  3  0  0  0  0  0  0
  -27.5670  -37.2490   24.6710 C   0  0  0  0  0  1  0  0  0  0  0  0
  -26.4440  -37.4040   23.7520 N   0  0  0  0  0  0  0  0  0  0  0  0
  -26.0370  -38.3250   23.9010 H   0  0  0  0  0  0  0  0  0  0  0  0
  -26.3800  -31.7400   25.1770 C   0  0  1  0  0  0  0  0  0  0  0  0
  -25.2650  -31.5170   26.2250 C   0  0  0  0  0  1  0  0  0  0  0  0
  -26.9580  -30.3560   24.8040 C   0  0  0  0  0  1  0  0  0  0  0  0
  -27.5210  -32.5300   25.8600 C   0  0  0  0  0  1  0  0  0  0  0  0
  -30.3630  -22.3650   21.1450 C   0  0  0  0  0  2  0  0  0  0  0  0
  -27.9290  -19.6170   19.7690 C   0  0  0  0  0  3  0  0  0  0  0  0
  -28.6760  -18.4300   19.9810 C   0  0  0  0  0  3  0  0  0  0  0  0
  -28.4500  -20.8920   20.0990 C   0  0  0  0  0  3  0  0  0  0  0  0
  -30.4780  -19.7920   20.8590 C   0  0  0  0  0  3  0  0  0  0  0  0
  -29.9660  -18.4860   20.5460 C   0  0  0  0  0  0  0  0  0  0  0  0
  -29.7480  -21.0120   20.6430 C   0  0  0  0  0  0  0  0  0  0  0  0
  -30.8170  -17.2010   20.8530 C   0  0  0  0  0  2  0  0  0  0  0  0
  -30.9560  -14.6740   20.5610 C   0  0  0  0  0  0  0  0  0  0  0  0
  -30.7490  -12.3960   19.6030 C   0  0  0  0  0  2  0  0  0  0  0  0
  -29.8430  -12.4270   18.3550 C   0  0  0  0  0  2  0  0  0  0  0  0
  -28.3620  -12.2560   18.7530 C   0  0  0  0  0  2  0  0  0  0  0  0
  -27.9510  -13.2050   19.9140 C   0  0  0  0  0  3  0  0  0  0  0  0
  -28.9790  -13.1600   21.0680 C   0  0  0  0  0  2  0  0  0  0  0  0
  -30.2990  -13.4730   20.5060 N   0  0  0  0  0  0  0  0  0  0  0  0
  -32.1350  -14.7650   20.2160 O   0  0  0  0  0  0  0  0  0  0  0  0
  -30.2350  -15.8110   20.8320 N   0  0  0  0  0  0  0  0  0  0  0  0
  -29.2620  -15.7020   21.0670 H   0  0  0  0  0  0  0  0  0  0  0  0
  -25.5620  -13.8330   20.6110 C   0  0  0  0  0  0  0  0  0  0  0  0
  -24.4780  -13.0720   20.9580 C   0  0  0  0  0  0  0  0  0  0  0  0
  -24.9190  -11.7140   20.9190 C   0  0  0  0  0  0  0  0  0  0  0  0
  -26.5950  -12.9370   20.3810 N   0  0  0  0  0  0  0  0  0  0  0  0
  -26.2150  -11.6590   20.6350 N   0  0  0  0  0  0  0  0  0  0  0  0
  -24.1750  -10.4600   21.0870 C   0  0  0  0  0  0  0  0  0  0  0  0
  -24.5680   -9.4890   22.0310 C   0  0  0  0  0  3  0  0  0  0  0  0
  -23.8280   -8.2990   22.1820 C   0  0  0  0  0  3  0  0  0  0  0  0
  -22.6780   -8.0690   21.3860 C   0  0  0  0  0  0  0  0  0  0  0  0
  -22.3050   -9.0300   20.4300 C   0  0  0  0  0  3  0  0  0  0  0  0
  -23.0470  -10.2130   20.2800 C   0  0  0  0  0  3  0  0  0  0  0  0
  -21.9120   -6.9300   21.4470 O   0  0  0  0  0  0  0  0  0  0  0  0
  -21.7750   -6.2160   22.6110 C   0  0  0  0  0  0  0  0  0  0  0  0
  -21.2140   -6.7880   23.7740 C   0  0  0  0  0  3  0  0  0  0  0  0
  -21.0280   -5.9960   24.9260 C   0  0  0  0  0  3  0  0  0  0  0  0
  -21.3870   -4.6360   24.9110 C   0  0  0  0  0  0  0  0  0  0  0  0
  -21.9360   -4.0630   23.7510 C   0  0  0  0  0  3  0  0  0  0  0  0
  -22.1270   -4.8510   22.6020 C   0  0  0  0  0  0  0  0  0  0  0  0
  -22.6380   -4.2880   21.4800 F   0  0  0  0  0  0  0  0  0  0  0  0
  -21.2010   -3.8760   26.0160 F   0  0  0  0  0  0  0  0  0  0  0  0
  -23.0810  -13.5700   21.2030 C   0  0  0  0  0  0  0  0  0  0  0  0
  -22.3200  -12.8870   22.0500 N   0  0  0  0  0  0  0  0  0  0  0  0
  -22.6690  -14.6000   20.6720 O   0  0  0  0  0  0  0  0  0  0  0  0
  -22.6610  -12.0610   22.5150 H   0  0  0  0  0  0  0  0  0  0  0  0
  -21.3790  -13.2070   22.2370 H   0  0  0  0  0  0  0  0  0  0  0  0
  -25.7510  -15.2020   20.4410 N   0  0  0  0  0  0  0  0  0  0  0  0
  -24.9790  -15.8580   20.5160 H   0  0  0  0  0  0  0  0  0  0  0  0
  -26.5910  -15.6180   20.0570 H   0  0  0  0  0  0  0  0  0  0  0  0
  -31.7770  -24.2800   16.3220 C   0  0  0  0  0  2  0  0  0  0  0  0
  -31.9860  -25.4200   15.2910 C   0  0  0  0  0  2  0  0  0  0  0  0
  -33.0560  -25.1070   14.3270 N   0  0  0  0  0  4  0  0  0  0  0  0
  -33.9070  -24.8540   14.7960 H   0  0  0  0  0  0  0  0  0  0  0  0
  -33.2470  -25.9090   13.7540 H   0  0  0  0  0  0  0  0  0  0  0  0
  -32.7820  -24.3540   13.7210 H   0  0  0  0  0  0  0  0  0  0  0  0
  1  2  1  0
  2  8  1  0
  3  5  1  0
  4  1  1  0
  4  9  1  0
  5 10  1  0
  6  3  1  0
  6  7  1  0
  7 10  1  0
  8  7  1  0
  8 12  1  0
  9  6  1  0
 10 53  1  0
 10 11  1  1
 13 24  2  0
 14 12  1  0
 14 19  1  0
 15 23  1  0
 15 25  1  0
 16 22  1  0
 16 18  1  0
 17 23  1  0
 18 17  1  0
 19 18  2  0
 20 14  2  0
 21 20  1  0
 21 16  2  0
 22 15  1  0
 23 13  1  0
 25 27  2  0
 26 25  1  0
 28 26  1  0
 29 38  2  0
 29 34  1  0
 30 26  1  0
 30 34  1  0
 31 30  1  0
 32 33  1  0
 32 31  1  0
 33 29  1  0
 34 35  2  0
 35 36  1  0
 37 36  2  0
 38 37  1  0
 39 13  1  0
 39 40  1  0
 39 49  1  0
 40 43  1  0
 41 45  1  0
 41 40  1  0
 42 41  2  0
 45 44  1  0
 47 48  1  0
 47 45  1  0
 47 46  1  0
 49 52  1  1
 49 50  1  0
 51 49  1  0
 54 55  2  0
 54 56  1  0
 55 58  1  0
 56 59  2  0
 58 60  1  0
 58 57  2  0
 59 57  1  0
 59 53  1  0
 61 69  1  0
 62 67  1  0
 63 64  1  0
 63 62  1  0
 65 64  1  0
 65 74  1  0
 65 66  1  0
 67 61  1  0
 67 66  1  0
 68 61  2  0
 69 60  1  0
 69 70  1  0
 71 72  2  0
 72 91  1  0
 73 72  1  0
 73 76  1  0
 74 71  1  0
 74 75  1  0
 75 73  2  0
 76 77  1  0
 77 78  2  0
 79 82  1  0
 79 78  1  0
 80 79  2  0
 81 80  1  0
 81 76  2  0
 82 83  1  0
 83 84  1  0
 84 85  2  0
 86 85  1  0
 86 90  1  0
 87 86  2  0
 88 83  2  0
 88 87  1  0
 89 88  1  0
 91 92  1  0
 92 95  1  0
 92 94  1  0
 93 91  2  0
 96 97  1  0
 96 71  1  0
 98 96  1  0
 99  9  1  0
100 99  1  0
101102  1  0
101100  1  0
103101  1  0
104101  1  0
M  ISO  4   8 101  12 101  61 100  69 100
M  END
>  <TORSDO>  (10) 
F 22

>  <SCORE>  (10) 
-13.208

>  <name>  (10) 
9

>  <ligand_id>  (10) 
9

>  <original_smiles>  (10) 
[H]c1c([H])c([H])c2c(c1[H])C([H])([H])C([H])([H])C([H])([H])C2([H])N([H])C(=O)C1([H])N(C(=O)C([H])(N([H])C(=O)C([H])(N([H])C([H])([H])[H])C([H])([H])[H])C(C([H])([H])[H])(C([H])([H])[H])C([H])([H])[H])C([H])([H])c2c([H])c(OC3([H])C([H])([H])C([H])([H])C([H])([H])N(C([H])([H])C([H])([H])[N+]([H])([H])[H])C4([H])C([H])([H])C([H])([H])[N+]([H])(C([H])([H])c5c([H])c([H])c([H])c(C([H])([H])N([H])C(=O)N6C([H])([H])C([H])([H])C([H])([H])C([H])(n7nc(-c8c([H])c([H])c(Oc9c([H])c([H])c(F)c([H])c9F)c([H])c8[H])c(C(=O)N([H])[H])c7N([H])[H])C6([H])[H])c5[H])C34[H])c([H])c([H])c2C1([H])[H]

>  <smiles>  (10) 
[H]c1c([H])c([H])c2c(c1[H])C([H])([H])C([H])([H])C([H])([H])C2([H])N([H])C(=O)C1([H])N(C(=O)C([H])(N([H])C(=O)C([H])(N([H])C([H])([H])[H])C([H])([H])[H])C(C([H])([H])[H])(C([H])([H])[H])C([H])([H])[H])C([H])([H])c2c([H])c(OC3([H])C([H])([H])C([H])([H])C([H])([H])N(C([H])([H])C([H])([H])[N+]([H])([H])[H])C4([H])C([H])([H])C([H])([H])[N+]([H])(C([H])([H])c5c([H])c([H])c([H])c(C([H])([H])N([H])C(=O)N6C([H])([H])C([H])([H])C([H])([H])C([H])(n7nc(-c8c([H])c([H])c(Oc9c([H])c([H])c(F)c([H])c9F)c([H])c8[H])c(C(=O)N([H])[H])c7N([H])[H])C6([H])[H])c5[H])C34[H])c([H])c([H])c2C1([H])[H]

$$$$
10:0:0
     RDKit          3D

113124  0  0  1  0  0  0  0  0999 V2000
  -31.6590  -17.4790   19.4280 C   0  0  0  0  0  2  0  0  0  0  0  0
  -32.0790  -18.4400   20.5570 C   0  0  0  0  0  2  0  0  0  0  0  0
  -31.5590  -19.4860   22.8300 C   0  0  0  0  0  2  0  0  0  0  0  0
  -29.6870  -19.1040   21.2710 C   0  0  0  0  0  2  0  0  0  0  0  0
  -31.5460  -20.9930   22.4510 C   0  0  0  0  0  2  0  0  0  0  0  0
  -29.7370  -20.5890   20.8550 C   0  0  0  0  0  2  0  0  0  0  0  0
  -30.3060  -16.1710   21.1850 C   0  0  0  0  0  2  0  0  0  0  0  0
  -31.1810  -16.0710   19.9050 C   0  0  0  0  0  3  0  0  0  0  0  0
  -31.0540  -18.5030   21.7230 C   0  0  1  0  0  0  0  0  0  0  0  0
  -30.2380  -21.4800   21.9360 N   0  0  2  0  0  4  0  0  0  0  0  0
  -30.8740  -17.0860   22.2360 N   0  0  2  0  0  4  0  0  0  0  0  0
  -29.5820  -21.4390   22.7060 H   0  0  0  0  0  0  0  0  0  0  0  0
  -30.1860  -17.1310   22.9750 H   0  0  0  0  0  0  0  0  0  0  0  0
  -30.9780  -14.0000   18.5600 C   0  0  0  0  0  0  0  0  0  0  0  0
  -30.0200  -12.0720   17.3690 C   0  0  0  0  0  2  0  0  0  0  0  0
  -28.8690  -12.5400   16.4570 C   0  0  0  0  0  2  0  0  0  0  0  0
  -27.5350  -12.5930   17.2240 C   0  0  0  0  0  2  0  0  0  0  0  0
  -27.6350  -13.2740   18.6180 C   0  0  0  0  0  3  0  0  0  0  0  0
  -28.8940  -12.8140   19.3910 C   0  0  0  0  0  2  0  0  0  0  0  0
  -30.0620  -12.9930   18.5130 N   0  0  0  0  0  0  0  0  0  0  0  0
  -32.0880  -13.9200   18.0360 O   0  0  0  0  0  0  0  0  0  0  0  0
  -30.5080  -15.2410   18.8570 N   0  0  0  0  0  0  0  0  0  0  0  0
  -25.5050  -14.0630   19.8110 C   0  0  0  0  0  0  0  0  0  0  0  0
  -24.4800  -13.3730   20.4040 C   0  0  0  0  0  0  0  0  0  0  0  0
  -24.8270  -11.9900   20.3040 C   0  0  0  0  0  0  0  0  0  0  0  0
  -26.4100  -13.1020   19.3880 N   0  0  0  0  0  0  0  0  0  0  0  0
  -26.0230  -11.8530   19.7450 N   0  0  0  0  0  0  0  0  0  0  0  0
  -24.0650  -10.7870   20.6610 C   0  0  0  0  0  0  0  0  0  0  0  0
  -24.5600   -9.8560   21.5970 C   0  0  0  0  0  3  0  0  0  0  0  0
  -23.8030   -8.7150   21.9400 C   0  0  0  0  0  3  0  0  0  0  0  0
  -22.5340   -8.5010   21.3510 C   0  0  0  0  0  0  0  0  0  0  0  0
  -22.0580   -9.4190   20.3990 C   0  0  0  0  0  3  0  0  0  0  0  0
  -22.8150  -10.5500   20.0540 C   0  0  0  0  0  3  0  0  0  0  0  0
  -21.7410   -7.4080   21.6050 O   0  0  0  0  0  0  0  0  0  0  0  0
  -21.7250   -6.8010   22.8350 C   0  0  0  0  0  0  0  0  0  0  0  0
  -21.4830   -7.5240   24.0250 C   0  0  0  0  0  3  0  0  0  0  0  0
  -21.4090   -6.8480   25.2570 C   0  0  0  0  0  3  0  0  0  0  0  0
  -21.5670   -5.4480   25.3050 C   0  0  0  0  0  0  0  0  0  0  0  0
  -21.8030   -4.7260   24.1210 C   0  0  0  0  0  3  0  0  0  0  0  0
  -21.8780   -5.4020   22.8890 C   0  0  0  0  0  0  0  0  0  0  0  0
  -22.0870   -4.6970   21.7520 F   0  0  0  0  0  0  0  0  0  0  0  0
  -21.4870   -4.7980   26.4880 F   0  0  0  0  0  0  0  0  0  0  0  0
  -23.2060  -13.9570   20.9400 C   0  0  0  0  0  0  0  0  0  0  0  0
  -22.6670  -13.3730   22.0060 N   0  0  0  0  0  0  0  0  0  0  0  0
  -22.7040  -14.9630   20.4430 O   0  0  0  0  0  0  0  0  0  0  0  0
  -23.0850  -12.5570   22.4240 H   0  0  0  0  0  0  0  0  0  0  0  0
  -21.8200  -13.7480   22.4070 H   0  0  0  0  0  0  0  0  0  0  0  0
  -25.7270  -15.4180   19.5760 N   0  0  0  0  0  0  0  0  0  0  0  0
  -25.0310  -16.1170   19.8110 H   0  0  0  0  0  0  0  0  0  0  0  0
  -26.4930  -15.7930   19.0320 H   0  0  0  0  0  0  0  0  0  0  0  0
  -29.8850  -16.0090   17.7460 C   0  0  0  0  0  2  0  0  0  0  0  0
  -30.8400  -16.8830   16.8730 C   0  0  0  0  0  2  0  0  0  0  0  0
  -31.3760  -16.2000   15.5950 C   0  0  0  0  0  2  0  0  0  0  0  0
  -32.1060  -17.1170   14.7030 N   0  0  0  0  0  4  0  0  0  0  0  0
  -31.5140  -17.8710   14.3990 H   0  0  0  0  0  0  0  0  0  0  0  0
  -32.4060  -16.6180   13.8820 H   0  0  0  0  0  0  0  0  0  0  0  0
  -32.9220  -17.5020   15.1450 H   0  0  0  0  0  0  0  0  0  0  0  0
  -32.1000  -16.4960   22.8670 C   0  0  0  0  0  2  0  0  0  0  0  0
  -31.9160  -15.1200   23.5430 C   0  0  0  0  0  2  0  0  0  0  0  0
  -29.4850  -10.8360   21.7690 C   0  0  0  0  0  3  0  0  0  0  0  0
  -29.2370  -11.7260   22.8280 C   0  0  0  0  0  3  0  0  0  0  0  0
  -33.6120  -13.2150   20.6870 C   0  0  0  0  0  3  0  0  0  0  0  0
  -30.6390  -10.9900   20.9800 C   0  0  0  0  0  3  0  0  0  0  0  0
  -30.1330  -12.7780   23.0870 C   0  0  0  0  0  3  0  0  0  0  0  0
  -32.7030  -12.1710   20.4460 C   0  0  0  0  0  3  0  0  0  0  0  0
  -33.3630  -14.1400   21.7180 C   0  0  0  0  0  3  0  0  0  0  0  0
  -31.5500  -12.0350   21.2450 C   0  0  0  0  0  0  0  0  0  0  0  0
  -31.2990  -12.9520   22.3010 C   0  0  0  0  0  0  0  0  0  0  0  0
  -32.2090  -14.0250   22.5230 C   0  0  0  0  0  0  0  0  0  0  0  0
  -30.3070  -22.9190   21.5270 C   0  0  0  0  0  2  0  0  0  0  0  0
  -29.0360  -23.4540   20.8160 C   0  0  0  0  0  2  0  0  0  0  0  0
  -29.3000  -24.6730   19.9030 C   0  0  0  0  0  2  0  0  0  0  0  0
  -29.1020  -25.9280   20.5630 O   0  0  0  0  0  0  0  0  0  0  0  0
  -24.9800  -31.1840   23.0170 C   0  0  0  0  0  0  0  0  0  0  0  0
  -27.8860  -26.5760   20.4470 C   0  0  0  0  0  0  0  0  0  0  0  0
  -23.8980  -29.6240   21.4360 C   0  0  0  0  0  3  0  0  0  0  0  0
  -25.4580  -28.0170   20.2210 C   0  0  0  0  0  0  0  0  0  0  0  0
  -26.4240  -30.0270   21.3470 C   0  0  0  0  0  2  0  0  0  0  0  0
  -26.5690  -28.6110   20.8300 C   0  0  0  0  0  0  0  0  0  0  0  0
  -27.7820  -27.8950   20.9430 C   0  0  0  0  0  3  0  0  0  0  0  0
  -26.7430  -25.9870   19.8520 C   0  0  0  0  0  3  0  0  0  0  0  0
  -25.5400  -26.7040   19.7300 C   0  0  0  0  0  3  0  0  0  0  0  0
  -24.2010  -28.8490   20.1260 C   0  0  0  0  0  2  0  0  0  0  0  0
  -25.1150  -30.3000   21.9900 N   0  0  0  0  0  0  0  0  0  0  0  0
  -23.8650  -31.4680   23.4760 O   0  0  0  0  0  0  0  0  0  0  0  0
  -23.2220  -28.6610   22.4380 C   0  0  0  0  0  0  0  0  0  0  0  0
  -21.9060  -28.4490   22.2700 N   0  0  0  0  0  0  0  0  0  0  0  0
  -23.8780  -28.1080   23.3260 O   0  0  0  0  0  0  0  0  0  0  0  0
  -21.4390  -28.9470   21.5250 H   0  0  0  0  0  0  0  0  0  0  0  0
  -18.5000  -27.3890   22.8420 C   0  0  0  0  0  0  0  0  0  0  0  0
  -21.0690  -27.5590   23.0740 C   0  0  0  0  0  3  0  0  0  0  0  0
  -21.1120  -26.1140   22.5260 C   0  0  0  0  0  2  0  0  0  0  0  0
  -19.9840  -25.8110   21.5340 C   0  0  0  0  0  2  0  0  0  0  0  0
  -18.6180  -26.0200   22.1940 C   0  0  0  0  0  2  0  0  0  0  0  0
  -19.6520  -28.1180   23.2410 C   0  0  0  0  0  0  0  0  0  0  0  0
  -19.4880  -29.4010   23.8080 C   0  0  0  0  0  3  0  0  0  0  0  0
  -18.2050  -29.9550   23.9780 C   0  0  0  0  0  3  0  0  0  0  0  0
  -17.0680  -29.2220   23.5950 C   0  0  0  0  0  3  0  0  0  0  0  0
  -17.2160  -27.9420   23.0320 C   0  0  0  0  0  3  0  0  0  0  0  0
  -26.2140  -31.8960   23.6510 C   0  0  0  0  0  3  0  0  0  0  0  0
  -26.8090  -31.1220   24.8910 C   0  0  1  0  0  0  0  0  0  0  0  0
  -25.7400  -30.6910   25.9230 C   0  0  0  0  0  1  0  0  0  0  0  0
  -27.5600  -29.8490   24.4320 C   0  0  0  0  0  1  0  0  0  0  0  0
  -27.8440  -32.0110   25.6170 C   0  0  0  0  0  1  0  0  0  0  0  0
  -25.7950  -33.2510   24.0310 N   0  0  0  0  0  0  0  0  0  0  0  0
  -26.0420  -34.3540   23.3110 C   0  0  0  0  0  0  0  0  0  0  0  0
  -26.7210  -34.3420   22.2810 O   0  0  0  0  0  0  0  0  0  0  0  0
  -25.1830  -33.3260   24.8310 H   0  0  0  0  0  0  0  0  0  0  0  0
  -24.1810  -36.0190   23.0030 C   0  0  0  0  0  1  0  0  0  0  0  0
  -25.4420  -35.6820   23.8150 C   0  0  0  0  0  3  0  0  0  0  0  0
  -27.4940  -36.7000   24.7030 C   0  0  0  0  0  1  0  0  0  0  0  0
  -26.3890  -36.8160   23.7530 N   0  0  0  0  0  0  0  0  0  0  0  0
  -25.9120  -37.6950   23.9270 H   0  0  0  0  0  0  0  0  0  0  0  0
  1  8  1  0
  1  2  1  0
  9  4  1  6
  5  3  1  0
  6  4  1  0
  6 10  1  0
  7 11  1  0
  8 22  1  0
  8  7  1  0
  9  2  1  0
  9 11  1  0
  9  3  1  0
 10  5  1  0
 10 12  1  1
 11 58  1  0
 11 13  1  1
 14 22  1  0
 15 20  1  0
 16 17  1  0
 16 15  1  0
 18 17  1  0
 18 26  1  0
 18 19  1  0
 20 14  1  0
 20 19  1  0
 21 14  2  0
 23 24  2  0
 24 43  1  0
 25 24  1  0
 25 28  1  0
 26 27  1  0
 26 23  1  0
 27 25  2  0
 28 29  1  0
 29 30  2  0
 31 34  1  0
 31 30  1  0
 32 31  2  0
 33 32  1  0
 33 28  2  0
 34 35  1  0
 35 40  2  0
 35 36  1  0
 36 37  2  0
 37 38  1  0
 38 42  1  0
 39 38  2  0
 40 39  1  0
 41 40  1  0
 43 44  1  0
 44 47  1  0
 44 46  1  0
 45 43  2  0
 48 49  1  0
 48 23  1  0
 50 48  1  0
 51 22  1  0
 52 51  1  0
 53 52  1  0
 54 57  1  0
 54 53  1  0
 55 54  1  0
 56 54  1  0
 58 59  1  0
 60 61  1  0
 61 64  2  0
 62 66  1  0
 63 67  1  0
 63 60  2  0
 65 62  2  0
 65 67  1  0
 66 69  2  0
 67 68  2  0
 68 69  1  0
 68 64  1  0
 69 59  1  0
 70 10  1  0
 71 70  1  0
 72 73  1  0
 72 71  1  0
 74 85  2  0
 75 73  1  0
 75 80  1  0
 76 84  1  0
 76 86  1  0
 77 79  1  0
 78 84  1  0
 79 80  2  0
 79 78  1  0
 81 75  2  0
 82 81  1  0
 82 77  2  0
 83 77  1  0
 83 76  1  0
 84 74  1  0
 86 88  2  0
 87 86  1  0
 89 87  1  0
 90 99  2  0
 90 95  1  0
 91 87  1  0
 91 95  1  0
 92 91  1  0
 93 94  1  0
 93 92  1  0
 94 90  1  0
 95 96  2  0
 96 97  1  0
 98 97  2  0
 99 98  1  0
100 74  1  0
100105  1  0
100101  1  0
101104  1  1
101102  1  0
103101  1  0
105108  1  0
106110  1  0
106105  1  0
107106  2  0
110109  1  0
112110  1  0
112113  1  0
112111  1  0
M  ISO  4  14 100  22 100  72 101  73 101
M  END
>  <TORSDO>  (11) 
F 26

>  <SCORE>  (11) 
6.967

>  <name>  (11) 
10

>  <ligand_id>  (11) 
10

>  <original_smiles>  (11) 
[H]c1c([H])c([H])c2c(c1[H])C([H])([H])C([H])([H])C([H])([H])C2([H])N([H])C(=O)C1([H])N(C(=O)C([H])(N([H])C(=O)C([H])(N([H])C([H])([H])[H])C([H])([H])[H])C(C([H])([H])[H])(C([H])([H])[H])C([H])([H])[H])C([H])([H])c2c([H])c(OC([H])([H])C([H])([H])C([H])([H])[N+]3([H])C([H])([H])C([H])([H])C4(C([H])([H])C([H])([H])C([H])(N(C(=O)N5C([H])([H])C([H])([H])C([H])([H])C([H])(n6nc(-c7c([H])c([H])c(Oc8c([H])c([H])c(F)c([H])c8F)c([H])c7[H])c(C(=O)N([H])[H])c6N([H])[H])C5([H])[H])C([H])([H])C([H])([H])C([H])([H])[N+]([H])([H])[H])C([H])([H])[N+]4([H])C([H])([H])C([H])([H])c4c([H])c([H])c([H])c5c([H])c([H])c([H])c([H])c45)C([H])([H])C3([H])[H])c([H])c([H])c2C1([H])[H]

>  <smiles>  (11) 
[H]c1c([H])c([H])c2c(c1[H])C([H])([H])C([H])([H])C([H])([H])C2([H])N([H])C(=O)C1([H])N(C(=O)C([H])(N([H])C(=O)C([H])(N([H])C([H])([H])[H])C([H])([H])[H])C(C([H])([H])[H])(C([H])([H])[H])C([H])([H])[H])C([H])([H])c2c([H])c(OC([H])([H])C([H])([H])C([H])([H])[N+]3([H])C([H])([H])C([H])([H])C4(C([H])([H])C([H])([H])C([H])(N(C(=O)N5C([H])([H])C([H])([H])C([H])([H])C([H])(n6nc(-c7c([H])c([H])c(Oc8c([H])c([H])c(F)c([H])c8F)c([H])c7[H])c(C(=O)N([H])[H])c6N([H])[H])C5([H])[H])C([H])([H])C([H])([H])C([H])([H])[N+]([H])([H])[H])C([H])([H])[N+]4([H])C([H])([H])C([H])([H])c4c([H])c([H])c([H])c5c([H])c([H])c([H])c([H])c45)C([H])([H])C3([H])[H])c([H])c([H])c2C1([H])[H]

$$$$
11:0:0
     RDKit          3D

 95103  0  0  1  0  0  0  0  0999 V2000
  -29.2190  -20.5340   17.9710 C   0  0  0  0  0  2  0  0  0  0  0  0
  -28.0030  -20.5970   18.9010 C   0  0  0  0  0  2  0  0  0  0  0  0
  -30.4580  -20.7590   18.8440 C   0  0  0  0  0  2  0  0  0  0  0  0
  -28.4560  -21.3440   20.1690 C   0  0  0  0  0  3  0  0  0  0  0  0
  -29.9560  -20.9330   20.2890 C   0  0  0  0  0  3  0  0  0  0  0  0
  -30.1910  -19.7020   21.1360 N   0  0  0  0  0  4  0  0  0  0  0  0
  -29.7820  -19.8740   22.0410 H   0  0  0  0  0  0  0  0  0  0  0  0
  -31.1860  -19.6490   21.2880 H   0  0  0  0  0  0  0  0  0  0  0  0
  -29.7380  -18.3400   20.6790 C   0  0  0  0  0  2  0  0  0  0  0  0
  -30.3830  -17.1650   21.5020 C   0  0  0  0  0  2  0  0  0  0  0  0
  -30.6590  -14.7450   20.7200 C   0  0  0  0  0  0  0  0  0  0  0  0
  -30.4600  -12.5410   19.6000 C   0  0  0  0  0  2  0  0  0  0  0  0
  -29.5600  -12.6650   18.3540 C   0  0  0  0  0  2  0  0  0  0  0  0
  -28.0780  -12.4900   18.7390 C   0  0  0  0  0  2  0  0  0  0  0  0
  -27.6610  -13.3580   19.9570 C   0  0  0  0  0  3  0  0  0  0  0  0
  -28.6840  -13.2140   21.1070 C   0  0  0  0  0  2  0  0  0  0  0  0
  -30.0130  -13.5520   20.5750 N   0  0  0  0  0  0  0  0  0  0  0  0
  -31.8160  -14.9190   20.3300 O   0  0  0  0  0  0  0  0  0  0  0  0
  -29.9220  -15.7830   21.1840 N   0  0  0  0  0  0  0  0  0  0  0  0
  -28.9630  -15.5600   21.4120 H   0  0  0  0  0  0  0  0  0  0  0  0
  -25.2250  -13.9130   20.5790 C   0  0  0  0  0  0  0  0  0  0  0  0
  -24.1610  -13.1190   20.9140 C   0  0  0  0  0  0  0  0  0  0  0  0
  -24.6530  -11.7780   20.9080 C   0  0  0  0  0  0  0  0  0  0  0  0
  -26.2970  -13.0550   20.3930 N   0  0  0  0  0  0  0  0  0  0  0  0
  -25.9550  -11.7650   20.6500 N   0  0  0  0  0  0  0  0  0  0  0  0
  -23.9440  -10.5020   21.0800 C   0  0  0  0  0  0  0  0  0  0  0  0
  -24.3520   -9.5540   22.0420 C   0  0  0  0  0  3  0  0  0  0  0  0
  -23.6450   -8.3420   22.1990 C   0  0  0  0  0  3  0  0  0  0  0  0
  -22.5140   -8.0720   21.3920 C   0  0  0  0  0  0  0  0  0  0  0  0
  -22.1260   -9.0090   20.4170 C   0  0  0  0  0  3  0  0  0  0  0  0
  -22.8350  -10.2130   20.2600 C   0  0  0  0  0  3  0  0  0  0  0  0
  -21.7800   -6.9120   21.4580 O   0  0  0  0  0  0  0  0  0  0  0  0
  -21.6830   -6.1850   22.6180 C   0  0  0  0  0  0  0  0  0  0  0  0
  -21.1680   -6.7470   23.8070 C   0  0  0  0  0  3  0  0  0  0  0  0
  -21.0210   -5.9460   24.9580 C   0  0  0  0  0  3  0  0  0  0  0  0
  -21.3790   -4.5860   24.9190 C   0  0  0  0  0  0  0  0  0  0  0  0
  -21.8870   -4.0240   23.7360 C   0  0  0  0  0  3  0  0  0  0  0  0
  -22.0360   -4.8210   22.5870 C   0  0  0  0  0  0  0  0  0  0  0  0
  -22.5060   -4.2700   21.4420 F   0  0  0  0  0  0  0  0  0  0  0  0
  -21.2310   -3.8130   26.0220 F   0  0  0  0  0  0  0  0  0  0  0  0
  -22.7450  -13.5680   21.1300 C   0  0  0  0  0  0  0  0  0  0  0  0
  -21.9930  -12.8560   21.9640 N   0  0  0  0  0  0  0  0  0  0  0  0
  -22.3100  -14.5850   20.5930 O   0  0  0  0  0  0  0  0  0  0  0  0
  -22.3540  -12.0310   22.4200 H   0  0  0  0  0  0  0  0  0  0  0  0
  -21.0410  -13.1410   22.1450 H   0  0  0  0  0  0  0  0  0  0  0  0
  -25.3630  -15.2850   20.3980 N   0  0  0  0  0  0  0  0  0  0  0  0
  -24.5680  -15.9130   20.4580 H   0  0  0  0  0  0  0  0  0  0  0  0
  -26.2050  -15.7440   20.0740 H   0  0  0  0  0  0  0  0  0  0  0  0
  -27.9880  -22.7610   20.0070 N   0  0  0  0  0  0  0  0  0  0  0  0
  -26.5390  -22.7960   20.3160 C   0  0  0  0  0  2  0  0  0  0  0  0
  -24.4430  -22.6190   18.8220 C   0  0  0  0  0  1  0  0  0  0  0  0
  -25.6850  -23.4380   19.1960 C   0  0  0  0  0  2  0  0  0  0  0  0
  -28.7560  -23.9940   20.3950 C   0  0  0  0  0  2  0  0  0  0  0  0
  -28.0050  -25.3010   19.9160 C   0  0  0  0  0  2  0  0  0  0  0  0
  -28.3630  -26.7020   20.1810 O   0  0  0  0  0  0  0  0  0  0  0  0
  -24.6710  -31.9730   23.3990 C   0  0  0  0  0  0  0  0  0  0  0  0
  -27.2660  -27.5800   20.1350 C   0  0  0  0  0  0  0  0  0  0  0  0
  -23.4550  -30.6370   21.7220 C   0  0  0  0  0  3  0  0  0  0  0  0
  -24.8970  -29.1740   20.2120 C   0  0  0  0  0  0  0  0  0  0  0  0
  -25.9870  -30.9830   21.5220 C   0  0  0  0  0  2  0  0  0  0  0  0
  -26.0700  -29.6350   20.8240 C   0  0  0  0  0  0  0  0  0  0  0  0
  -27.2580  -28.8460   20.7880 C   0  0  0  0  0  3  0  0  0  0  0  0
  -26.0710  -27.1960   19.4700 C   0  0  0  0  0  3  0  0  0  0  0  0
  -24.8960  -27.9580   19.5260 C   0  0  0  0  0  3  0  0  0  0  0  0
  -23.6530  -30.0290   20.3120 C   0  0  0  0  0  2  0  0  0  0  0  0
  -24.7240  -31.2100   22.2720 N   0  0  0  0  0  0  0  0  0  0  0  0
  -23.5930  -32.2270   23.9520 O   0  0  0  0  0  0  0  0  0  0  0  0
  -22.8120  -29.5710   22.6420 C   0  0  0  0  0  0  0  0  0  0  0  0
  -21.4930  -29.3640   22.4950 N   0  0  0  0  0  0  0  0  0  0  0  0
  -23.4980  -28.9380   23.4490 O   0  0  0  0  0  0  0  0  0  0  0  0
  -20.9960  -29.9330   21.8230 H   0  0  0  0  0  0  0  0  0  0  0  0
  -18.1430  -28.0640   22.8920 C   0  0  0  0  0  0  0  0  0  0  0  0
  -20.6840  -28.3900   23.2300 C   0  0  0  0  0  3  0  0  0  0  0  0
  -20.8410  -26.9720   22.6350 C   0  0  0  0  0  2  0  0  0  0  0  0
  -19.7730  -26.6350   21.5890 C   0  0  0  0  0  2  0  0  0  0  0  0
  -18.3730  -26.7310   22.2020 C   0  0  0  0  0  2  0  0  0  0  0  0
  -19.2270  -28.8520   23.3600 C   0  0  0  0  0  0  0  0  0  0  0  0
  -18.9570  -30.1010   23.9610 C   0  0  0  0  0  3  0  0  0  0  0  0
  -17.6350  -30.5630   24.1010 C   0  0  0  0  0  3  0  0  0  0  0  0
  -16.5630  -29.7700   23.6540 C   0  0  0  0  0  3  0  0  0  0  0  0
  -16.8180  -28.5240   23.0550 C   0  0  0  0  0  3  0  0  0  0  0  0
  -25.9600  -32.5840   24.0270 C   0  0  0  0  0  3  0  0  0  0  0  0
  -25.6750  -33.9920   24.3350 N   0  0  0  0  0  0  0  0  0  0  0  0
  -26.0200  -35.0270   23.5550 C   0  0  0  0  0  0  0  0  0  0  0  0
  -26.6830  -34.8950   22.5220 O   0  0  0  0  0  0  0  0  0  0  0  0
  -25.0890  -34.1670   25.1370 H   0  0  0  0  0  0  0  0  0  0  0  0
  -24.3100  -36.8350   23.1890 C   0  0  0  0  0  1  0  0  0  0  0  0
  -25.5550  -36.4280   23.9930 C   0  0  0  0  0  3  0  0  0  0  0  0
  -27.7080  -37.3050   24.7870 C   0  0  0  0  0  1  0  0  0  0  0  0
  -26.6000  -37.4650   23.8500 N   0  0  0  0  0  0  0  0  0  0  0  0
  -26.2040  -38.3920   23.9850 H   0  0  0  0  0  0  0  0  0  0  0  0
  -26.4450  -31.8160   25.3150 C   0  0  1  0  0  0  0  0  0  0  0  0
  -25.3320  -31.6030   26.3670 C   0  0  0  0  0  1  0  0  0  0  0  0
  -27.0130  -30.4250   24.9420 C   0  0  0  0  0  1  0  0  0  0  0  0
  -27.6000  -32.5960   25.9880 C   0  0  0  0  0  1  0  0  0  0  0  0
  1  3  1  0
  1  2  1  0
  2  4  1  0
  3  5  1  0
  4 49  1  0
  4  5  1  0
  5  6  1  0
  6  8  1  0
  6  7  1  0
  9  6  1  0
  9 10  1  0
 11 19  1  0
 12 17  1  0
 13 14  1  0
 13 12  1  0
 15 14  1  0
 15 24  1  0
 15 16  1  0
 17 11  1  0
 17 16  1  0
 18 11  2  0
 19 20  1  0
 19 10  1  0
 21 22  2  0
 22 41  1  0
 23 22  1  0
 23 26  1  0
 24 21  1  0
 24 25  1  0
 25 23  2  0
 26 27  1  0
 27 28  2  0
 29 32  1  0
 29 28  1  0
 30 29  2  0
 31 30  1  0
 31 26  2  0
 32 33  1  0
 33 34  1  0
 34 35  2  0
 36 35  1  0
 36 40  1  0
 37 36  2  0
 38 33  2  0
 38 37  1  0
 39 38  1  0
 41 42  1  0
 42 45  1  0
 42 44  1  0
 43 41  2  0
 46 47  1  0
 46 21  1  0
 48 46  1  0
 49 50  1  0
 49 53  1  0
 51 52  1  0
 52 50  1  0
 54 55  1  0
 54 53  1  0
 56 67  2  0
 57 55  1  0
 57 62  1  0
 58 66  1  0
 58 68  1  0
 59 65  1  0
 59 61  1  0
 60 66  1  0
 61 60  1  0
 62 61  2  0
 63 64  1  0
 63 57  2  0
 64 59  2  0
 65 58  1  0
 66 56  1  0
 68 70  2  0
 69 68  1  0
 71 69  1  0
 72 81  2  0
 72 77  1  0
 73 69  1  0
 73 77  1  0
 74 73  1  0
 75 76  1  0
 75 74  1  0
 76 72  1  0
 77 78  2  0
 78 79  1  0
 80 79  2  0
 81 80  1  0
 82 56  1  0
 82 83  1  0
 82 92  1  0
 83 86  1  0
 84 88  1  0
 84 83  1  0
 85 84  2  0
 88 87  1  0
 90 91  1  0
 90 88  1  0
 90 89  1  0
 92 95  1  1
 92 93  1  0
 94 92  1  0
M  ISO  4  11 100  19 100  54 101  55 101
M  END
>  <TORSDO>  (12) 
F 24

>  <SCORE>  (12) 
-12.728

>  <name>  (12) 
11

>  <ligand_id>  (12) 
11

>  <original_smiles>  (12) 
[H]c1c([H])c([H])c2c(c1[H])C([H])([H])C([H])([H])C([H])([H])C2([H])N([H])C(=O)C1([H])N(C(=O)C([H])(N([H])C(=O)C([H])(N([H])C([H])([H])[H])C([H])([H])[H])C(C([H])([H])[H])(C([H])([H])[H])C([H])([H])[H])C([H])([H])c2c([H])c(OC([H])([H])C([H])([H])N(C([H])([H])C([H])([H])C([H])([H])[H])C3([H])C([H])([H])C([H])([H])C([H])([H])C3([H])[N+]([H])([H])C([H])([H])C([H])([H])N([H])C(=O)N3C([H])([H])C([H])([H])C([H])([H])C([H])(n4nc(-c5c([H])c([H])c(Oc6c([H])c([H])c(F)c([H])c6F)c([H])c5[H])c(C(=O)N([H])[H])c4N([H])[H])C3([H])[H])c([H])c([H])c2C1([H])[H]

>  <smiles>  (12) 
[H]c1c([H])c([H])c2c(c1[H])C([H])([H])C([H])([H])C([H])([H])C2([H])N([H])C(=O)C1([H])N(C(=O)C([H])(N([H])C(=O)C([H])(N([H])C([H])([H])[H])C([H])([H])[H])C(C([H])([H])[H])(C([H])([H])[H])C([H])([H])[H])C([H])([H])c2c([H])c(OC([H])([H])C([H])([H])N(C([H])([H])C([H])([H])C([H])([H])[H])C3([H])C([H])([H])C([H])([H])C([H])([H])C3([H])[N+]([H])([H])C([H])([H])C([H])([H])N([H])C(=O)N3C([H])([H])C([H])([H])C([H])([H])C([H])(n4nc(-c5c([H])c([H])c(Oc6c([H])c([H])c(F)c([H])c6F)c([H])c5[H])c(C(=O)N([H])[H])c4N([H])[H])C3([H])[H])c([H])c([H])c2C1([H])[H]

$$$$
12:0:0
     RDKit          3D

110118  0  0  1  0  0  0  0  0999 V2000
  -30.8170  -14.4980   20.4690 C   0  0  0  0  0  0  0  0  0  0  0  0
  -30.1030  -12.3130   19.5400 C   0  0  0  0  0  2  0  0  0  0  0  0
  -28.9720  -12.5060   18.5080 C   0  0  0  0  0  2  0  0  0  0  0  0
  -27.5990  -12.4650   19.2010 C   0  0  0  0  0  2  0  0  0  0  0  0
  -27.5550  -13.3900   20.4410 C   0  0  0  0  0  3  0  0  0  0  0  0
  -28.7930  -13.1700   21.3590 C   0  0  0  0  0  2  0  0  0  0  0  0
  -29.9960  -13.3950   20.5450 N   0  0  0  0  0  0  0  0  0  0  0  0
  -31.8050  -14.4480   19.7270 O   0  0  0  0  0  0  0  0  0  0  0  0
  -30.5970  -15.6520   21.2030 N   0  0  0  0  0  0  0  0  0  0  0  0
  -25.4540  -14.2490   21.6500 C   0  0  0  0  0  0  0  0  0  0  0  0
  -24.3900  -13.5940   22.2070 C   0  0  0  0  0  0  0  0  0  0  0  0
  -24.6510  -12.2020   22.0360 C   0  0  0  0  0  0  0  0  0  0  0  0
  -26.3030  -13.2610   21.1780 N   0  0  0  0  0  0  0  0  0  0  0  0
  -25.8360  -12.0210   21.4680 N   0  0  0  0  0  0  0  0  0  0  0  0
  -23.8160  -11.0330   22.3220 C   0  0  0  0  0  0  0  0  0  0  0  0
  -24.3290   -9.9090   23.0070 C   0  0  0  0  0  3  0  0  0  0  0  0
  -23.5000   -8.8000   23.2830 C   0  0  0  0  0  3  0  0  0  0  0  0
  -22.1450   -8.8090   22.8720 C   0  0  0  0  0  0  0  0  0  0  0  0
  -21.6480   -9.9200   22.1680 C   0  0  0  0  0  3  0  0  0  0  0  0
  -22.4740  -11.0200   21.8890 C   0  0  0  0  0  3  0  0  0  0  0  0
  -21.2710   -7.7670   23.0750 O   0  0  0  0  0  0  0  0  0  0  0  0
  -21.4750   -6.8430   24.0680 C   0  0  0  0  0  0  0  0  0  0  0  0
  -21.6230   -7.2250   25.4200 C   0  0  0  0  0  3  0  0  0  0  0  0
  -21.7550   -6.2380   26.4170 C   0  0  0  0  0  3  0  0  0  0  0  0
  -21.7380   -4.8740   26.0680 C   0  0  0  0  0  0  0  0  0  0  0  0
  -21.5920   -4.4940   24.7220 C   0  0  0  0  0  3  0  0  0  0  0  0
  -21.4610   -5.4760   23.7260 C   0  0  0  0  0  0  0  0  0  0  0  0
  -21.2940   -5.1040   22.4330 F   0  0  0  0  0  0  0  0  0  0  0  0
  -21.8620   -3.9260   27.0260 F   0  0  0  0  0  0  0  0  0  0  0  0
  -23.1500  -14.2260   22.7720 C   0  0  0  0  0  0  0  0  0  0  0  0
  -22.5250  -13.5790   23.7500 N   0  0  0  0  0  0  0  0  0  0  0  0
  -22.7540  -15.3250   22.3840 O   0  0  0  0  0  0  0  0  0  0  0  0
  -22.8590  -12.6880   24.0820 H   0  0  0  0  0  0  0  0  0  0  0  0
  -21.6970  -13.9820   24.1710 H   0  0  0  0  0  0  0  0  0  0  0  0
  -25.7520  -15.5980   21.4790 N   0  0  0  0  0  0  0  0  0  0  0  0
  -25.0090  -16.2730   21.6230 H   0  0  0  0  0  0  0  0  0  0  0  0
  -26.4190  -15.9030   20.7820 H   0  0  0  0  0  0  0  0  0  0  0  0
  -31.7040  -16.6600   21.3070 C   0  0  0  0  0  2  0  0  0  0  0  0
  -31.8820  -19.2040   21.5460 C   0  0  0  0  0  3  0  0  0  0  0  0
  -31.0170  -18.3440   19.4520 C   0  0  0  0  0  3  0  0  0  0  0  0
  -31.8070  -20.5210   21.0410 C   0  0  0  0  0  3  0  0  0  0  0  0
  -30.9190  -19.6670   18.9460 C   0  0  0  0  0  3  0  0  0  0  0  0
  -31.4990  -18.0930   20.7580 C   0  0  0  0  0  0  0  0  0  0  0  0
  -31.3520  -20.7680   19.7250 C   0  0  0  0  0  0  0  0  0  0  0  0
  -31.4400  -22.1890   19.1440 C   0  0  0  0  0  2  0  0  0  0  0  0
  -30.2100  -23.0000   19.3140 N   0  0  0  0  0  4  0  0  0  0  0  0
  -29.7600  -22.6740   20.1520 H   0  0  0  0  0  0  0  0  0  0  0  0
  -29.6030  -22.7970   18.5340 H   0  0  0  0  0  0  0  0  0  0  0  0
  -30.4270  -24.4780   19.4190 C   0  0  0  0  0  2  0  0  0  0  0  0
  -29.1270  -25.2930   19.1940 C   0  0  0  0  0  2  0  0  0  0  0  0
  -29.2170  -26.6590   19.6380 O   0  0  0  0  0  0  0  0  0  0  0  0
  -25.3280  -31.8120   22.7130 C   0  0  0  0  0  0  0  0  0  0  0  0
  -28.0720  -27.4430   19.5740 C   0  0  0  0  0  0  0  0  0  0  0  0
  -24.2450  -30.6240   20.8340 C   0  0  0  0  0  3  0  0  0  0  0  0
  -25.7690  -29.1030   19.4680 C   0  0  0  0  0  0  0  0  0  0  0  0
  -26.7970  -30.8180   20.9630 C   0  0  0  0  0  2  0  0  0  0  0  0
  -26.8810  -29.5000   20.2200 C   0  0  0  0  0  0  0  0  0  0  0  0
  -28.0340  -28.6790   20.2700 C   0  0  0  0  0  3  0  0  0  0  0  0
  -26.9330  -27.0640   18.8240 C   0  0  0  0  0  3  0  0  0  0  0  0
  -25.7880  -27.8840   18.7750 C   0  0  0  0  0  3  0  0  0  0  0  0
  -24.5830  -30.0400   19.4380 C   0  0  0  0  0  2  0  0  0  0  0  0
  -25.4680  -31.0930   21.5630 N   0  0  0  0  0  0  0  0  0  0  0  0
  -24.2070  -32.1120   23.1480 O   0  0  0  0  0  0  0  0  0  0  0  0
  -23.4260  -29.5770   21.6230 C   0  0  0  0  0  0  0  0  0  0  0  0
  -22.1430  -29.4210   21.2620 N   0  0  0  0  0  0  0  0  0  0  0  0
  -23.9530  -28.9080   22.5180 O   0  0  0  0  0  0  0  0  0  0  0  0
  -21.7830  -30.0090   20.5240 H   0  0  0  0  0  0  0  0  0  0  0  0
  -18.7640  -28.1670   21.0240 C   0  0  0  0  0  0  0  0  0  0  0  0
  -21.1980  -28.4700   21.8430 C   0  0  0  0  0  3  0  0  0  0  0  0
  -21.4470  -27.0400   21.3100 C   0  0  0  0  0  2  0  0  0  0  0  0
  -20.5970  -26.6990   20.0830 C   0  0  0  0  0  2  0  0  0  0  0  0
  -19.1060  -26.8180   20.4100 C   0  0  0  0  0  2  0  0  0  0  0  0
  -19.7500  -28.9470   21.6820 C   0  0  0  0  0  0  0  0  0  0  0  0
  -19.3860  -30.2100   22.2020 C   0  0  0  0  0  3  0  0  0  0  0  0
  -18.0690  -30.6880   22.0720 C   0  0  0  0  0  3  0  0  0  0  0  0
  -17.0940  -29.9030   21.4340 C   0  0  0  0  0  3  0  0  0  0  0  0
  -17.4410  -28.6430   20.9150 C   0  0  0  0  0  3  0  0  0  0  0  0
  -26.5650  -32.3030   23.5230 C   0  0  0  0  0  3  0  0  0  0  0  0
  -26.3400  -33.7160   23.8600 N   0  0  0  0  0  0  0  0  0  0  0  0
  -26.8780  -34.7480   23.1970 C   0  0  0  0  0  0  0  0  0  0  0  0
  -27.6830  -34.6060   22.2730 O   0  0  0  0  0  0  0  0  0  0  0  0
  -25.6500  -33.9070   24.5710 H   0  0  0  0  0  0  0  0  0  0  0  0
  -25.3840  -36.6980   22.6580 C   0  0  0  0  0  1  0  0  0  0  0  0
  -26.4530  -36.1660   23.6270 C   0  0  0  0  0  3  0  0  0  0  0  0
  -28.5220  -36.8290   24.7730 C   0  0  0  0  0  1  0  0  0  0  0  0
  -27.5810  -37.1220   23.6940 N   0  0  0  0  0  0  0  0  0  0  0  0
  -27.2400  -38.0740   23.8190 H   0  0  0  0  0  0  0  0  0  0  0  0
  -26.8320  -31.4540   24.8280 C   0  0  1  0  0  0  0  0  0  0  0  0
  -25.5900  -31.2950   25.7350 C   0  0  0  0  0  1  0  0  0  0  0  0
  -27.3310  -30.0340   24.4670 C   0  0  0  0  0  1  0  0  0  0  0  0
  -27.9490  -32.1190   25.6670 C   0  0  0  0  0  1  0  0  0  0  0  0
  -29.2960  -16.2630   21.5620 C   0  0  0  0  0  2  0  0  0  0  0  0
  -29.1030  -16.6090   23.0620 C   0  0  0  0  0  2  0  0  0  0  0  0
  -28.3450  -17.9610   23.1960 C   0  0  0  0  0  2  0  0  0  0  0  0
  -28.2800  -18.6140   24.5410 N   0  0  2  0  0  4  0  0  0  0  0  0
  -27.4790  -18.2090   25.0050 H   0  0  0  0  0  0  0  0  0  0  0  0
  -27.9530  -20.0740   24.4030 C   0  0  0  0  0  2  0  0  0  0  0  0
  -29.0510  -20.9570   23.7310 C   0  0  0  0  0  2  0  0  0  0  0  0
  -28.7830  -22.4790   23.8430 C   0  0  0  0  0  2  0  0  0  0  0  0
  -29.8000  -23.3140   23.1670 N   0  0  0  0  0  4  0  0  0  0  0  0
  -30.7130  -23.1970   23.5730 H   0  0  0  0  0  0  0  0  0  0  0  0
  -29.5520  -24.2870   23.2550 H   0  0  0  0  0  0  0  0  0  0  0  0
  -29.8420  -23.1100   22.1830 H   0  0  0  0  0  0  0  0  0  0  0  0
  -29.4620  -18.3080   25.4060 C   0  0  0  0  0  2  0  0  0  0  0  0
  -29.4670  -18.8820   26.8440 C   0  0  0  0  0  2  0  0  0  0  0  0
  -28.6900  -18.0300   27.8670 C   0  0  0  0  0  2  0  0  0  0  0  0
  -28.9430  -18.4500   29.2550 N   0  0  0  0  0  4  0  0  0  0  0  0
  -29.9260  -18.4490   29.4620 H   0  0  0  0  0  0  0  0  0  0  0  0
  -28.4990  -17.8130   29.8950 H   0  0  0  0  0  0  0  0  0  0  0  0
  -28.5770  -19.3680   29.4290 H   0  0  0  0  0  0  0  0  0  0  0  0
  1  7  1  0
  1  9  1  0
  2  7  1  0
  3  4  1  0
  3  2  1  0
  5  4  1  0
  5 13  1  0
  5  6  1  0
  7  6  1  0
  8  1  2  0
  9 38  1  0
  9 92  1  0
 10 11  2  0
 11 30  1  0
 12 11  1  0
 12 15  1  0
 13 14  1  0
 13 10  1  0
 14 12  2  0
 15 16  1  0
 16 17  2  0
 18 21  1  0
 18 17  1  0
 19 18  2  0
 20 19  1  0
 20 15  2  0
 21 22  1  0
 22 23  1  0
 23 24  2  0
 25 24  1  0
 25 29  1  0
 26 25  2  0
 27 22  2  0
 27 26  1  0
 28 27  1  0
 30 31  1  0
 31 33  1  0
 31 34  1  0
 32 30  2  0
 35 36  1  0
 35 10  1  0
 37 35  1  0
 40 43  1  0
 41 39  1  0
 42 40  2  0
 42 44  1  0
 43 38  1  0
 43 39  2  0
 44 41  2  0
 45 46  1  0
 45 44  1  0
 46 49  1  0
 46 47  1  0
 48 46  1  0
 50 49  1  0
 50 51  1  0
 52 63  2  0
 53 51  1  0
 53 58  1  0
 54 62  1  0
 54 64  1  0
 55 57  1  0
 56 62  1  0
 57 58  2  0
 57 56  1  0
 59 53  2  0
 60 59  1  0
 60 55  2  0
 61 55  1  0
 61 54  1  0
 62 52  1  0
 64 66  2  0
 65 64  1  0
 67 65  1  0
 68 73  1  0
 69 65  1  0
 70 69  1  0
 71 72  1  0
 71 70  1  0
 72 68  1  0
 73 69  1  0
 73 74  2  0
 75 74  1  0
 76 75  2  0
 77 68  2  0
 77 76  1  0
 78 52  1  0
 78 79  1  0
 78 88  1  0
 79 82  1  0
 80 84  1  0
 80 79  1  0
 81 80  2  0
 84 83  1  0
 84 86  1  0
 86 87  1  0
 86 85  1  0
 88 91  1  1
 88 89  1  0
 90 88  1  0
 92 93  1  0
 93 94  1  0
 94 95  1  0
 95 96  1  1
 95104  1  0
 97 95  1  0
 98 99  1  0
 98 97  1  0
100102  1  0
100101  1  0
100 99  1  0
103100  1  0
104105  1  0
105106  1  0
106107  1  0
107110  1  0
107108  1  0
107109  1  0
M  ISO  4   1 100   9 100  50 101  51 101
M  END
>  <TORSDO>  (13) 
F 33

>  <SCORE>  (13) 
42.112

>  <name>  (13) 
12

>  <ligand_id>  (13) 
12

>  <original_smiles>  (13) 
[H]c1c([H])c([H])c2c(c1[H])C([H])([H])C([H])([H])C([H])([H])C2([H])N([H])C(=O)C1([H])N(C(=O)C([H])(N([H])C(=O)C([H])(N([H])C([H])([H])[H])C([H])([H])[H])C(C([H])([H])[H])(C([H])([H])[H])C([H])([H])[H])C([H])([H])c2c([H])c(OC([H])([H])C([H])([H])[N+]([H])([H])C([H])([H])c3c([H])c([H])c(C([H])([H])N(C(=O)N4C([H])([H])C([H])([H])C([H])([H])C([H])(n5nc(-c6c([H])c([H])c(Oc7c([H])c([H])c(F)c([H])c7F)c([H])c6[H])c(C(=O)N([H])[H])c5N([H])[H])C4([H])[H])C([H])([H])C([H])([H])C([H])([H])[N+]([H])(C([H])([H])C([H])([H])C([H])([H])[N+]([H])([H])[H])C([H])([H])C([H])([H])C([H])([H])[N+]([H])([H])[H])c([H])c3[H])c([H])c([H])c2C1([H])[H]

>  <smiles>  (13) 
[H]c1c([H])c([H])c2c(c1[H])C([H])([H])C([H])([H])C([H])([H])C2([H])N([H])C(=O)C1([H])N(C(=O)C([H])(N([H])C(=O)C([H])(N([H])C([H])([H])[H])C([H])([H])[H])C(C([H])([H])[H])(C([H])([H])[H])C([H])([H])[H])C([H])([H])c2c([H])c(OC([H])([H])C([H])([H])[N+]([H])([H])C([H])([H])c3c([H])c([H])c(C([H])([H])N(C(=O)N4C([H])([H])C([H])([H])C([H])([H])C([H])(n5nc(-c6c([H])c([H])c(Oc7c([H])c([H])c(F)c([H])c7F)c([H])c6[H])c(C(=O)N([H])[H])c5N([H])[H])C4([H])[H])C([H])([H])C([H])([H])C([H])([H])[N+]([H])(C([H])([H])C([H])([H])C([H])([H])[N+]([H])([H])[H])C([H])([H])C([H])([H])C([H])([H])[N+]([H])([H])[H])c([H])c3[H])c([H])c([H])c2C1([H])[H]

$$$$
13:0:0
     RDKit          3D

 91 99  0  0  1  0  0  0  0  0999 V2000
  -28.8980  -21.1080   19.7780 N   0  0  0  0  0  0  0  0  0  0  0  0
  -30.4550  -15.3680   19.8520 C   0  0  0  0  0  0  0  0  0  0  0  0
  -30.3310  -12.9270   18.9410 C   0  0  0  0  0  2  0  0  0  0  0  0
  -29.3360  -12.7200   17.7730 C   0  0  0  0  0  2  0  0  0  0  0  0
  -27.9240  -12.4380   18.3080 C   0  0  0  0  0  2  0  0  0  0  0  0
  -27.5470  -13.3880   19.4710 C   0  0  0  0  0  3  0  0  0  0  0  0
  -28.6700  -13.5400   20.5230 C   0  0  0  0  0  2  0  0  0  0  0  0
  -29.8460  -14.0720   19.8090 N   0  0  0  0  0  0  0  0  0  0  0  0
  -31.6460  -15.3120   19.5040 O   0  0  0  0  0  0  0  0  0  0  0  0
  -28.1210  -18.6060   20.5820 C   0  0  0  0  0  2  0  0  0  0  0  0
  -28.5840  -17.0740   20.7710 C   0  0  0  0  0  2  0  0  0  0  0  0
  -30.1570  -18.2450   19.6000 C   0  0  0  0  0  2  0  0  0  0  0  0
  -29.3050  -19.5810   20.3050 C   0  0  0  0  0  3  0  0  0  0  0  0
  -29.7890  -16.7130   19.9880 N   0  0  0  0  0  0  0  0  0  0  0  0
  -25.2380  -13.9270   20.4070 C   0  0  0  0  0  0  0  0  0  0  0  0
  -24.2020  -13.1440   20.8300 C   0  0  0  0  0  0  0  0  0  0  0  0
  -24.6560  -11.7940   20.7210 C   0  0  0  0  0  0  0  0  0  0  0  0
  -26.2580  -13.0570   20.0660 N   0  0  0  0  0  0  0  0  0  0  0  0
  -25.9240  -11.7650   20.3190 N   0  0  0  0  0  0  0  0  0  0  0  0
  -23.9330  -10.5310   20.9170 C   0  0  0  0  0  0  0  0  0  0  0  0
  -24.3860   -9.5520   21.8290 C   0  0  0  0  0  3  0  0  0  0  0  0
  -23.6570   -8.3580   22.0170 C   0  0  0  0  0  3  0  0  0  0  0  0
  -22.4630   -8.1330   21.2920 C   0  0  0  0  0  0  0  0  0  0  0  0
  -22.0290   -9.1000   20.3690 C   0  0  0  0  0  3  0  0  0  0  0  0
  -22.7570  -10.2870   20.1800 C   0  0  0  0  0  3  0  0  0  0  0  0
  -21.7040   -6.9920   21.3910 O   0  0  0  0  0  0  0  0  0  0  0  0
  -21.6430   -6.2670   22.5550 C   0  0  0  0  0  0  0  0  0  0  0  0
  -21.1720   -6.8300   23.7600 C   0  0  0  0  0  3  0  0  0  0  0  0
  -21.0610   -6.0300   24.9150 C   0  0  0  0  0  3  0  0  0  0  0  0
  -21.4100   -4.6670   24.8650 C   0  0  0  0  0  0  0  0  0  0  0  0
  -21.8730   -4.1030   23.6630 C   0  0  0  0  0  3  0  0  0  0  0  0
  -21.9860   -4.9000   22.5110 C   0  0  0  0  0  0  0  0  0  0  0  0
  -22.4140   -4.3460   21.3510 F   0  0  0  0  0  0  0  0  0  0  0  0
  -21.2960   -3.8970   25.9720 F   0  0  0  0  0  0  0  0  0  0  0  0
  -22.8320  -13.6210   21.2080 C   0  0  0  0  0  0  0  0  0  0  0  0
  -22.1600  -12.9080   22.1030 N   0  0  0  0  0  0  0  0  0  0  0  0
  -22.3690  -14.6660   20.7470 O   0  0  0  0  0  0  0  0  0  0  0  0
  -22.5490  -12.0640   22.4980 H   0  0  0  0  0  0  0  0  0  0  0  0
  -21.2420  -13.2090   22.4000 H   0  0  0  0  0  0  0  0  0  0  0  0
  -25.3830  -15.3000   20.2520 N   0  0  0  0  0  0  0  0  0  0  0  0
  -24.6160  -15.9410   20.4220 H   0  0  0  0  0  0  0  0  0  0  0  0
  -26.1820  -15.7470   19.8230 H   0  0  0  0  0  0  0  0  0  0  0  0
  -28.9680  -21.1650   18.3190 C   0  0  0  0  0  2  0  0  0  0  0  0
  -30.3800  -21.5470   17.8270 C   0  0  0  0  0  2  0  0  0  0  0  0
  -30.4920  -21.4790   16.3610 N   0  0  0  0  0  4  0  0  0  0  0  0
  -30.3190  -20.5470   16.0300 H   0  0  0  0  0  0  0  0  0  0  0  0
  -31.4190  -21.7440   16.0800 H   0  0  0  0  0  0  0  0  0  0  0  0
  -29.8410  -22.1060   15.9250 H   0  0  0  0  0  0  0  0  0  0  0  0
  -28.8780  -22.6530   20.3950 C   0  0  0  0  0  3  0  0  0  0  0  0
  -28.0490  -24.2210   19.9400 C   0  0  0  0  0  3  0  0  0  0  0  0
  -28.1860  -25.8360   20.3270 O   0  0  0  0  0  0  0  0  0  0  0  0
  -24.6250  -31.8510   23.2220 C   0  0  0  0  0  0  0  0  0  0  0  0
  -27.1840  -26.9470   20.2240 C   0  0  0  0  0  0  0  0  0  0  0  0
  -23.4360  -30.4580   21.5770 C   0  0  0  0  0  3  0  0  0  0  0  0
  -24.8900  -28.8460   20.1610 C   0  0  0  0  0  0  0  0  0  0  0  0
  -26.0040  -30.6570   21.4470 C   0  0  0  0  0  2  0  0  0  0  0  0
  -26.0740  -29.2450   20.7910 C   0  0  0  0  0  0  0  0  0  0  0  0
  -27.2130  -28.3160   20.7990 C   0  0  0  0  0  3  0  0  0  0  0  0
  -25.9720  -26.7090   19.5370 C   0  0  0  0  0  3  0  0  0  0  0  0
  -24.8650  -27.5990   19.5120 C   0  0  0  0  0  3  0  0  0  0  0  0
  -23.6730  -29.7720   20.2020 C   0  0  0  0  0  2  0  0  0  0  0  0
  -24.7100  -31.0170   22.1360 N   0  0  0  0  0  0  0  0  0  0  0  0
  -23.5340  -32.1440   23.7370 O   0  0  0  0  0  0  0  0  0  0  0  0
  -22.7320  -29.4660   22.5400 C   0  0  0  0  0  0  0  0  0  0  0  0
  -21.4040  -29.2940   22.3980 N   0  0  0  0  0  0  0  0  0  0  0  0
  -23.3890  -28.8510   23.3830 O   0  0  0  0  0  0  0  0  0  0  0  0
  -20.9270  -29.8420   21.6970 H   0  0  0  0  0  0  0  0  0  0  0  0
  -18.0250  -28.0550   22.8590 C   0  0  0  0  0  0  0  0  0  0  0  0
  -20.5770  -28.3560   23.1650 C   0  0  0  0  0  3  0  0  0  0  0  0
  -20.7040  -26.9190   22.6080 C   0  0  0  0  0  2  0  0  0  0  0  0
  -19.6250  -26.5730   21.5770 C   0  0  0  0  0  2  0  0  0  0  0  0
  -18.2310  -26.7030   22.1960 C   0  0  0  0  0  2  0  0  0  0  0  0
  -19.1270  -28.8370   23.3000 C   0  0  0  0  0  0  0  0  0  0  0  0
  -18.8790  -30.0980   23.8840 C   0  0  0  0  0  3  0  0  0  0  0  0
  -17.5640  -30.5800   24.0280 C   0  0  0  0  0  3  0  0  0  0  0  0
  -16.4780  -29.7970   23.6020 C   0  0  0  0  0  3  0  0  0  0  0  0
  -16.7100  -28.5360   23.0240 C   0  0  0  0  0  3  0  0  0  0  0  0
  -25.8930  -32.4920   23.8620 C   0  0  0  0  0  3  0  0  0  0  0  0
  -25.5850  -33.9010   24.1690 N   0  0  0  0  0  0  0  0  0  0  0  0
  -25.9110  -34.9450   23.3960 C   0  0  0  0  0  0  0  0  0  0  0  0
  -26.5660  -34.8230   22.3560 O   0  0  0  0  0  0  0  0  0  0  0  0
  -25.0030  -34.0680   24.9760 H   0  0  0  0  0  0  0  0  0  0  0  0
  -24.1720  -36.7380   23.0720 C   0  0  0  0  0  1  0  0  0  0  0  0
  -25.4420  -36.3440   23.8430 C   0  0  0  0  0  3  0  0  0  0  0  0
  -27.5990  -37.2570   24.5870 C   0  0  0  0  0  1  0  0  0  0  0  0
  -26.4700  -37.3950   23.6710 N   0  0  0  0  0  0  0  0  0  0  0  0
  -26.0660  -38.3190   23.8030 H   0  0  0  0  0  0  0  0  0  0  0  0
  -26.3700  -31.7460   25.1700 C   0  0  1  0  0  0  0  0  0  0  0  0
  -25.2500  -31.5450   26.2170 C   0  0  0  0  0  1  0  0  0  0  0  0
  -26.9490  -30.3530   24.8340 C   0  0  0  0  0  1  0  0  0  0  0  0
  -27.5140  -32.5440   25.8420 C   0  0  0  0  0  1  0  0  0  0  0  0
  1 49  1  0
  2 14  1  0
  3  8  1  0
  4  5  1  0
  4  3  1  0
  6  5  1  0
  6 18  1  0
  6  7  1  0
  8  2  1  0
  8  7  1  0
  9  2  2  0
 10 11  1  0
 12 14  1  0
 12 13  1  0
 13  1  1  0
 13 10  1  0
 14 11  1  0
 15 16  2  0
 16 35  1  0
 17 16  1  0
 17 20  1  0
 18 19  1  0
 18 15  1  0
 19 17  2  0
 20 21  1  0
 21 22  2  0
 23 26  1  0
 23 22  1  0
 24 23  2  0
 25 24  1  0
 25 20  2  0
 26 27  1  0
 27 28  1  0
 28 29  2  0
 30 29  1  0
 30 34  1  0
 31 30  2  0
 32 27  2  0
 32 31  1  0
 33 32  1  0
 35 36  1  0
 36 39  1  0
 36 38  1  0
 37 35  2  0
 40 15  1  0
 40 41  1  0
 42 40  1  0
 43  1  1  0
 44 43  1  0
 45 44  1  0
 46 45  1  0
 47 45  1  0
 48 45  1  0
 50 51  1  0
 50 49  2  0
 52 63  2  0
 53 51  1  0
 53 58  1  0
 54 62  1  0
 54 64  1  0
 55 61  1  0
 55 57  1  0
 56 62  1  0
 57 58  2  0
 57 56  1  0
 59 53  2  0
 60 59  1  0
 60 55  2  0
 61 54  1  0
 62 52  1  0
 64 66  2  0
 65 64  1  0
 67 65  1  0
 68 77  2  0
 68 73  1  0
 69 65  1  0
 69 73  1  0
 70 69  1  0
 71 72  1  0
 71 70  1  0
 72 68  1  0
 73 74  2  0
 74 75  1  0
 76 75  2  0
 77 76  1  0
 78 52  1  0
 78 79  1  0
 78 88  1  0
 79 82  1  0
 80 84  1  0
 80 79  1  0
 81 80  2  0
 84 83  1  0
 86 87  1  0
 86 84  1  0
 86 85  1  0
 88 91  1  1
 88 89  1  0
 90 88  1  0
M  ISO  4   2 100  14 100  50 101  51 101
M  END
>  <TORSDO>  (14) 
F 21

>  <SCORE>  (14) 
-14.523

>  <name>  (14) 
13

>  <ligand_id>  (14) 
13

>  <original_smiles>  (14) 
[H]c1c([H])c([H])c2c(c1[H])C([H])([H])C([H])([H])C([H])([H])C2([H])N([H])C(=O)C1([H])N(C(=O)C([H])(N([H])C(=O)C([H])(N([H])C([H])([H])[H])C([H])([H])[H])C(C([H])([H])[H])(C([H])([H])[H])C([H])([H])[H])C([H])([H])c2c([H])c(OC([H])([H])C([H])([H])N(C([H])([H])C([H])([H])[N+]([H])([H])[H])C3([H])C([H])([H])N(C(=O)N4C([H])([H])C([H])([H])C([H])([H])C([H])(n5nc(-c6c([H])c([H])c(Oc7c([H])c([H])c(F)c([H])c7F)c([H])c6[H])c(C(=O)N([H])[H])c5N([H])[H])C4([H])[H])C([H])([H])C3([H])[H])c([H])c([H])c2C1([H])[H]

>  <smiles>  (14) 
[H]c1c([H])c([H])c2c(c1[H])C([H])([H])C([H])([H])C([H])([H])C2([H])N([H])C(=O)C1([H])N(C(=O)C([H])(N([H])C(=O)C([H])(N([H])C([H])([H])[H])C([H])([H])[H])C(C([H])([H])[H])(C([H])([H])[H])C([H])([H])[H])C([H])([H])c2c([H])c(OC([H])([H])C([H])([H])N(C([H])([H])C([H])([H])[N+]([H])([H])[H])C3([H])C([H])([H])N(C(=O)N4C([H])([H])C([H])([H])C([H])([H])C([H])(n5nc(-c6c([H])c([H])c(Oc7c([H])c([H])c(F)c([H])c7F)c([H])c6[H])c(C(=O)N([H])[H])c5N([H])[H])C4([H])[H])C([H])([H])C3([H])[H])c([H])c([H])c2C1([H])[H]

$$$$
14:0:0
     RDKit          3D

 95104  0  0  1  0  0  0  0  0999 V2000
  -29.9580  -23.0040   23.1530 C   0  0  0  0  0  2  0  0  0  0  0  0
  -28.9900  -21.9060   22.7190 C   0  0  0  0  0  2  0  0  0  0  0  0
  -29.9770  -23.9840   21.9740 C   0  0  0  0  0  2  0  0  0  0  0  0
  -29.1870  -21.8310   21.2000 C   0  0  0  0  0  3  0  0  0  0  0  0
  -29.4560  -23.2610   20.7840 N   0  0  1  0  0  4  0  0  0  0  0  0
  -30.1850  -23.2170   20.0860 H   0  0  0  0  0  0  0  0  0  0  0  0
  -30.3560  -20.8170   20.8810 C   0  0  0  0  0  2  0  0  0  0  0  0
  -30.8390  -18.3390   21.2390 C   0  0  0  0  0  0  0  0  0  0  0  0
  -30.0020  -19.3730   20.9550 N   0  0  0  0  0  0  0  0  0  0  0  0
  -31.5480  -18.3430   22.2450 O   0  0  0  0  0  0  0  0  0  0  0  0
  -29.3350  -19.1080   20.2440 H   0  0  0  0  0  0  0  0  0  0  0  0
  -30.9870  -14.7380   20.8400 C   0  0  0  0  0  0  0  0  0  0  0  0
  -30.8420  -12.3630   20.1500 C   0  0  0  0  0  2  0  0  0  0  0  0
  -30.0330  -12.1700   18.8490 C   0  0  0  0  0  2  0  0  0  0  0  0
  -28.5080  -12.1370   19.1190 C   0  0  0  0  0  2  0  0  0  0  0  0
  -28.0010  -13.1520   20.1840 C   0  0  0  0  0  3  0  0  0  0  0  0
  -28.9630  -13.2820   21.3870 C   0  0  0  0  0  2  0  0  0  0  0  0
  -30.3080  -13.5420   20.8590 N   0  0  0  0  0  0  0  0  0  0  0  0
  -32.2090  -14.7490   20.9790 O   0  0  0  0  0  0  0  0  0  0  0  0
  -30.2030  -16.6220   17.9860 C   0  0  0  0  0  2  0  0  0  0  0  0
  -30.5840  -17.8070   18.7930 C   0  0  0  0  0  2  0  0  0  0  0  0
  -29.6250  -15.7000   19.0400 C   0  0  0  0  0  2  0  0  0  0  0  0
  -31.0450  -17.2130   20.1600 C   0  0  0  0  0  3  0  0  0  0  0  0
  -30.3580  -15.8680   20.3170 N   0  0  0  0  0  0  0  0  0  0  0  0
  -25.5770  -13.8360   20.6470 C   0  0  0  0  0  0  0  0  0  0  0  0
  -24.4630  -13.0910   20.9230 C   0  0  0  0  0  0  0  0  0  0  0  0
  -24.9070  -11.7360   21.0020 C   0  0  0  0  0  0  0  0  0  0  0  0
  -26.6210  -12.9230   20.5700 N   0  0  0  0  0  0  0  0  0  0  0  0
  -26.2200  -11.6650   20.8520 N   0  0  0  0  0  0  0  0  0  0  0  0
  -24.1520  -10.4900   21.1520 C   0  0  0  0  0  0  0  0  0  0  0  0
  -24.4980   -9.5380   22.1360 C   0  0  0  0  0  3  0  0  0  0  0  0
  -23.7470   -8.3530   22.2760 C   0  0  0  0  0  3  0  0  0  0  0  0
  -22.6360   -8.1140   21.4320 C   0  0  0  0  0  0  0  0  0  0  0  0
  -22.3130   -9.0540   20.4380 C   0  0  0  0  0  3  0  0  0  0  0  0
  -23.0660  -10.2300   20.2940 C   0  0  0  0  0  3  0  0  0  0  0  0
  -21.8630   -6.9800   21.4820 O   0  0  0  0  0  0  0  0  0  0  0  0
  -21.7360   -6.2500   22.6350 C   0  0  0  0  0  0  0  0  0  0  0  0
  -21.2590   -6.8250   23.8330 C   0  0  0  0  0  3  0  0  0  0  0  0
  -21.0770   -6.0200   24.9760 C   0  0  0  0  0  3  0  0  0  0  0  0
  -21.3630   -4.6430   24.9200 C   0  0  0  0  0  0  0  0  0  0  0  0
  -21.8360   -4.0690   23.7270 C   0  0  0  0  0  3  0  0  0  0  0  0
  -22.0160   -4.8700   22.5860 C   0  0  0  0  0  0  0  0  0  0  0  0
  -22.4510   -4.3090   21.4320 F   0  0  0  0  0  0  0  0  0  0  0  0
  -21.1800   -3.8680   26.0140 F   0  0  0  0  0  0  0  0  0  0  0  0
  -23.0520  -13.5940   21.0110 C   0  0  0  0  0  0  0  0  0  0  0  0
  -22.2240  -12.9420   21.8210 N   0  0  0  0  0  0  0  0  0  0  0  0
  -22.6860  -14.5950   20.3960 O   0  0  0  0  0  0  0  0  0  0  0  0
  -22.5300  -12.1300   22.3370 H   0  0  0  0  0  0  0  0  0  0  0  0
  -21.2710  -13.2560   21.9260 H   0  0  0  0  0  0  0  0  0  0  0  0
  -25.7820  -15.1970   20.4310 N   0  0  0  0  0  0  0  0  0  0  0  0
  -25.0210  -15.8670   20.4440 H   0  0  0  0  0  0  0  0  0  0  0  0
  -26.6800  -15.6240   20.2450 H   0  0  0  0  0  0  0  0  0  0  0  0
  -28.3040  -24.0040   20.1440 C   0  0  0  0  0  2  0  0  0  0  0  0
  -28.6750  -25.3400   19.3940 C   0  0  0  0  0  2  0  0  0  0  0  0
  -28.4960  -26.6010   20.0920 O   0  0  0  0  0  0  0  0  0  0  0  0
  -24.5500  -31.7340   23.1080 C   0  0  0  0  0  0  0  0  0  0  0  0
  -27.3030  -27.3170   20.0320 C   0  0  0  0  0  0  0  0  0  0  0  0
  -23.3880  -30.3340   21.4400 C   0  0  0  0  0  3  0  0  0  0  0  0
  -24.8810  -28.8210   20.0230 C   0  0  0  0  0  0  0  0  0  0  0  0
  -25.9080  -30.7250   21.2660 C   0  0  0  0  0  2  0  0  0  0  0  0
  -26.0280  -29.3540   20.6230 C   0  0  0  0  0  0  0  0  0  0  0  0
  -27.2370  -28.6120   20.6160 C   0  0  0  0  0  3  0  0  0  0  0  0
  -26.1290  -26.8030   19.4330 C   0  0  0  0  0  3  0  0  0  0  0  0
  -24.9330  -27.5500   19.4280 C   0  0  0  0  0  3  0  0  0  0  0  0
  -23.6230  -29.6690   20.0580 C   0  0  0  0  0  2  0  0  0  0  0  0
  -24.6350  -30.9420   22.0000 N   0  0  0  0  0  0  0  0  0  0  0  0
  -23.4560  -31.9810   23.6380 O   0  0  0  0  0  0  0  0  0  0  0  0
  -22.7350  -29.2930   22.3790 C   0  0  0  0  0  0  0  0  0  0  0  0
  -21.4110  -29.1050   22.2410 N   0  0  0  0  0  0  0  0  0  0  0  0
  -23.4200  -28.6560   23.1830 O   0  0  0  0  0  0  0  0  0  0  0  0
  -20.9200  -29.6650   21.5580 H   0  0  0  0  0  0  0  0  0  0  0  0
  -18.0400  -27.8990   22.7130 C   0  0  0  0  0  0  0  0  0  0  0  0
  -20.5980  -28.1500   22.9960 C   0  0  0  0  0  3  0  0  0  0  0  0
  -20.7030  -26.7330   22.3870 C   0  0  0  0  0  2  0  0  0  0  0  0
  -19.6000  -26.4320   21.3660 C   0  0  0  0  0  2  0  0  0  0  0  0
  -18.2180  -26.5630   22.0110 C   0  0  0  0  0  2  0  0  0  0  0  0
  -19.1590  -28.6510   23.1630 C   0  0  0  0  0  0  0  0  0  0  0  0
  -18.9390  -29.9060   23.7730 C   0  0  0  0  0  3  0  0  0  0  0  0
  -17.6340  -30.4040   23.9440 C   0  0  0  0  0  3  0  0  0  0  0  0
  -16.5300  -29.6470   23.5140 C   0  0  0  0  0  3  0  0  0  0  0  0
  -16.7340  -28.3980   22.9010 C   0  0  0  0  0  3  0  0  0  0  0  0
  -25.8120  -32.3820   23.7490 C   0  0  0  0  0  3  0  0  0  0  0  0
  -26.3420  -31.5950   25.0110 C   0  0  1  0  0  0  0  0  0  0  0  0
  -25.2540  -31.2870   26.0670 C   0  0  0  0  0  1  0  0  0  0  0  0
  -26.9630  -30.2460   24.5820 C   0  0  0  0  0  1  0  0  0  0  0  0
  -27.4680  -32.3960   25.7020 C   0  0  0  0  0  1  0  0  0  0  0  0
  -25.4690  -33.7660   24.1040 N   0  0  0  0  0  0  0  0  0  0  0  0
  -25.7950  -34.8380   23.3700 C   0  0  0  0  0  0  0  0  0  0  0  0
  -26.4840  -34.7670   22.3470 O   0  0  0  0  0  0  0  0  0  0  0  0
  -24.8630  -33.8960   24.9020 H   0  0  0  0  0  0  0  0  0  0  0  0
  -24.0350  -36.6020   23.0270 C   0  0  0  0  0  1  0  0  0  0  0  0
  -25.2700  -36.2050   23.8500 C   0  0  0  0  0  3  0  0  0  0  0  0
  -27.3740  -37.1110   24.7370 C   0  0  0  0  0  1  0  0  0  0  0  0
  -26.2840  -37.2800   23.7820 N   0  0  0  0  0  0  0  0  0  0  0  0
  -25.8590  -38.1890   23.9460 H   0  0  0  0  0  0  0  0  0  0  0  0
  2  1  1  0
  3  1  1  0
  4  7  1  0
  4  2  1  0
  5  4  1  0
  5  3  1  0
  5  6  1  6
  7  9  1  0
  8 10  2  0
  9  8  1  0
 11  9  1  0
 12 18  1  0
 12 19  2  0
 13 18  1  0
 14 15  1  0
 14 13  1  0
 16 15  1  0
 16 28  1  0
 16 17  1  0
 18 17  1  0
 20 21  1  0
 20 22  1  0
 21 23  1  0
 22 24  1  0
 23 24  1  0
 23  8  1  0
 24 12  1  0
 25 26  2  0
 26 27  1  0
 26 45  1  0
 27 30  1  0
 28 25  1  0
 28 29  1  0
 29 27  2  0
 30 31  1  0
 31 32  2  0
 33 36  1  0
 33 32  1  0
 34 33  2  0
 35 34  1  0
 35 30  2  0
 36 37  1  0
 37 38  1  0
 38 39  2  0
 40 39  1  0
 40 44  1  0
 41 40  2  0
 42 37  2  0
 42 41  1  0
 43 42  1  0
 45 46  1  0
 46 49  1  0
 46 48  1  0
 47 45  2  0
 50 51  1  0
 50 25  1  0
 52 50  1  0
 53  5  1  0
 54 55  1  0
 54 53  1  0
 56 67  2  0
 57 55  1  0
 57 62  1  0
 58 66  1  0
 58 68  1  0
 59 65  1  0
 59 61  1  0
 60 66  1  0
 61 60  1  0
 62 61  2  0
 63 57  2  0
 64 63  1  0
 64 59  2  0
 65 58  1  0
 66 56  1  0
 68 70  2  0
 69 68  1  0
 71 69  1  0
 72 81  2  0
 72 77  1  0
 73 69  1  0
 73 77  1  0
 74 73  1  0
 75 76  1  0
 75 74  1  0
 76 72  1  0
 77 78  2  0
 78 79  1  0
 80 79  2  0
 81 80  1  0
 82 56  1  0
 82 87  1  0
 82 83  1  0
 83 86  1  1
 83 84  1  0
 85 83  1  0
 87 90  1  0
 88 92  1  0
 88 87  1  0
 89 88  2  0
 92 91  1  0
 94 92  1  0
 94 95  1  0
 94 93  1  0
M  ISO  4  12 100  24 100  54 101  55 101
M  END
>  <TORSDO>  (15) 
F 20

>  <SCORE>  (15) 
-12.975

>  <name>  (15) 
14

>  <ligand_id>  (15) 
14

>  <original_smiles>  (15) 
[H]c1c([H])c([H])c2c(c1[H])C([H])([H])C([H])([H])C([H])([H])C2([H])N([H])C(=O)C1([H])N(C(=O)C([H])(N([H])C(=O)C([H])(N([H])C([H])([H])[H])C([H])([H])[H])C(C([H])([H])[H])(C([H])([H])[H])C([H])([H])[H])C([H])([H])c2c([H])c(OC([H])([H])C([H])([H])[N+]3([H])C([H])([H])C([H])([H])C([H])([H])C3([H])C([H])([H])N([H])C(=O)C3([H])N(C(=O)N4C([H])([H])C([H])([H])C([H])([H])C([H])(n5nc(-c6c([H])c([H])c(Oc7c([H])c([H])c(F)c([H])c7F)c([H])c6[H])c(C(=O)N([H])[H])c5N([H])[H])C4([H])[H])C([H])([H])C([H])([H])C3([H])[H])c([H])c([H])c2C1([H])[H]

>  <smiles>  (15) 
[H]c1c([H])c([H])c2c(c1[H])C([H])([H])C([H])([H])C([H])([H])C2([H])N([H])C(=O)C1([H])N(C(=O)C([H])(N([H])C(=O)C([H])(N([H])C([H])([H])[H])C([H])([H])[H])C(C([H])([H])[H])(C([H])([H])[H])C([H])([H])[H])C([H])([H])c2c([H])c(OC([H])([H])C([H])([H])[N+]3([H])C([H])([H])C([H])([H])C([H])([H])C3([H])C([H])([H])N([H])C(=O)C3([H])N(C(=O)N4C([H])([H])C([H])([H])C([H])([H])C([H])(n5nc(-c6c([H])c([H])c(Oc7c([H])c([H])c(F)c([H])c7F)c([H])c6[H])c(C(=O)N([H])[H])c5N([H])[H])C4([H])[H])C([H])([H])C([H])([H])C3([H])[H])c([H])c([H])c2C1([H])[H]

$$$$
15:0:0
     RDKit          3D

 92100  0  0  1  0  0  0  0  0999 V2000
  -29.3410  -20.8800   19.6750 C   0  0  0  0  0  2  0  0  0  0  0  0
  -26.2100  -17.7440   19.5080 C   0  0  0  0  0  3  0  0  0  0  0  0
  -26.0090  -19.0780   19.1600 C   0  0  0  0  0  3  0  0  0  0  0  0
  -27.5040  -17.2930   19.7970 C   0  0  0  0  0  3  0  0  0  0  0  0
  -27.0900  -19.9650   19.1940 C   0  0  0  0  0  3  0  0  0  0  0  0
  -28.6540  -18.1330   19.7840 C   0  0  0  0  0  0  0  0  0  0  0  0
  -28.4070  -19.5890   19.5780 C   0  0  0  0  0  0  0  0  0  0  0  0
  -29.9980  -17.2880   19.9710 C   0  0  0  0  0  2  0  0  0  0  0  0
  -30.6850  -14.6770   20.1440 C   0  0  0  0  0  0  0  0  0  0  0  0
  -30.5430  -12.2850   19.4240 C   0  0  0  0  0  2  0  0  0  0  0  0
  -29.5970  -12.1950   18.2040 C   0  0  0  0  0  2  0  0  0  0  0  0
  -28.1300  -12.0610   18.6570 C   0  0  0  0  0  2  0  0  0  0  0  0
  -27.7480  -13.0890   19.7560 C   0  0  0  0  0  3  0  0  0  0  0  0
  -28.8090  -13.1340   20.8790 C   0  0  0  0  0  2  0  0  0  0  0  0
  -30.1000  -13.4350   20.2450 N   0  0  0  0  0  0  0  0  0  0  0  0
  -31.8630  -14.7840   19.7850 O   0  0  0  0  0  0  0  0  0  0  0  0
  -29.8490  -15.7770   20.2450 N   0  0  0  0  0  0  0  0  0  0  0  0
  -28.9100  -15.5160   20.4990 H   0  0  0  0  0  0  0  0  0  0  0  0
  -25.4090  -13.7740   20.5530 C   0  0  0  0  0  0  0  0  0  0  0  0
  -24.3210  -13.0460   20.9490 C   0  0  0  0  0  0  0  0  0  0  0  0
  -24.7250  -11.6760   20.8930 C   0  0  0  0  0  0  0  0  0  0  0  0
  -26.4070  -12.8540   20.2810 N   0  0  0  0  0  0  0  0  0  0  0  0
  -26.0040  -11.5850   20.5480 N   0  0  0  0  0  0  0  0  0  0  0  0
  -23.9500  -10.4450   21.0920 C   0  0  0  0  0  0  0  0  0  0  0  0
  -24.3810   -9.4360   21.9810 C   0  0  0  0  0  3  0  0  0  0  0  0
  -23.6070   -8.2700   22.1690 C   0  0  0  0  0  3  0  0  0  0  0  0
  -22.3890   -8.1060   21.4670 C   0  0  0  0  0  0  0  0  0  0  0  0
  -21.9760   -9.1030   20.5650 C   0  0  0  0  0  3  0  0  0  0  0  0
  -22.7500  -10.2610   20.3760 C   0  0  0  0  0  3  0  0  0  0  0  0
  -21.5840   -6.9960   21.5670 O   0  0  0  0  0  0  0  0  0  0  0  0
  -21.5730   -6.2150   22.6950 C   0  0  0  0  0  0  0  0  0  0  0  0
  -21.2560   -6.7450   23.9640 C   0  0  0  0  0  3  0  0  0  0  0  0
  -21.1880   -5.8930   25.0860 C   0  0  0  0  0  3  0  0  0  0  0  0
  -21.4260   -4.5130   24.9380 C   0  0  0  0  0  0  0  0  0  0  0  0
  -21.7360   -3.9830   23.6720 C   0  0  0  0  0  3  0  0  0  0  0  0
  -21.8070   -4.8310   22.5540 C   0  0  0  0  0  0  0  0  0  0  0  0
  -22.0840   -4.3130   21.3340 F   0  0  0  0  0  0  0  0  0  0  0  0
  -21.3520   -3.6940   26.0130 F   0  0  0  0  0  0  0  0  0  0  0  0
  -22.9550  -13.5800   21.2660 C   0  0  0  0  0  0  0  0  0  0  0  0
  -22.2280  -12.9130   22.1560 N   0  0  0  0  0  0  0  0  0  0  0  0
  -22.5440  -14.6240   20.7610 O   0  0  0  0  0  0  0  0  0  0  0  0
  -22.5770  -12.0680   22.5840 H   0  0  0  0  0  0  0  0  0  0  0  0
  -21.3130  -13.2510   22.4130 H   0  0  0  0  0  0  0  0  0  0  0  0
  -25.6210  -15.1380   20.3800 N   0  0  0  0  0  0  0  0  0  0  0  0
  -24.8800  -15.8140   20.5210 H   0  0  0  0  0  0  0  0  0  0  0  0
  -26.4670  -15.5570   20.0160 H   0  0  0  0  0  0  0  0  0  0  0  0
  -28.6660  -22.1340   20.2920 N   0  0  0  0  0  4  0  0  0  0  0  0
  -28.7230  -22.0230   21.2930 H   0  0  0  0  0  0  0  0  0  0  0  0
  -27.6930  -22.0210   20.0610 H   0  0  0  0  0  0  0  0  0  0  0  0
  -29.0310  -23.5960   19.9410 C   0  0  0  0  0  3  0  0  0  0  0  0
  -28.1220  -24.7740   20.6060 C   0  0  0  0  0  3  0  0  0  0  0  0
  -28.3740  -26.2520   20.4330 O   0  0  0  0  0  0  0  0  0  0  0  0
  -24.5850  -31.7850   23.2800 C   0  0  0  0  0  0  0  0  0  0  0  0
  -27.2750  -27.1390   20.3790 C   0  0  0  0  0  0  0  0  0  0  0  0
  -23.4340  -30.3720   21.6150 C   0  0  0  0  0  3  0  0  0  0  0  0
  -24.9270  -28.7910   20.2620 C   0  0  0  0  0  0  0  0  0  0  0  0
  -25.9840  -30.6660   21.5210 C   0  0  0  0  0  2  0  0  0  0  0  0
  -26.0790  -29.2750   20.8930 C   0  0  0  0  0  0  0  0  0  0  0  0
  -27.2600  -28.4630   20.9360 C   0  0  0  0  0  3  0  0  0  0  0  0
  -26.1010  -26.7210   19.7180 C   0  0  0  0  0  3  0  0  0  0  0  0
  -24.9420  -27.5210   19.6620 C   0  0  0  0  0  3  0  0  0  0  0  0
  -23.6940  -29.6750   20.2540 C   0  0  0  0  0  2  0  0  0  0  0  0
  -24.6860  -30.9600   22.1940 N   0  0  0  0  0  0  0  0  0  0  0  0
  -23.4840  -32.0750   23.7710 O   0  0  0  0  0  0  0  0  0  0  0  0
  -22.7300  -29.3740   22.5640 C   0  0  0  0  0  0  0  0  0  0  0  0
  -21.4010  -29.2340   22.4190 N   0  0  0  0  0  0  0  0  0  0  0  0
  -23.3790  -28.7270   23.3910 O   0  0  0  0  0  0  0  0  0  0  0  0
  -20.9370  -29.8150   21.7340 H   0  0  0  0  0  0  0  0  0  0  0  0
  -17.9800  -28.1510   22.8960 C   0  0  0  0  0  0  0  0  0  0  0  0
  -20.5460  -28.3130   23.1710 C   0  0  0  0  0  3  0  0  0  0  0  0
  -20.5990  -26.8890   22.5730 C   0  0  0  0  0  2  0  0  0  0  0  0
  -19.4860  -26.6210   21.5540 C   0  0  0  0  0  2  0  0  0  0  0  0
  -18.1090  -26.8070   22.1970 C   0  0  0  0  0  2  0  0  0  0  0  0
  -19.1250  -28.8650   23.3370 C   0  0  0  0  0  0  0  0  0  0  0  0
  -18.9520  -30.1260   23.9460 C   0  0  0  0  0  3  0  0  0  0  0  0
  -17.6660  -30.6720   24.1200 C   0  0  0  0  0  3  0  0  0  0  0  0
  -16.5350  -29.9530   23.6940 C   0  0  0  0  0  3  0  0  0  0  0  0
  -16.6930  -28.6950   23.0880 C   0  0  0  0  0  3  0  0  0  0  0  0
  -25.8480  -32.4180   23.9420 C   0  0  0  0  0  3  0  0  0  0  0  0
  -25.5380  -33.8260   24.2300 N   0  0  0  0  0  0  0  0  0  0  0  0
  -25.8990  -34.8610   23.4580 C   0  0  0  0  0  0  0  0  0  0  0  0
  -26.5950  -34.7300   22.4480 O   0  0  0  0  0  0  0  0  0  0  0  0
  -24.9240  -34.0020   25.0130 H   0  0  0  0  0  0  0  0  0  0  0  0
  -24.1880  -36.6550   23.0280 C   0  0  0  0  0  1  0  0  0  0  0  0
  -25.4110  -36.2630   23.8730 C   0  0  0  0  0  3  0  0  0  0  0  0
  -27.5360  -37.1530   24.7220 C   0  0  0  0  0  1  0  0  0  0  0  0
  -26.4530  -37.3070   23.7560 N   0  0  0  0  0  0  0  0  0  0  0  0
  -26.0490  -38.2330   23.8750 H   0  0  0  0  0  0  0  0  0  0  0  0
  -26.3010  -31.6710   25.2560 C   0  0  1  0  0  0  0  0  0  0  0  0
  -25.1590  -31.4560   26.2770 C   0  0  0  0  0  1  0  0  0  0  0  0
  -26.8970  -30.2840   24.9200 C   0  0  0  0  0  1  0  0  0  0  0  0
  -27.4220  -32.4750   25.9550 C   0  0  0  0  0  1  0  0  0  0  0  0
  1 47  1  0
  2  4  1  0
  3  5  1  0
  3  2  2  0
  5  7  2  0
  6  4  2  0
  6  8  1  0
  7  1  1  0
  7  6  1  0
  8 17  1  0
  9 15  1  0
  9 17  1  0
 10 15  1  0
 11 12  1  0
 11 10  1  0
 13 12  1  0
 13 22  1  0
 13 14  1  0
 15 14  1  0
 16  9  2  0
 17 18  1  0
 19 20  2  0
 20 39  1  0
 21 20  1  0
 21 24  1  0
 22 23  1  0
 22 19  1  0
 23 21  2  0
 24 25  1  0
 25 26  2  0
 27 30  1  0
 27 26  1  0
 28 27  2  0
 29 28  1  0
 29 24  2  0
 30 31  1  0
 31 32  1  0
 32 33  2  0
 34 33  1  0
 34 38  1  0
 35 34  2  0
 36 31  2  0
 36 35  1  0
 37 36  1  0
 39 40  1  0
 40 43  1  0
 40 42  1  0
 41 39  2  0
 44 45  1  0
 44 19  1  0
 46 44  1  0
 47 48  1  0
 49 47  1  0
 50 47  1  0
 50 51  2  0
 52 51  1  0
 53 64  2  0
 54 52  1  0
 54 59  1  0
 55 63  1  0
 55 65  1  0
 56 58  1  0
 57 63  1  0
 58 59  2  0
 58 57  1  0
 60 54  2  0
 61 60  1  0
 61 56  2  0
 62 56  1  0
 62 55  1  0
 63 53  1  0
 65 67  2  0
 66 65  1  0
 68 66  1  0
 69 78  2  0
 69 74  1  0
 70 66  1  0
 70 74  1  0
 71 70  1  0
 72 73  1  0
 72 71  1  0
 73 69  1  0
 74 75  2  0
 75 76  1  0
 77 76  2  0
 78 77  1  0
 79 53  1  0
 79 80  1  0
 79 89  1  0
 80 83  1  0
 81 85  1  0
 81 80  1  0
 82 81  2  0
 85 84  1  0
 87 85  1  0
 87 88  1  0
 87 86  1  0
 89 92  1  1
 89 90  1  0
 91 89  1  0
M  ISO  4   9 100  17 100  51 101  52 101
M  END
>  <TORSDO>  (16) 
F 21

>  <SCORE>  (16) 
-12.620

>  <name>  (16) 
15

>  <ligand_id>  (16) 
15

>  <original_smiles>  (16) 
[H]c1c([H])c([H])c(C([H])([H])[N+]([H])([H])C([H])([H])C([H])([H])Oc2c([H])c([H])c3c(c2[H])C([H])([H])N(C(=O)C([H])(N([H])C(=O)C([H])(N([H])C([H])([H])[H])C([H])([H])[H])C(C([H])([H])[H])(C([H])([H])[H])C([H])([H])[H])C([H])(C(=O)N([H])C2([H])c4c([H])c([H])c([H])c([H])c4C([H])([H])C([H])([H])C2([H])[H])C3([H])[H])c(C([H])([H])N([H])C(=O)N2C([H])([H])C([H])([H])C([H])([H])C([H])(n3nc(-c4c([H])c([H])c(Oc5c([H])c([H])c(F)c([H])c5F)c([H])c4[H])c(C(=O)N([H])[H])c3N([H])[H])C2([H])[H])c1[H]

>  <smiles>  (16) 
[H]c1c([H])c([H])c(C([H])([H])[N+]([H])([H])C([H])([H])C([H])([H])Oc2c([H])c([H])c3c(c2[H])C([H])([H])N(C(=O)C([H])(N([H])C(=O)C([H])(N([H])C([H])([H])[H])C([H])([H])[H])C(C([H])([H])[H])(C([H])([H])[H])C([H])([H])[H])C([H])(C(=O)N([H])C2([H])c4c([H])c([H])c([H])c([H])c4C([H])([H])C([H])([H])C2([H])[H])C3([H])[H])c(C([H])([H])N([H])C(=O)N2C([H])([H])C([H])([H])C([H])([H])C([H])(n3nc(-c4c([H])c([H])c(Oc5c([H])c([H])c(F)c([H])c5F)c([H])c4[H])c(C(=O)N([H])[H])c3N([H])[H])C2([H])[H])c1[H]

$$$$
16:0:0
     RDKit          3D

 96100  0  0  1  0  0  0  0  0999 V2000
  -24.9250  -20.0440   18.5340 C   0  0  0  0  0  2  0  0  0  0  0  0
  -25.5000  -18.6830   18.1550 C   0  0  0  0  0  2  0  0  0  0  0  0
  -25.7370  -20.4720   19.7560 C   0  0  0  0  0  2  0  0  0  0  0  0
  -26.9940  -18.7060   18.5140 C   0  0  0  0  0  3  0  0  0  0  0  0
  -27.1490  -20.2640   19.3800 N   0  0  1  0  0  4  0  0  0  0  0  0
  -27.6230  -20.0270   20.2420 H   0  0  0  0  0  0  0  0  0  0  0  0
  -27.3670  -16.7970   18.7320 C   0  0  0  0  0  1  0  0  0  0  0  0
  -26.7880  -14.9240   18.2990 C   0  0  0  0  0  1  0  0  0  0  0  0
  -27.3900  -13.1630   18.1450 N   0  0  0  0  0  4  0  0  0  0  0  0
  -26.4990  -12.6910   18.0930 H   0  0  0  0  0  0  0  0  0  0  0  0
  -27.7620  -13.1080   17.2100 H   0  0  0  0  0  0  0  0  0  0  0  0
  -32.0240  -13.5540   21.3650 C   0  0  2  0  0  0  0  0  0  0  0  0
  -32.2730  -12.7440   18.9400 C   0  0  0  0  0  2  0  0  0  0  0  0
  -31.2950  -13.8990   17.8980 C   0  0  0  0  0  2  0  0  0  0  0  0
  -29.5470  -14.5420   18.3850 C   0  0  0  0  0  1  0  0  0  0  0  0
  -28.7380  -13.7830   20.1900 C   0  0  0  0  0  1  0  0  0  0  0  0
  -30.6250  -12.0390   20.7620 C   0  0  0  0  0  1  0  0  0  0  0  0
  -31.9810  -12.4560   20.4900 N   0  0  0  0  0  0  0  0  0  0  0  0
  -33.0480  -14.2940   21.2950 O   0  0  0  0  0  1  0  0  0  0  0  0
  -29.7880  -12.3040   18.7140 C   0  0  0  0  0  1  0  0  0  0  0  0
  -28.4250  -11.5520   21.1910 C   0  0  0  0  0 15  0  0  0  0  0  0
  -30.8750  -14.3390   20.2480 C   0  0  0  0  0  2  0  0  0  0  0  0
  -29.2850  -12.9810   22.4140 C   0  0  0  0  0  1  0  0  0  0  0  0
  -28.3050  -11.8240   19.0830 C   0  0  0  0  0  2  0  0  0  0  0  0
  -30.7240  -13.9850   21.8190 N   0  0  0  0  0  0  0  0  0  0  0  0
  -26.1410  -14.3450   21.0840 C   0  0  0  0  0  0  0  0  0  0  0  0
  -25.0370  -13.5370   21.3110 C   0  0  0  0  0  0  0  0  0  0  0  0
  -25.3610  -12.1890   21.1210 C   0  0  0  0  0  0  0  0  0  0  0  0
  -27.1200  -13.5580   20.6220 N   0  0  0  0  0  0  0  0  0  0  0  0
  -26.2800  -12.4370   20.3100 N   0  0  0  0  0  0  0  0  0  0  0  0
  -24.7150  -10.8390   21.1270 C   0  0  0  0  0  0  0  0  0  0  0  0
  -25.0490   -9.8220   22.0650 C   0  0  0  0  0  3  0  0  0  0  0  0
  -24.3210   -8.6070   22.1240 C   0  0  0  0  0  3  0  0  0  0  0  0
  -23.2420   -8.3860   21.2350 C   0  0  0  0  0  0  0  0  0  0  0  0
  -22.9730   -9.3550   20.2510 C   0  0  0  0  0  3  0  0  0  0  0  0
  -23.7090  -10.5550   20.1870 C   0  0  0  0  0  3  0  0  0  0  0  0
  -22.4480   -7.2600   21.2280 O   0  0  0  0  0  0  0  0  0  0  0  0
  -22.0390   -6.6370   22.3840 C   0  0  0  0  0  0  0  0  0  0  0  0
  -21.3310   -7.3180   23.4000 C   0  0  0  0  0  3  0  0  0  0  0  0
  -20.8740   -6.6170   24.5340 C   0  0  0  0  0  3  0  0  0  0  0  0
  -21.1180   -5.2340   24.6570 C   0  0  0  0  0  0  0  0  0  0  0  0
  -21.8120   -4.5510   23.6430 C   0  0  0  0  0  3  0  0  0  0  0  0
  -22.2660   -5.2500   22.5090 C   0  0  0  0  0  0  0  0  0  0  0  0
  -22.9100   -4.5790   21.5230 F   0  0  0  0  0  0  0  0  0  0  0  0
  -20.6770   -4.5610   25.7440 F   0  0  0  0  0  0  0  0  0  0  0  0
  -23.6590  -13.9920   21.4500 C   0  0  0  0  0  0  0  0  0  0  0  0
  -22.8710  -13.2480   22.2100 N   0  0  0  0  0  0  0  0  0  0  0  0
  -23.2920  -15.0020   20.8640 O   0  0  0  0  0  0  0  0  0  0  0  0
  -23.2150  -12.4270   22.6840 H   0  0  0  0  0  0  0  0  0  0  0  0
  -21.9050  -13.5130   22.3360 H   0  0  0  0  0  0  0  0  0  0  0  0
  -26.3910  -15.6940   21.1180 N   0  0  0  0  0  0  0  0  0  0  0  0
  -25.6860  -16.3570   21.4210 H   0  0  0  0  0  0  0  0  0  0  0  0
  -27.3010  -16.1140   20.9950 H   0  0  0  0  0  0  0  0  0  0  0  0
  -27.7300  -21.9150   19.0450 C   0  0  0  0  0  3  0  0  0  0  0  0
  -27.4880  -23.7080   19.7950 C   0  0  0  0  0  3  0  0  0  0  0  0
  -28.1440  -25.3720   19.8990 O   0  0  0  0  0  0  0  0  0  0  0  0
  -25.0980  -31.6240   23.5540 C   0  0  0  0  0  0  0  0  0  0  0  0
  -27.4300  -26.7200   20.0920 C   0  0  0  0  0  0  0  0  0  0  0  0
  -23.9480  -30.3850   21.7950 C   0  0  0  0  0  3  0  0  0  0  0  0
  -25.3690  -28.8810   20.2510 C   0  0  0  0  0  0  0  0  0  0  0  0
  -26.5380  -30.4540   21.7600 C   0  0  0  0  0  2  0  0  0  0  0  0
  -26.5620  -29.0930   20.9510 C   0  0  0  0  0  0  0  0  0  0  0  0
  -27.6080  -28.0290   20.8510 C   0  0  0  0  0  3  0  0  0  0  0  0
  -26.2520  -26.7660   19.3550 C   0  0  0  0  0  3  0  0  0  0  0  0
  -25.2590  -27.7550   19.4360 C   0  0  0  0  0  3  0  0  0  0  0  0
  -24.2060  -29.8590   20.3640 C   0  0  0  0  0  2  0  0  0  0  0  0
  -25.2230  -30.8530   22.4210 N   0  0  0  0  0  0  0  0  0  0  0  0
  -23.9880  -31.8910   24.0480 O   0  0  0  0  0  0  0  0  0  0  0  0
  -23.2170  -29.3080   22.6410 C   0  0  0  0  0  0  0  0  0  0  0  0
  -21.9070  -29.1060   22.4050 N   0  0  0  0  0  0  0  0  0  0  0  0
  -23.8380  -28.6630   23.4900 O   0  0  0  0  0  0  0  0  0  0  0  0
  -21.4560  -29.6790   21.7060 H   0  0  0  0  0  0  0  0  0  0  0  0
  -18.5600  -27.7030   22.5460 C   0  0  0  0  0  0  0  0  0  0  0  0
  -21.0630  -28.1030   23.0670 C   0  0  0  0  0  3  0  0  0  0  0  0
  -21.3020  -26.6960   22.4720 C   0  0  0  0  0  2  0  0  0  0  0  0
  -20.3250  -26.3430   21.3470 C   0  0  0  0  0  2  0  0  0  0  0  0
  -18.8810  -26.3900   21.8540 C   0  0  0  0  0  2  0  0  0  0  0  0
  -19.5860  -28.5150   23.1010 C   0  0  0  0  0  0  0  0  0  0  0  0
  -19.2320  -29.7400   23.7080 C   0  0  0  0  0  3  0  0  0  0  0  0
  -17.8880  -30.1560   23.7640 C   0  0  0  0  0  3  0  0  0  0  0  0
  -16.8770  -29.3420   23.2230 C   0  0  0  0  0  3  0  0  0  0  0  0
  -17.2130  -28.1170   22.6210 C   0  0  0  0  0  3  0  0  0  0  0  0
  -26.3370  -32.2260   24.2790 C   0  0  0  0  0  3  0  0  0  0  0  0
  -26.0030  -33.6080   24.6830 N   0  0  0  0  0  0  0  0  0  0  0  0
  -26.4080  -34.7180   24.0530 C   0  0  0  0  0  0  0  0  0  0  0  0
  -27.1610  -34.6890   23.0780 O   0  0  0  0  0  0  0  0  0  0  0  0
  -25.3420  -33.7030   25.4390 H   0  0  0  0  0  0  0  0  0  0  0  0
  -24.7600  -36.5940   23.6970 C   0  0  0  0  0  1  0  0  0  0  0  0
  -25.9010  -36.0770   24.5870 C   0  0  0  0  0  3  0  0  0  0  0  0
  -27.9510  -36.8270   25.7150 C   0  0  0  0  0  1  0  0  0  0  0  0
  -26.9600  -37.1070   24.6810 N   0  0  0  0  0  0  0  0  0  0  0  0
  -26.5570  -38.0220   24.8670 H   0  0  0  0  0  0  0  0  0  0  0  0
  -26.7690  -31.3940   25.5500 C   0  0  1  0  0  0  0  0  0  0  0  0
  -25.6130  -31.1160   26.5420 C   0  0  0  0  0  1  0  0  0  0  0  0
  -27.3650  -30.0290   25.1420 C   0  0  0  0  0  1  0  0  0  0  0  0
  -27.8810  -32.1490   26.3130 C   0  0  0  0  0  1  0  0  0  0  0  0
  1  3  1  0
  2  4  1  0
  2  1  1  0
  4  7  1  0
  4  5  1  0
  5  3  1  0
  5  6  1  1
  9  8  1  0
  9 24  1  0
 10  9  1  0
 11  9  1  0
 12 19  1  6
 12 25  1  0
 13 18  1  0
 14 15  1  0
 14 13  1  0
 16 29  1  0
 18 17  1  0
 18 12  1  0
 20 24  1  0
 22 12  1  0
 22 25  1  0
 25 23  1  0
 26 51  1  0
 26 27  2  0
 27 46  1  0
 28 31  1  0
 28 27  1  0
 29 26  1  0
 30 29  1  0
 30 28  2  0
 31 32  1  0
 32 33  2  0
 34 33  1  0
 35 34  2  0
 36 35  1  0
 36 31  2  0
 37 34  1  0
 37 38  1  0
 38 43  2  0
 38 39  1  0
 39 40  2  0
 40 41  1  0
 41 45  1  0
 42 41  2  0
 43 42  1  0
 44 43  1  0
 46 47  1  0
 47 50  1  0
 47 49  1  0
 48 46  2  0
 51 52  1  0
 53 51  1  0
 54  5  1  0
 54 55  2  0
 55 56  1  0
 56 58  1  0
 57 68  2  0
 58 63  1  0
 59 67  1  0
 59 69  1  0
 60 66  1  0
 60 62  1  0
 61 67  1  0
 62 61  1  0
 63 62  2  0
 64 65  1  0
 64 58  2  0
 65 60  2  0
 66 59  1  0
 67 57  1  0
 69 71  2  0
 70 69  1  0
 72 70  1  0
 73 82  2  0
 73 78  1  0
 74 70  1  0
 74 78  1  0
 75 74  1  0
 76 77  1  0
 76 75  1  0
 77 73  1  0
 78 79  2  0
 79 80  1  0
 81 80  2  0
 82 81  1  0
 83 57  1  0
 83 84  1  0
 83 93  1  0
 84 87  1  0
 85 89  1  0
 85 84  1  0
 86 85  2  0
 89 88  1  0
 89 91  1  0
 91 92  1  0
 91 90  1  0
 93 96  1  1
 93 94  1  0
 95 93  1  0
M  ISO  4  12 100  25 100  55 101  56 101
M  END
>  <TORSDO>  (17) 
F 21

>  <SCORE>  (17) 
-4.885

>  <name>  (17) 
16

>  <ligand_id>  (17) 
16

>  <original_smiles>  (17) 
[H]c1c([H])c([H])c2c(c1[H])C([H])([H])C([H])([H])C([H])([H])C2([H])N([H])C(=O)C1([H])N(C(=O)C([H])(N([H])C(=O)C([H])(N([H])C([H])([H])[H])C([H])([H])[H])C(C([H])([H])[H])(C([H])([H])[H])C([H])([H])[H])C([H])([H])c2c([H])c(OC([H])([H])C([H])([H])[N+]3([H])C([H])([H])C([H])([H])C([H])([H])C3([H])C([H])([H])C([H])([H])[N+]([H])([H])C3([H])C([H])([H])C([H])([H])N(C(=O)N4C([H])([H])C([H])([H])C([H])([H])C([H])(n5nc(-c6c([H])c([H])c(Oc7c([H])c([H])c(F)c([H])c7F)c([H])c6[H])c(C(=O)N([H])[H])c5N([H])[H])C4([H])[H])C([H])([H])C3([H])[H])c([H])c([H])c2C1([H])[H]

>  <smiles>  (17) 
[H]c1c([H])c([H])c2c(c1[H])C([H])([H])C([H])([H])C([H])([H])C2([H])N([H])C(=O)C1([H])N(C(=O)C([H])(N([H])C(=O)C([H])(N([H])C([H])([H])[H])C([H])([H])[H])C(C([H])([H])[H])(C([H])([H])[H])C([H])([H])[H])C([H])([H])c2c([H])c(OC([H])([H])C([H])([H])[N+]3([H])C([H])([H])C([H])([H])C([H])([H])C3([H])C([H])([H])C([H])([H])[N+]([H])([H])C3([H])C([H])([H])C([H])([H])N(C(=O)N4C([H])([H])C([H])([H])C([H])([H])C([H])(n5nc(-c6c([H])c([H])c(Oc7c([H])c([H])c(F)c([H])c7F)c([H])c6[H])c(C(=O)N([H])[H])c5N([H])[H])C4([H])[H])C([H])([H])C3([H])[H])c([H])c([H])c2C1([H])[H]

$$$$
17:0:0
     RDKit          3D

 97106  0  0  1  0  0  0  0  0999 V2000
  -32.5930  -20.7290   23.0480 C   0  0  0  0  0  2  0  0  0  0  0  0
  -31.8190  -19.5840   22.3910 C   0  0  0  0  0  2  0  0  0  0  0  0
  -31.8740  -22.0120   22.6210 C   0  0  0  0  0  2  0  0  0  0  0  0
  -30.5950  -20.2720   21.7690 C   0  0  0  0  0  3  0  0  0  0  0  0
  -31.1240  -21.6180   21.4310 N   0  0  0  0  0  0  0  0  0  0  0  0
  -30.7610  -14.5420   20.1460 C   0  0  0  0  0  0  0  0  0  0  0  0
  -30.4370  -12.4180   18.9560 C   0  0  0  0  0  2  0  0  0  0  0  0
  -29.4360  -12.6640   17.8060 C   0  0  0  0  0  2  0  0  0  0  0  0
  -27.9820  -12.5100   18.3030 C   0  0  0  0  0  2  0  0  0  0  0  0
  -27.6960  -13.2930   19.6130 C   0  0  0  0  0  3  0  0  0  0  0  0
  -28.8090  -13.0410   20.6580 C   0  0  0  0  0  2  0  0  0  0  0  0
  -30.1000  -13.3620   20.0270 N   0  0  0  0  0  0  0  0  0  0  0  0
  -31.8980  -14.7310   19.7010 O   0  0  0  0  0  0  0  0  0  0  0  0
  -29.9720  -19.4910   20.5820 C   0  0  0  0  0  0  0  0  0  0  0  0
  -28.6640  -17.5940   19.7080 C   0  0  0  0  0  2  0  0  0  0  0  0
  -29.3070  -17.5040   21.9960 C   0  0  0  0  0  2  0  0  0  0  0  0
  -29.6230  -16.4610   19.3210 C   0  0  0  0  0  2  0  0  0  0  0  0
  -30.2340  -16.2860   21.7480 C   0  0  0  0  0  2  0  0  0  0  0  0
  -29.2920  -18.3380   20.7940 N   0  0  0  0  0  0  0  0  0  0  0  0
  -29.9760  -15.5930   20.4650 N   0  0  0  0  0  0  0  0  0  0  0  0
  -30.0980  -19.9560   19.4420 O   0  0  0  0  0  0  0  0  0  0  0  0
  -25.3240  -13.8490   20.4300 C   0  0  0  0  0  0  0  0  0  0  0  0
  -24.2840  -13.0550   20.8290 C   0  0  0  0  0  0  0  0  0  0  0  0
  -24.7640  -11.7120   20.7550 C   0  0  0  0  0  0  0  0  0  0  0  0
  -26.3710  -12.9880   20.1440 N   0  0  0  0  0  0  0  0  0  0  0  0
  -26.0410  -11.6970   20.3960 N   0  0  0  0  0  0  0  0  0  0  0  0
  -24.0700  -10.4350   20.9560 C   0  0  0  0  0  0  0  0  0  0  0  0
  -24.5280   -9.4820   21.8900 C   0  0  0  0  0  3  0  0  0  0  0  0
  -23.8310   -8.2690   22.0740 C   0  0  0  0  0  3  0  0  0  0  0  0
  -22.6590   -8.0040   21.3260 C   0  0  0  0  0  0  0  0  0  0  0  0
  -22.2210   -8.9450   20.3800 C   0  0  0  0  0  3  0  0  0  0  0  0
  -22.9220  -10.1490   20.1920 C   0  0  0  0  0  3  0  0  0  0  0  0
  -21.9350   -6.8400   21.4200 O   0  0  0  0  0  0  0  0  0  0  0  0
  -21.8480   -6.1400   22.5960 C   0  0  0  0  0  0  0  0  0  0  0  0
  -21.2980   -6.7120   23.7640 C   0  0  0  0  0  3  0  0  0  0  0  0
  -21.1630   -5.9340   24.9310 C   0  0  0  0  0  3  0  0  0  0  0  0
  -21.5690   -4.5860   24.9330 C   0  0  0  0  0  0  0  0  0  0  0  0
  -22.1140   -4.0130   23.7700 C   0  0  0  0  0  3  0  0  0  0  0  0
  -22.2490   -4.7880   22.6020 C   0  0  0  0  0  0  0  0  0  0  0  0
  -22.7510   -4.2250   21.4770 F   0  0  0  0  0  0  0  0  0  0  0  0
  -21.4320   -3.8380   26.0520 F   0  0  0  0  0  0  0  0  0  0  0  0
  -22.8940  -13.5070   21.1740 C   0  0  0  0  0  0  0  0  0  0  0  0
  -22.2280  -12.8070   22.0840 N   0  0  0  0  0  0  0  0  0  0  0  0
  -22.4090  -14.5190   20.6690 O   0  0  0  0  0  0  0  0  0  0  0  0
  -22.6320  -11.9870   22.5120 H   0  0  0  0  0  0  0  0  0  0  0  0
  -21.3030  -13.0980   22.3630 H   0  0  0  0  0  0  0  0  0  0  0  0
  -25.4660  -15.2240   20.2740 N   0  0  0  0  0  0  0  0  0  0  0  0
  -24.7080  -15.8790   20.4230 H   0  0  0  0  0  0  0  0  0  0  0  0
  -26.3250  -15.6700   19.9760 H   0  0  0  0  0  0  0  0  0  0  0  0
  -30.1600  -22.6290   20.9840 C   0  0  0  0  0  2  0  0  0  0  0  0
  -30.9030  -23.8410   20.3780 C   0  0  0  0  0  2  0  0  0  0  0  0
  -29.9960  -24.6850   19.5800 N   0  0  0  0  0  4  0  0  0  0  0  0
  -29.1710  -24.8540   20.1350 H   0  0  0  0  0  0  0  0  0  0  0  0
  -29.7120  -24.1880   18.7500 H   0  0  0  0  0  0  0  0  0  0  0  0
  -30.5160  -26.0220   19.2160 C   0  0  0  0  0  2  0  0  0  0  0  0
  -29.3440  -26.9790   18.9790 C   0  0  0  0  0  2  0  0  0  0  0  0
  -28.5530  -26.8890   20.1570 O   0  0  0  0  0  0  0  0  0  0  0  0
  -24.5320  -31.8640   23.2020 C   0  0  0  0  0  0  0  0  0  0  0  0
  -27.3730  -27.5790   20.1170 C   0  0  0  0  0  0  0  0  0  0  0  0
  -23.4020  -30.4590   21.5050 C   0  0  0  0  0  3  0  0  0  0  0  0
  -24.9300  -28.9800   20.0970 C   0  0  0  0  0  0  0  0  0  0  0  0
  -25.9150  -30.8900   21.3780 C   0  0  0  0  0  2  0  0  0  0  0  0
  -26.0520  -29.5330   20.7260 C   0  0  0  0  0  0  0  0  0  0  0  0
  -27.2740  -28.8340   20.7470 C   0  0  0  0  0  3  0  0  0  0  0  0
  -26.2380  -27.0180   19.4950 C   0  0  0  0  0  3  0  0  0  0  0  0
  -25.0160  -27.7170   19.4810 C   0  0  0  0  0  3  0  0  0  0  0  0
  -23.6620  -29.8030   20.1220 C   0  0  0  0  0  2  0  0  0  0  0  0
  -24.6320  -31.0860   22.0880 N   0  0  0  0  0  0  0  0  0  0  0  0
  -23.4320  -32.1050   23.7190 O   0  0  0  0  0  0  0  0  0  0  0  0
  -22.7520  -29.4100   22.4340 C   0  0  0  0  0  0  0  0  0  0  0  0
  -21.4330  -29.2120   22.2760 N   0  0  0  0  0  0  0  0  0  0  0  0
  -23.4300  -28.7780   23.2490 O   0  0  0  0  0  0  0  0  0  0  0  0
  -20.9480  -29.7760   21.5920 H   0  0  0  0  0  0  0  0  0  0  0  0
  -18.0620  -27.9850   22.6990 C   0  0  0  0  0  0  0  0  0  0  0  0
  -20.6140  -28.2490   23.0100 C   0  0  0  0  0  3  0  0  0  0  0  0
  -20.7330  -26.8340   22.3960 C   0  0  0  0  0  2  0  0  0  0  0  0
  -19.6450  -26.5340   21.3600 C   0  0  0  0  0  2  0  0  0  0  0  0
  -18.2540  -26.6570   21.9870 C   0  0  0  0  0  2  0  0  0  0  0  0
  -19.1710  -28.7400   23.1640 C   0  0  0  0  0  0  0  0  0  0  0  0
  -18.9390  -29.9860   23.7860 C   0  0  0  0  0  3  0  0  0  0  0  0
  -17.6310  -30.4770   23.9480 C   0  0  0  0  0  3  0  0  0  0  0  0
  -16.5350  -29.7170   23.5020 C   0  0  0  0  0  3  0  0  0  0  0  0
  -16.7510  -28.4740   22.8820 C   0  0  0  0  0  3  0  0  0  0  0  0
  -25.7890  -32.5120   23.8660 C   0  0  0  0  0  3  0  0  0  0  0  0
  -25.4570  -33.9100   24.1710 N   0  0  0  0  0  0  0  0  0  0  0  0
  -25.8160  -34.9580   23.4180 C   0  0  0  0  0  0  0  0  0  0  0  0
  -26.5320  -34.8530   22.4190 O   0  0  0  0  0  0  0  0  0  0  0  0
  -24.8280  -34.0660   24.9440 H   0  0  0  0  0  0  0  0  0  0  0  0
  -24.1060  -36.7420   22.9510 C   0  0  0  0  0  1  0  0  0  0  0  0
  -25.2950  -36.3450   23.8410 C   0  0  0  0  0  3  0  0  0  0  0  0
  -27.3640  -37.2420   24.8110 C   0  0  0  0  0  1  0  0  0  0  0  0
  -26.3290  -37.4020   23.7930 N   0  0  0  0  0  0  0  0  0  0  0  0
  -25.9100  -38.3210   23.9120 H   0  0  0  0  0  0  0  0  0  0  0  0
  -26.2680  -31.7540   25.1630 C   0  0  1  0  0  0  0  0  0  0  0  0
  -25.1400  -31.5050   26.1900 C   0  0  0  0  0  1  0  0  0  0  0  0
  -26.8850  -30.3840   24.7970 C   0  0  0  0  0  1  0  0  0  0  0  0
  -27.3820  -32.5670   25.8650 C   0  0  0  0  0  1  0  0  0  0  0  0
  2  1  1  0
  3  1  1  0
  4 14  1  0
  4  2  1  0
  5  4  1  0
  5  3  1  0
  6 20  1  0
  7 12  1  0
  8  9  1  0
  8  7  1  0
 10  9  1  0
 10 25  1  0
 10 11  1  0
 12  6  1  0
 12 11  1  0
 13  6  2  0
 14 19  1  0
 15 19  1  0
 17 15  1  0
 17 20  1  0
 18 16  1  0
 19 16  1  0
 20 18  1  0
 21 14  2  0
 22 23  2  0
 23 42  1  0
 24 23  1  0
 24 27  1  0
 25 26  1  0
 25 22  1  0
 26 24  2  0
 27 28  1  0
 28 29  2  0
 30 33  1  0
 30 29  1  0
 31 30  2  0
 32 31  1  0
 32 27  2  0
 33 34  1  0
 34 39  2  0
 34 35  1  0
 35 36  2  0
 36 37  1  0
 37 41  1  0
 38 37  2  0
 39 38  1  0
 40 39  1  0
 42 43  1  0
 43 46  1  0
 43 45  1  0
 44 42  2  0
 47 48  1  0
 47 22  1  0
 49 47  1  0
 50  5  1  0
 51 50  1  0
 52 53  1  0
 52 51  1  0
 54 52  1  0
 55 52  1  0
 56 55  1  0
 56 57  1  0
 58 69  2  0
 59 57  1  0
 59 64  1  0
 60 68  1  0
 60 70  1  0
 61 67  1  0
 61 63  1  0
 62 68  1  0
 63 64  2  0
 63 62  1  0
 65 59  2  0
 66 65  1  0
 66 61  2  0
 67 60  1  0
 68 58  1  0
 70 72  2  0
 71 70  1  0
 73 71  1  0
 74 83  2  0
 74 79  1  0
 75 71  1  0
 75 79  1  0
 76 75  1  0
 77 78  1  0
 77 76  1  0
 78 74  1  0
 79 80  2  0
 80 81  1  0
 82 81  2  0
 83 82  1  0
 84 58  1  0
 84 85  1  0
 84 94  1  0
 85 88  1  0
 86 90  1  0
 86 85  1  0
 87 86  2  0
 90 89  1  0
 92 90  1  0
 92 93  1  0
 92 91  1  0
 94 97  1  1
 94 95  1  0
 96 94  1  0
M  ISO  4   6 100  20 100  56 101  57 101
M  END
>  <TORSDO>  (18) 
F 21

>  <SCORE>  (18) 
-12.511

>  <name>  (18) 
17

>  <ligand_id>  (18) 
17

>  <original_smiles>  (18) 
[H]c1c([H])c([H])c2c(c1[H])C([H])([H])C([H])([H])C([H])([H])C2([H])N([H])C(=O)C1([H])N(C(=O)C([H])(N([H])C(=O)C([H])(N([H])C([H])([H])[H])C([H])([H])[H])C(C([H])([H])[H])(C([H])([H])[H])C([H])([H])[H])C([H])([H])c2c([H])c(OC([H])([H])C([H])([H])[N+]([H])([H])C([H])([H])C([H])([H])N3C([H])([H])C([H])([H])C([H])([H])C3([H])C(=O)N3C([H])([H])C([H])([H])N(C(=O)N4C([H])([H])C([H])([H])C([H])([H])C([H])(n5nc(-c6c([H])c([H])c(Oc7c([H])c([H])c(F)c([H])c7F)c([H])c6[H])c(C(=O)N([H])[H])c5N([H])[H])C4([H])[H])C([H])([H])C3([H])[H])c([H])c([H])c2C1([H])[H]

>  <smiles>  (18) 
[H]c1c([H])c([H])c2c(c1[H])C([H])([H])C([H])([H])C([H])([H])C2([H])N([H])C(=O)C1([H])N(C(=O)C([H])(N([H])C(=O)C([H])(N([H])C([H])([H])[H])C([H])([H])[H])C(C([H])([H])[H])(C([H])([H])[H])C([H])([H])[H])C([H])([H])c2c([H])c(OC([H])([H])C([H])([H])[N+]([H])([H])C([H])([H])C([H])([H])N3C([H])([H])C([H])([H])C([H])([H])C3([H])C(=O)N3C([H])([H])C([H])([H])N(C(=O)N4C([H])([H])C([H])([H])C([H])([H])C([H])(n5nc(-c6c([H])c([H])c(Oc7c([H])c([H])c(F)c([H])c7F)c([H])c6[H])c(C(=O)N([H])[H])c5N([H])[H])C4([H])[H])C([H])([H])C3([H])[H])c([H])c([H])c2C1([H])[H]

$$$$
18:0:0
     RDKit          3D

 97105  0  0  1  0  0  0  0  0999 V2000
  -29.1960  -20.4960   19.8350 N   0  0  0  0  0  0  0  0  0  0  0  0
  -30.2170  -19.3450   19.4340 C   0  0  0  0  0  2  0  0  0  0  0  0
  -31.7320  -18.5020   23.3360 C   0  0  0  0  0  2  0  0  0  0  0  0
  -30.5310  -17.6050   22.9840 C   0  0  0  0  0  2  0  0  0  0  0  0
  -32.2820  -19.2620   22.1130 C   0  0  0  0  0  2  0  0  0  0  0  0
  -29.8320  -18.0580   21.6930 C   0  0  0  0  0  2  0  0  0  0  0  0
  -32.2090  -18.3880   20.8490 C   0  0  0  0  0  2  0  0  0  0  0  0
  -30.7480  -18.0350   20.4230 C   0  0  2  0  0  0  0  0  0  0  0  0
  -31.5030  -15.2790   20.1220 C   0  0  0  0  0  0  0  0  0  0  0  0
  -31.3920  -12.8280   19.4150 C   0  0  0  0  0  2  0  0  0  0  0  0
  -30.4910  -12.6120   18.1780 C   0  0  0  0  0  2  0  0  0  0  0  0
  -29.0140  -12.4590   18.5920 C   0  0  0  0  0  2  0  0  0  0  0  0
  -28.5770  -13.5310   19.6240 C   0  0  0  0  0  3  0  0  0  0  0  0
  -29.6010  -13.6880   20.7670 C   0  0  0  0  0  2  0  0  0  0  0  0
  -30.8890  -14.0260   20.1440 N   0  0  0  0  0  0  0  0  0  0  0  0
  -32.7320  -15.2940   19.9890 O   0  0  0  0  0  0  0  0  0  0  0  0
  -30.7130  -16.4740   20.0370 N   0  0  0  0  0  0  0  0  0  0  0  0
  -29.7550  -16.1930   19.9090 H   0  0  0  0  0  0  0  0  0  0  0  0
  -26.2280  -14.2470   20.3430 C   0  0  0  0  0  0  0  0  0  0  0  0
  -25.1190  -13.5350   20.7060 C   0  0  0  0  0  0  0  0  0  0  0  0
  -25.5080  -12.1590   20.6900 C   0  0  0  0  0  0  0  0  0  0  0  0
  -27.2220  -13.3090   20.1170 N   0  0  0  0  0  0  0  0  0  0  0  0
  -26.7990  -12.0480   20.3940 N   0  0  0  0  0  0  0  0  0  0  0  0
  -24.7090  -10.9410   20.8720 C   0  0  0  0  0  0  0  0  0  0  0  0
  -25.0300   -9.9870   21.8630 C   0  0  0  0  0  3  0  0  0  0  0  0
  -24.2330   -8.8350   22.0340 C   0  0  0  0  0  3  0  0  0  0  0  0
  -23.1000   -8.6250   21.2140 C   0  0  0  0  0  0  0  0  0  0  0  0
  -22.7960   -9.5660   20.2160 C   0  0  0  0  0  3  0  0  0  0  0  0
  -23.5940  -10.7110   20.0410 C   0  0  0  0  0  3  0  0  0  0  0  0
  -22.2870   -7.5180   21.2900 O   0  0  0  0  0  0  0  0  0  0  0  0
  -22.0500   -6.8790   22.4810 C   0  0  0  0  0  0  0  0  0  0  0  0
  -21.5080   -7.5530   23.5970 C   0  0  0  0  0  3  0  0  0  0  0  0
  -21.2140   -6.8380   24.7770 C   0  0  0  0  0  3  0  0  0  0  0  0
  -21.4580   -5.4530   24.8410 C   0  0  0  0  0  0  0  0  0  0  0  0
  -22.0010   -4.7830   23.7300 C   0  0  0  0  0  3  0  0  0  0  0  0
  -22.2910   -5.4910   22.5540 C   0  0  0  0  0  0  0  0  0  0  0  0
  -22.7890   -4.8340   21.4770 F   0  0  0  0  0  0  0  0  0  0  0  0
  -21.1700   -4.7660   25.9710 F   0  0  0  0  0  0  0  0  0  0  0  0
  -23.7470  -14.0900   20.9540 C   0  0  0  0  0  0  0  0  0  0  0  0
  -22.9760  -13.4620   21.8360 N   0  0  0  0  0  0  0  0  0  0  0  0
  -23.3700  -15.1210   20.3990 O   0  0  0  0  0  0  0  0  0  0  0  0
  -23.2890  -12.6220   22.2970 H   0  0  0  0  0  0  0  0  0  0  0  0
  -22.0550  -13.8200   22.0510 H   0  0  0  0  0  0  0  0  0  0  0  0
  -26.4710  -15.6060   20.1550 N   0  0  0  0  0  0  0  0  0  0  0  0
  -25.7240  -16.2860   20.2340 H   0  0  0  0  0  0  0  0  0  0  0  0
  -27.3090  -15.9880   19.7430 H   0  0  0  0  0  0  0  0  0  0  0  0
  -29.4260  -22.0410   19.5790 C   0  0  0  0  0  2  0  0  0  0  0  0
  -28.6870  -23.4130   20.3180 C   0  0  0  0  0  2  0  0  0  0  0  0
  -28.0160  -24.6370   19.6060 N   0  0  0  0  0  0  0  0  0  0  0  0
  -28.3930  -24.7170   18.6650 H   0  0  0  0  0  0  0  0  0  0  0  0
  -28.2080  -26.0990   20.2550 O   0  0  0  0  0  0  0  0  0  0  0  0
  -24.6460  -31.8720   23.1920 C   0  0  0  0  0  0  0  0  0  0  0  0
  -27.1450  -27.0820   20.1750 C   0  0  0  0  0  0  0  0  0  0  0  0
  -23.4130  -30.4700   21.5810 C   0  0  0  0  0  3  0  0  0  0  0  0
  -24.8320  -28.8610   20.1550 C   0  0  0  0  0  0  0  0  0  0  0  0
  -25.9670  -30.7000   21.3930 C   0  0  0  0  0  2  0  0  0  0  0  0
  -26.0190  -29.2980   20.7530 C   0  0  0  0  0  0  0  0  0  0  0  0
  -27.1710  -28.4200   20.7490 C   0  0  0  0  0  3  0  0  0  0  0  0
  -25.9270  -26.7490   19.5380 C   0  0  0  0  0  3  0  0  0  0  0  0
  -24.7980  -27.6000   19.5350 C   0  0  0  0  0  3  0  0  0  0  0  0
  -23.6140  -29.7750   20.2080 C   0  0  0  0  0  2  0  0  0  0  0  0
  -24.6950  -31.0360   22.1100 N   0  0  0  0  0  0  0  0  0  0  0  0
  -23.5680  -32.1770   23.7250 O   0  0  0  0  0  0  0  0  0  0  0  0
  -22.7350  -29.4820   22.5620 C   0  0  0  0  0  0  0  0  0  0  0  0
  -21.4100  -29.2870   22.4250 N   0  0  0  0  0  0  0  0  0  0  0  0
  -23.4050  -28.8910   23.4150 O   0  0  0  0  0  0  0  0  0  0  0  0
  -20.9220  -29.8140   21.7130 H   0  0  0  0  0  0  0  0  0  0  0  0
  -18.0510  -28.0200   22.8940 C   0  0  0  0  0  0  0  0  0  0  0  0
  -20.5940  -28.3640   23.2190 C   0  0  0  0  0  3  0  0  0  0  0  0
  -20.7480  -26.9110   22.7130 C   0  0  0  0  0  2  0  0  0  0  0  0
  -19.6850  -26.5150   21.6840 C   0  0  0  0  0  2  0  0  0  0  0  0
  -18.2810  -26.6490   22.2820 C   0  0  0  0  0  2  0  0  0  0  0  0
  -19.1350  -28.8300   23.3200 C   0  0  0  0  0  0  0  0  0  0  0  0
  -18.8660  -30.1110   23.8510 C   0  0  0  0  0  3  0  0  0  0  0  0
  -17.5440  -30.5810   23.9620 C   0  0  0  0  0  3  0  0  0  0  0  0
  -16.4730  -29.7680   23.5500 C   0  0  0  0  0  3  0  0  0  0  0  0
  -16.7270  -28.4910   23.0230 C   0  0  0  0  0  3  0  0  0  0  0  0
  -25.9390  -32.5030   23.7930 C   0  0  0  0  0  3  0  0  0  0  0  0
  -26.4870  -31.7150   25.0450 C   0  0  1  0  0  0  0  0  0  0  0  0
  -25.4130  -31.4330   26.1210 C   0  0  0  0  0  1  0  0  0  0  0  0
  -27.0910  -30.3560   24.6230 C   0  0  0  0  0  1  0  0  0  0  0  0
  -27.6300  -32.5140   25.7100 C   0  0  0  0  0  1  0  0  0  0  0  0
  -25.6300  -33.8950   24.1620 N   0  0  0  0  0  0  0  0  0  0  0  0
  -25.9230  -34.9680   23.4150 C   0  0  0  0  0  0  0  0  0  0  0  0
  -26.5540  -34.8900   22.3570 O   0  0  0  0  0  0  0  0  0  0  0  0
  -25.0640  -34.0270   24.9870 H   0  0  0  0  0  0  0  0  0  0  0  0
  -24.1660  -36.7520   23.1710 C   0  0  0  0  0  1  0  0  0  0  0  0
  -25.4430  -36.3430   23.9200 C   0  0  0  0  0  3  0  0  0  0  0  0
  -27.6030  -37.2370   24.6730 C   0  0  0  0  0  1  0  0  0  0  0  0
  -26.4590  -37.4090   23.7800 N   0  0  0  0  0  0  0  0  0  0  0  0
  -26.0520  -38.3220   23.9640 H   0  0  0  0  0  0  0  0  0  0  0  0
  -27.9910  -20.1040   19.0820 C   0  0  0  0  0  2  0  0  0  0  0  0
  -26.7290  -20.9670   19.3000 C   0  0  0  0  0  2  0  0  0  0  0  0
  -25.6710  -20.6260   18.3310 N   0  0  0  0  0  4  0  0  0  0  0  0
  -25.9920  -20.7850   17.3910 H   0  0  0  0  0  0  0  0  0  0  0  0
  -24.8670  -21.2080   18.4840 H   0  0  0  0  0  0  0  0  0  0  0  0
  -25.3900  -19.6650   18.4160 H   0  0  0  0  0  0  0  0  0  0  0  0
  2  1  1  0
  8  2  1  6
  4  3  1  0
  5  3  1  0
  6  4  1  0
  7  5  1  0
  8  7  1  0
  8  6  1  0
  9 15  1  0
 10 15  1  0
 11 12  1  0
 11 10  1  0
 13 12  1  0
 13 22  1  0
 13 14  1  0
 15 14  1  0
 16  9  2  0
 17  9  1  0
 17  8  1  0
 18 17  1  0
 19 20  2  0
 20 39  1  0
 21 20  1  0
 21 24  1  0
 22 19  1  0
 22 23  1  0
 23 21  2  0
 24 25  1  0
 25 26  2  0
 27 30  1  0
 27 26  1  0
 28 27  2  0
 29 28  1  0
 29 24  2  0
 30 31  1  0
 31 36  2  0
 31 32  1  0
 32 33  2  0
 33 34  1  0
 34 38  1  0
 35 34  2  0
 36 35  1  0
 37 36  1  0
 39 40  1  0
 40 43  1  0
 40 42  1  0
 41 39  2  0
 44 45  1  0
 44 19  1  0
 46 44  1  0
 47  1  1  0
 47 48  1  0
 49 51  1  0
 49 48  1  0
 50 49  1  0
 52 63  2  0
 53 51  1  0
 53 58  1  0
 54 62  1  0
 54 64  1  0
 55 61  1  0
 55 57  1  0
 56 62  1  0
 57 56  1  0
 58 57  2  0
 59 53  2  0
 60 59  1  0
 60 55  2  0
 61 54  1  0
 62 52  1  0
 64 66  2  0
 65 64  1  0
 67 65  1  0
 68 77  2  0
 68 73  1  0
 69 65  1  0
 69 73  1  0
 70 69  1  0
 71 72  1  0
 71 70  1  0
 72 68  1  0
 73 74  2  0
 74 75  1  0
 76 75  2  0
 77 76  1  0
 78 52  1  0
 78 83  1  0
 78 79  1  0
 79 82  1  1
 79 80  1  0
 81 79  1  0
 83 86  1  0
 84 88  1  0
 84 83  1  0
 85 84  2  0
 88 87  1  0
 90 88  1  0
 90 91  1  0
 90 89  1  0
 92 93  1  0
 92  1  1  0
 94 97  1  0
 94 96  1  0
 94 93  1  0
 95 94  1  0
M  ISO  4   9 100  17 100  49 101  51 101
M  END
>  <TORSDO>  (19) 
F 24

>  <SCORE>  (19) 
-11.635

>  <name>  (19) 
18

>  <ligand_id>  (19) 
18

>  <original_smiles>  (19) 
[H]c1c([H])c([H])c2c(c1[H])C([H])([H])C([H])([H])C([H])([H])C2([H])N([H])C(=O)C1([H])N(C(=O)C([H])(N([H])C(=O)C([H])(N([H])C([H])([H])[H])C([H])([H])[H])C(C([H])([H])[H])(C([H])([H])[H])C([H])([H])[H])C([H])([H])c2c([H])c(ON([H])C([H])([H])C([H])([H])N(C([H])([H])C3(N([H])C(=O)N4C([H])([H])C([H])([H])C([H])([H])C([H])(n5nc(-c6c([H])c([H])c(Oc7c([H])c([H])c(F)c([H])c7F)c([H])c6[H])c(C(=O)N([H])[H])c5N([H])[H])C4([H])[H])C([H])([H])C([H])([H])C([H])([H])C([H])([H])C3([H])[H])C([H])([H])C([H])([H])[N+]([H])([H])[H])c([H])c([H])c2C1([H])[H]

>  <smiles>  (19) 
[H]c1c([H])c([H])c2c(c1[H])C([H])([H])C([H])([H])C([H])([H])C2([H])N([H])C(=O)C1([H])N(C(=O)C([H])(N([H])C(=O)C([H])(N([H])C([H])([H])[H])C([H])([H])[H])C(C([H])([H])[H])(C([H])([H])[H])C([H])([H])[H])C([H])([H])c2c([H])c(ON([H])C([H])([H])C([H])([H])N(C([H])([H])C3(N([H])C(=O)N4C([H])([H])C([H])([H])C([H])([H])C([H])(n5nc(-c6c([H])c([H])c(Oc7c([H])c([H])c(F)c([H])c7F)c([H])c6[H])c(C(=O)N([H])[H])c5N([H])[H])C4([H])[H])C([H])([H])C([H])([H])C([H])([H])C([H])([H])C3([H])[H])C([H])([H])C([H])([H])[N+]([H])([H])[H])c([H])c([H])c2C1([H])[H]

$$$$
19:0:0
     RDKit          3D

 92100  0  0  1  0  0  0  0  0999 V2000
  -29.3410  -20.8800   19.6750 C   0  0  0  0  0  2  0  0  0  0  0  0
  -26.2100  -17.7440   19.5080 C   0  0  0  0  0  3  0  0  0  0  0  0
  -26.0090  -19.0780   19.1600 C   0  0  0  0  0  3  0  0  0  0  0  0
  -27.5040  -17.2930   19.7970 C   0  0  0  0  0  3  0  0  0  0  0  0
  -27.0900  -19.9650   19.1940 C   0  0  0  0  0  3  0  0  0  0  0  0
  -28.6540  -18.1330   19.7840 C   0  0  0  0  0  0  0  0  0  0  0  0
  -28.4070  -19.5890   19.5780 C   0  0  0  0  0  0  0  0  0  0  0  0
  -29.9980  -17.2880   19.9710 C   0  0  0  0  0  2  0  0  0  0  0  0
  -30.6850  -14.6770   20.1440 C   0  0  0  0  0  0  0  0  0  0  0  0
  -30.5430  -12.2850   19.4240 C   0  0  0  0  0  2  0  0  0  0  0  0
  -29.5970  -12.1950   18.2040 C   0  0  0  0  0  2  0  0  0  0  0  0
  -28.1300  -12.0610   18.6570 C   0  0  0  0  0  2  0  0  0  0  0  0
  -27.7480  -13.0890   19.7560 C   0  0  0  0  0  3  0  0  0  0  0  0
  -28.8090  -13.1340   20.8790 C   0  0  0  0  0  2  0  0  0  0  0  0
  -30.1000  -13.4350   20.2450 N   0  0  0  0  0  0  0  0  0  0  0  0
  -31.8630  -14.7840   19.7850 O   0  0  0  0  0  0  0  0  0  0  0  0
  -29.8490  -15.7770   20.2450 N   0  0  0  0  0  0  0  0  0  0  0  0
  -28.9100  -15.5160   20.4990 H   0  0  0  0  0  0  0  0  0  0  0  0
  -25.4090  -13.7740   20.5530 C   0  0  0  0  0  0  0  0  0  0  0  0
  -24.3210  -13.0460   20.9490 C   0  0  0  0  0  0  0  0  0  0  0  0
  -24.7250  -11.6760   20.8930 C   0  0  0  0  0  0  0  0  0  0  0  0
  -26.4070  -12.8540   20.2810 N   0  0  0  0  0  0  0  0  0  0  0  0
  -26.0040  -11.5850   20.5480 N   0  0  0  0  0  0  0  0  0  0  0  0
  -23.9500  -10.4450   21.0920 C   0  0  0  0  0  0  0  0  0  0  0  0
  -24.3810   -9.4360   21.9810 C   0  0  0  0  0  3  0  0  0  0  0  0
  -23.6070   -8.2700   22.1690 C   0  0  0  0  0  3  0  0  0  0  0  0
  -22.3890   -8.1060   21.4670 C   0  0  0  0  0  0  0  0  0  0  0  0
  -21.9760   -9.1030   20.5650 C   0  0  0  0  0  3  0  0  0  0  0  0
  -22.7500  -10.2610   20.3760 C   0  0  0  0  0  3  0  0  0  0  0  0
  -21.5840   -6.9960   21.5670 O   0  0  0  0  0  0  0  0  0  0  0  0
  -21.5730   -6.2150   22.6950 C   0  0  0  0  0  0  0  0  0  0  0  0
  -21.2560   -6.7450   23.9640 C   0  0  0  0  0  3  0  0  0  0  0  0
  -21.1880   -5.8930   25.0860 C   0  0  0  0  0  3  0  0  0  0  0  0
  -21.4260   -4.5130   24.9380 C   0  0  0  0  0  0  0  0  0  0  0  0
  -21.7360   -3.9830   23.6720 C   0  0  0  0  0  3  0  0  0  0  0  0
  -21.8070   -4.8310   22.5540 C   0  0  0  0  0  0  0  0  0  0  0  0
  -22.0840   -4.3130   21.3340 F   0  0  0  0  0  0  0  0  0  0  0  0
  -21.3520   -3.6940   26.0130 F   0  0  0  0  0  0  0  0  0  0  0  0
  -22.9550  -13.5800   21.2660 C   0  0  0  0  0  0  0  0  0  0  0  0
  -22.2280  -12.9130   22.1560 N   0  0  0  0  0  0  0  0  0  0  0  0
  -22.5440  -14.6240   20.7610 O   0  0  0  0  0  0  0  0  0  0  0  0
  -22.5770  -12.0680   22.5840 H   0  0  0  0  0  0  0  0  0  0  0  0
  -21.3130  -13.2510   22.4130 H   0  0  0  0  0  0  0  0  0  0  0  0
  -25.6210  -15.1380   20.3800 N   0  0  0  0  0  0  0  0  0  0  0  0
  -24.8800  -15.8140   20.5210 H   0  0  0  0  0  0  0  0  0  0  0  0
  -26.4670  -15.5570   20.0160 H   0  0  0  0  0  0  0  0  0  0  0  0
  -28.6660  -22.1340   20.2920 N   0  0  0  0  0  4  0  0  0  0  0  0
  -28.7230  -22.0230   21.2930 H   0  0  0  0  0  0  0  0  0  0  0  0
  -27.6930  -22.0210   20.0610 H   0  0  0  0  0  0  0  0  0  0  0  0
  -29.0310  -23.5960   19.9410 C   0  0  0  0  0  3  0  0  0  0  0  0
  -28.1220  -24.7740   20.6060 C   0  0  0  0  0  3  0  0  0  0  0  0
  -28.3740  -26.2520   20.4330 O   0  0  0  0  0  0  0  0  0  0  0  0
  -24.5850  -31.7850   23.2800 C   0  0  0  0  0  0  0  0  0  0  0  0
  -27.2750  -27.1390   20.3790 C   0  0  0  0  0  0  0  0  0  0  0  0
  -23.4340  -30.3720   21.6150 C   0  0  0  0  0  3  0  0  0  0  0  0
  -24.9270  -28.7910   20.2620 C   0  0  0  0  0  0  0  0  0  0  0  0
  -25.9840  -30.6660   21.5210 C   0  0  0  0  0  2  0  0  0  0  0  0
  -26.0790  -29.2750   20.8930 C   0  0  0  0  0  0  0  0  0  0  0  0
  -27.2600  -28.4630   20.9360 C   0  0  0  0  0  3  0  0  0  0  0  0
  -26.1010  -26.7210   19.7180 C   0  0  0  0  0  3  0  0  0  0  0  0
  -24.9420  -27.5210   19.6620 C   0  0  0  0  0  3  0  0  0  0  0  0
  -23.6940  -29.6750   20.2540 C   0  0  0  0  0  2  0  0  0  0  0  0
  -24.6860  -30.9600   22.1940 N   0  0  0  0  0  0  0  0  0  0  0  0
  -23.4840  -32.0750   23.7710 O   0  0  0  0  0  0  0  0  0  0  0  0
  -22.7300  -29.3740   22.5640 C   0  0  0  0  0  0  0  0  0  0  0  0
  -21.4010  -29.2340   22.4190 N   0  0  0  0  0  0  0  0  0  0  0  0
  -23.3790  -28.7270   23.3910 O   0  0  0  0  0  0  0  0  0  0  0  0
  -20.9370  -29.8150   21.7340 H   0  0  0  0  0  0  0  0  0  0  0  0
  -17.9800  -28.1510   22.8960 C   0  0  0  0  0  0  0  0  0  0  0  0
  -20.5460  -28.3130   23.1710 C   0  0  0  0  0  3  0  0  0  0  0  0
  -20.5990  -26.8890   22.5730 C   0  0  0  0  0  2  0  0  0  0  0  0
  -19.4860  -26.6210   21.5540 C   0  0  0  0  0  2  0  0  0  0  0  0
  -18.1090  -26.8070   22.1970 C   0  0  0  0  0  2  0  0  0  0  0  0
  -19.1250  -28.8650   23.3370 C   0  0  0  0  0  0  0  0  0  0  0  0
  -18.9520  -30.1260   23.9460 C   0  0  0  0  0  3  0  0  0  0  0  0
  -17.6660  -30.6720   24.1200 C   0  0  0  0  0  3  0  0  0  0  0  0
  -16.5350  -29.9530   23.6940 C   0  0  0  0  0  3  0  0  0  0  0  0
  -16.6930  -28.6950   23.0880 C   0  0  0  0  0  3  0  0  0  0  0  0
  -25.8480  -32.4180   23.9420 C   0  0  0  0  0  3  0  0  0  0  0  0
  -25.5380  -33.8260   24.2300 N   0  0  0  0  0  0  0  0  0  0  0  0
  -25.8990  -34.8610   23.4580 C   0  0  0  0  0  0  0  0  0  0  0  0
  -26.5950  -34.7300   22.4480 O   0  0  0  0  0  0  0  0  0  0  0  0
  -24.9240  -34.0020   25.0130 H   0  0  0  0  0  0  0  0  0  0  0  0
  -24.1880  -36.6550   23.0280 C   0  0  0  0  0  1  0  0  0  0  0  0
  -25.4110  -36.2630   23.8730 C   0  0  0  0  0  3  0  0  0  0  0  0
  -27.5360  -37.1530   24.7220 C   0  0  0  0  0  1  0  0  0  0  0  0
  -26.4530  -37.3070   23.7560 N   0  0  0  0  0  0  0  0  0  0  0  0
  -26.0490  -38.2330   23.8750 H   0  0  0  0  0  0  0  0  0  0  0  0
  -26.3010  -31.6710   25.2560 C   0  0  1  0  0  0  0  0  0  0  0  0
  -25.1590  -31.4560   26.2770 C   0  0  0  0  0  1  0  0  0  0  0  0
  -26.8970  -30.2840   24.9200 C   0  0  0  0  0  1  0  0  0  0  0  0
  -27.4220  -32.4750   25.9550 C   0  0  0  0  0  1  0  0  0  0  0  0
  1 47  1  0
  2  4  1  0
  3  5  1  0
  3  2  2  0
  5  7  2  0
  6  4  2  0
  6  8  1  0
  7  1  1  0
  7  6  1  0
  8 17  1  0
  9 15  1  0
  9 17  1  0
 10 15  1  0
 11 12  1  0
 11 10  1  0
 13 12  1  0
 13 22  1  0
 13 14  1  0
 15 14  1  0
 16  9  2  0
 17 18  1  0
 19 20  2  0
 20 39  1  0
 21 20  1  0
 21 24  1  0
 22 23  1  0
 22 19  1  0
 23 21  2  0
 24 25  1  0
 25 26  2  0
 27 30  1  0
 27 26  1  0
 28 27  2  0
 29 28  1  0
 29 24  2  0
 30 31  1  0
 31 32  1  0
 32 33  2  0
 34 33  1  0
 34 38  1  0
 35 34  2  0
 36 31  2  0
 36 35  1  0
 37 36  1  0
 39 40  1  0
 40 43  1  0
 40 42  1  0
 41 39  2  0
 44 45  1  0
 44 19  1  0
 46 44  1  0
 47 48  1  0
 49 47  1  0
 50 47  1  0
 50 51  2  0
 52 51  1  0
 53 64  2  0
 54 52  1  0
 54 59  1  0
 55 63  1  0
 55 65  1  0
 56 58  1  0
 57 63  1  0
 58 59  2  0
 58 57  1  0
 60 54  2  0
 61 60  1  0
 61 56  2  0
 62 56  1  0
 62 55  1  0
 63 53  1  0
 65 67  2  0
 66 65  1  0
 68 66  1  0
 69 78  2  0
 69 74  1  0
 70 66  1  0
 70 74  1  0
 71 70  1  0
 72 73  1  0
 72 71  1  0
 73 69  1  0
 74 75  2  0
 75 76  1  0
 77 76  2  0
 78 77  1  0
 79 53  1  0
 79 80  1  0
 79 89  1  0
 80 83  1  0
 81 85  1  0
 81 80  1  0
 82 81  2  0
 85 84  1  0
 87 85  1  0
 87 88  1  0
 87 86  1  0
 89 92  1  1
 89 90  1  0
 91 89  1  0
M  ISO  4   9 100  17 100  51 101  52 101
M  END
>  <TORSDO>  (20) 
F 21

>  <SCORE>  (20) 
-12.620

>  <name>  (20) 
19

>  <ligand_id>  (20) 
19

>  <original_smiles>  (20) 
[H]c1c([H])c([H])c(C([H])([H])[N+]([H])([H])C([H])([H])C([H])([H])Oc2c([H])c([H])c3c(c2[H])C([H])([H])N(C(=O)C([H])(N([H])C(=O)C([H])(N([H])C([H])([H])[H])C([H])([H])[H])C(C([H])([H])[H])(C([H])([H])[H])C([H])([H])[H])C([H])(C(=O)N([H])C2([H])c4c([H])c([H])c([H])c([H])c4C([H])([H])C([H])([H])C2([H])[H])C3([H])[H])c(C([H])([H])N([H])C(=O)N2C([H])([H])C([H])([H])C([H])([H])C([H])(n3nc(-c4c([H])c([H])c(Oc5c([H])c([H])c(F)c([H])c5F)c([H])c4[H])c(C(=O)N([H])[H])c3N([H])[H])C2([H])[H])c1[H]

>  <smiles>  (20) 
[H]c1c([H])c([H])c(C([H])([H])[N+]([H])([H])C([H])([H])C([H])([H])Oc2c([H])c([H])c3c(c2[H])C([H])([H])N(C(=O)C([H])(N([H])C(=O)C([H])(N([H])C([H])([H])[H])C([H])([H])[H])C(C([H])([H])[H])(C([H])([H])[H])C([H])([H])[H])C([H])(C(=O)N([H])C2([H])c4c([H])c([H])c([H])c([H])c4C([H])([H])C([H])([H])C2([H])[H])C3([H])[H])c(C([H])([H])N([H])C(=O)N2C([H])([H])C([H])([H])C([H])([H])C([H])(n3nc(-c4c([H])c([H])c(Oc5c([H])c([H])c(F)c([H])c5F)c([H])c4[H])c(C(=O)N([H])[H])c3N([H])[H])C2([H])[H])c1[H]

$$$$
20:0:0
     RDKit          3D

 95104  0  0  1  0  0  0  0  0999 V2000
  -28.7490  -23.6880   22.9740 C   0  0  0  0  0  2  0  0  0  0  0  0
  -30.8150  -23.5170   21.4870 C   0  0  0  0  0  2  0  0  0  0  0  0
  -28.2760  -24.8930   22.1460 C   0  0  0  0  0  2  0  0  0  0  0  0
  -30.2860  -24.7050   20.6610 C   0  0  0  0  0  2  0  0  0  0  0  0
  -29.6890  -22.7270   22.2030 C   0  0  0  0  0  3  0  0  0  0  0  0
  -29.4770  -25.6520   21.5560 C   0  0  0  0  0  3  0  0  0  0  0  0
  -30.2330  -21.6740   23.2040 C   0  0  0  0  0  2  0  0  0  0  0  0
  -31.2710  -20.6500   22.6830 C   0  0  0  0  0  2  0  0  0  0  0  0
  -29.4750  -17.6690   21.0240 C   0  0  0  0  0  2  0  0  0  0  0  0
  -31.3190  -16.8200   22.4780 C   0  0  0  0  0  2  0  0  0  0  0  0
  -29.9900  -19.1090   21.2230 C   0  0  0  0  0  2  0  0  0  0  0  0
  -31.8250  -18.2620   22.6530 C   0  0  0  0  0  2  0  0  0  0  0  0
  -30.6310  -16.6610   21.1180 C   0  0  0  0  0  3  0  0  0  0  0  0
  -30.7400  -19.2730   22.4980 N   0  0  1  0  0  4  0  0  0  0  0  0
  -30.0910  -19.1080   23.2550 H   0  0  0  0  0  0  0  0  0  0  0  0
  -30.7080  -14.3820   20.1110 C   0  0  0  0  0  0  0  0  0  0  0  0
  -30.3280  -12.2540   18.9320 C   0  0  0  0  0  2  0  0  0  0  0  0
  -29.3430  -12.4660   17.7660 C   0  0  0  0  0  2  0  0  0  0  0  0
  -27.8850  -12.3470   18.2520 C   0  0  0  0  0  2  0  0  0  0  0  0
  -27.6050  -13.1960   19.5200 C   0  0  0  0  0  3  0  0  0  0  0  0
  -28.6920  -12.9490   20.5900 C   0  0  0  0  0  2  0  0  0  0  0  0
  -30.0050  -13.2290   19.9820 N   0  0  0  0  0  0  0  0  0  0  0  0
  -31.7490  -14.6180   19.4910 O   0  0  0  0  0  0  0  0  0  0  0  0
  -30.1560  -15.2920   20.9250 N   0  0  0  0  0  0  0  0  0  0  0  0
  -29.3060  -15.0140   21.3930 H   0  0  0  0  0  0  0  0  0  0  0  0
  -25.2330  -13.8350   20.2950 C   0  0  0  0  0  0  0  0  0  0  0  0
  -24.1720  -13.0770   20.7110 C   0  0  0  0  0  0  0  0  0  0  0  0
  -24.6230  -11.7210   20.6860 C   0  0  0  0  0  0  0  0  0  0  0  0
  -26.2640  -12.9430   20.0440 N   0  0  0  0  0  0  0  0  0  0  0  0
  -25.9010  -11.6680   20.3330 N   0  0  0  0  0  0  0  0  0  0  0  0
  -23.8970  -10.4670   20.9200 C   0  0  0  0  0  0  0  0  0  0  0  0
  -24.3210   -9.5400   21.8980 C   0  0  0  0  0  3  0  0  0  0  0  0
  -23.5970   -8.3490   22.1170 C   0  0  0  0  0  3  0  0  0  0  0  0
  -22.4350   -8.0750   21.3580 C   0  0  0  0  0  0  0  0  0  0  0  0
  -22.0300   -8.9910   20.3710 C   0  0  0  0  0  3  0  0  0  0  0  0
  -22.7550  -10.1730   20.1490 C   0  0  0  0  0  3  0  0  0  0  0  0
  -21.6830   -6.9320   21.4840 O   0  0  0  0  0  0  0  0  0  0  0  0
  -21.5850   -6.2630   22.6780 C   0  0  0  0  0  0  0  0  0  0  0  0
  -21.1030   -6.8910   23.8470 C   0  0  0  0  0  3  0  0  0  0  0  0
  -20.9540   -6.1470   25.0340 C   0  0  0  0  0  3  0  0  0  0  0  0
  -21.2760   -4.7760   25.0540 C   0  0  0  0  0  0  0  0  0  0  0  0
  -21.7500   -4.1480   23.8880 C   0  0  0  0  0  3  0  0  0  0  0  0
  -21.9010   -4.8900   22.7030 C   0  0  0  0  0  0  0  0  0  0  0  0
  -22.3390   -4.2750   21.5780 F   0  0  0  0  0  0  0  0  0  0  0  0
  -21.1250   -4.0600   26.1910 F   0  0  0  0  0  0  0  0  0  0  0  0
  -22.7890  -13.5670   21.0260 C   0  0  0  0  0  0  0  0  0  0  0  0
  -22.0850  -12.8830   21.9220 N   0  0  0  0  0  0  0  0  0  0  0  0
  -22.3400  -14.5910   20.5140 O   0  0  0  0  0  0  0  0  0  0  0  0
  -22.4610  -12.0530   22.3590 H   0  0  0  0  0  0  0  0  0  0  0  0
  -21.1580  -13.1930   22.1760 H   0  0  0  0  0  0  0  0  0  0  0  0
  -25.4020  -15.2020   20.0900 N   0  0  0  0  0  0  0  0  0  0  0  0
  -24.6460  -15.8670   20.2150 H   0  0  0  0  0  0  0  0  0  0  0  0
  -26.2470  -15.6260   19.7280 H   0  0  0  0  0  0  0  0  0  0  0  0
  -29.0910  -26.9860   20.8910 C   0  0  0  0  0  2  0  0  0  0  0  0
  -28.0870  -26.8210   19.8840 O   0  0  0  0  0  0  0  0  0  0  0  0
  -24.4720  -31.9750   23.2340 C   0  0  0  0  0  0  0  0  0  0  0  0
  -26.9540  -27.6040   19.9720 C   0  0  0  0  0  0  0  0  0  0  0  0
  -23.1760  -30.6200   21.6150 C   0  0  0  0  0  3  0  0  0  0  0  0
  -24.5530  -29.0980   20.1010 C   0  0  0  0  0  0  0  0  0  0  0  0
  -25.6860  -30.9760   21.3050 C   0  0  0  0  0  2  0  0  0  0  0  0
  -25.7330  -29.6190   20.6410 C   0  0  0  0  0  0  0  0  0  0  0  0
  -26.9330  -28.8900   20.5640 C   0  0  0  0  0  3  0  0  0  0  0  0
  -25.7600  -27.0950   19.4200 C   0  0  0  0  0  3  0  0  0  0  0  0
  -24.5600  -27.8330   19.4820 C   0  0  0  0  0  3  0  0  0  0  0  0
  -23.3180  -29.9610   20.2140 C   0  0  0  0  0  2  0  0  0  0  0  0
  -24.4660  -31.2030   22.1100 N   0  0  0  0  0  0  0  0  0  0  0  0
  -23.4200  -32.2460   23.8290 O   0  0  0  0  0  0  0  0  0  0  0  0
  -22.5590  -29.5870   22.5830 C   0  0  0  0  0  0  0  0  0  0  0  0
  -21.2360  -29.3840   22.4700 N   0  0  0  0  0  0  0  0  0  0  0  0
  -23.2630  -28.9710   23.3870 O   0  0  0  0  0  0  0  0  0  0  0  0
  -20.7290  -29.9360   21.7920 H   0  0  0  0  0  0  0  0  0  0  0  0
  -17.8960  -28.1000   22.9570 C   0  0  0  0  0  0  0  0  0  0  0  0
  -20.4430  -28.4330   23.2470 C   0  0  0  0  0  3  0  0  0  0  0  0
  -20.5910  -26.9990   22.6890 C   0  0  0  0  0  2  0  0  0  0  0  0
  -19.5070  -26.6320   21.6710 C   0  0  0  0  0  2  0  0  0  0  0  0
  -18.1160  -26.7470   22.3020 C   0  0  0  0  0  2  0  0  0  0  0  0
  -18.9890  -28.8990   23.3870 C   0  0  0  0  0  0  0  0  0  0  0  0
  -18.7310  -30.1640   23.9580 C   0  0  0  0  0  3  0  0  0  0  0  0
  -17.4120  -30.6320   24.1040 C   0  0  0  0  0  3  0  0  0  0  0  0
  -16.3330  -29.8310   23.6910 C   0  0  0  0  0  3  0  0  0  0  0  0
  -16.5750  -28.5680   23.1250 C   0  0  0  0  0  3  0  0  0  0  0  0
  -25.7940  -32.5750   23.8100 C   0  0  0  0  0  3  0  0  0  0  0  0
  -26.3520  -31.7730   25.0500 C   0  0  1  0  0  0  0  0  0  0  0  0
  -25.3010  -31.5290   26.1570 C   0  0  0  0  0  1  0  0  0  0  0  0
  -26.8990  -30.3960   24.6030 C   0  0  0  0  0  1  0  0  0  0  0  0
  -27.5390  -32.5400   25.6790 C   0  0  0  0  0  1  0  0  0  0  0  0
  -25.5240  -33.9720   24.1710 N   0  0  0  0  0  0  0  0  0  0  0  0
  -25.8700  -35.0290   23.4230 C   0  0  0  0  0  0  0  0  0  0  0  0
  -26.5210  -34.9280   22.3800 O   0  0  0  0  0  0  0  0  0  0  0  0
  -24.9450  -34.1270   24.9840 H   0  0  0  0  0  0  0  0  0  0  0  0
  -24.1890  -36.8730   23.1100 C   0  0  0  0  0  1  0  0  0  0  0  0
  -25.4190  -36.4190   23.9120 C   0  0  0  0  0  3  0  0  0  0  0  0
  -27.5780  -37.2290   24.7570 C   0  0  0  0  0  1  0  0  0  0  0  0
  -26.4800  -37.4470   23.8190 N   0  0  0  0  0  0  0  0  0  0  0  0
  -26.0980  -38.3730   23.9870 H   0  0  0  0  0  0  0  0  0  0  0  0
  2  5  1  0
  3  1  1  0
  4  2  1  0
  4  6  1  0
  5  1  1  0
  5  7  1  0
  6 54  1  0
  6  3  1  0
  8  7  1  0
  9 13  1  0
  9 11  1  0
 10 12  1  0
 11 14  1  0
 13 24  1  0
 13 10  1  0
 14 12  1  0
 14  8  1  0
 14 15  1  1
 16 24  1  0
 17 22  1  0
 18 19  1  0
 18 17  1  0
 20 19  1  0
 20 29  1  0
 20 21  1  0
 22 16  1  0
 22 21  1  0
 23 16  2  0
 24 25  1  0
 26 27  2  0
 27 46  1  0
 28 27  1  0
 28 31  1  0
 29 26  1  0
 29 30  1  0
 30 28  2  0
 31 32  1  0
 32 33  2  0
 34 37  1  0
 34 33  1  0
 35 34  2  0
 36 35  1  0
 36 31  2  0
 37 38  1  0
 38 43  2  0
 38 39  1  0
 39 40  2  0
 40 41  1  0
 41 45  1  0
 42 41  2  0
 43 42  1  0
 44 43  1  0
 46 47  1  0
 47 50  1  0
 47 49  1  0
 48 46  2  0
 51 52  1  0
 51 26  1  0
 53 51  1  0
 55 57  1  0
 55 54  1  0
 56 67  2  0
 57 62  1  0
 58 66  1  0
 58 68  1  0
 59 65  1  0
 59 61  1  0
 60 66  1  0
 61 60  1  0
 62 61  2  0
 63 64  1  0
 63 57  2  0
 64 59  2  0
 65 58  1  0
 66 56  1  0
 68 70  2  0
 69 68  1  0
 71 69  1  0
 72 81  2  0
 72 77  1  0
 73 69  1  0
 73 77  1  0
 74 73  1  0
 75 76  1  0
 75 74  1  0
 76 72  1  0
 77 78  2  0
 78 79  1  0
 80 79  2  0
 81 80  1  0
 82 56  1  0
 82 87  1  0
 82 83  1  0
 83 86  1  1
 83 84  1  0
 85 83  1  0
 87 90  1  0
 88 92  1  0
 88 87  1  0
 89 88  2  0
 92 91  1  0
 94 92  1  0
 94 95  1  0
 94 93  1  0
M  ISO  4  16 100  24 100  54 101  55 101
M  END
>  <TORSDO>  (21) 
F 20

>  <SCORE>  (21) 
-12.517

>  <name>  (21) 
20

>  <ligand_id>  (21) 
20

>  <original_smiles>  (21) 
[H]c1c([H])c([H])c2c(c1[H])C([H])([H])C([H])([H])C([H])([H])C2([H])N([H])C(=O)C1([H])N(C(=O)C([H])(N([H])C(=O)C([H])(N([H])C([H])([H])[H])C([H])([H])[H])C(C([H])([H])[H])(C([H])([H])[H])C([H])([H])[H])C([H])([H])c2c([H])c(OC([H])([H])C3([H])C([H])([H])C([H])([H])C([H])(C([H])([H])C([H])([H])[N+]4([H])C([H])([H])C([H])([H])C([H])(N([H])C(=O)N5C([H])([H])C([H])([H])C([H])([H])C([H])(n6nc(-c7c([H])c([H])c(Oc8c([H])c([H])c(F)c([H])c8F)c([H])c7[H])c(C(=O)N([H])[H])c6N([H])[H])C5([H])[H])C([H])([H])C4([H])[H])C([H])([H])C3([H])[H])c([H])c([H])c2C1([H])[H]

>  <smiles>  (21) 
[H]c1c([H])c([H])c2c(c1[H])C([H])([H])C([H])([H])C([H])([H])C2([H])N([H])C(=O)C1([H])N(C(=O)C([H])(N([H])C(=O)C([H])(N([H])C([H])([H])[H])C([H])([H])[H])C(C([H])([H])[H])(C([H])([H])[H])C([H])([H])[H])C([H])([H])c2c([H])c(OC([H])([H])C3([H])C([H])([H])C([H])([H])C([H])(C([H])([H])C([H])([H])[N+]4([H])C([H])([H])C([H])([H])C([H])(N([H])C(=O)N5C([H])([H])C([H])([H])C([H])([H])C([H])(n6nc(-c7c([H])c([H])c(Oc8c([H])c([H])c(F)c([H])c8F)c([H])c7[H])c(C(=O)N([H])[H])c6N([H])[H])C5([H])[H])C([H])([H])C4([H])[H])C([H])([H])C3([H])[H])c([H])c([H])c2C1([H])[H]

$$$$
21:0:0
     RDKit          3D

 99109  0  0  1  0  0  0  0  0999 V2000
  -30.5860  -13.9710   19.9430 C   0  0  0  0  0  0  0  0  0  0  0  0
  -30.3830  -11.6780   19.0410 C   0  0  0  0  0  2  0  0  0  0  0  0
  -29.4080  -11.6990   17.8450 C   0  0  0  0  0  2  0  0  0  0  0  0
  -27.9540  -11.5360   18.3280 C   0  0  0  0  0  2  0  0  0  0  0  0
  -27.5990  -12.4850   19.5060 C   0  0  0  0  0  3  0  0  0  0  0  0
  -28.6870  -12.4520   20.6020 C   0  0  0  0  0  2  0  0  0  0  0  0
  -29.9750  -12.7520   19.9600 N   0  0  0  0  0  0  0  0  0  0  0  0
  -31.7320  -14.1270   19.5090 O   0  0  0  0  0  0  0  0  0  0  0  0
  -30.3130  -18.9130   22.6650 C   0  0  0  0  0  0  0  0  0  0  0  0
  -29.2610  -18.4950   18.5710 C   0  0  0  0  0  2  0  0  0  0  0  0
  -29.4590  -15.9160   18.9580 C   0  0  0  0  0  2  0  0  0  0  0  0
  -29.8540  -15.9480   21.2660 C   0  0  0  0  0  2  0  0  0  0  0  0
  -28.6760  -19.2840   20.8080 C   0  0  0  0  0  2  0  0  0  0  0  0
  -30.0470  -17.3200   19.2270 C   0  0  0  0  0  3  0  0  0  0  0  0
  -30.2840  -17.3470   20.7540 C   0  0  0  0  0  3  0  0  0  0  0  0
  -29.2010  -19.7730   19.4410 C   0  0  0  0  0  3  0  0  0  0  0  0
  -29.7350  -18.5180   21.4940 N   0  0  0  0  0  0  0  0  0  0  0  0
  -29.7630  -15.0450   20.1070 N   0  0  0  0  0  0  0  0  0  0  0  0
  -31.1110  -18.1830   23.2620 O   0  0  0  0  0  0  0  0  0  0  0  0
  -25.2170  -13.0620   20.2840 C   0  0  0  0  0  0  0  0  0  0  0  0
  -24.1820  -12.2800   20.7160 C   0  0  0  0  0  0  0  0  0  0  0  0
  -24.6710  -10.9380   20.7140 C   0  0  0  0  0  0  0  0  0  0  0  0
  -26.2740  -12.1970   20.0450 N   0  0  0  0  0  0  0  0  0  0  0  0
  -25.9510  -10.9160   20.3620 N   0  0  0  0  0  0  0  0  0  0  0  0
  -23.9810   -9.6680   20.9710 C   0  0  0  0  0  0  0  0  0  0  0  0
  -24.4150   -8.7820   21.9810 C   0  0  0  0  0  3  0  0  0  0  0  0
  -23.7220   -7.5760   22.2210 C   0  0  0  0  0  3  0  0  0  0  0  0
  -22.5800   -7.2460   21.4520 C   0  0  0  0  0  0  0  0  0  0  0  0
  -22.1650   -8.1220   20.4330 C   0  0  0  0  0  3  0  0  0  0  0  0
  -22.8590   -9.3200   20.1920 C   0  0  0  0  0  3  0  0  0  0  0  0
  -21.8610   -6.0860   21.5990 O   0  0  0  0  0  0  0  0  0  0  0  0
  -21.7070   -5.4830   22.8220 C   0  0  0  0  0  0  0  0  0  0  0  0
  -21.0510   -6.1270   23.8940 C   0  0  0  0  0  3  0  0  0  0  0  0
  -20.8560   -5.4450   25.1110 C   0  0  0  0  0  3  0  0  0  0  0  0
  -21.3040   -4.1190   25.2570 C   0  0  0  0  0  0  0  0  0  0  0  0
  -21.9510   -3.4740   24.1880 C   0  0  0  0  0  3  0  0  0  0  0  0
  -22.1500   -4.1540   22.9740 C   0  0  0  0  0  0  0  0  0  0  0  0
  -22.7570   -3.5200   21.9410 F   0  0  0  0  0  0  0  0  0  0  0  0
  -21.1090   -3.4590   26.4230 F   0  0  0  0  0  0  0  0  0  0  0  0
  -22.7840  -12.7370   21.0240 C   0  0  0  0  0  0  0  0  0  0  0  0
  -22.1200  -12.0810   21.9680 N   0  0  0  0  0  0  0  0  0  0  0  0
  -22.2920  -13.7140   20.4580 O   0  0  0  0  0  0  0  0  0  0  0  0
  -22.5320  -11.2920   22.4460 H   0  0  0  0  0  0  0  0  0  0  0  0
  -21.1870  -12.3730   22.2230 H   0  0  0  0  0  0  0  0  0  0  0  0
  -25.3470  -14.4300   20.0550 N   0  0  0  0  0  0  0  0  0  0  0  0
  -24.5710  -15.0720   20.1690 H   0  0  0  0  0  0  0  0  0  0  0  0
  -26.1850  -14.8730   19.7010 H   0  0  0  0  0  0  0  0  0  0  0  0
  -28.3810  -20.8530   18.8020 N   0  0  0  0  0  4  0  0  0  0  0  0
  -27.5030  -20.4740   18.4840 H   0  0  0  0  0  0  0  0  0  0  0  0
  -28.8850  -21.1530   17.9820 H   0  0  0  0  0  0  0  0  0  0  0  0
  -28.1190  -22.0740   19.6260 C   0  0  0  0  0  2  0  0  0  0  0  0
  -27.8170  -23.3690   18.8030 C   0  0  0  0  0  2  0  0  0  0  0  0
  -27.5710  -24.6270   19.6880 C   0  0  0  0  0  2  0  0  0  0  0  0
  -27.6170  -25.8870   18.9850 O   0  0  0  0  0  0  0  0  0  0  0  0
  -24.6550  -30.9970   23.0070 C   0  0  0  0  0  0  0  0  0  0  0  0
  -26.5490  -26.7340   19.1950 C   0  0  0  0  0  0  0  0  0  0  0  0
  -23.1760  -29.9330   21.3340 C   0  0  0  0  0  3  0  0  0  0  0  0
  -24.3370  -28.4540   19.6090 C   0  0  0  0  0  0  0  0  0  0  0  0
  -25.7020  -30.0720   20.9400 C   0  0  0  0  0  2  0  0  0  0  0  0
  -25.5910  -28.7880   20.1370 C   0  0  0  0  0  0  0  0  0  0  0  0
  -26.7030  -27.9410   19.9210 C   0  0  0  0  0  3  0  0  0  0  0  0
  -25.2780  -26.4110   18.6740 C   0  0  0  0  0  3  0  0  0  0  0  0
  -24.1750  -27.2630   18.8790 C   0  0  0  0  0  3  0  0  0  0  0  0
  -23.2000  -29.4160   19.8720 C   0  0  0  0  0  2  0  0  0  0  0  0
  -24.5360  -30.3410   21.8180 N   0  0  0  0  0  0  0  0  0  0  0  0
  -23.6580  -31.2980   23.6770 O   0  0  0  0  0  0  0  0  0  0  0  0
  -22.5020  -28.8660   22.2270 C   0  0  0  0  0  0  0  0  0  0  0  0
  -21.1650  -28.7770   22.1460 N   0  0  0  0  0  0  0  0  0  0  0  0
  -23.1790  -28.1260   22.9460 O   0  0  0  0  0  0  0  0  0  0  0  0
  -20.6850  -29.4250   21.5370 H   0  0  0  0  0  0  0  0  0  0  0  0
  -17.7530  -27.6870   22.6250 C   0  0  0  0  0  0  0  0  0  0  0  0
  -20.3220  -27.8210   22.8650 C   0  0  0  0  0  3  0  0  0  0  0  0
  -20.3580  -26.4330   22.1870 C   0  0  0  0  0  2  0  0  0  0  0  0
  -19.2280  -26.2270   21.1740 C   0  0  0  0  0  2  0  0  0  0  0  0
  -17.8620  -26.3830   21.8510 C   0  0  0  0  0  2  0  0  0  0  0  0
  -18.9100  -28.3700   23.0870 C   0  0  0  0  0  0  0  0  0  0  0  0
  -18.7550  -29.5960   23.7680 C   0  0  0  0  0  3  0  0  0  0  0  0
  -17.4760  -30.1390   23.9940 C   0  0  0  0  0  3  0  0  0  0  0  0
  -16.3330  -29.4490   23.5500 C   0  0  0  0  0  3  0  0  0  0  0  0
  -16.4730  -28.2250   22.8720 C   0  0  0  0  0  3  0  0  0  0  0  0
  -26.0470  -31.4190   23.5710 C   0  0  0  0  0  3  0  0  0  0  0  0
  -25.9360  -32.8080   24.0360 N   0  0  0  0  0  0  0  0  0  0  0  0
  -26.3910  -33.8730   23.3630 C   0  0  0  0  0  0  0  0  0  0  0  0
  -27.0240  -33.7800   22.3070 O   0  0  0  0  0  0  0  0  0  0  0  0
  -25.3770  -32.9650   24.8620 H   0  0  0  0  0  0  0  0  0  0  0  0
  -24.9350  -35.9190   23.1970 C   0  0  0  0  0  1  0  0  0  0  0  0
  -26.0980  -35.2630   23.9580 C   0  0  0  0  0  3  0  0  0  0  0  0
  -28.3170  -35.7650   24.8840 C   0  0  0  0  0  1  0  0  0  0  0  0
  -27.2700  -36.1670   23.9480 N   0  0  0  0  0  0  0  0  0  0  0  0
  -26.9900  -37.1180   24.1770 H   0  0  0  0  0  0  0  0  0  0  0  0
  -26.5610  -30.4810   24.7330 C   0  0  1  0  0  0  0  0  0  0  0  0
  -25.5360  -30.2910   25.8760 C   0  0  0  0  0  1  0  0  0  0  0  0
  -26.9220  -29.0810   24.1850 C   0  0  0  0  0  1  0  0  0  0  0  0
  -27.8580  -31.0630   25.3410 C   0  0  0  0  0  1  0  0  0  0  0  0
  -30.0300  -20.3090   23.2750 C   0  0  0  0  0  2  0  0  0  0  0  0
  -31.3190  -23.0630   22.4510 C   0  0  0  0  0  2  0  0  0  0  0  0
  -31.1110  -22.6360   23.9040 C   0  0  0  0  0  2  0  0  0  0  0  0
  -32.0060  -21.7160   22.2180 C   0  0  0  0  0  2  0  0  0  0  0  0
  -31.2880  -21.1690   23.4670 C   0  0  0  0  0  3  0  0  0  0  0  0
  1  7  1  0
  1 18  1  0
  2  7  1  0
  3  4  1  0
  3  2  1  0
  5  4  1  0
  5 23  1  0
  5  6  1  0
  7  6  1  0
  8  1  2  0
  9 19  2  0
  9 95  1  0
 10 16  1  0
 11 14  1  0
 11 18  1  0
 13 17  1  0
 14 10  1  0
 14 15  1  0
 15 12  1  0
 15 17  1  0
 16 48  1  0
 16 13  1  0
 17  9  1  0
 18 12  1  0
 20 21  2  0
 21 40  1  0
 22 21  1  0
 22 25  1  0
 23 20  1  0
 23 24  1  0
 24 22  2  0
 25 26  1  0
 26 27  2  0
 28 31  1  0
 28 27  1  0
 29 28  2  0
 30 29  1  0
 30 25  2  0
 31 32  1  0
 32 37  2  0
 32 33  1  0
 33 34  2  0
 34 35  1  0
 35 39  1  0
 36 35  2  0
 37 36  1  0
 38 37  1  0
 40 41  1  0
 41 44  1  0
 41 43  1  0
 42 40  2  0
 45 46  1  0
 45 20  1  0
 47 45  1  0
 48 51  1  0
 49 48  1  0
 50 48  1  0
 52 51  1  0
 52 53  1  0
 54 56  1  0
 54 53  1  0
 55 66  2  0
 56 61  1  0
 57 65  1  0
 57 67  1  0
 58 64  1  0
 58 60  1  0
 59 65  1  0
 60 59  1  0
 61 60  2  0
 62 63  1  0
 62 56  2  0
 63 58  2  0
 64 57  1  0
 65 55  1  0
 67 69  2  0
 68 67  1  0
 70 68  1  0
 71 80  2  0
 71 76  1  0
 72 68  1  0
 72 76  1  0
 73 72  1  0
 74 75  1  0
 74 73  1  0
 75 71  1  0
 76 77  2  0
 77 78  1  0
 79 78  2  0
 80 79  1  0
 81 55  1  0
 81 82  1  0
 81 91  1  0
 82 85  1  0
 83 87  1  0
 83 82  1  0
 84 83  2  0
 87 86  1  0
 89 87  1  0
 89 90  1  0
 89 88  1  0
 91 94  1  1
 91 92  1  0
 93 91  1  0
 95 99  1  0
 96 97  1  0
 98 96  1  0
 98 99  1  0
 99 97  1  0
M  ISO  4   1 100  18 100  53 101  54 101
M  END
>  <TORSDO>  (22) 
F 21

>  <SCORE>  (22) 
-7.009

>  <name>  (22) 
21

>  <ligand_id>  (22) 
21

>  <original_smiles>  (22) 
[H]c1c([H])c([H])c2c(c1[H])C([H])([H])C([H])([H])C([H])([H])C2([H])N([H])C(=O)C1([H])N(C(=O)C([H])(N([H])C(=O)C([H])(N([H])C([H])([H])[H])C([H])([H])[H])C(C([H])([H])[H])(C([H])([H])[H])C([H])([H])[H])C([H])([H])c2c([H])c(OC([H])([H])C([H])([H])C([H])([H])[N+]([H])([H])C3([H])C([H])([H])N(C(=O)C([H])([H])C4([H])C([H])([H])C([H])([H])C4([H])[H])C4([H])C([H])([H])N(C(=O)N5C([H])([H])C([H])([H])C([H])([H])C([H])(n6nc(-c7c([H])c([H])c(Oc8c([H])c([H])c(F)c([H])c8F)c([H])c7[H])c(C(=O)N([H])[H])c6N([H])[H])C5([H])[H])C([H])([H])C4([H])C3([H])[H])c([H])c([H])c2C1([H])[H]

>  <smiles>  (22) 
[H]c1c([H])c([H])c2c(c1[H])C([H])([H])C([H])([H])C([H])([H])C2([H])N([H])C(=O)C1([H])N(C(=O)C([H])(N([H])C(=O)C([H])(N([H])C([H])([H])[H])C([H])([H])[H])C(C([H])([H])[H])(C([H])([H])[H])C([H])([H])[H])C([H])([H])c2c([H])c(OC([H])([H])C([H])([H])C([H])([H])[N+]([H])([H])C3([H])C([H])([H])N(C(=O)C([H])([H])C4([H])C([H])([H])C([H])([H])C4([H])[H])C4([H])C([H])([H])N(C(=O)N5C([H])([H])C([H])([H])C([H])([H])C([H])(n6nc(-c7c([H])c([H])c(Oc8c([H])c([H])c(F)c([H])c8F)c([H])c7[H])c(C(=O)N([H])[H])c6N([H])[H])C5([H])[H])C([H])([H])C4([H])C3([H])[H])c([H])c([H])c2C1([H])[H]

$$$$
22:0:0
     RDKit          3D

 91 99  0  0  1  0  0  0  0  0999 V2000
  -29.8970  -21.9570   20.8470 C   0  0  0  0  0  2  0  0  0  0  0  0
  -28.9880  -22.9570   20.2750 N   0  0  0  0  0  0  0  0  0  0  0  0
  -28.0510  -22.7950   20.6380 H   0  0  0  0  0  0  0  0  0  0  0  0
  -29.3460  -24.3580   20.5320 C   0  0  0  0  0  2  0  0  0  0  0  0
  -28.2170  -25.2600   19.9730 C   0  0  0  0  0  2  0  0  0  0  0  0
  -28.3640  -26.6730   20.2170 O   0  0  0  0  0  0  0  0  0  0  0  0
  -24.5890  -31.8960   23.2690 C   0  0  0  0  0  0  0  0  0  0  0  0
  -27.2030  -27.4330   20.1730 C   0  0  0  0  0  0  0  0  0  0  0  0
  -23.3730  -30.5020   21.6290 C   0  0  0  0  0  3  0  0  0  0  0  0
  -24.8160  -28.9680   20.1930 C   0  0  0  0  0  0  0  0  0  0  0  0
  -25.9030  -30.8460   21.4260 C   0  0  0  0  0  2  0  0  0  0  0  0
  -25.9800  -29.4770   20.7810 C   0  0  0  0  0  0  0  0  0  0  0  0
  -27.1750  -28.7170   20.7680 C   0  0  0  0  0  3  0  0  0  0  0  0
  -26.0160  -26.9560   19.5600 C   0  0  0  0  0  3  0  0  0  0  0  0
  -24.8300  -27.7070   19.5800 C   0  0  0  0  0  3  0  0  0  0  0  0
  -23.5750  -29.8310   20.2470 C   0  0  0  0  0  2  0  0  0  0  0  0
  -24.6410  -31.0960   22.1660 N   0  0  0  0  0  0  0  0  0  0  0  0
  -23.5100  -32.1710   23.8120 O   0  0  0  0  0  0  0  0  0  0  0  0
  -22.7220  -29.4790   22.5880 C   0  0  0  0  0  0  0  0  0  0  0  0
  -21.3960  -29.2990   22.4630 N   0  0  0  0  0  0  0  0  0  0  0  0
  -23.4060  -28.8510   23.4020 O   0  0  0  0  0  0  0  0  0  0  0  0
  -20.9060  -29.8580   21.7790 H   0  0  0  0  0  0  0  0  0  0  0  0
  -18.0210  -28.1070   22.9600 C   0  0  0  0  0  0  0  0  0  0  0  0
  -20.5790  -28.3630   23.2340 C   0  0  0  0  0  3  0  0  0  0  0  0
  -20.6800  -26.9310   22.6590 C   0  0  0  0  0  2  0  0  0  0  0  0
  -19.5790  -26.6090   21.6440 C   0  0  0  0  0  2  0  0  0  0  0  0
  -18.1970  -26.7570   22.2870 C   0  0  0  0  0  2  0  0  0  0  0  0
  -19.1400  -28.8680   23.3900 C   0  0  0  0  0  0  0  0  0  0  0  0
  -18.9230  -30.1340   23.9780 C   0  0  0  0  0  3  0  0  0  0  0  0
  -17.6190  -30.6360   24.1420 C   0  0  0  0  0  3  0  0  0  0  0  0
  -16.5150  -29.8730   23.7280 C   0  0  0  0  0  3  0  0  0  0  0  0
  -16.7160  -28.6100   23.1430 C   0  0  0  0  0  3  0  0  0  0  0  0
  -25.8790  -32.5210   23.8840 C   0  0  0  0  0  3  0  0  0  0  0  0
  -25.5790  -33.9210   24.2110 N   0  0  0  0  0  0  0  0  0  0  0  0
  -25.9110  -34.9680   23.4450 C   0  0  0  0  0  0  0  0  0  0  0  0
  -26.5740  -34.8590   22.4100 O   0  0  0  0  0  0  0  0  0  0  0  0
  -24.9880  -34.0810   25.0140 H   0  0  0  0  0  0  0  0  0  0  0  0
  -24.1860  -36.7650   23.0920 C   0  0  0  0  0  1  0  0  0  0  0  0
  -25.4300  -36.3610   23.8990 C   0  0  0  0  0  3  0  0  0  0  0  0
  -27.5750  -37.2390   24.7090 C   0  0  0  0  0  1  0  0  0  0  0  0
  -26.4640  -37.4100   23.7760 N   0  0  0  0  0  0  0  0  0  0  0  0
  -26.0610  -38.3310   23.9300 H   0  0  0  0  0  0  0  0  0  0  0  0
  -26.3980  -31.7490   25.1590 C   0  0  1  0  0  0  0  0  0  0  0  0
  -25.3090  -31.5180   26.2330 C   0  0  0  0  0  1  0  0  0  0  0  0
  -26.9700  -30.3670   24.7650 C   0  0  0  0  0  1  0  0  0  0  0  0
  -27.5560  -32.5370   25.8150 C   0  0  0  0  0  1  0  0  0  0  0  0
  -29.3990  -20.5350   20.4620 C   0  0  0  0  0  2  0  0  0  0  0  0
  -30.1460  -19.4060   21.0860 N   0  0  0  0  0  4  0  0  0  0  0  0
  -31.1180  -19.4720   20.8320 H   0  0  0  0  0  0  0  0  0  0  0  0
  -30.0840  -19.5080   22.0870 H   0  0  0  0  0  0  0  0  0  0  0  0
  -30.6650  -14.5400   20.4910 C   0  0  0  0  0  0  0  0  0  0  0  0
  -30.3820  -12.3340   19.4420 C   0  0  0  0  0  2  0  0  0  0  0  0
  -29.4490  -12.4840   18.2220 C   0  0  0  0  0  2  0  0  0  0  0  0
  -27.9740  -12.3410   18.6480 C   0  0  0  0  0  2  0  0  0  0  0  0
  -27.6120  -13.2090   19.8820 C   0  0  0  0  0  3  0  0  0  0  0  0
  -28.6690  -13.0820   21.0030 C   0  0  0  0  0  2  0  0  0  0  0  0
  -29.9880  -13.3610   20.4160 N   0  0  0  0  0  0  0  0  0  0  0  0
  -31.8630  -14.6430   20.2200 O   0  0  0  0  0  0  0  0  0  0  0  0
  -29.7430  -17.7100   19.2440 C   0  0  0  0  0  2  0  0  0  0  0  0
  -29.4360  -16.2150   19.2550 C   0  0  0  0  0  2  0  0  0  0  0  0
  -30.2690  -16.8280   21.3800 C   0  0  0  0  0  2  0  0  0  0  0  0
  -29.6140  -18.0620   20.7140 C   0  0  0  0  0  3  0  0  0  0  0  0
  -29.8950  -15.6590   20.5490 N   0  0  0  0  0  0  0  0  0  0  0  0
  -25.2180  -13.8340   20.5780 C   0  0  0  0  0  0  0  0  0  0  0  0
  -24.1440  -13.0670   20.9380 C   0  0  0  0  0  0  0  0  0  0  0  0
  -24.6040  -11.7150   20.9180 C   0  0  0  0  0  0  0  0  0  0  0  0
  -26.2610  -12.9460   20.3600 N   0  0  0  0  0  0  0  0  0  0  0  0
  -25.8960  -11.6680   20.6260 N   0  0  0  0  0  0  0  0  0  0  0  0
  -23.8770  -10.4540   21.1040 C   0  0  0  0  0  0  0  0  0  0  0  0
  -24.3180   -9.4780   22.0230 C   0  0  0  0  0  3  0  0  0  0  0  0
  -23.5930   -8.2800   22.1970 C   0  0  0  0  0  3  0  0  0  0  0  0
  -22.4120   -8.0510   21.4510 C   0  0  0  0  0  0  0  0  0  0  0  0
  -21.9920   -9.0160   20.5190 C   0  0  0  0  0  3  0  0  0  0  0  0
  -22.7180  -10.2050   20.3430 C   0  0  0  0  0  3  0  0  0  0  0  0
  -21.6570   -6.9060   21.5350 O   0  0  0  0  0  0  0  0  0  0  0  0
  -21.6320   -6.1450   22.6750 C   0  0  0  0  0  0  0  0  0  0  0  0
  -21.2450   -6.6820   23.9220 C   0  0  0  0  0  3  0  0  0  0  0  0
  -21.1660   -5.8470   25.0550 C   0  0  0  0  0  3  0  0  0  0  0  0
  -21.4640   -4.4750   24.9410 C   0  0  0  0  0  0  0  0  0  0  0  0
  -21.8450   -3.9380   23.6990 C   0  0  0  0  0  3  0  0  0  0  0  0
  -21.9260   -4.7710   22.5690 C   0  0  0  0  0  0  0  0  0  0  0  0
  -22.2730   -4.2430   21.3700 F   0  0  0  0  0  0  0  0  0  0  0  0
  -21.3810   -3.6710   26.0270 F   0  0  0  0  0  0  0  0  0  0  0  0
  -22.7450  -13.5470   21.1910 C   0  0  0  0  0  0  0  0  0  0  0  0
  -22.0070  -12.8550   22.0530 N   0  0  0  0  0  0  0  0  0  0  0  0
  -22.3130  -14.5700   20.6610 O   0  0  0  0  0  0  0  0  0  0  0  0
  -22.3690  -12.0270   22.5030 H   0  0  0  0  0  0  0  0  0  0  0  0
  -21.0670  -13.1580   22.2660 H   0  0  0  0  0  0  0  0  0  0  0  0
  -25.3890  -15.2040   20.3960 N   0  0  0  0  0  0  0  0  0  0  0  0
  -24.6250  -15.8640   20.5020 H   0  0  0  0  0  0  0  0  0  0  0  0
  -26.2520  -15.6400   20.1020 H   0  0  0  0  0  0  0  0  0  0  0  0
  2  4  1  0
  2  3  1  0
  2  1  1  0
  5  6  1  0
  5  4  1  0
  7 18  2  0
  8  6  1  0
  8 13  1  0
  9 17  1  0
  9 19  1  0
 10 16  1  0
 10 12  1  0
 11 17  1  0
 12 11  1  0
 13 12  2  0
 14 15  1  0
 14  8  2  0
 15 10  2  0
 16  9  1  0
 17  7  1  0
 19 21  2  0
 20 19  1  0
 22 20  1  0
 23 32  2  0
 23 28  1  0
 24 20  1  0
 24 28  1  0
 25 24  1  0
 26 27  1  0
 26 25  1  0
 27 23  1  0
 28 29  2  0
 29 30  1  0
 31 30  2  0
 32 31  1  0
 33  7  1  0
 33 34  1  0
 33 43  1  0
 34 37  1  0
 35 39  1  0
 35 34  1  0
 36 35  2  0
 39 38  1  0
 41 39  1  0
 41 42  1  0
 41 40  1  0
 43 46  1  1
 43 44  1  0
 45 43  1  0
 47  1  1  0
 47 48  1  0
 48 50  1  0
 49 48  1  0
 51 63  1  0
 52 57  1  0
 53 54  1  0
 53 52  1  0
 55 54  1  0
 55 67  1  0
 55 56  1  0
 57 51  1  0
 57 56  1  0
 58 51  2  0
 59 60  1  0
 59 62  1  0
 60 63  1  0
 62 48  1  0
 62 61  1  0
 63 61  1  0
 64 65  2  0
 65 84  1  0
 66 65  1  0
 66 69  1  0
 67 64  1  0
 67 68  1  0
 68 66  2  0
 69 70  1  0
 70 71  2  0
 72 75  1  0
 72 71  1  0
 73 72  2  0
 74 73  1  0
 74 69  2  0
 75 76  1  0
 76 77  1  0
 77 78  2  0
 79 78  1  0
 79 83  1  0
 80 79  2  0
 81 76  2  0
 81 80  1  0
 82 81  1  0
 84 85  1  0
 85 88  1  0
 85 87  1  0
 86 84  2  0
 89 90  1  0
 89 64  1  0
 91 89  1  0
M  ISO  4   5 101   6 101  51 100  63 100
M  END
>  <TORSDO>  (23) 
F 21

>  <SCORE>  (23) 
-13.524

>  <name>  (23) 
22

>  <ligand_id>  (23) 
22

>  <original_smiles>  (23) 
[H]c1c([H])c([H])c2c(c1[H])C([H])([H])C([H])([H])C([H])([H])C2([H])N([H])C(=O)C1([H])N(C(=O)C([H])(N([H])C(=O)C([H])(N([H])C([H])([H])[H])C([H])([H])[H])C(C([H])([H])[H])(C([H])([H])[H])C([H])([H])[H])C([H])([H])c2c([H])c(OC([H])([H])C([H])([H])N([H])C([H])([H])C([H])([H])[N+]([H])([H])C3([H])C([H])([H])N(C(=O)N4C([H])([H])C([H])([H])C([H])([H])C([H])(n5nc(-c6c([H])c([H])c(Oc7c([H])c([H])c(F)c([H])c7F)c([H])c6[H])c(C(=O)N([H])[H])c5N([H])[H])C4([H])[H])C([H])([H])C3([H])[H])c([H])c([H])c2C1([H])[H]

>  <smiles>  (23) 
[H]c1c([H])c([H])c2c(c1[H])C([H])([H])C([H])([H])C([H])([H])C2([H])N([H])C(=O)C1([H])N(C(=O)C([H])(N([H])C(=O)C([H])(N([H])C([H])([H])[H])C([H])([H])[H])C(C([H])([H])[H])(C([H])([H])[H])C([H])([H])[H])C([H])([H])c2c([H])c(OC([H])([H])C([H])([H])N([H])C([H])([H])C([H])([H])[N+]([H])([H])C3([H])C([H])([H])N(C(=O)N4C([H])([H])C([H])([H])C([H])([H])C([H])(n5nc(-c6c([H])c([H])c(Oc7c([H])c([H])c(F)c([H])c7F)c([H])c6[H])c(C(=O)N([H])[H])c5N([H])[H])C4([H])[H])C([H])([H])C3([H])[H])c([H])c([H])c2C1([H])[H]

$$$$
23:0:0
     RDKit          3D

 95104  0  0  1  0  0  0  0  0999 V2000
  -27.2460  -23.2530   22.5420 C   0  0  0  0  0  2  0  0  0  0  0  0
  -26.1340  -23.3260   21.4750 C   0  0  0  0  0  2  0  0  0  0  0  0
  -28.4960  -22.4770   22.0380 C   0  0  0  0  0  2  0  0  0  0  0  0
  -26.6070  -23.9330   20.1250 C   0  0  0  0  0  2  0  0  0  0  0  0
  -28.6420  -22.5070   20.4970 C   0  0  0  0  0  3  0  0  0  0  0  0
  -28.1530  -23.9700   19.9170 C   0  0  0  0  0  3  0  0  0  0  0  0
  -29.8270  -21.5940   19.8610 C   0  0  0  0  0  2  0  0  0  0  0  0
  -31.4280  -19.3940   18.1130 C   0  0  0  0  0  2  0  0  0  0  0  0
  -32.4460  -19.6260   19.2520 C   0  0  0  0  0  2  0  0  0  0  0  0
  -30.1150  -18.7130   18.5810 C   0  0  0  0  0  2  0  0  0  0  0  0
  -31.8360  -20.2510   20.5470 C   0  0  0  0  0  2  0  0  0  0  0  0
  -29.8590  -18.8640   20.1010 C   0  0  0  0  0  3  0  0  0  0  0  0
  -30.3390  -20.2770   20.5430 N   0  0  2  0  0  4  0  0  0  0  0  0
  -30.0870  -20.3760   21.5160 H   0  0  0  0  0  0  0  0  0  0  0  0
  -30.5110  -17.5690   20.8890 C   0  0  0  0  0  2  0  0  0  0  0  0
  -30.8590  -15.0030   20.3270 C   0  0  0  0  0  0  0  0  0  0  0  0
  -30.6740  -12.7230   19.3100 C   0  0  0  0  0  2  0  0  0  0  0  0
  -29.7300  -12.7940   18.0890 C   0  0  0  0  0  2  0  0  0  0  0  0
  -28.2600  -12.6150   18.5150 C   0  0  0  0  0  2  0  0  0  0  0  0
  -27.8970  -13.4890   19.7440 C   0  0  0  0  0  3  0  0  0  0  0  0
  -28.9570  -13.4060   20.8610 C   0  0  0  0  0  2  0  0  0  0  0  0
  -30.2470  -13.7720   20.2610 N   0  0  0  0  0  0  0  0  0  0  0  0
  -32.0320  -15.1240   19.9670 O   0  0  0  0  0  0  0  0  0  0  0  0
  -30.0910  -16.1160   20.6440 N   0  0  0  0  0  0  0  0  0  0  0  0
  -29.1380  -15.8980   20.8980 H   0  0  0  0  0  0  0  0  0  0  0  0
  -25.5260  -14.0710   20.5150 C   0  0  0  0  0  0  0  0  0  0  0  0
  -24.4670  -13.2940   20.8910 C   0  0  0  0  0  0  0  0  0  0  0  0
  -24.9260  -11.9410   20.8280 C   0  0  0  0  0  0  0  0  0  0  0  0
  -26.5630  -13.1940   20.2480 N   0  0  0  0  0  0  0  0  0  0  0  0
  -26.2130  -11.9070   20.5030 N   0  0  0  0  0  0  0  0  0  0  0  0
  -24.2010  -10.6780   21.0140 C   0  0  0  0  0  0  0  0  0  0  0  0
  -24.6110   -9.7290   21.9770 C   0  0  0  0  0  3  0  0  0  0  0  0
  -23.8940   -8.5260   22.1480 C   0  0  0  0  0  3  0  0  0  0  0  0
  -22.7470   -8.2630   21.3580 C   0  0  0  0  0  0  0  0  0  0  0  0
  -22.3530   -9.2010   20.3890 C   0  0  0  0  0  3  0  0  0  0  0  0
  -23.0710  -10.3980   20.2170 C   0  0  0  0  0  3  0  0  0  0  0  0
  -22.0040   -7.1120   21.4380 O   0  0  0  0  0  0  0  0  0  0  0  0
  -21.8880   -6.4090   22.6120 C   0  0  0  0  0  0  0  0  0  0  0  0
  -21.3350   -6.9860   23.7750 C   0  0  0  0  0  3  0  0  0  0  0  0
  -21.1690   -6.2060   24.9370 C   0  0  0  0  0  3  0  0  0  0  0  0
  -21.5480   -4.8500   24.9370 C   0  0  0  0  0  0  0  0  0  0  0  0
  -22.0900   -4.2720   23.7760 C   0  0  0  0  0  3  0  0  0  0  0  0
  -22.2570   -5.0490   22.6150 C   0  0  0  0  0  0  0  0  0  0  0  0
  -22.7640   -4.4810   21.4930 F   0  0  0  0  0  0  0  0  0  0  0  0
  -21.3790   -4.0980   26.0500 F   0  0  0  0  0  0  0  0  0  0  0  0
  -23.0740  -13.7660   21.1910 C   0  0  0  0  0  0  0  0  0  0  0  0
  -22.3640  -13.0540   22.0610 N   0  0  0  0  0  0  0  0  0  0  0  0
  -22.6270  -14.7970   20.6900 O   0  0  0  0  0  0  0  0  0  0  0  0
  -22.7450  -12.2210   22.4840 H   0  0  0  0  0  0  0  0  0  0  0  0
  -21.4280  -13.3430   22.3050 H   0  0  0  0  0  0  0  0  0  0  0  0
  -25.7000  -15.4440   20.3470 N   0  0  0  0  0  0  0  0  0  0  0  0
  -24.9440  -16.1120   20.4430 H   0  0  0  0  0  0  0  0  0  0  0  0
  -26.5430  -15.8520   19.9610 H   0  0  0  0  0  0  0  0  0  0  0  0
  -28.7160  -25.3910   20.4900 C   0  0  0  0  0  2  0  0  0  0  0  0
  -28.5750  -26.7490   19.8810 O   0  0  0  0  0  0  0  0  0  0  0  0
  -24.6770  -31.8750   23.3120 C   0  0  0  0  0  0  0  0  0  0  0  0
  -27.4290  -27.5500   20.0120 C   0  0  0  0  0  0  0  0  0  0  0  0
  -23.5300  -30.5530   21.5700 C   0  0  0  0  0  3  0  0  0  0  0  0
  -25.0350  -29.1160   20.0780 C   0  0  0  0  0  0  0  0  0  0  0  0
  -26.0660  -30.9200   21.4570 C   0  0  0  0  0  2  0  0  0  0  0  0
  -26.1830  -29.5820   20.7350 C   0  0  0  0  0  0  0  0  0  0  0  0
  -27.3840  -28.8080   20.6960 C   0  0  0  0  0  3  0  0  0  0  0  0
  -26.2790  -27.1730   19.2950 C   0  0  0  0  0  3  0  0  0  0  0  0
  -25.0880  -27.9190   19.3500 C   0  0  0  0  0  3  0  0  0  0  0  0
  -23.7810  -29.9640   20.1560 C   0  0  0  0  0  2  0  0  0  0  0  0
  -24.7750  -31.1310   22.1690 N   0  0  0  0  0  0  0  0  0  0  0  0
  -23.5820  -32.0970   23.8450 O   0  0  0  0  0  0  0  0  0  0  0  0
  -22.8770  -29.4660   22.4580 C   0  0  0  0  0  0  0  0  0  0  0  0
  -21.5620  -29.2430   22.2750 N   0  0  0  0  0  0  0  0  0  0  0  0
  -23.5510  -28.8320   23.2720 O   0  0  0  0  0  0  0  0  0  0  0  0
  -21.0780  -29.8120   21.5930 H   0  0  0  0  0  0  0  0  0  0  0  0
  -18.2290  -27.8840   22.5910 C   0  0  0  0  0  0  0  0  0  0  0  0
  -20.7600  -28.2390   22.9740 C   0  0  0  0  0  3  0  0  0  0  0  0
  -20.9470  -26.8400   22.3460 C   0  0  0  0  0  2  0  0  0  0  0  0
  -19.9000  -26.5130   21.2770 C   0  0  0  0  0  2  0  0  0  0  0  0
  -18.4880  -26.5730   21.8670 C   0  0  0  0  0  2  0  0  0  0  0  0
  -19.2940  -28.6720   23.0970 C   0  0  0  0  0  0  0  0  0  0  0  0
  -18.9980  -29.8970   23.7310 C   0  0  0  0  0  3  0  0  0  0  0  0
  -17.6670  -30.3350   23.8680 C   0  0  0  0  0  3  0  0  0  0  0  0
  -16.6140  -29.5430   23.3810 C   0  0  0  0  0  3  0  0  0  0  0  0
  -16.8940  -28.3200   22.7450 C   0  0  0  0  0  3  0  0  0  0  0  0
  -25.9390  -32.4980   23.9880 C   0  0  0  0  0  3  0  0  0  0  0  0
  -26.4150  -31.7020   25.2690 C   0  0  1  0  0  0  0  0  0  0  0  0
  -25.2800  -31.4360   26.2870 C   0  0  0  0  0  1  0  0  0  0  0  0
  -27.0270  -30.3350   24.8780 C   0  0  0  0  0  1  0  0  0  0  0  0
  -27.5320  -32.4920   25.9910 C   0  0  0  0  0  1  0  0  0  0  0  0
  -25.6190  -33.8890   24.3380 N   0  0  0  0  0  0  0  0  0  0  0  0
  -25.9670  -34.9570   23.6130 C   0  0  0  0  0  0  0  0  0  0  0  0
  -26.6690  -34.8770   22.6010 O   0  0  0  0  0  0  0  0  0  0  0  0
  -25.0000  -34.0290   25.1260 H   0  0  0  0  0  0  0  0  0  0  0  0
  -24.2530  -36.7580   23.2290 C   0  0  0  0  0  1  0  0  0  0  0  0
  -25.4610  -36.3350   24.0800 C   0  0  0  0  0  3  0  0  0  0  0  0
  -27.5510  -37.2070   25.0250 C   0  0  0  0  0  1  0  0  0  0  0  0
  -26.4950  -37.3910   24.0320 N   0  0  0  0  0  0  0  0  0  0  0  0
  -26.0820  -38.3080   24.1780 H   0  0  0  0  0  0  0  0  0  0  0  0
  2  1  1  0
  3  1  1  0
  4  2  1  0
  5  7  1  0
  5  3  1  0
  6  4  1  0
  6 54  1  0
  6  5  1  0
  7 13  1  0
  8 10  1  0
  8  9  1  0
  9 11  1  0
 10 12  1  0
 12 13  1  0
 12 15  1  0
 13 11  1  0
 13 14  1  1
 16 24  1  0
 17 22  1  0
 18 19  1  0
 18 17  1  0
 20 19  1  0
 20 29  1  0
 20 21  1  0
 22 16  1  0
 22 21  1  0
 23 16  2  0
 24 15  1  0
 24 25  1  0
 26 27  2  0
 27 46  1  0
 28 27  1  0
 28 31  1  0
 29 30  1  0
 29 26  1  0
 30 28  2  0
 31 32  1  0
 32 33  2  0
 34 37  1  0
 34 33  1  0
 35 34  2  0
 36 35  1  0
 36 31  2  0
 37 38  1  0
 38 43  2  0
 38 39  1  0
 39 40  2  0
 41 40  1  0
 41 45  1  0
 42 41  2  0
 43 42  1  0
 44 43  1  0
 46 47  1  0
 47 50  1  0
 47 49  1  0
 48 46  2  0
 51 52  1  0
 51 26  1  0
 53 51  1  0
 55 57  1  0
 55 54  1  0
 56 67  2  0
 57 62  1  0
 58 66  1  0
 58 68  1  0
 59 65  1  0
 59 61  1  0
 60 66  1  0
 61 60  1  0
 62 61  2  0
 63 64  1  0
 63 57  2  0
 64 59  2  0
 65 58  1  0
 66 56  1  0
 68 70  2  0
 69 68  1  0
 71 69  1  0
 72 81  2  0
 72 77  1  0
 73 69  1  0
 73 77  1  0
 74 73  1  0
 75 76  1  0
 75 74  1  0
 76 72  1  0
 77 78  2  0
 78 79  1  0
 80 79  2  0
 81 80  1  0
 82 56  1  0
 82 87  1  0
 82 83  1  0
 83 86  1  1
 83 84  1  0
 85 83  1  0
 87 90  1  0
 88 92  1  0
 88 87  1  0
 89 88  2  0
 92 91  1  0
 94 92  1  0
 94 95  1  0
 94 93  1  0
M  ISO  4  16 100  24 100  54 101  55 101
M  END
>  <TORSDO>  (24) 
F 20

>  <SCORE>  (24) 
-12.945

>  <name>  (24) 
23

>  <ligand_id>  (24) 
23

>  <original_smiles>  (24) 
[H]c1c([H])c([H])c2c(c1[H])C([H])([H])C([H])([H])C([H])([H])C2([H])N([H])C(=O)C1([H])N(C(=O)C([H])(N([H])C(=O)C([H])(N([H])C([H])([H])[H])C([H])([H])[H])C(C([H])([H])[H])(C([H])([H])[H])C([H])([H])[H])C([H])([H])c2c([H])c(OC([H])([H])C3([H])C([H])([H])C([H])([H])C([H])([H])C([H])([H])C3([H])C([H])([H])[N+]3([H])C([H])([H])C([H])([H])C([H])([H])C([H])([H])C3([H])C([H])([H])N([H])C(=O)N3C([H])([H])C([H])([H])C([H])([H])C([H])(n4nc(-c5c([H])c([H])c(Oc6c([H])c([H])c(F)c([H])c6F)c([H])c5[H])c(C(=O)N([H])[H])c4N([H])[H])C3([H])[H])c([H])c([H])c2C1([H])[H]

>  <smiles>  (24) 
[H]c1c([H])c([H])c2c(c1[H])C([H])([H])C([H])([H])C([H])([H])C2([H])N([H])C(=O)C1([H])N(C(=O)C([H])(N([H])C(=O)C([H])(N([H])C([H])([H])[H])C([H])([H])[H])C(C([H])([H])[H])(C([H])([H])[H])C([H])([H])[H])C([H])([H])c2c([H])c(OC([H])([H])C3([H])C([H])([H])C([H])([H])C([H])([H])C([H])([H])C3([H])C([H])([H])[N+]3([H])C([H])([H])C([H])([H])C([H])([H])C([H])([H])C3([H])C([H])([H])N([H])C(=O)N3C([H])([H])C([H])([H])C([H])([H])C([H])(n4nc(-c5c([H])c([H])c(Oc6c([H])c([H])c(F)c([H])c6F)c([H])c5[H])c(C(=O)N([H])[H])c4N([H])[H])C3([H])[H])c([H])c([H])c2C1([H])[H]

$$$$
24:0:0
     RDKit          3D

 96105  0  0  1  0  0  0  0  0999 V2000
  -29.0650  -22.5640   22.7880 C   0  0  0  0  0  2  0  0  0  0  0  0
  -30.6330  -22.0780   20.9130 C   0  0  0  0  0  2  0  0  0  0  0  0
  -29.5050  -24.0470   22.7470 C   0  0  0  0  0  2  0  0  0  0  0  0
  -31.0480  -23.5620   20.9100 C   0  0  0  0  0  2  0  0  0  0  0  0
  -30.1810  -21.6060   22.3120 C   0  0  0  0  0  3  0  0  0  0  0  0
  -29.9630  -24.4610   21.3900 N   0  0  2  0  0  4  0  0  0  0  0  0
  -29.1850  -24.3480   20.7550 H   0  0  0  0  0  0  0  0  0  0  0  0
  -29.7170  -20.1250   22.3140 C   0  0  0  0  0  2  0  0  0  0  0  0
  -30.8180  -19.1790   22.0010 N   0  0  0  0  0  4  0  0  0  0  0  0
  -31.5120  -19.2050   22.7320 H   0  0  0  0  0  0  0  0  0  0  0  0
  -31.2640  -19.4840   21.1520 H   0  0  0  0  0  0  0  0  0  0  0  0
  -30.3960  -17.7760   21.7760 C   0  0  0  0  0  2  0  0  0  0  0  0
  -31.3810  -14.6460   20.1660 C   0  0  0  0  0  0  0  0  0  0  0  0
  -30.9930  -12.4170   19.2190 C   0  0  0  0  0  2  0  0  0  0  0  0
  -30.0730  -12.5530   17.9900 C   0  0  0  0  0  2  0  0  0  0  0  0
  -28.5950  -12.4750   18.4220 C   0  0  0  0  0  2  0  0  0  0  0  0
  -28.2590  -13.4040   19.6200 C   0  0  0  0  0  3  0  0  0  0  0  0
  -29.3190  -13.3150   20.7440 C   0  0  0  0  0  2  0  0  0  0  0  0
  -30.6450  -13.5050   20.1400 N   0  0  0  0  0  0  0  0  0  0  0  0
  -32.5780  -14.6700   19.8750 O   0  0  0  0  0  0  0  0  0  0  0  0
  -30.6960  -17.5540   18.5620 C   0  0  0  0  0  2  0  0  0  0  0  0
  -31.7830  -17.8260   19.5880 C   0  0  0  0  0  2  0  0  0  0  0  0
  -29.9860  -16.3000   19.0820 C   0  0  0  0  0  2  0  0  0  0  0  0
  -31.3640  -17.0170   20.8300 C   0  0  0  0  0  3  0  0  0  0  0  0
  -30.6970  -15.8160   20.2860 N   0  0  0  0  0  0  0  0  0  0  0  0
  -25.8990  -14.1040   20.3570 C   0  0  0  0  0  0  0  0  0  0  0  0
  -24.8080  -13.3700   20.7330 C   0  0  0  0  0  0  0  0  0  0  0  0
  -25.2250  -12.0040   20.7070 C   0  0  0  0  0  0  0  0  0  0  0  0
  -26.9100  -13.1850   20.1250 N   0  0  0  0  0  0  0  0  0  0  0  0
  -26.5110  -11.9180   20.3990 N   0  0  0  0  0  0  0  0  0  0  0  0
  -24.4610  -10.7670   20.8980 C   0  0  0  0  0  0  0  0  0  0  0  0
  -24.8240   -9.8190   21.8820 C   0  0  0  0  0  3  0  0  0  0  0  0
  -24.0620   -8.6440   22.0570 C   0  0  0  0  0  3  0  0  0  0  0  0
  -22.9240   -8.4110   21.2500 C   0  0  0  0  0  0  0  0  0  0  0  0
  -22.5830   -9.3450   20.2550 C   0  0  0  0  0  3  0  0  0  0  0  0
  -23.3450  -10.5110   20.0780 C   0  0  0  0  0  3  0  0  0  0  0  0
  -22.1360   -7.2890   21.3330 O   0  0  0  0  0  0  0  0  0  0  0  0
  -21.9420   -6.6350   22.5220 C   0  0  0  0  0  0  0  0  0  0  0  0
  -21.3870   -7.2840   23.6470 C   0  0  0  0  0  3  0  0  0  0  0  0
  -21.1390   -6.5570   24.8280 C   0  0  0  0  0  3  0  0  0  0  0  0
  -21.4380   -5.1820   24.8850 C   0  0  0  0  0  0  0  0  0  0  0  0
  -21.9830   -4.5330   23.7640 C   0  0  0  0  0  3  0  0  0  0  0  0
  -22.2330   -5.2570   22.5860 C   0  0  0  0  0  0  0  0  0  0  0  0
  -22.7390   -4.6220   21.5010 F   0  0  0  0  0  0  0  0  0  0  0  0
  -21.1940   -4.4800   26.0170 F   0  0  0  0  0  0  0  0  0  0  0  0
  -23.4270  -13.8940   21.0080 C   0  0  0  0  0  0  0  0  0  0  0  0
  -22.6850  -13.2290   21.8870 N   0  0  0  0  0  0  0  0  0  0  0  0
  -23.0180  -14.9270   20.4800 O   0  0  0  0  0  0  0  0  0  0  0  0
  -23.0250  -12.3910   22.3330 H   0  0  0  0  0  0  0  0  0  0  0  0
  -21.7610  -13.5670   22.1180 H   0  0  0  0  0  0  0  0  0  0  0  0
  -26.1110  -15.4670   20.1750 N   0  0  0  0  0  0  0  0  0  0  0  0
  -25.3680  -16.1510   20.2710 H   0  0  0  0  0  0  0  0  0  0  0  0
  -26.9810  -15.8690   19.8590 H   0  0  0  0  0  0  0  0  0  0  0  0
  -30.3860  -25.8910   21.2970 C   0  0  0  0  0  2  0  0  0  0  0  0
  -29.2490  -26.9370   21.3140 C   0  0  0  0  0  2  0  0  0  0  0  0
  -28.4530  -26.8930   20.1230 O   0  0  0  0  0  0  0  0  0  0  0  0
  -24.6030  -31.9850   23.3070 C   0  0  0  0  0  0  0  0  0  0  0  0
  -27.3050  -27.6600   20.1460 C   0  0  0  0  0  0  0  0  0  0  0  0
  -23.4000  -30.5820   21.6580 C   0  0  0  0  0  3  0  0  0  0  0  0
  -24.8690  -29.1000   20.1850 C   0  0  0  0  0  0  0  0  0  0  0  0
  -25.9070  -31.0100   21.4220 C   0  0  0  0  0  2  0  0  0  0  0  0
  -26.0160  -29.6470   20.7740 C   0  0  0  0  0  0  0  0  0  0  0  0
  -27.2330  -28.9340   20.7590 C   0  0  0  0  0  3  0  0  0  0  0  0
  -26.1480  -27.1320   19.5370 C   0  0  0  0  0  3  0  0  0  0  0  0
  -24.9290  -27.8410   19.5610 C   0  0  0  0  0  3  0  0  0  0  0  0
  -23.6060  -29.9310   20.2610 C   0  0  0  0  0  2  0  0  0  0  0  0
  -24.6560  -31.2050   22.1910 N   0  0  0  0  0  0  0  0  0  0  0  0
  -23.5260  -32.2220   23.8700 O   0  0  0  0  0  0  0  0  0  0  0  0
  -22.7880  -29.5320   22.6120 C   0  0  0  0  0  0  0  0  0  0  0  0
  -21.4710  -29.3030   22.4830 N   0  0  0  0  0  0  0  0  0  0  0  0
  -23.4940  -28.9270   23.4230 O   0  0  0  0  0  0  0  0  0  0  0  0
  -20.9630  -29.8410   21.7960 H   0  0  0  0  0  0  0  0  0  0  0  0
  -18.1440  -27.9750   22.9500 C   0  0  0  0  0  0  0  0  0  0  0  0
  -20.6860  -28.3340   23.2470 C   0  0  0  0  0  3  0  0  0  0  0  0
  -20.8510  -26.9070   22.6730 C   0  0  0  0  0  2  0  0  0  0  0  0
  -19.7730  -26.5440   21.6470 C   0  0  0  0  0  2  0  0  0  0  0  0
  -18.3800  -26.6330   22.2770 C   0  0  0  0  0  2  0  0  0  0  0  0
  -19.2280  -28.7800   23.3920 C   0  0  0  0  0  0  0  0  0  0  0  0
  -18.9530  -30.0320   23.9820 C   0  0  0  0  0  3  0  0  0  0  0  0
  -17.6290  -30.4840   24.1340 C   0  0  0  0  0  3  0  0  0  0  0  0
  -16.5600  -29.6770   23.7070 C   0  0  0  0  0  3  0  0  0  0  0  0
  -16.8180  -28.4240   23.1230 C   0  0  0  0  0  3  0  0  0  0  0  0
  -25.8880  -32.6290   23.9170 C   0  0  0  0  0  3  0  0  0  0  0  0
  -25.5720  -34.0290   24.2310 N   0  0  0  0  0  0  0  0  0  0  0  0
  -25.9130  -35.0740   23.4650 C   0  0  0  0  0  0  0  0  0  0  0  0
  -26.6000  -34.9630   22.4440 O   0  0  0  0  0  0  0  0  0  0  0  0
  -24.9600  -34.1890   25.0170 H   0  0  0  0  0  0  0  0  0  0  0  0
  -24.1860  -36.8560   23.0590 C   0  0  0  0  0  1  0  0  0  0  0  0
  -25.4120  -36.4640   23.9000 C   0  0  0  0  0  3  0  0  0  0  0  0
  -27.5350  -37.3510   24.7570 C   0  0  0  0  0  1  0  0  0  0  0  0
  -26.4410  -37.5230   23.8050 N   0  0  0  0  0  0  0  0  0  0  0  0
  -26.0260  -38.4370   23.9630 H   0  0  0  0  0  0  0  0  0  0  0  0
  -26.4150  -31.8730   25.1980 C   0  0  1  0  0  0  0  0  0  0  0  0
  -25.3260  -31.6290   26.2680 C   0  0  0  0  0  1  0  0  0  0  0  0
  -27.0140  -30.5020   24.8070 C   0  0  0  0  0  1  0  0  0  0  0  0
  -27.5570  -32.6850   25.8530 C   0  0  0  0  0  1  0  0  0  0  0  0
  2  5  1  0
  3  1  1  0
  4  2  1  0
  4  6  1  0
  5  8  1  0
  5  1  1  0
  6  3  1  0
  6  7  1  6
  9  8  1  0
  9 10  1  0
 11  9  1  0
 12  9  1  0
 13 25  1  0
 14 19  1  0
 15 16  1  0
 15 14  1  0
 17 16  1  0
 17 29  1  0
 17 18  1  0
 19 13  1  0
 19 18  1  0
 20 13  2  0
 21 23  1  0
 21 22  1  0
 22 24  1  0
 23 25  1  0
 24 12  1  0
 25 24  1  0
 26 27  2  0
 27 46  1  0
 28 27  1  0
 28 31  1  0
 29 26  1  0
 29 30  1  0
 30 28  2  0
 31 32  1  0
 32 33  2  0
 34 37  1  0
 34 33  1  0
 35 34  2  0
 36 35  1  0
 36 31  2  0
 37 38  1  0
 38 43  2  0
 38 39  1  0
 39 40  2  0
 40 41  1  0
 41 45  1  0
 42 41  2  0
 43 42  1  0
 44 43  1  0
 46 47  1  0
 47 50  1  0
 47 49  1  0
 48 46  2  0
 51 52  1  0
 51 26  1  0
 53 51  1  0
 54 55  1  0
 54  6  1  0
 56 58  1  0
 56 55  1  0
 57 68  2  0
 58 63  1  0
 59 67  1  0
 59 69  1  0
 60 66  1  0
 60 62  1  0
 61 67  1  0
 62 61  1  0
 63 62  2  0
 64 65  1  0
 64 58  2  0
 65 60  2  0
 66 59  1  0
 67 57  1  0
 69 71  2  0
 70 69  1  0
 72 70  1  0
 73 82  2  0
 73 78  1  0
 74 70  1  0
 74 78  1  0
 75 74  1  0
 76 77  1  0
 76 75  1  0
 77 73  1  0
 78 79  2  0
 79 80  1  0
 81 80  2  0
 82 81  1  0
 83 57  1  0
 83 84  1  0
 83 93  1  0
 84 87  1  0
 85 89  1  0
 85 84  1  0
 86 85  2  0
 89 88  1  0
 91 89  1  0
 91 92  1  0
 91 90  1  0
 93 96  1  1
 93 94  1  0
 95 93  1  0
M  ISO  4  13 100  25 100  55 101  56 101
M  END
>  <TORSDO>  (25) 
F 21

>  <SCORE>  (25) 
-12.513

>  <name>  (25) 
24

>  <ligand_id>  (25) 
24

>  <original_smiles>  (25) 
[H]c1c([H])c([H])c2c(c1[H])C([H])([H])C([H])([H])C([H])([H])C2([H])N([H])C(=O)C1([H])N(C(=O)C([H])(N([H])C(=O)C([H])(N([H])C([H])([H])[H])C([H])([H])[H])C(C([H])([H])[H])(C([H])([H])[H])C([H])([H])[H])C([H])([H])c2c([H])c(OC([H])([H])C([H])([H])[N+]3([H])C([H])([H])C([H])([H])C([H])(C([H])([H])[N+]([H])([H])C([H])([H])C4([H])N(C(=O)N5C([H])([H])C([H])([H])C([H])([H])C([H])(n6nc(-c7c([H])c([H])c(Oc8c([H])c([H])c(F)c([H])c8F)c([H])c7[H])c(C(=O)N([H])[H])c6N([H])[H])C5([H])[H])C([H])([H])C([H])([H])C4([H])[H])C([H])([H])C3([H])[H])c([H])c([H])c2C1([H])[H]

>  <smiles>  (25) 
[H]c1c([H])c([H])c2c(c1[H])C([H])([H])C([H])([H])C([H])([H])C2([H])N([H])C(=O)C1([H])N(C(=O)C([H])(N([H])C(=O)C([H])(N([H])C([H])([H])[H])C([H])([H])[H])C(C([H])([H])[H])(C([H])([H])[H])C([H])([H])[H])C([H])([H])c2c([H])c(OC([H])([H])C([H])([H])[N+]3([H])C([H])([H])C([H])([H])C([H])(C([H])([H])[N+]([H])([H])C([H])([H])C4([H])N(C(=O)N5C([H])([H])C([H])([H])C([H])([H])C([H])(n6nc(-c7c([H])c([H])c(Oc8c([H])c([H])c(F)c([H])c8F)c([H])c7[H])c(C(=O)N([H])[H])c6N([H])[H])C5([H])[H])C([H])([H])C([H])([H])C4([H])[H])C([H])([H])C3([H])[H])c([H])c([H])c2C1([H])[H]

$$$$
25:0:0
     RDKit          3D

 90 99  0  0  1  0  0  0  0  0999 V2000
  -30.6530  -14.7890   20.4550 C   0  0  0  0  0  0  0  0  0  0  0  0
  -30.4300  -12.4990   19.4710 C   0  0  0  0  0  2  0  0  0  0  0  0
  -29.5280  -12.5460   18.2210 C   0  0  0  0  0  2  0  0  0  0  0  0
  -28.0470  -12.3930   18.6200 C   0  0  0  0  0  2  0  0  0  0  0  0
  -27.6490  -13.3120   19.8060 C   0  0  0  0  0  3  0  0  0  0  0  0
  -28.6790  -13.2590   20.9530 C   0  0  0  0  0  2  0  0  0  0  0  0
  -29.9900  -13.5830   20.3790 N   0  0  0  0  0  0  0  0  0  0  0  0
  -31.8440  -14.8470   20.1260 O   0  0  0  0  0  0  0  0  0  0  0  0
  -30.7090  -19.5880   22.0710 C   0  0  0  0  0  2  0  0  0  0  0  0
  -30.4300  -16.9060   21.8130 C   0  0  0  0  0  2  0  0  0  0  0  0
  -29.3470  -16.8930   19.7600 C   0  0  0  0  0  2  0  0  0  0  0  0
  -29.7250  -20.7650   21.7430 C   0  0  0  0  0  2  0  0  0  0  0  0
  -28.9130  -19.6390   19.7730 C   0  0  0  0  0  2  0  0  0  0  0  0
  -30.7130  -18.3040   21.1760 C   0  0  0  0  0  3  0  0  0  0  0  0
  -29.8950  -18.3790   19.8980 C   0  0  0  0  0  3  0  0  0  0  0  0
  -29.9590  -15.9580   20.7690 N   0  0  0  0  0  0  0  0  0  0  0  0
  -29.4550  -20.9660   20.2930 N   0  0  1  0  0  4  0  0  0  0  0  0
  -30.3450  -21.1090   19.8380 H   0  0  0  0  0  0  0  0  0  0  0  0
  -25.2510  -13.9280   20.4800 C   0  0  0  0  0  0  0  0  0  0  0  0
  -24.1710  -13.1660   20.8360 C   0  0  0  0  0  0  0  0  0  0  0  0
  -24.6240  -11.8100   20.8290 C   0  0  0  0  0  0  0  0  0  0  0  0
  -26.2920  -13.0370   20.2750 N   0  0  0  0  0  0  0  0  0  0  0  0
  -25.9210  -11.7600   20.5470 N   0  0  0  0  0  0  0  0  0  0  0  0
  -23.8820  -10.5550   21.0150 C   0  0  0  0  0  0  0  0  0  0  0  0
  -24.2950   -9.5870   21.9560 C   0  0  0  0  0  3  0  0  0  0  0  0
  -23.5510   -8.3990   22.1330 C   0  0  0  0  0  3  0  0  0  0  0  0
  -22.3830   -8.1710   21.3670 C   0  0  0  0  0  0  0  0  0  0  0  0
  -21.9900   -9.1300   20.4170 C   0  0  0  0  0  3  0  0  0  0  0  0
  -22.7330  -10.3080   20.2380 C   0  0  0  0  0  3  0  0  0  0  0  0
  -21.6150   -7.0350   21.4510 O   0  0  0  0  0  0  0  0  0  0  0  0
  -21.5550   -6.2910   22.6030 C   0  0  0  0  0  0  0  0  0  0  0  0
  -21.1260   -6.8490   23.8270 C   0  0  0  0  0  3  0  0  0  0  0  0
  -21.0090   -6.0320   24.9690 C   0  0  0  0  0  3  0  0  0  0  0  0
  -21.3130   -4.6600   24.8890 C   0  0  0  0  0  0  0  0  0  0  0  0
  -21.7360   -4.1020   23.6690 C   0  0  0  0  0  3  0  0  0  0  0  0
  -21.8540   -4.9160   22.5290 C   0  0  0  0  0  0  0  0  0  0  0  0
  -22.2400   -4.3690   21.3510 F   0  0  0  0  0  0  0  0  0  0  0  0
  -21.1940   -3.8730   25.9840 F   0  0  0  0  0  0  0  0  0  0  0  0
  -22.7730  -13.6580   21.0720 C   0  0  0  0  0  0  0  0  0  0  0  0
  -22.0210  -12.9810   21.9330 N   0  0  0  0  0  0  0  0  0  0  0  0
  -22.3550  -14.6800   20.5300 O   0  0  0  0  0  0  0  0  0  0  0  0
  -22.3710  -12.1580   22.4000 H   0  0  0  0  0  0  0  0  0  0  0  0
  -21.0820  -13.2960   22.1310 H   0  0  0  0  0  0  0  0  0  0  0  0
  -25.4280  -15.2940   20.2940 N   0  0  0  0  0  0  0  0  0  0  0  0
  -24.6590  -15.9510   20.3720 H   0  0  0  0  0  0  0  0  0  0  0  0
  -26.2870  -15.7260   19.9790 H   0  0  0  0  0  0  0  0  0  0  0  0
  -28.5980  -22.2130   19.9600 C   0  0  0  0  0  2  0  0  0  0  0  0
  -29.0620  -23.7260   20.3440 C   0  0  0  0  0  3  0  0  0  0  0  0
  -28.1080  -24.9520   19.8840 C   0  0  0  0  0  3  0  0  0  0  0  0
  -28.3570  -26.4080   20.1850 O   0  0  0  0  0  0  0  0  0  0  0  0
  -24.6360  -31.8620   23.2180 C   0  0  0  0  0  0  0  0  0  0  0  0
  -27.2680  -27.3140   20.1110 C   0  0  0  0  0  0  0  0  0  0  0  0
  -23.4490  -30.4850   21.5500 C   0  0  0  0  0  3  0  0  0  0  0  0
  -24.9120  -28.9660   20.1020 C   0  0  0  0  0  0  0  0  0  0  0  0
  -25.9930  -30.7980   21.3940 C   0  0  0  0  0  2  0  0  0  0  0  0
  -26.0780  -29.4280   20.7240 C   0  0  0  0  0  0  0  0  0  0  0  0
  -27.2580  -28.6140   20.7210 C   0  0  0  0  0  3  0  0  0  0  0  0
  -26.0820  -26.9340   19.4400 C   0  0  0  0  0  3  0  0  0  0  0  0
  -24.9200  -27.7270   19.4460 C   0  0  0  0  0  3  0  0  0  0  0  0
  -23.6760  -29.8420   20.1580 C   0  0  0  0  0  2  0  0  0  0  0  0
  -24.7120  -31.0650   22.1100 N   0  0  0  0  0  0  0  0  0  0  0  0
  -23.5470  -32.1310   23.7460 O   0  0  0  0  0  0  0  0  0  0  0  0
  -22.7810  -29.4500   22.4880 C   0  0  0  0  0  0  0  0  0  0  0  0
  -21.4550  -29.2770   22.3550 N   0  0  0  0  0  0  0  0  0  0  0  0
  -23.4570  -28.8080   23.2970 O   0  0  0  0  0  0  0  0  0  0  0  0
  -20.9680  -29.8470   21.6780 H   0  0  0  0  0  0  0  0  0  0  0  0
  -18.0740  -28.0820   22.8320 C   0  0  0  0  0  0  0  0  0  0  0  0
  -20.6330  -28.3280   23.1080 C   0  0  0  0  0  3  0  0  0  0  0  0
  -20.7300  -26.9070   22.5050 C   0  0  0  0  0  2  0  0  0  0  0  0
  -19.6270  -26.6070   21.4850 C   0  0  0  0  0  2  0  0  0  0  0  0
  -18.2460  -26.7450   22.1310 C   0  0  0  0  0  2  0  0  0  0  0  0
  -19.1930  -28.8330   23.2760 C   0  0  0  0  0  0  0  0  0  0  0  0
  -18.9780  -30.0840   23.8920 C   0  0  0  0  0  3  0  0  0  0  0  0
  -17.6720  -30.5850   24.0680 C   0  0  0  0  0  3  0  0  0  0  0  0
  -16.5680  -29.8310   23.6370 C   0  0  0  0  0  3  0  0  0  0  0  0
  -16.7670  -28.5800   23.0250 C   0  0  0  0  0  3  0  0  0  0  0  0
  -25.9110  -32.4910   23.8570 C   0  0  0  0  0  3  0  0  0  0  0  0
  -25.5970  -33.8850   24.2000 N   0  0  0  0  0  0  0  0  0  0  0  0
  -25.9160  -34.9450   23.4440 C   0  0  0  0  0  0  0  0  0  0  0  0
  -26.5750  -34.8510   22.4050 O   0  0  0  0  0  0  0  0  0  0  0  0
  -25.0150  -34.0320   25.0100 H   0  0  0  0  0  0  0  0  0  0  0  0
  -24.1620  -36.7220   23.1290 C   0  0  0  0  0  1  0  0  0  0  0  0
  -25.4240  -36.3280   23.9140 C   0  0  0  0  0  3  0  0  0  0  0  0
  -27.5720  -37.2260   24.6960 C   0  0  0  0  0  1  0  0  0  0  0  0
  -26.4420  -37.3940   23.7870 N   0  0  0  0  0  0  0  0  0  0  0  0
  -26.0290  -38.3060   23.9640 H   0  0  0  0  0  0  0  0  0  0  0  0
  -26.4140  -31.7070   25.1310 C   0  0  1  0  0  0  0  0  0  0  0  0
  -25.3120  -31.4670   26.1900 C   0  0  0  0  0  1  0  0  0  0  0  0
  -26.9930  -30.3290   24.7340 C   0  0  0  0  0  1  0  0  0  0  0  0
  -27.5630  -32.4900   25.8080 C   0  0  0  0  0  1  0  0  0  0  0  0
  1 16  1  0
  2  7  1  0
  3  4  1  0
  3  2  1  0
  5  4  1  0
  5 22  1  0
  5  6  1  0
  7  1  1  0
  7  6  1  0
  8  1  2  0
 11 16  1  0
 12  9  1  0
 13 15  1  0
 13 17  1  0
 14 10  1  0
 14  9  1  0
 15 11  1  0
 15 14  1  0
 16 10  1  0
 17 12  1  0
 17 18  1  6
 19 20  2  0
 20 39  1  0
 21 20  1  0
 21 24  1  0
 22 19  1  0
 22 23  1  0
 23 21  2  0
 24 25  1  0
 25 26  2  0
 27 30  1  0
 27 26  1  0
 28 27  2  0
 29 28  1  0
 29 24  2  0
 30 31  1  0
 31 32  1  0
 32 33  2  0
 34 33  1  0
 34 38  1  0
 35 34  2  0
 36 31  2  0
 36 35  1  0
 37 36  1  0
 39 40  1  0
 40 43  1  0
 40 42  1  0
 41 39  2  0
 44 45  1  0
 44 19  1  0
 46 44  1  0
 47 17  1  0
 47 48  1  0
 49 50  1  0
 49 48  2  0
 51 62  2  0
 52 50  1  0
 52 57  1  0
 53 61  1  0
 53 63  1  0
 54 60  1  0
 54 56  1  0
 55 61  1  0
 56 55  1  0
 57 56  2  0
 58 59  1  0
 58 52  2  0
 59 54  2  0
 60 53  1  0
 61 51  1  0
 63 65  2  0
 64 63  1  0
 66 64  1  0
 67 76  2  0
 67 72  1  0
 68 64  1  0
 68 72  1  0
 69 68  1  0
 70 71  1  0
 70 69  1  0
 71 67  1  0
 72 73  2  0
 73 74  1  0
 75 74  2  0
 76 75  1  0
 77 51  1  0
 77 78  1  0
 77 87  1  0
 78 81  1  0
 79 83  1  0
 79 78  1  0
 80 79  2  0
 83 82  1  0
 85 83  1  0
 85 86  1  0
 85 84  1  0
 87 90  1  1
 87 88  1  0
 89 87  1  0
M  ISO  4   1 100  16 100  49 101  50 101
M  END
>  <TORSDO>  (26) 
F 18

>  <SCORE>  (26) 
-14.662

>  <name>  (26) 
25

>  <ligand_id>  (26) 
25

>  <original_smiles>  (26) 
[H]c1c([H])c([H])c2c(c1[H])C([H])([H])C([H])([H])C([H])([H])C2([H])N([H])C(=O)C1([H])N(C(=O)C([H])(N([H])C(=O)C([H])(N([H])C([H])([H])[H])C([H])([H])[H])C(C([H])([H])[H])(C([H])([H])[H])C([H])([H])[H])C([H])([H])c2c([H])c(OC([H])([H])C([H])([H])C([H])([H])[N+]3([H])C([H])([H])C([H])([H])C4([H])C([H])([H])N(C(=O)N5C([H])([H])C([H])([H])C([H])([H])C([H])(n6nc(-c7c([H])c([H])c(Oc8c([H])c([H])c(F)c([H])c8F)c([H])c7[H])c(C(=O)N([H])[H])c6N([H])[H])C5([H])[H])C([H])([H])C4([H])C3([H])[H])c([H])c([H])c2C1([H])[H]

>  <smiles>  (26) 
[H]c1c([H])c([H])c2c(c1[H])C([H])([H])C([H])([H])C([H])([H])C2([H])N([H])C(=O)C1([H])N(C(=O)C([H])(N([H])C(=O)C([H])(N([H])C([H])([H])[H])C([H])([H])[H])C(C([H])([H])[H])(C([H])([H])[H])C([H])([H])[H])C([H])([H])c2c([H])c(OC([H])([H])C([H])([H])C([H])([H])[N+]3([H])C([H])([H])C([H])([H])C4([H])C([H])([H])N(C(=O)N5C([H])([H])C([H])([H])C([H])([H])C([H])(n6nc(-c7c([H])c([H])c(Oc8c([H])c([H])c(F)c([H])c8F)c([H])c7[H])c(C(=O)N([H])[H])c6N([H])[H])C5([H])[H])C([H])([H])C4([H])C3([H])[H])c([H])c([H])c2C1([H])[H]

$$$$
26:0:0
     RDKit          3D

 96105  0  0  1  0  0  0  0  0999 V2000
  -28.9240  -19.8190   19.9340 C   0  0  0  0  0  2  0  0  0  0  0  0
  -27.8140  -20.9320   20.0280 C   0  0  0  0  0  2  0  0  0  0  0  0
  -30.9160  -21.8820   20.9790 C   0  0  0  0  0  2  0  0  0  0  0  0
  -28.7580  -21.7320   22.2530 C   0  0  0  0  0  2  0  0  0  0  0  0
  -30.1980  -22.7660   19.8910 C   0  0  0  0  0  2  0  0  0  0  0  0
  -30.0240  -20.9500   21.8790 C   0  0  0  0  0  3  0  0  0  0  0  0
  -29.6090  -19.5570   21.2920 C   0  0  0  0  0  3  0  0  0  0  0  0
  -28.0750  -22.1820   20.9560 C   0  0  0  0  0  3  0  0  0  0  0  0
  -28.8780  -23.2950   20.3470 N   0  0  2  0  0  4  0  0  0  0  0  0
  -29.0990  -23.9150   21.1150 H   0  0  0  0  0  0  0  0  0  0  0  0
  -30.7330  -18.4520   21.4610 C   0  0  0  0  0  2  0  0  0  0  0  0
  -31.0850  -14.8290   20.0460 C   0  0  0  0  0  0  0  0  0  0  0  0
  -30.6780  -12.6540   18.9450 C   0  0  0  0  0  2  0  0  0  0  0  0
  -29.6830  -12.8420   17.7790 C   0  0  0  0  0  2  0  0  0  0  0  0
  -28.2380  -12.7030   18.2870 C   0  0  0  0  0  2  0  0  0  0  0  0
  -27.9650  -13.5650   19.5470 C   0  0  0  0  0  3  0  0  0  0  0  0
  -29.0740  -13.3830   20.6140 C   0  0  0  0  0  2  0  0  0  0  0  0
  -30.3730  -13.6600   19.9850 N   0  0  0  0  0  0  0  0  0  0  0  0
  -32.1450  -14.9720   19.4250 O   0  0  0  0  0  0  0  0  0  0  0  0
  -30.8780  -17.3160   20.4390 C   0  0  0  0  0  0  0  0  0  0  0  0
  -30.5450  -16.0040   20.7340 N   0  0  0  0  0  0  0  0  0  0  0  0
  -31.4510  -17.6820   19.2700 N   0  0  0  0  0  4  0  0  0  0  0  0
  -29.8340  -15.9020   21.4410 H   0  0  0  0  0  0  0  0  0  0  0  0
  -31.6950  -18.6440   19.0770 H   0  0  0  0  0  0  0  0  0  0  0  0
  -31.8210  -16.9770   18.6410 H   0  0  0  0  0  0  0  0  0  0  0  0
  -25.6290  -14.1970   20.4120 C   0  0  0  0  0  0  0  0  0  0  0  0
  -24.5630  -13.4370   20.8130 C   0  0  0  0  0  0  0  0  0  0  0  0
  -24.9840  -12.0760   20.7020 C   0  0  0  0  0  0  0  0  0  0  0  0
  -26.6360  -13.3010   20.0910 N   0  0  0  0  0  0  0  0  0  0  0  0
  -26.2550  -12.0180   20.3210 N   0  0  0  0  0  0  0  0  0  0  0  0
  -24.2340  -10.8270   20.8800 C   0  0  0  0  0  0  0  0  0  0  0  0
  -24.6550   -9.8360   21.7960 C   0  0  0  0  0  3  0  0  0  0  0  0
  -23.9050   -8.6520   21.9640 C   0  0  0  0  0  3  0  0  0  0  0  0
  -22.7200   -8.4510   21.2170 C   0  0  0  0  0  0  0  0  0  0  0  0
  -22.3200   -9.4280   20.2900 C   0  0  0  0  0  3  0  0  0  0  0  0
  -23.0700  -10.6040   20.1190 C   0  0  0  0  0  3  0  0  0  0  0  0
  -21.9420   -7.3200   21.2960 O   0  0  0  0  0  0  0  0  0  0  0  0
  -21.8320   -6.6030   22.4600 C   0  0  0  0  0  0  0  0  0  0  0  0
  -21.3610   -7.1900   23.6560 C   0  0  0  0  0  3  0  0  0  0  0  0
  -21.1970   -6.3990   24.8090 C   0  0  0  0  0  3  0  0  0  0  0  0
  -21.4930   -5.0230   24.7690 C   0  0  0  0  0  0  0  0  0  0  0  0
  -21.9580   -4.4360   23.5790 C   0  0  0  0  0  3  0  0  0  0  0  0
  -22.1220   -5.2240   22.4260 C   0  0  0  0  0  0  0  0  0  0  0  0
  -22.5490   -4.6500   21.2760 F   0  0  0  0  0  0  0  0  0  0  0  0
  -21.3290   -4.2610   25.8760 F   0  0  0  0  0  0  0  0  0  0  0  0
  -23.1980  -13.9380   21.1850 C   0  0  0  0  0  0  0  0  0  0  0  0
  -22.5030  -13.2240   22.0640 N   0  0  0  0  0  0  0  0  0  0  0  0
  -22.7590  -14.9960   20.7330 O   0  0  0  0  0  0  0  0  0  0  0  0
  -22.8730  -12.3670   22.4460 H   0  0  0  0  0  0  0  0  0  0  0  0
  -21.5870  -13.5360   22.3570 H   0  0  0  0  0  0  0  0  0  0  0  0
  -25.8200  -15.5680   20.2760 N   0  0  0  0  0  0  0  0  0  0  0  0
  -25.0630  -16.2270   20.4240 H   0  0  0  0  0  0  0  0  0  0  0  0
  -26.6390  -15.9960   19.8620 H   0  0  0  0  0  0  0  0  0  0  0  0
  -28.0670  -24.1550   19.4020 C   0  0  0  0  0  2  0  0  0  0  0  0
  -28.6390  -25.5260   18.8700 C   0  0  0  0  0  2  0  0  0  0  0  0
  -28.4720  -26.7530   19.6330 O   0  0  0  0  0  0  0  0  0  0  0  0
  -24.6290  -31.6670   23.0940 C   0  0  0  0  0  0  0  0  0  0  0  0
  -27.2900  -27.4870   19.6270 C   0  0  0  0  0  0  0  0  0  0  0  0
  -23.4170  -30.3730   21.3680 C   0  0  0  0  0  3  0  0  0  0  0  0
  -24.8700  -28.9800   19.7920 C   0  0  0  0  0  0  0  0  0  0  0  0
  -25.9350  -30.7860   21.1530 C   0  0  0  0  0  2  0  0  0  0  0  0
  -26.0310  -29.4670   20.4050 C   0  0  0  0  0  0  0  0  0  0  0  0
  -27.2370  -28.7250   20.3240 C   0  0  0  0  0  3  0  0  0  0  0  0
  -26.1110  -27.0400   18.9870 C   0  0  0  0  0  3  0  0  0  0  0  0
  -24.9090  -27.7690   19.0790 C   0  0  0  0  0  3  0  0  0  0  0  0
  -23.6100  -29.8080   19.9340 C   0  0  0  0  0  2  0  0  0  0  0  0
  -24.6800  -30.9540   21.9300 N   0  0  0  0  0  0  0  0  0  0  0  0
  -23.5540  -31.8730   23.6740 O   0  0  0  0  0  0  0  0  0  0  0  0
  -22.8030  -29.2700   22.2590 C   0  0  0  0  0  0  0  0  0  0  0  0
  -21.4780  -29.0800   22.1540 N   0  0  0  0  0  0  0  0  0  0  0  0
  -23.5150  -28.5900   23.0020 O   0  0  0  0  0  0  0  0  0  0  0  0
  -20.9620  -29.6850   21.5300 H   0  0  0  0  0  0  0  0  0  0  0  0
  -18.1370  -27.7770   22.6190 C   0  0  0  0  0  0  0  0  0  0  0  0
  -20.6940  -28.0670   22.8620 C   0  0  0  0  0  3  0  0  0  0  0  0
  -20.8110  -26.6870   22.1750 C   0  0  0  0  0  2  0  0  0  0  0  0
  -19.6970  -26.4200   21.1590 C   0  0  0  0  0  2  0  0  0  0  0  0
  -18.3250  -26.4890   21.8360 C   0  0  0  0  0  2  0  0  0  0  0  0
  -19.2490  -28.5260   23.0860 C   0  0  0  0  0  0  0  0  0  0  0  0
  -19.0180  -29.7360   23.7770 C   0  0  0  0  0  3  0  0  0  0  0  0
  -17.7080  -30.1980   24.0030 C   0  0  0  0  0  3  0  0  0  0  0  0
  -16.6110  -29.4430   23.5530 C   0  0  0  0  0  3  0  0  0  0  0  0
  -16.8250  -28.2340   22.8670 C   0  0  0  0  0  3  0  0  0  0  0  0
  -25.9160  -32.2750   23.7370 C   0  0  0  0  0  3  0  0  0  0  0  0
  -26.4500  -31.4400   24.9640 C   0  0  1  0  0  0  0  0  0  0  0  0
  -25.3730  -31.1420   26.0340 C   0  0  0  0  0  1  0  0  0  0  0  0
  -27.0290  -30.0870   24.4900 C   0  0  0  0  0  1  0  0  0  0  0  0
  -27.6100  -32.2000   25.6520 C   0  0  0  0  0  1  0  0  0  0  0  0
  -25.6010  -33.6500   24.1460 N   0  0  0  0  0  0  0  0  0  0  0  0
  -25.9170  -34.7460   23.4420 C   0  0  0  0  0  0  0  0  0  0  0  0
  -26.5810  -34.7060   22.4030 O   0  0  0  0  0  0  0  0  0  0  0  0
  -25.0200  -33.7560   24.9650 H   0  0  0  0  0  0  0  0  0  0  0  0
  -24.1660  -36.5340   23.2050 C   0  0  0  0  0  1  0  0  0  0  0  0
  -25.4200  -36.1010   23.9800 C   0  0  0  0  0  3  0  0  0  0  0  0
  -27.5550  -36.9640   24.8330 C   0  0  0  0  0  1  0  0  0  0  0  0
  -26.4390  -37.1720   23.9140 N   0  0  0  0  0  0  0  0  0  0  0  0
  -26.0230  -38.0750   24.1200 H   0  0  0  0  0  0  0  0  0  0  0  0
  1  2  1  0
  1  7  1  0
  5  9  1  0
  5  3  1  0
  6  3  1  0
  6  4  1  0
  7 11  1  0
  7  6  1  0
  8  2  1  0
  8  4  1  0
  9  8  1  0
  9 10  1  1
 12 21  1  0
 13 18  1  0
 14 15  1  0
 14 13  1  0
 16 15  1  0
 16 29  1  0
 16 17  1  0
 18 12  1  0
 18 17  1  0
 19 12  2  0
 20 21  1  0
 20 11  1  0
 21 23  1  0
 22 20  2  0
 24 22  1  0
 25 22  1  0
 26 27  2  0
 27 46  1  0
 28 27  1  0
 28 31  1  0
 29 30  1  0
 29 26  1  0
 30 28  2  0
 31 32  1  0
 32 33  2  0
 34 37  1  0
 34 33  1  0
 35 34  2  0
 36 35  1  0
 36 31  2  0
 37 38  1  0
 38 39  1  0
 39 40  2  0
 41 40  1  0
 41 45  1  0
 42 41  2  0
 43 38  2  0
 43 42  1  0
 44 43  1  0
 46 47  1  0
 47 50  1  0
 47 49  1  0
 48 46  2  0
 51 26  1  0
 51 52  1  0
 53 51  1  0
 54  9  1  0
 55 54  1  0
 55 56  1  0
 57 68  2  0
 58 56  1  0
 58 63  1  0
 59 67  1  0
 59 69  1  0
 60 66  1  0
 60 62  1  0
 61 67  1  0
 62 61  1  0
 63 62  2  0
 64 65  1  0
 64 58  2  0
 65 60  2  0
 66 59  1  0
 67 57  1  0
 69 71  2  0
 70 69  1  0
 72 70  1  0
 73 82  2  0
 73 78  1  0
 74 70  1  0
 74 78  1  0
 75 74  1  0
 76 77  1  0
 76 75  1  0
 77 73  1  0
 78 79  2  0
 79 80  1  0
 81 80  2  0
 82 81  1  0
 83 57  1  0
 83 88  1  0
 83 84  1  0
 84 87  1  1
 84 85  1  0
 86 84  1  0
 88 91  1  0
 89 93  1  0
 89 88  1  0
 90 89  2  0
 93 92  1  0
 95 93  1  0
 95 96  1  0
 95 94  1  0
M  ISO  4  12 100  21 100  55 101  56 101
M  END
>  <TORSDO>  (27) 
F 19

>  <SCORE>  (27) 
-13.239

>  <name>  (27) 
26

>  <ligand_id>  (27) 
26

>  <original_smiles>  (27) 
[H]c1c([H])c([H])c2c(c1[H])C([H])([H])C([H])([H])C([H])([H])C2([H])N([H])C(=O)C1([H])N(C(=O)C([H])(N([H])C(=O)C([H])(N([H])C([H])([H])[H])C([H])([H])[H])C(C([H])([H])[H])(C([H])([H])[H])C([H])([H])[H])C([H])([H])c2c([H])c(OC([H])([H])C([H])([H])[N+]3([H])C([H])([H])C([H])([H])C4([H])C([H])([H])C3([H])C([H])([H])C([H])([H])C4([H])C([H])([H])C(N([H])C(=O)N3C([H])([H])C([H])([H])C([H])([H])C([H])(n4nc(-c5c([H])c([H])c(Oc6c([H])c([H])c(F)c([H])c6F)c([H])c5[H])c(C(=O)N([H])[H])c4N([H])[H])C3([H])[H])=[N+]([H])[H])c([H])c([H])c2C1([H])[H]

>  <smiles>  (27) 
[H]c1c([H])c([H])c2c(c1[H])C([H])([H])C([H])([H])C([H])([H])C2([H])N([H])C(=O)C1([H])N(C(=O)C([H])(N([H])C(=O)C([H])(N([H])C([H])([H])[H])C([H])([H])[H])C(C([H])([H])[H])(C([H])([H])[H])C([H])([H])[H])C([H])([H])c2c([H])c(OC([H])([H])C([H])([H])[N+]3([H])C([H])([H])C([H])([H])C4([H])C([H])([H])C3([H])C([H])([H])C([H])([H])C4([H])C([H])([H])C(N([H])C(=O)N3C([H])([H])C([H])([H])C([H])([H])C([H])(n4nc(-c5c([H])c([H])c(Oc6c([H])c([H])c(F)c([H])c6F)c([H])c5[H])c(C(=O)N([H])[H])c4N([H])[H])C3([H])[H])=[N+]([H])[H])c([H])c([H])c2C1([H])[H]

$$$$
27:0:0
     RDKit          3D

 99100  0  0  1  0  0  0  0  0999 V2000
  -23.0270  -26.0170   20.0300 N   0  0  0  0  0  0  0  0  0  0  0  0
  -22.2690  -25.3520   20.1410 H   0  0  0  0  0  0  0  0  0  0  0  0
  -22.8960  -26.2120   19.0470 H   0  0  0  0  0  0  0  0  0  0  0  0
  -24.4570  -24.7460   19.9170 C   0  0  0  0  0  1  0  0  0  0  0  0
  -25.2390  -22.9480   19.2850 C   0  0  0  0  0  2  0  0  0  0  0  0
  -24.2310  -22.2630   18.7380 N   0  0  0  0  0  0  0  0  0  0  0  0
  -26.5570  -21.9260   19.2020 N   0  0  0  0  0  2  0  0  0  0  0  0
  -23.3040  -22.6860   18.6960 H   0  0  0  0  0  0  0  0  0  0  0  0
  -24.3260  -21.3160   18.4070 H   0  0  0  0  0  0  0  0  0  0  0  0
  -27.3440  -22.3850   19.6730 H   0  0  0  0  0  0  0  0  0  0  0  0
  -27.2550  -20.2030   18.6720 C   0  0  0  0  0 15  0  0  0  0  0  0
  -28.8370  -18.7830   18.7990 C   0  0  0  0  0 15  0  0  0  0  0  0
  -30.4980  -15.7180   19.1530 C   0  0  0  0  0  0  0  0  0  0  0  0
  -31.1290  -13.0340   18.8400 C   0  0  0  0  0  2  0  0  0  0  0  0
  -30.2810  -12.2580   17.7750 C   0  0  0  0  0  2  0  0  0  0  0  0
  -28.8920  -11.9250   18.3390 C   0  0  0  0  0  2  0  0  0  0  0  0
  -28.3730  -13.0890   19.2060 C   0  0  0  0  0  3  0  0  0  0  0  0
  -29.3690  -13.5970   20.2410 C   0  0  0  0  0  2  0  0  0  0  0  0
  -30.3520  -14.2570   19.4080 N   0  0  0  0  0  0  0  0  0  0  0  0
  -31.7480  -15.7630   18.9080 O   0  0  0  0  0  0  0  0  0  0  0  0
  -29.3630  -16.9400   19.0580 N   0  0  0  0  0  2  0  0  0  0  0  0
  -28.5040  -16.4620   19.3080 H   0  0  0  0  0  0  0  0  0  0  0  0
  -26.2510  -13.8750   20.2560 C   0  0  0  0  0  0  0  0  0  0  0  0
  -25.1570  -13.2160   20.7170 C   0  0  0  0  0  0  0  0  0  0  0  0
  -25.4400  -11.8140   20.5720 C   0  0  0  0  0  0  0  0  0  0  0  0
  -27.1040  -12.8820   19.8240 N   0  0  0  0  0  0  0  0  0  0  0  0
  -26.6640  -11.6340   20.1040 N   0  0  0  0  0  0  0  0  0  0  0  0
  -24.5910  -10.6460   20.7700 C   0  0  0  0  0  0  0  0  0  0  0  0
  -24.8630   -9.7030   21.7850 C   0  0  0  0  0  3  0  0  0  0  0  0
  -24.0140   -8.5930   21.9670 C   0  0  0  0  0  3  0  0  0  0  0  0
  -22.8820   -8.4230   21.1370 C   0  0  0  0  0  0  0  0  0  0  0  0
  -22.6320   -9.3540   20.1150 C   0  0  0  0  0  3  0  0  0  0  0  0
  -23.4790  -10.4550   19.9260 C   0  0  0  0  0  3  0  0  0  0  0  0
  -22.0130   -7.3650   21.2280 O   0  0  0  0  0  0  0  0  0  0  0  0
  -21.6720   -6.8210   22.4400 C   0  0  0  0  0  0  0  0  0  0  0  0
  -21.0170   -7.5750   23.4390 C   0  0  0  0  0  3  0  0  0  0  0  0
  -20.6250   -6.9570   24.6440 C   0  0  0  0  0  3  0  0  0  0  0  0
  -20.8710   -5.5850   24.8450 C   0  0  0  0  0  0  0  0  0  0  0  0
  -21.5160   -4.8320   23.8490 C   0  0  0  0  0  3  0  0  0  0  0  0
  -21.9100   -5.4480   22.6470 C   0  0  0  0  0  0  0  0  0  0  0  0
  -22.5130   -4.7110   21.6850 F   0  0  0  0  0  0  0  0  0  0  0  0
  -20.4840   -4.9910   25.9980 F   0  0  0  0  0  0  0  0  0  0  0  0
  -23.8680  -13.8460   21.1490 C   0  0  0  0  0  0  0  0  0  0  0  0
  -23.1510  -13.2130   22.0600 N   0  0  0  0  0  0  0  0  0  0  0  0
  -23.5220  -14.9380   20.6980 O   0  0  0  0  0  0  0  0  0  0  0  0
  -23.4510  -12.3270   22.4370 H   0  0  0  0  0  0  0  0  0  0  0  0
  -22.2890  -13.6150   22.3970 H   0  0  0  0  0  0  0  0  0  0  0  0
  -26.5970  -15.2270   20.0980 N   0  0  0  0  0  0  0  0  0  0  0  0
  -25.8780  -15.9290   20.2610 H   0  0  0  0  0  0  0  0  0  0  0  0
  -27.1450  -15.4340   19.2750 H   0  0  0  0  0  0  0  0  0  0  0  0
  -22.2720  -27.6710   20.7370 C   0  0  0  0  0 15  0  0  0  0  0  0
  -22.0560  -30.7240   24.3200 C   0  0  0  0  0  2  0  0  0  0  0  0
  -21.9710  -30.5100   22.7250 C   0  0  0  0  0  2  0  0  0  0  0  0
  -22.9330  -29.5930   25.0090 C   0  0  0  0  0  2  0  0  0  0  0  0
  -22.4270  -28.9900   22.5280 C   0  0  0  0  0  2  0  0  0  0  0  0
  -23.5970  -28.9300   23.8980 N   0  0  0  0  0  0  0  0  0  0  0  0
  -25.1470  -28.0600   24.2770 C   0  0  0  0  0  1  0  0  0  0  0  0
  -26.7430  -27.3810   23.2410 C   0  0  0  0  0  1  0  0  0  0  0  0
  -27.3940  -26.3370   22.0170 O   0  0  0  0  0  0  0  0  0  0  0  0
  -25.6210  -30.7070   23.0610 C   0  0  0  0  0  0  0  0  0  0  0  0
  -27.9460  -26.5660   20.7460 C   0  0  0  0  0  3  0  0  0  0  0  0
  -24.7670  -28.6110   21.3590 C   0  0  0  0  0  3  0  0  0  0  0  0
  -26.0850  -28.0520   19.6950 C   0  0  0  0  0  0  0  0  0  0  0  0
  -26.9160  -29.8950   21.2060 C   0  0  0  0  0  2  0  0  0  0  0  0
  -27.1470  -28.6510   20.3880 C   0  0  0  0  0  0  0  0  0  0  0  0
  -28.2700  -27.9000   20.6350 C   0  0  0  0  0  2  0  0  0  0  0  0
  -27.1950  -25.9520   19.7120 C   0  0  0  0  0  2  0  0  0  0  0  0
  -26.1260  -26.7270   19.2410 C   0  0  0  0  0  2  0  0  0  0  0  0
  -24.8370  -28.7100   19.8250 C   0  0  0  0  0  2  0  0  0  0  0  0
  -25.7300  -29.7260   22.0270 N   0  0  0  0  0  0  0  0  0  0  0  0
  -24.5510  -31.2280   23.3600 O   0  0  0  0  0  0  0  0  0  0  0  0
  -24.1800  -26.9610   22.0850 C   0  0  0  0  0  0  0  0  0  0  0  0
  -22.9110  -26.4860   22.6820 N   0  0  0  0  0  0  0  0  0  0  0  0
  -24.8660  -26.0910   22.4810 O   0  0  0  0  0  0  0  0  0  0  0  0
  -23.2130  -25.6840   23.2260 H   0  0  0  0  0  0  0  0  0  0  0  0
  -18.8260  -26.3950   21.9480 C   0  0  0  0  0  0  0  0  0  0  0  0
  -21.3300  -26.3240   22.6950 C   0  0  0  0  0  3  0  0  0  0  0  0
  -21.2270  -24.8550   22.4300 C   0  0  0  0  0  2  0  0  0  0  0  0
  -20.4760  -24.5700   21.1390 C   0  0  0  0  0  2  0  0  0  0  0  0
  -19.0490  -24.9920   21.3570 C   0  0  0  0  0  2  0  0  0  0  0  0
  -19.8640  -27.0940   22.6400 C   0  0  0  0  0  0  0  0  0  0  0  0
  -19.4200  -28.3320   23.2280 C   0  0  0  0  0  3  0  0  0  0  0  0
  -18.1180  -28.8430   23.0490 C   0  0  0  0  0  3  0  0  0  0  0  0
  -17.1260  -28.1490   22.3370 C   0  0  0  0  0  3  0  0  0  0  0  0
  -17.5100  -26.9070   21.7900 C   0  0  0  0  0  3  0  0  0  0  0  0
  -26.8120  -31.2860   23.9700 C   0  0  0  0  0  3  0  0  0  0  0  0
  -26.4220  -32.6530   24.3620 N   0  0  0  0  0  0  0  0  0  0  0  0
  -26.7700  -33.7460   23.6890 C   0  0  0  0  0  0  0  0  0  0  0  0
  -27.4780  -33.6960   22.6800 O   0  0  0  0  0  0  0  0  0  0  0  0
  -25.7000  -32.7240   25.0650 H   0  0  0  0  0  0  0  0  0  0  0  0
  -25.0580  -35.6000   23.3890 C   0  0  0  0  0  1  0  0  0  0  0  0
  -26.2670  -35.1170   24.2070 C   0  0  0  0  0  3  0  0  0  0  0  0
  -28.3760  -35.8950   25.1700 C   0  0  0  0  0  1  0  0  0  0  0  0
  -27.3260  -36.1500   24.1950 N   0  0  0  0  0  0  0  0  0  0  0  0
  -26.9490  -37.0760   24.3710 H   0  0  0  0  0  0  0  0  0  0  0  0
  -27.2240  -30.6020   25.3650 C   0  0  1  0  0  0  0  0  0  0  0  0
  -26.0830  -30.2830   26.3860 C   0  0  0  0  0  1  0  0  0  0  0  0
  -28.1400  -29.3880   25.1920 C   0  0  0  0  0  1  0  0  0  0  0  0
  -28.1440  -31.5590   26.1530 C   0  0  0  0  0  1  0  0  0  0  0  0
  1  2  1  0
  3  1  1  0
  4  1  1  0
  6  5  1  0
  7  5  1  0
  7 10  1  0
  8  6  1  0
  9  6  1  0
 13 19  1  0
 14 19  1  0
 15 16  1  0
 15 14  1  0
 17 16  1  0
 17 26  1  0
 17 18  1  0
 19 18  1  0
 20 13  2  0
 21 13  1  0
 21 22  1  0
 23 24  2  0
 24 43  1  0
 25 24  1  0
 25 28  1  0
 26 27  1  0
 26 23  1  0
 27 25  2  0
 28 29  1  0
 29 30  2  0
 31 34  1  0
 31 30  1  0
 32 31  2  0
 33 32  1  0
 33 28  2  0
 34 35  1  0
 35 40  2  0
 35 36  1  0
 36 37  2  0
 37 38  1  0
 38 42  1  0
 39 38  2  0
 40 39  1  0
 41 40  1  0
 43 44  1  0
 44 47  1  0
 44 46  1  0
 45 43  2  0
 48 23  1  0
 48 49  1  0
 50 48  1  0
 52 54  1  0
 53 52  1  0
 55 53  1  0
 55 56  1  0
 56 57  1  0
 56 54  1  0
 59 58  1  0
 60 71  2  0
 61 59  1  0
 62 70  1  0
 62 72  1  0
 63 69  1  0
 63 65  2  0
 64 70  1  0
 65 66  1  0
 65 64  1  0
 66 61  1  0
 67 61  1  0
 68 63  1  0
 68 67  1  0
 69 62  1  0
 70 60  1  0
 72 74  2  0
 72 73  1  0
 73 75  1  0
 76 81  1  0
 77 73  1  0
 78 77  1  0
 79 80  1  0
 79 78  1  0
 80 76  1  0
 81 77  1  0
 81 82  2  0
 83 82  1  0
 84 83  2  0
 85 76  2  0
 85 84  1  0
 86 60  1  0
 86 87  1  0
 86 96  1  0
 87 90  1  0
 88 92  1  0
 88 87  1  0
 89 88  2  0
 92 91  1  0
 94 92  1  0
 94 95  1  0
 94 93  1  0
 96 99  1  1
 96 97  1  0
 98 96  1  0
M  ISO  4  13 100  21 100  58 101  59 101
M  END
>  <TORSDO>  (28) 
F 24

>  <SCORE>  (28) 
-11.500

>  <name>  (28) 
27

>  <ligand_id>  (28) 
27

>  <original_smiles>  (28) 
[H]c1c([H])c([H])c2c(c1[H])C([H])([H])C([H])([H])C([H])([H])C2([H])N([H])C(=O)C1([H])N(C(=O)C([H])(N([H])C(=O)C([H])(N([H])C([H])([H])[H])C([H])([H])[H])C(C([H])([H])[H])(C([H])([H])[H])C([H])([H])[H])C([H])([H])c2c([H])c(OC([H])([H])C([H])([H])N3C([H])([H])C([H])([H])C([H])([H])C3([H])C([H])([H])[N+]([H])([H])C([H])([H])C(N([H])[H])=[N+]([H])C([H])([H])C([H])([H])N([H])C(=O)N3C([H])([H])C([H])([H])C([H])([H])C([H])(n4nc(-c5c([H])c([H])c(Oc6c([H])c([H])c(F)c([H])c6F)c([H])c5[H])c(C(=O)N([H])[H])c4N([H])[H])C3([H])[H])c([H])c([H])c2C1([H])[H]

>  <smiles>  (28) 
[H]c1c([H])c([H])c2c(c1[H])C([H])([H])C([H])([H])C([H])([H])C2([H])N([H])C(=O)C1([H])N(C(=O)C([H])(N([H])C(=O)C([H])(N([H])C([H])([H])[H])C([H])([H])[H])C(C([H])([H])[H])(C([H])([H])[H])C([H])([H])[H])C([H])([H])c2c([H])c(OC([H])([H])C([H])([H])N3C([H])([H])C([H])([H])C([H])([H])C3([H])C([H])([H])[N+]([H])([H])C([H])([H])C(N([H])[H])=[N+]([H])C([H])([H])C([H])([H])N([H])C(=O)N3C([H])([H])C([H])([H])C([H])([H])C([H])(n4nc(-c5c([H])c([H])c(Oc6c([H])c([H])c(F)c([H])c6F)c([H])c5[H])c(C(=O)N([H])[H])c4N([H])[H])C3([H])[H])c([H])c([H])c2C1([H])[H]

$$$$
28:0:0
     RDKit          3D

 90 98  0  0  1  0  0  0  0  0999 V2000
  -28.0360  -21.2130   20.5290 C   0  0  0  0  0  3  0  0  0  0  0  0
  -26.9740  -22.1920   20.1420 C   0  0  0  0  0  2  0  0  0  0  0  0
  -27.6520  -22.9470   18.9940 C   0  0  0  0  0  2  0  0  0  0  0  0
  -29.0750  -23.1090   19.5220 C   0  0  0  0  0  3  0  0  0  0  0  0
  -29.2820  -21.5310   20.0990 N   0  0  0  0  0  0  0  0  0  0  0  0
  -27.7040  -20.0700   21.1590 N   0  0  0  0  0  0  0  0  0  0  0  0
  -26.7430  -19.8780   21.4140 H   0  0  0  0  0  0  0  0  0  0  0  0
  -28.3990  -19.4110   21.4730 H   0  0  0  0  0  0  0  0  0  0  0  0
  -28.8930  -24.6920   20.3740 C   0  0  0  0  0  2  0  0  0  0  0  0
  -28.7780  -26.2980   19.9980 O   0  0  0  0  0  0  0  0  0  0  0  0
  -24.7440  -31.8680   23.1740 C   0  0  0  0  0  0  0  0  0  0  0  0
  -27.6550  -27.2690   20.0660 C   0  0  0  0  0  0  0  0  0  0  0  0
  -23.6660  -30.4510   21.4730 C   0  0  0  0  0  3  0  0  0  0  0  0
  -25.2340  -28.9830   20.0360 C   0  0  0  0  0  0  0  0  0  0  0  0
  -26.2140  -30.8370   21.3720 C   0  0  0  0  0  2  0  0  0  0  0  0
  -26.3850  -29.4530   20.6820 C   0  0  0  0  0  0  0  0  0  0  0  0
  -27.5910  -28.6210   20.6650 C   0  0  0  0  0  3  0  0  0  0  0  0
  -26.4630  -26.9400   19.3870 C   0  0  0  0  0  3  0  0  0  0  0  0
  -25.2950  -27.7470   19.3700 C   0  0  0  0  0  3  0  0  0  0  0  0
  -23.9600  -29.8230   20.0840 C   0  0  0  0  0  2  0  0  0  0  0  0
  -24.8940  -31.0780   22.0620 N   0  0  0  0  0  0  0  0  0  0  0  0
  -23.6310  -32.0680   23.6880 O   0  0  0  0  0  0  0  0  0  0  0  0
  -23.0240  -29.3820   22.3970 C   0  0  0  0  0  0  0  0  0  0  0  0
  -21.7110  -29.1360   22.2450 N   0  0  0  0  0  0  0  0  0  0  0  0
  -23.7180  -28.7750   23.2170 O   0  0  0  0  0  0  0  0  0  0  0  0
  -21.2010  -29.6820   21.5630 H   0  0  0  0  0  0  0  0  0  0  0  0
  -18.4020  -27.7090   22.6730 C   0  0  0  0  0  0  0  0  0  0  0  0
  -20.9400  -28.1230   22.9720 C   0  0  0  0  0  3  0  0  0  0  0  0
  -21.1330  -26.7210   22.3460 C   0  0  0  0  0  2  0  0  0  0  0  0
  -20.0600  -26.3700   21.3090 C   0  0  0  0  0  2  0  0  0  0  0  0
  -18.6680  -26.4020   21.9450 C   0  0  0  0  0  2  0  0  0  0  0  0
  -19.4680  -28.5240   23.1410 C   0  0  0  0  0  0  0  0  0  0  0  0
  -19.1640  -29.7430   23.7850 C   0  0  0  0  0  3  0  0  0  0  0  0
  -17.8280  -30.1510   23.9620 C   0  0  0  0  0  3  0  0  0  0  0  0
  -16.7780  -29.3350   23.5080 C   0  0  0  0  0  3  0  0  0  0  0  0
  -17.0650  -28.1160   22.8700 C   0  0  0  0  0  3  0  0  0  0  0  0
  -25.9610  -32.5690   23.8480 C   0  0  0  0  0  3  0  0  0  0  0  0
  -26.4480  -31.8380   25.1620 C   0  0  1  0  0  0  0  0  0  0  0  0
  -25.3150  -31.5600   26.1780 C   0  0  0  0  0  1  0  0  0  0  0  0
  -27.1150  -30.4860   24.8260 C   0  0  0  0  0  1  0  0  0  0  0  0
  -27.5250  -32.6950   25.8700 C   0  0  0  0  0  1  0  0  0  0  0  0
  -25.5720  -33.9560   24.1570 N   0  0  0  0  0  0  0  0  0  0  0  0
  -25.8760  -35.0240   23.4070 C   0  0  0  0  0  0  0  0  0  0  0  0
  -26.5750  -34.9480   22.3950 O   0  0  0  0  0  0  0  0  0  0  0  0
  -24.9500  -34.0850   24.9410 H   0  0  0  0  0  0  0  0  0  0  0  0
  -24.0730  -36.7390   23.0160 C   0  0  0  0  0  1  0  0  0  0  0  0
  -25.3180  -36.3940   23.8480 C   0  0  0  0  0  3  0  0  0  0  0  0
  -27.3880  -37.3930   24.7150 C   0  0  0  0  0  1  0  0  0  0  0  0
  -26.3030  -37.4940   23.7430 N   0  0  0  0  0  0  0  0  0  0  0  0
  -25.8500  -38.3960   23.8640 H   0  0  0  0  0  0  0  0  0  0  0  0
  -29.9990  -20.1320   19.4800 C   0  0  0  0  0  2  0  0  0  0  0  0
  -30.5440  -18.5840   20.2340 C   0  0  0  0  0  2  0  0  0  0  0  0
  -31.0810  -15.6820   19.8420 C   0  0  0  0  0  0  0  0  0  0  0  0
  -30.9880  -13.2350   18.9720 C   0  0  0  0  0  2  0  0  0  0  0  0
  -30.0060  -13.0190   17.7930 C   0  0  0  0  0  2  0  0  0  0  0  0
  -28.5750  -12.7780   18.3060 C   0  0  0  0  0  2  0  0  0  0  0  0
  -28.1890  -13.7630   19.4380 C   0  0  0  0  0  3  0  0  0  0  0  0
  -29.2910  -13.9100   20.5070 C   0  0  0  0  0  2  0  0  0  0  0  0
  -30.4900  -14.3900   19.8020 N   0  0  0  0  0  0  0  0  0  0  0  0
  -32.3020  -15.6640   19.6360 O   0  0  0  0  0  0  0  0  0  0  0  0
  -30.3210  -16.9550   19.9120 N   0  0  0  0  0  0  0  0  0  0  0  0
  -29.3350  -16.7380   19.8940 H   0  0  0  0  0  0  0  0  0  0  0  0
  -25.8990  -14.3750   20.3780 C   0  0  0  0  0  0  0  0  0  0  0  0
  -24.8270  -13.6230   20.7650 C   0  0  0  0  0  0  0  0  0  0  0  0
  -25.2270  -12.2580   20.6220 C   0  0  0  0  0  0  0  0  0  0  0  0
  -26.8830  -13.4730   20.0140 N   0  0  0  0  0  0  0  0  0  0  0  0
  -26.4960  -12.1890   20.2290 N   0  0  0  0  0  0  0  0  0  0  0  0
  -24.4550  -11.0200   20.7790 C   0  0  0  0  0  0  0  0  0  0  0  0
  -24.8350  -10.0210   21.7030 C   0  0  0  0  0  3  0  0  0  0  0  0
  -24.0630   -8.8490   21.8490 C   0  0  0  0  0  3  0  0  0  0  0  0
  -22.8940   -8.6670   21.0710 C   0  0  0  0  0  0  0  0  0  0  0  0
  -22.5320   -9.6540   20.1370 C   0  0  0  0  0  3  0  0  0  0  0  0
  -23.3060  -10.8170   19.9890 C   0  0  0  0  0  3  0  0  0  0  0  0
  -22.0960   -7.5500   21.1280 O   0  0  0  0  0  0  0  0  0  0  0  0
  -21.9320   -6.8410   22.2910 C   0  0  0  0  0  0  0  0  0  0  0  0
  -21.3810   -7.4290   23.4500 C   0  0  0  0  0  3  0  0  0  0  0  0
  -21.1640   -6.6460   24.6020 C   0  0  0  0  0  3  0  0  0  0  0  0
  -21.4890   -5.2770   24.5950 C   0  0  0  0  0  0  0  0  0  0  0  0
  -22.0340   -4.6890   23.4400 C   0  0  0  0  0  3  0  0  0  0  0  0
  -22.2510   -5.4690   22.2900 C   0  0  0  0  0  0  0  0  0  0  0  0
  -22.7560   -4.8920   21.1730 F   0  0  0  0  0  0  0  0  0  0  0  0
  -21.2740   -4.5230   25.6980 F   0  0  0  0  0  0  0  0  0  0  0  0
  -23.4710  -14.1420   21.1450 C   0  0  0  0  0  0  0  0  0  0  0  0
  -22.7660  -13.4320   22.0170 N   0  0  0  0  0  0  0  0  0  0  0  0
  -23.0510  -15.2120   20.7030 O   0  0  0  0  0  0  0  0  0  0  0  0
  -23.1200  -12.5650   22.3950 H   0  0  0  0  0  0  0  0  0  0  0  0
  -21.8570  -13.7600   22.3130 H   0  0  0  0  0  0  0  0  0  0  0  0
  -26.1110  -15.7460   20.2740 N   0  0  0  0  0  0  0  0  0  0  0  0
  -25.3760  -16.4180   20.4700 H   0  0  0  0  0  0  0  0  0  0  0  0
  -26.9390  -16.1720   19.8790 H   0  0  0  0  0  0  0  0  0  0  0  0
  1  6  1  0
  2  1  1  0
  3  4  1  0
  3  2  1  0
  4  5  1  0
  4  9  1  0
  5  1  1  0
  6  7  1  0
  6  8  1  0
 10 12  1  0
 10  9  1  0
 11 22  2  0
 12 17  1  0
 13 21  1  0
 13 23  1  0
 14 20  1  0
 14 16  1  0
 15 21  1  0
 16 15  1  0
 17 16  2  0
 18 12  2  0
 19 18  1  0
 19 14  2  0
 20 13  1  0
 21 11  1  0
 23 25  2  0
 24 23  1  0
 26 24  1  0
 27 36  2  0
 27 32  1  0
 28 24  1  0
 28 32  1  0
 29 28  1  0
 30 31  1  0
 30 29  1  0
 31 27  1  0
 32 33  2  0
 33 34  1  0
 35 34  2  0
 36 35  1  0
 37 11  1  0
 37 42  1  0
 37 38  1  0
 38 41  1  1
 38 39  1  0
 40 38  1  0
 42 45  1  0
 43 47  1  0
 43 42  1  0
 44 43  2  0
 47 46  1  0
 49 47  1  0
 49 50  1  0
 49 48  1  0
 51  5  1  0
 51 52  1  0
 53 61  1  0
 54 59  1  0
 55 56  1  0
 55 54  1  0
 57 56  1  0
 57 66  1  0
 57 58  1  0
 59 53  1  0
 59 58  1  0
 60 53  2  0
 61 52  1  0
 62 61  1  0
 63 64  2  0
 64 83  1  0
 65 64  1  0
 65 68  1  0
 66 67  1  0
 66 63  1  0
 67 65  2  0
 68 69  1  0
 69 70  2  0
 71 74  1  0
 71 70  1  0
 72 71  2  0
 73 72  1  0
 73 68  2  0
 74 75  1  0
 75 76  1  0
 76 77  2  0
 78 77  1  0
 78 82  1  0
 79 78  2  0
 80 75  2  0
 80 79  1  0
 81 80  1  0
 83 84  1  0
 84 87  1  0
 84 86  1  0
 85 83  2  0
 88 63  1  0
 88 89  1  0
 90 88  1  0
M  ISO  4   9 101  10 101  53 100  61 100
M  END
>  <TORSDO>  (29) 
F 19

>  <SCORE>  (29) 
-14.620

>  <name>  (29) 
28

>  <ligand_id>  (29) 
28

>  <original_smiles>  (29) 
[H]c1c([H])c([H])c2c(c1[H])C([H])([H])C([H])([H])C([H])([H])C2([H])N([H])C(=O)C1([H])N(C(=O)C([H])(N([H])C(=O)C([H])(N([H])C([H])([H])[H])C([H])([H])[H])C(C([H])([H])[H])(C([H])([H])[H])C([H])([H])[H])C([H])([H])c2c([H])c(OC([H])([H])C3([H])N(C([H])([H])C([H])([H])N([H])C(=O)N4C([H])([H])C([H])([H])C([H])([H])C([H])(n5nc(-c6c([H])c([H])c(Oc7c([H])c([H])c(F)c([H])c7F)c([H])c6[H])c(C(=O)N([H])[H])c5N([H])[H])C4([H])[H])C(=[N+]([H])[H])C([H])([H])C3([H])[H])c([H])c([H])c2C1([H])[H]

>  <smiles>  (29) 
[H]c1c([H])c([H])c2c(c1[H])C([H])([H])C([H])([H])C([H])([H])C2([H])N([H])C(=O)C1([H])N(C(=O)C([H])(N([H])C(=O)C([H])(N([H])C([H])([H])[H])C([H])([H])[H])C(C([H])([H])[H])(C([H])([H])[H])C([H])([H])[H])C([H])([H])c2c([H])c(OC([H])([H])C3([H])N(C([H])([H])C([H])([H])N([H])C(=O)N4C([H])([H])C([H])([H])C([H])([H])C([H])(n5nc(-c6c([H])c([H])c(Oc7c([H])c([H])c(F)c([H])c7F)c([H])c6[H])c(C(=O)N([H])[H])c5N([H])[H])C4([H])[H])C(=[N+]([H])[H])C([H])([H])C3([H])[H])c([H])c([H])c2C1([H])[H]

$$$$
29:0:0
     RDKit          3D

 91 99  0  0  1  0  0  0  0  0999 V2000
  -29.3010  -22.7750   20.3230 N   0  0  0  0  0  4  0  0  0  0  0  0
  -29.4170  -22.7400   19.3230 H   0  0  0  0  0  0  0  0  0  0  0  0
  -30.2310  -22.9190   20.6940 H   0  0  0  0  0  0  0  0  0  0  0  0
  -28.8920  -21.3790   20.7740 C   0  0  0  0  0  2  0  0  0  0  0  0
  -30.6440  -14.6840   20.3800 C   0  0  0  0  0  0  0  0  0  0  0  0
  -30.3500  -12.4580   19.2890 C   0  0  0  0  0  2  0  0  0  0  0  0
  -29.3980  -12.5380   18.0770 C   0  0  0  0  0  2  0  0  0  0  0  0
  -27.9390  -12.3580   18.5320 C   0  0  0  0  0  2  0  0  0  0  0  0
  -27.5780  -13.2570   19.7420 C   0  0  0  0  0  3  0  0  0  0  0  0
  -28.6460  -13.1720   20.8570 C   0  0  0  0  0  2  0  0  0  0  0  0
  -29.9450  -13.5050   20.2590 N   0  0  0  0  0  0  0  0  0  0  0  0
  -31.8080  -14.7460   19.9730 O   0  0  0  0  0  0  0  0  0  0  0  0
  -30.0830  -20.3490   20.8710 C   0  0  0  0  0  0  0  0  0  0  0  0
  -31.1550  -18.1070   21.1600 C   0  0  0  0  0  2  0  0  0  0  0  0
  -28.7600  -18.1330   20.6730 C   0  0  0  0  0  2  0  0  0  0  0  0
  -30.8320  -16.7160   21.8050 C   0  0  0  0  0  2  0  0  0  0  0  0
  -28.9870  -16.6070   20.2500 C   0  0  0  0  0  2  0  0  0  0  0  0
  -29.9690  -18.9610   20.9030 N   0  0  0  0  0  0  0  0  0  0  0  0
  -30.0520  -15.8130   20.9320 N   0  0  0  0  0  0  0  0  0  0  0  0
  -31.2000  -20.8720   20.9570 O   0  0  0  0  0  0  0  0  0  0  0  0
  -25.1960  -13.8550   20.4860 C   0  0  0  0  0  0  0  0  0  0  0  0
  -24.1340  -13.0800   20.8660 C   0  0  0  0  0  0  0  0  0  0  0  0
  -24.6000  -11.7310   20.8390 C   0  0  0  0  0  0  0  0  0  0  0  0
  -26.2390  -12.9760   20.2470 N   0  0  0  0  0  0  0  0  0  0  0  0
  -25.8890  -11.6940   20.5230 N   0  0  0  0  0  0  0  0  0  0  0  0
  -23.8790  -10.4680   21.0360 C   0  0  0  0  0  0  0  0  0  0  0  0
  -24.3250   -9.4990   21.9600 C   0  0  0  0  0  3  0  0  0  0  0  0
  -23.6020   -8.3010   22.1460 C   0  0  0  0  0  3  0  0  0  0  0  0
  -22.4180   -8.0660   21.4060 C   0  0  0  0  0  0  0  0  0  0  0  0
  -21.9910   -9.0240   20.4710 C   0  0  0  0  0  3  0  0  0  0  0  0
  -22.7170  -10.2130   20.2840 C   0  0  0  0  0  3  0  0  0  0  0  0
  -21.6630   -6.9210   21.5040 O   0  0  0  0  0  0  0  0  0  0  0  0
  -21.6410   -6.1690   22.6500 C   0  0  0  0  0  0  0  0  0  0  0  0
  -21.2460   -6.7150   23.8920 C   0  0  0  0  0  3  0  0  0  0  0  0
  -21.1700   -5.8900   25.0310 C   0  0  0  0  0  3  0  0  0  0  0  0
  -21.4770   -4.5190   24.9310 C   0  0  0  0  0  0  0  0  0  0  0  0
  -21.8650   -3.9740   23.6950 C   0  0  0  0  0  3  0  0  0  0  0  0
  -21.9430   -4.7960   22.5570 C   0  0  0  0  0  0  0  0  0  0  0  0
  -22.2960   -4.2590   21.3630 F   0  0  0  0  0  0  0  0  0  0  0  0
  -21.3970   -3.7240   26.0240 F   0  0  0  0  0  0  0  0  0  0  0  0
  -22.7400  -13.5570   21.1450 C   0  0  0  0  0  0  0  0  0  0  0  0
  -22.0170  -12.8640   22.0200 N   0  0  0  0  0  0  0  0  0  0  0  0
  -22.2950  -14.5770   20.6200 O   0  0  0  0  0  0  0  0  0  0  0  0
  -22.3890  -12.0380   22.4670 H   0  0  0  0  0  0  0  0  0  0  0  0
  -21.0790  -13.1630   22.2460 H   0  0  0  0  0  0  0  0  0  0  0  0
  -25.3490  -15.2240   20.2970 N   0  0  0  0  0  0  0  0  0  0  0  0
  -24.5720  -15.8670   20.4030 H   0  0  0  0  0  0  0  0  0  0  0  0
  -26.1880  -15.6710   19.9530 H   0  0  0  0  0  0  0  0  0  0  0  0
  -28.4350  -23.9870   20.6630 C   0  0  0  0  0  2  0  0  0  0  0  0
  -28.6550  -25.2750   19.7460 C   0  0  0  0  0  2  0  0  0  0  0  0
  -28.4470  -26.6290   20.2810 O   0  0  0  0  0  0  0  0  0  0  0  0
  -24.6080  -31.8770   23.2420 C   0  0  0  0  0  0  0  0  0  0  0  0
  -27.2600  -27.3640   20.1930 C   0  0  0  0  0  0  0  0  0  0  0  0
  -23.3980  -30.4720   21.5990 C   0  0  0  0  0  3  0  0  0  0  0  0
  -24.8570  -28.9110   20.1820 C   0  0  0  0  0  0  0  0  0  0  0  0
  -25.9270  -30.8170   21.4010 C   0  0  0  0  0  2  0  0  0  0  0  0
  -26.0150  -29.4350   20.7680 C   0  0  0  0  0  0  0  0  0  0  0  0
  -27.2120  -28.6700   20.7640 C   0  0  0  0  0  3  0  0  0  0  0  0
  -26.0790  -26.8720   19.5950 C   0  0  0  0  0  3  0  0  0  0  0  0
  -24.8870  -27.6340   19.5930 C   0  0  0  0  0  3  0  0  0  0  0  0
  -23.6110  -29.7730   20.2250 C   0  0  0  0  0  2  0  0  0  0  0  0
  -24.6620  -31.0740   22.1370 N   0  0  0  0  0  0  0  0  0  0  0  0
  -23.5290  -32.1510   23.7860 O   0  0  0  0  0  0  0  0  0  0  0  0
  -22.7410  -29.4640   22.5700 C   0  0  0  0  0  0  0  0  0  0  0  0
  -21.4170  -29.2840   22.4440 N   0  0  0  0  0  0  0  0  0  0  0  0
  -23.4240  -28.8420   23.3870 O   0  0  0  0  0  0  0  0  0  0  0  0
  -20.9290  -29.8360   21.7540 H   0  0  0  0  0  0  0  0  0  0  0  0
  -18.0450  -28.0780   22.9460 C   0  0  0  0  0  0  0  0  0  0  0  0
  -20.6020  -28.3460   23.2180 C   0  0  0  0  0  3  0  0  0  0  0  0
  -20.7090  -26.9150   22.6460 C   0  0  0  0  0  2  0  0  0  0  0  0
  -19.6110  -26.5860   21.6290 C   0  0  0  0  0  2  0  0  0  0  0  0
  -18.2270  -26.7280   22.2720 C   0  0  0  0  0  2  0  0  0  0  0  0
  -19.1620  -28.8450   23.3740 C   0  0  0  0  0  0  0  0  0  0  0  0
  -18.9390  -30.1080   23.9630 C   0  0  0  0  0  3  0  0  0  0  0  0
  -17.6330  -30.6070   24.1270 C   0  0  0  0  0  3  0  0  0  0  0  0
  -16.5320  -29.8380   23.7140 C   0  0  0  0  0  3  0  0  0  0  0  0
  -16.7380  -28.5760   23.1300 C   0  0  0  0  0  3  0  0  0  0  0  0
  -25.8960  -32.5050   23.8610 C   0  0  0  0  0  3  0  0  0  0  0  0
  -26.4180  -31.7340   25.1370 C   0  0  1  0  0  0  0  0  0  0  0  0
  -25.3310  -31.5010   26.2120 C   0  0  0  0  0  1  0  0  0  0  0  0
  -26.9950  -30.3540   24.7460 C   0  0  0  0  0  1  0  0  0  0  0  0
  -27.5750  -32.5250   25.7910 C   0  0  0  0  0  1  0  0  0  0  0  0
  -25.5900  -33.9040   24.1910 N   0  0  0  0  0  0  0  0  0  0  0  0
  -25.9240  -34.9570   23.4320 C   0  0  0  0  0  0  0  0  0  0  0  0
  -26.5910  -34.8520   22.3990 O   0  0  0  0  0  0  0  0  0  0  0  0
  -24.9960  -34.0570   24.9930 H   0  0  0  0  0  0  0  0  0  0  0  0
  -24.1980  -36.7540   23.0810 C   0  0  0  0  0  1  0  0  0  0  0  0
  -25.4400  -36.3460   23.8900 C   0  0  0  0  0  3  0  0  0  0  0  0
  -27.5810  -37.2270   24.7120 C   0  0  0  0  0  1  0  0  0  0  0  0
  -26.4730  -37.3990   23.7750 N   0  0  0  0  0  0  0  0  0  0  0  0
  -26.0690  -38.3180   23.9280 H   0  0  0  0  0  0  0  0  0  0  0  0
  1 49  1  0
  1  3  1  0
  1  4  1  0
  2  1  1  0
  4 13  1  0
  5 19  1  0
  6 11  1  0
  7  8  1  0
  7  6  1  0
  9  8  1  0
  9 24  1  0
  9 10  1  0
 11  5  1  0
 11 10  1  0
 12  5  2  0
 13 18  1  0
 13 20  2  0
 14 16  1  0
 15 18  1  0
 17 15  1  0
 17 19  1  0
 18 14  1  0
 19 16  1  0
 21 22  2  0
 22 41  1  0
 23 22  1  0
 23 26  1  0
 24 21  1  0
 24 25  1  0
 25 23  2  0
 26 27  1  0
 27 28  2  0
 29 32  1  0
 29 28  1  0
 30 29  2  0
 31 30  1  0
 31 26  2  0
 32 33  1  0
 33 34  1  0
 34 35  2  0
 36 35  1  0
 36 40  1  0
 37 36  2  0
 38 33  2  0
 38 37  1  0
 39 38  1  0
 41 42  1  0
 42 45  1  0
 42 44  1  0
 43 41  2  0
 46 47  1  0
 46 21  1  0
 48 46  1  0
 50 51  1  0
 50 49  1  0
 52 63  2  0
 53 51  1  0
 53 58  1  0
 54 62  1  0
 54 64  1  0
 55 61  1  0
 55 57  1  0
 56 62  1  0
 57 56  1  0
 58 57  2  0
 59 53  2  0
 60 59  1  0
 60 55  2  0
 61 54  1  0
 62 52  1  0
 64 66  2  0
 65 64  1  0
 67 65  1  0
 68 77  2  0
 68 73  1  0
 69 65  1  0
 69 73  1  0
 70 69  1  0
 71 72  1  0
 71 70  1  0
 72 68  1  0
 73 74  2  0
 74 75  1  0
 76 75  2  0
 77 76  1  0
 78 52  1  0
 78 83  1  0
 78 79  1  0
 79 82  1  1
 79 80  1  0
 81 79  1  0
 83 86  1  0
 84 88  1  0
 84 83  1  0
 85 84  2  0
 88 87  1  0
 90 88  1  0
 90 91  1  0
 90 89  1  0
M  ISO  4   5 100  19 100  50 101  51 101
M  END
>  <TORSDO>  (30) 
F 19

>  <SCORE>  (30) 
-14.429

>  <name>  (30) 
29

>  <ligand_id>  (30) 
29

>  <original_smiles>  (30) 
[H]c1c([H])c([H])c2c(c1[H])C([H])([H])C([H])([H])C([H])([H])C2([H])N([H])C(=O)C1([H])N(C(=O)C([H])(N([H])C(=O)C([H])(N([H])C([H])([H])[H])C([H])([H])[H])C(C([H])([H])[H])(C([H])([H])[H])C([H])([H])[H])C([H])([H])c2c([H])c(OC([H])([H])C([H])([H])[N+]([H])([H])C([H])([H])C(=O)N3C([H])([H])C([H])([H])N(C(=O)N4C([H])([H])C([H])([H])C([H])([H])C([H])(n5nc(-c6c([H])c([H])c(Oc7c([H])c([H])c(F)c([H])c7F)c([H])c6[H])c(C(=O)N([H])[H])c5N([H])[H])C4([H])[H])C([H])([H])C3([H])[H])c([H])c([H])c2C1([H])[H]

>  <smiles>  (30) 
[H]c1c([H])c([H])c2c(c1[H])C([H])([H])C([H])([H])C([H])([H])C2([H])N([H])C(=O)C1([H])N(C(=O)C([H])(N([H])C(=O)C([H])(N([H])C([H])([H])[H])C([H])([H])[H])C(C([H])([H])[H])(C([H])([H])[H])C([H])([H])[H])C([H])([H])c2c([H])c(OC([H])([H])C([H])([H])[N+]([H])([H])C([H])([H])C(=O)N3C([H])([H])C([H])([H])N(C(=O)N4C([H])([H])C([H])([H])C([H])([H])C([H])(n5nc(-c6c([H])c([H])c(Oc7c([H])c([H])c(F)c([H])c7F)c([H])c6[H])c(C(=O)N([H])[H])c5N([H])[H])C4([H])[H])C([H])([H])C3([H])[H])c([H])c([H])c2C1([H])[H]

$$$$
30:0:0
     RDKit          3D

103111  0  0  1  0  0  0  0  0999 V2000
  -32.0220  -23.8190   20.3440 C   0  0  0  0  0  3  0  0  0  0  0  0
  -31.0600  -22.9340   18.2880 C   0  0  0  0  0  3  0  0  0  0  0  0
  -31.4730  -22.7400   21.0670 C   0  0  0  0  0  3  0  0  0  0  0  0
  -30.5070  -21.8590   19.0100 C   0  0  0  0  0  3  0  0  0  0  0  0
  -31.8120  -23.9260   18.9520 C   0  0  0  0  0  0  0  0  0  0  0  0
  -30.7150  -21.7470   20.4050 C   0  0  0  0  0  0  0  0  0  0  0  0
  -32.3710  -25.1170   18.1750 C   0  0  0  0  0  2  0  0  0  0  0  0
  -31.7240  -26.3820   18.5820 N   0  0  0  0  0  4  0  0  0  0  0  0
  -32.2100  -27.1560   18.1490 H   0  0  0  0  0  0  0  0  0  0  0  0
  -31.8780  -26.4600   19.5720 H   0  0  0  0  0  0  0  0  0  0  0  0
  -30.2630  -26.5050   18.3380 C   0  0  0  0  0  2  0  0  0  0  0  0
  -29.5820  -27.3700   19.4290 C   0  0  0  0  0  2  0  0  0  0  0  0
  -28.4300  -26.7130   19.9650 O   0  0  0  0  0  0  0  0  0  0  0  0
  -24.6250  -31.8780   23.2290 C   0  0  0  0  0  0  0  0  0  0  0  0
  -27.2830  -27.4630   20.0880 C   0  0  0  0  0  0  0  0  0  0  0  0
  -23.4170  -30.4650   21.5980 C   0  0  0  0  0  3  0  0  0  0  0  0
  -24.8680  -28.9240   20.1760 C   0  0  0  0  0  0  0  0  0  0  0  0
  -25.9400  -30.8330   21.3860 C   0  0  0  0  0  2  0  0  0  0  0  0
  -26.0300  -29.4620   20.7460 C   0  0  0  0  0  0  0  0  0  0  0  0
  -27.2430  -28.7370   20.7030 C   0  0  0  0  0  3  0  0  0  0  0  0
  -26.0910  -26.9130   19.5730 C   0  0  0  0  0  3  0  0  0  0  0  0
  -24.8910  -27.6460   19.5940 C   0  0  0  0  0  3  0  0  0  0  0  0
  -23.6210  -29.7740   20.2240 C   0  0  0  0  0  2  0  0  0  0  0  0
  -24.6800  -31.0720   22.1300 N   0  0  0  0  0  0  0  0  0  0  0  0
  -23.5460  -32.1510   23.7710 O   0  0  0  0  0  0  0  0  0  0  0  0
  -22.7680  -29.4500   22.5660 C   0  0  0  0  0  0  0  0  0  0  0  0
  -21.4420  -29.2680   22.4440 N   0  0  0  0  0  0  0  0  0  0  0  0
  -23.4540  -28.8260   23.3800 O   0  0  0  0  0  0  0  0  0  0  0  0
  -20.9510  -29.8230   21.7570 H   0  0  0  0  0  0  0  0  0  0  0  0
  -18.0700  -28.0740   22.9510 C   0  0  0  0  0  0  0  0  0  0  0  0
  -20.6280  -28.3330   23.2180 C   0  0  0  0  0  3  0  0  0  0  0  0
  -20.7290  -26.9010   22.6460 C   0  0  0  0  0  2  0  0  0  0  0  0
  -19.6250  -26.5750   21.6360 C   0  0  0  0  0  2  0  0  0  0  0  0
  -18.2440  -26.7210   22.2820 C   0  0  0  0  0  2  0  0  0  0  0  0
  -19.1880  -28.8370   23.3770 C   0  0  0  0  0  0  0  0  0  0  0  0
  -18.9710  -30.1050   23.9640 C   0  0  0  0  0  3  0  0  0  0  0  0
  -17.6660  -30.6050   24.1300 C   0  0  0  0  0  3  0  0  0  0  0  0
  -16.5620  -29.8390   23.7230 C   0  0  0  0  0  3  0  0  0  0  0  0
  -16.7640  -28.5740   23.1400 C   0  0  0  0  0  3  0  0  0  0  0  0
  -25.9120  -32.5150   23.8410 C   0  0  0  0  0  3  0  0  0  0  0  0
  -25.6010  -33.9110   24.1770 N   0  0  0  0  0  0  0  0  0  0  0  0
  -25.9280  -34.9660   23.4180 C   0  0  0  0  0  0  0  0  0  0  0  0
  -26.5950  -34.8660   22.3850 O   0  0  0  0  0  0  0  0  0  0  0  0
  -25.0080  -34.0620   24.9790 H   0  0  0  0  0  0  0  0  0  0  0  0
  -24.1950  -36.7560   23.0720 C   0  0  0  0  0  1  0  0  0  0  0  0
  -25.4380  -36.3510   23.8800 C   0  0  0  0  0  3  0  0  0  0  0  0
  -27.5740  -37.2370   24.7090 C   0  0  0  0  0  1  0  0  0  0  0  0
  -26.4680  -37.4070   23.7690 N   0  0  0  0  0  0  0  0  0  0  0  0
  -26.0590  -38.3250   23.9230 H   0  0  0  0  0  0  0  0  0  0  0  0
  -26.4430  -31.7420   25.1100 C   0  0  1  0  0  0  0  0  0  0  0  0
  -25.3620  -31.5000   26.1890 C   0  0  0  0  0  1  0  0  0  0  0  0
  -27.0260  -30.3660   24.7090 C   0  0  0  0  0  1  0  0  0  0  0  0
  -27.5960  -32.5390   25.7650 C   0  0  0  0  0  1  0  0  0  0  0  0
  -30.1670  -20.5440   21.1780 C   0  0  0  0  0  2  0  0  0  0  0  0
  -30.8470  -19.2800   20.7860 N   0  0  1  0  0  4  0  0  0  0  0  0
  -30.5990  -19.2020   19.8120 H   0  0  0  0  0  0  0  0  0  0  0  0
  -32.3420  -19.3260   20.7950 C   0  0  0  0  0  2  0  0  0  0  0  0
  -32.8940  -19.2140   19.3520 C   0  0  0  0  0  2  0  0  0  0  0  0
  -34.3170  -18.6250   19.2250 C   0  0  0  0  0  2  0  0  0  0  0  0
  -35.3730  -19.4670   19.8210 N   0  0  0  0  0  4  0  0  0  0  0  0
  -36.2710  -19.0370   19.6620 H   0  0  0  0  0  0  0  0  0  0  0  0
  -35.2750  -19.5670   20.8140 H   0  0  0  0  0  0  0  0  0  0  0  0
  -35.4010  -20.3780   19.3990 H   0  0  0  0  0  0  0  0  0  0  0  0
  -30.2800  -18.0390   21.3960 C   0  0  0  0  0  2  0  0  0  0  0  0
  -30.6060  -16.8320   20.4870 C   0  0  0  0  0  2  0  0  0  0  0  0
  -30.7650  -14.4010   20.4960 C   0  0  0  0  0  0  0  0  0  0  0  0
  -30.3600  -12.2740   19.3580 C   0  0  0  0  0  2  0  0  0  0  0  0
  -29.4500  -12.5300   18.1390 C   0  0  0  0  0  2  0  0  0  0  0  0
  -27.9720  -12.4090   18.5550 C   0  0  0  0  0  2  0  0  0  0  0  0
  -27.6340  -13.2480   19.8180 C   0  0  0  0  0  3  0  0  0  0  0  0
  -28.6810  -13.0310   20.9410 C   0  0  0  0  0  2  0  0  0  0  0  0
  -30.0170  -13.2740   20.3800 N   0  0  0  0  0  0  0  0  0  0  0  0
  -31.8980  -14.4930   20.0270 O   0  0  0  0  0  0  0  0  0  0  0  0
  -30.1410  -15.5090   20.9340 N   0  0  0  0  0  0  0  0  0  0  0  0
  -29.2100  -15.4190   21.3150 H   0  0  0  0  0  0  0  0  0  0  0  0
  -25.2230  -13.8520   20.4870 C   0  0  0  0  0  0  0  0  0  0  0  0
  -24.1540  -13.0800   20.8500 C   0  0  0  0  0  0  0  0  0  0  0  0
  -24.6170  -11.7290   20.8400 C   0  0  0  0  0  0  0  0  0  0  0  0
  -26.2750  -12.9720   20.2840 N   0  0  0  0  0  0  0  0  0  0  0  0
  -25.9120  -11.6910   20.5520 N   0  0  0  0  0  0  0  0  0  0  0  0
  -23.8910  -10.4660   21.0350 C   0  0  0  0  0  0  0  0  0  0  0  0
  -24.3270   -9.5060   21.9730 C   0  0  0  0  0  3  0  0  0  0  0  0
  -23.6050   -8.3060   22.1590 C   0  0  0  0  0  3  0  0  0  0  0  0
  -22.4330   -8.0580   21.4070 C   0  0  0  0  0  0  0  0  0  0  0  0
  -22.0170   -9.0070   20.4570 C   0  0  0  0  0  3  0  0  0  0  0  0
  -22.7370  -10.1980   20.2680 C   0  0  0  0  0  3  0  0  0  0  0  0
  -21.6840   -6.9110   21.4970 O   0  0  0  0  0  0  0  0  0  0  0  0
  -21.6460   -6.1640   22.6470 C   0  0  0  0  0  0  0  0  0  0  0  0
  -21.2420   -6.7200   23.8810 C   0  0  0  0  0  3  0  0  0  0  0  0
  -21.1570   -5.9030   25.0270 C   0  0  0  0  0  3  0  0  0  0  0  0
  -21.4560   -4.5310   24.9390 C   0  0  0  0  0  0  0  0  0  0  0  0
  -21.8530   -3.9740   23.7090 C   0  0  0  0  0  3  0  0  0  0  0  0
  -21.9440   -4.7900   22.5670 C   0  0  0  0  0  0  0  0  0  0  0  0
  -22.3060   -4.2440   21.3800 F   0  0  0  0  0  0  0  0  0  0  0  0
  -21.3640   -3.7430   26.0360 F   0  0  0  0  0  0  0  0  0  0  0  0
  -22.7500  -13.5530   21.1040 C   0  0  0  0  0  0  0  0  0  0  0  0
  -22.0240  -12.8570   21.9740 N   0  0  0  0  0  0  0  0  0  0  0  0
  -22.3100  -14.5700   20.5690 O   0  0  0  0  0  0  0  0  0  0  0  0
  -22.3980  -12.0350   22.4220 H   0  0  0  0  0  0  0  0  0  0  0  0
  -21.0800  -13.1440   22.1950 H   0  0  0  0  0  0  0  0  0  0  0  0
  -25.3880  -15.2200   20.2930 N   0  0  0  0  0  0  0  0  0  0  0  0
  -24.6180  -15.8750   20.3750 H   0  0  0  0  0  0  0  0  0  0  0  0
  -26.2420  -15.6530   19.9610 H   0  0  0  0  0  0  0  0  0  0  0  0
  1  3  1  0
  2  5  1  0
  2  4  2  0
  4  6  1  0
  5  1  2  0
  6  3  2  0
  6 54  1  0
  7  8  1  0
  7  5  1  0
  8 10  1  0
  9  8  1  0
 11  8  1  0
 11 12  1  0
 12 13  1  0
 13 15  1  0
 14 25  2  0
 15 20  1  0
 16 24  1  0
 16 26  1  0
 17 23  1  0
 17 19  1  0
 18 24  1  0
 19 18  1  0
 20 19  2  0
 21 22  1  0
 21 15  2  0
 22 17  2  0
 23 16  1  0
 24 14  1  0
 26 28  2  0
 27 26  1  0
 29 27  1  0
 30 39  2  0
 30 35  1  0
 31 27  1  0
 31 35  1  0
 32 31  1  0
 33 34  1  0
 33 32  1  0
 34 30  1  0
 35 36  2  0
 36 37  1  0
 38 37  2  0
 39 38  1  0
 40 14  1  0
 40 41  1  0
 40 50  1  0
 41 44  1  0
 42 46  1  0
 42 41  1  0
 43 42  2  0
 46 45  1  0
 48 46  1  0
 48 49  1  0
 48 47  1  0
 50 53  1  1
 50 51  1  0
 52 50  1  0
 55 57  1  0
 55 54  1  0
 55 64  1  0
 55 56  1  6
 58 57  1  0
 59 58  1  0
 59 60  1  0
 60 62  1  0
 61 60  1  0
 63 60  1  0
 65 74  1  0
 65 64  1  0
 66 74  1  0
 67 72  1  0
 68 69  1  0
 68 67  1  0
 70 69  1  0
 70 79  1  0
 70 71  1  0
 72 66  1  0
 72 71  1  0
 73 66  2  0
 74 75  1  0
 76 77  2  0
 77 96  1  0
 78 77  1  0
 78 81  1  0
 79 76  1  0
 79 80  1  0
 80 78  2  0
 81 82  1  0
 82 83  2  0
 84 87  1  0
 84 83  1  0
 85 84  2  0
 86 85  1  0
 86 81  2  0
 87 88  1  0
 88 89  1  0
 89 90  2  0
 91 90  1  0
 91 95  1  0
 92 91  2  0
 93 88  2  0
 93 92  1  0
 94 93  1  0
 96 97  1  0
 97100  1  0
 97 99  1  0
 98 96  2  0
101102  1  0
101 76  1  0
103101  1  0
M  ISO  4  12 101  13 101  66 100  74 100
M  END
>  <TORSDO>  (31) 
F 28

>  <SCORE>  (31) 
-11.397

>  <name>  (31) 
30

>  <ligand_id>  (31) 
30

>  <original_smiles>  (31) 
[H]c1c([H])c([H])c2c(c1[H])C([H])([H])C([H])([H])C([H])([H])C2([H])N([H])C(=O)C1([H])N(C(=O)C([H])(N([H])C(=O)C([H])(N([H])C([H])([H])[H])C([H])([H])[H])C(C([H])([H])[H])(C([H])([H])[H])C([H])([H])[H])C([H])([H])c2c([H])c(OC([H])([H])C([H])([H])[N+]([H])([H])C([H])([H])c3c([H])c([H])c(C([H])([H])[N+]([H])(C([H])([H])C([H])([H])N([H])C(=O)N4C([H])([H])C([H])([H])C([H])([H])C([H])(n5nc(-c6c([H])c([H])c(Oc7c([H])c([H])c(F)c([H])c7F)c([H])c6[H])c(C(=O)N([H])[H])c5N([H])[H])C4([H])[H])C([H])([H])C([H])([H])C([H])([H])[N+]([H])([H])[H])c([H])c3[H])c([H])c([H])c2C1([H])[H]

>  <smiles>  (31) 
[H]c1c([H])c([H])c2c(c1[H])C([H])([H])C([H])([H])C([H])([H])C2([H])N([H])C(=O)C1([H])N(C(=O)C([H])(N([H])C(=O)C([H])(N([H])C([H])([H])[H])C([H])([H])[H])C(C([H])([H])[H])(C([H])([H])[H])C([H])([H])[H])C([H])([H])c2c([H])c(OC([H])([H])C([H])([H])[N+]([H])([H])C([H])([H])c3c([H])c([H])c(C([H])([H])[N+]([H])(C([H])([H])C([H])([H])N([H])C(=O)N4C([H])([H])C([H])([H])C([H])([H])C([H])(n5nc(-c6c([H])c([H])c(Oc7c([H])c([H])c(F)c([H])c7F)c([H])c6[H])c(C(=O)N([H])[H])c5N([H])[H])C4([H])[H])C([H])([H])C([H])([H])C([H])([H])[N+]([H])([H])[H])c([H])c3[H])c([H])c([H])c2C1([H])[H]

$$$$
31:0:0
     RDKit          3D

 91 99  0  0  1  0  0  0  0  0999 V2000
  -29.1850  -21.3540   19.8220 C   0  0  0  0  0  2  0  0  0  0  0  0
  -30.2100  -21.1200   21.9730 C   0  0  0  0  0  2  0  0  0  0  0  0
  -29.8320  -20.0170   19.3710 C   0  0  0  0  0  2  0  0  0  0  0  0
  -30.8590  -19.7850   21.5420 C   0  0  0  0  0  2  0  0  0  0  0  0
  -30.0210  -22.0340   20.8310 N   0  0  0  0  0  0  0  0  0  0  0  0
  -29.9880  -19.1180   20.5420 N   0  0  2  0  0  4  0  0  0  0  0  0
  -29.0670  -19.0780   20.9530 H   0  0  0  0  0  0  0  0  0  0  0  0
  -29.3670  -23.2400   21.3620 C   0  0  0  0  0  2  0  0  0  0  0  0
  -29.2900  -24.4370   20.3880 C   0  0  0  0  0  2  0  0  0  0  0  0
  -28.4350  -25.5800   20.9810 C   0  0  0  0  0  2  0  0  0  0  0  0
  -28.4410  -26.7450   20.1510 O   0  0  0  0  0  0  0  0  0  0  0  0
  -24.5990  -31.8880   23.2430 C   0  0  0  0  0  0  0  0  0  0  0  0
  -27.2680  -27.4640   20.1770 C   0  0  0  0  0  0  0  0  0  0  0  0
  -23.4000  -30.4810   21.5970 C   0  0  0  0  0  3  0  0  0  0  0  0
  -24.8620  -28.9420   20.1820 C   0  0  0  0  0  0  0  0  0  0  0  0
  -25.9190  -30.8540   21.4020 C   0  0  0  0  0  2  0  0  0  0  0  0
  -26.0150  -29.4790   20.7690 C   0  0  0  0  0  0  0  0  0  0  0  0
  -27.2240  -28.7480   20.7660 C   0  0  0  0  0  3  0  0  0  0  0  0
  -26.0970  -26.9260   19.6050 C   0  0  0  0  0  3  0  0  0  0  0  0
  -24.8930  -27.6570   19.6060 C   0  0  0  0  0  3  0  0  0  0  0  0
  -23.6130  -29.7940   20.2210 C   0  0  0  0  0  2  0  0  0  0  0  0
  -24.6570  -31.0890   22.1390 N   0  0  0  0  0  0  0  0  0  0  0  0
  -23.5170  -32.1530   23.7830 O   0  0  0  0  0  0  0  0  0  0  0  0
  -22.7520  -29.4590   22.5590 C   0  0  0  0  0  0  0  0  0  0  0  0
  -21.4270  -29.2780   22.4310 N   0  0  0  0  0  0  0  0  0  0  0  0
  -23.4360  -28.8330   23.3740 O   0  0  0  0  0  0  0  0  0  0  0  0
  -20.9360  -29.8430   21.7540 H   0  0  0  0  0  0  0  0  0  0  0  0
  -18.0560  -28.0650   22.9050 C   0  0  0  0  0  0  0  0  0  0  0  0
  -20.6090  -28.3380   23.1930 C   0  0  0  0  0  3  0  0  0  0  0  0
  -20.7220  -26.9030   22.6290 C   0  0  0  0  0  2  0  0  0  0  0  0
  -19.6310  -26.5680   21.6070 C   0  0  0  0  0  2  0  0  0  0  0  0
  -18.2430  -26.7120   22.2410 C   0  0  0  0  0  2  0  0  0  0  0  0
  -19.1680  -28.8350   23.3400 C   0  0  0  0  0  0  0  0  0  0  0  0
  -18.9420  -30.1000   23.9230 C   0  0  0  0  0  3  0  0  0  0  0  0
  -17.6350  -30.5990   24.0770 C   0  0  0  0  0  3  0  0  0  0  0  0
  -16.5370  -29.8250   23.6620 C   0  0  0  0  0  3  0  0  0  0  0  0
  -16.7470  -28.5620   23.0790 C   0  0  0  0  0  3  0  0  0  0  0  0
  -25.8840  -32.5250   23.8640 C   0  0  0  0  0  3  0  0  0  0  0  0
  -25.5690  -33.9210   24.1930 N   0  0  0  0  0  0  0  0  0  0  0  0
  -25.9050  -34.9730   23.4330 C   0  0  0  0  0  0  0  0  0  0  0  0
  -26.5810  -34.8670   22.4050 O   0  0  0  0  0  0  0  0  0  0  0  0
  -24.9700  -34.0720   24.9920 H   0  0  0  0  0  0  0  0  0  0  0  0
  -24.1790  -36.7610   23.0670 C   0  0  0  0  0  1  0  0  0  0  0  0
  -25.4160  -36.3590   23.8840 C   0  0  0  0  0  3  0  0  0  0  0  0
  -27.5490  -37.2470   24.7210 C   0  0  0  0  0  1  0  0  0  0  0  0
  -26.4500  -37.4140   23.7750 N   0  0  0  0  0  0  0  0  0  0  0  0
  -26.0410  -38.3330   23.9220 H   0  0  0  0  0  0  0  0  0  0  0  0
  -26.4060  -31.7540   25.1400 C   0  0  1  0  0  0  0  0  0  0  0  0
  -25.3180  -31.5090   26.2120 C   0  0  0  0  0  1  0  0  0  0  0  0
  -26.9980  -30.3810   24.7420 C   0  0  0  0  0  1  0  0  0  0  0  0
  -27.5550  -32.5490   25.8020 C   0  0  0  0  0  1  0  0  0  0  0  0
  -30.3230  -17.7020   20.2120 C   0  0  0  0  0  2  0  0  0  0  0  0
  -30.2440  -16.7710   21.4530 C   0  0  0  0  0  2  0  0  0  0  0  0
  -30.6630  -14.4440   20.4820 C   0  0  0  0  0  0  0  0  0  0  0  0
  -30.3700  -12.3100   19.2780 C   0  0  0  0  0  2  0  0  0  0  0  0
  -29.4190  -12.5300   18.0840 C   0  0  0  0  0  2  0  0  0  0  0  0
  -27.9440  -12.4020   18.5200 C   0  0  0  0  0  2  0  0  0  0  0  0
  -27.6160  -13.2320   19.7910 C   0  0  0  0  0  3  0  0  0  0  0  0
  -28.6710  -12.9560   20.8860 C   0  0  0  0  0  2  0  0  0  0  0  0
  -30.0000  -13.2690   20.3240 N   0  0  0  0  0  0  0  0  0  0  0  0
  -31.7570  -14.6990   19.9720 O   0  0  0  0  0  0  0  0  0  0  0  0
  -29.9590  -15.3660   21.1520 N   0  0  0  0  0  0  0  0  0  0  0  0
  -29.0670  -15.0280   21.4830 H   0  0  0  0  0  0  0  0  0  0  0  0
  -25.2130  -13.8620   20.4910 C   0  0  0  0  0  0  0  0  0  0  0  0
  -24.1410  -13.0970   20.8680 C   0  0  0  0  0  0  0  0  0  0  0  0
  -24.5980  -11.7430   20.8440 C   0  0  0  0  0  0  0  0  0  0  0  0
  -26.2560  -12.9730   20.2670 N   0  0  0  0  0  0  0  0  0  0  0  0
  -25.8860  -11.6950   20.5340 N   0  0  0  0  0  0  0  0  0  0  0  0
  -23.8680  -10.4840   21.0430 C   0  0  0  0  0  0  0  0  0  0  0  0
  -24.3070   -9.5110   21.9700 C   0  0  0  0  0  3  0  0  0  0  0  0
  -23.5780   -8.3170   22.1520 C   0  0  0  0  0  3  0  0  0  0  0  0
  -22.3950   -8.0860   21.4090 C   0  0  0  0  0  0  0  0  0  0  0  0
  -21.9750   -9.0470   20.4730 C   0  0  0  0  0  3  0  0  0  0  0  0
  -22.7070  -10.2330   20.2870 C   0  0  0  0  0  3  0  0  0  0  0  0
  -21.6370   -6.9440   21.5040 O   0  0  0  0  0  0  0  0  0  0  0  0
  -21.6100   -6.1910   22.6510 C   0  0  0  0  0  0  0  0  0  0  0  0
  -21.2270   -6.7410   23.8940 C   0  0  0  0  0  3  0  0  0  0  0  0
  -21.1440   -5.9150   25.0320 C   0  0  0  0  0  3  0  0  0  0  0  0
  -21.4360   -4.5420   24.9320 C   0  0  0  0  0  0  0  0  0  0  0  0
  -21.8150   -3.9930   23.6930 C   0  0  0  0  0  3  0  0  0  0  0  0
  -21.8980   -4.8150   22.5560 C   0  0  0  0  0  0  0  0  0  0  0  0
  -22.2420   -4.2750   21.3620 F   0  0  0  0  0  0  0  0  0  0  0  0
  -21.3500   -3.7470   26.0230 F   0  0  0  0  0  0  0  0  0  0  0  0
  -22.7450  -13.5810   21.1390 C   0  0  0  0  0  0  0  0  0  0  0  0
  -22.0140  -12.8890   22.0090 N   0  0  0  0  0  0  0  0  0  0  0  0
  -22.3080  -14.6060   20.6200 O   0  0  0  0  0  0  0  0  0  0  0  0
  -22.3720  -12.0520   22.4420 H   0  0  0  0  0  0  0  0  0  0  0  0
  -21.0810  -13.1990   22.2380 H   0  0  0  0  0  0  0  0  0  0  0  0
  -25.3860  -15.2290   20.3000 N   0  0  0  0  0  0  0  0  0  0  0  0
  -24.6310  -15.8970   20.4060 H   0  0  0  0  0  0  0  0  0  0  0  0
  -26.2340  -15.6470   19.9360 H   0  0  0  0  0  0  0  0  0  0  0  0
  1  5  1  0
  3  1  1  0
  3  6  1  0
  4  2  1  0
  5  8  1  0
  5  2  1  0
  6  7  1  1
  6  4  1  0
  9 10  1  0
  9  8  1  0
 11 13  1  0
 11 10  1  0
 12 23  2  0
 13 18  1  0
 14 22  1  0
 14 24  1  0
 15 21  1  0
 15 17  1  0
 16 22  1  0
 17 16  1  0
 18 17  2  0
 19 20  1  0
 19 13  2  0
 20 15  2  0
 21 14  1  0
 22 12  1  0
 24 26  2  0
 25 24  1  0
 27 25  1  0
 28 37  2  0
 28 33  1  0
 29 25  1  0
 29 33  1  0
 30 29  1  0
 31 32  1  0
 31 30  1  0
 32 28  1  0
 33 34  2  0
 34 35  1  0
 36 35  2  0
 37 36  1  0
 38 12  1  0
 38 39  1  0
 38 48  1  0
 39 42  1  0
 40 44  1  0
 40 39  1  0
 41 40  2  0
 44 43  1  0
 46 44  1  0
 46 47  1  0
 46 45  1  0
 48 51  1  1
 48 49  1  0
 50 48  1  0
 52  6  1  0
 52 53  1  0
 54 62  1  0
 55 60  1  0
 56 57  1  0
 56 55  1  0
 58 57  1  0
 58 67  1  0
 58 59  1  0
 60 54  1  0
 60 59  1  0
 61 54  2  0
 62 53  1  0
 62 63  1  0
 64 65  2  0
 65 84  1  0
 66 65  1  0
 66 69  1  0
 67 64  1  0
 67 68  1  0
 68 66  2  0
 69 70  1  0
 70 71  2  0
 72 75  1  0
 72 71  1  0
 73 72  2  0
 74 73  1  0
 74 69  2  0
 75 76  1  0
 76 77  1  0
 77 78  2  0
 79 78  1  0
 79 83  1  0
 80 79  2  0
 81 76  2  0
 81 80  1  0
 82 81  1  0
 84 85  1  0
 85 88  1  0
 85 87  1  0
 86 84  2  0
 89 90  1  0
 89 64  1  0
 91 89  1  0
M  ISO  4  10 101  11 101  54 100  62 100
M  END
>  <TORSDO>  (32) 
F 21

>  <SCORE>  (32) 
-13.625

>  <name>  (32) 
31

>  <ligand_id>  (32) 
31

>  <original_smiles>  (32) 
[H]c1c([H])c([H])c2c(c1[H])C([H])([H])C([H])([H])C([H])([H])C2([H])N([H])C(=O)C1([H])N(C(=O)C([H])(N([H])C(=O)C([H])(N([H])C([H])([H])[H])C([H])([H])[H])C(C([H])([H])[H])(C([H])([H])[H])C([H])([H])[H])C([H])([H])c2c([H])c(OC([H])([H])C([H])([H])C([H])([H])N3C([H])([H])C([H])([H])[N+]([H])(C([H])([H])C([H])([H])N([H])C(=O)N4C([H])([H])C([H])([H])C([H])([H])C([H])(n5nc(-c6c([H])c([H])c(Oc7c([H])c([H])c(F)c([H])c7F)c([H])c6[H])c(C(=O)N([H])[H])c5N([H])[H])C4([H])[H])C([H])([H])C3([H])[H])c([H])c([H])c2C1([H])[H]

>  <smiles>  (32) 
[H]c1c([H])c([H])c2c(c1[H])C([H])([H])C([H])([H])C([H])([H])C2([H])N([H])C(=O)C1([H])N(C(=O)C([H])(N([H])C(=O)C([H])(N([H])C([H])([H])[H])C([H])([H])[H])C(C([H])([H])[H])(C([H])([H])[H])C([H])([H])[H])C([H])([H])c2c([H])c(OC([H])([H])C([H])([H])C([H])([H])N3C([H])([H])C([H])([H])[N+]([H])(C([H])([H])C([H])([H])N([H])C(=O)N4C([H])([H])C([H])([H])C([H])([H])C([H])(n5nc(-c6c([H])c([H])c(Oc7c([H])c([H])c(F)c([H])c7F)c([H])c6[H])c(C(=O)N([H])[H])c5N([H])[H])C4([H])[H])C([H])([H])C3([H])[H])c([H])c([H])c2C1([H])[H]

$$$$
32:0:0
     RDKit          3D

 88 96  0  0  1  0  0  0  0  0999 V2000
  -28.6960  -21.0500   20.4370 N   0  0  0  0  0  4  0  0  0  0  0  0
  -28.8930  -21.0420   21.4240 H   0  0  0  0  0  0  0  0  0  0  0  0
  -27.7010  -20.8940   20.3620 H   0  0  0  0  0  0  0  0  0  0  0  0
  -30.4070  -15.3720   20.2170 C   0  0  0  0  0  0  0  0  0  0  0  0
  -30.3830  -12.9150   19.3580 C   0  0  0  0  0  2  0  0  0  0  0  0
  -29.4590  -12.6620   18.1430 C   0  0  0  0  0  2  0  0  0  0  0  0
  -28.0140  -12.3750   18.5980 C   0  0  0  0  0  2  0  0  0  0  0  0
  -27.5630  -13.3390   19.7250 C   0  0  0  0  0  3  0  0  0  0  0  0
  -28.6280  -13.5420   20.8220 C   0  0  0  0  0  2  0  0  0  0  0  0
  -29.8210  -14.0720   20.1450 N   0  0  0  0  0  0  0  0  0  0  0  0
  -31.6440  -15.3250   20.1420 O   0  0  0  0  0  0  0  0  0  0  0  0
  -28.1740  -18.6020   19.3640 C   0  0  0  0  0  0  0  0  0  0  0  0
  -28.5880  -17.0670   19.2610 C   0  0  0  0  0  2  0  0  0  0  0  0
  -30.0070  -18.2240   20.6920 C   0  0  0  0  0  2  0  0  0  0  0  0
  -29.2750  -19.5640   19.8750 C   0  0  0  0  0  3  0  0  0  0  0  0
  -29.6940  -16.6990   20.2060 N   0  0  0  0  0  0  0  0  0  0  0  0
  -27.0310  -18.9600   19.0640 O   0  0  0  0  0  0  0  0  0  0  0  0
  -25.2070  -13.8850   20.5240 C   0  0  0  0  0  0  0  0  0  0  0  0
  -24.1490  -13.1020   20.8960 C   0  0  0  0  0  0  0  0  0  0  0  0
  -24.6220  -11.7570   20.8480 C   0  0  0  0  0  0  0  0  0  0  0  0
  -26.2490  -13.0150   20.2620 N   0  0  0  0  0  0  0  0  0  0  0  0
  -25.9130  -11.7270   20.5270 N   0  0  0  0  0  0  0  0  0  0  0  0
  -23.8990  -10.4920   21.0310 C   0  0  0  0  0  0  0  0  0  0  0  0
  -24.3280   -9.5280   21.9690 C   0  0  0  0  0  3  0  0  0  0  0  0
  -23.6060   -8.3280   22.1420 C   0  0  0  0  0  3  0  0  0  0  0  0
  -22.4390   -8.0850   21.3810 C   0  0  0  0  0  0  0  0  0  0  0  0
  -22.0300   -9.0380   20.4320 C   0  0  0  0  0  3  0  0  0  0  0  0
  -22.7510  -10.2300   20.2560 C   0  0  0  0  0  3  0  0  0  0  0  0
  -21.6850   -6.9390   21.4660 O   0  0  0  0  0  0  0  0  0  0  0  0
  -21.6180   -6.2080   22.6240 C   0  0  0  0  0  0  0  0  0  0  0  0
  -21.1450   -6.7650   23.8320 C   0  0  0  0  0  3  0  0  0  0  0  0
  -21.0270   -5.9580   24.9800 C   0  0  0  0  0  3  0  0  0  0  0  0
  -21.3700   -4.5940   24.9220 C   0  0  0  0  0  0  0  0  0  0  0  0
  -21.8350   -4.0350   23.7180 C   0  0  0  0  0  3  0  0  0  0  0  0
  -21.9540   -4.8400   22.5720 C   0  0  0  0  0  0  0  0  0  0  0  0
  -22.3840   -4.2930   21.4090 F   0  0  0  0  0  0  0  0  0  0  0  0
  -21.2480   -3.8150   26.0220 F   0  0  0  0  0  0  0  0  0  0  0  0
  -22.7530  -13.5780   21.1680 C   0  0  0  0  0  0  0  0  0  0  0  0
  -22.0240  -12.8790   22.0300 N   0  0  0  0  0  0  0  0  0  0  0  0
  -22.3190  -14.6090   20.6540 O   0  0  0  0  0  0  0  0  0  0  0  0
  -22.3910  -12.0460   22.4660 H   0  0  0  0  0  0  0  0  0  0  0  0
  -21.0850  -13.1770   22.2500 H   0  0  0  0  0  0  0  0  0  0  0  0
  -25.3610  -15.2590   20.3630 N   0  0  0  0  0  0  0  0  0  0  0  0
  -24.5840  -15.8960   20.5150 H   0  0  0  0  0  0  0  0  0  0  0  0
  -26.2080  -15.7270   20.0710 H   0  0  0  0  0  0  0  0  0  0  0  0
  -28.9020  -22.6520   19.9450 C   0  0  0  0  0  3  0  0  0  0  0  0
  -27.9590  -24.1730   20.3300 C   0  0  0  0  0  3  0  0  0  0  0  0
  -28.1890  -25.8270   20.2200 O   0  0  0  0  0  0  0  0  0  0  0  0
  -24.6110  -31.8610   23.2040 C   0  0  0  0  0  0  0  0  0  0  0  0
  -27.1750  -26.9360   20.2140 C   0  0  0  0  0  0  0  0  0  0  0  0
  -23.4290  -30.4540   21.5710 C   0  0  0  0  0  3  0  0  0  0  0  0
  -24.8800  -28.8370   20.1640 C   0  0  0  0  0  0  0  0  0  0  0  0
  -26.0010  -30.6560   21.4410 C   0  0  0  0  0  2  0  0  0  0  0  0
  -26.0690  -29.2400   20.7890 C   0  0  0  0  0  0  0  0  0  0  0  0
  -27.2130  -28.3110   20.7830 C   0  0  0  0  0  3  0  0  0  0  0  0
  -25.9510  -26.6960   19.5530 C   0  0  0  0  0  3  0  0  0  0  0  0
  -24.8470  -27.5840   19.5340 C   0  0  0  0  0  3  0  0  0  0  0  0
  -23.6660  -29.7640   20.2010 C   0  0  0  0  0  2  0  0  0  0  0  0
  -24.7040  -31.0160   22.1260 N   0  0  0  0  0  0  0  0  0  0  0  0
  -23.5190  -32.1530   23.7150 O   0  0  0  0  0  0  0  0  0  0  0  0
  -22.7290  -29.4630   22.5380 C   0  0  0  0  0  0  0  0  0  0  0  0
  -21.3980  -29.3000   22.4090 N   0  0  0  0  0  0  0  0  0  0  0  0
  -23.3920  -28.8420   23.3730 O   0  0  0  0  0  0  0  0  0  0  0  0
  -20.9200  -29.8470   21.7090 H   0  0  0  0  0  0  0  0  0  0  0  0
  -18.0120  -28.1070   22.9380 C   0  0  0  0  0  0  0  0  0  0  0  0
  -20.5740  -28.3660   23.1860 C   0  0  0  0  0  3  0  0  0  0  0  0
  -20.6680  -26.9330   22.6100 C   0  0  0  0  0  2  0  0  0  0  0  0
  -19.5590  -26.6130   21.6030 C   0  0  0  0  0  2  0  0  0  0  0  0
  -18.1820  -26.7610   22.2540 C   0  0  0  0  0  2  0  0  0  0  0  0
  -19.1350  -28.8670   23.3620 C   0  0  0  0  0  0  0  0  0  0  0  0
  -18.9200  -30.1240   23.9640 C   0  0  0  0  0  3  0  0  0  0  0  0
  -17.6150  -30.6210   24.1480 C   0  0  0  0  0  3  0  0  0  0  0  0
  -16.5070  -29.8590   23.7370 C   0  0  0  0  0  3  0  0  0  0  0  0
  -16.7070  -28.6040   23.1360 C   0  0  0  0  0  3  0  0  0  0  0  0
  -25.8770  -32.5100   23.8440 C   0  0  0  0  0  3  0  0  0  0  0  0
  -25.5560  -33.9130   24.1590 N   0  0  0  0  0  0  0  0  0  0  0  0
  -25.8990  -34.9660   23.4070 C   0  0  0  0  0  0  0  0  0  0  0  0
  -26.5840  -34.8630   22.3870 O   0  0  0  0  0  0  0  0  0  0  0  0
  -24.9500  -34.0730   24.9500 H   0  0  0  0  0  0  0  0  0  0  0  0
  -24.1920  -36.7790   23.0260 C   0  0  0  0  0  1  0  0  0  0  0  0
  -25.4130  -36.3590   23.8610 C   0  0  0  0  0  3  0  0  0  0  0  0
  -27.5310  -37.2350   24.7450 C   0  0  0  0  0  1  0  0  0  0  0  0
  -26.4570  -37.4060   23.7720 N   0  0  0  0  0  0  0  0  0  0  0  0
  -26.0480  -38.3280   23.9070 H   0  0  0  0  0  0  0  0  0  0  0  0
  -26.3690  -31.7610   25.1450 C   0  0  1  0  0  0  0  0  0  0  0  0
  -25.2570  -31.5510   26.1970 C   0  0  0  0  0  1  0  0  0  0  0  0
  -26.9550  -30.3740   24.8000 C   0  0  0  0  0  1  0  0  0  0  0  0
  -27.5130  -32.5640   25.8080 C   0  0  0  0  0  1  0  0  0  0  0  0
  1  2  1  0
  3  1  1  0
  5 10  1  0
  6  7  1  0
  6  5  1  0
  8  7  1  0
  8 21  1  0
  8  9  1  0
 10  4  1  0
 10  9  1  0
 11  4  2  0
 12 15  1  0
 13 12  1  0
 13 16  1  0
 15  1  1  0
 15 14  1  0
 16  4  1  0
 16 14  1  0
 17 12  2  0
 18 19  2  0
 19 38  1  0
 20 19  1  0
 20 23  1  0
 21 18  1  0
 21 22  1  0
 22 20  2  0
 23 24  1  0
 24 25  2  0
 26 29  1  0
 26 25  1  0
 27 26  2  0
 28 27  1  0
 28 23  2  0
 29 30  1  0
 30 31  1  0
 31 32  2  0
 33 32  1  0
 33 37  1  0
 34 33  2  0
 35 30  2  0
 35 34  1  0
 36 35  1  0
 38 39  1  0
 39 42  1  0
 39 41  1  0
 40 38  2  0
 43 44  1  0
 43 18  1  0
 45 43  1  0
 46 47  2  0
 46  1  1  0
 48 47  1  0
 49 60  2  0
 50 48  1  0
 50 55  1  0
 51 59  1  0
 51 61  1  0
 52 58  1  0
 52 54  1  0
 53 59  1  0
 54 53  1  0
 55 54  2  0
 56 50  2  0
 57 56  1  0
 57 52  2  0
 58 51  1  0
 59 49  1  0
 61 63  2  0
 62 61  1  0
 64 62  1  0
 65 74  2  0
 65 70  1  0
 66 62  1  0
 66 70  1  0
 67 66  1  0
 68 69  1  0
 68 67  1  0
 69 65  1  0
 70 71  2  0
 71 72  1  0
 73 72  2  0
 74 73  1  0
 75 49  1  0
 75 76  1  0
 75 85  1  0
 76 79  1  0
 77 81  1  0
 77 76  1  0
 78 77  2  0
 81 80  1  0
 83 81  1  0
 83 84  1  0
 83 82  1  0
 85 88  1  1
 85 86  1  0
 87 85  1  0
M  ISO  4   4 100  16 100  47 101  48 101
M  END
>  <TORSDO>  (33) 
F 18

>  <SCORE>  (33) 
-16.739

>  <name>  (33) 
32

>  <ligand_id>  (33) 
32

>  <original_smiles>  (33) 
[H]c1c([H])c([H])c2c(c1[H])C([H])([H])C([H])([H])C([H])([H])C2([H])N([H])C(=O)C1([H])N(C(=O)C([H])(N([H])C(=O)C([H])(N([H])C([H])([H])[H])C([H])([H])[H])C(C([H])([H])[H])(C([H])([H])[H])C([H])([H])[H])C([H])([H])c2c([H])c(OC([H])([H])C([H])([H])[N+]([H])([H])C3([H])C(=O)C([H])([H])N(C(=O)N4C([H])([H])C([H])([H])C([H])([H])C([H])(n5nc(-c6c([H])c([H])c(Oc7c([H])c([H])c(F)c([H])c7F)c([H])c6[H])c(C(=O)N([H])[H])c5N([H])[H])C4([H])[H])C3([H])[H])c([H])c([H])c2C1([H])[H]

>  <smiles>  (33) 
[H]c1c([H])c([H])c2c(c1[H])C([H])([H])C([H])([H])C([H])([H])C2([H])N([H])C(=O)C1([H])N(C(=O)C([H])(N([H])C(=O)C([H])(N([H])C([H])([H])[H])C([H])([H])[H])C(C([H])([H])[H])(C([H])([H])[H])C([H])([H])[H])C([H])([H])c2c([H])c(OC([H])([H])C([H])([H])[N+]([H])([H])C3([H])C(=O)C([H])([H])N(C(=O)N4C([H])([H])C([H])([H])C([H])([H])C([H])(n5nc(-c6c([H])c([H])c(Oc7c([H])c([H])c(F)c([H])c7F)c([H])c6[H])c(C(=O)N([H])[H])c5N([H])[H])C4([H])[H])C3([H])[H])c([H])c([H])c2C1([H])[H]

$$$$
33:0:0
     RDKit          3D

 92100  0  0  1  0  0  0  0  0999 V2000
  -27.9100  -21.2770   17.9140 C   0  0  0  0  0  2  0  0  0  0  0  0
  -28.1600  -20.0840   18.8480 C   0  0  0  0  0  2  0  0  0  0  0  0
  -27.5970  -22.5570   18.7080 C   0  0  0  0  0  2  0  0  0  0  0  0
  -28.9610  -21.7910   20.5440 C   0  0  0  0  0  2  0  0  0  0  0  0
  -29.2920  -20.4230   19.8410 C   0  0  0  0  0  3  0  0  0  0  0  0
  -28.7150  -22.9050   19.5960 N   0  0  0  0  0  0  0  0  0  0  0  0
  -29.5570  -19.3250   20.8270 N   0  0  0  0  0  4  0  0  0  0  0  0
  -28.8480  -19.3700   21.5410 H   0  0  0  0  0  0  0  0  0  0  0  0
  -30.4360  -19.5300   21.2740 H   0  0  0  0  0  0  0  0  0  0  0  0
  -29.5990  -17.9130   20.3270 C   0  0  0  0  0  2  0  0  0  0  0  0
  -30.2010  -16.9060   21.3570 C   0  0  0  0  0  2  0  0  0  0  0  0
  -30.6290  -14.5060   20.5540 C   0  0  0  0  0  0  0  0  0  0  0  0
  -30.3890  -12.3330   19.3930 C   0  0  0  0  0  2  0  0  0  0  0  0
  -29.4460  -12.5130   18.1840 C   0  0  0  0  0  2  0  0  0  0  0  0
  -27.9690  -12.3680   18.6050 C   0  0  0  0  0  2  0  0  0  0  0  0
  -27.6190  -13.2020   19.8670 C   0  0  0  0  0  3  0  0  0  0  0  0
  -28.6690  -12.9780   20.9780 C   0  0  0  0  0  2  0  0  0  0  0  0
  -29.9910  -13.3090   20.4180 N   0  0  0  0  0  0  0  0  0  0  0  0
  -31.7540  -14.7260   20.0990 O   0  0  0  0  0  0  0  0  0  0  0  0
  -29.8780  -15.4850   21.0990 N   0  0  0  0  0  0  0  0  0  0  0  0
  -28.9700  -15.1790   21.4170 H   0  0  0  0  0  0  0  0  0  0  0  0
  -25.2110  -13.8060   20.5540 C   0  0  0  0  0  0  0  0  0  0  0  0
  -24.1430  -13.0310   20.9190 C   0  0  0  0  0  0  0  0  0  0  0  0
  -24.6100  -11.6810   20.8980 C   0  0  0  0  0  0  0  0  0  0  0  0
  -26.2610  -12.9260   20.3350 N   0  0  0  0  0  0  0  0  0  0  0  0
  -25.9030  -11.6450   20.6000 N   0  0  0  0  0  0  0  0  0  0  0  0
  -23.8870  -10.4170   21.0870 C   0  0  0  0  0  0  0  0  0  0  0  0
  -24.3270   -9.4440   22.0110 C   0  0  0  0  0  3  0  0  0  0  0  0
  -23.6040   -8.2450   22.1860 C   0  0  0  0  0  3  0  0  0  0  0  0
  -22.4260   -8.0110   21.4390 C   0  0  0  0  0  0  0  0  0  0  0  0
  -22.0030   -8.9720   20.5040 C   0  0  0  0  0  3  0  0  0  0  0  0
  -22.7280  -10.1630   20.3260 C   0  0  0  0  0  3  0  0  0  0  0  0
  -21.6730   -6.8640   21.5250 O   0  0  0  0  0  0  0  0  0  0  0  0
  -21.6500   -6.1030   22.6660 C   0  0  0  0  0  0  0  0  0  0  0  0
  -21.2610   -6.6400   23.9120 C   0  0  0  0  0  3  0  0  0  0  0  0
  -21.1850   -5.8070   25.0460 C   0  0  0  0  0  3  0  0  0  0  0  0
  -21.4850   -4.4350   24.9340 C   0  0  0  0  0  0  0  0  0  0  0  0
  -21.8680   -3.8980   23.6930 C   0  0  0  0  0  3  0  0  0  0  0  0
  -21.9470   -4.7290   22.5620 C   0  0  0  0  0  0  0  0  0  0  0  0
  -22.2950   -4.2010   21.3640 F   0  0  0  0  0  0  0  0  0  0  0  0
  -21.4050   -3.6330   26.0200 F   0  0  0  0  0  0  0  0  0  0  0  0
  -22.7420  -13.5050   21.1780 C   0  0  0  0  0  0  0  0  0  0  0  0
  -22.0110  -12.8100   22.0430 N   0  0  0  0  0  0  0  0  0  0  0  0
  -22.3030  -14.5260   20.6510 O   0  0  0  0  0  0  0  0  0  0  0  0
  -22.3760  -11.9840   22.4920 H   0  0  0  0  0  0  0  0  0  0  0  0
  -21.0700  -13.1110   22.2610 H   0  0  0  0  0  0  0  0  0  0  0  0
  -25.3690  -15.1760   20.3690 N   0  0  0  0  0  0  0  0  0  0  0  0
  -24.5900  -15.8190   20.4540 H   0  0  0  0  0  0  0  0  0  0  0  0
  -26.2100  -15.6150   20.0150 H   0  0  0  0  0  0  0  0  0  0  0  0
  -28.4120  -24.1740   20.3040 C   0  0  0  0  0  2  0  0  0  0  0  0
  -28.5710  -25.4550   19.4230 C   0  0  0  0  0  2  0  0  0  0  0  0
  -28.4090  -26.6970   20.1440 O   0  0  0  0  0  0  0  0  0  0  0  0
  -24.5820  -31.8730   23.2380 C   0  0  0  0  0  0  0  0  0  0  0  0
  -27.2110  -27.3980   20.1410 C   0  0  0  0  0  0  0  0  0  0  0  0
  -23.3680  -30.4720   21.6020 C   0  0  0  0  0  3  0  0  0  0  0  0
  -24.8120  -28.9230   20.1760 C   0  0  0  0  0  0  0  0  0  0  0  0
  -25.8960  -30.8150   21.3990 C   0  0  0  0  0  2  0  0  0  0  0  0
  -25.9760  -29.4410   20.7570 C   0  0  0  0  0  0  0  0  0  0  0  0
  -27.1720  -28.6840   20.7380 C   0  0  0  0  0  3  0  0  0  0  0  0
  -26.0160  -26.8910   19.5750 C   0  0  0  0  0  3  0  0  0  0  0  0
  -24.8280  -27.6480   19.5870 C   0  0  0  0  0  3  0  0  0  0  0  0
  -23.5710  -29.7880   20.2240 C   0  0  0  0  0  2  0  0  0  0  0  0
  -24.6330  -31.0690   22.1380 N   0  0  0  0  0  0  0  0  0  0  0  0
  -23.5030  -32.1500   23.7810 O   0  0  0  0  0  0  0  0  0  0  0  0
  -22.7140  -29.4560   22.5670 C   0  0  0  0  0  0  0  0  0  0  0  0
  -21.3910  -29.2680   22.4370 N   0  0  0  0  0  0  0  0  0  0  0  0
  -23.3970  -28.8360   23.3880 O   0  0  0  0  0  0  0  0  0  0  0  0
  -20.9010  -29.8190   21.7460 H   0  0  0  0  0  0  0  0  0  0  0  0
  -18.0230  -28.0480   22.9170 C   0  0  0  0  0  0  0  0  0  0  0  0
  -20.5750  -28.3320   23.2110 C   0  0  0  0  0  3  0  0  0  0  0  0
  -20.6970  -26.8960   22.6520 C   0  0  0  0  0  2  0  0  0  0  0  0
  -19.6090  -26.5510   21.6310 C   0  0  0  0  0  2  0  0  0  0  0  0
  -18.2190  -26.6920   22.2580 C   0  0  0  0  0  2  0  0  0  0  0  0
  -19.1310  -28.8240   23.3490 C   0  0  0  0  0  0  0  0  0  0  0  0
  -18.8970  -30.0940   23.9220 C   0  0  0  0  0  3  0  0  0  0  0  0
  -17.5860  -30.5870   24.0680 C   0  0  0  0  0  3  0  0  0  0  0  0
  -16.4920  -29.8070   23.6530 C   0  0  0  0  0  3  0  0  0  0  0  0
  -16.7120  -28.5400   23.0840 C   0  0  0  0  0  3  0  0  0  0  0  0
  -25.8720  -32.5020   23.8520 C   0  0  0  0  0  3  0  0  0  0  0  0
  -25.5660  -33.9000   24.1850 N   0  0  0  0  0  0  0  0  0  0  0  0
  -25.8970  -34.9540   23.4260 C   0  0  0  0  0  0  0  0  0  0  0  0
  -26.5640  -34.8500   22.3920 O   0  0  0  0  0  0  0  0  0  0  0  0
  -24.9730  -34.0550   24.9880 H   0  0  0  0  0  0  0  0  0  0  0  0
  -24.1690  -36.7480   23.0780 C   0  0  0  0  0  1  0  0  0  0  0  0
  -25.4120  -36.3410   23.8860 C   0  0  0  0  0  3  0  0  0  0  0  0
  -27.5500  -37.2190   24.7110 C   0  0  0  0  0  1  0  0  0  0  0  0
  -26.4450  -37.3940   23.7720 N   0  0  0  0  0  0  0  0  0  0  0  0
  -26.0410  -38.3130   23.9260 H   0  0  0  0  0  0  0  0  0  0  0  0
  -26.3970  -31.7310   25.1240 C   0  0  1  0  0  0  0  0  0  0  0  0
  -25.3110  -31.4930   26.1980 C   0  0  0  0  0  1  0  0  0  0  0  0
  -26.9800  -30.3530   24.7270 C   0  0  0  0  0  1  0  0  0  0  0  0
  -27.5530  -32.5250   25.7790 C   0  0  0  0  0  1  0  0  0  0  0  0
  1  3  1  0
  1  2  1  0
  2  5  1  0
  3  6  1  0
  5  4  1  0
  5  7  1  0
  6 50  1  0
  6  4  1  0
  7  9  1  0
  7  8  1  0
 10  7  1  0
 10 11  1  0
 12 20  1  0
 13 18  1  0
 14 15  1  0
 14 13  1  0
 16 15  1  0
 16 25  1  0
 16 17  1  0
 18 12  1  0
 18 17  1  0
 19 12  2  0
 20 11  1  0
 20 21  1  0
 22 23  2  0
 23 42  1  0
 24 23  1  0
 24 27  1  0
 25 22  1  0
 25 26  1  0
 26 24  2  0
 27 28  1  0
 28 29  2  0
 30 33  1  0
 30 29  1  0
 31 30  2  0
 32 31  1  0
 32 27  2  0
 33 34  1  0
 34 35  1  0
 35 36  2  0
 37 36  1  0
 37 41  1  0
 38 37  2  0
 39 34  2  0
 39 38  1  0
 40 39  1  0
 42 43  1  0
 43 46  1  0
 43 45  1  0
 44 42  2  0
 47 48  1  0
 47 22  1  0
 49 47  1  0
 51 52  1  0
 51 50  1  0
 53 64  2  0
 54 52  1  0
 54 59  1  0
 55 63  1  0
 55 65  1  0
 56 62  1  0
 56 58  1  0
 57 63  1  0
 58 57  1  0
 59 58  2  0
 60 61  1  0
 60 54  2  0
 61 56  2  0
 62 55  1  0
 63 53  1  0
 65 67  2  0
 66 65  1  0
 68 66  1  0
 69 78  2  0
 69 74  1  0
 70 66  1  0
 70 74  1  0
 71 70  1  0
 72 73  1  0
 72 71  1  0
 73 69  1  0
 74 75  2  0
 75 76  1  0
 77 76  2  0
 78 77  1  0
 79 53  1  0
 79 80  1  0
 79 89  1  0
 80 83  1  0
 81 85  1  0
 81 80  1  0
 82 81  2  0
 85 84  1  0
 87 85  1  0
 87 88  1  0
 87 86  1  0
 89 92  1  1
 89 90  1  0
 91 89  1  0
M  ISO  4  12 100  20 100  51 101  52 101
M  END
>  <TORSDO>  (34) 
F 21

>  <SCORE>  (34) 
-13.651

>  <name>  (34) 
33

>  <ligand_id>  (34) 
33

>  <original_smiles>  (34) 
[H]c1c([H])c([H])c2c(c1[H])C([H])([H])C([H])([H])C([H])([H])C2([H])N([H])C(=O)C1([H])N(C(=O)C([H])(N([H])C(=O)C([H])(N([H])C([H])([H])[H])C([H])([H])[H])C(C([H])([H])[H])(C([H])([H])[H])C([H])([H])[H])C([H])([H])c2c([H])c(OC([H])([H])C([H])([H])N3C([H])([H])C([H])([H])C([H])([H])C([H])([N+]([H])([H])C([H])([H])C([H])([H])N([H])C(=O)N4C([H])([H])C([H])([H])C([H])([H])C([H])(n5nc(-c6c([H])c([H])c(Oc7c([H])c([H])c(F)c([H])c7F)c([H])c6[H])c(C(=O)N([H])[H])c5N([H])[H])C4([H])[H])C3([H])[H])c([H])c([H])c2C1([H])[H]

>  <smiles>  (34) 
[H]c1c([H])c([H])c2c(c1[H])C([H])([H])C([H])([H])C([H])([H])C2([H])N([H])C(=O)C1([H])N(C(=O)C([H])(N([H])C(=O)C([H])(N([H])C([H])([H])[H])C([H])([H])[H])C(C([H])([H])[H])(C([H])([H])[H])C([H])([H])[H])C([H])([H])c2c([H])c(OC([H])([H])C([H])([H])N3C([H])([H])C([H])([H])C([H])([H])C([H])([N+]([H])([H])C([H])([H])C([H])([H])N([H])C(=O)N4C([H])([H])C([H])([H])C([H])([H])C([H])(n5nc(-c6c([H])c([H])c(Oc7c([H])c([H])c(F)c([H])c7F)c([H])c6[H])c(C(=O)N([H])[H])c5N([H])[H])C4([H])[H])C3([H])[H])c([H])c([H])c2C1([H])[H]

$$$$
34:0:0
     RDKit          3D

 91100  0  0  1  0  0  0  0  0999 V2000
  -30.8140  -17.4590   18.5810 C   0  0  0  0  0  2  0  0  0  0  0  0
  -29.2490  -21.9590   18.6080 C   0  0  0  0  0  2  0  0  0  0  0  0
  -29.2940  -20.5070   20.6140 C   0  0  0  0  0  2  0  0  0  0  0  0
  -30.2060  -18.4560   17.6000 C   0  0  0  0  0  2  0  0  0  0  0  0
  -29.0270  -20.6660   17.7920 C   0  0  0  0  0  2  0  0  0  0  0  0
  -29.8210  -17.4870   19.7400 C   0  0  0  0  0  3  0  0  0  0  0  0
  -29.1600  -19.0840   19.7210 C   0  0  0  0  0  3  0  0  0  0  0  0
  -28.7530  -21.8550   19.9860 N   0  0  0  0  0  0  0  0  0  0  0  0
  -29.7660  -19.5720   18.4520 N   0  0  1  0  0  4  0  0  0  0  0  0
  -30.6190  -20.0170   18.7510 H   0  0  0  0  0  0  0  0  0  0  0  0
  -30.5030  -14.9390   20.4310 C   0  0  0  0  0  0  0  0  0  0  0  0
  -30.3860  -12.5900   19.5140 C   0  0  0  0  0  2  0  0  0  0  0  0
  -29.4800  -12.5680   18.2580 C   0  0  0  0  0  2  0  0  0  0  0  0
  -28.0050  -12.3770   18.6570 C   0  0  0  0  0  2  0  0  0  0  0  0
  -27.5890  -13.2990   19.8330 C   0  0  0  0  0  3  0  0  0  0  0  0
  -28.6170  -13.2910   20.9860 C   0  0  0  0  0  2  0  0  0  0  0  0
  -29.9050  -13.6840   20.4070 N   0  0  0  0  0  0  0  0  0  0  0  0
  -31.7000  -14.9900   20.1290 O   0  0  0  0  0  0  0  0  0  0  0  0
  -29.7200  -16.1250   20.5420 N   0  0  0  0  0  0  0  0  0  0  0  0
  -28.8010  -15.9490   20.9280 H   0  0  0  0  0  0  0  0  0  0  0  0
  -25.1950  -13.8910   20.5230 C   0  0  0  0  0  0  0  0  0  0  0  0
  -24.1260  -13.1260   20.8790 C   0  0  0  0  0  0  0  0  0  0  0  0
  -24.5850  -11.7690   20.8730 C   0  0  0  0  0  0  0  0  0  0  0  0
  -26.2410  -13.0100   20.3060 N   0  0  0  0  0  0  0  0  0  0  0  0
  -25.8810  -11.7290   20.5830 N   0  0  0  0  0  0  0  0  0  0  0  0
  -23.8530  -10.5120   21.0610 C   0  0  0  0  0  0  0  0  0  0  0  0
  -24.2780   -9.5420   21.9960 C   0  0  0  0  0  3  0  0  0  0  0  0
  -23.5430   -8.3510   22.1730 C   0  0  0  0  0  3  0  0  0  0  0  0
  -22.3710   -8.1190   21.4150 C   0  0  0  0  0  0  0  0  0  0  0  0
  -21.9650   -9.0780   20.4720 C   0  0  0  0  0  3  0  0  0  0  0  0
  -22.6980  -10.2610   20.2920 C   0  0  0  0  0  3  0  0  0  0  0  0
  -21.6080   -6.9800   21.5030 O   0  0  0  0  0  0  0  0  0  0  0  0
  -21.5670   -6.2280   22.6490 C   0  0  0  0  0  0  0  0  0  0  0  0
  -21.1760   -6.7790   23.8890 C   0  0  0  0  0  3  0  0  0  0  0  0
  -21.0780   -5.9540   25.0280 C   0  0  0  0  0  3  0  0  0  0  0  0
  -21.3630   -4.5800   24.9280 C   0  0  0  0  0  0  0  0  0  0  0  0
  -21.7480   -4.0270   23.6930 C   0  0  0  0  0  3  0  0  0  0  0  0
  -21.8470   -4.8490   22.5570 C   0  0  0  0  0  0  0  0  0  0  0  0
  -22.1970   -4.3080   21.3650 F   0  0  0  0  0  0  0  0  0  0  0  0
  -21.2630   -3.7860   26.0190 F   0  0  0  0  0  0  0  0  0  0  0  0
  -22.7250  -13.6070   21.1240 C   0  0  0  0  0  0  0  0  0  0  0  0
  -21.9800  -12.9240   21.9810 N   0  0  0  0  0  0  0  0  0  0  0  0
  -22.3020  -14.6280   20.5820 O   0  0  0  0  0  0  0  0  0  0  0  0
  -22.3380  -12.0990   22.4410 H   0  0  0  0  0  0  0  0  0  0  0  0
  -21.0380  -13.2310   22.1870 H   0  0  0  0  0  0  0  0  0  0  0  0
  -25.3660  -15.2620   20.3340 N   0  0  0  0  0  0  0  0  0  0  0  0
  -24.5890  -15.9070   20.4150 H   0  0  0  0  0  0  0  0  0  0  0  0
  -26.2060  -15.6920   19.9700 H   0  0  0  0  0  0  0  0  0  0  0  0
  -28.7480  -23.2930   20.6310 C   0  0  0  0  0  3  0  0  0  0  0  0
  -28.2400  -24.7100   19.8380 C   0  0  0  0  0  3  0  0  0  0  0  0
  -28.2820  -26.2010   20.3060 O   0  0  0  0  0  0  0  0  0  0  0  0
  -24.6510  -31.8780   23.2350 C   0  0  0  0  0  0  0  0  0  0  0  0
  -27.2160  -27.1710   20.1940 C   0  0  0  0  0  0  0  0  0  0  0  0
  -23.4400  -30.4900   21.6010 C   0  0  0  0  0  3  0  0  0  0  0  0
  -24.8850  -28.9260   20.1580 C   0  0  0  0  0  0  0  0  0  0  0  0
  -25.9930  -30.7540   21.4260 C   0  0  0  0  0  2  0  0  0  0  0  0
  -26.0630  -29.3630   20.7700 C   0  0  0  0  0  0  0  0  0  0  0  0
  -27.2230  -28.5050   20.7800 C   0  0  0  0  0  3  0  0  0  0  0  0
  -26.0130  -26.8370   19.5270 C   0  0  0  0  0  3  0  0  0  0  0  0
  -24.8790  -27.6790   19.5150 C   0  0  0  0  0  3  0  0  0  0  0  0
  -23.6490  -29.8230   20.2150 C   0  0  0  0  0  2  0  0  0  0  0  0
  -24.7130  -31.0620   22.1400 N   0  0  0  0  0  0  0  0  0  0  0  0
  -23.5720  -32.1620   23.7780 O   0  0  0  0  0  0  0  0  0  0  0  0
  -22.7750  -29.4720   22.5650 C   0  0  0  0  0  0  0  0  0  0  0  0
  -21.4480  -29.2990   22.4460 N   0  0  0  0  0  0  0  0  0  0  0  0
  -23.4580  -28.8540   23.3840 O   0  0  0  0  0  0  0  0  0  0  0  0
  -20.9620  -29.8450   21.7480 H   0  0  0  0  0  0  0  0  0  0  0  0
  -18.0770  -28.0850   22.9580 C   0  0  0  0  0  0  0  0  0  0  0  0
  -20.6330  -28.3640   23.2190 C   0  0  0  0  0  3  0  0  0  0  0  0
  -20.7420  -26.9290   22.6490 C   0  0  0  0  0  2  0  0  0  0  0  0
  -19.6410  -26.5950   21.6390 C   0  0  0  0  0  2  0  0  0  0  0  0
  -18.2590  -26.7350   22.2830 C   0  0  0  0  0  2  0  0  0  0  0  0
  -19.1920  -28.8580   23.3810 C   0  0  0  0  0  0  0  0  0  0  0  0
  -18.9670  -30.1180   23.9730 C   0  0  0  0  0  3  0  0  0  0  0  0
  -17.6590  -30.6100   24.1430 C   0  0  0  0  0  3  0  0  0  0  0  0
  -16.5580  -29.8370   23.7320 C   0  0  0  0  0  3  0  0  0  0  0  0
  -16.7690  -28.5760   23.1490 C   0  0  0  0  0  3  0  0  0  0  0  0
  -25.9390  -32.5120   23.8450 C   0  0  0  0  0  3  0  0  0  0  0  0
  -25.6290  -33.9090   24.1870 N   0  0  0  0  0  0  0  0  0  0  0  0
  -25.9470  -34.9690   23.4330 C   0  0  0  0  0  0  0  0  0  0  0  0
  -26.5990  -34.8730   22.3900 O   0  0  0  0  0  0  0  0  0  0  0  0
  -25.0460  -34.0590   24.9990 H   0  0  0  0  0  0  0  0  0  0  0  0
  -24.1990  -36.7540   23.1180 C   0  0  0  0  0  1  0  0  0  0  0  0
  -25.4610  -36.3550   23.9040 C   0  0  0  0  0  3  0  0  0  0  0  0
  -27.6060  -37.2440   24.6990 C   0  0  0  0  0  1  0  0  0  0  0  0
  -26.4870  -37.4130   23.7730 N   0  0  0  0  0  0  0  0  0  0  0  0
  -26.0770  -38.3290   23.9350 H   0  0  0  0  0  0  0  0  0  0  0  0
  -26.4610  -31.7420   25.1210 C   0  0  1  0  0  0  0  0  0  0  0  0
  -25.3720  -31.5040   26.1960 C   0  0  0  0  0  1  0  0  0  0  0  0
  -27.0430  -30.3630   24.7320 C   0  0  0  0  0  1  0  0  0  0  0  0
  -27.6180  -32.5370   25.7740 C   0  0  0  0  0  1  0  0  0  0  0  0
  1  6  1  0
  2  8  1  0
  4  9  1  0
  4  1  1  0
  5  9  1  0
  5  2  1  0
  6 19  1  0
  7  6  1  0
  7  3  1  0
  8  3  1  0
  8 49  1  0
  9 10  1  1
  9  7  1  0
 11 19  1  0
 12 17  1  0
 13 14  1  0
 13 12  1  0
 15 14  1  0
 15 24  1  0
 15 16  1  0
 17 11  1  0
 17 16  1  0
 18 11  2  0
 19 20  1  0
 21 22  2  0
 22 41  1  0
 23 22  1  0
 23 26  1  0
 24 21  1  0
 24 25  1  0
 25 23  2  0
 26 27  1  0
 27 28  2  0
 29 32  1  0
 29 28  1  0
 30 29  2  0
 31 30  1  0
 31 26  2  0
 32 33  1  0
 33 34  1  0
 34 35  2  0
 36 35  1  0
 36 40  1  0
 37 36  2  0
 38 33  2  0
 38 37  1  0
 39 38  1  0
 41 42  1  0
 42 45  1  0
 42 44  1  0
 43 41  2  0
 46 47  1  0
 46 21  1  0
 48 46  1  0
 50 51  1  0
 50 49  2  0
 52 63  2  0
 53 51  1  0
 53 58  1  0
 54 62  1  0
 54 64  1  0
 55 61  1  0
 55 57  1  0
 56 62  1  0
 57 58  2  0
 57 56  1  0
 59 53  2  0
 60 59  1  0
 60 55  2  0
 61 54  1  0
 62 52  1  0
 64 66  2  0
 65 64  1  0
 67 65  1  0
 68 77  2  0
 68 73  1  0
 69 65  1  0
 69 73  1  0
 70 69  1  0
 71 72  1  0
 71 70  1  0
 72 68  1  0
 73 74  2  0
 74 75  1  0
 76 75  2  0
 77 76  1  0
 78 52  1  0
 78 79  1  0
 78 88  1  0
 79 82  1  0
 80 84  1  0
 80 79  1  0
 81 80  2  0
 84 83  1  0
 86 84  1  0
 86 87  1  0
 86 85  1  0
 88 91  1  1
 88 89  1  0
 90 88  1  0
M  ISO  4  11 100  19 100  50 101  51 101
M  END
>  <TORSDO>  (35) 
F 18

>  <SCORE>  (35) 
-15.486

>  <name>  (35) 
34

>  <ligand_id>  (35) 
34

>  <original_smiles>  (35) 
[H]c1c([H])c([H])c2c(c1[H])C([H])([H])C([H])([H])C([H])([H])C2([H])N([H])C(=O)C1([H])N(C(=O)C([H])(N([H])C(=O)C([H])(N([H])C([H])([H])[H])C([H])([H])[H])C(C([H])([H])[H])(C([H])([H])[H])C([H])([H])[H])C([H])([H])c2c([H])c(OC([H])([H])C([H])([H])N3C([H])([H])C([H])([H])[N+]4([H])C([H])([H])C([H])([H])C([H])(N([H])C(=O)N5C([H])([H])C([H])([H])C([H])([H])C([H])(n6nc(-c7c([H])c([H])c(Oc8c([H])c([H])c(F)c([H])c8F)c([H])c7[H])c(C(=O)N([H])[H])c6N([H])[H])C5([H])[H])C4([H])C3([H])[H])c([H])c([H])c2C1([H])[H]

>  <smiles>  (35) 
[H]c1c([H])c([H])c2c(c1[H])C([H])([H])C([H])([H])C([H])([H])C2([H])N([H])C(=O)C1([H])N(C(=O)C([H])(N([H])C(=O)C([H])(N([H])C([H])([H])[H])C([H])([H])[H])C(C([H])([H])[H])(C([H])([H])[H])C([H])([H])[H])C([H])([H])c2c([H])c(OC([H])([H])C([H])([H])N3C([H])([H])C([H])([H])[N+]4([H])C([H])([H])C([H])([H])C([H])(N([H])C(=O)N5C([H])([H])C([H])([H])C([H])([H])C([H])(n6nc(-c7c([H])c([H])c(Oc8c([H])c([H])c(F)c([H])c8F)c([H])c7[H])c(C(=O)N([H])[H])c6N([H])[H])C5([H])[H])C4([H])C3([H])[H])c([H])c([H])c2C1([H])[H]

$$$$
35:0:0
     RDKit          3D

100110  0  0  1  0  0  0  0  0999 V2000
  -30.6510  -21.8560   22.2980 C   0  0  0  0  0  3  0  0  0  0  0  0
  -32.1440  -22.2130   22.5070 C   0  0  0  0  0  2  0  0  0  0  0  0
  -33.6550  -20.2070   21.6730 C   0  0  0  0  0  2  0  0  0  0  0  0
  -34.5100  -21.0640   22.5760 C   0  0  0  0  0  2  0  0  0  0  0  0
  -33.0160  -21.0030   22.7880 C   0  0  0  0  0  3  0  0  0  0  0  0
  -30.3710  -21.1110   20.9580 C   0  0  0  0  0  2  0  0  0  0  0  0
  -30.7570  -16.5800   22.7220 C   0  0  0  0  0  2  0  0  0  0  0  0
  -30.7500  -18.1100   22.8660 C   0  0  0  0  0  2  0  0  0  0  0  0
  -29.2620  -17.6920   20.0050 C   0  0  0  0  0  2  0  0  0  0  0  0
  -29.0920  -19.2130   19.9790 C   0  0  0  0  0  2  0  0  0  0  0  0
  -30.7080  -17.5340   20.4820 C   0  0  0  0  0  3  0  0  0  0  0  0
  -31.0630  -16.2490   21.2530 C   0  0  0  0  0  3  0  0  0  0  0  0
  -30.8970  -18.7050   21.4550 C   0  0  0  0  0  3  0  0  0  0  0  0
  -29.8580  -19.7250   21.1400 N   0  0  1  0  0  4  0  0  0  0  0  0
  -29.2070  -19.7280   21.9110 H   0  0  0  0  0  0  0  0  0  0  0  0
  -30.7130  -14.2100   19.8540 C   0  0  0  0  0  0  0  0  0  0  0  0
  -30.1860  -12.1280   18.6340 C   0  0  0  0  0  2  0  0  0  0  0  0
  -29.1280  -12.3770   17.5430 C   0  0  0  0  0  2  0  0  0  0  0  0
  -27.7080  -12.2530   18.1260 C   0  0  0  0  0  2  0  0  0  0  0  0
  -27.5240  -13.0850   19.4230 C   0  0  0  0  0  3  0  0  0  0  0  0
  -28.6790  -12.8200   20.4140 C   0  0  0  0  0  2  0  0  0  0  0  0
  -29.9540  -13.0900   19.7230 N   0  0  0  0  0  0  0  0  0  0  0  0
  -31.6960  -14.4500   19.1460 O   0  0  0  0  0  0  0  0  0  0  0  0
  -30.3290  -15.0560   20.8200 N   0  0  0  0  0  0  0  0  0  0  0  0
  -29.5110  -14.7920   21.3470 H   0  0  0  0  0  0  0  0  0  0  0  0
  -25.2210  -13.7380   20.3740 C   0  0  0  0  0  0  0  0  0  0  0  0
  -24.1810  -12.9840   20.8470 C   0  0  0  0  0  0  0  0  0  0  0  0
  -24.6090  -11.6250   20.7640 C   0  0  0  0  0  0  0  0  0  0  0  0
  -26.2190  -12.8370   20.0340 N   0  0  0  0  0  0  0  0  0  0  0  0
  -25.8580  -11.5610   20.3240 N   0  0  0  0  0  0  0  0  0  0  0  0
  -23.8820  -10.3760   21.0230 C   0  0  0  0  0  0  0  0  0  0  0  0
  -24.3630   -9.4160   21.9410 C   0  0  0  0  0  3  0  0  0  0  0  0
  -23.6370   -8.2310   22.1860 C   0  0  0  0  0  3  0  0  0  0  0  0
  -22.4140   -7.9970   21.5150 C   0  0  0  0  0  0  0  0  0  0  0  0
  -21.9500   -8.9440   20.5840 C   0  0  0  0  0  3  0  0  0  0  0  0
  -22.6770  -10.1200   20.3370 C   0  0  0  0  0  3  0  0  0  0  0  0
  -21.6540   -6.8630   21.6690 O   0  0  0  0  0  0  0  0  0  0  0  0
  -21.6440   -6.1580   22.8470 C   0  0  0  0  0  0  0  0  0  0  0  0
  -21.2800   -6.7600   24.0710 C   0  0  0  0  0  3  0  0  0  0  0  0
  -21.2160   -5.9830   25.2450 C   0  0  0  0  0  3  0  0  0  0  0  0
  -21.5040   -4.6050   25.1960 C   0  0  0  0  0  0  0  0  0  0  0  0
  -21.8610   -4.0050   23.9760 C   0  0  0  0  0  3  0  0  0  0  0  0
  -21.9270   -4.7780   22.8040 C   0  0  0  0  0  0  0  0  0  0  0  0
  -22.2500   -4.1900   21.6270 F   0  0  0  0  0  0  0  0  0  0  0  0
  -21.4360   -3.8570   26.3220 F   0  0  0  0  0  0  0  0  0  0  0  0
  -22.8290  -13.4870   21.2660 C   0  0  0  0  0  0  0  0  0  0  0  0
  -22.1840  -12.8030   22.2040 N   0  0  0  0  0  0  0  0  0  0  0  0
  -22.3570  -14.5200   20.7940 O   0  0  0  0  0  0  0  0  0  0  0  0
  -22.5800  -11.9660   22.6060 H   0  0  0  0  0  0  0  0  0  0  0  0
  -21.2800  -13.1210   22.5260 H   0  0  0  0  0  0  0  0  0  0  0  0
  -25.3960  -15.1050   20.1850 N   0  0  0  0  0  0  0  0  0  0  0  0
  -24.6580  -15.7770   20.3690 H   0  0  0  0  0  0  0  0  0  0  0  0
  -26.2190  -15.5250   19.7700 H   0  0  0  0  0  0  0  0  0  0  0  0
  -29.7450  -23.0970   22.5220 C   0  0  0  0  0  2  0  0  0  0  0  0
  -30.0770  -24.2480   21.6460 N   0  0  0  0  0  4  0  0  0  0  0  0
  -31.0800  -24.3070   21.5610 H   0  0  0  0  0  0  0  0  0  0  0  0
  -29.7000  -24.0950   20.7230 H   0  0  0  0  0  0  0  0  0  0  0  0
  -29.5910  -25.5540   22.1530 C   0  0  0  0  0  2  0  0  0  0  0  0
  -29.8690  -26.6940   21.1610 C   0  0  0  0  0  2  0  0  0  0  0  0
  -28.9440  -26.6010   20.0730 O   0  0  0  0  0  0  0  0  0  0  0  0
  -24.8580  -31.6030   23.1520 C   0  0  0  0  0  0  0  0  0  0  0  0
  -27.7650  -27.3150   20.1280 C   0  0  0  0  0  0  0  0  0  0  0  0
  -23.7440  -30.1710   21.4630 C   0  0  0  0  0  3  0  0  0  0  0  0
  -25.2930  -28.6950   20.0760 C   0  0  0  0  0  0  0  0  0  0  0  0
  -26.2510  -30.6330   21.3350 C   0  0  0  0  0  2  0  0  0  0  0  0
  -26.4050  -29.2700   20.7010 C   0  0  0  0  0  0  0  0  0  0  0  0
  -27.6380  -28.5910   20.7290 C   0  0  0  0  0  3  0  0  0  0  0  0
  -26.6380  -26.7510   19.4940 C   0  0  0  0  0  3  0  0  0  0  0  0
  -25.4010  -27.4290   19.4720 C   0  0  0  0  0  3  0  0  0  0  0  0
  -24.0150  -29.5030   20.0870 C   0  0  0  0  0  2  0  0  0  0  0  0
  -24.9650  -30.8180   22.0430 N   0  0  0  0  0  0  0  0  0  0  0  0
  -23.7540  -31.8330   23.6680 O   0  0  0  0  0  0  0  0  0  0  0  0
  -23.1050  -29.1220   22.4000 C   0  0  0  0  0  0  0  0  0  0  0  0
  -21.7940  -28.8930   22.2310 N   0  0  0  0  0  0  0  0  0  0  0  0
  -23.7870  -28.5180   23.2330 O   0  0  0  0  0  0  0  0  0  0  0  0
  -21.3060  -29.4330   21.5290 H   0  0  0  0  0  0  0  0  0  0  0  0
  -18.4520  -27.5790   22.6120 C   0  0  0  0  0  0  0  0  0  0  0  0
  -20.9880  -27.9240   22.9720 C   0  0  0  0  0  3  0  0  0  0  0  0
  -21.1620  -26.5020   22.3930 C   0  0  0  0  0  2  0  0  0  0  0  0
  -20.1070  -26.1450   21.3410 C   0  0  0  0  0  2  0  0  0  0  0  0
  -18.7000  -26.2390   21.9380 C   0  0  0  0  0  2  0  0  0  0  0  0
  -19.5280  -28.3750   23.0830 C   0  0  0  0  0  0  0  0  0  0  0  0
  -19.2470  -29.6280   23.6710 C   0  0  0  0  0  3  0  0  0  0  0  0
  -17.9220  -30.0840   23.7950 C   0  0  0  0  0  3  0  0  0  0  0  0
  -16.8590  -29.2830   23.3410 C   0  0  0  0  0  3  0  0  0  0  0  0
  -17.1250  -28.0330   22.7560 C   0  0  0  0  0  3  0  0  0  0  0  0
  -26.1070  -32.2680   23.8120 C   0  0  0  0  0  3  0  0  0  0  0  0
  -25.7380  -33.6450   24.1660 N   0  0  0  0  0  0  0  0  0  0  0  0
  -26.0400  -34.7250   23.4320 C   0  0  0  0  0  0  0  0  0  0  0  0
  -26.7280  -34.6700   22.4090 O   0  0  0  0  0  0  0  0  0  0  0  0
  -25.1250  -33.7590   24.9590 H   0  0  0  0  0  0  0  0  0  0  0  0
  -24.2390  -36.4470   23.0860 C   0  0  0  0  0  1  0  0  0  0  0  0
  -25.4860  -36.0810   23.9080 C   0  0  0  0  0  3  0  0  0  0  0  0
  -27.5700  -37.0390   24.7810 C   0  0  0  0  0  1  0  0  0  0  0  0
  -26.4730  -37.1800   23.8280 N   0  0  0  0  0  0  0  0  0  0  0  0
  -26.0260  -38.0780   23.9920 H   0  0  0  0  0  0  0  0  0  0  0  0
  -26.6360  -31.4870   25.0770 C   0  0  1  0  0  0  0  0  0  0  0  0
  -25.5330  -31.1690   26.1120 C   0  0  0  0  0  1  0  0  0  0  0  0
  -27.2930  -30.1500   24.6570 C   0  0  0  0  0  1  0  0  0  0  0  0
  -27.7350  -32.3150   25.7860 C   0  0  0  0  0  1  0  0  0  0  0  0
  1  6  1  0
  1  2  1  0
  1 54  1  0
  2  5  1  0
  3  4  1  0
  3  5  1  0
  4  5  1  0
  6 14  1  0
  7  8  1  0
 10  9  1  0
 10 14  1  0
 11  9  1  0
 11 12  1  0
 11 13  1  0
 12 24  1  0
 12  7  1  0
 13  8  1  0
 14 13  1  0
 14 15  1  1
 16 24  1  0
 17 22  1  0
 18 19  1  0
 18 17  1  0
 20 19  1  0
 20 29  1  0
 20 21  1  0
 22 16  1  0
 22 21  1  0
 23 16  2  0
 24 25  1  0
 26 27  2  0
 27 46  1  0
 28 27  1  0
 28 31  1  0
 29 30  1  0
 29 26  1  0
 30 28  2  0
 31 32  1  0
 32 33  2  0
 34 37  1  0
 34 33  1  0
 35 34  2  0
 36 35  1  0
 36 31  2  0
 37 38  1  0
 38 39  1  0
 39 40  2  0
 41 40  1  0
 41 45  1  0
 42 41  2  0
 43 38  2  0
 43 42  1  0
 44 43  1  0
 46 47  1  0
 47 50  1  0
 47 49  1  0
 48 46  2  0
 51 52  1  0
 51 26  1  0
 53 51  1  0
 55 58  1  0
 55 54  1  0
 56 55  1  0
 57 55  1  0
 59 58  1  0
 60 62  1  0
 60 59  1  0
 61 72  2  0
 62 67  1  0
 63 71  1  0
 63 73  1  0
 64 70  1  0
 64 66  1  0
 65 71  1  0
 66 67  2  0
 66 65  1  0
 68 62  2  0
 69 68  1  0
 69 64  2  0
 70 63  1  0
 71 61  1  0
 73 75  2  0
 74 73  1  0
 76 74  1  0
 77 86  2  0
 77 82  1  0
 78 74  1  0
 78 82  1  0
 79 78  1  0
 80 81  1  0
 80 79  1  0
 81 77  1  0
 82 83  2  0
 83 84  1  0
 85 84  2  0
 86 85  1  0
 87 61  1  0
 87 88  1  0
 87 97  1  0
 88 91  1  0
 89 93  1  0
 89 88  1  0
 90 89  2  0
 93 92  1  0
 95 93  1  0
 95 96  1  0
 95 94  1  0
 97100  1  1
 97 98  1  0
 99 97  1  0
M  ISO  4  16 100  24 100  59 101  60 101
M  END
>  <TORSDO>  (36) 
F 24

>  <SCORE>  (36) 
-10.896

>  <name>  (36) 
35

>  <ligand_id>  (36) 
35

>  <original_smiles>  (36) 
[H]c1c([H])c([H])c2c(c1[H])C([H])([H])C([H])([H])C([H])([H])C2([H])N([H])C(=O)C1([H])N(C(=O)C([H])(N([H])C(=O)C([H])(N([H])C([H])([H])[H])C([H])([H])[H])C(C([H])([H])[H])(C([H])([H])[H])C([H])([H])[H])C([H])([H])c2c([H])c(OC([H])([H])C([H])([H])[N+]([H])([H])C([H])([H])C([H])(C([H])([H])C3([H])C([H])([H])C3([H])[H])C([H])([H])[N+]3([H])C([H])([H])C([H])([H])C4([H])C([H])(N([H])C(=O)N5C([H])([H])C([H])([H])C([H])([H])C([H])(n6nc(-c7c([H])c([H])c(Oc8c([H])c([H])c(F)c([H])c8F)c([H])c7[H])c(C(=O)N([H])[H])c6N([H])[H])C5([H])[H])C([H])([H])C([H])([H])C43[H])c([H])c([H])c2C1([H])[H]

>  <smiles>  (36) 
[H]c1c([H])c([H])c2c(c1[H])C([H])([H])C([H])([H])C([H])([H])C2([H])N([H])C(=O)C1([H])N(C(=O)C([H])(N([H])C(=O)C([H])(N([H])C([H])([H])[H])C([H])([H])[H])C(C([H])([H])[H])(C([H])([H])[H])C([H])([H])[H])C([H])([H])c2c([H])c(OC([H])([H])C([H])([H])[N+]([H])([H])C([H])([H])C([H])(C([H])([H])C3([H])C([H])([H])C3([H])[H])C([H])([H])[N+]3([H])C([H])([H])C([H])([H])C4([H])C([H])(N([H])C(=O)N5C([H])([H])C([H])([H])C([H])([H])C([H])(n6nc(-c7c([H])c([H])c(Oc8c([H])c([H])c(F)c([H])c8F)c([H])c7[H])c(C(=O)N([H])[H])c6N([H])[H])C5([H])[H])C([H])([H])C([H])([H])C43[H])c([H])c([H])c2C1([H])[H]

$$$$
36:0:0
     RDKit          3D

 93101  0  0  1  0  0  0  0  0999 V2000
  -29.5070  -20.6610   19.4510 C   0  0  0  0  0  2  0  0  0  0  0  0
  -28.6240  -21.1540   21.7630 C   0  0  0  0  0  2  0  0  0  0  0  0
  -28.7280  -21.9720   19.1440 C   0  0  0  0  0  2  0  0  0  0  0  0
  -28.7450  -22.6830   21.5280 C   0  0  0  0  0  2  0  0  0  0  0  0
  -29.6590  -20.3390   20.9610 C   0  0  0  0  0  3  0  0  0  0  0  0
  -29.0030  -23.0760   20.1080 N   0  0  2  0  0  4  0  0  0  0  0  0
  -29.9990  -23.2420   20.0430 H   0  0  0  0  0  0  0  0  0  0  0  0
  -29.5900  -18.8800   21.2830 N   0  0  0  0  0  4  0  0  0  0  0  0
  -28.6770  -18.5130   21.0650 H   0  0  0  0  0  0  0  0  0  0  0  0
  -29.7030  -18.7940   22.2810 H   0  0  0  0  0  0  0  0  0  0  0  0
  -30.6160  -17.9940   20.6690 C   0  0  0  0  0  2  0  0  0  0  0  0
  -30.9340  -16.7480   21.5440 C   0  0  0  0  0  2  0  0  0  0  0  0
  -30.9230  -14.5830   20.2620 C   0  0  0  0  0  0  0  0  0  0  0  0
  -30.5570  -12.4960   18.9890 C   0  0  0  0  0  2  0  0  0  0  0  0
  -29.5770  -12.7440   17.8260 C   0  0  0  0  0  2  0  0  0  0  0  0
  -28.1170  -12.5990   18.2970 C   0  0  0  0  0  2  0  0  0  0  0  0
  -27.8270  -13.3950   19.5970 C   0  0  0  0  0  3  0  0  0  0  0  0
  -28.9090  -13.1140   20.6630 C   0  0  0  0  0  2  0  0  0  0  0  0
  -30.2210  -13.4320   20.0720 N   0  0  0  0  0  0  0  0  0  0  0  0
  -31.9920  -14.8240   19.6960 O   0  0  0  0  0  0  0  0  0  0  0  0
  -30.3460  -15.4840   21.0760 N   0  0  0  0  0  0  0  0  0  0  0  0
  -29.4650  -15.2060   21.4850 H   0  0  0  0  0  0  0  0  0  0  0  0
  -25.4430  -14.0030   20.3580 C   0  0  0  0  0  0  0  0  0  0  0  0
  -24.3840  -13.2290   20.7520 C   0  0  0  0  0  0  0  0  0  0  0  0
  -24.8460  -11.8780   20.7100 C   0  0  0  0  0  0  0  0  0  0  0  0
  -26.4830  -13.1220   20.1040 N   0  0  0  0  0  0  0  0  0  0  0  0
  -26.1280  -11.8390   20.3720 N   0  0  0  0  0  0  0  0  0  0  0  0
  -24.1250  -10.6160   20.9160 C   0  0  0  0  0  0  0  0  0  0  0  0
  -24.5620   -9.6630   21.8630 C   0  0  0  0  0  3  0  0  0  0  0  0
  -23.8430   -8.4640   22.0560 C   0  0  0  0  0  3  0  0  0  0  0  0
  -22.6730   -8.2090   21.3020 C   0  0  0  0  0  0  0  0  0  0  0  0
  -22.2550   -9.1510   20.3450 C   0  0  0  0  0  3  0  0  0  0  0  0
  -22.9750  -10.3410   20.1500 C   0  0  0  0  0  3  0  0  0  0  0  0
  -21.9250   -7.0610   21.4040 O   0  0  0  0  0  0  0  0  0  0  0  0
  -21.8550   -6.3480   22.5740 C   0  0  0  0  0  0  0  0  0  0  0  0
  -21.3810   -6.9270   23.7710 C   0  0  0  0  0  3  0  0  0  0  0  0
  -21.2620   -6.1390   24.9340 C   0  0  0  0  0  3  0  0  0  0  0  0
  -21.6050   -4.7740   24.9000 C   0  0  0  0  0  0  0  0  0  0  0  0
  -22.0710   -4.1950   23.7060 C   0  0  0  0  0  3  0  0  0  0  0  0
  -22.1930   -4.9800   22.5450 C   0  0  0  0  0  0  0  0  0  0  0  0
  -22.6230   -4.4130   21.3930 F   0  0  0  0  0  0  0  0  0  0  0  0
  -21.4820   -4.0150   26.0130 F   0  0  0  0  0  0  0  0  0  0  0  0
  -22.9940  -13.7060   21.0570 C   0  0  0  0  0  0  0  0  0  0  0  0
  -22.2860  -13.0080   21.9390 N   0  0  0  0  0  0  0  0  0  0  0  0
  -22.5430  -14.7310   20.5480 O   0  0  0  0  0  0  0  0  0  0  0  0
  -22.6640  -12.1780   22.3730 H   0  0  0  0  0  0  0  0  0  0  0  0
  -21.3540  -13.3080   22.1850 H   0  0  0  0  0  0  0  0  0  0  0  0
  -25.6030  -15.3730   20.1740 N   0  0  0  0  0  0  0  0  0  0  0  0
  -24.8330  -16.0230   20.2840 H   0  0  0  0  0  0  0  0  0  0  0  0
  -26.4350  -15.8040   19.7920 H   0  0  0  0  0  0  0  0  0  0  0  0
  -28.3530  -24.3640   19.6950 C   0  0  0  0  0  2  0  0  0  0  0  0
  -28.6160  -25.5690   20.6400 C   0  0  0  0  0  2  0  0  0  0  0  0
  -28.5410  -26.8490   19.9900 O   0  0  0  0  0  0  0  0  0  0  0  0
  -24.6230  -31.8710   23.1970 C   0  0  0  0  0  0  0  0  0  0  0  0
  -27.3430  -27.5260   20.0490 C   0  0  0  0  0  0  0  0  0  0  0  0
  -23.4410  -30.4810   21.5260 C   0  0  0  0  0  3  0  0  0  0  0  0
  -24.9210  -28.9850   20.0840 C   0  0  0  0  0  0  0  0  0  0  0  0
  -25.9600  -30.8820   21.3390 C   0  0  0  0  0  2  0  0  0  0  0  0
  -26.0680  -29.5220   20.6810 C   0  0  0  0  0  0  0  0  0  0  0  0
  -27.2830  -28.8010   20.6560 C   0  0  0  0  0  3  0  0  0  0  0  0
  -26.1790  -26.9980   19.4500 C   0  0  0  0  0  3  0  0  0  0  0  0
  -24.9710  -27.7220   19.4670 C   0  0  0  0  0  3  0  0  0  0  0  0
  -23.6630  -29.8250   20.1380 C   0  0  0  0  0  2  0  0  0  0  0  0
  -24.6930  -31.0920   22.0810 N   0  0  0  0  0  0  0  0  0  0  0  0
  -23.5370  -32.1180   23.7390 O   0  0  0  0  0  0  0  0  0  0  0  0
  -22.8030  -29.4350   22.4670 C   0  0  0  0  0  0  0  0  0  0  0  0
  -21.4800  -29.2370   22.3330 N   0  0  0  0  0  0  0  0  0  0  0  0
  -23.4930  -28.8040   23.2720 O   0  0  0  0  0  0  0  0  0  0  0  0
  -20.9850  -29.8010   21.6560 H   0  0  0  0  0  0  0  0  0  0  0  0
  -18.1210  -27.9960   22.8030 C   0  0  0  0  0  0  0  0  0  0  0  0
  -20.6750  -28.2750   23.0830 C   0  0  0  0  0  3  0  0  0  0  0  0
  -20.7940  -26.8580   22.4770 C   0  0  0  0  0  2  0  0  0  0  0  0
  -19.6960  -26.5450   21.4560 C   0  0  0  0  0  2  0  0  0  0  0  0
  -18.3120  -26.6610   22.1010 C   0  0  0  0  0  2  0  0  0  0  0  0
  -19.2310  -28.7590   23.2510 C   0  0  0  0  0  0  0  0  0  0  0  0
  -18.9990  -30.0090   23.8670 C   0  0  0  0  0  3  0  0  0  0  0  0
  -17.6880  -30.4930   24.0400 C   0  0  0  0  0  3  0  0  0  0  0  0
  -16.5920  -29.7260   23.6110 C   0  0  0  0  0  3  0  0  0  0  0  0
  -16.8100  -28.4780   22.9970 C   0  0  0  0  0  3  0  0  0  0  0  0
  -25.8990  -32.5090   23.8320 C   0  0  0  0  0  3  0  0  0  0  0  0
  -25.5770  -33.9010   24.1670 N   0  0  0  0  0  0  0  0  0  0  0  0
  -25.9070  -34.9600   23.4150 C   0  0  0  0  0  0  0  0  0  0  0  0
  -26.5870  -34.8670   22.3890 O   0  0  0  0  0  0  0  0  0  0  0  0
  -24.9750  -34.0480   24.9640 H   0  0  0  0  0  0  0  0  0  0  0  0
  -24.1720  -36.7430   23.0500 C   0  0  0  0  0  1  0  0  0  0  0  0
  -25.4050  -36.3420   23.8750 C   0  0  0  0  0  3  0  0  0  0  0  0
  -27.5190  -37.2380   24.7440 C   0  0  0  0  0  1  0  0  0  0  0  0
  -26.4320  -37.4030   23.7820 N   0  0  0  0  0  0  0  0  0  0  0  0
  -26.0170  -38.3190   23.9250 H   0  0  0  0  0  0  0  0  0  0  0  0
  -26.4140  -31.7320   25.1050 C   0  0  1  0  0  0  0  0  0  0  0  0
  -25.3160  -31.4740   26.1630 C   0  0  0  0  0  1  0  0  0  0  0  0
  -27.0120  -30.3640   24.7030 C   0  0  0  0  0  1  0  0  0  0  0  0
  -27.5540  -32.5300   25.7800 C   0  0  0  0  0  1  0  0  0  0  0  0
  1  5  1  0
  3  1  1  0
  3  6  1  0
  4  2  1  0
  5  8  1  0
  5  2  1  0
  6  4  1  0
  6  7  1  1
  8 10  1  0
  9  8  1  0
 11  8  1  0
 11 12  1  0
 13 21  1  0
 14 19  1  0
 15 16  1  0
 15 14  1  0
 17 16  1  0
 17 26  1  0
 17 18  1  0
 19 13  1  0
 19 18  1  0
 20 13  2  0
 21 22  1  0
 21 12  1  0
 23 24  2  0
 24 43  1  0
 25 24  1  0
 25 28  1  0
 26 23  1  0
 26 27  1  0
 27 25  2  0
 28 29  1  0
 29 30  2  0
 31 34  1  0
 31 30  1  0
 32 31  2  0
 33 32  1  0
 33 28  2  0
 34 35  1  0
 35 36  1  0
 36 37  2  0
 38 37  1  0
 38 42  1  0
 39 38  2  0
 40 35  2  0
 40 39  1  0
 41 40  1  0
 43 44  1  0
 44 47  1  0
 44 46  1  0
 45 43  2  0
 48 49  1  0
 48 23  1  0
 50 48  1  0
 51  6  1  0
 51 52  1  0
 53 55  1  0
 53 52  1  0
 54 65  2  0
 55 60  1  0
 56 64  1  0
 56 66  1  0
 57 63  1  0
 57 59  1  0
 58 64  1  0
 59 58  1  0
 60 59  2  0
 61 62  1  0
 61 55  2  0
 62 57  2  0
 63 56  1  0
 64 54  1  0
 66 68  2  0
 67 66  1  0
 69 67  1  0
 70 79  2  0
 70 75  1  0
 71 67  1  0
 71 75  1  0
 72 71  1  0
 73 74  1  0
 73 72  1  0
 74 70  1  0
 75 76  2  0
 76 77  1  0
 78 77  2  0
 79 78  1  0
 80 54  1  0
 80 81  1  0
 80 90  1  0
 81 84  1  0
 82 86  1  0
 82 81  1  0
 83 82  2  0
 86 85  1  0
 88 86  1  0
 88 89  1  0
 88 87  1  0
 90 93  1  1
 90 91  1  0
 92 90  1  0
M  ISO  4  13 100  21 100  52 101  53 101
M  END
>  <TORSDO>  (37) 
F 21

>  <SCORE>  (37) 
-13.275

>  <name>  (37) 
36

>  <ligand_id>  (37) 
36

>  <original_smiles>  (37) 
[H]c1c([H])c([H])c2c(c1[H])C([H])([H])C([H])([H])C([H])([H])C2([H])N([H])C(=O)C1([H])N(C(=O)C([H])(N([H])C(=O)C([H])(N([H])C([H])([H])[H])C([H])([H])[H])C(C([H])([H])[H])(C([H])([H])[H])C([H])([H])[H])C([H])([H])c2c([H])c(OC([H])([H])C([H])([H])[N+]3([H])C([H])([H])C([H])([H])C([H])([N+]([H])([H])C([H])([H])C([H])([H])N([H])C(=O)N4C([H])([H])C([H])([H])C([H])([H])C([H])(n5nc(-c6c([H])c([H])c(Oc7c([H])c([H])c(F)c([H])c7F)c([H])c6[H])c(C(=O)N([H])[H])c5N([H])[H])C4([H])[H])C([H])([H])C3([H])[H])c([H])c([H])c2C1([H])[H]

>  <smiles>  (37) 
[H]c1c([H])c([H])c2c(c1[H])C([H])([H])C([H])([H])C([H])([H])C2([H])N([H])C(=O)C1([H])N(C(=O)C([H])(N([H])C(=O)C([H])(N([H])C([H])([H])[H])C([H])([H])[H])C(C([H])([H])[H])(C([H])([H])[H])C([H])([H])[H])C([H])([H])c2c([H])c(OC([H])([H])C([H])([H])[N+]3([H])C([H])([H])C([H])([H])C([H])([N+]([H])([H])C([H])([H])C([H])([H])N([H])C(=O)N4C([H])([H])C([H])([H])C([H])([H])C([H])(n5nc(-c6c([H])c([H])c(Oc7c([H])c([H])c(F)c([H])c7F)c([H])c6[H])c(C(=O)N([H])[H])c5N([H])[H])C4([H])[H])C([H])([H])C3([H])[H])c([H])c([H])c2C1([H])[H]

$$$$
37:0:0
     RDKit          3D

 92100  0  0  1  0  0  0  0  0999 V2000
  -29.1210  -21.8210   19.9900 C   0  0  0  0  0  2  0  0  0  0  0  0
  -28.7920  -23.0010   20.8290 N   0  0  0  0  0  4  0  0  0  0  0  0
  -29.5330  -23.1200   21.5030 H   0  0  0  0  0  0  0  0  0  0  0  0
  -27.9460  -22.8040   21.3410 H   0  0  0  0  0  0  0  0  0  0  0  0
  -28.6340  -24.2690   20.0580 C   0  0  0  0  0  2  0  0  0  0  0  0
  -28.3650  -25.5020   20.9500 C   0  0  0  0  0  2  0  0  0  0  0  0
  -28.4060  -26.7210   20.1920 O   0  0  0  0  0  0  0  0  0  0  0  0
  -24.5860  -31.8810   23.2510 C   0  0  0  0  0  0  0  0  0  0  0  0
  -27.2390  -27.4470   20.1910 C   0  0  0  0  0  0  0  0  0  0  0  0
  -23.3820  -30.4740   21.6090 C   0  0  0  0  0  3  0  0  0  0  0  0
  -24.8400  -28.9350   20.1890 C   0  0  0  0  0  0  0  0  0  0  0  0
  -25.9040  -30.8430   21.4070 C   0  0  0  0  0  2  0  0  0  0  0  0
  -25.9940  -29.4710   20.7730 C   0  0  0  0  0  0  0  0  0  0  0  0
  -27.2010  -28.7360   20.7660 C   0  0  0  0  0  3  0  0  0  0  0  0
  -26.0710  -26.9190   19.6010 C   0  0  0  0  0  3  0  0  0  0  0  0
  -24.8720  -27.6590   19.5980 C   0  0  0  0  0  3  0  0  0  0  0  0
  -23.5920  -29.7890   20.2310 C   0  0  0  0  0  2  0  0  0  0  0  0
  -24.6430  -31.0810   22.1480 N   0  0  0  0  0  0  0  0  0  0  0  0
  -23.5050  -32.1500   23.7920 O   0  0  0  0  0  0  0  0  0  0  0  0
  -22.7330  -29.4540   22.5710 C   0  0  0  0  0  0  0  0  0  0  0  0
  -21.4090  -29.2700   22.4430 N   0  0  0  0  0  0  0  0  0  0  0  0
  -23.4180  -28.8300   23.3870 O   0  0  0  0  0  0  0  0  0  0  0  0
  -20.9190  -29.8250   21.7560 H   0  0  0  0  0  0  0  0  0  0  0  0
  -18.0370  -28.0690   22.9320 C   0  0  0  0  0  0  0  0  0  0  0  0
  -20.5930  -28.3320   23.2140 C   0  0  0  0  0  3  0  0  0  0  0  0
  -20.7000  -26.9000   22.6410 C   0  0  0  0  0  2  0  0  0  0  0  0
  -19.6030  -26.5720   21.6240 C   0  0  0  0  0  2  0  0  0  0  0  0
  -18.2190  -26.7170   22.2620 C   0  0  0  0  0  2  0  0  0  0  0  0
  -19.1520  -28.8340   23.3640 C   0  0  0  0  0  0  0  0  0  0  0  0
  -18.9290  -30.1000   23.9490 C   0  0  0  0  0  3  0  0  0  0  0  0
  -17.6230  -30.6000   24.1080 C   0  0  0  0  0  3  0  0  0  0  0  0
  -16.5220  -29.8310   23.6920 C   0  0  0  0  0  3  0  0  0  0  0  0
  -16.7290  -28.5680   23.1100 C   0  0  0  0  0  3  0  0  0  0  0  0
  -25.8720  -32.5120   23.8700 C   0  0  0  0  0  3  0  0  0  0  0  0
  -25.5660  -33.9110   24.1950 N   0  0  0  0  0  0  0  0  0  0  0  0
  -25.9010  -34.9600   23.4320 C   0  0  0  0  0  0  0  0  0  0  0  0
  -26.5720  -34.8520   22.4020 O   0  0  0  0  0  0  0  0  0  0  0  0
  -24.9720  -34.0700   24.9960 H   0  0  0  0  0  0  0  0  0  0  0  0
  -24.1750  -36.7500   23.0620 C   0  0  0  0  0  1  0  0  0  0  0  0
  -25.4120  -36.3500   23.8820 C   0  0  0  0  0  3  0  0  0  0  0  0
  -27.5460  -37.2360   24.7130 C   0  0  0  0  0  1  0  0  0  0  0  0
  -26.4450  -37.4020   23.7660 N   0  0  0  0  0  0  0  0  0  0  0  0
  -26.0400  -38.3220   23.9100 H   0  0  0  0  0  0  0  0  0  0  0  0
  -26.3910  -31.7430   25.1470 C   0  0  1  0  0  0  0  0  0  0  0  0
  -25.3000  -31.5070   26.2170 C   0  0  0  0  0  1  0  0  0  0  0  0
  -26.9720  -30.3640   24.7530 C   0  0  0  0  0  1  0  0  0  0  0  0
  -27.5440  -32.5370   25.8060 C   0  0  0  0  0  1  0  0  0  0  0  0
  -29.4760  -20.5380   20.8040 C   0  0  0  0  0  2  0  0  0  0  0  0
  -31.1990  -18.4330   18.1930 C   0  0  0  0  0  2  0  0  0  0  0  0
  -31.2500  -17.0810   18.8970 C   0  0  0  0  0  2  0  0  0  0  0  0
  -31.0250  -19.5580   19.2180 C   0  0  0  0  0  2  0  0  0  0  0  0
  -29.8170  -18.1100   20.7220 C   0  0  0  0  0  2  0  0  0  0  0  0
  -29.9950  -16.8840   19.7780 C   0  0  0  0  0  3  0  0  0  0  0  0
  -29.7610  -19.3700   19.9470 N   0  0  0  0  0  0  0  0  0  0  0  0
  -30.6700  -14.4800   20.3390 C   0  0  0  0  0  0  0  0  0  0  0  0
  -30.3500  -12.3010   19.2690 C   0  0  0  0  0  2  0  0  0  0  0  0
  -29.4090  -12.5200   18.0660 C   0  0  0  0  0  2  0  0  0  0  0  0
  -27.9370  -12.3920   18.5030 C   0  0  0  0  0  2  0  0  0  0  0  0
  -27.6070  -13.2320   19.7660 C   0  0  0  0  0  3  0  0  0  0  0  0
  -28.6720  -13.0340   20.8710 C   0  0  0  0  0  2  0  0  0  0  0  0
  -29.9930  -13.3030   20.2850 N   0  0  0  0  0  0  0  0  0  0  0  0
  -31.8520  -14.5710   20.0080 O   0  0  0  0  0  0  0  0  0  0  0  0
  -29.8850  -15.5710   20.4660 N   0  0  0  0  0  0  0  0  0  0  0  0
  -28.9570  -15.3600   20.8010 H   0  0  0  0  0  0  0  0  0  0  0  0
  -25.2150  -13.8380   20.4930 C   0  0  0  0  0  0  0  0  0  0  0  0
  -24.1500  -13.0650   20.8720 C   0  0  0  0  0  0  0  0  0  0  0  0
  -24.6130  -11.7140   20.8410 C   0  0  0  0  0  0  0  0  0  0  0  0
  -26.2590  -12.9580   20.2570 N   0  0  0  0  0  0  0  0  0  0  0  0
  -25.9020  -11.6760   20.5260 N   0  0  0  0  0  0  0  0  0  0  0  0
  -23.8890  -10.4520   21.0390 C   0  0  0  0  0  0  0  0  0  0  0  0
  -24.3360   -9.4810   21.9620 C   0  0  0  0  0  3  0  0  0  0  0  0
  -23.6130   -8.2830   22.1480 C   0  0  0  0  0  3  0  0  0  0  0  0
  -22.4280   -8.0480   21.4120 C   0  0  0  0  0  0  0  0  0  0  0  0
  -22.0010   -9.0070   20.4770 C   0  0  0  0  0  3  0  0  0  0  0  0
  -22.7240  -10.1970   20.2890 C   0  0  0  0  0  3  0  0  0  0  0  0
  -21.6760   -6.9020   21.5070 O   0  0  0  0  0  0  0  0  0  0  0  0
  -21.6550   -6.1470   22.6520 C   0  0  0  0  0  0  0  0  0  0  0  0
  -21.2710   -6.6930   23.8970 C   0  0  0  0  0  3  0  0  0  0  0  0
  -21.1980   -5.8650   25.0350 C   0  0  0  0  0  3  0  0  0  0  0  0
  -21.4990   -4.4930   24.9300 C   0  0  0  0  0  0  0  0  0  0  0  0
  -21.8760   -3.9480   23.6900 C   0  0  0  0  0  3  0  0  0  0  0  0
  -21.9510   -4.7730   22.5540 C   0  0  0  0  0  0  0  0  0  0  0  0
  -22.2960   -4.2390   21.3570 F   0  0  0  0  0  0  0  0  0  0  0  0
  -21.4210   -3.6960   26.0210 F   0  0  0  0  0  0  0  0  0  0  0  0
  -22.7540  -13.5420   21.1500 C   0  0  0  0  0  0  0  0  0  0  0  0
  -22.0320  -12.8470   22.0220 N   0  0  0  0  0  0  0  0  0  0  0  0
  -22.3120  -14.5650   20.6290 O   0  0  0  0  0  0  0  0  0  0  0  0
  -22.4030  -12.0200   22.4650 H   0  0  0  0  0  0  0  0  0  0  0  0
  -21.0960  -13.1490   22.2510 H   0  0  0  0  0  0  0  0  0  0  0  0
  -25.3760  -15.2080   20.3090 N   0  0  0  0  0  0  0  0  0  0  0  0
  -24.6030  -15.8560   20.4080 H   0  0  0  0  0  0  0  0  0  0  0  0
  -26.2140  -15.6470   19.9490 H   0  0  0  0  0  0  0  0  0  0  0  0
  1 48  1  0
  1  2  1  0
  2  4  1  0
  2  3  1  0
  5  2  1  0
  5  6  1  0
  7  6  1  0
  8 19  2  0
  9  7  1  0
  9 14  1  0
 10 18  1  0
 10 20  1  0
 11 17  1  0
 11 13  1  0
 12 18  1  0
 13 12  1  0
 14 13  2  0
 15  9  2  0
 16 15  1  0
 16 11  2  0
 17 10  1  0
 18  8  1  0
 20 22  2  0
 21 20  1  0
 23 21  1  0
 24 33  2  0
 24 29  1  0
 25 21  1  0
 25 29  1  0
 26 25  1  0
 27 28  1  0
 27 26  1  0
 28 24  1  0
 29 30  2  0
 30 31  1  0
 32 31  2  0
 33 32  1  0
 34  8  1  0
 34 35  1  0
 34 44  1  0
 35 38  1  0
 36 40  1  0
 36 35  1  0
 37 36  2  0
 40 39  1  0
 42 40  1  0
 42 43  1  0
 42 41  1  0
 44 47  1  1
 44 45  1  0
 46 44  1  0
 49 50  1  0
 49 51  1  0
 50 53  1  0
 51 54  1  0
 53 63  1  0
 53 52  1  0
 54 52  1  0
 54 48  1  0
 55 63  1  0
 56 61  1  0
 57 58  1  0
 57 56  1  0
 59 58  1  0
 59 68  1  0
 59 60  1  0
 61 55  1  0
 61 60  1  0
 62 55  2  0
 63 64  1  0
 65 66  2  0
 66 85  1  0
 67 66  1  0
 67 70  1  0
 68 65  1  0
 68 69  1  0
 69 67  2  0
 70 71  1  0
 71 72  2  0
 73 76  1  0
 73 72  1  0
 74 73  2  0
 75 74  1  0
 75 70  2  0
 76 77  1  0
 77 78  1  0
 78 79  2  0
 80 79  1  0
 80 84  1  0
 81 80  2  0
 82 77  2  0
 82 81  1  0
 83 82  1  0
 85 86  1  0
 86 89  1  0
 86 88  1  0
 87 85  2  0
 90 91  1  0
 90 65  1  0
 92 90  1  0
M  ISO  4   6 101   7 101  55 100  63 100
M  END
>  <TORSDO>  (38) 
F 21

>  <SCORE>  (38) 
-13.500

>  <name>  (38) 
37

>  <ligand_id>  (38) 
37

>  <original_smiles>  (38) 
[H]c1c([H])c([H])c2c(c1[H])C([H])([H])C([H])([H])C([H])([H])C2([H])N([H])C(=O)C1([H])N(C(=O)C([H])(N([H])C(=O)C([H])(N([H])C([H])([H])[H])C([H])([H])[H])C(C([H])([H])[H])(C([H])([H])[H])C([H])([H])[H])C([H])([H])c2c([H])c(OC([H])([H])C([H])([H])[N+]([H])([H])C([H])([H])C([H])([H])N3C([H])([H])C([H])([H])C([H])([H])C([H])(N([H])C(=O)N4C([H])([H])C([H])([H])C([H])([H])C([H])(n5nc(-c6c([H])c([H])c(Oc7c([H])c([H])c(F)c([H])c7F)c([H])c6[H])c(C(=O)N([H])[H])c5N([H])[H])C4([H])[H])C3([H])[H])c([H])c([H])c2C1([H])[H]

>  <smiles>  (38) 
[H]c1c([H])c([H])c2c(c1[H])C([H])([H])C([H])([H])C([H])([H])C2([H])N([H])C(=O)C1([H])N(C(=O)C([H])(N([H])C(=O)C([H])(N([H])C([H])([H])[H])C([H])([H])[H])C(C([H])([H])[H])(C([H])([H])[H])C([H])([H])[H])C([H])([H])c2c([H])c(OC([H])([H])C([H])([H])[N+]([H])([H])C([H])([H])C([H])([H])N3C([H])([H])C([H])([H])C([H])([H])C([H])(N([H])C(=O)N4C([H])([H])C([H])([H])C([H])([H])C([H])(n5nc(-c6c([H])c([H])c(Oc7c([H])c([H])c(F)c([H])c7F)c([H])c6[H])c(C(=O)N([H])[H])c5N([H])[H])C4([H])[H])C3([H])[H])c([H])c([H])c2C1([H])[H]

$$$$
38:0:0
     RDKit          3D

103111  0  0  1  0  0  0  0  0999 V2000
  -30.4440  -20.7450   19.6270 N   0  0  0  0  0  4  0  0  0  0  0  0
  -29.4500  -20.5820   19.6610 H   0  0  0  0  0  0  0  0  0  0  0  0
  -30.7470  -21.0070   20.5520 H   0  0  0  0  0  0  0  0  0  0  0  0
  -30.7090  -21.8620   18.6820 C   0  0  0  0  0  2  0  0  0  0  0  0
  -29.9600  -23.1680   19.0310 C   0  0  0  0  0  2  0  0  0  0  0  0
  -29.3510  -25.3920   16.0190 C   0  0  0  0  0  2  0  0  0  0  0  0
  -29.5320  -24.0100   16.6330 C   0  0  0  0  0  2  0  0  0  0  0  0
  -29.0730  -26.2930   17.2210 C   0  0  0  0  0  2  0  0  0  0  0  0
  -30.1880  -24.2960   17.9920 C   0  0  0  0  0  3  0  0  0  0  0  0
  -29.6060  -25.5940   18.4170 N   0  0  1  0  0  4  0  0  0  0  0  0
  -28.7910  -25.3820   18.9770 H   0  0  0  0  0  0  0  0  0  0  0  0
  -30.4580  -26.4280   19.3050 C   0  0  0  0  0  2  0  0  0  0  0  0
  -29.6240  -27.5250   19.9830 C   0  0  0  0  0  2  0  0  0  0  0  0
  -28.4020  -26.8920   20.3390 O   0  0  0  0  0  0  0  0  0  0  0  0
  -24.5430  -32.0660   23.3420 C   0  0  0  0  0  0  0  0  0  0  0  0
  -27.2710  -27.6640   20.3320 C   0  0  0  0  0  0  0  0  0  0  0  0
  -23.3690  -30.6410   21.6920 C   0  0  0  0  0  3  0  0  0  0  0  0
  -24.8560  -29.1140   20.2970 C   0  0  0  0  0  0  0  0  0  0  0  0
  -25.8860  -31.0410   21.5150 C   0  0  0  0  0  2  0  0  0  0  0  0
  -25.9980  -29.6690   20.8890 C   0  0  0  0  0  0  0  0  0  0  0  0
  -27.2130  -28.9530   20.9060 C   0  0  0  0  0  3  0  0  0  0  0  0
  -26.1110  -27.1090   19.7550 C   0  0  0  0  0  3  0  0  0  0  0  0
  -24.9050  -27.8310   19.7240 C   0  0  0  0  0  3  0  0  0  0  0  0
  -23.6010  -29.9550   20.3190 C   0  0  0  0  0  2  0  0  0  0  0  0
  -24.6170  -31.2630   22.2440 N   0  0  0  0  0  0  0  0  0  0  0  0
  -23.4530  -32.3280   23.8700 O   0  0  0  0  0  0  0  0  0  0  0  0
  -22.7190  -29.6170   22.6520 C   0  0  0  0  0  0  0  0  0  0  0  0
  -21.3980  -29.4230   22.5110 N   0  0  0  0  0  0  0  0  0  0  0  0
  -23.4000  -29.0020   23.4760 O   0  0  0  0  0  0  0  0  0  0  0  0
  -20.9090  -29.9740   21.8190 H   0  0  0  0  0  0  0  0  0  0  0  0
  -18.0280  -28.2060   22.9720 C   0  0  0  0  0  0  0  0  0  0  0  0
  -20.5800  -28.4820   23.2770 C   0  0  0  0  0  3  0  0  0  0  0  0
  -20.7000  -27.0490   22.7090 C   0  0  0  0  0  2  0  0  0  0  0  0
  -19.6140  -26.7140   21.6830 C   0  0  0  0  0  2  0  0  0  0  0  0
  -18.2230  -26.8550   22.3060 C   0  0  0  0  0  2  0  0  0  0  0  0
  -19.1360  -28.9770   23.4140 C   0  0  0  0  0  0  0  0  0  0  0  0
  -18.9020  -30.2430   23.9920 C   0  0  0  0  0  3  0  0  0  0  0  0
  -17.5920  -30.7370   24.1380 C   0  0  0  0  0  3  0  0  0  0  0  0
  -16.4990  -29.9620   23.7150 C   0  0  0  0  0  3  0  0  0  0  0  0
  -16.7170  -28.6990   23.1380 C   0  0  0  0  0  3  0  0  0  0  0  0
  -25.8160  -32.7110   23.9730 C   0  0  0  0  0  3  0  0  0  0  0  0
  -25.5020  -34.1150   24.2680 N   0  0  0  0  0  0  0  0  0  0  0  0
  -25.8600  -35.1500   23.4970 C   0  0  0  0  0  0  0  0  0  0  0  0
  -26.5620  -35.0240   22.4900 O   0  0  0  0  0  0  0  0  0  0  0  0
  -24.8820  -34.2870   25.0460 H   0  0  0  0  0  0  0  0  0  0  0  0
  -24.1500  -36.9360   23.0450 C   0  0  0  0  0  1  0  0  0  0  0  0
  -25.3610  -36.5470   23.9090 C   0  0  0  0  0  3  0  0  0  0  0  0
  -27.4670  -37.4420   24.7980 C   0  0  0  0  0  1  0  0  0  0  0  0
  -26.4000  -37.5960   23.8130 N   0  0  0  0  0  0  0  0  0  0  0  0
  -25.9930  -38.5210   23.9310 H   0  0  0  0  0  0  0  0  0  0  0  0
  -26.3150  -31.9630   25.2700 C   0  0  1  0  0  0  0  0  0  0  0  0
  -25.2040  -31.7380   26.3230 C   0  0  0  0  0  1  0  0  0  0  0  0
  -26.9110  -30.5830   24.9090 C   0  0  0  0  0  1  0  0  0  0  0  0
  -27.4510  -32.7740   25.9380 C   0  0  0  0  0  1  0  0  0  0  0  0
  -31.1110  -19.4850   19.2220 C   0  0  0  0  0  2  0  0  0  0  0  0
  -30.8490  -18.2660   20.1580 C   0  0  0  0  0  2  0  0  0  0  0  0
  -30.6780  -16.8940   19.4180 C   0  0  2  0  0  0  0  0  0  0  0  0
  -30.8000  -14.9960   21.1680 C   0  0  0  0  0  0  0  0  0  0  0  0
  -30.7130  -12.6770   20.4710 C   0  0  0  0  0  2  0  0  0  0  0  0
  -29.9640  -12.6430   19.1220 C   0  0  0  0  0  2  0  0  0  0  0  0
  -28.4440  -12.5160   19.3390 C   0  0  0  0  0  2  0  0  0  0  0  0
  -27.8860  -13.5150   20.3870 C   0  0  0  0  0  3  0  0  0  0  0  0
  -28.7760  -13.5780   21.6510 C   0  0  0  0  0  2  0  0  0  0  0  0
  -30.1640  -13.8010   21.2310 N   0  0  0  0  0  0  0  0  0  0  0  0
  -31.9960  -15.1320   21.3880 O   0  0  0  0  0  0  0  0  0  0  0  0
  -30.1510  -15.8910   20.3990 N   0  0  0  0  0  0  0  0  0  0  0  0
  -29.1910  -15.6350   20.2430 H   0  0  0  0  0  0  0  0  0  0  0  0
  -25.4130  -14.0930   20.7980 C   0  0  0  0  0  0  0  0  0  0  0  0
  -24.3160  -13.3080   21.0280 C   0  0  0  0  0  0  0  0  0  0  0  0
  -24.7940  -11.9620   21.0570 C   0  0  0  0  0  0  0  0  0  0  0  0
  -26.4900  -13.2250   20.7080 N   0  0  0  0  0  0  0  0  0  0  0  0
  -26.1140  -11.9380   20.9240 N   0  0  0  0  0  0  0  0  0  0  0  0
  -24.0660  -10.6910   21.1520 C   0  0  0  0  0  0  0  0  0  0  0  0
  -24.4030   -9.7170   22.1160 C   0  0  0  0  0  3  0  0  0  0  0  0
  -23.6770   -8.5100   22.1980 C   0  0  0  0  0  3  0  0  0  0  0  0
  -22.5990   -8.2680   21.3140 C   0  0  0  0  0  0  0  0  0  0  0  0
  -22.2820   -9.2310   20.3410 C   0  0  0  0  0  3  0  0  0  0  0  0
  -23.0100  -10.4300   20.2560 C   0  0  0  0  0  3  0  0  0  0  0  0
  -21.8530   -7.1150   21.3030 O   0  0  0  0  0  0  0  0  0  0  0  0
  -21.7000   -6.3470   22.4290 C   0  0  0  0  0  0  0  0  0  0  0  0
  -21.1430   -6.8690   23.6170 C   0  0  0  0  0  3  0  0  0  0  0  0
  -20.9410   -6.0260   24.7280 C   0  0  0  0  0  3  0  0  0  0  0  0
  -21.2850   -4.6620   24.6500 C   0  0  0  0  0  0  0  0  0  0  0  0
  -21.8330   -4.1400   23.4650 C   0  0  0  0  0  3  0  0  0  0  0  0
  -22.0390   -4.9810   22.3580 C   0  0  0  0  0  0  0  0  0  0  0  0
  -22.5470   -4.4700   21.2110 F   0  0  0  0  0  0  0  0  0  0  0  0
  -21.0850   -3.8490   25.7140 F   0  0  0  0  0  0  0  0  0  0  0  0
  -22.8900  -13.7680   21.1160 C   0  0  0  0  0  0  0  0  0  0  0  0
  -22.0710  -13.0700   21.8950 N   0  0  0  0  0  0  0  0  0  0  0  0
  -22.5040  -14.7790   20.5280 O   0  0  0  0  0  0  0  0  0  0  0  0
  -22.3940  -12.2510   22.3880 H   0  0  0  0  0  0  0  0  0  0  0  0
  -21.1090  -13.3550   21.9980 H   0  0  0  0  0  0  0  0  0  0  0  0
  -25.5830  -15.4660   20.6440 N   0  0  0  0  0  0  0  0  0  0  0  0
  -24.8010  -16.1110   20.6560 H   0  0  0  0  0  0  0  0  0  0  0  0
  -26.4620  -15.9160   20.4330 H   0  0  0  0  0  0  0  0  0  0  0  0
  -32.0680  -16.5440   18.7330 C   0  0  0  0  0  2  0  0  0  0  0  0
  -32.2640  -15.2360   17.9400 C   0  0  0  0  0  0  0  0  0  0  0  0
  -33.5790  -14.5070   18.1650 C   0  0  0  0  0  1  0  0  0  0  0  0
  -31.4320  -14.7800   17.1070 N   0  0  0  0  0  0  0  0  0  0  0  0
  -31.7480  -13.9050   16.6990 H   0  0  0  0  0  0  0  0  0  0  0  0
  -29.5720  -17.0250   18.3230 C   0  0  0  0  0  2  0  0  0  0  0  0
  -27.2140  -17.7290   17.6540 C   0  0  0  0  0  1  0  0  0  0  0  0
  -28.3650  -17.9290   18.6490 C   0  0  0  0  0  2  0  0  0  0  0  0
  1  2  1  0
  1  3  1  0
  4  5  1  0
  4  1  1  0
  6  7  1  0
  6  8  1  0
  7  9  1  0
  8 10  1  0
  9 10  1  0
  9  5  1  0
 10 11  1  1
 10 12  1  0
 12 13  1  0
 13 14  1  0
 15 26  2  0
 16 14  1  0
 16 21  1  0
 17 25  1  0
 17 27  1  0
 18 24  1  0
 18 20  1  0
 19 25  1  0
 20 21  2  0
 20 19  1  0
 22 16  2  0
 23 22  1  0
 23 18  2  0
 24 17  1  0
 25 15  1  0
 27 29  2  0
 28 27  1  0
 30 28  1  0
 31 40  2  0
 31 36  1  0
 32 28  1  0
 32 36  1  0
 33 32  1  0
 34 35  1  0
 34 33  1  0
 35 31  1  0
 36 37  2  0
 37 38  1  0
 39 38  2  0
 40 39  1  0
 41 15  1  0
 41 42  1  0
 41 51  1  0
 42 45  1  0
 43 47  1  0
 43 42  1  0
 44 43  2  0
 47 46  1  0
 49 47  1  0
 49 50  1  0
 49 48  1  0
 51 54  1  1
 51 52  1  0
 53 51  1  0
 55  1  1  0
 55 56  1  0
 57101  1  6
 57 56  1  0
 57 66  1  0
 58 64  1  0
 58 65  2  0
 59 64  1  0
 60 61  1  0
 60 59  1  0
 62 61  1  0
 62 71  1  0
 62 63  1  0
 64 63  1  0
 66 58  1  0
 67 66  1  0
 68 69  2  0
 69 70  1  0
 69 88  1  0
 70 73  1  0
 71 68  1  0
 71 72  1  0
 72 70  2  0
 73 74  1  0
 74 75  2  0
 76 75  1  0
 77 76  2  0
 78 77  1  0
 78 73  2  0
 79 76  1  0
 79 80  1  0
 80 81  1  0
 81 82  2  0
 83 82  1  0
 83 87  1  0
 84 83  2  0
 85 80  2  0
 85 84  1  0
 86 85  1  0
 88 89  1  0
 89 92  1  0
 89 91  1  0
 90 88  2  0
 93 94  1  0
 93 68  1  0
 95 93  1  0
 96 57  1  0
 97 98  1  0
 97 96  1  0
 99 97  2  0
100 99  1  0
101103  1  0
102103  1  0
M  ISO  4  13 101  14 101  58 100  66 100
M  END
>  <TORSDO>  (39) 
F 28

>  <SCORE>  (39) 
-9.978

>  <name>  (39) 
38

>  <ligand_id>  (39) 
38

>  <original_smiles>  (39) 
[H]N=C(C([H])([H])[H])C([H])([H])C(N([H])C(=O)N1C([H])([H])C([H])([H])C([H])([H])C([H])(n2nc(-c3c([H])c([H])c(Oc4c([H])c([H])c(F)c([H])c4F)c([H])c3[H])c(C(=O)N([H])[H])c2N([H])[H])C1([H])[H])(C([H])([H])C([H])([H])C([H])([H])[H])C([H])([H])C([H])([H])[N+]([H])([H])C([H])([H])C([H])([H])C1([H])C([H])([H])C([H])([H])C([H])([H])[N+]1([H])C([H])([H])C([H])([H])Oc1c([H])c([H])c2c(c1[H])C([H])([H])N(C(=O)C([H])(N([H])C(=O)C([H])(N([H])C([H])([H])[H])C([H])([H])[H])C(C([H])([H])[H])(C([H])([H])[H])C([H])([H])[H])C([H])(C(=O)N([H])C1([H])c3c([H])c([H])c([H])c([H])c3C([H])([H])C([H])([H])C1([H])[H])C2([H])[H]

>  <smiles>  (39) 
[H]N=C(C([H])([H])[H])C([H])([H])C(N([H])C(=O)N1C([H])([H])C([H])([H])C([H])([H])C([H])(n2nc(-c3c([H])c([H])c(Oc4c([H])c([H])c(F)c([H])c4F)c([H])c3[H])c(C(=O)N([H])[H])c2N([H])[H])C1([H])[H])(C([H])([H])C([H])([H])C([H])([H])[H])C([H])([H])C([H])([H])[N+]([H])([H])C([H])([H])C([H])([H])C1([H])C([H])([H])C([H])([H])C([H])([H])[N+]1([H])C([H])([H])C([H])([H])Oc1c([H])c([H])c2c(c1[H])C([H])([H])N(C(=O)C([H])(N([H])C(=O)C([H])(N([H])C([H])([H])[H])C([H])([H])[H])C(C([H])([H])[H])(C([H])([H])[H])C([H])([H])[H])C([H])(C(=O)N([H])C1([H])c3c([H])c([H])c([H])c([H])c3C([H])([H])C([H])([H])C1([H])[H])C2([H])[H]

$$$$
39:0:0
     RDKit          3D

 96104  0  0  1  0  0  0  0  0999 V2000
  -29.7460  -20.1520   19.9840 C   0  0  0  0  0  2  0  0  0  0  0  0
  -30.0650  -21.6150   20.4640 C   0  0  0  0  0  2  0  0  0  0  0  0
  -29.0120  -22.6170   20.1250 N   0  0  0  0  0  4  0  0  0  0  0  0
  -28.1600  -22.3340   20.5870 H   0  0  0  0  0  0  0  0  0  0  0  0
  -28.8440  -22.5680   19.1310 H   0  0  0  0  0  0  0  0  0  0  0  0
  -29.3150  -24.0420   20.4960 C   0  0  0  0  0  2  0  0  0  0  0  0
  -28.1850  -25.0240   20.0750 C   0  0  0  0  0  2  0  0  0  0  0  0
  -28.3560  -26.4150   20.4600 O   0  0  0  0  0  0  0  0  0  0  0  0
  -24.6160  -31.7830   23.3750 C   0  0  0  0  0  0  0  0  0  0  0  0
  -27.2260  -27.2260   20.3820 C   0  0  0  0  0  0  0  0  0  0  0  0
  -23.4270  -30.4090   21.7020 C   0  0  0  0  0  3  0  0  0  0  0  0
  -24.8830  -28.8370   20.3190 C   0  0  0  0  0  0  0  0  0  0  0  0
  -25.9730  -30.6860   21.5930 C   0  0  0  0  0  2  0  0  0  0  0  0
  -26.0420  -29.3130   20.9470 C   0  0  0  0  0  0  0  0  0  0  0  0
  -27.2150  -28.5150   20.9770 C   0  0  0  0  0  3  0  0  0  0  0  0
  -26.0450  -26.7880   19.7300 C   0  0  0  0  0  3  0  0  0  0  0  0
  -24.8830  -27.5760   19.7070 C   0  0  0  0  0  3  0  0  0  0  0  0
  -23.6630  -29.7300   20.3290 C   0  0  0  0  0  2  0  0  0  0  0  0
  -24.6890  -30.9750   22.2790 N   0  0  0  0  0  0  0  0  0  0  0  0
  -23.5260  -32.0850   23.8790 O   0  0  0  0  0  0  0  0  0  0  0  0
  -22.7210  -29.4030   22.6420 C   0  0  0  0  0  0  0  0  0  0  0  0
  -21.3980  -29.2470   22.4720 N   0  0  0  0  0  0  0  0  0  0  0  0
  -23.3640  -28.7660   23.4800 O   0  0  0  0  0  0  0  0  0  0  0  0
  -20.9420  -29.8120   21.7690 H   0  0  0  0  0  0  0  0  0  0  0  0
  -17.9820  -28.1400   22.8750 C   0  0  0  0  0  0  0  0  0  0  0  0
  -20.5370  -28.3310   23.2190 C   0  0  0  0  0  3  0  0  0  0  0  0
  -20.6180  -26.8980   22.6440 C   0  0  0  0  0  2  0  0  0  0  0  0
  -19.5370  -26.6040   21.6000 C   0  0  0  0  0  2  0  0  0  0  0  0
  -18.1410  -26.7860   22.2060 C   0  0  0  0  0  2  0  0  0  0  0  0
  -19.1080  -28.8730   23.3370 C   0  0  0  0  0  0  0  0  0  0  0  0
  -18.9060  -30.1420   23.9220 C   0  0  0  0  0  3  0  0  0  0  0  0
  -17.6120  -30.6780   24.0490 C   0  0  0  0  0  3  0  0  0  0  0  0
  -16.4990  -29.9430   23.6060 C   0  0  0  0  0  3  0  0  0  0  0  0
  -16.6850  -28.6760   23.0250 C   0  0  0  0  0  3  0  0  0  0  0  0
  -25.8980  -32.3850   24.0300 C   0  0  0  0  0  3  0  0  0  0  0  0
  -26.3440  -31.6230   25.3380 C   0  0  1  0  0  0  0  0  0  0  0  0
  -25.2030  -31.4280   26.3630 C   0  0  0  0  0  1  0  0  0  0  0  0
  -26.9100  -30.2260   24.9920 C   0  0  0  0  0  1  0  0  0  0  0  0
  -27.4850  -32.4020   26.0340 C   0  0  0  0  0  1  0  0  0  0  0  0
  -25.6220  -33.7980   24.3210 N   0  0  0  0  0  0  0  0  0  0  0  0
  -25.9870  -34.8220   23.5380 C   0  0  0  0  0  0  0  0  0  0  0  0
  -26.6640  -34.6750   22.5150 O   0  0  0  0  0  0  0  0  0  0  0  0
  -25.0200  -33.9850   25.1080 H   0  0  0  0  0  0  0  0  0  0  0  0
  -24.2980  -36.6420   23.1320 C   0  0  0  0  0  1  0  0  0  0  0  0
  -25.5310  -36.2320   23.9550 C   0  0  0  0  0  3  0  0  0  0  0  0
  -27.6820  -37.0950   24.7650 C   0  0  0  0  0  1  0  0  0  0  0  0
  -26.5850  -37.2600   23.8150 N   0  0  0  0  0  0  0  0  0  0  0  0
  -26.1980  -38.1910   23.9380 H   0  0  0  0  0  0  0  0  0  0  0  0
  -30.5950  -19.0660   20.5430 N   0  0  0  0  0  0  0  0  0  0  0  0
  -31.9250  -19.0280   19.9120 C   0  0  0  0  0  2  0  0  0  0  0  0
  -35.0350  -21.0570   22.1650 C   0  0  0  0  0  3  0  0  0  0  0  0
  -35.0260  -21.1240   20.7580 C   0  0  0  0  0  3  0  0  0  0  0  0
  -34.0360  -20.3320   22.8410 C   0  0  0  0  0  3  0  0  0  0  0  0
  -34.0170  -20.4670   20.0270 C   0  0  0  0  0  3  0  0  0  0  0  0
  -33.0280  -19.6730   22.1100 C   0  0  0  0  0  3  0  0  0  0  0  0
  -33.0080  -19.7460   20.7000 C   0  0  0  0  0  0  0  0  0  0  0  0
  -29.9490  -17.7430   20.3870 C   0  0  0  0  0  2  0  0  0  0  0  0
  -30.4700  -16.7020   21.4290 C   0  0  0  0  0  2  0  0  0  0  0  0
  -30.7610  -14.3090   20.6610 C   0  0  0  0  0  0  0  0  0  0  0  0
  -30.5400  -12.0660   19.6410 C   0  0  0  0  0  2  0  0  0  0  0  0
  -29.6170  -12.1540   18.4060 C   0  0  0  0  0  2  0  0  0  0  0  0
  -28.1360  -12.0230   18.8140 C   0  0  0  0  0  2  0  0  0  0  0  0
  -27.7580  -12.9470   20.0010 C   0  0  0  0  0  3  0  0  0  0  0  0
  -28.7880  -12.8140   21.1450 C   0  0  0  0  0  2  0  0  0  0  0  0
  -30.1180  -13.1100   20.5860 N   0  0  0  0  0  0  0  0  0  0  0  0
  -31.8860  -14.4960   20.1930 O   0  0  0  0  0  0  0  0  0  0  0  0
  -30.0370  -15.3170   21.1840 N   0  0  0  0  0  0  0  0  0  0  0  0
  -29.1120  -15.0720   21.5060 H   0  0  0  0  0  0  0  0  0  0  0  0
  -25.3570  -13.5910   20.6660 C   0  0  0  0  0  0  0  0  0  0  0  0
  -24.2770  -12.8350   21.0330 C   0  0  0  0  0  0  0  0  0  0  0  0
  -24.7250  -11.4790   21.0320 C   0  0  0  0  0  0  0  0  0  0  0  0
  -26.3960  -12.6960   20.4640 N   0  0  0  0  0  0  0  0  0  0  0  0
  -26.0180  -11.4210   20.7410 N   0  0  0  0  0  0  0  0  0  0  0  0
  -23.9850  -10.2270   21.2310 C   0  0  0  0  0  0  0  0  0  0  0  0
  -24.3890   -9.2770   22.1950 C   0  0  0  0  0  3  0  0  0  0  0  0
  -23.6500   -8.0890   22.3830 C   0  0  0  0  0  3  0  0  0  0  0  0
  -22.4940   -7.8420   21.6040 C   0  0  0  0  0  0  0  0  0  0  0  0
  -22.1100   -8.7800   20.6300 C   0  0  0  0  0  3  0  0  0  0  0  0
  -22.8480   -9.9600   20.4410 C   0  0  0  0  0  3  0  0  0  0  0  0
  -21.7290   -6.7040   21.6980 O   0  0  0  0  0  0  0  0  0  0  0  0
  -21.6450   -5.9880   22.8650 C   0  0  0  0  0  0  0  0  0  0  0  0
  -21.1810   -6.5700   24.0640 C   0  0  0  0  0  3  0  0  0  0  0  0
  -21.0440   -5.7800   25.2240 C   0  0  0  0  0  3  0  0  0  0  0  0
  -21.3620   -4.4100   25.1840 C   0  0  0  0  0  0  0  0  0  0  0  0
  -21.8200   -3.8270   23.9890 C   0  0  0  0  0  3  0  0  0  0  0  0
  -21.9580   -4.6140   22.8320 C   0  0  0  0  0  0  0  0  0  0  0  0
  -22.3790   -4.0430   21.6780 F   0  0  0  0  0  0  0  0  0  0  0  0
  -21.2240   -3.6480   26.2950 F   0  0  0  0  0  0  0  0  0  0  0  0
  -22.8800  -13.3300   21.2810 C   0  0  0  0  0  0  0  0  0  0  0  0
  -22.1370  -12.6550   22.1520 N   0  0  0  0  0  0  0  0  0  0  0  0
  -22.4570  -14.3480   20.7370 O   0  0  0  0  0  0  0  0  0  0  0  0
  -22.4920  -11.8300   22.6120 H   0  0  0  0  0  0  0  0  0  0  0  0
  -21.2010  -12.9690   22.3620 H   0  0  0  0  0  0  0  0  0  0  0  0
  -25.5390  -14.9570   20.4680 N   0  0  0  0  0  0  0  0  0  0  0  0
  -24.7790  -15.6240   20.5480 H   0  0  0  0  0  0  0  0  0  0  0  0
  -26.4000  -15.3770   20.1380 H   0  0  0  0  0  0  0  0  0  0  0  0
  1  2  1  0
  1 49  1  0
  3  2  1  0
  3  6  1  0
  3  4  1  0
  5  3  1  0
  7  8  1  0
  7  6  1  0
  9 20  2  0
 10  8  1  0
 10 15  1  0
 11 19  1  0
 11 21  1  0
 12 18  1  0
 12 14  1  0
 13 19  1  0
 14 15  2  0
 14 13  1  0
 16 10  2  0
 17 16  1  0
 17 12  2  0
 18 11  1  0
 19  9  1  0
 21 23  2  0
 22 21  1  0
 24 22  1  0
 25 34  2  0
 25 30  1  0
 26 22  1  0
 26 30  1  0
 27 26  1  0
 28 29  1  0
 28 27  1  0
 29 25  1  0
 30 31  2  0
 31 32  1  0
 33 32  2  0
 34 33  1  0
 35  9  1  0
 35 40  1  0
 35 36  1  0
 36 39  1  1
 36 37  1  0
 38 36  1  0
 40 43  1  0
 41 45  1  0
 41 40  1  0
 42 41  2  0
 45 44  1  0
 47 48  1  0
 47 45  1  0
 47 46  1  0
 50 49  1  0
 50 56  1  0
 51 53  1  0
 52 51  2  0
 54 56  2  0
 54 52  1  0
 55 53  2  0
 56 55  1  0
 57 49  1  0
 57 58  1  0
 59 67  1  0
 60 65  1  0
 61 62  1  0
 61 60  1  0
 63 62  1  0
 63 72  1  0
 63 64  1  0
 65 59  1  0
 65 64  1  0
 66 59  2  0
 67 58  1  0
 67 68  1  0
 69 70  2  0
 70 89  1  0
 71 70  1  0
 71 74  1  0
 72 69  1  0
 72 73  1  0
 73 71  2  0
 74 75  1  0
 75 76  2  0
 77 80  1  0
 77 76  1  0
 78 77  2  0
 79 78  1  0
 79 74  2  0
 80 81  1  0
 81 82  1  0
 82 83  2  0
 84 83  1  0
 84 88  1  0
 85 84  2  0
 86 81  2  0
 86 85  1  0
 87 86  1  0
 89 90  1  0
 90 93  1  0
 90 92  1  0
 91 89  2  0
 94 95  1  0
 94 69  1  0
 96 94  1  0
M  ISO  4   7 101   8 101  59 100  67 100
M  END
>  <TORSDO>  (40) 
F 25

>  <SCORE>  (40) 
-12.014

>  <name>  (40) 
39

>  <ligand_id>  (40) 
39

>  <original_smiles>  (40) 
[H]c1c([H])c([H])c(C([H])([H])N(C([H])([H])C([H])([H])N([H])C(=O)N2C([H])([H])C([H])([H])C([H])([H])C([H])(n3nc(-c4c([H])c([H])c(Oc5c([H])c([H])c(F)c([H])c5F)c([H])c4[H])c(C(=O)N([H])[H])c3N([H])[H])C2([H])[H])C([H])([H])C([H])([H])[N+]([H])([H])C([H])([H])C([H])([H])Oc2c([H])c([H])c3c(c2[H])C([H])([H])N(C(=O)C([H])(N([H])C(=O)C([H])(N([H])C([H])([H])[H])C([H])([H])[H])C(C([H])([H])[H])(C([H])([H])[H])C([H])([H])[H])C([H])(C(=O)N([H])C2([H])c4c([H])c([H])c([H])c([H])c4C([H])([H])C([H])([H])C2([H])[H])C3([H])[H])c([H])c1[H]

>  <smiles>  (40) 
[H]c1c([H])c([H])c(C([H])([H])N(C([H])([H])C([H])([H])N([H])C(=O)N2C([H])([H])C([H])([H])C([H])([H])C([H])(n3nc(-c4c([H])c([H])c(Oc5c([H])c([H])c(F)c([H])c5F)c([H])c4[H])c(C(=O)N([H])[H])c3N([H])[H])C2([H])[H])C([H])([H])C([H])([H])[N+]([H])([H])C([H])([H])C([H])([H])Oc2c([H])c([H])c3c(c2[H])C([H])([H])N(C(=O)C([H])(N([H])C(=O)C([H])(N([H])C([H])([H])[H])C([H])([H])[H])C(C([H])([H])[H])(C([H])([H])[H])C([H])([H])[H])C([H])(C(=O)N([H])C2([H])c4c([H])c([H])c([H])c([H])c4C([H])([H])C([H])([H])C2([H])[H])C3([H])[H])c([H])c1[H]

$$$$
40:0:0
     RDKit          3D

102110  0  0  1  0  0  0  0  0999 V2000
  -29.9910  -20.3250   21.2520 C   0  0  0  0  0  2  0  0  0  0  0  0
  -30.0520  -21.8890   21.4150 C   0  0  0  0  0  2  0  0  0  0  0  0
  -29.4360  -22.1010   19.0900 C   0  0  0  0  0  2  0  0  0  0  0  0
  -29.3850  -20.5070   18.9810 C   0  0  0  0  0  3  0  0  0  0  0  0
  -30.3880  -19.8850   19.8980 N   0  0  0  0  0  0  0  0  0  0  0  0
  -29.1850  -22.6570   20.4620 N   0  0  2  0  0  4  0  0  0  0  0  0
  -28.2350  -22.4180   20.7120 H   0  0  0  0  0  0  0  0  0  0  0  0
  -29.5300  -20.0510   17.5000 C   0  0  0  0  0  2  0  0  0  0  0  0
  -28.3090  -20.2710   16.7010 N   0  0  0  0  0  4  0  0  0  0  0  0
  -27.4980  -19.8900   17.1570 H   0  0  0  0  0  0  0  0  0  0  0  0
  -28.4010  -19.8100   15.8140 H   0  0  0  0  0  0  0  0  0  0  0  0
  -28.1500  -21.2450   16.5150 H   0  0  0  0  0  0  0  0  0  0  0  0
  -29.3390  -24.1840   20.6250 C   0  0  0  0  0  3  0  0  0  0  0  0
  -28.1720  -25.1610   20.1440 C   0  0  0  0  0  3  0  0  0  0  0  0
  -28.3560  -26.6310   20.3120 O   0  0  0  0  0  0  0  0  0  0  0  0
  -24.5420  -31.9990   23.2810 C   0  0  0  0  0  0  0  0  0  0  0  0
  -27.2260  -27.4670   20.2440 C   0  0  0  0  0  0  0  0  0  0  0  0
  -23.3640  -30.5890   21.6300 C   0  0  0  0  0  3  0  0  0  0  0  0
  -24.8430  -29.0560   20.2140 C   0  0  0  0  0  0  0  0  0  0  0  0
  -25.9030  -30.9350   21.4660 C   0  0  0  0  0  2  0  0  0  0  0  0
  -26.0030  -29.5590   20.8170 C   0  0  0  0  0  0  0  0  0  0  0  0
  -27.1980  -28.7770   20.8190 C   0  0  0  0  0  3  0  0  0  0  0  0
  -26.0420  -27.0220   19.6140 C   0  0  0  0  0  3  0  0  0  0  0  0
  -24.8650  -27.7940   19.6010 C   0  0  0  0  0  3  0  0  0  0  0  0
  -23.5950  -29.9160   20.2520 C   0  0  0  0  0  2  0  0  0  0  0  0
  -24.6210  -31.1930   22.1820 N   0  0  0  0  0  0  0  0  0  0  0  0
  -23.4520  -32.2650   23.8070 O   0  0  0  0  0  0  0  0  0  0  0  0
  -22.7040  -29.5660   22.5850 C   0  0  0  0  0  0  0  0  0  0  0  0
  -21.3930  -29.3330   22.4090 N   0  0  0  0  0  0  0  0  0  0  0  0
  -23.3740  -28.9820   23.4420 O   0  0  0  0  0  0  0  0  0  0  0  0
  -20.9110  -29.8590   21.6950 H   0  0  0  0  0  0  0  0  0  0  0  0
  -18.0590  -27.9710   22.7580 C   0  0  0  0  0  0  0  0  0  0  0  0
  -20.5790  -28.3800   23.1680 C   0  0  0  0  0  3  0  0  0  0  0  0
  -20.7910  -26.9360   22.6560 C   0  0  0  0  0  2  0  0  0  0  0  0
  -19.7720  -26.5170   21.5920 C   0  0  0  0  0  2  0  0  0  0  0  0
  -18.3470  -26.6100   22.1480 C   0  0  0  0  0  2  0  0  0  0  0  0
  -19.1090  -28.8090   23.2220 C   0  0  0  0  0  0  0  0  0  0  0  0
  -18.7870  -30.0780   23.7510 C   0  0  0  0  0  3  0  0  0  0  0  0
  -17.4500  -30.5120   23.8200 C   0  0  0  0  0  3  0  0  0  0  0  0
  -16.4150  -29.6730   23.3730 C   0  0  0  0  0  3  0  0  0  0  0  0
  -16.7200  -28.4050   22.8480 C   0  0  0  0  0  3  0  0  0  0  0  0
  -25.8120  -32.6430   23.9140 C   0  0  0  0  0  3  0  0  0  0  0  0
  -26.3140  -31.8890   25.2070 C   0  0  1  0  0  0  0  0  0  0  0  0
  -25.2010  -31.6370   26.2500 C   0  0  0  0  0  1  0  0  0  0  0  0
  -26.9330  -30.5200   24.8400 C   0  0  0  0  0  1  0  0  0  0  0  0
  -27.4300  -32.7120   25.8930 C   0  0  0  0  0  1  0  0  0  0  0  0
  -25.4910  -34.0440   24.2240 N   0  0  0  0  0  0  0  0  0  0  0  0
  -25.8370  -35.0910   23.4620 C   0  0  0  0  0  0  0  0  0  0  0  0
  -26.5290  -34.9800   22.4450 O   0  0  0  0  0  0  0  0  0  0  0  0
  -24.8760  -34.2030   25.0080 H   0  0  0  0  0  0  0  0  0  0  0  0
  -24.1070  -36.8750   23.0640 C   0  0  0  0  0  1  0  0  0  0  0  0
  -25.3360  -36.4810   23.8980 C   0  0  0  0  0  3  0  0  0  0  0  0
  -27.4570  -37.3800   24.7480 C   0  0  0  0  0  1  0  0  0  0  0  0
  -26.3660  -37.5380   23.7910 N   0  0  0  0  0  0  0  0  0  0  0  0
  -25.9550  -38.4570   23.9290 H   0  0  0  0  0  0  0  0  0  0  0  0
  -30.9600  -18.4800   19.7530 C   0  0  0  0  0  3  0  0  0  0  0  0
  -30.0360  -17.1910   19.9490 C   0  0  0  0  0  2  0  0  0  0  0  0
  -31.1250  -14.8460   20.0650 C   0  0  0  0  0  0  0  0  0  0  0  0
  -30.8470  -12.5270   19.1920 C   0  0  0  0  0  2  0  0  0  0  0  0
  -29.9110  -12.5270   17.9650 C   0  0  0  0  0  2  0  0  0  0  0  0
  -28.4360  -12.4340   18.4000 C   0  0  0  0  0  2  0  0  0  0  0  0
  -28.0870  -13.4300   19.5350 C   0  0  0  0  0  3  0  0  0  0  0  0
  -29.1340  -13.3840   20.6680 C   0  0  0  0  0  2  0  0  0  0  0  0
  -30.4560  -13.6450   20.0760 N   0  0  0  0  0  0  0  0  0  0  0  0
  -32.2010  -14.9830   19.4730 O   0  0  0  0  0  0  0  0  0  0  0  0
  -30.5410  -15.9400   20.6630 N   0  0  0  0  0  0  0  0  0  0  0  0
  -25.7370  -14.1530   20.2860 C   0  0  0  0  0  0  0  0  0  0  0  0
  -24.6390  -13.4380   20.6780 C   0  0  0  0  0  0  0  0  0  0  0  0
  -25.0320  -12.0650   20.6500 C   0  0  0  0  0  0  0  0  0  0  0  0
  -26.7320  -13.2210   20.0400 N   0  0  0  0  0  0  0  0  0  0  0  0
  -26.3140  -11.9590   20.3200 N   0  0  0  0  0  0  0  0  0  0  0  0
  -24.2460  -10.8420   20.8610 C   0  0  0  0  0  0  0  0  0  0  0  0
  -24.6160   -9.8850   21.8320 C   0  0  0  0  0  3  0  0  0  0  0  0
  -23.8340   -8.7260   22.0310 C   0  0  0  0  0  3  0  0  0  0  0  0
  -22.6670   -8.5160   21.2570 C   0  0  0  0  0  0  0  0  0  0  0  0
  -22.3150   -9.4620   20.2770 C   0  0  0  0  0  3  0  0  0  0  0  0
  -23.0980  -10.6120   20.0780 C   0  0  0  0  0  3  0  0  0  0  0  0
  -21.8610   -7.4080   21.3640 O   0  0  0  0  0  0  0  0  0  0  0  0
  -21.7160   -6.7330   22.5490 C   0  0  0  0  0  0  0  0  0  0  0  0
  -21.2650   -7.3760   23.7230 C   0  0  0  0  0  3  0  0  0  0  0  0
  -21.0630   -6.6300   24.9010 C   0  0  0  0  0  3  0  0  0  0  0  0
  -21.3040   -5.2430   24.9060 C   0  0  0  0  0  0  0  0  0  0  0  0
  -21.7460   -4.5990   23.7360 C   0  0  0  0  0  3  0  0  0  0  0  0
  -21.9510   -5.3430   22.5610 C   0  0  0  0  0  0  0  0  0  0  0  0
  -22.3570   -4.7160   21.4310 F   0  0  0  0  0  0  0  0  0  0  0  0
  -21.1050   -4.5240   26.0340 F   0  0  0  0  0  0  0  0  0  0  0  0
  -23.2720  -13.9870   20.9690 C   0  0  0  0  0  0  0  0  0  0  0  0
  -22.5360  -13.3530   21.8750 N   0  0  0  0  0  0  0  0  0  0  0  0
  -22.8680  -15.0130   20.4250 O   0  0  0  0  0  0  0  0  0  0  0  0
  -22.8750  -12.5220   22.3360 H   0  0  0  0  0  0  0  0  0  0  0  0
  -21.6180  -13.7060   22.1090 H   0  0  0  0  0  0  0  0  0  0  0  0
  -25.9680  -15.5130   20.0970 N   0  0  0  0  0  0  0  0  0  0  0  0
  -25.2450  -16.2100   20.2320 H   0  0  0  0  0  0  0  0  0  0  0  0
  -26.8450  -15.9090   19.7830 H   0  0  0  0  0  0  0  0  0  0  0  0
  -30.7770  -16.0230   22.1240 C   0  0  0  0  0  2  0  0  0  0  0  0
  -30.9520  -17.4180   24.2580 C   0  0  0  0  0  1  0  0  0  0  0  0
  -30.4500  -17.3690   22.8090 C   0  0  0  0  0  2  0  0  0  0  0  0
  -32.3290  -18.4040   20.4930 C   0  0  0  0  0  2  0  0  0  0  0  0
  -33.3990  -17.8580   19.6380 N   0  0  0  0  0  4  0  0  0  0  0  0
  -33.1730  -16.9140   19.3390 H   0  0  0  0  0  0  0  0  0  0  0  0
  -34.2640  -17.8240   20.1500 H   0  0  0  0  0  0  0  0  0  0  0  0
  -33.5400  -18.4330   18.8270 H   0  0  0  0  0  0  0  0  0  0  0  0
  1  2  1  0
  3  6  1  0
  4  8  1  0
  4  3  1  0
  4  5  1  0
  5  1  1  0
  6 13  1  0
  6  7  1  1
  6  2  1  0
  9 10  1  0
  9  8  1  0
 11  9  1  0
 12  9  1  0
 14 15  1  0
 14 13  2  0
 16 27  2  0
 17 15  1  0
 17 22  1  0
 18 26  1  0
 18 28  1  0
 19 25  1  0
 19 21  1  0
 20 26  1  0
 21 22  2  0
 21 20  1  0
 23 17  2  0
 24 23  1  0
 24 19  2  0
 25 18  1  0
 26 16  1  0
 28 30  2  0
 29 28  1  0
 31 29  1  0
 32 41  2  0
 32 37  1  0
 33 29  1  0
 33 37  1  0
 34 33  1  0
 35 36  1  0
 35 34  1  0
 36 32  1  0
 37 38  2  0
 38 39  1  0
 40 39  2  0
 41 40  1  0
 42 16  1  0
 42 47  1  0
 42 43  1  0
 43 46  1  1
 43 44  1  0
 45 43  1  0
 47 50  1  0
 48 52  1  0
 48 47  1  0
 49 48  2  0
 52 51  1  0
 54 52  1  0
 54 55  1  0
 54 53  1  0
 56  5  1  0
 56 57  1  0
 56 98  1  0
 57 66  1  0
 58 64  1  0
 58 66  1  0
 59 64  1  0
 60 61  1  0
 60 59  1  0
 62 61  1  0
 62 70  1  0
 62 63  1  0
 64 63  1  0
 65 58  2  0
 66 95  1  0
 67 68  2  0
 68 87  1  0
 69 68  1  0
 69 72  1  0
 70 67  1  0
 70 71  1  0
 71 69  2  0
 72 73  1  0
 73 74  2  0
 75 78  1  0
 75 74  1  0
 76 75  2  0
 77 76  1  0
 77 72  2  0
 78 79  1  0
 79 84  2  0
 79 80  1  0
 80 81  2  0
 81 82  1  0
 82 86  1  0
 83 82  2  0
 84 83  1  0
 85 84  1  0
 87 88  1  0
 88 91  1  0
 88 90  1  0
 89 87  2  0
 92 93  1  0
 92 67  1  0
 94 92  1  0
 95 97  1  0
 97 96  1  0
 99101  1  0
 99 98  1  0
100 99  1  0
102 99  1  0
M  ISO  4  14 101  15 101  58 100  66 100
M  END
>  <TORSDO>  (41) 
F 26

>  <SCORE>  (41) 
-10.530

>  <name>  (41) 
40

>  <ligand_id>  (41) 
40

>  <original_smiles>  (41) 
[H]c1c([H])c([H])c2c(c1[H])C([H])([H])C([H])([H])C([H])([H])C2([H])N([H])C(=O)C1([H])N(C(=O)C([H])(N([H])C(=O)C([H])(N([H])C([H])([H])[H])C([H])([H])[H])C(C([H])([H])[H])(C([H])([H])[H])C([H])([H])[H])C([H])([H])c2c([H])c(OC([H])([H])C([H])([H])[N+]3([H])C([H])([H])C([H])([H])N(C([H])(C([H])([H])N(C(=O)N4C([H])([H])C([H])([H])C([H])([H])C([H])(n5nc(-c6c([H])c([H])c(Oc7c([H])c([H])c(F)c([H])c7F)c([H])c6[H])c(C(=O)N([H])[H])c5N([H])[H])C4([H])[H])C([H])([H])C([H])([H])C([H])([H])[H])C([H])([H])[N+]([H])([H])[H])C([H])(C([H])([H])[N+]([H])([H])[H])C3([H])[H])c([H])c([H])c2C1([H])[H]

>  <smiles>  (41) 
[H]c1c([H])c([H])c2c(c1[H])C([H])([H])C([H])([H])C([H])([H])C2([H])N([H])C(=O)C1([H])N(C(=O)C([H])(N([H])C(=O)C([H])(N([H])C([H])([H])[H])C([H])([H])[H])C(C([H])([H])[H])(C([H])([H])[H])C([H])([H])[H])C([H])([H])c2c([H])c(OC([H])([H])C([H])([H])[N+]3([H])C([H])([H])C([H])([H])N(C([H])(C([H])([H])N(C(=O)N4C([H])([H])C([H])([H])C([H])([H])C([H])(n5nc(-c6c([H])c([H])c(Oc7c([H])c([H])c(F)c([H])c7F)c([H])c6[H])c(C(=O)N([H])[H])c5N([H])[H])C4([H])[H])C([H])([H])C([H])([H])C([H])([H])[H])C([H])([H])[N+]([H])([H])[H])C([H])(C([H])([H])[N+]([H])([H])[H])C3([H])[H])c([H])c([H])c2C1([H])[H]

$$$$
41:0:0
     RDKit          3D

 92100  0  0  1  0  0  0  0  0999 V2000
  -29.8710  -21.9940   20.3120 C   0  0  0  0  0  2  0  0  0  0  0  0
  -29.2970  -23.1650   19.6120 N   0  0  0  0  0  4  0  0  0  0  0  0
  -28.3170  -22.9640   19.4860 H   0  0  0  0  0  0  0  0  0  0  0  0
  -29.7080  -23.2160   18.6910 H   0  0  0  0  0  0  0  0  0  0  0  0
  -29.3980  -24.4850   20.2880 C   0  0  0  0  0  2  0  0  0  0  0  0
  -28.6440  -25.5560   19.4710 C   0  0  0  0  0  2  0  0  0  0  0  0
  -28.4660  -26.7770   20.2100 O   0  0  0  0  0  0  0  0  0  0  0  0
  -24.5670  -31.9020   23.2380 C   0  0  0  0  0  0  0  0  0  0  0  0
  -27.2640  -27.4670   20.1670 C   0  0  0  0  0  0  0  0  0  0  0  0
  -23.3860  -30.5000   21.5810 C   0  0  0  0  0  3  0  0  0  0  0  0
  -24.8590  -28.9750   20.1750 C   0  0  0  0  0  0  0  0  0  0  0  0
  -25.9150  -30.8610   21.4200 C   0  0  0  0  0  2  0  0  0  0  0  0
  -26.0110  -29.4940   20.7760 C   0  0  0  0  0  0  0  0  0  0  0  0
  -27.2100  -28.7450   20.7740 C   0  0  0  0  0  3  0  0  0  0  0  0
  -26.0810  -26.9690   19.5620 C   0  0  0  0  0  3  0  0  0  0  0  0
  -24.8890  -27.7100   19.5720 C   0  0  0  0  0  3  0  0  0  0  0  0
  -23.6140  -29.8280   20.2030 C   0  0  0  0  0  2  0  0  0  0  0  0
  -24.6390  -31.1020   22.1380 N   0  0  0  0  0  0  0  0  0  0  0  0
  -23.4770  -32.1700   23.7630 O   0  0  0  0  0  0  0  0  0  0  0  0
  -22.7250  -29.4720   22.5270 C   0  0  0  0  0  0  0  0  0  0  0  0
  -21.4000  -29.2980   22.3900 N   0  0  0  0  0  0  0  0  0  0  0  0
  -23.4010  -28.8350   23.3400 O   0  0  0  0  0  0  0  0  0  0  0  0
  -20.9180  -29.8640   21.7060 H   0  0  0  0  0  0  0  0  0  0  0  0
  -18.0090  -28.1590   22.9000 C   0  0  0  0  0  0  0  0  0  0  0  0
  -20.5730  -28.3610   23.1490 C   0  0  0  0  0  3  0  0  0  0  0  0
  -20.6430  -26.9410   22.5410 C   0  0  0  0  0  2  0  0  0  0  0  0
  -19.5230  -26.6590   21.5340 C   0  0  0  0  0  2  0  0  0  0  0  0
  -18.1510  -26.8180   22.1980 C   0  0  0  0  0  2  0  0  0  0  0  0
  -19.1470  -28.8900   23.3340 C   0  0  0  0  0  0  0  0  0  0  0  0
  -18.9600  -30.1460   23.9510 C   0  0  0  0  0  3  0  0  0  0  0  0
  -17.6690  -30.6690   24.1400 C   0  0  0  0  0  3  0  0  0  0  0  0
  -16.5450  -29.9350   23.7220 C   0  0  0  0  0  3  0  0  0  0  0  0
  -16.7160  -28.6810   23.1090 C   0  0  0  0  0  3  0  0  0  0  0  0
  -25.8430  -32.5340   23.8740 C   0  0  0  0  0  3  0  0  0  0  0  0
  -25.5310  -33.9330   24.1880 N   0  0  0  0  0  0  0  0  0  0  0  0
  -25.8770  -34.9800   23.4260 C   0  0  0  0  0  0  0  0  0  0  0  0
  -26.5640  -34.8680   22.4080 O   0  0  0  0  0  0  0  0  0  0  0  0
  -24.9260  -34.0970   24.9810 H   0  0  0  0  0  0  0  0  0  0  0  0
  -24.1660  -36.7760   23.0140 C   0  0  0  0  0  1  0  0  0  0  0  0
  -25.3820  -36.3710   23.8640 C   0  0  0  0  0  3  0  0  0  0  0  0
  -27.4920  -37.2530   24.7570 C   0  0  0  0  0  1  0  0  0  0  0  0
  -26.4200  -37.4210   23.7780 N   0  0  0  0  0  0  0  0  0  0  0  0
  -26.0110  -38.3420   23.9140 H   0  0  0  0  0  0  0  0  0  0  0  0
  -26.3390  -31.7710   25.1620 C   0  0  1  0  0  0  0  0  0  0  0  0
  -25.2330  -31.5480   26.2190 C   0  0  0  0  0  1  0  0  0  0  0  0
  -26.9210  -30.3870   24.7880 C   0  0  0  0  0  1  0  0  0  0  0  0
  -27.4860  -32.5640   25.8330 C   0  0  0  0  0  1  0  0  0  0  0  0
  -29.1240  -20.7250   19.8470 C   0  0  0  0  0  2  0  0  0  0  0  0
  -30.8980  -17.6830   21.3370 C   0  0  0  0  0  2  0  0  0  0  0  0
  -29.3820  -17.0220   19.4830 C   0  0  0  0  0  2  0  0  0  0  0  0
  -30.3180  -19.1190   21.2510 C   0  0  0  0  0  2  0  0  0  0  0  0
  -28.8550  -18.4580   19.4230 C   0  0  0  0  0  2  0  0  0  0  0  0
  -29.8090  -16.6880   20.9180 C   0  0  0  0  0  3  0  0  0  0  0  0
  -29.8460  -19.4440   19.8920 N   0  0  0  0  0  0  0  0  0  0  0  0
  -30.7290  -14.4260   20.3050 C   0  0  0  0  0  0  0  0  0  0  0  0
  -30.3910  -12.3580   19.0050 C   0  0  0  0  0  2  0  0  0  0  0  0
  -29.4030  -12.6440   17.8560 C   0  0  0  0  0  2  0  0  0  0  0  0
  -27.9400  -12.4950   18.3260 C   0  0  0  0  0  2  0  0  0  0  0  0
  -27.6590  -13.2560   19.6490 C   0  0  0  0  0  3  0  0  0  0  0  0
  -28.7450  -12.9220   20.6970 C   0  0  0  0  0  2  0  0  0  0  0  0
  -30.0680  -13.2510   20.1250 N   0  0  0  0  0  0  0  0  0  0  0  0
  -31.7450  -14.7480   19.6830 O   0  0  0  0  0  0  0  0  0  0  0  0
  -30.0920  -15.2660   21.1320 N   0  0  0  0  0  0  0  0  0  0  0  0
  -29.4020  -14.7970   21.7000 H   0  0  0  0  0  0  0  0  0  0  0  0
  -25.2740  -13.8660   20.4210 C   0  0  0  0  0  0  0  0  0  0  0  0
  -24.2140  -13.0890   20.8070 C   0  0  0  0  0  0  0  0  0  0  0  0
  -24.6740  -11.7370   20.7470 C   0  0  0  0  0  0  0  0  0  0  0  0
  -26.3130  -12.9850   20.1510 N   0  0  0  0  0  0  0  0  0  0  0  0
  -25.9530  -11.7000   20.3990 N   0  0  0  0  0  0  0  0  0  0  0  0
  -23.9550  -10.4740   20.9470 C   0  0  0  0  0  0  0  0  0  0  0  0
  -24.3940   -9.5180   21.8890 C   0  0  0  0  0  3  0  0  0  0  0  0
  -23.6790   -8.3150   22.0750 C   0  0  0  0  0  3  0  0  0  0  0  0
  -22.5110   -8.0610   21.3180 C   0  0  0  0  0  0  0  0  0  0  0  0
  -22.0890   -9.0070   20.3660 C   0  0  0  0  0  3  0  0  0  0  0  0
  -22.8060  -10.2010   20.1790 C   0  0  0  0  0  3  0  0  0  0  0  0
  -21.7690   -6.9080   21.4110 O   0  0  0  0  0  0  0  0  0  0  0  0
  -21.6890   -6.1950   22.5800 C   0  0  0  0  0  0  0  0  0  0  0  0
  -21.1780   -6.7640   23.7660 C   0  0  0  0  0  3  0  0  0  0  0  0
  -21.0500   -5.9760   24.9270 C   0  0  0  0  0  3  0  0  0  0  0  0
  -21.4230   -4.6200   24.9030 C   0  0  0  0  0  0  0  0  0  0  0  0
  -21.9310   -4.0500   23.7230 C   0  0  0  0  0  3  0  0  0  0  0  0
  -22.0610   -4.8360   22.5640 C   0  0  0  0  0  0  0  0  0  0  0  0
  -22.5300   -4.2760   21.4220 F   0  0  0  0  0  0  0  0  0  0  0  0
  -21.2930   -3.8600   26.0160 F   0  0  0  0  0  0  0  0  0  0  0  0
  -22.8260  -13.5630   21.1290 C   0  0  0  0  0  0  0  0  0  0  0  0
  -22.1230  -12.8550   22.0050 N   0  0  0  0  0  0  0  0  0  0  0  0
  -22.3720  -14.5970   20.6370 O   0  0  0  0  0  0  0  0  0  0  0  0
  -22.5010  -12.0190   22.4280 H   0  0  0  0  0  0  0  0  0  0  0  0
  -21.1940  -13.1570   22.2630 H   0  0  0  0  0  0  0  0  0  0  0  0
  -25.4400  -15.2380   20.2640 N   0  0  0  0  0  0  0  0  0  0  0  0
  -24.6910  -15.9000   20.4320 H   0  0  0  0  0  0  0  0  0  0  0  0
  -26.2990  -15.6780   19.9620 H   0  0  0  0  0  0  0  0  0  0  0  0
  2  5  1  0
  2  1  1  0
  3  2  1  0
  4  2  1  0
  6  7  1  0
  6  5  1  0
  8 19  2  0
  9  7  1  0
  9 14  1  0
 10 18  1  0
 10 20  1  0
 11 17  1  0
 11 13  1  0
 12 18  1  0
 13 12  1  0
 14 13  2  0
 15 16  1  0
 15  9  2  0
 16 11  2  0
 17 10  1  0
 18  8  1  0
 20 22  2  0
 21 20  1  0
 23 21  1  0
 24 33  2  0
 24 29  1  0
 25 21  1  0
 25 29  1  0
 26 25  1  0
 27 28  1  0
 27 26  1  0
 28 24  1  0
 29 30  2  0
 30 31  1  0
 32 31  2  0
 33 32  1  0
 34  8  1  0
 34 35  1  0
 34 44  1  0
 35 38  1  0
 36 40  1  0
 36 35  1  0
 37 36  2  0
 40 39  1  0
 42 40  1  0
 42 43  1  0
 42 41  1  0
 44 47  1  1
 44 45  1  0
 46 44  1  0
 48 54  1  0
 48  1  1  0
 50 53  1  0
 51 49  1  0
 52 50  1  0
 52 54  1  0
 53 63  1  0
 53 49  1  0
 54 51  1  0
 55 63  1  0
 56 61  1  0
 57 58  1  0
 57 56  1  0
 59 58  1  0
 59 68  1  0
 59 60  1  0
 61 55  1  0
 61 60  1  0
 62 55  2  0
 63 64  1  0
 65 66  2  0
 66 85  1  0
 67 66  1  0
 67 70  1  0
 68 69  1  0
 68 65  1  0
 69 67  2  0
 70 71  1  0
 71 72  2  0
 73 76  1  0
 73 72  1  0
 74 73  2  0
 75 74  1  0
 75 70  2  0
 76 77  1  0
 77 78  1  0
 78 79  2  0
 80 79  1  0
 80 84  1  0
 81 80  2  0
 82 77  2  0
 82 81  1  0
 83 82  1  0
 85 86  1  0
 86 89  1  0
 86 88  1  0
 87 85  2  0
 90 65  1  0
 90 91  1  0
 92 90  1  0
M  ISO  4   6 101   7 101  55 100  63 100
M  END
>  <TORSDO>  (42) 
F 21

>  <SCORE>  (42) 
-13.568

>  <name>  (42) 
41

>  <ligand_id>  (42) 
41

>  <original_smiles>  (42) 
[H]c1c([H])c([H])c2c(c1[H])C([H])([H])C([H])([H])C([H])([H])C2([H])N([H])C(=O)C1([H])N(C(=O)C([H])(N([H])C(=O)C([H])(N([H])C([H])([H])[H])C([H])([H])[H])C(C([H])([H])[H])(C([H])([H])[H])C([H])([H])[H])C([H])([H])c2c([H])c(OC([H])([H])C([H])([H])[N+]([H])([H])C([H])([H])C([H])([H])N3C([H])([H])C([H])([H])C([H])(N([H])C(=O)N4C([H])([H])C([H])([H])C([H])([H])C([H])(n5nc(-c6c([H])c([H])c(Oc7c([H])c([H])c(F)c([H])c7F)c([H])c6[H])c(C(=O)N([H])[H])c5N([H])[H])C4([H])[H])C([H])([H])C3([H])[H])c([H])c([H])c2C1([H])[H]

>  <smiles>  (42) 
[H]c1c([H])c([H])c2c(c1[H])C([H])([H])C([H])([H])C([H])([H])C2([H])N([H])C(=O)C1([H])N(C(=O)C([H])(N([H])C(=O)C([H])(N([H])C([H])([H])[H])C([H])([H])[H])C(C([H])([H])[H])(C([H])([H])[H])C([H])([H])[H])C([H])([H])c2c([H])c(OC([H])([H])C([H])([H])[N+]([H])([H])C([H])([H])C([H])([H])N3C([H])([H])C([H])([H])C([H])(N([H])C(=O)N4C([H])([H])C([H])([H])C([H])([H])C([H])(n5nc(-c6c([H])c([H])c(Oc7c([H])c([H])c(F)c([H])c7F)c([H])c6[H])c(C(=O)N([H])[H])c5N([H])[H])C4([H])[H])C([H])([H])C3([H])[H])c([H])c([H])c2C1([H])[H]

$$$$
42:0:0
     RDKit          3D

 97105  0  0  1  0  0  0  0  0999 V2000
  -30.6610  -19.6100   20.3260 C   0  0  0  0  0  2  0  0  0  0  0  0
  -28.2680  -19.1950   20.5150 C   0  0  0  0  0  2  0  0  0  0  0  0
  -30.3460  -21.1120   19.8790 C   0  0  0  0  0  2  0  0  0  0  0  0
  -27.9790  -20.7360   20.1170 C   0  0  0  0  0  2  0  0  0  0  0  0
  -29.6000  -18.4640   20.0250 C   0  0  0  0  0  3  0  0  0  0  0  0
  -29.0920  -21.6760   20.4900 N   0  0  2  0  0  4  0  0  0  0  0  0
  -29.2340  -21.4030   21.4510 H   0  0  0  0  0  0  0  0  0  0  0  0
  -28.9510  -23.2330   20.7460 C   0  0  0  0  0  3  0  0  0  0  0  0
  -27.9650  -24.3390   20.0290 C   0  0  0  0  0  3  0  0  0  0  0  0
  -28.1440  -25.8400   20.3220 O   0  0  0  0  0  0  0  0  0  0  0  0
  -24.6380  -31.5780   23.1720 C   0  0  0  0  0  0  0  0  0  0  0  0
  -27.0790  -26.7870   20.2220 C   0  0  0  0  0  0  0  0  0  0  0  0
  -23.3890  -30.1830   21.5640 C   0  0  0  0  0  3  0  0  0  0  0  0
  -24.7840  -28.5500   20.1600 C   0  0  0  0  0  0  0  0  0  0  0  0
  -25.9410  -30.3940   21.3710 C   0  0  0  0  0  2  0  0  0  0  0  0
  -25.9720  -28.9930   20.7500 C   0  0  0  0  0  0  0  0  0  0  0  0
  -27.1230  -28.1280   20.7600 C   0  0  0  0  0  3  0  0  0  0  0  0
  -25.8680  -26.4280   19.5900 C   0  0  0  0  0  3  0  0  0  0  0  0
  -24.7420  -27.2800   19.5620 C   0  0  0  0  0  3  0  0  0  0  0  0
  -23.5790  -29.4740   20.1970 C   0  0  0  0  0  2  0  0  0  0  0  0
  -24.6770  -30.7400   22.0910 N   0  0  0  0  0  0  0  0  0  0  0  0
  -23.5640  -31.8990   23.7030 O   0  0  0  0  0  0  0  0  0  0  0  0
  -22.6930  -29.2120   22.5510 C   0  0  0  0  0  0  0  0  0  0  0  0
  -21.3740  -29.0130   22.3830 N   0  0  0  0  0  0  0  0  0  0  0  0
  -23.3440  -28.6380   23.4280 O   0  0  0  0  0  0  0  0  0  0  0  0
  -20.9070  -29.5320   21.6510 H   0  0  0  0  0  0  0  0  0  0  0  0
  -17.9980  -27.7710   22.7980 C   0  0  0  0  0  0  0  0  0  0  0  0
  -20.5360  -28.1030   23.1670 C   0  0  0  0  0  3  0  0  0  0  0  0
  -20.6910  -26.6440   22.6810 C   0  0  0  0  0  2  0  0  0  0  0  0
  -19.6460  -26.2370   21.6380 C   0  0  0  0  0  2  0  0  0  0  0  0
  -18.2320  -26.3900   22.2070 C   0  0  0  0  0  2  0  0  0  0  0  0
  -19.0800  -28.5800   23.2350 C   0  0  0  0  0  0  0  0  0  0  0  0
  -18.8090  -29.8660   23.7480 C   0  0  0  0  0  3  0  0  0  0  0  0
  -17.4880  -30.3460   23.8290 C   0  0  0  0  0  3  0  0  0  0  0  0
  -16.4190  -29.5360   23.4070 C   0  0  0  0  0  3  0  0  0  0  0  0
  -16.6750  -28.2510   22.8990 C   0  0  0  0  0  3  0  0  0  0  0  0
  -25.9380  -32.1880   23.7790 C   0  0  0  0  0  3  0  0  0  0  0  0
  -26.4760  -31.3880   25.0290 C   0  0  1  0  0  0  0  0  0  0  0  0
  -25.4060  -31.1320   26.1150 C   0  0  0  0  0  1  0  0  0  0  0  0
  -27.0400  -30.0140   24.5970 C   0  0  0  0  0  1  0  0  0  0  0  0
  -27.6460  -32.1600   25.6820 C   0  0  0  0  0  1  0  0  0  0  0  0
  -25.6490  -33.5820   24.1510 N   0  0  0  0  0  0  0  0  0  0  0  0
  -25.9990  -34.6540   23.4280 C   0  0  0  0  0  0  0  0  0  0  0  0
  -26.6670  -34.5750   22.3930 O   0  0  0  0  0  0  0  0  0  0  0  0
  -25.0650  -33.7210   24.9620 H   0  0  0  0  0  0  0  0  0  0  0  0
  -24.3150  -36.4980   23.1200 C   0  0  0  0  0  1  0  0  0  0  0  0
  -25.5340  -36.0350   23.9340 C   0  0  0  0  0  3  0  0  0  0  0  0
  -27.6690  -36.8480   24.8330 C   0  0  0  0  0  1  0  0  0  0  0  0
  -26.5900  -37.0700   23.8760 N   0  0  0  0  0  0  0  0  0  0  0  0
  -26.1980  -37.9920   24.0440 H   0  0  0  0  0  0  0  0  0  0  0  0
  -29.9040  -16.9330   20.6620 C   0  0  0  0  0  0  0  0  0  0  0  0
  -30.0330  -14.4750   19.4430 C   0  0  0  0  0  0  0  0  0  0  0  0
  -29.5860  -12.3290   18.1920 C   0  0  0  0  0  2  0  0  0  0  0  0
  -28.4090  -12.4850   17.2020 C   0  0  0  0  0  2  0  0  0  0  0  0
  -27.0700  -12.2130   17.9130 C   0  0  0  0  0  2  0  0  0  0  0  0
  -26.9550  -12.9600   19.2680 C   0  0  0  0  0  3  0  0  0  0  0  0
  -28.2270  -12.7930   20.1290 C   0  0  0  0  0  2  0  0  0  0  0  0
  -29.3600  -13.2670   19.3210 N   0  0  0  0  0  0  0  0  0  0  0  0
  -31.1280  -14.5890   18.8860 O   0  0  0  0  0  0  0  0  0  0  0  0
  -29.4090  -15.5750   20.0600 N   0  0  0  0  0  4  0  0  0  0  0  0
  -28.4600  -15.3610   20.3290 H   0  0  0  0  0  0  0  0  0  0  0  0
  -24.7540  -13.4130   20.5010 C   0  0  0  0  0  0  0  0  0  0  0  0
  -23.7980  -12.5800   21.0120 C   0  0  0  0  0  0  0  0  0  0  0  0
  -24.2700  -11.2490   20.7870 C   0  0  0  0  0  0  0  0  0  0  0  0
  -25.7450  -12.5860   19.9940 N   0  0  0  0  0  0  0  0  0  0  0  0
  -25.4740  -11.2760   20.2270 N   0  0  0  0  0  0  0  0  0  0  0  0
  -23.6160   -9.9540   21.0140 C   0  0  0  0  0  0  0  0  0  0  0  0
  -24.0180   -9.1010   22.0650 C   0  0  0  0  0  3  0  0  0  0  0  0
  -23.3610   -7.8690   22.2770 C   0  0  0  0  0  3  0  0  0  0  0  0
  -22.2890   -7.4840   21.4370 C   0  0  0  0  0  0  0  0  0  0  0  0
  -21.9100   -8.3260   20.3780 C   0  0  0  0  0  3  0  0  0  0  0  0
  -22.5680   -9.5470   20.1650 C   0  0  0  0  0  3  0  0  0  0  0  0
  -21.6090   -6.2940   21.5530 O   0  0  0  0  0  0  0  0  0  0  0  0
  -21.3070   -5.7540   22.7780 C   0  0  0  0  0  0  0  0  0  0  0  0
  -20.4730   -6.4190   23.7020 C   0  0  0  0  0  3  0  0  0  0  0  0
  -20.1350   -5.7970   24.9210 C   0  0  0  0  0  3  0  0  0  0  0  0
  -20.6190   -4.5070   25.2110 C   0  0  0  0  0  0  0  0  0  0  0  0
  -21.4430   -3.8390   24.2890 C   0  0  0  0  0  3  0  0  0  0  0  0
  -21.7840   -4.4600   23.0740 C   0  0  0  0  0  0  0  0  0  0  0  0
  -22.5620   -3.8040   22.1790 F   0  0  0  0  0  0  0  0  0  0  0  0
  -20.2860   -3.9040   26.3770 F   0  0  0  0  0  0  0  0  0  0  0  0
  -22.4740  -12.9910   21.5880 C   0  0  0  0  0  0  0  0  0  0  0  0
  -21.9530  -12.2220   22.5360 N   0  0  0  0  0  0  0  0  0  0  0  0
  -21.9170  -14.0270   21.2290 O   0  0  0  0  0  0  0  0  0  0  0  0
  -22.4220  -11.3830   22.8440 H   0  0  0  0  0  0  0  0  0  0  0  0
  -21.0720  -12.4730   22.9610 H   0  0  0  0  0  0  0  0  0  0  0  0
  -24.8580  -14.7980   20.4020 N   0  0  0  0  0  0  0  0  0  0  0  0
  -24.1150  -15.4150   20.7110 H   0  0  0  0  0  0  0  0  0  0  0  0
  -25.6040  -15.2840   19.9200 H   0  0  0  0  0  0  0  0  0  0  0  0
  -31.3010  -16.7760   21.3470 C   0  0  0  0  0  2  0  0  0  0  0  0
  -31.8200  -15.3190   21.4040 C   0  0  0  0  0  2  0  0  0  0  0  0
  -33.2250  -15.1250   20.8020 C   0  0  0  0  0  2  0  0  0  0  0  0
  -33.4400  -13.6720   20.3270 C   0  0  0  0  0  2  0  0  0  0  0  0
  -34.5910  -13.5240   19.4200 N   0  0  0  0  0  4  0  0  0  0  0  0
  -34.4850  -14.0940   18.6010 H   0  0  0  0  0  0  0  0  0  0  0  0
  -34.6650  -12.5670   19.1230 H   0  0  0  0  0  0  0  0  0  0  0  0
  -35.4490  -13.7720   19.8810 H   0  0  0  0  0  0  0  0  0  0  0  0
  3  1  1  0
  3  6  1  0
  4  6  1  0
  4  2  1  0
  5  1  1  0
  5  2  1  0
  5 51  1  0
  6  8  1  0
  6  7  1  1
  9 10  1  0
  9  8  2  0
 11 22  2  0
 12 10  1  0
 12 17  1  0
 13 21  1  0
 13 23  1  0
 14 20  1  0
 14 16  1  0
 15 21  1  0
 16 17  2  0
 16 15  1  0
 18 12  2  0
 19 18  1  0
 19 14  2  0
 20 13  1  0
 21 11  1  0
 23 25  2  0
 24 23  1  0
 26 24  1  0
 27 36  2  0
 27 32  1  0
 28 24  1  0
 28 32  1  0
 29 28  1  0
 30 31  1  0
 30 29  1  0
 31 27  1  0
 32 33  2  0
 33 34  1  0
 35 34  2  0
 36 35  1  0
 37 11  1  0
 37 42  1  0
 37 38  1  0
 38 41  1  1
 38 39  1  0
 40 38  1  0
 42 45  1  0
 43 47  1  0
 43 42  1  0
 44 43  2  0
 47 46  1  0
 49 47  1  0
 49 50  1  0
 49 48  1  0
 51 90  1  0
 52 60  1  0
 53 58  1  0
 54 55  1  0
 54 53  1  0
 56 55  1  0
 56 65  1  0
 56 57  1  0
 58 52  1  0
 58 57  1  0
 59 52  2  0
 60 61  1  0
 60 51  2  0
 62 63  2  0
 63 82  1  0
 64 63  1  0
 64 67  1  0
 65 66  1  0
 65 62  1  0
 66 64  2  0
 67 68  1  0
 68 69  2  0
 70 73  1  0
 70 69  1  0
 71 70  2  0
 72 71  1  0
 72 67  2  0
 73 74  1  0
 74 79  2  0
 74 75  1  0
 75 76  2  0
 76 77  1  0
 77 81  1  0
 78 77  2  0
 79 78  1  0
 80 79  1  0
 82 83  1  0
 83 85  1  0
 83 86  1  0
 84 82  2  0
 87 62  1  0
 87 88  1  0
 89 87  1  0
 90 91  1  0
 92 91  1  0
 93 92  1  0
 94 97  1  0
 94 93  1  0
 95 94  1  0
 96 94  1  0
M  ISO  4   9 101  10 101  52 100  60 100
M  END
>  <TORSDO>  (43) 
F 24

>  <SCORE>  (43) 
-8.599

>  <name>  (43) 
42

>  <ligand_id>  (43) 
42

>  <original_smiles>  (43) 
[H]c1c([H])c([H])c2c(c1[H])C([H])([H])C([H])([H])C([H])([H])C2([H])N([H])C(=O)C1([H])N(C(=O)C([H])(N([H])C(=O)C([H])(N([H])C([H])([H])[H])C([H])([H])[H])C(C([H])([H])[H])(C([H])([H])[H])C([H])([H])[H])C([H])([H])c2c([H])c(OC([H])([H])C([H])([H])[N+]3([H])C([H])([H])C([H])([H])C([H])(C([H])(N([H])C(=O)N4C([H])([H])C([H])([H])C([H])([H])C([H])(n5nc(-c6c([H])c([H])c(Oc7c([H])c([H])c(F)c([H])c7F)c([H])c6[H])c(C(=O)N([H])[H])c5N([H])[H])C4([H])[H])C([H])([H])C([H])([H])C([H])([H])C([H])([H])[N+]([H])([H])[H])C([H])([H])C3([H])[H])c([H])c([H])c2C1([H])[H]

>  <smiles>  (43) 
[H]c1c([H])c([H])c2c(c1[H])C([H])([H])C([H])([H])C([H])([H])C2([H])N([H])C(=O)C1([H])N(C(=O)C([H])(N([H])C(=O)C([H])(N([H])C([H])([H])[H])C([H])([H])[H])C(C([H])([H])[H])(C([H])([H])[H])C([H])([H])[H])C([H])([H])c2c([H])c(OC([H])([H])C([H])([H])[N+]3([H])C([H])([H])C([H])([H])C([H])(C([H])(N([H])C(=O)N4C([H])([H])C([H])([H])C([H])([H])C([H])(n5nc(-c6c([H])c([H])c(Oc7c([H])c([H])c(F)c([H])c7F)c([H])c6[H])c(C(=O)N([H])[H])c5N([H])[H])C4([H])[H])C([H])([H])C([H])([H])C([H])([H])C([H])([H])[N+]([H])([H])[H])C([H])([H])C3([H])[H])c([H])c([H])c2C1([H])[H]

$$$$
43:0:0
     RDKit          3D

 94103  0  0  1  0  0  0  0  0999 V2000
  -30.6670  -19.4930   19.8770 C   0  0  0  0  0  2  0  0  0  0  0  0
  -28.6900  -17.9480   21.1340 C   0  0  0  0  0  2  0  0  0  0  0  0
  -29.2560  -20.1660   19.8060 C   0  0  0  0  0  3  0  0  0  0  0  0
  -30.0040  -17.1570   20.8010 C   0  0  0  0  0  3  0  0  0  0  0  0
  -30.3940  -17.9710   19.5320 C   0  0  0  0  0  3  0  0  0  0  0  0
  -28.4230  -18.8430   19.8710 C   0  0  0  0  0  3  0  0  0  0  0  0
  -29.1050  -18.0470   18.8460 N   0  0  0  0  0  4  0  0  0  0  0  0
  -28.6990  -17.1350   18.7280 H   0  0  0  0  0  0  0  0  0  0  0  0
  -29.1610  -18.5250   17.9610 H   0  0  0  0  0  0  0  0  0  0  0  0
  -30.5560  -14.6400   20.2450 C   0  0  0  0  0  0  0  0  0  0  0  0
  -30.3120  -12.4450   19.1040 C   0  0  0  0  0  2  0  0  0  0  0  0
  -29.3230  -12.6170   17.9280 C   0  0  0  0  0  2  0  0  0  0  0  0
  -27.8650  -12.4450   18.4040 C   0  0  0  0  0  2  0  0  0  0  0  0
  -27.5510  -13.2700   19.6800 C   0  0  0  0  0  3  0  0  0  0  0  0
  -28.6450  -13.0690   20.7530 C   0  0  0  0  0  2  0  0  0  0  0  0
  -29.9350  -13.4240   20.1420 N   0  0  0  0  0  0  0  0  0  0  0  0
  -31.7060  -14.8270   19.8400 O   0  0  0  0  0  0  0  0  0  0  0  0
  -29.7520  -15.6780   20.6260 N   0  0  0  0  0  0  0  0  0  0  0  0
  -28.8370  -15.3630   20.9140 H   0  0  0  0  0  0  0  0  0  0  0  0
  -25.1730  -13.8600   20.4600 C   0  0  0  0  0  0  0  0  0  0  0  0
  -24.1180  -13.0830   20.8530 C   0  0  0  0  0  0  0  0  0  0  0  0
  -24.5840  -11.7340   20.8040 C   0  0  0  0  0  0  0  0  0  0  0  0
  -26.2150  -12.9840   20.1970 N   0  0  0  0  0  0  0  0  0  0  0  0
  -25.8670  -11.7010   20.4640 N   0  0  0  0  0  0  0  0  0  0  0  0
  -23.8680  -10.4690   21.0070 C   0  0  0  0  0  0  0  0  0  0  0  0
  -24.3280   -9.4990   21.9240 C   0  0  0  0  0  3  0  0  0  0  0  0
  -23.6120   -8.2970   22.1140 C   0  0  0  0  0  3  0  0  0  0  0  0
  -22.4210   -8.0580   21.3870 C   0  0  0  0  0  0  0  0  0  0  0  0
  -21.9800   -9.0180   20.4590 C   0  0  0  0  0  3  0  0  0  0  0  0
  -22.6970  -10.2110   20.2670 C   0  0  0  0  0  3  0  0  0  0  0  0
  -21.6740   -6.9100   21.4880 O   0  0  0  0  0  0  0  0  0  0  0  0
  -21.6590   -6.1600   22.6360 C   0  0  0  0  0  0  0  0  0  0  0  0
  -21.2640   -6.7040   23.8780 C   0  0  0  0  0  3  0  0  0  0  0  0
  -21.1950   -5.8800   25.0180 C   0  0  0  0  0  3  0  0  0  0  0  0
  -21.5140   -4.5120   24.9200 C   0  0  0  0  0  0  0  0  0  0  0  0
  -21.9030   -3.9680   23.6840 C   0  0  0  0  0  3  0  0  0  0  0  0
  -21.9740   -4.7890   22.5450 C   0  0  0  0  0  0  0  0  0  0  0  0
  -22.3290   -4.2530   21.3520 F   0  0  0  0  0  0  0  0  0  0  0  0
  -21.4410   -3.7180   26.0140 F   0  0  0  0  0  0  0  0  0  0  0  0
  -22.7260  -13.5560   21.1610 C   0  0  0  0  0  0  0  0  0  0  0  0
  -22.0230  -12.8530   22.0420 N   0  0  0  0  0  0  0  0  0  0  0  0
  -22.2720  -14.5830   20.6570 O   0  0  0  0  0  0  0  0  0  0  0  0
  -22.4060  -12.0240   22.4720 H   0  0  0  0  0  0  0  0  0  0  0  0
  -21.0880  -13.1470   22.2890 H   0  0  0  0  0  0  0  0  0  0  0  0
  -25.3280  -15.2320   20.2830 N   0  0  0  0  0  0  0  0  0  0  0  0
  -24.5510  -15.8740   20.4020 H   0  0  0  0  0  0  0  0  0  0  0  0
  -26.1490  -15.6680   19.8910 H   0  0  0  0  0  0  0  0  0  0  0  0
  -28.8390  -21.3960   20.7350 C   0  0  0  0  0  2  0  0  0  0  0  0
  -29.3610  -22.7790   20.3690 N   0  0  0  0  0  4  0  0  0  0  0  0
  -29.9130  -23.0930   21.1530 H   0  0  0  0  0  0  0  0  0  0  0  0
  -30.0200  -22.6660   19.6140 H   0  0  0  0  0  0  0  0  0  0  0  0
  -28.4110  -23.9110   19.9780 C   0  0  0  0  0  2  0  0  0  0  0  0
  -28.4920  -25.2590   20.8280 C   0  0  0  0  0  2  0  0  0  0  0  0
  -28.4550  -26.5780   20.1670 O   0  0  0  0  0  0  0  0  0  0  0  0
  -24.6220  -31.8820   23.2190 C   0  0  0  0  0  0  0  0  0  0  0  0
  -27.2970  -27.3550   20.2060 C   0  0  0  0  0  0  0  0  0  0  0  0
  -23.4390  -30.4780   21.5640 C   0  0  0  0  0  3  0  0  0  0  0  0
  -24.9140  -28.9230   20.1680 C   0  0  0  0  0  0  0  0  0  0  0  0
  -25.9750  -30.8160   21.4040 C   0  0  0  0  0  2  0  0  0  0  0  0
  -26.0710  -29.4350   20.7690 C   0  0  0  0  0  0  0  0  0  0  0  0
  -27.2670  -28.6640   20.7730 C   0  0  0  0  0  3  0  0  0  0  0  0
  -26.1190  -26.8750   19.5990 C   0  0  0  0  0  3  0  0  0  0  0  0
  -24.9380  -27.6460   19.5770 C   0  0  0  0  0  3  0  0  0  0  0  0
  -23.6750  -29.7930   20.1900 C   0  0  0  0  0  2  0  0  0  0  0  0
  -24.6970  -31.0750   22.1200 N   0  0  0  0  0  0  0  0  0  0  0  0
  -23.5330  -32.1530   23.7440 O   0  0  0  0  0  0  0  0  0  0  0  0
  -22.7690  -29.4620   22.5210 C   0  0  0  0  0  0  0  0  0  0  0  0
  -21.4440  -29.2850   22.3850 N   0  0  0  0  0  0  0  0  0  0  0  0
  -23.4430  -28.8340   23.3420 O   0  0  0  0  0  0  0  0  0  0  0  0
  -20.9590  -29.8470   21.7000 H   0  0  0  0  0  0  0  0  0  0  0  0
  -18.0670  -28.0850   22.8440 C   0  0  0  0  0  0  0  0  0  0  0  0
  -20.6200  -28.3460   23.1490 C   0  0  0  0  0  3  0  0  0  0  0  0
  -20.7300  -26.9130   22.5780 C   0  0  0  0  0  2  0  0  0  0  0  0
  -19.6450  -26.5930   21.5450 C   0  0  0  0  0  2  0  0  0  0  0  0
  -18.2520  -26.7370   22.1660 C   0  0  0  0  0  2  0  0  0  0  0  0
  -19.1790  -28.8460   23.2910 C   0  0  0  0  0  0  0  0  0  0  0  0
  -18.9530  -30.1070   23.8820 C   0  0  0  0  0  3  0  0  0  0  0  0
  -17.6460  -30.6090   24.0300 C   0  0  0  0  0  3  0  0  0  0  0  0
  -16.5490  -29.8440   23.6000 C   0  0  0  0  0  3  0  0  0  0  0  0
  -16.7580  -28.5830   23.0150 C   0  0  0  0  0  3  0  0  0  0  0  0
  -25.8970  -32.5170   23.8560 C   0  0  0  0  0  3  0  0  0  0  0  0
  -26.4020  -31.7480   25.1390 C   0  0  1  0  0  0  0  0  0  0  0  0
  -25.2990  -31.5090   26.1950 C   0  0  0  0  0  1  0  0  0  0  0  0
  -26.9910  -30.3700   24.7530 C   0  0  0  0  0  1  0  0  0  0  0  0
  -27.5450  -32.5440   25.8110 C   0  0  0  0  0  1  0  0  0  0  0  0
  -25.5830  -33.9150   24.1820 N   0  0  0  0  0  0  0  0  0  0  0  0
  -25.9200  -34.9680   23.4250 C   0  0  0  0  0  0  0  0  0  0  0  0
  -26.6010  -34.8650   22.4010 O   0  0  0  0  0  0  0  0  0  0  0  0
  -24.9790  -34.0690   24.9760 H   0  0  0  0  0  0  0  0  0  0  0  0
  -24.1930  -36.7580   23.0530 C   0  0  0  0  0  1  0  0  0  0  0  0
  -25.4280  -36.3570   23.8770 C   0  0  0  0  0  3  0  0  0  0  0  0
  -27.5520  -37.2470   24.7260 C   0  0  0  0  0  1  0  0  0  0  0  0
  -26.4600  -37.4110   23.7720 N   0  0  0  0  0  0  0  0  0  0  0  0
  -26.0510  -38.3300   23.9130 H   0  0  0  0  0  0  0  0  0  0  0  0
  3  6  1  0
  3  1  1  0
  3 48  1  0
  4 18  1  0
  4  2  1  0
  5  1  1  0
  5  4  1  0
  6  2  1  0
  7  5  1  0
  7  6  1  0
  8  7  1  0
  9  7  1  0
 10 18  1  0
 11 16  1  0
 12 13  1  0
 12 11  1  0
 14 13  1  0
 14 23  1  0
 14 15  1  0
 16 10  1  0
 16 15  1  0
 17 10  2  0
 18 19  1  0
 20 21  2  0
 21 40  1  0
 22 21  1  0
 22 25  1  0
 23 20  1  0
 23 24  1  0
 24 22  2  0
 25 26  1  0
 26 27  2  0
 28 31  1  0
 28 27  1  0
 29 28  2  0
 30 29  1  0
 30 25  2  0
 31 32  1  0
 32 33  1  0
 33 34  2  0
 35 34  1  0
 35 39  1  0
 36 35  2  0
 37 32  2  0
 37 36  1  0
 38 37  1  0
 40 41  1  0
 41 44  1  0
 41 43  1  0
 42 40  2  0
 45 46  1  0
 45 20  1  0
 47 45  1  0
 49 48  1  0
 49 50  1  0
 51 49  1  0
 52 49  1  0
 52 53  1  0
 54 56  1  0
 54 53  1  0
 55 66  2  0
 56 61  1  0
 57 65  1  0
 57 67  1  0
 58 64  1  0
 58 60  1  0
 59 65  1  0
 60 61  2  0
 60 59  1  0
 62 56  2  0
 63 62  1  0
 63 58  2  0
 64 57  1  0
 65 55  1  0
 67 69  2  0
 68 67  1  0
 70 68  1  0
 71 80  2  0
 71 76  1  0
 72 68  1  0
 72 76  1  0
 73 72  1  0
 74 75  1  0
 74 73  1  0
 75 71  1  0
 76 77  2  0
 77 78  1  0
 79 78  2  0
 80 79  1  0
 81 55  1  0
 81 86  1  0
 81 82  1  0
 82 85  1  1
 82 83  1  0
 84 82  1  0
 86 89  1  0
 87 91  1  0
 87 86  1  0
 88 87  2  0
 91 90  1  0
 93 91  1  0
 93 94  1  0
 93 92  1  0
M  ISO  4  10 100  18 100  53 101  54 101
M  END
>  <TORSDO>  (44) 
F 20

>  <SCORE>  (44) 
-13.543

>  <name>  (44) 
43

>  <ligand_id>  (44) 
43

>  <original_smiles>  (44) 
[H]c1c([H])c([H])c2c(c1[H])C([H])([H])C([H])([H])C([H])([H])C2([H])N([H])C(=O)C1([H])N(C(=O)C([H])(N([H])C(=O)C([H])(N([H])C([H])([H])[H])C([H])([H])[H])C(C([H])([H])[H])(C([H])([H])[H])C([H])([H])[H])C([H])([H])c2c([H])c(OC([H])([H])C([H])([H])[N+]([H])([H])C([H])([H])C3([H])C([H])([H])C4([H])C([H])(N([H])C(=O)N5C([H])([H])C([H])([H])C([H])([H])C([H])(n6nc(-c7c([H])c([H])c(Oc8c([H])c([H])c(F)c([H])c8F)c([H])c7[H])c(C(=O)N([H])[H])c6N([H])[H])C5([H])[H])C([H])([H])C3([H])[N+]4([H])[H])c([H])c([H])c2C1([H])[H]

>  <smiles>  (44) 
[H]c1c([H])c([H])c2c(c1[H])C([H])([H])C([H])([H])C([H])([H])C2([H])N([H])C(=O)C1([H])N(C(=O)C([H])(N([H])C(=O)C([H])(N([H])C([H])([H])[H])C([H])([H])[H])C(C([H])([H])[H])(C([H])([H])[H])C([H])([H])[H])C([H])([H])c2c([H])c(OC([H])([H])C([H])([H])[N+]([H])([H])C([H])([H])C3([H])C([H])([H])C4([H])C([H])(N([H])C(=O)N5C([H])([H])C([H])([H])C([H])([H])C([H])(n6nc(-c7c([H])c([H])c(Oc8c([H])c([H])c(F)c([H])c8F)c([H])c7[H])c(C(=O)N([H])[H])c6N([H])[H])C5([H])[H])C([H])([H])C3([H])[N+]4([H])[H])c([H])c([H])c2C1([H])[H]

$$$$
44:0:0
     RDKit          3D

 99108  0  0  1  0  0  0  0  0999 V2000
  -29.7320  -23.1460   19.2060 N   0  0  0  0  0  0  0  0  0  0  0  0
  -31.2670  -24.1830   15.9120 C   0  0  0  0  0  2  0  0  0  0  0  0
  -31.0420  -24.3960   17.4070 C   0  0  0  0  0  2  0  0  0  0  0  0
  -30.9440  -22.7070   15.6400 C   0  0  0  0  0  2  0  0  0  0  0  0
  -29.8960  -23.4260   17.7570 C   0  0  0  0  0  3  0  0  0  0  0  0
  -30.1250  -22.1960   16.8450 C   0  0  0  0  0  3  0  0  0  0  0  0
  -28.8580  -21.5610   16.4480 N   0  0  0  0  0  4  0  0  0  0  0  0
  -28.3100  -22.1750   15.8710 H   0  0  0  0  0  0  0  0  0  0  0  0
  -28.3220  -21.3370   17.2680 H   0  0  0  0  0  0  0  0  0  0  0  0
  -29.0310  -20.7140   15.9370 H   0  0  0  0  0  0  0  0  0  0  0  0
  -30.8400  -22.3180   19.7530 C   0  0  0  0  0  2  0  0  0  0  0  0
  -29.5500  -18.5360   20.2500 C   0  0  0  0  0  2  0  0  0  0  0  0
  -31.5010  -18.9990   21.7540 C   0  0  0  0  0  2  0  0  0  0  0  0
  -29.8230  -19.8850   19.5190 C   0  0  0  0  0  2  0  0  0  0  0  0
  -31.7430  -20.3370   21.0300 C   0  0  0  0  0  2  0  0  0  0  0  0
  -30.8300  -17.9230   20.8690 C   0  0  0  0  0  3  0  0  0  0  0  0
  -30.4600  -20.9610   20.4370 C   0  0  0  0  0  3  0  0  0  0  0  0
  -30.6170  -16.6380   21.7290 C   0  0  0  0  0  2  0  0  0  0  0  0
  -30.6620  -14.4950   20.4030 C   0  0  0  0  0  0  0  0  0  0  0  0
  -30.3220  -12.3920   19.1450 C   0  0  0  0  0  2  0  0  0  0  0  0
  -29.3550  -12.6310   17.9690 C   0  0  0  0  0  2  0  0  0  0  0  0
  -27.8890  -12.4860   18.4250 C   0  0  0  0  0  2  0  0  0  0  0  0
  -27.5790  -13.2800   19.7230 C   0  0  0  0  0  3  0  0  0  0  0  0
  -28.6550  -13.0120   20.7970 C   0  0  0  0  0  2  0  0  0  0  0  0
  -29.9650  -13.3410   20.2100 N   0  0  0  0  0  0  0  0  0  0  0  0
  -31.7830  -14.6920   19.9280 O   0  0  0  0  0  0  0  0  0  0  0  0
  -30.0140  -15.4590   21.0840 N   0  0  0  0  0  0  0  0  0  0  0  0
  -29.0690  -15.2350   21.3600 H   0  0  0  0  0  0  0  0  0  0  0  0
  -25.1830  -13.8690   20.4510 C   0  0  0  0  0  0  0  0  0  0  0  0
  -24.1240  -13.0870   20.8300 C   0  0  0  0  0  0  0  0  0  0  0  0
  -24.5980  -11.7400   20.8010 C   0  0  0  0  0  0  0  0  0  0  0  0
  -26.2340  -12.9960   20.2160 N   0  0  0  0  0  0  0  0  0  0  0  0
  -25.8860  -11.7100   20.4850 N   0  0  0  0  0  0  0  0  0  0  0  0
  -23.8840  -10.4710   21.0020 C   0  0  0  0  0  0  0  0  0  0  0  0
  -24.3230   -9.5190   21.9460 C   0  0  0  0  0  3  0  0  0  0  0  0
  -23.6100   -8.3150   22.1340 C   0  0  0  0  0  3  0  0  0  0  0  0
  -22.4440   -8.0550   21.3760 C   0  0  0  0  0  0  0  0  0  0  0  0
  -22.0230   -8.9970   20.4200 C   0  0  0  0  0  3  0  0  0  0  0  0
  -22.7370  -10.1920   20.2320 C   0  0  0  0  0  3  0  0  0  0  0  0
  -21.7030   -6.9030   21.4720 O   0  0  0  0  0  0  0  0  0  0  0  0
  -21.6480   -6.1770   22.6340 C   0  0  0  0  0  0  0  0  0  0  0  0
  -21.1830   -6.7390   23.8430 C   0  0  0  0  0  3  0  0  0  0  0  0
  -21.0770   -5.9370   24.9980 C   0  0  0  0  0  3  0  0  0  0  0  0
  -21.4280   -4.5760   24.9440 C   0  0  0  0  0  0  0  0  0  0  0  0
  -21.8870   -4.0130   23.7410 C   0  0  0  0  0  3  0  0  0  0  0  0
  -21.9930   -4.8110   22.5880 C   0  0  0  0  0  0  0  0  0  0  0  0
  -22.4160   -4.2590   21.4240 F   0  0  0  0  0  0  0  0  0  0  0  0
  -21.3210   -3.8030   26.0510 F   0  0  0  0  0  0  0  0  0  0  0  0
  -22.7230  -13.5500   21.1090 C   0  0  0  0  0  0  0  0  0  0  0  0
  -22.0070  -12.8480   21.9810 N   0  0  0  0  0  0  0  0  0  0  0  0
  -22.2710  -14.5710   20.5910 O   0  0  0  0  0  0  0  0  0  0  0  0
  -22.3850  -12.0210   22.4200 H   0  0  0  0  0  0  0  0  0  0  0  0
  -21.0690  -13.1410   22.2110 H   0  0  0  0  0  0  0  0  0  0  0  0
  -25.3340  -15.2390   20.2660 N   0  0  0  0  0  0  0  0  0  0  0  0
  -24.5640  -15.8900   20.3760 H   0  0  0  0  0  0  0  0  0  0  0  0
  -26.1750  -15.6800   19.9140 H   0  0  0  0  0  0  0  0  0  0  0  0
  -29.6100  -24.4210   19.9720 C   0  0  0  0  0  3  0  0  0  0  0  0
  -28.3620  -25.3060   19.6440 C   0  0  0  0  0  3  0  0  0  0  0  0
  -28.4010  -26.6490   20.1780 O   0  0  0  0  0  0  0  0  0  0  0  0
  -24.5700  -31.8780   23.1930 C   0  0  0  0  0  0  0  0  0  0  0  0
  -27.2300  -27.3990   20.1350 C   0  0  0  0  0  0  0  0  0  0  0  0
  -23.3710  -30.4640   21.5600 C   0  0  0  0  0  3  0  0  0  0  0  0
  -24.8300  -28.9280   20.1380 C   0  0  0  0  0  0  0  0  0  0  0  0
  -25.9000  -30.8180   21.3700 C   0  0  0  0  0  2  0  0  0  0  0  0
  -25.9880  -29.4430   20.7340 C   0  0  0  0  0  0  0  0  0  0  0  0
  -27.1860  -28.6850   20.7340 C   0  0  0  0  0  3  0  0  0  0  0  0
  -26.0470  -26.9190   19.5170 C   0  0  0  0  0  3  0  0  0  0  0  0
  -24.8580  -27.6680   19.5250 C   0  0  0  0  0  3  0  0  0  0  0  0
  -23.5840  -29.7830   20.1820 C   0  0  0  0  0  2  0  0  0  0  0  0
  -24.6320  -31.0700   22.0980 N   0  0  0  0  0  0  0  0  0  0  0  0
  -23.4860  -32.1500   23.7290 O   0  0  0  0  0  0  0  0  0  0  0  0
  -22.7220  -29.4440   22.5230 C   0  0  0  0  0  0  0  0  0  0  0  0
  -21.3970  -29.2630   22.4020 N   0  0  0  0  0  0  0  0  0  0  0  0
  -23.4080  -28.8180   23.3360 O   0  0  0  0  0  0  0  0  0  0  0  0
  -20.9050  -29.8190   21.7160 H   0  0  0  0  0  0  0  0  0  0  0  0
  -18.0220  -28.0850   22.9310 C   0  0  0  0  0  0  0  0  0  0  0  0
  -20.5830  -28.3290   23.1780 C   0  0  0  0  0  3  0  0  0  0  0  0
  -20.6720  -26.8980   22.5990 C   0  0  0  0  0  2  0  0  0  0  0  0
  -19.5590  -26.5830   21.5950 C   0  0  0  0  0  2  0  0  0  0  0  0
  -18.1840  -26.7350   22.2510 C   0  0  0  0  0  2  0  0  0  0  0  0
  -19.1480  -28.8390   23.3520 C   0  0  0  0  0  0  0  0  0  0  0  0
  -18.9420  -30.1030   23.9470 C   0  0  0  0  0  3  0  0  0  0  0  0
  -17.6430  -30.6120   24.1240 C   0  0  0  0  0  3  0  0  0  0  0  0
  -16.5300  -29.8550   23.7200 C   0  0  0  0  0  3  0  0  0  0  0  0
  -16.7210  -28.5920   23.1290 C   0  0  0  0  0  3  0  0  0  0  0  0
  -25.8520  -32.5170   23.8110 C   0  0  0  0  0  3  0  0  0  0  0  0
  -26.3710  -31.7580   25.0930 C   0  0  1  0  0  0  0  0  0  0  0  0
  -25.2790  -31.5210   26.1620 C   0  0  0  0  0  1  0  0  0  0  0  0
  -26.9620  -30.3800   24.7100 C   0  0  0  0  0  1  0  0  0  0  0  0
  -27.5170  -32.5630   25.7500 C   0  0  0  0  0  1  0  0  0  0  0  0
  -25.5380  -33.9180   24.1280 N   0  0  0  0  0  0  0  0  0  0  0  0
  -25.8770  -34.9640   23.3640 C   0  0  0  0  0  0  0  0  0  0  0  0
  -26.5580  -34.8550   22.3410 O   0  0  0  0  0  0  0  0  0  0  0  0
  -24.9370  -34.0770   24.9220 H   0  0  0  0  0  0  0  0  0  0  0  0
  -24.1610  -36.7590   22.9630 C   0  0  0  0  0  1  0  0  0  0  0  0
  -25.3810  -36.3550   23.8050 C   0  0  0  0  0  3  0  0  0  0  0  0
  -27.4960  -37.2380   24.6850 C   0  0  0  0  0  1  0  0  0  0  0  0
  -26.4170  -37.4060   23.7160 N   0  0  0  0  0  0  0  0  0  0  0  0
  -26.0090  -38.3270   23.8540 H   0  0  0  0  0  0  0  0  0  0  0  0
  1 11  1  0
  1 57  1  0
  2  3  1  0
  3  5  1  0
  4  2  1  0
  4  6  1  0
  5  1  1  0
  6  7  1  0
  6  5  1  0
  7  9  1  0
  8  7  1  0
 10  7  1  0
 12 16  1  0
 14 12  1  0
 14 17  1  0
 15 13  1  0
 16 18  1  0
 16 13  1  0
 17 11  1  0
 17 15  1  0
 19 27  1  0
 20 25  1  0
 21 22  1  0
 21 20  1  0
 23 22  1  0
 23 32  1  0
 23 24  1  0
 25 19  1  0
 25 24  1  0
 26 19  2  0
 27 28  1  0
 27 18  1  0
 29 30  2  0
 30 49  1  0
 31 30  1  0
 31 34  1  0
 32 29  1  0
 32 33  1  0
 33 31  2  0
 34 35  1  0
 35 36  2  0
 37 40  1  0
 37 36  1  0
 38 37  2  0
 39 38  1  0
 39 34  2  0
 40 41  1  0
 41 42  1  0
 42 43  2  0
 44 43  1  0
 44 48  1  0
 45 44  2  0
 46 41  2  0
 46 45  1  0
 47 46  1  0
 49 50  1  0
 50 53  1  0
 50 52  1  0
 51 49  2  0
 54 55  1  0
 54 29  1  0
 56 54  1  0
 58 57  2  0
 58 59  1  0
 60 71  2  0
 61 59  1  0
 61 66  1  0
 62 70  1  0
 62 72  1  0
 63 69  1  0
 63 65  1  0
 64 70  1  0
 65 66  2  0
 65 64  1  0
 67 68  1  0
 67 61  2  0
 68 63  2  0
 69 62  1  0
 70 60  1  0
 72 74  2  0
 73 72  1  0
 75 73  1  0
 76 85  2  0
 76 81  1  0
 77 73  1  0
 77 81  1  0
 78 77  1  0
 79 80  1  0
 79 78  1  0
 80 76  1  0
 81 82  2  0
 82 83  1  0
 84 83  2  0
 85 84  1  0
 86 60  1  0
 86 91  1  0
 86 87  1  0
 87 90  1  1
 87 88  1  0
 89 87  1  0
 91 94  1  0
 92 96  1  0
 92 91  1  0
 93 92  2  0
 96 95  1  0
 98 96  1  0
 98 99  1  0
 98 97  1  0
M  ISO  4  19 100  27 100  58 101  59 101
M  END
>  <TORSDO>  (45) 
F 23

>  <SCORE>  (45) 
-13.033

>  <name>  (45) 
44

>  <ligand_id>  (45) 
44

>  <original_smiles>  (45) 
[H]c1c([H])c([H])c2c(c1[H])C([H])([H])C([H])([H])C([H])([H])C2([H])N([H])C(=O)C1([H])N(C(=O)C([H])(N([H])C(=O)C([H])(N([H])C([H])([H])[H])C([H])([H])[H])C(C([H])([H])[H])(C([H])([H])[H])C([H])([H])[H])C([H])([H])c2c([H])c(OC([H])([H])C([H])([H])N(C([H])([H])C3([H])C([H])([H])C([H])([H])C([H])(C([H])([H])N([H])C(=O)N4C([H])([H])C([H])([H])C([H])([H])C([H])(n5nc(-c6c([H])c([H])c(Oc7c([H])c([H])c(F)c([H])c7F)c([H])c6[H])c(C(=O)N([H])[H])c5N([H])[H])C4([H])[H])C([H])([H])C3([H])[H])C3([H])C([H])([H])C([H])([H])C([H])([H])C3([H])[N+]([H])([H])[H])c([H])c([H])c2C1([H])[H]

>  <smiles>  (45) 
[H]c1c([H])c([H])c2c(c1[H])C([H])([H])C([H])([H])C([H])([H])C2([H])N([H])C(=O)C1([H])N(C(=O)C([H])(N([H])C(=O)C([H])(N([H])C([H])([H])[H])C([H])([H])[H])C(C([H])([H])[H])(C([H])([H])[H])C([H])([H])[H])C([H])([H])c2c([H])c(OC([H])([H])C([H])([H])N(C([H])([H])C3([H])C([H])([H])C([H])([H])C([H])(C([H])([H])N([H])C(=O)N4C([H])([H])C([H])([H])C([H])([H])C([H])(n5nc(-c6c([H])c([H])c(Oc7c([H])c([H])c(F)c([H])c7F)c([H])c6[H])c(C(=O)N([H])[H])c5N([H])[H])C4([H])[H])C([H])([H])C3([H])[H])C3([H])C([H])([H])C([H])([H])C([H])([H])C3([H])[N+]([H])([H])[H])c([H])c([H])c2C1([H])[H]

$$$$
45:0:0
     RDKit          3D

 99107  0  0  1  0  0  0  0  0999 V2000
  -28.5250  -23.3560   22.3750 C   0  0  0  0  0  3  0  0  0  0  0  0
  -28.4470  -24.5720   23.2230 N   0  0  0  0  0  4  0  0  0  0  0  0
  -27.5590  -25.0230   23.0820 H   0  0  0  0  0  0  0  0  0  0  0  0
  -28.4710  -24.2570   24.1820 H   0  0  0  0  0  0  0  0  0  0  0  0
  -29.5160  -25.5890   23.0820 C   0  0  0  0  0  2  0  0  0  0  0  0
  -29.2440  -26.6700   22.0150 C   0  0  0  0  0  2  0  0  0  0  0  0
  -29.2250  -26.2090   20.5490 C   0  0  0  0  0  2  0  0  0  0  0  0
  -28.9660  -27.3230   19.7020 O   0  0  0  0  0  0  0  0  0  0  0  0
  -24.5280  -31.7340   23.1340 C   0  0  0  0  0  0  0  0  0  0  0  0
  -27.7160  -27.8830   19.7940 C   0  0  0  0  0  0  0  0  0  0  0  0
  -23.5340  -30.3980   21.3020 C   0  0  0  0  0  3  0  0  0  0  0  0
  -25.1870  -29.1300   19.8350 C   0  0  0  0  0  0  0  0  0  0  0  0
  -26.0210  -31.0020   21.2770 C   0  0  0  0  0  2  0  0  0  0  0  0
  -26.2630  -29.7110   20.5210 C   0  0  0  0  0  0  0  0  0  0  0  0
  -27.5320  -29.0990   20.4860 C   0  0  0  0  0  3  0  0  0  0  0  0
  -26.6230  -27.2870   19.1340 C   0  0  0  0  0  3  0  0  0  0  0  0
  -25.3600  -27.9160   19.1410 C   0  0  0  0  0  3  0  0  0  0  0  0
  -23.8750  -29.8780   19.8800 C   0  0  0  0  0  2  0  0  0  0  0  0
  -24.7080  -31.0520   21.9680 N   0  0  0  0  0  0  0  0  0  0  0  0
  -23.4010  -31.8520   23.6360 O   0  0  0  0  0  0  0  0  0  0  0  0
  -22.9300  -29.2350   22.1250 C   0  0  0  0  0  0  0  0  0  0  0  0
  -21.6150  -29.0150   21.9710 N   0  0  0  0  0  0  0  0  0  0  0  0
  -23.6430  -28.5410   22.8500 O   0  0  0  0  0  0  0  0  0  0  0  0
  -21.0980  -29.6390   21.3690 H   0  0  0  0  0  0  0  0  0  0  0  0
  -18.2820  -27.6720   22.3470 C   0  0  0  0  0  0  0  0  0  0  0  0
  -20.8370  -27.9560   22.6150 C   0  0  0  0  0  3  0  0  0  0  0  0
  -20.9620  -26.6230   21.8400 C   0  0  0  0  0  2  0  0  0  0  0  0
  -19.8510  -26.4190   20.8060 C   0  0  0  0  0  2  0  0  0  0  0  0
  -18.4790  -26.4350   21.4860 C   0  0  0  0  0  2  0  0  0  0  0  0
  -19.3890  -28.3950   22.8640 C   0  0  0  0  0  0  0  0  0  0  0  0
  -19.1520  -29.5560   23.6320 C   0  0  0  0  0  3  0  0  0  0  0  0
  -17.8380  -29.9930   23.8860 C   0  0  0  0  0  3  0  0  0  0  0  0
  -16.7460  -29.2670   23.3860 C   0  0  0  0  0  3  0  0  0  0  0  0
  -16.9690  -28.1080   22.6210 C   0  0  0  0  0  3  0  0  0  0  0  0
  -25.7210  -32.4090   23.8810 C   0  0  0  0  0  3  0  0  0  0  0  0
  -26.0960  -31.6800   25.2290 C   0  0  1  0  0  0  0  0  0  0  0  0
  -24.8860  -31.4290   26.1570 C   0  0  0  0  0  1  0  0  0  0  0  0
  -26.7710  -30.3170   24.9470 C   0  0  0  0  0  1  0  0  0  0  0  0
  -27.1260  -32.5220   26.0160 C   0  0  0  0  0  1  0  0  0  0  0  0
  -25.3540  -33.8100   24.1290 N   0  0  0  0  0  0  0  0  0  0  0  0
  -25.7510  -34.8450   23.3780 C   0  0  0  0  0  0  0  0  0  0  0  0
  -26.5350  -34.7260   22.4320 O   0  0  0  0  0  0  0  0  0  0  0  0
  -24.6670  -33.9800   24.8510 H   0  0  0  0  0  0  0  0  0  0  0  0
  -24.0370  -36.5930   22.7680 C   0  0  0  0  0  1  0  0  0  0  0  0
  -25.1860  -36.2370   23.7260 C   0  0  0  0  0  3  0  0  0  0  0  0
  -27.2070  -37.1880   24.7520 C   0  0  0  0  0  1  0  0  0  0  0  0
  -26.2030  -37.3130   23.7000 N   0  0  0  0  0  0  0  0  0  0  0  0
  -25.7590  -38.2230   23.8000 H   0  0  0  0  0  0  0  0  0  0  0  0
  -27.1990  -23.2020   21.5860 C   0  0  0  0  0  2  0  0  0  0  0  0
  -25.9680  -23.8770   22.2370 C   0  0  0  0  0  2  0  0  0  0  0  0
  -23.9060  -25.3470   21.8860 C   0  0  0  0  0  1  0  0  0  0  0  0
  -25.0130  -24.5170   21.2160 C   0  0  0  0  0  2  0  0  0  0  0  0
  -28.8710  -22.1070   23.2270 C   0  0  0  0  0  2  0  0  0  0  0  0
  -29.2060  -20.8120   22.4500 C   0  0  0  0  0  2  0  0  0  0  0  0
  -30.1040  -21.0080   21.2050 C   0  0  0  0  0  2  0  0  0  0  0  0
  -31.1060  -19.8560   20.9800 C   0  0  0  0  0  2  0  0  0  0  0  0
  -30.6520  -14.7560   20.1200 C   0  0  0  0  0  0  0  0  0  0  0  0
  -30.3260  -12.6130   18.9410 C   0  0  0  0  0  2  0  0  0  0  0  0
  -29.3160  -12.8080   17.7930 C   0  0  0  0  0  2  0  0  0  0  0  0
  -27.8730  -12.6100   18.2960 C   0  0  0  0  0  2  0  0  0  0  0  0
  -27.5740  -13.4320   19.5780 C   0  0  0  0  0  3  0  0  0  0  0  0
  -28.6920  -13.2470   20.6320 C   0  0  0  0  0  2  0  0  0  0  0  0
  -29.9820  -13.5780   19.9950 N   0  0  0  0  0  0  0  0  0  0  0  0
  -31.7070  -15.0050   19.5300 O   0  0  0  0  0  0  0  0  0  0  0  0
  -30.8780  -16.1780   22.0900 C   0  0  0  0  0  2  0  0  0  0  0  0
  -29.0930  -16.6180   20.4810 C   0  0  0  0  0  2  0  0  0  0  0  0
  -31.5220  -17.5430   21.7590 C   0  0  0  0  0  2  0  0  0  0  0  0
  -29.7160  -17.9850   20.1290 C   0  0  0  0  0  2  0  0  0  0  0  0
  -30.1020  -15.6600   20.9610 N   0  0  0  0  0  0  0  0  0  0  0  0
  -30.5200  -18.5200   21.2550 N   0  0  2  0  0  4  0  0  0  0  0  0
  -29.8800  -18.6570   22.0240 H   0  0  0  0  0  0  0  0  0  0  0  0
  -25.2120  -14.0030   20.4250 C   0  0  0  0  0  0  0  0  0  0  0  0
  -24.1720  -13.2060   20.8280 C   0  0  0  0  0  0  0  0  0  0  0  0
  -24.6450  -11.8620   20.7350 C   0  0  0  0  0  0  0  0  0  0  0  0
  -26.2530  -13.1360   20.1200 N   0  0  0  0  0  0  0  0  0  0  0  0
  -25.9170  -11.8450   20.3610 N   0  0  0  0  0  0  0  0  0  0  0  0
  -23.9480  -10.5870   20.9230 C   0  0  0  0  0  0  0  0  0  0  0  0
  -24.4120   -9.6160   21.8370 C   0  0  0  0  0  3  0  0  0  0  0  0
  -23.7090   -8.4070   22.0120 C   0  0  0  0  0  3  0  0  0  0  0  0
  -22.5280   -8.1570   21.2740 C   0  0  0  0  0  0  0  0  0  0  0  0
  -22.0860   -9.1150   20.3440 C   0  0  0  0  0  3  0  0  0  0  0  0
  -22.7920  -10.3180   20.1640 C   0  0  0  0  0  3  0  0  0  0  0  0
  -21.7910   -7.0010   21.3630 O   0  0  0  0  0  0  0  0  0  0  0  0
  -21.7220   -6.2810   22.5280 C   0  0  0  0  0  0  0  0  0  0  0  0
  -21.2460   -6.8500   23.7300 C   0  0  0  0  0  3  0  0  0  0  0  0
  -21.1250   -6.0550   24.8870 C   0  0  0  0  0  3  0  0  0  0  0  0
  -21.4710   -4.6920   24.8440 C   0  0  0  0  0  0  0  0  0  0  0  0
  -21.9420   -4.1220   23.6470 C   0  0  0  0  0  3  0  0  0  0  0  0
  -22.0630   -4.9140   22.4920 C   0  0  0  0  0  0  0  0  0  0  0  0
  -22.4950   -4.3530   21.3360 F   0  0  0  0  0  0  0  0  0  0  0  0
  -21.3480   -3.9240   25.9520 F   0  0  0  0  0  0  0  0  0  0  0  0
  -22.7870  -13.6570   21.1900 C   0  0  0  0  0  0  0  0  0  0  0  0
  -22.1200  -12.9340   22.0850 N   0  0  0  0  0  0  0  0  0  0  0  0
  -22.3010  -14.6810   20.7100 O   0  0  0  0  0  0  0  0  0  0  0  0
  -22.5230  -12.0990   22.4870 H   0  0  0  0  0  0  0  0  0  0  0  0
  -21.1960  -13.2230   22.3750 H   0  0  0  0  0  0  0  0  0  0  0  0
  -25.3480  -15.3790   20.2750 N   0  0  0  0  0  0  0  0  0  0  0  0
  -24.5820  -16.0200   20.4510 H   0  0  0  0  0  0  0  0  0  0  0  0
  -26.1670  -15.8400   19.9020 H   0  0  0  0  0  0  0  0  0  0  0  0
  1 49  1  0
  1  2  1  0
  1 53  1  0
  2  4  1  0
  3  2  1  0
  5  2  1  0
  6  5  1  0
  7  6  1  0
  8 10  1  0
  8  7  1  0
  9 20  2  0
 10 15  1  0
 11 19  1  0
 11 21  1  0
 12 18  1  0
 12 14  1  0
 13 19  1  0
 14 13  1  0
 15 14  2  0
 16 17  1  0
 16 10  2  0
 17 12  2  0
 18 11  1  0
 19  9  1  0
 21 23  2  0
 22 21  1  0
 24 22  1  0
 25 34  2  0
 25 30  1  0
 26 22  1  0
 26 30  1  0
 27 26  1  0
 28 29  1  0
 28 27  1  0
 29 25  1  0
 30 31  2  0
 31 32  1  0
 33 32  2  0
 34 33  1  0
 35  9  1  0
 35 40  1  0
 35 36  1  0
 36 39  1  1
 36 37  1  0
 38 36  1  0
 40 43  1  0
 41 45  1  0
 41 40  1  0
 42 41  2  0
 45 44  1  0
 47 45  1  0
 47 48  1  0
 47 46  1  0
 49 50  1  0
 52 51  1  0
 52 50  1  0
 54 53  1  0
 55 54  1  0
 56 55  1  0
 56 70  1  0
 57 69  1  0
 58 63  1  0
 59 60  1  0
 59 58  1  0
 61 60  1  0
 61 75  1  0
 61 62  1  0
 63 57  1  0
 63 62  1  0
 64 57  2  0
 66 69  1  0
 67 65  1  0
 68 66  1  0
 68 70  1  0
 69 65  1  0
 70 67  1  0
 70 71  1  1
 72 73  2  0
 73 92  1  0
 74 73  1  0
 74 77  1  0
 75 76  1  0
 75 72  1  0
 76 74  2  0
 77 78  1  0
 78 79  2  0
 80 83  1  0
 80 79  1  0
 81 80  2  0
 82 81  1  0
 82 77  2  0
 83 84  1  0
 84 85  1  0
 85 86  2  0
 87 86  1  0
 87 91  1  0
 88 87  2  0
 89 84  2  0
 89 88  1  0
 90 89  1  0
 92 93  1  0
 93 96  1  0
 93 95  1  0
 94 92  2  0
 97 72  1  0
 97 98  1  0
 99 97  1  0
M  ISO  4   7 101   8 101  57 100  69 100
M  END
>  <TORSDO>  (46) 
F 27

>  <SCORE>  (46) 
-9.947

>  <name>  (46) 
45

>  <ligand_id>  (46) 
45

>  <original_smiles>  (46) 
[H]c1c([H])c([H])c2c(c1[H])C([H])([H])C([H])([H])C([H])([H])C2([H])N([H])C(=O)C1([H])N(C(=O)C([H])(N([H])C(=O)C([H])(N([H])C([H])([H])[H])C([H])([H])[H])C(C([H])([H])[H])(C([H])([H])[H])C([H])([H])[H])C([H])([H])c2c([H])c(OC([H])([H])C([H])([H])C([H])([H])[N+]([H])([H])C([H])(C([H])([H])C([H])([H])C([H])([H])C([H])([H])[H])C([H])([H])C([H])([H])C([H])([H])C([H])([H])[N+]3([H])C([H])([H])C([H])([H])N(C(=O)N4C([H])([H])C([H])([H])C([H])([H])C([H])(n5nc(-c6c([H])c([H])c(Oc7c([H])c([H])c(F)c([H])c7F)c([H])c6[H])c(C(=O)N([H])[H])c5N([H])[H])C4([H])[H])C([H])([H])C3([H])[H])c([H])c([H])c2C1([H])[H]

>  <smiles>  (46) 
[H]c1c([H])c([H])c2c(c1[H])C([H])([H])C([H])([H])C([H])([H])C2([H])N([H])C(=O)C1([H])N(C(=O)C([H])(N([H])C(=O)C([H])(N([H])C([H])([H])[H])C([H])([H])[H])C(C([H])([H])[H])(C([H])([H])[H])C([H])([H])[H])C([H])([H])c2c([H])c(OC([H])([H])C([H])([H])C([H])([H])[N+]([H])([H])C([H])(C([H])([H])C([H])([H])C([H])([H])C([H])([H])[H])C([H])([H])C([H])([H])C([H])([H])C([H])([H])[N+]3([H])C([H])([H])C([H])([H])N(C(=O)N4C([H])([H])C([H])([H])C([H])([H])C([H])(n5nc(-c6c([H])c([H])c(Oc7c([H])c([H])c(F)c([H])c7F)c([H])c6[H])c(C(=O)N([H])[H])c5N([H])[H])C4([H])[H])C([H])([H])C3([H])[H])c([H])c([H])c2C1([H])[H]

$$$$
46:0:0
     RDKit          3D

 97105  0  0  1  0  0  0  0  0999 V2000
  -30.3410  -21.0700   17.9090 N   0  0  0  0  0  4  0  0  0  0  0  0
  -29.9060  -21.1640   18.8140 H   0  0  0  0  0  0  0  0  0  0  0  0
  -29.6260  -21.2100   17.2150 H   0  0  0  0  0  0  0  0  0  0  0  0
  -30.8980  -19.7040   17.7650 C   0  0  0  0  0  2  0  0  0  0  0  0
  -27.5640  -17.6900   17.6790 C   0  0  0  0  0  2  0  0  0  0  0  0
  -27.3540  -17.6520   19.1840 C   0  0  0  0  0  2  0  0  0  0  0  0
  -28.5310  -18.8380   17.4150 C   0  0  0  0  0  2  0  0  0  0  0  0
  -28.6920  -17.3480   19.8580 C   0  0  0  0  0  2  0  0  0  0  0  0
  -29.8900  -18.5770   18.1100 C   0  0  0  0  0  3  0  0  0  0  0  0
  -29.7730  -18.3060   19.5710 N   0  0  0  0  0  0  0  0  0  0  0  0
  -31.0400  -17.6990   20.0490 C   0  0  0  0  0  2  0  0  0  0  0  0
  -30.9990  -16.8360   21.3520 C   0  0  0  0  0  2  0  0  0  0  0  0
  -31.1630  -14.4570   20.5330 C   0  0  0  0  0  0  0  0  0  0  0  0
  -30.6870  -12.4980   19.1260 C   0  0  0  0  0  2  0  0  0  0  0  0
  -29.7790  -12.9450   17.9670 C   0  0  0  0  0  2  0  0  0  0  0  0
  -28.2930  -12.8670   18.3800 C   0  0  0  0  0  2  0  0  0  0  0  0
  -28.0090  -13.5400   19.7540 C   0  0  0  0  0  3  0  0  0  0  0  0
  -29.0500  -13.1060   20.8130 C   0  0  0  0  0  2  0  0  0  0  0  0
  -30.3950  -13.3680   20.2710 N   0  0  0  0  0  0  0  0  0  0  0  0
  -32.2950  -14.6150   20.0710 O   0  0  0  0  0  0  0  0  0  0  0  0
  -30.5360  -15.4470   21.1820 N   0  0  0  0  0  0  0  0  0  0  0  0
  -29.6070  -15.2340   21.5110 H   0  0  0  0  0  0  0  0  0  0  0  0
  -25.6360  -14.2120   20.5020 C   0  0  0  0  0  0  0  0  0  0  0  0
  -24.5300  -13.4600   20.8140 C   0  0  0  0  0  0  0  0  0  0  0  0
  -24.9330  -12.0960   20.6920 C   0  0  0  0  0  0  0  0  0  0  0  0
  -26.6410  -13.3000   20.2090 N   0  0  0  0  0  0  0  0  0  0  0  0
  -26.2210  -12.0220   20.3770 N   0  0  0  0  0  0  0  0  0  0  0  0
  -24.1520  -10.8580   20.7990 C   0  0  0  0  0  0  0  0  0  0  0  0
  -24.5330   -9.8200   21.6770 C   0  0  0  0  0  3  0  0  0  0  0  0
  -23.7570   -8.6430   21.7750 C   0  0  0  0  0  3  0  0  0  0  0  0
  -22.5860   -8.4990   20.9930 C   0  0  0  0  0  0  0  0  0  0  0  0
  -22.2270   -9.5250   20.1000 C   0  0  0  0  0  3  0  0  0  0  0  0
  -23.0030  -10.6920   19.9990 C   0  0  0  0  0  3  0  0  0  0  0  0
  -21.7850   -7.3820   21.0010 O   0  0  0  0  0  0  0  0  0  0  0  0
  -21.6530   -6.5990   22.1190 C   0  0  0  0  0  0  0  0  0  0  0  0
  -21.1740   -7.1220   23.3400 C   0  0  0  0  0  3  0  0  0  0  0  0
  -20.9900   -6.2690   24.4460 C   0  0  0  0  0  3  0  0  0  0  0  0
  -21.2690   -4.8950   24.3310 C   0  0  0  0  0  0  0  0  0  0  0  0
  -21.7360   -4.3690   23.1130 C   0  0  0  0  0  3  0  0  0  0  0  0
  -21.9260   -5.2200   22.0080 C   0  0  0  0  0  0  0  0  0  0  0  0
  -22.3570   -4.7060   20.8320 F   0  0  0  0  0  0  0  0  0  0  0  0
  -21.0860   -4.0750   25.3920 F   0  0  0  0  0  0  0  0  0  0  0  0
  -23.1510  -13.9750   21.1180 C   0  0  0  0  0  0  0  0  0  0  0  0
  -22.3950  -13.2620   21.9490 N   0  0  0  0  0  0  0  0  0  0  0  0
  -22.7500  -15.0420   20.6550 O   0  0  0  0  0  0  0  0  0  0  0  0
  -22.7190  -12.3940   22.3440 H   0  0  0  0  0  0  0  0  0  0  0  0
  -21.4700  -13.5900   22.1930 H   0  0  0  0  0  0  0  0  0  0  0  0
  -25.8600  -15.5810   20.4260 N   0  0  0  0  0  0  0  0  0  0  0  0
  -25.1190  -16.2580   20.5650 H   0  0  0  0  0  0  0  0  0  0  0  0
  -26.7330  -16.0110   20.1540 H   0  0  0  0  0  0  0  0  0  0  0  0
  -31.3820  -22.1100   17.7590 C   0  0  0  0  0  2  0  0  0  0  0  0
  -30.8530  -23.5580   17.8040 C   0  0  0  0  0  2  0  0  0  0  0  0
  -30.0480  -23.8530   18.9920 N   0  0  0  0  0  0  0  0  0  0  0  0
  -30.5890  -23.6410   19.8270 H   0  0  0  0  0  0  0  0  0  0  0  0
  -29.7320  -25.2880   18.9960 C   0  0  0  0  0  2  0  0  0  0  0  0
  -29.1190  -25.7500   20.3330 C   0  0  0  0  0  2  0  0  0  0  0  0
  -29.0520  -27.1790   20.3770 O   0  0  0  0  0  0  0  0  0  0  0  0
  -24.8160  -32.0150   23.4050 C   0  0  0  0  0  0  0  0  0  0  0  0
  -27.8270  -27.8090   20.3210 C   0  0  0  0  0  0  0  0  0  0  0  0
  -23.7630  -30.6130   21.6590 C   0  0  0  0  0  3  0  0  0  0  0  0
  -25.3580  -29.1910   20.2620 C   0  0  0  0  0  0  0  0  0  0  0  0
  -26.2780  -31.0870   21.6180 C   0  0  0  0  0  2  0  0  0  0  0  0
  -26.4560  -29.7490   20.9290 C   0  0  0  0  0  0  0  0  0  0  0  0
  -27.6930  -29.0660   20.9480 C   0  0  0  0  0  3  0  0  0  0  0  0
  -26.7100  -27.2600   19.6480 C   0  0  0  0  0  3  0  0  0  0  0  0
  -25.4800  -27.9440   19.6200 C   0  0  0  0  0  3  0  0  0  0  0  0
  -24.0720  -29.9890   20.2730 C   0  0  0  0  0  2  0  0  0  0  0  0
  -24.9660  -31.2520   22.2860 N   0  0  0  0  0  0  0  0  0  0  0  0
  -23.6980  -32.2230   23.8940 O   0  0  0  0  0  0  0  0  0  0  0  0
  -23.1150  -29.5320   22.5510 C   0  0  0  0  0  0  0  0  0  0  0  0
  -21.8080  -29.2960   22.3490 N   0  0  0  0  0  0  0  0  0  0  0  0
  -23.7840  -28.9110   23.3810 O   0  0  0  0  0  0  0  0  0  0  0  0
  -21.3280  -29.8570   21.6570 H   0  0  0  0  0  0  0  0  0  0  0  0
  -18.4650  -27.9630   22.6600 C   0  0  0  0  0  0  0  0  0  0  0  0
  -20.9980  -28.3010   23.0480 C   0  0  0  0  0  3  0  0  0  0  0  0
  -21.1740  -26.8980   22.4220 C   0  0  0  0  0  2  0  0  0  0  0  0
  -20.1270  -26.5760   21.3520 C   0  0  0  0  0  2  0  0  0  0  0  0
  -18.7160  -26.6500   21.9440 C   0  0  0  0  0  2  0  0  0  0  0  0
  -19.5370  -28.7480   23.1640 C   0  0  0  0  0  0  0  0  0  0  0  0
  -19.2480  -29.9810   23.7890 C   0  0  0  0  0  3  0  0  0  0  0  0
  -17.9200  -30.4270   23.9230 C   0  0  0  0  0  3  0  0  0  0  0  0
  -16.8620  -29.6390   23.4380 C   0  0  0  0  0  3  0  0  0  0  0  0
  -17.1370  -28.4110   22.8110 C   0  0  0  0  0  3  0  0  0  0  0  0
  -26.0380  -32.6850   24.1060 C   0  0  0  0  0  3  0  0  0  0  0  0
  -26.4710  -31.9590   25.4390 C   0  0  1  0  0  0  0  0  0  0  0  0
  -25.3050  -31.7010   26.4210 C   0  0  0  0  0  1  0  0  0  0  0  0
  -27.1330  -30.5970   25.1290 C   0  0  0  0  0  1  0  0  0  0  0  0
  -27.5340  -32.8080   26.1760 C   0  0  0  0  0  1  0  0  0  0  0  0
  -25.6800  -34.0860   24.3750 N   0  0  0  0  0  0  0  0  0  0  0  0
  -26.0420  -35.1260   23.6130 C   0  0  0  0  0  0  0  0  0  0  0  0
  -26.7870  -35.0140   22.6360 O   0  0  0  0  0  0  0  0  0  0  0  0
  -25.0370  -34.2480   25.1360 H   0  0  0  0  0  0  0  0  0  0  0  0
  -24.3020  -36.8640   23.0930 C   0  0  0  0  0  1  0  0  0  0  0  0
  -25.4910  -36.5130   23.9980 C   0  0  0  0  0  3  0  0  0  0  0  0
  -27.5390  -37.4680   24.9580 C   0  0  0  0  0  1  0  0  0  0  0  0
  -26.5040  -37.5880   23.9340 N   0  0  0  0  0  0  0  0  0  0  0  0
  -26.0650  -38.4990   24.0410 H   0  0  0  0  0  0  0  0  0  0  0  0
  1  2  1  0
  3  1  1  0
  4  1  1  0
  5  6  1  0
  6  8  1  0
  7  5  1  0
  7  9  1  0
  9  4  1  0
  9 10  1  0
 10  8  1  0
 10 11  1  0
 11 12  1  0
 13 21  1  0
 14 19  1  0
 15 16  1  0
 15 14  1  0
 17 16  1  0
 17 26  1  0
 17 18  1  0
 19 13  1  0
 19 18  1  0
 20 13  2  0
 21 12  1  0
 21 22  1  0
 23 24  2  0
 24 43  1  0
 25 28  1  0
 25 24  1  0
 26 27  1  0
 26 23  1  0
 27 25  2  0
 28 29  1  0
 29 30  2  0
 31 34  1  0
 31 30  1  0
 32 31  2  0
 33 32  1  0
 33 28  2  0
 34 35  1  0
 35 36  1  0
 36 37  2  0
 38 37  1  0
 38 42  1  0
 39 38  2  0
 40 35  2  0
 40 39  1  0
 41 40  1  0
 43 44  1  0
 44 47  1  0
 44 46  1  0
 45 43  2  0
 48 23  1  0
 48 49  1  0
 50 48  1  0
 51 52  1  0
 51  1  1  0
 52 53  1  0
 53 55  1  0
 53 54  1  0
 55 56  1  0
 56 57  1  0
 58 69  2  0
 59 57  1  0
 59 64  1  0
 60 68  1  0
 60 70  1  0
 61 67  1  0
 61 63  1  0
 62 68  1  0
 63 64  2  0
 63 62  1  0
 65 59  2  0
 66 65  1  0
 66 61  2  0
 67 60  1  0
 68 58  1  0
 70 72  2  0
 71 70  1  0
 73 71  1  0
 74 83  2  0
 74 79  1  0
 75 71  1  0
 75 79  1  0
 76 75  1  0
 77 78  1  0
 77 76  1  0
 78 74  1  0
 79 80  2  0
 80 81  1  0
 82 81  2  0
 83 82  1  0
 84 58  1  0
 84 89  1  0
 84 85  1  0
 85 88  1  1
 85 86  1  0
 87 85  1  0
 89 92  1  0
 90 94  1  0
 90 89  1  0
 91 90  2  0
 94 93  1  0
 96 94  1  0
 96 97  1  0
 96 95  1  0
M  ISO  4  13 100  21 100  56 101  57 101
M  END
>  <TORSDO>  (47) 
F 25

>  <SCORE>  (47) 
-11.042

>  <name>  (47) 
46

>  <ligand_id>  (47) 
46

>  <original_smiles>  (47) 
[H]c1c([H])c([H])c2c(c1[H])C([H])([H])C([H])([H])C([H])([H])C2([H])N([H])C(=O)C1([H])N(C(=O)C([H])(N([H])C(=O)C([H])(N([H])C([H])([H])[H])C([H])([H])[H])C(C([H])([H])[H])(C([H])([H])[H])C([H])([H])[H])C([H])([H])c2c([H])c(OC([H])([H])C([H])([H])N([H])C([H])([H])C([H])([H])[N+]([H])([H])C([H])([H])C3([H])N(C([H])([H])C([H])([H])N([H])C(=O)N4C([H])([H])C([H])([H])C([H])([H])C([H])(n5nc(-c6c([H])c([H])c(Oc7c([H])c([H])c(F)c([H])c7F)c([H])c6[H])c(C(=O)N([H])[H])c5N([H])[H])C4([H])[H])C([H])([H])C([H])([H])C([H])([H])C3([H])[H])c([H])c([H])c2C1([H])[H]

>  <smiles>  (47) 
[H]c1c([H])c([H])c2c(c1[H])C([H])([H])C([H])([H])C([H])([H])C2([H])N([H])C(=O)C1([H])N(C(=O)C([H])(N([H])C(=O)C([H])(N([H])C([H])([H])[H])C([H])([H])[H])C(C([H])([H])[H])(C([H])([H])[H])C([H])([H])[H])C([H])([H])c2c([H])c(OC([H])([H])C([H])([H])N([H])C([H])([H])C([H])([H])[N+]([H])([H])C([H])([H])C3([H])N(C([H])([H])C([H])([H])N([H])C(=O)N4C([H])([H])C([H])([H])C([H])([H])C([H])(n5nc(-c6c([H])c([H])c(Oc7c([H])c([H])c(F)c([H])c7F)c([H])c6[H])c(C(=O)N([H])[H])c5N([H])[H])C4([H])[H])C([H])([H])C([H])([H])C([H])([H])C3([H])[H])c([H])c([H])c2C1([H])[H]

$$$$
47:0:0
     RDKit          3D

 92100  0  0  1  0  0  0  0  0999 V2000
  -29.3410  -20.8800   19.6750 C   0  0  0  0  0  2  0  0  0  0  0  0
  -26.2100  -17.7440   19.5080 C   0  0  0  0  0  3  0  0  0  0  0  0
  -26.0090  -19.0780   19.1600 C   0  0  0  0  0  3  0  0  0  0  0  0
  -27.5040  -17.2930   19.7970 C   0  0  0  0  0  3  0  0  0  0  0  0
  -27.0900  -19.9650   19.1940 C   0  0  0  0  0  3  0  0  0  0  0  0
  -28.6540  -18.1330   19.7840 C   0  0  0  0  0  0  0  0  0  0  0  0
  -28.4070  -19.5890   19.5780 C   0  0  0  0  0  0  0  0  0  0  0  0
  -29.9980  -17.2880   19.9710 C   0  0  0  0  0  2  0  0  0  0  0  0
  -30.6850  -14.6770   20.1440 C   0  0  0  0  0  0  0  0  0  0  0  0
  -30.5430  -12.2850   19.4240 C   0  0  0  0  0  2  0  0  0  0  0  0
  -29.5970  -12.1950   18.2040 C   0  0  0  0  0  2  0  0  0  0  0  0
  -28.1300  -12.0610   18.6570 C   0  0  0  0  0  2  0  0  0  0  0  0
  -27.7480  -13.0890   19.7560 C   0  0  0  0  0  3  0  0  0  0  0  0
  -28.8090  -13.1340   20.8790 C   0  0  0  0  0  2  0  0  0  0  0  0
  -30.1000  -13.4350   20.2450 N   0  0  0  0  0  0  0  0  0  0  0  0
  -31.8630  -14.7840   19.7850 O   0  0  0  0  0  0  0  0  0  0  0  0
  -29.8490  -15.7770   20.2450 N   0  0  0  0  0  0  0  0  0  0  0  0
  -28.9100  -15.5160   20.4990 H   0  0  0  0  0  0  0  0  0  0  0  0
  -25.4090  -13.7740   20.5530 C   0  0  0  0  0  0  0  0  0  0  0  0
  -24.3210  -13.0460   20.9490 C   0  0  0  0  0  0  0  0  0  0  0  0
  -24.7250  -11.6760   20.8930 C   0  0  0  0  0  0  0  0  0  0  0  0
  -26.4070  -12.8540   20.2810 N   0  0  0  0  0  0  0  0  0  0  0  0
  -26.0040  -11.5850   20.5480 N   0  0  0  0  0  0  0  0  0  0  0  0
  -23.9500  -10.4450   21.0920 C   0  0  0  0  0  0  0  0  0  0  0  0
  -24.3810   -9.4360   21.9810 C   0  0  0  0  0  3  0  0  0  0  0  0
  -23.6070   -8.2700   22.1690 C   0  0  0  0  0  3  0  0  0  0  0  0
  -22.3890   -8.1060   21.4670 C   0  0  0  0  0  0  0  0  0  0  0  0
  -21.9760   -9.1030   20.5650 C   0  0  0  0  0  3  0  0  0  0  0  0
  -22.7500  -10.2610   20.3760 C   0  0  0  0  0  3  0  0  0  0  0  0
  -21.5840   -6.9960   21.5670 O   0  0  0  0  0  0  0  0  0  0  0  0
  -21.5730   -6.2150   22.6950 C   0  0  0  0  0  0  0  0  0  0  0  0
  -21.2560   -6.7450   23.9640 C   0  0  0  0  0  3  0  0  0  0  0  0
  -21.1880   -5.8930   25.0860 C   0  0  0  0  0  3  0  0  0  0  0  0
  -21.4260   -4.5130   24.9380 C   0  0  0  0  0  0  0  0  0  0  0  0
  -21.7360   -3.9830   23.6720 C   0  0  0  0  0  3  0  0  0  0  0  0
  -21.8070   -4.8310   22.5540 C   0  0  0  0  0  0  0  0  0  0  0  0
  -22.0840   -4.3130   21.3340 F   0  0  0  0  0  0  0  0  0  0  0  0
  -21.3520   -3.6940   26.0130 F   0  0  0  0  0  0  0  0  0  0  0  0
  -22.9550  -13.5800   21.2660 C   0  0  0  0  0  0  0  0  0  0  0  0
  -22.2280  -12.9130   22.1560 N   0  0  0  0  0  0  0  0  0  0  0  0
  -22.5440  -14.6240   20.7610 O   0  0  0  0  0  0  0  0  0  0  0  0
  -22.5770  -12.0680   22.5840 H   0  0  0  0  0  0  0  0  0  0  0  0
  -21.3130  -13.2510   22.4130 H   0  0  0  0  0  0  0  0  0  0  0  0
  -25.6210  -15.1380   20.3800 N   0  0  0  0  0  0  0  0  0  0  0  0
  -24.8800  -15.8140   20.5210 H   0  0  0  0  0  0  0  0  0  0  0  0
  -26.4670  -15.5570   20.0160 H   0  0  0  0  0  0  0  0  0  0  0  0
  -28.6660  -22.1340   20.2920 N   0  0  0  0  0  4  0  0  0  0  0  0
  -28.7230  -22.0230   21.2930 H   0  0  0  0  0  0  0  0  0  0  0  0
  -27.6930  -22.0210   20.0610 H   0  0  0  0  0  0  0  0  0  0  0  0
  -29.0310  -23.5960   19.9410 C   0  0  0  0  0  3  0  0  0  0  0  0
  -28.1220  -24.7740   20.6060 C   0  0  0  0  0  3  0  0  0  0  0  0
  -28.3740  -26.2520   20.4330 O   0  0  0  0  0  0  0  0  0  0  0  0
  -24.5850  -31.7850   23.2800 C   0  0  0  0  0  0  0  0  0  0  0  0
  -27.2750  -27.1390   20.3790 C   0  0  0  0  0  0  0  0  0  0  0  0
  -23.4340  -30.3720   21.6150 C   0  0  0  0  0  3  0  0  0  0  0  0
  -24.9270  -28.7910   20.2620 C   0  0  0  0  0  0  0  0  0  0  0  0
  -25.9840  -30.6660   21.5210 C   0  0  0  0  0  2  0  0  0  0  0  0
  -26.0790  -29.2750   20.8930 C   0  0  0  0  0  0  0  0  0  0  0  0
  -27.2600  -28.4630   20.9360 C   0  0  0  0  0  3  0  0  0  0  0  0
  -26.1010  -26.7210   19.7180 C   0  0  0  0  0  3  0  0  0  0  0  0
  -24.9420  -27.5210   19.6620 C   0  0  0  0  0  3  0  0  0  0  0  0
  -23.6940  -29.6750   20.2540 C   0  0  0  0  0  2  0  0  0  0  0  0
  -24.6860  -30.9600   22.1940 N   0  0  0  0  0  0  0  0  0  0  0  0
  -23.4840  -32.0750   23.7710 O   0  0  0  0  0  0  0  0  0  0  0  0
  -22.7300  -29.3740   22.5640 C   0  0  0  0  0  0  0  0  0  0  0  0
  -21.4010  -29.2340   22.4190 N   0  0  0  0  0  0  0  0  0  0  0  0
  -23.3790  -28.7270   23.3910 O   0  0  0  0  0  0  0  0  0  0  0  0
  -20.9370  -29.8150   21.7340 H   0  0  0  0  0  0  0  0  0  0  0  0
  -17.9800  -28.1510   22.8960 C   0  0  0  0  0  0  0  0  0  0  0  0
  -20.5460  -28.3130   23.1710 C   0  0  0  0  0  3  0  0  0  0  0  0
  -20.5990  -26.8890   22.5730 C   0  0  0  0  0  2  0  0  0  0  0  0
  -19.4860  -26.6210   21.5540 C   0  0  0  0  0  2  0  0  0  0  0  0
  -18.1090  -26.8070   22.1970 C   0  0  0  0  0  2  0  0  0  0  0  0
  -19.1250  -28.8650   23.3370 C   0  0  0  0  0  0  0  0  0  0  0  0
  -18.9520  -30.1260   23.9460 C   0  0  0  0  0  3  0  0  0  0  0  0
  -17.6660  -30.6720   24.1200 C   0  0  0  0  0  3  0  0  0  0  0  0
  -16.5350  -29.9530   23.6940 C   0  0  0  0  0  3  0  0  0  0  0  0
  -16.6930  -28.6950   23.0880 C   0  0  0  0  0  3  0  0  0  0  0  0
  -25.8480  -32.4180   23.9420 C   0  0  0  0  0  3  0  0  0  0  0  0
  -25.5380  -33.8260   24.2300 N   0  0  0  0  0  0  0  0  0  0  0  0
  -25.8990  -34.8610   23.4580 C   0  0  0  0  0  0  0  0  0  0  0  0
  -26.5950  -34.7300   22.4480 O   0  0  0  0  0  0  0  0  0  0  0  0
  -24.9240  -34.0020   25.0130 H   0  0  0  0  0  0  0  0  0  0  0  0
  -24.1880  -36.6550   23.0280 C   0  0  0  0  0  1  0  0  0  0  0  0
  -25.4110  -36.2630   23.8730 C   0  0  0  0  0  3  0  0  0  0  0  0
  -27.5360  -37.1530   24.7220 C   0  0  0  0  0  1  0  0  0  0  0  0
  -26.4530  -37.3070   23.7560 N   0  0  0  0  0  0  0  0  0  0  0  0
  -26.0490  -38.2330   23.8750 H   0  0  0  0  0  0  0  0  0  0  0  0
  -26.3010  -31.6710   25.2560 C   0  0  1  0  0  0  0  0  0  0  0  0
  -25.1590  -31.4560   26.2770 C   0  0  0  0  0  1  0  0  0  0  0  0
  -26.8970  -30.2840   24.9200 C   0  0  0  0  0  1  0  0  0  0  0  0
  -27.4220  -32.4750   25.9550 C   0  0  0  0  0  1  0  0  0  0  0  0
  1 47  1  0
  2  4  1  0
  3  5  1  0
  3  2  2  0
  5  7  2  0
  6  4  2  0
  6  8  1  0
  7  1  1  0
  7  6  1  0
  8 17  1  0
  9 15  1  0
  9 17  1  0
 10 15  1  0
 11 12  1  0
 11 10  1  0
 13 12  1  0
 13 22  1  0
 13 14  1  0
 15 14  1  0
 16  9  2  0
 17 18  1  0
 19 20  2  0
 20 39  1  0
 21 20  1  0
 21 24  1  0
 22 23  1  0
 22 19  1  0
 23 21  2  0
 24 25  1  0
 25 26  2  0
 27 30  1  0
 27 26  1  0
 28 27  2  0
 29 28  1  0
 29 24  2  0
 30 31  1  0
 31 32  1  0
 32 33  2  0
 34 33  1  0
 34 38  1  0
 35 34  2  0
 36 31  2  0
 36 35  1  0
 37 36  1  0
 39 40  1  0
 40 43  1  0
 40 42  1  0
 41 39  2  0
 44 45  1  0
 44 19  1  0
 46 44  1  0
 47 48  1  0
 49 47  1  0
 50 47  1  0
 50 51  2  0
 52 51  1  0
 53 64  2  0
 54 52  1  0
 54 59  1  0
 55 63  1  0
 55 65  1  0
 56 58  1  0
 57 63  1  0
 58 59  2  0
 58 57  1  0
 60 54  2  0
 61 60  1  0
 61 56  2  0
 62 56  1  0
 62 55  1  0
 63 53  1  0
 65 67  2  0
 66 65  1  0
 68 66  1  0
 69 78  2  0
 69 74  1  0
 70 66  1  0
 70 74  1  0
 71 70  1  0
 72 73  1  0
 72 71  1  0
 73 69  1  0
 74 75  2  0
 75 76  1  0
 77 76  2  0
 78 77  1  0
 79 53  1  0
 79 80  1  0
 79 89  1  0
 80 83  1  0
 81 85  1  0
 81 80  1  0
 82 81  2  0
 85 84  1  0
 87 85  1  0
 87 88  1  0
 87 86  1  0
 89 92  1  1
 89 90  1  0
 91 89  1  0
M  ISO  4   9 100  17 100  51 101  52 101
M  END
>  <TORSDO>  (48) 
F 21

>  <SCORE>  (48) 
-12.620

>  <name>  (48) 
47

>  <ligand_id>  (48) 
47

>  <original_smiles>  (48) 
[H]c1c([H])c([H])c(C([H])([H])[N+]([H])([H])C([H])([H])C([H])([H])Oc2c([H])c([H])c3c(c2[H])C([H])([H])N(C(=O)C([H])(N([H])C(=O)C([H])(N([H])C([H])([H])[H])C([H])([H])[H])C(C([H])([H])[H])(C([H])([H])[H])C([H])([H])[H])C([H])(C(=O)N([H])C2([H])c4c([H])c([H])c([H])c([H])c4C([H])([H])C([H])([H])C2([H])[H])C3([H])[H])c(C([H])([H])N([H])C(=O)N2C([H])([H])C([H])([H])C([H])([H])C([H])(n3nc(-c4c([H])c([H])c(Oc5c([H])c([H])c(F)c([H])c5F)c([H])c4[H])c(C(=O)N([H])[H])c3N([H])[H])C2([H])[H])c1[H]

>  <smiles>  (48) 
[H]c1c([H])c([H])c(C([H])([H])[N+]([H])([H])C([H])([H])C([H])([H])Oc2c([H])c([H])c3c(c2[H])C([H])([H])N(C(=O)C([H])(N([H])C(=O)C([H])(N([H])C([H])([H])[H])C([H])([H])[H])C(C([H])([H])[H])(C([H])([H])[H])C([H])([H])[H])C([H])(C(=O)N([H])C2([H])c4c([H])c([H])c([H])c([H])c4C([H])([H])C([H])([H])C2([H])[H])C3([H])[H])c(C([H])([H])N([H])C(=O)N2C([H])([H])C([H])([H])C([H])([H])C([H])(n3nc(-c4c([H])c([H])c(Oc5c([H])c([H])c(F)c([H])c5F)c([H])c4[H])c(C(=O)N([H])[H])c3N([H])[H])C2([H])[H])c1[H]

$$$$
48:0:0
     RDKit          3D

 95104  0  0  1  0  0  0  0  0999 V2000
  -30.5520  -15.0540   20.3960 C   0  0  0  0  0  0  0  0  0  0  0  0
  -30.4340  -12.6900   19.4840 C   0  0  0  0  0  2  0  0  0  0  0  0
  -29.5090  -12.5470   18.2530 C   0  0  0  0  0  2  0  0  0  0  0  0
  -28.0310  -12.4000   18.6690 C   0  0  0  0  0  2  0  0  0  0  0  0
  -27.6140  -13.3410   19.8320 C   0  0  0  0  0  3  0  0  0  0  0  0
  -28.6650  -13.4000   20.9560 C   0  0  0  0  0  2  0  0  0  0  0  0
  -29.9250  -13.8080   20.3250 N   0  0  0  0  0  0  0  0  0  0  0  0
  -31.7880  -15.0480   20.3780 O   0  0  0  0  0  0  0  0  0  0  0  0
  -30.9350  -17.0870   18.1150 C   0  0  0  0  0  2  0  0  0  0  0  0
  -29.1760  -19.1130   20.5290 C   0  0  0  0  0  2  0  0  0  0  0  0
  -29.6830  -16.3560   18.6260 C   0  0  0  0  0  2  0  0  0  0  0  0
  -32.3110  -18.9710   19.3730 C   0  0  0  0  0  2  0  0  0  0  0  0
  -31.0260  -21.0590   19.9420 C   0  0  0  0  0  2  0  0  0  0  0  0
  -30.9790  -18.2610   19.0690 C   0  0  0  0  0  3  0  0  0  0  0  0
  -30.2270  -17.8070   20.3400 C   0  0  0  0  0  3  0  0  0  0  0  0
  -29.6570  -20.7470   20.6330 C   0  0  0  0  0  3  0  0  0  0  0  0
  -29.8440  -16.2720   20.0880 N   0  0  0  0  0  0  0  0  0  0  0  0
  -32.1190  -20.1230   20.2900 N   0  0  0  0  0  4  0  0  0  0  0  0
  -32.9800  -20.6450   20.2910 H   0  0  0  0  0  0  0  0  0  0  0  0
  -31.9790  -19.8040   21.2350 H   0  0  0  0  0  0  0  0  0  0  0  0
  -25.2290  -13.8970   20.5640 C   0  0  0  0  0  0  0  0  0  0  0  0
  -24.1660  -13.1120   20.9160 C   0  0  0  0  0  0  0  0  0  0  0  0
  -24.6420  -11.7650   20.8920 C   0  0  0  0  0  0  0  0  0  0  0  0
  -26.2810  -13.0290   20.3340 N   0  0  0  0  0  0  0  0  0  0  0  0
  -25.9380  -11.7410   20.6010 N   0  0  0  0  0  0  0  0  0  0  0  0
  -23.9230  -10.4960   21.0680 C   0  0  0  0  0  0  0  0  0  0  0  0
  -24.3450   -9.5340   22.0120 C   0  0  0  0  0  3  0  0  0  0  0  0
  -23.6270   -8.3300   22.1780 C   0  0  0  0  0  3  0  0  0  0  0  0
  -22.4700   -8.0820   21.4000 C   0  0  0  0  0  0  0  0  0  0  0  0
  -22.0660   -9.0340   20.4470 C   0  0  0  0  0  3  0  0  0  0  0  0
  -22.7850  -10.2280   20.2810 C   0  0  0  0  0  3  0  0  0  0  0  0
  -21.7240   -6.9300   21.4740 O   0  0  0  0  0  0  0  0  0  0  0  0
  -21.6500   -6.1930   22.6290 C   0  0  0  0  0  0  0  0  0  0  0  0
  -21.1670   -6.7450   23.8360 C   0  0  0  0  0  3  0  0  0  0  0  0
  -21.0430   -5.9350   24.9820 C   0  0  0  0  0  3  0  0  0  0  0  0
  -21.3890   -4.5720   24.9230 C   0  0  0  0  0  0  0  0  0  0  0  0
  -21.8640   -4.0190   23.7200 C   0  0  0  0  0  3  0  0  0  0  0  0
  -21.9910   -4.8270   22.5770 C   0  0  0  0  0  0  0  0  0  0  0  0
  -22.4290   -4.2830   21.4150 F   0  0  0  0  0  0  0  0  0  0  0  0
  -21.2620   -3.7910   26.0210 F   0  0  0  0  0  0  0  0  0  0  0  0
  -22.7610  -13.5770   21.1610 C   0  0  0  0  0  0  0  0  0  0  0  0
  -22.0280  -12.8830   22.0230 N   0  0  0  0  0  0  0  0  0  0  0  0
  -22.3210  -14.5920   20.6230 O   0  0  0  0  0  0  0  0  0  0  0  0
  -22.3980  -12.0600   22.4790 H   0  0  0  0  0  0  0  0  0  0  0  0
  -21.0850  -13.1730   22.2290 H   0  0  0  0  0  0  0  0  0  0  0  0
  -25.3820  -15.2700   20.3920 N   0  0  0  0  0  0  0  0  0  0  0  0
  -24.6060  -15.9130   20.5000 H   0  0  0  0  0  0  0  0  0  0  0  0
  -26.2380  -15.7230   20.1010 H   0  0  0  0  0  0  0  0  0  0  0  0
  -28.7000  -21.9490   20.3120 N   0  0  0  0  0  0  0  0  0  0  0  0
  -28.1650  -21.7810   18.9580 C   0  0  0  0  0  2  0  0  0  0  0  0
  -26.0890  -21.2530   17.6090 C   0  0  0  0  0  1  0  0  0  0  0  0
  -26.6730  -21.4400   19.0160 C   0  0  0  0  0  2  0  0  0  0  0  0
  -29.0460  -23.4670   20.5220 C   0  0  0  0  0  3  0  0  0  0  0  0
  -27.9820  -24.7480   20.2820 C   0  0  0  0  0  3  0  0  0  0  0  0
  -28.2630  -26.2690   20.3990 O   0  0  0  0  0  0  0  0  0  0  0  0
  -24.6290  -31.9730   23.2960 C   0  0  0  0  0  0  0  0  0  0  0  0
  -27.2030  -27.2410   20.3170 C   0  0  0  0  0  0  0  0  0  0  0  0
  -23.4300  -30.5720   21.6560 C   0  0  0  0  0  3  0  0  0  0  0  0
  -24.8810  -28.9850   20.2500 C   0  0  0  0  0  0  0  0  0  0  0  0
  -25.9840  -30.8300   21.5050 C   0  0  0  0  0  2  0  0  0  0  0  0
  -26.0570  -29.4340   20.8650 C   0  0  0  0  0  0  0  0  0  0  0  0
  -27.2180  -28.5780   20.8790 C   0  0  0  0  0  3  0  0  0  0  0  0
  -25.9970  -26.8840   19.6730 C   0  0  0  0  0  3  0  0  0  0  0  0
  -24.8640  -27.7230   19.6380 C   0  0  0  0  0  3  0  0  0  0  0  0
  -23.6580  -29.8880   20.2820 C   0  0  0  0  0  2  0  0  0  0  0  0
  -24.7010  -31.1450   22.2090 N   0  0  0  0  0  0  0  0  0  0  0  0
  -23.5410  -32.2700   23.8120 O   0  0  0  0  0  0  0  0  0  0  0  0
  -22.7410  -29.5760   22.6220 C   0  0  0  0  0  0  0  0  0  0  0  0
  -21.4120  -29.4100   22.4850 N   0  0  0  0  0  0  0  0  0  0  0  0
  -23.4000  -28.9550   23.4600 O   0  0  0  0  0  0  0  0  0  0  0  0
  -20.9390  -29.9630   21.7850 H   0  0  0  0  0  0  0  0  0  0  0  0
  -18.0190  -28.2370   22.9650 C   0  0  0  0  0  0  0  0  0  0  0  0
  -20.5770  -28.4850   23.2540 C   0  0  0  0  0  3  0  0  0  0  0  0
  -20.6760  -27.0480   22.6930 C   0  0  0  0  0  2  0  0  0  0  0  0
  -19.5810  -26.7230   21.6720 C   0  0  0  0  0  2  0  0  0  0  0  0
  -18.1940  -26.8820   22.3020 C   0  0  0  0  0  2  0  0  0  0  0  0
  -19.1380  -28.9960   23.3980 C   0  0  0  0  0  0  0  0  0  0  0  0
  -18.9190  -30.2640   23.9810 C   0  0  0  0  0  3  0  0  0  0  0  0
  -17.6150  -30.7710   24.1350 C   0  0  0  0  0  3  0  0  0  0  0  0
  -16.5110  -30.0080   23.7180 C   0  0  0  0  0  3  0  0  0  0  0  0
  -16.7140  -28.7430   23.1380 C   0  0  0  0  0  3  0  0  0  0  0  0
  -25.9090  -32.6030   23.9260 C   0  0  0  0  0  3  0  0  0  0  0  0
  -26.4080  -31.8360   25.2130 C   0  0  1  0  0  0  0  0  0  0  0  0
  -25.3020  -31.6070   26.2690 C   0  0  0  0  0  1  0  0  0  0  0  0
  -26.9920  -30.4550   24.8390 C   0  0  0  0  0  1  0  0  0  0  0  0
  -27.5560  -32.6260   25.8830 C   0  0  0  0  0  1  0  0  0  0  0  0
  -25.6040  -34.0060   24.2510 N   0  0  0  0  0  0  0  0  0  0  0  0
  -25.9230  -35.0540   23.4810 C   0  0  0  0  0  0  0  0  0  0  0  0
  -26.5720  -34.9420   22.4370 O   0  0  0  0  0  0  0  0  0  0  0  0
  -25.0290  -34.1680   25.0640 H   0  0  0  0  0  0  0  0  0  0  0  0
  -24.1800  -36.8420   23.1660 C   0  0  0  0  0  1  0  0  0  0  0  0
  -25.4480  -36.4470   23.9390 C   0  0  0  0  0  3  0  0  0  0  0  0
  -27.6050  -37.3460   24.6960 C   0  0  0  0  0  1  0  0  0  0  0  0
  -26.4740  -37.5000   23.7830 N   0  0  0  0  0  0  0  0  0  0  0  0
  -26.0710  -38.4210   23.9350 H   0  0  0  0  0  0  0  0  0  0  0  0
  2  7  1  0
  3  4  1  0
  3  2  1  0
  5  4  1  0
  5 24  1  0
  5  6  1  0
  7  1  1  0
  7  6  1  0
  8  1  2  0
  9 11  1  0
 10 16  1  0
 11 17  1  0
 12 18  1  0
 13 18  1  0
 13 16  1  0
 14  9  1  0
 14 12  1  0
 14 15  1  0
 15 10  1  0
 16 49  1  0
 17 15  1  0
 17  1  1  0
 18 19  1  0
 18 20  1  0
 21 22  2  0
 22 41  1  0
 23 22  1  0
 23 26  1  0
 24 21  1  0
 24 25  1  0
 25 23  2  0
 26 27  1  0
 27 28  2  0
 29 32  1  0
 29 28  1  0
 30 29  2  0
 31 30  1  0
 31 26  2  0
 32 33  1  0
 33 34  1  0
 34 35  2  0
 36 35  1  0
 36 40  1  0
 37 36  2  0
 38 33  2  0
 38 37  1  0
 39 38  1  0
 41 42  1  0
 42 45  1  0
 42 44  1  0
 43 41  2  0
 46 47  1  0
 46 21  1  0
 48 46  1  0
 49 53  1  0
 50 52  1  0
 50 49  1  0
 51 52  1  0
 54 55  1  0
 54 53  2  0
 56 67  2  0
 57 55  1  0
 57 62  1  0
 58 66  1  0
 58 68  1  0
 59 65  1  0
 59 61  1  0
 60 66  1  0
 61 62  2  0
 61 60  1  0
 63 57  2  0
 64 63  1  0
 64 59  2  0
 65 58  1  0
 66 56  1  0
 68 70  2  0
 69 68  1  0
 71 69  1  0
 72 81  2  0
 72 77  1  0
 73 69  1  0
 73 77  1  0
 74 73  1  0
 75 76  1  0
 75 74  1  0
 76 72  1  0
 77 78  2  0
 78 79  1  0
 80 79  2  0
 81 80  1  0
 82 56  1  0
 82 87  1  0
 82 83  1  0
 83 86  1  1
 83 84  1  0
 85 83  1  0
 87 90  1  0
 88 92  1  0
 88 87  1  0
 89 88  2  0
 92 91  1  0
 94 95  1  0
 94 92  1  0
 94 93  1  0
M  ISO  4   1 100  17 100  54 101  55 101
M  END
>  <TORSDO>  (49) 
F 20

>  <SCORE>  (49) 
-13.613

>  <name>  (49) 
48

>  <ligand_id>  (49) 
48

>  <original_smiles>  (49) 
[H]c1c([H])c([H])c2c(c1[H])C([H])([H])C([H])([H])C([H])([H])C2([H])N([H])C(=O)C1([H])N(C(=O)C([H])(N([H])C(=O)C([H])(N([H])C([H])([H])[H])C([H])([H])[H])C(C([H])([H])[H])(C([H])([H])[H])C([H])([H])[H])C([H])([H])c2c([H])c(OC([H])([H])C([H])([H])N(C([H])([H])C([H])([H])C([H])([H])[H])C3([H])C([H])([H])C4([H])N(C(=O)N5C([H])([H])C([H])([H])C([H])([H])C([H])(n6nc(-c7c([H])c([H])c(Oc8c([H])c([H])c(F)c([H])c8F)c([H])c7[H])c(C(=O)N([H])[H])c6N([H])[H])C5([H])[H])C([H])([H])C([H])([H])C4([H])C([H])([H])[N+]([H])([H])C3([H])[H])c([H])c([H])c2C1([H])[H]

>  <smiles>  (49) 
[H]c1c([H])c([H])c2c(c1[H])C([H])([H])C([H])([H])C([H])([H])C2([H])N([H])C(=O)C1([H])N(C(=O)C([H])(N([H])C(=O)C([H])(N([H])C([H])([H])[H])C([H])([H])[H])C(C([H])([H])[H])(C([H])([H])[H])C([H])([H])[H])C([H])([H])c2c([H])c(OC([H])([H])C([H])([H])N(C([H])([H])C([H])([H])C([H])([H])[H])C3([H])C([H])([H])C4([H])N(C(=O)N5C([H])([H])C([H])([H])C([H])([H])C([H])(n6nc(-c7c([H])c([H])c(Oc8c([H])c([H])c(F)c([H])c8F)c([H])c7[H])c(C(=O)N([H])[H])c6N([H])[H])C5([H])[H])C([H])([H])C([H])([H])C4([H])C([H])([H])[N+]([H])([H])C3([H])[H])c([H])c([H])c2C1([H])[H]

$$$$
49:0:0
     RDKit          3D

 96104  0  0  1  0  0  0  0  0999 V2000
  -28.6010  -22.5110   20.0350 N   0  0  0  0  0  0  0  0  0  0  0  0
  -27.2510  -21.9250   20.1260 C   0  0  0  0  0  2  0  0  0  0  0  0
  -26.0480  -22.7140   19.5700 C   0  0  0  0  0  2  0  0  0  0  0  0
  -25.8210  -22.5790   18.0530 C   0  0  0  0  0  2  0  0  0  0  0  0
  -24.4820  -23.0540   17.6500 N   0  0  0  0  0  4  0  0  0  0  0  0
  -24.4000  -23.0440   16.6490 H   0  0  0  0  0  0  0  0  0  0  0  0
  -24.3040  -23.9900   17.9670 H   0  0  0  0  0  0  0  0  0  0  0  0
  -23.7680  -22.4500   18.0200 H   0  0  0  0  0  0  0  0  0  0  0  0
  -29.4670  -21.4990   20.7470 C   0  0  0  0  0  2  0  0  0  0  0  0
  -30.1690  -20.3200   19.9300 C   0  0  0  0  0  2  0  0  0  0  0  0
  -30.6830  -14.6620   20.1120 C   0  0  0  0  0  0  0  0  0  0  0  0
  -30.3740  -12.4440   19.0580 C   0  0  0  0  0  2  0  0  0  0  0  0
  -29.3990  -12.6010   17.8730 C   0  0  0  0  0  2  0  0  0  0  0  0
  -27.9450  -12.4400   18.3570 C   0  0  0  0  0  2  0  0  0  0  0  0
  -27.6300  -13.3040   19.6100 C   0  0  0  0  0  3  0  0  0  0  0  0
  -28.7260  -13.1690   20.6890 C   0  0  0  0  0  2  0  0  0  0  0  0
  -30.0120  -13.4730   20.0510 N   0  0  0  0  0  0  0  0  0  0  0  0
  -31.8690  -14.7460   19.7850 O   0  0  0  0  0  0  0  0  0  0  0  0
  -30.0000  -16.7110   21.3280 C   0  0  0  0  0  2  0  0  0  0  0  0
  -29.7760  -16.5730   18.8800 C   0  0  0  0  0  2  0  0  0  0  0  0
  -29.4260  -18.1860   21.2030 C   0  0  0  0  0  2  0  0  0  0  0  0
  -30.3160  -18.0340   18.9230 C   0  0  0  0  0  2  0  0  0  0  0  0
  -29.9250  -15.8130   20.1450 N   0  0  0  0  0  0  0  0  0  0  0  0
  -29.6010  -18.9050   19.8990 N   0  0  2  0  0  4  0  0  0  0  0  0
  -28.6710  -18.9980   19.5220 H   0  0  0  0  0  0  0  0  0  0  0  0
  -25.2640  -13.8980   20.4090 C   0  0  0  0  0  0  0  0  0  0  0  0
  -24.2070  -13.1240   20.7980 C   0  0  0  0  0  0  0  0  0  0  0  0
  -24.6680  -11.7730   20.7500 C   0  0  0  0  0  0  0  0  0  0  0  0
  -26.3000  -13.0210   20.1410 N   0  0  0  0  0  0  0  0  0  0  0  0
  -25.9490  -11.7370   20.4070 N   0  0  0  0  0  0  0  0  0  0  0  0
  -23.9520  -10.5090   20.9590 C   0  0  0  0  0  0  0  0  0  0  0  0
  -24.3990   -9.5480   21.8910 C   0  0  0  0  0  3  0  0  0  0  0  0
  -23.6800   -8.3480   22.0840 C   0  0  0  0  0  3  0  0  0  0  0  0
  -22.4980   -8.1030   21.3450 C   0  0  0  0  0  0  0  0  0  0  0  0
  -22.0710   -9.0520   20.4000 C   0  0  0  0  0  3  0  0  0  0  0  0
  -22.7920  -10.2430   20.2060 C   0  0  0  0  0  3  0  0  0  0  0  0
  -21.7500   -6.9550   21.4490 O   0  0  0  0  0  0  0  0  0  0  0  0
  -21.7020   -6.2280   22.6110 C   0  0  0  0  0  0  0  0  0  0  0  0
  -21.2650   -6.7950   23.8280 C   0  0  0  0  0  3  0  0  0  0  0  0
  -21.1680   -5.9930   24.9830 C   0  0  0  0  0  3  0  0  0  0  0  0
  -21.4950   -4.6260   24.9190 C   0  0  0  0  0  0  0  0  0  0  0  0
  -21.9220   -4.0570   23.7060 C   0  0  0  0  0  3  0  0  0  0  0  0
  -22.0220   -4.8570   22.5550 C   0  0  0  0  0  0  0  0  0  0  0  0
  -22.4160   -4.3000   21.3840 F   0  0  0  0  0  0  0  0  0  0  0  0
  -21.3910   -3.8530   26.0250 F   0  0  0  0  0  0  0  0  0  0  0  0
  -22.8170  -13.5990   21.1070 C   0  0  0  0  0  0  0  0  0  0  0  0
  -22.1140  -12.8980   21.9900 N   0  0  0  0  0  0  0  0  0  0  0  0
  -22.3650  -14.6250   20.6020 O   0  0  0  0  0  0  0  0  0  0  0  0
  -22.4940  -12.0660   22.4140 H   0  0  0  0  0  0  0  0  0  0  0  0
  -21.1810  -13.1950   22.2420 H   0  0  0  0  0  0  0  0  0  0  0  0
  -25.4290  -15.2710   20.2380 N   0  0  0  0  0  0  0  0  0  0  0  0
  -24.6810  -15.9340   20.3970 H   0  0  0  0  0  0  0  0  0  0  0  0
  -26.2880  -15.7030   19.9220 H   0  0  0  0  0  0  0  0  0  0  0  0
  -28.6440  -23.8940   20.6500 C   0  0  0  0  0  3  0  0  0  0  0  0
  -28.5160  -25.1570   19.6710 C   0  0  0  0  0  3  0  0  0  0  0  0
  -28.4080  -26.5330   20.2180 O   0  0  0  0  0  0  0  0  0  0  0  0
  -24.5820  -31.8720   23.1930 C   0  0  0  0  0  0  0  0  0  0  0  0
  -27.2500  -27.3280   20.1430 C   0  0  0  0  0  0  0  0  0  0  0  0
  -23.3990  -30.4770   21.5340 C   0  0  0  0  0  3  0  0  0  0  0  0
  -24.8700  -28.9290   20.1250 C   0  0  0  0  0  0  0  0  0  0  0  0
  -25.9410  -30.7980   21.3840 C   0  0  0  0  0  2  0  0  0  0  0  0
  -26.0310  -29.4210   20.7350 C   0  0  0  0  0  0  0  0  0  0  0  0
  -27.2190  -28.6300   20.7400 C   0  0  0  0  0  3  0  0  0  0  0  0
  -26.0600  -26.8870   19.5140 C   0  0  0  0  0  3  0  0  0  0  0  0
  -24.8880  -27.6680   19.5110 C   0  0  0  0  0  3  0  0  0  0  0  0
  -23.6300  -29.8000   20.1570 C   0  0  0  0  0  2  0  0  0  0  0  0
  -24.6580  -31.0630   22.0930 N   0  0  0  0  0  0  0  0  0  0  0  0
  -23.4900  -32.1420   23.7140 O   0  0  0  0  0  0  0  0  0  0  0  0
  -22.7300  -29.4550   22.4860 C   0  0  0  0  0  0  0  0  0  0  0  0
  -21.4040  -29.2790   22.3550 N   0  0  0  0  0  0  0  0  0  0  0  0
  -23.4060  -28.8220   23.3030 O   0  0  0  0  0  0  0  0  0  0  0  0
  -20.9150  -29.8430   21.6740 H   0  0  0  0  0  0  0  0  0  0  0  0
  -18.0230  -28.0880   22.8470 C   0  0  0  0  0  0  0  0  0  0  0  0
  -20.5830  -28.3370   23.1180 C   0  0  0  0  0  3  0  0  0  0  0  0
  -20.6800  -26.9100   22.5350 C   0  0  0  0  0  2  0  0  0  0  0  0
  -19.5830  -26.6020   21.5120 C   0  0  0  0  0  2  0  0  0  0  0  0
  -18.1960  -26.7500   22.1440 C   0  0  0  0  0  2  0  0  0  0  0  0
  -19.1440  -28.8420   23.2860 C   0  0  0  0  0  0  0  0  0  0  0  0
  -18.9290  -30.1010   23.8890 C   0  0  0  0  0  3  0  0  0  0  0  0
  -17.6260  -30.6070   24.0550 C   0  0  0  0  0  3  0  0  0  0  0  0
  -16.5190  -29.8500   23.6320 C   0  0  0  0  0  3  0  0  0  0  0  0
  -16.7200  -28.5910   23.0380 C   0  0  0  0  0  3  0  0  0  0  0  0
  -25.8530  -32.5100   23.8290 C   0  0  0  0  0  3  0  0  0  0  0  0
  -26.3650  -31.7390   25.1070 C   0  0  1  0  0  0  0  0  0  0  0  0
  -25.2650  -31.4980   26.1660 C   0  0  0  0  0  1  0  0  0  0  0  0
  -26.9600  -30.3650   24.7170 C   0  0  0  0  0  1  0  0  0  0  0  0
  -27.5030  -32.5410   25.7790 C   0  0  0  0  0  1  0  0  0  0  0  0
  -25.5310  -33.9060   24.1630 N   0  0  0  0  0  0  0  0  0  0  0  0
  -25.8620  -34.9640   23.4110 C   0  0  0  0  0  0  0  0  0  0  0  0
  -26.5400  -34.8690   22.3840 O   0  0  0  0  0  0  0  0  0  0  0  0
  -24.9260  -34.0570   24.9570 H   0  0  0  0  0  0  0  0  0  0  0  0
  -24.1250  -36.7520   23.0590 C   0  0  0  0  0  1  0  0  0  0  0  0
  -25.3630  -36.3470   23.8740 C   0  0  0  0  0  3  0  0  0  0  0  0
  -27.4900  -37.2410   24.7190 C   0  0  0  0  0  1  0  0  0  0  0  0
  -26.3910  -37.4050   23.7710 N   0  0  0  0  0  0  0  0  0  0  0  0
  -25.9790  -38.3230   23.9130 H   0  0  0  0  0  0  0  0  0  0  0  0
  1  2  1  0
  1 54  1  0
  1  9  1  0
  3  2  1  0
  4  3  1  0
  5  7  1  0
  5  8  1  0
  5  4  1  0
  6  5  1  0
 10  9  1  0
 11 23  1  0
 12 17  1  0
 13 14  1  0
 13 12  1  0
 15 14  1  0
 15 29  1  0
 15 16  1  0
 17 11  1  0
 17 16  1  0
 18 11  2  0
 20 22  1  0
 20 23  1  0
 21 19  1  0
 22 24  1  0
 23 19  1  0
 24 10  1  0
 24 21  1  0
 24 25  1  6
 26 27  2  0
 27 46  1  0
 28 27  1  0
 28 31  1  0
 29 30  1  0
 29 26  1  0
 30 28  2  0
 31 32  1  0
 32 33  2  0
 34 37  1  0
 34 33  1  0
 35 34  2  0
 36 35  1  0
 36 31  2  0
 37 38  1  0
 38 39  1  0
 39 40  2  0
 41 40  1  0
 41 45  1  0
 42 41  2  0
 43 38  2  0
 43 42  1  0
 44 43  1  0
 46 47  1  0
 47 50  1  0
 47 49  1  0
 48 46  2  0
 51 52  1  0
 51 26  1  0
 53 51  1  0
 55 56  1  0
 55 54  2  0
 57 68  2  0
 58 56  1  0
 58 63  1  0
 59 67  1  0
 59 69  1  0
 60 66  1  0
 60 62  1  0
 61 67  1  0
 62 63  2  0
 62 61  1  0
 64 58  2  0
 65 64  1  0
 65 60  2  0
 66 59  1  0
 67 57  1  0
 69 71  2  0
 70 69  1  0
 72 70  1  0
 73 82  2  0
 73 78  1  0
 74 70  1  0
 74 78  1  0
 75 74  1  0
 76 77  1  0
 76 75  1  0
 77 73  1  0
 78 79  2  0
 79 80  1  0
 81 80  2  0
 82 81  1  0
 83 57  1  0
 83 88  1  0
 83 84  1  0
 84 87  1  1
 84 85  1  0
 86 84  1  0
 88 91  1  0
 89 93  1  0
 89 88  1  0
 90 89  2  0
 93 92  1  0
 95 93  1  0
 95 96  1  0
 95 94  1  0
M  ISO  4  11 100  23 100  55 101  56 101
M  END
>  <TORSDO>  (50) 
F 24

>  <SCORE>  (50) 
-12.494

>  <name>  (50) 
49

>  <ligand_id>  (50) 
49

>  <original_smiles>  (50) 
[H]c1c([H])c([H])c2c(c1[H])C([H])([H])C([H])([H])C([H])([H])C2([H])N([H])C(=O)C1([H])N(C(=O)C([H])(N([H])C(=O)C([H])(N([H])C([H])([H])[H])C([H])([H])[H])C(C([H])([H])[H])(C([H])([H])[H])C([H])([H])[H])C([H])([H])c2c([H])c(OC([H])([H])C([H])([H])N(C([H])([H])C([H])([H])C([H])([H])[N+]([H])([H])[H])C([H])([H])C([H])([H])[N+]3([H])C([H])([H])C([H])([H])N(C(=O)N4C([H])([H])C([H])([H])C([H])([H])C([H])(n5nc(-c6c([H])c([H])c(Oc7c([H])c([H])c(F)c([H])c7F)c([H])c6[H])c(C(=O)N([H])[H])c5N([H])[H])C4([H])[H])C([H])([H])C3([H])[H])c([H])c([H])c2C1([H])[H]

>  <smiles>  (50) 
[H]c1c([H])c([H])c2c(c1[H])C([H])([H])C([H])([H])C([H])([H])C2([H])N([H])C(=O)C1([H])N(C(=O)C([H])(N([H])C(=O)C([H])(N([H])C([H])([H])[H])C([H])([H])[H])C(C([H])([H])[H])(C([H])([H])[H])C([H])([H])[H])C([H])([H])c2c([H])c(OC([H])([H])C([H])([H])N(C([H])([H])C([H])([H])C([H])([H])[N+]([H])([H])[H])C([H])([H])C([H])([H])[N+]3([H])C([H])([H])C([H])([H])N(C(=O)N4C([H])([H])C([H])([H])C([H])([H])C([H])(n5nc(-c6c([H])c([H])c(Oc7c([H])c([H])c(F)c([H])c7F)c([H])c6[H])c(C(=O)N([H])[H])c5N([H])[H])C4([H])[H])C([H])([H])C3([H])[H])c([H])c([H])c2C1([H])[H]

$$$$
50:0:0
     RDKit          3D

 95104  0  0  1  0  0  0  0  0999 V2000
  -29.1530  -22.1130   16.8260 C   0  0  0  0  0  2  0  0  0  0  0  0
  -29.3940  -21.0900   17.9180 C   0  0  0  0  0  2  0  0  0  0  0  0
  -28.6070  -23.3080   17.5770 C   0  0  0  0  0  2  0  0  0  0  0  0
  -28.9110  -21.7290   19.2410 C   0  0  0  0  0  3  0  0  0  0  0  0
  -29.1270  -23.1790   18.9460 N   0  0  0  0  0  0  0  0  0  0  0  0
  -29.6120  -21.0400   20.4780 C   0  0  0  0  0  2  0  0  0  0  0  0
  -30.0350  -19.6090   20.2200 N   0  0  0  0  0  4  0  0  0  0  0  0
  -29.5030  -19.3080   19.4180 H   0  0  0  0  0  0  0  0  0  0  0  0
  -30.9990  -19.6350   19.9270 H   0  0  0  0  0  0  0  0  0  0  0  0
  -31.9090  -18.2630   22.5980 C   0  0  0  0  0  2  0  0  0  0  0  0
  -31.6290  -16.9110   21.9580 C   0  0  0  0  0  2  0  0  0  0  0  0
  -30.5510  -18.9560   22.5930 C   0  0  0  0  0  2  0  0  0  0  0  0
  -30.5720  -17.1570   20.8520 C   0  0  0  0  0  3  0  0  0  0  0  0
  -29.8710  -18.5410   21.2720 C   0  0  0  0  0  3  0  0  0  0  0  0
  -30.3410  -14.7380   20.1740 C   0  0  0  0  0  0  0  0  0  0  0  0
  -29.9990  -12.5740   19.0130 C   0  0  0  0  0  2  0  0  0  0  0  0
  -28.9930  -12.7590   17.8580 C   0  0  0  0  0  2  0  0  0  0  0  0
  -27.5590  -12.4780   18.3570 C   0  0  0  0  0  2  0  0  0  0  0  0
  -27.2440  -13.2450   19.6660 C   0  0  0  0  0  3  0  0  0  0  0  0
  -28.3900  -13.1500   20.7150 C   0  0  0  0  0  2  0  0  0  0  0  0
  -29.6400  -13.5550   20.0590 N   0  0  0  0  0  0  0  0  0  0  0  0
  -31.4910  -14.7920   19.7390 O   0  0  0  0  0  0  0  0  0  0  0  0
  -28.3890  -16.2360   20.1710 C   0  0  0  0  0  1  0  0  0  0  0  0
  -29.7420  -15.9080   20.6340 N   0  0  0  0  0  0  0  0  0  0  0  0
  -24.8850  -13.7560   20.5200 C   0  0  0  0  0  0  0  0  0  0  0  0
  -23.8730  -12.9370   20.9300 C   0  0  0  0  0  0  0  0  0  0  0  0
  -24.3880  -11.6050   20.8500 C   0  0  0  0  0  0  0  0  0  0  0  0
  -25.9460  -12.9130   20.2240 N   0  0  0  0  0  0  0  0  0  0  0  0
  -25.6590  -11.6180   20.4810 N   0  0  0  0  0  0  0  0  0  0  0  0
  -23.7320  -10.3130   21.0440 C   0  0  0  0  0  0  0  0  0  0  0  0
  -24.2330   -9.3630   21.9570 C   0  0  0  0  0  3  0  0  0  0  0  0
  -23.5680   -8.1330   22.1380 C   0  0  0  0  0  3  0  0  0  0  0  0
  -22.3920   -7.8480   21.4040 C   0  0  0  0  0  0  0  0  0  0  0  0
  -21.9140   -8.7910   20.4770 C   0  0  0  0  0  3  0  0  0  0  0  0
  -22.5820  -10.0120   20.2940 C   0  0  0  0  0  3  0  0  0  0  0  0
  -21.6890   -6.6720   21.5040 O   0  0  0  0  0  0  0  0  0  0  0  0
  -21.6850   -5.9300   22.6570 C   0  0  0  0  0  0  0  0  0  0  0  0
  -21.2270   -6.4610   23.8830 C   0  0  0  0  0  3  0  0  0  0  0  0
  -21.1720   -5.6420   25.0280 C   0  0  0  0  0  3  0  0  0  0  0  0
  -21.5710   -4.2960   24.9500 C   0  0  0  0  0  0  0  0  0  0  0  0
  -22.0270   -3.7640   23.7310 C   0  0  0  0  0  3  0  0  0  0  0  0
  -22.0790   -4.5780   22.5870 C   0  0  0  0  0  0  0  0  0  0  0  0
  -22.4990   -4.0540   21.4100 F   0  0  0  0  0  0  0  0  0  0  0  0
  -21.5070   -3.5100   26.0500 F   0  0  0  0  0  0  0  0  0  0  0  0
  -22.4760  -13.3550   21.2750 C   0  0  0  0  0  0  0  0  0  0  0  0
  -21.8210  -12.6130   22.1610 N   0  0  0  0  0  0  0  0  0  0  0  0
  -21.9770  -14.3740   20.7980 O   0  0  0  0  0  0  0  0  0  0  0  0
  -22.2420  -11.7800   22.5450 H   0  0  0  0  0  0  0  0  0  0  0  0
  -20.8930  -12.8800   22.4590 H   0  0  0  0  0  0  0  0  0  0  0  0
  -24.9800  -15.1340   20.3430 N   0  0  0  0  0  0  0  0  0  0  0  0
  -24.1920  -15.7560   20.4720 H   0  0  0  0  0  0  0  0  0  0  0  0
  -25.7900  -15.5940   19.9430 H   0  0  0  0  0  0  0  0  0  0  0  0
  -28.4750  -24.2070   19.8080 C   0  0  0  0  0  2  0  0  0  0  0  0
  -28.5720  -25.6670   19.2030 C   0  0  0  0  0  2  0  0  0  0  0  0
  -28.3330  -26.7970   20.0710 O   0  0  0  0  0  0  0  0  0  0  0  0
  -24.6010  -31.9700   23.2380 C   0  0  0  0  0  0  0  0  0  0  0  0
  -27.1480  -27.5220   20.0380 C   0  0  0  0  0  0  0  0  0  0  0  0
  -23.3470  -30.5970   21.6050 C   0  0  0  0  0  3  0  0  0  0  0  0
  -24.7540  -29.0620   20.1210 C   0  0  0  0  0  0  0  0  0  0  0  0
  -25.8690  -30.9360   21.3470 C   0  0  0  0  0  2  0  0  0  0  0  0
  -25.9290  -29.5670   20.6900 C   0  0  0  0  0  0  0  0  0  0  0  0
  -27.1180  -28.8020   20.6480 C   0  0  0  0  0  3  0  0  0  0  0  0
  -25.9470  -27.0350   19.4630 C   0  0  0  0  0  3  0  0  0  0  0  0
  -24.7620  -27.7970   19.5040 C   0  0  0  0  0  3  0  0  0  0  0  0
  -23.5170  -29.9260   20.2130 C   0  0  0  0  0  2  0  0  0  0  0  0
  -24.6270  -31.1840   22.1210 N   0  0  0  0  0  0  0  0  0  0  0  0
  -23.5370  -32.2420   23.8070 O   0  0  0  0  0  0  0  0  0  0  0  0
  -22.7080  -29.5730   22.5720 C   0  0  0  0  0  0  0  0  0  0  0  0
  -21.3820  -29.3850   22.4580 N   0  0  0  0  0  0  0  0  0  0  0  0
  -23.4040  -28.9500   23.3770 O   0  0  0  0  0  0  0  0  0  0  0  0
  -20.8830  -29.9450   21.7810 H   0  0  0  0  0  0  0  0  0  0  0  0
  -18.0230  -28.1480   22.9610 C   0  0  0  0  0  0  0  0  0  0  0  0
  -20.5770  -28.4380   23.2300 C   0  0  0  0  0  3  0  0  0  0  0  0
  -20.6960  -27.0080   22.6550 C   0  0  0  0  0  2  0  0  0  0  0  0
  -19.5980  -26.6710   21.6400 C   0  0  0  0  0  2  0  0  0  0  0  0
  -18.2150  -26.8000   22.2850 C   0  0  0  0  0  2  0  0  0  0  0  0
  -19.1330  -28.9230   23.3890 C   0  0  0  0  0  0  0  0  0  0  0  0
  -18.9000  -30.1840   23.9780 C   0  0  0  0  0  3  0  0  0  0  0  0
  -17.5900  -30.6710   24.1470 C   0  0  0  0  0  3  0  0  0  0  0  0
  -16.4950  -29.8910   23.7360 C   0  0  0  0  0  3  0  0  0  0  0  0
  -16.7130  -28.6340   23.1480 C   0  0  0  0  0  3  0  0  0  0  0  0
  -25.9070  -32.5820   23.8360 C   0  0  0  0  0  3  0  0  0  0  0  0
  -25.6250  -33.9830   24.1790 N   0  0  0  0  0  0  0  0  0  0  0  0
  -25.9660  -35.0340   23.4230 C   0  0  0  0  0  0  0  0  0  0  0  0
  -26.6210  -34.9260   22.3820 O   0  0  0  0  0  0  0  0  0  0  0  0
  -25.0460  -34.1420   24.9900 H   0  0  0  0  0  0  0  0  0  0  0  0
  -24.2680  -36.8590   23.0880 C   0  0  0  0  0  1  0  0  0  0  0  0
  -25.5040  -36.4270   23.8930 C   0  0  0  0  0  3  0  0  0  0  0  0
  -27.6570  -37.2680   24.7240 C   0  0  0  0  0  1  0  0  0  0  0  0
  -26.5550  -37.4640   23.7850 N   0  0  0  0  0  0  0  0  0  0  0  0
  -26.1660  -38.3890   23.9390 H   0  0  0  0  0  0  0  0  0  0  0  0
  -26.4400  -31.7990   25.0990 C   0  0  1  0  0  0  0  0  0  0  0  0
  -25.3680  -31.5700   26.1900 C   0  0  0  0  0  1  0  0  0  0  0  0
  -26.9980  -30.4170   24.6840 C   0  0  0  0  0  1  0  0  0  0  0  0
  -27.6130  -32.5760   25.7410 C   0  0  0  0  0  1  0  0  0  0  0  0
  1  3  1  0
  1  2  1  0
  2  4  1  0
  3  5  1  0
  4  6  1  0
  5  4  1  0
  5 53  1  0
  7  6  1  0
  8  7  1  0
  9  7  1  0
 11 10  1  0
 12 10  1  0
 13 24  1  0
 13 14  1  0
 13 11  1  0
 14  7  1  0
 14 12  1  0
 15 24  1  0
 16 21  1  0
 17 18  1  0
 17 16  1  0
 19 18  1  0
 19 28  1  0
 19 20  1  0
 21 15  1  0
 21 20  1  0
 22 15  2  0
 23 24  1  0
 25 26  2  0
 26 45  1  0
 27 26  1  0
 27 30  1  0
 28 29  1  0
 28 25  1  0
 29 27  2  0
 30 31  1  0
 31 32  2  0
 33 36  1  0
 33 32  1  0
 34 33  2  0
 35 34  1  0
 35 30  2  0
 36 37  1  0
 37 38  1  0
 38 39  2  0
 40 39  1  0
 40 44  1  0
 41 40  2  0
 42 37  2  0
 42 41  1  0
 43 42  1  0
 45 46  1  0
 46 49  1  0
 46 48  1  0
 47 45  2  0
 50 51  1  0
 50 25  1  0
 52 50  1  0
 54 53  1  0
 54 55  1  0
 56 67  2  0
 57 55  1  0
 57 62  1  0
 58 66  1  0
 58 68  1  0
 59 65  1  0
 59 61  1  0
 60 66  1  0
 61 60  1  0
 62 61  2  0
 63 64  1  0
 63 57  2  0
 64 59  2  0
 65 58  1  0
 66 56  1  0
 68 70  2  0
 69 68  1  0
 71 69  1  0
 72 81  2  0
 72 77  1  0
 73 69  1  0
 73 77  1  0
 74 73  1  0
 75 76  1  0
 75 74  1  0
 76 72  1  0
 77 78  2  0
 78 79  1  0
 80 79  2  0
 81 80  1  0
 82 56  1  0
 82 83  1  0
 82 92  1  0
 83 86  1  0
 84 88  1  0
 84 83  1  0
 85 84  2  0
 88 87  1  0
 90 88  1  0
 90 91  1  0
 90 89  1  0
 92 95  1  1
 92 93  1  0
 94 92  1  0
M  ISO  4  15 100  24 100  54 101  55 101
M  END
>  <TORSDO>  (51) 
F 21

>  <SCORE>  (51) 
-11.690

>  <name>  (51) 
50

>  <ligand_id>  (51) 
50

>  <original_smiles>  (51) 
[H]c1c([H])c([H])c2c(c1[H])C([H])([H])C([H])([H])C([H])([H])C2([H])N([H])C(=O)C1([H])N(C(=O)C([H])(N([H])C(=O)C([H])(N([H])C([H])([H])[H])C([H])([H])[H])C(C([H])([H])[H])(C([H])([H])[H])C([H])([H])[H])C([H])([H])c2c([H])c(OC([H])([H])C([H])([H])N3C([H])([H])C([H])([H])C([H])([H])C3([H])C([H])([H])[N+]([H])([H])C3([H])C([H])([H])C([H])([H])C([H])([H])C3([H])N(C(=O)N3C([H])([H])C([H])([H])C([H])([H])C([H])(n4nc(-c5c([H])c([H])c(Oc6c([H])c([H])c(F)c([H])c6F)c([H])c5[H])c(C(=O)N([H])[H])c4N([H])[H])C3([H])[H])C([H])([H])[H])c([H])c([H])c2C1([H])[H]

>  <smiles>  (51) 
[H]c1c([H])c([H])c2c(c1[H])C([H])([H])C([H])([H])C([H])([H])C2([H])N([H])C(=O)C1([H])N(C(=O)C([H])(N([H])C(=O)C([H])(N([H])C([H])([H])[H])C([H])([H])[H])C(C([H])([H])[H])(C([H])([H])[H])C([H])([H])[H])C([H])([H])c2c([H])c(OC([H])([H])C([H])([H])N3C([H])([H])C([H])([H])C([H])([H])C3([H])C([H])([H])[N+]([H])([H])C3([H])C([H])([H])C([H])([H])C([H])([H])C3([H])N(C(=O)N3C([H])([H])C([H])([H])C([H])([H])C([H])(n4nc(-c5c([H])c([H])c(Oc6c([H])c([H])c(F)c([H])c6F)c([H])c5[H])c(C(=O)N([H])[H])c4N([H])[H])C3([H])[H])C([H])([H])[H])c([H])c([H])c2C1([H])[H]

$$$$
51:0:0
     RDKit          3D

 98106  0  0  1  0  0  0  0  0999 V2000
  -29.4430  -21.8420   20.1890 C   0  0  0  0  0  3  0  0  0  0  0  0
  -28.9570  -23.3820   20.8010 C   0  0  0  0  0  2  0  0  0  0  0  0
  -28.2760  -24.7230   20.0010 C   0  0  0  0  0  2  0  0  0  0  0  0
  -28.3050  -26.2400   20.4020 O   0  0  0  0  0  0  0  0  0  0  0  0
  -24.5400  -31.9160   23.1550 C   0  0  0  0  0  0  0  0  0  0  0  0
  -27.2390  -27.2030   20.2320 C   0  0  0  0  0  0  0  0  0  0  0  0
  -23.3950  -30.4990   21.4960 C   0  0  0  0  0  3  0  0  0  0  0  0
  -24.8970  -28.9360   20.1060 C   0  0  0  0  0  0  0  0  0  0  0  0
  -25.9470  -30.7900   21.3920 C   0  0  0  0  0  2  0  0  0  0  0  0
  -26.0510  -29.3930   20.7530 C   0  0  0  0  0  0  0  0  0  0  0  0
  -27.2160  -28.5400   20.8050 C   0  0  0  0  0  3  0  0  0  0  0  0
  -26.0690  -26.8610   19.5160 C   0  0  0  0  0  3  0  0  0  0  0  0
  -24.9220  -27.6870   19.4670 C   0  0  0  0  0  3  0  0  0  0  0  0
  -23.6570  -29.8170   20.1240 C   0  0  0  0  0  2  0  0  0  0  0  0
  -24.6470  -31.0910   22.0700 N   0  0  0  0  0  0  0  0  0  0  0  0
  -23.4400  -32.1900   23.6570 O   0  0  0  0  0  0  0  0  0  0  0  0
  -22.7080  -29.4870   22.4490 C   0  0  0  0  0  0  0  0  0  0  0  0
  -21.3820  -29.3120   22.3070 N   0  0  0  0  0  0  0  0  0  0  0  0
  -23.3720  -28.8620   23.2800 O   0  0  0  0  0  0  0  0  0  0  0  0
  -20.9040  -29.8640   21.6080 H   0  0  0  0  0  0  0  0  0  0  0  0
  -17.9970  -28.1130   22.7810 C   0  0  0  0  0  0  0  0  0  0  0  0
  -20.5540  -28.3750   23.0710 C   0  0  0  0  0  3  0  0  0  0  0  0
  -20.6610  -26.9450   22.4930 C   0  0  0  0  0  2  0  0  0  0  0  0
  -19.5670  -26.6250   21.4690 C   0  0  0  0  0  2  0  0  0  0  0  0
  -18.1800  -26.7670   22.1000 C   0  0  0  0  0  2  0  0  0  0  0  0
  -19.1120  -28.8750   23.2220 C   0  0  0  0  0  0  0  0  0  0  0  0
  -18.8850  -30.1350   23.8190 C   0  0  0  0  0  3  0  0  0  0  0  0
  -17.5770  -30.6310   23.9780 C   0  0  0  0  0  3  0  0  0  0  0  0
  -16.4780  -29.8670   23.5520 C   0  0  0  0  0  3  0  0  0  0  0  0
  -16.6900  -28.6100   22.9580 C   0  0  0  0  0  3  0  0  0  0  0  0
  -25.7960  -32.5730   23.8070 C   0  0  0  0  0  3  0  0  0  0  0  0
  -26.3000  -31.8040   25.0910 C   0  0  1  0  0  0  0  0  0  0  0  0
  -25.1890  -31.5390   26.1330 C   0  0  0  0  0  1  0  0  0  0  0  0
  -26.9180  -30.4390   24.7100 C   0  0  0  0  0  1  0  0  0  0  0  0
  -27.4220  -32.6170   25.7790 C   0  0  0  0  0  1  0  0  0  0  0  0
  -25.4500  -33.9620   24.1410 N   0  0  0  0  0  0  0  0  0  0  0  0
  -25.7840  -35.0320   23.4080 C   0  0  0  0  0  0  0  0  0  0  0  0
  -26.4800  -34.9540   22.3920 O   0  0  0  0  0  0  0  0  0  0  0  0
  -24.8260  -34.0940   24.9240 H   0  0  0  0  0  0  0  0  0  0  0  0
  -24.0490  -36.8170   23.0250 C   0  0  0  0  0  1  0  0  0  0  0  0
  -25.2640  -36.4080   23.8720 C   0  0  0  0  0  3  0  0  0  0  0  0
  -27.3550  -37.3080   24.7960 C   0  0  0  0  0  1  0  0  0  0  0  0
  -26.2860  -37.4760   23.8160 N   0  0  0  0  0  0  0  0  0  0  0  0
  -25.8630  -38.3880   23.9600 H   0  0  0  0  0  0  0  0  0  0  0  0
  -30.5600  -22.0820   19.1460 C   0  0  0  0  0  2  0  0  0  0  0  0
  -30.1520  -24.8300   15.7970 C   0  0  0  0  0  2  0  0  0  0  0  0
  -28.9090  -24.2020   16.4500 C   0  0  0  0  0  2  0  0  0  0  0  0
  -31.2700  -25.0160   16.8380 C   0  0  0  0  0  2  0  0  0  0  0  0
  -29.2830  -22.9370   17.2380 C   0  0  0  0  0  2  0  0  0  0  0  0
  -31.5330  -23.7100   17.6050 C   0  0  0  0  0  2  0  0  0  0  0  0
  -30.3150  -23.2110   18.2450 N   0  0  0  0  0  0  0  0  0  0  0  0
  -29.8450  -20.6290   21.1590 N   0  0  0  0  0  0  0  0  0  0  0  0
  -30.3610  -19.1380   20.7840 C   0  0  0  0  0  2  0  0  0  0  0  0
  -29.6000  -17.7800   20.1720 C   0  0  0  0  0  2  0  0  0  0  0  0
  -30.5740  -15.1390   20.3520 C   0  0  0  0  0  0  0  0  0  0  0  0
  -30.4920  -12.7940   19.3840 C   0  0  0  0  0  2  0  0  0  0  0  0
  -29.5610  -12.7810   18.1470 C   0  0  0  0  0  2  0  0  0  0  0  0
  -28.0910  -12.5640   18.5600 C   0  0  0  0  0  2  0  0  0  0  0  0
  -27.6830  -13.4440   19.7700 C   0  0  0  0  0  3  0  0  0  0  0  0
  -28.7390  -13.4210   20.9020 C   0  0  0  0  0  2  0  0  0  0  0  0
  -30.0140  -13.8590   20.3170 N   0  0  0  0  0  0  0  0  0  0  0  0
  -31.7370  -15.2620   19.9540 O   0  0  0  0  0  0  0  0  0  0  0  0
  -29.7670  -16.2700   20.6560 N   0  0  0  0  0  0  0  0  0  0  0  0
  -28.9120  -15.9480   21.0820 H   0  0  0  0  0  0  0  0  0  0  0  0
  -25.2870  -13.9850   20.4960 C   0  0  0  0  0  0  0  0  0  0  0  0
  -24.2300  -13.1940   20.8590 C   0  0  0  0  0  0  0  0  0  0  0  0
  -24.7130  -11.8490   20.8210 C   0  0  0  0  0  0  0  0  0  0  0  0
  -26.3440  -13.1230   20.2550 N   0  0  0  0  0  0  0  0  0  0  0  0
  -26.0070  -11.8320   20.5150 N   0  0  0  0  0  0  0  0  0  0  0  0
  -24.0010  -10.5770   20.9990 C   0  0  0  0  0  0  0  0  0  0  0  0
  -24.4110   -9.6280   21.9620 C   0  0  0  0  0  3  0  0  0  0  0  0
  -23.6970   -8.4210   22.1280 C   0  0  0  0  0  3  0  0  0  0  0  0
  -22.5590   -8.1550   21.3310 C   0  0  0  0  0  0  0  0  0  0  0  0
  -22.1700   -9.0940   20.3570 C   0  0  0  0  0  3  0  0  0  0  0  0
  -22.8840  -10.2910   20.1880 C   0  0  0  0  0  3  0  0  0  0  0  0
  -21.8180   -7.0000   21.4070 O   0  0  0  0  0  0  0  0  0  0  0  0
  -21.7000   -6.2930   22.5780 C   0  0  0  0  0  0  0  0  0  0  0  0
  -21.1460   -6.8700   23.7430 C   0  0  0  0  0  3  0  0  0  0  0  0
  -20.9790   -6.0870   24.9040 C   0  0  0  0  0  3  0  0  0  0  0  0
  -21.3540   -4.7300   24.8990 C   0  0  0  0  0  0  0  0  0  0  0  0
  -21.9000   -4.1540   23.7390 C   0  0  0  0  0  3  0  0  0  0  0  0
  -22.0690   -4.9320   22.5800 C   0  0  0  0  0  0  0  0  0  0  0  0
  -22.5760   -4.3650   21.4590 F   0  0  0  0  0  0  0  0  0  0  0  0
  -21.1880   -3.9780   26.0110 F   0  0  0  0  0  0  0  0  0  0  0  0
  -22.8260  -13.6520   21.1260 C   0  0  0  0  0  0  0  0  0  0  0  0
  -22.1010  -12.9480   21.9860 N   0  0  0  0  0  0  0  0  0  0  0  0
  -22.3790  -14.6740   20.6050 O   0  0  0  0  0  0  0  0  0  0  0  0
  -22.4730  -12.1230   22.4340 H   0  0  0  0  0  0  0  0  0  0  0  0
  -21.1580  -13.2400   22.2000 H   0  0  0  0  0  0  0  0  0  0  0  0
  -25.4320  -15.3590   20.3260 N   0  0  0  0  0  0  0  0  0  0  0  0
  -24.6550  -16.0020   20.4410 H   0  0  0  0  0  0  0  0  0  0  0  0
  -26.2610  -15.8100   19.9630 H   0  0  0  0  0  0  0  0  0  0  0  0
  -30.7990  -21.1470   22.1630 C   0  0  0  0  0  2  0  0  0  0  0  0
  -30.1770  -21.3730   23.5590 C   0  0  0  0  0  2  0  0  0  0  0  0
  -31.1280  -21.9860   24.5020 N   0  0  0  0  0  4  0  0  0  0  0  0
  -31.9550  -21.4230   24.6020 H   0  0  0  0  0  0  0  0  0  0  0  0
  -30.6960  -22.0710   25.4040 H   0  0  0  0  0  0  0  0  0  0  0  0
  -31.3980  -22.9060   24.2010 H   0  0  0  0  0  0  0  0  0  0  0  0
  1 45  1  0
  1  2  1  0
  1 52  1  0
  3  4  1  0
  3  2  1  0
  5 16  2  0
  6  4  1  0
  6 11  1  0
  7 15  1  0
  7 17  1  0
  8 14  1  0
  8 10  1  0
  9 15  1  0
 10 11  2  0
 10  9  1  0
 12  6  2  0
 13 12  1  0
 13  8  2  0
 14  7  1  0
 15  5  1  0
 17 19  2  0
 18 17  1  0
 20 18  1  0
 21 30  2  0
 21 26  1  0
 22 18  1  0
 22 26  1  0
 23 22  1  0
 24 25  1  0
 24 23  1  0
 25 21  1  0
 26 27  2  0
 27 28  1  0
 29 28  2  0
 30 29  1  0
 31  5  1  0
 31 36  1  0
 31 32  1  0
 32 35  1  1
 32 33  1  0
 34 32  1  0
 36 39  1  0
 37 41  1  0
 37 36  1  0
 38 37  2  0
 41 40  1  0
 43 41  1  0
 43 44  1  0
 43 42  1  0
 46 47  1  0
 46 48  1  0
 47 49  1  0
 48 50  1  0
 49 51  1  0
 50 51  1  0
 51 45  1  0
 52 93  1  0
 53 52  1  0
 54 63  1  0
 54 53  1  0
 55 63  1  0
 56 61  1  0
 57 58  1  0
 57 56  1  0
 59 58  1  0
 59 68  1  0
 59 60  1  0
 61 55  1  0
 61 60  1  0
 62 55  2  0
 63 64  1  0
 65 66  2  0
 66 85  1  0
 67 66  1  0
 67 70  1  0
 68 65  1  0
 68 69  1  0
 69 67  2  0
 70 71  1  0
 71 72  2  0
 73 76  1  0
 73 72  1  0
 74 73  2  0
 75 74  1  0
 75 70  2  0
 76 77  1  0
 77 82  2  0
 77 78  1  0
 78 79  2  0
 80 79  1  0
 80 84  1  0
 81 80  2  0
 82 81  1  0
 83 82  1  0
 85 86  1  0
 86 89  1  0
 86 88  1  0
 87 85  2  0
 90 91  1  0
 90 65  1  0
 92 90  1  0
 93 94  1  0
 94 95  1  0
 95 96  1  0
 95 97  1  0
 98 95  1  0
M  ISO  4   3 101   4 101  55 100  63 100
M  END
>  <TORSDO>  (52) 
F 26

>  <SCORE>  (52) 
-13.117

>  <name>  (52) 
51

>  <ligand_id>  (52) 
51

>  <original_smiles>  (52) 
[H]c1c([H])c([H])c2c(c1[H])C([H])([H])C([H])([H])C([H])([H])C2([H])N([H])C(=O)C1([H])N(C(=O)C([H])(N([H])C(=O)C([H])(N([H])C([H])([H])[H])C([H])([H])[H])C(C([H])([H])[H])(C([H])([H])[H])C([H])([H])[H])C([H])([H])c2c([H])c(OC([H])([H])C([H])([H])C([H])(N(C([H])([H])C([H])([H])N([H])C(=O)N3C([H])([H])C([H])([H])C([H])([H])C([H])(n4nc(-c5c([H])c([H])c(Oc6c([H])c([H])c(F)c([H])c6F)c([H])c5[H])c(C(=O)N([H])[H])c4N([H])[H])C3([H])[H])C([H])([H])C([H])([H])[N+]([H])([H])[H])C([H])([H])N3C([H])([H])C([H])([H])C([H])([H])C([H])([H])C3([H])[H])c([H])c([H])c2C1([H])[H]

>  <smiles>  (52) 
[H]c1c([H])c([H])c2c(c1[H])C([H])([H])C([H])([H])C([H])([H])C2([H])N([H])C(=O)C1([H])N(C(=O)C([H])(N([H])C(=O)C([H])(N([H])C([H])([H])[H])C([H])([H])[H])C(C([H])([H])[H])(C([H])([H])[H])C([H])([H])[H])C([H])([H])c2c([H])c(OC([H])([H])C([H])([H])C([H])(N(C([H])([H])C([H])([H])N([H])C(=O)N3C([H])([H])C([H])([H])C([H])([H])C([H])(n4nc(-c5c([H])c([H])c(Oc6c([H])c([H])c(F)c([H])c6F)c([H])c5[H])c(C(=O)N([H])[H])c4N([H])[H])C3([H])[H])C([H])([H])C([H])([H])[N+]([H])([H])[H])C([H])([H])N3C([H])([H])C([H])([H])C([H])([H])C([H])([H])C3([H])[H])c([H])c([H])c2C1([H])[H]

$$$$
52:0:0
     RDKit          3D

100108  0  0  1  0  0  0  0  0999 V2000
  -30.5170  -21.6560   22.4200 C   0  0  0  0  0  2  0  0  0  0  0  0
  -29.6240  -20.9710   20.1720 C   0  0  0  0  0  2  0  0  0  0  0  0
  -30.7900  -23.0630   21.8590 C   0  0  0  0  0  2  0  0  0  0  0  0
  -29.9110  -22.4040   19.6660 C   0  0  0  0  0  2  0  0  0  0  0  0
  -30.5600  -20.5590   21.3310 C   0  0  0  0  0  3  0  0  0  0  0  0
  -29.8360  -23.3930   20.7730 N   0  0  2  0  0  4  0  0  0  0  0  0
  -28.9130  -23.2880   21.1710 H   0  0  0  0  0  0  0  0  0  0  0  0
  -30.1980  -19.1800   21.9470 C   0  0  0  0  0  2  0  0  0  0  0  0
  -30.4300  -18.0180   21.0510 N   0  0  0  0  0  4  0  0  0  0  0  0
  -31.2660  -18.1870   20.5150 H   0  0  0  0  0  0  0  0  0  0  0  0
  -29.6630  -17.9100   20.4060 H   0  0  0  0  0  0  0  0  0  0  0  0
  -30.6370  -16.7500   21.7940 C   0  0  0  0  0  2  0  0  0  0  0  0
  -32.4360  -16.3250   20.0630 C   0  0  0  0  0  1  0  0  0  0  0  0
  -31.4040  -15.6440   21.0060 C   0  0  2  0  0  0  0  0  0  0  0  0
  -30.4700  -14.1040   19.1400 C   0  0  0  0  0  0  0  0  0  0  0  0
  -29.8540  -11.9830   18.0360 C   0  0  0  0  0  2  0  0  0  0  0  0
  -28.6920  -12.1190   17.0380 C   0  0  0  0  0  2  0  0  0  0  0  0
  -27.3400  -11.9740   17.7580 C   0  0  0  0  0  2  0  0  0  0  0  0
  -27.2370  -12.8890   19.0060 C   0  0  0  0  0  3  0  0  0  0  0  0
  -28.4840  -12.7440   19.9080 C   0  0  0  0  0  2  0  0  0  0  0  0
  -29.6900  -12.9930   19.0940 N   0  0  0  0  0  0  0  0  0  0  0  0
  -31.2600  -14.4050   18.2450 O   0  0  0  0  0  0  0  0  0  0  0  0
  -30.4410  -14.7370   20.3300 N   0  0  0  0  0  0  0  0  0  0  0  0
  -29.6940  -14.3980   20.9200 H   0  0  0  0  0  0  0  0  0  0  0  0
  -25.0630  -13.5390   20.2200 C   0  0  0  0  0  0  0  0  0  0  0  0
  -24.0670  -12.7830   20.7800 C   0  0  0  0  0  0  0  0  0  0  0  0
  -24.4620  -11.4210   20.6070 C   0  0  0  0  0  0  0  0  0  0  0  0
  -26.0040  -12.6370   19.7480 N   0  0  0  0  0  0  0  0  0  0  0  0
  -25.6570  -11.3560   20.0350 N   0  0  0  0  0  0  0  0  0  0  0  0
  -23.7460  -10.1730   20.9060 C   0  0  0  0  0  0  0  0  0  0  0  0
  -24.2640   -9.2220   21.8120 C   0  0  0  0  0  3  0  0  0  0  0  0
  -23.5480   -8.0380   22.0960 C   0  0  0  0  0  3  0  0  0  0  0  0
  -22.3000   -7.7980   21.4740 C   0  0  0  0  0  0  0  0  0  0  0  0
  -21.7990   -8.7370   20.5550 C   0  0  0  0  0  3  0  0  0  0  0  0
  -22.5150   -9.9120   20.2700 C   0  0  0  0  0  3  0  0  0  0  0  0
  -21.5470   -6.6650   21.6680 O   0  0  0  0  0  0  0  0  0  0  0  0
  -21.5550   -5.9920   22.8620 C   0  0  0  0  0  0  0  0  0  0  0  0
  -21.1910   -6.6200   24.0730 C   0  0  0  0  0  3  0  0  0  0  0  0
  -21.1460   -5.8740   25.2680 C   0  0  0  0  0  3  0  0  0  0  0  0
  -21.4540   -4.5000   25.2520 C   0  0  0  0  0  0  0  0  0  0  0  0
  -21.8110   -3.8720   24.0460 C   0  0  0  0  0  3  0  0  0  0  0  0
  -21.8580   -4.6150   22.8540 C   0  0  0  0  0  0  0  0  0  0  0  0
  -22.1820   -4.0010   21.6900 F   0  0  0  0  0  0  0  0  0  0  0  0
  -21.4030   -3.7800   26.3970 F   0  0  0  0  0  0  0  0  0  0  0  0
  -22.7770  -13.2890   21.3570 C   0  0  0  0  0  0  0  0  0  0  0  0
  -22.2430  -12.6020   22.3610 N   0  0  0  0  0  0  0  0  0  0  0  0
  -22.2580  -14.3280   20.9510 O   0  0  0  0  0  0  0  0  0  0  0  0
  -22.6780  -11.7590   22.7060 H   0  0  0  0  0  0  0  0  0  0  0  0
  -21.3860  -12.9220   22.7890 H   0  0  0  0  0  0  0  0  0  0  0  0
  -25.2390  -14.9090   20.0560 N   0  0  0  0  0  0  0  0  0  0  0  0
  -24.5370  -15.5830   20.3400 H   0  0  0  0  0  0  0  0  0  0  0  0
  -26.0160  -15.3310   19.5630 H   0  0  0  0  0  0  0  0  0  0  0  0
  -32.1940  -14.8030   22.0560 C   0  0  0  0  0  2  0  0  0  0  0  0
  -32.8190  -13.5830   21.5070 N   0  0  0  0  0  4  0  0  0  0  0  0
  -32.1320  -12.9500   21.1410 H   0  0  0  0  0  0  0  0  0  0  0  0
  -33.3160  -13.1060   22.2390 H   0  0  0  0  0  0  0  0  0  0  0  0
  -33.4800  -13.8070   20.7850 H   0  0  0  0  0  0  0  0  0  0  0  0
  -29.9220  -24.8130   20.3260 C   0  0  0  0  0  2  0  0  0  0  0  0
  -28.6570  -25.5970   20.7160 C   0  0  0  0  0  2  0  0  0  0  0  0
  -28.7120  -26.9270   20.1980 O   0  0  0  0  0  0  0  0  0  0  0  0
  -24.6330  -31.8770   23.2760 C   0  0  0  0  0  0  0  0  0  0  0  0
  -27.5100  -27.5960   20.2000 C   0  0  0  0  0  0  0  0  0  0  0  0
  -23.5180  -30.4600   21.5810 C   0  0  0  0  0  3  0  0  0  0  0  0
  -25.0600  -28.9980   20.1750 C   0  0  0  0  0  0  0  0  0  0  0  0
  -26.0310  -30.9160   21.4520 C   0  0  0  0  0  2  0  0  0  0  0  0
  -26.1820  -29.5590   20.7970 C   0  0  0  0  0  0  0  0  0  0  0  0
  -27.4120  -28.8670   20.8040 C   0  0  0  0  0  3  0  0  0  0  0  0
  -26.3740  -27.0430   19.5690 C   0  0  0  0  0  3  0  0  0  0  0  0
  -25.1500  -27.7370   19.5580 C   0  0  0  0  0  3  0  0  0  0  0  0
  -23.7840  -29.8080   20.1980 C   0  0  0  0  0  2  0  0  0  0  0  0
  -24.7440  -31.0990   22.1620 N   0  0  0  0  0  0  0  0  0  0  0  0
  -23.5290  -32.1010   23.7930 O   0  0  0  0  0  0  0  0  0  0  0  0
  -22.8790  -29.4020   22.5100 C   0  0  0  0  0  0  0  0  0  0  0  0
  -21.5660  -29.1780   22.3460 N   0  0  0  0  0  0  0  0  0  0  0  0
  -23.5640  -28.7870   23.3300 O   0  0  0  0  0  0  0  0  0  0  0  0
  -21.0730  -29.7330   21.6590 H   0  0  0  0  0  0  0  0  0  0  0  0
  -18.2210  -27.8700   22.7360 C   0  0  0  0  0  0  0  0  0  0  0  0
  -20.7610  -28.2030   23.0800 C   0  0  0  0  0  3  0  0  0  0  0  0
  -20.9230  -26.7860   22.4820 C   0  0  0  0  0  2  0  0  0  0  0  0
  -19.8590  -26.4460   21.4350 C   0  0  0  0  0  2  0  0  0  0  0  0
  -18.4570  -26.5380   22.0450 C   0  0  0  0  0  2  0  0  0  0  0  0
  -19.3030  -28.6590   23.2090 C   0  0  0  0  0  0  0  0  0  0  0  0
  -19.0310  -29.9060   23.8110 C   0  0  0  0  0  3  0  0  0  0  0  0
  -17.7080  -30.3660   23.9490 C   0  0  0  0  0  3  0  0  0  0  0  0
  -16.6380  -29.5740   23.4950 C   0  0  0  0  0  3  0  0  0  0  0  0
  -16.8960  -28.3280   22.8950 C   0  0  0  0  0  3  0  0  0  0  0  0
  -25.8800  -32.5420   23.9370 C   0  0  0  0  0  3  0  0  0  0  0  0
  -25.5380  -33.9420   24.2210 N   0  0  0  0  0  0  0  0  0  0  0  0
  -25.8990  -34.9820   23.4580 C   0  0  0  0  0  0  0  0  0  0  0  0
  -26.6260  -34.8670   22.4670 O   0  0  0  0  0  0  0  0  0  0  0  0
  -24.9020  -34.1070   24.9870 H   0  0  0  0  0  0  0  0  0  0  0  0
  -24.1740  -36.7430   22.9670 C   0  0  0  0  0  1  0  0  0  0  0  0
  -25.3700  -36.3720   23.8590 C   0  0  0  0  0  3  0  0  0  0  0  0
  -27.4470  -37.2930   24.7880 C   0  0  0  0  0  1  0  0  0  0  0  0
  -26.3940  -37.4350   23.7850 N   0  0  0  0  0  0  0  0  0  0  0  0
  -25.9710  -38.3530   23.9000 H   0  0  0  0  0  0  0  0  0  0  0  0
  -26.3550  -31.8050   25.2490 C   0  0  1  0  0  0  0  0  0  0  0  0
  -25.2120  -31.5180   26.2490 C   0  0  0  0  0  1  0  0  0  0  0  0
  -27.0300  -30.4570   24.9020 C   0  0  0  0  0  1  0  0  0  0  0  0
  -27.4200  -32.6600   25.9760 C   0  0  0  0  0  1  0  0  0  0  0  0
  2  5  1  0
  3  1  1  0
  4  2  1  0
  4  6  1  0
  5  8  1  0
  5  1  1  0
  6  7  1  1
  6  3  1  0
  9 12  1  0
  9  8  1  0
 10  9  1  0
 11  9  1  0
 14 13  1  6
 14 12  1  0
 14 53  1  0
 15 23  1  0
 16 21  1  0
 17 18  1  0
 17 16  1  0
 19 18  1  0
 19 28  1  0
 19 20  1  0
 21 15  1  0
 21 20  1  0
 22 15  2  0
 23 24  1  0
 23 14  1  0
 25 26  2  0
 26 45  1  0
 27 26  1  0
 27 30  1  0
 28 29  1  0
 28 25  1  0
 29 27  2  0
 30 31  1  0
 31 32  2  0
 33 36  1  0
 33 32  1  0
 34 33  2  0
 35 34  1  0
 35 30  2  0
 36 37  1  0
 37 38  1  0
 38 39  2  0
 40 39  1  0
 40 44  1  0
 41 40  2  0
 42 37  2  0
 42 41  1  0
 43 42  1  0
 45 46  1  0
 46 48  1  0
 46 49  1  0
 47 45  2  0
 50 25  1  0
 50 51  1  0
 52 50  1  0
 54 53  1  0
 54 56  1  0
 55 54  1  0
 57 54  1  0
 58 59  1  0
 58  6  1  0
 60 62  1  0
 60 59  1  0
 61 72  2  0
 62 67  1  0
 63 71  1  0
 63 73  1  0
 64 70  1  0
 64 66  1  0
 65 71  1  0
 66 67  2  0
 66 65  1  0
 68 62  2  0
 69 68  1  0
 69 64  2  0
 70 63  1  0
 71 61  1  0
 73 75  2  0
 74 73  1  0
 76 74  1  0
 77 86  2  0
 77 82  1  0
 78 74  1  0
 78 82  1  0
 79 78  1  0
 80 81  1  0
 80 79  1  0
 81 77  1  0
 82 83  2  0
 83 84  1  0
 85 84  2  0
 86 85  1  0
 87 61  1  0
 87 88  1  0
 87 97  1  0
 88 91  1  0
 89 93  1  0
 89 88  1  0
 90 89  2  0
 93 92  1  0
 95 93  1  0
 95 96  1  0
 95 94  1  0
 97100  1  1
 97 98  1  0
 99 97  1  0
M  ISO  4  15 100  23 100  59 101  60 101
M  END
>  <TORSDO>  (53) 
F 24

>  <SCORE>  (53) 
-9.414

>  <name>  (53) 
52

>  <ligand_id>  (53) 
52

>  <original_smiles>  (53) 
[H]c1c([H])c([H])c2c(c1[H])C([H])([H])C([H])([H])C([H])([H])C2([H])N([H])C(=O)C1([H])N(C(=O)C([H])(N([H])C(=O)C([H])(N([H])C([H])([H])[H])C([H])([H])[H])C(C([H])([H])[H])(C([H])([H])[H])C([H])([H])[H])C([H])([H])c2c([H])c(OC([H])([H])C([H])([H])[N+]3([H])C([H])([H])C([H])([H])C([H])(C([H])([H])[N+]([H])([H])C([H])([H])C(N([H])C(=O)N4C([H])([H])C([H])([H])C([H])([H])C([H])(n5nc(-c6c([H])c([H])c(Oc7c([H])c([H])c(F)c([H])c7F)c([H])c6[H])c(C(=O)N([H])[H])c5N([H])[H])C4([H])[H])(C([H])([H])[H])C([H])([H])[N+]([H])([H])[H])C([H])([H])C3([H])[H])c([H])c([H])c2C1([H])[H]

>  <smiles>  (53) 
[H]c1c([H])c([H])c2c(c1[H])C([H])([H])C([H])([H])C([H])([H])C2([H])N([H])C(=O)C1([H])N(C(=O)C([H])(N([H])C(=O)C([H])(N([H])C([H])([H])[H])C([H])([H])[H])C(C([H])([H])[H])(C([H])([H])[H])C([H])([H])[H])C([H])([H])c2c([H])c(OC([H])([H])C([H])([H])[N+]3([H])C([H])([H])C([H])([H])C([H])(C([H])([H])[N+]([H])([H])C([H])([H])C(N([H])C(=O)N4C([H])([H])C([H])([H])C([H])([H])C([H])(n5nc(-c6c([H])c([H])c(Oc7c([H])c([H])c(F)c([H])c7F)c([H])c6[H])c(C(=O)N([H])[H])c5N([H])[H])C4([H])[H])(C([H])([H])[H])C([H])([H])[N+]([H])([H])[H])C([H])([H])C3([H])[H])c([H])c([H])c2C1([H])[H]

$$$$
53:0:0
     RDKit          3D

100108  0  0  1  0  0  0  0  0999 V2000
  -30.1600  -16.4300   20.3650 C   0  0  0  0  0  0  0  0  0  0  0  0
  -30.1510  -17.5770   19.5310 C   0  0  0  0  0  0  0  0  0  0  0  0
  -30.7110  -15.0580   19.9220 C   0  0  0  0  0  0  0  0  0  0  0  0
  -30.4450  -12.7380   19.0010 C   0  0  0  0  0  2  0  0  0  0  0  0
  -29.4430  -12.7000   17.8240 C   0  0  0  0  0  2  0  0  0  0  0  0
  -28.0050  -12.4870   18.3270 C   0  0  0  0  0  2  0  0  0  0  0  0
  -27.6610  -13.4010   19.5320 C   0  0  0  0  0  3  0  0  0  0  0  0
  -28.7870  -13.4020   20.5870 C   0  0  0  0  0  2  0  0  0  0  0  0
  -30.0340  -13.8340   19.9290 N   0  0  0  0  0  0  0  0  0  0  0  0
  -31.8600  -15.0260   19.4860 O   0  0  0  0  0  0  0  0  0  0  0  0
  -25.3310  -13.9370   20.4590 C   0  0  0  0  0  0  0  0  0  0  0  0
  -24.2900  -13.1370   20.8570 C   0  0  0  0  0  0  0  0  0  0  0  0
  -24.7490  -11.7920   20.7200 C   0  0  0  0  0  0  0  0  0  0  0  0
  -26.3550  -13.0760   20.1050 N   0  0  0  0  0  0  0  0  0  0  0  0
  -26.0190  -11.7780   20.3270 N   0  0  0  0  0  0  0  0  0  0  0  0
  -24.0330  -10.5180   20.8850 C   0  0  0  0  0  0  0  0  0  0  0  0
  -24.5020   -9.5130   21.7610 C   0  0  0  0  0  3  0  0  0  0  0  0
  -23.7810   -8.3100   21.9200 C   0  0  0  0  0  3  0  0  0  0  0  0
  -22.5800   -8.1010   21.2020 C   0  0  0  0  0  0  0  0  0  0  0  0
  -22.1330   -9.0920   20.3120 C   0  0  0  0  0  3  0  0  0  0  0  0
  -22.8540  -10.2880   20.1510 C   0  0  0  0  0  3  0  0  0  0  0  0
  -21.8310   -6.9530   21.2720 O   0  0  0  0  0  0  0  0  0  0  0  0
  -21.8000   -6.1830   22.4080 C   0  0  0  0  0  0  0  0  0  0  0  0
  -21.3570   -6.6970   23.6460 C   0  0  0  0  0  3  0  0  0  0  0  0
  -21.2730   -5.8520   24.7700 C   0  0  0  0  0  3  0  0  0  0  0  0
  -21.6270   -4.4930   24.6580 C   0  0  0  0  0  0  0  0  0  0  0  0
  -22.0640   -3.9790   23.4240 C   0  0  0  0  0  3  0  0  0  0  0  0
  -22.1460   -4.8210   22.3020 C   0  0  0  0  0  0  0  0  0  0  0  0
  -22.5470   -4.3140   21.1110 F   0  0  0  0  0  0  0  0  0  0  0  0
  -21.5380   -3.6790   25.7360 F   0  0  0  0  0  0  0  0  0  0  0  0
  -22.9140  -13.5970   21.2430 C   0  0  0  0  0  0  0  0  0  0  0  0
  -22.2480  -12.8630   22.1300 N   0  0  0  0  0  0  0  0  0  0  0  0
  -22.4380  -14.6380   20.7960 O   0  0  0  0  0  0  0  0  0  0  0  0
  -22.6410  -12.0180   22.5170 H   0  0  0  0  0  0  0  0  0  0  0  0
  -21.3310  -13.1600   22.4330 H   0  0  0  0  0  0  0  0  0  0  0  0
  -25.4800  -15.3160   20.3450 N   0  0  0  0  0  0  0  0  0  0  0  0
  -24.7260  -15.9590   20.5560 H   0  0  0  0  0  0  0  0  0  0  0  0
  -26.3010  -15.7760   19.9730 H   0  0  0  0  0  0  0  0  0  0  0  0
  -30.2500  -21.6880   20.2780 C   0  0  0  0  0  2  0  0  0  0  0  0
  -28.4550  -21.2090   18.8380 C   0  0  0  0  0  2  0  0  0  0  0  0
  -30.7350  -20.2210   19.8140 C   0  0  0  0  0  2  0  0  0  0  0  0
  -28.4330  -19.6850   19.3800 C   0  0  0  0  0  2  0  0  0  0  0  0
  -28.9420  -22.2490   19.7940 N   0  0  0  0  0  0  0  0  0  0  0  0
  -29.7240  -19.1030   19.9080 N   0  0  1  0  0  4  0  0  0  0  0  0
  -29.5450  -19.0890   20.9010 H   0  0  0  0  0  0  0  0  0  0  0  0
  -28.9450  -23.7540   19.3770 C   0  0  0  0  0  3  0  0  0  0  0  0
  -27.8510  -24.9040   19.8610 C   0  0  0  0  0  3  0  0  0  0  0  0
  -28.0500  -26.4280   19.7230 O   0  0  0  0  0  0  0  0  0  0  0  0
  -24.6060  -31.9070   23.2150 C   0  0  0  0  0  0  0  0  0  0  0  0
  -26.9640  -27.3580   19.8200 C   0  0  0  0  0  0  0  0  0  0  0  0
  -23.2980  -30.6030   21.5850 C   0  0  0  0  0  3  0  0  0  0  0  0
  -24.6430  -29.0820   20.0170 C   0  0  0  0  0  0  0  0  0  0  0  0
  -25.8370  -30.8620   21.2810 C   0  0  0  0  0  2  0  0  0  0  0  0
  -25.8590  -29.5010   20.5700 C   0  0  0  0  0  0  0  0  0  0  0  0
  -27.0200  -28.6540   20.4580 C   0  0  0  0  0  3  0  0  0  0  0  0
  -25.7210  -27.0280   19.2370 C   0  0  0  0  0  3  0  0  0  0  0  0
  -24.5820  -27.8560   19.3350 C   0  0  0  0  0  3  0  0  0  0  0  0
  -23.4300  -29.9830   20.1690 C   0  0  0  0  0  2  0  0  0  0  0  0
  -24.6030  -31.1430   22.0820 N   0  0  0  0  0  0  0  0  0  0  0  0
  -23.5550  -32.1800   23.8160 O   0  0  0  0  0  0  0  0  0  0  0  0
  -22.6620  -29.5600   22.5370 C   0  0  0  0  0  0  0  0  0  0  0  0
  -21.3330  -29.3710   22.4360 N   0  0  0  0  0  0  0  0  0  0  0  0
  -23.3620  -28.9200   23.3240 O   0  0  0  0  0  0  0  0  0  0  0  0
  -20.8220  -29.9410   21.7770 H   0  0  0  0  0  0  0  0  0  0  0  0
  -17.9940  -28.0660   22.9440 C   0  0  0  0  0  0  0  0  0  0  0  0
  -20.5440  -28.4030   23.2010 C   0  0  0  0  0  3  0  0  0  0  0  0
  -20.6880  -26.9810   22.6130 C   0  0  0  0  0  2  0  0  0  0  0  0
  -19.5900  -26.6330   21.6010 C   0  0  0  0  0  2  0  0  0  0  0  0
  -18.2070  -26.7300   22.2520 C   0  0  0  0  0  2  0  0  0  0  0  0
  -19.0900  -28.8570   23.3750 C   0  0  0  0  0  0  0  0  0  0  0  0
  -18.8360  -30.1060   23.9830 C   0  0  0  0  0  3  0  0  0  0  0  0
  -17.5180  -30.5630   24.1630 C   0  0  0  0  0  3  0  0  0  0  0  0
  -16.4350  -29.7700   23.7450 C   0  0  0  0  0  3  0  0  0  0  0  0
  -16.6740  -28.5230   23.1400 C   0  0  0  0  0  3  0  0  0  0  0  0
  -25.9260  -32.5000   23.7980 C   0  0  0  0  0  3  0  0  0  0  0  0
  -26.4690  -31.6920   25.0390 C   0  0  1  0  0  0  0  0  0  0  0  0
  -25.4150  -31.4770   26.1510 C   0  0  0  0  0  1  0  0  0  0  0  0
  -26.9870  -30.3010   24.6030 C   0  0  0  0  0  1  0  0  0  0  0  0
  -27.6700  -32.4370   25.6660 C   0  0  0  0  0  1  0  0  0  0  0  0
  -25.6630  -33.8980   24.1720 N   0  0  0  0  0  0  0  0  0  0  0  0
  -26.0090  -34.9640   23.4350 C   0  0  0  0  0  0  0  0  0  0  0  0
  -26.6490  -34.8690   22.3840 O   0  0  0  0  0  0  0  0  0  0  0  0
  -25.0960  -34.0440   24.9920 H   0  0  0  0  0  0  0  0  0  0  0  0
  -24.3370  -36.8280   23.1680 C   0  0  0  0  0  1  0  0  0  0  0  0
  -25.5780  -36.3550   23.9440 C   0  0  0  0  0  3  0  0  0  0  0  0
  -27.7490  -37.1500   24.7730 C   0  0  0  0  0  1  0  0  0  0  0  0
  -26.6450  -37.3740   23.8440 N   0  0  0  0  0  0  0  0  0  0  0  0
  -26.2720  -38.3040   24.0150 H   0  0  0  0  0  0  0  0  0  0  0  0
  -29.7480  -16.5960   21.8390 C   0  0  0  0  0  2  0  0  0  0  0  0
  -30.8970  -16.7180   22.8900 C   0  0  0  0  0  2  0  0  0  0  0  0
  -31.9430  -15.6740   22.8550 N   0  0  0  0  0  4  0  0  0  0  0  0
  -31.5550  -14.7510   22.9420 H   0  0  0  0  0  0  0  0  0  0  0  0
  -32.5640  -15.8070   23.6370 H   0  0  0  0  0  0  0  0  0  0  0  0
  -32.5120  -15.7380   22.0300 H   0  0  0  0  0  0  0  0  0  0  0  0
  -30.5680  -17.5360   18.0460 C   0  0  0  0  0  2  0  0  0  0  0  0
  -32.0900  -17.7250   17.7940 C   0  0  0  0  0  2  0  0  0  0  0  0
  -32.5230  -17.1830   16.4910 N   0  0  0  0  0  4  0  0  0  0  0  0
  -32.3350  -16.1990   16.4330 H   0  0  0  0  0  0  0  0  0  0  0  0
  -33.5170  -17.3000   16.3850 H   0  0  0  0  0  0  0  0  0  0  0  0
  -32.0700  -17.6480   15.7250 H   0  0  0  0  0  0  0  0  0  0  0  0
  1 89  1  0
  2 44  1  0
  2  1  2  0
  3  9  1  0
  3  1  1  0
  4  9  1  0
  5  6  1  0
  5  4  1  0
  7  6  1  0
  7 14  1  0
  7  8  1  0
  9  8  1  0
 10  3  2  0
 11 12  2  0
 12 31  1  0
 13 12  1  0
 13 16  1  0
 14 15  1  0
 14 11  1  0
 15 13  2  0
 16 17  1  0
 17 18  2  0
 19 22  1  0
 19 18  1  0
 20 19  2  0
 21 20  1  0
 21 16  2  0
 22 23  1  0
 23 24  1  0
 24 25  2  0
 26 25  1  0
 26 30  1  0
 27 26  2  0
 28 23  2  0
 28 27  1  0
 29 28  1  0
 31 32  1  0
 32 35  1  0
 32 34  1  0
 33 31  2  0
 36 11  1  0
 36 37  1  0
 38 36  1  0
 40 42  1  0
 40 43  1  0
 41 44  1  0
 41 39  1  0
 42 44  1  0
 43 39  1  0
 44 45  1  1
 46 43  1  0
 46 47  2  0
 48 50  1  0
 48 47  1  0
 49 60  2  0
 50 55  1  0
 51 59  1  0
 51 61  1  0
 52 58  1  0
 52 54  1  0
 53 59  1  0
 54 53  1  0
 55 54  2  0
 56 57  1  0
 56 50  2  0
 57 52  2  0
 58 51  1  0
 59 49  1  0
 61 63  2  0
 62 61  1  0
 64 62  1  0
 65 74  2  0
 65 70  1  0
 66 62  1  0
 66 70  1  0
 67 66  1  0
 68 69  1  0
 68 67  1  0
 69 65  1  0
 70 71  2  0
 71 72  1  0
 73 72  2  0
 74 73  1  0
 75 49  1  0
 75 80  1  0
 75 76  1  0
 76 79  1  1
 76 77  1  0
 78 76  1  0
 80 83  1  0
 81 85  1  0
 81 80  1  0
 82 81  2  0
 85 84  1  0
 87 85  1  0
 87 88  1  0
 87 86  1  0
 89 90  1  0
 91 90  1  0
 91 92  1  0
 91 93  1  0
 94 91  1  0
 95  2  1  0
 96 95  1  0
 97 96  1  0
 98 97  1  0
 99 97  1  0
100 97  1  0
M  ISO  4   1 100   3 100  47 101  48 101
M  END
>  <TORSDO>  (54) 
F 25

>  <SCORE>  (54) 
-10.329

>  <name>  (54) 
53

>  <ligand_id>  (54) 
53

>  <original_smiles>  (54) 
[H]c1c([H])c([H])c2c(c1[H])C([H])([H])C([H])([H])C([H])([H])C2([H])N([H])C(=O)C1([H])N(C(=O)C([H])(N([H])C(=O)C([H])(N([H])C([H])([H])[H])C([H])([H])[H])C(C([H])([H])[H])(C([H])([H])[H])C([H])([H])[H])C([H])([H])c2c([H])c(OC([H])([H])C([H])([H])N3C([H])([H])C([H])([H])[N+]([H])(C(=C(C(=O)N4C([H])([H])C([H])([H])C([H])([H])C([H])(n5nc(-c6c([H])c([H])c(Oc7c([H])c([H])c(F)c([H])c7F)c([H])c6[H])c(C(=O)N([H])[H])c5N([H])[H])C4([H])[H])C([H])([H])C([H])([H])[N+]([H])([H])[H])C([H])([H])C([H])([H])[N+]([H])([H])[H])C([H])([H])C3([H])[H])c([H])c([H])c2C1([H])[H]

>  <smiles>  (54) 
[H]c1c([H])c([H])c2c(c1[H])C([H])([H])C([H])([H])C([H])([H])C2([H])N([H])C(=O)C1([H])N(C(=O)C([H])(N([H])C(=O)C([H])(N([H])C([H])([H])[H])C([H])([H])[H])C(C([H])([H])[H])(C([H])([H])[H])C([H])([H])[H])C([H])([H])c2c([H])c(OC([H])([H])C([H])([H])N3C([H])([H])C([H])([H])[N+]([H])(C(=C(C(=O)N4C([H])([H])C([H])([H])C([H])([H])C([H])(n5nc(-c6c([H])c([H])c(Oc7c([H])c([H])c(F)c([H])c7F)c([H])c6[H])c(C(=O)N([H])[H])c5N([H])[H])C4([H])[H])C([H])([H])C([H])([H])[N+]([H])([H])[H])C([H])([H])C([H])([H])[N+]([H])([H])[H])C([H])([H])C3([H])[H])c([H])c([H])c2C1([H])[H]

$$$$
54:0:0
     RDKit          3D

 93101  0  0  1  0  0  0  0  0999 V2000
  -29.5250  -22.6010   21.2240 C   0  0  0  0  0  2  0  0  0  0  0  0
  -27.9980  -22.4450   19.3170 C   0  0  0  0  0  2  0  0  0  0  0  0
  -30.1290  -21.1580   20.8160 C   0  0  0  0  0  2  0  0  0  0  0  0
  -27.9200  -20.9230   19.8300 C   0  0  0  0  0  2  0  0  0  0  0  0
  -28.8550  -23.5330   20.1180 C   0  0  2  0  0  0  0  0  0  0  0  0
  -29.2330  -20.2010   20.0580 N   0  0  2  0  0  4  0  0  0  0  0  0
  -29.6320  -20.1340   19.1330 H   0  0  0  0  0  0  0  0  0  0  0  0
  -29.8900  -24.1080   19.2230 N   0  0  0  0  0  4  0  0  0  0  0  0
  -30.4240  -23.4260   18.7180 H   0  0  0  0  0  0  0  0  0  0  0  0
  -30.5290  -24.6840   19.7460 H   0  0  0  0  0  0  0  0  0  0  0  0
  -29.4550  -24.7170   18.5450 H   0  0  0  0  0  0  0  0  0  0  0  0
  -28.0450  -24.8670   20.6890 C   0  0  0  0  0  2  0  0  0  0  0  0
  -28.3010  -26.3120   20.2480 O   0  0  0  0  0  0  0  0  0  0  0  0
  -24.6250  -31.8910   23.2370 C   0  0  0  0  0  0  0  0  0  0  0  0
  -27.2280  -27.2450   20.2130 C   0  0  0  0  0  0  0  0  0  0  0  0
  -23.4320  -30.4880   21.6000 C   0  0  0  0  0  3  0  0  0  0  0  0
  -24.8850  -28.9310   20.1720 C   0  0  0  0  0  0  0  0  0  0  0  0
  -25.9790  -30.7800   21.4300 C   0  0  0  0  0  2  0  0  0  0  0  0
  -26.0600  -29.3970   20.7780 C   0  0  0  0  0  0  0  0  0  0  0  0
  -27.2350  -28.5730   20.7790 C   0  0  0  0  0  3  0  0  0  0  0  0
  -26.0330  -26.8590   19.5680 C   0  0  0  0  0  3  0  0  0  0  0  0
  -24.8820  -27.6730   19.5520 C   0  0  0  0  0  3  0  0  0  0  0  0
  -23.6530  -29.8180   20.2190 C   0  0  0  0  0  2  0  0  0  0  0  0
  -24.6980  -31.0740   22.1430 N   0  0  0  0  0  0  0  0  0  0  0  0
  -23.5390  -32.1700   23.7670 O   0  0  0  0  0  0  0  0  0  0  0  0
  -22.7690  -29.4720   22.5590 C   0  0  0  0  0  0  0  0  0  0  0  0
  -21.4440  -29.2830   22.4250 N   0  0  0  0  0  0  0  0  0  0  0  0
  -23.4460  -28.8530   23.3840 O   0  0  0  0  0  0  0  0  0  0  0  0
  -20.9550  -29.8320   21.7330 H   0  0  0  0  0  0  0  0  0  0  0  0
  -18.0720  -28.0680   22.9420 C   0  0  0  0  0  0  0  0  0  0  0  0
  -20.6310  -28.3410   23.1980 C   0  0  0  0  0  3  0  0  0  0  0  0
  -20.7370  -26.9110   22.6200 C   0  0  0  0  0  2  0  0  0  0  0  0
  -19.6330  -26.5850   21.6110 C   0  0  0  0  0  2  0  0  0  0  0  0
  -18.2520  -26.7220   22.2590 C   0  0  0  0  0  2  0  0  0  0  0  0
  -19.1900  -28.8360   23.3670 C   0  0  0  0  0  0  0  0  0  0  0  0
  -18.9670  -30.0980   23.9610 C   0  0  0  0  0  3  0  0  0  0  0  0
  -17.6600  -30.5890   24.1390 C   0  0  0  0  0  3  0  0  0  0  0  0
  -16.5590  -29.8200   23.7290 C   0  0  0  0  0  3  0  0  0  0  0  0
  -16.7650  -28.5620   23.1350 C   0  0  0  0  0  3  0  0  0  0  0  0
  -25.9020  -32.5330   23.8600 C   0  0  0  0  0  3  0  0  0  0  0  0
  -26.4080  -31.7810   25.1510 C   0  0  1  0  0  0  0  0  0  0  0  0
  -25.3050  -31.5460   26.2120 C   0  0  0  0  0  1  0  0  0  0  0  0
  -27.0050  -30.4010   24.7870 C   0  0  0  0  0  1  0  0  0  0  0  0
  -27.5500  -32.5930   25.8100 C   0  0  0  0  0  1  0  0  0  0  0  0
  -25.5880  -33.9340   24.1720 N   0  0  0  0  0  0  0  0  0  0  0  0
  -25.9250  -34.9820   23.4090 C   0  0  0  0  0  0  0  0  0  0  0  0
  -26.6040  -34.8720   22.3830 O   0  0  0  0  0  0  0  0  0  0  0  0
  -24.9820  -34.0960   24.9630 H   0  0  0  0  0  0  0  0  0  0  0  0
  -24.2050  -36.7830   23.0250 C   0  0  0  0  0  1  0  0  0  0  0  0
  -25.4330  -36.3740   23.8520 C   0  0  0  0  0  3  0  0  0  0  0  0
  -27.5530  -37.2620   24.7190 C   0  0  0  0  0  1  0  0  0  0  0  0
  -26.4690  -37.4230   23.7520 N   0  0  0  0  0  0  0  0  0  0  0  0
  -26.0630  -38.3430   23.8900 H   0  0  0  0  0  0  0  0  0  0  0  0
  -29.1050  -18.7040   20.5260 C   0  0  0  0  0  3  0  0  0  0  0  0
  -30.2080  -17.5220   20.2000 C   0  0  0  0  0  3  0  0  0  0  0  0
  -30.6540  -14.8740   20.2320 C   0  0  0  0  0  0  0  0  0  0  0  0
  -30.4670  -12.5720   19.2330 C   0  0  0  0  0  2  0  0  0  0  0  0
  -29.4980  -12.5870   18.0290 C   0  0  0  0  0  2  0  0  0  0  0  0
  -28.0440  -12.4060   18.4990 C   0  0  0  0  0  2  0  0  0  0  0  0
  -27.6850  -13.3110   19.7070 C   0  0  0  0  0  3  0  0  0  0  0  0
  -28.7670  -13.2510   20.8080 C   0  0  0  0  0  2  0  0  0  0  0  0
  -30.0400  -13.6340   20.1820 N   0  0  0  0  0  0  0  0  0  0  0  0
  -31.8270  -14.9720   19.8610 O   0  0  0  0  0  0  0  0  0  0  0  0
  -29.8940  -16.0220   20.4770 N   0  0  0  0  0  0  0  0  0  0  0  0
  -28.9490  -15.8310   20.7800 H   0  0  0  0  0  0  0  0  0  0  0  0
  -25.3090  -13.8940   20.4800 C   0  0  0  0  0  0  0  0  0  0  0  0
  -24.2520  -13.1180   20.8640 C   0  0  0  0  0  0  0  0  0  0  0  0
  -24.7150  -11.7670   20.8140 C   0  0  0  0  0  0  0  0  0  0  0  0
  -26.3500  -13.0190   20.2200 N   0  0  0  0  0  0  0  0  0  0  0  0
  -26.0000  -11.7330   20.4860 N   0  0  0  0  0  0  0  0  0  0  0  0
  -23.9930  -10.5010   21.0040 C   0  0  0  0  0  0  0  0  0  0  0  0
  -24.4300   -9.5320   21.9330 C   0  0  0  0  0  3  0  0  0  0  0  0
  -23.7070   -8.3340   22.1130 C   0  0  0  0  0  3  0  0  0  0  0  0
  -22.5330   -8.0930   21.3580 C   0  0  0  0  0  0  0  0  0  0  0  0
  -22.1150   -9.0490   20.4160 C   0  0  0  0  0  3  0  0  0  0  0  0
  -22.8390  -10.2400   20.2370 C   0  0  0  0  0  3  0  0  0  0  0  0
  -21.7830   -6.9460   21.4470 O   0  0  0  0  0  0  0  0  0  0  0  0
  -21.7260   -6.2080   22.6030 C   0  0  0  0  0  0  0  0  0  0  0  0
  -21.2570   -6.7580   23.8140 C   0  0  0  0  0  3  0  0  0  0  0  0
  -21.1520   -5.9470   24.9620 C   0  0  0  0  0  3  0  0  0  0  0  0
  -21.5060   -4.5860   24.8970 C   0  0  0  0  0  0  0  0  0  0  0  0
  -21.9680   -4.0350   23.6890 C   0  0  0  0  0  3  0  0  0  0  0  0
  -22.0750   -4.8430   22.5430 C   0  0  0  0  0  0  0  0  0  0  0  0
  -22.5000   -4.3030   21.3760 F   0  0  0  0  0  0  0  0  0  0  0  0
  -21.3980   -3.8040   25.9960 F   0  0  0  0  0  0  0  0  0  0  0  0
  -22.8580  -13.5890   21.1610 C   0  0  0  0  0  0  0  0  0  0  0  0
  -22.1430  -12.8800   22.0280 N   0  0  0  0  0  0  0  0  0  0  0  0
  -22.4120  -14.6210   20.6630 O   0  0  0  0  0  0  0  0  0  0  0  0
  -22.5170  -12.0420   22.4500 H   0  0  0  0  0  0  0  0  0  0  0  0
  -21.2100  -13.1810   22.2780 H   0  0  0  0  0  0  0  0  0  0  0  0
  -25.4640  -15.2670   20.3050 N   0  0  0  0  0  0  0  0  0  0  0  0
  -24.6870  -15.9060   20.4260 H   0  0  0  0  0  0  0  0  0  0  0  0
  -26.2780  -15.7050   19.8950 H   0  0  0  0  0  0  0  0  0  0  0  0
  2  4  1  0
  2  5  1  0
  3  1  1  0
  4  6  1  0
  5 12  1  1
  5  1  1  0
  6 54  1  0
  6  3  1  0
  6  7  1  6
  8 10  1  0
  8  5  1  0
  9  8  1  0
 11  8  1  0
 13 12  1  0
 14 25  2  0
 15 13  1  0
 15 20  1  0
 16 24  1  0
 16 26  1  0
 17 23  1  0
 17 19  1  0
 18 24  1  0
 19 20  2  0
 19 18  1  0
 21 15  2  0
 22 21  1  0
 22 17  2  0
 23 16  1  0
 24 14  1  0
 26 28  2  0
 27 26  1  0
 29 27  1  0
 30 39  2  0
 30 35  1  0
 31 27  1  0
 31 35  1  0
 32 31  1  0
 33 34  1  0
 33 32  1  0
 34 30  1  0
 35 36  2  0
 36 37  1  0
 38 37  2  0
 39 38  1  0
 40 14  1  0
 40 45  1  0
 40 41  1  0
 41 44  1  1
 41 42  1  0
 43 41  1  0
 45 48  1  0
 46 50  1  0
 46 45  1  0
 47 46  2  0
 50 49  1  0
 52 50  1  0
 52 53  1  0
 52 51  1  0
 55 64  1  0
 55 54  2  0
 56 64  1  0
 57 62  1  0
 58 59  1  0
 58 57  1  0
 60 59  1  0
 60 69  1  0
 60 61  1  0
 62 56  1  0
 62 61  1  0
 63 56  2  0
 64 65  1  0
 66 67  2  0
 67 86  1  0
 68 67  1  0
 68 71  1  0
 69 66  1  0
 69 70  1  0
 70 68  2  0
 71 72  1  0
 72 73  2  0
 74 77  1  0
 74 73  1  0
 75 74  2  0
 76 75  1  0
 76 71  2  0
 77 78  1  0
 78 79  1  0
 79 80  2  0
 81 80  1  0
 81 85  1  0
 82 81  2  0
 83 78  2  0
 83 82  1  0
 84 83  1  0
 86 87  1  0
 87 90  1  0
 87 89  1  0
 88 86  2  0
 91 92  1  0
 91 66  1  0
 93 91  1  0
M  ISO  4  12 101  13 101  56 100  64 100
M  END
>  <TORSDO>  (55) 
F 20

>  <SCORE>  (55) 
-13.929

>  <name>  (55) 
54

>  <ligand_id>  (55) 
54

>  <original_smiles>  (55) 
[H]c1c([H])c([H])c2c(c1[H])C([H])([H])C([H])([H])C([H])([H])C2([H])N([H])C(=O)C1([H])N(C(=O)C([H])(N([H])C(=O)C([H])(N([H])C([H])([H])[H])C([H])([H])[H])C(C([H])([H])[H])(C([H])([H])[H])C([H])([H])[H])C([H])([H])c2c([H])c(OC([H])([H])C3([N+]([H])([H])[H])C([H])([H])C([H])([H])[N+]([H])(C([H])([H])C([H])([H])N([H])C(=O)N4C([H])([H])C([H])([H])C([H])([H])C([H])(n5nc(-c6c([H])c([H])c(Oc7c([H])c([H])c(F)c([H])c7F)c([H])c6[H])c(C(=O)N([H])[H])c5N([H])[H])C4([H])[H])C([H])([H])C3([H])[H])c([H])c([H])c2C1([H])[H]

>  <smiles>  (55) 
[H]c1c([H])c([H])c2c(c1[H])C([H])([H])C([H])([H])C([H])([H])C2([H])N([H])C(=O)C1([H])N(C(=O)C([H])(N([H])C(=O)C([H])(N([H])C([H])([H])[H])C([H])([H])[H])C(C([H])([H])[H])(C([H])([H])[H])C([H])([H])[H])C([H])([H])c2c([H])c(OC([H])([H])C3([N+]([H])([H])[H])C([H])([H])C([H])([H])[N+]([H])(C([H])([H])C([H])([H])N([H])C(=O)N4C([H])([H])C([H])([H])C([H])([H])C([H])(n5nc(-c6c([H])c([H])c(Oc7c([H])c([H])c(F)c([H])c7F)c([H])c6[H])c(C(=O)N([H])[H])c5N([H])[H])C4([H])[H])C([H])([H])C3([H])[H])c([H])c([H])c2C1([H])[H]

$$$$
55:0:0
     RDKit          3D

 97105  0  0  1  0  0  0  0  0999 V2000
  -30.1980  -23.5460   20.2670 N   0  0  0  0  0  0  0  0  0  0  0  0
  -29.6900  -22.1650   20.1560 C   0  0  0  0  0  2  0  0  0  0  0  0
  -30.4560  -21.1780   21.0900 C   0  0  0  0  0  2  0  0  0  0  0  0
  -30.2030  -17.6210   19.5550 C   0  0  0  0  0  2  0  0  0  0  0  0
  -30.1950  -17.4480   22.0370 C   0  0  0  0  0  2  0  0  0  0  0  0
  -30.5640  -19.1220   19.6710 C   0  0  0  0  0  2  0  0  0  0  0  0
  -30.5530  -18.9490   22.1260 C   0  0  0  0  0  2  0  0  0  0  0  0
  -30.7410  -16.8060   20.7490 C   0  0  0  0  0  3  0  0  0  0  0  0
  -30.0880  -19.7350   20.9460 N   0  0  1  0  0  4  0  0  0  0  0  0
  -29.0790  -19.6930   20.9490 H   0  0  0  0  0  0  0  0  0  0  0  0
  -31.0170  -14.3940   20.0630 C   0  0  0  0  0  0  0  0  0  0  0  0
  -30.6530  -12.2330   18.9340 C   0  0  0  0  0  2  0  0  0  0  0  0
  -29.6640  -12.4400   17.7670 C   0  0  0  0  0  2  0  0  0  0  0  0
  -28.2060  -12.3300   18.2540 C   0  0  0  0  0  2  0  0  0  0  0  0
  -27.9320  -13.1890   19.5180 C   0  0  0  0  0  3  0  0  0  0  0  0
  -29.0220  -12.9480   20.5870 C   0  0  0  0  0  2  0  0  0  0  0  0
  -30.3310  -13.2250   19.9700 N   0  0  0  0  0  0  0  0  0  0  0  0
  -32.1070  -14.5870   19.5180 O   0  0  0  0  0  0  0  0  0  0  0  0
  -30.3520  -15.3890   20.6760 N   0  0  0  0  0  0  0  0  0  0  0  0
  -29.4650  -15.1320   21.0850 H   0  0  0  0  0  0  0  0  0  0  0  0
  -25.5770  -13.8560   20.3180 C   0  0  0  0  0  0  0  0  0  0  0  0
  -24.5060  -13.1100   20.7320 C   0  0  0  0  0  0  0  0  0  0  0  0
  -24.9340  -11.7470   20.6840 C   0  0  0  0  0  0  0  0  0  0  0  0
  -26.5910  -12.9500   20.0490 N   0  0  0  0  0  0  0  0  0  0  0  0
  -26.2090  -11.6760   20.3250 N   0  0  0  0  0  0  0  0  0  0  0  0
  -24.1870  -10.5020   20.9060 C   0  0  0  0  0  0  0  0  0  0  0  0
  -24.5910   -9.5640   21.8820 C   0  0  0  0  0  3  0  0  0  0  0  0
  -23.8470   -8.3820   22.0880 C   0  0  0  0  0  3  0  0  0  0  0  0
  -22.6860   -8.1300   21.3190 C   0  0  0  0  0  0  0  0  0  0  0  0
  -22.3020   -9.0580   20.3340 C   0  0  0  0  0  3  0  0  0  0  0  0
  -23.0460  -10.2310   20.1260 C   0  0  0  0  0  3  0  0  0  0  0  0
  -21.9160   -6.9980   21.4340 O   0  0  0  0  0  0  0  0  0  0  0  0
  -21.7720   -6.3420   22.6300 C   0  0  0  0  0  0  0  0  0  0  0  0
  -21.2610   -6.9880   23.7770 C   0  0  0  0  0  3  0  0  0  0  0  0
  -21.0650   -6.2580   24.9660 C   0  0  0  0  0  3  0  0  0  0  0  0
  -21.3700   -4.8840   25.0080 C   0  0  0  0  0  0  0  0  0  0  0  0
  -21.8750   -4.2390   23.8660 C   0  0  0  0  0  3  0  0  0  0  0  0
  -22.0720   -4.9660   22.6790 C   0  0  0  0  0  0  0  0  0  0  0  0
  -22.5390   -4.3360   21.5740 F   0  0  0  0  0  0  0  0  0  0  0  0
  -21.1760   -4.1810   26.1490 F   0  0  0  0  0  0  0  0  0  0  0  0
  -23.1330  -13.6190   21.0610 C   0  0  0  0  0  0  0  0  0  0  0  0
  -22.4310  -12.9480   21.9670 N   0  0  0  0  0  0  0  0  0  0  0  0
  -22.6920  -14.6470   20.5480 O   0  0  0  0  0  0  0  0  0  0  0  0
  -22.8000  -12.1160   22.4020 H   0  0  0  0  0  0  0  0  0  0  0  0
  -21.5100  -13.2700   22.2290 H   0  0  0  0  0  0  0  0  0  0  0  0
  -25.7670  -15.2220   20.1310 N   0  0  0  0  0  0  0  0  0  0  0  0
  -25.0160  -15.8930   20.2570 H   0  0  0  0  0  0  0  0  0  0  0  0
  -26.6090  -15.6360   19.7510 H   0  0  0  0  0  0  0  0  0  0  0  0
  -31.5660  -23.6550   19.7340 C   0  0  0  0  0  2  0  0  0  0  0  0
  -32.2820  -24.9220   20.2580 C   0  0  0  0  0  2  0  0  0  0  0  0
  -33.6640  -25.0200   19.7620 N   0  0  0  0  0  4  0  0  0  0  0  0
  -34.2060  -24.2230   20.0470 H   0  0  0  0  0  0  0  0  0  0  0  0
  -34.1020  -25.8430   20.1360 H   0  0  0  0  0  0  0  0  0  0  0  0
  -33.6820  -25.0850   18.7610 H   0  0  0  0  0  0  0  0  0  0  0  0
  -29.3200  -24.5120   19.5730 C   0  0  0  0  0  2  0  0  0  0  0  0
  -28.4910  -25.3720   20.5540 C   0  0  0  0  0  2  0  0  0  0  0  0
  -28.4880  -26.7350   20.1110 O   0  0  0  0  0  0  0  0  0  0  0  0
  -24.5740  -31.8070   23.2120 C   0  0  0  0  0  0  0  0  0  0  0  0
  -27.2920  -27.4140   20.1400 C   0  0  0  0  0  0  0  0  0  0  0  0
  -23.3940  -30.3990   21.5530 C   0  0  0  0  0  3  0  0  0  0  0  0
  -24.8740  -28.8790   20.1370 C   0  0  0  0  0  0  0  0  0  0  0  0
  -25.9140  -30.7900   21.3720 C   0  0  0  0  0  2  0  0  0  0  0  0
  -26.0210  -29.4220   20.7320 C   0  0  0  0  0  0  0  0  0  0  0  0
  -27.2330  -28.6980   20.7250 C   0  0  0  0  0  3  0  0  0  0  0  0
  -26.1300  -26.8800   19.5410 C   0  0  0  0  0  3  0  0  0  0  0  0
  -24.9230  -27.6070   19.5390 C   0  0  0  0  0  3  0  0  0  0  0  0
  -23.6210  -29.7240   20.1730 C   0  0  0  0  0  2  0  0  0  0  0  0
  -24.6460  -31.0140   22.1050 N   0  0  0  0  0  0  0  0  0  0  0  0
  -23.4860  -32.0630   23.7460 O   0  0  0  0  0  0  0  0  0  0  0  0
  -22.7480  -29.3670   22.5050 C   0  0  0  0  0  0  0  0  0  0  0  0
  -21.4310  -29.1530   22.3490 N   0  0  0  0  0  0  0  0  0  0  0  0
  -23.4290  -28.7620   23.3370 O   0  0  0  0  0  0  0  0  0  0  0  0
  -20.9430  -29.6950   21.6490 H   0  0  0  0  0  0  0  0  0  0  0  0
  -18.0840  -27.8550   22.7470 C   0  0  0  0  0  0  0  0  0  0  0  0
  -20.6200  -28.2000   23.1050 C   0  0  0  0  0  3  0  0  0  0  0  0
  -20.7890  -26.7660   22.5530 C   0  0  0  0  0  2  0  0  0  0  0  0
  -19.7340  -26.3940   21.5060 C   0  0  0  0  0  2  0  0  0  0  0  0
  -18.3270  -26.5040   22.0980 C   0  0  0  0  0  2  0  0  0  0  0  0
  -19.1610  -28.6590   23.2050 C   0  0  0  0  0  0  0  0  0  0  0  0
  -18.8820  -29.9240   23.7680 C   0  0  0  0  0  3  0  0  0  0  0  0
  -17.5570  -30.3850   23.8790 C   0  0  0  0  0  3  0  0  0  0  0  0
  -16.4930  -29.5800   23.4390 C   0  0  0  0  0  3  0  0  0  0  0  0
  -16.7570  -28.3180   22.8780 C   0  0  0  0  0  3  0  0  0  0  0  0
  -25.8490  -32.4470   23.8440 C   0  0  0  0  0  3  0  0  0  0  0  0
  -26.3630  -31.6790   25.1240 C   0  0  1  0  0  0  0  0  0  0  0  0
  -25.2620  -31.4320   26.1830 C   0  0  0  0  0  1  0  0  0  0  0  0
  -26.9590  -30.3060   24.7310 C   0  0  0  0  0  1  0  0  0  0  0  0
  -27.5020  -32.4810   25.7950 C   0  0  0  0  0  1  0  0  0  0  0  0
  -25.5290  -33.8420   24.1700 N   0  0  0  0  0  0  0  0  0  0  0  0
  -25.8630  -34.8960   23.4110 C   0  0  0  0  0  0  0  0  0  0  0  0
  -26.5450  -34.7950   22.3880 O   0  0  0  0  0  0  0  0  0  0  0  0
  -24.9250  -33.9950   24.9640 H   0  0  0  0  0  0  0  0  0  0  0  0
  -24.1230  -36.6710   23.0360 C   0  0  0  0  0  1  0  0  0  0  0  0
  -25.3590  -36.2810   23.8600 C   0  0  0  0  0  3  0  0  0  0  0  0
  -27.4790  -37.1840   24.7080 C   0  0  0  0  0  1  0  0  0  0  0  0
  -26.3850  -37.3420   23.7550 N   0  0  0  0  0  0  0  0  0  0  0  0
  -25.9700  -38.2580   23.8970 H   0  0  0  0  0  0  0  0  0  0  0  0
  2  1  1  0
  2  3  1  0
  4  6  1  0
  4  8  1  0
  5  7  1  0
  6  9  1  0
  8 19  1  0
  8  5  1  0
  9 10  1  6
  9  3  1  0
  9  7  1  0
 11 19  1  0
 12 17  1  0
 13 14  1  0
 13 12  1  0
 15 14  1  0
 15 24  1  0
 15 16  1  0
 17 11  1  0
 17 16  1  0
 18 11  2  0
 19 20  1  0
 21 22  2  0
 22 41  1  0
 23 22  1  0
 23 26  1  0
 24 21  1  0
 24 25  1  0
 25 23  2  0
 26 27  1  0
 27 28  2  0
 29 32  1  0
 29 28  1  0
 30 29  2  0
 31 30  1  0
 31 26  2  0
 32 33  1  0
 33 38  2  0
 33 34  1  0
 34 35  2  0
 35 36  1  0
 36 40  1  0
 37 36  2  0
 38 37  1  0
 39 38  1  0
 41 42  1  0
 42 45  1  0
 42 44  1  0
 43 41  2  0
 46 47  1  0
 46 21  1  0
 48 46  1  0
 49 50  1  0
 49  1  1  0
 51 52  1  0
 51 53  1  0
 51 50  1  0
 54 51  1  0
 55  1  1  0
 55 56  1  0
 57 59  1  0
 57 56  1  0
 58 69  2  0
 59 64  1  0
 60 68  1  0
 60 70  1  0
 61 67  1  0
 61 63  1  0
 62 68  1  0
 63 62  1  0
 64 63  2  0
 65 59  2  0
 66 65  1  0
 66 61  2  0
 67 60  1  0
 68 58  1  0
 70 72  2  0
 71 70  1  0
 73 71  1  0
 74 83  2  0
 74 79  1  0
 75 71  1  0
 75 79  1  0
 76 75  1  0
 77 78  1  0
 77 76  1  0
 78 74  1  0
 79 80  2  0
 80 81  1  0
 82 81  2  0
 83 82  1  0
 84 58  1  0
 84 89  1  0
 84 85  1  0
 85 88  1  1
 85 86  1  0
 87 85  1  0
 89 92  1  0
 90 94  1  0
 90 89  1  0
 91 90  2  0
 94 93  1  0
 96 94  1  0
 96 97  1  0
 96 95  1  0
M  ISO  4  11 100  19 100  56 101  57 101
M  END
>  <TORSDO>  (56) 
F 24

>  <SCORE>  (56) 
-12.212

>  <name>  (56) 
55

>  <ligand_id>  (56) 
55

>  <original_smiles>  (56) 
[H]c1c([H])c([H])c2c(c1[H])C([H])([H])C([H])([H])C([H])([H])C2([H])N([H])C(=O)C1([H])N(C(=O)C([H])(N([H])C(=O)C([H])(N([H])C([H])([H])[H])C([H])([H])[H])C(C([H])([H])[H])(C([H])([H])[H])C([H])([H])[H])C([H])([H])c2c([H])c(OC([H])([H])C([H])([H])N(C([H])([H])C([H])([H])[N+]([H])([H])[H])C([H])([H])C([H])([H])[N+]3([H])C([H])([H])C([H])([H])C([H])(N([H])C(=O)N4C([H])([H])C([H])([H])C([H])([H])C([H])(n5nc(-c6c([H])c([H])c(Oc7c([H])c([H])c(F)c([H])c7F)c([H])c6[H])c(C(=O)N([H])[H])c5N([H])[H])C4([H])[H])C([H])([H])C3([H])[H])c([H])c([H])c2C1([H])[H]

>  <smiles>  (56) 
[H]c1c([H])c([H])c2c(c1[H])C([H])([H])C([H])([H])C([H])([H])C2([H])N([H])C(=O)C1([H])N(C(=O)C([H])(N([H])C(=O)C([H])(N([H])C([H])([H])[H])C([H])([H])[H])C(C([H])([H])[H])(C([H])([H])[H])C([H])([H])[H])C([H])([H])c2c([H])c(OC([H])([H])C([H])([H])N(C([H])([H])C([H])([H])[N+]([H])([H])[H])C([H])([H])C([H])([H])[N+]3([H])C([H])([H])C([H])([H])C([H])(N([H])C(=O)N4C([H])([H])C([H])([H])C([H])([H])C([H])(n5nc(-c6c([H])c([H])c(Oc7c([H])c([H])c(F)c([H])c7F)c([H])c6[H])c(C(=O)N([H])[H])c5N([H])[H])C4([H])[H])C([H])([H])C3([H])[H])c([H])c([H])c2C1([H])[H]

$$$$
56:0:0
     RDKit          3D

 95103  0  0  1  0  0  0  0  0999 V2000
  -26.9950  -20.6830   20.3050 N   0  0  0  0  0  4  0  0  0  0  0  0
  -26.0340  -20.6570   20.6050 H   0  0  0  0  0  0  0  0  0  0  0  0
  -27.0220  -20.6440   19.2980 H   0  0  0  0  0  0  0  0  0  0  0  0
  -27.7150  -19.4770   20.7760 C   0  0  0  0  0  2  0  0  0  0  0  0
  -31.1930  -14.3840   19.7260 C   0  0  0  0  0  0  0  0  0  0  0  0
  -30.7490  -12.1910   18.7110 C   0  0  0  0  0  2  0  0  0  0  0  0
  -29.6790  -12.3510   17.6120 C   0  0  0  0  0  2  0  0  0  0  0  0
  -28.2580  -12.2510   18.2060 C   0  0  0  0  0  2  0  0  0  0  0  0
  -28.0690  -13.1340   19.4670 C   0  0  0  0  0  3  0  0  0  0  0  0
  -29.2390  -12.9120   20.4500 C   0  0  0  0  0  2  0  0  0  0  0  0
  -30.4860  -13.2180   19.7290 N   0  0  0  0  0  0  0  0  0  0  0  0
  -32.3170  -14.4560   19.2170 O   0  0  0  0  0  0  0  0  0  0  0  0
  -28.9070  -19.1580   19.8620 C   0  0  0  0  0  0  0  0  0  0  0  0
  -29.8120  -17.4170   21.4460 C   0  0  0  0  0  2  0  0  0  0  0  0
  -30.9810  -17.9150   19.4180 C   0  0  0  0  0  2  0  0  0  0  0  0
  -29.7400  -15.9170   21.0620 C   0  0  0  0  0  2  0  0  0  0  0  0
  -30.6270  -16.5690   18.7910 C   0  0  0  0  0  2  0  0  0  0  0  0
  -29.8510  -18.2740   20.2600 N   0  0  0  0  0  0  0  0  0  0  0  0
  -30.4540  -15.5180   19.8240 N   0  0  0  0  0  0  0  0  0  0  0  0
  -28.9620  -19.7180   18.7630 O   0  0  0  0  0  0  0  0  0  0  0  0
  -25.8260  -13.8100   20.5350 C   0  0  0  0  0  0  0  0  0  0  0  0
  -24.7680  -13.0660   20.9820 C   0  0  0  0  0  0  0  0  0  0  0  0
  -25.1260  -11.7010   20.7690 C   0  0  0  0  0  0  0  0  0  0  0  0
  -26.7720  -12.8960   20.0960 N   0  0  0  0  0  0  0  0  0  0  0  0
  -26.3610  -11.6180   20.2870 N   0  0  0  0  0  0  0  0  0  0  0  0
  -24.3440  -10.4680   20.9350 C   0  0  0  0  0  0  0  0  0  0  0  0
  -24.7130   -9.4850   21.8790 C   0  0  0  0  0  3  0  0  0  0  0  0
  -23.9380   -8.3170   22.0370 C   0  0  0  0  0  3  0  0  0  0  0  0
  -22.7780   -8.1240   21.2500 C   0  0  0  0  0  0  0  0  0  0  0  0
  -22.4260   -9.0950   20.2970 C   0  0  0  0  0  3  0  0  0  0  0  0
  -23.2010  -10.2550   20.1380 C   0  0  0  0  0  3  0  0  0  0  0  0
  -21.9790   -7.0080   21.3160 O   0  0  0  0  0  0  0  0  0  0  0  0
  -21.7290   -6.3730   22.5050 C   0  0  0  0  0  0  0  0  0  0  0  0
  -21.1160   -7.0360   23.5900 C   0  0  0  0  0  3  0  0  0  0  0  0
  -20.8120   -6.3260   24.7690 C   0  0  0  0  0  3  0  0  0  0  0  0
  -21.1150   -4.9540   24.8640 C   0  0  0  0  0  0  0  0  0  0  0  0
  -21.7220   -4.2910   23.7830 C   0  0  0  0  0  3  0  0  0  0  0  0
  -22.0260   -4.9990   22.6060 C   0  0  0  0  0  0  0  0  0  0  0  0
  -22.5920   -4.3510   21.5580 F   0  0  0  0  0  0  0  0  0  0  0  0
  -20.8160   -4.2690   25.9910 F   0  0  0  0  0  0  0  0  0  0  0  0
  -23.4520  -13.5940   21.4820 C   0  0  0  0  0  0  0  0  0  0  0  0
  -22.8130  -12.8760   22.3970 N   0  0  0  0  0  0  0  0  0  0  0  0
  -23.0020  -14.6740   21.0940 O   0  0  0  0  0  0  0  0  0  0  0  0
  -23.1910  -12.0060   22.7410 H   0  0  0  0  0  0  0  0  0  0  0  0
  -21.9330  -13.2080   22.7670 H   0  0  0  0  0  0  0  0  0  0  0  0
  -26.0520  -15.1790   20.4460 N   0  0  0  0  0  0  0  0  0  0  0  0
  -25.2990  -15.8420   20.6030 H   0  0  0  0  0  0  0  0  0  0  0  0
  -26.8410  -15.5740   19.9510 H   0  0  0  0  0  0  0  0  0  0  0  0
  -27.5790  -21.9840   20.6950 C   0  0  0  0  0  2  0  0  0  0  0  0
  -27.5920  -22.9540   19.5000 C   0  0  0  0  0  2  0  0  0  0  0  0
  -28.4750  -24.0960   19.7160 N   0  0  0  0  0  0  0  0  0  0  0  0
  -29.3670  -23.8030   20.1070 H   0  0  0  0  0  0  0  0  0  0  0  0
  -28.7420  -24.7330   18.4270 C   0  0  0  0  0  2  0  0  0  0  0  0
  -29.2700  -26.1780   18.5700 C   0  0  0  0  0  2  0  0  0  0  0  0
  -28.8750  -26.8730   19.7570 O   0  0  0  0  0  0  0  0  0  0  0  0
  -24.6300  -31.4780   23.1220 C   0  0  0  0  0  0  0  0  0  0  0  0
  -27.6330  -27.4680   19.7890 C   0  0  0  0  0  0  0  0  0  0  0  0
  -23.5500  -30.0930   21.3820 C   0  0  0  0  0  3  0  0  0  0  0  0
  -25.1260  -28.7660   19.8900 C   0  0  0  0  0  0  0  0  0  0  0  0
  -26.0410  -30.6550   21.2440 C   0  0  0  0  0  2  0  0  0  0  0  0
  -26.2340  -29.3350   20.5270 C   0  0  0  0  0  0  0  0  0  0  0  0
  -27.4840  -28.6830   20.4920 C   0  0  0  0  0  3  0  0  0  0  0  0
  -26.4960  -26.9030   19.1670 C   0  0  0  0  0  3  0  0  0  0  0  0
  -25.2470  -27.5410   19.2190 C   0  0  0  0  0  3  0  0  0  0  0  0
  -23.8240  -29.5210   19.9680 C   0  0  0  0  0  2  0  0  0  0  0  0
  -24.7580  -30.7530   21.9750 N   0  0  0  0  0  0  0  0  0  0  0  0
  -23.5280  -31.6320   23.6630 O   0  0  0  0  0  0  0  0  0  0  0  0
  -22.9750  -28.9620   22.2700 C   0  0  0  0  0  0  0  0  0  0  0  0
  -21.6870  -28.6400   22.0650 N   0  0  0  0  0  0  0  0  0  0  0  0
  -23.6850  -28.3830   23.0960 O   0  0  0  0  0  0  0  0  0  0  0  0
  -21.1740  -29.1670   21.3730 H   0  0  0  0  0  0  0  0  0  0  0  0
  -18.4630  -27.0180   22.2890 C   0  0  0  0  0  0  0  0  0  0  0  0
  -20.9410  -27.5890   22.7580 C   0  0  0  0  0  3  0  0  0  0  0  0
  -21.2640  -26.1930   22.1730 C   0  0  0  0  0  2  0  0  0  0  0  0
  -20.2940  -25.7640   21.0680 C   0  0  0  0  0  2  0  0  0  0  0  0
  -18.8580  -25.7210   21.5990 C   0  0  0  0  0  2  0  0  0  0  0  0
  -19.4410  -27.9020   22.8160 C   0  0  0  0  0  0  0  0  0  0  0  0
  -19.0230  -29.1100   23.4110 C   0  0  0  0  0  3  0  0  0  0  0  0
  -17.6550  -29.4420   23.4880 C   0  0  0  0  0  3  0  0  0  0  0  0
  -16.6890  -28.5560   22.9800 C   0  0  0  0  0  3  0  0  0  0  0  0
  -17.0920  -27.3460   22.3870 C   0  0  0  0  0  3  0  0  0  0  0  0
  -25.8580  -32.1680   23.7920 C   0  0  0  0  0  3  0  0  0  0  0  0
  -26.3800  -31.4000   25.0680 C   0  0  1  0  0  0  0  0  0  0  0  0
  -25.2720  -31.0780   26.0960 C   0  0  0  0  0  1  0  0  0  0  0  0
  -27.0530  -30.0660   24.6660 C   0  0  0  0  0  1  0  0  0  0  0  0
  -27.4610  -32.2480   25.7790 C   0  0  0  0  0  1  0  0  0  0  0  0
  -25.4610  -33.5390   24.1330 N   0  0  0  0  0  0  0  0  0  0  0  0
  -25.7590  -34.6210   23.4000 C   0  0  0  0  0  0  0  0  0  0  0  0
  -26.4720  -34.5720   22.3920 O   0  0  0  0  0  0  0  0  0  0  0  0
  -24.8280  -33.6450   24.9130 H   0  0  0  0  0  0  0  0  0  0  0  0
  -23.9540  -36.3250   22.9990 C   0  0  0  0  0  1  0  0  0  0  0  0
  -25.1770  -35.9690   23.8590 C   0  0  0  0  0  3  0  0  0  0  0  0
  -27.2190  -36.9500   24.8080 C   0  0  0  0  0  1  0  0  0  0  0  0
  -26.1560  -37.0770   23.8140 N   0  0  0  0  0  0  0  0  0  0  0  0
  -25.6940  -37.9710   23.9580 H   0  0  0  0  0  0  0  0  0  0  0  0
  1  2  1  0
  1 49  1  0
  1  4  1  0
  3  1  1  0
  5 11  1  0
  5 19  1  0
  6 11  1  0
  7  8  1  0
  7  6  1  0
  9  8  1  0
  9 24  1  0
  9 10  1  0
 11 10  1  0
 12  5  2  0
 13 18  1  0
 13  4  1  0
 15 18  1  0
 16 14  1  0
 17 15  1  0
 17 19  1  0
 18 14  1  0
 19 16  1  0
 20 13  2  0
 21 22  2  0
 22 41  1  0
 23 26  1  0
 23 22  1  0
 24 25  1  0
 24 21  1  0
 25 23  2  0
 26 27  1  0
 27 28  2  0
 29 32  1  0
 29 28  1  0
 30 29  2  0
 31 30  1  0
 31 26  2  0
 32 33  1  0
 33 38  2  0
 33 34  1  0
 34 35  2  0
 35 36  1  0
 36 40  1  0
 37 36  2  0
 38 37  1  0
 39 38  1  0
 41 42  1  0
 42 44  1  0
 42 45  1  0
 43 41  2  0
 46 21  1  0
 46 47  1  0
 48 46  1  0
 50 51  1  0
 50 49  1  0
 51 52  1  0
 53 54  1  0
 53 51  1  0
 54 55  1  0
 55 57  1  0
 56 67  2  0
 57 62  1  0
 58 66  1  0
 58 68  1  0
 59 65  1  0
 59 61  1  0
 60 66  1  0
 61 60  1  0
 62 61  2  0
 63 64  1  0
 63 57  2  0
 64 59  2  0
 65 58  1  0
 66 56  1  0
 68 70  2  0
 69 68  1  0
 71 69  1  0
 72 81  2  0
 72 77  1  0
 73 69  1  0
 73 77  1  0
 74 73  1  0
 75 76  1  0
 75 74  1  0
 76 72  1  0
 77 78  2  0
 78 79  1  0
 80 79  2  0
 81 80  1  0
 82 56  1  0
 82 87  1  0
 82 83  1  0
 83 86  1  1
 83 84  1  0
 85 83  1  0
 87 90  1  0
 88 92  1  0
 88 87  1  0
 89 88  2  0
 92 91  1  0
 94 92  1  0
 94 95  1  0
 94 93  1  0
M  ISO  4   5 100  19 100  54 101  55 101
M  END
>  <TORSDO>  (57) 
F 22

>  <SCORE>  (57) 
-10.499

>  <name>  (57) 
56

>  <ligand_id>  (57) 
56

>  <original_smiles>  (57) 
[H]c1c([H])c([H])c2c(c1[H])C([H])([H])C([H])([H])C([H])([H])C2([H])N([H])C(=O)C1([H])N(C(=O)C([H])(N([H])C(=O)C([H])(N([H])C([H])([H])[H])C([H])([H])[H])C(C([H])([H])[H])(C([H])([H])[H])C([H])([H])[H])C([H])([H])c2c([H])c(OC([H])([H])C([H])([H])N([H])C([H])([H])C([H])([H])[N+]([H])([H])C([H])([H])C(=O)N3C([H])([H])C([H])([H])N(C(=O)N4C([H])([H])C([H])([H])C([H])([H])C([H])(n5nc(-c6c([H])c([H])c(Oc7c([H])c([H])c(F)c([H])c7F)c([H])c6[H])c(C(=O)N([H])[H])c5N([H])[H])C4([H])[H])C([H])([H])C3([H])[H])c([H])c([H])c2C1([H])[H]

>  <smiles>  (57) 
[H]c1c([H])c([H])c2c(c1[H])C([H])([H])C([H])([H])C([H])([H])C2([H])N([H])C(=O)C1([H])N(C(=O)C([H])(N([H])C(=O)C([H])(N([H])C([H])([H])[H])C([H])([H])[H])C(C([H])([H])[H])(C([H])([H])[H])C([H])([H])[H])C([H])([H])c2c([H])c(OC([H])([H])C([H])([H])N([H])C([H])([H])C([H])([H])[N+]([H])([H])C([H])([H])C(=O)N3C([H])([H])C([H])([H])N(C(=O)N4C([H])([H])C([H])([H])C([H])([H])C([H])(n5nc(-c6c([H])c([H])c(Oc7c([H])c([H])c(F)c([H])c7F)c([H])c6[H])c(C(=O)N([H])[H])c5N([H])[H])C4([H])[H])C([H])([H])C3([H])[H])c([H])c([H])c2C1([H])[H]

$$$$
57:0:0
     RDKit          3D

 95103  0  0  1  0  0  0  0  0999 V2000
  -29.3750  -19.1880   20.5660 C   0  0  0  0  0  3  0  0  0  0  0  0
  -31.1700  -17.9660   19.4610 C   0  0  0  0  0  3  0  0  0  0  0  0
  -31.2310  -20.4040   19.5590 C   0  0  0  0  0  3  0  0  0  0  0  0
  -29.9500  -17.9460   20.1590 C   0  0  0  0  0  0  0  0  0  0  0  0
  -30.0140  -20.4280   20.2770 C   0  0  0  0  0  0  0  0  0  0  0  0
  -31.8060  -19.1820   19.1590 C   0  0  0  0  0  0  0  0  0  0  0  0
  -33.0170  -19.1670   18.4710 N   0  0  0  0  0  0  0  0  0  0  0  0
  -33.3350  -18.2960   18.0530 H   0  0  0  0  0  0  0  0  0  0  0  0
  -33.3080  -19.9860   17.9460 H   0  0  0  0  0  0  0  0  0  0  0  0
  -29.2120  -16.6100   20.3490 C   0  0  0  0  0  2  0  0  0  0  0  0
  -30.5960  -14.5110   20.4890 C   0  0  0  0  0  0  0  0  0  0  0  0
  -30.3650  -12.3350   19.3520 C   0  0  0  0  0  2  0  0  0  0  0  0
  -29.4260  -12.5420   18.1430 C   0  0  0  0  0  2  0  0  0  0  0  0
  -27.9470  -12.4210   18.5550 C   0  0  0  0  0  2  0  0  0  0  0  0
  -27.6080  -13.2350   19.8310 C   0  0  0  0  0  3  0  0  0  0  0  0
  -28.6490  -12.9740   20.9430 C   0  0  0  0  0  2  0  0  0  0  0  0
  -29.9820  -13.2980   20.4000 N   0  0  0  0  0  0  0  0  0  0  0  0
  -31.6900  -14.7400   19.9640 O   0  0  0  0  0  0  0  0  0  0  0  0
  -29.8570  -15.4850   21.0660 N   0  0  0  0  0  0  0  0  0  0  0  0
  -29.2310  -15.1090   21.7640 H   0  0  0  0  0  0  0  0  0  0  0  0
  -25.2050  -13.8700   20.5080 C   0  0  0  0  0  0  0  0  0  0  0  0
  -24.1280  -13.1080   20.8780 C   0  0  0  0  0  0  0  0  0  0  0  0
  -24.5780  -11.7530   20.8570 C   0  0  0  0  0  0  0  0  0  0  0  0
  -26.2450  -12.9790   20.2910 N   0  0  0  0  0  0  0  0  0  0  0  0
  -25.8690  -11.7020   20.5580 N   0  0  0  0  0  0  0  0  0  0  0  0
  -23.8450  -10.4980   21.0500 C   0  0  0  0  0  0  0  0  0  0  0  0
  -24.2820   -9.5250   21.9750 C   0  0  0  0  0  3  0  0  0  0  0  0
  -23.5510   -8.3340   22.1580 C   0  0  0  0  0  3  0  0  0  0  0  0
  -22.3670   -8.1060   21.4170 C   0  0  0  0  0  0  0  0  0  0  0  0
  -21.9500   -9.0660   20.4800 C   0  0  0  0  0  3  0  0  0  0  0  0
  -22.6820  -10.2510   20.2950 C   0  0  0  0  0  3  0  0  0  0  0  0
  -21.6060   -6.9670   21.5080 O   0  0  0  0  0  0  0  0  0  0  0  0
  -21.5790   -6.2080   22.6510 C   0  0  0  0  0  0  0  0  0  0  0  0
  -21.2020   -6.7540   23.8970 C   0  0  0  0  0  3  0  0  0  0  0  0
  -21.1210   -5.9250   25.0330 C   0  0  0  0  0  3  0  0  0  0  0  0
  -21.4040   -4.5500   24.9250 C   0  0  0  0  0  0  0  0  0  0  0  0
  -21.7750   -4.0050   23.6830 C   0  0  0  0  0  3  0  0  0  0  0  0
  -21.8590   -4.8310   22.5500 C   0  0  0  0  0  0  0  0  0  0  0  0
  -22.1940   -4.2960   21.3500 F   0  0  0  0  0  0  0  0  0  0  0  0
  -21.3190   -3.7500   26.0140 F   0  0  0  0  0  0  0  0  0  0  0  0
  -22.7350  -13.5990   21.1380 C   0  0  0  0  0  0  0  0  0  0  0  0
  -21.9990  -12.9120   22.0050 N   0  0  0  0  0  0  0  0  0  0  0  0
  -22.3060  -14.6220   20.6060 O   0  0  0  0  0  0  0  0  0  0  0  0
  -22.3600  -12.0850   22.4570 H   0  0  0  0  0  0  0  0  0  0  0  0
  -21.0590  -13.2160   22.2170 H   0  0  0  0  0  0  0  0  0  0  0  0
  -25.3850  -15.2380   20.3230 N   0  0  0  0  0  0  0  0  0  0  0  0
  -24.6200  -15.9000   20.4200 H   0  0  0  0  0  0  0  0  0  0  0  0
  -26.2190  -15.6610   19.9450 H   0  0  0  0  0  0  0  0  0  0  0  0
  -29.4880  -21.7690   20.8360 C   0  0  0  0  0  2  0  0  0  0  0  0
  -29.2060  -22.8520   19.8420 N   0  0  0  0  0  4  0  0  0  0  0  0
  -29.8500  -22.7740   19.0730 H   0  0  0  0  0  0  0  0  0  0  0  0
  -28.2880  -22.6740   19.4670 H   0  0  0  0  0  0  0  0  0  0  0  0
  -29.2810  -24.2570   20.3810 C   0  0  0  0  0  2  0  0  0  0  0  0
  -28.2700  -25.2320   19.7230 C   0  0  0  0  0  2  0  0  0  0  0  0
  -28.3580  -26.6150   20.1780 O   0  0  0  0  0  0  0  0  0  0  0  0
  -24.5970  -31.8950   23.2460 C   0  0  0  0  0  0  0  0  0  0  0  0
  -27.2000  -27.3900   20.1520 C   0  0  0  0  0  0  0  0  0  0  0  0
  -23.3820  -30.4970   21.6110 C   0  0  0  0  0  3  0  0  0  0  0  0
  -24.8250  -28.9540   20.1820 C   0  0  0  0  0  0  0  0  0  0  0  0
  -25.9170  -30.8240   21.4180 C   0  0  0  0  0  2  0  0  0  0  0  0
  -25.9920  -29.4490   20.7760 C   0  0  0  0  0  0  0  0  0  0  0  0
  -27.1790  -28.6700   20.7660 C   0  0  0  0  0  3  0  0  0  0  0  0
  -26.0090  -26.9410   19.5300 C   0  0  0  0  0  3  0  0  0  0  0  0
  -24.8290  -27.6990   19.5600 C   0  0  0  0  0  3  0  0  0  0  0  0
  -23.5880  -29.8230   20.2310 C   0  0  0  0  0  2  0  0  0  0  0  0
  -24.6500  -31.0880   22.1490 N   0  0  0  0  0  0  0  0  0  0  0  0
  -23.5180  -32.1730   23.7850 O   0  0  0  0  0  0  0  0  0  0  0  0
  -22.7290  -29.4770   22.5730 C   0  0  0  0  0  0  0  0  0  0  0  0
  -21.4050  -29.2970   22.4510 N   0  0  0  0  0  0  0  0  0  0  0  0
  -23.4120  -28.8490   23.3870 O   0  0  0  0  0  0  0  0  0  0  0  0
  -20.9120  -29.8580   21.7710 H   0  0  0  0  0  0  0  0  0  0  0  0
  -18.0270  -28.1110   22.9590 C   0  0  0  0  0  0  0  0  0  0  0  0
  -20.5860  -28.3640   23.2260 C   0  0  0  0  0  3  0  0  0  0  0  0
  -20.6850  -26.9310   22.6540 C   0  0  0  0  0  2  0  0  0  0  0  0
  -19.5810  -26.6090   21.6410 C   0  0  0  0  0  2  0  0  0  0  0  0
  -18.1990  -26.7590   22.2870 C   0  0  0  0  0  2  0  0  0  0  0  0
  -19.1480  -28.8720   23.3840 C   0  0  0  0  0  0  0  0  0  0  0  0
  -18.9350  -30.1390   23.9710 C   0  0  0  0  0  3  0  0  0  0  0  0
  -17.6320  -30.6460   24.1370 C   0  0  0  0  0  3  0  0  0  0  0  0
  -16.5250  -29.8830   23.7260 C   0  0  0  0  0  3  0  0  0  0  0  0
  -16.7220  -28.6180   23.1440 C   0  0  0  0  0  3  0  0  0  0  0  0
  -25.8840  -32.5250   23.8590 C   0  0  0  0  0  3  0  0  0  0  0  0
  -25.5790  -33.9220   24.1910 N   0  0  0  0  0  0  0  0  0  0  0  0
  -25.9050  -34.9750   23.4300 C   0  0  0  0  0  0  0  0  0  0  0  0
  -26.5690  -34.8720   22.3930 O   0  0  0  0  0  0  0  0  0  0  0  0
  -24.9900  -34.0760   24.9970 H   0  0  0  0  0  0  0  0  0  0  0  0
  -24.1730  -36.7660   23.0900 C   0  0  0  0  0  1  0  0  0  0  0  0
  -25.4210  -36.3620   23.8920 C   0  0  0  0  0  3  0  0  0  0  0  0
  -27.5610  -37.2480   24.7080 C   0  0  0  0  0  1  0  0  0  0  0  0
  -26.4520  -37.4170   23.7720 N   0  0  0  0  0  0  0  0  0  0  0  0
  -26.0460  -38.3370   23.9240 H   0  0  0  0  0  0  0  0  0  0  0  0
  -26.4080  -31.7510   25.1310 C   0  0  1  0  0  0  0  0  0  0  0  0
  -25.3220  -31.5150   26.2060 C   0  0  0  0  0  1  0  0  0  0  0  0
  -26.9880  -30.3750   24.7340 C   0  0  0  0  0  1  0  0  0  0  0  0
  -27.5640  -32.5430   25.7880 C   0  0  0  0  0  1  0  0  0  0  0  0
  2  4  1  0
  3  5  2  0
  4 10  1  0
  4  1  2  0
  5  1  1  0
  5 49  1  0
  6  2  2  0
  6  3  1  0
  7  6  1  0
  8  7  1  0
  9  7  1  0
 10 19  1  0
 11 19  1  0
 12 17  1  0
 13 14  1  0
 13 12  1  0
 15 14  1  0
 15 24  1  0
 15 16  1  0
 17 11  1  0
 17 16  1  0
 18 11  2  0
 19 20  1  0
 21 22  2  0
 22 41  1  0
 23 22  1  0
 23 26  1  0
 24 21  1  0
 24 25  1  0
 25 23  2  0
 26 27  1  0
 27 28  2  0
 29 32  1  0
 29 28  1  0
 30 29  2  0
 31 30  1  0
 31 26  2  0
 32 33  1  0
 33 34  1  0
 34 35  2  0
 36 35  1  0
 36 40  1  0
 37 36  2  0
 38 33  2  0
 38 37  1  0
 39 38  1  0
 41 42  1  0
 42 45  1  0
 42 44  1  0
 43 41  2  0
 46 47  1  0
 46 21  1  0
 48 46  1  0
 50 53  1  0
 50 49  1  0
 51 50  1  0
 52 50  1  0
 54 55  1  0
 54 53  1  0
 56 67  2  0
 57 55  1  0
 57 62  1  0
 58 66  1  0
 58 68  1  0
 59 65  1  0
 59 61  1  0
 60 66  1  0
 61 60  1  0
 62 61  2  0
 63 64  1  0
 63 57  2  0
 64 59  2  0
 65 58  1  0
 66 56  1  0
 68 70  2  0
 69 68  1  0
 71 69  1  0
 72 81  2  0
 72 77  1  0
 73 69  1  0
 73 77  1  0
 74 73  1  0
 75 76  1  0
 75 74  1  0
 76 72  1  0
 77 78  2  0
 78 79  1  0
 80 79  2  0
 81 80  1  0
 82 56  1  0
 82 83  1  0
 82 92  1  0
 83 86  1  0
 84 88  1  0
 84 83  1  0
 85 84  2  0
 88 87  1  0
 90 88  1  0
 90 91  1  0
 90 89  1  0
 92 95  1  1
 92 93  1  0
 94 92  1  0
M  ISO  4  11 100  19 100  54 101  55 101
M  END
>  <TORSDO>  (58) 
F 22

>  <SCORE>  (58) 
-13.375

>  <name>  (58) 
57

>  <ligand_id>  (58) 
57

>  <original_smiles>  (58) 
[H]c1c([H])c([H])c2c(c1[H])C([H])([H])C([H])([H])C([H])([H])C2([H])N([H])C(=O)C1([H])N(C(=O)C([H])(N([H])C(=O)C([H])(N([H])C([H])([H])[H])C([H])([H])[H])C(C([H])([H])[H])(C([H])([H])[H])C([H])([H])[H])C([H])([H])c2c([H])c(OC([H])([H])C([H])([H])[N+]([H])([H])C([H])([H])c3c([H])c(N([H])[H])c([H])c(C([H])([H])N([H])C(=O)N4C([H])([H])C([H])([H])C([H])([H])C([H])(n5nc(-c6c([H])c([H])c(Oc7c([H])c([H])c(F)c([H])c7F)c([H])c6[H])c(C(=O)N([H])[H])c5N([H])[H])C4([H])[H])c3[H])c([H])c([H])c2C1([H])[H]

>  <smiles>  (58) 
[H]c1c([H])c([H])c2c(c1[H])C([H])([H])C([H])([H])C([H])([H])C2([H])N([H])C(=O)C1([H])N(C(=O)C([H])(N([H])C(=O)C([H])(N([H])C([H])([H])[H])C([H])([H])[H])C(C([H])([H])[H])(C([H])([H])[H])C([H])([H])[H])C([H])([H])c2c([H])c(OC([H])([H])C([H])([H])[N+]([H])([H])C([H])([H])c3c([H])c(N([H])[H])c([H])c(C([H])([H])N([H])C(=O)N4C([H])([H])C([H])([H])C([H])([H])C([H])(n5nc(-c6c([H])c([H])c(Oc7c([H])c([H])c(F)c([H])c7F)c([H])c6[H])c(C(=O)N([H])[H])c5N([H])[H])C4([H])[H])c3[H])c([H])c([H])c2C1([H])[H]

$$$$
58:0:0
     RDKit          3D

 91100  0  0  1  0  0  0  0  0999 V2000
  -30.7950  -15.6240   20.6380 C   0  0  0  0  0  0  0  0  0  0  0  0
  -30.6950  -13.2590   19.5410 C   0  0  0  0  0  2  0  0  0  0  0  0
  -29.7940  -13.0810   18.2910 C   0  0  0  0  0  2  0  0  0  0  0  0
  -28.3090  -12.9270   18.6680 C   0  0  0  0  0  2  0  0  0  0  0  0
  -27.8800  -13.8220   19.8600 C   0  0  0  0  0  3  0  0  0  0  0  0
  -28.9120  -13.8480   21.0020 C   0  0  0  0  0  2  0  0  0  0  0  0
  -30.1550  -14.3690   20.4120 N   0  0  0  0  0  0  0  0  0  0  0  0
  -32.0330  -15.5260   20.5960 O   0  0  0  0  0  0  0  0  0  0  0  0
  -29.3570  -18.5120   16.5040 C   0  0  0  0  0  2  0  0  0  0  0  0
  -30.0070  -17.1250   16.5780 C   0  0  0  0  0  2  0  0  0  0  0  0
  -28.2750  -18.6780   17.5710 C   0  0  0  0  0  2  0  0  0  0  0  0
  -29.9570  -16.4900   17.9800 C   0  0  0  0  0  2  0  0  0  0  0  0
  -29.3010  -19.9580   19.5330 C   0  0  0  0  0  2  0  0  0  0  0  0
  -30.2550  -18.4330   21.3300 C   0  0  0  0  0  2  0  0  0  0  0  0
  -28.8470  -18.5660   19.0050 C   0  0  0  0  0  3  0  0  0  0  0  0
  -30.0110  -17.5160   19.1370 C   0  0  0  0  0  3  0  0  0  0  0  0
  -30.1380  -16.9710   20.5320 N   0  0  0  0  0  0  0  0  0  0  0  0
  -29.5430  -19.9000   20.9830 N   0  0  1  0  0  4  0  0  0  0  0  0
  -28.6080  -19.7010   21.3080 H   0  0  0  0  0  0  0  0  0  0  0  0
  -25.4910  -14.4150   20.5080 C   0  0  0  0  0  0  0  0  0  0  0  0
  -24.4040  -13.6510   20.8260 C   0  0  0  0  0  0  0  0  0  0  0  0
  -24.8580  -12.2960   20.8260 C   0  0  0  0  0  0  0  0  0  0  0  0
  -26.5330  -13.5260   20.3190 N   0  0  0  0  0  0  0  0  0  0  0  0
  -26.1630  -12.2470   20.5830 N   0  0  0  0  0  0  0  0  0  0  0  0
  -24.1120  -11.0410   20.9830 C   0  0  0  0  0  0  0  0  0  0  0  0
  -24.4830  -10.0780   21.9460 C   0  0  0  0  0  3  0  0  0  0  0  0
  -23.7370   -8.8890   22.0940 C   0  0  0  0  0  3  0  0  0  0  0  0
  -22.6070   -8.6550   21.2770 C   0  0  0  0  0  0  0  0  0  0  0  0
  -22.2550   -9.6060   20.3030 C   0  0  0  0  0  3  0  0  0  0  0  0
  -23.0010  -10.7870   20.1540 C   0  0  0  0  0  3  0  0  0  0  0  0
  -21.8360   -7.5180   21.3330 O   0  0  0  0  0  0  0  0  0  0  0  0
  -21.7030   -6.7940   22.4910 C   0  0  0  0  0  0  0  0  0  0  0  0
  -21.2160   -7.3770   23.6820 C   0  0  0  0  0  3  0  0  0  0  0  0
  -21.0310   -6.5820   24.8300 C   0  0  0  0  0  3  0  0  0  0  0  0
  -21.3200   -5.2050   24.7890 C   0  0  0  0  0  0  0  0  0  0  0  0
  -21.7990   -4.6220   23.6020 C   0  0  0  0  0  3  0  0  0  0  0  0
  -21.9870   -5.4140   22.4560 C   0  0  0  0  0  0  0  0  0  0  0  0
  -22.4290   -4.8440   21.3100 F   0  0  0  0  0  0  0  0  0  0  0  0
  -21.1340   -4.4390   25.8890 F   0  0  0  0  0  0  0  0  0  0  0  0
  -23.0000  -14.1430   21.0200 C   0  0  0  0  0  0  0  0  0  0  0  0
  -22.2340  -13.4810   21.8790 N   0  0  0  0  0  0  0  0  0  0  0  0
  -22.5930  -15.1520   20.4460 O   0  0  0  0  0  0  0  0  0  0  0  0
  -22.5770  -12.6670   22.3680 H   0  0  0  0  0  0  0  0  0  0  0  0
  -21.2900  -13.7950   22.0520 H   0  0  0  0  0  0  0  0  0  0  0  0
  -25.6770  -15.7830   20.3340 N   0  0  0  0  0  0  0  0  0  0  0  0
  -24.9160  -16.4500   20.4050 H   0  0  0  0  0  0  0  0  0  0  0  0
  -26.5510  -16.2030   20.0470 H   0  0  0  0  0  0  0  0  0  0  0  0
  -29.7160  -21.4070   21.6880 C   0  0  0  0  0  2  0  0  0  0  0  0
  -29.4990  -23.0800   21.0410 C   0  0  0  0  0  3  0  0  0  0  0  0
  -29.0210  -24.6640   21.7620 C   0  0  0  0  0  3  0  0  0  0  0  0
  -29.0980  -26.2650   21.3790 O   0  0  0  0  0  0  0  0  0  0  0  0
  -24.8760  -32.1820   23.4560 C   0  0  0  0  0  0  0  0  0  0  0  0
  -28.0030  -27.2540   21.1980 C   0  0  0  0  0  0  0  0  0  0  0  0
  -23.9370  -30.5650   21.8560 C   0  0  0  0  0  3  0  0  0  0  0  0
  -25.6120  -28.9440   20.7410 C   0  0  0  0  0  0  0  0  0  0  0  0
  -26.4860  -30.9490   21.9210 C   0  0  0  0  0  2  0  0  0  0  0  0
  -26.7050  -29.4930   21.4220 C   0  0  0  0  0  0  0  0  0  0  0  0
  -27.9030  -28.6690   21.6160 C   0  0  0  0  0  3  0  0  0  0  0  0
  -26.8730  -26.8420   20.4580 C   0  0  0  0  0  3  0  0  0  0  0  0
  -25.7190  -27.6380   20.2370 C   0  0  0  0  0  3  0  0  0  0  0  0
  -24.3430  -29.7790   20.5790 C   0  0  0  0  0  2  0  0  0  0  0  0
  -25.1150  -31.2650   22.4640 N   0  0  0  0  0  0  0  0  0  0  0  0
  -23.7240  -32.4370   23.8440 O   0  0  0  0  0  0  0  0  0  0  0  0
  -23.2150  -29.6130   22.8440 C   0  0  0  0  0  0  0  0  0  0  0  0
  -21.9250  -29.3210   22.5980 N   0  0  0  0  0  0  0  0  0  0  0  0
  -23.8270  -29.1330   23.8010 O   0  0  0  0  0  0  0  0  0  0  0  0
  -21.4820  -29.7610   21.8040 H   0  0  0  0  0  0  0  0  0  0  0  0
  -18.5920  -27.9190   22.9080 C   0  0  0  0  0  0  0  0  0  0  0  0
  -21.0920  -28.3950   23.3740 C   0  0  0  0  0  3  0  0  0  0  0  0
  -21.3420  -26.9300   22.9480 C   0  0  0  0  0  2  0  0  0  0  0  0
  -20.3660  -26.4390   21.8730 C   0  0  0  0  0  2  0  0  0  0  0  0
  -18.9230  -26.5350   22.3740 C   0  0  0  0  0  2  0  0  0  0  0  0
  -19.6120  -28.7980   23.3620 C   0  0  0  0  0  0  0  0  0  0  0  0
  -19.2490  -30.0840   23.8190 C   0  0  0  0  0  3  0  0  0  0  0  0
  -17.9020  -30.4940   23.8270 C   0  0  0  0  0  3  0  0  0  0  0  0
  -16.8970  -29.6150   23.3860 C   0  0  0  0  0  3  0  0  0  0  0  0
  -17.2420  -28.3290   22.9320 C   0  0  0  0  0  3  0  0  0  0  0  0
  -26.0350  -32.9670   24.1420 C   0  0  0  0  0  3  0  0  0  0  0  0
  -25.5770  -34.3510   24.3640 N   0  0  0  0  0  0  0  0  0  0  0  0
  -25.8340  -35.3860   23.5520 C   0  0  0  0  0  0  0  0  0  0  0  0
  -26.5420  -35.2820   22.5480 O   0  0  0  0  0  0  0  0  0  0  0  0
  -24.9480  -34.4990   25.1400 H   0  0  0  0  0  0  0  0  0  0  0  0
  -23.9400  -36.9730   23.0690 C   0  0  0  0  0  1  0  0  0  0  0  0
  -25.2090  -36.7520   23.9090 C   0  0  0  0  0  3  0  0  0  0  0  0
  -27.2490  -37.8930   24.6600 C   0  0  0  0  0  1  0  0  0  0  0  0
  -26.1330  -37.8920   23.7180 N   0  0  0  0  0  0  0  0  0  0  0  0
  -25.6400  -38.7760   23.8080 H   0  0  0  0  0  0  0  0  0  0  0  0
  -26.4990  -32.3230   25.5060 C   0  0  1  0  0  0  0  0  0  0  0  0
  -25.3320  -31.9660   26.4560 C   0  0  0  0  0  1  0  0  0  0  0  0
  -27.3090  -31.0310   25.2580 C   0  0  0  0  0  1  0  0  0  0  0  0
  -27.4470  -33.2950   26.2490 C   0  0  0  0  0  1  0  0  0  0  0  0
  2  7  1  0
  3  4  1  0
  3  2  1  0
  5  4  1  0
  5 23  1  0
  5  6  1  0
  7  1  1  0
  7  6  1  0
  8  1  2  0
  9 10  1  0
  9 11  1  0
 10 12  1  0
 13 18  1  0
 15 11  1  0
 15 16  1  0
 15 13  1  0
 16 12  1  0
 16 17  1  0
 17  1  1  0
 17 14  1  0
 18 19  1  1
 18 14  1  0
 18 48  1  0
 20 21  2  0
 21 22  1  0
 21 40  1  0
 22 25  1  0
 23 20  1  0
 23 24  1  0
 24 22  2  0
 25 26  1  0
 26 27  2  0
 28 31  1  0
 28 27  1  0
 29 28  2  0
 30 29  1  0
 30 25  2  0
 31 32  1  0
 32 33  1  0
 33 34  2  0
 35 34  1  0
 35 39  1  0
 36 35  2  0
 37 32  2  0
 37 36  1  0
 38 37  1  0
 40 41  1  0
 41 44  1  0
 41 43  1  0
 42 40  2  0
 45 46  1  0
 45 20  1  0
 47 45  1  0
 49 48  1  0
 49 50  2  0
 51 50  1  0
 52 63  2  0
 53 51  1  0
 53 58  1  0
 54 62  1  0
 54 64  1  0
 55 57  1  0
 56 62  1  0
 57 58  2  0
 57 56  1  0
 59 53  2  0
 60 59  1  0
 60 55  2  0
 61 55  1  0
 61 54  1  0
 62 52  1  0
 64 66  2  0
 65 64  1  0
 67 65  1  0
 68 77  2  0
 68 73  1  0
 69 65  1  0
 70 69  1  0
 71 72  1  0
 71 70  1  0
 72 68  1  0
 73 69  1  0
 73 74  2  0
 74 75  1  0
 76 75  2  0
 77 76  1  0
 78 52  1  0
 78 79  1  0
 78 88  1  0
 79 82  1  0
 80 84  1  0
 80 79  1  0
 81 80  2  0
 84 83  1  0
 86 87  1  0
 86 84  1  0
 86 85  1  0
 88 91  1  1
 88 89  1  0
 90 88  1  0
M  ISO  4   1 100  17 100  50 101  51 101
M  END
>  <TORSDO>  (59) 
F 18

>  <SCORE>  (59) 
-12.386

>  <name>  (59) 
58

>  <ligand_id>  (59) 
58

>  <original_smiles>  (59) 
[H]c1c([H])c([H])c2c(c1[H])C([H])([H])C([H])([H])C([H])([H])C2([H])N([H])C(=O)C1([H])N(C(=O)C([H])(N([H])C(=O)C([H])(N([H])C([H])([H])[H])C([H])([H])[H])C(C([H])([H])[H])(C([H])([H])[H])C([H])([H])[H])C([H])([H])c2c([H])c(OC([H])([H])C([H])([H])C([H])([H])[N+]3([H])C([H])([H])N(C(=O)N4C([H])([H])C([H])([H])C([H])([H])C([H])(n5nc(-c6c([H])c([H])c(Oc7c([H])c([H])c(F)c([H])c7F)c([H])c6[H])c(C(=O)N([H])[H])c5N([H])[H])C4([H])[H])C4([H])C([H])([H])C([H])([H])C([H])([H])C([H])([H])C4([H])C3([H])[H])c([H])c([H])c2C1([H])[H]

>  <smiles>  (59) 
[H]c1c([H])c([H])c2c(c1[H])C([H])([H])C([H])([H])C([H])([H])C2([H])N([H])C(=O)C1([H])N(C(=O)C([H])(N([H])C(=O)C([H])(N([H])C([H])([H])[H])C([H])([H])[H])C(C([H])([H])[H])(C([H])([H])[H])C([H])([H])[H])C([H])([H])c2c([H])c(OC([H])([H])C([H])([H])C([H])([H])[N+]3([H])C([H])([H])N(C(=O)N4C([H])([H])C([H])([H])C([H])([H])C([H])(n5nc(-c6c([H])c([H])c(Oc7c([H])c([H])c(F)c([H])c7F)c([H])c6[H])c(C(=O)N([H])[H])c5N([H])[H])C4([H])[H])C4([H])C([H])([H])C([H])([H])C([H])([H])C([H])([H])C4([H])C3([H])[H])c([H])c([H])c2C1([H])[H]

$$$$
59:0:0
     RDKit          3D

 99108  0  0  1  0  0  0  0  0999 V2000
  -29.8800  -21.5780   22.8320 C   0  0  0  0  0  2  0  0  0  0  0  0
  -27.8110  -22.4340   21.6090 C   0  0  0  0  0  2  0  0  0  0  0  0
  -29.4020  -20.2800   22.1550 C   0  0  0  0  0  2  0  0  0  0  0  0
  -28.4330  -21.7510   20.3750 C   0  0  0  0  0  2  0  0  0  0  0  0
  -28.8540  -22.7330   22.7160 C   0  0  0  0  0  3  0  0  0  0  0  0
  -29.1400  -20.4750   20.6970 N   0  0  2  0  0  4  0  0  0  0  0  0
  -30.0390  -20.5660   20.2460 H   0  0  0  0  0  0  0  0  0  0  0  0
  -29.5910  -24.0890   22.5580 C   0  0  0  0  0  2  0  0  0  0  0  0
  -28.6970  -25.2720   22.3870 N   0  0  1  0  0  4  0  0  0  0  0  0
  -27.8820  -24.9370   21.8940 H   0  0  0  0  0  0  0  0  0  0  0  0
  -28.1380  -25.8290   23.6550 C   0  0  0  0  0  2  0  0  0  0  0  0
  -28.5100  -27.4110   25.6350 C   0  0  0  0  0  1  0  0  0  0  0  0
  -29.1680  -26.5800   24.5260 C   0  0  0  0  0  2  0  0  0  0  0  0
  -29.2800  -26.3200   21.5010 C   0  0  0  0  0  2  0  0  0  0  0  0
  -29.0840  -26.0300   19.9890 C   0  0  0  0  0  2  0  0  0  0  0  0
  -28.9180  -27.2390   19.2420 O   0  0  0  0  0  0  0  0  0  0  0  0
  -24.6870  -31.3580   23.1500 C   0  0  0  0  0  0  0  0  0  0  0  0
  -27.6710  -27.8020   19.3500 C   0  0  0  0  0  0  0  0  0  0  0  0
  -23.5660  -30.0480   21.3740 C   0  0  0  0  0  3  0  0  0  0  0  0
  -25.1100  -28.9340   19.6780 C   0  0  0  0  0  0  0  0  0  0  0  0
  -26.0080  -30.7710   21.1230 C   0  0  0  0  0  2  0  0  0  0  0  0
  -26.2240  -29.5310   20.2840 C   0  0  0  0  0  0  0  0  0  0  0  0
  -27.5080  -28.9750   20.1150 C   0  0  0  0  0  3  0  0  0  0  0  0
  -26.5440  -27.2090   18.7400 C   0  0  0  0  0  3  0  0  0  0  0  0
  -25.2640  -27.7700   18.9040 C   0  0  0  0  0  3  0  0  0  0  0  0
  -23.7730  -29.6000   19.9020 C   0  0  0  0  0  2  0  0  0  0  0  0
  -24.7740  -30.7340   21.9410 N   0  0  0  0  0  0  0  0  0  0  0  0
  -23.6150  -31.4080   23.7680 O   0  0  0  0  0  0  0  0  0  0  0  0
  -23.1090  -28.8270   22.2020 C   0  0  0  0  0  0  0  0  0  0  0  0
  -21.8400  -28.4280   22.0240 N   0  0  0  0  0  0  0  0  0  0  0  0
  -23.8920  -28.2450   22.9560 O   0  0  0  0  0  0  0  0  0  0  0  0
  -21.2610  -28.9590   21.3860 H   0  0  0  0  0  0  0  0  0  0  0  0
  -18.7960  -26.4870   22.1500 C   0  0  0  0  0  0  0  0  0  0  0  0
  -21.2000  -27.2820   22.6690 C   0  0  0  0  0  3  0  0  0  0  0  0
  -21.6690  -25.9530   22.0330 C   0  0  0  0  0  2  0  0  0  0  0  0
  -20.7510  -25.4680   20.9080 C   0  0  0  0  0  2  0  0  0  0  0  0
  -19.3260  -25.2610   21.4250 C   0  0  0  0  0  2  0  0  0  0  0  0
  -19.6760  -27.4440   22.7190 C   0  0  0  0  0  0  0  0  0  0  0  0
  -19.1320  -28.5860   23.3450 C   0  0  0  0  0  3  0  0  0  0  0  0
  -17.7390  -28.7740   23.4150 C   0  0  0  0  0  3  0  0  0  0  0  0
  -16.8720  -27.8140   22.8650 C   0  0  0  0  0  3  0  0  0  0  0  0
  -17.4000  -26.6730   22.2380 C   0  0  0  0  0  3  0  0  0  0  0  0
  -25.9220  -32.0570   23.7990 C   0  0  0  0  0  3  0  0  0  0  0  0
  -25.5340  -33.4400   24.1060 N   0  0  0  0  0  0  0  0  0  0  0  0
  -25.8670  -34.5050   23.3660 C   0  0  0  0  0  0  0  0  0  0  0  0
  -26.6060  -34.4310   22.3800 O   0  0  0  0  0  0  0  0  0  0  0  0
  -24.8850  -33.5700   24.8680 H   0  0  0  0  0  0  0  0  0  0  0  0
  -24.0860  -36.2140   22.8930 C   0  0  0  0  0  1  0  0  0  0  0  0
  -25.2890  -35.8710   23.7840 C   0  0  0  0  0  3  0  0  0  0  0  0
  -27.3330  -36.8420   24.7360 C   0  0  0  0  0  1  0  0  0  0  0  0
  -26.2800  -36.9680   23.7330 N   0  0  0  0  0  0  0  0  0  0  0  0
  -25.8270  -37.8690   23.8590 H   0  0  0  0  0  0  0  0  0  0  0  0
  -26.4460  -31.3210   25.0940 C   0  0  1  0  0  0  0  0  0  0  0  0
  -25.3420  -31.0420   26.1390 C   0  0  0  0  0  1  0  0  0  0  0  0
  -27.1000  -29.9680   24.7260 C   0  0  0  0  0  1  0  0  0  0  0  0
  -27.5440  -32.1740   25.7700 C   0  0  0  0  0  1  0  0  0  0  0  0
  -28.5130  -19.2870   20.0640 C   0  0  0  0  0  2  0  0  0  0  0  0
  -29.5330  -18.1820   19.7060 C   0  0  0  0  0  2  0  0  0  0  0  0
  -30.8820  -15.2350   19.4850 C   0  0  0  0  0  0  0  0  0  0  0  0
  -30.7030  -12.8820   18.7440 C   0  0  0  0  0  2  0  0  0  0  0  0
  -29.6570  -12.6820   17.6330 C   0  0  0  0  0  2  0  0  0  0  0  0
  -28.2400  -12.5180   18.2160 C   0  0  0  0  0  2  0  0  0  0  0  0
  -27.8980  -13.6020   19.2690 C   0  0  0  0  0  3  0  0  0  0  0  0
  -29.0390  -13.7010   20.3040 C   0  0  0  0  0  2  0  0  0  0  0  0
  -30.2860  -14.0160   19.5820 N   0  0  0  0  0  0  0  0  0  0  0  0
  -31.8000  -15.4750   18.6900 O   0  0  0  0  0  0  0  0  0  0  0  0
  -30.8910  -17.4220   22.4590 C   0  0  0  0  0  2  0  0  0  0  0  0
  -29.4120  -17.2870   22.1030 C   0  0  0  0  0  2  0  0  0  0  0  0
  -31.6160  -16.5030   21.4680 C   0  0  0  0  0  2  0  0  0  0  0  0
  -29.4170  -16.9330   20.6110 C   0  0  0  0  0  3  0  0  0  0  0  0
  -30.6060  -16.0810   20.4970 N   0  0  0  0  0  0  0  0  0  0  0  0
  -25.6320  -14.2220   20.3340 C   0  0  0  0  0  0  0  0  0  0  0  0
  -24.5960  -13.4500   20.7880 C   0  0  0  0  0  0  0  0  0  0  0  0
  -25.0030  -12.0930   20.5980 C   0  0  0  0  0  0  0  0  0  0  0  0
  -26.6080  -13.3340   19.9050 N   0  0  0  0  0  0  0  0  0  0  0  0
  -26.2360  -12.0450   20.1150 N   0  0  0  0  0  0  0  0  0  0  0  0
  -24.2680  -10.8360   20.7930 C   0  0  0  0  0  0  0  0  0  0  0  0
  -24.7600   -9.8170   21.6370 C   0  0  0  0  0  3  0  0  0  0  0  0
  -24.0260   -8.6250   21.8210 C   0  0  0  0  0  3  0  0  0  0  0  0
  -22.7860   -8.4460   21.1600 C   0  0  0  0  0  0  0  0  0  0  0  0
  -22.3130   -9.4550   20.3020 C   0  0  0  0  0  3  0  0  0  0  0  0
  -23.0480  -10.6380   20.1170 C   0  0  0  0  0  3  0  0  0  0  0  0
  -22.0160   -7.3120   21.2620 O   0  0  0  0  0  0  0  0  0  0  0  0
  -21.9360   -6.5980   22.4300 C   0  0  0  0  0  0  0  0  0  0  0  0
  -21.5460   -7.1980   23.6480 C   0  0  0  0  0  3  0  0  0  0  0  0
  -21.4120   -6.4100   24.8080 C   0  0  0  0  0  3  0  0  0  0  0  0
  -21.6600   -5.0250   24.7540 C   0  0  0  0  0  0  0  0  0  0  0  0
  -22.0450   -4.4270   23.5410 C   0  0  0  0  0  3  0  0  0  0  0  0
  -22.1800   -5.2100   22.3820 C   0  0  0  0  0  0  0  0  0  0  0  0
  -22.5310   -4.6230   21.2130 F   0  0  0  0  0  0  0  0  0  0  0  0
  -21.5250   -4.2680   25.8680 F   0  0  0  0  0  0  0  0  0  0  0  0
  -23.2630  -13.9380   21.2790 C   0  0  0  0  0  0  0  0  0  0  0  0
  -22.6830  -13.2570   22.2620 N   0  0  0  0  0  0  0  0  0  0  0  0
  -22.7480  -14.9580   20.8230 O   0  0  0  0  0  0  0  0  0  0  0  0
  -23.1120  -12.4300   22.6510 H   0  0  0  0  0  0  0  0  0  0  0  0
  -21.7990  -13.5700   22.6360 H   0  0  0  0  0  0  0  0  0  0  0  0
  -25.8160  -15.5970   20.2340 N   0  0  0  0  0  0  0  0  0  0  0  0
  -25.0710  -16.2450   20.4640 H   0  0  0  0  0  0  0  0  0  0  0  0
  -26.6070  -16.0440   19.7900 H   0  0  0  0  0  0  0  0  0  0  0  0
  2  5  1  0
  3  1  1  0
  4  6  1  0
  4  2  1  0
  5  8  1  0
  5  1  1  0
  6  3  1  0
  6  7  1  6
  9  8  1  0
  9 11  1  0
  9 10  1  6
 11 13  1  0
 13 12  1  0
 14  9  1  0
 15 14  1  0
 16 18  1  0
 16 15  1  0
 17 28  2  0
 18 23  1  0
 19 27  1  0
 19 29  1  0
 20 26  1  0
 20 22  1  0
 21 27  1  0
 22 21  1  0
 23 22  2  0
 24 25  1  0
 24 18  2  0
 25 20  2  0
 26 19  1  0
 27 17  1  0
 29 31  2  0
 30 29  1  0
 32 30  1  0
 33 42  2  0
 33 38  1  0
 34 30  1  0
 34 38  1  0
 35 34  1  0
 36 37  1  0
 36 35  1  0
 37 33  1  0
 38 39  2  0
 39 40  1  0
 41 40  2  0
 42 41  1  0
 43 17  1  0
 43 44  1  0
 43 53  1  0
 44 47  1  0
 45 49  1  0
 45 44  1  0
 46 45  2  0
 49 48  1  0
 51 49  1  0
 51 52  1  0
 51 50  1  0
 53 56  1  1
 53 54  1  0
 55 53  1  0
 57  6  1  0
 58 57  1  0
 59 65  1  0
 59 71  1  0
 60 65  1  0
 61 62  1  0
 61 60  1  0
 63 62  1  0
 63 75  1  0
 63 64  1  0
 65 64  1  0
 66 59  2  0
 68 67  1  0
 69 67  1  0
 70 58  1  0
 70 68  1  0
 71 70  1  0
 71 69  1  0
 72 73  2  0
 73 92  1  0
 74 73  1  0
 74 77  1  0
 75 76  1  0
 75 72  1  0
 76 74  2  0
 77 78  1  0
 78 79  2  0
 80 83  1  0
 80 79  1  0
 81 80  2  0
 82 81  1  0
 82 77  2  0
 83 84  1  0
 84 85  1  0
 85 86  2  0
 87 86  1  0
 87 91  1  0
 88 87  2  0
 89 84  2  0
 89 88  1  0
 90 89  1  0
 92 93  1  0
 93 96  1  0
 93 95  1  0
 94 92  2  0
 97 72  1  0
 97 98  1  0
 99 97  1  0
M  ISO  4  15 101  16 101  59 100  71 100
M  END
>  <TORSDO>  (60) 
F 24

>  <SCORE>  (60) 
-8.708

>  <name>  (60) 
59

>  <ligand_id>  (60) 
59

>  <original_smiles>  (60) 
[H]c1c([H])c([H])c2c(c1[H])C([H])([H])C([H])([H])C([H])([H])C2([H])N([H])C(=O)C1([H])N(C(=O)C([H])(N([H])C(=O)C([H])(N([H])C([H])([H])[H])C([H])([H])[H])C(C([H])([H])[H])(C([H])([H])[H])C([H])([H])[H])C([H])([H])c2c([H])c(OC([H])([H])C([H])([H])[N+]([H])(C([H])([H])C([H])([H])C([H])([H])[H])C([H])([H])C3([H])C([H])([H])C([H])([H])[N+]([H])(C([H])([H])C([H])([H])C4([H])N(C(=O)N5C([H])([H])C([H])([H])C([H])([H])C([H])(n6nc(-c7c([H])c([H])c(Oc8c([H])c([H])c(F)c([H])c8F)c([H])c7[H])c(C(=O)N([H])[H])c6N([H])[H])C5([H])[H])C([H])([H])C([H])([H])C4([H])[H])C([H])([H])C3([H])[H])c([H])c([H])c2C1([H])[H]

>  <smiles>  (60) 
[H]c1c([H])c([H])c2c(c1[H])C([H])([H])C([H])([H])C([H])([H])C2([H])N([H])C(=O)C1([H])N(C(=O)C([H])(N([H])C(=O)C([H])(N([H])C([H])([H])[H])C([H])([H])[H])C(C([H])([H])[H])(C([H])([H])[H])C([H])([H])[H])C([H])([H])c2c([H])c(OC([H])([H])C([H])([H])[N+]([H])(C([H])([H])C([H])([H])C([H])([H])[H])C([H])([H])C3([H])C([H])([H])C([H])([H])[N+]([H])(C([H])([H])C([H])([H])C4([H])N(C(=O)N5C([H])([H])C([H])([H])C([H])([H])C([H])(n6nc(-c7c([H])c([H])c(Oc8c([H])c([H])c(F)c([H])c8F)c([H])c7[H])c(C(=O)N([H])[H])c6N([H])[H])C5([H])[H])C([H])([H])C([H])([H])C4([H])[H])C([H])([H])C3([H])[H])c([H])c([H])c2C1([H])[H]

$$$$
60:0:0
     RDKit          3D

 92100  0  0  1  0  0  0  0  0999 V2000
  -29.3020  -23.0240   21.8700 C   0  0  0  0  0  2  0  0  0  0  0  0
  -29.0710  -24.2330   21.0730 N   0  0  0  0  0  0  0  0  0  0  0  0
  -28.0920  -24.3150   20.8050 H   0  0  0  0  0  0  0  0  0  0  0  0
  -29.4260  -25.4090   21.8730 C   0  0  0  0  0  2  0  0  0  0  0  0
  -29.4740  -26.7220   21.0560 C   0  0  0  0  0  2  0  0  0  0  0  0
  -28.4540  -26.7680   20.0660 O   0  0  0  0  0  0  0  0  0  0  0  0
  -24.6160  -31.9800   23.2380 C   0  0  0  0  0  0  0  0  0  0  0  0
  -27.3330  -27.5580   20.1950 C   0  0  0  0  0  0  0  0  0  0  0  0
  -23.4380  -30.5630   21.5850 C   0  0  0  0  0  3  0  0  0  0  0  0
  -24.9210  -29.0350   20.1840 C   0  0  0  0  0  0  0  0  0  0  0  0
  -25.9590  -30.9440   21.4100 C   0  0  0  0  0  2  0  0  0  0  0  0
  -26.0660  -29.5640   20.7970 C   0  0  0  0  0  0  0  0  0  0  0  0
  -27.2730  -28.8300   20.8180 C   0  0  0  0  0  3  0  0  0  0  0  0
  -26.1750  -27.0480   19.5770 C   0  0  0  0  0  3  0  0  0  0  0  0
  -24.9670  -27.7690   19.5770 C   0  0  0  0  0  3  0  0  0  0  0  0
  -23.6700  -29.8840   20.2080 C   0  0  0  0  0  2  0  0  0  0  0  0
  -24.6880  -31.1770   22.1390 N   0  0  0  0  0  0  0  0  0  0  0  0
  -23.5280  -32.2400   23.7700 O   0  0  0  0  0  0  0  0  0  0  0  0
  -22.7870  -29.5370   22.5430 C   0  0  0  0  0  0  0  0  0  0  0  0
  -21.4620  -29.3580   22.4170 N   0  0  0  0  0  0  0  0  0  0  0  0
  -23.4730  -28.9090   23.3550 O   0  0  0  0  0  0  0  0  0  0  0  0
  -20.9720  -29.9200   21.7350 H   0  0  0  0  0  0  0  0  0  0  0  0
  -18.0840  -28.1760   22.9290 C   0  0  0  0  0  0  0  0  0  0  0  0
  -20.6470  -28.4130   23.1830 C   0  0  0  0  0  3  0  0  0  0  0  0
  -20.7350  -26.9890   22.5920 C   0  0  0  0  0  2  0  0  0  0  0  0
  -19.6230  -26.6820   21.5850 C   0  0  0  0  0  2  0  0  0  0  0  0
  -18.2450  -26.8320   22.2400 C   0  0  0  0  0  2  0  0  0  0  0  0
  -19.2120  -28.9240   23.3600 C   0  0  0  0  0  0  0  0  0  0  0  0
  -19.0070  -30.1810   23.9700 C   0  0  0  0  0  3  0  0  0  0  0  0
  -17.7080  -30.6920   24.1480 C   0  0  0  0  0  3  0  0  0  0  0  0
  -16.5950  -29.9410   23.7320 C   0  0  0  0  0  3  0  0  0  0  0  0
  -16.7840  -28.6850   23.1300 C   0  0  0  0  0  3  0  0  0  0  0  0
  -25.8930  -32.6240   23.8650 C   0  0  0  0  0  3  0  0  0  0  0  0
  -25.5710  -34.0180   24.1900 N   0  0  0  0  0  0  0  0  0  0  0  0
  -25.9020  -35.0710   23.4280 C   0  0  0  0  0  0  0  0  0  0  0  0
  -26.5830  -34.9690   22.4050 O   0  0  0  0  0  0  0  0  0  0  0  0
  -24.9740  -34.1710   24.9880 H   0  0  0  0  0  0  0  0  0  0  0  0
  -24.1660  -36.8490   23.0410 C   0  0  0  0  0  1  0  0  0  0  0  0
  -25.3960  -36.4570   23.8750 C   0  0  0  0  0  3  0  0  0  0  0  0
  -27.5100  -37.3560   24.7370 C   0  0  0  0  0  1  0  0  0  0  0  0
  -26.4230  -37.5160   23.7760 N   0  0  0  0  0  0  0  0  0  0  0  0
  -26.0100  -38.4360   23.9140 H   0  0  0  0  0  0  0  0  0  0  0  0
  -26.4110  -31.8550   25.1420 C   0  0  1  0  0  0  0  0  0  0  0  0
  -25.3120  -31.5940   26.1990 C   0  0  0  0  0  1  0  0  0  0  0  0
  -27.0200  -30.4890   24.7450 C   0  0  0  0  0  1  0  0  0  0  0  0
  -27.5430  -32.6630   25.8170 C   0  0  0  0  0  1  0  0  0  0  0  0
  -28.7900  -21.7410   21.1700 C   0  0  0  0  0  2  0  0  0  0  0  0
  -29.6040  -20.5450   21.5180 N   0  0  0  0  0  4  0  0  0  0  0  0
  -30.5530  -20.7420   21.2480 H   0  0  0  0  0  0  0  0  0  0  0  0
  -29.5980  -20.4010   22.5140 H   0  0  0  0  0  0  0  0  0  0  0  0
  -29.1630  -19.2900   20.8560 C   0  0  0  0  0  2  0  0  0  0  0  0
  -31.3880  -17.8710   20.9420 C   0  0  0  0  0  2  0  0  0  0  0  0
  -29.9320  -18.0380   21.3120 C   0  0  0  0  0  3  0  0  0  0  0  0
  -30.3730  -16.9450   20.3190 C   0  0  0  0  0  3  0  0  0  0  0  0
  -31.0280  -14.5350   20.1280 C   0  0  0  0  0  0  0  0  0  0  0  0
  -30.7180  -12.3350   19.0370 C   0  0  0  0  0  2  0  0  0  0  0  0
  -29.7650  -12.5440   17.8400 C   0  0  0  0  0  2  0  0  0  0  0  0
  -28.2980  -12.4120   18.2880 C   0  0  0  0  0  2  0  0  0  0  0  0
  -27.9950  -13.2800   19.5410 C   0  0  0  0  0  3  0  0  0  0  0  0
  -29.0560  -13.0620   20.6440 C   0  0  0  0  0  2  0  0  0  0  0  0
  -30.3770  -13.3410   20.0610 N   0  0  0  0  0  0  0  0  0  0  0  0
  -32.1190  -14.7290   19.5800 O   0  0  0  0  0  0  0  0  0  0  0  0
  -30.3150  -15.5450   20.6890 N   0  0  0  0  0  0  0  0  0  0  0  0
  -29.4510  -15.2510   21.1180 H   0  0  0  0  0  0  0  0  0  0  0  0
  -25.6380  -13.9630   20.2950 C   0  0  0  0  0  0  0  0  0  0  0  0
  -24.5570  -13.2240   20.6910 C   0  0  0  0  0  0  0  0  0  0  0  0
  -24.9750  -11.8600   20.6520 C   0  0  0  0  0  0  0  0  0  0  0  0
  -26.6460  -13.0480   20.0450 N   0  0  0  0  0  0  0  0  0  0  0  0
  -26.2550  -11.7770   20.3130 N   0  0  0  0  0  0  0  0  0  0  0  0
  -24.2140  -10.6210   20.8620 C   0  0  0  0  0  0  0  0  0  0  0  0
  -24.6070   -9.6720   21.8320 C   0  0  0  0  0  3  0  0  0  0  0  0
  -23.8490   -8.4980   22.0280 C   0  0  0  0  0  3  0  0  0  0  0  0
  -22.6860   -8.2660   21.2560 C   0  0  0  0  0  0  0  0  0  0  0  0
  -22.3110   -9.2050   20.2810 C   0  0  0  0  0  3  0  0  0  0  0  0
  -23.0690  -10.3710   20.0820 C   0  0  0  0  0  3  0  0  0  0  0  0
  -21.9020   -7.1450   21.3630 O   0  0  0  0  0  0  0  0  0  0  0  0
  -21.7650   -6.4680   22.5500 C   0  0  0  0  0  0  0  0  0  0  0  0
  -21.2750   -7.1000   23.7140 C   0  0  0  0  0  3  0  0  0  0  0  0
  -21.0870   -6.3510   24.8910 C   0  0  0  0  0  3  0  0  0  0  0  0
  -21.3750   -4.9720   24.9070 C   0  0  0  0  0  0  0  0  0  0  0  0
  -21.8590   -4.3420   23.7480 C   0  0  0  0  0  3  0  0  0  0  0  0
  -22.0530   -5.0900   22.5710 C   0  0  0  0  0  0  0  0  0  0  0  0
  -22.4980   -4.4730   21.4500 F   0  0  0  0  0  0  0  0  0  0  0  0
  -21.1870   -4.2520   26.0360 F   0  0  0  0  0  0  0  0  0  0  0  0
  -23.1840  -13.7490   20.9970 C   0  0  0  0  0  0  0  0  0  0  0  0
  -22.4640  -13.0830   21.8920 N   0  0  0  0  0  0  0  0  0  0  0  0
  -22.7630  -14.7830   20.4830 O   0  0  0  0  0  0  0  0  0  0  0  0
  -22.8210  -12.2470   22.3280 H   0  0  0  0  0  0  0  0  0  0  0  0
  -21.5400  -13.4120   22.1390 H   0  0  0  0  0  0  0  0  0  0  0  0
  -25.8400  -15.3290   20.1120 N   0  0  0  0  0  0  0  0  0  0  0  0
  -25.0680  -15.9820   20.1770 H   0  0  0  0  0  0  0  0  0  0  0  0
  -26.6920  -15.7530   19.7650 H   0  0  0  0  0  0  0  0  0  0  0  0
  2  1  1  0
  2  4  1  0
  3  2  1  0
  5  4  1  0
  6  8  1  0
  6  5  1  0
  7 18  2  0
  8 13  1  0
  9 17  1  0
  9 19  1  0
 10 16  1  0
 10 12  1  0
 11 17  1  0
 12 13  2  0
 12 11  1  0
 14  8  2  0
 15 14  1  0
 15 10  2  0
 16  9  1  0
 17  7  1  0
 19 21  2  0
 20 19  1  0
 22 20  1  0
 23 32  2  0
 23 28  1  0
 24 20  1  0
 24 28  1  0
 25 24  1  0
 26 27  1  0
 26 25  1  0
 27 23  1  0
 28 29  2  0
 29 30  1  0
 31 30  2  0
 32 31  1  0
 33  7  1  0
 33 34  1  0
 33 43  1  0
 34 37  1  0
 35 39  1  0
 35 34  1  0
 36 35  2  0
 39 38  1  0
 41 39  1  0
 41 42  1  0
 41 40  1  0
 43 46  1  1
 43 44  1  0
 45 43  1  0
 47 48  1  0
 47  1  1  0
 48 50  1  0
 49 48  1  0
 51 48  1  0
 52 53  1  0
 53 51  1  0
 54 63  1  0
 54 52  1  0
 54 53  1  0
 55 63  1  0
 56 61  1  0
 57 58  1  0
 57 56  1  0
 59 58  1  0
 59 68  1  0
 59 60  1  0
 61 55  1  0
 61 60  1  0
 62 55  2  0
 63 64  1  0
 65 66  2  0
 66 85  1  0
 67 66  1  0
 67 70  1  0
 68 65  1  0
 68 69  1  0
 69 67  2  0
 70 71  1  0
 71 72  2  0
 73 76  1  0
 73 72  1  0
 74 73  2  0
 75 74  1  0
 75 70  2  0
 76 77  1  0
 77 82  2  0
 77 78  1  0
 78 79  2  0
 79 80  1  0
 80 84  1  0
 81 80  2  0
 82 81  1  0
 83 82  1  0
 85 86  1  0
 86 89  1  0
 86 88  1  0
 87 85  2  0
 90 91  1  0
 90 65  1  0
 92 90  1  0
M  ISO  4   5 101   6 101  55 100  63 100
M  END
>  <TORSDO>  (61) 
F 23

>  <SCORE>  (61) 
-12.615

>  <name>  (61) 
60

>  <ligand_id>  (61) 
60

>  <original_smiles>  (61) 
[H]c1c([H])c([H])c2c(c1[H])C([H])([H])C([H])([H])C([H])([H])C2([H])N([H])C(=O)C1([H])N(C(=O)C([H])(N([H])C(=O)C([H])(N([H])C([H])([H])[H])C([H])([H])[H])C(C([H])([H])[H])(C([H])([H])[H])C([H])([H])[H])C([H])([H])c2c([H])c(OC([H])([H])C([H])([H])N([H])C([H])([H])C([H])([H])[N+]([H])([H])C([H])([H])C3([H])C([H])([H])C3([H])N([H])C(=O)N3C([H])([H])C([H])([H])C([H])([H])C([H])(n4nc(-c5c([H])c([H])c(Oc6c([H])c([H])c(F)c([H])c6F)c([H])c5[H])c(C(=O)N([H])[H])c4N([H])[H])C3([H])[H])c([H])c([H])c2C1([H])[H]

>  <smiles>  (61) 
[H]c1c([H])c([H])c2c(c1[H])C([H])([H])C([H])([H])C([H])([H])C2([H])N([H])C(=O)C1([H])N(C(=O)C([H])(N([H])C(=O)C([H])(N([H])C([H])([H])[H])C([H])([H])[H])C(C([H])([H])[H])(C([H])([H])[H])C([H])([H])[H])C([H])([H])c2c([H])c(OC([H])([H])C([H])([H])N([H])C([H])([H])C([H])([H])[N+]([H])([H])C([H])([H])C3([H])C([H])([H])C3([H])N([H])C(=O)N3C([H])([H])C([H])([H])C([H])([H])C([H])(n4nc(-c5c([H])c([H])c(Oc6c([H])c([H])c(F)c([H])c6F)c([H])c5[H])c(C(=O)N([H])[H])c4N([H])[H])C3([H])[H])c([H])c([H])c2C1([H])[H]

$$$$
61:0:0
     RDKit          3D

 96104  0  0  1  0  0  0  0  0999 V2000
  -27.2690  -19.8470   19.5380 N   0  0  0  0  0  4  0  0  0  0  0  0
  -26.3910  -20.2880   19.7660 H   0  0  0  0  0  0  0  0  0  0  0  0
  -27.1370  -19.4460   18.6230 H   0  0  0  0  0  0  0  0  0  0  0  0
  -27.5130  -18.7780   20.5560 C   0  0  0  0  0  2  0  0  0  0  0  0
  -28.2060  -17.4880   20.0010 C   0  0  0  0  0  2  0  0  0  0  0  0
  -30.7300  -14.6720   20.6080 C   0  0  0  0  0  0  0  0  0  0  0  0
  -30.5710  -12.3840   19.7340 C   0  0  0  0  0  2  0  0  0  0  0  0
  -29.7080  -12.4170   18.4510 C   0  0  0  0  0  2  0  0  0  0  0  0
  -28.2100  -12.2960   18.8050 C   0  0  0  0  0  2  0  0  0  0  0  0
  -27.7680  -13.2480   19.9470 C   0  0  0  0  0  3  0  0  0  0  0  0
  -28.7540  -13.2290   21.1350 C   0  0  0  0  0  2  0  0  0  0  0  0
  -30.0960  -13.4720   20.6000 N   0  0  0  0  0  0  0  0  0  0  0  0
  -31.9620  -14.7580   20.5940 O   0  0  0  0  0  0  0  0  0  0  0  0
  -30.4930  -16.0500   18.6350 C   0  0  0  0  0  2  0  0  0  0  0  0
  -31.5820  -17.1480   18.6650 C   0  0  0  0  0  2  0  0  0  0  0  0
  -30.6520  -17.8920   20.8720 C   0  0  0  0  0  2  0  0  0  0  0  0
  -29.4920  -16.8780   20.6950 C   0  0  0  0  0  3  0  0  0  0  0  0
  -30.0170  -15.6720   19.9900 N   0  0  0  0  0  0  0  0  0  0  0  0
  -31.2840  -18.2660   19.5900 N   0  0  0  0  0  4  0  0  0  0  0  0
  -30.7100  -18.9430   19.1160 H   0  0  0  0  0  0  0  0  0  0  0  0
  -32.1580  -18.7310   19.7890 H   0  0  0  0  0  0  0  0  0  0  0  0
  -25.3370  -13.8480   20.5210 C   0  0  0  0  0  0  0  0  0  0  0  0
  -24.2550  -13.0740   20.8470 C   0  0  0  0  0  0  0  0  0  0  0  0
  -24.7350  -11.7330   20.8800 C   0  0  0  0  0  0  0  0  0  0  0  0
  -26.3990  -12.9740   20.3750 N   0  0  0  0  0  0  0  0  0  0  0  0
  -26.0430  -11.6970   20.6660 N   0  0  0  0  0  0  0  0  0  0  0  0
  -24.0140  -10.4660   21.0580 C   0  0  0  0  0  0  0  0  0  0  0  0
  -24.4060   -9.5220   22.0320 C   0  0  0  0  0  3  0  0  0  0  0  0
  -23.6830   -8.3220   22.1950 C   0  0  0  0  0  3  0  0  0  0  0  0
  -22.5520   -8.0590   21.3860 C   0  0  0  0  0  0  0  0  0  0  0  0
  -22.1810   -8.9910   20.3980 C   0  0  0  0  0  3  0  0  0  0  0  0
  -22.9070  -10.1850   20.2330 C   0  0  0  0  0  3  0  0  0  0  0  0
  -21.8070   -6.9070   21.4570 O   0  0  0  0  0  0  0  0  0  0  0  0
  -21.7130   -6.1780   22.6160 C   0  0  0  0  0  0  0  0  0  0  0  0
  -21.2430   -6.7500   23.8180 C   0  0  0  0  0  3  0  0  0  0  0  0
  -21.0940   -5.9490   24.9670 C   0  0  0  0  0  3  0  0  0  0  0  0
  -21.4110   -4.5790   24.9160 C   0  0  0  0  0  0  0  0  0  0  0  0
  -21.8790   -4.0070   23.7180 C   0  0  0  0  0  3  0  0  0  0  0  0
  -22.0270   -4.8040   22.5700 C   0  0  0  0  0  0  0  0  0  0  0  0
  -22.4560   -4.2460   21.4120 F   0  0  0  0  0  0  0  0  0  0  0  0
  -21.2620   -3.8070   26.0160 F   0  0  0  0  0  0  0  0  0  0  0  0
  -22.8410  -13.5460   21.0100 C   0  0  0  0  0  0  0  0  0  0  0  0
  -22.0650  -12.8660   21.8510 N   0  0  0  0  0  0  0  0  0  0  0  0
  -22.4260  -14.5450   20.4260 O   0  0  0  0  0  0  0  0  0  0  0  0
  -22.4100  -12.0590   22.3490 H   0  0  0  0  0  0  0  0  0  0  0  0
  -21.1090  -13.1600   22.0010 H   0  0  0  0  0  0  0  0  0  0  0  0
  -25.4970  -15.2080   20.3070 N   0  0  0  0  0  0  0  0  0  0  0  0
  -24.7360  -15.8760   20.3350 H   0  0  0  0  0  0  0  0  0  0  0  0
  -26.3790  -15.6200   20.0390 H   0  0  0  0  0  0  0  0  0  0  0  0
  -28.2870  -20.9320   19.5630 C   0  0  0  0  0  2  0  0  0  0  0  0
  -28.0790  -22.1210   18.5830 C   0  0  0  0  0  2  0  0  0  0  0  0
  -28.8020  -23.2520   19.1760 N   0  0  0  0  0  0  0  0  0  0  0  0
  -29.8150  -23.1530   19.1260 H   0  0  0  0  0  0  0  0  0  0  0  0
  -28.3810  -24.6070   18.8200 C   0  0  0  0  0  2  0  0  0  0  0  0
  -28.4840  -25.4560   20.1120 C   0  0  0  0  0  2  0  0  0  0  0  0
  -28.4120  -26.8740   19.9820 O   0  0  0  0  0  0  0  0  0  0  0  0
  -24.5470  -31.9040   23.2330 C   0  0  0  0  0  0  0  0  0  0  0  0
  -27.1930  -27.5050   20.0860 C   0  0  0  0  0  0  0  0  0  0  0  0
  -23.3260  -30.4990   21.6070 C   0  0  0  0  0  3  0  0  0  0  0  0
  -24.7670  -28.9650   20.1720 C   0  0  0  0  0  0  0  0  0  0  0  0
  -25.8460  -30.8790   21.3700 C   0  0  0  0  0  2  0  0  0  0  0  0
  -25.9340  -29.5100   20.7210 C   0  0  0  0  0  0  0  0  0  0  0  0
  -27.1490  -28.7940   20.6630 C   0  0  0  0  0  3  0  0  0  0  0  0
  -25.9940  -26.9470   19.5850 C   0  0  0  0  0  3  0  0  0  0  0  0
  -24.7890  -27.6740   19.6150 C   0  0  0  0  0  3  0  0  0  0  0  0
  -23.5220  -29.8220   20.2300 C   0  0  0  0  0  2  0  0  0  0  0  0
  -24.5930  -31.1060   22.1300 N   0  0  0  0  0  0  0  0  0  0  0  0
  -23.4700  -32.1760   23.7790 O   0  0  0  0  0  0  0  0  0  0  0  0
  -22.6900  -29.4720   22.5700 C   0  0  0  0  0  0  0  0  0  0  0  0
  -21.3660  -29.2830   22.4500 N   0  0  0  0  0  0  0  0  0  0  0  0
  -23.3830  -28.8490   23.3760 O   0  0  0  0  0  0  0  0  0  0  0  0
  -20.8650  -29.8440   21.7750 H   0  0  0  0  0  0  0  0  0  0  0  0
  -18.0000  -28.0860   22.9690 C   0  0  0  0  0  0  0  0  0  0  0  0
  -20.5580  -28.3460   23.2250 C   0  0  0  0  0  3  0  0  0  0  0  0
  -20.6590  -26.9140   22.6490 C   0  0  0  0  0  2  0  0  0  0  0  0
  -19.5520  -26.5900   21.6410 C   0  0  0  0  0  2  0  0  0  0  0  0
  -18.1730  -26.7360   22.2920 C   0  0  0  0  0  2  0  0  0  0  0  0
  -19.1190  -28.8500   23.3900 C   0  0  0  0  0  0  0  0  0  0  0  0
  -18.9040  -30.1170   23.9760 C   0  0  0  0  0  3  0  0  0  0  0  0
  -17.6020  -30.6210   24.1440 C   0  0  0  0  0  3  0  0  0  0  0  0
  -16.4950  -29.8540   23.7390 C   0  0  0  0  0  3  0  0  0  0  0  0
  -16.6950  -28.5880   23.1610 C   0  0  0  0  0  3  0  0  0  0  0  0
  -25.8380  -32.5380   23.8400 C   0  0  0  0  0  3  0  0  0  0  0  0
  -26.3710  -31.7680   25.1100 C   0  0  1  0  0  0  0  0  0  0  0  0
  -25.2900  -31.5160   26.1850 C   0  0  0  0  0  1  0  0  0  0  0  0
  -26.9630  -30.3970   24.7070 C   0  0  0  0  0  1  0  0  0  0  0  0
  -27.5260  -32.5680   25.7610 C   0  0  0  0  0  1  0  0  0  0  0  0
  -25.5280  -33.9370   24.1660 N   0  0  0  0  0  0  0  0  0  0  0  0
  -25.8580  -34.9850   23.3980 C   0  0  0  0  0  0  0  0  0  0  0  0
  -26.5290  -34.8790   22.3680 O   0  0  0  0  0  0  0  0  0  0  0  0
  -24.9350  -34.0960   24.9660 H   0  0  0  0  0  0  0  0  0  0  0  0
  -24.1270  -36.7750   23.0380 C   0  0  0  0  0  1  0  0  0  0  0  0
  -25.3690  -36.3750   23.8500 C   0  0  0  0  0  3  0  0  0  0  0  0
  -27.5080  -37.2590   24.6760 C   0  0  0  0  0  1  0  0  0  0  0  0
  -26.4030  -37.4300   23.7340 N   0  0  0  0  0  0  0  0  0  0  0  0
  -25.9950  -38.3490   23.8900 H   0  0  0  0  0  0  0  0  0  0  0  0
  1 50  1  0
  1  2  1  0
  1  4  1  0
  3  1  1  0
  5  4  1  0
  7 12  1  0
  8  9  1  0
  8  7  1  0
 10  9  1  0
 10 25  1  0
 10 11  1  0
 12  6  1  0
 12 11  1  0
 13  6  2  0
 14 15  1  0
 14 18  1  0
 15 19  1  0
 17  5  1  0
 17 16  1  0
 18  6  1  0
 18 17  1  0
 19 21  1  0
 19 16  1  0
 20 19  1  0
 22 23  2  0
 23 24  1  0
 23 42  1  0
 24 27  1  0
 25 22  1  0
 25 26  1  0
 26 24  2  0
 27 28  1  0
 28 29  2  0
 30 33  1  0
 30 29  1  0
 31 30  2  0
 32 31  1  0
 32 27  2  0
 33 34  1  0
 34 35  1  0
 35 36  2  0
 37 36  1  0
 37 41  1  0
 38 37  2  0
 39 34  2  0
 39 38  1  0
 40 39  1  0
 42 43  1  0
 43 46  1  0
 43 45  1  0
 44 42  2  0
 47 48  1  0
 47 22  1  0
 49 47  1  0
 51 52  1  0
 51 50  1  0
 53 52  1  0
 54 52  1  0
 54 55  1  0
 56 58  1  0
 56 55  1  0
 57 68  2  0
 58 63  1  0
 59 67  1  0
 59 69  1  0
 60 66  1  0
 60 62  1  0
 61 67  1  0
 62 61  1  0
 63 62  2  0
 64 65  1  0
 64 58  2  0
 65 60  2  0
 66 59  1  0
 67 57  1  0
 69 71  2  0
 70 69  1  0
 72 70  1  0
 73 82  2  0
 73 78  1  0
 74 70  1  0
 74 78  1  0
 75 74  1  0
 76 77  1  0
 76 75  1  0
 77 73  1  0
 78 79  2  0
 79 80  1  0
 81 80  2  0
 82 81  1  0
 83 57  1  0
 83 88  1  0
 83 84  1  0
 84 87  1  1
 84 85  1  0
 86 84  1  0
 88 91  1  0
 89 93  1  0
 89 88  1  0
 90 89  2  0
 93 92  1  0
 95 93  1  0
 95 96  1  0
 95 94  1  0
M  ISO  4   6 100  18 100  55 101  56 101
M  END
>  <TORSDO>  (62) 
F 23

>  <SCORE>  (62) 
-12.496

>  <name>  (62) 
61

>  <ligand_id>  (62) 
61

>  <original_smiles>  (62) 
[H]c1c([H])c([H])c2c(c1[H])C([H])([H])C([H])([H])C([H])([H])C2([H])N([H])C(=O)C1([H])N(C(=O)C([H])(N([H])C(=O)C([H])(N([H])C([H])([H])[H])C([H])([H])[H])C(C([H])([H])[H])(C([H])([H])[H])C([H])([H])[H])C([H])([H])c2c([H])c(OC([H])([H])C([H])([H])N([H])C([H])([H])C([H])([H])[N+]([H])([H])C([H])([H])C([H])([H])C3([H])N(C(=O)N4C([H])([H])C([H])([H])C([H])([H])C([H])(n5nc(-c6c([H])c([H])c(Oc7c([H])c([H])c(F)c([H])c7F)c([H])c6[H])c(C(=O)N([H])[H])c5N([H])[H])C4([H])[H])C([H])([H])C([H])([H])[N+]([H])([H])C3([H])[H])c([H])c([H])c2C1([H])[H]

>  <smiles>  (62) 
[H]c1c([H])c([H])c2c(c1[H])C([H])([H])C([H])([H])C([H])([H])C2([H])N([H])C(=O)C1([H])N(C(=O)C([H])(N([H])C(=O)C([H])(N([H])C([H])([H])[H])C([H])([H])[H])C(C([H])([H])[H])(C([H])([H])[H])C([H])([H])[H])C([H])([H])c2c([H])c(OC([H])([H])C([H])([H])N([H])C([H])([H])C([H])([H])[N+]([H])([H])C([H])([H])C([H])([H])C3([H])N(C(=O)N4C([H])([H])C([H])([H])C([H])([H])C([H])(n5nc(-c6c([H])c([H])c(Oc7c([H])c([H])c(F)c([H])c7F)c([H])c6[H])c(C(=O)N([H])[H])c5N([H])[H])C4([H])[H])C([H])([H])C([H])([H])[N+]([H])([H])C3([H])[H])c([H])c([H])c2C1([H])[H]

$$$$
62:0:0
     RDKit          3D

 98106  0  0  1  0  0  0  0  0999 V2000
  -29.1860  -20.1300   21.6490 C   0  0  0  0  0  2  0  0  0  0  0  0
  -30.0090  -19.4020   20.6550 N   0  0  0  0  0  4  0  0  0  0  0  0
  -30.9070  -19.8480   20.5250 H   0  0  0  0  0  0  0  0  0  0  0  0
  -29.5530  -19.3930   19.7570 H   0  0  0  0  0  0  0  0  0  0  0  0
  -30.3690  -18.0140   20.9990 C   0  0  0  0  0  3  0  0  0  0  0  0
  -31.9050  -17.9170   21.1770 C   0  0  0  0  0  2  0  0  0  0  0  0
  -34.1210  -20.5170   19.8210 C   0  0  0  0  0  2  0  0  0  0  0  0
  -34.4220  -19.3490   18.8830 C   0  0  0  0  0  2  0  0  0  0  0  0
  -33.3340  -19.8740   20.9570 C   0  0  0  0  0  2  0  0  0  0  0  0
  -33.6100  -18.1820   19.4490 C   0  0  0  0  0  2  0  0  0  0  0  0
  -32.5810  -18.8390   20.2560 N   0  0  0  0  0  0  0  0  0  0  0  0
  -29.8410  -17.0550   19.9230 C   0  0  0  0  0  2  0  0  0  0  0  0
  -30.5100  -14.6750   20.1000 C   0  0  0  0  0  0  0  0  0  0  0  0
  -30.3160  -12.3920   19.2390 C   0  0  0  0  0  2  0  0  0  0  0  0
  -29.3690  -12.4430   18.0210 C   0  0  0  0  0  2  0  0  0  0  0  0
  -27.9010  -12.2950   18.4680 C   0  0  0  0  0  2  0  0  0  0  0  0
  -27.5260  -13.2540   19.6300 C   0  0  0  0  0  3  0  0  0  0  0  0
  -28.5880  -13.1910   20.7530 C   0  0  0  0  0  2  0  0  0  0  0  0
  -29.9070  -13.4630   20.1540 N   0  0  0  0  0  0  0  0  0  0  0  0
  -31.6190  -14.8720   19.5990 O   0  0  0  0  0  0  0  0  0  0  0  0
  -29.7040  -15.6890   20.4230 N   0  0  0  0  0  0  0  0  0  0  0  0
  -28.8160  -15.4290   20.8280 H   0  0  0  0  0  0  0  0  0  0  0  0
  -25.1520  -13.8580   20.4310 C   0  0  0  0  0  0  0  0  0  0  0  0
  -24.0920  -13.0810   20.8170 C   0  0  0  0  0  0  0  0  0  0  0  0
  -24.5450  -11.7290   20.7350 C   0  0  0  0  0  0  0  0  0  0  0  0
  -26.1850  -12.9790   20.1440 N   0  0  0  0  0  0  0  0  0  0  0  0
  -25.8230  -11.6930   20.3820 N   0  0  0  0  0  0  0  0  0  0  0  0
  -23.8210  -10.4650   20.9180 C   0  0  0  0  0  0  0  0  0  0  0  0
  -24.2540   -9.4970   21.8480 C   0  0  0  0  0  3  0  0  0  0  0  0
  -23.5330   -8.2940   22.0170 C   0  0  0  0  0  3  0  0  0  0  0  0
  -22.3640   -8.0560   21.2540 C   0  0  0  0  0  0  0  0  0  0  0  0
  -21.9510   -9.0150   20.3130 C   0  0  0  0  0  3  0  0  0  0  0  0
  -22.6730  -10.2070   20.1420 C   0  0  0  0  0  3  0  0  0  0  0  0
  -21.6120   -6.9090   21.3340 O   0  0  0  0  0  0  0  0  0  0  0  0
  -21.5200   -6.1880   22.4970 C   0  0  0  0  0  0  0  0  0  0  0  0
  -21.0420   -6.7630   23.6950 C   0  0  0  0  0  3  0  0  0  0  0  0
  -20.8970   -5.9670   24.8490 C   0  0  0  0  0  3  0  0  0  0  0  0
  -21.2230   -4.5980   24.8060 C   0  0  0  0  0  0  0  0  0  0  0  0
  -21.6920   -4.0230   23.6130 C   0  0  0  0  0  3  0  0  0  0  0  0
  -21.8390   -4.8160   22.4610 C   0  0  0  0  0  0  0  0  0  0  0  0
  -22.2730   -4.2520   21.3090 F   0  0  0  0  0  0  0  0  0  0  0  0
  -21.0750   -3.8320   25.9120 F   0  0  0  0  0  0  0  0  0  0  0  0
  -22.7070  -13.5580   21.1520 C   0  0  0  0  0  0  0  0  0  0  0  0
  -22.0100  -12.8470   22.0300 N   0  0  0  0  0  0  0  0  0  0  0  0
  -22.2540  -14.5950   20.6690 O   0  0  0  0  0  0  0  0  0  0  0  0
  -22.3910  -12.0110   22.4460 H   0  0  0  0  0  0  0  0  0  0  0  0
  -21.0790  -13.1450   22.2920 H   0  0  0  0  0  0  0  0  0  0  0  0
  -25.3140  -15.2320   20.2810 N   0  0  0  0  0  0  0  0  0  0  0  0
  -24.5370  -15.8730   20.4020 H   0  0  0  0  0  0  0  0  0  0  0  0
  -26.1420  -15.6760   19.9070 H   0  0  0  0  0  0  0  0  0  0  0  0
  -29.3830  -21.6560   21.5300 C   0  0  0  0  0  2  0  0  0  0  0  0
  -28.3610  -22.5050   22.3160 C   0  0  0  0  0  2  0  0  0  0  0  0
  -28.7740  -23.9300   22.3350 N   0  0  0  0  0  4  0  0  0  0  0  0
  -29.6650  -23.9980   21.8710 H   0  0  0  0  0  0  0  0  0  0  0  0
  -28.9190  -24.2090   23.2930 H   0  0  0  0  0  0  0  0  0  0  0  0
  -27.8650  -24.8910   21.6690 C   0  0  0  0  0  2  0  0  0  0  0  0
  -28.6270  -26.1810   21.2850 C   0  0  0  0  0  2  0  0  0  0  0  0
  -28.1760  -26.6950   20.0360 O   0  0  0  0  0  0  0  0  0  0  0  0
  -24.5330  -31.9410   23.1860 C   0  0  0  0  0  0  0  0  0  0  0  0
  -27.0330  -27.4420   20.1040 C   0  0  0  0  0  0  0  0  0  0  0  0
  -23.2650  -30.5200   21.6060 C   0  0  0  0  0  3  0  0  0  0  0  0
  -24.6590  -28.9510   20.1630 C   0  0  0  0  0  0  0  0  0  0  0  0
  -25.7850  -30.8560   21.3280 C   0  0  0  0  0  2  0  0  0  0  0  0
  -25.8350  -29.4750   20.7130 C   0  0  0  0  0  0  0  0  0  0  0  0
  -27.0270  -28.7200   20.6940 C   0  0  0  0  0  3  0  0  0  0  0  0
  -25.8500  -26.9250   19.5370 C   0  0  0  0  0  3  0  0  0  0  0  0
  -24.6560  -27.6710   19.5780 C   0  0  0  0  0  3  0  0  0  0  0  0
  -23.4290  -29.8260   20.2290 C   0  0  0  0  0  2  0  0  0  0  0  0
  -24.5470  -31.1190   22.0980 N   0  0  0  0  0  0  0  0  0  0  0  0
  -23.4700  -32.2380   23.7500 O   0  0  0  0  0  0  0  0  0  0  0  0
  -22.6390  -29.5140   22.5990 C   0  0  0  0  0  0  0  0  0  0  0  0
  -21.3280  -29.2670   22.4490 N   0  0  0  0  0  0  0  0  0  0  0  0
  -23.3290  -28.9590   23.4570 O   0  0  0  0  0  0  0  0  0  0  0  0
  -20.8340  -29.7670   21.7240 H   0  0  0  0  0  0  0  0  0  0  0  0
  -18.0120  -27.8980   22.8560 C   0  0  0  0  0  0  0  0  0  0  0  0
  -20.5300  -28.3340   23.2450 C   0  0  0  0  0  3  0  0  0  0  0  0
  -20.7520  -26.8770   22.7820 C   0  0  0  0  0  2  0  0  0  0  0  0
  -19.7310  -26.4140   21.7390 C   0  0  0  0  0  2  0  0  0  0  0  0
  -18.3070  -26.5160   22.2960 C   0  0  0  0  0  2  0  0  0  0  0  0
  -19.0580  -28.7580   23.2840 C   0  0  0  0  0  0  0  0  0  0  0  0
  -18.7340  -30.0460   23.7630 C   0  0  0  0  0  3  0  0  0  0  0  0
  -17.3960  -30.4750   23.8260 C   0  0  0  0  0  3  0  0  0  0  0  0
  -16.3620  -29.6140   23.4180 C   0  0  0  0  0  3  0  0  0  0  0  0
  -16.6700  -28.3270   22.9400 C   0  0  0  0  0  3  0  0  0  0  0  0
  -25.8440  -32.5680   23.7520 C   0  0  0  0  0  3  0  0  0  0  0  0
  -26.4060  -31.8030   25.0120 C   0  0  1  0  0  0  0  0  0  0  0  0
  -25.3460  -31.5500   26.1090 C   0  0  0  0  0  1  0  0  0  0  0  0
  -26.9970  -30.4360   24.5940 C   0  0  0  0  0  1  0  0  0  0  0  0
  -27.5640  -32.6090   25.6440 C   0  0  0  0  0  1  0  0  0  0  0  0
  -25.5580  -33.9710   24.0830 N   0  0  0  0  0  0  0  0  0  0  0  0
  -25.8820  -35.0150   23.3110 C   0  0  0  0  0  0  0  0  0  0  0  0
  -26.5300  -34.8990   22.2650 O   0  0  0  0  0  0  0  0  0  0  0  0
  -24.9840  -34.1340   24.8980 H   0  0  0  0  0  0  0  0  0  0  0  0
  -24.1570  -36.8110   22.9760 C   0  0  0  0  0  1  0  0  0  0  0  0
  -25.4120  -36.4110   23.7680 C   0  0  0  0  0  3  0  0  0  0  0  0
  -27.5680  -37.2780   24.5480 C   0  0  0  0  0  1  0  0  0  0  0  0
  -26.4490  -37.4550   23.6290 N   0  0  0  0  0  0  0  0  0  0  0  0
  -26.0540  -38.3780   23.7850 H   0  0  0  0  0  0  0  0  0  0  0  0
  2  5  1  0
  2  1  1  0
  3  2  1  0
  4  2  1  0
  5 12  1  0
  5  6  1  0
  7  9  1  0
  8 10  1  0
  8  7  1  0
 10 11  1  0
 11  9  1  0
 11  6  1  0
 12 21  1  0
 13 19  1  0
 13 21  1  0
 14 19  1  0
 15 16  1  0
 15 14  1  0
 17 16  1  0
 17 26  1  0
 17 18  1  0
 19 18  1  0
 20 13  2  0
 21 22  1  0
 23 24  2  0
 24 43  1  0
 25 24  1  0
 25 28  1  0
 26 27  1  0
 26 23  1  0
 27 25  2  0
 28 29  1  0
 29 30  2  0
 31 34  1  0
 31 30  1  0
 32 31  2  0
 33 32  1  0
 33 28  2  0
 34 35  1  0
 35 36  1  0
 36 37  2  0
 38 37  1  0
 38 42  1  0
 39 38  2  0
 40 35  2  0
 40 39  1  0
 41 40  1  0
 43 44  1  0
 44 47  1  0
 44 46  1  0
 45 43  2  0
 48 49  1  0
 48 23  1  0
 50 48  1  0
 51  1  1  0
 51 52  1  0
 52 53  1  0
 53 55  1  0
 54 53  1  0
 56 53  1  0
 57 56  1  0
 58 60  1  0
 58 57  1  0
 59 70  2  0
 60 65  1  0
 61 69  1  0
 61 71  1  0
 62 68  1  0
 62 64  1  0
 63 69  1  0
 64 63  1  0
 65 64  2  0
 66 67  1  0
 66 60  2  0
 67 62  2  0
 68 61  1  0
 69 59  1  0
 71 73  2  0
 72 71  1  0
 74 72  1  0
 75 84  2  0
 75 80  1  0
 76 72  1  0
 76 80  1  0
 77 76  1  0
 78 79  1  0
 78 77  1  0
 79 75  1  0
 80 81  2  0
 81 82  1  0
 83 82  2  0
 84 83  1  0
 85 59  1  0
 85 90  1  0
 85 86  1  0
 86 89  1  1
 86 87  1  0
 88 86  1  0
 90 93  1  0
 91 95  1  0
 91 90  1  0
 92 91  2  0
 95 94  1  0
 97 95  1  0
 97 98  1  0
 97 96  1  0
M  ISO  4  13 100  21 100  57 101  58 101
M  END
>  <TORSDO>  (63) 
F 26

>  <SCORE>  (63) 
-11.459

>  <name>  (63) 
62

>  <ligand_id>  (63) 
62

>  <original_smiles>  (63) 
[H]c1c([H])c([H])c2c(c1[H])C([H])([H])C([H])([H])C([H])([H])C2([H])N([H])C(=O)C1([H])N(C(=O)C([H])(N([H])C(=O)C([H])(N([H])C([H])([H])[H])C([H])([H])[H])C(C([H])([H])[H])(C([H])([H])[H])C([H])([H])[H])C([H])([H])c2c([H])c(OC([H])([H])C([H])([H])[N+]([H])([H])C([H])([H])C([H])([H])C([H])([H])[N+]([H])([H])C([H])(C([H])([H])N([H])C(=O)N3C([H])([H])C([H])([H])C([H])([H])C([H])(n4nc(-c5c([H])c([H])c(Oc6c([H])c([H])c(F)c([H])c6F)c([H])c5[H])c(C(=O)N([H])[H])c4N([H])[H])C3([H])[H])C([H])([H])N3C([H])([H])C([H])([H])C([H])([H])C3([H])[H])c([H])c([H])c2C1([H])[H]

>  <smiles>  (63) 
[H]c1c([H])c([H])c2c(c1[H])C([H])([H])C([H])([H])C([H])([H])C2([H])N([H])C(=O)C1([H])N(C(=O)C([H])(N([H])C(=O)C([H])(N([H])C([H])([H])[H])C([H])([H])[H])C(C([H])([H])[H])(C([H])([H])[H])C([H])([H])[H])C([H])([H])c2c([H])c(OC([H])([H])C([H])([H])[N+]([H])([H])C([H])([H])C([H])([H])C([H])([H])[N+]([H])([H])C([H])(C([H])([H])N([H])C(=O)N3C([H])([H])C([H])([H])C([H])([H])C([H])(n4nc(-c5c([H])c([H])c(Oc6c([H])c([H])c(F)c([H])c6F)c([H])c5[H])c(C(=O)N([H])[H])c4N([H])[H])C3([H])[H])C([H])([H])N3C([H])([H])C([H])([H])C([H])([H])C3([H])[H])c([H])c([H])c2C1([H])[H]

$$$$
63:0:0
     RDKit          3D

 97106  0  0  1  0  0  0  0  0999 V2000
  -29.6700  -22.4090   20.0310 C   0  0  0  0  0  2  0  0  0  0  0  0
  -27.7530  -19.3480   18.7690 C   0  0  0  0  0  2  0  0  0  0  0  0
  -27.7440  -18.3670   19.9470 C   0  0  0  0  0  2  0  0  0  0  0  0
  -31.4350  -18.0280   20.1070 C   0  0  0  0  0  2  0  0  0  0  0  0
  -31.0710  -19.5150   19.8190 C   0  0  0  0  0  2  0  0  0  0  0  0
  -27.9020  -20.8190   19.2190 C   0  0  0  0  0  2  0  0  0  0  0  0
  -29.1030  -18.3510   20.6560 C   0  0  0  0  0  3  0  0  0  0  0  0
  -30.1040  -17.2570   20.0500 C   0  0  0  0  0  3  0  0  0  0  0  0
  -29.7910  -19.8020   20.6300 C   0  0  0  0  0  3  0  0  0  0  0  0
  -28.9480  -21.0600   20.2570 N   0  0  1  0  0  4  0  0  0  0  0  0
  -28.3950  -21.1800   21.0940 H   0  0  0  0  0  0  0  0  0  0  0  0
  -30.8360  -14.7070   20.2660 C   0  0  0  0  0  0  0  0  0  0  0  0
  -30.5880  -12.4500   19.2440 C   0  0  0  0  0  2  0  0  0  0  0  0
  -29.6300  -12.5780   18.0370 C   0  0  0  0  0  2  0  0  0  0  0  0
  -28.1650  -12.4220   18.4930 C   0  0  0  0  0  2  0  0  0  0  0  0
  -27.8310  -13.2870   19.7380 C   0  0  0  0  0  3  0  0  0  0  0  0
  -28.9080  -13.1470   20.8380 C   0  0  0  0  0  2  0  0  0  0  0  0
  -30.2070  -13.4840   20.2340 N   0  0  0  0  0  0  0  0  0  0  0  0
  -31.9860  -14.8230   19.8320 O   0  0  0  0  0  0  0  0  0  0  0  0
  -30.0710  -15.8170   20.5800 N   0  0  0  0  0  0  0  0  0  0  0  0
  -29.1870  -15.5560   20.9880 H   0  0  0  0  0  0  0  0  0  0  0  0
  -25.4630  -13.9030   20.5160 C   0  0  0  0  0  0  0  0  0  0  0  0
  -24.3910  -13.1390   20.8960 C   0  0  0  0  0  0  0  0  0  0  0  0
  -24.8340  -11.7820   20.8330 C   0  0  0  0  0  0  0  0  0  0  0  0
  -26.4890  -13.0120   20.2440 N   0  0  0  0  0  0  0  0  0  0  0  0
  -26.1190  -11.7310   20.4980 N   0  0  0  0  0  0  0  0  0  0  0  0
  -24.0920  -10.5280   21.0190 C   0  0  0  0  0  0  0  0  0  0  0  0
  -24.5050   -9.5580   21.9600 C   0  0  0  0  0  3  0  0  0  0  0  0
  -23.7640   -8.3700   22.1330 C   0  0  0  0  0  3  0  0  0  0  0  0
  -22.5960   -8.1420   21.3660 C   0  0  0  0  0  0  0  0  0  0  0  0
  -22.2020   -9.1000   20.4160 C   0  0  0  0  0  3  0  0  0  0  0  0
  -22.9440  -10.2810   20.2400 C   0  0  0  0  0  3  0  0  0  0  0  0
  -21.8300   -7.0030   21.4450 O   0  0  0  0  0  0  0  0  0  0  0  0
  -21.7360   -6.2820   22.6090 C   0  0  0  0  0  0  0  0  0  0  0  0
  -21.2420   -6.8530   23.8010 C   0  0  0  0  0  3  0  0  0  0  0  0
  -21.0950   -6.0580   24.9560 C   0  0  0  0  0  3  0  0  0  0  0  0
  -21.4320   -4.6910   24.9170 C   0  0  0  0  0  0  0  0  0  0  0  0
  -21.9180   -4.1190   23.7290 C   0  0  0  0  0  3  0  0  0  0  0  0
  -22.0680   -4.9120   22.5770 C   0  0  0  0  0  0  0  0  0  0  0  0
  -22.5170   -4.3510   21.4290 F   0  0  0  0  0  0  0  0  0  0  0  0
  -21.2850   -3.9240   26.0230 F   0  0  0  0  0  0  0  0  0  0  0  0
  -23.0090  -13.6360   21.2040 C   0  0  0  0  0  0  0  0  0  0  0  0
  -22.2850  -12.9370   22.0710 N   0  0  0  0  0  0  0  0  0  0  0  0
  -22.5780  -14.6770   20.7100 O   0  0  0  0  0  0  0  0  0  0  0  0
  -22.6480  -12.0970   22.4980 H   0  0  0  0  0  0  0  0  0  0  0  0
  -21.3550  -13.2500   22.3150 H   0  0  0  0  0  0  0  0  0  0  0  0
  -25.6450  -15.2730   20.3580 N   0  0  0  0  0  0  0  0  0  0  0  0
  -24.8870  -15.9340   20.4860 H   0  0  0  0  0  0  0  0  0  0  0  0
  -26.4860  -15.6980   19.9930 H   0  0  0  0  0  0  0  0  0  0  0  0
  -29.1860  -23.8640   20.6280 C   0  0  0  0  0  3  0  0  0  0  0  0
  -28.8980  -23.8330   22.1520 C   0  0  0  0  0  2  0  0  0  0  0  0
  -30.1180  -23.6970   22.9750 N   0  0  0  0  0  4  0  0  0  0  0  0
  -30.6330  -22.8610   22.7720 H   0  0  0  0  0  0  0  0  0  0  0  0
  -29.8770  -23.6750   23.9500 H   0  0  0  0  0  0  0  0  0  0  0  0
  -30.7270  -24.4860   22.8410 H   0  0  0  0  0  0  0  0  0  0  0  0
  -28.1920  -24.8960   19.8740 C   0  0  0  0  0  2  0  0  0  0  0  0
  -28.3260  -26.3720   20.1590 O   0  0  0  0  0  0  0  0  0  0  0  0
  -24.5770  -31.8040   23.1680 C   0  0  0  0  0  0  0  0  0  0  0  0
  -27.2100  -27.2400   20.0870 C   0  0  0  0  0  0  0  0  0  0  0  0
  -23.3890  -30.4290   21.4990 C   0  0  0  0  0  3  0  0  0  0  0  0
  -24.8520  -28.8860   20.0690 C   0  0  0  0  0  0  0  0  0  0  0  0
  -25.9340  -30.7320   21.3490 C   0  0  0  0  0  2  0  0  0  0  0  0
  -26.0170  -29.3590   20.6830 C   0  0  0  0  0  0  0  0  0  0  0  0
  -27.1970  -28.5490   20.6790 C   0  0  0  0  0  3  0  0  0  0  0  0
  -26.0210  -26.8330   19.4430 C   0  0  0  0  0  3  0  0  0  0  0  0
  -24.8570  -27.6300   19.4410 C   0  0  0  0  0  3  0  0  0  0  0  0
  -23.6180  -29.7690   20.1130 C   0  0  0  0  0  2  0  0  0  0  0  0
  -24.6530  -31.0060   22.0620 N   0  0  0  0  0  0  0  0  0  0  0  0
  -23.4880  -32.0790   23.6920 O   0  0  0  0  0  0  0  0  0  0  0  0
  -22.7120  -29.4040   22.4400 C   0  0  0  0  0  0  0  0  0  0  0  0
  -21.3810  -29.2530   22.3190 N   0  0  0  0  0  0  0  0  0  0  0  0
  -23.3830  -28.7460   23.2390 O   0  0  0  0  0  0  0  0  0  0  0  0
  -20.8970  -29.8360   21.6490 H   0  0  0  0  0  0  0  0  0  0  0  0
  -17.9800  -28.1430   22.8580 C   0  0  0  0  0  0  0  0  0  0  0  0
  -20.5510  -28.3140   23.0750 C   0  0  0  0  0  3  0  0  0  0  0  0
  -20.5930  -26.9010   22.4470 C   0  0  0  0  0  2  0  0  0  0  0  0
  -19.4590  -26.6510   21.4480 C   0  0  0  0  0  2  0  0  0  0  0  0
  -18.0980  -26.8150   22.1300 C   0  0  0  0  0  2  0  0  0  0  0  0
  -19.1320  -28.8540   23.2880 C   0  0  0  0  0  0  0  0  0  0  0  0
  -18.9670  -30.0990   23.9310 C   0  0  0  0  0  3  0  0  0  0  0  0
  -17.6830  -30.6340   24.1470 C   0  0  0  0  0  3  0  0  0  0  0  0
  -16.5450  -29.9190   23.7310 C   0  0  0  0  0  3  0  0  0  0  0  0
  -16.6960  -28.6750   23.0930 C   0  0  0  0  0  3  0  0  0  0  0  0
  -25.8540  -32.4290   23.8110 C   0  0  0  0  0  3  0  0  0  0  0  0
  -25.5440  -33.8260   24.1460 N   0  0  0  0  0  0  0  0  0  0  0  0
  -25.8900  -34.8840   23.3990 C   0  0  0  0  0  0  0  0  0  0  0  0
  -26.5700  -34.7830   22.3750 O   0  0  0  0  0  0  0  0  0  0  0  0
  -24.9390  -33.9790   24.9400 H   0  0  0  0  0  0  0  0  0  0  0  0
  -24.1820  -36.6940   23.0270 C   0  0  0  0  0  1  0  0  0  0  0  0
  -25.4040  -36.2720   23.8590 C   0  0  0  0  0  3  0  0  0  0  0  0
  -27.5220  -37.1390   24.7490 C   0  0  0  0  0  1  0  0  0  0  0  0
  -26.4460  -37.3180   23.7770 N   0  0  0  0  0  0  0  0  0  0  0  0
  -26.0430  -38.2410   23.9170 H   0  0  0  0  0  0  0  0  0  0  0  0
  -26.3470  -31.6480   25.0900 C   0  0  1  0  0  0  0  0  0  0  0  0
  -25.2370  -31.4080   26.1400 C   0  0  0  0  0  1  0  0  0  0  0  0
  -26.9330  -30.2720   24.7010 C   0  0  0  0  0  1  0  0  0  0  0  0
  -27.4880  -32.4360   25.7750 C   0  0  0  0  0  1  0  0  0  0  0  0
  1 10  1  0
  1 50  1  0
  2  6  1  0
  2  3  1  0
  5  4  1  0
  6 10  1  0
  7  3  1  0
  8  4  1  0
  8 20  1  0
  8  7  1  0
  9  5  1  0
  9  7  1  0
 10  9  1  0
 10 11  1  1
 12 20  1  0
 13 18  1  0
 14 15  1  0
 14 13  1  0
 16 15  1  0
 16 25  1  0
 16 17  1  0
 18 12  1  0
 18 17  1  0
 19 12  2  0
 20 21  1  0
 22 23  2  0
 23 42  1  0
 24 23  1  0
 24 27  1  0
 25 26  1  0
 25 22  1  0
 26 24  2  0
 27 28  1  0
 28 29  2  0
 30 33  1  0
 30 29  1  0
 31 30  2  0
 32 31  1  0
 32 27  2  0
 33 34  1  0
 34 35  1  0
 35 36  2  0
 37 36  1  0
 37 41  1  0
 38 37  2  0
 39 34  2  0
 39 38  1  0
 40 39  1  0
 42 43  1  0
 43 46  1  0
 43 45  1  0
 44 42  2  0
 47 48  1  0
 47 22  1  0
 49 47  1  0
 50 56  1  0
 50 51  1  0
 51 52  1  0
 52 54  1  0
 53 52  1  0
 55 52  1  0
 56 57  1  0
 58 69  2  0
 59 57  1  0
 59 64  1  0
 60 68  1  0
 60 70  1  0
 61 67  1  0
 61 63  1  0
 62 68  1  0
 63 62  1  0
 64 63  2  0
 65 59  2  0
 66 65  1  0
 66 61  2  0
 67 60  1  0
 68 58  1  0
 70 72  2  0
 71 70  1  0
 73 71  1  0
 74 83  2  0
 74 79  1  0
 75 71  1  0
 75 79  1  0
 76 75  1  0
 77 78  1  0
 77 76  1  0
 78 74  1  0
 79 80  2  0
 80 81  1  0
 82 81  2  0
 83 82  1  0
 84 58  1  0
 84 85  1  0
 84 94  1  0
 85 88  1  0
 86 90  1  0
 86 85  1  0
 87 86  2  0
 90 89  1  0
 92 90  1  0
 92 93  1  0
 92 91  1  0
 94 97  1  1
 94 95  1  0
 96 94  1  0
M  ISO  4  12 100  20 100  56 101  57 101
M  END
>  <TORSDO>  (64) 
F 21

>  <SCORE>  (64) 
-14.091

>  <name>  (64) 
63

>  <ligand_id>  (64) 
63

>  <original_smiles>  (64) 
[H]c1c([H])c([H])c2c(c1[H])C([H])([H])C([H])([H])C([H])([H])C2([H])N([H])C(=O)C1([H])N(C(=O)C([H])(N([H])C(=O)C([H])(N([H])C([H])([H])[H])C([H])([H])[H])C(C([H])([H])[H])(C([H])([H])[H])C([H])([H])[H])C([H])([H])c2c([H])c(OC([H])([H])C([H])(C([H])([H])[N+]([H])([H])[H])C([H])([H])[N+]3([H])C([H])([H])C([H])([H])C([H])([H])C4([H])C([H])(N([H])C(=O)N5C([H])([H])C([H])([H])C([H])([H])C([H])(n6nc(-c7c([H])c([H])c(Oc8c([H])c([H])c(F)c([H])c8F)c([H])c7[H])c(C(=O)N([H])[H])c6N([H])[H])C5([H])[H])C([H])([H])C([H])([H])C43[H])c([H])c([H])c2C1([H])[H]

>  <smiles>  (64) 
[H]c1c([H])c([H])c2c(c1[H])C([H])([H])C([H])([H])C([H])([H])C2([H])N([H])C(=O)C1([H])N(C(=O)C([H])(N([H])C(=O)C([H])(N([H])C([H])([H])[H])C([H])([H])[H])C(C([H])([H])[H])(C([H])([H])[H])C([H])([H])[H])C([H])([H])c2c([H])c(OC([H])([H])C([H])(C([H])([H])[N+]([H])([H])[H])C([H])([H])[N+]3([H])C([H])([H])C([H])([H])C([H])([H])C4([H])C([H])(N([H])C(=O)N5C([H])([H])C([H])([H])C([H])([H])C([H])(n6nc(-c7c([H])c([H])c(Oc8c([H])c([H])c(F)c([H])c8F)c([H])c7[H])c(C(=O)N([H])[H])c6N([H])[H])C5([H])[H])C([H])([H])C([H])([H])C43[H])c([H])c([H])c2C1([H])[H]

$$$$
64:0:0
     RDKit          3D

 95103  0  0  1  0  0  0  0  0999 V2000
  -28.9630  -22.5450   20.5350 N   0  0  0  0  0  0  0  0  0  0  0  0
  -29.2710  -21.2710   19.7840 C   0  0  0  0  0  2  0  0  0  0  0  0
  -29.8350  -20.0530   20.6540 C   0  0  0  0  0  2  0  0  0  0  0  0
  -30.9510  -14.4920   19.8540 C   0  0  0  0  0  0  0  0  0  0  0  0
  -30.6310  -12.2370   18.8750 C   0  0  0  0  0  2  0  0  0  0  0  0
  -29.5960  -12.3320   17.7330 C   0  0  0  0  0  2  0  0  0  0  0  0
  -28.1620  -12.1800   18.2820 C   0  0  0  0  0  2  0  0  0  0  0  0
  -27.8990  -13.0710   19.5250 C   0  0  0  0  0  3  0  0  0  0  0  0
  -29.0460  -12.9500   20.5530 C   0  0  0  0  0  2  0  0  0  0  0  0
  -30.2940  -13.2890   19.8560 N   0  0  0  0  0  0  0  0  0  0  0  0
  -32.0970  -14.5720   19.4000 O   0  0  0  0  0  0  0  0  0  0  0  0
  -29.4450  -16.1540   21.0480 C   0  0  0  0  0  2  0  0  0  0  0  0
  -30.1970  -16.6090   18.7520 C   0  0  0  0  0  2  0  0  0  0  0  0
  -29.6960  -17.6640   21.3810 C   0  0  0  0  0  2  0  0  0  0  0  0
  -30.4480  -18.1090   19.1250 C   0  0  0  0  0  2  0  0  0  0  0  0
  -30.1780  -15.6350   19.8760 N   0  0  0  0  0  0  0  0  0  0  0  0
  -29.5800  -18.6130   20.2280 N   0  0  2  0  0  4  0  0  0  0  0  0
  -28.6230  -18.5690   19.9100 H   0  0  0  0  0  0  0  0  0  0  0  0
  -25.6130  -13.6830   20.5190 C   0  0  0  0  0  0  0  0  0  0  0  0
  -24.5610  -12.9160   20.9430 C   0  0  0  0  0  0  0  0  0  0  0  0
  -24.9700  -11.5590   20.7730 C   0  0  0  0  0  0  0  0  0  0  0  0
  -26.5970  -12.7920   20.1240 N   0  0  0  0  0  0  0  0  0  0  0  0
  -26.2220  -11.5050   20.3350 N   0  0  0  0  0  0  0  0  0  0  0  0
  -24.2210  -10.3070   20.9450 C   0  0  0  0  0  0  0  0  0  0  0  0
  -24.5950   -9.3500   21.9150 C   0  0  0  0  0  3  0  0  0  0  0  0
  -23.8490   -8.1640   22.0750 C   0  0  0  0  0  3  0  0  0  0  0  0
  -22.7130   -7.9250   21.2660 C   0  0  0  0  0  0  0  0  0  0  0  0
  -22.3590   -8.8690   20.2860 C   0  0  0  0  0  3  0  0  0  0  0  0
  -23.1060  -10.0480   20.1240 C   0  0  0  0  0  3  0  0  0  0  0  0
  -21.9430   -6.7900   21.3330 O   0  0  0  0  0  0  0  0  0  0  0  0
  -21.6640   -6.1800   22.5290 C   0  0  0  0  0  0  0  0  0  0  0  0
  -20.9590   -6.8410   23.5570 C   0  0  0  0  0  3  0  0  0  0  0  0
  -20.6330   -6.1540   24.7430 C   0  0  0  0  0  3  0  0  0  0  0  0
  -21.0020   -4.8050   24.9000 C   0  0  0  0  0  0  0  0  0  0  0  0
  -21.6980   -4.1410   23.8750 C   0  0  0  0  0  3  0  0  0  0  0  0
  -22.0260   -4.8260   22.6920 C   0  0  0  0  0  0  0  0  0  0  0  0
  -22.6790   -4.1760   21.6990 F   0  0  0  0  0  0  0  0  0  0  0  0
  -20.6810   -4.1430   26.0370 F   0  0  0  0  0  0  0  0  0  0  0  0
  -23.2150  -13.4140   21.3830 C   0  0  0  0  0  0  0  0  0  0  0  0
  -22.5510  -12.6830   22.2720 N   0  0  0  0  0  0  0  0  0  0  0  0
  -22.7640  -14.4830   20.9750 O   0  0  0  0  0  0  0  0  0  0  0  0
  -22.9310  -11.8160   22.6240 H   0  0  0  0  0  0  0  0  0  0  0  0
  -21.6530  -12.9980   22.6080 H   0  0  0  0  0  0  0  0  0  0  0  0
  -25.8040  -15.0570   20.4130 N   0  0  0  0  0  0  0  0  0  0  0  0
  -25.0560  -15.7140   20.6090 H   0  0  0  0  0  0  0  0  0  0  0  0
  -26.5910  -15.4830   19.9420 H   0  0  0  0  0  0  0  0  0  0  0  0
  -30.0980  -22.8780   21.4210 C   0  0  0  0  0  2  0  0  0  0  0  0
  -29.6760  -23.4430   22.7970 C   0  0  0  0  0  2  0  0  0  0  0  0
  -30.2810  -22.7040   23.9160 N   0  0  0  0  0  4  0  0  0  0  0  0
  -30.0330  -21.7310   23.8800 H   0  0  0  0  0  0  0  0  0  0  0  0
  -29.9480  -23.0760   24.7870 H   0  0  0  0  0  0  0  0  0  0  0  0
  -31.2820  -22.7840   23.9040 H   0  0  0  0  0  0  0  0  0  0  0  0
  -28.6590  -23.7500   19.6800 C   0  0  0  0  0  2  0  0  0  0  0  0
  -27.8440  -24.9490   20.3430 C   0  0  0  0  0  2  0  0  0  0  0  0
  -28.0420  -26.3140   19.8290 O   0  0  0  0  0  0  0  0  0  0  0  0
  -24.5060  -31.6730   23.0960 C   0  0  0  0  0  0  0  0  0  0  0  0
  -26.9410  -27.1700   19.8650 C   0  0  0  0  0  0  0  0  0  0  0  0
  -23.2360  -30.3640   21.4280 C   0  0  0  0  0  3  0  0  0  0  0  0
  -24.6190  -28.8150   19.9360 C   0  0  0  0  0  0  0  0  0  0  0  0
  -25.7760  -30.6240   21.2110 C   0  0  0  0  0  2  0  0  0  0  0  0
  -25.8070  -29.2660   20.5260 C   0  0  0  0  0  0  0  0  0  0  0  0
  -26.9760  -28.4550   20.4760 C   0  0  0  0  0  3  0  0  0  0  0  0
  -25.7370  -26.7590   19.2570 C   0  0  0  0  0  3  0  0  0  0  0  0
  -24.5830  -27.5660   19.2920 C   0  0  0  0  0  3  0  0  0  0  0  0
  -23.4080  -29.7210   20.0260 C   0  0  0  0  0  2  0  0  0  0  0  0
  -24.5260  -30.9010   21.9690 N   0  0  0  0  0  0  0  0  0  0  0  0
  -23.4400  -31.9640   23.6570 O   0  0  0  0  0  0  0  0  0  0  0  0
  -22.5570  -29.3380   22.3680 C   0  0  0  0  0  0  0  0  0  0  0  0
  -21.2240  -29.2120   22.2610 N   0  0  0  0  0  0  0  0  0  0  0  0
  -23.2300  -28.6590   23.1490 O   0  0  0  0  0  0  0  0  0  0  0  0
  -20.7440  -29.8110   21.6050 H   0  0  0  0  0  0  0  0  0  0  0  0
  -17.8100  -28.1580   22.8220 C   0  0  0  0  0  0  0  0  0  0  0  0
  -20.3860  -28.2780   23.0140 C   0  0  0  0  0  3  0  0  0  0  0  0
  -20.3970  -26.8730   22.3660 C   0  0  0  0  0  2  0  0  0  0  0  0
  -19.2470  -26.6560   21.3780 C   0  0  0  0  0  2  0  0  0  0  0  0
  -17.8970  -26.8360   22.0770 C   0  0  0  0  0  2  0  0  0  0  0  0
  -18.9800  -28.8420   23.2480 C   0  0  0  0  0  0  0  0  0  0  0  0
  -18.8440  -30.0820   23.9080 C   0  0  0  0  0  3  0  0  0  0  0  0
  -17.5720  -30.6380   24.1440 C   0  0  0  0  0  3  0  0  0  0  0  0
  -16.4190  -29.9490   23.7330 C   0  0  0  0  0  3  0  0  0  0  0  0
  -16.5380  -28.7110   23.0780 C   0  0  0  0  0  3  0  0  0  0  0  0
  -25.8170  -32.2440   23.7180 C   0  0  0  0  0  3  0  0  0  0  0  0
  -26.3290  -31.4130   24.9590 C   0  0  1  0  0  0  0  0  0  0  0  0
  -25.2440  -31.1620   26.0320 C   0  0  0  0  0  1  0  0  0  0  0  0
  -26.8730  -30.0370   24.5070 C   0  0  0  0  0  1  0  0  0  0  0  0
  -27.5090  -32.1530   25.6330 C   0  0  0  0  0  1  0  0  0  0  0  0
  -25.5560  -33.6390   24.1020 N   0  0  0  0  0  0  0  0  0  0  0  0
  -25.9030  -34.7060   23.3700 C   0  0  0  0  0  0  0  0  0  0  0  0
  -26.5450  -34.6180   22.3210 O   0  0  0  0  0  0  0  0  0  0  0  0
  -24.9850  -33.7830   24.9210 H   0  0  0  0  0  0  0  0  0  0  0  0
  -24.2150  -36.5550   23.1240 C   0  0  0  0  0  1  0  0  0  0  0  0
  -25.4680  -36.0920   23.8850 C   0  0  0  0  0  3  0  0  0  0  0  0
  -27.6390  -36.9050   24.6940 C   0  0  0  0  0  1  0  0  0  0  0  0
  -26.5250  -37.1200   23.7740 N   0  0  0  0  0  0  0  0  0  0  0  0
  -26.1460  -38.0470   23.9450 H   0  0  0  0  0  0  0  0  0  0  0  0
  1 47  1  0
  2  1  1  0
  2  3  1  0
  4 10  1  0
  4 16  1  0
  5 10  1  0
  6  7  1  0
  6  5  1  0
  8  7  1  0
  8 22  1  0
  8  9  1  0
 10  9  1  0
 11  4  2  0
 12 14  1  0
 13 15  1  0
 13 16  1  0
 15 17  1  0
 16 12  1  0
 17  3  1  0
 17 14  1  0
 17 18  1  6
 19 20  2  0
 20 39  1  0
 21 20  1  0
 21 24  1  0
 22 23  1  0
 22 19  1  0
 23 21  2  0
 24 25  1  0
 25 26  2  0
 27 30  1  0
 27 26  1  0
 28 27  2  0
 29 28  1  0
 29 24  2  0
 30 31  1  0
 31 36  2  0
 31 32  1  0
 32 33  2  0
 33 34  1  0
 34 38  1  0
 35 34  2  0
 36 35  1  0
 37 36  1  0
 39 40  1  0
 40 43  1  0
 40 42  1  0
 41 39  2  0
 44 19  1  0
 44 45  1  0
 46 44  1  0
 47 48  1  0
 48 49  1  0
 49 51  1  0
 50 49  1  0
 52 49  1  0
 53 54  1  0
 53  1  1  0
 55 57  1  0
 55 54  1  0
 56 67  2  0
 57 62  1  0
 58 66  1  0
 58 68  1  0
 59 65  1  0
 59 61  1  0
 60 66  1  0
 61 60  1  0
 62 61  2  0
 63 64  1  0
 63 57  2  0
 64 59  2  0
 65 58  1  0
 66 56  1  0
 68 70  2  0
 69 68  1  0
 71 69  1  0
 72 81  2  0
 72 77  1  0
 73 69  1  0
 73 77  1  0
 74 73  1  0
 75 76  1  0
 75 74  1  0
 76 72  1  0
 77 78  2  0
 78 79  1  0
 80 79  2  0
 81 80  1  0
 82 56  1  0
 82 87  1  0
 82 83  1  0
 83 86  1  1
 83 84  1  0
 85 83  1  0
 87 90  1  0
 88 92  1  0
 88 87  1  0
 89 88  2  0
 92 91  1  0
 94 92  1  0
 94 95  1  0
 94 93  1  0
M  ISO  4   4 100  16 100  54 101  55 101
M  END
>  <TORSDO>  (65) 
F 23

>  <SCORE>  (65) 
-12.164

>  <name>  (65) 
64

>  <ligand_id>  (65) 
64

>  <original_smiles>  (65) 
[H]c1c([H])c([H])c2c(c1[H])C([H])([H])C([H])([H])C([H])([H])C2([H])N([H])C(=O)C1([H])N(C(=O)C([H])(N([H])C(=O)C([H])(N([H])C([H])([H])[H])C([H])([H])[H])C(C([H])([H])[H])(C([H])([H])[H])C([H])([H])[H])C([H])([H])c2c([H])c(OC([H])([H])C([H])([H])N(C([H])([H])C([H])([H])[N+]([H])([H])[H])C([H])([H])C([H])([H])[N+]3([H])C([H])([H])C([H])([H])N(C(=O)N4C([H])([H])C([H])([H])C([H])([H])C([H])(n5nc(-c6c([H])c([H])c(Oc7c([H])c([H])c(F)c([H])c7F)c([H])c6[H])c(C(=O)N([H])[H])c5N([H])[H])C4([H])[H])C([H])([H])C3([H])[H])c([H])c([H])c2C1([H])[H]

>  <smiles>  (65) 
[H]c1c([H])c([H])c2c(c1[H])C([H])([H])C([H])([H])C([H])([H])C2([H])N([H])C(=O)C1([H])N(C(=O)C([H])(N([H])C(=O)C([H])(N([H])C([H])([H])[H])C([H])([H])[H])C(C([H])([H])[H])(C([H])([H])[H])C([H])([H])[H])C([H])([H])c2c([H])c(OC([H])([H])C([H])([H])N(C([H])([H])C([H])([H])[N+]([H])([H])[H])C([H])([H])C([H])([H])[N+]3([H])C([H])([H])C([H])([H])N(C(=O)N4C([H])([H])C([H])([H])C([H])([H])C([H])(n5nc(-c6c([H])c([H])c(Oc7c([H])c([H])c(F)c([H])c7F)c([H])c6[H])c(C(=O)N([H])[H])c5N([H])[H])C4([H])[H])C([H])([H])C3([H])[H])c([H])c([H])c2C1([H])[H]

$$$$
65:0:0
     RDKit          3D

 98108  0  0  1  0  0  0  0  0999 V2000
  -29.4810  -21.3300   19.3550 C   0  0  0  0  0  2  0  0  0  0  0  0
  -31.8750  -21.8710   19.9280 C   0  0  0  0  0  2  0  0  0  0  0  0
  -29.0460  -22.5080   20.2280 C   0  0  0  0  0  2  0  0  0  0  0  0
  -31.3590  -23.0850   20.7320 C   0  0  0  0  0  2  0  0  0  0  0  0
  -30.8330  -20.7320   19.8030 C   0  0  0  0  0  3  0  0  0  0  0  0
  -30.0720  -23.5780   20.1750 N   0  0  2  0  0  4  0  0  0  0  0  0
  -30.2500  -23.7720   19.1990 H   0  0  0  0  0  0  0  0  0  0  0  0
  -31.3360  -19.6260   18.8370 C   0  0  0  0  0  2  0  0  0  0  0  0
  -30.3210  -18.5580   18.6020 N   0  0  2  0  0  4  0  0  0  0  0  0
  -29.4900  -18.8760   19.0770 H   0  0  0  0  0  0  0  0  0  0  0  0
  -31.0150  -14.6180   20.4850 C   0  0  0  0  0  0  0  0  0  0  0  0
  -30.7080  -12.4310   19.4300 C   0  0  0  0  0  2  0  0  0  0  0  0
  -29.8050  -12.6020   18.1910 C   0  0  0  0  0  2  0  0  0  0  0  0
  -28.3190  -12.4790   18.5870 C   0  0  0  0  0  2  0  0  0  0  0  0
  -27.9380  -13.3510   19.8140 C   0  0  0  0  0  3  0  0  0  0  0  0
  -28.9720  -13.2130   20.9570 C   0  0  0  0  0  2  0  0  0  0  0  0
  -30.3130  -13.4570   20.4010 N   0  0  0  0  0  0  0  0  0  0  0  0
  -32.2160  -14.7050   20.2280 O   0  0  0  0  0  0  0  0  0  0  0  0
  -30.8080  -17.1250   20.7510 C   0  0  0  0  0  2  0  0  0  0  0  0
  -29.5390  -16.2710   19.4080 C   0  0  0  0  0  2  0  0  0  0  0  0
  -30.6820  -17.2550   19.2300 C   0  0  0  0  0  3  0  0  0  0  0  0
  -30.2710  -15.7480   20.5770 N   0  0  0  0  0  0  0  0  0  0  0  0
  -25.5290  -13.9940   20.4340 C   0  0  0  0  0  0  0  0  0  0  0  0
  -24.4450  -13.2350   20.7840 C   0  0  0  0  0  0  0  0  0  0  0  0
  -24.9050  -11.8830   20.8080 C   0  0  0  0  0  0  0  0  0  0  0  0
  -26.5760  -13.1000   20.2650 N   0  0  0  0  0  0  0  0  0  0  0  0
  -26.2040  -11.8300   20.5500 N   0  0  0  0  0  0  0  0  0  0  0  0
  -24.1740  -10.6290   21.0030 C   0  0  0  0  0  0  0  0  0  0  0  0
  -24.5560   -9.7010   21.9970 C   0  0  0  0  0  3  0  0  0  0  0  0
  -23.8260   -8.5070   22.1780 C   0  0  0  0  0  3  0  0  0  0  0  0
  -22.7000   -8.2330   21.3640 C   0  0  0  0  0  0  0  0  0  0  0  0
  -22.3400   -9.1490   20.3590 C   0  0  0  0  0  3  0  0  0  0  0  0
  -23.0710  -10.3340   20.1760 C   0  0  0  0  0  3  0  0  0  0  0  0
  -21.9480   -7.0870   21.4500 O   0  0  0  0  0  0  0  0  0  0  0  0
  -21.8040   -6.4100   22.6350 C   0  0  0  0  0  0  0  0  0  0  0  0
  -21.2540   -7.0240   23.7810 C   0  0  0  0  0  3  0  0  0  0  0  0
  -21.0570   -6.2710   24.9570 C   0  0  0  0  0  3  0  0  0  0  0  0
  -21.4040   -4.9060   24.9850 C   0  0  0  0  0  0  0  0  0  0  0  0
  -21.9490   -4.2930   23.8430 C   0  0  0  0  0  3  0  0  0  0  0  0
  -22.1460   -5.0430   22.6700 C   0  0  0  0  0  0  0  0  0  0  0  0
  -22.6510   -4.4430   21.5660 F   0  0  0  0  0  0  0  0  0  0  0  0
  -21.2090   -4.1800   26.1120 F   0  0  0  0  0  0  0  0  0  0  0  0
  -23.0400  -13.7220   20.9910 C   0  0  0  0  0  0  0  0  0  0  0  0
  -22.2860  -13.0630   21.8650 N   0  0  0  0  0  0  0  0  0  0  0  0
  -22.6180  -14.7240   20.4150 O   0  0  0  0  0  0  0  0  0  0  0  0
  -22.6380  -12.2560   22.3580 H   0  0  0  0  0  0  0  0  0  0  0  0
  -21.3410  -13.3740   22.0460 H   0  0  0  0  0  0  0  0  0  0  0  0
  -25.7050  -15.3600   20.2290 N   0  0  0  0  0  0  0  0  0  0  0  0
  -24.9430  -16.0250   20.3180 H   0  0  0  0  0  0  0  0  0  0  0  0
  -26.5830  -15.7920   19.9810 H   0  0  0  0  0  0  0  0  0  0  0  0
  -30.4570  -18.4210   14.7830 C   0  0  0  0  0  2  0  0  0  0  0  0
  -29.0950  -19.0900   15.0290 C   0  0  0  0  0  2  0  0  0  0  0  0
  -31.0460  -18.0970   16.1690 C   0  0  0  0  0  2  0  0  0  0  0  0
  -29.1030  -19.4970   16.5050 C   0  0  0  0  0  2  0  0  0  0  0  0
  -29.9070  -18.3690   17.1680 C   0  0  0  0  0  3  0  0  0  0  0  0
  -29.6330  -24.8700   20.7590 C   0  0  0  0  0  2  0  0  0  0  0  0
  -28.4190  -25.4730   20.0280 C   0  0  0  0  0  2  0  0  0  0  0  0
  -28.3890  -26.8620   20.3020 O   0  0  0  0  0  0  0  0  0  0  0  0
  -24.5230  -31.9800   23.2530 C   0  0  0  0  0  0  0  0  0  0  0  0
  -27.1800  -27.5170   20.2560 C   0  0  0  0  0  0  0  0  0  0  0  0
  -23.3190  -30.5600   21.6210 C   0  0  0  0  0  3  0  0  0  0  0  0
  -24.7760  -28.9970   20.2310 C   0  0  0  0  0  0  0  0  0  0  0  0
  -25.8420  -30.9160   21.4300 C   0  0  0  0  0  2  0  0  0  0  0  0
  -25.9260  -29.5360   20.8180 C   0  0  0  0  0  0  0  0  0  0  0  0
  -27.1270  -28.8020   20.8310 C   0  0  0  0  0  3  0  0  0  0  0  0
  -26.0120  -26.9810   19.6610 C   0  0  0  0  0  3  0  0  0  0  0  0
  -24.8110  -27.7160   19.6520 C   0  0  0  0  0  3  0  0  0  0  0  0
  -23.5330  -29.8580   20.2540 C   0  0  0  0  0  2  0  0  0  0  0  0
  -24.5790  -31.1670   22.1610 N   0  0  0  0  0  0  0  0  0  0  0  0
  -23.4410  -32.2660   23.7830 O   0  0  0  0  0  0  0  0  0  0  0  0
  -22.6600  -29.5560   22.5910 C   0  0  0  0  0  0  0  0  0  0  0  0
  -21.3370  -29.3700   22.4480 N   0  0  0  0  0  0  0  0  0  0  0  0
  -23.3330  -28.9450   23.4260 O   0  0  0  0  0  0  0  0  0  0  0  0
  -20.8580  -29.9150   21.7450 H   0  0  0  0  0  0  0  0  0  0  0  0
  -17.9520  -28.2140   22.9330 C   0  0  0  0  0  0  0  0  0  0  0  0
  -20.5090  -28.4480   23.2240 C   0  0  0  0  0  3  0  0  0  0  0  0
  -20.6020  -27.0110   22.6630 C   0  0  0  0  0  2  0  0  0  0  0  0
  -19.5050  -26.6880   21.6440 C   0  0  0  0  0  2  0  0  0  0  0  0
  -18.1210  -26.8550   22.2740 C   0  0  0  0  0  2  0  0  0  0  0  0
  -19.0740  -28.9680   23.3640 C   0  0  0  0  0  0  0  0  0  0  0  0
  -18.8640  -30.2420   23.9390 C   0  0  0  0  0  3  0  0  0  0  0  0
  -17.5640  -30.7580   24.0870 C   0  0  0  0  0  3  0  0  0  0  0  0
  -16.4550  -29.9990   23.6730 C   0  0  0  0  0  3  0  0  0  0  0  0
  -16.6500  -28.7290   23.1010 C   0  0  0  0  0  3  0  0  0  0  0  0
  -25.8090  -32.6110   23.8730 C   0  0  0  0  0  3  0  0  0  0  0  0
  -25.5060  -34.0120   24.1870 N   0  0  0  0  0  0  0  0  0  0  0  0
  -25.8750  -35.0570   23.4340 C   0  0  0  0  0  0  0  0  0  0  0  0
  -26.5800  -34.9420   22.4280 O   0  0  0  0  0  0  0  0  0  0  0  0
  -24.8840  -34.1780   24.9660 H   0  0  0  0  0  0  0  0  0  0  0  0
  -24.1950  -36.8750   22.9920 C   0  0  0  0  0  1  0  0  0  0  0  0
  -25.3860  -36.4520   23.8660 C   0  0  0  0  0  3  0  0  0  0  0  0
  -27.4890  -37.3030   24.8070 C   0  0  0  0  0  1  0  0  0  0  0  0
  -26.4400  -37.4880   23.8080 N   0  0  0  0  0  0  0  0  0  0  0  0
  -26.0410  -38.4140   23.9380 H   0  0  0  0  0  0  0  0  0  0  0  0
  -26.3210  -31.8470   25.1550 C   0  0  1  0  0  0  0  0  0  0  0  0
  -25.2190  -31.5970   26.2100 C   0  0  0  0  0  1  0  0  0  0  0  0
  -26.9230  -30.4770   24.7660 C   0  0  0  0  0  1  0  0  0  0  0  0
  -27.4550  -32.6550   25.8280 C   0  0  0  0  0  1  0  0  0  0  0  0
  1  5  1  0
  1  3  1  0
  2  4  1  0
  5  8  1  0
  5  2  1  0
  6  3  1  0
  6  4  1  0
  6 56  1  0
  6  7  1  6
  9  8  1  0
  9 10  1  1
 11 22  1  0
 12 17  1  0
 13 14  1  0
 13 12  1  0
 15 14  1  0
 15 26  1  0
 15 16  1  0
 17 11  1  0
 17 16  1  0
 18 11  2  0
 20 22  1  0
 21  9  1  0
 21 20  1  0
 21 19  1  0
 22 19  1  0
 23 24  2  0
 24 25  1  0
 24 43  1  0
 25 28  1  0
 26 23  1  0
 26 27  1  0
 27 25  2  0
 28 29  1  0
 29 30  2  0
 31 34  1  0
 31 30  1  0
 32 31  2  0
 33 32  1  0
 33 28  2  0
 34 35  1  0
 35 40  2  0
 35 36  1  0
 36 37  2  0
 37 38  1  0
 38 42  1  0
 39 38  2  0
 40 39  1  0
 41 40  1  0
 43 44  1  0
 44 47  1  0
 44 46  1  0
 45 43  2  0
 48 49  1  0
 48 23  1  0
 50 48  1  0
 51 52  1  0
 51 53  1  0
 52 54  1  0
 53 55  1  0
 54 55  1  0
 55  9  1  0
 57 58  1  0
 57 56  1  0
 59 70  2  0
 60 58  1  0
 60 65  1  0
 61 69  1  0
 61 71  1  0
 62 68  1  0
 62 64  1  0
 63 69  1  0
 64 65  2  0
 64 63  1  0
 66 60  2  0
 67 66  1  0
 67 62  2  0
 68 61  1  0
 69 59  1  0
 71 73  2  0
 72 71  1  0
 74 72  1  0
 75 84  2  0
 75 80  1  0
 76 72  1  0
 76 80  1  0
 77 76  1  0
 78 79  1  0
 78 77  1  0
 79 75  1  0
 80 81  2  0
 81 82  1  0
 83 82  2  0
 84 83  1  0
 85 59  1  0
 85 86  1  0
 85 95  1  0
 86 89  1  0
 87 91  1  0
 87 86  1  0
 88 87  2  0
 91 90  1  0
 93 91  1  0
 93 94  1  0
 93 92  1  0
 95 98  1  1
 95 96  1  0
 97 95  1  0
M  ISO  4  11 100  22 100  57 101  58 101
M  END
>  <TORSDO>  (66) 
F 21

>  <SCORE>  (66) 
-13.550

>  <name>  (66) 
65

>  <ligand_id>  (66) 
65

>  <original_smiles>  (66) 
[H]c1c([H])c([H])c2c(c1[H])C([H])([H])C([H])([H])C([H])([H])C2([H])N([H])C(=O)C1([H])N(C(=O)C([H])(N([H])C(=O)C([H])(N([H])C([H])([H])[H])C([H])([H])[H])C(C([H])([H])[H])(C([H])([H])[H])C([H])([H])[H])C([H])([H])c2c([H])c(OC([H])([H])C([H])([H])[N+]3([H])C([H])([H])C([H])([H])C([H])(C([H])([H])[N+]([H])(C4([H])C([H])([H])N(C(=O)N5C([H])([H])C([H])([H])C([H])([H])C([H])(n6nc(-c7c([H])c([H])c(Oc8c([H])c([H])c(F)c([H])c8F)c([H])c7[H])c(C(=O)N([H])[H])c6N([H])[H])C5([H])[H])C4([H])[H])C4([H])C([H])([H])C([H])([H])C([H])([H])C4([H])[H])C([H])([H])C3([H])[H])c([H])c([H])c2C1([H])[H]

>  <smiles>  (66) 
[H]c1c([H])c([H])c2c(c1[H])C([H])([H])C([H])([H])C([H])([H])C2([H])N([H])C(=O)C1([H])N(C(=O)C([H])(N([H])C(=O)C([H])(N([H])C([H])([H])[H])C([H])([H])[H])C(C([H])([H])[H])(C([H])([H])[H])C([H])([H])[H])C([H])([H])c2c([H])c(OC([H])([H])C([H])([H])[N+]3([H])C([H])([H])C([H])([H])C([H])(C([H])([H])[N+]([H])(C4([H])C([H])([H])N(C(=O)N5C([H])([H])C([H])([H])C([H])([H])C([H])(n6nc(-c7c([H])c([H])c(Oc8c([H])c([H])c(F)c([H])c8F)c([H])c7[H])c(C(=O)N([H])[H])c6N([H])[H])C5([H])[H])C4([H])[H])C4([H])C([H])([H])C([H])([H])C([H])([H])C4([H])[H])C([H])([H])C3([H])[H])c([H])c([H])c2C1([H])[H]

$$$$
66:0:0
     RDKit          3D

 97105  0  0  1  0  0  0  0  0999 V2000
  -30.2110  -19.5520   22.8750 C   0  0  0  0  0  3  0  0  0  0  0  0
  -29.6670  -20.6870   22.2430 C   0  0  0  0  0  3  0  0  0  0  0  0
  -30.5840  -18.4200   22.1240 C   0  0  0  0  0  3  0  0  0  0  0  0
  -29.8910  -19.5700   20.0910 C   0  0  0  0  0  3  0  0  0  0  0  0
  -29.4960  -20.7130   20.8410 C   0  0  0  0  0  0  0  0  0  0  0  0
  -30.4260  -18.4030   20.7200 C   0  0  0  0  0  0  0  0  0  0  0  0
  -28.7990  -21.9260   20.1850 C   0  0  0  0  0  2  0  0  0  0  0  0
  -29.4890  -23.2400   20.3360 N   0  0  0  0  0  4  0  0  0  0  0  0
  -30.2100  -23.2870   19.6360 H   0  0  0  0  0  0  0  0  0  0  0  0
  -29.9440  -23.2560   21.2350 H   0  0  0  0  0  0  0  0  0  0  0  0
  -28.6080  -24.4530   20.2430 C   0  0  0  0  0  2  0  0  0  0  0  0
  -29.2830  -25.6920   19.5660 C   0  0  0  0  0  2  0  0  0  0  0  0
  -29.0560  -26.9810   20.1860 O   0  0  0  0  0  0  0  0  0  0  0  0
  -24.7760  -31.7670   23.2640 C   0  0  0  0  0  0  0  0  0  0  0  0
  -27.8320  -27.6220   20.1130 C   0  0  0  0  0  0  0  0  0  0  0  0
  -23.7400  -30.3690   21.5070 C   0  0  0  0  0  3  0  0  0  0  0  0
  -25.3490  -28.9980   20.0770 C   0  0  0  0  0  0  0  0  0  0  0  0
  -26.2430  -30.8890   21.4460 C   0  0  0  0  0  2  0  0  0  0  0  0
  -26.4420  -29.5570   20.7470 C   0  0  0  0  0  0  0  0  0  0  0  0
  -27.6840  -28.8770   20.7600 C   0  0  0  0  0  3  0  0  0  0  0  0
  -26.7140  -27.0820   19.4370 C   0  0  0  0  0  3  0  0  0  0  0  0
  -25.4810  -27.7630   19.4210 C   0  0  0  0  0  3  0  0  0  0  0  0
  -24.0500  -29.7730   20.1080 C   0  0  0  0  0  2  0  0  0  0  0  0
  -24.9340  -31.0240   22.1300 N   0  0  0  0  0  0  0  0  0  0  0  0
  -23.6590  -31.9430   23.7670 O   0  0  0  0  0  0  0  0  0  0  0  0
  -23.1170  -29.2640   22.3910 C   0  0  0  0  0  0  0  0  0  0  0  0
  -21.8020  -29.0410   22.2340 N   0  0  0  0  0  0  0  0  0  0  0  0
  -23.8150  -28.6140   23.1740 O   0  0  0  0  0  0  0  0  0  0  0  0
  -21.3000  -29.6170   21.5740 H   0  0  0  0  0  0  0  0  0  0  0  0
  -18.4580  -27.7440   22.6640 C   0  0  0  0  0  0  0  0  0  0  0  0
  -21.0140  -28.0230   22.9290 C   0  0  0  0  0  3  0  0  0  0  0  0
  -21.1350  -26.6510   22.2270 C   0  0  0  0  0  2  0  0  0  0  0  0
  -20.0240  -26.4000   21.2020 C   0  0  0  0  0  2  0  0  0  0  0  0
  -18.6490  -26.4620   21.8720 C   0  0  0  0  0  2  0  0  0  0  0  0
  -19.5690  -28.4850   23.1460 C   0  0  0  0  0  0  0  0  0  0  0  0
  -19.3350  -29.6890   23.8480 C   0  0  0  0  0  3  0  0  0  0  0  0
  -18.0240  -30.1500   24.0710 C   0  0  0  0  0  3  0  0  0  0  0  0
  -16.9280  -29.4030   23.6070 C   0  0  0  0  0  3  0  0  0  0  0  0
  -17.1460  -28.2020   22.9100 C   0  0  0  0  0  3  0  0  0  0  0  0
  -25.9900  -32.4500   23.9660 C   0  0  0  0  0  3  0  0  0  0  0  0
  -25.6150  -33.8450   24.2390 N   0  0  0  0  0  0  0  0  0  0  0  0
  -25.9590  -34.8890   23.4740 C   0  0  0  0  0  0  0  0  0  0  0  0
  -26.6920  -34.7830   22.4880 O   0  0  0  0  0  0  0  0  0  0  0  0
  -24.9640  -33.9950   24.9960 H   0  0  0  0  0  0  0  0  0  0  0  0
  -24.1820  -36.5990   22.9770 C   0  0  0  0  0  1  0  0  0  0  0  0
  -25.3970  -36.2700   23.8620 C   0  0  0  0  0  3  0  0  0  0  0  0
  -27.4470  -37.2650   24.7720 C   0  0  0  0  0  1  0  0  0  0  0  0
  -26.3940  -37.3580   23.7650 N   0  0  0  0  0  0  0  0  0  0  0  0
  -25.9470  -38.2680   23.8560 H   0  0  0  0  0  0  0  0  0  0  0  0
  -26.4290  -31.7190   25.2950 C   0  0  1  0  0  0  0  0  0  0  0  0
  -25.2570  -31.4450   26.2660 C   0  0  0  0  0  1  0  0  0  0  0  0
  -27.1080  -30.3680   24.9790 C   0  0  0  0  0  1  0  0  0  0  0  0
  -27.4790  -32.5770   26.0400 C   0  0  0  0  0  1  0  0  0  0  0  0
  -30.9490  -17.1700   19.9360 C   0  0  0  0  0  3  0  0  0  0  0  0
  -31.3450  -14.7280   20.3380 C   0  0  0  0  0  0  0  0  0  0  0  0
  -31.0420  -12.5020   19.3420 C   0  0  0  0  0  2  0  0  0  0  0  0
  -30.1220  -12.6670   18.1140 C   0  0  0  0  0  2  0  0  0  0  0  0
  -28.6410  -12.5620   18.5350 C   0  0  0  0  0  2  0  0  0  0  0  0
  -28.2950  -13.4490   19.7620 C   0  0  0  0  0  3  0  0  0  0  0  0
  -29.3440  -13.2860   20.8880 C   0  0  0  0  0  2  0  0  0  0  0  0
  -30.6700  -13.5470   20.3100 N   0  0  0  0  0  0  0  0  0  0  0  0
  -32.5120  -14.8260   19.9530 O   0  0  0  0  0  0  0  0  0  0  0  0
  -30.5850  -15.8400   20.4950 N   0  0  0  0  0  0  0  0  0  0  0  0
  -29.6550  -15.7230   20.8690 H   0  0  0  0  0  0  0  0  0  0  0  0
  -25.9220  -14.1100   20.5090 C   0  0  0  0  0  0  0  0  0  0  0  0
  -24.8320  -13.3610   20.8570 C   0  0  0  0  0  0  0  0  0  0  0  0
  -25.2480  -11.9960   20.7770 C   0  0  0  0  0  0  0  0  0  0  0  0
  -26.9380  -13.2030   20.2440 N   0  0  0  0  0  0  0  0  0  0  0  0
  -26.5360  -11.9240   20.4620 N   0  0  0  0  0  0  0  0  0  0  0  0
  -24.4820  -10.7550   20.9300 C   0  0  0  0  0  0  0  0  0  0  0  0
  -24.8380   -9.7810   21.8880 C   0  0  0  0  0  3  0  0  0  0  0  0
  -24.0740   -8.6020   22.0270 C   0  0  0  0  0  3  0  0  0  0  0  0
  -22.9400   -8.3910   21.2090 C   0  0  0  0  0  0  0  0  0  0  0  0
  -22.6030   -9.3530   20.2400 C   0  0  0  0  0  3  0  0  0  0  0  0
  -23.3670  -10.5240   20.0990 C   0  0  0  0  0  3  0  0  0  0  0  0
  -22.1530   -7.2660   21.2560 O   0  0  0  0  0  0  0  0  0  0  0  0
  -21.9490   -6.5790   22.4250 C   0  0  0  0  0  0  0  0  0  0  0  0
  -21.3580   -7.1870   23.5530 C   0  0  0  0  0  3  0  0  0  0  0  0
  -21.1060   -6.4270   24.7130 C   0  0  0  0  0  3  0  0  0  0  0  0
  -21.4320   -5.0580   24.7420 C   0  0  0  0  0  0  0  0  0  0  0  0
  -22.0120   -4.4480   23.6160 C   0  0  0  0  0  3  0  0  0  0  0  0
  -22.2690   -5.2070   22.4600 C   0  0  0  0  0  0  0  0  0  0  0  0
  -22.8120   -4.6100   21.3720 F   0  0  0  0  0  0  0  0  0  0  0  0
  -21.1810   -4.3230   25.8510 F   0  0  0  0  0  0  0  0  0  0  0  0
  -23.4540  -13.8760   21.1570 C   0  0  0  0  0  0  0  0  0  0  0  0
  -22.7120  -13.1830   22.0130 N   0  0  0  0  0  0  0  0  0  0  0  0
  -23.0460  -14.9300   20.6700 O   0  0  0  0  0  0  0  0  0  0  0  0
  -23.0510  -12.3320   22.4360 H   0  0  0  0  0  0  0  0  0  0  0  0
  -21.7880  -13.5090   22.2570 H   0  0  0  0  0  0  0  0  0  0  0  0
  -26.1240  -15.4810   20.3830 N   0  0  0  0  0  0  0  0  0  0  0  0
  -25.3660  -16.1370   20.5370 H   0  0  0  0  0  0  0  0  0  0  0  0
  -26.9990  -15.9380   20.1760 H   0  0  0  0  0  0  0  0  0  0  0  0
  -30.7040  -17.2110   18.4020 C   0  0  0  0  0  2  0  0  0  0  0  0
  -29.2780  -17.1570   18.0290 N   0  0  0  0  0  4  0  0  0  0  0  0
  -28.8850  -16.2600   18.2360 H   0  0  0  0  0  0  0  0  0  0  0  0
  -29.1790  -17.3120   17.0390 H   0  0  0  0  0  0  0  0  0  0  0  0
  -28.7540  -17.8650   18.5080 H   0  0  0  0  0  0  0  0  0  0  0  0
  2  1  1  0
  3  1  2  0
  4  6  2  0
  4  5  1  0
  5  2  2  0
  6  3  1  0
  7  8  1  0
  7  5  1  0
  8 10  1  0
  9  8  1  0
 11  8  1  0
 12 13  1  0
 12 11  1  0
 14 25  2  0
 15 13  1  0
 15 20  1  0
 16 24  1  0
 16 26  1  0
 17 23  1  0
 17 19  1  0
 18 24  1  0
 19 20  2  0
 19 18  1  0
 21 15  2  0
 22 21  1  0
 22 17  2  0
 23 16  1  0
 24 14  1  0
 26 28  2  0
 27 26  1  0
 29 27  1  0
 30 39  2  0
 30 35  1  0
 31 27  1  0
 31 35  1  0
 32 31  1  0
 33 34  1  0
 33 32  1  0
 34 30  1  0
 35 36  2  0
 36 37  1  0
 38 37  2  0
 39 38  1  0
 40 14  1  0
 40 41  1  0
 40 50  1  0
 41 44  1  0
 42 46  1  0
 42 41  1  0
 43 42  2  0
 46 45  1  0
 48 49  1  0
 48 46  1  0
 48 47  1  0
 50 53  1  1
 50 51  1  0
 52 50  1  0
 54 93  1  0
 54 63  1  0
 54  6  1  0
 55 63  1  0
 56 61  1  0
 57 58  1  0
 57 56  1  0
 59 58  1  0
 59 68  1  0
 59 60  1  0
 61 55  1  0
 61 60  1  0
 62 55  2  0
 63 64  1  0
 65 66  2  0
 66 85  1  0
 67 66  1  0
 67 70  1  0
 68 69  1  0
 68 65  1  0
 69 67  2  0
 70 71  1  0
 71 72  2  0
 73 76  1  0
 73 72  1  0
 74 73  2  0
 75 74  1  0
 75 70  2  0
 76 77  1  0
 77 82  2  0
 77 78  1  0
 78 79  2  0
 79 80  1  0
 80 84  1  0
 81 80  2  0
 82 81  1  0
 83 82  1  0
 85 86  1  0
 86 89  1  0
 86 88  1  0
 87 85  2  0
 90 65  1  0
 90 91  1  0
 92 90  1  0
 94 95  1  0
 94 93  1  0
 94 97  1  0
 96 94  1  0
M  ISO  4  12 101  13 101  55 100  63 100
M  END
>  <TORSDO>  (67) 
F 23

>  <SCORE>  (67) 
-10.917

>  <name>  (67) 
66

>  <ligand_id>  (67) 
66

>  <original_smiles>  (67) 
[H]c1c([H])c([H])c2c(c1[H])C([H])([H])C([H])([H])C([H])([H])C2([H])N([H])C(=O)C1([H])N(C(=O)C([H])(N([H])C(=O)C([H])(N([H])C([H])([H])[H])C([H])([H])[H])C(C([H])([H])[H])(C([H])([H])[H])C([H])([H])[H])C([H])([H])c2c([H])c(OC([H])([H])C([H])([H])[N+]([H])([H])C([H])([H])c3c([H])c([H])c([H])c(C([H])(N([H])C(=O)N4C([H])([H])C([H])([H])C([H])([H])C([H])(n5nc(-c6c([H])c([H])c(Oc7c([H])c([H])c(F)c([H])c7F)c([H])c6[H])c(C(=O)N([H])[H])c5N([H])[H])C4([H])[H])C([H])([H])[N+]([H])([H])[H])c3[H])c([H])c([H])c2C1([H])[H]

>  <smiles>  (67) 
[H]c1c([H])c([H])c2c(c1[H])C([H])([H])C([H])([H])C([H])([H])C2([H])N([H])C(=O)C1([H])N(C(=O)C([H])(N([H])C(=O)C([H])(N([H])C([H])([H])[H])C([H])([H])[H])C(C([H])([H])[H])(C([H])([H])[H])C([H])([H])[H])C([H])([H])c2c([H])c(OC([H])([H])C([H])([H])[N+]([H])([H])C([H])([H])c3c([H])c([H])c([H])c(C([H])(N([H])C(=O)N4C([H])([H])C([H])([H])C([H])([H])C([H])(n5nc(-c6c([H])c([H])c(Oc7c([H])c([H])c(F)c([H])c7F)c([H])c6[H])c(C(=O)N([H])[H])c5N([H])[H])C4([H])[H])C([H])([H])[N+]([H])([H])[H])c3[H])c([H])c([H])c2C1([H])[H]

$$$$
67:0:0
     RDKit          3D

 90 98  0  0  1  0  0  0  0  0999 V2000
  -28.9090  -21.0470   20.5010 C   0  0  0  0  0  2  0  0  0  0  0  0
  -29.8460  -18.5770   20.0360 C   0  0  0  0  0  0  0  0  0  0  0  0
  -28.9900  -19.6540   19.8400 N   0  0  0  0  0  0  0  0  0  0  0  0
  -31.0020  -18.7770   20.4170 O   0  0  0  0  0  0  0  0  0  0  0  0
  -28.1460  -19.4190   19.3350 H   0  0  0  0  0  0  0  0  0  0  0  0
  -30.7100  -14.7990   19.4540 C   0  0  0  0  0  0  0  0  0  0  0  0
  -30.2940  -12.6080   18.2590 C   0  0  0  0  0  2  0  0  0  0  0  0
  -29.1450  -12.7050   17.2240 C   0  0  0  0  0  2  0  0  0  0  0  0
  -27.7660  -12.5040   17.8860 C   0  0  0  0  0  2  0  0  0  0  0  0
  -27.6130  -13.3320   19.1880 C   0  0  0  0  0  3  0  0  0  0  0  0
  -28.8440  -13.1540   20.0970 C   0  0  0  0  0  2  0  0  0  0  0  0
  -30.0410  -13.5860   19.3500 N   0  0  0  0  0  0  0  0  0  0  0  0
  -31.7090  -15.0010   18.7540 O   0  0  0  0  0  0  0  0  0  0  0  0
  -29.2880  -16.6760   22.3150 C   0  0  0  0  0  2  0  0  0  0  0  0
  -28.3540  -16.8920   21.1210 C   0  0  0  0  0  2  0  0  0  0  0  0
  -30.3040  -15.6820   21.7310 C   0  0  0  0  0  2  0  0  0  0  0  0
  -29.3250  -17.0390   19.9390 C   0  0  0  0  0  3  0  0  0  0  0  0
  -30.1890  -15.8050   20.2620 N   0  0  0  0  0  0  0  0  0  0  0  0
  -25.4120  -13.9000   20.3860 C   0  0  0  0  0  0  0  0  0  0  0  0
  -24.4090  -13.1120   20.8870 C   0  0  0  0  0  0  0  0  0  0  0  0
  -24.8130  -11.7650   20.6480 C   0  0  0  0  0  0  0  0  0  0  0  0
  -26.3660  -13.0290   19.8860 N   0  0  0  0  0  0  0  0  0  0  0  0
  -26.0230  -11.7320   20.1050 N   0  0  0  0  0  0  0  0  0  0  0  0
  -24.0840  -10.5060   20.8570 C   0  0  0  0  0  0  0  0  0  0  0  0
  -24.5970   -9.4900   21.6920 C   0  0  0  0  0  3  0  0  0  0  0  0
  -23.8760   -8.2940   21.8880 C   0  0  0  0  0  3  0  0  0  0  0  0
  -22.6230   -8.1090   21.2580 C   0  0  0  0  0  0  0  0  0  0  0  0
  -22.1280   -9.1130   20.4080 C   0  0  0  0  0  3  0  0  0  0  0  0
  -22.8520  -10.3010   20.2050 C   0  0  0  0  0  3  0  0  0  0  0  0
  -21.8600   -6.9740   21.3740 O   0  0  0  0  0  0  0  0  0  0  0  0
  -21.8540   -6.2270   22.5240 C   0  0  0  0  0  0  0  0  0  0  0  0
  -21.5100   -6.7850   23.7740 C   0  0  0  0  0  3  0  0  0  0  0  0
  -21.4450   -5.9650   24.9170 C   0  0  0  0  0  3  0  0  0  0  0  0
  -21.7170   -4.5860   24.8120 C   0  0  0  0  0  0  0  0  0  0  0  0
  -22.0580   -4.0300   23.5650 C   0  0  0  0  0  3  0  0  0  0  0  0
  -22.1220   -4.8480   22.4240 C   0  0  0  0  0  0  0  0  0  0  0  0
  -22.4280   -4.3020   21.2230 F   0  0  0  0  0  0  0  0  0  0  0  0
  -21.6490   -3.7960   25.9080 F   0  0  0  0  0  0  0  0  0  0  0  0
  -23.1000  -13.5870   21.4460 C   0  0  0  0  0  0  0  0  0  0  0  0
  -22.5360  -12.8440   22.3930 N   0  0  0  0  0  0  0  0  0  0  0  0
  -22.5910  -14.6460   21.0800 O   0  0  0  0  0  0  0  0  0  0  0  0
  -22.9810  -12.0040   22.7300 H   0  0  0  0  0  0  0  0  0  0  0  0
  -21.6480  -13.1230   22.7880 H   0  0  0  0  0  0  0  0  0  0  0  0
  -25.5520  -15.2770   20.2770 N   0  0  0  0  0  0  0  0  0  0  0  0
  -24.8090  -15.9030   20.5670 H   0  0  0  0  0  0  0  0  0  0  0  0
  -26.2880  -15.7480   19.7670 H   0  0  0  0  0  0  0  0  0  0  0  0
  -29.2450  -22.3920   19.6730 C   0  0  0  0  0  2  0  0  0  0  0  0
  -28.3360  -23.7580   19.6180 C   0  0  0  0  0  2  0  0  0  0  0  0
  -28.4710  -25.0280   20.6110 C   0  0  0  0  0  2  0  0  0  0  0  0
  -28.4730  -26.4680   20.1520 O   0  0  0  0  0  0  0  0  0  0  0  0
  -24.5140  -31.7720   23.1600 C   0  0  0  0  0  0  0  0  0  0  0  0
  -27.3200  -27.2820   20.1520 C   0  0  0  0  0  0  0  0  0  0  0  0
  -23.3860  -30.3590   21.4760 C   0  0  0  0  0  3  0  0  0  0  0  0
  -24.9160  -28.8570   20.0720 C   0  0  0  0  0  0  0  0  0  0  0  0
  -25.9210  -30.7510   21.3520 C   0  0  0  0  0  2  0  0  0  0  0  0
  -26.0590  -29.3760   20.6950 C   0  0  0  0  0  0  0  0  0  0  0  0
  -27.2650  -28.6060   20.7100 C   0  0  0  0  0  3  0  0  0  0  0  0
  -26.1530  -26.8190   19.5140 C   0  0  0  0  0  3  0  0  0  0  0  0
  -24.9720  -27.5900   19.4640 C   0  0  0  0  0  3  0  0  0  0  0  0
  -23.6540  -29.7010   20.0940 C   0  0  0  0  0  2  0  0  0  0  0  0
  -24.6230  -30.9800   22.0520 N   0  0  0  0  0  0  0  0  0  0  0  0
  -23.4120  -32.0130   23.6750 O   0  0  0  0  0  0  0  0  0  0  0  0
  -22.7300  -29.3160   22.4140 C   0  0  0  0  0  0  0  0  0  0  0  0
  -21.4160  -29.0850   22.2450 N   0  0  0  0  0  0  0  0  0  0  0  0
  -23.4070  -28.7170   23.2530 O   0  0  0  0  0  0  0  0  0  0  0  0
  -20.9230  -29.6310   21.5530 H   0  0  0  0  0  0  0  0  0  0  0  0
  -18.0810  -27.7350   22.6140 C   0  0  0  0  0  0  0  0  0  0  0  0
  -20.6120  -28.1120   22.9850 C   0  0  0  0  0  3  0  0  0  0  0  0
  -20.8000  -26.6850   22.4190 C   0  0  0  0  0  2  0  0  0  0  0  0
  -19.7570  -26.3120   21.3600 C   0  0  0  0  0  2  0  0  0  0  0  0
  -18.3450  -26.3930   21.9470 C   0  0  0  0  0  2  0  0  0  0  0  0
  -19.1450  -28.5470   23.0860 C   0  0  0  0  0  0  0  0  0  0  0  0
  -18.8440  -29.7990   23.6650 C   0  0  0  0  0  3  0  0  0  0  0  0
  -17.5120  -30.2420   23.7720 C   0  0  0  0  0  3  0  0  0  0  0  0
  -16.4610  -29.4260   23.3160 C   0  0  0  0  0  3  0  0  0  0  0  0
  -16.7460  -28.1720   22.7460 C   0  0  0  0  0  3  0  0  0  0  0  0
  -25.7640  -32.4340   23.8190 C   0  0  0  0  0  3  0  0  0  0  0  0
  -26.2980  -31.6470   25.0790 C   0  0  1  0  0  0  0  0  0  0  0  0
  -25.1980  -31.3250   26.1180 C   0  0  0  0  0  1  0  0  0  0  0  0
  -26.9580  -30.3110   24.6580 C   0  0  0  0  0  1  0  0  0  0  0  0
  -27.3940  -32.4740   25.7920 C   0  0  0  0  0  1  0  0  0  0  0  0
  -25.3960  -33.8100   24.1870 N   0  0  0  0  0  0  0  0  0  0  0  0
  -25.7040  -34.9000   23.4720 C   0  0  0  0  0  0  0  0  0  0  0  0
  -26.3960  -34.8580   22.4500 O   0  0  0  0  0  0  0  0  0  0  0  0
  -24.7760  -33.9140   24.9780 H   0  0  0  0  0  0  0  0  0  0  0  0
  -23.9270  -36.6520   23.1410 C   0  0  0  0  0  1  0  0  0  0  0  0
  -25.1600  -36.2550   23.9680 C   0  0  0  0  0  3  0  0  0  0  0  0
  -27.2460  -37.1770   24.8820 C   0  0  0  0  0  1  0  0  0  0  0  0
  -26.1590  -37.3450   23.9220 N   0  0  0  0  0  0  0  0  0  0  0  0
  -25.7160  -38.2440   24.0970 H   0  0  0  0  0  0  0  0  0  0  0  0
  2  4  2  0
  3  2  1  0
  3  1  1  0
  5  3  1  0
  6 18  1  0
  7 12  1  0
  8  9  1  0
  8  7  1  0
 10  9  1  0
 10 22  1  0
 10 11  1  0
 12  6  1  0
 12 11  1  0
 13  6  2  0
 15 14  1  0
 16 14  1  0
 17  2  1  0
 17 18  1  0
 17 15  1  0
 18 16  1  0
 19 20  2  0
 20 39  1  0
 21 24  1  0
 21 20  1  0
 22 23  1  0
 22 19  1  0
 23 21  2  0
 24 25  1  0
 25 26  2  0
 27 30  1  0
 27 26  1  0
 28 27  2  0
 29 28  1  0
 29 24  2  0
 30 31  1  0
 31 32  1  0
 32 33  2  0
 34 33  1  0
 34 38  1  0
 35 34  2  0
 36 31  2  0
 36 35  1  0
 37 36  1  0
 39 40  1  0
 40 42  1  0
 40 43  1  0
 41 39  2  0
 44 19  1  0
 44 45  1  0
 46 44  1  0
 47  1  1  0
 48 47  1  0
 48 49  1  0
 50 49  1  0
 51 62  2  0
 52 50  1  0
 52 57  1  0
 53 61  1  0
 53 63  1  0
 54 60  1  0
 54 56  1  0
 55 61  1  0
 56 57  2  0
 56 55  1  0
 58 52  2  0
 59 58  1  0
 59 54  2  0
 60 53  1  0
 61 51  1  0
 63 65  2  0
 64 63  1  0
 66 64  1  0
 67 76  2  0
 67 72  1  0
 68 64  1  0
 68 72  1  0
 69 68  1  0
 70 71  1  0
 70 69  1  0
 71 67  1  0
 72 73  2  0
 73 74  1  0
 75 74  2  0
 76 75  1  0
 77 51  1  0
 77 82  1  0
 77 78  1  0
 78 81  1  1
 78 79  1  0
 80 78  1  0
 82 85  1  0
 83 87  1  0
 83 82  1  0
 84 83  2  0
 87 86  1  0
 89 87  1  0
 89 90  1  0
 89 88  1  0
M  ISO  4   6 100  18 100  49 101  50 101
M  END
>  <TORSDO>  (68) 
F 20

>  <SCORE>  (68) 
-10.366

>  <name>  (68) 
67

>  <ligand_id>  (68) 
67

>  <original_smiles>  (68) 
[H]c1c([H])c([H])c2c(c1[H])C([H])([H])C([H])([H])C([H])([H])C2([H])N([H])C(=O)C1([H])N(C(=O)C([H])(N([H])C(=O)C([H])(N([H])C([H])([H])[H])C([H])([H])[H])C(C([H])([H])[H])(C([H])([H])[H])C([H])([H])[H])C([H])([H])c2c([H])c(OC([H])([H])C([H])([H])C([H])([H])C([H])([H])N([H])C(=O)C3([H])N(C(=O)N4C([H])([H])C([H])([H])C([H])([H])C([H])(n5nc(-c6c([H])c([H])c(Oc7c([H])c([H])c(F)c([H])c7F)c([H])c6[H])c(C(=O)N([H])[H])c5N([H])[H])C4([H])[H])C([H])([H])C([H])([H])C3([H])[H])c([H])c([H])c2C1([H])[H]

>  <smiles>  (68) 
[H]c1c([H])c([H])c2c(c1[H])C([H])([H])C([H])([H])C([H])([H])C2([H])N([H])C(=O)C1([H])N(C(=O)C([H])(N([H])C(=O)C([H])(N([H])C([H])([H])[H])C([H])([H])[H])C(C([H])([H])[H])(C([H])([H])[H])C([H])([H])[H])C([H])([H])c2c([H])c(OC([H])([H])C([H])([H])C([H])([H])C([H])([H])N([H])C(=O)C3([H])N(C(=O)N4C([H])([H])C([H])([H])C([H])([H])C([H])(n5nc(-c6c([H])c([H])c(Oc7c([H])c([H])c(F)c([H])c7F)c([H])c6[H])c(C(=O)N([H])[H])c5N([H])[H])C4([H])[H])C([H])([H])C([H])([H])C3([H])[H])c([H])c([H])c2C1([H])[H]

$$$$
68:0:0
     RDKit          3D

 88 96  0  0  1  0  0  0  0  0999 V2000
  -28.7530  -23.1110   20.1740 C   0  0  0  0  0  3  0  0  0  0  0  0
  -27.7980  -24.3750   20.5070 N   0  0  0  0  0  0  0  0  0  0  0  0
  -27.5790  -24.3580   21.5000 H   0  0  0  0  0  0  0  0  0  0  0  0
  -28.2140  -25.9560   20.1900 O   0  0  0  0  0  0  0  0  0  0  0  0
  -24.6140  -31.8470   23.1890 C   0  0  0  0  0  0  0  0  0  0  0  0
  -27.1780  -27.0080   20.1970 C   0  0  0  0  0  0  0  0  0  0  0  0
  -23.4180  -30.4350   21.5640 C   0  0  0  0  0  3  0  0  0  0  0  0
  -24.8670  -28.8340   20.1480 C   0  0  0  0  0  0  0  0  0  0  0  0
  -25.9780  -30.6700   21.4030 C   0  0  0  0  0  2  0  0  0  0  0  0
  -26.0510  -29.2600   20.7640 C   0  0  0  0  0  0  0  0  0  0  0  0
  -27.2030  -28.3630   20.7710 C   0  0  0  0  0  3  0  0  0  0  0  0
  -25.9690  -26.7200   19.5290 C   0  0  0  0  0  3  0  0  0  0  0  0
  -24.8450  -27.5820   19.5140 C   0  0  0  0  0  3  0  0  0  0  0  0
  -23.6430  -29.7440   20.1910 C   0  0  0  0  0  2  0  0  0  0  0  0
  -24.6910  -31.0100   22.1050 N   0  0  0  0  0  0  0  0  0  0  0  0
  -23.5270  -32.1340   23.7140 O   0  0  0  0  0  0  0  0  0  0  0  0
  -22.7370  -29.4380   22.5380 C   0  0  0  0  0  0  0  0  0  0  0  0
  -21.4060  -29.2710   22.4240 N   0  0  0  0  0  0  0  0  0  0  0  0
  -23.4110  -28.8160   23.3630 O   0  0  0  0  0  0  0  0  0  0  0  0
  -20.9170  -29.8230   21.7340 H   0  0  0  0  0  0  0  0  0  0  0  0
  -18.0300  -28.0620   22.9610 C   0  0  0  0  0  0  0  0  0  0  0  0
  -20.5900  -28.3370   23.2070 C   0  0  0  0  0  3  0  0  0  0  0  0
  -20.6920  -26.9010   22.6400 C   0  0  0  0  0  2  0  0  0  0  0  0
  -19.5840  -26.5700   21.6350 C   0  0  0  0  0  2  0  0  0  0  0  0
  -18.2060  -26.7120   22.2880 C   0  0  0  0  0  2  0  0  0  0  0  0
  -19.1490  -28.8320   23.3770 C   0  0  0  0  0  0  0  0  0  0  0  0
  -18.9270  -30.0940   23.9700 C   0  0  0  0  0  3  0  0  0  0  0  0
  -17.6200  -30.5890   24.1470 C   0  0  0  0  0  3  0  0  0  0  0  0
  -16.5160  -29.8160   23.7440 C   0  0  0  0  0  3  0  0  0  0  0  0
  -16.7220  -28.5550   23.1570 C   0  0  0  0  0  3  0  0  0  0  0  0
  -25.8870  -32.4970   23.8100 C   0  0  0  0  0  3  0  0  0  0  0  0
  -25.5590  -33.8900   24.1570 N   0  0  0  0  0  0  0  0  0  0  0  0
  -25.8710  -34.9590   23.4120 C   0  0  0  0  0  0  0  0  0  0  0  0
  -26.5270  -34.8770   22.3710 O   0  0  0  0  0  0  0  0  0  0  0  0
  -24.9730  -34.0260   24.9670 H   0  0  0  0  0  0  0  0  0  0  0  0
  -24.1170  -36.7420   23.1160 C   0  0  0  0  0  1  0  0  0  0  0  0
  -25.3780  -36.3380   23.8970 C   0  0  0  0  0  3  0  0  0  0  0  0
  -27.5200  -37.2380   24.6960 C   0  0  0  0  0  1  0  0  0  0  0  0
  -26.3970  -37.4050   23.7770 N   0  0  0  0  0  0  0  0  0  0  0  0
  -25.9850  -38.3180   23.9420 H   0  0  0  0  0  0  0  0  0  0  0  0
  -26.4160  -31.7280   25.0850 C   0  0  1  0  0  0  0  0  0  0  0  0
  -25.3300  -31.4840   26.1590 C   0  0  0  0  0  1  0  0  0  0  0  0
  -27.0060  -30.3540   24.6960 C   0  0  0  0  0  1  0  0  0  0  0  0
  -27.5650  -32.5300   25.7390 C   0  0  0  0  0  1  0  0  0  0  0  0
  -28.4760  -21.4300   20.6710 C   0  0  0  0  0  3  0  0  0  0  0  0
  -30.4940  -15.1900   20.2220 C   0  0  0  0  0  0  0  0  0  0  0  0
  -30.3360  -12.7870   19.3160 C   0  0  0  0  0  2  0  0  0  0  0  0
  -29.3950  -12.6130   18.1020 C   0  0  0  0  0  2  0  0  0  0  0  0
  -27.9560  -12.3560   18.5770 C   0  0  0  0  0  2  0  0  0  0  0  0
  -27.5360  -13.3220   19.7130 C   0  0  0  0  0  3  0  0  0  0  0  0
  -28.6080  -13.4740   20.8140 C   0  0  0  0  0  2  0  0  0  0  0  0
  -29.8300  -13.9420   20.1450 N   0  0  0  0  0  0  0  0  0  0  0  0
  -31.7140  -15.0880   20.0280 O   0  0  0  0  0  0  0  0  0  0  0  0
  -28.5960  -17.1710   19.9470 C   0  0  0  0  0  2  0  0  0  0  0  0
  -30.8070  -17.8110   20.4140 C   0  0  0  0  0  2  0  0  0  0  0  0
  -28.1350  -18.7440   20.2830 C   0  0  0  0  0  2  0  0  0  0  0  0
  -30.3010  -19.3370   20.8320 C   0  0  0  0  0  2  0  0  0  0  0  0
  -29.9260  -16.5530   20.3590 N   0  0  0  0  0  0  0  0  0  0  0  0
  -29.0740  -19.9650   20.1750 N   0  0  2  0  0  4  0  0  0  0  0  0
  -29.2810  -20.0740   19.1940 H   0  0  0  0  0  0  0  0  0  0  0  0
  -25.1820  -13.8730   20.5200 C   0  0  0  0  0  0  0  0  0  0  0  0
  -24.1300  -13.0930   20.9040 C   0  0  0  0  0  0  0  0  0  0  0  0
  -24.5980  -11.7440   20.8560 C   0  0  0  0  0  0  0  0  0  0  0  0
  -26.2210  -13.0020   20.2510 N   0  0  0  0  0  0  0  0  0  0  0  0
  -25.8850  -11.7140   20.5240 N   0  0  0  0  0  0  0  0  0  0  0  0
  -23.8760  -10.4790   21.0470 C   0  0  0  0  0  0  0  0  0  0  0  0
  -24.3310   -9.4980   21.9550 C   0  0  0  0  0  3  0  0  0  0  0  0
  -23.6040   -8.3010   22.1380 C   0  0  0  0  0  3  0  0  0  0  0  0
  -22.4100   -8.0770   21.4130 C   0  0  0  0  0  0  0  0  0  0  0  0
  -21.9750   -9.0470   20.4930 C   0  0  0  0  0  3  0  0  0  0  0  0
  -22.7020  -10.2350   20.3090 C   0  0  0  0  0  3  0  0  0  0  0  0
  -21.6540   -6.9340   21.5060 O   0  0  0  0  0  0  0  0  0  0  0  0
  -21.6450   -6.1690   22.6450 C   0  0  0  0  0  0  0  0  0  0  0  0
  -21.2770   -6.7030   23.8990 C   0  0  0  0  0  3  0  0  0  0  0  0
  -21.2130   -5.8650   25.0310 C   0  0  0  0  0  3  0  0  0  0  0  0
  -21.5080   -4.4940   24.9100 C   0  0  0  0  0  0  0  0  0  0  0  0
  -21.8710   -3.9590   23.6610 C   0  0  0  0  0  3  0  0  0  0  0  0
  -21.9350   -4.7930   22.5310 C   0  0  0  0  0  0  0  0  0  0  0  0
  -22.2640   -4.2690   21.3260 F   0  0  0  0  0  0  0  0  0  0  0  0
  -21.4400   -3.6870   25.9940 F   0  0  0  0  0  0  0  0  0  0  0  0
  -22.7360  -13.5660   21.1960 C   0  0  0  0  0  0  0  0  0  0  0  0
  -22.0220  -12.8690   22.0710 N   0  0  0  0  0  0  0  0  0  0  0  0
  -22.2910  -14.5920   20.6820 O   0  0  0  0  0  0  0  0  0  0  0  0
  -22.3970  -12.0380   22.5070 H   0  0  0  0  0  0  0  0  0  0  0  0
  -21.0890  -13.1700   22.3120 H   0  0  0  0  0  0  0  0  0  0  0  0
  -25.3330  -15.2440   20.3420 N   0  0  0  0  0  0  0  0  0  0  0  0
  -24.5560  -15.8860   20.4530 H   0  0  0  0  0  0  0  0  0  0  0  0
  -26.1530  -15.6780   19.9420 H   0  0  0  0  0  0  0  0  0  0  0  0
  1  2  1  0
  1 45  2  0
  2  3  1  0
  4  6  1  0
  4  2  1  0
  5 16  2  0
  6 11  1  0
  7 15  1  0
  7 17  1  0
  8 14  1  0
  8 10  1  0
  9 15  1  0
 10 11  2  0
 10  9  1  0
 12  6  2  0
 13 12  1  0
 13  8  2  0
 14  7  1  0
 15  5  1  0
 17 19  2  0
 18 17  1  0
 20 18  1  0
 21 30  2  0
 21 26  1  0
 22 18  1  0
 22 26  1  0
 23 22  1  0
 24 25  1  0
 24 23  1  0
 25 21  1  0
 26 27  2  0
 27 28  1  0
 29 28  2  0
 30 29  1  0
 31  5  1  0
 31 32  1  0
 31 41  1  0
 32 35  1  0
 33 37  1  0
 33 32  1  0
 34 33  2  0
 37 36  1  0
 39 37  1  0
 39 40  1  0
 39 38  1  0
 41 44  1  1
 41 42  1  0
 43 41  1  0
 46 58  1  0
 47 52  1  0
 48 49  1  0
 48 47  1  0
 50 49  1  0
 50 64  1  0
 50 51  1  0
 52 46  1  0
 52 51  1  0
 53 46  2  0
 54 56  1  0
 54 58  1  0
 55 57  1  0
 58 55  1  0
 59 56  1  0
 59 45  1  0
 59 57  1  0
 59 60  1  6
 61 62  2  0
 62 81  1  0
 63 62  1  0
 63 66  1  0
 64 61  1  0
 64 65  1  0
 65 63  2  0
 66 67  1  0
 67 68  2  0
 69 72  1  0
 69 68  1  0
 70 69  2  0
 71 70  1  0
 71 66  2  0
 72 73  1  0
 73 74  1  0
 74 75  2  0
 76 75  1  0
 76 80  1  0
 77 76  2  0
 78 73  2  0
 78 77  1  0
 79 78  1  0
 81 82  1  0
 82 85  1  0
 82 84  1  0
 83 81  2  0
 86 87  1  0
 86 61  1  0
 88 86  1  0
M  ISO  4   2 101   4 101  46 100  58 100
M  END
>  <TORSDO>  (69) 
F 18

>  <SCORE>  (69) 
-16.491

>  <name>  (69) 
68

>  <ligand_id>  (69) 
68

>  <original_smiles>  (69) 
[H]c1c([H])c([H])c2c(c1[H])C([H])([H])C([H])([H])C([H])([H])C2([H])N([H])C(=O)C1([H])N(C(=O)C([H])(N([H])C(=O)C([H])(N([H])C([H])([H])[H])C([H])([H])[H])C(C([H])([H])[H])(C([H])([H])[H])C([H])([H])[H])C([H])([H])c2c([H])c(ON([H])C([H])([H])C([H])([H])[N+]3([H])C([H])([H])C([H])([H])N(C(=O)N4C([H])([H])C([H])([H])C([H])([H])C([H])(n5nc(-c6c([H])c([H])c(Oc7c([H])c([H])c(F)c([H])c7F)c([H])c6[H])c(C(=O)N([H])[H])c5N([H])[H])C4([H])[H])C([H])([H])C3([H])[H])c([H])c([H])c2C1([H])[H]

>  <smiles>  (69) 
[H]c1c([H])c([H])c2c(c1[H])C([H])([H])C([H])([H])C([H])([H])C2([H])N([H])C(=O)C1([H])N(C(=O)C([H])(N([H])C(=O)C([H])(N([H])C([H])([H])[H])C([H])([H])[H])C(C([H])([H])[H])(C([H])([H])[H])C([H])([H])[H])C([H])([H])c2c([H])c(ON([H])C([H])([H])C([H])([H])[N+]3([H])C([H])([H])C([H])([H])N(C(=O)N4C([H])([H])C([H])([H])C([H])([H])C([H])(n5nc(-c6c([H])c([H])c(Oc7c([H])c([H])c(F)c([H])c7F)c([H])c6[H])c(C(=O)N([H])[H])c5N([H])[H])C4([H])[H])C([H])([H])C3([H])[H])c([H])c([H])c2C1([H])[H]

$$$$
69:0:0
     RDKit          3D

 93100  0  0  1  0  0  0  0  0999 V2000
  -30.1190  -25.4320   20.7350 N   0  0  2  0  0  4  0  0  0  0  0  0
  -30.0410  -26.3720   20.3690 H   0  0  0  0  0  0  0  0  0  0  0  0
  -31.7340  -26.8380   22.1000 C   0  0  0  0  0  1  0  0  0  0  0  0
  -30.8510  -25.5800   22.0240 C   0  0  0  0  0  2  0  0  0  0  0  0
  -28.7100  -24.9840   20.9490 C   0  0  0  0  0  2  0  0  0  0  0  0
  -27.7110  -25.4300   19.8660 C   0  0  0  0  0  2  0  0  0  0  0  0
  -27.7910  -26.8530   19.7050 O   0  0  0  0  0  0  0  0  0  0  0  0
  -24.3730  -31.9110   23.3370 C   0  0  0  0  0  0  0  0  0  0  0  0
  -26.6340  -27.5990   19.8040 C   0  0  0  0  0  0  0  0  0  0  0  0
  -23.0210  -30.7090   21.6510 C   0  0  0  0  0  3  0  0  0  0  0  0
  -24.3220  -29.2150   20.0490 C   0  0  0  0  0  0  0  0  0  0  0  0
  -25.5510  -30.9480   21.3650 C   0  0  0  0  0  2  0  0  0  0  0  0
  -25.5310  -29.6280   20.6230 C   0  0  0  0  0  0  0  0  0  0  0  0
  -26.6860  -28.8280   20.4990 C   0  0  0  0  0  3  0  0  0  0  0  0
  -25.4080  -27.2060   19.2140 C   0  0  0  0  0  3  0  0  0  0  0  0
  -24.2550  -28.0010   19.3450 C   0  0  0  0  0  3  0  0  0  0  0  0
  -23.1330  -30.1310   20.2150 C   0  0  0  0  0  2  0  0  0  0  0  0
  -24.3370  -31.1990   22.1760 N   0  0  0  0  0  0  0  0  0  0  0  0
  -23.3320  -32.1980   23.9450 O   0  0  0  0  0  0  0  0  0  0  0  0
  -22.3540  -29.6500   22.5580 C   0  0  0  0  0  0  0  0  0  0  0  0
  -21.0220  -29.5290   22.4530 N   0  0  0  0  0  0  0  0  0  0  0  0
  -23.0320  -28.9450   23.3110 O   0  0  0  0  0  0  0  0  0  0  0  0
  -20.5400  -30.1480   21.8150 H   0  0  0  0  0  0  0  0  0  0  0  0
  -17.6160  -28.4200   22.9280 C   0  0  0  0  0  0  0  0  0  0  0  0
  -20.1830  -28.5750   23.1790 C   0  0  0  0  0  3  0  0  0  0  0  0
  -20.2320  -27.1780   22.5170 C   0  0  0  0  0  2  0  0  0  0  0  0
  -19.1070  -26.9520   21.5030 C   0  0  0  0  0  2  0  0  0  0  0  0
  -17.7380  -27.1060   22.1750 C   0  0  0  0  0  2  0  0  0  0  0  0
  -18.7660  -29.1180   23.3850 C   0  0  0  0  0  0  0  0  0  0  0  0
  -18.5990  -30.3530   24.0480 C   0  0  0  0  0  3  0  0  0  0  0  0
  -17.3150  -30.8880   24.2610 C   0  0  0  0  0  3  0  0  0  0  0  0
  -16.1800  -30.1860   23.8230 C   0  0  0  0  0  3  0  0  0  0  0  0
  -16.3310  -28.9530   23.1610 C   0  0  0  0  0  3  0  0  0  0  0  0
  -25.7170  -32.4210   23.9420 C   0  0  0  0  0  3  0  0  0  0  0  0
  -26.2310  -31.5390   25.1460 C   0  0  1  0  0  0  0  0  0  0  0  0
  -25.1620  -31.2930   26.2380 C   0  0  0  0  0  1  0  0  0  0  0  0
  -26.7160  -30.1600   24.6420 C   0  0  0  0  0  1  0  0  0  0  0  0
  -27.4480  -32.2210   25.8140 C   0  0  0  0  0  1  0  0  0  0  0  0
  -25.5110  -33.8120   24.3660 N   0  0  0  0  0  0  0  0  0  0  0  0
  -25.9690  -34.8830   23.7040 C   0  0  0  0  0  0  0  0  0  0  0  0
  -26.6790  -34.7970   22.6990 O   0  0  0  0  0  0  0  0  0  0  0  0
  -24.8930  -33.9590   25.1500 H   0  0  0  0  0  0  0  0  0  0  0  0
  -24.4460  -36.8600   23.3830 C   0  0  0  0  0  1  0  0  0  0  0  0
  -25.5760  -36.2720   24.2440 C   0  0  0  0  0  3  0  0  0  0  0  0
  -27.7030  -36.8800   25.3100 C   0  0  0  0  0  1  0  0  0  0  0  0
  -26.7070  -37.2230   24.2980 N   0  0  0  0  0  0  0  0  0  0  0  0
  -26.3760  -38.1660   24.4870 H   0  0  0  0  0  0  0  0  0  0  0  0
  -30.8810  -24.6600   19.7050 C   0  0  0  0  0  2  0  0  0  0  0  0
  -30.7420  -23.1210   19.8080 C   0  0  0  0  0  2  0  0  0  0  0  0
  -31.6020  -22.3850   18.7650 C   0  0  0  0  0  2  0  0  0  0  0  0
  -31.0580  -21.0020   18.3600 C   0  0  0  0  0  2  0  0  0  0  0  0
  -30.3160  -19.5690   20.0480 C   0  0  0  0  0  3  0  0  0  0  0  0
  -31.3110  -19.9740   19.3610 N   0  0  0  0  0  0  0  0  0  0  0  0
  -30.3330  -18.3170   20.9110 C   0  0  0  0  0  2  0  0  0  0  0  0
  -29.6590  -17.1590   20.1440 C   0  0  0  0  0  2  0  0  0  0  0  0
  -30.5350  -14.8690   20.4220 C   0  0  0  0  0  0  0  0  0  0  0  0
  -30.3760  -12.6980   19.2940 C   0  0  0  0  0  2  0  0  0  0  0  0
  -29.4230  -12.8590   18.0900 C   0  0  0  0  0  2  0  0  0  0  0  0
  -27.9570  -12.6430   18.5160 C   0  0  0  0  0  2  0  0  0  0  0  0
  -27.5710  -13.4570   19.7790 C   0  0  0  0  0  3  0  0  0  0  0  0
  -28.6340  -13.2850   20.8910 C   0  0  0  0  0  2  0  0  0  0  0  0
  -29.9510  -13.6460   20.3320 N   0  0  0  0  0  0  0  0  0  0  0  0
  -31.6480  -15.1330   19.9610 O   0  0  0  0  0  0  0  0  0  0  0  0
  -29.6980  -15.8450   20.7970 N   0  0  0  0  0  0  0  0  0  0  0  0
  -28.8250  -15.5230   21.1900 H   0  0  0  0  0  0  0  0  0  0  0  0
  -25.1270  -13.9290   20.4420 C   0  0  0  0  0  0  0  0  0  0  0  0
  -24.1070  -13.0990   20.8250 C   0  0  0  0  0  0  0  0  0  0  0  0
  -24.6580  -11.7800   20.8410 C   0  0  0  0  0  0  0  0  0  0  0  0
  -26.2310  -13.1120   20.2500 N   0  0  0  0  0  0  0  0  0  0  0  0
  -25.9500  -11.8170   20.5440 N   0  0  0  0  0  0  0  0  0  0  0  0
  -24.0140  -10.4780   21.0630 C   0  0  0  0  0  0  0  0  0  0  0  0
  -24.4450   -9.6090   22.0900 C   0  0  0  0  0  3  0  0  0  0  0  0
  -23.8020   -8.3690   22.2950 C   0  0  0  0  0  3  0  0  0  0  0  0
  -22.7150   -7.9910   21.4720 C   0  0  0  0  0  0  0  0  0  0  0  0
  -22.3040   -8.8500   20.4370 C   0  0  0  0  0  3  0  0  0  0  0  0
  -22.9480  -10.0810   20.2320 C   0  0  0  0  0  3  0  0  0  0  0  0
  -22.0450   -6.7960   21.5800 O   0  0  0  0  0  0  0  0  0  0  0  0
  -21.9050   -6.1570   22.7850 C   0  0  0  0  0  0  0  0  0  0  0  0
  -21.2150   -6.7470   23.8660 C   0  0  0  0  0  3  0  0  0  0  0  0
  -21.0350   -6.0290   25.0650 C   0  0  0  0  0  3  0  0  0  0  0  0
  -21.5330   -4.7160   25.1810 C   0  0  0  0  0  0  0  0  0  0  0  0
  -22.2140   -4.1240   24.1030 C   0  0  0  0  0  3  0  0  0  0  0  0
  -22.3970   -4.8420   22.9090 C   0  0  0  0  0  0  0  0  0  0  0  0
  -23.0360   -4.2590   21.8650 F   0  0  0  0  0  0  0  0  0  0  0  0
  -21.3530   -4.0210   26.3280 F   0  0  0  0  0  0  0  0  0  0  0  0
  -22.6790  -13.4890   21.0730 C   0  0  0  0  0  0  0  0  0  0  0  0
  -21.9880  -12.7650   21.9470 N   0  0  0  0  0  0  0  0  0  0  0  0
  -22.1790  -14.4720   20.5270 O   0  0  0  0  0  0  0  0  0  0  0  0
  -22.4070  -11.9740   22.4130 H   0  0  0  0  0  0  0  0  0  0  0  0
  -21.0310  -13.0080   22.1550 H   0  0  0  0  0  0  0  0  0  0  0  0
  -25.2030  -15.3020   20.2250 N   0  0  0  0  0  0  0  0  0  0  0  0
  -24.3920  -15.9060   20.3030 H   0  0  0  0  0  0  0  0  0  0  0  0
  -26.0210  -15.7830   19.8750 H   0  0  0  0  0  0  0  0  0  0  0  0
  1  5  1  0
  1  4  1  0
  1  2  1  6
  4  3  1  0
  6  5  1  0
  7  9  1  0
  7  6  1  0
  8 19  2  0
  9 14  1  0
 10 18  1  0
 10 20  1  0
 11 17  1  0
 11 13  1  0
 12 18  1  0
 13 12  1  0
 14 13  2  0
 15 16  1  0
 15  9  2  0
 16 11  2  0
 17 10  1  0
 18  8  1  0
 20 22  2  0
 21 20  1  0
 23 21  1  0
 24 33  2  0
 24 29  1  0
 25 21  1  0
 25 29  1  0
 26 25  1  0
 27 28  1  0
 27 26  1  0
 28 24  1  0
 29 30  2  0
 30 31  1  0
 32 31  2  0
 33 32  1  0
 34  8  1  0
 34 39  1  0
 34 35  1  0
 35 38  1  1
 35 36  1  0
 37 35  1  0
 39 42  1  0
 40 44  1  0
 40 39  1  0
 41 40  2  0
 44 43  1  0
 44 46  1  0
 46 47  1  0
 46 45  1  0
 48 49  1  0
 48  1  1  0
 50 49  1  0
 51 50  1  0
 51 53  1  0
 52 54  1  0
 53 52  2  0
 55 64  1  0
 55 54  1  0
 56 64  1  0
 57 62  1  0
 58 59  1  0
 58 57  1  0
 60 59  1  0
 60 69  1  0
 60 61  1  0
 62 56  1  0
 62 61  1  0
 63 56  2  0
 64 65  1  0
 66 67  2  0
 67 68  1  0
 67 86  1  0
 68 71  1  0
 69 66  1  0
 69 70  1  0
 70 68  2  0
 71 72  1  0
 72 73  2  0
 74 77  1  0
 74 73  1  0
 75 74  2  0
 76 75  1  0
 76 71  2  0
 77 78  1  0
 78 83  2  0
 78 79  1  0
 79 80  2  0
 80 81  1  0
 81 85  1  0
 82 81  2  0
 83 82  1  0
 84 83  1  0
 86 87  1  0
 87 90  1  0
 87 89  1  0
 88 86  2  0
 91 92  1  0
 91 66  1  0
 93 91  1  0
M  ISO  4   6 101   7 101  56 100  64 100
M  END
>  <TORSDO>  (70) 
F 26

>  <SCORE>  (70) 
-10.576

>  <name>  (70) 
69

>  <ligand_id>  (70) 
69

>  <original_smiles>  (70) 
[H]C(=NC([H])([H])C([H])([H])C([H])([H])C([H])([H])[N+]([H])(C([H])([H])C([H])([H])[H])C([H])([H])C([H])([H])Oc1c([H])c([H])c2c(c1[H])C([H])([H])N(C(=O)C([H])(N([H])C(=O)C([H])(N([H])C([H])([H])[H])C([H])([H])[H])C(C([H])([H])[H])(C([H])([H])[H])C([H])([H])[H])C([H])(C(=O)N([H])C1([H])c3c([H])c([H])c([H])c([H])c3C([H])([H])C([H])([H])C1([H])[H])C2([H])[H])C([H])([H])C([H])([H])N([H])C(=O)N1C([H])([H])C([H])([H])C([H])([H])C([H])(n2nc(-c3c([H])c([H])c(Oc4c([H])c([H])c(F)c([H])c4F)c([H])c3[H])c(C(=O)N([H])[H])c2N([H])[H])C1([H])[H]

>  <smiles>  (70) 
[H]C(=NC([H])([H])C([H])([H])C([H])([H])C([H])([H])[N+]([H])(C([H])([H])C([H])([H])[H])C([H])([H])C([H])([H])Oc1c([H])c([H])c2c(c1[H])C([H])([H])N(C(=O)C([H])(N([H])C(=O)C([H])(N([H])C([H])([H])[H])C([H])([H])[H])C(C([H])([H])[H])(C([H])([H])[H])C([H])([H])[H])C([H])(C(=O)N([H])C1([H])c3c([H])c([H])c([H])c([H])c3C([H])([H])C([H])([H])C1([H])[H])C2([H])[H])C([H])([H])C([H])([H])N([H])C(=O)N1C([H])([H])C([H])([H])C([H])([H])C([H])(n2nc(-c3c([H])c([H])c(Oc4c([H])c([H])c(F)c([H])c4F)c([H])c3[H])c(C(=O)N([H])[H])c2N([H])[H])C1([H])[H]

$$$$
70:0:0
     RDKit          3D

 92100  0  0  1  0  0  0  0  0999 V2000
  -30.1870  -22.1970   20.8940 C   0  0  0  0  0  2  0  0  0  0  0  0
  -29.1140  -23.0750   20.4220 N   0  0  0  0  0  0  0  0  0  0  0  0
  -28.2800  -22.9100   20.9820 H   0  0  0  0  0  0  0  0  0  0  0  0
  -29.4420  -24.5030   20.5020 C   0  0  0  0  0  2  0  0  0  0  0  0
  -28.2390  -25.3250   19.9850 C   0  0  0  0  0  2  0  0  0  0  0  0
  -28.3720  -26.7420   20.1860 O   0  0  0  0  0  0  0  0  0  0  0  0
  -24.5820  -31.9220   23.2740 C   0  0  0  0  0  0  0  0  0  0  0  0
  -27.2000  -27.4810   20.1590 C   0  0  0  0  0  0  0  0  0  0  0  0
  -23.3630  -30.5310   21.6320 C   0  0  0  0  0  3  0  0  0  0  0  0
  -24.8060  -29.0010   20.1900 C   0  0  0  0  0  0  0  0  0  0  0  0
  -25.8910  -30.8840   21.4240 C   0  0  0  0  0  2  0  0  0  0  0  0
  -25.9690  -29.5170   20.7740 C   0  0  0  0  0  0  0  0  0  0  0  0
  -27.1690  -28.7650   20.7530 C   0  0  0  0  0  3  0  0  0  0  0  0
  -26.0130  -26.9890   19.5630 C   0  0  0  0  0  3  0  0  0  0  0  0
  -24.8230  -27.7360   19.5820 C   0  0  0  0  0  3  0  0  0  0  0  0
  -23.5630  -29.8610   20.2480 C   0  0  0  0  0  2  0  0  0  0  0  0
  -24.6300  -31.1270   22.1680 N   0  0  0  0  0  0  0  0  0  0  0  0
  -23.5040  -32.1940   23.8200 O   0  0  0  0  0  0  0  0  0  0  0  0
  -22.7150  -29.5060   22.5900 C   0  0  0  0  0  0  0  0  0  0  0  0
  -21.3890  -29.3240   22.4660 N   0  0  0  0  0  0  0  0  0  0  0  0
  -23.4010  -28.8780   23.4010 O   0  0  0  0  0  0  0  0  0  0  0  0
  -20.8970  -29.8840   21.7840 H   0  0  0  0  0  0  0  0  0  0  0  0
  -18.0180  -28.1230   22.9620 C   0  0  0  0  0  0  0  0  0  0  0  0
  -20.5750  -28.3840   23.2350 C   0  0  0  0  0  3  0  0  0  0  0  0
  -20.6800  -26.9530   22.6580 C   0  0  0  0  0  2  0  0  0  0  0  0
  -19.5780  -26.6310   21.6430 C   0  0  0  0  0  2  0  0  0  0  0  0
  -18.1960  -26.7740   22.2860 C   0  0  0  0  0  2  0  0  0  0  0  0
  -19.1350  -28.8860   23.3930 C   0  0  0  0  0  0  0  0  0  0  0  0
  -18.9150  -30.1500   23.9840 C   0  0  0  0  0  3  0  0  0  0  0  0
  -17.6100  -30.6510   24.1470 C   0  0  0  0  0  3  0  0  0  0  0  0
  -16.5080  -29.8840   23.7320 C   0  0  0  0  0  3  0  0  0  0  0  0
  -16.7120  -28.6230   23.1460 C   0  0  0  0  0  3  0  0  0  0  0  0
  -25.8720  -32.5480   23.8890 C   0  0  0  0  0  3  0  0  0  0  0  0
  -25.5700  -33.9470   24.2200 N   0  0  0  0  0  0  0  0  0  0  0  0
  -25.8870  -34.9950   23.4480 C   0  0  0  0  0  0  0  0  0  0  0  0
  -26.5350  -34.8860   22.4030 O   0  0  0  0  0  0  0  0  0  0  0  0
  -24.9930  -34.1060   25.0320 H   0  0  0  0  0  0  0  0  0  0  0  0
  -24.1400  -36.7750   23.1320 C   0  0  0  0  0  1  0  0  0  0  0  0
  -25.4080  -36.3860   23.9080 C   0  0  0  0  0  3  0  0  0  0  0  0
  -27.5660  -37.2830   24.6610 C   0  0  0  0  0  1  0  0  0  0  0  0
  -26.4320  -37.4420   23.7550 N   0  0  0  0  0  0  0  0  0  0  0  0
  -26.0250  -38.3610   23.9130 H   0  0  0  0  0  0  0  0  0  0  0  0
  -26.3930  -31.7730   25.1620 C   0  0  1  0  0  0  0  0  0  0  0  0
  -25.3050  -31.5340   26.2340 C   0  0  0  0  0  1  0  0  0  0  0  0
  -26.9710  -30.3950   24.7640 C   0  0  0  0  0  1  0  0  0  0  0  0
  -27.5480  -32.5640   25.8200 C   0  0  0  0  0  1  0  0  0  0  0  0
  -29.7080  -20.7210   20.9110 C   0  0  0  0  0  2  0  0  0  0  0  0
  -30.8060  -19.7450   21.1280 N   0  0  0  0  0  4  0  0  0  0  0  0
  -31.3720  -19.7060   20.2960 H   0  0  0  0  0  0  0  0  0  0  0  0
  -31.3850  -20.1070   21.8670 H   0  0  0  0  0  0  0  0  0  0  0  0
  -30.6410  -14.5240   20.1900 C   0  0  0  0  0  0  0  0  0  0  0  0
  -30.2140  -12.4430   18.9150 C   0  0  0  0  0  2  0  0  0  0  0  0
  -29.2050  -12.6670   17.7720 C   0  0  0  0  0  2  0  0  0  0  0  0
  -27.7640  -12.4770   18.2820 C   0  0  0  0  0  2  0  0  0  0  0  0
  -27.4880  -13.2890   19.5690 C   0  0  0  0  0  3  0  0  0  0  0  0
  -28.6040  -13.0690   20.6210 C   0  0  0  0  0  2  0  0  0  0  0  0
  -29.9000  -13.3910   20.0000 N   0  0  0  0  0  0  0  0  0  0  0  0
  -31.7030  -14.7170   19.5900 O   0  0  0  0  0  0  0  0  0  0  0  0
  -31.5980  -17.4300   21.7350 C   0  0  0  0  0  2  0  0  0  0  0  0
  -29.4300  -17.6990   20.5150 C   0  0  0  0  0  2  0  0  0  0  0  0
  -31.1680  -15.9890   22.1140 C   0  0  0  0  0  2  0  0  0  0  0  0
  -29.0480  -16.2710   20.9590 C   0  0  0  0  0  2  0  0  0  0  0  0
  -30.3870  -18.3680   21.5250 C   0  0  0  0  0  3  0  0  0  0  0  0
  -30.2270  -15.4040   21.1410 N   0  0  0  0  0  0  0  0  0  0  0  0
  -25.1410  -13.8970   20.4310 C   0  0  0  0  0  0  0  0  0  0  0  0
  -24.0930  -13.1190   20.8420 C   0  0  0  0  0  0  0  0  0  0  0  0
  -24.5500  -11.7680   20.7590 C   0  0  0  0  0  0  0  0  0  0  0  0
  -26.1670  -13.0150   20.1210 N   0  0  0  0  0  0  0  0  0  0  0  0
  -25.8190  -11.7310   20.3800 N   0  0  0  0  0  0  0  0  0  0  0  0
  -23.8350  -10.5030   20.9600 C   0  0  0  0  0  0  0  0  0  0  0  0
  -24.2910   -9.5380   21.8840 C   0  0  0  0  0  3  0  0  0  0  0  0
  -23.5770   -8.3350   22.0720 C   0  0  0  0  0  3  0  0  0  0  0  0
  -22.3940   -8.0910   21.3350 C   0  0  0  0  0  0  0  0  0  0  0  0
  -21.9580   -9.0450   20.3980 C   0  0  0  0  0  3  0  0  0  0  0  0
  -22.6730  -10.2390   20.2100 C   0  0  0  0  0  3  0  0  0  0  0  0
  -21.6490   -6.9410   21.4320 O   0  0  0  0  0  0  0  0  0  0  0  0
  -21.5940   -6.2150   22.5950 C   0  0  0  0  0  0  0  0  0  0  0  0
  -21.1590   -6.7870   23.8110 C   0  0  0  0  0  3  0  0  0  0  0  0
  -21.0530   -5.9880   24.9670 C   0  0  0  0  0  3  0  0  0  0  0  0
  -21.3730   -4.6180   24.9080 C   0  0  0  0  0  0  0  0  0  0  0  0
  -21.8020   -4.0460   23.6980 C   0  0  0  0  0  3  0  0  0  0  0  0
  -21.9100   -4.8430   22.5440 C   0  0  0  0  0  0  0  0  0  0  0  0
  -22.3030   -4.2820   21.3750 F   0  0  0  0  0  0  0  0  0  0  0  0
  -21.2630   -3.8480   26.0160 F   0  0  0  0  0  0  0  0  0  0  0  0
  -22.7130  -13.5910   21.1970 C   0  0  0  0  0  0  0  0  0  0  0  0
  -22.0310  -12.8780   22.0860 N   0  0  0  0  0  0  0  0  0  0  0  0
  -22.2480  -14.6260   20.7190 O   0  0  0  0  0  0  0  0  0  0  0  0
  -22.4190  -12.0400   22.4920 H   0  0  0  0  0  0  0  0  0  0  0  0
  -21.1080  -13.1740   22.3670 H   0  0  0  0  0  0  0  0  0  0  0  0
  -25.2990  -15.2720   20.2730 N   0  0  0  0  0  0  0  0  0  0  0  0
  -24.5410  -15.9240   20.4410 H   0  0  0  0  0  0  0  0  0  0  0  0
  -26.1280  -15.7160   19.8980 H   0  0  0  0  0  0  0  0  0  0  0  0
  1 47  1  0
  2  4  1  0
  2  1  1  0
  2  3  1  0
  5  6  1  0
  5  4  1  0
  7 18  2  0
  8  6  1  0
  8 13  1  0
  9 17  1  0
  9 19  1  0
 10 16  1  0
 10 12  1  0
 11 17  1  0
 12 11  1  0
 13 12  2  0
 14 15  1  0
 14  8  2  0
 15 10  2  0
 16  9  1  0
 17  7  1  0
 19 21  2  0
 20 19  1  0
 22 20  1  0
 23 32  2  0
 23 28  1  0
 24 20  1  0
 24 28  1  0
 25 24  1  0
 26 27  1  0
 26 25  1  0
 27 23  1  0
 28 29  2  0
 29 30  1  0
 31 30  2  0
 32 31  1  0
 33  7  1  0
 33 34  1  0
 33 43  1  0
 34 37  1  0
 35 39  1  0
 35 34  1  0
 36 35  2  0
 39 38  1  0
 41 39  1  0
 41 42  1  0
 41 40  1  0
 43 46  1  1
 43 44  1  0
 45 43  1  0
 47 48  1  0
 48 50  1  0
 49 48  1  0
 51 64  1  0
 52 57  1  0
 53 54  1  0
 53 52  1  0
 55 54  1  0
 55 68  1  0
 55 56  1  0
 57 51  1  0
 57 56  1  0
 58 51  2  0
 59 61  1  0
 60 62  1  0
 60 63  1  0
 62 64  1  0
 63 48  1  0
 63 59  1  0
 64 61  1  0
 65 66  2  0
 66 85  1  0
 67 66  1  0
 67 70  1  0
 68 69  1  0
 68 65  1  0
 69 67  2  0
 70 71  1  0
 71 72  2  0
 73 76  1  0
 73 72  1  0
 74 73  2  0
 75 74  1  0
 75 70  2  0
 76 77  1  0
 77 78  1  0
 78 79  2  0
 80 79  1  0
 80 84  1  0
 81 80  2  0
 82 77  2  0
 82 81  1  0
 83 82  1  0
 85 86  1  0
 86 89  1  0
 86 88  1  0
 87 85  2  0
 90 65  1  0
 90 91  1  0
 92 90  1  0
M  ISO  4   5 101   6 101  51 100  64 100
M  END
>  <TORSDO>  (71) 
F 21

>  <SCORE>  (71) 
-13.019

>  <name>  (71) 
70

>  <ligand_id>  (71) 
70

>  <original_smiles>  (71) 
[H]c1c([H])c([H])c2c(c1[H])C([H])([H])C([H])([H])C([H])([H])C2([H])N([H])C(=O)C1([H])N(C(=O)C([H])(N([H])C(=O)C([H])(N([H])C([H])([H])[H])C([H])([H])[H])C(C([H])([H])[H])(C([H])([H])[H])C([H])([H])[H])C([H])([H])c2c([H])c(OC([H])([H])C([H])([H])N([H])C([H])([H])C([H])([H])[N+]([H])([H])C3([H])C([H])([H])C([H])([H])N(C(=O)N4C([H])([H])C([H])([H])C([H])([H])C([H])(n5nc(-c6c([H])c([H])c(Oc7c([H])c([H])c(F)c([H])c7F)c([H])c6[H])c(C(=O)N([H])[H])c5N([H])[H])C4([H])[H])C([H])([H])C3([H])[H])c([H])c([H])c2C1([H])[H]

>  <smiles>  (71) 
[H]c1c([H])c([H])c2c(c1[H])C([H])([H])C([H])([H])C([H])([H])C2([H])N([H])C(=O)C1([H])N(C(=O)C([H])(N([H])C(=O)C([H])(N([H])C([H])([H])[H])C([H])([H])[H])C(C([H])([H])[H])(C([H])([H])[H])C([H])([H])[H])C([H])([H])c2c([H])c(OC([H])([H])C([H])([H])N([H])C([H])([H])C([H])([H])[N+]([H])([H])C3([H])C([H])([H])C([H])([H])N(C(=O)N4C([H])([H])C([H])([H])C([H])([H])C([H])(n5nc(-c6c([H])c([H])c(Oc7c([H])c([H])c(F)c([H])c7F)c([H])c6[H])c(C(=O)N([H])[H])c5N([H])[H])C4([H])[H])C([H])([H])C3([H])[H])c([H])c([H])c2C1([H])[H]

$$$$
71:0:0
     RDKit          3D

 95103  0  0  1  0  0  0  0  0999 V2000
  -29.4030  -19.2060   19.7990 N   0  0  0  0  0  4  0  0  0  0  0  0
  -28.8040  -19.1610   20.6060 H   0  0  0  0  0  0  0  0  0  0  0  0
  -28.8030  -19.2010   18.9880 H   0  0  0  0  0  0  0  0  0  0  0  0
  -30.2860  -17.9810   19.7450 C   0  0  0  0  0  2  0  0  0  0  0  0
  -30.9040  -14.6200   19.3340 C   0  0  0  0  0  0  0  0  0  0  0  0
  -30.3970  -12.5260   18.1110 C   0  0  0  0  0  2  0  0  0  0  0  0
  -29.2850  -12.7580   17.0690 C   0  0  0  0  0  2  0  0  0  0  0  0
  -27.8970  -12.5700   17.7030 C   0  0  0  0  0  2  0  0  0  0  0  0
  -27.7470  -13.3510   19.0340 C   0  0  0  0  0  3  0  0  0  0  0  0
  -28.9560  -13.1220   19.9680 C   0  0  0  0  0  2  0  0  0  0  0  0
  -30.1820  -13.4660   19.2280 N   0  0  0  0  0  0  0  0  0  0  0  0
  -31.8680  -14.8620   18.6020 O   0  0  0  0  0  0  0  0  0  0  0  0
  -31.6140  -15.6490   21.4120 C   0  0  0  0  0  2  0  0  0  0  0  0
  -31.0290  -16.2340   22.7210 C   0  0  0  0  0  2  0  0  0  0  0  0
  -28.8780  -16.7490   21.6130 C   0  0  0  0  0  2  0  0  0  0  0  0
  -29.6390  -16.6130   20.2510 C   0  0  0  0  0  3  0  0  0  0  0  0
  -30.5980  -15.4680   20.3540 N   0  0  0  0  0  0  0  0  0  0  0  0
  -29.5590  -16.0980   22.7590 N   0  0  0  0  0  4  0  0  0  0  0  0
  -29.1990  -16.4760   23.6220 H   0  0  0  0  0  0  0  0  0  0  0  0
  -29.3460  -15.1150   22.7630 H   0  0  0  0  0  0  0  0  0  0  0  0
  -25.4780  -13.8980   20.0980 C   0  0  0  0  0  0  0  0  0  0  0  0
  -24.4850  -13.1040   20.6030 C   0  0  0  0  0  0  0  0  0  0  0  0
  -24.9510  -11.7590   20.4750 C   0  0  0  0  0  0  0  0  0  0  0  0
  -26.4840  -13.0380   19.6950 N   0  0  0  0  0  0  0  0  0  0  0  0
  -26.1810  -11.7450   19.9770 N   0  0  0  0  0  0  0  0  0  0  0  0
  -24.2730  -10.4830   20.7410 C   0  0  0  0  0  0  0  0  0  0  0  0
  -24.7590   -9.5790   21.7110 C   0  0  0  0  0  3  0  0  0  0  0  0
  -24.0820   -8.3630   21.9540 C   0  0  0  0  0  3  0  0  0  0  0  0
  -22.9060   -8.0480   21.2340 C   0  0  0  0  0  0  0  0  0  0  0  0
  -22.4410   -8.9430   20.2530 C   0  0  0  0  0  3  0  0  0  0  0  0
  -23.1180  -10.1480   20.0080 C   0  0  0  0  0  3  0  0  0  0  0  0
  -22.1960   -6.8810   21.3890 O   0  0  0  0  0  0  0  0  0  0  0  0
  -22.0670   -6.2770   22.6150 C   0  0  0  0  0  0  0  0  0  0  0  0
  -21.5280   -6.9550   23.7310 C   0  0  0  0  0  3  0  0  0  0  0  0
  -21.3510   -6.2720   24.9500 C   0  0  0  0  0  3  0  0  0  0  0  0
  -21.7010   -4.9120   25.0540 C   0  0  0  0  0  0  0  0  0  0  0  0
  -22.2320   -4.2340   23.9410 C   0  0  0  0  0  3  0  0  0  0  0  0
  -22.4090   -4.9130   22.7240 C   0  0  0  0  0  0  0  0  0  0  0  0
  -22.9010   -4.2490   21.6510 F   0  0  0  0  0  0  0  0  0  0  0  0
  -21.5210   -4.2550   26.2220 F   0  0  0  0  0  0  0  0  0  0  0  0
  -23.1370  -13.5580   21.0810 C   0  0  0  0  0  0  0  0  0  0  0  0
  -22.5690  -12.8640   22.0630 N   0  0  0  0  0  0  0  0  0  0  0  0
  -22.6050  -14.5670   20.6220 O   0  0  0  0  0  0  0  0  0  0  0  0
  -21.6830  -13.1650   22.4460 H   0  0  0  0  0  0  0  0  0  0  0  0
  -23.0240  -12.0570   22.4580 H   0  0  0  0  0  0  0  0  0  0  0  0
  -25.6020  -15.2710   19.9210 N   0  0  0  0  0  0  0  0  0  0  0  0
  -24.7920  -15.8650   20.0580 H   0  0  0  0  0  0  0  0  0  0  0  0
  -26.2640  -15.6610   19.2620 H   0  0  0  0  0  0  0  0  0  0  0  0
  -30.0980  -20.5380   19.8630 C   0  0  0  0  0  2  0  0  0  0  0  0
  -29.2000  -21.7860   19.4930 C   0  0  0  0  0  2  0  0  0  0  0  0
  -29.4760  -23.0290   20.2570 N   0  0  0  0  0  0  0  0  0  0  0  0
  -30.4820  -23.1600   20.3400 H   0  0  0  0  0  0  0  0  0  0  0  0
  -28.9090  -24.2690   19.6620 C   0  0  0  0  0  2  0  0  0  0  0  0
  -28.9460  -25.5060   20.6330 C   0  0  0  0  0  2  0  0  0  0  0  0
  -28.8800  -26.8280   20.0350 O   0  0  0  0  0  0  0  0  0  0  0  0
  -24.8640  -31.7580   23.3590 C   0  0  0  0  0  0  0  0  0  0  0  0
  -27.6810  -27.5210   20.1110 C   0  0  0  0  0  0  0  0  0  0  0  0
  -23.7110  -30.3620   21.6750 C   0  0  0  0  0  3  0  0  0  0  0  0
  -25.2230  -28.9380   20.1870 C   0  0  0  0  0  0  0  0  0  0  0  0
  -26.2210  -30.8320   21.4780 C   0  0  0  0  0  2  0  0  0  0  0  0
  -26.3640  -29.4910   20.7820 C   0  0  0  0  0  0  0  0  0  0  0  0
  -27.5980  -28.7940   20.7340 C   0  0  0  0  0  3  0  0  0  0  0  0
  -26.5220  -26.9860   19.5140 C   0  0  0  0  0  3  0  0  0  0  0  0
  -25.2980  -27.6850   19.5500 C   0  0  0  0  0  3  0  0  0  0  0  0
  -23.9430  -29.7410   20.2700 C   0  0  0  0  0  2  0  0  0  0  0  0
  -24.9500  -31.0000   22.2280 N   0  0  0  0  0  0  0  0  0  0  0  0
  -23.7760  -31.9610   23.9170 O   0  0  0  0  0  0  0  0  0  0  0  0
  -23.1130  -29.2800   22.6040 C   0  0  0  0  0  0  0  0  0  0  0  0
  -21.7990  -29.0310   22.4710 N   0  0  0  0  0  0  0  0  0  0  0  0
  -23.8300  -28.6660   23.3980 O   0  0  0  0  0  0  0  0  0  0  0  0
  -21.2780  -29.5810   21.8020 H   0  0  0  0  0  0  0  0  0  0  0  0
  -18.4950  -27.6390   22.9360 C   0  0  0  0  0  0  0  0  0  0  0  0
  -21.0360  -28.0270   23.2120 C   0  0  0  0  0  3  0  0  0  0  0  0
  -21.2140  -26.6220   22.5910 C   0  0  0  0  0  2  0  0  0  0  0  0
  -20.1300  -26.2740   21.5670 C   0  0  0  0  0  2  0  0  0  0  0  0
  -18.7430  -26.3240   22.2160 C   0  0  0  0  0  2  0  0  0  0  0  0
  -19.5720  -28.4460   23.3880 C   0  0  0  0  0  0  0  0  0  0  0  0
  -19.2890  -29.6750   24.0210 C   0  0  0  0  0  3  0  0  0  0  0  0
  -17.9600  -30.1010   24.2040 C   0  0  0  0  0  3  0  0  0  0  0  0
  -16.8960  -29.2930   23.7680 C   0  0  0  0  0  3  0  0  0  0  0  0
  -17.1650  -28.0620   23.1400 C   0  0  0  0  0  3  0  0  0  0  0  0
  -26.1250  -32.4280   23.9910 C   0  0  0  0  0  3  0  0  0  0  0  0
  -26.6820  -31.6470   25.2440 C   0  0  1  0  0  0  0  0  0  0  0  0
  -25.6040  -31.3230   26.3040 C   0  0  0  0  0  1  0  0  0  0  0  0
  -27.3360  -30.3120   24.8150 C   0  0  0  0  0  1  0  0  0  0  0  0
  -27.7920  -32.4790   25.9280 C   0  0  0  0  0  1  0  0  0  0  0  0
  -25.7590  -33.8030   24.3560 N   0  0  0  0  0  0  0  0  0  0  0  0
  -26.0480  -34.8880   23.6270 C   0  0  0  0  0  0  0  0  0  0  0  0
  -26.7200  -34.8410   22.5930 O   0  0  0  0  0  0  0  0  0  0  0  0
  -25.1560  -33.9120   25.1590 H   0  0  0  0  0  0  0  0  0  0  0  0
  -24.2520  -36.6220   23.3160 C   0  0  0  0  0  1  0  0  0  0  0  0
  -25.5040  -36.2420   24.1210 C   0  0  0  0  0  3  0  0  0  0  0  0
  -27.5980  -37.1850   24.9920 C   0  0  0  0  0  1  0  0  0  0  0  0
  -26.4950  -37.3380   24.0460 N   0  0  0  0  0  0  0  0  0  0  0  0
  -26.0530  -38.2360   24.2180 H   0  0  0  0  0  0  0  0  0  0  0  0
  1 49  1  0
  1  2  1  0
  3  1  1  0
  4  1  1  0
  5 17  1  0
  6 11  1  0
  7  8  1  0
  7  6  1  0
  9  8  1  0
  9 24  1  0
  9 10  1  0
 11  5  1  0
 11 10  1  0
 12  5  2  0
 13 14  1  0
 14 18  1  0
 15 18  1  0
 16  4  1  0
 16 17  1  0
 16 15  1  0
 17 13  1  0
 18 20  1  0
 18 19  1  0
 21 22  2  0
 22 41  1  0
 23 22  1  0
 23 26  1  0
 24 25  1  0
 24 21  1  0
 25 23  2  0
 26 27  1  0
 27 28  2  0
 29 32  1  0
 29 28  1  0
 30 29  2  0
 31 30  1  0
 31 26  2  0
 32 33  1  0
 33 38  2  0
 33 34  1  0
 34 35  2  0
 35 36  1  0
 36 40  1  0
 37 36  2  0
 38 37  1  0
 39 38  1  0
 41 42  1  0
 42 44  1  0
 42 45  1  0
 43 41  2  0
 46 47  1  0
 46 21  1  0
 48 46  1  0
 50 49  1  0
 50 51  1  0
 51 52  1  0
 53 51  1  0
 53 54  1  0
 55 57  1  0
 55 54  1  0
 56 67  2  0
 57 62  1  0
 58 66  1  0
 58 68  1  0
 59 65  1  0
 59 61  1  0
 60 66  1  0
 61 60  1  0
 62 61  2  0
 63 64  1  0
 63 57  2  0
 64 59  2  0
 65 58  1  0
 66 56  1  0
 68 70  2  0
 69 68  1  0
 71 69  1  0
 72 81  2  0
 72 77  1  0
 73 69  1  0
 73 77  1  0
 74 73  1  0
 75 76  1  0
 75 74  1  0
 76 72  1  0
 77 78  2  0
 78 79  1  0
 80 79  2  0
 81 80  1  0
 82 56  1  0
 82 87  1  0
 82 83  1  0
 83 86  1  1
 83 84  1  0
 85 83  1  0
 87 90  1  0
 88 92  1  0
 88 87  1  0
 89 88  2  0
 92 91  1  0
 94 92  1  0
 94 95  1  0
 94 93  1  0
M  ISO  4   5 100  17 100  54 101  55 101
M  END
>  <TORSDO>  (72) 
F 22

>  <SCORE>  (72) 
-7.446

>  <name>  (72) 
71

>  <ligand_id>  (72) 
71

>  <original_smiles>  (72) 
[H]c1c([H])c([H])c2c(c1[H])C([H])([H])C([H])([H])C([H])([H])C2([H])N([H])C(=O)C1([H])N(C(=O)C([H])(N([H])C(=O)C([H])(N([H])C([H])([H])[H])C([H])([H])[H])C(C([H])([H])[H])(C([H])([H])[H])C([H])([H])[H])C([H])([H])c2c([H])c(OC([H])([H])C([H])([H])N([H])C([H])([H])C([H])([H])[N+]([H])([H])C([H])([H])C3([H])N(C(=O)N4C([H])([H])C([H])([H])C([H])([H])C([H])(n5nc(-c6c([H])c([H])c(Oc7c([H])c([H])c(F)c([H])c7F)c([H])c6[H])c(C(=O)N([H])[H])c5N([H])[H])C4([H])[H])C([H])([H])C([H])([H])[N+]([H])([H])C3([H])[H])c([H])c([H])c2C1([H])[H]

>  <smiles>  (72) 
[H]c1c([H])c([H])c2c(c1[H])C([H])([H])C([H])([H])C([H])([H])C2([H])N([H])C(=O)C1([H])N(C(=O)C([H])(N([H])C(=O)C([H])(N([H])C([H])([H])[H])C([H])([H])[H])C(C([H])([H])[H])(C([H])([H])[H])C([H])([H])[H])C([H])([H])c2c([H])c(OC([H])([H])C([H])([H])N([H])C([H])([H])C([H])([H])[N+]([H])([H])C([H])([H])C3([H])N(C(=O)N4C([H])([H])C([H])([H])C([H])([H])C([H])(n5nc(-c6c([H])c([H])c(Oc7c([H])c([H])c(F)c([H])c7F)c([H])c6[H])c(C(=O)N([H])[H])c5N([H])[H])C4([H])[H])C([H])([H])C([H])([H])[N+]([H])([H])C3([H])[H])c([H])c([H])c2C1([H])[H]

$$$$
72:0:0
     RDKit          3D

 93101  0  0  1  0  0  0  0  0999 V2000
  -28.0750  -23.9120   20.4990 C   0  0  0  0  0  0  0  0  0  0  0  0
  -26.8180  -23.7670   20.0600 N   0  0  0  0  0  4  0  0  0  0  0  0
  -28.8710  -22.7960   20.6690 N   0  0  0  0  0  0  0  0  0  0  0  0
  -26.2110  -24.5680   20.0210 H   0  0  0  0  0  0  0  0  0  0  0  0
  -26.4460  -22.8760   19.7790 H   0  0  0  0  0  0  0  0  0  0  0  0
  -29.8380  -22.9860   20.8960 H   0  0  0  0  0  0  0  0  0  0  0  0
  -28.5240  -21.3080   20.6780 C   0  0  0  0  0  2  0  0  0  0  0  0
  -30.6270  -14.6940   20.0240 C   0  0  0  0  0  0  0  0  0  0  0  0
  -30.2720  -12.4810   18.9520 C   0  0  0  0  0  2  0  0  0  0  0  0
  -29.2710  -12.6090   17.7880 C   0  0  0  0  0  2  0  0  0  0  0  0
  -27.8300  -12.4400   18.3040 C   0  0  0  0  0  2  0  0  0  0  0  0
  -27.5390  -13.2950   19.5680 C   0  0  0  0  0  3  0  0  0  0  0  0
  -28.6640  -13.1690   20.6180 C   0  0  0  0  0  2  0  0  0  0  0  0
  -29.9110  -13.5250   19.9350 N   0  0  0  0  0  0  0  0  0  0  0  0
  -31.8260  -14.6630   19.7300 O   0  0  0  0  0  0  0  0  0  0  0  0
  -29.2970  -20.3530   19.6980 C   0  0  0  0  0  0  0  0  0  0  0  0
  -29.7330  -18.1140   18.6680 C   0  0  0  0  0  2  0  0  0  0  0  0
  -28.6470  -18.1040   20.8210 C   0  0  0  0  0  3  0  0  0  0  0  0
  -30.6650  -16.9870   19.1530 C   0  0  0  0  0  2  0  0  0  0  0  0
  -29.0220  -16.5360   20.9010 C   0  0  0  0  0  3  0  0  0  0  0  0
  -29.2680  -18.9630   19.7770 N   0  0  0  0  0  0  0  0  0  0  0  0
  -29.9760  -15.9260   19.9230 N   0  0  0  0  0  0  0  0  0  0  0  0
  -29.9190  -20.9170   18.7930 O   0  0  0  0  0  0  0  0  0  0  0  0
  -25.1960  -13.8760   20.4250 C   0  0  0  0  0  0  0  0  0  0  0  0
  -24.1500  -13.0950   20.8390 C   0  0  0  0  0  0  0  0  0  0  0  0
  -24.6130  -11.7450   20.7690 C   0  0  0  0  0  0  0  0  0  0  0  0
  -26.2260  -13.0000   20.1290 N   0  0  0  0  0  0  0  0  0  0  0  0
  -25.8870  -11.7140   20.3990 N   0  0  0  0  0  0  0  0  0  0  0  0
  -23.8990  -10.4790   20.9790 C   0  0  0  0  0  0  0  0  0  0  0  0
  -24.3720   -9.5050   21.8840 C   0  0  0  0  0  3  0  0  0  0  0  0
  -23.6550   -8.3050   22.0850 C   0  0  0  0  0  3  0  0  0  0  0  0
  -22.4510   -8.0710   21.3790 C   0  0  0  0  0  0  0  0  0  0  0  0
  -21.9960   -9.0350   20.4610 C   0  0  0  0  0  3  0  0  0  0  0  0
  -22.7140  -10.2260   20.2600 C   0  0  0  0  0  3  0  0  0  0  0  0
  -21.7020   -6.9240   21.4890 O   0  0  0  0  0  0  0  0  0  0  0  0
  -21.6920   -6.1780   22.6410 C   0  0  0  0  0  0  0  0  0  0  0  0
  -21.3170   -6.7340   23.8830 C   0  0  0  0  0  3  0  0  0  0  0  0
  -21.2540   -5.9150   25.0290 C   0  0  0  0  0  3  0  0  0  0  0  0
  -21.5560   -4.5440   24.9340 C   0  0  0  0  0  0  0  0  0  0  0  0
  -21.9240   -3.9890   23.6960 C   0  0  0  0  0  3  0  0  0  0  0  0
  -21.9890   -4.8030   22.5520 C   0  0  0  0  0  0  0  0  0  0  0  0
  -22.3240   -4.2590   21.3570 F   0  0  0  0  0  0  0  0  0  0  0  0
  -21.4870   -3.7570   26.0320 F   0  0  0  0  0  0  0  0  0  0  0  0
  -22.7690  -13.5660   21.1860 C   0  0  0  0  0  0  0  0  0  0  0  0
  -22.0870  -12.8600   22.0810 N   0  0  0  0  0  0  0  0  0  0  0  0
  -22.3040  -14.5970   20.6990 O   0  0  0  0  0  0  0  0  0  0  0  0
  -22.4770  -12.0260   22.4940 H   0  0  0  0  0  0  0  0  0  0  0  0
  -21.1630  -13.1590   22.3570 H   0  0  0  0  0  0  0  0  0  0  0  0
  -25.3500  -15.2480   20.2520 N   0  0  0  0  0  0  0  0  0  0  0  0
  -24.5880  -15.9020   20.4020 H   0  0  0  0  0  0  0  0  0  0  0  0
  -26.1780  -15.6850   19.8720 H   0  0  0  0  0  0  0  0  0  0  0  0
  -28.5350  -25.3460   20.9170 C   0  0  0  0  0  2  0  0  0  0  0  0
  -28.3670  -26.5100   20.0220 O   0  0  0  0  0  0  0  0  0  0  0  0
  -24.6480  -31.8710   23.2100 C   0  0  0  0  0  0  0  0  0  0  0  0
  -27.2410  -27.3300   20.1200 C   0  0  0  0  0  0  0  0  0  0  0  0
  -23.4330  -30.4760   21.5730 C   0  0  0  0  0  3  0  0  0  0  0  0
  -24.8760  -28.9280   20.1390 C   0  0  0  0  0  0  0  0  0  0  0  0
  -25.9690  -30.7990   21.3730 C   0  0  0  0  0  2  0  0  0  0  0  0
  -26.0470  -29.4180   20.7330 C   0  0  0  0  0  0  0  0  0  0  0  0
  -27.2350  -28.6270   20.7200 C   0  0  0  0  0  3  0  0  0  0  0  0
  -26.0570  -26.8980   19.4920 C   0  0  0  0  0  3  0  0  0  0  0  0
  -24.8810  -27.6710   19.5130 C   0  0  0  0  0  3  0  0  0  0  0  0
  -23.6390  -29.8020   20.1910 C   0  0  0  0  0  2  0  0  0  0  0  0
  -24.7030  -31.0670   22.1080 N   0  0  0  0  0  0  0  0  0  0  0  0
  -23.5690  -32.1460   23.7540 O   0  0  0  0  0  0  0  0  0  0  0  0
  -22.7810  -29.4550   22.5350 C   0  0  0  0  0  0  0  0  0  0  0  0
  -21.4530  -29.2790   22.4190 N   0  0  0  0  0  0  0  0  0  0  0  0
  -23.4660  -28.8250   23.3440 O   0  0  0  0  0  0  0  0  0  0  0  0
  -20.9610  -29.8400   21.7390 H   0  0  0  0  0  0  0  0  0  0  0  0
  -18.0830  -28.0740   22.9290 C   0  0  0  0  0  0  0  0  0  0  0  0
  -20.6410  -28.3390   23.1910 C   0  0  0  0  0  3  0  0  0  0  0  0
  -20.7430  -26.9080   22.6150 C   0  0  0  0  0  2  0  0  0  0  0  0
  -19.6390  -26.5840   21.6020 C   0  0  0  0  0  2  0  0  0  0  0  0
  -18.2580  -26.7270   22.2480 C   0  0  0  0  0  2  0  0  0  0  0  0
  -19.2010  -28.8380   23.3570 C   0  0  0  0  0  0  0  0  0  0  0  0
  -18.9820  -30.0980   23.9520 C   0  0  0  0  0  3  0  0  0  0  0  0
  -17.6770  -30.5970   24.1240 C   0  0  0  0  0  3  0  0  0  0  0  0
  -16.5720  -29.8300   23.7140 C   0  0  0  0  0  3  0  0  0  0  0  0
  -16.7760  -28.5710   23.1220 C   0  0  0  0  0  3  0  0  0  0  0  0
  -25.9360  -32.5000   23.8250 C   0  0  0  0  0  3  0  0  0  0  0  0
  -25.6250  -33.8930   24.1770 N   0  0  0  0  0  0  0  0  0  0  0  0
  -25.9370  -34.9560   23.4250 C   0  0  0  0  0  0  0  0  0  0  0  0
  -26.5890  -34.8680   22.3800 O   0  0  0  0  0  0  0  0  0  0  0  0
  -25.0450  -34.0330   24.9910 H   0  0  0  0  0  0  0  0  0  0  0  0
  -24.1890  -36.7410   23.1280 C   0  0  0  0  0  1  0  0  0  0  0  0
  -25.4510  -36.3370   23.9080 C   0  0  0  0  0  3  0  0  0  0  0  0
  -27.5960  -37.2300   24.6990 C   0  0  0  0  0  1  0  0  0  0  0  0
  -26.4730  -37.3970   23.7820 N   0  0  0  0  0  0  0  0  0  0  0  0
  -26.0650  -38.3140   23.9450 H   0  0  0  0  0  0  0  0  0  0  0  0
  -26.4700  -31.7160   25.0850 C   0  0  1  0  0  0  0  0  0  0  0  0
  -25.3920  -31.4660   26.1660 C   0  0  0  0  0  1  0  0  0  0  0  0
  -27.0480  -30.3420   24.6710 C   0  0  0  0  0  1  0  0  0  0  0  0
  -27.6320  -32.5010   25.7380 C   0  0  0  0  0  1  0  0  0  0  0  0
  1  3  1  0
  1 52  1  0
  2  1  2  0
  3  7  1  0
  3  6  1  0
  4  2  1  0
  5  2  1  0
  9 14  1  0
 10 11  1  0
 10  9  1  0
 12 11  1  0
 12 27  1  0
 12 13  1  0
 14  8  1  0
 14 13  1  0
 15  8  2  0
 16 21  1  0
 16  7  1  0
 17 19  1  0
 17 21  1  0
 18 20  2  0
 19 22  1  0
 21 18  1  0
 22  8  1  0
 22 20  1  0
 23 16  2  0
 24 25  2  0
 25 44  1  0
 26 25  1  0
 26 29  1  0
 27 28  1  0
 27 24  1  0
 28 26  2  0
 29 30  1  0
 30 31  2  0
 32 35  1  0
 32 31  1  0
 33 32  2  0
 34 33  1  0
 34 29  2  0
 35 36  1  0
 36 37  1  0
 37 38  2  0
 39 38  1  0
 39 43  1  0
 40 39  2  0
 41 36  2  0
 41 40  1  0
 42 41  1  0
 44 45  1  0
 45 48  1  0
 45 47  1  0
 46 44  2  0
 49 50  1  0
 49 24  1  0
 51 49  1  0
 53 55  1  0
 53 52  1  0
 54 65  2  0
 55 60  1  0
 56 64  1  0
 56 66  1  0
 57 63  1  0
 57 59  1  0
 58 64  1  0
 59 58  1  0
 60 59  2  0
 61 62  1  0
 61 55  2  0
 62 57  2  0
 63 56  1  0
 64 54  1  0
 66 68  2  0
 67 66  1  0
 69 67  1  0
 70 79  2  0
 70 75  1  0
 71 67  1  0
 71 75  1  0
 72 71  1  0
 73 74  1  0
 73 72  1  0
 74 70  1  0
 75 76  2  0
 76 77  1  0
 78 77  2  0
 79 78  1  0
 80 54  1  0
 80 81  1  0
 80 90  1  0
 81 84  1  0
 82 86  1  0
 82 81  1  0
 83 82  2  0
 86 85  1  0
 88 86  1  0
 88 89  1  0
 88 87  1  0
 90 93  1  1
 90 91  1  0
 92 90  1  0
M  ISO  4   8 100  22 100  52 101  53 101
M  END
>  <TORSDO>  (73) 
F 18

>  <SCORE>  (73) 
-14.510

>  <name>  (73) 
72

>  <ligand_id>  (73) 
72

>  <original_smiles>  (73) 
[H]c1c([H])c([H])c2c(c1[H])C([H])([H])C([H])([H])C([H])([H])C2([H])N([H])C(=O)C1([H])N(C(=O)C([H])(N([H])C(=O)C([H])(N([H])C([H])([H])[H])C([H])([H])[H])C(C([H])([H])[H])(C([H])([H])[H])C([H])([H])[H])C([H])([H])c2c([H])c(OC([H])([H])C(N([H])[H])=[N+]([H])C([H])([H])C(=O)N3C([H])([H])C([H])([H])N(C(=O)N4C([H])([H])C([H])([H])C([H])([H])C([H])(n5nc(-c6c([H])c([H])c(Oc7c([H])c([H])c(F)c([H])c7F)c([H])c6[H])c(C(=O)N([H])[H])c5N([H])[H])C4([H])[H])C([H])([H])C3([H])[H])c([H])c([H])c2C1([H])[H]

>  <smiles>  (73) 
[H]c1c([H])c([H])c2c(c1[H])C([H])([H])C([H])([H])C([H])([H])C2([H])N([H])C(=O)C1([H])N(C(=O)C([H])(N([H])C(=O)C([H])(N([H])C([H])([H])[H])C([H])([H])[H])C(C([H])([H])[H])(C([H])([H])[H])C([H])([H])[H])C([H])([H])c2c([H])c(OC([H])([H])C(N([H])[H])=[N+]([H])C([H])([H])C(=O)N3C([H])([H])C([H])([H])N(C(=O)N4C([H])([H])C([H])([H])C([H])([H])C([H])(n5nc(-c6c([H])c([H])c(Oc7c([H])c([H])c(F)c([H])c7F)c([H])c6[H])c(C(=O)N([H])[H])c5N([H])[H])C4([H])[H])C([H])([H])C3([H])[H])c([H])c([H])c2C1([H])[H]

$$$$
73:0:0
     RDKit          3D

 89 97  0  0  1  0  0  0  0  0999 V2000
  -29.0760  -18.2900   19.3400 C   0  0  0  0  0  2  0  0  0  0  0  0
  -30.1310  -18.3370   21.5780 C   0  0  0  0  0  2  0  0  0  0  0  0
  -29.1280  -19.8990   19.3030 C   0  0  0  0  0  2  0  0  0  0  0  0
  -30.1830  -19.9400   21.4840 C   0  0  0  0  0  2  0  0  0  0  0  0
  -30.1190  -17.5000   20.2400 C   0  0  0  0  0  3  0  0  0  0  0  0
  -29.0880  -20.5470   20.6550 N   0  0  1  0  0  4  0  0  0  0  0  0
  -28.2950  -20.0650   21.0530 H   0  0  0  0  0  0  0  0  0  0  0  0
  -30.6040  -14.8230   20.1570 C   0  0  0  0  0  0  0  0  0  0  0  0
  -30.3780  -12.5360   19.1360 C   0  0  0  0  0  2  0  0  0  0  0  0
  -29.4030  -12.6030   17.9390 C   0  0  0  0  0  2  0  0  0  0  0  0
  -27.9450  -12.4330   18.4060 C   0  0  0  0  0  2  0  0  0  0  0  0
  -27.6090  -13.3110   19.6400 C   0  0  0  0  0  3  0  0  0  0  0  0
  -28.7020  -13.2180   20.7290 C   0  0  0  0  0  2  0  0  0  0  0  0
  -29.9760  -13.5920   20.1000 N   0  0  0  0  0  0  0  0  0  0  0  0
  -31.7840  -14.9090   19.8030 O   0  0  0  0  0  0  0  0  0  0  0  0
  -29.8450  -15.9730   20.4020 N   0  0  0  0  0  0  0  0  0  0  0  0
  -28.8970  -15.7500   20.6710 H   0  0  0  0  0  0  0  0  0  0  0  0
  -25.2460  -13.9040   20.4450 C   0  0  0  0  0  0  0  0  0  0  0  0
  -24.1870  -13.1340   20.8380 C   0  0  0  0  0  0  0  0  0  0  0  0
  -24.6400  -11.7800   20.7780 C   0  0  0  0  0  0  0  0  0  0  0  0
  -26.2780  -13.0220   20.1680 N   0  0  0  0  0  0  0  0  0  0  0  0
  -25.9220  -11.7380   20.4330 N   0  0  0  0  0  0  0  0  0  0  0  0
  -23.9090  -10.5200   20.9690 C   0  0  0  0  0  0  0  0  0  0  0  0
  -24.3360   -9.5500   21.9040 C   0  0  0  0  0  3  0  0  0  0  0  0
  -23.6030   -8.3570   22.0830 C   0  0  0  0  0  3  0  0  0  0  0  0
  -22.4300   -8.1250   21.3290 C   0  0  0  0  0  0  0  0  0  0  0  0
  -22.0200   -9.0840   20.3850 C   0  0  0  0  0  3  0  0  0  0  0  0
  -22.7530  -10.2670   20.2020 C   0  0  0  0  0  3  0  0  0  0  0  0
  -21.6660   -6.9860   21.4220 O   0  0  0  0  0  0  0  0  0  0  0  0
  -21.5850   -6.2660   22.5860 C   0  0  0  0  0  0  0  0  0  0  0  0
  -21.1050   -6.8360   23.7850 C   0  0  0  0  0  3  0  0  0  0  0  0
  -20.9720   -6.0400   24.9410 C   0  0  0  0  0  3  0  0  0  0  0  0
  -21.3140   -4.6740   24.8990 C   0  0  0  0  0  0  0  0  0  0  0  0
  -21.7890   -4.1040   23.7040 C   0  0  0  0  0  3  0  0  0  0  0  0
  -21.9230   -4.8970   22.5520 C   0  0  0  0  0  0  0  0  0  0  0  0
  -22.3610   -4.3380   21.3980 F   0  0  0  0  0  0  0  0  0  0  0  0
  -21.1820   -3.9070   26.0060 F   0  0  0  0  0  0  0  0  0  0  0  0
  -22.8000  -13.6180   21.1490 C   0  0  0  0  0  0  0  0  0  0  0  0
  -22.0870  -12.9200   22.0260 N   0  0  0  0  0  0  0  0  0  0  0  0
  -22.3590  -14.6530   20.6510 O   0  0  0  0  0  0  0  0  0  0  0  0
  -22.4570  -12.0810   22.4500 H   0  0  0  0  0  0  0  0  0  0  0  0
  -21.1580  -13.2270   22.2750 H   0  0  0  0  0  0  0  0  0  0  0  0
  -25.4170  -15.2740   20.2720 N   0  0  0  0  0  0  0  0  0  0  0  0
  -24.6490  -15.9250   20.3870 H   0  0  0  0  0  0  0  0  0  0  0  0
  -26.2270  -15.6920   19.8330 H   0  0  0  0  0  0  0  0  0  0  0  0
  -28.5410  -22.0040   20.9140 C   0  0  0  0  0  2  0  0  0  0  0  0
  -29.0980  -23.4600   20.3830 C   0  0  0  0  0  3  0  0  0  0  0  0
  -28.1880  -24.8090   20.7220 C   0  0  0  0  0  3  0  0  0  0  0  0
  -28.4790  -26.2790   20.3870 O   0  0  0  0  0  0  0  0  0  0  0  0
  -24.6690  -31.8570   23.2410 C   0  0  0  0  0  0  0  0  0  0  0  0
  -27.3990  -27.2140   20.3110 C   0  0  0  0  0  0  0  0  0  0  0  0
  -23.5330  -30.4410   21.5730 C   0  0  0  0  0  3  0  0  0  0  0  0
  -25.0430  -28.8880   20.2010 C   0  0  0  0  0  0  0  0  0  0  0  0
  -26.0820  -30.7540   21.4780 C   0  0  0  0  0  2  0  0  0  0  0  0
  -26.1940  -29.3640   20.8410 C   0  0  0  0  0  0  0  0  0  0  0  0
  -27.3760  -28.5390   20.8850 C   0  0  0  0  0  3  0  0  0  0  0  0
  -26.2310  -26.8330   19.6190 C   0  0  0  0  0  3  0  0  0  0  0  0
  -25.0700  -27.6330   19.5750 C   0  0  0  0  0  3  0  0  0  0  0  0
  -23.8040  -29.7640   20.2060 C   0  0  0  0  0  2  0  0  0  0  0  0
  -24.7790  -31.0370   22.1540 N   0  0  0  0  0  0  0  0  0  0  0  0
  -23.5660  -32.1270   23.7380 O   0  0  0  0  0  0  0  0  0  0  0  0
  -22.8420  -29.4240   22.5160 C   0  0  0  0  0  0  0  0  0  0  0  0
  -21.5150  -29.2590   22.3710 N   0  0  0  0  0  0  0  0  0  0  0  0
  -23.5000  -28.7880   23.3440 O   0  0  0  0  0  0  0  0  0  0  0  0
  -21.0420  -29.8280   21.6830 H   0  0  0  0  0  0  0  0  0  0  0  0
  -18.1150  -28.1040   22.8450 C   0  0  0  0  0  0  0  0  0  0  0  0
  -20.6780  -28.3220   23.1300 C   0  0  0  0  0  3  0  0  0  0  0  0
  -20.7600  -26.8980   22.5330 C   0  0  0  0  0  2  0  0  0  0  0  0
  -19.6570  -26.6070   21.5100 C   0  0  0  0  0  2  0  0  0  0  0  0
  -18.2750  -26.7620   22.1500 C   0  0  0  0  0  2  0  0  0  0  0  0
  -19.2440  -28.8420   23.2900 C   0  0  0  0  0  0  0  0  0  0  0  0
  -19.0390  -30.0980   23.9020 C   0  0  0  0  0  3  0  0  0  0  0  0
  -17.7410  -30.6150   24.0720 C   0  0  0  0  0  3  0  0  0  0  0  0
  -16.6280  -29.8710   23.6420 C   0  0  0  0  0  3  0  0  0  0  0  0
  -16.8170  -28.6180   23.0350 C   0  0  0  0  0  3  0  0  0  0  0  0
  -25.9210  -32.5100   23.9030 C   0  0  0  0  0  3  0  0  0  0  0  0
  -26.4020  -31.7520   25.2020 C   0  0  1  0  0  0  0  0  0  0  0  0
  -25.2740  -31.5080   26.2330 C   0  0  0  0  0  1  0  0  0  0  0  0
  -27.0140  -30.3810   24.8340 C   0  0  0  0  0  1  0  0  0  0  0  0
  -27.5240  -32.5600   25.8940 C   0  0  0  0  0  1  0  0  0  0  0  0
  -25.5840  -33.9060   24.2190 N   0  0  0  0  0  0  0  0  0  0  0  0
  -25.9040  -34.9590   23.4550 C   0  0  0  0  0  0  0  0  0  0  0  0
  -26.5760  -34.8570   22.4250 O   0  0  0  0  0  0  0  0  0  0  0  0
  -24.9790  -34.0580   25.0140 H   0  0  0  0  0  0  0  0  0  0  0  0
  -24.1410  -36.7200   23.0890 C   0  0  0  0  0  1  0  0  0  0  0  0
  -25.3920  -36.3430   23.9000 C   0  0  0  0  0  3  0  0  0  0  0  0
  -27.5100  -37.2790   24.7180 C   0  0  0  0  0  1  0  0  0  0  0  0
  -26.4050  -37.4150   23.7720 N   0  0  0  0  0  0  0  0  0  0  0  0
  -25.9830  -38.3280   23.9130 H   0  0  0  0  0  0  0  0  0  0  0  0
  1  5  1  0
  3  1  1  0
  3  6  1  0
  4  2  1  0
  5 16  1  0
  5  2  1  0
  6 46  1  0
  6  7  1  1
  6  4  1  0
  8 16  1  0
  9 14  1  0
 10 11  1  0
 10  9  1  0
 12 11  1  0
 12 21  1  0
 12 13  1  0
 14  8  1  0
 14 13  1  0
 15  8  2  0
 16 17  1  0
 18 19  2  0
 19 38  1  0
 20 19  1  0
 20 23  1  0
 21 22  1  0
 21 18  1  0
 22 20  2  0
 23 24  1  0
 24 25  2  0
 26 29  1  0
 26 25  1  0
 27 26  2  0
 28 27  1  0
 28 23  2  0
 29 30  1  0
 30 31  1  0
 31 32  2  0
 33 32  1  0
 33 37  1  0
 34 33  2  0
 35 30  2  0
 35 34  1  0
 36 35  1  0
 38 39  1  0
 39 42  1  0
 39 41  1  0
 40 38  2  0
 43 44  1  0
 43 18  1  0
 45 43  1  0
 47 48  2  0
 47 46  1  0
 49 48  1  0
 50 61  2  0
 51 49  1  0
 51 56  1  0
 52 60  1  0
 52 62  1  0
 53 59  1  0
 53 55  1  0
 54 60  1  0
 55 56  2  0
 55 54  1  0
 57 51  2  0
 58 57  1  0
 58 53  2  0
 59 52  1  0
 60 50  1  0
 62 64  2  0
 63 62  1  0
 65 63  1  0
 66 75  2  0
 66 71  1  0
 67 63  1  0
 67 71  1  0
 68 67  1  0
 69 70  1  0
 69 68  1  0
 70 66  1  0
 71 72  2  0
 72 73  1  0
 74 73  2  0
 75 74  1  0
 76 50  1  0
 76 81  1  0
 76 77  1  0
 77 80  1  1
 77 78  1  0
 79 77  1  0
 81 84  1  0
 82 86  1  0
 82 81  1  0
 83 82  2  0
 86 85  1  0
 88 86  1  0
 88 89  1  0
 88 87  1  0
M  ISO  4   8 100  16 100  48 101  49 101
M  END
>  <TORSDO>  (74) 
F 19

>  <SCORE>  (74) 
-13.998

>  <name>  (74) 
73

>  <ligand_id>  (74) 
73

>  <original_smiles>  (74) 
[H]c1c([H])c([H])c2c(c1[H])C([H])([H])C([H])([H])C([H])([H])C2([H])N([H])C(=O)C1([H])N(C(=O)C([H])(N([H])C(=O)C([H])(N([H])C([H])([H])[H])C([H])([H])[H])C(C([H])([H])[H])(C([H])([H])[H])C([H])([H])[H])C([H])([H])c2c([H])c(OC([H])([H])C([H])([H])C([H])([H])[N+]3([H])C([H])([H])C([H])([H])C([H])(N([H])C(=O)N4C([H])([H])C([H])([H])C([H])([H])C([H])(n5nc(-c6c([H])c([H])c(Oc7c([H])c([H])c(F)c([H])c7F)c([H])c6[H])c(C(=O)N([H])[H])c5N([H])[H])C4([H])[H])C([H])([H])C3([H])[H])c([H])c([H])c2C1([H])[H]

>  <smiles>  (74) 
[H]c1c([H])c([H])c2c(c1[H])C([H])([H])C([H])([H])C([H])([H])C2([H])N([H])C(=O)C1([H])N(C(=O)C([H])(N([H])C(=O)C([H])(N([H])C([H])([H])[H])C([H])([H])[H])C(C([H])([H])[H])(C([H])([H])[H])C([H])([H])[H])C([H])([H])c2c([H])c(OC([H])([H])C([H])([H])C([H])([H])[N+]3([H])C([H])([H])C([H])([H])C([H])(N([H])C(=O)N4C([H])([H])C([H])([H])C([H])([H])C([H])(n5nc(-c6c([H])c([H])c(Oc7c([H])c([H])c(F)c([H])c7F)c([H])c6[H])c(C(=O)N([H])[H])c5N([H])[H])C4([H])[H])C([H])([H])C3([H])[H])c([H])c([H])c2C1([H])[H]

$$$$
74:0:0
     RDKit          3D

 99108  0  0  1  0  0  0  0  0999 V2000
  -29.5910  -17.0830   19.6740 C   0  0  0  0  0  0  0  0  0  0  0  0
  -33.2270  -15.9340   17.8770 C   0  0  0  0  0  2  0  0  0  0  0  0
  -32.3330  -16.9710   17.2050 C   0  0  0  0  0  2  0  0  0  0  0  0
  -30.5800  -18.5970   18.1770 C   0  0  0  0  0  2  0  0  0  0  0  0
  -32.5980  -15.7980   19.2640 C   0  0  0  0  0  2  0  0  0  0  0  0
  -30.9350  -17.1950   20.5490 C   0  0  0  0  0  3  0  0  0  0  0  0
  -31.9680  -17.9290   18.3490 C   0  0  0  0  0  3  0  0  0  0  0  0
  -29.4790  -17.7250   18.5750 N   0  0  0  0  0  0  0  0  0  0  0  0
  -32.0990  -17.1490   19.6130 N   0  0  2  0  0  4  0  0  0  0  0  0
  -32.8500  -17.5880   20.1240 H   0  0  0  0  0  0  0  0  0  0  0  0
  -31.1740  -18.4650   21.5070 C   0  0  0  0  0  2  0  0  0  0  0  0
  -32.6230  -19.1580   21.4730 C   0  0  0  0  0  2  0  0  0  0  0  0
  -32.7950  -20.7410   21.3150 C   0  0  0  0  0  3  0  0  0  0  0  0
  -33.9750  -21.2030   20.3510 C   0  0  0  0  0  3  0  0  0  0  0  0
  -34.0600  -22.5680   19.7750 O   0  0  0  0  0  0  0  0  0  0  0  0
  -31.4710  -25.8620   13.8970 C   0  0  0  0  0  0  0  0  0  0  0  0
  -34.0670  -22.6730   18.3720 C   0  0  0  0  0  0  0  0  0  0  0  0
  -32.5100  -23.6500   13.5590 C   0  0  0  0  0  3  0  0  0  0  0  0
  -33.8900  -22.7530   15.5150 C   0  0  0  0  0  0  0  0  0  0  0  0
  -33.2900  -25.1720   15.4710 C   0  0  0  0  0  2  0  0  0  0  0  0
  -33.6590  -23.9190   16.2590 C   0  0  0  0  0  0  0  0  0  0  0  0
  -33.7590  -23.8880   17.6820 C   0  0  0  0  0  3  0  0  0  0  0  0
  -34.3400  -21.5370   17.5710 C   0  0  0  0  0  3  0  0  0  0  0  0
  -34.2410  -21.5650   16.1700 C   0  0  0  0  0  3  0  0  0  0  0  0
  -33.7510  -22.8360   14.0080 C   0  0  0  0  0  2  0  0  0  0  0  0
  -32.3760  -24.9340   14.3200 N   0  0  0  0  0  0  0  0  0  0  0  0
  -30.7820  -25.6790   12.8840 O   0  0  0  0  0  0  0  0  0  0  0  0
  -31.2530  -22.7520   13.6480 C   0  0  0  0  0  0  0  0  0  0  0  0
  -30.9670  -22.0020   12.5700 N   0  0  0  0  0  0  0  0  0  0  0  0
  -30.5740  -22.7210   14.6770 O   0  0  0  0  0  0  0  0  0  0  0  0
  -31.5620  -22.0980   11.7590 H   0  0  0  0  0  0  0  0  0  0  0  0
  -28.8290  -20.3000   10.1990 C   0  0  0  0  0  0  0  0  0  0  0  0
  -29.8560  -21.0570   12.4470 C   0  0  0  0  0  3  0  0  0  0  0  0
  -30.3440  -19.5960   12.5990 C   0  0  0  0  0  2  0  0  0  0  0  0
  -30.6760  -18.9310   11.2590 C   0  0  0  0  0  2  0  0  0  0  0  0
  -29.4450  -18.9180   10.3470 C   0  0  0  0  0  2  0  0  0  0  0  0
  -29.0350  -21.3080   11.1780 C   0  0  0  0  0  0  0  0  0  0  0  0
  -28.4660  -22.5850   10.9770 C   0  0  0  0  0  3  0  0  0  0  0  0
  -27.7010  -22.8590    9.8280 C   0  0  0  0  0  3  0  0  0  0  0  0
  -27.4890  -21.8540    8.8690 C   0  0  0  0  0  3  0  0  0  0  0  0
  -28.0480  -20.5780    9.0580 C   0  0  0  0  0  3  0  0  0  0  0  0
  -31.2750  -27.2130   14.6540 C   0  0  0  0  0  3  0  0  0  0  0  0
  -29.9800  -27.2360   15.5570 C   0  0  1  0  0  0  0  0  0  0  0  0
  -28.7070  -27.6930   14.8060 C   0  0  0  0  0  1  0  0  0  0  0  0
  -29.7020  -25.8350   16.1500 C   0  0  0  0  0  1  0  0  0  0  0  0
  -30.1970  -28.1860   16.7590 C   0  0  0  0  0  1  0  0  0  0  0  0
  -31.2230  -28.2830   13.6480 N   0  0  0  0  0  0  0  0  0  0  0  0
  -32.2340  -29.1160   13.3700 C   0  0  0  0  0  0  0  0  0  0  0  0
  -33.2980  -29.1070   13.9940 O   0  0  0  0  0  0  0  0  0  0  0  0
  -30.4020  -28.3110   13.0610 H   0  0  0  0  0  0  0  0  0  0  0  0
  -32.8450  -29.6710   10.9940 C   0  0  0  0  0  1  0  0  0  0  0  0
  -32.0320  -30.1190   12.2190 C   0  0  0  0  0  3  0  0  0  0  0  0
  -31.6090  -32.0510   13.6740 C   0  0  0  0  0  1  0  0  0  0  0  0
  -32.4010  -31.5070   12.5750 N   0  0  0  0  0  0  0  0  0  0  0  0
  -32.2970  -32.1250   11.7740 H   0  0  0  0  0  0  0  0  0  0  0  0
  -28.3880  -16.1400   20.0850 C   0  0  0  0  0  3  0  0  0  0  0  0
  -27.6230  -13.6760   19.3990 C   0  0  0  0  0  0  0  0  0  0  0  0
  -27.0460  -11.3580   20.0750 C   0  0  0  0  0  2  0  0  0  0  0  0
  -27.3110  -11.2020   21.5880 C   0  0  0  0  0  2  0  0  0  0  0  0
  -28.7720  -10.7850   21.8390 C   0  0  0  0  0  2  0  0  0  0  0  0
  -29.7850  -11.6490   21.0400 C   0  0  0  0  0  3  0  0  0  0  0  0
  -29.3630  -11.8370   19.5650 C   0  0  0  0  0  2  0  0  0  0  0  0
  -27.9960  -12.3680   19.5580 N   0  0  0  0  0  0  0  0  0  0  0  0
  -26.4340  -13.9550   19.2370 O   0  0  0  0  0  0  0  0  0  0  0  0
  -28.5430  -14.6670   19.6700 N   0  0  0  0  0  0  0  0  0  0  0  0
  -29.4910  -14.3320   19.7420 H   0  0  0  0  0  0  0  0  0  0  0  0
  -32.3050  -11.8110   21.4820 C   0  0  0  0  0  0  0  0  0  0  0  0
  -33.2930  -10.8660   21.5340 C   0  0  0  0  0  0  0  0  0  0  0  0
  -32.6630   -9.6210   21.2330 C   0  0  0  0  0  0  0  0  0  0  0  0
  -31.1450  -11.1320   21.1540 N   0  0  0  0  0  0  0  0  0  0  0  0
  -31.3800   -9.8110   20.9480 N   0  0  0  0  0  0  0  0  0  0  0  0
  -33.1950   -8.2510   21.2550 C   0  0  0  0  0  0  0  0  0  0  0  0
  -33.8620   -7.6970   20.1400 C   0  0  0  0  0  3  0  0  0  0  0  0
  -34.3810   -6.3860   20.1940 C   0  0  0  0  0  3  0  0  0  0  0  0
  -34.2390   -5.6140   21.3720 C   0  0  0  0  0  0  0  0  0  0  0  0
  -33.5540   -6.1620   22.4720 C   0  0  0  0  0  3  0  0  0  0  0  0
  -33.0340   -7.4650   22.4140 C   0  0  0  0  0  3  0  0  0  0  0  0
  -34.6890   -4.3230   21.5070 O   0  0  0  0  0  0  0  0  0  0  0  0
  -35.9580   -3.9610   21.1340 C   0  0  0  0  0  0  0  0  0  0  0  0
  -37.0880   -4.3000   21.9090 C   0  0  0  0  0  3  0  0  0  0  0  0
  -38.3660   -3.8470   21.5280 C   0  0  0  0  0  3  0  0  0  0  0  0
  -38.5160   -3.0490   20.3780 C   0  0  0  0  0  0  0  0  0  0  0  0
  -37.3930   -2.7050   19.6070 C   0  0  0  0  0  3  0  0  0  0  0  0
  -36.1160   -3.1580   19.9860 C   0  0  0  0  0  0  0  0  0  0  0  0
  -35.0330   -2.8050   19.2530 F   0  0  0  0  0  0  0  0  0  0  0  0
  -39.7430   -2.6070   20.0140 F   0  0  0  0  0  0  0  0  0  0  0  0
  -34.7200  -11.0890   21.9420 C   0  0  0  0  0  0  0  0  0  0  0  0
  -35.6660  -10.7290   21.0830 N   0  0  0  0  0  0  0  0  0  0  0  0
  -35.0020  -11.6320   23.0100 O   0  0  0  0  0  0  0  0  0  0  0  0
  -35.4310  -10.3040   20.1990 H   0  0  0  0  0  0  0  0  0  0  0  0
  -36.6370  -10.8850   21.3110 H   0  0  0  0  0  0  0  0  0  0  0  0
  -32.2900  -13.1820   21.7120 N   0  0  0  0  0  0  0  0  0  0  0  0
  -33.1050  -13.6480   22.0910 H   0  0  0  0  0  0  0  0  0  0  0  0
  -31.4400  -13.7180   21.8030 H   0  0  0  0  0  0  0  0  0  0  0  0
  -27.0880  -16.8370   19.5800 C   0  0  0  0  0  2  0  0  0  0  0  0
  -25.8860  -16.5520   20.3820 N   0  0  0  0  0  4  0  0  0  0  0  0
  -25.7780  -15.5370   20.3950 H   0  0  0  0  0  0  0  0  0  0  0  0
  -25.0740  -16.9530   19.9500 H   0  0  0  0  0  0  0  0  0  0  0  0
  -25.9620  -16.8930   21.3230 H   0  0  0  0  0  0  0  0  0  0  0  0
  1 56  1  0
  1  6  1  0
  2  5  1  0
  3  2  1  0
  4  7  1  0
  4  8  1  0
  5  9  1  0
  6 11  1  0
  7  3  1  0
  7  9  1  0
  8  1  2  0
  9 10  1  1
  9  6  1  0
 12 11  1  0
 13 12  1  0
 14 13  2  0
 15 14  1  0
 16 26  1  0
 17 15  1  0
 18 28  1  0
 18 25  1  0
 18 26  1  0
 19 24  2  0
 19 21  1  0
 20 21  1  0
 21 22  2  0
 22 17  1  0
 23 17  2  0
 24 23  1  0
 25 19  1  0
 26 20  1  0
 27 16  2  0
 28 30  2  0
 29 28  1  0
 31 29  1  0
 32 36  1  0
 32 37  1  0
 33 29  1  0
 33 34  1  0
 35 34  1  0
 36 35  1  0
 37 33  1  0
 38 37  2  0
 39 38  1  0
 40 41  1  0
 40 39  2  0
 41 32  2  0
 42 16  1  0
 42 43  1  0
 43 45  1  1
 43 46  1  0
 44 43  1  0
 47 42  1  0
 48 47  1  0
 48 49  2  0
 50 47  1  0
 52 51  1  0
 52 54  1  0
 52 48  1  0
 54 53  1  0
 55 54  1  0
 56 95  1  0
 57 63  1  0
 57 65  1  0
 58 59  1  0
 59 60  1  0
 61 62  1  0
 61 70  1  0
 61 60  1  0
 63 62  1  0
 63 58  1  0
 64 57  2  0
 65 66  1  0
 65 56  1  0
 67 68  2  0
 67 92  1  0
 68 87  1  0
 69 72  1  0
 69 68  1  0
 70 67  1  0
 71 70  1  0
 71 69  2  0
 72 77  1  0
 73 74  1  0
 73 72  2  0
 74 75  2  0
 75 78  1  0
 75 76  1  0
 77 76  2  0
 79 78  1  0
 79 80  1  0
 81 80  2  0
 82 81  1  0
 83 84  1  0
 83 82  2  0
 84 79  2  0
 85 84  1  0
 86 82  1  0
 87 89  2  0
 88 91  1  0
 88 87  1  0
 90 88  1  0
 92 94  1  0
 92 93  1  0
 95 96  1  0
 96 97  1  0
 96 99  1  0
 98 96  1  0
M  ISO  4  14 101  15 101  57 100  65 100
M  END
>  <TORSDO>  (75) 
F 23

>  <SCORE>  (75) 
-5.817

>  <name>  (75) 
74

>  <ligand_id>  (75) 
74

>  <original_smiles>  (75) 
[H]c1c([H])c([H])c2c(c1[H])C([H])([H])C([H])([H])C([H])([H])C2([H])N([H])C(=O)C1([H])N(C(=O)C([H])(N([H])C(=O)C([H])(N([H])C([H])([H])[H])C([H])([H])[H])C(C([H])([H])[H])(C([H])([H])[H])C([H])([H])[H])C([H])([H])c2c([H])c(OC([H])([H])C([H])([H])C([H])([H])C([H])([H])C3([H])C(C([H])(N([H])C(=O)N4C([H])([H])C([H])([H])C([H])([H])C([H])(n5nc(-c6c([H])c([H])c(Oc7c([H])c([H])c(F)c([H])c7F)c([H])c6[H])c(C(=O)N([H])[H])c5N([H])[H])C4([H])[H])C([H])([H])[N+]([H])([H])[H])=NC([H])([H])C4([H])C([H])([H])C([H])([H])C([H])([H])[N+]34[H])c([H])c([H])c2C1([H])[H]

>  <smiles>  (75) 
[H]c1c([H])c([H])c2c(c1[H])C([H])([H])C([H])([H])C([H])([H])C2([H])N([H])C(=O)C1([H])N(C(=O)C([H])(N([H])C(=O)C([H])(N([H])C([H])([H])[H])C([H])([H])[H])C(C([H])([H])[H])(C([H])([H])[H])C([H])([H])[H])C([H])([H])c2c([H])c(OC([H])([H])C([H])([H])C([H])([H])C([H])([H])C3([H])C(C([H])(N([H])C(=O)N4C([H])([H])C([H])([H])C([H])([H])C([H])(n5nc(-c6c([H])c([H])c(Oc7c([H])c([H])c(F)c([H])c7F)c([H])c6[H])c(C(=O)N([H])[H])c5N([H])[H])C4([H])[H])C([H])([H])[N+]([H])([H])[H])=NC([H])([H])C4([H])C([H])([H])C([H])([H])C([H])([H])[N+]34[H])c([H])c([H])c2C1([H])[H]

$$$$
75:0:0
     RDKit          3D

 94102  0  0  1  0  0  0  0  0999 V2000
  -29.9270  -22.1220   20.1620 C   0  0  0  0  0  2  0  0  0  0  0  0
  -28.9260  -23.1760   20.5300 N   0  0  0  0  0  4  0  0  0  0  0  0
  -28.4470  -23.4050   19.6710 H   0  0  0  0  0  0  0  0  0  0  0  0
  -28.2240  -22.7930   21.1440 H   0  0  0  0  0  0  0  0  0  0  0  0
  -29.4580  -24.4780   21.0550 C   0  0  0  0  0  2  0  0  0  0  0  0
  -28.3910  -25.6080   21.1950 C   0  0  0  0  0  2  0  0  0  0  0  0
  -28.4710  -26.6470   20.2000 O   0  0  0  0  0  0  0  0  0  0  0  0
  -24.6250  -31.8460   23.2150 C   0  0  0  0  0  0  0  0  0  0  0  0
  -27.3340  -27.4240   20.1620 C   0  0  0  0  0  0  0  0  0  0  0  0
  -23.4510  -30.4360   21.5570 C   0  0  0  0  0  3  0  0  0  0  0  0
  -24.9320  -28.9150   20.1450 C   0  0  0  0  0  0  0  0  0  0  0  0
  -25.9750  -30.8150   21.3880 C   0  0  0  0  0  2  0  0  0  0  0  0
  -26.0800  -29.4470   20.7450 C   0  0  0  0  0  0  0  0  0  0  0  0
  -27.2900  -28.7110   20.7500 C   0  0  0  0  0  3  0  0  0  0  0  0
  -26.1730  -26.9100   19.5460 C   0  0  0  0  0  3  0  0  0  0  0  0
  -24.9730  -27.6470   19.5410 C   0  0  0  0  0  3  0  0  0  0  0  0
  -23.6800  -29.7620   20.1790 C   0  0  0  0  0  2  0  0  0  0  0  0
  -24.7010  -31.0460   22.1130 N   0  0  0  0  0  0  0  0  0  0  0  0
  -23.5350  -32.1070   23.7440 O   0  0  0  0  0  0  0  0  0  0  0  0
  -22.7990  -29.4070   22.5090 C   0  0  0  0  0  0  0  0  0  0  0  0
  -21.4770  -29.2180   22.3720 N   0  0  0  0  0  0  0  0  0  0  0  0
  -23.4800  -28.7810   23.3270 O   0  0  0  0  0  0  0  0  0  0  0  0
  -20.9900  -29.7740   21.6840 H   0  0  0  0  0  0  0  0  0  0  0  0
  -18.1060  -28.0070   22.8470 C   0  0  0  0  0  0  0  0  0  0  0  0
  -20.6610  -28.2720   23.1330 C   0  0  0  0  0  3  0  0  0  0  0  0
  -20.7710  -26.8440   22.5500 C   0  0  0  0  0  2  0  0  0  0  0  0
  -19.6760  -26.5240   21.5280 C   0  0  0  0  0  2  0  0  0  0  0  0
  -18.2900  -26.6620   22.1640 C   0  0  0  0  0  2  0  0  0  0  0  0
  -19.2200  -28.7710   23.2870 C   0  0  0  0  0  0  0  0  0  0  0  0
  -18.9940  -30.0300   23.8830 C   0  0  0  0  0  3  0  0  0  0  0  0
  -17.6860  -30.5270   24.0440 C   0  0  0  0  0  3  0  0  0  0  0  0
  -16.5880  -29.7600   23.6200 C   0  0  0  0  0  3  0  0  0  0  0  0
  -16.7970  -28.5010   23.0290 C   0  0  0  0  0  3  0  0  0  0  0  0
  -25.8990  -32.4880   23.8490 C   0  0  0  0  0  3  0  0  0  0  0  0
  -26.4130  -31.7180   25.1270 C   0  0  1  0  0  0  0  0  0  0  0  0
  -25.3130  -31.4660   26.1840 C   0  0  0  0  0  1  0  0  0  0  0  0
  -27.0140  -30.3490   24.7340 C   0  0  0  0  0  1  0  0  0  0  0  0
  -27.5480  -32.5230   25.8050 C   0  0  0  0  0  1  0  0  0  0  0  0
  -25.5730  -33.8810   24.1780 N   0  0  0  0  0  0  0  0  0  0  0  0
  -25.8990  -34.9380   23.4210 C   0  0  0  0  0  0  0  0  0  0  0  0
  -26.5770  -34.8420   22.3950 O   0  0  0  0  0  0  0  0  0  0  0  0
  -24.9730  -34.0310   24.9760 H   0  0  0  0  0  0  0  0  0  0  0  0
  -24.1540  -36.7120   23.0550 C   0  0  0  0  0  1  0  0  0  0  0  0
  -25.3950  -36.3210   23.8740 C   0  0  0  0  0  3  0  0  0  0  0  0
  -27.5140  -37.2320   24.7180 C   0  0  0  0  0  1  0  0  0  0  0  0
  -26.4160  -37.3870   23.7670 N   0  0  0  0  0  0  0  0  0  0  0  0
  -25.9980  -38.3020   23.9100 H   0  0  0  0  0  0  0  0  0  0  0  0
  -30.4060  -21.1050   21.2700 C   0  0  0  0  0  3  0  0  0  0  0  0
  -31.7750  -20.9680   23.5010 C   0  0  0  0  0  1  0  0  0  0  0  0
  -30.9610  -21.8350   22.5200 C   0  0  0  0  0  2  0  0  0  0  0  0
  -29.3970  -19.9500   21.6000 C   0  0  0  0  0  2  0  0  0  0  0  0
  -30.7580  -14.5460   20.1140 C   0  0  0  0  0  0  0  0  0  0  0  0
  -30.3510  -12.4030   18.9360 C   0  0  0  0  0  2  0  0  0  0  0  0
  -29.3510  -12.5940   17.7780 C   0  0  0  0  0  2  0  0  0  0  0  0
  -27.9110  -12.3930   18.2840 C   0  0  0  0  0  2  0  0  0  0  0  0
  -27.6180  -13.2320   19.5510 C   0  0  0  0  0  3  0  0  0  0  0  0
  -28.7360  -13.0630   20.6120 C   0  0  0  0  0  2  0  0  0  0  0  0
  -30.0180  -13.3960   19.9780 N   0  0  0  0  0  0  0  0  0  0  0  0
  -31.8770  -14.6250   19.6040 O   0  0  0  0  0  0  0  0  0  0  0  0
  -29.0120  -16.2840   20.3190 C   0  0  0  0  0  2  0  0  0  0  0  0
  -31.2520  -16.5410   21.4320 C   0  0  0  0  0  2  0  0  0  0  0  0
  -28.6490  -17.6980   20.8540 C   0  0  0  0  0  2  0  0  0  0  0  0
  -30.7130  -17.8590   22.0490 C   0  0  0  0  0  2  0  0  0  0  0  0
  -30.2550  -15.6290   20.8000 N   0  0  0  0  0  0  0  0  0  0  0  0
  -29.8070  -18.5790   21.1260 N   0  0  2  0  0  4  0  0  0  0  0  0
  -30.2910  -18.7030   20.2500 H   0  0  0  0  0  0  0  0  0  0  0  0
  -25.2600  -13.8320   20.3850 C   0  0  0  0  0  0  0  0  0  0  0  0
  -24.2160  -13.0530   20.8030 C   0  0  0  0  0  0  0  0  0  0  0  0
  -24.6800  -11.7030   20.7370 C   0  0  0  0  0  0  0  0  0  0  0  0
  -26.2960  -12.9550   20.1000 N   0  0  0  0  0  0  0  0  0  0  0  0
  -25.9550  -11.6710   20.3740 N   0  0  0  0  0  0  0  0  0  0  0  0
  -23.9680  -10.4370   20.9470 C   0  0  0  0  0  0  0  0  0  0  0  0
  -24.4200   -9.4840   21.8880 C   0  0  0  0  0  3  0  0  0  0  0  0
  -23.7080   -8.2830   22.0830 C   0  0  0  0  0  3  0  0  0  0  0  0
  -22.5310   -8.0250   21.3440 C   0  0  0  0  0  0  0  0  0  0  0  0
  -22.1010   -8.9650   20.3880 C   0  0  0  0  0  3  0  0  0  0  0  0
  -22.8130  -10.1600   20.1910 C   0  0  0  0  0  3  0  0  0  0  0  0
  -21.7910   -6.8730   21.4480 O   0  0  0  0  0  0  0  0  0  0  0  0
  -21.7300   -6.1640   22.6200 C   0  0  0  0  0  0  0  0  0  0  0  0
  -21.2700   -6.7480   23.8200 C   0  0  0  0  0  3  0  0  0  0  0  0
  -21.1550   -5.9660   24.9860 C   0  0  0  0  0  3  0  0  0  0  0  0
  -21.4870   -4.5980   24.9560 C   0  0  0  0  0  0  0  0  0  0  0  0
  -21.9380   -4.0130   23.7590 C   0  0  0  0  0  3  0  0  0  0  0  0
  -22.0550   -4.7930   22.5960 C   0  0  0  0  0  0  0  0  0  0  0  0
  -22.4710   -4.2150   21.4420 F   0  0  0  0  0  0  0  0  0  0  0  0
  -21.3680   -3.8470   26.0750 F   0  0  0  0  0  0  0  0  0  0  0  0
  -22.8280  -13.5180   21.1430 C   0  0  0  0  0  0  0  0  0  0  0  0
  -22.1480  -12.8090   22.0380 N   0  0  0  0  0  0  0  0  0  0  0  0
  -22.3590  -14.5430   20.6510 O   0  0  0  0  0  0  0  0  0  0  0  0
  -22.5450  -11.9830   22.4630 H   0  0  0  0  0  0  0  0  0  0  0  0
  -21.2160  -13.0950   22.3070 H   0  0  0  0  0  0  0  0  0  0  0  0
  -25.3920  -15.2070   20.2050 N   0  0  0  0  0  0  0  0  0  0  0  0
  -24.5870  -15.8130   20.3160 H   0  0  0  0  0  0  0  0  0  0  0  0
  -26.1500  -15.6560   19.7140 H   0  0  0  0  0  0  0  0  0  0  0  0
  1  2  1  0
  2  5  1  0
  2  4  1  0
  3  2  1  0
  5  6  1  0
  7  6  1  0
  8 19  2  0
  9  7  1  0
  9 14  1  0
 10 18  1  0
 10 20  1  0
 11 17  1  0
 11 13  1  0
 12 18  1  0
 13 14  2  0
 13 12  1  0
 15  9  2  0
 16 15  1  0
 16 11  2  0
 17 10  1  0
 18  8  1  0
 20 22  2  0
 21 20  1  0
 23 21  1  0
 24 33  2  0
 24 29  1  0
 25 21  1  0
 25 29  1  0
 26 25  1  0
 27 28  1  0
 27 26  1  0
 28 24  1  0
 29 30  2  0
 30 31  1  0
 32 31  2  0
 33 32  1  0
 34  8  1  0
 34 39  1  0
 34 35  1  0
 35 38  1  1
 35 36  1  0
 37 35  1  0
 39 42  1  0
 40 44  1  0
 40 39  1  0
 41 40  2  0
 44 43  1  0
 46 44  1  0
 46 47  1  0
 46 45  1  0
 48  1  1  0
 48 51  1  0
 48 50  1  0
 50 49  1  0
 52 64  1  0
 53 58  1  0
 54 55  1  0
 54 53  1  0
 56 55  1  0
 56 70  1  0
 56 57  1  0
 58 52  1  0
 58 57  1  0
 59 52  2  0
 60 64  1  0
 60 62  1  0
 61 63  1  0
 62 65  1  0
 64 61  1  0
 65 51  1  0
 65 63  1  0
 65 66  1  6
 67 68  2  0
 68 87  1  0
 69 68  1  0
 69 72  1  0
 70 71  1  0
 70 67  1  0
 71 69  2  0
 72 73  1  0
 73 74  2  0
 75 78  1  0
 75 74  1  0
 76 75  2  0
 77 76  1  0
 77 72  2  0
 78 79  1  0
 79 80  1  0
 80 81  2  0
 82 81  1  0
 82 86  1  0
 83 82  2  0
 84 79  2  0
 84 83  1  0
 85 84  1  0
 87 88  1  0
 88 91  1  0
 88 90  1  0
 89 87  2  0
 92 93  1  0
 92 67  1  0
 94 92  1  0
M  ISO  4   6 101   7 101  52 100  64 100
M  END
>  <TORSDO>  (76) 
F 22

>  <SCORE>  (76) 
-13.015

>  <name>  (76) 
75

>  <ligand_id>  (76) 
75

>  <original_smiles>  (76) 
[H]c1c([H])c([H])c2c(c1[H])C([H])([H])C([H])([H])C([H])([H])C2([H])N([H])C(=O)C1([H])N(C(=O)C([H])(N([H])C(=O)C([H])(N([H])C([H])([H])[H])C([H])([H])[H])C(C([H])([H])[H])(C([H])([H])[H])C([H])([H])[H])C([H])([H])c2c([H])c(OC([H])([H])C([H])([H])[N+]([H])([H])C([H])([H])C([H])(C([H])([H])C([H])([H])[H])C([H])([H])[N+]3([H])C([H])([H])C([H])([H])N(C(=O)N4C([H])([H])C([H])([H])C([H])([H])C([H])(n5nc(-c6c([H])c([H])c(Oc7c([H])c([H])c(F)c([H])c7F)c([H])c6[H])c(C(=O)N([H])[H])c5N([H])[H])C4([H])[H])C([H])([H])C3([H])[H])c([H])c([H])c2C1([H])[H]

>  <smiles>  (76) 
[H]c1c([H])c([H])c2c(c1[H])C([H])([H])C([H])([H])C([H])([H])C2([H])N([H])C(=O)C1([H])N(C(=O)C([H])(N([H])C(=O)C([H])(N([H])C([H])([H])[H])C([H])([H])[H])C(C([H])([H])[H])(C([H])([H])[H])C([H])([H])[H])C([H])([H])c2c([H])c(OC([H])([H])C([H])([H])[N+]([H])([H])C([H])([H])C([H])(C([H])([H])C([H])([H])[H])C([H])([H])[N+]3([H])C([H])([H])C([H])([H])N(C(=O)N4C([H])([H])C([H])([H])C([H])([H])C([H])(n5nc(-c6c([H])c([H])c(Oc7c([H])c([H])c(F)c([H])c7F)c([H])c6[H])c(C(=O)N([H])[H])c5N([H])[H])C4([H])[H])C([H])([H])C3([H])[H])c([H])c([H])c2C1([H])[H]

$$$$
76:0:0
     RDKit          3D

 94103  0  0  1  0  0  0  0  0999 V2000
  -30.5540  -22.0620   21.0270 C   0  0  0  0  0  2  0  0  0  0  0  0
  -28.2360  -21.2330   21.0210 C   0  0  0  0  0  2  0  0  0  0  0  0
  -30.2050  -23.0870   19.9220 C   0  0  0  0  0  2  0  0  0  0  0  0
  -27.8700  -22.2810   19.9410 C   0  0  0  0  0  2  0  0  0  0  0  0
  -29.7040  -20.7770   20.9170 C   0  0  0  0  0  3  0  0  0  0  0  0
  -28.7650  -23.4810   19.9280 N   0  0  2  0  0  4  0  0  0  0  0  0
  -28.5850  -23.9880   20.7840 H   0  0  0  0  0  0  0  0  0  0  0  0
  -30.0710  -19.6890   21.9810 C   0  0  0  0  0  2  0  0  0  0  0  0
  -30.9020  -14.4870   19.8130 C   0  0  0  0  0  0  0  0  0  0  0  0
  -30.4010  -12.3800   18.6030 C   0  0  0  0  0  2  0  0  0  0  0  0
  -29.3550  -12.6120   17.4940 C   0  0  0  0  0  2  0  0  0  0  0  0
  -27.9360  -12.4490   18.0660 C   0  0  0  0  0  2  0  0  0  0  0  0
  -27.7250  -13.2660   19.3630 C   0  0  0  0  0  3  0  0  0  0  0  0
  -28.8810  -13.0350   20.3690 C   0  0  0  0  0  2  0  0  0  0  0  0
  -30.1480  -13.3510   19.6900 N   0  0  0  0  0  0  0  0  0  0  0  0
  -31.9470  -14.6160   19.1680 O   0  0  0  0  0  0  0  0  0  0  0  0
  -29.2860  -16.2510   20.3790 C   0  0  0  0  0  2  0  0  0  0  0  0
  -31.6180  -16.2120   21.3700 C   0  0  0  0  0  2  0  0  0  0  0  0
  -29.0530  -17.5740   21.1480 C   0  0  0  0  0  2  0  0  0  0  0  0
  -31.2260  -17.4810   22.1570 C   0  0  0  0  0  2  0  0  0  0  0  0
  -30.5170  -15.4720   20.6850 N   0  0  0  0  0  0  0  0  0  0  0  0
  -30.2970  -18.3340   21.3870 N   0  0  2  0  0  4  0  0  0  0  0  0
  -30.7430  -18.4920   20.4980 H   0  0  0  0  0  0  0  0  0  0  0  0
  -25.4260  -13.8950   20.3230 C   0  0  0  0  0  0  0  0  0  0  0  0
  -24.3830  -13.1310   20.7820 C   0  0  0  0  0  0  0  0  0  0  0  0
  -24.8010  -11.7740   20.6450 C   0  0  0  0  0  0  0  0  0  0  0  0
  -26.4210  -12.9990   19.9620 N   0  0  0  0  0  0  0  0  0  0  0  0
  -26.0520  -11.7170   20.2070 N   0  0  0  0  0  0  0  0  0  0  0  0
  -24.0640  -10.5230   20.8530 C   0  0  0  0  0  0  0  0  0  0  0  0
  -24.5010   -9.5580   21.7840 C   0  0  0  0  0  3  0  0  0  0  0  0
  -23.7650   -8.3700   21.9780 C   0  0  0  0  0  3  0  0  0  0  0  0
  -22.5810   -8.1410   21.2430 C   0  0  0  0  0  0  0  0  0  0  0  0
  -22.1660   -9.0920   20.2960 C   0  0  0  0  0  3  0  0  0  0  0  0
  -22.9020  -10.2710   20.0990 C   0  0  0  0  0  3  0  0  0  0  0  0
  -21.8130   -7.0060   21.3520 O   0  0  0  0  0  0  0  0  0  0  0  0
  -21.6960   -6.3280   22.5400 C   0  0  0  0  0  0  0  0  0  0  0  0
  -21.1940   -6.9470   23.7050 C   0  0  0  0  0  3  0  0  0  0  0  0
  -21.0210   -6.1940   24.8840 C   0  0  0  0  0  3  0  0  0  0  0  0
  -21.3460   -4.8230   24.9000 C   0  0  0  0  0  0  0  0  0  0  0  0
  -21.8390   -4.2040   23.7380 C   0  0  0  0  0  3  0  0  0  0  0  0
  -22.0140   -4.9540   22.5610 C   0  0  0  0  0  0  0  0  0  0  0  0
  -22.4720   -4.3490   21.4390 F   0  0  0  0  0  0  0  0  0  0  0  0
  -21.1760   -4.0960   26.0290 F   0  0  0  0  0  0  0  0  0  0  0  0
  -23.0340  -13.6280   21.2140 C   0  0  0  0  0  0  0  0  0  0  0  0
  -22.3800  -12.9080   22.1200 N   0  0  0  0  0  0  0  0  0  0  0  0
  -22.5720  -14.6830   20.7830 O   0  0  0  0  0  0  0  0  0  0  0  0
  -22.7690  -12.0560   22.4990 H   0  0  0  0  0  0  0  0  0  0  0  0
  -21.4780  -13.2190   22.4490 H   0  0  0  0  0  0  0  0  0  0  0  0
  -25.5900  -15.2650   20.1590 N   0  0  0  0  0  0  0  0  0  0  0  0
  -24.7530  -15.8390   20.1830 H   0  0  0  0  0  0  0  0  0  0  0  0
  -26.2920  -15.6340   19.5300 H   0  0  0  0  0  0  0  0  0  0  0  0
  -28.4070  -24.3830   18.7850 C   0  0  0  0  0  2  0  0  0  0  0  0
  -28.9380  -25.8490   18.8390 C   0  0  0  0  0  2  0  0  0  0  0  0
  -28.5520  -26.6800   19.9460 O   0  0  0  0  0  0  0  0  0  0  0  0
  -24.6580  -31.7350   23.1200 C   0  0  0  0  0  0  0  0  0  0  0  0
  -27.3680  -27.3940   19.9090 C   0  0  0  0  0  0  0  0  0  0  0  0
  -23.4720  -30.3460   21.4520 C   0  0  0  0  0  3  0  0  0  0  0  0
  -24.9470  -28.8730   19.9810 C   0  0  0  0  0  0  0  0  0  0  0  0
  -25.9960  -30.7390   21.2680 C   0  0  0  0  0  2  0  0  0  0  0  0
  -26.0970  -29.3850   20.5940 C   0  0  0  0  0  0  0  0  0  0  0  0
  -27.3010  -28.6430   20.5740 C   0  0  0  0  0  3  0  0  0  0  0  0
  -26.2010  -26.9150   19.2740 C   0  0  0  0  0  3  0  0  0  0  0  0
  -24.9960  -27.6380   19.3190 C   0  0  0  0  0  3  0  0  0  0  0  0
  -23.6880  -29.7080   20.0510 C   0  0  0  0  0  2  0  0  0  0  0  0
  -24.7260  -30.9580   22.0010 N   0  0  0  0  0  0  0  0  0  0  0  0
  -23.5730  -31.9700   23.6720 O   0  0  0  0  0  0  0  0  0  0  0  0
  -22.8510  -29.2890   22.3930 C   0  0  0  0  0  0  0  0  0  0  0  0
  -21.5330  -29.0720   22.2580 N   0  0  0  0  0  0  0  0  0  0  0  0
  -23.5510  -28.6660   23.1960 O   0  0  0  0  0  0  0  0  0  0  0  0
  -21.0300  -29.6220   21.5730 H   0  0  0  0  0  0  0  0  0  0  0  0
  -18.1960  -27.7730   22.7230 C   0  0  0  0  0  0  0  0  0  0  0  0
  -20.7420  -28.0970   23.0100 C   0  0  0  0  0  3  0  0  0  0  0  0
  -20.8880  -26.6780   22.4130 C   0  0  0  0  0  2  0  0  0  0  0  0
  -19.7990  -26.3430   21.3890 C   0  0  0  0  0  2  0  0  0  0  0  0
  -18.4100  -26.4410   22.0270 C   0  0  0  0  0  2  0  0  0  0  0  0
  -19.2900  -28.5590   23.1700 C   0  0  0  0  0  0  0  0  0  0  0  0
  -19.0330  -29.8060   23.7770 C   0  0  0  0  0  3  0  0  0  0  0  0
  -17.7140  -30.2700   23.9450 C   0  0  0  0  0  3  0  0  0  0  0  0
  -16.6350  -29.4800   23.5110 C   0  0  0  0  0  3  0  0  0  0  0  0
  -16.8760  -28.2330   22.9090 C   0  0  0  0  0  3  0  0  0  0  0  0
  -25.9360  -32.3820   23.7400 C   0  0  0  0  0  3  0  0  0  0  0  0
  -26.4840  -31.5890   24.9910 C   0  0  1  0  0  0  0  0  0  0  0  0
  -25.4050  -31.2800   26.0550 C   0  0  0  0  0  1  0  0  0  0  0  0
  -27.1120  -30.2430   24.5610 C   0  0  0  0  0  1  0  0  0  0  0  0
  -27.6050  -32.4020   25.6780 C   0  0  0  0  0  1  0  0  0  0  0  0
  -25.5960  -33.7590   24.1080 N   0  0  0  0  0  0  0  0  0  0  0  0
  -25.9030  -34.8410   23.3800 C   0  0  0  0  0  0  0  0  0  0  0  0
  -26.5700  -34.7800   22.3440 O   0  0  0  0  0  0  0  0  0  0  0  0
  -24.9960  -33.8760   24.9110 H   0  0  0  0  0  0  0  0  0  0  0  0
  -24.1310  -36.6020   23.0760 C   0  0  0  0  0  1  0  0  0  0  0  0
  -25.3830  -36.2040   23.8750 C   0  0  0  0  0  3  0  0  0  0  0  0
  -27.4950  -37.1200   24.7310 C   0  0  0  0  0  1  0  0  0  0  0  0
  -26.3910  -37.2840   23.7920 N   0  0  0  0  0  0  0  0  0  0  0  0
  -25.9660  -38.1890   23.9660 H   0  0  0  0  0  0  0  0  0  0  0  0
  3  6  1  0
  3  1  1  0
  4  2  1  0
  5  2  1  0
  5  1  1  0
  5  8  1  0
  6  4  1  0
  6  7  1  1
  9 21  1  0
 10 15  1  0
 11 12  1  0
 11 10  1  0
 13 12  1  0
 13 27  1  0
 13 14  1  0
 15  9  1  0
 15 14  1  0
 16  9  2  0
 17 21  1  0
 17 19  1  0
 18 20  1  0
 19 22  1  0
 21 18  1  0
 22  8  1  0
 22 20  1  0
 22 23  1  6
 24 25  2  0
 25 44  1  0
 26 25  1  0
 26 29  1  0
 27 28  1  0
 27 24  1  0
 28 26  2  0
 29 30  1  0
 30 31  2  0
 32 35  1  0
 32 31  1  0
 33 32  2  0
 34 33  1  0
 34 29  2  0
 35 36  1  0
 36 41  2  0
 36 37  1  0
 37 38  2  0
 38 39  1  0
 39 43  1  0
 40 39  2  0
 41 40  1  0
 42 41  1  0
 44 45  1  0
 45 48  1  0
 45 47  1  0
 46 44  2  0
 49 50  1  0
 49 24  1  0
 51 49  1  0
 52 53  1  0
 52  6  1  0
 53 54  1  0
 55 66  2  0
 56 54  1  0
 56 61  1  0
 57 65  1  0
 57 67  1  0
 58 64  1  0
 58 60  1  0
 59 65  1  0
 60 59  1  0
 61 60  2  0
 62 63  1  0
 62 56  2  0
 63 58  2  0
 64 57  1  0
 65 55  1  0
 67 69  2  0
 68 67  1  0
 70 68  1  0
 71 80  2  0
 71 76  1  0
 72 68  1  0
 72 76  1  0
 73 72  1  0
 74 75  1  0
 74 73  1  0
 75 71  1  0
 76 77  2  0
 77 78  1  0
 79 78  2  0
 80 79  1  0
 81 55  1  0
 81 86  1  0
 81 82  1  0
 82 85  1  1
 82 83  1  0
 84 82  1  0
 86 89  1  0
 87 91  1  0
 87 86  1  0
 88 87  2  0
 91 90  1  0
 93 91  1  0
 93 94  1  0
 93 92  1  0
M  ISO  4   9 100  21 100  53 101  54 101
M  END
>  <TORSDO>  (77) 
F 19

>  <SCORE>  (77) 
-13.016

>  <name>  (77) 
76

>  <ligand_id>  (77) 
76

>  <original_smiles>  (77) 
[H]c1c([H])c([H])c2c(c1[H])C([H])([H])C([H])([H])C([H])([H])C2([H])N([H])C(=O)C1([H])N(C(=O)C([H])(N([H])C(=O)C([H])(N([H])C([H])([H])[H])C([H])([H])[H])C(C([H])([H])[H])(C([H])([H])[H])C([H])([H])[H])C([H])([H])c2c([H])c(OC([H])([H])C([H])([H])[N+]3([H])C([H])([H])C([H])([H])C([H])(C([H])([H])[N+]4([H])C([H])([H])C([H])([H])N(C(=O)N5C([H])([H])C([H])([H])C([H])([H])C([H])(n6nc(-c7c([H])c([H])c(Oc8c([H])c([H])c(F)c([H])c8F)c([H])c7[H])c(C(=O)N([H])[H])c6N([H])[H])C5([H])[H])C([H])([H])C4([H])[H])C([H])([H])C3([H])[H])c([H])c([H])c2C1([H])[H]

>  <smiles>  (77) 
[H]c1c([H])c([H])c2c(c1[H])C([H])([H])C([H])([H])C([H])([H])C2([H])N([H])C(=O)C1([H])N(C(=O)C([H])(N([H])C(=O)C([H])(N([H])C([H])([H])[H])C([H])([H])[H])C(C([H])([H])[H])(C([H])([H])[H])C([H])([H])[H])C([H])([H])c2c([H])c(OC([H])([H])C([H])([H])[N+]3([H])C([H])([H])C([H])([H])C([H])(C([H])([H])[N+]4([H])C([H])([H])C([H])([H])N(C(=O)N5C([H])([H])C([H])([H])C([H])([H])C([H])(n6nc(-c7c([H])c([H])c(Oc8c([H])c([H])c(F)c([H])c8F)c([H])c7[H])c(C(=O)N([H])[H])c6N([H])[H])C5([H])[H])C([H])([H])C4([H])[H])C([H])([H])C3([H])[H])c([H])c([H])c2C1([H])[H]

$$$$
77:0:0
     RDKit          3D

105114  0  0  1  0  0  0  0  0999 V2000
  -27.4020  -22.8470   21.4400 C   0  0  0  0  0  3  0  0  0  0  0  0
  -28.4650  -24.8520   20.5730 C   0  0  0  0  0  0  0  0  0  0  0  0
  -27.7620  -23.7790   20.3570 N   0  0  0  0  0  2  0  0  0  0  0  0
  -28.9790  -25.3080   21.7690 N   0  0  0  0  0  4  0  0  0  0  0  0
  -29.4950  -26.1770   21.8420 H   0  0  0  0  0  0  0  0  0  0  0  0
  -28.8740  -24.8720   22.6740 H   0  0  0  0  0  0  0  0  0  0  0  0
  -28.8500  -25.7780   19.4130 C   0  0  0  0  0  2  0  0  0  0  0  0
  -28.7140  -27.1740   19.7390 O   0  0  0  0  0  0  0  0  0  0  0  0
  -24.4550  -31.8200   23.0410 C   0  0  0  0  0  0  0  0  0  0  0  0
  -27.4750  -27.7870   19.7400 C   0  0  0  0  0  0  0  0  0  0  0  0
  -23.4000  -30.4910   21.2440 C   0  0  0  0  0  3  0  0  0  0  0  0
  -24.9950  -29.1620   19.7670 C   0  0  0  0  0  0  0  0  0  0  0  0
  -25.9060  -31.0090   21.1810 C   0  0  0  0  0  2  0  0  0  0  0  0
  -26.0960  -29.6970   20.4430 C   0  0  0  0  0  0  0  0  0  0  0  0
  -27.3360  -29.0160   20.4280 C   0  0  0  0  0  3  0  0  0  0  0  0
  -26.3430  -27.2620   19.0710 C   0  0  0  0  0  3  0  0  0  0  0  0
  -25.1130  -27.9450   19.0780 C   0  0  0  0  0  3  0  0  0  0  0  0
  -23.7020  -29.9400   19.8250 C   0  0  0  0  0  2  0  0  0  0  0  0
  -24.6020  -31.1200   21.8820 N   0  0  0  0  0  0  0  0  0  0  0  0
  -23.3420  -31.9830   23.5570 O   0  0  0  0  0  0  0  0  0  0  0  0
  -22.7780  -29.3570   22.0920 C   0  0  0  0  0  0  0  0  0  0  0  0
  -21.4510  -29.1820   21.9810 N   0  0  0  0  0  0  0  0  0  0  0  0
  -23.4860  -28.6430   22.8070 O   0  0  0  0  0  0  0  0  0  0  0  0
  -20.9380  -29.8150   21.3820 H   0  0  0  0  0  0  0  0  0  0  0  0
  -18.0820  -28.0180   22.5500 C   0  0  0  0  0  0  0  0  0  0  0  0
  -20.6600  -28.1530   22.6570 C   0  0  0  0  0  3  0  0  0  0  0  0
  -20.6640  -26.8290   21.8580 C   0  0  0  0  0  2  0  0  0  0  0  0
  -19.4800  -26.7060   20.8920 C   0  0  0  0  0  2  0  0  0  0  0  0
  -18.1540  -26.7910   21.6550 C   0  0  0  0  0  2  0  0  0  0  0  0
  -19.2590  -28.6640   23.0090 C   0  0  0  0  0  0  0  0  0  0  0  0
  -19.1390  -29.8210   23.8090 C   0  0  0  0  0  3  0  0  0  0  0  0
  -17.8740  -30.3280   24.1570 C   0  0  0  0  0  3  0  0  0  0  0  0
  -16.7110  -29.6750   23.7140 C   0  0  0  0  0  3  0  0  0  0  0  0
  -16.8150  -28.5210   22.9160 C   0  0  0  0  0  3  0  0  0  0  0  0
  -25.6760  -32.4750   23.7630 C   0  0  0  0  0  3  0  0  0  0  0  0
  -26.1390  -31.6800   25.0450 C   0  0  1  0  0  0  0  0  0  0  0  0
  -24.9950  -31.3890   26.0440 C   0  0  0  0  0  1  0  0  0  0  0  0
  -26.7750  -30.3270   24.6490 C   0  0  0  0  0  1  0  0  0  0  0  0
  -27.2310  -32.4830   25.7910 C   0  0  0  0  0  1  0  0  0  0  0  0
  -25.3010  -33.8510   24.1090 N   0  0  0  0  0  0  0  0  0  0  0  0
  -25.6600  -34.9360   23.4080 C   0  0  0  0  0  0  0  0  0  0  0  0
  -26.4100  -34.8830   22.4300 O   0  0  0  0  0  0  0  0  0  0  0  0
  -24.6410  -33.9640   24.8650 H   0  0  0  0  0  0  0  0  0  0  0  0
  -23.9110  -36.6870   22.9660 C   0  0  0  0  0  1  0  0  0  0  0  0
  -25.0950  -36.2940   23.8630 C   0  0  0  0  0  3  0  0  0  0  0  0
  -27.1330  -37.2090   24.8810 C   0  0  0  0  0  1  0  0  0  0  0  0
  -26.1010  -37.3780   23.8620 N   0  0  0  0  0  0  0  0  0  0  0  0
  -25.6570  -38.2820   24.0070 H   0  0  0  0  0  0  0  0  0  0  0  0
  -28.6060  -21.9570   21.9040 C   0  0  0  0  0  2  0  0  0  0  0  0
  -28.5440  -19.2520   19.1350 C   0  0  0  0  0  3  0  0  0  0  0  0
  -28.3280  -20.4620   19.8190 C   0  0  0  0  0  3  0  0  0  0  0  0
  -29.3290  -18.2340   19.7120 C   0  0  0  0  0  3  0  0  0  0  0  0
  -29.6560  -19.6280   21.6810 C   0  0  0  0  0  3  0  0  0  0  0  0
  -28.8600  -20.6580   21.1140 C   0  0  0  0  0  0  0  0  0  0  0  0
  -29.9070  -18.4190   20.9860 C   0  0  0  0  0  0  0  0  0  0  0  0
  -30.8170  -17.3480   21.6040 C   0  0  0  0  0  2  0  0  0  0  0  0
  -31.1180  -15.0320   20.6310 C   0  0  0  0  0  0  0  0  0  0  0  0
  -30.9130  -12.8410   19.5040 C   0  0  0  0  0  2  0  0  0  0  0  0
  -30.0220  -12.9770   18.2530 C   0  0  0  0  0  2  0  0  0  0  0  0
  -28.5290  -12.8420   18.6160 C   0  0  0  0  0  2  0  0  0  0  0  0
  -28.1250  -13.7360   19.8200 C   0  0  0  0  0  3  0  0  0  0  0  0
  -29.1160  -13.5460   20.9850 C   0  0  0  0  0  2  0  0  0  0  0  0
  -30.4690  -13.8470   20.4820 N   0  0  0  0  0  0  0  0  0  0  0  0
  -32.2230  -15.2650   20.1270 O   0  0  0  0  0  0  0  0  0  0  0  0
  -30.4340  -15.9600   21.3200 N   0  0  0  0  0  0  0  0  0  0  0  0
  -29.5420  -15.6590   21.6850 H   0  0  0  0  0  0  0  0  0  0  0  0
  -25.7100  -14.3800   20.4350 C   0  0  0  0  0  0  0  0  0  0  0  0
  -24.6160  -13.6210   20.7570 C   0  0  0  0  0  0  0  0  0  0  0  0
  -25.0560  -12.2640   20.7300 C   0  0  0  0  0  0  0  0  0  0  0  0
  -26.7480  -13.4820   20.2380 N   0  0  0  0  0  0  0  0  0  0  0  0
  -26.3570  -12.2050   20.4670 N   0  0  0  0  0  0  0  0  0  0  0  0
  -24.3040  -11.0110   20.8800 C   0  0  0  0  0  0  0  0  0  0  0  0
  -24.6540  -10.0510   21.8550 C   0  0  0  0  0  3  0  0  0  0  0  0
  -23.9040   -8.8630   21.9920 C   0  0  0  0  0  3  0  0  0  0  0  0
  -22.7890   -8.6280   21.1540 C   0  0  0  0  0  0  0  0  0  0  0  0
  -22.4570   -9.5770   20.1720 C   0  0  0  0  0  3  0  0  0  0  0  0
  -23.2070  -10.7560   20.0340 C   0  0  0  0  0  3  0  0  0  0  0  0
  -22.0180   -7.4910   21.1970 O   0  0  0  0  0  0  0  0  0  0  0  0
  -21.8010   -6.8140   22.3690 C   0  0  0  0  0  0  0  0  0  0  0  0
  -21.2190   -7.4390   23.4940 C   0  0  0  0  0  3  0  0  0  0  0  0
  -20.9490   -6.6870   24.6550 C   0  0  0  0  0  3  0  0  0  0  0  0
  -21.2500   -5.3120   24.6920 C   0  0  0  0  0  0  0  0  0  0  0  0
  -21.8250   -4.6880   23.5690 C   0  0  0  0  0  3  0  0  0  0  0  0
  -22.0960   -5.4360   22.4110 C   0  0  0  0  0  0  0  0  0  0  0  0
  -22.6290   -4.8250   21.3260 F   0  0  0  0  0  0  0  0  0  0  0  0
  -20.9840   -4.5890   25.8030 F   0  0  0  0  0  0  0  0  0  0  0  0
  -23.2170  -14.1200   20.9830 C   0  0  0  0  0  0  0  0  0  0  0  0
  -22.4540  -13.4400   21.8310 N   0  0  0  0  0  0  0  0  0  0  0  0
  -22.8080  -15.1480   20.4440 O   0  0  0  0  0  0  0  0  0  0  0  0
  -22.7960  -12.6080   22.2870 H   0  0  0  0  0  0  0  0  0  0  0  0
  -21.5160  -13.7580   22.0280 H   0  0  0  0  0  0  0  0  0  0  0  0
  -25.9070  -15.7490   20.2830 N   0  0  0  0  0  0  0  0  0  0  0  0
  -25.1490  -16.4190   20.3790 H   0  0  0  0  0  0  0  0  0  0  0  0
  -26.7850  -16.1820   20.0250 H   0  0  0  0  0  0  0  0  0  0  0  0
  -26.5990  -23.5420   22.5900 C   0  0  0  0  0  2  0  0  0  0  0  0
  -23.6690  -24.6080   20.6380 C   0  0  0  0  0  2  0  0  0  0  0  0
  -23.5870  -25.5480   21.8300 C   0  0  0  0  0  2  0  0  0  0  0  0
  -25.0650  -24.0170   20.7560 C   0  0  0  0  0  2  0  0  0  0  0  0
  -24.7290  -25.1250   22.7740 C   0  0  0  0  0  3  0  0  0  0  0  0
  -25.2170  -23.8640   22.2010 N   0  0  0  0  0  0  0  0  0  0  0  0
  -24.2720  -24.9570   24.2450 C   0  0  0  0  0  2  0  0  0  0  0  0
  -23.8780  -26.2360   24.8580 N   0  0  0  0  0  4  0  0  0  0  0  0
  -24.6410  -26.8870   24.8490 H   0  0  0  0  0  0  0  0  0  0  0  0
  -23.6060  -26.0820   25.8120 H   0  0  0  0  0  0  0  0  0  0  0  0
  -23.0990  -26.6390   24.3730 H   0  0  0  0  0  0  0  0  0  0  0  0
  1 49  1  0
  1 95  1  0
  2  4  2  0
  3  2  1  0
  3  1  1  0
  4  5  1  0
  4  6  1  0
  7  8  1  0
  7  2  1  0
  8 10  1  0
  9 20  2  0
 10 15  1  0
 11 19  1  0
 11 21  1  0
 12 18  1  0
 12 14  1  0
 13 19  1  0
 14 13  1  0
 15 14  2  0
 16 17  1  0
 16 10  2  0
 17 12  2  0
 18 11  1  0
 19  9  1  0
 21 23  2  0
 22 21  1  0
 24 22  1  0
 25 34  2  0
 25 30  1  0
 26 22  1  0
 26 30  1  0
 27 26  1  0
 28 29  1  0
 28 27  1  0
 29 25  1  0
 30 31  2  0
 31 32  1  0
 33 32  2  0
 34 33  1  0
 35  9  1  0
 35 40  1  0
 35 36  1  0
 36 39  1  1
 36 37  1  0
 38 36  1  0
 40 43  1  0
 41 45  1  0
 41 40  1  0
 42 41  2  0
 45 44  1  0
 47 45  1  0
 47 48  1  0
 47 46  1  0
 50 52  2  0
 50 51  1  0
 51 54  2  0
 52 55  1  0
 54 53  1  0
 54 49  1  0
 55 56  1  0
 55 53  2  0
 57 65  1  0
 58 63  1  0
 59 60  1  0
 59 58  1  0
 61 60  1  0
 61 70  1  0
 61 62  1  0
 63 57  1  0
 63 62  1  0
 64 57  2  0
 65 56  1  0
 65 66  1  0
 67 68  2  0
 68 87  1  0
 69 68  1  0
 69 72  1  0
 70 67  1  0
 70 71  1  0
 71 69  2  0
 72 73  1  0
 73 74  2  0
 75 78  1  0
 75 74  1  0
 76 75  2  0
 77 76  1  0
 77 72  2  0
 78 79  1  0
 79 84  2  0
 79 80  1  0
 80 81  2  0
 81 82  1  0
 82 86  1  0
 83 82  2  0
 84 83  1  0
 85 84  1  0
 87 88  1  0
 88 91  1  0
 88 90  1  0
 89 87  2  0
 92 93  1  0
 92 67  1  0
 94 92  1  0
 96 98  1  0
 96 97  1  0
 97 99  1  0
 98100  1  0
 99101  1  0
100 95  1  0
100 99  1  0
101102  1  0
102104  1  0
103102  1  0
105102  1  0
M  ISO  4   7 101   8 101  57 100  65 100
M  END
>  <TORSDO>  (78) 
F 25

>  <SCORE>  (78) 
-11.319

>  <name>  (78) 
77

>  <ligand_id>  (78) 
77

>  <original_smiles>  (78) 
[H]c1c([H])c([H])c2c(c1[H])C([H])([H])C([H])([H])C([H])([H])C2([H])N([H])C(=O)C1([H])N(C(=O)C([H])(N([H])C(=O)C([H])(N([H])C([H])([H])[H])C([H])([H])[H])C(C([H])([H])[H])(C([H])([H])[H])C([H])([H])[H])C([H])([H])c2c([H])c(OC([H])([H])C(=NC([H])(C([H])([H])c3c([H])c([H])c([H])c(C([H])([H])N([H])C(=O)N4C([H])([H])C([H])([H])C([H])([H])C([H])(n5nc(-c6c([H])c([H])c(Oc7c([H])c([H])c(F)c([H])c7F)c([H])c6[H])c(C(=O)N([H])[H])c5N([H])[H])C4([H])[H])c3[H])C([H])([H])N3C([H])([H])C([H])([H])C([H])([H])C3([H])C([H])([H])[N+]([H])([H])[H])N([H])[H])c([H])c([H])c2C1([H])[H]

>  <smiles>  (78) 
[H]c1c([H])c([H])c2c(c1[H])C([H])([H])C([H])([H])C([H])([H])C2([H])N([H])C(=O)C1([H])N(C(=O)C([H])(N([H])C(=O)C([H])(N([H])C([H])([H])[H])C([H])([H])[H])C(C([H])([H])[H])(C([H])([H])[H])C([H])([H])[H])C([H])([H])c2c([H])c(OC([H])([H])C(=NC([H])(C([H])([H])c3c([H])c([H])c([H])c(C([H])([H])N([H])C(=O)N4C([H])([H])C([H])([H])C([H])([H])C([H])(n5nc(-c6c([H])c([H])c(Oc7c([H])c([H])c(F)c([H])c7F)c([H])c6[H])c(C(=O)N([H])[H])c5N([H])[H])C4([H])[H])c3[H])C([H])([H])N3C([H])([H])C([H])([H])C([H])([H])C3([H])C([H])([H])[N+]([H])([H])[H])N([H])[H])c([H])c([H])c2C1([H])[H]

$$$$
78:0:0
     RDKit          3D

 94102  0  0  1  0  0  0  0  0999 V2000
  -30.8690  -22.0540   20.1860 C   0  0  0  0  0  2  0  0  0  0  0  0
  -28.6420  -21.7240   20.9600 C   0  0  0  0  0  2  0  0  0  0  0  0
  -31.0210  -20.5090   19.9190 C   0  0  0  0  0  2  0  0  0  0  0  0
  -28.8010  -20.1740   20.6890 C   0  0  0  0  0  2  0  0  0  0  0  0
  -29.4830  -22.5920   20.0960 N   0  0  0  0  0  0  0  0  0  0  0  0
  -30.2000  -19.7190   20.8570 N   0  0  0  0  0  0  0  0  0  0  0  0
  -29.4580  -24.0720   20.4460 C   0  0  0  0  0  3  0  0  0  0  0  0
  -28.1960  -24.9810   20.1260 C   0  0  0  0  0  3  0  0  0  0  0  0
  -28.3580  -26.4410   20.3120 O   0  0  0  0  0  0  0  0  0  0  0  0
  -24.6010  -31.8580   23.2240 C   0  0  0  0  0  0  0  0  0  0  0  0
  -27.2220  -27.2640   20.2480 C   0  0  0  0  0  0  0  0  0  0  0  0
  -23.4040  -30.4470   21.5900 C   0  0  0  0  0  3  0  0  0  0  0  0
  -24.8570  -28.8750   20.1940 C   0  0  0  0  0  0  0  0  0  0  0  0
  -25.9420  -30.7570   21.4170 C   0  0  0  0  0  2  0  0  0  0  0  0
  -26.0210  -29.3680   20.7980 C   0  0  0  0  0  0  0  0  0  0  0  0
  -27.2050  -28.5720   20.8200 C   0  0  0  0  0  3  0  0  0  0  0  0
  -26.0360  -26.8190   19.6190 C   0  0  0  0  0  3  0  0  0  0  0  0
  -24.8680  -27.6040   19.5940 C   0  0  0  0  0  3  0  0  0  0  0  0
  -23.6310  -29.7640   20.2150 C   0  0  0  0  0  2  0  0  0  0  0  0
  -24.6690  -31.0370   22.1350 N   0  0  0  0  0  0  0  0  0  0  0  0
  -23.5170  -32.1470   23.7470 O   0  0  0  0  0  0  0  0  0  0  0  0
  -22.7330  -29.4410   22.5550 C   0  0  0  0  0  0  0  0  0  0  0  0
  -21.4030  -29.2820   22.4380 N   0  0  0  0  0  0  0  0  0  0  0  0
  -23.4060  -28.8090   23.3750 O   0  0  0  0  0  0  0  0  0  0  0  0
  -20.9190  -29.8480   21.7530 H   0  0  0  0  0  0  0  0  0  0  0  0
  -18.0110  -28.1430   22.9630 C   0  0  0  0  0  0  0  0  0  0  0  0
  -20.5750  -28.3630   23.2200 C   0  0  0  0  0  3  0  0  0  0  0  0
  -20.6520  -26.9270   22.6510 C   0  0  0  0  0  2  0  0  0  0  0  0
  -19.5370  -26.6170   21.6470 C   0  0  0  0  0  2  0  0  0  0  0  0
  -18.1610  -26.7870   22.2950 C   0  0  0  0  0  2  0  0  0  0  0  0
  -19.1450  -28.8880   23.3850 C   0  0  0  0  0  0  0  0  0  0  0  0
  -18.9470  -30.1590   23.9710 C   0  0  0  0  0  3  0  0  0  0  0  0
  -17.6500  -30.6790   24.1420 C   0  0  0  0  0  3  0  0  0  0  0  0
  -16.5330  -29.9310   23.7320 C   0  0  0  0  0  3  0  0  0  0  0  0
  -16.7160  -28.6670   23.1450 C   0  0  0  0  0  3  0  0  0  0  0  0
  -25.8820  -32.4920   23.8480 C   0  0  0  0  0  3  0  0  0  0  0  0
  -25.5670  -33.8870   24.1870 N   0  0  0  0  0  0  0  0  0  0  0  0
  -25.8950  -34.9470   23.4350 C   0  0  0  0  0  0  0  0  0  0  0  0
  -26.5670  -34.8510   22.4040 O   0  0  0  0  0  0  0  0  0  0  0  0
  -24.9700  -34.0340   24.9870 H   0  0  0  0  0  0  0  0  0  0  0  0
  -24.1630  -36.7390   23.0880 C   0  0  0  0  0  1  0  0  0  0  0  0
  -25.4020  -36.3300   23.8990 C   0  0  0  0  0  3  0  0  0  0  0  0
  -27.5340  -37.2180   24.7360 C   0  0  0  0  0  1  0  0  0  0  0  0
  -26.4300  -37.3890   23.7960 N   0  0  0  0  0  0  0  0  0  0  0  0
  -26.0190  -38.3050   23.9490 H   0  0  0  0  0  0  0  0  0  0  0  0
  -26.4040  -31.7100   25.1150 C   0  0  1  0  0  0  0  0  0  0  0  0
  -25.3170  -31.4610   26.1860 C   0  0  0  0  0  1  0  0  0  0  0  0
  -26.9890  -30.3360   24.7070 C   0  0  0  0  0  1  0  0  0  0  0  0
  -27.5510  -32.5050   25.7820 C   0  0  0  0  0  1  0  0  0  0  0  0
  -30.5090  -18.2400   21.0610 C   0  0  0  0  0  3  0  0  0  0  0  0
  -30.0640  -17.1490   19.9880 C   0  0  0  0  0  2  0  0  0  0  0  0
  -30.7370  -14.6090   20.0780 C   0  0  0  0  0  0  0  0  0  0  0  0
  -30.4440  -12.3890   19.0220 C   0  0  0  0  0  2  0  0  0  0  0  0
  -29.4620  -12.5750   17.8440 C   0  0  0  0  0  2  0  0  0  0  0  0
  -27.9970  -12.4470   18.3140 C   0  0  0  0  0  2  0  0  0  0  0  0
  -27.7040  -13.2690   19.5980 C   0  0  0  0  0  3  0  0  0  0  0  0
  -28.8040  -13.0700   20.6680 C   0  0  0  0  0  2  0  0  0  0  0  0
  -30.0950  -13.3960   20.0410 N   0  0  0  0  0  0  0  0  0  0  0  0
  -31.8780  -14.7490   19.6380 O   0  0  0  0  0  0  0  0  0  0  0  0
  -29.9700  -15.6910   20.4050 N   0  0  0  0  0  0  0  0  0  0  0  0
  -29.0740  -15.4250   20.7780 H   0  0  0  0  0  0  0  0  0  0  0  0
  -25.3380  -13.8790   20.3970 C   0  0  0  0  0  0  0  0  0  0  0  0
  -24.2780  -13.1140   20.8020 C   0  0  0  0  0  0  0  0  0  0  0  0
  -24.7250  -11.7590   20.7490 C   0  0  0  0  0  0  0  0  0  0  0  0
  -26.3670  -12.9910   20.1250 N   0  0  0  0  0  0  0  0  0  0  0  0
  -26.0040  -11.7090   20.3950 N   0  0  0  0  0  0  0  0  0  0  0  0
  -23.9890  -10.5020   20.9630 C   0  0  0  0  0  0  0  0  0  0  0  0
  -24.4420   -9.5330   21.8870 C   0  0  0  0  0  3  0  0  0  0  0  0
  -23.7100   -8.3400   22.0880 C   0  0  0  0  0  3  0  0  0  0  0  0
  -22.5140   -8.1110   21.3670 C   0  0  0  0  0  0  0  0  0  0  0  0
  -22.0810   -9.0700   20.4330 C   0  0  0  0  0  3  0  0  0  0  0  0
  -22.8120  -10.2510   20.2310 C   0  0  0  0  0  3  0  0  0  0  0  0
  -21.7520   -6.9720   21.4780 O   0  0  0  0  0  0  0  0  0  0  0  0
  -21.7190   -6.2390   22.6390 C   0  0  0  0  0  0  0  0  0  0  0  0
  -21.3300   -6.8080   23.8700 C   0  0  0  0  0  3  0  0  0  0  0  0
  -21.2430   -6.0020   25.0240 C   0  0  0  0  0  3  0  0  0  0  0  0
  -21.5340   -4.6260   24.9430 C   0  0  0  0  0  0  0  0  0  0  0  0
  -21.9200   -4.0560   23.7170 C   0  0  0  0  0  3  0  0  0  0  0  0
  -22.0090   -4.8600   22.5680 C   0  0  0  0  0  0  0  0  0  0  0  0
  -22.3580   -4.3040   21.3830 F   0  0  0  0  0  0  0  0  0  0  0  0
  -21.4460   -3.8500   26.0470 F   0  0  0  0  0  0  0  0  0  0  0  0
  -22.8930  -13.6070   21.1280 C   0  0  0  0  0  0  0  0  0  0  0  0
  -22.1900  -12.9180   22.0200 N   0  0  0  0  0  0  0  0  0  0  0  0
  -22.4460  -14.6370   20.6270 O   0  0  0  0  0  0  0  0  0  0  0  0
  -22.5600  -12.0860   22.4530 H   0  0  0  0  0  0  0  0  0  0  0  0
  -21.2630  -13.2300   22.2770 H   0  0  0  0  0  0  0  0  0  0  0  0
  -25.5080  -15.2460   20.2140 N   0  0  0  0  0  0  0  0  0  0  0  0
  -24.7420  -15.9010   20.3270 H   0  0  0  0  0  0  0  0  0  0  0  0
  -26.3380  -15.6640   19.8110 H   0  0  0  0  0  0  0  0  0  0  0  0
  -30.1670  -17.8120   22.5170 C   0  0  0  0  0  2  0  0  0  0  0  0
  -31.3060  -18.0270   23.4300 N   0  0  0  0  0  4  0  0  0  0  0  0
  -32.1400  -17.5880   23.0810 H   0  0  0  0  0  0  0  0  0  0  0  0
  -31.0990  -17.6210   24.3240 H   0  0  0  0  0  0  0  0  0  0  0  0
  -31.4920  -19.0080   23.5600 H   0  0  0  0  0  0  0  0  0  0  0  0
  3  1  1  0
  3  6  1  0
  4  6  1  0
  4  2  1  0
  5  1  1  0
  5  7  1  0
  5  2  1  0
  6 50  1  0
  8  9  1  0
  8  7  2  0
 10 21  2  0
 11  9  1  0
 11 16  1  0
 12 20  1  0
 12 22  1  0
 13 19  1  0
 13 15  1  0
 14 20  1  0
 15 16  2  0
 15 14  1  0
 17 11  2  0
 18 17  1  0
 18 13  2  0
 19 12  1  0
 20 10  1  0
 22 24  2  0
 23 22  1  0
 25 23  1  0
 26 35  2  0
 26 31  1  0
 27 23  1  0
 27 31  1  0
 28 27  1  0
 29 30  1  0
 29 28  1  0
 30 26  1  0
 31 32  2  0
 32 33  1  0
 34 33  2  0
 35 34  1  0
 36 10  1  0
 36 37  1  0
 36 46  1  0
 37 40  1  0
 38 42  1  0
 38 37  1  0
 39 38  2  0
 42 41  1  0
 44 42  1  0
 44 45  1  0
 44 43  1  0
 46 49  1  1
 46 47  1  0
 48 46  1  0
 50 51  1  0
 50 90  1  0
 51 60  1  0
 52 60  1  0
 53 58  1  0
 54 55  1  0
 54 53  1  0
 56 55  1  0
 56 65  1  0
 56 57  1  0
 58 52  1  0
 58 57  1  0
 59 52  2  0
 60 61  1  0
 62 63  2  0
 63 82  1  0
 64 63  1  0
 64 67  1  0
 65 66  1  0
 65 62  1  0
 66 64  2  0
 67 68  1  0
 68 69  2  0
 70 73  1  0
 70 69  1  0
 71 70  2  0
 72 71  1  0
 72 67  2  0
 73 74  1  0
 74 75  1  0
 75 76  2  0
 77 76  1  0
 77 81  1  0
 78 77  2  0
 79 74  2  0
 79 78  1  0
 80 79  1  0
 82 83  1  0
 83 86  1  0
 83 85  1  0
 84 82  2  0
 87 88  1  0
 87 62  1  0
 89 87  1  0
 90 91  1  0
 91 94  1  0
 91 93  1  0
 92 91  1  0
M  ISO  4   8 101   9 101  52 100  60 100
M  END
>  <TORSDO>  (79) 
F 22

>  <SCORE>  (79) 
-12.805

>  <name>  (79) 
78

>  <ligand_id>  (79) 
78

>  <original_smiles>  (79) 
[H]c1c([H])c([H])c2c(c1[H])C([H])([H])C([H])([H])C([H])([H])C2([H])N([H])C(=O)C1([H])N(C(=O)C([H])(N([H])C(=O)C([H])(N([H])C([H])([H])[H])C([H])([H])[H])C(C([H])([H])[H])(C([H])([H])[H])C([H])([H])[H])C([H])([H])c2c([H])c(OC([H])([H])C([H])([H])N3C([H])([H])C([H])([H])N(C([H])(C([H])([H])N([H])C(=O)N4C([H])([H])C([H])([H])C([H])([H])C([H])(n5nc(-c6c([H])c([H])c(Oc7c([H])c([H])c(F)c([H])c7F)c([H])c6[H])c(C(=O)N([H])[H])c5N([H])[H])C4([H])[H])C([H])([H])[N+]([H])([H])[H])C([H])([H])C3([H])[H])c([H])c([H])c2C1([H])[H]

>  <smiles>  (79) 
[H]c1c([H])c([H])c2c(c1[H])C([H])([H])C([H])([H])C([H])([H])C2([H])N([H])C(=O)C1([H])N(C(=O)C([H])(N([H])C(=O)C([H])(N([H])C([H])([H])[H])C([H])([H])[H])C(C([H])([H])[H])(C([H])([H])[H])C([H])([H])[H])C([H])([H])c2c([H])c(OC([H])([H])C([H])([H])N3C([H])([H])C([H])([H])N(C([H])(C([H])([H])N([H])C(=O)N4C([H])([H])C([H])([H])C([H])([H])C([H])(n5nc(-c6c([H])c([H])c(Oc7c([H])c([H])c(F)c([H])c7F)c([H])c6[H])c(C(=O)N([H])[H])c5N([H])[H])C4([H])[H])C([H])([H])[N+]([H])([H])[H])C([H])([H])C3([H])[H])c([H])c([H])c2C1([H])[H]

$$$$
79:0:0
     RDKit          3D

 99108  0  0  1  0  0  0  0  0999 V2000
  -27.7820  -20.9060   18.2850 C   0  0  0  0  0  2  0  0  0  0  0  0
  -28.3170  -20.9640   20.7530 C   0  0  0  0  0  2  0  0  0  0  0  0
  -27.3000  -22.3520   18.4000 C   0  0  0  0  0  2  0  0  0  0  0  0
  -27.7720  -22.3950   20.7990 C   0  0  0  0  0  2  0  0  0  0  0  0
  -27.6770  -20.1320   19.6180 C   0  0  0  0  0  3  0  0  0  0  0  0
  -27.9960  -23.0710   19.4970 N   0  0  2  0  0  4  0  0  0  0  0  0
  -28.9840  -23.0470   19.2910 H   0  0  0  0  0  0  0  0  0  0  0  0
  -28.4280  -18.8120   19.4180 C   0  0  0  0  0  2  0  0  0  0  0  0
  -28.3700  -17.8520   20.5500 N   0  0  0  0  0  4  0  0  0  0  0  0
  -27.8340  -17.0550   20.2500 H   0  0  0  0  0  0  0  0  0  0  0  0
  -27.8460  -18.2700   21.3020 H   0  0  0  0  0  0  0  0  0  0  0  0
  -29.6790  -17.3860   21.0940 C   0  0  0  0  0  2  0  0  0  0  0  0
  -31.0380  -14.5480   20.4270 C   0  0  0  0  0  0  0  0  0  0  0  0
  -30.5910  -12.4010   19.3750 C   0  0  0  0  0  2  0  0  0  0  0  0
  -29.6630  -12.5700   18.1490 C   0  0  0  0  0  2  0  0  0  0  0  0
  -28.1910  -12.4970   18.5750 C   0  0  0  0  0  2  0  0  0  0  0  0
  -27.8550  -13.3870   19.8030 C   0  0  0  0  0  3  0  0  0  0  0  0
  -28.9130  -13.2540   20.9220 C   0  0  0  0  0  2  0  0  0  0  0  0
  -30.2360  -13.4610   20.3190 N   0  0  0  0  0  0  0  0  0  0  0  0
  -32.2320  -14.4760   20.6610 O   0  0  0  0  0  0  0  0  0  0  0  0
  -31.4650  -15.5310   18.2810 C   0  0  0  0  0  2  0  0  0  0  0  0
  -32.9100  -16.1060   18.3550 C   0  0  0  0  0  2  0  0  0  0  0  0
  -32.1680  -17.4660   20.3250 C   0  0  0  0  0  2  0  0  0  0  0  0
  -30.7230  -16.9750   20.0050 C   0  0  0  0  0  3  0  0  0  0  0  0
  -30.7220  -15.5570   19.5770 N   0  0  0  0  0  0  0  0  0  0  0  0
  -33.0270  -17.3700   19.1200 N   0  0  0  0  0  4  0  0  0  0  0  0
  -32.8000  -18.1270   18.4970 H   0  0  0  0  0  0  0  0  0  0  0  0
  -33.9900  -17.5040   19.3800 H   0  0  0  0  0  0  0  0  0  0  0  0
  -25.4440  -13.9920   20.4650 C   0  0  0  0  0  0  0  0  0  0  0  0
  -24.3730  -13.2210   20.8300 C   0  0  0  0  0  0  0  0  0  0  0  0
  -24.8390  -11.8700   20.8290 C   0  0  0  0  0  0  0  0  0  0  0  0
  -26.4990  -13.1130   20.2770 N   0  0  0  0  0  0  0  0  0  0  0  0
  -26.1380  -11.8340   20.5600 N   0  0  0  0  0  0  0  0  0  0  0  0
  -24.1120  -10.6050   21.0090 C   0  0  0  0  0  0  0  0  0  0  0  0
  -24.5170   -9.6500   21.9670 C   0  0  0  0  0  3  0  0  0  0  0  0
  -23.7890   -8.4540   22.1410 C   0  0  0  0  0  3  0  0  0  0  0  0
  -22.6420   -8.1980   21.3520 C   0  0  0  0  0  0  0  0  0  0  0  0
  -22.2560   -9.1400   20.3810 C   0  0  0  0  0  3  0  0  0  0  0  0
  -22.9850  -10.3280   20.2070 C   0  0  0  0  0  3  0  0  0  0  0  0
  -21.8870   -7.0510   21.4360 O   0  0  0  0  0  0  0  0  0  0  0  0
  -21.7990   -6.3290   22.6000 C   0  0  0  0  0  0  0  0  0  0  0  0
  -21.3190   -6.9020   23.7970 C   0  0  0  0  0  3  0  0  0  0  0  0
  -21.1780   -6.1070   24.9530 C   0  0  0  0  0  3  0  0  0  0  0  0
  -21.5100   -4.7410   24.9110 C   0  0  0  0  0  0  0  0  0  0  0  0
  -21.9860   -4.1670   23.7190 C   0  0  0  0  0  3  0  0  0  0  0  0
  -22.1280   -4.9580   22.5670 C   0  0  0  0  0  0  0  0  0  0  0  0
  -22.5690   -4.3950   21.4160 F   0  0  0  0  0  0  0  0  0  0  0  0
  -21.3670   -3.9770   26.0200 F   0  0  0  0  0  0  0  0  0  0  0  0
  -22.9630  -13.6920   21.0450 C   0  0  0  0  0  0  0  0  0  0  0  0
  -22.2050  -13.0110   21.8930 N   0  0  0  0  0  0  0  0  0  0  0  0
  -22.5420  -14.7050   20.4870 O   0  0  0  0  0  0  0  0  0  0  0  0
  -22.5510  -12.1930   22.3730 H   0  0  0  0  0  0  0  0  0  0  0  0
  -21.2570  -13.3150   22.0710 H   0  0  0  0  0  0  0  0  0  0  0  0
  -25.6090  -15.3550   20.2340 N   0  0  0  0  0  0  0  0  0  0  0  0
  -24.7330  -15.8630   20.1630 H   0  0  0  0  0  0  0  0  0  0  0  0
  -26.1900  -15.5360   19.4280 H   0  0  0  0  0  0  0  0  0  0  0  0
  -27.5910  -24.4890   19.4960 C   0  0  0  0  0  2  0  0  0  0  0  0
  -28.3870  -25.4420   20.4080 C   0  0  0  0  0  2  0  0  0  0  0  0
  -28.4120  -26.8000   19.9340 O   0  0  0  0  0  0  0  0  0  0  0  0
  -24.5750  -31.8430   23.1700 C   0  0  0  0  0  0  0  0  0  0  0  0
  -27.2270  -27.5050   19.9730 C   0  0  0  0  0  0  0  0  0  0  0  0
  -23.3710  -30.4710   21.5080 C   0  0  0  0  0  3  0  0  0  0  0  0
  -24.8280  -28.9980   20.0370 C   0  0  0  0  0  0  0  0  0  0  0  0
  -25.8910  -30.8530   21.3040 C   0  0  0  0  0  2  0  0  0  0  0  0
  -25.9820  -29.4960   20.6510 C   0  0  0  0  0  0  0  0  0  0  0  0
  -27.1810  -28.7480   20.6450 C   0  0  0  0  0  3  0  0  0  0  0  0
  -26.0640  -27.0650   19.2970 C   0  0  0  0  0  3  0  0  0  0  0  0
  -24.8600  -27.7750   19.3620 C   0  0  0  0  0  3  0  0  0  0  0  0
  -23.5820  -29.8450   20.1070 C   0  0  0  0  0  2  0  0  0  0  0  0
  -24.6310  -31.0670   22.0520 N   0  0  0  0  0  0  0  0  0  0  0  0
  -23.4930  -32.1000   23.7190 O   0  0  0  0  0  0  0  0  0  0  0  0
  -22.7470  -29.4100   22.4400 C   0  0  0  0  0  0  0  0  0  0  0  0
  -21.4260  -29.2170   22.3150 N   0  0  0  0  0  0  0  0  0  0  0  0
  -23.4450  -28.7700   23.2300 O   0  0  0  0  0  0  0  0  0  0  0  0
  -20.9300  -29.7830   21.6420 H   0  0  0  0  0  0  0  0  0  0  0  0
  -18.0660  -27.9840   22.8010 C   0  0  0  0  0  0  0  0  0  0  0  0
  -20.6220  -28.2540   23.0650 C   0  0  0  0  0  3  0  0  0  0  0  0
  -20.7360  -26.8410   22.4510 C   0  0  0  0  0  2  0  0  0  0  0  0
  -19.6280  -26.5340   21.4390 C   0  0  0  0  0  2  0  0  0  0  0  0
  -18.2480  -26.6520   22.0950 C   0  0  0  0  0  2  0  0  0  0  0  0
  -19.1820  -28.7430   23.2430 C   0  0  0  0  0  0  0  0  0  0  0  0
  -18.9600  -29.9910   23.8650 C   0  0  0  0  0  3  0  0  0  0  0  0
  -17.6530  -30.4800   24.0480 C   0  0  0  0  0  3  0  0  0  0  0  0
  -16.5520  -29.7180   23.6190 C   0  0  0  0  0  3  0  0  0  0  0  0
  -16.7580  -28.4730   23.0010 C   0  0  0  0  0  3  0  0  0  0  0  0
  -25.8600  -32.4680   23.7930 C   0  0  0  0  0  3  0  0  0  0  0  0
  -25.5430  -33.8590   24.1400 N   0  0  0  0  0  0  0  0  0  0  0  0
  -25.8720  -34.9210   23.3930 C   0  0  0  0  0  0  0  0  0  0  0  0
  -26.5500  -34.8340   22.3640 O   0  0  0  0  0  0  0  0  0  0  0  0
  -24.9270  -33.9960   24.9280 H   0  0  0  0  0  0  0  0  0  0  0  0
  -24.1440  -36.7140   23.0390 C   0  0  0  0  0  1  0  0  0  0  0  0
  -25.3740  -36.3000   23.8610 C   0  0  0  0  0  3  0  0  0  0  0  0
  -27.4970  -37.1820   24.7260 C   0  0  0  0  0  1  0  0  0  0  0  0
  -26.4060  -37.3560   23.7740 N   0  0  0  0  0  0  0  0  0  0  0  0
  -25.9960  -38.2740   23.9240 H   0  0  0  0  0  0  0  0  0  0  0  0
  -26.3870  -31.6730   25.0510 C   0  0  1  0  0  0  0  0  0  0  0  0
  -25.2960  -31.4010   26.1140 C   0  0  0  0  0  1  0  0  0  0  0  0
  -26.9810  -30.3080   24.6280 C   0  0  0  0  0  1  0  0  0  0  0  0
  -27.5380  -32.4580   25.7230 C   0  0  0  0  0  1  0  0  0  0  0  0
  1  3  1  0
  1  5  1  0
  2  4  1  0
  3  6  1  0
  5  8  1  0
  5  2  1  0
  6  4  1  0
  6  7  1  6
  8  9  1  0
  9 12  1  0
  9 11  1  0
 10  9  1  0
 13 20  2  0
 14 19  1  0
 15 16  1  0
 15 14  1  0
 17 16  1  0
 17 32  1  0
 17 18  1  0
 19 13  1  0
 19 18  1  0
 21 22  1  0
 21 25  1  0
 22 26  1  0
 24 23  1  0
 24 12  1  0
 25 24  1  0
 25 13  1  0
 26 28  1  0
 26 23  1  0
 27 26  1  0
 29 30  2  0
 30 49  1  0
 31 30  1  0
 31 34  1  0
 32 29  1  0
 32 33  1  0
 33 31  2  0
 34 35  1  0
 35 36  2  0
 37 40  1  0
 37 36  1  0
 38 37  2  0
 39 38  1  0
 39 34  2  0
 40 41  1  0
 41 42  1  0
 42 43  2  0
 44 43  1  0
 44 48  1  0
 45 44  2  0
 46 41  2  0
 46 45  1  0
 47 46  1  0
 49 50  1  0
 50 53  1  0
 50 52  1  0
 51 49  2  0
 54 29  1  0
 55 54  1  0
 56 54  1  0
 57  6  1  0
 57 58  1  0
 59 61  1  0
 59 58  1  0
 60 71  2  0
 61 66  1  0
 62 70  1  0
 62 72  1  0
 63 69  1  0
 63 65  1  0
 64 70  1  0
 65 64  1  0
 66 65  2  0
 67 68  1  0
 67 61  2  0
 68 63  2  0
 69 62  1  0
 70 60  1  0
 72 74  2  0
 73 72  1  0
 75 73  1  0
 76 85  2  0
 76 81  1  0
 77 73  1  0
 77 81  1  0
 78 77  1  0
 79 80  1  0
 79 78  1  0
 80 76  1  0
 81 82  2  0
 82 83  1  0
 84 83  2  0
 85 84  1  0
 86 60  1  0
 86 87  1  0
 86 96  1  0
 87 90  1  0
 88 92  1  0
 88 87  1  0
 89 88  2  0
 92 91  1  0
 94 92  1  0
 94 95  1  0
 94 93  1  0
 96 99  1  1
 96 97  1  0
 98 96  1  0
M  ISO  4  13 100  25 100  58 101  59 101
M  END
>  <TORSDO>  (80) 
F 21

>  <SCORE>  (80) 
-13.881

>  <name>  (80) 
79

>  <ligand_id>  (80) 
79

>  <original_smiles>  (80) 
[H]c1c([H])c([H])c2c(c1[H])C([H])([H])C([H])([H])C([H])([H])C2([H])N([H])C(=O)C1([H])N(C(=O)C([H])(N([H])C(=O)C([H])(N([H])C([H])([H])[H])C([H])([H])[H])C(C([H])([H])[H])(C([H])([H])[H])C([H])([H])[H])C([H])([H])c2c([H])c(OC([H])([H])C([H])([H])[N+]3([H])C([H])([H])C([H])([H])C([H])(C([H])([H])[N+]([H])([H])C([H])([H])C4([H])N(C(=O)N5C([H])([H])C([H])([H])C([H])([H])C([H])(n6nc(-c7c([H])c([H])c(Oc8c([H])c([H])c(F)c([H])c8F)c([H])c7[H])c(C(=O)N([H])[H])c6N([H])[H])C5([H])[H])C([H])([H])C([H])([H])[N+]([H])([H])C4([H])[H])C([H])([H])C3([H])[H])c([H])c([H])c2C1([H])[H]

>  <smiles>  (80) 
[H]c1c([H])c([H])c2c(c1[H])C([H])([H])C([H])([H])C([H])([H])C2([H])N([H])C(=O)C1([H])N(C(=O)C([H])(N([H])C(=O)C([H])(N([H])C([H])([H])[H])C([H])([H])[H])C(C([H])([H])[H])(C([H])([H])[H])C([H])([H])[H])C([H])([H])c2c([H])c(OC([H])([H])C([H])([H])[N+]3([H])C([H])([H])C([H])([H])C([H])(C([H])([H])[N+]([H])([H])C([H])([H])C4([H])N(C(=O)N5C([H])([H])C([H])([H])C([H])([H])C([H])(n6nc(-c7c([H])c([H])c(Oc8c([H])c([H])c(F)c([H])c8F)c([H])c7[H])c(C(=O)N([H])[H])c6N([H])[H])C5([H])[H])C([H])([H])C([H])([H])[N+]([H])([H])C4([H])[H])C([H])([H])C3([H])[H])c([H])c([H])c2C1([H])[H]

$$$$
80:0:0
     RDKit          3D

 97106  0  0  1  0  0  0  0  0999 V2000
  -29.0300  -19.3520   21.7310 C   0  0  0  0  0  2  0  0  0  0  0  0
  -31.9720  -22.8820   20.8010 C   0  0  0  0  0  2  0  0  0  0  0  0
  -28.9960  -20.3460   20.5550 C   0  0  0  0  0  2  0  0  0  0  0  0
  -30.8230  -21.9730   21.2660 C   0  0  0  0  0  2  0  0  0  0  0  0
  -31.3930  -19.8940   19.8290 C   0  0  0  0  0  2  0  0  0  0  0  0
  -29.4060  -17.9100   21.3270 C   0  0  0  0  0  2  0  0  0  0  0  0
  -31.6030  -23.6470   19.5200 C   0  0  0  0  0  2  0  0  0  0  0  0
  -31.7330  -18.8710   20.9430 C   0  0  0  0  0  2  0  0  0  0  0  0
  -30.0560  -21.8440   18.8720 C   0  0  0  0  0  2  0  0  0  0  0  0
  -30.3450  -20.9980   20.1530 C   0  0  1  0  0  0  0  0  0  0  0  0
  -30.8360  -17.6760   20.9670 N   0  0  1  0  0  4  0  0  0  0  0  0
  -31.1770  -22.7230   18.4340 N   0  0  1  0  0  4  0  0  0  0  0  0
  -30.8130  -17.3690   20.0060 H   0  0  0  0  0  0  0  0  0  0  0  0
  -31.9580  -22.1150   18.2320 H   0  0  0  0  0  0  0  0  0  0  0  0
  -31.4330  -16.5180   21.6910 C   0  0  0  0  0  2  0  0  0  0  0  0
  -31.9430  -15.4250   20.7280 C   0  0  0  0  0  2  0  0  0  0  0  0
  -31.3380  -13.2490   19.7560 C   0  0  0  0  0  0  0  0  0  0  0  0
  -30.7480  -10.9900   18.9650 C   0  0  0  0  0  2  0  0  0  0  0  0
  -29.7590  -11.0500   17.7870 C   0  0  0  0  0  2  0  0  0  0  0  0
  -28.3100  -11.1030   18.3030 C   0  0  0  0  0  2  0  0  0  0  0  0
  -28.1070  -12.1930   19.3900 C   0  0  0  0  0  3  0  0  0  0  0  0
  -29.2020  -12.1100   20.4770 C   0  0  0  0  0  2  0  0  0  0  0  0
  -30.5210  -12.1660   19.8210 N   0  0  0  0  0  0  0  0  0  0  0  0
  -32.3160  -13.3100   19.0050 O   0  0  0  0  0  0  0  0  0  0  0  0
  -31.0670  -14.2550   20.6010 N   0  0  0  0  0  0  0  0  0  0  0  0
  -30.2940  -14.1320   21.2390 H   0  0  0  0  0  0  0  0  0  0  0  0
  -25.8730  -13.1430   20.2480 C   0  0  0  0  0  0  0  0  0  0  0  0
  -24.7380  -12.5350   20.7140 C   0  0  0  0  0  0  0  0  0  0  0  0
  -25.0000  -11.1310   20.6830 C   0  0  0  0  0  0  0  0  0  0  0  0
  -26.7660  -12.1210   19.9680 N   0  0  0  0  0  0  0  0  0  0  0  0
  -26.2470  -10.9060   20.2830 N   0  0  0  0  0  0  0  0  0  0  0  0
  -24.1210   -9.9880   20.9570 C   0  0  0  0  0  0  0  0  0  0  0  0
  -24.4550   -9.0180   21.9270 C   0  0  0  0  0  3  0  0  0  0  0  0
  -23.5860   -7.9360   22.1880 C   0  0  0  0  0  3  0  0  0  0  0  0
  -22.3680   -7.8200   21.4770 C   0  0  0  0  0  0  0  0  0  0  0  0
  -22.0510   -8.7760   20.4960 C   0  0  0  0  0  3  0  0  0  0  0  0
  -22.9200   -9.8480   20.2350 C   0  0  0  0  0  3  0  0  0  0  0  0
  -21.4740   -6.7890   21.6440 O   0  0  0  0  0  0  0  0  0  0  0  0
  -21.3790   -6.1030   22.8280 C   0  0  0  0  0  0  0  0  0  0  0  0
  -21.0200   -6.7450   24.0340 C   0  0  0  0  0  3  0  0  0  0  0  0
  -20.8630   -5.9900   25.2140 C   0  0  0  0  0  3  0  0  0  0  0  0
  -21.0580   -4.5960   25.1900 C   0  0  0  0  0  0  0  0  0  0  0  0
  -21.4090   -3.9540   23.9880 C   0  0  0  0  0  3  0  0  0  0  0  0
  -21.5660   -4.7070   22.8110 C   0  0  0  0  0  0  0  0  0  0  0  0
  -21.8840   -4.0810   21.6520 F   0  0  0  0  0  0  0  0  0  0  0  0
  -20.9020   -3.8690   26.3210 F   0  0  0  0  0  0  0  0  0  0  0  0
  -23.4450  -13.2090   21.0750 C   0  0  0  0  0  0  0  0  0  0  0  0
  -22.6980  -12.6400   22.0150 N   0  0  0  0  0  0  0  0  0  0  0  0
  -23.1140  -14.2760   20.5580 O   0  0  0  0  0  0  0  0  0  0  0  0
  -22.9810  -11.7760   22.4530 H   0  0  0  0  0  0  0  0  0  0  0  0
  -21.8310  -13.0730   22.2970 H   0  0  0  0  0  0  0  0  0  0  0  0
  -26.2130  -14.4740   20.0240 N   0  0  0  0  0  0  0  0  0  0  0  0
  -25.5380  -15.2220   20.1440 H   0  0  0  0  0  0  0  0  0  0  0  0
  -27.0700  -14.7780   19.5810 H   0  0  0  0  0  0  0  0  0  0  0  0
  -30.8240  -23.4270   17.1670 C   0  0  0  0  0  2  0  0  0  0  0  0
  -31.7260  -24.6270   16.8050 C   0  0  0  0  0  2  0  0  0  0  0  0
  -31.1800  -25.3420   15.6930 O   0  0  0  0  0  0  0  0  0  0  0  0
  -25.9870  -27.0900   20.2280 C   0  0  0  0  0  0  0  0  0  0  0  0
  -29.8940  -25.7870   15.8710 C   0  0  0  0  0  0  0  0  0  0  0  0
  -25.3370  -26.9410   17.8440 C   0  0  0  0  0  3  0  0  0  0  0  0
  -27.2630  -26.7440   16.1840 C   0  0  0  0  0  0  0  0  0  0  0  0
  -27.7310  -27.5380   18.5090 C   0  0  0  0  0  2  0  0  0  0  0  0
  -28.1860  -26.8720   17.2300 C   0  0  0  0  0  0  0  0  0  0  0  0
  -29.5040  -26.3940   17.0820 C   0  0  0  0  0  3  0  0  0  0  0  0
  -28.9660  -25.6760   14.8170 C   0  0  0  0  0  3  0  0  0  0  0  0
  -27.6460  -26.1420   14.9720 C   0  0  0  0  0  3  0  0  0  0  0  0
  -25.8740  -27.2880   16.4300 C   0  0  0  0  0  2  0  0  0  0  0  0
  -26.3580  -27.1670   18.9180 N   0  0  0  0  0  0  0  0  0  0  0  0
  -24.8080  -26.8800   20.5460 O   0  0  0  0  0  0  0  0  0  0  0  0
  -24.7850  -25.4970   17.8210 C   0  0  0  0  0  0  0  0  0  0  0  0
  -23.6460  -25.3060   17.1350 N   0  0  0  0  0  0  0  0  0  0  0  0
  -25.3870  -24.5800   18.3840 O   0  0  0  0  0  0  0  0  0  0  0  0
  -23.2090  -26.1080   16.7050 H   0  0  0  0  0  0  0  0  0  0  0  0
  -20.8810  -23.7100   15.4480 C   0  0  0  0  0  0  0  0  0  0  0  0
  -22.9640  -24.0270   16.9450 C   0  0  0  0  0  3  0  0  0  0  0  0
  -23.7130  -23.1460   15.9180 C   0  0  0  0  0  2  0  0  0  0  0  0
  -23.1870  -23.3100   14.4880 C   0  0  0  0  0  2  0  0  0  0  0  0
  -21.6990  -22.9560   14.4130 C   0  0  0  0  0  2  0  0  0  0  0  0
  -21.4770  -24.2260   16.6290 C   0  0  0  0  0  0  0  0  0  0  0  0
  -20.6760  -24.9490   17.5390 C   0  0  0  0  0  3  0  0  0  0  0  0
  -19.3060  -25.1530   17.2890 C   0  0  0  0  0  3  0  0  0  0  0  0
  -18.7190  -24.6270   16.1260 C   0  0  0  0  0  3  0  0  0  0  0  0
  -19.5040  -23.9050   15.2100 C   0  0  0  0  0  3  0  0  0  0  0  0
  -27.0160  -27.2870   21.3850 C   0  0  0  0  0  3  0  0  0  0  0  0
  -27.6560  -25.9350   21.8880 C   0  0  1  0  0  0  0  0  0  0  0  0
  -26.6110  -24.8430   22.2200 C   0  0  0  0  0  1  0  0  0  0  0  0
  -28.6210  -25.3600   20.8250 C   0  0  0  0  0  1  0  0  0  0  0  0
  -28.5010  -26.1950   23.1570 C   0  0  0  0  0  1  0  0  0  0  0  0
  -26.3220  -27.9750   22.4820 N   0  0  0  0  0  0  0  0  0  0  0  0
  -26.4520  -29.2790   22.7630 C   0  0  0  0  0  0  0  0  0  0  0  0
  -27.2320  -30.0210   22.1600 O   0  0  0  0  0  0  0  0  0  0  0  0
  -25.6270  -27.4440   22.9860 H   0  0  0  0  0  0  0  0  0  0  0  0
  -24.3680  -30.5830   23.2850 C   0  0  0  0  0  1  0  0  0  0  0  0
  -25.5760  -29.8520   23.8920 C   0  0  0  0  0  3  0  0  0  0  0  0
  -27.2990  -30.0790   25.6260 C   0  0  0  0  0  1  0  0  0  0  0  0
  -26.3080  -30.7630   24.7990 N   0  0  0  0  0  0  0  0  0  0  0  0
  -25.6630  -31.2500   25.4150 H   0  0  0  0  0  0  0  0  0  0  0  0
  2  4  1  0
  3  1  1  0
 10  5  1  6
  5  8  1  0
  6  1  1  0
  7  2  1  0
  8 11  1  0
 10  9  1  0
 10  3  1  0
 10  4  1  0
 11  6  1  0
 11 15  1  0
 12  9  1  0
 12  7  1  0
 11 13  1  6
 12 14  1  6
 16 15  1  0
 17 23  1  0
 17 25  1  0
 18 23  1  0
 19 20  1  0
 19 18  1  0
 21 20  1  0
 21 30  1  0
 21 22  1  0
 23 22  1  0
 24 17  2  0
 25 16  1  0
 25 26  1  0
 27 28  2  0
 28 47  1  0
 29 28  1  0
 29 32  1  0
 30 27  1  0
 30 31  1  0
 31 29  2  0
 32 33  1  0
 33 34  2  0
 35 38  1  0
 35 34  1  0
 36 35  2  0
 37 36  1  0
 37 32  2  0
 38 39  1  0
 39 40  1  0
 40 41  2  0
 42 41  1  0
 42 46  1  0
 43 42  2  0
 44 39  2  0
 44 43  1  0
 45 44  1  0
 47 48  1  0
 48 51  1  0
 48 50  1  0
 49 47  2  0
 52 53  1  0
 52 27  1  0
 54 52  1  0
 55 12  1  0
 56 55  1  0
 57 59  1  0
 57 56  1  0
 58 69  2  0
 59 64  1  0
 60 70  1  0
 60 68  1  0
 61 67  1  0
 61 63  1  0
 62 68  1  0
 63 62  1  0
 64 63  2  0
 65 66  1  0
 65 59  2  0
 66 61  2  0
 67 60  1  0
 68 58  1  0
 70 72  2  0
 71 70  1  0
 73 71  1  0
 74 79  1  0
 75 71  1  0
 76 75  1  0
 77 76  1  0
 78 77  1  0
 78 74  1  0
 79 75  1  0
 79 80  2  0
 81 80  1  0
 82 81  2  0
 83 74  2  0
 83 82  1  0
 84 58  1  0
 84 85  1  0
 84 89  1  0
 85 86  1  1
 85 88  1  0
 87 85  1  0
 89 90  1  0
 89 92  1  0
 90 94  1  0
 91 90  2  0
 94 93  1  0
 94 96  1  0
 96 97  1  0
 96 95  1  0
M  ISO  4  17 100  25 100  56 101  57 101
M  END
>  <TORSDO>  (81) 
F 20

>  <SCORE>  (81) 
-7.335

>  <name>  (81) 
80

>  <ligand_id>  (81) 
80

>  <original_smiles>  (81) 
[H]c1c([H])c([H])c2c(c1[H])C([H])([H])C([H])([H])C([H])([H])C2([H])N([H])C(=O)C1([H])N(C(=O)C([H])(N([H])C(=O)C([H])(N([H])C([H])([H])[H])C([H])([H])[H])C(C([H])([H])[H])(C([H])([H])[H])C([H])([H])[H])C([H])([H])c2c([H])c(OC([H])([H])C([H])([H])[N+]3([H])C([H])([H])C([H])([H])C([H])([H])C4(C([H])([H])C([H])([H])C([H])([H])[N+]([H])(C([H])([H])C([H])([H])N([H])C(=O)N5C([H])([H])C([H])([H])C([H])([H])C([H])(n6nc(-c7c([H])c([H])c(Oc8c([H])c([H])c(F)c([H])c8F)c([H])c7[H])c(C(=O)N([H])[H])c6N([H])[H])C5([H])[H])C([H])([H])C4([H])[H])C3([H])[H])c([H])c([H])c2C1([H])[H]

>  <smiles>  (81) 
[H]c1c([H])c([H])c2c(c1[H])C([H])([H])C([H])([H])C([H])([H])C2([H])N([H])C(=O)C1([H])N(C(=O)C([H])(N([H])C(=O)C([H])(N([H])C([H])([H])[H])C([H])([H])[H])C(C([H])([H])[H])(C([H])([H])[H])C([H])([H])[H])C([H])([H])c2c([H])c(OC([H])([H])C([H])([H])[N+]3([H])C([H])([H])C([H])([H])C([H])([H])C4(C([H])([H])C([H])([H])C([H])([H])[N+]([H])(C([H])([H])C([H])([H])N([H])C(=O)N5C([H])([H])C([H])([H])C([H])([H])C([H])(n6nc(-c7c([H])c([H])c(Oc8c([H])c([H])c(F)c([H])c8F)c([H])c7[H])c(C(=O)N([H])[H])c6N([H])[H])C5([H])[H])C([H])([H])C4([H])[H])C3([H])[H])c([H])c([H])c2C1([H])[H]

$$$$
81:0:0
     RDKit          3D

 97106  0  0  1  0  0  0  0  0999 V2000
  -29.8310  -20.6660   19.4550 C   0  0  0  0  0  2  0  0  0  0  0  0
  -32.1200  -14.1390   19.4130 C   0  0  0  0  0  0  0  0  0  0  0  0
  -31.6670  -11.8260   18.6980 C   0  0  0  0  0  2  0  0  0  0  0  0
  -30.6150  -11.8520   17.5680 C   0  0  0  0  0  2  0  0  0  0  0  0
  -29.1860  -11.8480   18.1480 C   0  0  0  0  0  2  0  0  0  0  0  0
  -28.9910  -12.9080   19.2650 C   0  0  0  0  0  3  0  0  0  0  0  0
  -30.1440  -12.8230   20.2910 C   0  0  0  0  0  2  0  0  0  0  0  0
  -31.4100  -12.9880   19.5620 N   0  0  0  0  0  0  0  0  0  0  0  0
  -33.2060  -14.1690   18.8210 O   0  0  0  0  0  0  0  0  0  0  0  0
  -29.3010  -17.5990   21.7410 C   0  0  0  0  0  2  0  0  0  0  0  0
  -29.7320  -16.2030   21.2300 C   0  0  0  0  0  2  0  0  0  0  0  0
  -32.2270  -17.0770   21.1610 C   0  0  0  0  0  2  0  0  0  0  0  0
  -32.3820  -18.1460   20.0720 C   0  0  0  0  0  2  0  0  0  0  0  0
  -30.4890  -17.4000   18.4080 C   0  0  0  0  0  2  0  0  0  0  0  0
  -31.2990  -16.0970   18.3190 C   0  0  0  0  0  2  0  0  0  0  0  0
  -28.9760  -18.6730   20.6810 C   0  0  0  0  0  2  0  0  0  0  0  0
  -31.2250  -15.9370   20.8760 C   0  0  0  0  0  3  0  0  0  0  0  0
  -31.1190  -18.5310   19.2740 C   0  0  0  0  0  3  0  0  0  0  0  0
  -31.4030  -15.2850   19.5520 N   0  0  0  0  0  0  0  0  0  0  0  0
  -30.1610  -19.3530   20.0820 N   0  0  1  0  0  4  0  0  0  0  0  0
  -30.7060  -19.6310   20.8860 H   0  0  0  0  0  0  0  0  0  0  0  0
  -26.7710  -13.7600   20.2580 C   0  0  0  0  0  0  0  0  0  0  0  0
  -25.6860  -13.1010   20.7710 C   0  0  0  0  0  0  0  0  0  0  0  0
  -25.9910  -11.7100   20.6770 C   0  0  0  0  0  0  0  0  0  0  0  0
  -27.6830  -12.7770   19.9070 N   0  0  0  0  0  0  0  0  0  0  0  0
  -27.2190  -11.5370   20.2060 N   0  0  0  0  0  0  0  0  0  0  0  0
  -25.1610  -10.5290   20.9490 C   0  0  0  0  0  0  0  0  0  0  0  0
  -25.3460   -9.7490   22.1110 C   0  0  0  0  0  3  0  0  0  0  0  0
  -24.5230   -8.6300   22.3590 C   0  0  0  0  0  3  0  0  0  0  0  0
  -23.5030   -8.2820   21.4440 C   0  0  0  0  0  0  0  0  0  0  0  0
  -23.3390   -9.0480   20.2770 C   0  0  0  0  0  3  0  0  0  0  0  0
  -24.1620  -10.1580   20.0270 C   0  0  0  0  0  3  0  0  0  0  0  0
  -22.6720   -7.1960   21.5910 O   0  0  0  0  0  0  0  0  0  0  0  0
  -22.0520   -6.9210   22.7830 C   0  0  0  0  0  0  0  0  0  0  0  0
  -21.2160   -7.8630   23.4230 C   0  0  0  0  0  3  0  0  0  0  0  0
  -20.5410   -7.5150   24.6090 C   0  0  0  0  0  3  0  0  0  0  0  0
  -20.6920   -6.2260   25.1540 C   0  0  0  0  0  0  0  0  0  0  0  0
  -21.5200   -5.2850   24.5160 C   0  0  0  0  0  3  0  0  0  0  0  0
  -22.1960   -5.6320   23.3320 C   0  0  0  0  0  0  0  0  0  0  0  0
  -22.9750   -4.7140   22.7100 F   0  0  0  0  0  0  0  0  0  0  0  0
  -20.0380   -5.8870   26.2890 F   0  0  0  0  0  0  0  0  0  0  0  0
  -24.3960  -13.7210   21.2220 C   0  0  0  0  0  0  0  0  0  0  0  0
  -23.7490  -13.1260   22.2180 N   0  0  0  0  0  0  0  0  0  0  0  0
  -23.9790  -14.7650   20.7230 O   0  0  0  0  0  0  0  0  0  0  0  0
  -24.1020  -12.2780   22.6370 H   0  0  0  0  0  0  0  0  0  0  0  0
  -22.8880  -13.5240   22.5650 H   0  0  0  0  0  0  0  0  0  0  0  0
  -27.0360  -15.1050   20.0360 N   0  0  0  0  0  0  0  0  0  0  0  0
  -26.3190  -15.8100   20.1700 H   0  0  0  0  0  0  0  0  0  0  0  0
  -27.8210  -15.4320   19.4890 H   0  0  0  0  0  0  0  0  0  0  0  0
  -29.2910  -20.5800   18.0030 C   0  0  0  0  0  2  0  0  0  0  0  0
  -29.0930  -21.9600   17.3410 C   0  0  0  0  0  2  0  0  0  0  0  0
  -30.3640  -22.5570   16.8530 N   0  0  0  0  0  4  0  0  0  0  0  0
  -30.5060  -22.2440   15.9040 H   0  0  0  0  0  0  0  0  0  0  0  0
  -31.1500  -22.2250   17.3900 H   0  0  0  0  0  0  0  0  0  0  0  0
  -30.4050  -24.0400   16.8430 C   0  0  0  0  0  2  0  0  0  0  0  0
  -30.4870  -24.6430   18.2610 C   0  0  0  0  0  2  0  0  0  0  0  0
  -30.3980  -26.0670   18.2370 O   0  0  0  0  0  0  0  0  0  0  0  0
  -26.6490  -29.0590   23.4630 C   0  0  0  0  0  0  0  0  0  0  0  0
  -29.1950  -26.6240   18.6020 C   0  0  0  0  0  0  0  0  0  0  0  0
  -25.3760  -28.5100   21.4130 C   0  0  0  0  0  3  0  0  0  0  0  0
  -26.7730  -27.8430   19.3900 C   0  0  0  0  0  0  0  0  0  0  0  0
  -27.8790  -29.0250   21.2970 C   0  0  0  0  0  2  0  0  0  0  0  0
  -27.9510  -28.0990   20.1020 C   0  0  0  0  0  0  0  0  0  0  0  0
  -29.1650  -27.5000   19.7050 C   0  0  0  0  0  3  0  0  0  0  0  0
  -27.9960  -26.3650   17.8960 C   0  0  0  0  0  3  0  0  0  0  0  0
  -26.7880  -26.9740   18.2850 C   0  0  0  0  0  3  0  0  0  0  0  0
  -25.5200  -28.5360   19.8690 C   0  0  0  0  0  2  0  0  0  0  0  0
  -26.6550  -28.8510   22.1150 N   0  0  0  0  0  0  0  0  0  0  0  0
  -25.5960  -29.0150   24.1120 O   0  0  0  0  0  0  0  0  0  0  0  0
  -24.7940  -27.1400   21.8290 C   0  0  0  0  0  0  0  0  0  0  0  0
  -23.5250  -26.8960   21.4630 N   0  0  0  0  0  0  0  0  0  0  0  0
  -25.4870  -26.3180   22.4350 O   0  0  0  0  0  0  0  0  0  0  0  0
  -23.0260  -27.6240   20.9720 H   0  0  0  0  0  0  0  0  0  0  0  0
  -20.4040  -25.1980   20.8120 C   0  0  0  0  0  0  0  0  0  0  0  0
  -22.7830  -25.6610   21.7110 C   0  0  0  0  0  3  0  0  0  0  0  0
  -23.2520  -24.5300   20.7650 C   0  0  0  0  0  2  0  0  0  0  0  0
  -22.4200  -24.4330   19.4830 C   0  0  0  0  0  2  0  0  0  0  0  0
  -20.9460  -24.1830   19.8170 C   0  0  0  0  0  2  0  0  0  0  0  0
  -21.2710  -25.9030   21.6900 C   0  0  0  0  0  0  0  0  0  0  0  0
  -20.7210  -26.8620   22.5690 C   0  0  0  0  0  3  0  0  0  0  0  0
  -19.3370  -27.1160   22.5830 C   0  0  0  0  0  3  0  0  0  0  0  0
  -18.4820  -26.4020   21.7240 C   0  0  0  0  0  3  0  0  0  0  0  0
  -19.0170  -25.4440   20.8440 C   0  0  0  0  0  3  0  0  0  0  0  0
  -27.9600  -29.3850   24.2460 C   0  0  0  0  0  3  0  0  0  0  0  0
  -27.7120  -30.6020   25.0310 N   0  0  0  0  0  0  0  0  0  0  0  0
  -28.1220  -31.8280   24.6800 C   0  0  0  0  0  0  0  0  0  0  0  0
  -28.8180  -32.0430   23.6850 O   0  0  0  0  0  0  0  0  0  0  0  0
  -27.1010  -30.5080   25.8290 H   0  0  0  0  0  0  0  0  0  0  0  0
  -26.4960  -33.7290   24.9350 C   0  0  0  0  0  1  0  0  0  0  0  0
  -27.6880  -33.0030   25.5770 C   0  0  0  0  0  3  0  0  0  0  0  0
  -29.8220  -33.4390   26.7110 C   0  0  0  0  0  1  0  0  0  0  0  0
  -28.7750  -33.9710   25.8430 N   0  0  0  0  0  0  0  0  0  0  0  0
  -28.4070  -34.8160   26.2710 H   0  0  0  0  0  0  0  0  0  0  0  0
  -28.4380  -28.2060   25.1780 C   0  0  1  0  0  0  0  0  0  0  0  0
  -27.3170  -27.6230   26.0700 C   0  0  0  0  0  1  0  0  0  0  0  0
  -29.0220  -27.0470   24.3360 C   0  0  0  0  0  1  0  0  0  0  0  0
  -29.5750  -28.6970   26.1060 C   0  0  0  0  0  1  0  0  0  0  0  0
  1 20  1  0
  2 19  1  0
  2  8  1  0
  3  8  1  0
  4  5  1  0
  4  3  1  0
  6  5  1  0
  6 25  1  0
  6  7  1  0
  8  7  1  0
  9  2  2  0
 11 10  1  0
 13 12  1  0
 15 14  1  0
 15 19  1  0
 16 10  1  0
 17 12  1  0
 17 11  1  0
 18 14  1  0
 18 13  1  0
 18 20  1  0
 19 17  1  0
 20 16  1  0
 20 21  1  1
 22 23  2  0
 23 42  1  0
 24 23  1  0
 24 27  1  0
 25 26  1  0
 25 22  1  0
 26 24  2  0
 27 28  1  0
 28 29  2  0
 30 33  1  0
 30 29  1  0
 31 30  2  0
 32 31  1  0
 32 27  2  0
 33 34  1  0
 34 39  2  0
 34 35  1  0
 35 36  2  0
 36 37  1  0
 37 41  1  0
 38 37  2  0
 39 38  1  0
 40 39  1  0
 42 43  1  0
 43 46  1  0
 43 45  1  0
 44 42  2  0
 47 48  1  0
 47 22  1  0
 49 47  1  0
 50  1  1  0
 51 50  1  0
 52 51  1  0
 52 54  1  0
 53 52  1  0
 55 52  1  0
 55 56  1  0
 57 56  1  0
 57 59  1  0
 58 69  2  0
 59 64  1  0
 60 70  1  0
 60 68  1  0
 61 67  1  0
 61 63  1  0
 62 68  1  0
 63 62  1  0
 64 63  2  0
 65 66  1  0
 65 59  2  0
 66 61  2  0
 67 60  1  0
 68 58  1  0
 70 72  2  0
 71 70  1  0
 73 71  1  0
 74 83  2  0
 74 79  1  0
 75 71  1  0
 76 75  1  0
 77 78  1  0
 77 76  1  0
 78 74  1  0
 79 75  1  0
 79 80  2  0
 80 81  1  0
 82 81  2  0
 83 82  1  0
 84 58  1  0
 84 85  1  0
 84 94  1  0
 85 88  1  0
 86 85  1  0
 86 90  1  0
 87 86  2  0
 90 89  1  0
 90 92  1  0
 92 93  1  0
 92 91  1  0
 94 95  1  1
 94 97  1  0
 96 94  1  0
M  ISO  4   2 100  19 100  56 101  57 101
M  END
>  <TORSDO>  (82) 
F 21

>  <SCORE>  (82) 
-7.026

>  <name>  (82) 
81

>  <ligand_id>  (82) 
81

>  <original_smiles>  (82) 
[H]c1c([H])c([H])c2c(c1[H])C([H])([H])C([H])([H])C([H])([H])C2([H])N([H])C(=O)C1([H])N(C(=O)C([H])(N([H])C(=O)C([H])(N([H])C([H])([H])[H])C([H])([H])[H])C(C([H])([H])[H])(C([H])([H])[H])C([H])([H])[H])C([H])([H])c2c([H])c(OC([H])([H])C([H])([H])[N+]([H])([H])C([H])([H])C([H])([H])C([H])([H])[N+]3([H])C([H])([H])C([H])([H])C([H])([H])C4([H])N(C(=O)N5C([H])([H])C([H])([H])C([H])([H])C([H])(n6nc(-c7c([H])c([H])c(Oc8c([H])c([H])c(F)c([H])c8F)c([H])c7[H])c(C(=O)N([H])[H])c6N([H])[H])C5([H])[H])C([H])([H])C([H])([H])C3([H])C([H])([H])C4([H])[H])c([H])c([H])c2C1([H])[H]

>  <smiles>  (82) 
[H]c1c([H])c([H])c2c(c1[H])C([H])([H])C([H])([H])C([H])([H])C2([H])N([H])C(=O)C1([H])N(C(=O)C([H])(N([H])C(=O)C([H])(N([H])C([H])([H])[H])C([H])([H])[H])C(C([H])([H])[H])(C([H])([H])[H])C([H])([H])[H])C([H])([H])c2c([H])c(OC([H])([H])C([H])([H])[N+]([H])([H])C([H])([H])C([H])([H])C([H])([H])[N+]3([H])C([H])([H])C([H])([H])C([H])([H])C4([H])N(C(=O)N5C([H])([H])C([H])([H])C([H])([H])C([H])(n6nc(-c7c([H])c([H])c(Oc8c([H])c([H])c(F)c([H])c8F)c([H])c7[H])c(C(=O)N([H])[H])c6N([H])[H])C5([H])[H])C([H])([H])C([H])([H])C3([H])C([H])([H])C4([H])[H])c([H])c([H])c2C1([H])[H]

$$$$
82:0:0
     RDKit          3D

 95102  0  0  1  0  0  0  0  0999 V2000
  -28.9680  -21.1860   21.7270 C   0  0  0  0  0  2  0  0  0  0  0  0
  -29.8130  -20.5310   22.8360 C   0  0  0  0  0  2  0  0  0  0  0  0
  -31.2430  -20.4190   22.3800 C   0  0  0  0  0  0  0  0  0  0  0  0
  -32.0680  -21.4620   22.5740 N   0  0  0  0  0  4  0  0  0  0  0  0
  -31.7080  -19.3130   21.7610 N   0  0  0  0  0  0  0  0  0  0  0  0
  -31.7810  -22.2630   23.1210 H   0  0  0  0  0  0  0  0  0  0  0  0
  -33.0230  -21.4790   22.2420 H   0  0  0  0  0  0  0  0  0  0  0  0
  -32.6880  -19.2620   21.5160 H   0  0  0  0  0  0  0  0  0  0  0  0
  -30.9570  -18.0790   21.4760 C   0  0  0  0  0  2  0  0  0  0  0  0
  -31.8440  -17.0430   20.7710 C   0  0  0  0  0  2  0  0  0  0  0  0
  -31.6770  -14.7180   19.9330 C   0  0  0  0  0  0  0  0  0  0  0  0
  -31.2460  -12.4650   19.0320 C   0  0  0  0  0  2  0  0  0  0  0  0
  -30.2840  -12.5370   17.8330 C   0  0  0  0  0  2  0  0  0  0  0  0
  -28.8180  -12.5040   18.3090 C   0  0  0  0  0  2  0  0  0  0  0  0
  -28.5350  -13.5200   19.4480 C   0  0  0  0  0  3  0  0  0  0  0  0
  -29.6050  -13.4160   20.5560 C   0  0  0  0  0  2  0  0  0  0  0  0
  -30.9320  -13.5830   19.9370 N   0  0  0  0  0  0  0  0  0  0  0  0
  -32.7180  -14.8450   19.2860 O   0  0  0  0  0  0  0  0  0  0  0  0
  -31.1980  -15.7330   20.6650 N   0  0  0  0  0  0  0  0  0  0  0  0
  -30.3420  -15.5760   21.1750 H   0  0  0  0  0  0  0  0  0  0  0  0
  -26.2370  -14.3250   20.2890 C   0  0  0  0  0  0  0  0  0  0  0  0
  -25.1220  -13.6420   20.6930 C   0  0  0  0  0  0  0  0  0  0  0  0
  -25.4540  -12.2560   20.6070 C   0  0  0  0  0  0  0  0  0  0  0  0
  -27.1850  -13.3590   19.9850 N   0  0  0  0  0  0  0  0  0  0  0  0
  -26.7180  -12.1080   20.2330 N   0  0  0  0  0  0  0  0  0  0  0  0
  -24.6260  -11.0600   20.8050 C   0  0  0  0  0  0  0  0  0  0  0  0
  -24.9660  -10.0760   21.7600 C   0  0  0  0  0  3  0  0  0  0  0  0
  -24.1430   -8.9440   21.9450 C   0  0  0  0  0  3  0  0  0  0  0  0
  -22.9660   -8.7880   21.1740 C   0  0  0  0  0  0  0  0  0  0  0  0
  -22.6450   -9.7600   20.2080 C   0  0  0  0  0  3  0  0  0  0  0  0
  -23.4670  -10.8820   20.0220 C   0  0  0  0  0  3  0  0  0  0  0  0
  -22.1210   -7.7090   21.2650 O   0  0  0  0  0  0  0  0  0  0  0  0
  -21.9160   -7.0540   22.4540 C   0  0  0  0  0  0  0  0  0  0  0  0
  -21.4170   -7.7180   23.5960 C   0  0  0  0  0  3  0  0  0  0  0  0
  -21.1570   -6.9920   24.7750 C   0  0  0  0  0  3  0  0  0  0  0  0
  -21.3870   -5.6040   24.8110 C   0  0  0  0  0  0  0  0  0  0  0  0
  -21.8790   -4.9400   23.6740 C   0  0  0  0  0  3  0  0  0  0  0  0
  -22.1400   -5.6630   22.4970 C   0  0  0  0  0  0  0  0  0  0  0  0
  -22.5940   -5.0150   21.3980 F   0  0  0  0  0  0  0  0  0  0  0  0
  -21.1300   -4.9040   25.9410 F   0  0  0  0  0  0  0  0  0  0  0  0
  -23.7890  -14.2370   21.0490 C   0  0  0  0  0  0  0  0  0  0  0  0
  -23.0490  -13.5940   21.9450 N   0  0  0  0  0  0  0  0  0  0  0  0
  -23.4180  -15.3060   20.5670 O   0  0  0  0  0  0  0  0  0  0  0  0
  -23.3600  -12.7280   22.3580 H   0  0  0  0  0  0  0  0  0  0  0  0
  -22.1530  -13.9730   22.2190 H   0  0  0  0  0  0  0  0  0  0  0  0
  -26.5170  -15.6790   20.1350 N   0  0  0  0  0  0  0  0  0  0  0  0
  -25.8140  -16.3940   20.2920 H   0  0  0  0  0  0  0  0  0  0  0  0
  -27.3840  -16.0530   19.7680 H   0  0  0  0  0  0  0  0  0  0  0  0
  -28.9290  -22.7260   21.8020 C   0  0  0  0  0  2  0  0  0  0  0  0
  -28.3600  -23.3400   20.5800 N   0  0  0  0  0  4  0  0  0  0  0  0
  -27.4750  -22.9060   20.3670 H   0  0  0  0  0  0  0  0  0  0  0  0
  -28.9860  -23.1490   19.8110 H   0  0  0  0  0  0  0  0  0  0  0  0
  -28.1570  -24.8050   20.6910 C   0  0  0  0  0  2  0  0  0  0  0  0
  -28.1190  -25.5070   19.3220 C   0  0  0  0  0  2  0  0  0  0  0  0
  -28.0900  -26.9220   19.5160 O   0  0  0  0  0  0  0  0  0  0  0  0
  -24.5080  -31.8670   23.1450 C   0  0  0  0  0  0  0  0  0  0  0  0
  -26.8880  -27.5870   19.6470 C   0  0  0  0  0  0  0  0  0  0  0  0
  -23.1830  -30.5920   21.4910 C   0  0  0  0  0  3  0  0  0  0  0  0
  -24.5200  -29.1150   19.9030 C   0  0  0  0  0  0  0  0  0  0  0  0
  -25.7000  -30.9160   21.1740 C   0  0  0  0  0  2  0  0  0  0  0  0
  -25.7190  -29.5850   20.4520 C   0  0  0  0  0  0  0  0  0  0  0  0
  -26.9020  -28.8290   20.3210 C   0  0  0  0  0  3  0  0  0  0  0  0
  -25.6620  -27.1190   19.1130 C   0  0  0  0  0  3  0  0  0  0  0  0
  -24.4850  -27.8800   19.2370 C   0  0  0  0  0  3  0  0  0  0  0  0
  -23.3010  -29.9940   20.0640 C   0  0  0  0  0  2  0  0  0  0  0  0
  -24.4860  -31.1360   21.9950 N   0  0  0  0  0  0  0  0  0  0  0  0
  -23.4650  -32.1270   23.7590 O   0  0  0  0  0  0  0  0  0  0  0  0
  -22.5630  -29.5260   22.4230 C   0  0  0  0  0  0  0  0  0  0  0  0
  -21.2410  -29.3290   22.3080 N   0  0  0  0  0  0  0  0  0  0  0  0
  -23.2680  -28.8790   23.2010 O   0  0  0  0  0  0  0  0  0  0  0  0
  -20.7310  -29.9060   21.6520 H   0  0  0  0  0  0  0  0  0  0  0  0
  -17.9010  -28.0240   22.7570 C   0  0  0  0  0  0  0  0  0  0  0  0
  -20.4470  -28.3530   23.0550 C   0  0  0  0  0  3  0  0  0  0  0  0
  -20.5980  -26.9370   22.4510 C   0  0  0  0  0  2  0  0  0  0  0  0
  -19.5130  -26.6010   21.4230 C   0  0  0  0  0  2  0  0  0  0  0  0
  -18.1230  -26.6940   22.0580 C   0  0  0  0  0  2  0  0  0  0  0  0
  -18.9930  -28.8100   23.2100 C   0  0  0  0  0  0  0  0  0  0  0  0
  -18.7330  -30.0570   23.8190 C   0  0  0  0  0  3  0  0  0  0  0  0
  -17.4130  -30.5180   23.9820 C   0  0  0  0  0  3  0  0  0  0  0  0
  -16.3350  -29.7270   23.5460 C   0  0  0  0  0  3  0  0  0  0  0  0
  -16.5790  -28.4830   22.9380 C   0  0  0  0  0  3  0  0  0  0  0  0
  -25.8420  -32.4330   23.7290 C   0  0  0  0  0  3  0  0  0  0  0  0
  -25.5870  -33.8190   24.1450 N   0  0  0  0  0  0  0  0  0  0  0  0
  -25.9350  -34.9010   23.4350 C   0  0  0  0  0  0  0  0  0  0  0  0
  -26.5750  -34.8350   22.3820 O   0  0  0  0  0  0  0  0  0  0  0  0
  -25.0200  -33.9470   24.9690 H   0  0  0  0  0  0  0  0  0  0  0  0
  -24.2650  -36.7680   23.2170 C   0  0  0  0  0  1  0  0  0  0  0  0
  -25.5040  -36.2740   23.9810 C   0  0  0  0  0  3  0  0  0  0  0  0
  -27.6800  -37.0380   24.8260 C   0  0  0  0  0  1  0  0  0  0  0  0
  -26.5710  -37.2960   23.9110 N   0  0  0  0  0  0  0  0  0  0  0  0
  -26.2000  -38.2210   24.1150 H   0  0  0  0  0  0  0  0  0  0  0  0
  -26.4040  -31.5810   24.9320 C   0  0  1  0  0  0  0  0  0  0  0  0
  -25.3640  -31.3130   26.0440 C   0  0  0  0  0  1  0  0  0  0  0  0
  -26.9270  -30.2140   24.4350 C   0  0  0  0  0  1  0  0  0  0  0  0
  -27.6090  -32.3110   25.5720 C   0  0  0  0  0  1  0  0  0  0  0  0
  1 49  1  0
  1  2  1  0
  3  4  2  0
  3  2  1  0
  4  6  1  0
  5  3  1  0
  7  4  1  0
  8  5  1  0
  9  5  1  0
 10  9  1  0
 11 17  1  0
 11 19  1  0
 12 17  1  0
 13 14  1  0
 13 12  1  0
 15 14  1  0
 15 24  1  0
 15 16  1  0
 17 16  1  0
 18 11  2  0
 19 10  1  0
 19 20  1  0
 21 22  2  0
 22 41  1  0
 23 22  1  0
 23 26  1  0
 24 25  1  0
 24 21  1  0
 25 23  2  0
 26 27  1  0
 27 28  2  0
 29 32  1  0
 29 28  1  0
 30 29  2  0
 31 30  1  0
 31 26  2  0
 32 33  1  0
 33 38  2  0
 33 34  1  0
 34 35  2  0
 35 36  1  0
 36 40  1  0
 37 36  2  0
 38 37  1  0
 39 38  1  0
 41 42  1  0
 42 45  1  0
 42 44  1  0
 43 41  2  0
 46 21  1  0
 46 47  1  0
 48 46  1  0
 50 53  1  0
 50 49  1  0
 51 50  1  0
 52 50  1  0
 54 55  1  0
 54 53  1  0
 55 57  1  0
 56 67  2  0
 57 62  1  0
 58 66  1  0
 58 68  1  0
 59 65  1  0
 59 61  1  0
 60 66  1  0
 61 60  1  0
 62 61  2  0
 63 64  1  0
 63 57  2  0
 64 59  2  0
 65 58  1  0
 66 56  1  0
 68 70  2  0
 69 68  1  0
 71 69  1  0
 72 81  2  0
 72 77  1  0
 73 69  1  0
 73 77  1  0
 74 73  1  0
 75 76  1  0
 75 74  1  0
 76 72  1  0
 77 78  2  0
 78 79  1  0
 80 79  2  0
 81 80  1  0
 82 56  1  0
 82 83  1  0
 82 92  1  0
 83 86  1  0
 84 88  1  0
 84 83  1  0
 85 84  2  0
 88 87  1  0
 90 88  1  0
 90 91  1  0
 90 89  1  0
 92 95  1  1
 92 93  1  0
 94 92  1  0
M  ISO  4  11 100  19 100  54 101  55 101
M  END
>  <TORSDO>  (83) 
F 24

>  <SCORE>  (83) 
-10.929

>  <name>  (83) 
82

>  <ligand_id>  (83) 
82

>  <original_smiles>  (83) 
[H]c1c([H])c([H])c2c(c1[H])C([H])([H])C([H])([H])C([H])([H])C2([H])N([H])C(=O)C1([H])N(C(=O)C([H])(N([H])C(=O)C([H])(N([H])C([H])([H])[H])C([H])([H])[H])C(C([H])([H])[H])(C([H])([H])[H])C([H])([H])[H])C([H])([H])c2c([H])c(OC([H])([H])C([H])([H])[N+]([H])([H])C([H])([H])C([H])([H])C([H])([H])C(N([H])[H])=[N+]([H])C([H])([H])C([H])([H])N([H])C(=O)N3C([H])([H])C([H])([H])C([H])([H])C([H])(n4nc(-c5c([H])c([H])c(Oc6c([H])c([H])c(F)c([H])c6F)c([H])c5[H])c(C(=O)N([H])[H])c4N([H])[H])C3([H])[H])c([H])c([H])c2C1([H])[H]

>  <smiles>  (83) 
[H]c1c([H])c([H])c2c(c1[H])C([H])([H])C([H])([H])C([H])([H])C2([H])N([H])C(=O)C1([H])N(C(=O)C([H])(N([H])C(=O)C([H])(N([H])C([H])([H])[H])C([H])([H])[H])C(C([H])([H])[H])(C([H])([H])[H])C([H])([H])[H])C([H])([H])c2c([H])c(OC([H])([H])C([H])([H])[N+]([H])([H])C([H])([H])C([H])([H])C([H])([H])C(N([H])[H])=[N+]([H])C([H])([H])C([H])([H])N([H])C(=O)N3C([H])([H])C([H])([H])C([H])([H])C([H])(n4nc(-c5c([H])c([H])c(Oc6c([H])c([H])c(F)c([H])c6F)c([H])c5[H])c(C(=O)N([H])[H])c4N([H])[H])C3([H])[H])c([H])c([H])c2C1([H])[H]

$$$$
83:0:0
     RDKit          3D

103111  0  0  1  0  0  0  0  0999 V2000
  -31.2370  -19.0610   22.2320 C   0  0  0  0  0  3  0  0  0  0  0  0
  -29.1230  -18.7590   21.0680 C   0  0  0  0  0  3  0  0  0  0  0  0
  -31.0210  -20.4580   22.2570 C   0  0  0  0  0  3  0  0  0  0  0  0
  -28.9070  -20.1620   21.0950 C   0  0  0  0  0  3  0  0  0  0  0  0
  -30.2990  -18.1930   21.6260 C   0  0  0  0  0  0  0  0  0  0  0  0
  -29.8620  -21.0330   21.6810 C   0  0  0  0  0  0  0  0  0  0  0  0
  -30.5300  -16.6680   21.6210 C   0  0  0  0  0  2  0  0  0  0  0  0
  -31.9570  -14.8760   20.6350 C   0  0  0  0  0  0  0  0  0  0  0  0
  -31.5570  -12.7920   19.3810 C   0  0  0  0  0  2  0  0  0  0  0  0
  -30.7130  -13.0940   18.1230 C   0  0  0  0  0  2  0  0  0  0  0  0
  -29.2000  -13.2630   18.4370 C   0  0  0  0  0  2  0  0  0  0  0  0
  -28.8740  -13.9860   19.7700 C   0  0  0  0  0  3  0  0  0  0  0  0
  -29.8270  -13.5420   20.8990 C   0  0  0  0  0  2  0  0  0  0  0  0
  -31.1930  -13.7700   20.4160 N   0  0  0  0  0  0  0  0  0  0  0  0
  -33.1800  -14.8450   20.4650 O   0  0  0  0  0  0  0  0  0  0  0  0
  -31.2890  -16.0740   20.4870 N   0  0  0  0  0  0  0  0  0  0  0  0
  -26.4910  -14.8180   20.2700 C   0  0  0  0  0  0  0  0  0  0  0  0
  -25.3270  -14.1520   20.5430 C   0  0  0  0  0  0  0  0  0  0  0  0
  -25.6690  -12.7700   20.5770 C   0  0  0  0  0  0  0  0  0  0  0  0
  -27.4680  -13.8440   20.1400 N   0  0  0  0  0  0  0  0  0  0  0  0
  -26.9740  -12.6090   20.3960 N   0  0  0  0  0  0  0  0  0  0  0  0
  -24.8230  -11.5790   20.7210 C   0  0  0  0  0  0  0  0  0  0  0  0
  -25.1820  -10.5240   21.5840 C   0  0  0  0  0  3  0  0  0  0  0  0
  -24.3440   -9.3980   21.7220 C   0  0  0  0  0  3  0  0  0  0  0  0
  -23.1320   -9.3220   20.9930 C   0  0  0  0  0  0  0  0  0  0  0  0
  -22.7930  -10.3660   20.1130 C   0  0  0  0  0  3  0  0  0  0  0  0
  -23.6340  -11.4850   19.9740 C   0  0  0  0  0  3  0  0  0  0  0  0
  -22.2660   -8.2590   21.0490 O   0  0  0  0  0  0  0  0  0  0  0  0
  -22.1480   -7.4860   22.1750 C   0  0  0  0  0  0  0  0  0  0  0  0
  -21.8570   -8.0450   23.4400 C   0  0  0  0  0  3  0  0  0  0  0  0
  -21.6750   -7.2030   24.5550 C   0  0  0  0  0  3  0  0  0  0  0  0
  -21.7740   -5.8050   24.4110 C   0  0  0  0  0  0  0  0  0  0  0  0
  -22.0580   -5.2500   23.1510 C   0  0  0  0  0  3  0  0  0  0  0  0
  -22.2390   -6.0870   22.0370 C   0  0  0  0  0  0  0  0  0  0  0  0
  -22.4890   -5.5460   20.8200 F   0  0  0  0  0  0  0  0  0  0  0  0
  -21.5950   -4.9930   25.4790 F   0  0  0  0  0  0  0  0  0  0  0  0
  -23.9590  -14.7640   20.6720 C   0  0  0  0  0  0  0  0  0  0  0  0
  -23.1300  -14.1890   21.5370 N   0  0  0  0  0  0  0  0  0  0  0  0
  -23.6400  -15.7730   20.0470 O   0  0  0  0  0  0  0  0  0  0  0  0
  -23.4080  -13.3690   22.0560 H   0  0  0  0  0  0  0  0  0  0  0  0
  -22.2100  -14.5770   21.6950 H   0  0  0  0  0  0  0  0  0  0  0  0
  -26.7950  -16.1620   20.1100 N   0  0  0  0  0  0  0  0  0  0  0  0
  -26.1520  -16.8590   20.4740 H   0  0  0  0  0  0  0  0  0  0  0  0
  -27.7430  -16.4980   20.0320 H   0  0  0  0  0  0  0  0  0  0  0  0
  -31.6420  -16.9970   19.3570 C   0  0  0  0  0  2  0  0  0  0  0  0
  -30.9890  -16.6520   17.9690 C   0  0  0  0  0  3  0  0  0  0  0  0
  -31.7830  -17.2890   16.7770 C   0  0  0  0  0  2  0  0  0  0  0  0
  -31.4250  -16.7920   15.4270 N   0  0  0  0  0  4  0  0  0  0  0  0
  -31.5650  -15.8000   15.3400 H   0  0  0  0  0  0  0  0  0  0  0  0
  -32.0310  -17.2250   14.7490 H   0  0  0  0  0  0  0  0  0  0  0  0
  -30.4870  -17.0230   15.1610 H   0  0  0  0  0  0  0  0  0  0  0  0
  -29.4510  -16.9120   17.9440 C   0  0  0  0  0  2  0  0  0  0  0  0
  -29.0510  -18.3290   17.8520 N   0  0  0  0  0  4  0  0  0  0  0  0
  -29.4650  -18.8920   18.5770 H   0  0  0  0  0  0  0  0  0  0  0  0
  -28.0520  -18.3930   17.9390 H   0  0  0  0  0  0  0  0  0  0  0  0
  -29.2830  -18.7240   16.9580 H   0  0  0  0  0  0  0  0  0  0  0  0
  -29.6000  -22.5540   21.8120 C   0  0  0  0  0  2  0  0  0  0  0  0
  -29.8290  -23.3650   20.5770 N   0  0  0  0  0  4  0  0  0  0  0  0
  -29.1440  -23.0790   19.8990 H   0  0  0  0  0  0  0  0  0  0  0  0
  -30.7300  -23.1170   20.1940 H   0  0  0  0  0  0  0  0  0  0  0  0
  -29.7190  -24.8580   20.7400 C   0  0  0  0  0  2  0  0  0  0  0  0
  -28.6840  -25.5170   19.7640 C   0  0  0  0  0  2  0  0  0  0  0  0
  -28.5210  -26.9500   19.9580 O   0  0  0  0  0  0  0  0  0  0  0  0
  -24.5050  -31.8750   23.1420 C   0  0  0  0  0  0  0  0  0  0  0  0
  -27.2910  -27.6020   19.9150 C   0  0  0  0  0  0  0  0  0  0  0  0
  -23.3190  -30.4840   21.4690 C   0  0  0  0  0  3  0  0  0  0  0  0
  -24.8120  -29.0200   19.9870 C   0  0  0  0  0  0  0  0  0  0  0  0
  -25.8360  -30.9190   21.2690 C   0  0  0  0  0  2  0  0  0  0  0  0
  -25.9570  -29.5780   20.5670 C   0  0  0  0  0  0  0  0  0  0  0  0
  -27.1870  -28.8840   20.5110 C   0  0  0  0  0  3  0  0  0  0  0  0
  -26.1280  -27.0720   19.3010 C   0  0  0  0  0  3  0  0  0  0  0  0
  -24.8990  -27.7680   19.3430 C   0  0  0  0  0  3  0  0  0  0  0  0
  -23.5400  -29.8380   20.0730 C   0  0  0  0  0  2  0  0  0  0  0  0
  -24.5660  -31.1140   22.0120 N   0  0  0  0  0  0  0  0  0  0  0  0
  -23.4260  -32.1040   23.7060 O   0  0  0  0  0  0  0  0  0  0  0  0
  -22.6990  -29.4310   22.4150 C   0  0  0  0  0  0  0  0  0  0  0  0
  -21.3780  -29.2200   22.2990 N   0  0  0  0  0  0  0  0  0  0  0  0
  -23.4070  -28.8040   23.2080 O   0  0  0  0  0  0  0  0  0  0  0  0
  -20.8620  -29.7770   21.6320 H   0  0  0  0  0  0  0  0  0  0  0  0
  -18.0410  -27.9090   22.7800 C   0  0  0  0  0  0  0  0  0  0  0  0
  -20.5920  -28.2400   23.0490 C   0  0  0  0  0  3  0  0  0  0  0  0
  -20.7350  -26.8270   22.4340 C   0  0  0  0  0  2  0  0  0  0  0  0
  -19.6370  -26.4970   21.4170 C   0  0  0  0  0  2  0  0  0  0  0  0
  -18.2560  -26.5820   22.0700 C   0  0  0  0  0  2  0  0  0  0  0  0
  -19.1380  -28.6960   23.2230 C   0  0  0  0  0  0  0  0  0  0  0  0
  -18.8810  -29.9410   23.8390 C   0  0  0  0  0  3  0  0  0  0  0  0
  -17.5610  -30.3920   24.0260 C   0  0  0  0  0  3  0  0  0  0  0  0
  -16.4800  -29.5990   23.6040 C   0  0  0  0  0  3  0  0  0  0  0  0
  -16.7210  -28.3610   22.9830 C   0  0  0  0  0  3  0  0  0  0  0  0
  -25.7860  -32.5150   23.7660 C   0  0  0  0  0  3  0  0  0  0  0  0
  -25.4680  -33.9100   24.0930 N   0  0  0  0  0  0  0  0  0  0  0  0
  -25.8360  -34.9680   23.3560 C   0  0  0  0  0  0  0  0  0  0  0  0
  -26.5510  -34.8700   22.3540 O   0  0  0  0  0  0  0  0  0  0  0  0
  -24.8370  -34.0600   24.8670 H   0  0  0  0  0  0  0  0  0  0  0  0
  -24.1430  -36.7750   22.9280 C   0  0  0  0  0  1  0  0  0  0  0  0
  -25.3310  -36.3530   23.8060 C   0  0  0  0  0  3  0  0  0  0  0  0
  -27.4160  -37.2150   24.7770 C   0  0  0  0  0  1  0  0  0  0  0  0
  -26.3730  -37.4010   23.7700 N   0  0  0  0  0  0  0  0  0  0  0  0
  -25.9620  -38.3210   23.8990 H   0  0  0  0  0  0  0  0  0  0  0  0
  -26.3080  -31.7490   25.0460 C   0  0  1  0  0  0  0  0  0  0  0  0
  -25.2160  -31.5280   26.1180 C   0  0  0  0  0  1  0  0  0  0  0  0
  -26.8850  -30.3640   24.6680 C   0  0  0  0  0  1  0  0  0  0  0  0
  -27.4630  -32.5470   25.6950 C   0  0  0  0  0  1  0  0  0  0  0  0
  1  3  1  0
  2  4  2  0
  2  5  1  0
  4  6  1  0
  5  1  2  0
  6 57  1  0
  6  3  2  0
  7  5  1  0
  9 14  1  0
 10 11  1  0
 10  9  1  0
 12 11  1  0
 12 20  1  0
 12 13  1  0
 14  8  1  0
 14 13  1  0
 15  8  2  0
 16  8  1  0
 16  7  1  0
 17 18  2  0
 18 19  1  0
 18 37  1  0
 19 22  1  0
 20 17  1  0
 20 21  1  0
 21 19  2  0
 22 23  1  0
 23 24  2  0
 25 28  1  0
 25 24  1  0
 26 25  2  0
 27 26  1  0
 27 22  2  0
 28 29  1  0
 29 30  1  0
 30 31  2  0
 32 31  1  0
 32 36  1  0
 33 32  2  0
 34 29  2  0
 34 33  1  0
 35 34  1  0
 37 38  1  0
 38 41  1  0
 38 40  1  0
 39 37  2  0
 42 17  1  0
 42 43  1  0
 44 42  1  0
 45 16  1  0
 46 45  1  0
 47 46  1  0
 48 47  1  0
 49 48  1  0
 50 48  1  0
 51 48  1  0
 52 46  1  0
 53 55  1  0
 53 52  1  0
 53 54  1  0
 56 53  1  0
 58 61  1  0
 58 57  1  0
 59 58  1  0
 60 58  1  0
 62 63  1  0
 62 61  1  0
 64 75  2  0
 65 63  1  0
 65 70  1  0
 66 74  1  0
 66 76  1  0
 67 73  1  0
 67 69  1  0
 68 74  1  0
 69 68  1  0
 70 69  2  0
 71 72  1  0
 71 65  2  0
 72 67  2  0
 73 66  1  0
 74 64  1  0
 76 78  2  0
 77 76  1  0
 79 77  1  0
 80 89  2  0
 80 85  1  0
 81 77  1  0
 81 85  1  0
 82 81  1  0
 83 84  1  0
 83 82  1  0
 84 80  1  0
 85 86  2  0
 86 87  1  0
 88 87  2  0
 89 88  1  0
 90 64  1  0
 90 91  1  0
 90100  1  0
 91 94  1  0
 92 96  1  0
 92 91  1  0
 93 92  2  0
 96 95  1  0
 98 96  1  0
 98 99  1  0
 98 97  1  0
100103  1  1
100101  1  0
102100  1  0
M  ISO  4   8 100  16 100  62 101  63 101
M  END
>  <TORSDO>  (84) 
F 27

>  <SCORE>  (84) 
-9.517

>  <name>  (84) 
83

>  <ligand_id>  (84) 
83

>  <original_smiles>  (84) 
[H]c1c([H])c([H])c2c(c1[H])C([H])([H])C([H])([H])C([H])([H])C2([H])N([H])C(=O)C1([H])N(C(=O)C([H])(N([H])C(=O)C([H])(N([H])C([H])([H])[H])C([H])([H])[H])C(C([H])([H])[H])(C([H])([H])[H])C([H])([H])[H])C([H])([H])c2c([H])c(OC([H])([H])C([H])([H])[N+]([H])([H])C([H])([H])c3c([H])c([H])c(C([H])([H])N(C(=O)N4C([H])([H])C([H])([H])C([H])([H])C([H])(n5nc(-c6c([H])c([H])c(Oc7c([H])c([H])c(F)c([H])c7F)c([H])c6[H])c(C(=O)N([H])[H])c5N([H])[H])C4([H])[H])C([H])([H])C([H])(C([H])([H])[N+]([H])([H])[H])C([H])([H])[N+]([H])([H])[H])c([H])c3[H])c([H])c([H])c2C1([H])[H]

>  <smiles>  (84) 
[H]c1c([H])c([H])c2c(c1[H])C([H])([H])C([H])([H])C([H])([H])C2([H])N([H])C(=O)C1([H])N(C(=O)C([H])(N([H])C(=O)C([H])(N([H])C([H])([H])[H])C([H])([H])[H])C(C([H])([H])[H])(C([H])([H])[H])C([H])([H])[H])C([H])([H])c2c([H])c(OC([H])([H])C([H])([H])[N+]([H])([H])C([H])([H])c3c([H])c([H])c(C([H])([H])N(C(=O)N4C([H])([H])C([H])([H])C([H])([H])C([H])(n5nc(-c6c([H])c([H])c(Oc7c([H])c([H])c(F)c([H])c7F)c([H])c6[H])c(C(=O)N([H])[H])c5N([H])[H])C4([H])[H])C([H])([H])C([H])(C([H])([H])[N+]([H])([H])[H])C([H])([H])[N+]([H])([H])[H])c([H])c3[H])c([H])c([H])c2C1([H])[H]

$$$$
84:0:0
     RDKit          3D

 89 97  0  0  1  0  0  0  0  0999 V2000
  -31.2490  -18.8070   20.5310 C   0  0  0  0  0  0  0  0  0  0  0  0
  -31.4380  -20.1600   21.2490 C   0  0  0  0  0  2  0  0  0  0  0  0
  -30.6680  -21.3720   20.6280 C   0  0  0  0  0  2  0  0  0  0  0  0
  -28.8560  -19.6890   20.1220 C   0  0  0  0  0  2  0  0  0  0  0  0
  -29.8260  -18.2650   20.5760 C   0  0  0  0  0  3  0  0  0  0  0  0
  -29.1800  -21.2590   20.5650 N   0  0  2  0  0  4  0  0  0  0  0  0
  -32.1870  -18.2700   19.9360 O   0  0  0  0  0  0  0  0  0  0  0  0
  -28.8680  -21.2780   21.5270 H   0  0  0  0  0  0  0  0  0  0  0  0
  -30.4000  -15.3320   20.2720 C   0  0  0  0  0  0  0  0  0  0  0  0
  -30.3630  -12.8930   19.3620 C   0  0  0  0  0  2  0  0  0  0  0  0
  -29.4270  -12.6860   18.1450 C   0  0  0  0  0  2  0  0  0  0  0  0
  -27.9780  -12.4250   18.5910 C   0  0  0  0  0  2  0  0  0  0  0  0
  -27.5450  -13.3650   19.7440 C   0  0  0  0  0  3  0  0  0  0  0  0
  -28.6120  -13.5110   20.8490 C   0  0  0  0  0  2  0  0  0  0  0  0
  -29.8220  -14.0320   20.1910 N   0  0  0  0  0  0  0  0  0  0  0  0
  -31.6290  -15.3100   20.1160 O   0  0  0  0  0  0  0  0  0  0  0  0
  -29.6330  -16.6060   20.3180 N   0  0  0  0  0  0  0  0  0  0  0  0
  -28.6490  -16.3830   20.2920 H   0  0  0  0  0  0  0  0  0  0  0  0
  -25.1840  -13.9100   20.5290 C   0  0  0  0  0  0  0  0  0  0  0  0
  -24.1290  -13.1260   20.9020 C   0  0  0  0  0  0  0  0  0  0  0  0
  -24.6000  -11.7780   20.8560 C   0  0  0  0  0  0  0  0  0  0  0  0
  -26.2260  -13.0390   20.2700 N   0  0  0  0  0  0  0  0  0  0  0  0
  -25.8890  -11.7500   20.5360 N   0  0  0  0  0  0  0  0  0  0  0  0
  -23.8780  -10.5120   21.0420 C   0  0  0  0  0  0  0  0  0  0  0  0
  -24.3130   -9.5410   21.9700 C   0  0  0  0  0  3  0  0  0  0  0  0
  -23.5890   -8.3420   22.1460 C   0  0  0  0  0  3  0  0  0  0  0  0
  -22.4140   -8.1060   21.3930 C   0  0  0  0  0  0  0  0  0  0  0  0
  -21.9960   -9.0660   20.4530 C   0  0  0  0  0  3  0  0  0  0  0  0
  -22.7230  -10.2560   20.2770 C   0  0  0  0  0  3  0  0  0  0  0  0
  -21.6600   -6.9610   21.4780 O   0  0  0  0  0  0  0  0  0  0  0  0
  -21.6080   -6.2160   22.6300 C   0  0  0  0  0  0  0  0  0  0  0  0
  -21.1700   -6.7680   23.8540 C   0  0  0  0  0  3  0  0  0  0  0  0
  -21.0690   -5.9510   24.9970 C   0  0  0  0  0  3  0  0  0  0  0  0
  -21.3910   -4.5830   24.9170 C   0  0  0  0  0  0  0  0  0  0  0  0
  -21.8190   -4.0300   23.6980 C   0  0  0  0  0  3  0  0  0  0  0  0
  -21.9240   -4.8450   22.5570 C   0  0  0  0  0  0  0  0  0  0  0  0
  -22.3190   -4.3030   21.3790 F   0  0  0  0  0  0  0  0  0  0  0  0
  -21.2850   -3.7960   26.0140 F   0  0  0  0  0  0  0  0  0  0  0  0
  -22.7310  -13.5960   21.1800 C   0  0  0  0  0  0  0  0  0  0  0  0
  -22.0090  -12.8880   22.0420 N   0  0  0  0  0  0  0  0  0  0  0  0
  -22.2890  -14.6250   20.6700 O   0  0  0  0  0  0  0  0  0  0  0  0
  -22.3820  -12.0560   22.4730 H   0  0  0  0  0  0  0  0  0  0  0  0
  -21.0720  -13.1820   22.2720 H   0  0  0  0  0  0  0  0  0  0  0  0
  -25.3380  -15.2830   20.3560 N   0  0  0  0  0  0  0  0  0  0  0  0
  -24.5700  -15.9340   20.4790 H   0  0  0  0  0  0  0  0  0  0  0  0
  -26.1620  -15.7200   19.9690 H   0  0  0  0  0  0  0  0  0  0  0  0
  -28.5610  -22.6940   19.9360 C   0  0  0  0  0  2  0  0  0  0  0  0
  -28.2180  -24.3070   20.6860 C   0  0  0  0  0  2  0  0  0  0  0  0
  -28.2870  -25.9180   20.2900 O   0  0  0  0  0  0  0  0  0  0  0  0
  -24.6200  -31.8710   23.2590 C   0  0  0  0  0  0  0  0  0  0  0  0
  -27.2370  -26.9810   20.3150 C   0  0  0  0  0  0  0  0  0  0  0  0
  -23.4490  -30.4500   21.6300 C   0  0  0  0  0  3  0  0  0  0  0  0
  -24.9180  -28.8360   20.2400 C   0  0  0  0  0  0  0  0  0  0  0  0
  -26.0140  -30.6820   21.4910 C   0  0  0  0  0  2  0  0  0  0  0  0
  -26.1010  -29.2630   20.8560 C   0  0  0  0  0  0  0  0  0  0  0  0
  -27.2570  -28.3600   20.8580 C   0  0  0  0  0  3  0  0  0  0  0  0
  -26.0170  -26.7000   19.6610 C   0  0  0  0  0  3  0  0  0  0  0  0
  -24.9000  -27.5760   19.6220 C   0  0  0  0  0  3  0  0  0  0  0  0
  -23.6920  -29.7500   20.2640 C   0  0  0  0  0  2  0  0  0  0  0  0
  -24.7170  -31.0280   22.1810 N   0  0  0  0  0  0  0  0  0  0  0  0
  -23.5230  -32.1570   23.7710 O   0  0  0  0  0  0  0  0  0  0  0  0
  -22.7520  -29.4600   22.5980 C   0  0  0  0  0  0  0  0  0  0  0  0
  -21.4250  -29.2830   22.4630 N   0  0  0  0  0  0  0  0  0  0  0  0
  -23.4150  -28.8480   23.4410 O   0  0  0  0  0  0  0  0  0  0  0  0
  -20.9410  -29.8270   21.7620 H   0  0  0  0  0  0  0  0  0  0  0  0
  -18.0510  -28.0410   22.9520 C   0  0  0  0  0  0  0  0  0  0  0  0
  -20.6040  -28.3460   23.2380 C   0  0  0  0  0  3  0  0  0  0  0  0
  -20.7310  -26.9070   22.6850 C   0  0  0  0  0  2  0  0  0  0  0  0
  -19.6440  -26.5560   21.6630 C   0  0  0  0  0  2  0  0  0  0  0  0
  -18.2550  -26.6880   22.2910 C   0  0  0  0  0  2  0  0  0  0  0  0
  -19.1540  -28.8260   23.3830 C   0  0  0  0  0  0  0  0  0  0  0  0
  -18.9080  -30.0890   23.9630 C   0  0  0  0  0  3  0  0  0  0  0  0
  -17.5930  -30.5690   24.1150 C   0  0  0  0  0  3  0  0  0  0  0  0
  -16.5060  -29.7830   23.6980 C   0  0  0  0  0  3  0  0  0  0  0  0
  -16.7350  -28.5200   23.1230 C   0  0  0  0  0  3  0  0  0  0  0  0
  -25.8800  -32.5320   23.8960 C   0  0  0  0  0  3  0  0  0  0  0  0
  -25.5530  -33.9360   24.2010 N   0  0  0  0  0  0  0  0  0  0  0  0
  -25.8900  -34.9860   23.4400 C   0  0  0  0  0  0  0  0  0  0  0  0
  -26.5740  -34.8740   22.4190 O   0  0  0  0  0  0  0  0  0  0  0  0
  -24.9450  -34.0930   24.9920 H   0  0  0  0  0  0  0  0  0  0  0  0
  -24.1620  -36.7780   23.0580 C   0  0  0  0  0  1  0  0  0  0  0  0
  -25.3970  -36.3800   23.8810 C   0  0  0  0  0  3  0  0  0  0  0  0
  -27.5220  -37.2830   24.7240 C   0  0  0  0  0  1  0  0  0  0  0  0
  -26.4270  -37.4360   23.7680 N   0  0  0  0  0  0  0  0  0  0  0  0
  -26.0170  -38.3560   23.9020 H   0  0  0  0  0  0  0  0  0  0  0  0
  -26.3710  -31.7930   25.2040 C   0  0  1  0  0  0  0  0  0  0  0  0
  -25.2550  -31.5810   26.2560 C   0  0  0  0  0  1  0  0  0  0  0  0
  -26.9630  -30.4070   24.8660 C   0  0  0  0  0  1  0  0  0  0  0  0
  -27.5060  -32.6060   25.8680 C   0  0  0  0  0  1  0  0  0  0  0  0
  1  5  1  0
  1  2  1  0
  3  2  1  0
  4  6  1  0
  4  5  1  0
  5 17  1  0
  6  3  1  0
  6  8  1  1
  7  1  2  0
  9 17  1  0
 10 15  1  0
 11 12  1  0
 11 10  1  0
 13 12  1  0
 13 22  1  0
 13 14  1  0
 15  9  1  0
 15 14  1  0
 16  9  2  0
 18 17  1  0
 19 20  2  0
 20 39  1  0
 21 20  1  0
 21 24  1  0
 22 19  1  0
 22 23  1  0
 23 21  2  0
 24 25  1  0
 25 26  2  0
 27 30  1  0
 27 26  1  0
 28 27  2  0
 29 28  1  0
 29 24  2  0
 30 31  1  0
 31 32  1  0
 32 33  2  0
 34 33  1  0
 34 38  1  0
 35 34  2  0
 36 31  2  0
 36 35  1  0
 37 36  1  0
 39 40  1  0
 40 43  1  0
 40 42  1  0
 41 39  2  0
 44 45  1  0
 44 19  1  0
 46 44  1  0
 47  6  1  0
 47 48  1  0
 49 51  1  0
 49 48  1  0
 50 61  2  0
 51 56  1  0
 52 60  1  0
 52 62  1  0
 53 59  1  0
 53 55  1  0
 54 60  1  0
 55 56  2  0
 55 54  1  0
 57 51  2  0
 58 57  1  0
 58 53  2  0
 59 52  1  0
 60 50  1  0
 62 64  2  0
 63 62  1  0
 65 63  1  0
 66 75  2  0
 66 71  1  0
 67 63  1  0
 67 71  1  0
 68 67  1  0
 69 70  1  0
 69 68  1  0
 70 66  1  0
 71 72  2  0
 72 73  1  0
 74 73  2  0
 75 74  1  0
 76 50  1  0
 76 77  1  0
 76 86  1  0
 77 80  1  0
 78 82  1  0
 78 77  1  0
 79 78  2  0
 82 81  1  0
 84 82  1  0
 84 85  1  0
 84 83  1  0
 86 89  1  1
 86 87  1  0
 88 86  1  0
M  ISO  4   9 100  17 100  48 101  49 101
M  END
>  <TORSDO>  (85) 
F 18

>  <SCORE>  (85) 
-16.743

>  <name>  (85) 
84

>  <ligand_id>  (85) 
84

>  <original_smiles>  (85) 
[H]c1c([H])c([H])c2c(c1[H])C([H])([H])C([H])([H])C([H])([H])C2([H])N([H])C(=O)C1([H])N(C(=O)C([H])(N([H])C(=O)C([H])(N([H])C([H])([H])[H])C([H])([H])[H])C(C([H])([H])[H])(C([H])([H])[H])C([H])([H])[H])C([H])([H])c2c([H])c(OC([H])([H])C([H])([H])[N+]3([H])C([H])([H])C([H])([H])C(=O)C([H])(N([H])C(=O)N4C([H])([H])C([H])([H])C([H])([H])C([H])(n5nc(-c6c([H])c([H])c(Oc7c([H])c([H])c(F)c([H])c7F)c([H])c6[H])c(C(=O)N([H])[H])c5N([H])[H])C4([H])[H])C3([H])[H])c([H])c([H])c2C1([H])[H]

>  <smiles>  (85) 
[H]c1c([H])c([H])c2c(c1[H])C([H])([H])C([H])([H])C([H])([H])C2([H])N([H])C(=O)C1([H])N(C(=O)C([H])(N([H])C(=O)C([H])(N([H])C([H])([H])[H])C([H])([H])[H])C(C([H])([H])[H])(C([H])([H])[H])C([H])([H])[H])C([H])([H])c2c([H])c(OC([H])([H])C([H])([H])[N+]3([H])C([H])([H])C([H])([H])C(=O)C([H])(N([H])C(=O)N4C([H])([H])C([H])([H])C([H])([H])C([H])(n5nc(-c6c([H])c([H])c(Oc7c([H])c([H])c(F)c([H])c7F)c([H])c6[H])c(C(=O)N([H])[H])c5N([H])[H])C4([H])[H])C3([H])[H])c([H])c([H])c2C1([H])[H]

$$$$
85:0:0
     RDKit          3D

106115  0  0  1  0  0  0  0  0999 V2000
  -29.7280  -17.0800   21.2630 C   0  0  0  0  0  2  0  0  0  0  0  0
  -32.0490  -17.4220   20.5000 C   0  0  0  0  0  2  0  0  0  0  0  0
  -29.4330  -18.5890   21.0830 C   0  0  0  0  0  2  0  0  0  0  0  0
  -31.7900  -18.9250   20.2850 C   0  0  0  0  0  2  0  0  0  0  0  0
  -30.7570  -16.6250   20.2170 C   0  0  0  0  0  3  0  0  0  0  0  0
  -30.6490  -19.4670   21.0770 N   0  0  1  0  0  4  0  0  0  0  0  0
  -30.9640  -19.4820   22.0390 H   0  0  0  0  0  0  0  0  0  0  0  0
  -31.3380  -14.3250   21.0480 C   0  0  0  0  0  0  0  0  0  0  0  0
  -31.0820  -11.9250   20.6220 C   0  0  0  0  0  2  0  0  0  0  0  0
  -30.4230  -11.7070   19.2380 C   0  0  0  0  0  2  0  0  0  0  0  0
  -28.8930  -11.8860   19.2620 C   0  0  0  0  0  2  0  0  0  0  0  0
  -28.3680  -13.0060   20.2100 C   0  0  0  0  0  3  0  0  0  0  0  0
  -29.1730  -13.1200   21.5170 C   0  0  0  0  0  2  0  0  0  0  0  0
  -30.5920  -13.1950   21.1610 N   0  0  0  0  0  0  0  0  0  0  0  0
  -32.5330  -14.3720   21.3340 O   0  0  0  0  0  0  0  0  0  0  0  0
  -30.9130  -15.1580   20.0520 N   0  0  0  0  0  0  0  0  0  0  0  0
  -25.9330  -13.8230   20.3520 C   0  0  0  0  0  0  0  0  0  0  0  0
  -24.7550  -13.1480   20.5350 C   0  0  0  0  0  0  0  0  0  0  0  0
  -25.1120  -11.7820   20.7280 C   0  0  0  0  0  0  0  0  0  0  0  0
  -26.9350  -12.8670   20.4380 N   0  0  0  0  0  0  0  0  0  0  0  0
  -26.4290  -11.6420   20.7270 N   0  0  0  0  0  0  0  0  0  0  0  0
  -24.2750  -10.5860   20.8650 C   0  0  0  0  0  0  0  0  0  0  0  0
  -24.6560   -9.5100   21.6960 C   0  0  0  0  0  3  0  0  0  0  0  0
  -23.8200   -8.3800   21.8250 C   0  0  0  0  0  3  0  0  0  0  0  0
  -22.5920   -8.3210   21.1230 C   0  0  0  0  0  0  0  0  0  0  0  0
  -22.2350   -9.3830   20.2730 C   0  0  0  0  0  3  0  0  0  0  0  0
  -23.0700  -10.5040   20.1420 C   0  0  0  0  0  3  0  0  0  0  0  0
  -21.7380   -7.2460   21.1620 O   0  0  0  0  0  0  0  0  0  0  0  0
  -21.5500   -6.5140   22.3040 C   0  0  0  0  0  0  0  0  0  0  0  0
  -21.2110   -7.1240   23.5330 C   0  0  0  0  0  3  0  0  0  0  0  0
  -20.9510   -6.3280   24.6660 C   0  0  0  0  0  3  0  0  0  0  0  0
  -21.0340   -4.9260   24.5760 C   0  0  0  0  0  0  0  0  0  0  0  0
  -21.3690   -4.3160   23.3520 C   0  0  0  0  0  3  0  0  0  0  0  0
  -21.6200   -5.1080   22.2200 C   0  0  0  0  0  0  0  0  0  0  0  0
  -21.9150   -4.5150   21.0380 F   0  0  0  0  0  0  0  0  0  0  0  0
  -20.7810   -4.1600   25.6640 F   0  0  0  0  0  0  0  0  0  0  0  0
  -23.3730  -13.7260   20.4370 C   0  0  0  0  0  0  0  0  0  0  0  0
  -22.4580  -13.2660   21.2820 N   0  0  0  0  0  0  0  0  0  0  0  0
  -23.1110  -14.6280   19.6440 O   0  0  0  0  0  0  0  0  0  0  0  0
  -22.6840  -12.5480   21.9530 H   0  0  0  0  0  0  0  0  0  0  0  0
  -21.5140  -13.6270   21.2520 H   0  0  0  0  0  0  0  0  0  0  0  0
  -26.2290  -15.1560   20.0850 N   0  0  0  0  0  0  0  0  0  0  0  0
  -25.4960  -15.8500   19.9920 H   0  0  0  0  0  0  0  0  0  0  0  0
  -27.1540  -15.5220   19.9060 H   0  0  0  0  0  0  0  0  0  0  0  0
  -31.4590  -14.8760   18.6950 C   0  0  0  0  0  2  0  0  0  0  0  0
  -30.7980  -15.6820   17.5410 C   0  0  0  0  0  2  0  0  0  0  0  0
  -32.6370  -17.4270   17.2710 C   0  0  0  0  0  3  0  0  0  0  0  0
  -31.8990  -16.2030   15.2990 C   0  0  0  0  0  3  0  0  0  0  0  0
  -33.6200  -18.0710   16.5060 C   0  0  0  0  0  3  0  0  0  0  0  0
  -32.8740  -16.8690   14.5270 C   0  0  0  0  0  3  0  0  0  0  0  0
  -31.7900  -16.4630   16.6840 C   0  0  0  0  0  0  0  0  0  0  0  0
  -33.7460  -17.8000   15.1300 C   0  0  0  0  0  0  0  0  0  0  0  0
  -34.8160  -18.4910   14.3040 C   0  0  0  0  0  2  0  0  0  0  0  0
  -35.9540  -17.5940   14.0750 N   0  0  0  0  0  4  0  0  0  0  0  0
  -36.4110  -17.3720   14.9410 H   0  0  0  0  0  0  0  0  0  0  0  0
  -36.6130  -18.0390   13.4670 H   0  0  0  0  0  0  0  0  0  0  0  0
  -35.6370  -16.7460   13.6400 H   0  0  0  0  0  0  0  0  0  0  0  0
  -30.3010  -20.8750   20.6950 C   0  0  0  0  0  2  0  0  0  0  0  0
  -31.3750  -21.9420   21.0640 C   0  0  0  0  0  2  0  0  0  0  0  0
  -30.8850  -23.2640   21.7230 C   0  0  0  0  0  2  0  0  0  0  0  0
  -30.4620  -24.3620   20.8060 N   0  0  0  0  0  4  0  0  0  0  0  0
  -29.6270  -24.0930   20.3070 H   0  0  0  0  0  0  0  0  0  0  0  0
  -31.1830  -24.5220   20.1180 H   0  0  0  0  0  0  0  0  0  0  0  0
  -30.2160  -25.6420   21.5490 C   0  0  0  0  0  2  0  0  0  0  0  0
  -29.7060  -26.8190   20.6930 C   0  0  0  0  0  2  0  0  0  0  0  0
  -28.4300  -26.4510   20.1770 O   0  0  0  0  0  0  0  0  0  0  0  0
  -24.6400  -31.8390   23.1480 C   0  0  0  0  0  0  0  0  0  0  0  0
  -27.3070  -27.2510   20.2850 C   0  0  0  0  0  0  0  0  0  0  0  0
  -23.4370  -30.3480   21.5870 C   0  0  0  0  0  3  0  0  0  0  0  0
  -24.8870  -28.7300   20.2610 C   0  0  0  0  0  0  0  0  0  0  0  0
  -25.9620  -30.6860   21.3800 C   0  0  0  0  0  2  0  0  0  0  0  0
  -26.0450  -29.2820   20.8200 C   0  0  0  0  0  0  0  0  0  0  0  0
  -27.2540  -28.5540   20.8430 C   0  0  0  0  0  3  0  0  0  0  0  0
  -26.1200  -26.7020   19.7510 C   0  0  0  0  0  3  0  0  0  0  0  0
  -24.9140  -27.4280   19.7400 C   0  0  0  0  0  3  0  0  0  0  0  0
  -23.6490  -29.5950   20.2480 C   0  0  0  0  0  2  0  0  0  0  0  0
  -24.6990  -30.9750   22.0960 N   0  0  0  0  0  0  0  0  0  0  0  0
  -23.5570  -32.1440   23.6660 O   0  0  0  0  0  0  0  0  0  0  0  0
  -22.7850  -29.3780   22.5970 C   0  0  0  0  0  0  0  0  0  0  0  0
  -21.4640  -29.1780   22.4630 N   0  0  0  0  0  0  0  0  0  0  0  0
  -23.4640  -28.8030   23.4520 O   0  0  0  0  0  0  0  0  0  0  0  0
  -20.9820  -29.6900   21.7360 H   0  0  0  0  0  0  0  0  0  0  0  0
  -18.0890  -28.0150   22.9920 C   0  0  0  0  0  0  0  0  0  0  0  0
  -20.6420  -28.2850   23.2750 C   0  0  0  0  0  3  0  0  0  0  0  0
  -20.7520  -26.8260   22.7780 C   0  0  0  0  0  2  0  0  0  0  0  0
  -19.6570  -26.4460   21.7750 C   0  0  0  0  0  2  0  0  0  0  0  0
  -18.2710  -26.6290   22.3960 C   0  0  0  0  0  2  0  0  0  0  0  0
  -19.2040  -28.7990   23.3900 C   0  0  0  0  0  0  0  0  0  0  0  0
  -18.9800  -30.0950   23.9040 C   0  0  0  0  0  3  0  0  0  0  0  0
  -17.6750  -30.6060   24.0290 C   0  0  0  0  0  3  0  0  0  0  0  0
  -16.5730  -29.8180   23.6500 C   0  0  0  0  0  3  0  0  0  0  0  0
  -16.7810  -28.5270   23.1370 C   0  0  0  0  0  3  0  0  0  0  0  0
  -25.9260  -32.5020   23.7340 C   0  0  0  0  0  3  0  0  0  0  0  0
  -25.5700  -33.8670   24.1340 N   0  0  0  0  0  0  0  0  0  0  0  0
  -25.8210  -34.9650   23.4050 C   0  0  0  0  0  0  0  0  0  0  0  0
  -26.4500  -34.9340   22.3430 O   0  0  0  0  0  0  0  0  0  0  0  0
  -25.0050  -33.9640   24.9650 H   0  0  0  0  0  0  0  0  0  0  0  0
  -24.0030  -36.6930   23.1860 C   0  0  0  0  0  1  0  0  0  0  0  0
  -25.2880  -36.3080   23.9390 C   0  0  0  0  0  3  0  0  0  0  0  0
  -27.3990  -37.2580   24.7580 C   0  0  0  0  0  1  0  0  0  0  0  0
  -26.2700  -37.4110   23.8440 N   0  0  0  0  0  0  0  0  0  0  0  0
  -25.8260  -38.3040   24.0370 H   0  0  0  0  0  0  0  0  0  0  0  0
  -26.5350  -31.7020   24.9490 C   0  0  1  0  0  0  0  0  0  0  0  0
  -25.4990  -31.3430   26.0400 C   0  0  0  0  0  1  0  0  0  0  0  0
  -27.1840  -30.3840   24.4650 C   0  0  0  0  0  1  0  0  0  0  0  0
  -27.6570  -32.5350   25.6170 C   0  0  0  0  0  1  0  0  0  0  0  0
  3  1  1  0
  4  2  1  0
  4  6  1  0
  5 16  1  0
  5  2  1  0
  5  1  1  0
  6  3  1  0
  6  7  1  1
  8 14  1  0
  8 15  2  0
  9 14  1  0
 10 11  1  0
 10  9  1  0
 12 11  1  0
 12 20  1  0
 12 13  1  0
 14 13  1  0
 16  8  1  0
 17 20  1  0
 17 18  2  0
 18 19  1  0
 19 22  1  0
 20 21  1  0
 21 19  2  0
 22 23  1  0
 23 24  2  0
 25 28  1  0
 25 24  1  0
 26 25  2  0
 27 26  1  0
 27 22  2  0
 28 29  1  0
 29 30  1  0
 30 31  2  0
 32 31  1  0
 32 36  1  0
 33 32  2  0
 34 29  2  0
 34 33  1  0
 35 34  1  0
 37 18  1  0
 37 38  1  0
 38 40  1  0
 39 37  2  0
 41 38  1  0
 42 17  1  0
 43 42  1  0
 44 42  1  0
 45 16  1  0
 46 45  1  0
 48 51  2  0
 49 47  2  0
 50 52  2  0
 50 48  1  0
 51 47  1  0
 51 46  1  0
 52 49  1  0
 53 52  1  0
 54 53  1  0
 54 55  1  0
 56 54  1  0
 57 54  1  0
 58 59  1  0
 58  6  1  0
 59 60  1  0
 61 64  1  0
 61 60  1  0
 62 61  1  0
 63 61  1  0
 65 64  1  0
 66 68  1  0
 66 65  1  0
 67 78  2  0
 68 73  1  0
 69 77  1  0
 69 79  1  0
 70 72  1  0
 71 77  1  0
 72 73  2  0
 72 71  1  0
 74 68  2  0
 75 74  1  0
 75 70  2  0
 76 70  1  0
 76 69  1  0
 77 67  1  0
 79 81  2  0
 80 79  1  0
 82 80  1  0
 83 92  2  0
 83 88  1  0
 84 80  1  0
 84 88  1  0
 85 84  1  0
 86 87  1  0
 86 85  1  0
 87 83  1  0
 88 89  2  0
 89 90  1  0
 91 90  2  0
 92 91  1  0
 93 67  1  0
 93 94  1  0
 93103  1  0
 94 97  1  0
 95 99  1  0
 95 94  1  0
 96 95  2  0
 99 98  1  0
101 99  1  0
101102  1  0
101100  1  0
103106  1  1
103104  1  0
105103  1  0
M  ISO  4   8 100  16 100  65 101  66 101
M  END
>  <TORSDO>  (86) 
F 27

>  <SCORE>  (86) 
-9.934

>  <name>  (86) 
85

>  <ligand_id>  (86) 
85

>  <original_smiles>  (86) 
[H]c1c([H])c([H])c2c(c1[H])C([H])([H])C([H])([H])C([H])([H])C2([H])N([H])C(=O)C1([H])N(C(=O)C([H])(N([H])C(=O)C([H])(N([H])C([H])([H])[H])C([H])([H])[H])C(C([H])([H])[H])(C([H])([H])[H])C([H])([H])[H])C([H])([H])c2c([H])c(OC([H])([H])C([H])([H])[N+]([H])([H])C([H])([H])C([H])([H])C([H])([H])[N+]3([H])C([H])([H])C([H])([H])C([H])(N(C(=O)N4C([H])([H])C([H])([H])C([H])([H])C([H])(n5nc(-c6c([H])c([H])c(Oc7c([H])c([H])c(F)c([H])c7F)c([H])c6[H])c(C(=O)N([H])[H])c5N([H])[H])C4([H])[H])C([H])([H])C([H])([H])c4c([H])c([H])c(C([H])([H])[N+]([H])([H])[H])c([H])c4[H])C([H])([H])C3([H])[H])c([H])c([H])c2C1([H])[H]

>  <smiles>  (86) 
[H]c1c([H])c([H])c2c(c1[H])C([H])([H])C([H])([H])C([H])([H])C2([H])N([H])C(=O)C1([H])N(C(=O)C([H])(N([H])C(=O)C([H])(N([H])C([H])([H])[H])C([H])([H])[H])C(C([H])([H])[H])(C([H])([H])[H])C([H])([H])[H])C([H])([H])c2c([H])c(OC([H])([H])C([H])([H])[N+]([H])([H])C([H])([H])C([H])([H])C([H])([H])[N+]3([H])C([H])([H])C([H])([H])C([H])(N(C(=O)N4C([H])([H])C([H])([H])C([H])([H])C([H])(n5nc(-c6c([H])c([H])c(Oc7c([H])c([H])c(F)c([H])c7F)c([H])c6[H])c(C(=O)N([H])[H])c5N([H])[H])C4([H])[H])C([H])([H])C([H])([H])c4c([H])c([H])c(C([H])([H])[N+]([H])([H])[H])c([H])c4[H])C([H])([H])C3([H])[H])c([H])c([H])c2C1([H])[H]

$$$$
86:0:0
     RDKit          3D

101111  0  0  1  0  0  0  0  0999 V2000
  -29.3780  -19.9660   21.1210 N   0  0  0  0  0  0  0  0  0  0  0  0
  -29.4720  -19.9760   22.5960 C   0  0  0  0  0  2  0  0  0  0  0  0
  -33.2660  -21.3790   24.2440 C   0  0  0  0  0  3  0  0  0  0  0  0
  -33.2650  -20.3930   23.2410 C   0  0  0  0  0  3  0  0  0  0  0  0
  -32.0460  -21.8660   24.7450 C   0  0  0  0  0  3  0  0  0  0  0  0
  -32.0490  -19.9120   22.7220 C   0  0  0  0  0  3  0  0  0  0  0  0
  -30.8290  -21.3870   24.2230 C   0  0  0  0  0  3  0  0  0  0  0  0
  -30.8140  -20.4280   23.1830 C   0  0  0  0  0  0  0  0  0  0  0  0
  -30.0920  -18.7250   20.5800 C   0  0  0  0  0  2  0  0  0  0  0  0
  -30.6770  -15.0540   20.1030 C   0  0  0  0  0  0  0  0  0  0  0  0
  -30.4360  -12.7930   19.0590 C   0  0  0  0  0  2  0  0  0  0  0  0
  -29.4250  -12.8250   17.8920 C   0  0  0  0  0  2  0  0  0  0  0  0
  -27.9810  -12.6680   18.4020 C   0  0  0  0  0  2  0  0  0  0  0  0
  -27.6720  -13.5050   19.6740 C   0  0  0  0  0  3  0  0  0  0  0  0
  -28.7990  -13.4310   20.7180 C   0  0  0  0  0  2  0  0  0  0  0  0
  -30.0270  -13.8380   20.0240 N   0  0  0  0  0  0  0  0  0  0  0  0
  -31.9010  -15.0620   19.9380 O   0  0  0  0  0  0  0  0  0  0  0  0
  -27.6290  -17.1200   17.9810 C   0  0  0  0  0  2  0  0  0  0  0  0
  -30.1970  -16.5720   18.2250 C   0  0  0  0  0  2  0  0  0  0  0  0
  -29.0730  -17.4920   17.8040 C   0  0  0  0  0  3  0  0  0  0  0  0
  -28.3550  -17.9050   19.0550 C   0  0  0  0  0  3  0  0  0  0  0  0
  -29.2380  -17.4020   20.1940 C   0  0  0  0  0  3  0  0  0  0  0  0
  -29.9910  -16.1810   19.6290 N   0  0  0  0  0  0  0  0  0  0  0  0
  -25.3210  -14.0650   20.5320 C   0  0  0  0  0  0  0  0  0  0  0  0
  -24.2730  -13.2700   20.9080 C   0  0  0  0  0  0  0  0  0  0  0  0
  -24.7400  -11.9250   20.8000 C   0  0  0  0  0  0  0  0  0  0  0  0
  -26.3570  -13.1990   20.2190 N   0  0  0  0  0  0  0  0  0  0  0  0
  -26.0160  -11.9050   20.4440 N   0  0  0  0  0  0  0  0  0  0  0  0
  -24.0290  -10.6500   20.9590 C   0  0  0  0  0  0  0  0  0  0  0  0
  -24.4410   -9.6890   21.9090 C   0  0  0  0  0  3  0  0  0  0  0  0
  -23.7290   -8.4810   22.0600 C   0  0  0  0  0  3  0  0  0  0  0  0
  -22.5910   -8.2240   21.2590 C   0  0  0  0  0  0  0  0  0  0  0  0
  -22.1990   -9.1720   20.2980 C   0  0  0  0  0  3  0  0  0  0  0  0
  -22.9130  -10.3720   20.1450 C   0  0  0  0  0  3  0  0  0  0  0  0
  -21.8530   -7.0660   21.3190 O   0  0  0  0  0  0  0  0  0  0  0  0
  -21.7010   -6.3690   22.4910 C   0  0  0  0  0  0  0  0  0  0  0  0
  -21.0960   -6.9470   23.6280 C   0  0  0  0  0  3  0  0  0  0  0  0
  -20.8960   -6.1730   24.7880 C   0  0  0  0  0  3  0  0  0  0  0  0
  -21.2930   -4.8230   24.8120 C   0  0  0  0  0  0  0  0  0  0  0  0
  -21.8900   -4.2450   23.6790 C   0  0  0  0  0  3  0  0  0  0  0  0
  -22.0910   -5.0150   22.5200 C   0  0  0  0  0  0  0  0  0  0  0  0
  -22.6480   -4.4470   21.4230 F   0  0  0  0  0  0  0  0  0  0  0  0
  -21.0940   -4.0770   25.9240 F   0  0  0  0  0  0  0  0  0  0  0  0
  -22.8860  -13.7260   21.2550 C   0  0  0  0  0  0  0  0  0  0  0  0
  -22.1940  -12.9850   22.1130 N   0  0  0  0  0  0  0  0  0  0  0  0
  -22.4250  -14.7730   20.8020 O   0  0  0  0  0  0  0  0  0  0  0  0
  -22.5820  -12.1370   22.5010 H   0  0  0  0  0  0  0  0  0  0  0  0
  -21.2640  -13.2690   22.3880 H   0  0  0  0  0  0  0  0  0  0  0  0
  -25.4720  -15.4430   20.4070 N   0  0  0  0  0  0  0  0  0  0  0  0
  -24.7080  -16.0870   20.5750 H   0  0  0  0  0  0  0  0  0  0  0  0
  -26.3110  -15.9010   20.0740 H   0  0  0  0  0  0  0  0  0  0  0  0
  -29.6560  -21.3570   20.5420 C   0  0  0  0  0  2  0  0  0  0  0  0
  -28.6860  -22.6120   20.9300 C   0  0  0  0  0  3  0  0  0  0  0  0
  -27.3320  -22.2290   20.5070 N   0  0  0  0  0  4  0  0  0  0  0  0
  -27.2180  -22.3180   19.5130 H   0  0  0  0  0  0  0  0  0  0  0  0
  -26.6360  -22.7810   20.9750 H   0  0  0  0  0  0  0  0  0  0  0  0
  -27.1920  -21.2650   20.7550 H   0  0  0  0  0  0  0  0  0  0  0  0
  -29.0110  -24.1400   20.4380 C   0  0  0  0  0  2  0  0  0  0  0  0
  -28.1900  -25.2700   21.0350 N   0  0  0  0  0  0  0  0  0  0  0  0
  -27.1990  -25.1410   20.8610 H   0  0  0  0  0  0  0  0  0  0  0  0
  -28.5110  -26.6430   20.4480 O   0  0  0  0  0  0  0  0  0  0  0  0
  -24.5450  -32.0360   23.3090 C   0  0  0  0  0  0  0  0  0  0  0  0
  -27.3910  -27.5000   20.4040 C   0  0  0  0  0  0  0  0  0  0  0  0
  -23.4430  -30.5910   21.6390 C   0  0  0  0  0  3  0  0  0  0  0  0
  -24.9900  -29.0640   20.2840 C   0  0  0  0  0  0  0  0  0  0  0  0
  -25.9790  -30.9710   21.5500 C   0  0  0  0  0  2  0  0  0  0  0  0
  -26.1220  -29.5840   20.9270 C   0  0  0  0  0  0  0  0  0  0  0  0
  -27.3250  -28.8090   20.9840 C   0  0  0  0  0  3  0  0  0  0  0  0
  -26.2430  -27.0450   19.7240 C   0  0  0  0  0  3  0  0  0  0  0  0
  -25.0520  -27.8000   19.6750 C   0  0  0  0  0  3  0  0  0  0  0  0
  -23.7300  -29.9080   20.2760 C   0  0  0  0  0  2  0  0  0  0  0  0
  -24.6720  -31.2190   22.2230 N   0  0  0  0  0  0  0  0  0  0  0  0
  -23.4360  -32.2890   23.8010 O   0  0  0  0  0  0  0  0  0  0  0  0
  -22.7720  -29.5650   22.5860 C   0  0  0  0  0  0  0  0  0  0  0  0
  -21.4530  -29.3640   22.4230 N   0  0  0  0  0  0  0  0  0  0  0  0
  -23.4390  -28.9550   23.4260 O   0  0  0  0  0  0  0  0  0  0  0  0
  -20.9730  -29.9080   21.7210 H   0  0  0  0  0  0  0  0  0  0  0  0
  -18.0710  -28.1720   22.9110 C   0  0  0  0  0  0  0  0  0  0  0  0
  -20.6330  -28.4120   23.1750 C   0  0  0  0  0  3  0  0  0  0  0  0
  -20.7240  -26.9940   22.5640 C   0  0  0  0  0  2  0  0  0  0  0  0
  -19.6160  -26.7010   21.5470 C   0  0  0  0  0  2  0  0  0  0  0  0
  -18.2380  -26.8390   22.2000 C   0  0  0  0  0  2  0  0  0  0  0  0
  -19.1970  -28.9170   23.3540 C   0  0  0  0  0  0  0  0  0  0  0  0
  -18.9870  -30.1660   23.9780 C   0  0  0  0  0  3  0  0  0  0  0  0
  -17.6860  -30.6710   24.1630 C   0  0  0  0  0  3  0  0  0  0  0  0
  -16.5750  -29.9220   23.7350 C   0  0  0  0  0  3  0  0  0  0  0  0
  -16.7690  -28.6740   23.1150 C   0  0  0  0  0  3  0  0  0  0  0  0
  -25.7860  -32.7110   23.9730 C   0  0  0  0  0  3  0  0  0  0  0  0
  -26.2710  -31.9720   25.2800 C   0  0  1  0  0  0  0  0  0  0  0  0
  -25.1380  -31.6960   26.2950 C   0  0  0  0  0  1  0  0  0  0  0  0
  -26.9300  -30.6180   24.9310 C   0  0  0  0  0  1  0  0  0  0  0  0
  -27.3540  -32.8180   25.9910 C   0  0  0  0  0  1  0  0  0  0  0  0
  -25.4270  -34.1050   24.2720 N   0  0  0  0  0  0  0  0  0  0  0  0
  -25.7720  -35.1600   23.5220 C   0  0  0  0  0  0  0  0  0  0  0  0
  -26.4960  -35.0640   22.5270 O   0  0  0  0  0  0  0  0  0  0  0  0
  -24.7910  -34.2520   25.0410 H   0  0  0  0  0  0  0  0  0  0  0  0
  -24.0400  -36.9220   23.0500 C   0  0  0  0  0  1  0  0  0  0  0  0
  -25.2310  -36.5400   23.9420 C   0  0  0  0  0  3  0  0  0  0  0  0
  -27.2870  -37.4700   24.9130 C   0  0  0  0  0  1  0  0  0  0  0  0
  -26.2500  -37.6130   23.8940 N   0  0  0  0  0  0  0  0  0  0  0  0
  -25.8160  -38.5250   24.0100 H   0  0  0  0  0  0  0  0  0  0  0  0
  1  2  1  0
  2  8  1  0
  3  5  1  0
  4  3  2  0
  6  8  2  0
  6  4  1  0
  7  5  2  0
  8  7  1  0
  9  1  1  0
 11 16  1  0
 12 13  1  0
 12 11  1  0
 14 13  1  0
 14 27  1  0
 14 15  1  0
 16 10  1  0
 16 15  1  0
 17 10  2  0
 19 23  1  0
 20 18  1  0
 20 19  1  0
 20 21  1  0
 21 18  1  0
 21 22  1  0
 22  9  1  0
 23 10  1  0
 23 22  1  0
 24 25  2  0
 25 44  1  0
 26 25  1  0
 26 29  1  0
 27 28  1  0
 27 24  1  0
 28 26  2  0
 29 30  1  0
 30 31  2  0
 32 35  1  0
 32 31  1  0
 33 32  2  0
 34 33  1  0
 34 29  2  0
 35 36  1  0
 36 41  2  0
 36 37  1  0
 37 38  2  0
 38 39  1  0
 39 43  1  0
 40 39  2  0
 41 40  1  0
 42 41  1  0
 44 45  1  0
 45 48  1  0
 45 47  1  0
 46 44  2  0
 49 24  1  0
 49 50  1  0
 51 49  1  0
 52 53  1  0
 52  1  1  0
 53 58  1  0
 54 57  1  0
 54 53  1  0
 54 56  1  0
 55 54  1  0
 58 59  1  0
 60 59  1  0
 61 59  1  0
 62 73  2  0
 63 61  1  0
 63 68  1  0
 64 72  1  0
 64 74  1  0
 65 67  1  0
 66 72  1  0
 67 68  2  0
 67 66  1  0
 69 63  2  0
 70 69  1  0
 70 65  2  0
 71 65  1  0
 71 64  1  0
 72 62  1  0
 74 76  2  0
 75 74  1  0
 77 75  1  0
 78 87  2  0
 78 83  1  0
 79 75  1  0
 79 83  1  0
 80 79  1  0
 81 82  1  0
 81 80  1  0
 82 78  1  0
 83 84  2  0
 84 85  1  0
 86 85  2  0
 87 86  1  0
 88 62  1  0
 88 93  1  0
 88 89  1  0
 89 92  1  1
 89 90  1  0
 91 89  1  0
 93 96  1  0
 94 98  1  0
 94 93  1  0
 95 94  2  0
 98 97  1  0
100 98  1  0
100101  1  0
100 99  1  0
M  ISO  4  10 100  23 100  59 101  61 101
M  END
>  <TORSDO>  (87) 
F 24

>  <SCORE>  (87) 
-9.425

>  <name>  (87) 
86

>  <ligand_id>  (87) 
86

>  <original_smiles>  (87) 
[H]c1c([H])c([H])c(C([H])([H])N(C([H])([H])C2([H])N(C(=O)N3C([H])([H])C([H])([H])C([H])([H])C([H])(n4nc(-c5c([H])c([H])c(Oc6c([H])c([H])c(F)c([H])c6F)c([H])c5[H])c(C(=O)N([H])[H])c4N([H])[H])C3([H])[H])C([H])([H])C3([H])C([H])([H])C23[H])C([H])([H])C([H])(C([H])([H])N([H])Oc2c([H])c([H])c3c(c2[H])C([H])([H])N(C(=O)C([H])(N([H])C(=O)C([H])(N([H])C([H])([H])[H])C([H])([H])[H])C(C([H])([H])[H])(C([H])([H])[H])C([H])([H])[H])C([H])(C(=O)N([H])C2([H])c4c([H])c([H])c([H])c([H])c4C([H])([H])C([H])([H])C2([H])[H])C3([H])[H])[N+]([H])([H])[H])c([H])c1[H]

>  <smiles>  (87) 
[H]c1c([H])c([H])c(C([H])([H])N(C([H])([H])C2([H])N(C(=O)N3C([H])([H])C([H])([H])C([H])([H])C([H])(n4nc(-c5c([H])c([H])c(Oc6c([H])c([H])c(F)c([H])c6F)c([H])c5[H])c(C(=O)N([H])[H])c4N([H])[H])C3([H])[H])C([H])([H])C3([H])C([H])([H])C23[H])C([H])([H])C([H])(C([H])([H])N([H])Oc2c([H])c([H])c3c(c2[H])C([H])([H])N(C(=O)C([H])(N([H])C(=O)C([H])(N([H])C([H])([H])[H])C([H])([H])[H])C(C([H])([H])[H])(C([H])([H])[H])C([H])([H])[H])C([H])(C(=O)N([H])C2([H])c4c([H])c([H])c([H])c([H])c4C([H])([H])C([H])([H])C2([H])[H])C3([H])[H])[N+]([H])([H])[H])c([H])c1[H]

$$$$
87:0:0
     RDKit          3D

 97105  0  0  1  0  0  0  0  0999 V2000
  -27.4590  -21.8420   16.9520 C   0  0  0  0  0  2  0  0  0  0  0  0
  -29.0430  -21.0950   18.6160 C   0  0  0  0  0  2  0  0  0  0  0  0
  -27.4830  -19.5580   17.6900 C   0  0  0  0  0  2  0  0  0  0  0  0
  -29.2360  -20.1990   19.8550 C   0  0  0  0  0  2  0  0  0  0  0  0
  -27.6480  -18.6200   18.9040 C   0  0  0  0  0  2  0  0  0  0  0  0
  -27.6750  -20.9560   18.0990 N   0  0  0  0  0  0  0  0  0  0  0  0
  -28.9930  -18.7740   19.5160 N   0  0  2  0  0  4  0  0  0  0  0  0
  -29.6530  -18.5260   18.7950 H   0  0  0  0  0  0  0  0  0  0  0  0
  -29.2080  -17.8440   20.6540 C   0  0  0  0  0  2  0  0  0  0  0  0
  -30.6990  -17.6670   21.0210 C   0  0  0  0  0  2  0  0  0  0  0  0
  -30.9640  -16.5700   22.0750 C   0  0  0  0  0  2  0  0  0  0  0  0
  -31.0070  -14.4460   20.7670 C   0  0  0  0  0  0  0  0  0  0  0  0
  -30.6740  -12.4270   19.3970 C   0  0  0  0  0  2  0  0  0  0  0  0
  -29.7730  -12.7380   18.1860 C   0  0  0  0  0  2  0  0  0  0  0  0
  -28.2860  -12.5970   18.5610 C   0  0  0  0  0  2  0  0  0  0  0  0
  -27.9250  -13.3600   19.8630 C   0  0  0  0  0  3  0  0  0  0  0  0
  -28.9330  -13.0270   20.9850 C   0  0  0  0  0  2  0  0  0  0  0  0
  -30.2920  -13.3250   20.4940 N   0  0  0  0  0  0  0  0  0  0  0  0
  -32.0670  -14.7350   20.2060 O   0  0  0  0  0  0  0  0  0  0  0  0
  -30.4550  -15.2600   21.6750 N   0  0  0  0  0  0  0  0  0  0  0  0
  -29.6120  -14.9280   22.1230 H   0  0  0  0  0  0  0  0  0  0  0  0
  -25.4850  -13.9630   20.4290 C   0  0  0  0  0  0  0  0  0  0  0  0
  -24.4050  -13.1900   20.7620 C   0  0  0  0  0  0  0  0  0  0  0  0
  -24.8790  -11.8430   20.7850 C   0  0  0  0  0  0  0  0  0  0  0  0
  -26.5490  -13.0870   20.2740 N   0  0  0  0  0  0  0  0  0  0  0  0
  -26.1820  -11.8080   20.5420 N   0  0  0  0  0  0  0  0  0  0  0  0
  -24.1560  -10.5780   20.9690 C   0  0  0  0  0  0  0  0  0  0  0  0
  -24.5200   -9.6580   21.9780 C   0  0  0  0  0  3  0  0  0  0  0  0
  -23.7970   -8.4570   22.1450 C   0  0  0  0  0  3  0  0  0  0  0  0
  -22.6990   -8.1660   21.3020 C   0  0  0  0  0  0  0  0  0  0  0  0
  -22.3550   -9.0740   20.2850 C   0  0  0  0  0  3  0  0  0  0  0  0
  -23.0780  -10.2670   20.1160 C   0  0  0  0  0  3  0  0  0  0  0  0
  -21.9550   -7.0130   21.3740 O   0  0  0  0  0  0  0  0  0  0  0  0
  -21.7780   -6.3440   22.5590 C   0  0  0  0  0  0  0  0  0  0  0  0
  -21.1570   -6.9530   23.6710 C   0  0  0  0  0  3  0  0  0  0  0  0
  -20.9310   -6.2080   24.8470 C   0  0  0  0  0  3  0  0  0  0  0  0
  -21.3170   -4.8550   24.9080 C   0  0  0  0  0  0  0  0  0  0  0  0
  -21.9300   -4.2470   23.7990 C   0  0  0  0  0  3  0  0  0  0  0  0
  -22.1570   -4.9880   22.6270 C   0  0  0  0  0  0  0  0  0  0  0  0
  -22.7290   -4.3920   21.5540 F   0  0  0  0  0  0  0  0  0  0  0  0
  -21.0930   -4.1370   26.0330 F   0  0  0  0  0  0  0  0  0  0  0  0
  -22.9930  -13.6590   20.9560 C   0  0  0  0  0  0  0  0  0  0  0  0
  -22.2290  -12.9740   21.8000 N   0  0  0  0  0  0  0  0  0  0  0  0
  -22.5720  -14.6710   20.3960 O   0  0  0  0  0  0  0  0  0  0  0  0
  -22.5800  -12.1550   22.2740 H   0  0  0  0  0  0  0  0  0  0  0  0
  -21.2800  -13.2710   21.9740 H   0  0  0  0  0  0  0  0  0  0  0  0
  -25.6470  -15.3300   20.2290 N   0  0  0  0  0  0  0  0  0  0  0  0
  -24.8710  -15.9810   20.2860 H   0  0  0  0  0  0  0  0  0  0  0  0
  -26.5130  -15.7630   19.9400 H   0  0  0  0  0  0  0  0  0  0  0  0
  -27.3890  -23.3220   17.3820 C   0  0  0  0  0  2  0  0  0  0  0  0
  -28.5760  -24.1630   16.8700 C   0  0  0  0  0  2  0  0  0  0  0  0
  -28.4490  -25.6010   17.2050 N   0  0  0  0  0  4  0  0  0  0  0  0
  -27.4820  -25.8440   17.3510 H   0  0  0  0  0  0  0  0  0  0  0  0
  -28.7350  -26.0990   16.3750 H   0  0  0  0  0  0  0  0  0  0  0  0
  -29.3120  -26.1120   18.3020 C   0  0  0  0  0  2  0  0  0  0  0  0
  -28.8980  -25.6740   19.7240 C   0  0  0  0  0  2  0  0  0  0  0  0
  -28.6470  -26.8110   20.5500 O   0  0  0  0  0  0  0  0  0  0  0  0
  -24.6700  -31.9660   23.3580 C   0  0  0  0  0  0  0  0  0  0  0  0
  -27.4330  -27.4640   20.4820 C   0  0  0  0  0  0  0  0  0  0  0  0
  -23.5140  -30.5010   21.7350 C   0  0  0  0  0  3  0  0  0  0  0  0
  -25.0120  -28.9280   20.4010 C   0  0  0  0  0  0  0  0  0  0  0  0
  -26.0380  -30.8770   21.5860 C   0  0  0  0  0  2  0  0  0  0  0  0
  -26.1490  -29.4850   20.9990 C   0  0  0  0  0  0  0  0  0  0  0  0
  -27.3560  -28.7560   21.0460 C   0  0  0  0  0  3  0  0  0  0  0  0
  -26.2690  -26.9090   19.8920 C   0  0  0  0  0  3  0  0  0  0  0  0
  -25.0660  -27.6360   19.8530 C   0  0  0  0  0  3  0  0  0  0  0  0
  -23.7610  -29.7750   20.3840 C   0  0  0  0  0  2  0  0  0  0  0  0
  -24.7570  -31.1300   22.2850 N   0  0  0  0  0  0  0  0  0  0  0  0
  -23.5740  -32.2480   23.8620 O   0  0  0  0  0  0  0  0  0  0  0  0
  -22.8480  -29.5060   22.7130 C   0  0  0  0  0  0  0  0  0  0  0  0
  -21.5360  -29.2810   22.5340 N   0  0  0  0  0  0  0  0  0  0  0  0
  -23.5100  -28.9380   23.5850 O   0  0  0  0  0  0  0  0  0  0  0  0
  -21.0640  -29.7940   21.8030 H   0  0  0  0  0  0  0  0  0  0  0  0
  -18.1750  -28.0200   22.9330 C   0  0  0  0  0  0  0  0  0  0  0  0
  -20.7090  -28.3600   23.3120 C   0  0  0  0  0  3  0  0  0  0  0  0
  -20.8750  -26.9060   22.8110 C   0  0  0  0  0  2  0  0  0  0  0  0
  -19.8320  -26.5050   21.7630 C   0  0  0  0  0  2  0  0  0  0  0  0
  -18.4180  -26.6440   22.3320 C   0  0  0  0  0  2  0  0  0  0  0  0
  -19.2530  -28.8310   23.3770 C   0  0  0  0  0  0  0  0  0  0  0  0
  -18.9740  -30.1160   23.8930 C   0  0  0  0  0  3  0  0  0  0  0  0
  -17.6520  -30.5890   23.9710 C   0  0  0  0  0  3  0  0  0  0  0  0
  -16.5880  -29.7750   23.5440 C   0  0  0  0  0  3  0  0  0  0  0  0
  -16.8510  -28.4930   23.0310 C   0  0  0  0  0  3  0  0  0  0  0  0
  -25.9360  -32.6270   23.9870 C   0  0  0  0  0  3  0  0  0  0  0  0
  -26.4380  -31.8930   25.2900 C   0  0  1  0  0  0  0  0  0  0  0  0
  -25.3230  -31.6430   26.3320 C   0  0  0  0  0  1  0  0  0  0  0  0
  -27.0700  -30.5270   24.9380 C   0  0  0  0  0  1  0  0  0  0  0  0
  -27.5470  -32.7310   25.9690 C   0  0  0  0  0  1  0  0  0  0  0  0
  -25.6070  -34.0290   24.2730 N   0  0  0  0  0  0  0  0  0  0  0  0
  -25.9390  -35.0630   23.4870 C   0  0  0  0  0  0  0  0  0  0  0  0
  -26.6260  -34.9370   22.4690 O   0  0  0  0  0  0  0  0  0  0  0  0
  -25.0020  -34.2010   25.0620 H   0  0  0  0  0  0  0  0  0  0  0  0
  -24.1980  -36.8230   23.0480 C   0  0  0  0  0  1  0  0  0  0  0  0
  -25.4270  -36.4570   23.8950 C   0  0  0  0  0  3  0  0  0  0  0  0
  -27.5310  -37.3970   24.7440 C   0  0  0  0  0  1  0  0  0  0  0  0
  -26.4490  -37.5190   23.7710 N   0  0  0  0  0  0  0  0  0  0  0  0
  -26.0290  -38.4380   23.8770 H   0  0  0  0  0  0  0  0  0  0  0  0
  1 50  1  0
  1  6  1  0
  2  4  1  0
  3  6  1  0
  3  5  1  0
  5  7  1  0
  6  2  1  0
  7  4  1  0
  7  9  1  0
  7  8  1  6
  9 10  1  0
 10 11  1  0
 12 20  1  0
 13 18  1  0
 14 15  1  0
 14 13  1  0
 16 15  1  0
 16 25  1  0
 16 17  1  0
 18 12  1  0
 18 17  1  0
 19 12  2  0
 20 11  1  0
 20 21  1  0
 22 23  2  0
 23 24  1  0
 23 42  1  0
 24 27  1  0
 25 22  1  0
 25 26  1  0
 26 24  2  0
 27 28  1  0
 28 29  2  0
 30 33  1  0
 30 29  1  0
 31 30  2  0
 32 31  1  0
 32 27  2  0
 33 34  1  0
 34 39  2  0
 34 35  1  0
 35 36  2  0
 36 37  1  0
 37 41  1  0
 38 37  2  0
 39 38  1  0
 40 39  1  0
 42 43  1  0
 43 46  1  0
 43 45  1  0
 44 42  2  0
 47 48  1  0
 47 22  1  0
 49 47  1  0
 51 52  1  0
 51 50  1  0
 52 53  1  0
 52 55  1  0
 54 52  1  0
 55 56  1  0
 56 57  1  0
 58 69  2  0
 59 57  1  0
 59 64  1  0
 60 68  1  0
 60 70  1  0
 61 63  1  0
 62 68  1  0
 63 64  2  0
 63 62  1  0
 65 59  2  0
 66 65  1  0
 66 61  2  0
 67 61  1  0
 67 60  1  0
 68 58  1  0
 70 72  2  0
 71 70  1  0
 73 71  1  0
 74 83  2  0
 74 79  1  0
 75 71  1  0
 75 79  1  0
 76 75  1  0
 77 78  1  0
 77 76  1  0
 78 74  1  0
 79 80  2  0
 80 81  1  0
 82 81  2  0
 83 82  1  0
 84 58  1  0
 84 89  1  0
 84 85  1  0
 85 88  1  1
 85 86  1  0
 87 85  1  0
 89 92  1  0
 90 94  1  0
 90 89  1  0
 91 90  2  0
 94 93  1  0
 96 97  1  0
 96 94  1  0
 96 95  1  0
M  ISO  4  12 100  20 100  56 101  57 101
M  END
>  <TORSDO>  (88) 
F 25

>  <SCORE>  (88) 
-11.172

>  <name>  (88) 
87

>  <ligand_id>  (88) 
87

>  <original_smiles>  (88) 
[H]c1c([H])c([H])c2c(c1[H])C([H])([H])C([H])([H])C([H])([H])C2([H])N([H])C(=O)C1([H])N(C(=O)C([H])(N([H])C(=O)C([H])(N([H])C([H])([H])[H])C([H])([H])[H])C(C([H])([H])[H])(C([H])([H])[H])C([H])([H])[H])C([H])([H])c2c([H])c(OC([H])([H])C([H])([H])[N+]([H])([H])C([H])([H])C([H])([H])C([H])([H])N3C([H])([H])C([H])([H])[N+]([H])(C([H])([H])C([H])([H])C([H])([H])N([H])C(=O)N4C([H])([H])C([H])([H])C([H])([H])C([H])(n5nc(-c6c([H])c([H])c(Oc7c([H])c([H])c(F)c([H])c7F)c([H])c6[H])c(C(=O)N([H])[H])c5N([H])[H])C4([H])[H])C([H])([H])C3([H])[H])c([H])c([H])c2C1([H])[H]

>  <smiles>  (88) 
[H]c1c([H])c([H])c2c(c1[H])C([H])([H])C([H])([H])C([H])([H])C2([H])N([H])C(=O)C1([H])N(C(=O)C([H])(N([H])C(=O)C([H])(N([H])C([H])([H])[H])C([H])([H])[H])C(C([H])([H])[H])(C([H])([H])[H])C([H])([H])[H])C([H])([H])c2c([H])c(OC([H])([H])C([H])([H])[N+]([H])([H])C([H])([H])C([H])([H])C([H])([H])N3C([H])([H])C([H])([H])[N+]([H])(C([H])([H])C([H])([H])C([H])([H])N([H])C(=O)N4C([H])([H])C([H])([H])C([H])([H])C([H])(n5nc(-c6c([H])c([H])c(Oc7c([H])c([H])c(F)c([H])c7F)c([H])c6[H])c(C(=O)N([H])[H])c5N([H])[H])C4([H])[H])C([H])([H])C3([H])[H])c([H])c([H])c2C1([H])[H]

$$$$
88:0:0
     RDKit          3D

102111  0  0  1  0  0  0  0  0999 V2000
  -29.6860  -19.4030   19.7810 C   0  0  0  0  0  0  0  0  0  0  0  0
  -29.3750  -21.7140   16.8070 C   0  0  0  0  0  2  0  0  0  0  0  0
  -28.0090  -21.8300   17.4570 C   0  0  0  0  0  2  0  0  0  0  0  0
  -30.0640  -20.5650   17.5330 C   0  0  0  0  0  2  0  0  0  0  0  0
  -28.1650  -21.1960   18.8560 C   0  0  0  0  0  3  0  0  0  0  0  0
  -29.3750  -20.3270   18.8100 N   0  0  0  0  0  0  0  0  0  0  0  0
  -28.8870  -19.2190   20.7040 O   0  0  0  0  0  0  0  0  0  0  0  0
  -28.0360  -22.1930   20.0490 C   0  0  0  0  0  0  0  0  0  0  0  0
  -28.3360  -23.5050   19.9130 N   0  0  0  0  0  0  0  0  0  0  0  0
  -27.5720  -21.7760   21.1120 O   0  0  0  0  0  0  0  0  0  0  0  0
  -28.6750  -23.8500   19.0230 H   0  0  0  0  0  0  0  0  0  0  0  0
  -28.0950  -24.4820   20.9960 C   0  0  0  0  0  2  0  0  0  0  0  0
  -28.9860  -25.7520   21.0170 C   0  0  0  0  0  2  0  0  0  0  0  0
  -28.6710  -26.8130   20.1140 O   0  0  0  0  0  0  0  0  0  0  0  0
  -24.6800  -31.9360   23.2730 C   0  0  0  0  0  0  0  0  0  0  0  0
  -27.4770  -27.4860   20.2770 C   0  0  0  0  0  0  0  0  0  0  0  0
  -23.5420  -30.4830   21.6250 C   0  0  0  0  0  3  0  0  0  0  0  0
  -25.0500  -28.9340   20.2720 C   0  0  0  0  0  0  0  0  0  0  0  0
  -26.0660  -30.8720   21.4830 C   0  0  0  0  0  2  0  0  0  0  0  0
  -26.1910  -29.4820   20.8820 C   0  0  0  0  0  0  0  0  0  0  0  0
  -27.4080  -28.7630   20.8880 C   0  0  0  0  0  3  0  0  0  0  0  0
  -26.3260  -26.9580   19.6670 C   0  0  0  0  0  3  0  0  0  0  0  0
  -25.1070  -27.6660   19.6690 C   0  0  0  0  0  3  0  0  0  0  0  0
  -23.7950  -29.7740   20.2670 C   0  0  0  0  0  2  0  0  0  0  0  0
  -24.7810  -31.1140   22.1860 N   0  0  0  0  0  0  0  0  0  0  0  0
  -23.5820  -32.2020   23.7820 O   0  0  0  0  0  0  0  0  0  0  0  0
  -22.8850  -29.4700   22.5920 C   0  0  0  0  0  0  0  0  0  0  0  0
  -21.5640  -29.2830   22.4520 N   0  0  0  0  0  0  0  0  0  0  0  0
  -23.5650  -28.8570   23.4160 O   0  0  0  0  0  0  0  0  0  0  0  0
  -21.0870  -29.8400   21.7580 H   0  0  0  0  0  0  0  0  0  0  0  0
  -18.1820  -28.1070   22.9460 C   0  0  0  0  0  0  0  0  0  0  0  0
  -20.7430  -28.3480   23.2180 C   0  0  0  0  0  3  0  0  0  0  0  0
  -20.8320  -26.9170   22.6340 C   0  0  0  0  0  2  0  0  0  0  0  0
  -19.7230  -26.6060   21.6220 C   0  0  0  0  0  2  0  0  0  0  0  0
  -18.3450  -26.7570   22.2690 C   0  0  0  0  0  2  0  0  0  0  0  0
  -19.3050  -28.8610   23.3780 C   0  0  0  0  0  0  0  0  0  0  0  0
  -19.0920  -30.1250   23.9700 C   0  0  0  0  0  3  0  0  0  0  0  0
  -17.7890  -30.6320   24.1370 C   0  0  0  0  0  3  0  0  0  0  0  0
  -16.6810  -29.8750   23.7190 C   0  0  0  0  0  3  0  0  0  0  0  0
  -16.8780  -28.6150   23.1280 C   0  0  0  0  0  3  0  0  0  0  0  0
  -25.9390  -32.5970   23.9100 C   0  0  0  0  0  3  0  0  0  0  0  0
  -25.5950  -33.9910   24.2260 N   0  0  0  0  0  0  0  0  0  0  0  0
  -25.9210  -35.0480   23.4700 C   0  0  0  0  0  0  0  0  0  0  0  0
  -26.6130  -34.9530   22.4520 O   0  0  0  0  0  0  0  0  0  0  0  0
  -24.9800  -34.1340   25.0140 H   0  0  0  0  0  0  0  0  0  0  0  0
  -24.1710  -36.8080   23.0580 C   0  0  0  0  0  1  0  0  0  0  0  0
  -25.3920  -36.4270   23.9090 C   0  0  0  0  0  3  0  0  0  0  0  0
  -27.4830  -37.3540   24.8060 C   0  0  0  0  0  1  0  0  0  0  0  0
  -26.4070  -37.4980   23.8280 N   0  0  0  0  0  0  0  0  0  0  0  0
  -25.9790  -38.4100   23.9610 H   0  0  0  0  0  0  0  0  0  0  0  0
  -26.4530  -31.8440   25.1970 C   0  0  1  0  0  0  0  0  0  0  0  0
  -25.3500  -31.5760   26.2470 C   0  0  0  0  0  1  0  0  0  0  0  0
  -27.0780  -30.4840   24.8110 C   0  0  0  0  0  1  0  0  0  0  0  0
  -27.5690  -32.6720   25.8760 C   0  0  0  0  0  1  0  0  0  0  0  0
  -31.0140  -18.5340   19.8580 C   0  0  2  0  0  0  0  0  0  0  0  0
  -30.9410  -14.8320   20.0270 C   0  0  0  0  0  0  0  0  0  0  0  0
  -30.3330  -12.5540   18.9300 C   0  0  0  0  0  2  0  0  0  0  0  0
  -29.3360  -12.7120   17.7750 C   0  0  0  0  0  2  0  0  0  0  0  0
  -27.9110  -12.4880   18.2980 C   0  0  0  0  0  2  0  0  0  0  0  0
  -27.6490  -13.3090   19.5750 C   0  0  0  0  0  3  0  0  0  0  0  0
  -28.8130  -13.1800   20.6140 C   0  0  0  0  0  2  0  0  0  0  0  0
  -30.0810  -13.6570   19.9560 N   0  0  0  0  0  0  0  0  0  0  0  0
  -31.9750  -14.3190   19.5380 O   0  0  0  0  0  0  0  0  0  0  0  0
  -30.6360  -17.1770   20.5430 N   0  0  2  0  0  4  0  0  0  0  0  0
  -29.7310  -17.2780   20.9740 H   0  0  0  0  0  0  0  0  0  0  0  0
  -25.3180  -13.9170   20.4800 C   0  0  0  0  0  0  0  0  0  0  0  0
  -24.2850  -13.1360   20.9040 C   0  0  0  0  0  0  0  0  0  0  0  0
  -24.7340  -11.7890   20.7770 C   0  0  0  0  0  0  0  0  0  0  0  0
  -26.3420  -13.0380   20.1480 N   0  0  0  0  0  0  0  0  0  0  0  0
  -25.9960  -11.7500   20.3850 N   0  0  0  0  0  0  0  0  0  0  0  0
  -24.0140  -10.5260   20.9460 C   0  0  0  0  0  0  0  0  0  0  0  0
  -24.4270   -9.5740   21.9020 C   0  0  0  0  0  3  0  0  0  0  0  0
  -23.7140   -8.3700   22.0670 C   0  0  0  0  0  3  0  0  0  0  0  0
  -22.5700   -8.1140   21.2740 C   0  0  0  0  0  0  0  0  0  0  0  0
  -22.1780   -9.0510   20.3040 C   0  0  0  0  0  3  0  0  0  0  0  0
  -22.8920  -10.2480   20.1370 C   0  0  0  0  0  3  0  0  0  0  0  0
  -21.8250   -6.9630   21.3470 O   0  0  0  0  0  0  0  0  0  0  0  0
  -21.6460   -6.2980   22.5330 C   0  0  0  0  0  0  0  0  0  0  0  0
  -21.0480   -6.9120   23.6530 C   0  0  0  0  0  3  0  0  0  0  0  0
  -20.8210   -6.1650   24.8280 C   0  0  0  0  0  3  0  0  0  0  0  0
  -21.1870   -4.8060   24.8780 C   0  0  0  0  0  0  0  0  0  0  0  0
  -21.7770   -4.1920   23.7600 C   0  0  0  0  0  3  0  0  0  0  0  0
  -22.0040   -4.9380   22.5890 C   0  0  0  0  0  0  0  0  0  0  0  0
  -22.5540   -4.3340   21.5070 F   0  0  0  0  0  0  0  0  0  0  0  0
  -20.9610   -4.0880   26.0020 F   0  0  0  0  0  0  0  0  0  0  0  0
  -22.9130  -13.6090   21.2880 C   0  0  0  0  0  0  0  0  0  0  0  0
  -22.2340  -12.8680   22.1560 N   0  0  0  0  0  0  0  0  0  0  0  0
  -22.4600  -14.6690   20.8630 O   0  0  0  0  0  0  0  0  0  0  0  0
  -22.6240  -12.0130   22.5210 H   0  0  0  0  0  0  0  0  0  0  0  0
  -21.3110  -13.1520   22.4480 H   0  0  0  0  0  0  0  0  0  0  0  0
  -25.4380  -15.2930   20.3200 N   0  0  0  0  0  0  0  0  0  0  0  0
  -24.6510  -15.9040   20.5170 H   0  0  0  0  0  0  0  0  0  0  0  0
  -26.1790  -15.7480   19.8020 H   0  0  0  0  0  0  0  0  0  0  0  0
  -32.7570  -20.5410   20.1720 C   0  0  0  0  0  1  0  0  0  0  0  0
  -31.9980  -19.3430   20.7910 C   0  0  0  0  0  2  0  0  0  0  0  0
  -31.6710  -18.1470   18.4870 C   0  0  0  0  0  2  0  0  0  0  0  0
  -28.6310  -15.9030   21.2190 C   0  0  0  0  0  3  0  0  0  0  0  0
  -30.5070  -15.8330   21.6940 C   0  0  0  0  0  3  0  0  0  0  0  0
  -28.0710  -16.3770   19.4100 C   0  0  0  0  0  3  0  0  0  0  0  0
  -31.8860  -16.2420   20.3960 C   0  0  0  0  0  3  0  0  0  0  0  0
  -29.4040  -16.7190   18.0230 C   0  0  0  0  0  1  0  0  0  0  0  0
  -31.3080  -16.7430   18.5680 C   0  0  0  0  0  1  0  0  0  0  0  0
  1 55  1  0
  1  7  2  0
  2  3  1  0
  2  4  1  0
  3  5  1  0
  4  6  1  0
  5  8  1  0
  6  5  1  0
  6  1  1  0
  8 10  2  0
  9  8  1  0
  9 12  1  0
 11  9  1  0
 12 13  1  0
 14 16  1  0
 14 13  1  0
 15 26  2  0
 16 21  1  0
 17 25  1  0
 17 27  1  0
 18 20  1  0
 19 25  1  0
 20 21  2  0
 20 19  1  0
 22 23  1  0
 22 16  2  0
 23 18  2  0
 24 18  1  0
 24 17  1  0
 25 15  1  0
 27 29  2  0
 28 27  1  0
 30 28  1  0
 31 40  2  0
 31 36  1  0
 32 28  1  0
 32 36  1  0
 33 32  1  0
 34 35  1  0
 34 33  1  0
 35 31  1  0
 36 37  2  0
 37 38  1  0
 39 38  2  0
 40 39  1  0
 41 15  1  0
 41 42  1  0
 41 51  1  0
 42 45  1  0
 43 47  1  0
 43 42  1  0
 44 43  2  0
 47 46  1  0
 49 47  1  0
 49 50  1  0
 49 48  1  0
 51 54  1  1
 51 52  1  0
 53 51  1  0
 55 64  1  0
 55 95  1  1
 57 62  1  0
 58 59  1  0
 58 57  1  0
 60 59  1  0
 60 69  1  0
 60 61  1  0
 62 56  1  0
 62 61  1  0
 63 56  2  0
 64 65  1  6
 64 98  1  0
 66 67  2  0
 67 86  1  0
 68 67  1  0
 68 71  1  0
 69 70  1  0
 69 66  1  0
 70 68  2  0
 71 72  1  0
 72 73  2  0
 74 77  1  0
 74 73  1  0
 75 74  2  0
 76 75  1  0
 76 71  2  0
 77 78  1  0
 78 83  2  0
 78 79  1  0
 79 80  2  0
 80 81  1  0
 81 85  1  0
 82 81  2  0
 83 82  1  0
 84 83  1  0
 86 87  1  0
 87 90  1  0
 87 89  1  0
 88 86  2  0
 91 66  1  0
 91 92  1  0
 93 91  1  0
 94 95  1  0
 96102  1  0
 96 55  1  0
 98 97  1  0
 99 97  2  0
100 56  1  0
100 64  1  0
100 98  1  0
101 99  1  0
M  ISO  4  13 101  14 101  56 100  64 100
M  END
>  <TORSDO>  (89) 
F 23

>  <SCORE>  (89) 
-12.585

>  <name>  (89) 
88

>  <ligand_id>  (89) 
88

>  <original_smiles>  (89) 
[H]c1c([H])c([H])c(C([H])([H])C(C(=O)N2C([H])([H])C([H])([H])C([H])([H])C2([H])C(=O)N([H])C([H])([H])C([H])([H])Oc2c([H])c([H])c3c(c2[H])C([H])([H])N(C(=O)C([H])(N([H])C(=O)C([H])(N([H])C([H])([H])[H])C([H])([H])[H])C(C([H])([H])[H])(C([H])([H])[H])C([H])([H])[H])C([H])(C(=O)N([H])C2([H])c4c([H])c([H])c([H])c([H])c4C([H])([H])C([H])([H])C2([H])[H])C3([H])[H])(N([H])C(=O)N2C([H])([H])C([H])([H])C([H])([H])C([H])(n3nc(-c4c([H])c([H])c(Oc5c([H])c([H])c(F)c([H])c5F)c([H])c4[H])c(C(=O)N([H])[H])c3N([H])[H])C2([H])[H])C([H])([H])C([H])([H])[H])c([H])c1[H]

>  <smiles>  (89) 
[H]c1c([H])c([H])c(C([H])([H])C(C(=O)N2C([H])([H])C([H])([H])C([H])([H])C2([H])C(=O)N([H])C([H])([H])C([H])([H])Oc2c([H])c([H])c3c(c2[H])C([H])([H])N(C(=O)C([H])(N([H])C(=O)C([H])(N([H])C([H])([H])[H])C([H])([H])[H])C(C([H])([H])[H])(C([H])([H])[H])C([H])([H])[H])C([H])(C(=O)N([H])C2([H])c4c([H])c([H])c([H])c([H])c4C([H])([H])C([H])([H])C2([H])[H])C3([H])[H])(N([H])C(=O)N2C([H])([H])C([H])([H])C([H])([H])C([H])(n3nc(-c4c([H])c([H])c(Oc5c([H])c([H])c(F)c([H])c5F)c([H])c4[H])c(C(=O)N([H])[H])c3N([H])[H])C2([H])[H])C([H])([H])C([H])([H])[H])c([H])c1[H]

$$$$
89:0:0
     RDKit          3D

 90 98  0  0  1  0  0  0  0  0999 V2000
  -30.1490  -21.8900   19.4440 C   0  0  0  0  0  2  0  0  0  0  0  0
  -27.9230  -21.9090   20.1520 C   0  0  0  0  0  2  0  0  0  0  0  0
  -30.3800  -20.4390   20.0190 C   0  0  0  0  0  2  0  0  0  0  0  0
  -28.0760  -20.4630   20.7440 C   0  0  0  0  0  2  0  0  0  0  0  0
  -29.1730  -22.6880   20.2220 N   0  0  0  0  0  0  0  0  0  0  0  0
  -29.1190  -19.6320   20.0590 N   0  0  2  0  0  4  0  0  0  0  0  0
  -28.8140  -19.5410   19.1020 H   0  0  0  0  0  0  0  0  0  0  0  0
  -29.0370  -24.0860   19.6860 C   0  0  0  0  0  3  0  0  0  0  0  0
  -28.2740  -25.1550   20.5720 C   0  0  0  0  0  3  0  0  0  0  0  0
  -28.4140  -26.5660   20.1770 O   0  0  0  0  0  0  0  0  0  0  0  0
  -24.6070  -31.8660   23.2070 C   0  0  0  0  0  0  0  0  0  0  0  0
  -27.2720  -27.3620   20.1620 C   0  0  0  0  0  0  0  0  0  0  0  0
  -23.4200  -30.4640   21.5540 C   0  0  0  0  0  3  0  0  0  0  0  0
  -24.8870  -28.9210   20.1370 C   0  0  0  0  0  0  0  0  0  0  0  0
  -25.9540  -30.8090   21.3790 C   0  0  0  0  0  2  0  0  0  0  0  0
  -26.0450  -29.4320   20.7370 C   0  0  0  0  0  0  0  0  0  0  0  0
  -27.2420  -28.6660   20.7350 C   0  0  0  0  0  3  0  0  0  0  0  0
  -26.0930  -26.8880   19.5410 C   0  0  0  0  0  3  0  0  0  0  0  0
  -24.9100  -27.6540   19.5310 C   0  0  0  0  0  3  0  0  0  0  0  0
  -23.6430  -29.7860   20.1760 C   0  0  0  0  0  2  0  0  0  0  0  0
  -24.6790  -31.0640   22.1050 N   0  0  0  0  0  0  0  0  0  0  0  0
  -23.5190  -32.1350   23.7380 O   0  0  0  0  0  0  0  0  0  0  0  0
  -22.7560  -29.4450   22.5120 C   0  0  0  0  0  0  0  0  0  0  0  0
  -21.4290  -29.2760   22.3890 N   0  0  0  0  0  0  0  0  0  0  0  0
  -23.4330  -28.8050   23.3180 O   0  0  0  0  0  0  0  0  0  0  0  0
  -20.9430  -29.8410   21.7070 H   0  0  0  0  0  0  0  0  0  0  0  0
  -18.0420  -28.1180   22.8990 C   0  0  0  0  0  0  0  0  0  0  0  0
  -20.6060  -28.3350   23.1500 C   0  0  0  0  0  3  0  0  0  0  0  0
  -20.6850  -26.9110   22.5510 C   0  0  0  0  0  2  0  0  0  0  0  0
  -19.5660  -26.6210   21.5430 C   0  0  0  0  0  2  0  0  0  0  0  0
  -18.1930  -26.7780   22.1990 C   0  0  0  0  0  2  0  0  0  0  0  0
  -19.1770  -28.8560   23.3300 C   0  0  0  0  0  0  0  0  0  0  0  0
  -18.9790  -30.1160   23.9380 C   0  0  0  0  0  3  0  0  0  0  0  0
  -17.6830  -30.6330   24.1200 C   0  0  0  0  0  3  0  0  0  0  0  0
  -16.5650  -29.8900   23.7050 C   0  0  0  0  0  3  0  0  0  0  0  0
  -16.7450  -28.6330   23.1000 C   0  0  0  0  0  3  0  0  0  0  0  0
  -25.8820  -32.4990   23.8430 C   0  0  0  0  0  3  0  0  0  0  0  0
  -26.3800  -31.7350   25.1320 C   0  0  1  0  0  0  0  0  0  0  0  0
  -25.2730  -31.5050   26.1880 C   0  0  0  0  0  1  0  0  0  0  0  0
  -26.9650  -30.3570   24.7520 C   0  0  0  0  0  1  0  0  0  0  0  0
  -27.5210  -32.5340   25.8060 C   0  0  0  0  0  1  0  0  0  0  0  0
  -25.5680  -33.8990   24.1630 N   0  0  0  0  0  0  0  0  0  0  0  0
  -25.9160  -34.9480   23.4060 C   0  0  0  0  0  0  0  0  0  0  0  0
  -26.6030  -34.8410   22.3880 O   0  0  0  0  0  0  0  0  0  0  0  0
  -24.9630  -34.0580   24.9550 H   0  0  0  0  0  0  0  0  0  0  0  0
  -24.1960  -36.7420   23.0200 C   0  0  0  0  0  1  0  0  0  0  0  0
  -25.4240  -36.3390   23.8530 C   0  0  0  0  0  3  0  0  0  0  0  0
  -27.5460  -37.2210   24.7180 C   0  0  0  0  0  1  0  0  0  0  0  0
  -26.4600  -37.3910   23.7550 N   0  0  0  0  0  0  0  0  0  0  0  0
  -26.0520  -38.3120   23.8930 H   0  0  0  0  0  0  0  0  0  0  0  0
  -29.1960  -18.2190   20.6360 C   0  0  0  0  0  3  0  0  0  0  0  0
  -30.0590  -17.1090   19.9030 C   0  0  0  0  0  3  0  0  0  0  0  0
  -30.6610  -14.6140   20.1080 C   0  0  0  0  0  0  0  0  0  0  0  0
  -30.3900  -12.3930   19.0530 C   0  0  0  0  0  2  0  0  0  0  0  0
  -29.4080  -12.5690   17.8720 C   0  0  0  0  0  2  0  0  0  0  0  0
  -27.9550  -12.3950   18.3540 C   0  0  0  0  0  2  0  0  0  0  0  0
  -27.6410  -13.2460   19.6160 C   0  0  0  0  0  3  0  0  0  0  0  0
  -28.7380  -13.0740   20.6930 C   0  0  0  0  0  2  0  0  0  0  0  0
  -30.0310  -13.4000   20.0720 N   0  0  0  0  0  0  0  0  0  0  0  0
  -31.8030  -14.7660   19.6710 O   0  0  0  0  0  0  0  0  0  0  0  0
  -29.8820  -15.6970   20.4020 N   0  0  0  0  0  0  0  0  0  0  0  0
  -28.9830  -15.4740   20.8040 H   0  0  0  0  0  0  0  0  0  0  0  0
  -25.2760  -13.8430   20.4220 C   0  0  0  0  0  0  0  0  0  0  0  0
  -24.2220  -13.0680   20.8300 C   0  0  0  0  0  0  0  0  0  0  0  0
  -24.6820  -11.7170   20.7740 C   0  0  0  0  0  0  0  0  0  0  0  0
  -26.3100  -12.9630   20.1450 N   0  0  0  0  0  0  0  0  0  0  0  0
  -25.9600  -11.6790   20.4170 N   0  0  0  0  0  0  0  0  0  0  0  0
  -23.9640  -10.4520   20.9810 C   0  0  0  0  0  0  0  0  0  0  0  0
  -24.4200   -9.4880   21.9080 C   0  0  0  0  0  3  0  0  0  0  0  0
  -23.7020   -8.2890   22.1050 C   0  0  0  0  0  3  0  0  0  0  0  0
  -22.5130   -8.0460   21.3750 C   0  0  0  0  0  0  0  0  0  0  0  0
  -22.0760   -8.9980   20.4370 C   0  0  0  0  0  3  0  0  0  0  0  0
  -22.7950  -10.1890   20.2380 C   0  0  0  0  0  3  0  0  0  0  0  0
  -21.7670   -6.8970   21.4800 O   0  0  0  0  0  0  0  0  0  0  0  0
  -21.7380   -6.1610   22.6370 C   0  0  0  0  0  0  0  0  0  0  0  0
  -21.3130   -6.7170   23.8630 C   0  0  0  0  0  3  0  0  0  0  0  0
  -21.2330   -5.9080   25.0150 C   0  0  0  0  0  3  0  0  0  0  0  0
  -21.5650   -4.5420   24.9380 C   0  0  0  0  0  0  0  0  0  0  0  0
  -21.9810   -3.9830   23.7170 C   0  0  0  0  0  3  0  0  0  0  0  0
  -22.0640   -4.7900   22.5680 C   0  0  0  0  0  0  0  0  0  0  0  0
  -22.4450   -4.2440   21.3890 F   0  0  0  0  0  0  0  0  0  0  0  0
  -21.4800   -3.7590   26.0410 F   0  0  0  0  0  0  0  0  0  0  0  0
  -22.8350  -13.5420   21.1540 C   0  0  0  0  0  0  0  0  0  0  0  0
  -22.1350  -12.8370   22.0350 N   0  0  0  0  0  0  0  0  0  0  0  0
  -22.3810  -14.5720   20.6590 O   0  0  0  0  0  0  0  0  0  0  0  0
  -22.5140  -12.0020   22.4570 H   0  0  0  0  0  0  0  0  0  0  0  0
  -21.2030  -13.1330   22.2880 H   0  0  0  0  0  0  0  0  0  0  0  0
  -25.4360  -15.2150   20.2370 N   0  0  0  0  0  0  0  0  0  0  0  0
  -24.6670  -15.8660   20.3440 H   0  0  0  0  0  0  0  0  0  0  0  0
  -26.2460  -15.6260   19.7910 H   0  0  0  0  0  0  0  0  0  0  0  0
  1  3  1  0
  1  5  1  0
  2  5  1  0
  2  4  1  0
  3  6  1  0
  6 51  1  0
  6  4  1  0
  6  7  1  6
  8  5  1  0
  8  9  2  0
 10  9  1  0
 11 22  2  0
 12 10  1  0
 12 17  1  0
 13 21  1  0
 13 23  1  0
 14 20  1  0
 14 16  1  0
 15 21  1  0
 16 15  1  0
 17 16  2  0
 18 12  2  0
 19 18  1  0
 19 14  2  0
 20 13  1  0
 21 11  1  0
 23 25  2  0
 24 23  1  0
 26 24  1  0
 27 36  2  0
 27 32  1  0
 28 24  1  0
 28 32  1  0
 29 28  1  0
 30 31  1  0
 30 29  1  0
 31 27  1  0
 32 33  2  0
 33 34  1  0
 35 34  2  0
 36 35  1  0
 37 11  1  0
 37 42  1  0
 37 38  1  0
 38 41  1  1
 38 39  1  0
 40 38  1  0
 42 45  1  0
 43 47  1  0
 43 42  1  0
 44 43  2  0
 47 46  1  0
 49 47  1  0
 49 50  1  0
 49 48  1  0
 52 61  1  0
 52 51  2  0
 53 61  1  0
 54 59  1  0
 55 56  1  0
 55 54  1  0
 57 56  1  0
 57 66  1  0
 57 58  1  0
 59 53  1  0
 59 58  1  0
 60 53  2  0
 61 62  1  0
 63 64  2  0
 64 83  1  0
 65 64  1  0
 65 68  1  0
 66 67  1  0
 66 63  1  0
 67 65  2  0
 68 69  1  0
 69 70  2  0
 71 74  1  0
 71 70  1  0
 72 71  2  0
 73 72  1  0
 73 68  2  0
 74 75  1  0
 75 76  1  0
 76 77  2  0
 78 77  1  0
 78 82  1  0
 79 78  2  0
 80 75  2  0
 80 79  1  0
 81 80  1  0
 83 84  1  0
 84 87  1  0
 84 86  1  0
 85 83  2  0
 88 89  1  0
 88 63  1  0
 90 88  1  0
M  ISO  4   9 101  10 101  53 100  61 100
M  END
>  <TORSDO>  (90) 
F 20

>  <SCORE>  (90) 
-13.596

>  <name>  (90) 
89

>  <ligand_id>  (90) 
89

>  <original_smiles>  (90) 
[H]c1c([H])c([H])c2c(c1[H])C([H])([H])C([H])([H])C([H])([H])C2([H])N([H])C(=O)C1([H])N(C(=O)C([H])(N([H])C(=O)C([H])(N([H])C([H])([H])[H])C([H])([H])[H])C(C([H])([H])[H])(C([H])([H])[H])C([H])([H])[H])C([H])([H])c2c([H])c(OC([H])([H])C([H])([H])N3C([H])([H])C([H])([H])[N+]([H])(C([H])([H])C([H])([H])N([H])C(=O)N4C([H])([H])C([H])([H])C([H])([H])C([H])(n5nc(-c6c([H])c([H])c(Oc7c([H])c([H])c(F)c([H])c7F)c([H])c6[H])c(C(=O)N([H])[H])c5N([H])[H])C4([H])[H])C([H])([H])C3([H])[H])c([H])c([H])c2C1([H])[H]

>  <smiles>  (90) 
[H]c1c([H])c([H])c2c(c1[H])C([H])([H])C([H])([H])C([H])([H])C2([H])N([H])C(=O)C1([H])N(C(=O)C([H])(N([H])C(=O)C([H])(N([H])C([H])([H])[H])C([H])([H])[H])C(C([H])([H])[H])(C([H])([H])[H])C([H])([H])[H])C([H])([H])c2c([H])c(OC([H])([H])C([H])([H])N3C([H])([H])C([H])([H])[N+]([H])(C([H])([H])C([H])([H])N([H])C(=O)N4C([H])([H])C([H])([H])C([H])([H])C([H])(n5nc(-c6c([H])c([H])c(Oc7c([H])c([H])c(F)c([H])c7F)c([H])c6[H])c(C(=O)N([H])[H])c5N([H])[H])C4([H])[H])C([H])([H])C3([H])[H])c([H])c([H])c2C1([H])[H]

$$$$
90:0:0
     RDKit          3D

 92100  0  0  1  0  0  0  0  0999 V2000
  -29.9690  -22.0290   21.2860 C   0  0  0  0  0  2  0  0  0  0  0  0
  -28.9030  -23.0100   21.0240 N   0  0  0  0  0  0  0  0  0  0  0  0
  -28.3080  -23.0860   21.8460 H   0  0  0  0  0  0  0  0  0  0  0  0
  -29.3680  -24.3660   20.6780 C   0  0  0  0  0  2  0  0  0  0  0  0
  -28.1610  -25.2360   20.2220 C   0  0  0  0  0  2  0  0  0  0  0  0
  -28.3690  -26.6680   20.2000 O   0  0  0  0  0  0  0  0  0  0  0  0
  -24.5900  -31.9080   23.2420 C   0  0  0  0  0  0  0  0  0  0  0  0
  -27.2150  -27.4410   20.1540 C   0  0  0  0  0  0  0  0  0  0  0  0
  -23.3790  -30.5100   21.6020 C   0  0  0  0  0  3  0  0  0  0  0  0
  -24.8260  -28.9780   20.1660 C   0  0  0  0  0  0  0  0  0  0  0  0
  -25.9090  -30.8610   21.3990 C   0  0  0  0  0  2  0  0  0  0  0  0
  -25.9920  -29.4910   20.7500 C   0  0  0  0  0  0  0  0  0  0  0  0
  -27.1890  -28.7340   20.7350 C   0  0  0  0  0  3  0  0  0  0  0  0
  -26.0270  -26.9570   19.5530 C   0  0  0  0  0  3  0  0  0  0  0  0
  -24.8410  -27.7120   19.5610 C   0  0  0  0  0  3  0  0  0  0  0  0
  -23.5830  -29.8370   20.2210 C   0  0  0  0  0  2  0  0  0  0  0  0
  -24.6440  -31.1080   22.1390 N   0  0  0  0  0  0  0  0  0  0  0  0
  -23.5100  -32.1790   23.7840 O   0  0  0  0  0  0  0  0  0  0  0  0
  -22.7300  -29.4860   22.5630 C   0  0  0  0  0  0  0  0  0  0  0  0
  -21.4040  -29.3040   22.4400 N   0  0  0  0  0  0  0  0  0  0  0  0
  -23.4150  -28.8600   23.3750 O   0  0  0  0  0  0  0  0  0  0  0  0
  -20.9130  -29.8600   21.7560 H   0  0  0  0  0  0  0  0  0  0  0  0
  -18.0320  -28.1070   22.9430 C   0  0  0  0  0  0  0  0  0  0  0  0
  -20.5890  -28.3650   23.2110 C   0  0  0  0  0  3  0  0  0  0  0  0
  -20.6920  -26.9340   22.6330 C   0  0  0  0  0  2  0  0  0  0  0  0
  -19.5880  -26.6120   21.6210 C   0  0  0  0  0  2  0  0  0  0  0  0
  -18.2080  -26.7580   22.2660 C   0  0  0  0  0  2  0  0  0  0  0  0
  -19.1510  -28.8680   23.3720 C   0  0  0  0  0  0  0  0  0  0  0  0
  -18.9320  -30.1320   23.9620 C   0  0  0  0  0  3  0  0  0  0  0  0
  -17.6290  -30.6340   24.1300 C   0  0  0  0  0  3  0  0  0  0  0  0
  -16.5240  -29.8680   23.7190 C   0  0  0  0  0  3  0  0  0  0  0  0
  -16.7260  -28.6070   23.1300 C   0  0  0  0  0  3  0  0  0  0  0  0
  -25.8790  -32.5370   23.8580 C   0  0  0  0  0  3  0  0  0  0  0  0
  -25.5720  -33.9330   24.1930 N   0  0  0  0  0  0  0  0  0  0  0  0
  -25.8960  -34.9870   23.4320 C   0  0  0  0  0  0  0  0  0  0  0  0
  -26.5580  -34.8850   22.3940 O   0  0  0  0  0  0  0  0  0  0  0  0
  -24.9830  -34.0860   24.9990 H   0  0  0  0  0  0  0  0  0  0  0  0
  -24.1600  -36.7740   23.0940 C   0  0  0  0  0  1  0  0  0  0  0  0
  -25.4090  -36.3730   23.8940 C   0  0  0  0  0  3  0  0  0  0  0  0
  -27.5530  -37.2580   24.7030 C   0  0  0  0  0  1  0  0  0  0  0  0
  -26.4380  -37.4300   23.7740 N   0  0  0  0  0  0  0  0  0  0  0  0
  -26.0320  -38.3480   23.9310 H   0  0  0  0  0  0  0  0  0  0  0  0
  -26.4010  -31.7610   25.1290 C   0  0  1  0  0  0  0  0  0  0  0  0
  -25.3120  -31.5210   26.2010 C   0  0  0  0  0  1  0  0  0  0  0  0
  -26.9840  -30.3860   24.7280 C   0  0  0  0  0  1  0  0  0  0  0  0
  -27.5570  -32.5520   25.7870 C   0  0  0  0  0  1  0  0  0  0  0  0
  -29.3880  -20.6610   21.7740 C   0  0  0  0  0  2  0  0  0  0  0  0
  -30.2540  -19.4820   21.4680 N   0  0  0  0  0  4  0  0  0  0  0  0
  -30.9170  -19.7580   20.7630 H   0  0  0  0  0  0  0  0  0  0  0  0
  -30.7830  -19.2790   22.3010 H   0  0  0  0  0  0  0  0  0  0  0  0
  -30.6880  -14.5920   20.3950 C   0  0  0  0  0  0  0  0  0  0  0  0
  -30.3800  -12.3660   19.3830 C   0  0  0  0  0  2  0  0  0  0  0  0
  -29.4610  -12.4770   18.1480 C   0  0  0  0  0  2  0  0  0  0  0  0
  -27.9730  -12.4000   18.5600 C   0  0  0  0  0  2  0  0  0  0  0  0
  -27.6110  -13.2800   19.7900 C   0  0  0  0  0  3  0  0  0  0  0  0
  -28.6640  -13.1640   20.9130 C   0  0  0  0  0  2  0  0  0  0  0  0
  -29.9840  -13.4240   20.3250 N   0  0  0  0  0  0  0  0  0  0  0  0
  -31.9010  -14.6400   20.1860 O   0  0  0  0  0  0  0  0  0  0  0  0
  -28.4080  -17.1530   19.0290 C   0  0  0  0  0  2  0  0  0  0  0  0
  -28.9390  -18.4540   19.6150 C   0  0  0  0  0  2  0  0  0  0  0  0
  -29.5360  -16.1240   18.9970 C   0  0  0  0  0  2  0  0  0  0  0  0
  -30.5220  -16.9770   21.0120 C   0  0  0  0  0  2  0  0  0  0  0  0
  -29.5660  -18.2320   21.0100 C   0  0  0  0  0  3  0  0  0  0  0  0
  -29.9680  -15.7540   20.3590 N   0  0  0  0  0  0  0  0  0  0  0  0
  -25.2130  -13.9030   20.4740 C   0  0  0  0  0  0  0  0  0  0  0  0
  -24.1380  -13.1390   20.8330 C   0  0  0  0  0  0  0  0  0  0  0  0
  -24.5950  -11.7870   20.8280 C   0  0  0  0  0  0  0  0  0  0  0  0
  -26.2580  -13.0150   20.2680 N   0  0  0  0  0  0  0  0  0  0  0  0
  -25.8900  -11.7380   20.5430 N   0  0  0  0  0  0  0  0  0  0  0  0
  -23.8630  -10.5310   21.0210 C   0  0  0  0  0  0  0  0  0  0  0  0
  -24.2850   -9.5690   21.9650 C   0  0  0  0  0  3  0  0  0  0  0  0
  -23.5530   -8.3750   22.1460 C   0  0  0  0  0  3  0  0  0  0  0  0
  -22.3860   -8.1360   21.3830 C   0  0  0  0  0  0  0  0  0  0  0  0
  -21.9840   -9.0870   20.4270 C   0  0  0  0  0  3  0  0  0  0  0  0
  -22.7160  -10.2710   20.2440 C   0  0  0  0  0  3  0  0  0  0  0  0
  -21.6270   -6.9950   21.4720 O   0  0  0  0  0  0  0  0  0  0  0  0
  -21.5720   -6.2570   22.6270 C   0  0  0  0  0  0  0  0  0  0  0  0
  -21.1500   -6.8200   23.8510 C   0  0  0  0  0  3  0  0  0  0  0  0
  -21.0440   -6.0080   24.9990 C   0  0  0  0  0  3  0  0  0  0  0  0
  -21.3480   -4.6360   24.9220 C   0  0  0  0  0  0  0  0  0  0  0  0
  -21.7630   -4.0730   23.7020 C   0  0  0  0  0  3  0  0  0  0  0  0
  -21.8720   -4.8820   22.5580 C   0  0  0  0  0  0  0  0  0  0  0  0
  -22.2530   -4.3310   21.3790 F   0  0  0  0  0  0  0  0  0  0  0  0
  -21.2380   -3.8530   26.0210 F   0  0  0  0  0  0  0  0  0  0  0  0
  -22.7380  -13.6270   21.0730 C   0  0  0  0  0  0  0  0  0  0  0  0
  -21.9930  -12.9460   21.9360 N   0  0  0  0  0  0  0  0  0  0  0  0
  -22.3140  -14.6470   20.5320 O   0  0  0  0  0  0  0  0  0  0  0  0
  -22.3490  -12.1200   22.3960 H   0  0  0  0  0  0  0  0  0  0  0  0
  -21.0530  -13.2540   22.1410 H   0  0  0  0  0  0  0  0  0  0  0  0
  -25.3820  -15.2700   20.2840 N   0  0  0  0  0  0  0  0  0  0  0  0
  -24.6140  -15.9280   20.3660 H   0  0  0  0  0  0  0  0  0  0  0  0
  -26.2440  -15.6990   19.9760 H   0  0  0  0  0  0  0  0  0  0  0  0
  1 47  1  0
  2  1  1  0
  2  3  1  0
  4  2  1  0
  5  4  1  0
  6  5  1  0
  7 18  2  0
  8  6  1  0
  8 13  1  0
  9 17  1  0
  9 19  1  0
 10 16  1  0
 10 12  1  0
 11 17  1  0
 12 11  1  0
 13 12  2  0
 14 15  1  0
 14  8  2  0
 15 10  2  0
 16  9  1  0
 17  7  1  0
 19 21  2  0
 20 19  1  0
 22 20  1  0
 23 32  2  0
 23 28  1  0
 24 20  1  0
 24 28  1  0
 25 24  1  0
 26 27  1  0
 26 25  1  0
 27 23  1  0
 28 29  2  0
 29 30  1  0
 31 30  2  0
 32 31  1  0
 33  7  1  0
 33 34  1  0
 33 43  1  0
 34 37  1  0
 35 39  1  0
 35 34  1  0
 36 35  2  0
 39 38  1  0
 41 39  1  0
 41 42  1  0
 41 40  1  0
 43 46  1  1
 43 44  1  0
 45 43  1  0
 48 47  1  0
 48 50  1  0
 49 48  1  0
 52 57  1  0
 53 54  1  0
 53 52  1  0
 55 54  1  0
 55 68  1  0
 55 56  1  0
 57 51  1  0
 57 56  1  0
 58 51  2  0
 59 60  1  0
 60 63  1  0
 61 59  1  0
 61 64  1  0
 63 62  1  0
 63 48  1  0
 64 51  1  0
 64 62  1  0
 65 66  2  0
 66 85  1  0
 67 66  1  0
 67 70  1  0
 68 65  1  0
 68 69  1  0
 69 67  2  0
 70 71  1  0
 71 72  2  0
 73 76  1  0
 73 72  1  0
 74 73  2  0
 75 74  1  0
 75 70  2  0
 76 77  1  0
 77 78  1  0
 78 79  2  0
 80 79  1  0
 80 84  1  0
 81 80  2  0
 82 77  2  0
 82 81  1  0
 83 82  1  0
 85 86  1  0
 86 89  1  0
 86 88  1  0
 87 85  2  0
 90 91  1  0
 90 65  1  0
 92 90  1  0
M  ISO  4   5 101   6 101  51 100  64 100
M  END
>  <TORSDO>  (91) 
F 21

>  <SCORE>  (91) 
-13.303

>  <name>  (91) 
90

>  <ligand_id>  (91) 
90

>  <original_smiles>  (91) 
[H]c1c([H])c([H])c2c(c1[H])C([H])([H])C([H])([H])C([H])([H])C2([H])N([H])C(=O)C1([H])N(C(=O)C([H])(N([H])C(=O)C([H])(N([H])C([H])([H])[H])C([H])([H])[H])C(C([H])([H])[H])(C([H])([H])[H])C([H])([H])[H])C([H])([H])c2c([H])c(OC([H])([H])C([H])([H])N([H])C([H])([H])C([H])([H])[N+]([H])([H])C3([H])C([H])([H])N(C(=O)N4C([H])([H])C([H])([H])C([H])([H])C([H])(n5nc(-c6c([H])c([H])c(Oc7c([H])c([H])c(F)c([H])c7F)c([H])c6[H])c(C(=O)N([H])[H])c5N([H])[H])C4([H])[H])C([H])([H])C([H])([H])C3([H])[H])c([H])c([H])c2C1([H])[H]

>  <smiles>  (91) 
[H]c1c([H])c([H])c2c(c1[H])C([H])([H])C([H])([H])C([H])([H])C2([H])N([H])C(=O)C1([H])N(C(=O)C([H])(N([H])C(=O)C([H])(N([H])C([H])([H])[H])C([H])([H])[H])C(C([H])([H])[H])(C([H])([H])[H])C([H])([H])[H])C([H])([H])c2c([H])c(OC([H])([H])C([H])([H])N([H])C([H])([H])C([H])([H])[N+]([H])([H])C3([H])C([H])([H])N(C(=O)N4C([H])([H])C([H])([H])C([H])([H])C([H])(n5nc(-c6c([H])c([H])c(Oc7c([H])c([H])c(F)c([H])c7F)c([H])c6[H])c(C(=O)N([H])[H])c5N([H])[H])C4([H])[H])C([H])([H])C([H])([H])C3([H])[H])c([H])c([H])c2C1([H])[H]

$$$$
91:0:0
     RDKit          3D

 98106  0  0  1  0  0  0  0  0999 V2000
  -28.4110  -20.8710   21.4920 C   0  0  0  0  0  2  0  0  0  0  0  0
  -28.6590  -21.1410   19.1670 C   0  0  0  0  0  2  0  0  0  0  0  0
  -28.7290  -22.3590   21.7600 C   0  0  0  0  0  2  0  0  0  0  0  0
  -28.9310  -22.6510   19.3160 C   0  0  0  0  0  2  0  0  0  0  0  0
  -29.1900  -20.4260   20.3340 N   0  0  0  0  0  0  0  0  0  0  0  0
  -28.3930  -23.2100   20.5910 N   0  0  2  0  0  4  0  0  0  0  0  0
  -27.3870  -23.1580   20.5170 H   0  0  0  0  0  0  0  0  0  0  0  0
  -28.7710  -24.6390   20.7770 C   0  0  0  0  0  2  0  0  0  0  0  0
  -27.8810  -25.5120   19.8980 C   0  0  0  0  0  2  0  0  0  0  0  0
  -28.3340  -26.8590   19.6330 O   0  0  0  0  0  0  0  0  0  0  0  0
  -24.6920  -31.6650   23.2980 C   0  0  0  0  0  0  0  0  0  0  0  0
  -27.2510  -27.7070   19.5970 C   0  0  0  0  0  0  0  0  0  0  0  0
  -23.4380  -30.4250   21.5690 C   0  0  0  0  0  3  0  0  0  0  0  0
  -24.8500  -29.1500   19.8720 C   0  0  0  0  0  0  0  0  0  0  0  0
  -25.9410  -30.8850   21.2940 C   0  0  0  0  0  2  0  0  0  0  0  0
  -26.0220  -29.6100   20.4890 C   0  0  0  0  0  0  0  0  0  0  0  0
  -27.2280  -28.8850   20.3670 C   0  0  0  0  0  3  0  0  0  0  0  0
  -26.0870  -27.3200   18.8900 C   0  0  0  0  0  3  0  0  0  0  0  0
  -24.8790  -28.0070   19.0620 C   0  0  0  0  0  3  0  0  0  0  0  0
  -23.5820  -29.9370   20.1040 C   0  0  0  0  0  2  0  0  0  0  0  0
  -24.7110  -31.0000   22.1090 N   0  0  0  0  0  0  0  0  0  0  0  0
  -23.6320  -31.8340   23.9200 O   0  0  0  0  0  0  0  0  0  0  0  0
  -22.8800  -29.2640   22.4250 C   0  0  0  0  0  0  0  0  0  0  0  0
  -21.5870  -28.9560   22.2350 N   0  0  0  0  0  0  0  0  0  0  0  0
  -23.6010  -28.6570   23.2190 O   0  0  0  0  0  0  0  0  0  0  0  0
  -21.0600  -29.5070   21.5710 H   0  0  0  0  0  0  0  0  0  0  0  0
  -18.3730  -27.3210   22.4390 C   0  0  0  0  0  0  0  0  0  0  0  0
  -20.8490  -27.8870   22.9070 C   0  0  0  0  0  3  0  0  0  0  0  0
  -21.1730  -26.5090   22.2820 C   0  0  0  0  0  2  0  0  0  0  0  0
  -20.1920  -26.0960   21.1800 C   0  0  0  0  0  2  0  0  0  0  0  0
  -18.7630  -26.0360   21.7270 C   0  0  0  0  0  2  0  0  0  0  0  0
  -19.3500  -28.1980   22.9780 C   0  0  0  0  0  0  0  0  0  0  0  0
  -18.9300  -29.3950   23.5950 C   0  0  0  0  0  3  0  0  0  0  0  0
  -17.5630  -29.7220   23.6790 C   0  0  0  0  0  3  0  0  0  0  0  0
  -16.5990  -28.8420   23.1570 C   0  0  0  0  0  3  0  0  0  0  0  0
  -17.0050  -27.6430   22.5440 C   0  0  0  0  0  3  0  0  0  0  0  0
  -25.9920  -32.2650   23.9190 C   0  0  0  0  0  3  0  0  0  0  0  0
  -26.5680  -31.4000   25.1070 C   0  0  1  0  0  0  0  0  0  0  0  0
  -25.5070  -30.9970   26.1560 C   0  0  0  0  0  1  0  0  0  0  0  0
  -27.2110  -30.0980   24.5730 C   0  0  0  0  0  1  0  0  0  0  0  0
  -27.6870  -32.1840   25.8290 C   0  0  0  0  0  1  0  0  0  0  0  0
  -25.6790  -33.6290   24.3630 N   0  0  0  0  0  0  0  0  0  0  0  0
  -25.9810  -34.7410   23.6780 C   0  0  0  0  0  0  0  0  0  0  0  0
  -26.6290  -34.7250   22.6260 O   0  0  0  0  0  0  0  0  0  0  0  0
  -25.1020  -33.7140   25.1870 H   0  0  0  0  0  0  0  0  0  0  0  0
  -24.2220  -36.5290   23.4970 C   0  0  0  0  0  1  0  0  0  0  0  0
  -25.4870  -36.0820   24.2470 C   0  0  0  0  0  3  0  0  0  0  0  0
  -27.6330  -36.9300   25.0990 C   0  0  0  0  0  1  0  0  0  0  0  0
  -26.5070  -37.1550   24.1930 N   0  0  0  0  0  0  0  0  0  0  0  0
  -26.0920  -38.0570   24.4120 H   0  0  0  0  0  0  0  0  0  0  0  0
  -29.1010  -18.9760   20.1670 C   0  0  0  0  0  2  0  0  0  0  0  0
  -30.4860  -18.4090   19.7310 C   0  0  0  0  0  2  0  0  0  0  0  0
  -30.4660  -17.0440   19.1640 N   0  0  0  0  0  0  0  0  0  0  0  0
  -30.9090  -15.8790   19.8930 C   0  0  0  0  0  0  0  0  0  0  0  0
  -31.0190  -15.6870   21.2590 C   0  0  0  0  0  0  0  0  0  0  0  0
  -31.3690  -14.7780   19.0360 C   0  0  0  0  0  0  0  0  0  0  0  0
  -30.8280  -12.5920   18.0300 C   0  0  0  0  0  2  0  0  0  0  0  0
  -29.6300  -12.6750   17.0590 C   0  0  0  0  0  2  0  0  0  0  0  0
  -28.2970  -12.5330   17.8180 C   0  0  0  0  0  2  0  0  0  0  0  0
  -28.2050  -13.4520   19.0600 C   0  0  0  0  0  3  0  0  0  0  0  0
  -29.4780  -13.3220   19.9210 C   0  0  0  0  0  2  0  0  0  0  0  0
  -30.6460  -13.6200   19.0680 N   0  0  0  0  0  0  0  0  0  0  0  0
  -32.2910  -14.9540   18.2390 O   0  0  0  0  0  0  0  0  0  0  0  0
  -26.1010  -14.0580   20.4280 C   0  0  0  0  0  0  0  0  0  0  0  0
  -25.0890  -13.2890   20.9370 C   0  0  0  0  0  0  0  0  0  0  0  0
  -25.4160  -11.9400   20.6100 C   0  0  0  0  0  0  0  0  0  0  0  0
  -26.9900  -13.1740   19.8290 N   0  0  0  0  0  0  0  0  0  0  0  0
  -26.5890  -11.8870   19.9870 N   0  0  0  0  0  0  0  0  0  0  0  0
  -24.6600  -10.6930   20.8010 C   0  0  0  0  0  0  0  0  0  0  0  0
  -25.0990   -9.6820   21.6850 C   0  0  0  0  0  3  0  0  0  0  0  0
  -24.3390   -8.5040   21.8620 C   0  0  0  0  0  3  0  0  0  0  0  0
  -23.1310   -8.3270   21.1490 C   0  0  0  0  0  0  0  0  0  0  0  0
  -22.7040   -9.3260   20.2570 C   0  0  0  0  0  3  0  0  0  0  0  0
  -23.4640  -10.4990   20.0820 C   0  0  0  0  0  3  0  0  0  0  0  0
  -22.3460   -7.2000   21.2340 O   0  0  0  0  0  0  0  0  0  0  0  0
  -22.1450   -6.5590   22.4260 C   0  0  0  0  0  0  0  0  0  0  0  0
  -21.6450   -7.2350   23.5600 C   0  0  0  0  0  3  0  0  0  0  0  0
  -21.4010   -6.5280   24.7530 C   0  0  0  0  0  3  0  0  0  0  0  0
  -21.6390   -5.1380   24.8040 C   0  0  0  0  0  0  0  0  0  0  0  0
  -22.1240   -4.4600   23.6740 C   0  0  0  0  0  3  0  0  0  0  0  0
  -22.3780   -5.1680   22.4900 C   0  0  0  0  0  0  0  0  0  0  0  0
  -22.8390   -4.5140   21.3960 F   0  0  0  0  0  0  0  0  0  0  0  0
  -21.3880   -4.4530   25.9400 F   0  0  0  0  0  0  0  0  0  0  0  0
  -23.8450  -13.7830   21.6210 C   0  0  0  0  0  0  0  0  0  0  0  0
  -23.3780  -13.0710   22.6380 N   0  0  0  0  0  0  0  0  0  0  0  0
  -23.3120  -14.8410   21.2820 O   0  0  0  0  0  0  0  0  0  0  0  0
  -23.8320  -12.2200   22.9260 H   0  0  0  0  0  0  0  0  0  0  0  0
  -22.5610  -13.3790   23.1390 H   0  0  0  0  0  0  0  0  0  0  0  0
  -26.3200  -15.4320   20.4050 N   0  0  0  0  0  0  0  0  0  0  0  0
  -25.6370  -16.0700   20.7990 H   0  0  0  0  0  0  0  0  0  0  0  0
  -27.1000  -15.9030   19.9620 H   0  0  0  0  0  0  0  0  0  0  0  0
  -31.5600  -17.7050   22.7390 C   0  0  0  0  0  1  0  0  0  0  0  0
  -30.5050  -16.6680   22.3160 C   0  0  0  0  0  2  0  0  0  0  0  0
  -30.7570  -13.4280   22.5930 C   0  0  0  0  0  1  0  0  0  0  0  0
  -31.7070  -14.4600   21.9360 C   0  0  0  0  0  2  0  0  0  0  0  0
  -30.5120  -17.1380   17.6690 C   0  0  0  0  0  2  0  0  0  0  0  0
  -29.8850  -18.4760   15.5370 C   0  0  0  0  0  1  0  0  0  0  0  0
  -29.5180  -18.1050   16.9890 C   0  0  0  0  0  2  0  0  0  0  0  0
  1  3  1  0
  2  4  1  0
  2  5  1  0
  4  6  1  0
  5  1  1  0
  6  8  1  0
  6  3  1  0
  6  7  1  6
  9  8  1  0
 10  9  1  0
 11 22  2  0
 12 10  1  0
 12 17  1  0
 13 21  1  0
 13 23  1  0
 14 20  1  0
 14 16  1  0
 15 21  1  0
 16 15  1  0
 17 16  2  0
 18 19  1  0
 18 12  2  0
 19 14  2  0
 20 13  1  0
 21 11  1  0
 23 25  2  0
 24 23  1  0
 26 24  1  0
 27 36  2  0
 27 32  1  0
 28 24  1  0
 28 32  1  0
 29 28  1  0
 30 31  1  0
 30 29  1  0
 31 27  1  0
 32 33  2  0
 33 34  1  0
 35 34  2  0
 36 35  1  0
 37 11  1  0
 37 42  1  0
 37 38  1  0
 38 41  1  1
 38 39  1  0
 40 38  1  0
 42 45  1  0
 43 47  1  0
 43 42  1  0
 44 43  2  0
 47 46  1  0
 49 47  1  0
 49 50  1  0
 49 48  1  0
 51  5  1  0
 52 51  1  0
 53 52  1  0
 53 54  1  0
 54 55  2  0
 55 95  1  0
 55 93  1  0
 56 62  1  0
 56 54  1  0
 57 62  1  0
 58 59  1  0
 58 57  1  0
 60 59  1  0
 60 67  1  0
 60 61  1  0
 62 61  1  0
 63 56  2  0
 64 65  2  0
 65 84  1  0
 66 69  1  0
 66 65  1  0
 67 68  1  0
 67 64  1  0
 68 66  2  0
 69 70  1  0
 70 71  2  0
 72 75  1  0
 72 71  1  0
 73 72  2  0
 74 73  1  0
 74 69  2  0
 75 76  1  0
 76 81  2  0
 76 77  1  0
 77 78  2  0
 78 79  1  0
 79 83  1  0
 80 79  2  0
 81 80  1  0
 82 81  1  0
 84 85  1  0
 85 87  1  0
 85 88  1  0
 86 84  2  0
 89 64  1  0
 89 90  1  0
 91 89  1  0
 93 92  1  0
 95 94  1  0
 96 53  1  0
 97 98  1  0
 98 96  1  0
M  ISO  4   9 101  10 101  54 100  56 100
M  END
>  <TORSDO>  (92) 
F 26

>  <SCORE>  (92) 
-6.252

>  <name>  (92) 
91

>  <ligand_id>  (92) 
91

>  <original_smiles>  (92) 
[H]c1c([H])c([H])c2c(c1[H])C([H])([H])C([H])([H])C([H])([H])C2([H])N([H])C(=O)C1([H])N(C(=O)C([H])(N([H])C(=O)C([H])(N([H])C([H])([H])[H])C([H])([H])[H])C(C([H])([H])[H])(C([H])([H])[H])C([H])([H])[H])C([H])([H])c2c([H])c(OC([H])([H])C([H])([H])[N+]3([H])C([H])([H])C([H])([H])N(C([H])([H])C([H])([H])N(C(C(=O)N4C([H])([H])C([H])([H])C([H])([H])C([H])(n5nc(-c6c([H])c([H])c(Oc7c([H])c([H])c(F)c([H])c7F)c([H])c6[H])c(C(=O)N([H])[H])c5N([H])[H])C4([H])[H])=C(C([H])([H])C([H])([H])[H])C([H])([H])C([H])([H])[H])C([H])([H])C([H])([H])C([H])([H])[H])C([H])([H])C3([H])[H])c([H])c([H])c2C1([H])[H]

>  <smiles>  (92) 
[H]c1c([H])c([H])c2c(c1[H])C([H])([H])C([H])([H])C([H])([H])C2([H])N([H])C(=O)C1([H])N(C(=O)C([H])(N([H])C(=O)C([H])(N([H])C([H])([H])[H])C([H])([H])[H])C(C([H])([H])[H])(C([H])([H])[H])C([H])([H])[H])C([H])([H])c2c([H])c(OC([H])([H])C([H])([H])[N+]3([H])C([H])([H])C([H])([H])N(C([H])([H])C([H])([H])N(C(C(=O)N4C([H])([H])C([H])([H])C([H])([H])C([H])(n5nc(-c6c([H])c([H])c(Oc7c([H])c([H])c(F)c([H])c7F)c([H])c6[H])c(C(=O)N([H])[H])c5N([H])[H])C4([H])[H])=C(C([H])([H])C([H])([H])[H])C([H])([H])C([H])([H])[H])C([H])([H])C([H])([H])C([H])([H])[H])C([H])([H])C3([H])[H])c([H])c([H])c2C1([H])[H]

$$$$
92:0:0
     RDKit          3D

 88 97  0  0  1  0  0  0  0  0999 V2000
  -30.4200  -15.4520   20.1890 C   0  0  0  0  0  0  0  0  0  0  0  0
  -30.4950  -12.9420   19.4580 C   0  0  0  0  0  2  0  0  0  0  0  0
  -29.6110  -12.5520   18.2460 C   0  0  0  0  0  2  0  0  0  0  0  0
  -28.1550  -12.2830   18.6720 C   0  0  0  0  0  2  0  0  0  0  0  0
  -27.6530  -13.3050   19.7220 C   0  0  0  0  0  3  0  0  0  0  0  0
  -28.6760  -13.5850   20.8400 C   0  0  0  0  0  2  0  0  0  0  0  0
  -29.8690  -14.1280   20.1610 N   0  0  0  0  0  0  0  0  0  0  0  0
  -31.6600  -15.4060   20.1450 O   0  0  0  0  0  0  0  0  0  0  0  0
  -27.9270  -18.2300   20.7700 C   0  0  0  0  0  2  0  0  0  0  0  0
  -28.9410  -17.2820   18.8260 C   0  0  0  0  0  2  0  0  0  0  0  0
  -27.9900  -19.9960   18.8460 C   0  0  0  0  0  2  0  0  0  0  0  0
  -29.8070  -19.8410   20.3390 C   0  0  0  0  0  2  0  0  0  0  0  0
  -27.8480  -18.4010   19.2540 C   0  0  0  0  0  3  0  0  0  0  0  0
  -29.4490  -18.1800   20.8120 C   0  0  0  0  0  3  0  0  0  0  0  0
  -29.6880  -16.7730   20.0360 N   0  0  0  0  0  0  0  0  0  0  0  0
  -28.6610  -20.8980   19.8840 N   0  0  1  0  0  4  0  0  0  0  0  0
  -28.0150  -20.9040   20.6600 H   0  0  0  0  0  0  0  0  0  0  0  0
  -25.2790  -13.8580   20.4520 C   0  0  0  0  0  0  0  0  0  0  0  0
  -24.2110  -13.0790   20.8050 C   0  0  0  0  0  0  0  0  0  0  0  0
  -24.6790  -11.7290   20.7820 C   0  0  0  0  0  0  0  0  0  0  0  0
  -26.3250  -12.9810   20.2250 N   0  0  0  0  0  0  0  0  0  0  0  0
  -25.9770  -11.6960   20.4940 N   0  0  0  0  0  0  0  0  0  0  0  0
  -23.9450  -10.4670   20.9590 C   0  0  0  0  0  0  0  0  0  0  0  0
  -24.3460   -9.5040   21.9120 C   0  0  0  0  0  3  0  0  0  0  0  0
  -23.6080   -8.3120   22.0800 C   0  0  0  0  0  3  0  0  0  0  0  0
  -22.4580   -8.0720   21.2910 C   0  0  0  0  0  0  0  0  0  0  0  0
  -22.0760   -9.0220   20.3270 C   0  0  0  0  0  3  0  0  0  0  0  0
  -22.8150  -10.2050   20.1570 C   0  0  0  0  0  3  0  0  0  0  0  0
  -21.6970   -6.9310   21.3660 O   0  0  0  0  0  0  0  0  0  0  0  0
  -21.5920   -6.2100   22.5280 C   0  0  0  0  0  0  0  0  0  0  0  0
  -21.0650   -6.7760   23.7100 C   0  0  0  0  0  3  0  0  0  0  0  0
  -20.9070   -5.9810   24.8620 C   0  0  0  0  0  3  0  0  0  0  0  0
  -21.2700   -4.6210   24.8350 C   0  0  0  0  0  0  0  0  0  0  0  0
  -21.7890   -4.0540   23.6580 C   0  0  0  0  0  3  0  0  0  0  0  0
  -21.9480   -4.8460   22.5090 C   0  0  0  0  0  0  0  0  0  0  0  0
  -22.4270   -4.2880   21.3710 F   0  0  0  0  0  0  0  0  0  0  0  0
  -21.1130   -3.8560   25.9410 F   0  0  0  0  0  0  0  0  0  0  0  0
  -22.8120  -13.5590   21.0460 C   0  0  0  0  0  0  0  0  0  0  0  0
  -22.0700  -12.8800   21.9150 N   0  0  0  0  0  0  0  0  0  0  0  0
  -22.3810  -14.5720   20.4990 O   0  0  0  0  0  0  0  0  0  0  0  0
  -22.4300  -12.0630   22.3830 H   0  0  0  0  0  0  0  0  0  0  0  0
  -21.1300  -13.1890   22.1140 H   0  0  0  0  0  0  0  0  0  0  0  0
  -25.4390  -15.2280   20.2740 N   0  0  0  0  0  0  0  0  0  0  0  0
  -24.6550  -15.8690   20.3400 H   0  0  0  0  0  0  0  0  0  0  0  0
  -26.2790  -15.6650   19.9160 H   0  0  0  0  0  0  0  0  0  0  0  0
  -28.9010  -22.5660   19.5890 C   0  0  0  0  0  3  0  0  0  0  0  0
  -27.8450  -24.0790   19.6180 C   0  0  0  0  0  3  0  0  0  0  0  0
  -28.0940  -25.7500   19.6260 O   0  0  0  0  0  0  0  0  0  0  0  0
  -24.6600  -31.6600   23.0150 C   0  0  0  0  0  0  0  0  0  0  0  0
  -27.0970  -26.8840   19.6830 C   0  0  0  0  0  0  0  0  0  0  0  0
  -23.4230  -30.3620   21.3340 C   0  0  0  0  0  3  0  0  0  0  0  0
  -24.8270  -28.8260   19.7930 C   0  0  0  0  0  0  0  0  0  0  0  0
  -25.9900  -30.5520   21.1440 C   0  0  0  0  0  2  0  0  0  0  0  0
  -26.0350  -29.1730   20.4100 C   0  0  0  0  0  0  0  0  0  0  0  0
  -27.1640  -28.2310   20.3240 C   0  0  0  0  0  3  0  0  0  0  0  0
  -25.8530  -26.7050   19.0370 C   0  0  0  0  0  3  0  0  0  0  0  0
  -24.7640  -27.6160   19.0840 C   0  0  0  0  0  3  0  0  0  0  0  0
  -23.6200  -29.7560   19.9170 C   0  0  0  0  0  2  0  0  0  0  0  0
  -24.7150  -30.8840   21.8830 N   0  0  0  0  0  0  0  0  0  0  0  0
  -23.5830  -31.9240   23.5770 O   0  0  0  0  0  0  0  0  0  0  0  0
  -22.7450  -29.3170   22.2590 C   0  0  0  0  0  0  0  0  0  0  0  0
  -21.4100  -29.1770   22.1640 N   0  0  0  0  0  0  0  0  0  0  0  0
  -23.4240  -28.6390   23.0340 O   0  0  0  0  0  0  0  0  0  0  0  0
  -20.9150  -29.7630   21.5060 H   0  0  0  0  0  0  0  0  0  0  0  0
  -18.0260  -28.0050   22.7600 C   0  0  0  0  0  0  0  0  0  0  0  0
  -20.6010  -28.2030   22.9000 C   0  0  0  0  0  3  0  0  0  0  0  0
  -20.6440  -26.8180   22.2130 C   0  0  0  0  0  2  0  0  0  0  0  0
  -19.4750  -26.5790   21.2530 C   0  0  0  0  0  2  0  0  0  0  0  0
  -18.1400  -26.6990   21.9930 C   0  0  0  0  0  2  0  0  0  0  0  0
  -19.1820  -28.7160   23.1790 C   0  0  0  0  0  0  0  0  0  0  0  0
  -19.0200  -29.9320   23.8790 C   0  0  0  0  0  3  0  0  0  0  0  0
  -17.7360  -30.4350   24.1590 C   0  0  0  0  0  3  0  0  0  0  0  0
  -16.5960  -29.7240   23.7500 C   0  0  0  0  0  3  0  0  0  0  0  0
  -16.7410  -28.5110   23.0530 C   0  0  0  0  0  3  0  0  0  0  0  0
  -25.9440  -32.2670   23.6540 C   0  0  0  0  0  3  0  0  0  0  0  0
  -25.6340  -33.6450   24.0780 N   0  0  0  0  0  0  0  0  0  0  0  0
  -25.9460  -34.7500   23.3900 C   0  0  0  0  0  0  0  0  0  0  0  0
  -26.5830  -34.7180   22.3340 O   0  0  0  0  0  0  0  0  0  0  0  0
  -25.0620  -33.7420   24.9030 H   0  0  0  0  0  0  0  0  0  0  0  0
  -24.2100  -36.5680   23.2260 C   0  0  0  0  0  1  0  0  0  0  0  0
  -25.4770  -36.1050   23.9620 C   0  0  0  0  0  3  0  0  0  0  0  0
  -27.6340  -36.9440   24.7860 C   0  0  0  0  0  1  0  0  0  0  0  0
  -26.5060  -37.1650   23.8860 N   0  0  0  0  0  0  0  0  0  0  0  0
  -26.1040  -38.0750   24.0990 H   0  0  0  0  0  0  0  0  0  0  0  0
  -26.4770  -31.4310   24.8840 C   0  0  1  0  0  0  0  0  0  0  0  0
  -25.4000  -31.1510   25.9590 C   0  0  0  0  0  1  0  0  0  0  0  0
  -27.0430  -30.0690   24.4250 C   0  0  0  0  0  1  0  0  0  0  0  0
  -27.6460  -32.1810   25.5640 C   0  0  0  0  0  1  0  0  0  0  0  0
  2  7  1  0
  3  4  1  0
  3  2  1  0
  5  4  1  0
  5 21  1  0
  5  6  1  0
  7  1  1  0
  7  6  1  0
  8  1  2  0
  9 14  1  0
 10 15  1  0
 11 13  1  0
 11 16  1  0
 13 10  1  0
 13  9  1  0
 14 12  1  0
 15  1  1  0
 15 14  1  0
 16 12  1  0
 16 17  1  1
 18 19  2  0
 19 38  1  0
 20 19  1  0
 20 23  1  0
 21 18  1  0
 21 22  1  0
 22 20  2  0
 23 24  1  0
 24 25  2  0
 26 29  1  0
 26 25  1  0
 27 26  2  0
 28 27  1  0
 28 23  2  0
 29 30  1  0
 30 31  1  0
 31 32  2  0
 33 32  1  0
 33 37  1  0
 34 33  2  0
 35 30  2  0
 35 34  1  0
 36 35  1  0
 38 39  1  0
 39 42  1  0
 39 41  1  0
 40 38  2  0
 43 44  1  0
 43 18  1  0
 45 43  1  0
 46 47  2  0
 46 16  1  0
 47 48  1  0
 48 50  1  0
 49 60  2  0
 50 55  1  0
 51 59  1  0
 51 61  1  0
 52 58  1  0
 52 54  1  0
 53 59  1  0
 54 53  1  0
 55 54  2  0
 56 57  1  0
 56 50  2  0
 57 52  2  0
 58 51  1  0
 59 49  1  0
 61 63  2  0
 62 61  1  0
 64 62  1  0
 65 74  2  0
 65 70  1  0
 66 62  1  0
 66 70  1  0
 67 66  1  0
 68 69  1  0
 68 67  1  0
 69 65  1  0
 70 71  2  0
 71 72  1  0
 73 72  2  0
 74 73  1  0
 75 49  1  0
 75 76  1  0
 75 85  1  0
 76 79  1  0
 77 81  1  0
 77 76  1  0
 78 77  2  0
 81 80  1  0
 83 81  1  0
 83 84  1  0
 83 82  1  0
 85 88  1  1
 85 86  1  0
 87 85  1  0
M  ISO  4   1 100  15 100  47 101  48 101
M  END
>  <TORSDO>  (93) 
F 17

>  <SCORE>  (93) 
-15.836

>  <name>  (93) 
92

>  <ligand_id>  (93) 
92

>  <original_smiles>  (93) 
[H]c1c([H])c([H])c2c(c1[H])C([H])([H])C([H])([H])C([H])([H])C2([H])N([H])C(=O)C1([H])N(C(=O)C([H])(N([H])C(=O)C([H])(N([H])C([H])([H])[H])C([H])([H])[H])C(C([H])([H])[H])(C([H])([H])[H])C([H])([H])[H])C([H])([H])c2c([H])c(OC([H])([H])C([H])([H])[N+]3([H])C([H])([H])C4([H])N(C(=O)N5C([H])([H])C([H])([H])C([H])([H])C([H])(n6nc(-c7c([H])c([H])c(Oc8c([H])c([H])c(F)c([H])c8F)c([H])c7[H])c(C(=O)N([H])[H])c6N([H])[H])C5([H])[H])C([H])([H])C([H])(C4([H])[H])C3([H])[H])c([H])c([H])c2C1([H])[H]

>  <smiles>  (93) 
[H]c1c([H])c([H])c2c(c1[H])C([H])([H])C([H])([H])C([H])([H])C2([H])N([H])C(=O)C1([H])N(C(=O)C([H])(N([H])C(=O)C([H])(N([H])C([H])([H])[H])C([H])([H])[H])C(C([H])([H])[H])(C([H])([H])[H])C([H])([H])[H])C([H])([H])c2c([H])c(OC([H])([H])C([H])([H])[N+]3([H])C([H])([H])C4([H])N(C(=O)N5C([H])([H])C([H])([H])C([H])([H])C([H])(n6nc(-c7c([H])c([H])c(Oc8c([H])c([H])c(F)c([H])c8F)c([H])c7[H])c(C(=O)N([H])[H])c6N([H])[H])C5([H])[H])C([H])([H])C([H])(C4([H])[H])C3([H])[H])c([H])c([H])c2C1([H])[H]

$$$$
94:0:0
     RDKit          3D

 96104  0  0  1  0  0  0  0  0999 V2000
  -29.6980  -19.9810   19.6020 C   0  0  0  0  0  2  0  0  0  0  0  0
  -30.9430  -14.5930   20.6860 C   0  0  0  0  0  0  0  0  0  0  0  0
  -30.7480  -12.2670   19.8250 C   0  0  0  0  0  2  0  0  0  0  0  0
  -29.9190  -12.2320   18.5280 C   0  0  0  0  0  2  0  0  0  0  0  0
  -28.4260  -12.0530   18.8580 C   0  0  0  0  0  2  0  0  0  0  0  0
  -27.9450  -13.0530   19.9380 C   0  0  0  0  0  3  0  0  0  0  0  0
  -28.9100  -13.1090   21.1490 C   0  0  0  0  0  2  0  0  0  0  0  0
  -30.2580  -13.4020   20.6400 N   0  0  0  0  0  0  0  0  0  0  0  0
  -32.1450  -14.6130   20.4030 O   0  0  0  0  0  0  0  0  0  0  0  0
  -31.0520  -16.9380   21.5120 C   0  0  0  0  0  2  0  0  0  0  0  0
  -31.0620  -18.1530   20.5440 C   0  0  0  0  0  2  0  0  0  0  0  0
  -29.0970  -16.2410   20.2440 C   0  0  0  0  0  2  0  0  0  0  0  0
  -28.6850  -17.7740   20.2440 C   0  0  0  0  0  3  0  0  0  0  0  0
  -30.3000  -15.7820   20.9790 N   0  0  0  0  0  0  0  0  0  0  0  0
  -29.7400  -18.7860   20.5080 N   0  0  0  0  0  0  0  0  0  0  0  0
  -25.5230  -13.7110   20.4760 C   0  0  0  0  0  0  0  0  0  0  0  0
  -24.4280  -12.9640   20.8110 C   0  0  0  0  0  0  0  0  0  0  0  0
  -24.8750  -11.6080   20.8520 C   0  0  0  0  0  0  0  0  0  0  0  0
  -26.5690  -12.8110   20.3490 N   0  0  0  0  0  0  0  0  0  0  0  0
  -26.1810  -11.5460   20.6380 N   0  0  0  0  0  0  0  0  0  0  0  0
  -24.1230  -10.3610   21.0230 C   0  0  0  0  0  0  0  0  0  0  0  0
  -24.5280   -9.3820   21.9560 C   0  0  0  0  0  3  0  0  0  0  0  0
  -23.7830   -8.1940   22.1150 C   0  0  0  0  0  3  0  0  0  0  0  0
  -22.6190   -7.9800   21.3380 C   0  0  0  0  0  0  0  0  0  0  0  0
  -22.2360   -8.9450   20.3920 C   0  0  0  0  0  3  0  0  0  0  0  0
  -22.9810  -10.1250   20.2310 C   0  0  0  0  0  3  0  0  0  0  0  0
  -21.8450   -6.8470   21.4070 O   0  0  0  0  0  0  0  0  0  0  0  0
  -21.7510   -6.1080   22.5570 C   0  0  0  0  0  0  0  0  0  0  0  0
  -21.2960   -6.6700   23.7700 C   0  0  0  0  0  3  0  0  0  0  0  0
  -21.1530   -5.8580   24.9140 C   0  0  0  0  0  3  0  0  0  0  0  0
  -21.4540   -4.4840   24.8430 C   0  0  0  0  0  0  0  0  0  0  0  0
  -21.9010   -3.9220   23.6340 C   0  0  0  0  0  3  0  0  0  0  0  0
  -22.0470   -4.7320   22.4950 C   0  0  0  0  0  0  0  0  0  0  0  0
  -22.4590   -4.1810   21.3280 F   0  0  0  0  0  0  0  0  0  0  0  0
  -21.3080   -3.7010   25.9370 F   0  0  0  0  0  0  0  0  0  0  0  0
  -23.0220  -13.4620   20.9650 C   0  0  0  0  0  0  0  0  0  0  0  0
  -22.2340  -12.8290   21.8270 N   0  0  0  0  0  0  0  0  0  0  0  0
  -22.6290  -14.4550   20.3530 O   0  0  0  0  0  0  0  0  0  0  0  0
  -22.5620  -12.0270   22.3460 H   0  0  0  0  0  0  0  0  0  0  0  0
  -21.2890  -13.1560   21.9720 H   0  0  0  0  0  0  0  0  0  0  0  0
  -25.6960  -15.0700   20.2300 N   0  0  0  0  0  0  0  0  0  0  0  0
  -24.8170  -15.5200   20.0030 H   0  0  0  0  0  0  0  0  0  0  0  0
  -26.4280  -15.3030   19.5730 H   0  0  0  0  0  0  0  0  0  0  0  0
  -27.5280  -18.0330   21.2520 C   0  0  0  0  0  2  0  0  0  0  0  0
  -26.2200  -18.6000   20.6540 C   0  0  0  0  0  2  0  0  0  0  0  0
  -25.4550  -17.6150   19.8620 N   0  0  0  0  0  4  0  0  0  0  0  0
  -25.9530  -17.3030   19.0480 H   0  0  0  0  0  0  0  0  0  0  0  0
  -24.5930  -18.0320   19.5530 H   0  0  0  0  0  0  0  0  0  0  0  0
  -25.2210  -16.8180   20.4270 H   0  0  0  0  0  0  0  0  0  0  0  0
  -29.9840  -21.4080   20.2280 C   0  0  0  0  0  2  0  0  0  0  0  0
  -29.3030  -22.5360   19.4890 N   0  0  0  0  0  4  0  0  0  0  0  0
  -28.3110  -22.3850   19.5800 H   0  0  0  0  0  0  0  0  0  0  0  0
  -29.5290  -22.4330   18.5110 H   0  0  0  0  0  0  0  0  0  0  0  0
  -29.5820  -23.9740   19.8730 C   0  0  0  0  0  2  0  0  0  0  0  0
  -28.5040  -24.9810   19.3090 C   0  0  0  0  0  2  0  0  0  0  0  0
  -28.6600  -26.4250   19.5330 O   0  0  0  0  0  0  0  0  0  0  0  0
  -24.8500  -31.3980   23.0270 C   0  0  0  0  0  0  0  0  0  0  0  0
  -27.5080  -27.2220   19.5400 C   0  0  0  0  0  0  0  0  0  0  0  0
  -23.6420  -30.1260   21.2850 C   0  0  0  0  0  3  0  0  0  0  0  0
  -25.0980  -28.7480   19.7020 C   0  0  0  0  0  0  0  0  0  0  0  0
  -26.1670  -30.5240   21.0910 C   0  0  0  0  0  2  0  0  0  0  0  0
  -26.2620  -29.2130   20.3270 C   0  0  0  0  0  0  0  0  0  0  0  0
  -27.4660  -28.4590   20.2460 C   0  0  0  0  0  3  0  0  0  0  0  0
  -26.3270  -26.8200   18.8700 C   0  0  0  0  0  3  0  0  0  0  0  0
  -25.1320  -27.5570   18.9620 C   0  0  0  0  0  3  0  0  0  0  0  0
  -23.8420  -29.5800   19.8470 C   0  0  0  0  0  2  0  0  0  0  0  0
  -24.9050  -30.6940   21.8600 N   0  0  0  0  0  0  0  0  0  0  0  0
  -23.7710  -31.6060   23.6020 O   0  0  0  0  0  0  0  0  0  0  0  0
  -23.0180  -29.0140   22.1610 C   0  0  0  0  0  0  0  0  0  0  0  0
  -21.6880  -28.8430   22.0600 N   0  0  0  0  0  0  0  0  0  0  0  0
  -23.7250  -28.3150   22.8920 O   0  0  0  0  0  0  0  0  0  0  0  0
  -21.1760  -29.4630   21.4480 H   0  0  0  0  0  0  0  0  0  0  0  0
  -18.3330  -27.5870   22.5430 C   0  0  0  0  0  0  0  0  0  0  0  0
  -20.8970  -27.8310   22.7620 C   0  0  0  0  0  3  0  0  0  0  0  0
  -20.9850  -26.4620   22.0480 C   0  0  0  0  0  2  0  0  0  0  0  0
  -19.8550  -26.2340   21.0400 C   0  0  0  0  0  2  0  0  0  0  0  0
  -18.4920  -26.3110   21.7340 C   0  0  0  0  0  2  0  0  0  0  0  0
  -19.4610  -28.3090   23.0120 C   0  0  0  0  0  0  0  0  0  0  0  0
  -19.2590  -29.5080   23.7290 C   0  0  0  0  0  3  0  0  0  0  0  0
  -17.9590  -29.9840   23.9810 C   0  0  0  0  0  3  0  0  0  0  0  0
  -16.8450  -29.2580   23.5290 C   0  0  0  0  0  3  0  0  0  0  0  0
  -17.0320  -28.0610   22.8150 C   0  0  0  0  0  3  0  0  0  0  0  0
  -26.1340  -31.9940   23.6810 C   0  0  0  0  0  3  0  0  0  0  0  0
  -25.7980  -33.3380   24.1700 N   0  0  0  0  0  0  0  0  0  0  0  0
  -26.1260  -34.4780   23.5470 C   0  0  0  0  0  0  0  0  0  0  0  0
  -26.8140  -34.5080   22.5220 O   0  0  0  0  0  0  0  0  0  0  0  0
  -25.1880  -33.3880   24.9730 H   0  0  0  0  0  0  0  0  0  0  0  0
  -24.3820  -36.2840   23.3700 C   0  0  0  0  0  1  0  0  0  0  0  0
  -25.6090  -35.7960   24.1570 C   0  0  0  0  0  3  0  0  0  0  0  0
  -27.7100  -36.5970   25.1460 C   0  0  0  0  0  1  0  0  0  0  0  0
  -26.6300  -36.8660   24.1990 N   0  0  0  0  0  0  0  0  0  0  0  0
  -26.2080  -37.7570   24.4430 H   0  0  0  0  0  0  0  0  0  0  0  0
  -26.7090  -31.1030   24.8500 C   0  0  1  0  0  0  0  0  0  0  0  0
  -25.6600  -30.7250   25.9210 C   0  0  0  0  0  1  0  0  0  0  0  0
  -27.3040  -29.7880   24.2930 C   0  0  0  0  0  1  0  0  0  0  0  0
  -27.8670  -31.8470   25.5550 C   0  0  0  0  0  1  0  0  0  0  0  0
  1 50  1  0
  1 15  1  0
  2 14  1  0
  3  8  1  0
  4  5  1  0
  4  3  1  0
  6  5  1  0
  6 19  1  0
  6  7  1  0
  8  2  1  0
  8  7  1  0
  9  2  2  0
 11 10  1  0
 12 14  1  0
 13 12  1  0
 13 15  1  0
 13 44  1  0
 14 10  1  0
 15 11  1  0
 16 17  2  0
 17 18  1  0
 17 36  1  0
 18 21  1  0
 19 16  1  0
 19 20  1  0
 20 18  2  0
 21 22  1  0
 22 23  2  0
 24 27  1  0
 24 23  1  0
 25 24  2  0
 26 25  1  0
 26 21  2  0
 27 28  1  0
 28 29  1  0
 29 30  2  0
 31 30  1  0
 31 35  1  0
 32 31  2  0
 33 28  2  0
 33 32  1  0
 34 33  1  0
 36 37  1  0
 37 40  1  0
 37 39  1  0
 38 36  2  0
 41 16  1  0
 42 41  1  0
 43 41  1  0
 45 44  1  0
 46 49  1  0
 46 45  1  0
 47 46  1  0
 48 46  1  0
 51 52  1  0
 51 54  1  0
 51 50  1  0
 53 51  1  0
 55 56  1  0
 55 54  1  0
 56 58  1  0
 57 68  2  0
 58 63  1  0
 59 67  1  0
 59 69  1  0
 60 66  1  0
 60 62  1  0
 61 67  1  0
 62 61  1  0
 63 62  2  0
 64 65  1  0
 64 58  2  0
 65 60  2  0
 66 59  1  0
 67 57  1  0
 69 71  2  0
 70 69  1  0
 72 70  1  0
 73 82  2  0
 73 78  1  0
 74 70  1  0
 74 78  1  0
 75 74  1  0
 76 77  1  0
 76 75  1  0
 77 73  1  0
 78 79  2  0
 79 80  1  0
 81 80  2  0
 82 81  1  0
 83 57  1  0
 83 84  1  0
 83 93  1  0
 84 87  1  0
 85 89  1  0
 85 84  1  0
 86 85  2  0
 89 88  1  0
 89 91  1  0
 91 92  1  0
 91 90  1  0
 93 96  1  1
 93 94  1  0
 95 93  1  0
M  ISO  4   2 100  14 100  55 101  56 101
M  END
>  <TORSDO>  (94) 
F 23

>  <SCORE>  (94) 
-9.164

>  <name>  (94) 
94

>  <ligand_id>  (94) 
94

>  <original_smiles>  (94) 
[H]c1c([H])c([H])c2c(c1[H])C([H])([H])C([H])([H])C([H])([H])C2([H])N([H])C(=O)C1([H])N(C(=O)C([H])(N([H])C(=O)C([H])(N([H])C([H])([H])[H])C([H])([H])[H])C(C([H])([H])[H])(C([H])([H])[H])C([H])([H])[H])C([H])([H])c2c([H])c(OC([H])([H])C([H])([H])[N+]([H])([H])C([H])([H])C([H])([H])N3C([H])([H])C([H])([H])N(C(=O)N4C([H])([H])C([H])([H])C([H])([H])C([H])(n5nc(-c6c([H])c([H])c(Oc7c([H])c([H])c(F)c([H])c7F)c([H])c6[H])c(C(=O)N([H])[H])c5N([H])[H])C4([H])[H])C([H])([H])C3([H])C([H])([H])C([H])([H])[N+]([H])([H])[H])c([H])c([H])c2C1([H])[H]

>  <smiles>  (94) 
[H]c1c([H])c([H])c2c(c1[H])C([H])([H])C([H])([H])C([H])([H])C2([H])N([H])C(=O)C1([H])N(C(=O)C([H])(N([H])C(=O)C([H])(N([H])C([H])([H])[H])C([H])([H])[H])C(C([H])([H])[H])(C([H])([H])[H])C([H])([H])[H])C([H])([H])c2c([H])c(OC([H])([H])C([H])([H])[N+]([H])([H])C([H])([H])C([H])([H])N3C([H])([H])C([H])([H])N(C(=O)N4C([H])([H])C([H])([H])C([H])([H])C([H])(n5nc(-c6c([H])c([H])c(Oc7c([H])c([H])c(F)c([H])c7F)c([H])c6[H])c(C(=O)N([H])[H])c5N([H])[H])C4([H])[H])C([H])([H])C3([H])C([H])([H])C([H])([H])[N+]([H])([H])[H])c([H])c([H])c2C1([H])[H]

$$$$
95:0:0
     RDKit          3D

 95104  0  0  1  0  0  0  0  0999 V2000
  -31.4030  -21.1410   19.4550 C   0  0  0  0  0  2  0  0  0  0  0  0
  -29.3180  -20.6540   20.7470 C   0  0  0  0  0  2  0  0  0  0  0  0
  -30.7420  -22.4310   18.9260 C   0  0  0  0  0  2  0  0  0  0  0  0
  -28.6990  -21.9540   20.1900 C   0  0  0  0  0  2  0  0  0  0  0  0
  -30.3720  -20.0470   19.7950 C   0  0  0  0  0  3  0  0  0  0  0  0
  -29.7450  -22.9700   19.8890 N   0  0  2  0  0  4  0  0  0  0  0  0
  -30.2540  -23.1300   20.7470 H   0  0  0  0  0  0  0  0  0  0  0  0
  -31.0720  -18.7960   20.3880 C   0  0  0  0  0  2  0  0  0  0  0  0
  -31.2040  -14.3110   19.3840 C   0  0  0  0  0  0  0  0  0  0  0  0
  -30.5920  -12.2950   18.0930 C   0  0  0  0  0  2  0  0  0  0  0  0
  -29.4450  -12.6210   17.1150 C   0  0  0  0  0  2  0  0  0  0  0  0
  -28.0750  -12.4710   17.8050 C   0  0  0  0  0  2  0  0  0  0  0  0
  -28.0150  -13.2090   19.1670 C   0  0  0  0  0  3  0  0  0  0  0  0
  -29.2440  -12.8550   20.0310 C   0  0  0  0  0  2  0  0  0  0  0  0
  -30.4600  -13.1770   19.2610 N   0  0  0  0  0  0  0  0  0  0  0  0
  -32.1350  -14.5940   18.6210 O   0  0  0  0  0  0  0  0  0  0  0  0
  -30.9270  -15.9730   22.5930 C   0  0  0  0  0  3  0  0  0  0  0  0
  -31.1450  -15.0520   21.6400 C   0  0  0  0  0  2  0  0  0  0  0  0
  -30.3320  -17.2830   22.3080 C   0  0  0  0  0  0  0  0  0  0  0  0
  -30.0920  -16.4430   19.8610 C   0  0  0  0  0  3  0  0  0  0  0  0
  -30.1110  -17.6580   20.8420 C   0  0  0  0  0  0  0  0  0  0  0  0
  -30.0340  -18.0800   23.2440 N   0  0  0  0  0  2  0  0  0  0  0  0
  -30.7640  -15.2020   20.3000 N   0  0  0  0  0  0  0  0  0  0  0  0
  -30.2450  -17.6950   24.1580 H   0  0  0  0  0  0  0  0  0  0  0  0
  -25.8370  -13.8260   20.3970 C   0  0  0  0  0  0  0  0  0  0  0  0
  -24.8180  -13.0580   20.8910 C   0  0  0  0  0  0  0  0  0  0  0  0
  -25.1850  -11.7020   20.6280 C   0  0  0  0  0  0  0  0  0  0  0  0
  -26.7640  -12.9390   19.8740 N   0  0  0  0  0  0  0  0  0  0  0  0
  -26.3840  -11.6500   20.0650 N   0  0  0  0  0  0  0  0  0  0  0  0
  -24.4400  -10.4530   20.8280 C   0  0  0  0  0  0  0  0  0  0  0  0
  -24.8490   -9.4930   21.7790 C   0  0  0  0  0  3  0  0  0  0  0  0
  -24.1060   -8.3060   21.9630 C   0  0  0  0  0  3  0  0  0  0  0  0
  -22.9410   -8.0740   21.1970 C   0  0  0  0  0  0  0  0  0  0  0  0
  -22.5510   -9.0220   20.2350 C   0  0  0  0  0  3  0  0  0  0  0  0
  -23.2940  -10.2000   20.0490 C   0  0  0  0  0  3  0  0  0  0  0  0
  -22.1700   -6.9400   21.2890 O   0  0  0  0  0  0  0  0  0  0  0  0
  -21.9010   -6.3510   22.4990 C   0  0  0  0  0  0  0  0  0  0  0  0
  -21.3150   -7.0690   23.5630 C   0  0  0  0  0  3  0  0  0  0  0  0
  -20.9900   -6.4080   24.7650 C   0  0  0  0  0  3  0  0  0  0  0  0
  -21.2420   -5.0290   24.9010 C   0  0  0  0  0  0  0  0  0  0  0  0
  -21.8200   -4.3110   23.8390 C   0  0  0  0  0  3  0  0  0  0  0  0
  -22.1450   -4.9700   22.6400 C   0  0  0  0  0  0  0  0  0  0  0  0
  -22.6830   -4.2690   21.6130 F   0  0  0  0  0  0  0  0  0  0  0  0
  -20.9240   -4.3920   26.0510 F   0  0  0  0  0  0  0  0  0  0  0  0
  -23.5310  -13.5500   21.4860 C   0  0  0  0  0  0  0  0  0  0  0  0
  -22.9920  -12.8300   22.4640 N   0  0  0  0  0  0  0  0  0  0  0  0
  -23.0190  -14.6070   21.1190 O   0  0  0  0  0  0  0  0  0  0  0  0
  -23.4210  -11.9730   22.7800 H   0  0  0  0  0  0  0  0  0  0  0  0
  -22.1360  -13.1410   22.9040 H   0  0  0  0  0  0  0  0  0  0  0  0
  -26.0430  -15.2020   20.3330 N   0  0  0  0  0  0  0  0  0  0  0  0
  -25.3530  -15.8680   20.6610 H   0  0  0  0  0  0  0  0  0  0  0  0
  -26.8390  -15.6420   19.8910 H   0  0  0  0  0  0  0  0  0  0  0  0
  -29.2040  -24.2950   19.4670 C   0  0  0  0  0  2  0  0  0  0  0  0
  -28.6660  -25.1440   20.6370 C   0  0  0  0  0  2  0  0  0  0  0  0
  -28.7360  -26.5380   20.3150 O   0  0  0  0  0  0  0  0  0  0  0  0
  -24.6990  -31.6720   23.1100 C   0  0  0  0  0  0  0  0  0  0  0  0
  -27.5420  -27.2170   20.2600 C   0  0  0  0  0  0  0  0  0  0  0  0
  -23.5850  -30.2160   21.4460 C   0  0  0  0  0  3  0  0  0  0  0  0
  -25.1230  -28.6660   20.1270 C   0  0  0  0  0  0  0  0  0  0  0  0
  -26.1080  -30.6170   21.3460 C   0  0  0  0  0  2  0  0  0  0  0  0
  -26.2430  -29.2310   20.7500 C   0  0  0  0  0  0  0  0  0  0  0  0
  -27.4580  -28.5150   20.8090 C   0  0  0  0  0  3  0  0  0  0  0  0
  -26.4080  -26.6570   19.6330 C   0  0  0  0  0  3  0  0  0  0  0  0
  -25.1990  -27.3780   19.5670 C   0  0  0  0  0  3  0  0  0  0  0  0
  -23.8660  -29.5040   20.0950 C   0  0  0  0  0  2  0  0  0  0  0  0
  -24.8130  -30.8510   22.0280 N   0  0  0  0  0  0  0  0  0  0  0  0
  -23.5920  -31.9390   23.5970 O   0  0  0  0  0  0  0  0  0  0  0  0
  -22.9070  -29.2080   22.4000 C   0  0  0  0  0  0  0  0  0  0  0  0
  -21.5840  -29.0370   22.2450 N   0  0  0  0  0  0  0  0  0  0  0  0
  -23.5680  -28.5830   23.2330 O   0  0  0  0  0  0  0  0  0  0  0  0
  -21.1130  -29.5940   21.5450 H   0  0  0  0  0  0  0  0  0  0  0  0
  -18.1800  -27.9310   22.7290 C   0  0  0  0  0  0  0  0  0  0  0  0
  -20.7430  -28.1100   23.0020 C   0  0  0  0  0  3  0  0  0  0  0  0
  -20.8040  -26.6860   22.4030 C   0  0  0  0  0  2  0  0  0  0  0  0
  -19.6930  -26.4120   21.3850 C   0  0  0  0  0  2  0  0  0  0  0  0
  -18.3160  -26.5870   22.0330 C   0  0  0  0  0  2  0  0  0  0  0  0
  -19.3200  -28.6530   23.1700 C   0  0  0  0  0  0  0  0  0  0  0  0
  -19.1400  -29.9140   23.7790 C   0  0  0  0  0  3  0  0  0  0  0  0
  -17.8510  -30.4530   23.9510 C   0  0  0  0  0  3  0  0  0  0  0  0
  -16.7250  -29.7280   23.5270 C   0  0  0  0  0  3  0  0  0  0  0  0
  -16.8900  -28.4680   22.9220 C   0  0  0  0  0  3  0  0  0  0  0  0
  -25.9490  -32.3330   23.7720 C   0  0  0  0  0  3  0  0  0  0  0  0
  -26.4630  -31.5560   25.0460 C   0  0  1  0  0  0  0  0  0  0  0  0
  -25.3510  -31.2410   26.0740 C   0  0  0  0  0  1  0  0  0  0  0  0
  -27.1180  -30.2170   24.6350 C   0  0  0  0  0  1  0  0  0  0  0  0
  -27.5550  -32.3830   25.7620 C   0  0  0  0  0  1  0  0  0  0  0  0
  -25.5890  -33.7150   24.1170 N   0  0  0  0  0  0  0  0  0  0  0  0
  -25.8850  -34.7870   23.3680 C   0  0  0  0  0  0  0  0  0  0  0  0
  -26.5640  -34.7190   22.3390 O   0  0  0  0  0  0  0  0  0  0  0  0
  -24.9880  -33.8390   24.9180 H   0  0  0  0  0  0  0  0  0  0  0  0
  -24.0910  -36.5140   23.0250 C   0  0  0  0  0  1  0  0  0  0  0  0
  -25.3440  -36.1510   23.8360 C   0  0  0  0  0  3  0  0  0  0  0  0
  -27.4350  -37.1140   24.6900 C   0  0  0  0  0  1  0  0  0  0  0  0
  -26.3360  -37.2430   23.7360 N   0  0  0  0  0  0  0  0  0  0  0  0
  -25.8940  -38.1460   23.8840 H   0  0  0  0  0  0  0  0  0  0  0  0
  1  5  1  0
  3  1  1  0
  3  6  1  0
  4  2  1  0
  5  8  1  0
  5  2  1  0
  6  4  1  0
  6  7  1  1
  8 21  1  0
  9 23  1  0
 10 15  1  0
 11 12  1  0
 11 10  1  0
 13 12  1  0
 13 28  1  0
 13 14  1  0
 15  9  1  0
 15 14  1  0
 16  9  2  0
 18 17  1  0
 19 17  2  0
 19 22  1  0
 20 23  1  0
 20 21  2  0
 21 19  1  0
 22 24  1  0
 23 18  1  0
 25 26  2  0
 26 45  1  0
 27 30  1  0
 27 26  1  0
 28 29  1  0
 28 25  1  0
 29 27  2  0
 30 31  1  0
 31 32  2  0
 33 36  1  0
 33 32  1  0
 34 33  2  0
 35 34  1  0
 35 30  2  0
 36 37  1  0
 37 42  2  0
 37 38  1  0
 38 39  2  0
 39 40  1  0
 40 44  1  0
 41 40  2  0
 42 41  1  0
 43 42  1  0
 45 46  1  0
 46 48  1  0
 46 49  1  0
 47 45  2  0
 50 25  1  0
 50 51  1  0
 52 50  1  0
 53  6  1  0
 53 54  1  0
 55 54  1  0
 56 67  2  0
 57 55  1  0
 57 62  1  0
 58 66  1  0
 58 68  1  0
 59 61  1  0
 60 66  1  0
 61 62  2  0
 61 60  1  0
 63 57  2  0
 64 63  1  0
 64 59  2  0
 65 59  1  0
 65 58  1  0
 66 56  1  0
 68 70  2  0
 69 68  1  0
 71 69  1  0
 72 81  2  0
 72 77  1  0
 73 69  1  0
 73 77  1  0
 74 73  1  0
 75 76  1  0
 75 74  1  0
 76 72  1  0
 77 78  2  0
 78 79  1  0
 80 79  2  0
 81 80  1  0
 82 56  1  0
 82 87  1  0
 82 83  1  0
 83 86  1  1
 83 84  1  0
 85 83  1  0
 87 90  1  0
 88 92  1  0
 88 87  1  0
 89 88  2  0
 92 91  1  0
 94 92  1  0
 94 95  1  0
 94 93  1  0
M  ISO  4   9 100  23 100  54 101  55 101
M  END
>  <TORSDO>  (95) 
F 19

>  <SCORE>  (95) 
-10.861

>  <name>  (95) 
95

>  <ligand_id>  (95) 
95

>  <original_smiles>  (95) 
[H]N=C1C([H])=C([H])N(C(=O)N2C([H])([H])C([H])([H])C([H])([H])C([H])(n3nc(-c4c([H])c([H])c(Oc5c([H])c([H])c(F)c([H])c5F)c([H])c4[H])c(C(=O)N([H])[H])c3N([H])[H])C2([H])[H])C([H])([H])C1([H])C([H])([H])C1([H])C([H])([H])C([H])([H])[N+]([H])(C([H])([H])C([H])([H])Oc2c([H])c([H])c3c(c2[H])C([H])([H])N(C(=O)C([H])(N([H])C(=O)C([H])(N([H])C([H])([H])[H])C([H])([H])[H])C(C([H])([H])[H])(C([H])([H])[H])C([H])([H])[H])C([H])(C(=O)N([H])C2([H])c4c([H])c([H])c([H])c([H])c4C([H])([H])C([H])([H])C2([H])[H])C3([H])[H])C([H])([H])C1([H])[H]

>  <smiles>  (95) 
[H]N=C1C([H])=C([H])N(C(=O)N2C([H])([H])C([H])([H])C([H])([H])C([H])(n3nc(-c4c([H])c([H])c(Oc5c([H])c([H])c(F)c([H])c5F)c([H])c4[H])c(C(=O)N([H])[H])c3N([H])[H])C2([H])[H])C([H])([H])C1([H])C([H])([H])C1([H])C([H])([H])C([H])([H])[N+]([H])(C([H])([H])C([H])([H])Oc2c([H])c([H])c3c(c2[H])C([H])([H])N(C(=O)C([H])(N([H])C(=O)C([H])(N([H])C([H])([H])[H])C([H])([H])[H])C(C([H])([H])[H])(C([H])([H])[H])C([H])([H])[H])C([H])(C(=O)N([H])C2([H])c4c([H])c([H])c([H])c([H])c4C([H])([H])C([H])([H])C2([H])[H])C3([H])[H])C([H])([H])C1([H])[H]

$$$$
96:0:0
     RDKit          3D

 99107  0  0  1  0  0  0  0  0999 V2000
  -28.8590  -18.1820   20.3550 C   0  0  0  0  0  3  0  0  0  0  0  0
  -30.0500  -20.2960   21.2680 C   0  0  0  0  0  2  0  0  0  0  0  0
  -28.1050  -20.5350   19.7470 C   0  0  0  0  0  2  0  0  0  0  0  0
  -29.7200  -21.8080   21.6580 C   0  0  0  0  0  2  0  0  0  0  0  0
  -28.7190  -21.9460   19.3990 C   0  0  0  0  0  2  0  0  0  0  0  0
  -28.9990  -19.5780   20.4890 N   0  0  0  0  0  0  0  0  0  0  0  0
  -27.8710  -17.6830   19.5820 N   0  0  0  0  0  0  0  0  0  0  0  0
  -29.3100  -22.7290   20.5320 N   0  0  1  0  0  4  0  0  0  0  0  0
  -27.8820  -16.7050   19.3390 H   0  0  0  0  0  0  0  0  0  0  0  0
  -27.1900  -18.2540   19.1060 H   0  0  0  0  0  0  0  0  0  0  0  0
  -30.1890  -23.0570   20.1480 H   0  0  0  0  0  0  0  0  0  0  0  0
  -29.7220  -17.0420   21.0070 C   0  0  0  0  0  2  0  0  0  0  0  0
  -30.7940  -14.7500   20.3190 C   0  0  0  0  0  0  0  0  0  0  0  0
  -30.4310  -12.5610   19.2000 C   0  0  0  0  0  2  0  0  0  0  0  0
  -29.4680  -12.6930   18.0130 C   0  0  0  0  0  2  0  0  0  0  0  0
  -28.0010  -12.5520   18.4610 C   0  0  0  0  0  2  0  0  0  0  0  0
  -27.6610  -13.3660   19.7430 C   0  0  0  0  0  3  0  0  0  0  0  0
  -28.7630  -13.2700   20.8230 C   0  0  0  0  0  2  0  0  0  0  0  0
  -30.0340  -13.6110   20.1690 N   0  0  0  0  0  0  0  0  0  0  0  0
  -32.0060  -14.6590   20.1180 O   0  0  0  0  0  0  0  0  0  0  0  0
  -30.2410  -16.0020   20.0400 N   0  0  0  0  0  0  0  0  0  0  0  0
  -25.2720  -13.9230   20.5120 C   0  0  0  0  0  0  0  0  0  0  0  0
  -24.2130  -13.1320   20.8800 C   0  0  0  0  0  0  0  0  0  0  0  0
  -24.6850  -11.7890   20.8240 C   0  0  0  0  0  0  0  0  0  0  0  0
  -26.3250  -13.0540   20.2570 N   0  0  0  0  0  0  0  0  0  0  0  0
  -25.9750  -11.7660   20.5010 N   0  0  0  0  0  0  0  0  0  0  0  0
  -23.9650  -10.5200   21.0130 C   0  0  0  0  0  0  0  0  0  0  0  0
  -24.3920   -9.5550   21.9520 C   0  0  0  0  0  3  0  0  0  0  0  0
  -23.6650   -8.3570   22.1340 C   0  0  0  0  0  3  0  0  0  0  0  0
  -22.4940   -8.1160   21.3750 C   0  0  0  0  0  0  0  0  0  0  0  0
  -22.0830   -9.0710   20.4290 C   0  0  0  0  0  3  0  0  0  0  0  0
  -22.8120  -10.2590   20.2460 C   0  0  0  0  0  3  0  0  0  0  0  0
  -21.7450   -6.9660   21.4590 O   0  0  0  0  0  0  0  0  0  0  0  0
  -21.6710   -6.2370   22.6180 C   0  0  0  0  0  0  0  0  0  0  0  0
  -21.1890   -6.7970   23.8210 C   0  0  0  0  0  3  0  0  0  0  0  0
  -21.0640   -5.9930   24.9730 C   0  0  0  0  0  3  0  0  0  0  0  0
  -21.4140   -4.6320   24.9210 C   0  0  0  0  0  0  0  0  0  0  0  0
  -21.8850   -4.0680   23.7220 C   0  0  0  0  0  3  0  0  0  0  0  0
  -22.0110   -4.8690   22.5730 C   0  0  0  0  0  0  0  0  0  0  0  0
  -22.4480   -4.3180   21.4150 F   0  0  0  0  0  0  0  0  0  0  0  0
  -21.2840   -3.8570   26.0240 F   0  0  0  0  0  0  0  0  0  0  0  0
  -22.8190  -13.6070   21.1690 C   0  0  0  0  0  0  0  0  0  0  0  0
  -22.1000  -12.8970   22.0350 N   0  0  0  0  0  0  0  0  0  0  0  0
  -22.3710  -14.6370   20.6710 O   0  0  0  0  0  0  0  0  0  0  0  0
  -22.4770  -12.0710   22.4710 H   0  0  0  0  0  0  0  0  0  0  0  0
  -21.1620  -13.1890   22.2650 H   0  0  0  0  0  0  0  0  0  0  0  0
  -25.4020  -15.2980   20.3660 N   0  0  0  0  0  0  0  0  0  0  0  0
  -24.6070  -15.9010   20.5570 H   0  0  0  0  0  0  0  0  0  0  0  0
  -26.2540  -15.8230   20.2070 H   0  0  0  0  0  0  0  0  0  0  0  0
  -30.8750  -16.7350   18.9090 C   0  0  0  0  0  2  0  0  0  0  0  0
  -32.2090  -17.4680   19.2610 C   0  0  0  0  0  2  0  0  0  0  0  0
  -33.3830  -17.1310   18.3190 C   0  0  0  0  0  2  0  0  0  0  0  0
  -34.6880  -17.3490   18.9680 N   0  0  0  0  0  4  0  0  0  0  0  0
  -34.8460  -18.3200   19.1500 H   0  0  0  0  0  0  0  0  0  0  0  0
  -35.4190  -17.0170   18.3630 H   0  0  0  0  0  0  0  0  0  0  0  0
  -34.7650  -16.8340   19.8260 H   0  0  0  0  0  0  0  0  0  0  0  0
  -28.6490  -24.0600   20.9390 C   0  0  0  0  0  3  0  0  0  0  0  0
  -28.8080  -25.3160   19.9590 C   0  0  0  0  0  3  0  0  0  0  0  0
  -28.4940  -26.6920   20.3930 O   0  0  0  0  0  0  0  0  0  0  0  0
  -24.5510  -31.9200   23.2200 C   0  0  0  0  0  0  0  0  0  0  0  0
  -27.2910  -27.4020   20.2550 C   0  0  0  0  0  0  0  0  0  0  0  0
  -23.3720  -30.4990   21.5560 C   0  0  0  0  0  3  0  0  0  0  0  0
  -24.8770  -28.9390   20.1850 C   0  0  0  0  0  0  0  0  0  0  0  0
  -25.9080  -30.8490   21.4310 C   0  0  0  0  0  2  0  0  0  0  0  0
  -26.0200  -29.4770   20.7750 C   0  0  0  0  0  0  0  0  0  0  0  0
  -27.2260  -28.7190   20.7940 C   0  0  0  0  0  3  0  0  0  0  0  0
  -26.1120  -26.8840   19.6630 C   0  0  0  0  0  3  0  0  0  0  0  0
  -24.9170  -27.6440   19.6330 C   0  0  0  0  0  3  0  0  0  0  0  0
  -23.6320  -29.8020   20.1890 C   0  0  0  0  0  2  0  0  0  0  0  0
  -24.6180  -31.1190   22.1180 N   0  0  0  0  0  0  0  0  0  0  0  0
  -23.4630  -32.1890   23.7540 O   0  0  0  0  0  0  0  0  0  0  0  0
  -22.7070  -29.4920   22.5290 C   0  0  0  0  0  0  0  0  0  0  0  0
  -21.3780  -29.3170   22.4110 N   0  0  0  0  0  0  0  0  0  0  0  0
  -23.3870  -28.8700   23.3460 O   0  0  0  0  0  0  0  0  0  0  0  0
  -20.8890  -29.8810   21.7290 H   0  0  0  0  0  0  0  0  0  0  0  0
  -17.9960  -28.1430   22.9500 C   0  0  0  0  0  0  0  0  0  0  0  0
  -20.5610  -28.3830   23.1900 C   0  0  0  0  0  3  0  0  0  0  0  0
  -20.6400  -26.9480   22.6140 C   0  0  0  0  0  2  0  0  0  0  0  0
  -19.5270  -26.6350   21.6110 C   0  0  0  0  0  2  0  0  0  0  0  0
  -18.1530  -26.7910   22.2700 C   0  0  0  0  0  2  0  0  0  0  0  0
  -19.1250  -28.8950   23.3680 C   0  0  0  0  0  0  0  0  0  0  0  0
  -18.9210  -30.1570   23.9660 C   0  0  0  0  0  3  0  0  0  0  0  0
  -17.6230  -30.6660   24.1480 C   0  0  0  0  0  3  0  0  0  0  0  0
  -16.5080  -29.9120   23.7400 C   0  0  0  0  0  3  0  0  0  0  0  0
  -16.6950  -28.6500   23.1480 C   0  0  0  0  0  3  0  0  0  0  0  0
  -25.8320  -32.5560   23.8560 C   0  0  0  0  0  3  0  0  0  0  0  0
  -26.3490  -31.7980   25.1440 C   0  0  1  0  0  0  0  0  0  0  0  0
  -25.2460  -31.5710   26.2040 C   0  0  0  0  0  1  0  0  0  0  0  0
  -26.9460  -30.4140   24.7880 C   0  0  0  0  0  1  0  0  0  0  0  0
  -27.4970  -32.6030   25.7990 C   0  0  0  0  0  1  0  0  0  0  0  0
  -25.5210  -33.9550   24.1710 N   0  0  0  0  0  0  0  0  0  0  0  0
  -25.8530  -35.0000   23.4000 C   0  0  0  0  0  0  0  0  0  0  0  0
  -26.5180  -34.8920   22.3640 O   0  0  0  0  0  0  0  0  0  0  0  0
  -24.9570  -34.1220   24.9900 H   0  0  0  0  0  0  0  0  0  0  0  0
  -24.1280  -36.7840   23.0210 C   0  0  0  0  0  1  0  0  0  0  0  0
  -25.3610  -36.3870   23.8480 C   0  0  0  0  0  3  0  0  0  0  0  0
  -27.4770  -37.2820   24.7080 C   0  0  0  0  0  1  0  0  0  0  0  0
  -26.3900  -37.4400   23.7450 N   0  0  0  0  0  0  0  0  0  0  0  0
  -25.9790  -38.3580   23.8830 H   0  0  0  0  0  0  0  0  0  0  0  0
  1  6  1  0
  1 12  1  0
  2  4  1  0
  3  6  1  0
  5  3  1  0
  5  8  1  0
  6  2  1  0
  7  1  1  0
  8 57  1  0
  8  4  1  0
  9  7  1  0
 10  7  1  0
  8 11  1  6
 14 19  1  0
 15 16  1  0
 15 14  1  0
 17 16  1  0
 17 25  1  0
 17 18  1  0
 19 13  1  0
 19 18  1  0
 20 13  2  0
 21 13  1  0
 21 12  1  0
 22 23  2  0
 23 42  1  0
 24 23  1  0
 24 27  1  0
 25 26  1  0
 25 22  1  0
 26 24  2  0
 27 28  1  0
 28 29  2  0
 30 33  1  0
 30 29  1  0
 31 30  2  0
 32 31  1  0
 32 27  2  0
 33 34  1  0
 34 35  1  0
 35 36  2  0
 37 36  1  0
 37 41  1  0
 38 37  2  0
 39 34  2  0
 39 38  1  0
 40 39  1  0
 42 43  1  0
 43 46  1  0
 43 45  1  0
 44 42  2  0
 47 22  1  0
 47 48  1  0
 49 47  1  0
 50 51  1  0
 50 21  1  0
 52 53  1  0
 52 51  1  0
 53 54  1  0
 53 56  1  0
 55 53  1  0
 58 59  1  0
 58 57  2  0
 60 71  2  0
 61 59  1  0
 61 66  1  0
 62 70  1  0
 62 72  1  0
 63 69  1  0
 63 65  1  0
 64 70  1  0
 65 66  2  0
 65 64  1  0
 67 61  2  0
 68 67  1  0
 68 63  2  0
 69 62  1  0
 70 60  1  0
 72 74  2  0
 73 72  1  0
 75 73  1  0
 76 85  2  0
 76 81  1  0
 77 73  1  0
 77 81  1  0
 78 77  1  0
 79 80  1  0
 79 78  1  0
 80 76  1  0
 81 82  2  0
 82 83  1  0
 84 83  2  0
 85 84  1  0
 86 60  1  0
 86 91  1  0
 86 87  1  0
 87 90  1  1
 87 88  1  0
 89 87  1  0
 91 94  1  0
 92 96  1  0
 92 91  1  0
 93 92  2  0
 96 95  1  0
 98 96  1  0
 98 99  1  0
 98 97  1  0
M  ISO  4  13 100  21 100  58 101  59 101
M  END
>  <TORSDO>  (96) 
F 23

>  <SCORE>  (96) 
-13.439

>  <name>  (96) 
96

>  <ligand_id>  (96) 
96

>  <original_smiles>  (96) 
[H]c1c([H])c([H])c2c(c1[H])C([H])([H])C([H])([H])C([H])([H])C2([H])N([H])C(=O)C1([H])N(C(=O)C([H])(N([H])C(=O)C([H])(N([H])C([H])([H])[H])C([H])([H])[H])C(C([H])([H])[H])(C([H])([H])[H])C([H])([H])[H])C([H])([H])c2c([H])c(OC([H])([H])C([H])([H])[N+]3([H])C([H])([H])C([H])([H])N(C(=[N+]([H])[H])C([H])([H])N(C(=O)N4C([H])([H])C([H])([H])C([H])([H])C([H])(n5nc(-c6c([H])c([H])c(Oc7c([H])c([H])c(F)c([H])c7F)c([H])c6[H])c(C(=O)N([H])[H])c5N([H])[H])C4([H])[H])C([H])([H])C([H])([H])C([H])([H])[N+]([H])([H])[H])C([H])([H])C3([H])[H])c([H])c([H])c2C1([H])[H]

>  <smiles>  (96) 
[H]c1c([H])c([H])c2c(c1[H])C([H])([H])C([H])([H])C([H])([H])C2([H])N([H])C(=O)C1([H])N(C(=O)C([H])(N([H])C(=O)C([H])(N([H])C([H])([H])[H])C([H])([H])[H])C(C([H])([H])[H])(C([H])([H])[H])C([H])([H])[H])C([H])([H])c2c([H])c(OC([H])([H])C([H])([H])[N+]3([H])C([H])([H])C([H])([H])N(C(=[N+]([H])[H])C([H])([H])N(C(=O)N4C([H])([H])C([H])([H])C([H])([H])C([H])(n5nc(-c6c([H])c([H])c(Oc7c([H])c([H])c(F)c([H])c7F)c([H])c6[H])c(C(=O)N([H])[H])c5N([H])[H])C4([H])[H])C([H])([H])C([H])([H])C([H])([H])[N+]([H])([H])[H])C([H])([H])C3([H])[H])c([H])c([H])c2C1([H])[H]

$$$$
97:0:0
     RDKit          3D

 92100  0  0  1  0  0  0  0  0999 V2000
  -29.7320  -20.6570   20.2900 C   0  0  0  0  0  2  0  0  0  0  0  0
  -29.6250  -20.0690   22.5620 C   0  0  0  0  0  2  0  0  0  0  0  0
  -30.8030  -19.5830   20.0120 C   0  0  0  0  0  2  0  0  0  0  0  0
  -30.6970  -18.9660   22.3770 C   0  0  0  0  0  2  0  0  0  0  0  0
  -29.9060  -21.1850   21.6500 N   0  0  0  0  0  0  0  0  0  0  0  0
  -30.7390  -18.4520   20.9790 N   0  0  2  0  0  4  0  0  0  0  0  0
  -29.8730  -17.9660   20.8080 H   0  0  0  0  0  0  0  0  0  0  0  0
  -29.0080  -22.3180   21.8950 C   0  0  0  0  0  2  0  0  0  0  0  0
  -29.6930  -23.6410   21.4910 C   0  0  0  0  0  2  0  0  0  0  0  0
  -28.7040  -24.8070   21.2830 C   0  0  0  0  0  2  0  0  0  0  0  0
  -29.3990  -26.1800   21.1430 C   0  0  0  0  0  2  0  0  0  0  0  0
  -28.9710  -26.8800   19.9790 O   0  0  0  0  0  0  0  0  0  0  0  0
  -24.8510  -31.7810   23.1540 C   0  0  0  0  0  0  0  0  0  0  0  0
  -27.7690  -27.5350   20.0640 C   0  0  0  0  0  0  0  0  0  0  0  0
  -23.7480  -30.3580   21.4550 C   0  0  0  0  0  3  0  0  0  0  0  0
  -25.3060  -28.9090   20.0460 C   0  0  0  0  0  0  0  0  0  0  0  0
  -26.2560  -30.8330   21.3300 C   0  0  0  0  0  2  0  0  0  0  0  0
  -26.4200  -29.4760   20.6800 C   0  0  0  0  0  0  0  0  0  0  0  0
  -27.6560  -28.7910   20.6990 C   0  0  0  0  0  3  0  0  0  0  0  0
  -26.6460  -26.9770   19.4230 C   0  0  0  0  0  3  0  0  0  0  0  0
  -25.4110  -27.6530   19.4200 C   0  0  0  0  0  3  0  0  0  0  0  0
  -24.0240  -29.7100   20.0720 C   0  0  0  0  0  2  0  0  0  0  0  0
  -24.9680  -31.0050   22.0400 N   0  0  0  0  0  0  0  0  0  0  0  0
  -23.7450  -31.9980   23.6690 O   0  0  0  0  0  0  0  0  0  0  0  0
  -23.1200  -29.2900   22.3800 C   0  0  0  0  0  0  0  0  0  0  0  0
  -21.8090  -29.0550   22.2150 N   0  0  0  0  0  0  0  0  0  0  0  0
  -23.8110  -28.6790   23.1980 O   0  0  0  0  0  0  0  0  0  0  0  0
  -21.3140  -29.6050   21.5280 H   0  0  0  0  0  0  0  0  0  0  0  0
  -18.4740  -27.7200   22.6080 C   0  0  0  0  0  0  0  0  0  0  0  0
  -21.0130  -28.0680   22.9430 C   0  0  0  0  0  3  0  0  0  0  0  0
  -21.1830  -26.6580   22.3360 C   0  0  0  0  0  2  0  0  0  0  0  0
  -20.1170  -26.3180   21.2900 C   0  0  0  0  0  2  0  0  0  0  0  0
  -18.7170  -26.3940   21.9060 C   0  0  0  0  0  2  0  0  0  0  0  0
  -19.5530  -28.5130   23.0800 C   0  0  0  0  0  0  0  0  0  0  0  0
  -19.2750  -29.7540   23.6920 C   0  0  0  0  0  3  0  0  0  0  0  0
  -17.9490  -30.2030   23.8400 C   0  0  0  0  0  3  0  0  0  0  0  0
  -16.8840  -29.4070   23.3850 C   0  0  0  0  0  3  0  0  0  0  0  0
  -17.1470  -28.1670   22.7750 C   0  0  0  0  0  3  0  0  0  0  0  0
  -26.0930  -32.4520   23.8190 C   0  0  0  0  0  3  0  0  0  0  0  0
  -25.7200  -33.8310   24.1580 N   0  0  0  0  0  0  0  0  0  0  0  0
  -26.0260  -34.9050   23.4160 C   0  0  0  0  0  0  0  0  0  0  0  0
  -26.7260  -34.8400   22.4010 O   0  0  0  0  0  0  0  0  0  0  0  0
  -25.0960  -33.9510   24.9420 H   0  0  0  0  0  0  0  0  0  0  0  0
  -24.2290  -36.6210   23.0450 C   0  0  0  0  0  1  0  0  0  0  0  0
  -25.4720  -36.2660   23.8760 C   0  0  0  0  0  3  0  0  0  0  0  0
  -27.5490  -37.2340   24.7570 C   0  0  0  0  0  1  0  0  0  0  0  0
  -26.4610  -37.3620   23.7900 N   0  0  0  0  0  0  0  0  0  0  0  0
  -26.0120  -38.2630   23.9380 H   0  0  0  0  0  0  0  0  0  0  0  0
  -26.6090  -31.6800   25.0950 C   0  0  1  0  0  0  0  0  0  0  0  0
  -25.4990  -31.3770   26.1280 C   0  0  0  0  0  1  0  0  0  0  0  0
  -27.2610  -30.3360   24.6940 C   0  0  0  0  0  1  0  0  0  0  0  0
  -27.7090  -32.5120   25.8000 C   0  0  0  0  0  1  0  0  0  0  0  0
  -31.8560  -17.4970   20.7280 C   0  0  0  0  0  2  0  0  0  0  0  0
  -31.7670  -16.1380   21.4660 C   0  0  0  0  0  2  0  0  0  0  0  0
  -31.2010  -14.3510   19.8280 C   0  0  0  0  0  0  0  0  0  0  0  0
  -30.7300  -12.2310   18.6540 C   0  0  0  0  0  2  0  0  0  0  0  0
  -29.7120  -12.4090   17.5120 C   0  0  0  0  0  2  0  0  0  0  0  0
  -28.2710  -12.2970   18.0450 C   0  0  0  0  0  2  0  0  0  0  0  0
  -28.0280  -13.1890   19.2910 C   0  0  0  0  0  3  0  0  0  0  0  0
  -29.1420  -12.9820   20.3390 C   0  0  0  0  0  2  0  0  0  0  0  0
  -30.4430  -13.2340   19.6910 N   0  0  0  0  0  0  0  0  0  0  0  0
  -32.1760  -14.6010   19.1130 O   0  0  0  0  0  0  0  0  0  0  0  0
  -30.8740  -15.1450   20.8590 N   0  0  0  0  0  0  0  0  0  0  0  0
  -30.0720  -14.8540   21.3990 H   0  0  0  0  0  0  0  0  0  0  0  0
  -25.7040  -13.8720   20.1670 C   0  0  0  0  0  0  0  0  0  0  0  0
  -24.6400  -13.1320   20.6090 C   0  0  0  0  0  0  0  0  0  0  0  0
  -25.0530  -11.7660   20.5400 C   0  0  0  0  0  0  0  0  0  0  0  0
  -26.7020  -12.9590   19.8600 N   0  0  0  0  0  0  0  0  0  0  0  0
  -26.3170  -11.6870   20.1400 N   0  0  0  0  0  0  0  0  0  0  0  0
  -24.3040  -10.5260   20.7790 C   0  0  0  0  0  0  0  0  0  0  0  0
  -24.7250   -9.5820   21.7410 C   0  0  0  0  0  3  0  0  0  0  0  0
  -23.9770   -8.4070   21.9650 C   0  0  0  0  0  3  0  0  0  0  0  0
  -22.7950   -8.1650   21.2260 C   0  0  0  0  0  0  0  0  0  0  0  0
  -22.3930   -9.0970   20.2520 C   0  0  0  0  0  3  0  0  0  0  0  0
  -23.1400  -10.2660   20.0270 C   0  0  0  0  0  3  0  0  0  0  0  0
  -22.0180   -7.0390   21.3570 O   0  0  0  0  0  0  0  0  0  0  0  0
  -21.9020   -6.3800   22.5540 C   0  0  0  0  0  0  0  0  0  0  0  0
  -21.4160   -7.0220   23.7140 C   0  0  0  0  0  3  0  0  0  0  0  0
  -21.2480   -6.2880   24.9060 C   0  0  0  0  0  3  0  0  0  0  0  0
  -21.5570   -4.9150   24.9380 C   0  0  0  0  0  0  0  0  0  0  0  0
  -22.0370   -4.2740   23.7830 C   0  0  0  0  0  3  0  0  0  0  0  0
  -22.2080   -5.0040   22.5930 C   0  0  0  0  0  0  0  0  0  0  0  0
  -22.6500   -4.3760   21.4770 F   0  0  0  0  0  0  0  0  0  0  0  0
  -21.3880   -4.2090   26.0800 F   0  0  0  0  0  0  0  0  0  0  0  0
  -23.2820  -13.6510   20.9840 C   0  0  0  0  0  0  0  0  0  0  0  0
  -22.6030  -12.9810   21.9090 N   0  0  0  0  0  0  0  0  0  0  0  0
  -22.8340  -14.6860   20.4900 O   0  0  0  0  0  0  0  0  0  0  0  0
  -22.9790  -12.1440   22.3290 H   0  0  0  0  0  0  0  0  0  0  0  0
  -21.6940  -13.3110   22.2010 H   0  0  0  0  0  0  0  0  0  0  0  0
  -25.9010  -15.2380   19.9800 N   0  0  0  0  0  0  0  0  0  0  0  0
  -25.1650  -15.9170   20.1360 H   0  0  0  0  0  0  0  0  0  0  0  0
  -26.7410  -15.6440   19.5870 H   0  0  0  0  0  0  0  0  0  0  0  0
  1  5  1  0
  3  1  1  0
  3  6  1  0
  4  2  1  0
  5  8  1  0
  5  2  1  0
  6  4  1  0
  6  7  1  6
  9  8  1  0
 10  9  1  0
 11 10  1  0
 12 14  1  0
 12 11  1  0
 13 24  2  0
 14 19  1  0
 15 23  1  0
 15 25  1  0
 16 22  1  0
 16 18  1  0
 17 23  1  0
 18 19  2  0
 18 17  1  0
 20 14  2  0
 21 20  1  0
 21 16  2  0
 22 15  1  0
 23 13  1  0
 25 27  2  0
 26 25  1  0
 28 26  1  0
 29 38  2  0
 29 34  1  0
 30 26  1  0
 30 34  1  0
 31 30  1  0
 32 33  1  0
 32 31  1  0
 33 29  1  0
 34 35  2  0
 35 36  1  0
 37 36  2  0
 38 37  1  0
 39 13  1  0
 39 40  1  0
 39 49  1  0
 40 43  1  0
 41 45  1  0
 41 40  1  0
 42 41  2  0
 45 44  1  0
 47 45  1  0
 47 48  1  0
 47 46  1  0
 49 52  1  1
 49 50  1  0
 51 49  1  0
 53  6  1  0
 53 54  1  0
 55 63  1  0
 56 61  1  0
 57 58  1  0
 57 56  1  0
 59 58  1  0
 59 68  1  0
 59 60  1  0
 61 55  1  0
 61 60  1  0
 62 55  2  0
 63 64  1  0
 63 54  1  0
 65 66  2  0
 66 85  1  0
 67 66  1  0
 67 70  1  0
 68 69  1  0
 68 65  1  0
 69 67  2  0
 70 71  1  0
 71 72  2  0
 73 76  1  0
 73 72  1  0
 74 73  2  0
 75 74  1  0
 75 70  2  0
 76 77  1  0
 77 82  2  0
 77 78  1  0
 78 79  2  0
 79 80  1  0
 80 84  1  0
 81 80  2  0
 82 81  1  0
 83 82  1  0
 85 86  1  0
 86 89  1  0
 86 88  1  0
 87 85  2  0
 90 91  1  0
 90 65  1  0
 92 90  1  0
M  ISO  4  11 101  12 101  55 100  63 100
M  END
>  <TORSDO>  (97) 
F 22

>  <SCORE>  (97) 
-10.750

>  <name>  (97) 
97

>  <ligand_id>  (97) 
97

>  <original_smiles>  (97) 
[H]c1c([H])c([H])c2c(c1[H])C([H])([H])C([H])([H])C([H])([H])C2([H])N([H])C(=O)C1([H])N(C(=O)C([H])(N([H])C(=O)C([H])(N([H])C([H])([H])[H])C([H])([H])[H])C(C([H])([H])[H])(C([H])([H])[H])C([H])([H])[H])C([H])([H])c2c([H])c(OC([H])([H])C([H])([H])C([H])([H])C([H])([H])N3C([H])([H])C([H])([H])[N+]([H])(C([H])([H])C([H])([H])N([H])C(=O)N4C([H])([H])C([H])([H])C([H])([H])C([H])(n5nc(-c6c([H])c([H])c(Oc7c([H])c([H])c(F)c([H])c7F)c([H])c6[H])c(C(=O)N([H])[H])c5N([H])[H])C4([H])[H])C([H])([H])C3([H])[H])c([H])c([H])c2C1([H])[H]

>  <smiles>  (97) 
[H]c1c([H])c([H])c2c(c1[H])C([H])([H])C([H])([H])C([H])([H])C2([H])N([H])C(=O)C1([H])N(C(=O)C([H])(N([H])C(=O)C([H])(N([H])C([H])([H])[H])C([H])([H])[H])C(C([H])([H])[H])(C([H])([H])[H])C([H])([H])[H])C([H])([H])c2c([H])c(OC([H])([H])C([H])([H])C([H])([H])C([H])([H])N3C([H])([H])C([H])([H])[N+]([H])(C([H])([H])C([H])([H])N([H])C(=O)N4C([H])([H])C([H])([H])C([H])([H])C([H])(n5nc(-c6c([H])c([H])c(Oc7c([H])c([H])c(F)c([H])c7F)c([H])c6[H])c(C(=O)N([H])[H])c5N([H])[H])C4([H])[H])C([H])([H])C3([H])[H])c([H])c([H])c2C1([H])[H]

$$$$
98:0:0
     RDKit          3D

 95103  0  0  1  0  0  0  0  0999 V2000
  -27.4900  -22.2880   20.1650 N   0  0  0  0  0  4  0  0  0  0  0  0
  -26.6720  -22.5200   19.6210 H   0  0  0  0  0  0  0  0  0  0  0  0
  -27.1430  -21.7580   20.9450 H   0  0  0  0  0  0  0  0  0  0  0  0
  -27.9850  -23.5490   20.7670 C   0  0  0  0  0  2  0  0  0  0  0  0
  -29.3970  -24.0450   20.3800 C   0  0  0  0  0  2  0  0  0  0  0  0
  -29.8770  -25.2070   21.2880 C   0  0  0  0  0  2  0  0  0  0  0  0
  -28.8460  -26.3400   21.4840 C   0  0  0  0  0  2  0  0  0  0  0  0
  -28.3370  -26.7280   20.2120 O   0  0  0  0  0  0  0  0  0  0  0  0
  -24.5010  -31.9310   23.2370 C   0  0  0  0  0  0  0  0  0  0  0  0
  -27.1860  -27.4780   20.2290 C   0  0  0  0  0  0  0  0  0  0  0  0
  -23.4570  -30.2670   21.7260 C   0  0  0  0  0  3  0  0  0  0  0  0
  -24.8090  -28.9780   20.1060 C   0  0  0  0  0  0  0  0  0  0  0  0
  -25.8520  -30.9210   21.3720 C   0  0  0  0  0  2  0  0  0  0  0  0
  -25.9620  -29.5410   20.7010 C   0  0  0  0  0  0  0  0  0  0  0  0
  -27.1450  -28.7780   20.7810 C   0  0  0  0  0  3  0  0  0  0  0  0
  -26.0300  -26.9380   19.6310 C   0  0  0  0  0  3  0  0  0  0  0  0
  -24.8340  -27.6740   19.5890 C   0  0  0  0  0  3  0  0  0  0  0  0
  -23.5110  -29.7470   20.2700 C   0  0  0  0  0  2  0  0  0  0  0  0
  -24.5730  -31.1700   22.1100 N   0  0  0  0  0  0  0  0  0  0  0  0
  -23.4130  -32.1840   23.7710 O   0  0  0  0  0  0  0  0  0  0  0  0
  -22.5630  -29.5110   22.7310 C   0  0  0  0  0  0  0  0  0  0  0  0
  -21.2650  -29.3760   22.4560 N   0  0  0  0  0  0  0  0  0  0  0  0
  -23.0660  -28.9300   23.7050 O   0  0  0  0  0  0  0  0  0  0  0  0
  -20.8720  -29.8630   21.6630 H   0  0  0  0  0  0  0  0  0  0  0  0
  -17.8670  -28.2520   22.9370 C   0  0  0  0  0  0  0  0  0  0  0  0
  -20.4120  -28.4520   23.2030 C   0  0  0  0  0  3  0  0  0  0  0  0
  -20.4990  -27.0170   22.6280 C   0  0  0  0  0  2  0  0  0  0  0  0
  -19.3920  -26.7180   21.6140 C   0  0  0  0  0  2  0  0  0  0  0  0
  -18.0200  -26.8900   22.2760 C   0  0  0  0  0  2  0  0  0  0  0  0
  -19.0010  -28.9910   23.3620 C   0  0  0  0  0  0  0  0  0  0  0  0
  -18.8270  -30.2560   23.9590 C   0  0  0  0  0  3  0  0  0  0  0  0
  -17.5370  -30.7840   24.1480 C   0  0  0  0  0  3  0  0  0  0  0  0
  -16.4130  -30.0490   23.7340 C   0  0  0  0  0  3  0  0  0  0  0  0
  -16.5790  -28.7890   23.1300 C   0  0  0  0  0  3  0  0  0  0  0  0
  -25.7760  -32.5630   23.8750 C   0  0  0  0  0  3  0  0  0  0  0  0
  -26.2740  -31.7950   25.1590 C   0  0  1  0  0  0  0  0  0  0  0  0
  -25.1730  -31.5720   26.2250 C   0  0  0  0  0  1  0  0  0  0  0  0
  -26.8550  -30.4140   24.7770 C   0  0  0  0  0  1  0  0  0  0  0  0
  -27.4300  -32.5800   25.8180 C   0  0  0  0  0  1  0  0  0  0  0  0
  -25.4720  -33.9620   24.1900 N   0  0  0  0  0  0  0  0  0  0  0  0
  -25.8280  -35.0020   23.4250 C   0  0  0  0  0  0  0  0  0  0  0  0
  -26.5160  -34.8810   22.4070 O   0  0  0  0  0  0  0  0  0  0  0  0
  -24.8760  -34.1280   24.9880 H   0  0  0  0  0  0  0  0  0  0  0  0
  -24.1350  -36.8090   23.0110 C   0  0  0  0  0  1  0  0  0  0  0  0
  -25.3480  -36.3990   23.8600 C   0  0  0  0  0  3  0  0  0  0  0  0
  -27.4770  -37.2580   24.7350 C   0  0  0  0  0  1  0  0  0  0  0  0
  -26.3990  -37.4340   23.7650 N   0  0  0  0  0  0  0  0  0  0  0  0
  -26.0030  -38.3600   23.8920 H   0  0  0  0  0  0  0  0  0  0  0  0
  -28.3850  -21.4320   19.3460 C   0  0  0  0  0  2  0  0  0  0  0  0
  -27.6350  -20.1690   18.8610 C   0  0  0  0  0  2  0  0  0  0  0  0
  -27.3650  -19.0390   19.9050 C   0  0  0  0  0  2  0  0  0  0  0  0
  -30.8730  -14.3860   20.1530 C   0  0  0  0  0  0  0  0  0  0  0  0
  -30.4270  -12.2320   19.0800 C   0  0  0  0  0  2  0  0  0  0  0  0
  -29.4530  -12.4260   17.9060 C   0  0  0  0  0  2  0  0  0  0  0  0
  -27.9970  -12.3360   18.4000 C   0  0  0  0  0  2  0  0  0  0  0  0
  -27.7100  -13.2070   19.6550 C   0  0  0  0  0  3  0  0  0  0  0  0
  -28.8130  -13.0410   20.7280 C   0  0  0  0  0  2  0  0  0  0  0  0
  -30.1090  -13.2660   20.0710 N   0  0  0  0  0  0  0  0  0  0  0  0
  -32.0320  -14.4290   19.7390 O   0  0  0  0  0  0  0  0  0  0  0  0
  -30.2600  -17.6590   21.8180 C   0  0  0  0  0  2  0  0  0  0  0  0
  -31.0230  -16.4800   21.2170 C   0  0  0  0  0  2  0  0  0  0  0  0
  -29.9450  -16.2050   19.0470 C   0  0  0  0  0  2  0  0  0  0  0  0
  -29.6470  -18.6190   20.7940 C   0  0  0  0  0  2  0  0  0  0  0  0
  -28.7580  -17.1990   18.9360 C   0  0  0  0  0  2  0  0  0  0  0  0
  -30.2350  -15.5670   20.3510 N   0  0  0  0  0  0  0  0  0  0  0  0
  -28.4560  -18.0380   20.1290 N   0  0  2  0  0  4  0  0  0  0  0  0
  -28.0670  -17.3890   20.7970 H   0  0  0  0  0  0  0  0  0  0  0  0
  -25.3430  -13.8290   20.4450 C   0  0  0  0  0  0  0  0  0  0  0  0
  -24.2770  -13.0690   20.8580 C   0  0  0  0  0  0  0  0  0  0  0  0
  -24.7160  -11.7160   20.7950 C   0  0  0  0  0  0  0  0  0  0  0  0
  -26.3710  -12.9370   20.1840 N   0  0  0  0  0  0  0  0  0  0  0  0
  -25.9960  -11.6560   20.4480 N   0  0  0  0  0  0  0  0  0  0  0  0
  -23.9730  -10.4630   20.9870 C   0  0  0  0  0  0  0  0  0  0  0  0
  -24.4010   -9.4850   21.9100 C   0  0  0  0  0  3  0  0  0  0  0  0
  -23.6600   -8.2970   22.0910 C   0  0  0  0  0  3  0  0  0  0  0  0
  -22.4760   -8.0780   21.3460 C   0  0  0  0  0  0  0  0  0  0  0  0
  -22.0650   -9.0460   20.4110 C   0  0  0  0  0  3  0  0  0  0  0  0
  -22.8100  -10.2240   20.2290 C   0  0  0  0  0  3  0  0  0  0  0  0
  -21.7090   -6.9410   21.4330 O   0  0  0  0  0  0  0  0  0  0  0  0
  -21.6360   -6.2130   22.5920 C   0  0  0  0  0  0  0  0  0  0  0  0
  -21.2100   -6.7870   23.8100 C   0  0  0  0  0  3  0  0  0  0  0  0
  -21.0860   -5.9890   24.9630 C   0  0  0  0  0  3  0  0  0  0  0  0
  -21.3770   -4.6140   24.9020 C   0  0  0  0  0  0  0  0  0  0  0  0
  -21.7980   -4.0360   23.6910 C   0  0  0  0  0  3  0  0  0  0  0  0
  -21.9260   -4.8340   22.5380 C   0  0  0  0  0  0  0  0  0  0  0  0
  -22.3080   -4.2640   21.3710 F   0  0  0  0  0  0  0  0  0  0  0  0
  -21.2550   -3.8460   26.0090 F   0  0  0  0  0  0  0  0  0  0  0  0
  -22.8960  -13.5660   21.1760 C   0  0  0  0  0  0  0  0  0  0  0  0
  -22.1830  -12.8730   22.0630 N   0  0  0  0  0  0  0  0  0  0  0  0
  -22.4560  -14.6020   20.6820 O   0  0  0  0  0  0  0  0  0  0  0  0
  -22.5290  -12.0240   22.4860 H   0  0  0  0  0  0  0  0  0  0  0  0
  -21.2670  -13.2080   22.3270 H   0  0  0  0  0  0  0  0  0  0  0  0
  -25.5060  -15.1860   20.2160 N   0  0  0  0  0  0  0  0  0  0  0  0
  -24.6180  -15.6760   20.2040 H   0  0  0  0  0  0  0  0  0  0  0  0
  -25.9780  -15.3250   19.3330 H   0  0  0  0  0  0  0  0  0  0  0  0
  1  4  1  0
  1  3  1  0
  2  1  1  0
  5  4  1  0
  5  6  1  0
  6  7  1  0
  8 10  1  0
  8  7  1  0
  9 20  2  0
 10 15  1  0
 11 19  1  0
 11 21  1  0
 12 18  1  0
 12 14  1  0
 13 19  1  0
 14 15  2  0
 14 13  1  0
 16 10  2  0
 17 16  1  0
 17 12  2  0
 18 11  1  0
 19  9  1  0
 21 23  2  0
 22 21  1  0
 24 22  1  0
 25 34  2  0
 25 30  1  0
 26 22  1  0
 26 30  1  0
 27 26  1  0
 28 29  1  0
 28 27  1  0
 29 25  1  0
 30 31  2  0
 31 32  1  0
 33 32  2  0
 34 33  1  0
 35  9  1  0
 35 40  1  0
 35 36  1  0
 36 39  1  1
 36 37  1  0
 38 36  1  0
 40 43  1  0
 41 45  1  0
 41 40  1  0
 42 41  2  0
 45 44  1  0
 47 45  1  0
 47 48  1  0
 47 46  1  0
 49  1  1  0
 50 49  1  0
 50 51  1  0
 51 66  1  0
 52 65  1  0
 53 58  1  0
 54 55  1  0
 54 53  1  0
 56 55  1  0
 56 71  1  0
 56 57  1  0
 58 52  1  0
 58 57  1  0
 59 52  2  0
 61 60  1  0
 62 65  1  0
 63 60  1  0
 64 62  1  0
 64 66  1  0
 65 61  1  0
 66 63  1  0
 66 67  1  1
 68 69  2  0
 69 88  1  0
 70 69  1  0
 70 73  1  0
 71 68  1  0
 71 72  1  0
 72 70  2  0
 73 74  1  0
 74 75  2  0
 76 79  1  0
 76 75  1  0
 77 76  2  0
 78 77  1  0
 78 73  2  0
 79 80  1  0
 80 81  1  0
 81 82  2  0
 83 82  1  0
 83 87  1  0
 84 83  2  0
 85 80  2  0
 85 84  1  0
 86 85  1  0
 88 89  1  0
 89 92  1  0
 89 91  1  0
 90 88  2  0
 93 68  1  0
 94 93  1  0
 95 93  1  0
M  ISO  4   7 101   8 101  52 100  65 100
M  END
>  <TORSDO>  (98) 
F 23

>  <SCORE>  (98) 
-12.886

>  <name>  (98) 
98

>  <ligand_id>  (98) 
98

>  <original_smiles>  (98) 
[H]c1c([H])c([H])c2c(c1[H])C([H])([H])C([H])([H])C([H])([H])C2([H])N([H])C(=O)C1([H])N(C(=O)C([H])(N([H])C(=O)C([H])(N([H])C([H])([H])[H])C([H])([H])[H])C(C([H])([H])[H])(C([H])([H])[H])C([H])([H])[H])C([H])([H])c2c([H])c(OC([H])([H])C([H])([H])C([H])([H])C([H])([H])[N+]([H])([H])C([H])([H])C([H])([H])C([H])([H])[N+]3([H])C([H])([H])C([H])([H])N(C(=O)N4C([H])([H])C([H])([H])C([H])([H])C([H])(n5nc(-c6c([H])c([H])c(Oc7c([H])c([H])c(F)c([H])c7F)c([H])c6[H])c(C(=O)N([H])[H])c5N([H])[H])C4([H])[H])C([H])([H])C([H])([H])C3([H])[H])c([H])c([H])c2C1([H])[H]

>  <smiles>  (98) 
[H]c1c([H])c([H])c2c(c1[H])C([H])([H])C([H])([H])C([H])([H])C2([H])N([H])C(=O)C1([H])N(C(=O)C([H])(N([H])C(=O)C([H])(N([H])C([H])([H])[H])C([H])([H])[H])C(C([H])([H])[H])(C([H])([H])[H])C([H])([H])[H])C([H])([H])c2c([H])c(OC([H])([H])C([H])([H])C([H])([H])C([H])([H])[N+]([H])([H])C([H])([H])C([H])([H])C([H])([H])[N+]3([H])C([H])([H])C([H])([H])N(C(=O)N4C([H])([H])C([H])([H])C([H])([H])C([H])(n5nc(-c6c([H])c([H])c(Oc7c([H])c([H])c(F)c([H])c7F)c([H])c6[H])c(C(=O)N([H])[H])c5N([H])[H])C4([H])[H])C([H])([H])C([H])([H])C3([H])[H])c([H])c([H])c2C1([H])[H]

$$$$
