0:0:0
     RDKit          3D

 92100  0  0  1  0  0  0  0  0999 V2000
  -29.5160  -21.0430   19.4950 N   0  0  1  0  0  4  0  0  0  0  0  0
  -28.5100  -21.0860   19.4550 H   0  0  0  0  0  0  0  0  0  0  0  0
  -29.9850  -23.0150   22.6650 C   0  0  0  0  0  2  0  0  0  0  0  0
  -30.2320  -22.8410   21.1710 C   0  0  0  0  0  2  0  0  0  0  0  0
  -29.1910  -21.7720   23.0720 C   0  0  0  0  0  2  0  0  0  0  0  0
  -29.8520  -21.3770   20.9100 C   0  0  0  0  0  3  0  0  0  0  0  0
  -28.7180  -21.2020   21.8160 N   0  0  0  0  0  0  0  0  0  0  0  0
  -27.9440  -21.7850   21.5150 H   0  0  0  0  0  0  0  0  0  0  0  0
  -29.8510  -22.2500   18.5080 C   0  0  0  0  0  2  0  0  0  0  0  0
  -28.8840  -23.6350   18.2380 C   0  0  0  0  0  2  0  0  0  0  0  0
  -28.9210  -25.1540   18.9870 C   0  0  0  0  0  2  0  0  0  0  0  0
  -28.5740  -26.5810   18.4530 O   0  0  0  0  0  0  0  0  0  0  0  0
  -24.5520  -31.0350   22.7850 C   0  0  0  0  0  0  0  0  0  0  0  0
  -27.3810  -27.3280   18.7550 C   0  0  0  0  0  0  0  0  0  0  0  0
  -23.3720  -29.7750   21.0250 C   0  0  0  0  0  3  0  0  0  0  0  0
  -24.8510  -28.6810   19.2290 C   0  0  0  0  0  0  0  0  0  0  0  0
  -25.8340  -30.4390   20.6950 C   0  0  0  0  0  2  0  0  0  0  0  0
  -26.0190  -29.1980   19.8020 C   0  0  0  0  0  0  0  0  0  0  0  0
  -27.2820  -28.5450   19.5430 C   0  0  0  0  0  3  0  0  0  0  0  0
  -26.1700  -26.8950   18.1790 C   0  0  0  0  0  3  0  0  0  0  0  0
  -24.9350  -27.5470   18.4030 C   0  0  0  0  0  3  0  0  0  0  0  0
  -23.5300  -29.3720   19.5330 C   0  0  0  0  0  2  0  0  0  0  0  0
  -24.6090  -30.4320   21.5580 N   0  0  0  0  0  0  0  0  0  0  0  0
  -23.5020  -31.0630   23.4460 O   0  0  0  0  0  0  0  0  0  0  0  0
  -22.9360  -28.5330   21.8430 C   0  0  0  0  0  0  0  0  0  0  0  0
  -21.6540  -28.1450   21.7330 N   0  0  0  0  0  0  0  0  0  0  0  0
  -23.7540  -27.9270   22.5390 O   0  0  0  0  0  0  0  0  0  0  0  0
  -21.0390  -28.6980   21.1520 H   0  0  0  0  0  0  0  0  0  0  0  0
  -18.5890  -26.2460   22.0850 C   0  0  0  0  0  0  0  0  0  0  0  0
  -21.0540  -26.9720   22.3750 C   0  0  0  0  0  3  0  0  0  0  0  0
  -21.4170  -25.6750   21.6150 C   0  0  0  0  0  2  0  0  0  0  0  0
  -20.3680  -25.2770   20.5700 C   0  0  0  0  0  2  0  0  0  0  0  0
  -19.0050  -25.0590   21.2340 C   0  0  0  0  0  2  0  0  0  0  0  0
  -19.5490  -27.1530   22.6080 C   0  0  0  0  0  0  0  0  0  0  0  0
  -19.1050  -28.2580   23.3680 C   0  0  0  0  0  3  0  0  0  0  0  0
  -17.7320  -28.4620   23.6060 C   0  0  0  0  0  3  0  0  0  0  0  0
  -16.7880  -27.5540   23.0980 C   0  0  0  0  0  3  0  0  0  0  0  0
  -17.2170  -26.4470   22.3440 C   0  0  0  0  0  3  0  0  0  0  0  0
  -25.7970  -31.7350   23.4100 C   0  0  0  0  0  3  0  0  0  0  0  0
  -25.3560  -33.0260   23.9620 N   0  0  0  0  0  0  0  0  0  0  0  0
  -25.5480  -34.2150   23.3730 C   0  0  0  0  0  0  0  0  0  0  0  0
  -26.1820  -34.3440   22.3220 O   0  0  0  0  0  0  0  0  0  0  0  0
  -24.7830  -32.9900   24.7910 H   0  0  0  0  0  0  0  0  0  0  0  0
  -23.6520  -35.8680   23.3350 C   0  0  0  0  0  1  0  0  0  0  0  0
  -24.9440  -35.4570   24.0580 C   0  0  0  0  0  3  0  0  0  0  0  0
  -27.0060  -36.3990   25.0060 C   0  0  0  0  0  1  0  0  0  0  0  0
  -25.8710  -36.6100   24.1100 N   0  0  0  0  0  0  0  0  0  0  0  0
  -25.3830  -37.4510   24.4080 H   0  0  0  0  0  0  0  0  0  0  0  0
  -26.4980  -30.8710   24.5300 C   0  0  1  0  0  0  0  0  0  0  0  0
  -25.5300  -30.3670   25.6260 C   0  0  0  0  0  1  0  0  0  0  0  0
  -27.1940  -29.6350   23.9160 C   0  0  0  0  0  1  0  0  0  0  0  0
  -27.6060  -31.7040   25.2170 C   0  0  0  0  0  1  0  0  0  0  0  0
  -29.7110  -19.4770   19.1900 C   0  0  0  0  0  3  0  0  0  0  0  0
  -30.4650  -18.3150   20.1770 C   0  0  0  0  0  3  0  0  0  0  0  0
  -31.1680  -15.5920   20.2020 C   0  0  0  0  0  0  0  0  0  0  0  0
  -31.1740  -13.1120   19.6480 C   0  0  0  0  0  2  0  0  0  0  0  0
  -30.3060  -12.8200   18.4010 C   0  0  0  0  0  2  0  0  0  0  0  0
  -28.8260  -12.6390   18.7920 C   0  0  0  0  0  2  0  0  0  0  0  0
  -28.3320  -13.7370   19.7700 C   0  0  0  0  0  3  0  0  0  0  0  0
  -29.3250  -13.9690   20.9270 C   0  0  0  0  0  2  0  0  0  0  0  0
  -30.6120  -14.3190   20.3130 N   0  0  0  0  0  0  0  0  0  0  0  0
  -32.3900  -15.6670   20.0440 O   0  0  0  0  0  0  0  0  0  0  0  0
  -30.3240  -16.7330   20.0690 N   0  0  0  0  0  0  0  0  0  0  0  0
  -29.3550  -16.4520   20.0700 H   0  0  0  0  0  0  0  0  0  0  0  0
  -25.9790  -14.4090   20.5170 C   0  0  0  0  0  0  0  0  0  0  0  0
  -24.8700  -13.6760   20.8390 C   0  0  0  0  0  0  0  0  0  0  0  0
  -25.2640  -12.3050   20.7480 C   0  0  0  0  0  0  0  0  0  0  0  0
  -26.9760  -13.4890   20.2440 N   0  0  0  0  0  0  0  0  0  0  0  0
  -26.5540  -12.2150   20.4500 N   0  0  0  0  0  0  0  0  0  0  0  0
  -24.4680  -11.0770   20.8680 C   0  0  0  0  0  0  0  0  0  0  0  0
  -24.8070  -10.0630   21.7920 C   0  0  0  0  0  3  0  0  0  0  0  0
  -24.0140   -8.9010   21.9030 C   0  0  0  0  0  3  0  0  0  0  0  0
  -22.8670   -8.7440   21.0880 C   0  0  0  0  0  0  0  0  0  0  0  0
  -22.5480   -9.7440   20.1530 C   0  0  0  0  0  3  0  0  0  0  0  0
  -23.3410  -10.8980   20.0410 C   0  0  0  0  0  3  0  0  0  0  0  0
  -22.0540   -7.6360   21.1070 O   0  0  0  0  0  0  0  0  0  0  0  0
  -21.8490   -6.9140   22.2550 C   0  0  0  0  0  0  0  0  0  0  0  0
  -21.3160   -7.5040   23.4220 C   0  0  0  0  0  3  0  0  0  0  0  0
  -21.0580   -6.7090   24.5570 C   0  0  0  0  0  3  0  0  0  0  0  0
  -21.3230   -5.3270   24.5260 C   0  0  0  0  0  0  0  0  0  0  0  0
  -21.8490   -4.7370   23.3630 C   0  0  0  0  0  3  0  0  0  0  0  0
  -22.1080   -5.5290   22.2300 C   0  0  0  0  0  0  0  0  0  0  0  0
  -22.5950   -4.9520   21.1050 F   0  0  0  0  0  0  0  0  0  0  0  0
  -21.0680   -4.5620   25.6130 F   0  0  0  0  0  0  0  0  0  0  0  0
  -23.4980  -14.2150   21.1150 C   0  0  0  0  0  0  0  0  0  0  0  0
  -22.7240  -13.5250   21.9460 N   0  0  0  0  0  0  0  0  0  0  0  0
  -23.1200  -15.2810   20.6300 O   0  0  0  0  0  0  0  0  0  0  0  0
  -23.0420  -12.6620   22.3600 H   0  0  0  0  0  0  0  0  0  0  0  0
  -21.8010  -13.8660   22.1720 H   0  0  0  0  0  0  0  0  0  0  0  0
  -26.2140  -15.7770   20.4060 N   0  0  0  0  0  0  0  0  0  0  0  0
  -25.4760  -16.4580   20.5440 H   0  0  0  0  0  0  0  0  0  0  0  0
  -27.0760  -16.1910   20.0780 H   0  0  0  0  0  0  0  0  0  0  0  0
  1  2  1  1
  3  5  1  0
  4  3  1  0
  6  1  1  0
  6  4  1  0
  6  7  1  0
  7  5  1  0
  8  7  1  0
  9  1  1  0
 10  9  1  0
 10 11  1  0
 12 14  1  0
 12 11  1  0
 13 24  2  0
 14 19  1  0
 15 23  1  0
 15 25  1  0
 16 22  1  0
 16 18  1  0
 17 23  1  0
 18 17  1  0
 19 18  2  0
 20 21  1  0
 20 14  2  0
 21 16  2  0
 22 15  1  0
 23 13  1  0
 25 27  2  0
 26 25  1  0
 28 26  1  0
 29 38  2  0
 29 34  1  0
 30 26  1  0
 30 34  1  0
 31 30  1  0
 32 33  1  0
 32 31  1  0
 33 29  1  0
 34 35  2  0
 35 36  1  0
 37 36  2  0
 38 37  1  0
 39 13  1  0
 39 40  1  0
 39 49  1  0
 40 43  1  0
 41 40  1  0
 41 45  1  0
 42 41  2  0
 45 44  1  0
 45 47  1  0
 47 48  1  0
 47 46  1  0
 49 52  1  1
 49 50  1  0
 51 49  1  0
 53  1  1  0
 53 54  2  0
 55 61  1  0
 56 61  1  0
 57 58  1  0
 57 56  1  0
 59 58  1  0
 59 68  1  0
 59 60  1  0
 61 60  1  0
 62 55  2  0
 63 64  1  0
 63 54  1  0
 63 55  1  0
 65 66  2  0
 66 85  1  0
 67 66  1  0
 67 70  1  0
 68 69  1  0
 68 65  1  0
 69 67  2  0
 70 71  1  0
 71 72  2  0
 73 76  1  0
 73 72  1  0
 74 73  2  0
 75 74  1  0
 75 70  2  0
 76 77  1  0
 77 78  1  0
 78 79  2  0
 80 79  1  0
 80 84  1  0
 81 80  2  0
 82 77  2  0
 82 81  1  0
 83 82  1  0
 85 86  1  0
 86 89  1  0
 86 88  1  0
 87 85  2  0
 90 65  1  0
 90 91  1  0
 92 90  1  0
M  ISO  4  11 101  12 101  55 100  63 100
M  END
>  <TORSDO>  (1) 
F 22

>  <SCORE>  (1) 
-10.924

>  <name>  (1) 
0

>  <ligand_id>  (1) 
0

>  <original_smiles>  (1) 
[H]c1c([H])c([H])c2c(c1[H])C([H])([H])C([H])([H])C([H])([H])C2([H])N([H])C(=O)C1([H])N(C(=O)C([H])(N([H])C(=O)C([H])(N([H])C([H])([H])[H])C([H])([H])[H])C(C([H])([H])[H])(C([H])([H])[H])C([H])([H])[H])C([H])([H])c2c([H])c(OC([H])([H])C([H])([H])C([H])([H])[N+]([H])(C([H])([H])C([H])([H])N([H])C(=O)N3C([H])([H])C([H])([H])C([H])([H])C([H])(n4nc(-c5c([H])c([H])c(Oc6c([H])c([H])c(F)c([H])c6F)c([H])c5[H])c(C(=O)N([H])[H])c4N([H])[H])C3([H])[H])C3([H])N([H])C([H])([H])C([H])([H])C3([H])[H])c([H])c([H])c2C1([H])[H]

>  <smiles>  (1) 
[H]c1c([H])c([H])c2c(c1[H])C([H])([H])C([H])([H])C([H])([H])C2([H])N([H])C(=O)C1([H])N(C(=O)C([H])(N([H])C(=O)C([H])(N([H])C([H])([H])[H])C([H])([H])[H])C(C([H])([H])[H])(C([H])([H])[H])C([H])([H])[H])C([H])([H])c2c([H])c(OC([H])([H])C([H])([H])C([H])([H])[N+]([H])(C([H])([H])C([H])([H])N([H])C(=O)N3C([H])([H])C([H])([H])C([H])([H])C([H])(n4nc(-c5c([H])c([H])c(Oc6c([H])c([H])c(F)c([H])c6F)c([H])c5[H])c(C(=O)N([H])[H])c4N([H])[H])C3([H])[H])C3([H])N([H])C([H])([H])C([H])([H])C3([H])[H])c([H])c([H])c2C1([H])[H]

$$$$
1:0:0
     RDKit          3D

 97105  0  0  1  0  0  0  0  0999 V2000
  -29.9490  -20.0200   21.6650 C   0  0  0  0  0  2  0  0  0  0  0  0
  -29.9890  -18.5620   22.0410 N   0  0  2  0  0  4  0  0  0  0  0  0
  -29.0700  -18.1890   21.8480 H   0  0  0  0  0  0  0  0  0  0  0  0
  -30.6150  -18.9060   26.3950 C   0  0  0  0  0  2  0  0  0  0  0  0
  -31.7480  -18.3580   25.5110 C   0  0  0  0  0  2  0  0  0  0  0  0
  -29.2340  -18.4850   25.8610 C   0  0  0  0  0  2  0  0  0  0  0  0
  -31.5630  -18.7700   24.0400 C   0  0  0  0  0  2  0  0  0  0  0  0
  -29.0470  -18.9120   24.3930 C   0  0  0  0  0  2  0  0  0  0  0  0
  -30.1760  -18.3230   23.5100 C   0  0  0  0  0  3  0  0  0  0  0  0
  -30.9230  -17.7850   21.1510 C   0  0  0  0  0  2  0  0  0  0  0  0
  -31.3210  -16.3270   21.5580 C   0  0  0  0  0  2  0  0  0  0  0  0
  -30.8200  -14.3680   20.1110 C   0  0  0  0  0  0  0  0  0  0  0  0
  -30.3560  -12.2370   18.9580 C   0  0  0  0  0  2  0  0  0  0  0  0
  -29.3800  -12.4400   17.7830 C   0  0  0  0  0  2  0  0  0  0  0  0
  -27.9230  -12.3470   18.2700 C   0  0  0  0  0  2  0  0  0  0  0  0
  -27.6540  -13.2320   19.5150 C   0  0  0  0  0  3  0  0  0  0  0  0
  -28.7370  -13.0180   20.5960 C   0  0  0  0  0  2  0  0  0  0  0  0
  -30.0580  -13.2490   19.9860 N   0  0  0  0  0  0  0  0  0  0  0  0
  -31.8290  -14.5710   19.4300 O   0  0  0  0  0  0  0  0  0  0  0  0
  -30.4520  -15.2440   21.0630 N   0  0  0  0  0  0  0  0  0  0  0  0
  -29.6320  -15.0040   21.6020 H   0  0  0  0  0  0  0  0  0  0  0  0
  -25.3080  -13.9290   20.3150 C   0  0  0  0  0  0  0  0  0  0  0  0
  -24.2280  -13.1970   20.7290 C   0  0  0  0  0  0  0  0  0  0  0  0
  -24.6350  -11.8290   20.6770 C   0  0  0  0  0  0  0  0  0  0  0  0
  -26.3100  -13.0090   20.0450 N   0  0  0  0  0  0  0  0  0  0  0  0
  -25.9090  -11.7410   20.3170 N   0  0  0  0  0  0  0  0  0  0  0  0
  -23.8690  -10.5950   20.8970 C   0  0  0  0  0  0  0  0  0  0  0  0
  -24.2930   -9.6170   21.8220 C   0  0  0  0  0  3  0  0  0  0  0  0
  -23.5310   -8.4470   22.0300 C   0  0  0  0  0  3  0  0  0  0  0  0
  -22.3290   -8.2470   21.3100 C   0  0  0  0  0  0  0  0  0  0  0  0
  -21.9230   -9.2130   20.3730 C   0  0  0  0  0  3  0  0  0  0  0  0
  -22.6850  -10.3750   20.1650 C   0  0  0  0  0  3  0  0  0  0  0  0
  -21.5370   -7.1300   21.4270 O   0  0  0  0  0  0  0  0  0  0  0  0
  -21.4880   -6.4000   22.5870 C   0  0  0  0  0  0  0  0  0  0  0  0
  -21.1190   -6.9830   23.8180 C   0  0  0  0  0  3  0  0  0  0  0  0
  -21.0150   -6.1820   24.9730 C   0  0  0  0  0  3  0  0  0  0  0  0
  -21.2680   -4.7990   24.8960 C   0  0  0  0  0  0  0  0  0  0  0  0
  -21.6290   -4.2160   23.6700 C   0  0  0  0  0  3  0  0  0  0  0  0
  -21.7360   -5.0140   22.5170 C   0  0  0  0  0  0  0  0  0  0  0  0
  -22.0640   -4.4440   21.3330 F   0  0  0  0  0  0  0  0  0  0  0  0
  -21.1590   -4.0280   26.0040 F   0  0  0  0  0  0  0  0  0  0  0  0
  -22.8620  -13.7270   21.0590 C   0  0  0  0  0  0  0  0  0  0  0  0
  -22.1530  -13.0680   21.9680 N   0  0  0  0  0  0  0  0  0  0  0  0
  -22.4360  -14.7600   20.5450 O   0  0  0  0  0  0  0  0  0  0  0  0
  -22.5110  -12.2310   22.4050 H   0  0  0  0  0  0  0  0  0  0  0  0
  -21.2380  -13.4040   22.2330 H   0  0  0  0  0  0  0  0  0  0  0  0
  -25.5210  -15.2920   20.1300 N   0  0  0  0  0  0  0  0  0  0  0  0
  -24.7830  -15.9760   20.2510 H   0  0  0  0  0  0  0  0  0  0  0  0
  -26.3690  -15.6870   19.7420 H   0  0  0  0  0  0  0  0  0  0  0  0
  -29.1190  -20.3320   20.3940 C   0  0  0  0  0  2  0  0  0  0  0  0
  -29.3550  -21.7410   19.7700 C   0  0  0  0  0  2  0  0  0  0  0  0
  -28.6800  -22.8690   20.4710 N   0  0  0  0  0  4  0  0  0  0  0  0
  -29.0150  -22.9190   21.4210 H   0  0  0  0  0  0  0  0  0  0  0  0
  -27.6890  -22.6750   20.5070 H   0  0  0  0  0  0  0  0  0  0  0  0
  -28.8710  -24.2050   19.8310 C   0  0  0  0  0  2  0  0  0  0  0  0
  -28.1210  -25.3340   20.5810 C   0  0  0  0  0  2  0  0  0  0  0  0
  -28.2230  -26.6070   19.9120 O   0  0  0  0  0  0  0  0  0  0  0  0
  -24.5770  -31.7900   23.1750 C   0  0  0  0  0  0  0  0  0  0  0  0
  -27.0760  -27.3710   19.9490 C   0  0  0  0  0  0  0  0  0  0  0  0
  -23.3090  -30.4360   21.5400 C   0  0  0  0  0  3  0  0  0  0  0  0
  -24.7040  -28.9070   20.0500 C   0  0  0  0  0  0  0  0  0  0  0  0
  -25.8330  -30.7660   21.2810 C   0  0  0  0  0  2  0  0  0  0  0  0
  -25.8850  -29.4060   20.6160 C   0  0  0  0  0  0  0  0  0  0  0  0
  -27.0770  -28.6460   20.5600 C   0  0  0  0  0  3  0  0  0  0  0  0
  -25.8810  -26.8930   19.3670 C   0  0  0  0  0  3  0  0  0  0  0  0
  -24.6960  -27.6500   19.4230 C   0  0  0  0  0  3  0  0  0  0  0  0
  -23.4730  -29.7790   20.1440 C   0  0  0  0  0  2  0  0  0  0  0  0
  -24.5930  -31.0090   22.0570 N   0  0  0  0  0  0  0  0  0  0  0  0
  -23.5150  -32.0680   23.7500 O   0  0  0  0  0  0  0  0  0  0  0  0
  -22.6680  -29.4050   22.4980 C   0  0  0  0  0  0  0  0  0  0  0  0
  -21.3390  -29.2360   22.3950 N   0  0  0  0  0  0  0  0  0  0  0  0
  -23.3610  -28.7620   23.2900 O   0  0  0  0  0  0  0  0  0  0  0  0
  -20.8410  -29.8060   21.7250 H   0  0  0  0  0  0  0  0  0  0  0  0
  -17.9680  -28.0500   22.9250 C   0  0  0  0  0  0  0  0  0  0  0  0
  -20.5290  -28.2950   23.1670 C   0  0  0  0  0  3  0  0  0  0  0  0
  -20.6200  -26.8690   22.5780 C   0  0  0  0  0  2  0  0  0  0  0  0
  -19.5040  -26.5590   21.5750 C   0  0  0  0  0  2  0  0  0  0  0  0
  -18.1290  -26.7060   22.2370 C   0  0  0  0  0  2  0  0  0  0  0  0
  -19.0950  -28.8040   23.3480 C   0  0  0  0  0  0  0  0  0  0  0  0
  -18.8890  -30.0630   23.9520 C   0  0  0  0  0  3  0  0  0  0  0  0
  -17.5900  -30.5710   24.1350 C   0  0  0  0  0  3  0  0  0  0  0  0
  -16.4770  -29.8140   23.7310 C   0  0  0  0  0  3  0  0  0  0  0  0
  -16.6670  -28.5570   23.1320 C   0  0  0  0  0  3  0  0  0  0  0  0
  -25.8890  -32.3920   23.7700 C   0  0  0  0  0  3  0  0  0  0  0  0
  -26.4470  -31.5720   24.9970 C   0  0  1  0  0  0  0  0  0  0  0  0
  -25.3930  -31.3020   26.0970 C   0  0  0  0  0  1  0  0  0  0  0  0
  -27.0030  -30.2060   24.5320 C   0  0  0  0  0  1  0  0  0  0  0  0
  -27.6310  -32.3330   25.6410 C   0  0  0  0  0  1  0  0  0  0  0  0
  -25.6010  -33.7800   24.1590 N   0  0  0  0  0  0  0  0  0  0  0  0
  -25.9180  -34.8550   23.4250 C   0  0  0  0  0  0  0  0  0  0  0  0
  -26.5530  -34.7810   22.3690 O   0  0  0  0  0  0  0  0  0  0  0  0
  -25.0370  -33.9130   24.9860 H   0  0  0  0  0  0  0  0  0  0  0  0
  -24.1910  -36.6660   23.1880 C   0  0  0  0  0  1  0  0  0  0  0  0
  -25.4560  -36.2290   23.9450 C   0  0  0  0  0  3  0  0  0  0  0  0
  -27.6220  -37.0700   24.7340 C   0  0  0  0  0  1  0  0  0  0  0  0
  -26.4910  -37.2790   23.8330 N   0  0  0  0  0  0  0  0  0  0  0  0
  -26.0980  -38.1960   24.0290 H   0  0  0  0  0  0  0  0  0  0  0  0
  1  2  1  0
  2  9  1  0
  2  3  1  6
  5  4  1  0
  6  4  1  0
  7  5  1  0
  8  6  1  0
  9  7  1  0
  9  8  1  0
 10 11  1  0
 10  2  1  0
 12 20  1  0
 13 18  1  0
 14 15  1  0
 14 13  1  0
 16 15  1  0
 16 25  1  0
 16 17  1  0
 18 12  1  0
 18 17  1  0
 19 12  2  0
 20 11  1  0
 20 21  1  0
 22 23  2  0
 23 42  1  0
 24 23  1  0
 24 27  1  0
 25 22  1  0
 25 26  1  0
 26 24  2  0
 27 28  1  0
 28 29  2  0
 30 33  1  0
 30 29  1  0
 31 30  2  0
 32 31  1  0
 32 27  2  0
 33 34  1  0
 34 35  1  0
 35 36  2  0
 37 36  1  0
 37 41  1  0
 38 37  2  0
 39 34  2  0
 39 38  1  0
 40 39  1  0
 42 43  1  0
 43 46  1  0
 43 45  1  0
 44 42  2  0
 47 48  1  0
 47 22  1  0
 49 47  1  0
 50  1  1  0
 51 50  1  0
 51 52  1  0
 52 54  1  0
 52 53  1  0
 55 52  1  0
 55 56  1  0
 57 59  1  0
 57 56  1  0
 58 69  2  0
 59 64  1  0
 60 68  1  0
 60 70  1  0
 61 67  1  0
 61 63  1  0
 62 68  1  0
 63 62  1  0
 64 63  2  0
 65 66  1  0
 65 59  2  0
 66 61  2  0
 67 60  1  0
 68 58  1  0
 70 72  2  0
 71 70  1  0
 73 71  1  0
 74 83  2  0
 74 79  1  0
 75 71  1  0
 75 79  1  0
 76 75  1  0
 77 78  1  0
 77 76  1  0
 78 74  1  0
 79 80  2  0
 80 81  1  0
 82 81  2  0
 83 82  1  0
 84 58  1  0
 84 89  1  0
 84 85  1  0
 85 88  1  1
 85 86  1  0
 87 85  1  0
 89 92  1  0
 90 94  1  0
 90 89  1  0
 91 90  2  0
 94 93  1  0
 96 94  1  0
 96 97  1  0
 96 95  1  0
M  ISO  4  12 100  20 100  56 101  57 101
M  END
>  <TORSDO>  (2) 
F 25

>  <SCORE>  (2) 
4.174

>  <name>  (2) 
1

>  <ligand_id>  (2) 
1

>  <original_smiles>  (2) 
[H]c1c([H])c([H])c2c(c1[H])C([H])([H])C([H])([H])C([H])([H])C2([H])N([H])C(=O)C1([H])N(C(=O)C([H])(N([H])C(=O)C([H])(N([H])C([H])([H])[H])C([H])([H])[H])C(C([H])([H])[H])(C([H])([H])[H])C([H])([H])[H])C([H])([H])c2c([H])c(OC([H])([H])C([H])([H])[N+]([H])([H])C([H])([H])C([H])([H])C([H])([H])[N+]([H])(C([H])([H])C([H])([H])N([H])C(=O)N3C([H])([H])C([H])([H])C([H])([H])C([H])(n4nc(-c5c([H])c([H])c(Oc6c([H])c([H])c(F)c([H])c6F)c([H])c5[H])c(C(=O)N([H])[H])c4N([H])[H])C3([H])[H])C3([H])C([H])([H])C([H])([H])C([H])([H])C([H])([H])C3([H])[H])c([H])c([H])c2C1([H])[H]

>  <smiles>  (2) 
[H]c1c([H])c([H])c2c(c1[H])C([H])([H])C([H])([H])C([H])([H])C2([H])N([H])C(=O)C1([H])N(C(=O)C([H])(N([H])C(=O)C([H])(N([H])C([H])([H])[H])C([H])([H])[H])C(C([H])([H])[H])(C([H])([H])[H])C([H])([H])[H])C([H])([H])c2c([H])c(OC([H])([H])C([H])([H])[N+]([H])([H])C([H])([H])C([H])([H])C([H])([H])[N+]([H])(C([H])([H])C([H])([H])N([H])C(=O)N3C([H])([H])C([H])([H])C([H])([H])C([H])(n4nc(-c5c([H])c([H])c(Oc6c([H])c([H])c(F)c([H])c6F)c([H])c5[H])c(C(=O)N([H])[H])c4N([H])[H])C3([H])[H])C3([H])C([H])([H])C([H])([H])C([H])([H])C([H])([H])C3([H])[H])c([H])c([H])c2C1([H])[H]

$$$$
2:0:0
     RDKit          3D

101111  0  0  1  0  0  0  0  0999 V2000
  -30.9800  -14.6270   20.3800 C   0  0  0  0  0  0  0  0  0  0  0  0
  -30.5920  -12.4400   19.3580 C   0  0  0  0  0  2  0  0  0  0  0  0
  -29.6760  -12.5920   18.1240 C   0  0  0  0  0  2  0  0  0  0  0  0
  -28.1920  -12.5680   18.5280 C   0  0  0  0  0  2  0  0  0  0  0  0
  -27.8580  -13.4540   19.7590 C   0  0  0  0  0  3  0  0  0  0  0  0
  -28.8970  -13.2910   20.8880 C   0  0  0  0  0  2  0  0  0  0  0  0
  -30.2280  -13.4980   20.3080 N   0  0  0  0  0  0  0  0  0  0  0  0
  -32.2090  -14.5960   20.3580 O   0  0  0  0  0  0  0  0  0  0  0  0
  -29.8980  -18.5750   22.1500 C   0  0  0  0  0  3  0  0  0  0  0  0
  -30.2800  -17.2930   21.6930 C   0  0  0  0  0  3  0  0  0  0  0  0
  -28.6570  -18.9610   20.1010 C   0  0  0  0  0  3  0  0  0  0  0  0
  -29.1070  -19.4390   21.3530 C   0  0  0  0  0  0  0  0  0  0  0  0
  -29.0400  -17.6870   19.6360 C   0  0  0  0  0  0  0  0  0  0  0  0
  -29.8770  -16.8510   20.4110 C   0  0  0  0  0  0  0  0  0  0  0  0
  -28.5950  -17.2070   18.2660 C   0  0  0  0  0  2  0  0  0  0  0  0
  -29.7350  -16.5170   17.4920 C   0  0  0  0  0  2  0  0  0  0  0  0
  -30.8960  -15.9810   18.3790 C   0  0  0  0  0  3  0  0  0  0  0  0
  -30.4060  -15.6910   19.7560 N   0  0  0  0  0  0  0  0  0  0  0  0
  -29.9480  -21.7890   22.0340 C   0  0  0  0  0  2  0  0  0  0  0  0
  -27.5930  -21.5790   21.1560 C   0  0  0  0  0  2  0  0  0  0  0  0
  -30.3390  -22.4740   20.7070 C   0  0  0  0  0  2  0  0  0  0  0  0
  -28.0210  -22.3340   19.8720 C   0  0  0  0  0  2  0  0  0  0  0  0
  -28.7400  -20.8360   21.8860 C   0  0  0  0  0  3  0  0  0  0  0  0
  -29.2020  -23.2070   20.0880 N   0  0  1  0  0  4  0  0  0  0  0  0
  -29.5260  -23.4270   19.1550 H   0  0  0  0  0  0  0  0  0  0  0  0
  -28.8950  -24.5360   20.6940 C   0  0  0  0  0  2  0  0  0  0  0  0
  -29.0410  -25.6580   19.6400 C   0  0  0  0  0  2  0  0  0  0  0  0
  -28.7900  -26.9610   20.1650 O   0  0  0  0  0  0  0  0  0  0  0  0
  -24.5450  -31.7850   23.1140 C   0  0  0  0  0  0  0  0  0  0  0  0
  -27.5420  -27.5440   20.0940 C   0  0  0  0  0  0  0  0  0  0  0  0
  -23.4750  -30.3370   21.4190 C   0  0  0  0  0  3  0  0  0  0  0  0
  -25.0550  -28.8990   20.0280 C   0  0  0  0  0  0  0  0  0  0  0  0
  -25.9750  -30.8470   21.2990 C   0  0  0  0  0  2  0  0  0  0  0  0
  -26.1580  -29.4890   20.6540 C   0  0  0  0  0  0  0  0  0  0  0  0
  -27.3970  -28.8180   20.6850 C   0  0  0  0  0  3  0  0  0  0  0  0
  -26.4150  -26.9580   19.4630 C   0  0  0  0  0  3  0  0  0  0  0  0
  -25.1790  -27.6350   19.4250 C   0  0  0  0  0  3  0  0  0  0  0  0
  -23.7630  -29.6830   20.0420 C   0  0  0  0  0  2  0  0  0  0  0  0
  -24.6820  -31.0040   22.0050 N   0  0  0  0  0  0  0  0  0  0  0  0
  -23.4350  -31.9860   23.6260 O   0  0  0  0  0  0  0  0  0  0  0  0
  -22.8560  -29.2680   22.3470 C   0  0  0  0  0  0  0  0  0  0  0  0
  -21.5390  -29.0470   22.2040 N   0  0  0  0  0  0  0  0  0  0  0  0
  -23.5550  -28.6420   23.1460 O   0  0  0  0  0  0  0  0  0  0  0  0
  -21.0380  -29.6070   21.5300 H   0  0  0  0  0  0  0  0  0  0  0  0
  -18.1980  -27.7540   22.6740 C   0  0  0  0  0  0  0  0  0  0  0  0
  -20.7490  -28.0600   22.9400 C   0  0  0  0  0  3  0  0  0  0  0  0
  -20.8810  -26.6530   22.3120 C   0  0  0  0  0  2  0  0  0  0  0  0
  -19.7790  -26.3440   21.2930 C   0  0  0  0  0  2  0  0  0  0  0  0
  -18.4000  -26.4340   21.9480 C   0  0  0  0  0  2  0  0  0  0  0  0
  -19.3010  -28.5250   23.1260 C   0  0  0  0  0  0  0  0  0  0  0  0
  -19.0590  -29.7600   23.7610 C   0  0  0  0  0  3  0  0  0  0  0  0
  -17.7440  -30.2280   23.9490 C   0  0  0  0  0  3  0  0  0  0  0  0
  -16.6550  -29.4530   23.5120 C   0  0  0  0  0  3  0  0  0  0  0  0
  -16.8820  -28.2160   22.8800 C   0  0  0  0  0  3  0  0  0  0  0  0
  -25.7710  -32.4820   23.7830 C   0  0  0  0  0  3  0  0  0  0  0  0
  -26.2890  -31.7300   25.0690 C   0  0  1  0  0  0  0  0  0  0  0  0
  -25.1770  -31.4280   26.0990 C   0  0  0  0  0  1  0  0  0  0  0  0
  -26.9550  -30.3910   24.6790 C   0  0  0  0  0  1  0  0  0  0  0  0
  -27.3760  -32.5800   25.7680 C   0  0  0  0  0  1  0  0  0  0  0  0
  -25.3740  -33.8580   24.1090 N   0  0  0  0  0  0  0  0  0  0  0  0
  -25.6700  -34.9320   23.3650 C   0  0  0  0  0  0  0  0  0  0  0  0
  -26.3760  -34.8730   22.3550 O   0  0  0  0  0  0  0  0  0  0  0  0
  -24.7420  -33.9710   24.8900 H   0  0  0  0  0  0  0  0  0  0  0  0
  -23.8430  -36.6170   22.9720 C   0  0  0  0  0  1  0  0  0  0  0  0
  -25.0880  -36.2870   23.8120 C   0  0  0  0  0  3  0  0  0  0  0  0
  -27.1490  -37.2910   24.6910 C   0  0  0  0  0  1  0  0  0  0  0  0
  -26.0590  -37.4000   23.7260 N   0  0  0  0  0  0  0  0  0  0  0  0
  -25.5970  -38.2940   23.8690 H   0  0  0  0  0  0  0  0  0  0  0  0
  -25.4510  -14.1210   20.3720 C   0  0  0  0  0  0  0  0  0  0  0  0
  -24.3590  -13.3790   20.7280 C   0  0  0  0  0  0  0  0  0  0  0  0
  -24.8010  -12.0220   20.7750 C   0  0  0  0  0  0  0  0  0  0  0  0
  -26.4920  -13.2180   20.2190 N   0  0  0  0  0  0  0  0  0  0  0  0
  -26.1030  -11.9530   20.5240 N   0  0  0  0  0  0  0  0  0  0  0  0
  -24.0510  -10.7770   20.9850 C   0  0  0  0  0  0  0  0  0  0  0  0
  -24.4640   -9.8190   21.9370 C   0  0  0  0  0  3  0  0  0  0  0  0
  -23.7150   -8.6390   22.1360 C   0  0  0  0  0  3  0  0  0  0  0  0
  -22.5390   -8.4090   21.3840 C   0  0  0  0  0  0  0  0  0  0  0  0
  -22.1460   -9.3540   20.4200 C   0  0  0  0  0  3  0  0  0  0  0  0
  -22.8940  -10.5250   20.2200 C   0  0  0  0  0  3  0  0  0  0  0  0
  -21.7620   -7.2800   21.4930 O   0  0  0  0  0  0  0  0  0  0  0  0
  -21.7400   -6.5300   22.6420 C   0  0  0  0  0  0  0  0  0  0  0  0
  -21.4010   -7.0910   23.8920 C   0  0  0  0  0  3  0  0  0  0  0  0
  -21.3230   -6.2680   25.0340 C   0  0  0  0  0  3  0  0  0  0  0  0
  -21.5760   -4.8880   24.9270 C   0  0  0  0  0  0  0  0  0  0  0  0
  -21.9080   -4.3270   23.6810 C   0  0  0  0  0  3  0  0  0  0  0  0
  -21.9880   -5.1460   22.5410 C   0  0  0  0  0  0  0  0  0  0  0  0
  -22.2870   -4.5980   21.3390 F   0  0  0  0  0  0  0  0  0  0  0  0
  -21.4930   -4.0950   26.0220 F   0  0  0  0  0  0  0  0  0  0  0  0
  -22.9580  -13.8840   20.9230 C   0  0  0  0  0  0  0  0  0  0  0  0
  -22.1900  -13.2380   21.7910 N   0  0  0  0  0  0  0  0  0  0  0  0
  -22.5530  -14.8890   20.3380 O   0  0  0  0  0  0  0  0  0  0  0  0
  -22.5280  -12.4280   22.2890 H   0  0  0  0  0  0  0  0  0  0  0  0
  -21.2480  -13.5590   21.9630 H   0  0  0  0  0  0  0  0  0  0  0  0
  -25.6450  -15.4800   20.1480 N   0  0  0  0  0  0  0  0  0  0  0  0
  -24.8920  -16.1550   20.2250 H   0  0  0  0  0  0  0  0  0  0  0  0
  -26.5370  -15.9040   19.9230 H   0  0  0  0  0  0  0  0  0  0  0  0
  -32.1090  -16.9630   18.3980 C   0  0  0  0  0  2  0  0  0  0  0  0
  -32.7750  -17.0680   17.0870 N   0  0  0  0  0  4  0  0  0  0  0  0
  -33.1820  -16.1890   16.8220 H   0  0  0  0  0  0  0  0  0  0  0  0
  -33.5130  -17.7460   17.1290 H   0  0  0  0  0  0  0  0  0  0  0  0
  -32.1300  -17.3530   16.3730 H   0  0  0  0  0  0  0  0  0  0  0  0
  2  7  1  0
  3  4  1  0
  3  2  1  0
  5  4  1  0
  5 72  1  0
  5  6  1  0
  7  1  1  0
  7  6  1  0
  8  1  2  0
 10  9  1  0
 11 12  1  0
 12  9  2  0
 13 11  2  0
 13 14  1  0
 14 10  2  0
 15 13  1  0
 16 15  1  0
 16 17  1  0
 17 97  1  0
 17 18  1  0
 18  1  1  0
 18 14  1  0
 20 23  1  0
 21 19  1  0
 22 24  1  0
 22 20  1  0
 23 12  1  0
 23 19  1  0
 24 26  1  0
 24 21  1  0
 24 25  1  6
 27 28  1  0
 27 26  1  0
 29 40  2  0
 30 28  1  0
 30 35  1  0
 31 39  1  0
 31 41  1  0
 32 38  1  0
 32 34  1  0
 33 39  1  0
 34 35  2  0
 34 33  1  0
 36 30  2  0
 37 36  1  0
 37 32  2  0
 38 31  1  0
 39 29  1  0
 41 43  2  0
 42 41  1  0
 44 42  1  0
 45 54  2  0
 45 50  1  0
 46 42  1  0
 46 50  1  0
 47 46  1  0
 48 49  1  0
 48 47  1  0
 49 45  1  0
 50 51  2  0
 51 52  1  0
 53 52  2  0
 54 53  1  0
 55 29  1  0
 55 60  1  0
 55 56  1  0
 56 59  1  1
 56 57  1  0
 58 56  1  0
 60 63  1  0
 61 65  1  0
 61 60  1  0
 62 61  2  0
 65 64  1  0
 67 65  1  0
 67 68  1  0
 67 66  1  0
 69 70  2  0
 70 71  1  0
 70 89  1  0
 71 74  1  0
 72 69  1  0
 72 73  1  0
 73 71  2  0
 74 75  1  0
 75 76  2  0
 77 80  1  0
 77 76  1  0
 78 77  2  0
 79 78  1  0
 79 74  2  0
 80 81  1  0
 81 82  1  0
 82 83  2  0
 84 83  1  0
 84 88  1  0
 85 84  2  0
 86 81  2  0
 86 85  1  0
 87 86  1  0
 89 90  1  0
 90 93  1  0
 90 92  1  0
 91 89  2  0
 94 95  1  0
 94 69  1  0
 96 94  1  0
 98100  1  0
 98 97  1  0
 99 98  1  0
101 98  1  0
M  ISO  4   1 100  18 100  27 101  28 101
M  END
>  <TORSDO>  (3) 
F 20

>  <SCORE>  (3) 
-10.563

>  <name>  (3) 
2

>  <ligand_id>  (3) 
2

>  <original_smiles>  (3) 
[H]c1c([H])c([H])c2c(c1[H])C([H])([H])C([H])([H])C([H])([H])C2([H])N([H])C(=O)C1([H])N(C(=O)C([H])(N([H])C(=O)C([H])(N([H])C([H])([H])[H])C([H])([H])[H])C(C([H])([H])[H])(C([H])([H])[H])C([H])([H])[H])C([H])([H])c2c([H])c(OC([H])([H])C([H])([H])[N+]3([H])C([H])([H])C([H])([H])C([H])(c4c([H])c([H])c5c(c4[H])C([H])([H])C([H])([H])C([H])(C([H])([H])[N+]([H])([H])[H])N5C(=O)N4C([H])([H])C([H])([H])C([H])([H])C([H])(n5nc(-c6c([H])c([H])c(Oc7c([H])c([H])c(F)c([H])c7F)c([H])c6[H])c(C(=O)N([H])[H])c5N([H])[H])C4([H])[H])C([H])([H])C3([H])[H])c([H])c([H])c2C1([H])[H]

>  <smiles>  (3) 
[H]c1c([H])c([H])c2c(c1[H])C([H])([H])C([H])([H])C([H])([H])C2([H])N([H])C(=O)C1([H])N(C(=O)C([H])(N([H])C(=O)C([H])(N([H])C([H])([H])[H])C([H])([H])[H])C(C([H])([H])[H])(C([H])([H])[H])C([H])([H])[H])C([H])([H])c2c([H])c(OC([H])([H])C([H])([H])[N+]3([H])C([H])([H])C([H])([H])C([H])(c4c([H])c([H])c5c(c4[H])C([H])([H])C([H])([H])C([H])(C([H])([H])[N+]([H])([H])[H])N5C(=O)N4C([H])([H])C([H])([H])C([H])([H])C([H])(n5nc(-c6c([H])c([H])c(Oc7c([H])c([H])c(F)c([H])c7F)c([H])c6[H])c(C(=O)N([H])[H])c5N([H])[H])C4([H])[H])C([H])([H])C3([H])[H])c([H])c([H])c2C1([H])[H]

$$$$
3:0:0
     RDKit          3D

 90 98  0  0  1  0  0  0  0  0999 V2000
  -30.2870  -19.6230   22.1270 C   0  0  0  0  0  2  0  0  0  0  0  0
  -30.1300  -18.0890   21.8420 C   0  0  0  0  0  2  0  0  0  0  0  0
  -29.7890  -18.5710   19.3870 C   0  0  0  0  0  2  0  0  0  0  0  0
  -29.1800  -20.5790   21.5620 C   0  0  0  0  0  2  0  0  0  0  0  0
  -30.2150  -20.1330   19.3540 C   0  0  0  0  0  2  0  0  0  0  0  0
  -30.4770  -17.5640   20.4200 C   0  0  0  0  0  3  0  0  0  0  0  0
  -29.4250  -21.1360   20.1940 N   0  0  2  0  0  4  0  0  0  0  0  0
  -28.5120  -21.1610   19.7660 H   0  0  0  0  0  0  0  0  0  0  0  0
  -30.8870  -14.9360   19.9930 C   0  0  0  0  0  0  0  0  0  0  0  0
  -30.6160  -12.6780   18.9320 C   0  0  0  0  0  2  0  0  0  0  0  0
  -29.6000  -12.7610   17.7710 C   0  0  0  0  0  2  0  0  0  0  0  0
  -28.1610  -12.5830   18.2920 C   0  0  0  0  0  2  0  0  0  0  0  0
  -27.8640  -13.4600   19.5370 C   0  0  0  0  0  3  0  0  0  0  0  0
  -28.9900  -13.3490   20.5900 C   0  0  0  0  0  2  0  0  0  0  0  0
  -30.2470  -13.7160   19.9240 N   0  0  0  0  0  0  0  0  0  0  0  0
  -32.0540  -15.0380   19.6060 O   0  0  0  0  0  0  0  0  0  0  0  0
  -30.1330  -16.0620   20.3100 N   0  0  0  0  0  0  0  0  0  0  0  0
  -29.1810  -15.8350   20.5540 H   0  0  0  0  0  0  0  0  0  0  0  0
  -25.5340  -14.0550   20.4330 C   0  0  0  0  0  0  0  0  0  0  0  0
  -24.4820  -13.2830   20.8420 C   0  0  0  0  0  0  0  0  0  0  0  0
  -24.9250  -11.9270   20.7410 C   0  0  0  0  0  0  0  0  0  0  0  0
  -26.5500  -13.1730   20.1050 N   0  0  0  0  0  0  0  0  0  0  0  0
  -26.1940  -11.8850   20.3550 N   0  0  0  0  0  0  0  0  0  0  0  0
  -24.1950  -10.6680   20.9350 C   0  0  0  0  0  0  0  0  0  0  0  0
  -24.6260   -9.6980   21.8670 C   0  0  0  0  0  3  0  0  0  0  0  0
  -23.8960   -8.5050   22.0480 C   0  0  0  0  0  3  0  0  0  0  0  0
  -22.7180   -8.2720   21.2990 C   0  0  0  0  0  0  0  0  0  0  0  0
  -22.3040   -9.2300   20.3560 C   0  0  0  0  0  3  0  0  0  0  0  0
  -23.0360  -10.4150   20.1720 C   0  0  0  0  0  3  0  0  0  0  0  0
  -21.9590   -7.1310   21.3900 O   0  0  0  0  0  0  0  0  0  0  0  0
  -21.8580   -6.4250   22.5620 C   0  0  0  0  0  0  0  0  0  0  0  0
  -21.3260   -7.0030   23.7370 C   0  0  0  0  0  3  0  0  0  0  0  0
  -21.1790   -6.2210   24.9000 C   0  0  0  0  0  3  0  0  0  0  0  0
  -21.5500   -4.8620   24.8890 C   0  0  0  0  0  0  0  0  0  0  0  0
  -22.0720   -4.2850   23.7200 C   0  0  0  0  0  3  0  0  0  0  0  0
  -22.2230   -5.0640   22.5580 C   0  0  0  0  0  0  0  0  0  0  0  0
  -22.7070   -4.4960   21.4270 F   0  0  0  0  0  0  0  0  0  0  0  0
  -21.4000   -4.1100   26.0040 F   0  0  0  0  0  0  0  0  0  0  0  0
  -23.1100  -13.7660   21.2130 C   0  0  0  0  0  0  0  0  0  0  0  0
  -22.4340  -13.0620   22.1130 N   0  0  0  0  0  0  0  0  0  0  0  0
  -22.6480  -14.8040   20.7380 O   0  0  0  0  0  0  0  0  0  0  0  0
  -22.8190  -12.2190   22.5140 H   0  0  0  0  0  0  0  0  0  0  0  0
  -21.5180  -13.3680   22.4080 H   0  0  0  0  0  0  0  0  0  0  0  0
  -25.7030  -15.4300   20.2870 N   0  0  0  0  0  0  0  0  0  0  0  0
  -24.9430  -16.0820   20.4520 H   0  0  0  0  0  0  0  0  0  0  0  0
  -26.5250  -15.8730   19.8970 H   0  0  0  0  0  0  0  0  0  0  0  0
  -29.8710  -22.6270   20.1890 C   0  0  0  0  0  2  0  0  0  0  0  0
  -28.8000  -23.8250   19.8950 C   0  0  0  0  0  2  0  0  0  0  0  0
  -28.8480  -25.2480   20.6860 C   0  0  0  0  0  2  0  0  0  0  0  0
  -28.8060  -26.6140   20.0690 O   0  0  0  0  0  0  0  0  0  0  0  0
  -24.7220  -31.7390   23.2420 C   0  0  0  0  0  0  0  0  0  0  0  0
  -27.6390  -27.4030   20.1190 C   0  0  0  0  0  0  0  0  0  0  0  0
  -23.6380  -30.3610   21.5030 C   0  0  0  0  0  3  0  0  0  0  0  0
  -25.2060  -28.9250   20.0780 C   0  0  0  0  0  0  0  0  0  0  0  0
  -26.1660  -30.7970   21.4190 C   0  0  0  0  0  2  0  0  0  0  0  0
  -26.3330  -29.4440   20.7270 C   0  0  0  0  0  0  0  0  0  0  0  0
  -27.5560  -28.6990   20.7310 C   0  0  0  0  0  3  0  0  0  0  0  0
  -26.4800  -26.9280   19.4740 C   0  0  0  0  0  3  0  0  0  0  0  0
  -25.2810  -27.6720   19.4480 C   0  0  0  0  0  3  0  0  0  0  0  0
  -23.9290  -29.7460   20.1080 C   0  0  0  0  0  2  0  0  0  0  0  0
  -24.8590  -30.9800   22.1150 N   0  0  0  0  0  0  0  0  0  0  0  0
  -23.6080  -31.9440   23.7470 O   0  0  0  0  0  0  0  0  0  0  0  0
  -22.9860  -29.2820   22.3990 C   0  0  0  0  0  0  0  0  0  0  0  0
  -21.6740  -29.0520   22.2180 N   0  0  0  0  0  0  0  0  0  0  0  0
  -23.6620  -28.6530   23.2190 O   0  0  0  0  0  0  0  0  0  0  0  0
  -21.1850  -29.6060   21.5290 H   0  0  0  0  0  0  0  0  0  0  0  0
  -18.3350  -27.7130   22.5770 C   0  0  0  0  0  0  0  0  0  0  0  0
  -20.8740  -28.0480   22.9220 C   0  0  0  0  0  3  0  0  0  0  0  0
  -21.0460  -26.6530   22.2770 C   0  0  0  0  0  2  0  0  0  0  0  0
  -19.9790  -26.3420   21.2230 C   0  0  0  0  0  2  0  0  0  0  0  0
  -18.5770  -26.4080   21.8360 C   0  0  0  0  0  2  0  0  0  0  0  0
  -19.4140  -28.4910   23.0720 C   0  0  0  0  0  0  0  0  0  0  0  0
  -19.1350  -29.7140   23.7200 C   0  0  0  0  0  3  0  0  0  0  0  0
  -17.8090  -30.1550   23.8860 C   0  0  0  0  0  3  0  0  0  0  0  0
  -16.7430  -29.3720   23.4090 C   0  0  0  0  0  3  0  0  0  0  0  0
  -17.0060  -28.1540   22.7560 C   0  0  0  0  0  3  0  0  0  0  0  0
  -25.9510  -32.4030   23.9370 C   0  0  0  0  0  3  0  0  0  0  0  0
  -26.4200  -31.6380   25.2340 C   0  0  1  0  0  0  0  0  0  0  0  0
  -25.2740  -31.3500   26.2320 C   0  0  0  0  0  1  0  0  0  0  0  0
  -27.0770  -30.2890   24.8650 C   0  0  0  0  0  1  0  0  0  0  0  0
  -27.5000  -32.4660   25.9720 C   0  0  0  0  0  1  0  0  0  0  0  0
  -25.5800  -33.7870   24.2630 N   0  0  0  0  0  0  0  0  0  0  0  0
  -25.9090  -34.8590   23.5290 C   0  0  0  0  0  0  0  0  0  0  0  0
  -26.6200  -34.7890   22.5230 O   0  0  0  0  0  0  0  0  0  0  0  0
  -24.9540  -33.9170   25.0420 H   0  0  0  0  0  0  0  0  0  0  0  0
  -24.1400  -36.6030   23.1330 C   0  0  0  0  0  1  0  0  0  0  0  0
  -25.3600  -36.2240   23.9860 C   0  0  0  0  0  3  0  0  0  0  0  0
  -27.4180  -37.1710   24.9250 C   0  0  0  0  0  1  0  0  0  0  0  0
  -26.3590  -37.3120   23.9300 N   0  0  0  0  0  0  0  0  0  0  0  0
  -25.9130  -38.2140   24.0730 H   0  0  0  0  0  0  0  0  0  0  0  0
  2  1  1  0
  3  6  1  0
  4  1  1  0
  5  3  1  0
  5  7  1  0
  6 17  1  0
  6  2  1  0
  7  4  1  0
  7  8  1  6
  9 17  1  0
 10 15  1  0
 11 12  1  0
 11 10  1  0
 13 12  1  0
 13 22  1  0
 13 14  1  0
 15  9  1  0
 15 14  1  0
 16  9  2  0
 17 18  1  0
 19 20  2  0
 20 39  1  0
 21 20  1  0
 21 24  1  0
 22 23  1  0
 22 19  1  0
 23 21  2  0
 24 25  1  0
 25 26  2  0
 27 30  1  0
 27 26  1  0
 28 27  2  0
 29 28  1  0
 29 24  2  0
 30 31  1  0
 31 32  1  0
 32 33  2  0
 34 33  1  0
 34 38  1  0
 35 34  2  0
 36 31  2  0
 36 35  1  0
 37 36  1  0
 39 40  1  0
 40 43  1  0
 40 42  1  0
 41 39  2  0
 44 19  1  0
 44 45  1  0
 46 44  1  0
 47  7  1  0
 48 47  1  0
 48 49  1  0
 50 52  1  0
 50 49  1  0
 51 62  2  0
 52 57  1  0
 53 61  1  0
 53 63  1  0
 54 60  1  0
 54 56  1  0
 55 61  1  0
 56 57  2  0
 56 55  1  0
 58 52  2  0
 59 58  1  0
 59 54  2  0
 60 53  1  0
 61 51  1  0
 63 65  2  0
 64 63  1  0
 66 64  1  0
 67 76  2  0
 67 72  1  0
 68 64  1  0
 68 72  1  0
 69 68  1  0
 70 71  1  0
 70 69  1  0
 71 67  1  0
 72 73  2  0
 73 74  1  0
 75 74  2  0
 76 75  1  0
 77 51  1  0
 77 82  1  0
 77 78  1  0
 78 81  1  1
 78 79  1  0
 80 78  1  0
 82 85  1  0
 83 87  1  0
 83 82  1  0
 84 83  2  0
 87 86  1  0
 89 87  1  0
 89 90  1  0
 89 88  1  0
M  ISO  4   9 100  17 100  49 101  50 101
M  END
>  <TORSDO>  (4) 
F 19

>  <SCORE>  (4) 
-12.821

>  <name>  (4) 
3

>  <ligand_id>  (4) 
3

>  <original_smiles>  (4) 
[H]c1c([H])c([H])c2c(c1[H])C([H])([H])C([H])([H])C([H])([H])C2([H])N([H])C(=O)C1([H])N(C(=O)C([H])(N([H])C(=O)C([H])(N([H])C([H])([H])[H])C([H])([H])[H])C(C([H])([H])[H])(C([H])([H])[H])C([H])([H])[H])C([H])([H])c2c([H])c(OC([H])([H])C([H])([H])C([H])([H])[N+]3([H])C([H])([H])C([H])([H])C([H])([H])C([H])(N([H])C(=O)N4C([H])([H])C([H])([H])C([H])([H])C([H])(n5nc(-c6c([H])c([H])c(Oc7c([H])c([H])c(F)c([H])c7F)c([H])c6[H])c(C(=O)N([H])[H])c5N([H])[H])C4([H])[H])C([H])([H])C3([H])[H])c([H])c([H])c2C1([H])[H]

>  <smiles>  (4) 
[H]c1c([H])c([H])c2c(c1[H])C([H])([H])C([H])([H])C([H])([H])C2([H])N([H])C(=O)C1([H])N(C(=O)C([H])(N([H])C(=O)C([H])(N([H])C([H])([H])[H])C([H])([H])[H])C(C([H])([H])[H])(C([H])([H])[H])C([H])([H])[H])C([H])([H])c2c([H])c(OC([H])([H])C([H])([H])C([H])([H])[N+]3([H])C([H])([H])C([H])([H])C([H])([H])C([H])(N([H])C(=O)N4C([H])([H])C([H])([H])C([H])([H])C([H])(n5nc(-c6c([H])c([H])c(Oc7c([H])c([H])c(F)c([H])c7F)c([H])c6[H])c(C(=O)N([H])[H])c5N([H])[H])C4([H])[H])C([H])([H])C3([H])[H])c([H])c([H])c2C1([H])[H]

$$$$
4:0:0
     RDKit          3D

 86 93  0  0  1  0  0  0  0  0999 V2000
  -28.8370  -22.7640   20.5210 C   0  0  0  0  0  3  0  0  0  0  0  0
  -29.3040  -19.8370   20.4720 C   0  0  0  0  0  0  0  0  0  0  0  0
  -29.1010  -21.2080   19.9240 N   0  0  0  0  0  0  0  0  0  0  0  0
  -29.0370  -19.7210   21.6680 O   0  0  0  0  0  0  0  0  0  0  0  0
  -29.2830  -21.2270   18.9280 H   0  0  0  0  0  0  0  0  0  0  0  0
  -29.9160  -18.3420   19.7690 C   0  0  0  0  0  2  0  0  0  0  0  0
  -30.5450  -15.4350   19.9120 C   0  0  0  0  0  0  0  0  0  0  0  0
  -30.4730  -13.0020   18.9930 C   0  0  0  0  0  2  0  0  0  0  0  0
  -29.4800  -12.8250   17.8150 C   0  0  0  0  0  2  0  0  0  0  0  0
  -28.0620  -12.5370   18.3380 C   0  0  0  0  0  2  0  0  0  0  0  0
  -27.6820  -13.4660   19.5160 C   0  0  0  0  0  3  0  0  0  0  0  0
  -28.7990  -13.5920   20.5770 C   0  0  0  0  0  2  0  0  0  0  0  0
  -29.9860  -14.1210   19.8860 N   0  0  0  0  0  0  0  0  0  0  0  0
  -31.7310  -15.4470   19.5520 O   0  0  0  0  0  0  0  0  0  0  0  0
  -29.7910  -16.7020   20.1270 N   0  0  0  0  0  0  0  0  0  0  0  0
  -28.8680  -16.4950   20.4780 H   0  0  0  0  0  0  0  0  0  0  0  0
  -25.3690  -13.9960   20.4450 C   0  0  0  0  0  0  0  0  0  0  0  0
  -24.3330  -13.2060   20.8550 C   0  0  0  0  0  0  0  0  0  0  0  0
  -24.7930  -11.8580   20.7430 C   0  0  0  0  0  0  0  0  0  0  0  0
  -26.3910  -13.1300   20.1000 N   0  0  0  0  0  0  0  0  0  0  0  0
  -26.0610  -11.8360   20.3460 N   0  0  0  0  0  0  0  0  0  0  0  0
  -24.0760  -10.5890   20.9320 C   0  0  0  0  0  0  0  0  0  0  0  0
  -24.5270   -9.6140   21.8480 C   0  0  0  0  0  3  0  0  0  0  0  0
  -23.8060   -8.4140   22.0280 C   0  0  0  0  0  3  0  0  0  0  0  0
  -22.6190   -8.1800   21.2940 C   0  0  0  0  0  0  0  0  0  0  0  0
  -22.1860   -9.1460   20.3670 C   0  0  0  0  0  3  0  0  0  0  0  0
  -22.9080  -10.3370   20.1840 C   0  0  0  0  0  3  0  0  0  0  0  0
  -21.8680   -7.0330   21.3840 O   0  0  0  0  0  0  0  0  0  0  0  0
  -21.8000   -6.3070   22.5460 C   0  0  0  0  0  0  0  0  0  0  0  0
  -21.3120   -6.8670   23.7470 C   0  0  0  0  0  3  0  0  0  0  0  0
  -21.1940   -6.0650   24.9000 C   0  0  0  0  0  3  0  0  0  0  0  0
  -21.5530   -4.7060   24.8530 C   0  0  0  0  0  0  0  0  0  0  0  0
  -22.0340   -4.1450   23.6560 C   0  0  0  0  0  3  0  0  0  0  0  0
  -22.1530   -4.9440   22.5060 C   0  0  0  0  0  0  0  0  0  0  0  0
  -22.5970   -4.3930   21.3500 F   0  0  0  0  0  0  0  0  0  0  0  0
  -21.4340   -3.9340   25.9590 F   0  0  0  0  0  0  0  0  0  0  0  0
  -22.9580  -13.6740   21.2300 C   0  0  0  0  0  0  0  0  0  0  0  0
  -22.2850  -12.9510   22.1170 N   0  0  0  0  0  0  0  0  0  0  0  0
  -22.4910  -14.7170   20.7720 O   0  0  0  0  0  0  0  0  0  0  0  0
  -22.6760  -12.1070   22.5080 H   0  0  0  0  0  0  0  0  0  0  0  0
  -21.3640  -13.2450   22.4110 H   0  0  0  0  0  0  0  0  0  0  0  0
  -25.5210  -15.3730   20.3060 N   0  0  0  0  0  0  0  0  0  0  0  0
  -24.7590  -16.0170   20.4850 H   0  0  0  0  0  0  0  0  0  0  0  0
  -26.3290  -15.8220   19.8970 H   0  0  0  0  0  0  0  0  0  0  0  0
  -28.1150  -24.3050   19.8790 C   0  0  0  0  0  3  0  0  0  0  0  0
  -28.1940  -25.9180   20.2780 O   0  0  0  0  0  0  0  0  0  0  0  0
  -24.5950  -31.8880   23.1940 C   0  0  0  0  0  0  0  0  0  0  0  0
  -27.1750  -27.0110   20.1740 C   0  0  0  0  0  0  0  0  0  0  0  0
  -23.4050  -30.4810   21.5610 C   0  0  0  0  0  3  0  0  0  0  0  0
  -24.8610  -28.8830   20.1320 C   0  0  0  0  0  0  0  0  0  0  0  0
  -25.9690  -30.7060   21.4070 C   0  0  0  0  0  2  0  0  0  0  0  0
  -26.0460  -29.2950   20.7520 C   0  0  0  0  0  0  0  0  0  0  0  0
  -27.1940  -28.3790   20.7500 C   0  0  0  0  0  3  0  0  0  0  0  0
  -25.9610  -26.7580   19.4960 C   0  0  0  0  0  3  0  0  0  0  0  0
  -24.8440  -27.6370   19.4830 C   0  0  0  0  0  3  0  0  0  0  0  0
  -23.6350  -29.7950   20.1850 C   0  0  0  0  0  2  0  0  0  0  0  0
  -24.6780  -31.0530   22.1080 N   0  0  0  0  0  0  0  0  0  0  0  0
  -23.5050  -32.1710   23.7190 O   0  0  0  0  0  0  0  0  0  0  0  0
  -22.7210  -29.4820   22.5320 C   0  0  0  0  0  0  0  0  0  0  0  0
  -21.3910  -29.3080   22.4130 N   0  0  0  0  0  0  0  0  0  0  0  0
  -23.3930  -28.8650   23.3630 O   0  0  0  0  0  0  0  0  0  0  0  0
  -20.9010  -29.8570   21.7200 H   0  0  0  0  0  0  0  0  0  0  0  0
  -18.0190  -28.0780   22.9440 C   0  0  0  0  0  0  0  0  0  0  0  0
  -20.5790  -28.3650   23.1900 C   0  0  0  0  0  3  0  0  0  0  0  0
  -20.6870  -26.9330   22.6150 C   0  0  0  0  0  2  0  0  0  0  0  0
  -19.5810  -26.6030   21.6070 C   0  0  0  0  0  2  0  0  0  0  0  0
  -18.2020  -26.7330   22.2610 C   0  0  0  0  0  2  0  0  0  0  0  0
  -19.1340  -28.8510   23.3650 C   0  0  0  0  0  0  0  0  0  0  0  0
  -18.9060  -30.1080   23.9670 C   0  0  0  0  0  3  0  0  0  0  0  0
  -17.5960  -30.5930   24.1480 C   0  0  0  0  0  3  0  0  0  0  0  0
  -16.4970  -29.8180   23.7400 C   0  0  0  0  0  3  0  0  0  0  0  0
  -16.7080  -28.5620   23.1440 C   0  0  0  0  0  3  0  0  0  0  0  0
  -25.8630  -32.5410   23.8220 C   0  0  0  0  0  3  0  0  0  0  0  0
  -26.3680  -31.7940   25.1190 C   0  0  1  0  0  0  0  0  0  0  0  0
  -25.2640  -31.5700   26.1790 C   0  0  0  0  0  1  0  0  0  0  0  0
  -26.9610  -30.4120   24.7640 C   0  0  0  0  0  1  0  0  0  0  0  0
  -27.5080  -32.6040   25.7790 C   0  0  0  0  0  1  0  0  0  0  0  0
  -25.5400  -33.9440   24.1420 N   0  0  0  0  0  0  0  0  0  0  0  0
  -25.8640  -35.0000   23.3830 C   0  0  0  0  0  0  0  0  0  0  0  0
  -26.5290  -34.8960   22.3480 O   0  0  0  0  0  0  0  0  0  0  0  0
  -24.9480  -34.0970   24.9440 H   0  0  0  0  0  0  0  0  0  0  0  0
  -24.1290  -36.7940   23.0420 C   0  0  0  0  0  1  0  0  0  0  0  0
  -25.3790  -36.3910   23.8420 C   0  0  0  0  0  3  0  0  0  0  0  0
  -27.5130  -37.2930   24.6600 C   0  0  0  0  0  1  0  0  0  0  0  0
  -26.4080  -37.4470   23.7170 N   0  0  0  0  0  0  0  0  0  0  0  0
  -25.9980  -38.3670   23.8570 H   0  0  0  0  0  0  0  0  0  0  0  0
  2  4  2  0
  3  2  1  0
  3  1  1  0
  5  3  1  0
  6 15  1  0
  6  2  1  0
  7 15  1  0
  8 13  1  0
  9 10  1  0
  9  8  1  0
 11 10  1  0
 11 20  1  0
 11 12  1  0
 13  7  1  0
 13 12  1  0
 14  7  2  0
 15 16  1  0
 17 18  2  0
 18 37  1  0
 19 18  1  0
 19 22  1  0
 20 21  1  0
 20 17  1  0
 21 19  2  0
 22 23  1  0
 23 24  2  0
 25 28  1  0
 25 24  1  0
 26 25  2  0
 27 26  1  0
 27 22  2  0
 28 29  1  0
 29 30  1  0
 30 31  2  0
 32 31  1  0
 32 36  1  0
 33 32  2  0
 34 29  2  0
 34 33  1  0
 35 34  1  0
 37 38  1  0
 38 41  1  0
 38 40  1  0
 39 37  2  0
 42 17  1  0
 42 43  1  0
 44 42  1  0
 45 46  1  0
 45  1  2  0
 47 58  2  0
 48 46  1  0
 48 53  1  0
 49 57  1  0
 49 59  1  0
 50 56  1  0
 50 52  1  0
 51 57  1  0
 52 51  1  0
 53 52  2  0
 54 48  2  0
 55 54  1  0
 55 50  2  0
 56 49  1  0
 57 47  1  0
 59 61  2  0
 60 59  1  0
 62 60  1  0
 63 72  2  0
 63 68  1  0
 64 60  1  0
 64 68  1  0
 65 64  1  0
 66 67  1  0
 66 65  1  0
 67 63  1  0
 68 69  2  0
 69 70  1  0
 71 70  2  0
 72 71  1  0
 73 47  1  0
 73 78  1  0
 73 74  1  0
 74 77  1  1
 74 75  1  0
 76 74  1  0
 78 81  1  0
 79 83  1  0
 79 78  1  0
 80 79  2  0
 83 82  1  0
 85 83  1  0
 85 86  1  0
 85 84  1  0
M  ISO  4   7 100  15 100  45 101  46 101
M  END
>  <TORSDO>  (5) 
F 19

>  <SCORE>  (5) 
-15.612

>  <name>  (5) 
4

>  <ligand_id>  (5) 
4

>  <original_smiles>  (5) 
[H]c1c([H])c([H])c2c(c1[H])C([H])([H])C([H])([H])C([H])([H])C2([H])N([H])C(=O)C1([H])N(C(=O)C([H])(N([H])C(=O)C([H])(N([H])C([H])([H])[H])C([H])([H])[H])C(C([H])([H])[H])(C([H])([H])[H])C([H])([H])[H])C([H])([H])c2c([H])c(OC([H])([H])C([H])([H])N([H])C(=O)C([H])([H])N([H])C(=O)N3C([H])([H])C([H])([H])C([H])([H])C([H])(n4nc(-c5c([H])c([H])c(Oc6c([H])c([H])c(F)c([H])c6F)c([H])c5[H])c(C(=O)N([H])[H])c4N([H])[H])C3([H])[H])c([H])c([H])c2C1([H])[H]

>  <smiles>  (5) 
[H]c1c([H])c([H])c2c(c1[H])C([H])([H])C([H])([H])C([H])([H])C2([H])N([H])C(=O)C1([H])N(C(=O)C([H])(N([H])C(=O)C([H])(N([H])C([H])([H])[H])C([H])([H])[H])C(C([H])([H])[H])(C([H])([H])[H])C([H])([H])[H])C([H])([H])c2c([H])c(OC([H])([H])C([H])([H])N([H])C(=O)C([H])([H])N([H])C(=O)N3C([H])([H])C([H])([H])C([H])([H])C([H])(n4nc(-c5c([H])c([H])c(Oc6c([H])c([H])c(F)c([H])c6F)c([H])c5[H])c(C(=O)N([H])[H])c4N([H])[H])C3([H])[H])c([H])c([H])c2C1([H])[H]

$$$$
5:0:0
     RDKit          3D

 89 97  0  0  1  0  0  0  0  0999 V2000
  -27.5220  -23.3090   19.7590 C   0  0  0  0  0  0  0  0  0  0  0  0
  -27.5560  -21.7370   20.2390 C   0  0  0  0  0  2  0  0  0  0  0  0
  -29.6860  -23.6200   20.7100 C   0  0  0  0  0  2  0  0  0  0  0  0
  -29.9450  -22.0510   20.1980 C   0  0  0  0  0  2  0  0  0  0  0  0
  -28.2880  -24.4430   20.5670 C   0  0  0  0  0  3  0  0  0  0  0  0
  -28.8920  -20.9870   20.5100 N   0  0  2  0  0  4  0  0  0  0  0  0
  -26.9040  -23.6050   18.7320 O   0  0  0  0  0  0  0  0  0  0  0  0
  -28.9140  -20.9200   21.5160 H   0  0  0  0  0  0  0  0  0  0  0  0
  -28.2780  -26.0310   20.1970 O   0  0  0  0  0  0  0  0  0  0  0  0
  -24.6400  -31.8750   23.2180 C   0  0  0  0  0  0  0  0  0  0  0  0
  -27.2030  -27.0370   20.2330 C   0  0  0  0  0  0  0  0  0  0  0  0
  -23.4410  -30.4670   21.5910 C   0  0  0  0  0  3  0  0  0  0  0  0
  -24.8880  -28.8620   20.1810 C   0  0  0  0  0  0  0  0  0  0  0  0
  -26.0020  -30.7040   21.4260 C   0  0  0  0  0  2  0  0  0  0  0  0
  -26.0740  -29.2930   20.7870 C   0  0  0  0  0  0  0  0  0  0  0  0
  -27.2320  -28.4030   20.7820 C   0  0  0  0  0  3  0  0  0  0  0  0
  -25.9830  -26.7390   19.5890 C   0  0  0  0  0  3  0  0  0  0  0  0
  -24.8610  -27.6020   19.5630 C   0  0  0  0  0  3  0  0  0  0  0  0
  -23.6650  -29.7750   20.2190 C   0  0  0  0  0  2  0  0  0  0  0  0
  -24.7160  -31.0400   22.1330 N   0  0  0  0  0  0  0  0  0  0  0  0
  -23.5530  -32.1630   23.7430 O   0  0  0  0  0  0  0  0  0  0  0  0
  -22.7590  -29.4720   22.5640 C   0  0  0  0  0  0  0  0  0  0  0  0
  -21.4280  -29.3020   22.4430 N   0  0  0  0  0  0  0  0  0  0  0  0
  -23.4300  -28.8520   23.3920 O   0  0  0  0  0  0  0  0  0  0  0  0
  -20.9420  -29.8530   21.7500 H   0  0  0  0  0  0  0  0  0  0  0  0
  -18.0520  -28.0870   22.9580 C   0  0  0  0  0  0  0  0  0  0  0  0
  -20.6110  -28.3680   23.2210 C   0  0  0  0  0  3  0  0  0  0  0  0
  -20.7190  -26.9310   22.6590 C   0  0  0  0  0  2  0  0  0  0  0  0
  -19.6190  -26.5920   21.6490 C   0  0  0  0  0  2  0  0  0  0  0  0
  -18.2360  -26.7340   22.2910 C   0  0  0  0  0  2  0  0  0  0  0  0
  -19.1670  -28.8600   23.3810 C   0  0  0  0  0  0  0  0  0  0  0  0
  -18.9380  -30.1230   23.9690 C   0  0  0  0  0  3  0  0  0  0  0  0
  -17.6300  -30.6140   24.1370 C   0  0  0  0  0  3  0  0  0  0  0  0
  -16.5310  -29.8390   23.7290 C   0  0  0  0  0  3  0  0  0  0  0  0
  -16.7420  -28.5770   23.1450 C   0  0  0  0  0  3  0  0  0  0  0  0
  -25.9140  -32.5210   23.8420 C   0  0  0  0  0  3  0  0  0  0  0  0
  -25.5960  -33.9210   24.1690 N   0  0  0  0  0  0  0  0  0  0  0  0
  -25.9190  -34.9770   23.4110 C   0  0  0  0  0  0  0  0  0  0  0  0
  -26.5820  -34.8770   22.3760 O   0  0  0  0  0  0  0  0  0  0  0  0
  -25.0070  -34.0740   24.9740 H   0  0  0  0  0  0  0  0  0  0  0  0
  -24.1830  -36.7710   23.0810 C   0  0  0  0  0  1  0  0  0  0  0  0
  -25.4350  -36.3670   23.8750 C   0  0  0  0  0  3  0  0  0  0  0  0
  -27.5760  -37.2620   24.6800 C   0  0  0  0  0  1  0  0  0  0  0  0
  -26.4630  -37.4220   23.7480 N   0  0  0  0  0  0  0  0  0  0  0  0
  -26.0560  -38.3420   23.8980 H   0  0  0  0  0  0  0  0  0  0  0  0
  -26.4240  -31.7640   25.1310 C   0  0  1  0  0  0  0  0  0  0  0  0
  -25.3260  -31.5400   26.1980 C   0  0  0  0  0  1  0  0  0  0  0  0
  -27.0080  -30.3810   24.7620 C   0  0  0  0  0  1  0  0  0  0  0  0
  -27.5720  -32.5660   25.7880 C   0  0  0  0  0  1  0  0  0  0  0  0
  -28.9740  -19.3990   20.0460 C   0  0  0  0  0  3  0  0  0  0  0  0
  -29.9120  -18.0330   20.6370 C   0  0  0  0  0  3  0  0  0  0  0  0
  -30.4660  -15.1930   20.2940 C   0  0  0  0  0  0  0  0  0  0  0  0
  -30.4200  -12.7830   19.3780 C   0  0  0  0  0  2  0  0  0  0  0  0
  -29.4870  -12.6200   18.1530 C   0  0  0  0  0  2  0  0  0  0  0  0
  -28.0360  -12.3660   18.6000 C   0  0  0  0  0  2  0  0  0  0  0  0
  -27.6000  -13.3240   19.7380 C   0  0  0  0  0  3  0  0  0  0  0  0
  -28.6560  -13.4280   20.8590 C   0  0  0  0  0  2  0  0  0  0  0  0
  -29.8940  -13.9040   20.2260 N   0  0  0  0  0  0  0  0  0  0  0  0
  -31.6850  -15.2250   20.0830 O   0  0  0  0  0  0  0  0  0  0  0  0
  -29.6770  -16.4190   20.4060 N   0  0  0  0  0  0  0  0  0  0  0  0
  -28.6970  -16.1860   20.4550 H   0  0  0  0  0  0  0  0  0  0  0  0
  -25.2280  -13.8880   20.4910 C   0  0  0  0  0  0  0  0  0  0  0  0
  -24.1680  -13.1100   20.8630 C   0  0  0  0  0  0  0  0  0  0  0  0
  -24.6370  -11.7600   20.8340 C   0  0  0  0  0  0  0  0  0  0  0  0
  -26.2720  -13.0130   20.2480 N   0  0  0  0  0  0  0  0  0  0  0  0
  -25.9290  -11.7280   20.5220 N   0  0  0  0  0  0  0  0  0  0  0  0
  -23.9140  -10.4970   21.0250 C   0  0  0  0  0  0  0  0  0  0  0  0
  -24.3530   -9.5250   21.9510 C   0  0  0  0  0  3  0  0  0  0  0  0
  -23.6260   -8.3290   22.1310 C   0  0  0  0  0  3  0  0  0  0  0  0
  -22.4460   -8.0950   21.3850 C   0  0  0  0  0  0  0  0  0  0  0  0
  -22.0270   -9.0540   20.4470 C   0  0  0  0  0  3  0  0  0  0  0  0
  -22.7550  -10.2430   20.2650 C   0  0  0  0  0  3  0  0  0  0  0  0
  -21.6910   -6.9510   21.4740 O   0  0  0  0  0  0  0  0  0  0  0  0
  -21.6560   -6.2010   22.6220 C   0  0  0  0  0  0  0  0  0  0  0  0
  -21.2420   -6.7470   23.8570 C   0  0  0  0  0  3  0  0  0  0  0  0
  -21.1550   -5.9240   24.9970 C   0  0  0  0  0  3  0  0  0  0  0  0
  -21.4680   -4.5540   24.9040 C   0  0  0  0  0  0  0  0  0  0  0  0
  -21.8730   -4.0070   23.6740 C   0  0  0  0  0  3  0  0  0  0  0  0
  -21.9630   -4.8280   22.5350 C   0  0  0  0  0  0  0  0  0  0  0  0
  -22.3340   -4.2910   21.3490 F   0  0  0  0  0  0  0  0  0  0  0  0
  -21.3760   -3.7610   25.9960 F   0  0  0  0  0  0  0  0  0  0  0  0
  -22.7690  -13.5830   21.1310 C   0  0  0  0  0  0  0  0  0  0  0  0
  -22.0440  -12.8900   22.0000 N   0  0  0  0  0  0  0  0  0  0  0  0
  -22.3300  -14.6060   20.6050 O   0  0  0  0  0  0  0  0  0  0  0  0
  -22.4140  -12.0620   22.4450 H   0  0  0  0  0  0  0  0  0  0  0  0
  -21.1060  -13.1880   22.2250 H   0  0  0  0  0  0  0  0  0  0  0  0
  -25.3840  -15.2600   20.3090 N   0  0  0  0  0  0  0  0  0  0  0  0
  -24.6080  -15.9030   20.4130 H   0  0  0  0  0  0  0  0  0  0  0  0
  -26.2110  -15.6970   19.9250 H   0  0  0  0  0  0  0  0  0  0  0  0
  1  2  1  0
  1  5  1  0
  2  6  1  0
  4  6  1  0
  4  3  1  0
  5  9  1  0
  5  3  1  0
  6  8  1  1
  7  1  2  0
  9 11  1  0
 10 21  2  0
 11 16  1  0
 12 20  1  0
 12 22  1  0
 13 19  1  0
 13 15  1  0
 14 20  1  0
 15 14  1  0
 16 15  2  0
 17 11  2  0
 18 17  1  0
 18 13  2  0
 19 12  1  0
 20 10  1  0
 22 24  2  0
 23 22  1  0
 25 23  1  0
 26 35  2  0
 26 31  1  0
 27 23  1  0
 27 31  1  0
 28 27  1  0
 29 30  1  0
 29 28  1  0
 30 26  1  0
 31 32  2  0
 32 33  1  0
 34 33  2  0
 35 34  1  0
 36 10  1  0
 36 37  1  0
 36 46  1  0
 37 40  1  0
 38 42  1  0
 38 37  1  0
 39 38  2  0
 42 41  1  0
 44 42  1  0
 44 45  1  0
 44 43  1  0
 46 49  1  1
 46 47  1  0
 48 46  1  0
 50  6  1  0
 50 51  2  0
 52 60  1  0
 53 58  1  0
 54 55  1  0
 54 53  1  0
 56 55  1  0
 56 65  1  0
 56 57  1  0
 58 52  1  0
 58 57  1  0
 59 52  2  0
 60 61  1  0
 60 51  1  0
 62 63  2  0
 63 82  1  0
 64 63  1  0
 64 67  1  0
 65 62  1  0
 65 66  1  0
 66 64  2  0
 67 68  1  0
 68 69  2  0
 70 73  1  0
 70 69  1  0
 71 70  2  0
 72 71  1  0
 72 67  2  0
 73 74  1  0
 74 75  1  0
 75 76  2  0
 77 76  1  0
 77 81  1  0
 78 77  2  0
 79 74  2  0
 79 78  1  0
 80 79  1  0
 82 83  1  0
 83 86  1  0
 83 85  1  0
 84 82  2  0
 87 88  1  0
 87 62  1  0
 89 87  1  0
M  ISO  4   5 101   9 101  52 100  60 100
M  END
>  <TORSDO>  (6) 
F 18

>  <SCORE>  (6) 
-15.310

>  <name>  (6) 
5

>  <ligand_id>  (6) 
5

>  <original_smiles>  (6) 
[H]c1c([H])c([H])c2c(c1[H])C([H])([H])C([H])([H])C([H])([H])C2([H])N([H])C(=O)C1([H])N(C(=O)C([H])(N([H])C(=O)C([H])(N([H])C([H])([H])[H])C([H])([H])[H])C(C([H])([H])[H])(C([H])([H])[H])C([H])([H])[H])C([H])([H])c2c([H])c(OC3([H])C(=O)C([H])([H])[N+]([H])(C([H])([H])C([H])([H])N([H])C(=O)N4C([H])([H])C([H])([H])C([H])([H])C([H])(n5nc(-c6c([H])c([H])c(Oc7c([H])c([H])c(F)c([H])c7F)c([H])c6[H])c(C(=O)N([H])[H])c5N([H])[H])C4([H])[H])C([H])([H])C3([H])[H])c([H])c([H])c2C1([H])[H]

>  <smiles>  (6) 
[H]c1c([H])c([H])c2c(c1[H])C([H])([H])C([H])([H])C([H])([H])C2([H])N([H])C(=O)C1([H])N(C(=O)C([H])(N([H])C(=O)C([H])(N([H])C([H])([H])[H])C([H])([H])[H])C(C([H])([H])[H])(C([H])([H])[H])C([H])([H])[H])C([H])([H])c2c([H])c(OC3([H])C(=O)C([H])([H])[N+]([H])(C([H])([H])C([H])([H])N([H])C(=O)N4C([H])([H])C([H])([H])C([H])([H])C([H])(n5nc(-c6c([H])c([H])c(Oc7c([H])c([H])c(F)c([H])c7F)c([H])c6[H])c(C(=O)N([H])[H])c5N([H])[H])C4([H])[H])C([H])([H])C3([H])[H])c([H])c([H])c2C1([H])[H]

$$$$
6:0:0
     RDKit          3D

 98106  0  0  1  0  0  0  0  0999 V2000
  -29.0020  -21.3890   17.6820 N   0  0  2  0  0  4  0  0  0  0  0  0
  -29.0950  -21.4360   16.6770 H   0  0  0  0  0  0  0  0  0  0  0  0
  -30.4380  -20.7040   19.6980 C   0  0  0  0  0  2  0  0  0  0  0  0
  -30.6740  -19.4240   17.5210 C   0  0  0  0  0  2  0  0  0  0  0  0
  -31.8420  -20.2040   20.0970 C   0  0  0  0  0  2  0  0  0  0  0  0
  -32.0700  -18.9630   17.9840 C   0  0  0  0  0  2  0  0  0  0  0  0
  -30.2970  -20.7890   18.1560 C   0  0  0  0  0  3  0  0  0  0  0  0
  -32.1690  -18.8970   19.4680 N   0  0  2  0  0  4  0  0  0  0  0  0
  -33.1480  -18.7280   19.6520 H   0  0  0  0  0  0  0  0  0  0  0  0
  -31.4530  -17.7390   20.0740 C   0  0  0  0  0  2  0  0  0  0  0  0
  -32.1220  -17.2510   21.3760 C   0  0  0  0  0  2  0  0  0  0  0  0
  -31.2840  -16.2620   22.2210 C   0  0  0  0  0  2  0  0  0  0  0  0
  -31.1570  -14.3280   20.5680 C   0  0  0  0  0  0  0  0  0  0  0  0
  -30.7060  -12.3510   19.1630 C   0  0  0  0  0  2  0  0  0  0  0  0
  -29.7680  -12.6950   17.9900 C   0  0  0  0  0  2  0  0  0  0  0  0
  -28.2910  -12.5950   18.4200 C   0  0  0  0  0  2  0  0  0  0  0  0
  -28.0010  -13.3540   19.7410 C   0  0  0  0  0  3  0  0  0  0  0  0
  -29.0390  -12.9790   20.8210 C   0  0  0  0  0  2  0  0  0  0  0  0
  -30.3870  -13.2480   20.2810 N   0  0  0  0  0  0  0  0  0  0  0  0
  -32.2190  -14.5730   19.9890 O   0  0  0  0  0  0  0  0  0  0  0  0
  -30.6690  -15.1250   21.5280 N   0  0  0  0  0  0  0  0  0  0  0  0
  -29.7830  -14.8180   21.9040 H   0  0  0  0  0  0  0  0  0  0  0  0
  -25.6090  -14.0260   20.4260 C   0  0  0  0  0  0  0  0  0  0  0  0
  -24.5170  -13.2790   20.7830 C   0  0  0  0  0  0  0  0  0  0  0  0
  -24.9460  -11.9180   20.7530 C   0  0  0  0  0  0  0  0  0  0  0  0
  -26.6340  -13.1180   20.2040 N   0  0  0  0  0  0  0  0  0  0  0  0
  -26.2360  -11.8460   20.4530 N   0  0  0  0  0  0  0  0  0  0  0  0
  -24.1860  -10.6720   20.9320 C   0  0  0  0  0  0  0  0  0  0  0  0
  -24.5830   -9.6960   21.8710 C   0  0  0  0  0  3  0  0  0  0  0  0
  -23.8280   -8.5140   22.0380 C   0  0  0  0  0  3  0  0  0  0  0  0
  -22.6610   -8.3030   21.2660 C   0  0  0  0  0  0  0  0  0  0  0  0
  -22.2830   -9.2690   20.3170 C   0  0  0  0  0  3  0  0  0  0  0  0
  -23.0390  -10.4420   20.1480 C   0  0  0  0  0  3  0  0  0  0  0  0
  -21.8800   -7.1760   21.3420 O   0  0  0  0  0  0  0  0  0  0  0  0
  -21.7780   -6.4480   22.5000 C   0  0  0  0  0  0  0  0  0  0  0  0
  -21.3260   -7.0250   23.7070 C   0  0  0  0  0  3  0  0  0  0  0  0
  -21.1700   -6.2250   24.8560 C   0  0  0  0  0  3  0  0  0  0  0  0
  -21.4560   -4.8480   24.7990 C   0  0  0  0  0  0  0  0  0  0  0  0
  -21.9010   -4.2690   23.5970 C   0  0  0  0  0  3  0  0  0  0  0  0
  -22.0580   -5.0680   22.4500 C   0  0  0  0  0  0  0  0  0  0  0  0
  -22.4670   -4.5010   21.2890 F   0  0  0  0  0  0  0  0  0  0  0  0
  -21.2990   -4.0770   25.9000 F   0  0  0  0  0  0  0  0  0  0  0  0
  -23.1320  -13.7920   21.0480 C   0  0  0  0  0  0  0  0  0  0  0  0
  -22.3840  -13.1150   21.9130 N   0  0  0  0  0  0  0  0  0  0  0  0
  -22.7210  -14.8250   20.5230 O   0  0  0  0  0  0  0  0  0  0  0  0
  -22.7280  -12.2780   22.3600 H   0  0  0  0  0  0  0  0  0  0  0  0
  -21.4520  -13.4380   22.1320 H   0  0  0  0  0  0  0  0  0  0  0  0
  -25.8120  -15.3910   20.2530 N   0  0  0  0  0  0  0  0  0  0  0  0
  -25.0660  -16.0700   20.3550 H   0  0  0  0  0  0  0  0  0  0  0  0
  -26.6840  -15.8030   19.9430 H   0  0  0  0  0  0  0  0  0  0  0  0
  -28.7700  -22.7920   18.1380 C   0  0  0  0  0  2  0  0  0  0  0  0
  -29.8840  -23.8270   17.8240 C   0  0  0  0  0  2  0  0  0  0  0  0
  -29.8440  -25.0500   18.7640 C   0  0  0  0  0  2  0  0  0  0  0  0
  -28.4360  -25.6260   18.9230 C   0  0  0  0  0  2  0  0  0  0  0  0
  -28.4230  -26.7680   19.7710 O   0  0  0  0  0  0  0  0  0  0  0  0
  -24.6320  -31.7570   23.1510 C   0  0  0  0  0  0  0  0  0  0  0  0
  -27.2230  -27.4430   19.8560 C   0  0  0  0  0  0  0  0  0  0  0  0
  -23.4030  -30.4190   21.4770 C   0  0  0  0  0  3  0  0  0  0  0  0
  -24.8300  -28.9370   19.9840 C   0  0  0  0  0  0  0  0  0  0  0  0
  -25.9280  -30.7810   21.2600 C   0  0  0  0  0  2  0  0  0  0  0  0
  -25.9990  -29.4360   20.5710 C   0  0  0  0  0  0  0  0  0  0  0  0
  -27.1970  -28.6920   20.5110 C   0  0  0  0  0  3  0  0  0  0  0  0
  -26.0200  -26.9440   19.2930 C   0  0  0  0  0  3  0  0  0  0  0  0
  -24.8310  -27.6850   19.3550 C   0  0  0  0  0  3  0  0  0  0  0  0
  -23.5920  -29.7960   20.0720 C   0  0  0  0  0  2  0  0  0  0  0  0
  -24.6750  -30.9950   22.0220 N   0  0  0  0  0  0  0  0  0  0  0  0
  -23.5570  -32.0130   23.7110 O   0  0  0  0  0  0  0  0  0  0  0  0
  -22.7640  -29.3580   22.4010 C   0  0  0  0  0  0  0  0  0  0  0  0
  -21.4420  -29.1660   22.2620 N   0  0  0  0  0  0  0  0  0  0  0  0
  -23.4530  -28.7130   23.1970 O   0  0  0  0  0  0  0  0  0  0  0  0
  -20.9480  -29.7400   21.5940 H   0  0  0  0  0  0  0  0  0  0  0  0
  -18.0770  -27.9260   22.7000 C   0  0  0  0  0  0  0  0  0  0  0  0
  -20.6290  -28.2010   23.0010 C   0  0  0  0  0  3  0  0  0  0  0  0
  -20.7510  -26.7850   22.3920 C   0  0  0  0  0  2  0  0  0  0  0  0
  -19.6610  -26.4770   21.3610 C   0  0  0  0  0  2  0  0  0  0  0  0
  -18.2730  -26.5950   21.9960 C   0  0  0  0  0  2  0  0  0  0  0  0
  -19.1840  -28.6880   23.1580 C   0  0  0  0  0  0  0  0  0  0  0  0
  -18.9500  -29.9370   23.7730 C   0  0  0  0  0  3  0  0  0  0  0  0
  -17.6380  -30.4210   23.9400 C   0  0  0  0  0  3  0  0  0  0  0  0
  -16.5440  -29.6550   23.5010 C   0  0  0  0  0  3  0  0  0  0  0  0
  -16.7650  -28.4100   22.8850 C   0  0  0  0  0  3  0  0  0  0  0  0
  -25.9270  -32.3610   23.7770 C   0  0  0  0  0  3  0  0  0  0  0  0
  -26.4490  -31.5500   25.0250 C   0  0  1  0  0  0  0  0  0  0  0  0
  -25.3620  -31.2890   26.0950 C   0  0  0  0  0  1  0  0  0  0  0  0
  -27.0180  -30.1820   24.5850 C   0  0  0  0  0  1  0  0  0  0  0  0
  -27.6120  -32.3170   25.6960 C   0  0  0  0  0  1  0  0  0  0  0  0
  -25.6310  -33.7520   24.1470 N   0  0  0  0  0  0  0  0  0  0  0  0
  -25.9730  -34.8210   23.4170 C   0  0  0  0  0  0  0  0  0  0  0  0
  -26.6470  -34.7400   22.3860 O   0  0  0  0  0  0  0  0  0  0  0  0
  -25.0360  -33.8890   24.9520 H   0  0  0  0  0  0  0  0  0  0  0  0
  -24.2630  -36.6370   23.1020 C   0  0  0  0  0  1  0  0  0  0  0  0
  -25.4950  -36.2000   23.9100 C   0  0  0  0  0  3  0  0  0  0  0  0
  -27.6310  -37.0360   24.7830 C   0  0  0  0  0  1  0  0  0  0  0  0
  -26.5390  -37.2470   23.8360 N   0  0  0  0  0  0  0  0  0  0  0  0
  -26.1410  -38.1650   24.0140 H   0  0  0  0  0  0  0  0  0  0  0  0
  -27.7700  -20.5680   17.8970 C   0  0  0  0  0  2  0  0  0  0  0  0
  -27.9580  -18.8560   15.9740 C   0  0  0  0  0  1  0  0  0  0  0  0
  -27.1890  -20.0500   16.5670 C   0  0  0  0  0  2  0  0  0  0  0  0
  1 96  1  0
  1 51  1  0
  1  2  1  6
  3  5  1  0
  4  6  1  0
  4  7  1  0
  6  8  1  0
  7  1  1  0
  7  3  1  0
  8  9  1  6
  8 10  1  0
  8  5  1  0
 10 11  1  0
 11 12  1  0
 13 21  1  0
 14 19  1  0
 15 16  1  0
 15 14  1  0
 17 16  1  0
 17 26  1  0
 17 18  1  0
 19 13  1  0
 19 18  1  0
 20 13  2  0
 21 22  1  0
 21 12  1  0
 23 24  2  0
 24 43  1  0
 25 24  1  0
 25 28  1  0
 26 23  1  0
 26 27  1  0
 27 25  2  0
 28 29  1  0
 29 30  2  0
 31 34  1  0
 31 30  1  0
 32 31  2  0
 33 32  1  0
 33 28  2  0
 34 35  1  0
 35 36  1  0
 36 37  2  0
 38 37  1  0
 38 42  1  0
 39 38  2  0
 40 35  2  0
 40 39  1  0
 41 40  1  0
 43 44  1  0
 44 47  1  0
 44 46  1  0
 45 43  2  0
 48 49  1  0
 48 23  1  0
 50 48  1  0
 52 51  1  0
 52 53  1  0
 53 54  1  0
 54 55  1  0
 55 57  1  0
 56 67  2  0
 57 62  1  0
 58 66  1  0
 58 68  1  0
 59 65  1  0
 59 61  1  0
 60 66  1  0
 61 60  1  0
 62 61  2  0
 63 64  1  0
 63 57  2  0
 64 59  2  0
 65 58  1  0
 66 56  1  0
 68 70  2  0
 69 68  1  0
 71 69  1  0
 72 81  2  0
 72 77  1  0
 73 69  1  0
 73 77  1  0
 74 73  1  0
 75 76  1  0
 75 74  1  0
 76 72  1  0
 77 78  2  0
 78 79  1  0
 80 79  2  0
 81 80  1  0
 82 56  1  0
 82 87  1  0
 82 83  1  0
 83 86  1  1
 83 84  1  0
 85 83  1  0
 87 90  1  0
 88 92  1  0
 88 87  1  0
 89 88  2  0
 92 91  1  0
 94 92  1  0
 94 95  1  0
 94 93  1  0
 97 98  1  0
 98 96  1  0
M  ISO  4  13 100  21 100  54 101  55 101
M  END
>  <TORSDO>  (7) 
F 26

>  <SCORE>  (7) 
-10.908

>  <name>  (7) 
6

>  <ligand_id>  (7) 
6

>  <original_smiles>  (7) 
[H]c1c([H])c([H])c2c(c1[H])C([H])([H])C([H])([H])C([H])([H])C2([H])N([H])C(=O)C1([H])N(C(=O)C([H])(N([H])C(=O)C([H])(N([H])C([H])([H])[H])C([H])([H])[H])C(C([H])([H])[H])(C([H])([H])[H])C([H])([H])[H])C([H])([H])c2c([H])c(OC([H])([H])C([H])([H])C([H])([H])C([H])([H])[N+]([H])(C([H])([H])C([H])([H])C([H])([H])[H])C3([H])C([H])([H])C([H])([H])[N+]([H])(C([H])([H])C([H])([H])C([H])([H])N([H])C(=O)N4C([H])([H])C([H])([H])C([H])([H])C([H])(n5nc(-c6c([H])c([H])c(Oc7c([H])c([H])c(F)c([H])c7F)c([H])c6[H])c(C(=O)N([H])[H])c5N([H])[H])C4([H])[H])C([H])([H])C3([H])[H])c([H])c([H])c2C1([H])[H]

>  <smiles>  (7) 
[H]c1c([H])c([H])c2c(c1[H])C([H])([H])C([H])([H])C([H])([H])C2([H])N([H])C(=O)C1([H])N(C(=O)C([H])(N([H])C(=O)C([H])(N([H])C([H])([H])[H])C([H])([H])[H])C(C([H])([H])[H])(C([H])([H])[H])C([H])([H])[H])C([H])([H])c2c([H])c(OC([H])([H])C([H])([H])C([H])([H])C([H])([H])[N+]([H])(C([H])([H])C([H])([H])C([H])([H])[H])C3([H])C([H])([H])C([H])([H])[N+]([H])(C([H])([H])C([H])([H])C([H])([H])N([H])C(=O)N4C([H])([H])C([H])([H])C([H])([H])C([H])(n5nc(-c6c([H])c([H])c(Oc7c([H])c([H])c(F)c([H])c7F)c([H])c6[H])c(C(=O)N([H])[H])c5N([H])[H])C4([H])[H])C([H])([H])C3([H])[H])c([H])c([H])c2C1([H])[H]

$$$$
7:0:0
     RDKit          3D

102111  0  0  1  0  0  0  0  0999 V2000
  -31.8330  -20.2710   17.6280 C   0  0  0  0  0  2  0  0  0  0  0  0
  -31.6360  -22.7780   17.3270 C   0  0  0  0  0  2  0  0  0  0  0  0
  -29.6680  -21.4730   18.2600 C   0  0  0  0  0  2  0  0  0  0  0  0
  -30.6960  -23.9850   17.1660 C   0  0  0  0  0  2  0  0  0  0  0  0
  -28.8130  -22.7380   18.0960 C   0  0  0  0  0  2  0  0  0  0  0  0
  -30.8750  -21.4330   17.2930 C   0  0  0  0  0  3  0  0  0  0  0  0
  -29.6600  -23.9460   18.2260 N   0  0  2  0  0  4  0  0  0  0  0  0
  -30.1800  -23.8400   19.0860 H   0  0  0  0  0  0  0  0  0  0  0  0
  -28.8930  -25.2040   18.3920 C   0  0  0  0  0  2  0  0  0  0  0  0
  -28.4990  -25.4000   19.8670 C   0  0  0  0  0  2  0  0  0  0  0  0
  -28.4290  -26.7850   20.1840 O   0  0  0  0  0  0  0  0  0  0  0  0
  -24.5780  -31.8620   23.2510 C   0  0  0  0  0  0  0  0  0  0  0  0
  -27.2200  -27.4380   20.1620 C   0  0  0  0  0  0  0  0  0  0  0  0
  -23.3670  -30.4600   21.6110 C   0  0  0  0  0  3  0  0  0  0  0  0
  -24.8150  -28.9200   20.1860 C   0  0  0  0  0  0  0  0  0  0  0  0
  -25.8900  -30.8190   21.4110 C   0  0  0  0  0  2  0  0  0  0  0  0
  -25.9700  -29.4500   20.7710 C   0  0  0  0  0  0  0  0  0  0  0  0
  -27.1730  -28.7150   20.7550 C   0  0  0  0  0  3  0  0  0  0  0  0
  -26.0450  -26.9110   19.5750 C   0  0  0  0  0  3  0  0  0  0  0  0
  -24.8460  -27.6470   19.5890 C   0  0  0  0  0  3  0  0  0  0  0  0
  -23.5720  -29.7780   20.2320 C   0  0  0  0  0  2  0  0  0  0  0  0
  -24.6290  -31.0620   22.1490 N   0  0  0  0  0  0  0  0  0  0  0  0
  -23.4970  -32.1370   23.7920 O   0  0  0  0  0  0  0  0  0  0  0  0
  -22.7160  -29.4410   22.5710 C   0  0  0  0  0  0  0  0  0  0  0  0
  -21.3910  -29.2620   22.4430 N   0  0  0  0  0  0  0  0  0  0  0  0
  -23.3990  -28.8120   23.3840 O   0  0  0  0  0  0  0  0  0  0  0  0
  -20.9020  -29.8220   21.7590 H   0  0  0  0  0  0  0  0  0  0  0  0
  -18.0160  -28.0820   22.9430 C   0  0  0  0  0  0  0  0  0  0  0  0
  -20.5740  -28.3270   23.2130 C   0  0  0  0  0  3  0  0  0  0  0  0
  -20.6700  -26.8960   22.6360 C   0  0  0  0  0  2  0  0  0  0  0  0
  -19.5660  -26.5800   21.6220 C   0  0  0  0  0  2  0  0  0  0  0  0
  -18.1850  -26.7320   22.2670 C   0  0  0  0  0  2  0  0  0  0  0  0
  -19.1380  -28.8370   23.3740 C   0  0  0  0  0  0  0  0  0  0  0  0
  -18.9260  -30.1020   23.9640 C   0  0  0  0  0  3  0  0  0  0  0  0
  -17.6250  -30.6110   24.1280 C   0  0  0  0  0  3  0  0  0  0  0  0
  -16.5160  -29.8520   23.7140 C   0  0  0  0  0  3  0  0  0  0  0  0
  -16.7120  -28.5890   23.1280 C   0  0  0  0  0  3  0  0  0  0  0  0
  -25.8660  -32.4900   23.8700 C   0  0  0  0  0  3  0  0  0  0  0  0
  -25.5600  -33.8890   24.1960 N   0  0  0  0  0  0  0  0  0  0  0  0
  -25.8980  -34.9380   23.4350 C   0  0  0  0  0  0  0  0  0  0  0  0
  -26.5710  -34.8300   22.4070 O   0  0  0  0  0  0  0  0  0  0  0  0
  -24.9630  -34.0480   24.9950 H   0  0  0  0  0  0  0  0  0  0  0  0
  -24.1750  -36.7330   23.0690 C   0  0  0  0  0  1  0  0  0  0  0  0
  -25.4130  -36.3290   23.8880 C   0  0  0  0  0  3  0  0  0  0  0  0
  -27.5470  -37.2060   24.7230 C   0  0  0  0  0  1  0  0  0  0  0  0
  -26.4490  -37.3790   23.7770 N   0  0  0  0  0  0  0  0  0  0  0  0
  -26.0460  -38.3000   23.9260 H   0  0  0  0  0  0  0  0  0  0  0  0
  -26.3850  -31.7200   25.1460 C   0  0  1  0  0  0  0  0  0  0  0  0
  -25.2940  -31.4840   26.2170 C   0  0  0  0  0  1  0  0  0  0  0  0
  -26.9670  -30.3420   24.7550 C   0  0  0  0  0  1  0  0  0  0  0  0
  -27.5390  -32.5140   25.8050 C   0  0  0  0  0  1  0  0  0  0  0  0
  -31.2130  -18.8690   17.4660 C   0  0  0  0  0  2  0  0  0  0  0  0
  -32.1570  -17.8250   17.8990 N   0  0  0  0  0  4  0  0  0  0  0  0
  -32.9310  -17.7900   17.2530 H   0  0  0  0  0  0  0  0  0  0  0  0
  -32.5240  -18.0920   18.7990 H   0  0  0  0  0  0  0  0  0  0  0  0
  -31.5690  -16.4770   18.0420 C   0  0  0  0  0  2  0  0  0  0  0  0
  -31.1270  -14.1190   20.1460 C   0  0  0  0  0  0  0  0  0  0  0  0
  -30.1650  -11.9910   19.3770 C   0  0  0  0  0  2  0  0  0  0  0  0
  -29.3770  -12.3660   18.1220 C   0  0  0  0  0  2  0  0  0  0  0  0
  -27.9060  -12.4480   18.5470 C   0  0  0  0  0  2  0  0  0  0  0  0
  -27.6590  -13.2940   19.8350 C   0  0  0  0  0  3  0  0  0  0  0  0
  -28.8120  -13.2010   20.9030 C   0  0  0  0  0  2  0  0  0  0  0  0
  -30.1410  -13.1650   20.2170 N   0  0  0  0  0  0  0  0  0  0  0  0
  -31.2210  -15.0520   20.9020 O   0  0  0  0  0  0  0  0  0  0  0  0
  -33.5910  -13.8480   17.2900 C   0  0  0  0  0  2  0  0  0  0  0  0
  -33.8110  -15.2410   17.8170 C   0  0  0  0  0  2  0  0  0  0  0  0
  -32.7820  -13.1450   18.3850 C   0  0  0  0  0  3  0  0  0  0  0  0
  -32.5820  -15.5090   18.6960 C   0  0  0  0  0  3  0  0  0  0  0  0
  -31.9590  -14.1980   19.0410 N   0  0  0  0  0  0  0  0  0  0  0  0
  -25.2390  -13.8860   20.5430 C   0  0  0  0  0  0  0  0  0  0  0  0
  -24.1610  -13.1150   20.8950 C   0  0  0  0  0  0  0  0  0  0  0  0
  -24.6220  -11.7620   20.8800 C   0  0  0  0  0  0  0  0  0  0  0  0
  -26.3030  -13.0140   20.3510 N   0  0  0  0  0  0  0  0  0  0  0  0
  -25.9250  -11.7300   20.6110 N   0  0  0  0  0  0  0  0  0  0  0  0
  -23.8820  -10.5000   21.0600 C   0  0  0  0  0  0  0  0  0  0  0  0
  -24.3000   -9.5250   21.9930 C   0  0  0  0  0  3  0  0  0  0  0  0
  -23.5610   -8.3340   22.1670 C   0  0  0  0  0  3  0  0  0  0  0  0
  -22.3870   -8.1080   21.4100 C   0  0  0  0  0  0  0  0  0  0  0  0
  -21.9870   -9.0700   20.4670 C   0  0  0  0  0  3  0  0  0  0  0  0
  -22.7270  -10.2530   20.2900 C   0  0  0  0  0  3  0  0  0  0  0  0
  -21.6230   -6.9680   21.4950 O   0  0  0  0  0  0  0  0  0  0  0  0
  -21.5770   -6.2150   22.6420 C   0  0  0  0  0  0  0  0  0  0  0  0
  -21.1730   -6.7660   23.8780 C   0  0  0  0  0  3  0  0  0  0  0  0
  -21.0700   -5.9430   25.0160 C   0  0  0  0  0  3  0  0  0  0  0  0
  -21.3600   -4.5680   24.9210 C   0  0  0  0  0  0  0  0  0  0  0  0
  -21.7560   -4.0170   23.6910 C   0  0  0  0  0  3  0  0  0  0  0  0
  -21.8610   -4.8370   22.5540 C   0  0  0  0  0  0  0  0  0  0  0  0
  -22.2220   -4.2950   21.3660 F   0  0  0  0  0  0  0  0  0  0  0  0
  -21.2560   -3.7760   26.0130 F   0  0  0  0  0  0  0  0  0  0  0  0
  -22.7560  -13.5940   21.1370 C   0  0  0  0  0  0  0  0  0  0  0  0
  -22.0120  -12.9010   21.9930 N   0  0  0  0  0  0  0  0  0  0  0  0
  -22.3260  -14.6160   20.6050 O   0  0  0  0  0  0  0  0  0  0  0  0
  -22.3740  -12.0730   22.4450 H   0  0  0  0  0  0  0  0  0  0  0  0
  -21.0700  -13.2010   22.2010 H   0  0  0  0  0  0  0  0  0  0  0  0
  -25.3980  -15.2530   20.3460 N   0  0  0  0  0  0  0  0  0  0  0  0
  -24.6300  -15.9100   20.4350 H   0  0  0  0  0  0  0  0  0  0  0  0
  -26.2680  -15.6950   20.0730 H   0  0  0  0  0  0  0  0  0  0  0  0
  -33.6970  -12.4150   19.4110 C   0  0  0  0  0  2  0  0  0  0  0  0
  -34.4140  -11.2680   18.8260 N   0  0  0  0  0  4  0  0  0  0  0  0
  -33.7740  -10.5740   18.4870 H   0  0  0  0  0  0  0  0  0  0  0  0
  -34.9920  -10.8380   19.5270 H   0  0  0  0  0  0  0  0  0  0  0  0
  -35.0120  -11.5570   18.0720 H   0  0  0  0  0  0  0  0  0  0  0  0
  4  2  1  0
  4  7  1  0
  5  7  1  0
  5  3  1  0
  6  2  1  0
  6  1  1  0
  6  3  1  0
  7  9  1  0
  7  8  1  1
  9 10  1  0
 10 11  1  0
 12 23  2  0
 13 11  1  0
 13 18  1  0
 14 22  1  0
 14 24  1  0
 15 21  1  0
 15 17  1  0
 16 22  1  0
 17 16  1  0
 18 17  2  0
 19 20  1  0
 19 13  2  0
 20 15  2  0
 21 14  1  0
 22 12  1  0
 24 26  2  0
 25 24  1  0
 27 25  1  0
 28 37  2  0
 28 33  1  0
 29 25  1  0
 29 33  1  0
 30 29  1  0
 31 32  1  0
 31 30  1  0
 32 28  1  0
 33 34  2  0
 34 35  1  0
 36 35  2  0
 37 36  1  0
 38 12  1  0
 38 39  1  0
 38 48  1  0
 39 42  1  0
 40 44  1  0
 40 39  1  0
 41 40  2  0
 44 43  1  0
 46 44  1  0
 46 47  1  0
 46 45  1  0
 48 51  1  1
 48 49  1  0
 50 48  1  0
 52  1  1  0
 52 53  1  0
 53 56  1  0
 53 55  1  0
 54 53  1  0
 57 63  1  0
 57 64  2  0
 58 63  1  0
 59 60  1  0
 59 58  1  0
 61 60  1  0
 61 73  1  0
 61 62  1  0
 63 62  1  0
 65 66  1  0
 65 67  1  0
 66 68  1  0
 67 69  1  0
 67 98  1  0
 68 56  1  0
 68 69  1  0
 69 57  1  0
 70 71  2  0
 71 90  1  0
 72 71  1  0
 72 75  1  0
 73 70  1  0
 73 74  1  0
 74 72  2  0
 75 76  1  0
 76 77  2  0
 78 81  1  0
 78 77  1  0
 79 78  2  0
 80 79  1  0
 80 75  2  0
 81 82  1  0
 82 83  1  0
 83 84  2  0
 85 84  1  0
 85 89  1  0
 86 85  2  0
 87 82  2  0
 87 86  1  0
 88 87  1  0
 90 91  1  0
 91 94  1  0
 91 93  1  0
 92 90  2  0
 95 96  1  0
 95 70  1  0
 97 95  1  0
 99 98  1  0
 99101  1  0
100 99  1  0
102 99  1  0
M  ISO  4  10 101  11 101  57 100  69 100
M  END
>  <TORSDO>  (8) 
F 24

>  <SCORE>  (8) 
-12.544

>  <name>  (8) 
7

>  <ligand_id>  (8) 
7

>  <original_smiles>  (8) 
[H]c1c([H])c([H])c2c(c1[H])C([H])([H])C([H])([H])C([H])([H])C2([H])N([H])C(=O)C1([H])N(C(=O)C([H])(N([H])C(=O)C([H])(N([H])C([H])([H])[H])C([H])([H])[H])C(C([H])([H])[H])(C([H])([H])[H])C([H])([H])[H])C([H])([H])c2c([H])c(OC([H])([H])C([H])([H])[N+]3([H])C([H])([H])C([H])([H])C([H])(C([H])([H])C([H])([H])[N+]([H])([H])C([H])([H])C4([H])N(C(=O)N5C([H])([H])C([H])([H])C([H])([H])C([H])(n6nc(-c7c([H])c([H])c(Oc8c([H])c([H])c(F)c([H])c8F)c([H])c7[H])c(C(=O)N([H])[H])c6N([H])[H])C5([H])[H])C([H])(C([H])([H])[N+]([H])([H])[H])C([H])([H])C4([H])[H])C([H])([H])C3([H])[H])c([H])c([H])c2C1([H])[H]

>  <smiles>  (8) 
[H]c1c([H])c([H])c2c(c1[H])C([H])([H])C([H])([H])C([H])([H])C2([H])N([H])C(=O)C1([H])N(C(=O)C([H])(N([H])C(=O)C([H])(N([H])C([H])([H])[H])C([H])([H])[H])C(C([H])([H])[H])(C([H])([H])[H])C([H])([H])[H])C([H])([H])c2c([H])c(OC([H])([H])C([H])([H])[N+]3([H])C([H])([H])C([H])([H])C([H])(C([H])([H])C([H])([H])[N+]([H])([H])C([H])([H])C4([H])N(C(=O)N5C([H])([H])C([H])([H])C([H])([H])C([H])(n6nc(-c7c([H])c([H])c(Oc8c([H])c([H])c(F)c([H])c8F)c([H])c7[H])c(C(=O)N([H])[H])c6N([H])[H])C5([H])[H])C([H])(C([H])([H])[N+]([H])([H])[H])C([H])([H])C4([H])[H])C([H])([H])C3([H])[H])c([H])c([H])c2C1([H])[H]

$$$$
8:0:0
     RDKit          3D

 89 97  0  0  1  0  0  0  0  0999 V2000
  -29.0760  -18.2900   19.3400 C   0  0  0  0  0  2  0  0  0  0  0  0
  -30.1310  -18.3370   21.5780 C   0  0  0  0  0  2  0  0  0  0  0  0
  -29.1280  -19.8990   19.3030 C   0  0  0  0  0  2  0  0  0  0  0  0
  -30.1830  -19.9400   21.4840 C   0  0  0  0  0  2  0  0  0  0  0  0
  -30.1190  -17.5000   20.2400 C   0  0  0  0  0  3  0  0  0  0  0  0
  -29.0880  -20.5470   20.6550 N   0  0  1  0  0  4  0  0  0  0  0  0
  -28.2950  -20.0650   21.0530 H   0  0  0  0  0  0  0  0  0  0  0  0
  -30.6040  -14.8230   20.1570 C   0  0  0  0  0  0  0  0  0  0  0  0
  -30.3780  -12.5360   19.1360 C   0  0  0  0  0  2  0  0  0  0  0  0
  -29.4030  -12.6030   17.9390 C   0  0  0  0  0  2  0  0  0  0  0  0
  -27.9450  -12.4330   18.4060 C   0  0  0  0  0  2  0  0  0  0  0  0
  -27.6090  -13.3110   19.6400 C   0  0  0  0  0  3  0  0  0  0  0  0
  -28.7020  -13.2180   20.7290 C   0  0  0  0  0  2  0  0  0  0  0  0
  -29.9760  -13.5920   20.1000 N   0  0  0  0  0  0  0  0  0  0  0  0
  -31.7840  -14.9090   19.8030 O   0  0  0  0  0  0  0  0  0  0  0  0
  -29.8450  -15.9730   20.4020 N   0  0  0  0  0  0  0  0  0  0  0  0
  -28.8970  -15.7500   20.6710 H   0  0  0  0  0  0  0  0  0  0  0  0
  -25.2460  -13.9040   20.4450 C   0  0  0  0  0  0  0  0  0  0  0  0
  -24.1870  -13.1340   20.8380 C   0  0  0  0  0  0  0  0  0  0  0  0
  -24.6400  -11.7800   20.7780 C   0  0  0  0  0  0  0  0  0  0  0  0
  -26.2780  -13.0220   20.1680 N   0  0  0  0  0  0  0  0  0  0  0  0
  -25.9220  -11.7380   20.4330 N   0  0  0  0  0  0  0  0  0  0  0  0
  -23.9090  -10.5200   20.9690 C   0  0  0  0  0  0  0  0  0  0  0  0
  -24.3360   -9.5500   21.9040 C   0  0  0  0  0  3  0  0  0  0  0  0
  -23.6030   -8.3570   22.0830 C   0  0  0  0  0  3  0  0  0  0  0  0
  -22.4300   -8.1250   21.3290 C   0  0  0  0  0  0  0  0  0  0  0  0
  -22.0200   -9.0840   20.3850 C   0  0  0  0  0  3  0  0  0  0  0  0
  -22.7530  -10.2670   20.2020 C   0  0  0  0  0  3  0  0  0  0  0  0
  -21.6660   -6.9860   21.4220 O   0  0  0  0  0  0  0  0  0  0  0  0
  -21.5850   -6.2660   22.5860 C   0  0  0  0  0  0  0  0  0  0  0  0
  -21.1050   -6.8360   23.7850 C   0  0  0  0  0  3  0  0  0  0  0  0
  -20.9720   -6.0400   24.9410 C   0  0  0  0  0  3  0  0  0  0  0  0
  -21.3140   -4.6740   24.8990 C   0  0  0  0  0  0  0  0  0  0  0  0
  -21.7890   -4.1040   23.7040 C   0  0  0  0  0  3  0  0  0  0  0  0
  -21.9230   -4.8970   22.5520 C   0  0  0  0  0  0  0  0  0  0  0  0
  -22.3610   -4.3380   21.3980 F   0  0  0  0  0  0  0  0  0  0  0  0
  -21.1820   -3.9070   26.0060 F   0  0  0  0  0  0  0  0  0  0  0  0
  -22.8000  -13.6180   21.1490 C   0  0  0  0  0  0  0  0  0  0  0  0
  -22.0870  -12.9200   22.0260 N   0  0  0  0  0  0  0  0  0  0  0  0
  -22.3590  -14.6530   20.6510 O   0  0  0  0  0  0  0  0  0  0  0  0
  -22.4570  -12.0810   22.4500 H   0  0  0  0  0  0  0  0  0  0  0  0
  -21.1580  -13.2270   22.2750 H   0  0  0  0  0  0  0  0  0  0  0  0
  -25.4170  -15.2740   20.2720 N   0  0  0  0  0  0  0  0  0  0  0  0
  -24.6490  -15.9250   20.3870 H   0  0  0  0  0  0  0  0  0  0  0  0
  -26.2270  -15.6920   19.8330 H   0  0  0  0  0  0  0  0  0  0  0  0
  -28.5410  -22.0040   20.9140 C   0  0  0  0  0  2  0  0  0  0  0  0
  -29.0980  -23.4600   20.3830 C   0  0  0  0  0  3  0  0  0  0  0  0
  -28.1880  -24.8090   20.7220 C   0  0  0  0  0  3  0  0  0  0  0  0
  -28.4790  -26.2790   20.3870 O   0  0  0  0  0  0  0  0  0  0  0  0
  -24.6690  -31.8570   23.2410 C   0  0  0  0  0  0  0  0  0  0  0  0
  -27.3990  -27.2140   20.3110 C   0  0  0  0  0  0  0  0  0  0  0  0
  -23.5330  -30.4410   21.5730 C   0  0  0  0  0  3  0  0  0  0  0  0
  -25.0430  -28.8880   20.2010 C   0  0  0  0  0  0  0  0  0  0  0  0
  -26.0820  -30.7540   21.4780 C   0  0  0  0  0  2  0  0  0  0  0  0
  -26.1940  -29.3640   20.8410 C   0  0  0  0  0  0  0  0  0  0  0  0
  -27.3760  -28.5390   20.8850 C   0  0  0  0  0  3  0  0  0  0  0  0
  -26.2310  -26.8330   19.6190 C   0  0  0  0  0  3  0  0  0  0  0  0
  -25.0700  -27.6330   19.5750 C   0  0  0  0  0  3  0  0  0  0  0  0
  -23.8040  -29.7640   20.2060 C   0  0  0  0  0  2  0  0  0  0  0  0
  -24.7790  -31.0370   22.1540 N   0  0  0  0  0  0  0  0  0  0  0  0
  -23.5660  -32.1270   23.7380 O   0  0  0  0  0  0  0  0  0  0  0  0
  -22.8420  -29.4240   22.5160 C   0  0  0  0  0  0  0  0  0  0  0  0
  -21.5150  -29.2590   22.3710 N   0  0  0  0  0  0  0  0  0  0  0  0
  -23.5000  -28.7880   23.3440 O   0  0  0  0  0  0  0  0  0  0  0  0
  -21.0420  -29.8280   21.6830 H   0  0  0  0  0  0  0  0  0  0  0  0
  -18.1150  -28.1040   22.8450 C   0  0  0  0  0  0  0  0  0  0  0  0
  -20.6780  -28.3220   23.1300 C   0  0  0  0  0  3  0  0  0  0  0  0
  -20.7600  -26.8980   22.5330 C   0  0  0  0  0  2  0  0  0  0  0  0
  -19.6570  -26.6070   21.5100 C   0  0  0  0  0  2  0  0  0  0  0  0
  -18.2750  -26.7620   22.1500 C   0  0  0  0  0  2  0  0  0  0  0  0
  -19.2440  -28.8420   23.2900 C   0  0  0  0  0  0  0  0  0  0  0  0
  -19.0390  -30.0980   23.9020 C   0  0  0  0  0  3  0  0  0  0  0  0
  -17.7410  -30.6150   24.0720 C   0  0  0  0  0  3  0  0  0  0  0  0
  -16.6280  -29.8710   23.6420 C   0  0  0  0  0  3  0  0  0  0  0  0
  -16.8170  -28.6180   23.0350 C   0  0  0  0  0  3  0  0  0  0  0  0
  -25.9210  -32.5100   23.9030 C   0  0  0  0  0  3  0  0  0  0  0  0
  -26.4020  -31.7520   25.2020 C   0  0  1  0  0  0  0  0  0  0  0  0
  -25.2740  -31.5080   26.2330 C   0  0  0  0  0  1  0  0  0  0  0  0
  -27.0140  -30.3810   24.8340 C   0  0  0  0  0  1  0  0  0  0  0  0
  -27.5240  -32.5600   25.8940 C   0  0  0  0  0  1  0  0  0  0  0  0
  -25.5840  -33.9060   24.2190 N   0  0  0  0  0  0  0  0  0  0  0  0
  -25.9040  -34.9590   23.4550 C   0  0  0  0  0  0  0  0  0  0  0  0
  -26.5760  -34.8570   22.4250 O   0  0  0  0  0  0  0  0  0  0  0  0
  -24.9790  -34.0580   25.0140 H   0  0  0  0  0  0  0  0  0  0  0  0
  -24.1410  -36.7200   23.0890 C   0  0  0  0  0  1  0  0  0  0  0  0
  -25.3920  -36.3430   23.9000 C   0  0  0  0  0  3  0  0  0  0  0  0
  -27.5100  -37.2790   24.7180 C   0  0  0  0  0  1  0  0  0  0  0  0
  -26.4050  -37.4150   23.7720 N   0  0  0  0  0  0  0  0  0  0  0  0
  -25.9830  -38.3280   23.9130 H   0  0  0  0  0  0  0  0  0  0  0  0
  1  5  1  0
  3  1  1  0
  3  6  1  0
  4  2  1  0
  5 16  1  0
  5  2  1  0
  6 46  1  0
  6  7  1  1
  6  4  1  0
  8 16  1  0
  9 14  1  0
 10 11  1  0
 10  9  1  0
 12 11  1  0
 12 21  1  0
 12 13  1  0
 14  8  1  0
 14 13  1  0
 15  8  2  0
 16 17  1  0
 18 19  2  0
 19 38  1  0
 20 19  1  0
 20 23  1  0
 21 22  1  0
 21 18  1  0
 22 20  2  0
 23 24  1  0
 24 25  2  0
 26 29  1  0
 26 25  1  0
 27 26  2  0
 28 27  1  0
 28 23  2  0
 29 30  1  0
 30 31  1  0
 31 32  2  0
 33 32  1  0
 33 37  1  0
 34 33  2  0
 35 30  2  0
 35 34  1  0
 36 35  1  0
 38 39  1  0
 39 42  1  0
 39 41  1  0
 40 38  2  0
 43 44  1  0
 43 18  1  0
 45 43  1  0
 47 48  2  0
 47 46  1  0
 49 48  1  0
 50 61  2  0
 51 49  1  0
 51 56  1  0
 52 60  1  0
 52 62  1  0
 53 59  1  0
 53 55  1  0
 54 60  1  0
 55 56  2  0
 55 54  1  0
 57 51  2  0
 58 57  1  0
 58 53  2  0
 59 52  1  0
 60 50  1  0
 62 64  2  0
 63 62  1  0
 65 63  1  0
 66 75  2  0
 66 71  1  0
 67 63  1  0
 67 71  1  0
 68 67  1  0
 69 70  1  0
 69 68  1  0
 70 66  1  0
 71 72  2  0
 72 73  1  0
 74 73  2  0
 75 74  1  0
 76 50  1  0
 76 81  1  0
 76 77  1  0
 77 80  1  1
 77 78  1  0
 79 77  1  0
 81 84  1  0
 82 86  1  0
 82 81  1  0
 83 82  2  0
 86 85  1  0
 88 86  1  0
 88 89  1  0
 88 87  1  0
M  ISO  4   8 100  16 100  48 101  49 101
M  END
>  <TORSDO>  (9) 
F 19

>  <SCORE>  (9) 
-13.998

>  <name>  (9) 
8

>  <ligand_id>  (9) 
8

>  <original_smiles>  (9) 
[H]c1c([H])c([H])c2c(c1[H])C([H])([H])C([H])([H])C([H])([H])C2([H])N([H])C(=O)C1([H])N(C(=O)C([H])(N([H])C(=O)C([H])(N([H])C([H])([H])[H])C([H])([H])[H])C(C([H])([H])[H])(C([H])([H])[H])C([H])([H])[H])C([H])([H])c2c([H])c(OC([H])([H])C([H])([H])C([H])([H])[N+]3([H])C([H])([H])C([H])([H])C([H])(N([H])C(=O)N4C([H])([H])C([H])([H])C([H])([H])C([H])(n5nc(-c6c([H])c([H])c(Oc7c([H])c([H])c(F)c([H])c7F)c([H])c6[H])c(C(=O)N([H])[H])c5N([H])[H])C4([H])[H])C([H])([H])C3([H])[H])c([H])c([H])c2C1([H])[H]

>  <smiles>  (9) 
[H]c1c([H])c([H])c2c(c1[H])C([H])([H])C([H])([H])C([H])([H])C2([H])N([H])C(=O)C1([H])N(C(=O)C([H])(N([H])C(=O)C([H])(N([H])C([H])([H])[H])C([H])([H])[H])C(C([H])([H])[H])(C([H])([H])[H])C([H])([H])[H])C([H])([H])c2c([H])c(OC([H])([H])C([H])([H])C([H])([H])[N+]3([H])C([H])([H])C([H])([H])C([H])(N([H])C(=O)N4C([H])([H])C([H])([H])C([H])([H])C([H])(n5nc(-c6c([H])c([H])c(Oc7c([H])c([H])c(F)c([H])c7F)c([H])c6[H])c(C(=O)N([H])[H])c5N([H])[H])C4([H])[H])C([H])([H])C3([H])[H])c([H])c([H])c2C1([H])[H]

$$$$
9:0:0
     RDKit          3D

101110  0  0  1  0  0  0  0  0999 V2000
  -29.0330  -22.2680   18.5980 C   0  0  0  0  0  3  0  0  0  0  0  0
  -28.8490  -23.0810   19.8380 N   0  0  0  0  0  4  0  0  0  0  0  0
  -27.9500  -22.8780   20.2480 H   0  0  0  0  0  0  0  0  0  0  0  0
  -29.5530  -22.7950   20.5030 H   0  0  0  0  0  0  0  0  0  0  0  0
  -29.0020  -24.5570   19.6680 C   0  0  0  0  0  2  0  0  0  0  0  0
  -28.6390  -25.3550   20.9340 C   0  0  0  0  0  2  0  0  0  0  0  0
  -28.7190  -26.7650   20.6850 O   0  0  0  0  0  0  0  0  0  0  0  0
  -24.7130  -31.9730   23.3720 C   0  0  0  0  0  0  0  0  0  0  0  0
  -27.5300  -27.4530   20.5930 C   0  0  0  0  0  0  0  0  0  0  0  0
  -23.5890  -30.4930   21.7390 C   0  0  0  0  0  3  0  0  0  0  0  0
  -25.1160  -28.9140   20.4410 C   0  0  0  0  0  0  0  0  0  0  0  0
  -26.1150  -30.8780   21.6270 C   0  0  0  0  0  2  0  0  0  0  0  0
  -26.2410  -29.4830   21.0510 C   0  0  0  0  0  0  0  0  0  0  0  0
  -27.4510  -28.7610   21.1190 C   0  0  0  0  0  3  0  0  0  0  0  0
  -26.3900  -26.8940   19.9720 C   0  0  0  0  0  3  0  0  0  0  0  0
  -25.1850  -27.6180   19.8970 C   0  0  0  0  0  3  0  0  0  0  0  0
  -23.8620  -29.7570   20.3980 C   0  0  0  0  0  2  0  0  0  0  0  0
  -24.8210  -31.1310   22.3050 N   0  0  0  0  0  0  0  0  0  0  0  0
  -23.6080  -32.2530   23.8560 O   0  0  0  0  0  0  0  0  0  0  0  0
  -22.9090  -29.5050   22.7120 C   0  0  0  0  0  0  0  0  0  0  0  0
  -21.5930  -29.3050   22.5410 N   0  0  0  0  0  0  0  0  0  0  0  0
  -23.5660  -28.9190   23.5780 O   0  0  0  0  0  0  0  0  0  0  0  0
  -21.1270  -29.8290   21.8130 H   0  0  0  0  0  0  0  0  0  0  0  0
  -18.2100  -28.1030   22.9480 C   0  0  0  0  0  0  0  0  0  0  0  0
  -20.7530  -28.3890   23.3130 C   0  0  0  0  0  3  0  0  0  0  0  0
  -20.8880  -26.9390   22.7950 C   0  0  0  0  0  2  0  0  0  0  0  0
  -19.8300  -26.5700   21.7510 C   0  0  0  0  0  2  0  0  0  0  0  0
  -18.4220  -26.7300   22.3320 C   0  0  0  0  0  2  0  0  0  0  0  0
  -19.3060  -28.8880   23.3940 C   0  0  0  0  0  0  0  0  0  0  0  0
  -19.0560  -30.1720   23.9240 C   0  0  0  0  0  3  0  0  0  0  0  0
  -17.7430  -30.6700   24.0170 C   0  0  0  0  0  3  0  0  0  0  0  0
  -16.6620  -29.8820   23.5890 C   0  0  0  0  0  3  0  0  0  0  0  0
  -16.8950  -28.6010   23.0600 C   0  0  0  0  0  3  0  0  0  0  0  0
  -25.9660  -32.6420   24.0190 C   0  0  0  0  0  3  0  0  0  0  0  0
  -25.6270  -34.0430   24.2970 N   0  0  0  0  0  0  0  0  0  0  0  0
  -25.9530  -35.0760   23.5090 C   0  0  0  0  0  0  0  0  0  0  0  0
  -26.6450  -34.9510   22.4940 O   0  0  0  0  0  0  0  0  0  0  0  0
  -25.0150  -34.2120   25.0830 H   0  0  0  0  0  0  0  0  0  0  0  0
  -24.1890  -36.8130   23.0710 C   0  0  0  0  0  1  0  0  0  0  0  0
  -25.4300  -36.4690   23.9090 C   0  0  0  0  0  3  0  0  0  0  0  0
  -27.5350  -37.4330   24.7270 C   0  0  0  0  0  1  0  0  0  0  0  0
  -26.4390  -37.5400   23.7680 N   0  0  0  0  0  0  0  0  0  0  0  0
  -26.0110  -38.4560   23.8750 H   0  0  0  0  0  0  0  0  0  0  0  0
  -26.4530  -31.9140   25.3320 C   0  0  1  0  0  0  0  0  0  0  0  0
  -25.3230  -31.6620   26.3580 C   0  0  0  0  0  1  0  0  0  0  0  0
  -27.0940  -30.5490   24.9920 C   0  0  0  0  0  1  0  0  0  0  0  0
  -27.5490  -32.7580   26.0240 C   0  0  0  0  0  1  0  0  0  0  0  0
  -27.7350  -22.1640   17.7430 C   0  0  0  0  0  2  0  0  0  0  0  0
  -25.9450  -25.9980   16.7500 C   0  0  0  0  0  3  0  0  0  0  0  0
  -25.2150  -25.0510   17.4940 C   0  0  0  0  0  3  0  0  0  0  0  0
  -27.2490  -25.6930   16.3110 C   0  0  0  0  0  3  0  0  0  0  0  0
  -25.7880  -23.8020   17.8060 C   0  0  0  0  0  3  0  0  0  0  0  0
  -27.8230  -24.4460   16.6220 C   0  0  0  0  0  3  0  0  0  0  0  0
  -27.1010  -23.4990   17.3820 C   0  0  0  0  0  0  0  0  0  0  0  0
  -29.7210  -20.8750   18.8570 C   0  0  0  0  0  3  0  0  0  0  0  0
  -31.3460  -21.1780   16.8090 C   0  0  0  0  0  1  0  0  0  0  0  0
  -30.3330  -20.2840   17.5470 C   0  0  0  0  0  2  0  0  0  0  0  0
  -28.8090  -19.8440   19.6150 C   0  0  0  0  0  2  0  0  0  0  0  0
  -30.8070  -14.5680   20.3650 C   0  0  0  0  0  0  0  0  0  0  0  0
  -30.4960  -12.3780   19.3070 C   0  0  0  0  0  2  0  0  0  0  0  0
  -29.5440  -12.5330   18.1030 C   0  0  0  0  0  2  0  0  0  0  0  0
  -28.0700  -12.4430   18.5480 C   0  0  0  0  0  2  0  0  0  0  0  0
  -27.7390  -13.3020   19.8000 C   0  0  0  0  0  3  0  0  0  0  0  0
  -28.8120  -13.1350   20.9000 C   0  0  0  0  0  2  0  0  0  0  0  0
  -30.1240  -13.3990   20.2940 N   0  0  0  0  0  0  0  0  0  0  0  0
  -32.0010  -14.6740   20.0740 O   0  0  0  0  0  0  0  0  0  0  0  0
  -29.9130  -16.2540   18.9730 C   0  0  0  0  0  2  0  0  0  0  0  0
  -30.2130  -16.6840   21.3980 C   0  0  0  0  0  2  0  0  0  0  0  0
  -29.0070  -17.4840   18.8910 C   0  0  0  0  0  2  0  0  0  0  0  0
  -29.3740  -17.9820   21.2300 C   0  0  0  0  0  2  0  0  0  0  0  0
  -30.0320  -15.6790   20.3280 N   0  0  0  0  0  0  0  0  0  0  0  0
  -29.4590  -18.5170   19.8470 N   0  0  2  0  0  4  0  0  0  0  0  0
  -30.4430  -18.6650   19.6780 H   0  0  0  0  0  0  0  0  0  0  0  0
  -25.3560  -13.9030   20.5600 C   0  0  0  0  0  0  0  0  0  0  0  0
  -24.2910  -13.1280   20.9310 C   0  0  0  0  0  0  0  0  0  0  0  0
  -24.7510  -11.7770   20.8780 C   0  0  0  0  0  0  0  0  0  0  0  0
  -26.3960  -13.0240   20.3020 N   0  0  0  0  0  0  0  0  0  0  0  0
  -26.0370  -11.7390   20.5530 N   0  0  0  0  0  0  0  0  0  0  0  0
  -24.0260  -10.5120   21.0580 C   0  0  0  0  0  0  0  0  0  0  0  0
  -24.4570   -9.5400   21.9880 C   0  0  0  0  0  3  0  0  0  0  0  0
  -23.7340   -8.3400   22.1570 C   0  0  0  0  0  3  0  0  0  0  0  0
  -22.5660   -8.1030   21.3960 C   0  0  0  0  0  0  0  0  0  0  0  0
  -22.1520   -9.0630   20.4560 C   0  0  0  0  0  3  0  0  0  0  0  0
  -22.8770  -10.2550   20.2850 C   0  0  0  0  0  3  0  0  0  0  0  0
  -21.8120   -6.9570   21.4750 O   0  0  0  0  0  0  0  0  0  0  0  0
  -21.7480   -6.2150   22.6280 C   0  0  0  0  0  0  0  0  0  0  0  0
  -21.2950   -6.7670   23.8450 C   0  0  0  0  0  3  0  0  0  0  0  0
  -21.1800   -5.9520   24.9880 C   0  0  0  0  0  3  0  0  0  0  0  0
  -21.5070   -4.5850   24.9150 C   0  0  0  0  0  0  0  0  0  0  0  0
  -21.9520   -4.0320   23.7020 C   0  0  0  0  0  3  0  0  0  0  0  0
  -22.0710   -4.8450   22.5610 C   0  0  0  0  0  0  0  0  0  0  0  0
  -22.4810   -4.3020   21.3890 F   0  0  0  0  0  0  0  0  0  0  0  0
  -21.3900   -3.8010   26.0120 F   0  0  0  0  0  0  0  0  0  0  0  0
  -22.8980  -13.6030   21.2260 C   0  0  0  0  0  0  0  0  0  0  0  0
  -22.1790  -12.8940   22.0890 N   0  0  0  0  0  0  0  0  0  0  0  0
  -22.4560  -14.6360   20.7270 O   0  0  0  0  0  0  0  0  0  0  0  0
  -22.5520  -12.0580   22.5140 H   0  0  0  0  0  0  0  0  0  0  0  0
  -21.2450  -13.1930   22.3300 H   0  0  0  0  0  0  0  0  0  0  0  0
  -25.5260  -15.2760   20.4020 N   0  0  0  0  0  0  0  0  0  0  0  0
  -24.7640  -15.9350   20.5320 H   0  0  0  0  0  0  0  0  0  0  0  0
  -26.3770  -15.7120   20.0800 H   0  0  0  0  0  0  0  0  0  0  0  0
  1 48  1  0
  1 55  1  0
  1  2  1  0
  2  3  1  0
  2  4  1  0
  5  2  1  0
  5  6  1  0
  7  6  1  0
  8 19  2  0
  9  7  1  0
  9 14  1  0
 10 18  1  0
 10 20  1  0
 11 13  1  0
 12 18  1  0
 13 14  2  0
 13 12  1  0
 15  9  2  0
 16 15  1  0
 16 11  2  0
 17 11  1  0
 17 10  1  0
 18  8  1  0
 20 22  2  0
 21 20  1  0
 23 21  1  0
 24 33  2  0
 24 29  1  0
 25 21  1  0
 25 29  1  0
 26 25  1  0
 27 28  1  0
 27 26  1  0
 28 24  1  0
 29 30  2  0
 30 31  1  0
 32 31  2  0
 33 32  1  0
 34  8  1  0
 34 35  1  0
 34 44  1  0
 35 38  1  0
 36 40  1  0
 36 35  1  0
 37 36  2  0
 40 39  1  0
 42 43  1  0
 42 40  1  0
 42 41  1  0
 44 47  1  1
 44 45  1  0
 46 44  1  0
 49 50  1  0
 50 52  2  0
 51 53  1  0
 51 49  2  0
 53 54  2  0
 54 48  1  0
 54 52  1  0
 55 57  1  0
 55 58  1  0
 56 57  1  0
 58 72  1  0
 60 65  1  0
 61 62  1  0
 61 60  1  0
 63 62  1  0
 63 77  1  0
 63 64  1  0
 65 59  1  0
 65 64  1  0
 66 59  2  0
 67 71  1  0
 69 67  1  0
 69 72  1  0
 70 68  1  0
 71 59  1  0
 71 68  1  0
 72 70  1  0
 72 73  1  6
 74 75  2  0
 75 94  1  0
 76 75  1  0
 76 79  1  0
 77 78  1  0
 77 74  1  0
 78 76  2  0
 79 80  1  0
 80 81  2  0
 82 85  1  0
 82 81  1  0
 83 82  2  0
 84 83  1  0
 84 79  2  0
 85 86  1  0
 86 87  1  0
 87 88  2  0
 89 88  1  0
 89 93  1  0
 90 89  2  0
 91 86  2  0
 91 90  1  0
 92 91  1  0
 94 95  1  0
 95 98  1  0
 95 97  1  0
 96 94  2  0
 99100  1  0
 99 74  1  0
101 99  1  0
M  ISO  4   6 101   7 101  59 100  71 100
M  END
>  <TORSDO>  (10) 
F 24

>  <SCORE>  (10) 
-12.069

>  <name>  (10) 
9

>  <ligand_id>  (10) 
9

>  <original_smiles>  (10) 
[H]c1c([H])c([H])c(C([H])([H])C([H])(C([H])(C([H])([H])C([H])([H])[H])C([H])([H])[N+]2([H])C([H])([H])C([H])([H])N(C(=O)N3C([H])([H])C([H])([H])C([H])([H])C([H])(n4nc(-c5c([H])c([H])c(Oc6c([H])c([H])c(F)c([H])c6F)c([H])c5[H])c(C(=O)N([H])[H])c4N([H])[H])C3([H])[H])C([H])([H])C2([H])[H])[N+]([H])([H])C([H])([H])C([H])([H])Oc2c([H])c([H])c3c(c2[H])C([H])([H])N(C(=O)C([H])(N([H])C(=O)C([H])(N([H])C([H])([H])[H])C([H])([H])[H])C(C([H])([H])[H])(C([H])([H])[H])C([H])([H])[H])C([H])(C(=O)N([H])C2([H])c4c([H])c([H])c([H])c([H])c4C([H])([H])C([H])([H])C2([H])[H])C3([H])[H])c([H])c1[H]

>  <smiles>  (10) 
[H]c1c([H])c([H])c(C([H])([H])C([H])(C([H])(C([H])([H])C([H])([H])[H])C([H])([H])[N+]2([H])C([H])([H])C([H])([H])N(C(=O)N3C([H])([H])C([H])([H])C([H])([H])C([H])(n4nc(-c5c([H])c([H])c(Oc6c([H])c([H])c(F)c([H])c6F)c([H])c5[H])c(C(=O)N([H])[H])c4N([H])[H])C3([H])[H])C([H])([H])C2([H])[H])[N+]([H])([H])C([H])([H])C([H])([H])Oc2c([H])c([H])c3c(c2[H])C([H])([H])N(C(=O)C([H])(N([H])C(=O)C([H])(N([H])C([H])([H])[H])C([H])([H])[H])C(C([H])([H])[H])(C([H])([H])[H])C([H])([H])[H])C([H])(C(=O)N([H])C2([H])c4c([H])c([H])c([H])c([H])c4C([H])([H])C([H])([H])C2([H])[H])C3([H])[H])c([H])c1[H]

$$$$
10:0:0
     RDKit          3D

100108  0  0  1  0  0  0  0  0999 V2000
  -28.8270  -20.5900   19.5160 C   0  0  0  0  0  2  0  0  0  0  0  0
  -31.0580  -21.2090   20.3440 C   0  0  0  0  0  2  0  0  0  0  0  0
  -28.6370  -22.0170   18.9150 C   0  0  0  0  0  2  0  0  0  0  0  0
  -30.9630  -22.6030   19.6830 C   0  0  0  0  0  2  0  0  0  0  0  0
  -30.3100  -20.1700   19.4780 C   0  0  0  0  0  3  0  0  0  0  0  0
  -29.5630  -23.0730   19.4450 N   0  0  2  0  0  4  0  0  0  0  0  0
  -29.6730  -23.7120   18.6670 H   0  0  0  0  0  0  0  0  0  0  0  0
  -30.6310  -18.7170   19.7610 N   0  0  1  0  0  4  0  0  0  0  0  0
  -30.0960  -18.1940   19.0840 H   0  0  0  0  0  0  0  0  0  0  0  0
  -32.0510  -18.4170   19.4020 C   0  0  0  0  0  2  0  0  0  0  0  0
  -32.1670  -17.4160   18.2390 C   0  0  0  0  0  2  0  0  0  0  0  0
  -33.6310  -17.0220   17.9680 C   0  0  0  0  0  2  0  0  0  0  0  0
  -33.7860  -15.9810   16.8440 C   0  0  0  0  0  2  0  0  0  0  0  0
  -35.1960  -15.6180   16.6150 N   0  0  0  0  0  4  0  0  0  0  0  0
  -35.7330  -16.4150   16.3250 H   0  0  0  0  0  0  0  0  0  0  0  0
  -35.2570  -14.9240   15.8900 H   0  0  0  0  0  0  0  0  0  0  0  0
  -35.6090  -15.2340   17.4450 H   0  0  0  0  0  0  0  0  0  0  0  0
  -30.1620  -18.1770   21.0870 C   0  0  0  0  0  2  0  0  0  0  0  0
  -30.6880  -16.7710   21.5700 C   0  0  0  0  0  2  0  0  0  0  0  0
  -30.7110  -14.4950   20.5040 C   0  0  0  0  0  0  0  0  0  0  0  0
  -30.3850  -12.3470   19.3300 C   0  0  0  0  0  2  0  0  0  0  0  0
  -29.4480  -12.5420   18.1220 C   0  0  0  0  0  2  0  0  0  0  0  0
  -27.9740  -12.4050   18.5490 C   0  0  0  0  0  2  0  0  0  0  0  0
  -27.6310  -13.2460   19.8090 C   0  0  0  0  0  3  0  0  0  0  0  0
  -28.6850  -13.0430   20.9200 C   0  0  0  0  0  2  0  0  0  0  0  0
  -30.0060  -13.3410   20.3470 N   0  0  0  0  0  0  0  0  0  0  0  0
  -31.8590  -14.6300   20.0810 O   0  0  0  0  0  0  0  0  0  0  0  0
  -30.0500  -15.5440   21.0390 N   0  0  0  0  0  0  0  0  0  0  0  0
  -29.0890  -15.3750   21.2990 H   0  0  0  0  0  0  0  0  0  0  0  0
  -25.2310  -13.8520   20.5030 C   0  0  0  0  0  0  0  0  0  0  0  0
  -24.1610  -13.0810   20.8700 C   0  0  0  0  0  0  0  0  0  0  0  0
  -24.6240  -11.7300   20.8520 C   0  0  0  0  0  0  0  0  0  0  0  0
  -26.2780  -12.9710   20.2850 N   0  0  0  0  0  0  0  0  0  0  0  0
  -25.9160  -11.6910   20.5530 N   0  0  0  0  0  0  0  0  0  0  0  0
  -23.8970  -10.4680   21.0430 C   0  0  0  0  0  0  0  0  0  0  0  0
  -24.3280   -9.5010   21.9780 C   0  0  0  0  0  3  0  0  0  0  0  0
  -23.6010   -8.3050   22.1590 C   0  0  0  0  0  3  0  0  0  0  0  0
  -22.4290   -8.0660   21.4030 C   0  0  0  0  0  0  0  0  0  0  0  0
  -22.0150   -9.0220   20.4590 C   0  0  0  0  0  3  0  0  0  0  0  0
  -22.7420  -10.2100   20.2770 C   0  0  0  0  0  3  0  0  0  0  0  0
  -21.6730   -6.9210   21.4930 O   0  0  0  0  0  0  0  0  0  0  0  0
  -21.6330   -6.1740   22.6420 C   0  0  0  0  0  0  0  0  0  0  0  0
  -21.2230   -6.7270   23.8760 C   0  0  0  0  0  3  0  0  0  0  0  0
  -21.1290   -5.9060   25.0170 C   0  0  0  0  0  3  0  0  0  0  0  0
  -21.4330   -4.5340   24.9270 C   0  0  0  0  0  0  0  0  0  0  0  0
  -21.8340   -3.9820   23.6980 C   0  0  0  0  0  3  0  0  0  0  0  0
  -21.9300   -4.7990   22.5590 C   0  0  0  0  0  0  0  0  0  0  0  0
  -22.2970   -4.2570   21.3720 F   0  0  0  0  0  0  0  0  0  0  0  0
  -21.3350   -3.7440   26.0220 F   0  0  0  0  0  0  0  0  0  0  0  0
  -22.7620  -13.5600   21.1270 C   0  0  0  0  0  0  0  0  0  0  0  0
  -22.0270  -12.8690   21.9910 N   0  0  0  0  0  0  0  0  0  0  0  0
  -22.3290  -14.5820   20.5950 O   0  0  0  0  0  0  0  0  0  0  0  0
  -22.3900  -12.0430   22.4420 H   0  0  0  0  0  0  0  0  0  0  0  0
  -21.0880  -13.1720   22.2050 H   0  0  0  0  0  0  0  0  0  0  0  0
  -25.3960  -15.2210   20.3170 N   0  0  0  0  0  0  0  0  0  0  0  0
  -24.6240  -15.8730   20.4080 H   0  0  0  0  0  0  0  0  0  0  0  0
  -26.2440  -15.6570   19.9760 H   0  0  0  0  0  0  0  0  0  0  0  0
  -29.0060  -23.9730   20.5060 C   0  0  0  0  0  2  0  0  0  0  0  0
  -28.2160  -25.2050   19.9360 C   0  0  0  0  0  2  0  0  0  0  0  0
  -28.3520  -26.6260   20.2020 O   0  0  0  0  0  0  0  0  0  0  0  0
  -24.5790  -31.8760   23.2300 C   0  0  0  0  0  0  0  0  0  0  0  0
  -27.1980  -27.4000   20.1490 C   0  0  0  0  0  0  0  0  0  0  0  0
  -23.3690  -30.4780   21.5900 C   0  0  0  0  0  3  0  0  0  0  0  0
  -24.8170  -28.9400   20.1600 C   0  0  0  0  0  0  0  0  0  0  0  0
  -25.9000  -30.8210   21.3950 C   0  0  0  0  0  2  0  0  0  0  0  0
  -25.9800  -29.4500   20.7490 C   0  0  0  0  0  0  0  0  0  0  0  0
  -27.1750  -28.6900   20.7360 C   0  0  0  0  0  3  0  0  0  0  0  0
  -26.0140  -26.9140   19.5470 C   0  0  0  0  0  3  0  0  0  0  0  0
  -24.8310  -27.6740   19.5540 C   0  0  0  0  0  3  0  0  0  0  0  0
  -23.5770  -29.8040   20.2090 C   0  0  0  0  0  2  0  0  0  0  0  0
  -24.6350  -31.0730   22.1290 N   0  0  0  0  0  0  0  0  0  0  0  0
  -23.4970  -32.1520   23.7670 O   0  0  0  0  0  0  0  0  0  0  0  0
  -22.7150  -29.4570   22.5480 C   0  0  0  0  0  0  0  0  0  0  0  0
  -21.3890  -29.2820   22.4240 N   0  0  0  0  0  0  0  0  0  0  0  0
  -23.3970  -28.8260   23.3620 O   0  0  0  0  0  0  0  0  0  0  0  0
  -20.9010  -29.8480   21.7420 H   0  0  0  0  0  0  0  0  0  0  0  0
  -18.0070  -28.1080   22.9290 C   0  0  0  0  0  0  0  0  0  0  0  0
  -20.5680  -28.3480   23.1940 C   0  0  0  0  0  3  0  0  0  0  0  0
  -20.6580  -26.9180   22.6140 C   0  0  0  0  0  2  0  0  0  0  0  0
  -19.5510  -26.6050   21.6020 C   0  0  0  0  0  2  0  0  0  0  0  0
  -18.1720  -26.7590   22.2500 C   0  0  0  0  0  2  0  0  0  0  0  0
  -19.1320  -28.8610   23.3580 C   0  0  0  0  0  0  0  0  0  0  0  0
  -18.9250  -30.1250   23.9530 C   0  0  0  0  0  3  0  0  0  0  0  0
  -17.6250  -30.6360   24.1230 C   0  0  0  0  0  3  0  0  0  0  0  0
  -16.5130  -29.8800   23.7100 C   0  0  0  0  0  3  0  0  0  0  0  0
  -16.7060  -28.6180   23.1200 C   0  0  0  0  0  3  0  0  0  0  0  0
  -25.8650  -32.5040   23.8510 C   0  0  0  0  0  3  0  0  0  0  0  0
  -26.3830  -31.7290   25.1230 C   0  0  1  0  0  0  0  0  0  0  0  0
  -25.2920  -31.4890   26.1940 C   0  0  0  0  0  1  0  0  0  0  0  0
  -26.9640  -30.3510   24.7250 C   0  0  0  0  0  1  0  0  0  0  0  0
  -27.5370  -32.5200   25.7840 C   0  0  0  0  0  1  0  0  0  0  0  0
  -25.5580  -33.9020   24.1820 N   0  0  0  0  0  0  0  0  0  0  0  0
  -25.8930  -34.9550   23.4230 C   0  0  0  0  0  0  0  0  0  0  0  0
  -26.5630  -34.8500   22.3920 O   0  0  0  0  0  0  0  0  0  0  0  0
  -24.9630  -34.0570   24.9830 H   0  0  0  0  0  0  0  0  0  0  0  0
  -24.1670  -36.7500   23.0690 C   0  0  0  0  0  1  0  0  0  0  0  0
  -25.4070  -36.3440   23.8810 C   0  0  0  0  0  3  0  0  0  0  0  0
  -27.5430  -37.2230   24.7140 C   0  0  0  0  0  1  0  0  0  0  0  0
  -26.4420  -37.3950   23.7700 N   0  0  0  0  0  0  0  0  0  0  0  0
  -26.0380  -38.3160   23.9180 H   0  0  0  0  0  0  0  0  0  0  0  0
  3  6  1  0
  3  1  1  0
  4  2  1  0
  5  1  1  0
  5  8  1  0
  5  2  1  0
  6  4  1  0
  6 58  1  0
  6  7  1  6
  8 18  1  0
  8  9  1  6
 10  8  1  0
 11 10  1  0
 12 11  1  0
 13 12  1  0
 14 13  1  0
 14 17  1  0
 15 14  1  0
 16 14  1  0
 18 19  1  0
 20 28  1  0
 21 26  1  0
 22 23  1  0
 22 21  1  0
 24 23  1  0
 24 33  1  0
 24 25  1  0
 26 20  1  0
 26 25  1  0
 27 20  2  0
 28 29  1  0
 28 19  1  0
 30 31  2  0
 31 50  1  0
 32 31  1  0
 32 35  1  0
 33 30  1  0
 33 34  1  0
 34 32  2  0
 35 36  1  0
 36 37  2  0
 38 41  1  0
 38 37  1  0
 39 38  2  0
 40 39  1  0
 40 35  2  0
 41 42  1  0
 42 43  1  0
 43 44  2  0
 45 44  1  0
 45 49  1  0
 46 45  2  0
 47 42  2  0
 47 46  1  0
 48 47  1  0
 50 51  1  0
 51 54  1  0
 51 53  1  0
 52 50  2  0
 55 56  1  0
 55 30  1  0
 57 55  1  0
 59 60  1  0
 59 58  1  0
 61 72  2  0
 62 60  1  0
 62 67  1  0
 63 71  1  0
 63 73  1  0
 64 70  1  0
 64 66  1  0
 65 71  1  0
 66 65  1  0
 67 66  2  0
 68 69  1  0
 68 62  2  0
 69 64  2  0
 70 63  1  0
 71 61  1  0
 73 75  2  0
 74 73  1  0
 76 74  1  0
 77 86  2  0
 77 82  1  0
 78 74  1  0
 78 82  1  0
 79 78  1  0
 80 81  1  0
 80 79  1  0
 81 77  1  0
 82 83  2  0
 83 84  1  0
 85 84  2  0
 86 85  1  0
 87 61  1  0
 87 92  1  0
 87 88  1  0
 88 91  1  1
 88 89  1  0
 90 88  1  0
 92 95  1  0
 93 97  1  0
 93 92  1  0
 94 93  2  0
 97 96  1  0
 99 97  1  0
 99100  1  0
 99 98  1  0
M  ISO  4  20 100  28 100  59 101  60 101
M  END
>  <TORSDO>  (11) 
F 26

>  <SCORE>  (11) 
-12.237

>  <name>  (11) 
10

>  <ligand_id>  (11) 
10

>  <original_smiles>  (11) 
[H]c1c([H])c([H])c2c(c1[H])C([H])([H])C([H])([H])C([H])([H])C2([H])N([H])C(=O)C1([H])N(C(=O)C([H])(N([H])C(=O)C([H])(N([H])C([H])([H])[H])C([H])([H])[H])C(C([H])([H])[H])(C([H])([H])[H])C([H])([H])[H])C([H])([H])c2c([H])c(OC([H])([H])C([H])([H])[N+]3([H])C([H])([H])C([H])([H])C([H])([N+]([H])(C([H])([H])C([H])([H])N([H])C(=O)N4C([H])([H])C([H])([H])C([H])([H])C([H])(n5nc(-c6c([H])c([H])c(Oc7c([H])c([H])c(F)c([H])c7F)c([H])c6[H])c(C(=O)N([H])[H])c5N([H])[H])C4([H])[H])C([H])([H])C([H])([H])C([H])([H])C([H])([H])[N+]([H])([H])[H])C([H])([H])C3([H])[H])c([H])c([H])c2C1([H])[H]

>  <smiles>  (11) 
[H]c1c([H])c([H])c2c(c1[H])C([H])([H])C([H])([H])C([H])([H])C2([H])N([H])C(=O)C1([H])N(C(=O)C([H])(N([H])C(=O)C([H])(N([H])C([H])([H])[H])C([H])([H])[H])C(C([H])([H])[H])(C([H])([H])[H])C([H])([H])[H])C([H])([H])c2c([H])c(OC([H])([H])C([H])([H])[N+]3([H])C([H])([H])C([H])([H])C([H])([N+]([H])(C([H])([H])C([H])([H])N([H])C(=O)N4C([H])([H])C([H])([H])C([H])([H])C([H])(n5nc(-c6c([H])c([H])c(Oc7c([H])c([H])c(F)c([H])c7F)c([H])c6[H])c(C(=O)N([H])[H])c5N([H])[H])C4([H])[H])C([H])([H])C([H])([H])C([H])([H])C([H])([H])[N+]([H])([H])[H])C([H])([H])C3([H])[H])c([H])c([H])c2C1([H])[H]

$$$$
11:0:0
     RDKit          3D

 97106  0  0  1  0  0  0  0  0999 V2000
  -28.8930  -21.5550   19.6780 C   0  0  0  0  0  2  0  0  0  0  0  0
  -27.4300  -22.6180   17.9700 C   0  0  0  0  0  2  0  0  0  0  0  0
  -29.8190  -22.7860   19.6290 C   0  0  0  0  0  2  0  0  0  0  0  0
  -28.3760  -23.8320   17.9250 C   0  0  0  0  0  2  0  0  0  0  0  0
  -28.1870  -21.3260   18.3280 C   0  0  0  0  0  3  0  0  0  0  0  0
  -29.1050  -24.0230   19.2110 N   0  0  2  0  0  4  0  0  0  0  0  0
  -28.4170  -24.2130   19.9280 H   0  0  0  0  0  0  0  0  0  0  0  0
  -27.2420  -20.1010   18.3160 C   0  0  0  0  0  2  0  0  0  0  0  0
  -27.9710  -18.8160   18.2460 N   0  0  0  0  0  4  0  0  0  0  0  0
  -28.8690  -18.9720   17.8200 H   0  0  0  0  0  0  0  0  0  0  0  0
  -27.4500  -18.2180   17.6230 H   0  0  0  0  0  0  0  0  0  0  0  0
  -28.1280  -18.1120   19.5380 C   0  0  0  0  0  2  0  0  0  0  0  0
  -29.1360  -16.9450   19.4430 C   0  0  0  0  0  2  0  0  0  0  0  0
  -30.7310  -14.4120   19.6960 C   0  0  0  0  0  0  0  0  0  0  0  0
  -30.2190  -12.3310   18.4660 C   0  0  0  0  0  2  0  0  0  0  0  0
  -29.1360  -12.5490   17.3950 C   0  0  0  0  0  2  0  0  0  0  0  0
  -27.7280  -12.4040   18.0000 C   0  0  0  0  0  2  0  0  0  0  0  0
  -27.5520  -13.2280   19.3010 C   0  0  0  0  0  3  0  0  0  0  0  0
  -28.7270  -12.9790   20.2710 C   0  0  0  0  0  2  0  0  0  0  0  0
  -29.9830  -13.2820   19.5620 N   0  0  0  0  0  0  0  0  0  0  0  0
  -31.6960  -14.6700   18.9680 O   0  0  0  0  0  0  0  0  0  0  0  0
  -30.8590  -16.4490   22.7470 C   0  0  0  0  0  2  0  0  0  0  0  0
  -29.9130  -17.2520   21.8720 C   0  0  0  0  0  2  0  0  0  0  0  0
  -31.4710  -15.4470   21.7770 C   0  0  0  0  0  2  0  0  0  0  0  0
  -29.4230  -16.2580   20.8060 C   0  0  0  0  0  3  0  0  0  0  0  0
  -30.4450  -15.1840   20.7680 N   0  0  0  0  0  0  0  0  0  0  0  0
  -25.2620  -13.8500   20.3000 C   0  0  0  0  0  0  0  0  0  0  0  0
  -24.2370  -13.0830   20.7800 C   0  0  0  0  0  0  0  0  0  0  0  0
  -24.6740  -11.7280   20.6710 C   0  0  0  0  0  0  0  0  0  0  0  0
  -26.2630  -12.9620   19.9320 N   0  0  0  0  0  0  0  0  0  0  0  0
  -25.9180  -11.6800   20.2110 N   0  0  0  0  0  0  0  0  0  0  0  0
  -23.9610  -10.4700   20.9250 C   0  0  0  0  0  0  0  0  0  0  0  0
  -24.4350   -9.5320   21.8690 C   0  0  0  0  0  3  0  0  0  0  0  0
  -23.7260   -8.3350   22.1070 C   0  0  0  0  0  3  0  0  0  0  0  0
  -22.5270   -8.0700   21.4040 C   0  0  0  0  0  0  0  0  0  0  0  0
  -22.0700   -8.9970   20.4500 C   0  0  0  0  0  3  0  0  0  0  0  0
  -22.7810  -10.1850   20.2090 C   0  0  0  0  0  3  0  0  0  0  0  0
  -21.7830   -6.9250   21.5540 O   0  0  0  0  0  0  0  0  0  0  0  0
  -21.7290   -6.2540   22.7500 C   0  0  0  0  0  0  0  0  0  0  0  0
  -21.2710   -6.8730   23.9340 C   0  0  0  0  0  3  0  0  0  0  0  0
  -21.1660   -6.1260   25.1240 C   0  0  0  0  0  3  0  0  0  0  0  0
  -21.5090   -4.7610   25.1300 C   0  0  0  0  0  0  0  0  0  0  0  0
  -21.9590   -4.1410   23.9510 C   0  0  0  0  0  3  0  0  0  0  0  0
  -22.0670   -4.8860   22.7640 C   0  0  0  0  0  0  0  0  0  0  0  0
  -22.4820   -4.2800   21.6260 F   0  0  0  0  0  0  0  0  0  0  0  0
  -21.4000   -4.0400   26.2700 F   0  0  0  0  0  0  0  0  0  0  0  0
  -22.8870  -13.5720   21.2250 C   0  0  0  0  0  0  0  0  0  0  0  0
  -22.2740  -12.8870   22.1840 N   0  0  0  0  0  0  0  0  0  0  0  0
  -22.3890  -14.5950   20.7580 O   0  0  0  0  0  0  0  0  0  0  0  0
  -22.6910  -12.0600   22.5830 H   0  0  0  0  0  0  0  0  0  0  0  0
  -21.3730  -13.1940   22.5230 H   0  0  0  0  0  0  0  0  0  0  0  0
  -25.4230  -15.2210   20.1280 N   0  0  0  0  0  0  0  0  0  0  0  0
  -24.6770  -15.8770   20.3320 H   0  0  0  0  0  0  0  0  0  0  0  0
  -26.2290  -15.6440   19.6920 H   0  0  0  0  0  0  0  0  0  0  0  0
  -30.0250  -25.1960   19.1970 C   0  0  0  0  0  2  0  0  0  0  0  0
  -29.3040  -26.5540   19.1490 C   0  0  0  0  0  2  0  0  0  0  0  0
  -28.6790  -26.7880   20.4080 O   0  0  0  0  0  0  0  0  0  0  0  0
  -24.6800  -31.9070   23.2860 C   0  0  0  0  0  0  0  0  0  0  0  0
  -27.4940  -27.4780   20.3620 C   0  0  0  0  0  0  0  0  0  0  0  0
  -23.5420  -30.4440   21.6450 C   0  0  0  0  0  3  0  0  0  0  0  0
  -25.0620  -28.9030   20.2950 C   0  0  0  0  0  0  0  0  0  0  0  0
  -26.0610  -30.8540   21.5010 C   0  0  0  0  0  2  0  0  0  0  0  0
  -26.1890  -29.4700   20.9040 C   0  0  0  0  0  0  0  0  0  0  0  0
  -27.4050  -28.7560   20.9510 C   0  0  0  0  0  3  0  0  0  0  0  0
  -26.3490  -26.9090   19.7640 C   0  0  0  0  0  3  0  0  0  0  0  0
  -25.1340  -27.6180   19.7280 C   0  0  0  0  0  3  0  0  0  0  0  0
  -23.7990  -29.7330   20.2880 C   0  0  0  0  0  2  0  0  0  0  0  0
  -24.7770  -31.0830   22.2030 N   0  0  0  0  0  0  0  0  0  0  0  0
  -23.5810  -32.1700   23.7920 O   0  0  0  0  0  0  0  0  0  0  0  0
  -22.8870  -29.4320   22.6130 C   0  0  0  0  0  0  0  0  0  0  0  0
  -21.5690  -29.2280   22.4610 N   0  0  0  0  0  0  0  0  0  0  0  0
  -23.5630  -28.8320   23.4540 O   0  0  0  0  0  0  0  0  0  0  0  0
  -21.0860  -29.7650   21.7550 H   0  0  0  0  0  0  0  0  0  0  0  0
  -18.1970  -28.0200   22.9250 C   0  0  0  0  0  0  0  0  0  0  0  0
  -20.7490  -28.2950   23.2310 C   0  0  0  0  0  3  0  0  0  0  0  0
  -20.8680  -26.8580   22.6740 C   0  0  0  0  0  2  0  0  0  0  0  0
  -19.7830  -26.5160   21.6470 C   0  0  0  0  0  2  0  0  0  0  0  0
  -18.3910  -26.6630   22.2690 C   0  0  0  0  0  2  0  0  0  0  0  0
  -19.3050  -28.7930   23.3610 C   0  0  0  0  0  0  0  0  0  0  0  0
  -19.0710  -30.0630   23.9310 C   0  0  0  0  0  3  0  0  0  0  0  0
  -17.7630  -30.5610   24.0690 C   0  0  0  0  0  3  0  0  0  0  0  0
  -16.6690  -29.7840   23.6500 C   0  0  0  0  0  3  0  0  0  0  0  0
  -16.8860  -28.5160   23.0840 C   0  0  0  0  0  3  0  0  0  0  0  0
  -25.9400  -32.5740   23.9220 C   0  0  0  0  0  3  0  0  0  0  0  0
  -25.5990  -33.9720   24.2130 N   0  0  0  0  0  0  0  0  0  0  0  0
  -25.9310  -35.0130   23.4350 C   0  0  0  0  0  0  0  0  0  0  0  0
  -26.6280  -34.8970   22.4230 O   0  0  0  0  0  0  0  0  0  0  0  0
  -24.9820  -34.1360   24.9940 H   0  0  0  0  0  0  0  0  0  0  0  0
  -24.1800  -36.7620   22.9930 C   0  0  0  0  0  1  0  0  0  0  0  0
  -25.4070  -36.4020   23.8460 C   0  0  0  0  0  3  0  0  0  0  0  0
  -27.5030  -37.3460   24.7080 C   0  0  0  0  0  1  0  0  0  0  0  0
  -26.4230  -37.4700   23.7330 N   0  0  0  0  0  0  0  0  0  0  0  0
  -25.9970  -38.3870   23.8470 H   0  0  0  0  0  0  0  0  0  0  0  0
  -26.4420  -31.8380   25.2240 C   0  0  1  0  0  0  0  0  0  0  0  0
  -25.3290  -31.5930   26.2690 C   0  0  0  0  0  1  0  0  0  0  0  0
  -27.0670  -30.4680   24.8680 C   0  0  0  0  0  1  0  0  0  0  0  0
  -27.5570  -32.6710   25.9000 C   0  0  0  0  0  1  0  0  0  0  0  0
  2  5  1  0
  3  1  1  0
  4  2  1  0
  4  6  1  0
  5  8  1  0
  5  1  1  0
  6  3  1  0
  6  7  1  1
  9  8  1  0
  9 12  1  0
 10  9  1  0
 11  9  1  0
 13 12  1  0
 14 26  1  0
 15 20  1  0
 16 17  1  0
 16 15  1  0
 18 17  1  0
 18 30  1  0
 18 19  1  0
 20 14  1  0
 20 19  1  0
 21 14  2  0
 23 22  1  0
 24 22  1  0
 25 13  1  0
 25 23  1  0
 26 25  1  0
 26 24  1  0
 27 28  2  0
 28 47  1  0
 29 28  1  0
 29 32  1  0
 30 31  1  0
 30 27  1  0
 31 29  2  0
 32 33  1  0
 33 34  2  0
 35 38  1  0
 35 34  1  0
 36 35  2  0
 37 36  1  0
 37 32  2  0
 38 39  1  0
 39 44  2  0
 39 40  1  0
 40 41  2  0
 41 42  1  0
 42 46  1  0
 43 42  2  0
 44 43  1  0
 45 44  1  0
 47 48  1  0
 48 51  1  0
 48 50  1  0
 49 47  2  0
 52 27  1  0
 52 53  1  0
 54 52  1  0
 55  6  1  0
 56 55  1  0
 56 57  1  0
 58 69  2  0
 59 57  1  0
 59 64  1  0
 60 68  1  0
 60 70  1  0
 61 63  1  0
 62 68  1  0
 63 64  2  0
 63 62  1  0
 65 59  2  0
 66 65  1  0
 66 61  2  0
 67 61  1  0
 67 60  1  0
 68 58  1  0
 70 72  2  0
 71 70  1  0
 73 71  1  0
 74 83  2  0
 74 79  1  0
 75 71  1  0
 75 79  1  0
 76 75  1  0
 77 78  1  0
 77 76  1  0
 78 74  1  0
 79 80  2  0
 80 81  1  0
 82 81  2  0
 83 82  1  0
 84 58  1  0
 84 85  1  0
 84 94  1  0
 85 88  1  0
 86 90  1  0
 86 85  1  0
 87 86  2  0
 90 89  1  0
 92 90  1  0
 92 93  1  0
 92 91  1  0
 94 97  1  1
 94 95  1  0
 96 94  1  0
M  ISO  4  14 100  26 100  56 101  57 101
M  END
>  <TORSDO>  (12) 
F 22

>  <SCORE>  (12) 
-12.110

>  <name>  (12) 
11

>  <ligand_id>  (12) 
11

>  <original_smiles>  (12) 
[H]c1c([H])c([H])c2c(c1[H])C([H])([H])C([H])([H])C([H])([H])C2([H])N([H])C(=O)C1([H])N(C(=O)C([H])(N([H])C(=O)C([H])(N([H])C([H])([H])[H])C([H])([H])[H])C(C([H])([H])[H])(C([H])([H])[H])C([H])([H])[H])C([H])([H])c2c([H])c(OC([H])([H])C([H])([H])[N+]3([H])C([H])([H])C([H])([H])C([H])(C([H])([H])[N+]([H])([H])C([H])([H])C([H])([H])C4([H])N(C(=O)N5C([H])([H])C([H])([H])C([H])([H])C([H])(n6nc(-c7c([H])c([H])c(Oc8c([H])c([H])c(F)c([H])c8F)c([H])c7[H])c(C(=O)N([H])[H])c6N([H])[H])C5([H])[H])C([H])([H])C([H])([H])C4([H])[H])C([H])([H])C3([H])[H])c([H])c([H])c2C1([H])[H]

>  <smiles>  (12) 
[H]c1c([H])c([H])c2c(c1[H])C([H])([H])C([H])([H])C([H])([H])C2([H])N([H])C(=O)C1([H])N(C(=O)C([H])(N([H])C(=O)C([H])(N([H])C([H])([H])[H])C([H])([H])[H])C(C([H])([H])[H])(C([H])([H])[H])C([H])([H])[H])C([H])([H])c2c([H])c(OC([H])([H])C([H])([H])[N+]3([H])C([H])([H])C([H])([H])C([H])(C([H])([H])[N+]([H])([H])C([H])([H])C([H])([H])C4([H])N(C(=O)N5C([H])([H])C([H])([H])C([H])([H])C([H])(n6nc(-c7c([H])c([H])c(Oc8c([H])c([H])c(F)c([H])c8F)c([H])c7[H])c(C(=O)N([H])[H])c6N([H])[H])C5([H])[H])C([H])([H])C([H])([H])C4([H])[H])C([H])([H])C3([H])[H])c([H])c([H])c2C1([H])[H]

$$$$
12:0:0
     RDKit          3D

 89 97  0  0  1  0  0  0  0  0999 V2000
  -29.1700  -22.0110   20.5030 N   0  0  0  0  0  4  0  0  0  0  0  0
  -29.3920  -22.0110   21.4890 H   0  0  0  0  0  0  0  0  0  0  0  0
  -28.1960  -21.7500   20.4430 H   0  0  0  0  0  0  0  0  0  0  0  0
  -29.9770  -20.8060   19.8530 C   0  0  0  0  0  2  0  0  0  0  0  0
  -30.1160  -19.2540   20.5320 C   0  0  0  0  0  2  0  0  0  0  0  0
  -30.5280  -15.0770   20.1360 C   0  0  0  0  0  0  0  0  0  0  0  0
  -30.3960  -12.7270   19.1340 C   0  0  0  0  0  2  0  0  0  0  0  0
  -29.4230  -12.6820   17.9280 C   0  0  0  0  0  2  0  0  0  0  0  0
  -27.9650  -12.4690   18.3920 C   0  0  0  0  0  2  0  0  0  0  0  0
  -27.5990  -13.3370   19.6220 C   0  0  0  0  0  3  0  0  0  0  0  0
  -28.7060  -13.2650   20.7050 C   0  0  0  0  0  2  0  0  0  0  0  0
  -29.9290  -13.7980   20.0750 N   0  0  0  0  0  0  0  0  0  0  0  0
  -31.7080  -15.1110   19.7520 O   0  0  0  0  0  0  0  0  0  0  0  0
  -27.7050  -17.5690   20.2590 C   0  0  0  0  0  2  0  0  0  0  0  0
  -28.5800  -17.9110   19.0670 C   0  0  0  0  0  2  0  0  0  0  0  0
  -28.5010  -16.4730   21.0070 C   0  0  0  0  0  2  0  0  0  0  0  0
  -29.9600  -17.7840   19.6990 C   0  0  0  0  0  3  0  0  0  0  0  0
  -29.8140  -16.3290   20.3400 N   0  0  0  0  0  0  0  0  0  0  0  0
  -25.2130  -13.8900   20.3910 C   0  0  0  0  0  0  0  0  0  0  0  0
  -24.1690  -13.1150   20.7940 C   0  0  0  0  0  0  0  0  0  0  0  0
  -24.6490  -11.7710   20.7600 C   0  0  0  0  0  0  0  0  0  0  0  0
  -26.2700  -13.0290   20.1440 N   0  0  0  0  0  0  0  0  0  0  0  0
  -25.9350  -11.7450   20.4230 N   0  0  0  0  0  0  0  0  0  0  0  0
  -23.9380  -10.5080   20.9700 C   0  0  0  0  0  0  0  0  0  0  0  0
  -24.3900   -9.5500   21.9020 C   0  0  0  0  0  3  0  0  0  0  0  0
  -23.6730   -8.3520   22.0980 C   0  0  0  0  0  3  0  0  0  0  0  0
  -22.4880   -8.1040   21.3630 C   0  0  0  0  0  0  0  0  0  0  0  0
  -22.0560   -9.0520   20.4200 C   0  0  0  0  0  3  0  0  0  0  0  0
  -22.7740  -10.2410   20.2200 C   0  0  0  0  0  3  0  0  0  0  0  0
  -21.7410   -6.9570   21.4710 O   0  0  0  0  0  0  0  0  0  0  0  0
  -21.7100   -6.2260   22.6300 C   0  0  0  0  0  0  0  0  0  0  0  0
  -21.2970   -6.7920   23.8570 C   0  0  0  0  0  3  0  0  0  0  0  0
  -21.2170   -5.9870   25.0110 C   0  0  0  0  0  3  0  0  0  0  0  0
  -21.5380   -4.6180   24.9390 C   0  0  0  0  0  0  0  0  0  0  0  0
  -21.9440   -4.0520   23.7170 C   0  0  0  0  0  3  0  0  0  0  0  0
  -22.0270   -4.8550   22.5660 C   0  0  0  0  0  0  0  0  0  0  0  0
  -22.3990   -4.3030   21.3850 F   0  0  0  0  0  0  0  0  0  0  0  0
  -21.4510   -3.8420   26.0440 F   0  0  0  0  0  0  0  0  0  0  0  0
  -22.7750  -13.5870   21.0930 C   0  0  0  0  0  0  0  0  0  0  0  0
  -22.0740  -12.8940   21.9810 N   0  0  0  0  0  0  0  0  0  0  0  0
  -22.3200  -14.6090   20.5790 O   0  0  0  0  0  0  0  0  0  0  0  0
  -22.4510  -12.0660   22.4180 H   0  0  0  0  0  0  0  0  0  0  0  0
  -21.1400  -13.1930   22.2250 H   0  0  0  0  0  0  0  0  0  0  0  0
  -25.3280  -15.2540   20.1890 N   0  0  0  0  0  0  0  0  0  0  0  0
  -24.5380  -15.8810   20.3010 H   0  0  0  0  0  0  0  0  0  0  0  0
  -26.1470  -15.6990   19.8000 H   0  0  0  0  0  0  0  0  0  0  0  0
  -29.2840  -23.5220   20.0080 C   0  0  0  0  0  3  0  0  0  0  0  0
  -28.2220  -24.7440   20.4910 C   0  0  0  0  0  3  0  0  0  0  0  0
  -28.3720  -26.2810   20.2650 O   0  0  0  0  0  0  0  0  0  0  0  0
  -24.5900  -31.8810   23.2340 C   0  0  0  0  0  0  0  0  0  0  0  0
  -27.2610  -27.2030   20.2420 C   0  0  0  0  0  0  0  0  0  0  0  0
  -23.4150  -30.4700   21.5880 C   0  0  0  0  0  3  0  0  0  0  0  0
  -24.8910  -28.8980   20.1910 C   0  0  0  0  0  0  0  0  0  0  0  0
  -25.9640  -30.7660   21.4400 C   0  0  0  0  0  2  0  0  0  0  0  0
  -26.0600  -29.3710   20.7990 C   0  0  0  0  0  0  0  0  0  0  0  0
  -27.2450  -28.5410   20.8020 C   0  0  0  0  0  3  0  0  0  0  0  0
  -26.0600  -26.8230   19.6000 C   0  0  0  0  0  3  0  0  0  0  0  0
  -24.9020  -27.6350   19.5770 C   0  0  0  0  0  3  0  0  0  0  0  0
  -23.6540  -29.7820   20.2180 C   0  0  0  0  0  2  0  0  0  0  0  0
  -24.6750  -31.0600   22.1450 N   0  0  0  0  0  0  0  0  0  0  0  0
  -23.4960  -32.1580   23.7530 O   0  0  0  0  0  0  0  0  0  0  0  0
  -22.7330  -29.4640   22.5490 C   0  0  0  0  0  0  0  0  0  0  0  0
  -21.4060  -29.2870   22.4120 N   0  0  0  0  0  0  0  0  0  0  0  0
  -23.4020  -28.8440   23.3790 O   0  0  0  0  0  0  0  0  0  0  0  0
  -20.9210  -29.8420   21.7200 H   0  0  0  0  0  0  0  0  0  0  0  0
  -18.0320  -28.0590   22.8850 C   0  0  0  0  0  0  0  0  0  0  0  0
  -20.5850  -28.3470   23.1790 C   0  0  0  0  0  3  0  0  0  0  0  0
  -20.7050  -26.9110   22.6150 C   0  0  0  0  0  2  0  0  0  0  0  0
  -19.6180  -26.5720   21.5890 C   0  0  0  0  0  2  0  0  0  0  0  0
  -18.2270  -26.7100   22.2160 C   0  0  0  0  0  2  0  0  0  0  0  0
  -19.1390  -28.8350   23.3230 C   0  0  0  0  0  0  0  0  0  0  0  0
  -18.9010  -30.0980   23.9080 C   0  0  0  0  0  3  0  0  0  0  0  0
  -17.5900  -30.5870   24.0600 C   0  0  0  0  0  3  0  0  0  0  0  0
  -16.4970  -29.8100   23.6380 C   0  0  0  0  0  3  0  0  0  0  0  0
  -16.7190  -28.5480   23.0570 C   0  0  0  0  0  3  0  0  0  0  0  0
  -25.8580  -32.5290   23.8710 C   0  0  0  0  0  3  0  0  0  0  0  0
  -26.3550  -31.7730   25.1650 C   0  0  1  0  0  0  0  0  0  0  0  0
  -25.2470  -31.5460   26.2190 C   0  0  0  0  0  1  0  0  0  0  0  0
  -26.9470  -30.3940   24.7990 C   0  0  0  0  0  1  0  0  0  0  0  0
  -27.4960  -32.5770   25.8340 C   0  0  0  0  0  1  0  0  0  0  0  0
  -25.5360  -33.9280   24.1870 N   0  0  0  0  0  0  0  0  0  0  0  0
  -25.8760  -34.9800   23.4310 C   0  0  0  0  0  0  0  0  0  0  0  0
  -26.5600  -34.8750   22.4090 O   0  0  0  0  0  0  0  0  0  0  0  0
  -24.9360  -34.0850   24.9830 H   0  0  0  0  0  0  0  0  0  0  0  0
  -24.1510  -36.7730   23.0500 C   0  0  0  0  0  1  0  0  0  0  0  0
  -25.3820  -36.3710   23.8780 C   0  0  0  0  0  3  0  0  0  0  0  0
  -27.5040  -37.2620   24.7340 C   0  0  0  0  0  1  0  0  0  0  0  0
  -26.4140  -37.4250   23.7740 N   0  0  0  0  0  0  0  0  0  0  0  0
  -26.0060  -38.3450   23.9130 H   0  0  0  0  0  0  0  0  0  0  0  0
  1  2  1  0
  3  1  1  0
  4  1  1  0
  4  5  1  0
  6 18  1  0
  7 12  1  0
  8  9  1  0
  8  7  1  0
 10  9  1  0
 10 22  1  0
 10 11  1  0
 12  6  1  0
 12 11  1  0
 13  6  2  0
 14 16  1  0
 15 17  1  0
 15 14  1  0
 17 18  1  0
 17  5  1  0
 18 16  1  0
 19 20  2  0
 20 39  1  0
 21 20  1  0
 21 24  1  0
 22 19  1  0
 22 23  1  0
 23 21  2  0
 24 25  1  0
 25 26  2  0
 27 30  1  0
 27 26  1  0
 28 27  2  0
 29 28  1  0
 29 24  2  0
 30 31  1  0
 31 32  1  0
 32 33  2  0
 34 33  1  0
 34 38  1  0
 35 34  2  0
 36 31  2  0
 36 35  1  0
 37 36  1  0
 39 40  1  0
 40 43  1  0
 40 42  1  0
 41 39  2  0
 44 45  1  0
 44 19  1  0
 46 44  1  0
 47 48  2  0
 47  1  1  0
 49 48  1  0
 50 61  2  0
 51 49  1  0
 51 56  1  0
 52 60  1  0
 52 62  1  0
 53 59  1  0
 53 55  1  0
 54 60  1  0
 55 56  2  0
 55 54  1  0
 57 51  2  0
 58 57  1  0
 58 53  2  0
 59 52  1  0
 60 50  1  0
 62 64  2  0
 63 62  1  0
 65 63  1  0
 66 75  2  0
 66 71  1  0
 67 63  1  0
 67 71  1  0
 68 67  1  0
 69 70  1  0
 69 68  1  0
 70 66  1  0
 71 72  2  0
 72 73  1  0
 74 73  2  0
 75 74  1  0
 76 50  1  0
 76 81  1  0
 76 77  1  0
 77 80  1  1
 77 78  1  0
 79 77  1  0
 81 84  1  0
 82 86  1  0
 82 81  1  0
 83 82  2  0
 86 85  1  0
 88 86  1  0
 88 89  1  0
 88 87  1  0
M  ISO  4   6 100  18 100  48 101  49 101
M  END
>  <TORSDO>  (13) 
F 20

>  <SCORE>  (13) 
-14.644

>  <name>  (13) 
12

>  <ligand_id>  (13) 
12

>  <original_smiles>  (13) 
[H]c1c([H])c([H])c2c(c1[H])C([H])([H])C([H])([H])C([H])([H])C2([H])N([H])C(=O)C1([H])N(C(=O)C([H])(N([H])C(=O)C([H])(N([H])C([H])([H])[H])C([H])([H])[H])C(C([H])([H])[H])(C([H])([H])[H])C([H])([H])[H])C([H])([H])c2c([H])c(OC([H])([H])C([H])([H])[N+]([H])([H])C([H])([H])C([H])([H])C3([H])N(C(=O)N4C([H])([H])C([H])([H])C([H])([H])C([H])(n5nc(-c6c([H])c([H])c(Oc7c([H])c([H])c(F)c([H])c7F)c([H])c6[H])c(C(=O)N([H])[H])c5N([H])[H])C4([H])[H])C([H])([H])C([H])([H])C3([H])[H])c([H])c([H])c2C1([H])[H]

>  <smiles>  (13) 
[H]c1c([H])c([H])c2c(c1[H])C([H])([H])C([H])([H])C([H])([H])C2([H])N([H])C(=O)C1([H])N(C(=O)C([H])(N([H])C(=O)C([H])(N([H])C([H])([H])[H])C([H])([H])[H])C(C([H])([H])[H])(C([H])([H])[H])C([H])([H])[H])C([H])([H])c2c([H])c(OC([H])([H])C([H])([H])[N+]([H])([H])C([H])([H])C([H])([H])C3([H])N(C(=O)N4C([H])([H])C([H])([H])C([H])([H])C([H])(n5nc(-c6c([H])c([H])c(Oc7c([H])c([H])c(F)c([H])c7F)c([H])c6[H])c(C(=O)N([H])[H])c5N([H])[H])C4([H])[H])C([H])([H])C([H])([H])C3([H])[H])c([H])c([H])c2C1([H])[H]

$$$$
13:0:0
     RDKit          3D

100108  0  0  1  0  0  0  0  0999 V2000
  -27.0320  -20.4630   20.5610 C   0  0  0  0  0  2  0  0  0  0  0  0
  -29.4270  -21.2440   20.6250 C   0  0  0  0  0  2  0  0  0  0  0  0
  -27.4890  -19.2090   19.7750 C   0  0  0  0  0  2  0  0  0  0  0  0
  -29.7990  -20.0200   19.7950 C   0  0  0  0  0  2  0  0  0  0  0  0
  -27.9730  -21.6750   20.3490 C   0  0  0  0  0  3  0  0  0  0  0  0
  -28.9020  -18.8740   20.0890 N   0  0  2  0  0  4  0  0  0  0  0  0
  -28.9370  -18.6900   21.0820 H   0  0  0  0  0  0  0  0  0  0  0  0
  -27.5290  -22.8920   21.1980 C   0  0  0  0  0  2  0  0  0  0  0  0
  -28.5910  -23.9070   21.4030 N   0  0  0  0  0  4  0  0  0  0  0  0
  -29.4510  -23.4370   21.6380 H   0  0  0  0  0  0  0  0  0  0  0  0
  -28.3270  -24.4400   22.2170 H   0  0  0  0  0  0  0  0  0  0  0  0
  -28.8200  -24.8410   20.2780 C   0  0  0  0  0  2  0  0  0  0  0  0
  -29.1980  -26.2450   20.7820 C   0  0  0  0  0  2  0  0  0  0  0  0
  -28.9480  -27.1950   19.7520 O   0  0  0  0  0  0  0  0  0  0  0  0
  -24.6350  -31.6810   23.1980 C   0  0  0  0  0  0  0  0  0  0  0  0
  -27.7120  -27.7840   19.8310 C   0  0  0  0  0  0  0  0  0  0  0  0
  -23.5770  -30.3110   21.4320 C   0  0  0  0  0  3  0  0  0  0  0  0
  -25.1790  -29.0180   19.9320 C   0  0  0  0  0  0  0  0  0  0  0  0
  -26.0510  -30.9160   21.3010 C   0  0  0  0  0  2  0  0  0  0  0  0
  -26.2720  -29.6040   20.5820 C   0  0  0  0  0  0  0  0  0  0  0  0
  -27.5420  -28.9860   20.5450 C   0  0  0  0  0  3  0  0  0  0  0  0
  -26.6070  -27.2050   19.1710 C   0  0  0  0  0  3  0  0  0  0  0  0
  -25.3370  -27.8100   19.2260 C   0  0  0  0  0  3  0  0  0  0  0  0
  -23.8650  -29.7570   20.0110 C   0  0  0  0  0  2  0  0  0  0  0  0
  -24.7700  -30.9790   22.0400 N   0  0  0  0  0  0  0  0  0  0  0  0
  -23.5290  -31.8140   23.7400 O   0  0  0  0  0  0  0  0  0  0  0  0
  -23.0080  -29.1660   22.2990 C   0  0  0  0  0  0  0  0  0  0  0  0
  -21.7070  -28.8840   22.1290 N   0  0  0  0  0  0  0  0  0  0  0  0
  -23.7310  -28.5390   23.0810 O   0  0  0  0  0  0  0  0  0  0  0  0
  -21.1900  -29.4510   21.4730 H   0  0  0  0  0  0  0  0  0  0  0  0
  -18.4330  -27.3940   22.4710 C   0  0  0  0  0  0  0  0  0  0  0  0
  -20.9600  -27.8260   22.8030 C   0  0  0  0  0  3  0  0  0  0  0  0
  -21.1810  -26.4610   22.1100 C   0  0  0  0  0  2  0  0  0  0  0  0
  -20.1130  -26.1380   21.0570 C   0  0  0  0  0  2  0  0  0  0  0  0
  -18.7180  -26.1220   21.6890 C   0  0  0  0  0  2  0  0  0  0  0  0
  -19.4850  -28.2010   22.9810 C   0  0  0  0  0  0  0  0  0  0  0  0
  -19.1660  -29.3940   23.6670 C   0  0  0  0  0  3  0  0  0  0  0  0
  -17.8250  -29.7820   23.8480 C   0  0  0  0  0  3  0  0  0  0  0  0
  -16.7870  -28.9680   23.3620 C   0  0  0  0  0  3  0  0  0  0  0  0
  -17.0910  -27.7760   22.6780 C   0  0  0  0  0  3  0  0  0  0  0  0
  -25.8540  -32.3660   23.8920 C   0  0  0  0  0  3  0  0  0  0  0  0
  -26.3180  -31.6300   25.2110 C   0  0  1  0  0  0  0  0  0  0  0  0
  -25.1710  -31.3470   26.2100 C   0  0  0  0  0  1  0  0  0  0  0  0
  -26.9840  -30.2760   24.8690 C   0  0  0  0  0  1  0  0  0  0  0  0
  -27.3940  -32.4770   25.9340 C   0  0  0  0  0  1  0  0  0  0  0  0
  -25.4820  -33.7570   24.1690 N   0  0  0  0  0  0  0  0  0  0  0  0
  -25.8500  -34.8020   23.4150 C   0  0  0  0  0  0  0  0  0  0  0  0
  -26.6100  -34.6980   22.4460 O   0  0  0  0  0  0  0  0  0  0  0  0
  -24.8160  -33.9130   24.9120 H   0  0  0  0  0  0  0  0  0  0  0  0
  -24.1170  -36.5380   22.8680 C   0  0  0  0  0  1  0  0  0  0  0  0
  -25.2870  -36.1840   23.7980 C   0  0  0  0  0  3  0  0  0  0  0  0
  -27.3090  -37.1440   24.8090 C   0  0  0  0  0  1  0  0  0  0  0  0
  -26.2980  -37.2630   23.7610 N   0  0  0  0  0  0  0  0  0  0  0  0
  -25.8550  -38.1740   23.8460 H   0  0  0  0  0  0  0  0  0  0  0  0
  -29.4040  -17.6420   19.4350 C   0  0  0  0  0  2  0  0  0  0  0  0
  -30.4360  -16.9080   20.3330 C   0  0  0  0  0  2  0  0  0  0  0  0
  -31.6620  -14.7560   20.4240 C   0  0  0  0  0  0  0  0  0  0  0  0
  -31.2960  -12.4650   19.6440 C   0  0  0  0  0  2  0  0  0  0  0  0
  -30.4430  -12.5540   18.3600 C   0  0  0  0  0  2  0  0  0  0  0  0
  -28.9410  -12.5510   18.7000 C   0  0  0  0  0  2  0  0  0  0  0  0
  -28.5710  -13.5450   19.8370 C   0  0  0  0  0  3  0  0  0  0  0  0
  -29.5650  -13.4670   21.0200 C   0  0  0  0  0  2  0  0  0  0  0  0
  -30.9180  -13.6180   20.4700 N   0  0  0  0  0  0  0  0  0  0  0  0
  -32.8930  -14.7220   20.4090 O   0  0  0  0  0  0  0  0  0  0  0  0
  -31.0850  -15.7490   19.6870 N   0  0  0  0  0  0  0  0  0  0  0  0
  -26.2000  -14.3300   20.4410 C   0  0  0  0  0  0  0  0  0  0  0  0
  -25.0580  -13.6470   20.7410 C   0  0  0  0  0  0  0  0  0  0  0  0
  -25.4110  -12.2600   20.7210 C   0  0  0  0  0  0  0  0  0  0  0  0
  -27.1840  -13.3720   20.2590 N   0  0  0  0  0  0  0  0  0  0  0  0
  -26.7120  -12.1210   20.4950 N   0  0  0  0  0  0  0  0  0  0  0  0
  -24.5780  -11.0630   20.8620 C   0  0  0  0  0  0  0  0  0  0  0  0
  -24.8720  -10.0720   21.8240 C   0  0  0  0  0  3  0  0  0  0  0  0
  -24.0440   -8.9370   21.9530 C   0  0  0  0  0  3  0  0  0  0  0  0
  -22.9100   -8.7850   21.1190 C   0  0  0  0  0  0  0  0  0  0  0  0
  -22.6370   -9.7650   20.1480 C   0  0  0  0  0  3  0  0  0  0  0  0
  -23.4650  -10.8930   20.0170 C   0  0  0  0  0  3  0  0  0  0  0  0
  -22.0620   -7.7050   21.1580 O   0  0  0  0  0  0  0  0  0  0  0  0
  -21.8470   -6.9970   22.3150 C   0  0  0  0  0  0  0  0  0  0  0  0
  -21.2990   -7.6050   23.4660 C   0  0  0  0  0  3  0  0  0  0  0  0
  -21.0300   -6.8260   24.6100 C   0  0  0  0  0  3  0  0  0  0  0  0
  -21.3010   -5.4450   24.6010 C   0  0  0  0  0  0  0  0  0  0  0  0
  -21.8460   -4.8400   23.4560 C   0  0  0  0  0  3  0  0  0  0  0  0
  -22.1150   -5.6140   22.3130 C   0  0  0  0  0  0  0  0  0  0  0  0
  -22.6190   -5.0250   21.2000 F   0  0  0  0  0  0  0  0  0  0  0  0
  -21.0370   -4.6940   25.6970 F   0  0  0  0  0  0  0  0  0  0  0  0
  -23.6910  -14.2330   20.9380 C   0  0  0  0  0  0  0  0  0  0  0  0
  -22.8680  -13.6060   21.7690 N   0  0  0  0  0  0  0  0  0  0  0  0
  -23.3620  -15.2820   20.3840 O   0  0  0  0  0  0  0  0  0  0  0  0
  -23.1520  -12.7560   22.2350 H   0  0  0  0  0  0  0  0  0  0  0  0
  -21.9420  -13.9750   21.9390 H   0  0  0  0  0  0  0  0  0  0  0  0
  -26.4810  -15.6820   20.2820 N   0  0  0  0  0  0  0  0  0  0  0  0
  -25.7490  -16.3810   20.3250 H   0  0  0  0  0  0  0  0  0  0  0  0
  -27.3700  -16.0280   19.9610 H   0  0  0  0  0  0  0  0  0  0  0  0
  -31.6790  -16.0340   18.3520 C   0  0  0  0  0  2  0  0  0  0  0  0
  -32.7780  -17.1310   18.3010 C   0  0  0  0  0  2  0  0  0  0  0  0
  -33.5680  -17.0670   16.9670 C   0  0  0  0  0  2  0  0  0  0  0  0
  -35.0310  -16.9720   17.1400 N   0  0  0  0  0  4  0  0  0  0  0  0
  -35.4340  -17.8260   17.4820 H   0  0  0  0  0  0  0  0  0  0  0  0
  -35.4520  -16.7740   16.2480 H   0  0  0  0  0  0  0  0  0  0  0  0
  -35.2840  -16.2240   17.7580 H   0  0  0  0  0  0  0  0  0  0  0  0
  3  6  1  0
  3  1  1  0
  4  6  1  0
  4  2  1  0
  5  1  1  0
  5  2  1  0
  5  8  1  0
  6  7  1  1
  8  9  1  0
  9 10  1  0
  9 11  1  0
 12 13  1  0
 12  9  1  0
 14 16  1  0
 14 13  1  0
 15 26  2  0
 16 21  1  0
 17 25  1  0
 17 27  1  0
 18 24  1  0
 18 20  1  0
 19 25  1  0
 20 19  1  0
 21 20  2  0
 22 23  1  0
 22 16  2  0
 23 18  2  0
 24 17  1  0
 25 15  1  0
 27 29  2  0
 28 27  1  0
 30 28  1  0
 31 40  2  0
 31 36  1  0
 32 28  1  0
 32 36  1  0
 33 32  1  0
 34 35  1  0
 34 33  1  0
 35 31  1  0
 36 37  2  0
 37 38  1  0
 39 38  2  0
 40 39  1  0
 41 15  1  0
 41 46  1  0
 41 42  1  0
 42 45  1  1
 42 43  1  0
 44 42  1  0
 46 49  1  0
 47 51  1  0
 47 46  1  0
 48 47  2  0
 51 50  1  0
 53 51  1  0
 53 54  1  0
 53 52  1  0
 55  6  1  0
 55 56  1  0
 57 63  1  0
 58 63  1  0
 59 60  1  0
 59 58  1  0
 61 60  1  0
 61 69  1  0
 61 62  1  0
 63 62  1  0
 64 57  2  0
 65 56  1  0
 65 57  1  0
 66 67  2  0
 67 86  1  0
 68 67  1  0
 68 71  1  0
 69 66  1  0
 69 70  1  0
 70 68  2  0
 71 72  1  0
 72 73  2  0
 74 77  1  0
 74 73  1  0
 75 74  2  0
 76 75  1  0
 76 71  2  0
 77 78  1  0
 78 79  1  0
 79 80  2  0
 81 80  1  0
 81 85  1  0
 82 81  2  0
 83 78  2  0
 83 82  1  0
 84 83  1  0
 86 87  1  0
 87 90  1  0
 87 89  1  0
 88 86  2  0
 91 92  1  0
 91 66  1  0
 93 91  1  0
 94 65  1  0
 95 94  1  0
 96 97  1  0
 96 95  1  0
 97 98  1  0
 97100  1  0
 99 97  1  0
M  ISO  4  13 101  14 101  57 100  65 100
M  END
>  <TORSDO>  (14) 
F 26

>  <SCORE>  (14) 
-9.749

>  <name>  (14) 
13

>  <ligand_id>  (14) 
13

>  <original_smiles>  (14) 
[H]c1c([H])c([H])c2c(c1[H])C([H])([H])C([H])([H])C([H])([H])C2([H])N([H])C(=O)C1([H])N(C(=O)C([H])(N([H])C(=O)C([H])(N([H])C([H])([H])[H])C([H])([H])[H])C(C([H])([H])[H])(C([H])([H])[H])C([H])([H])[H])C([H])([H])c2c([H])c(OC([H])([H])C([H])([H])[N+]([H])([H])C([H])([H])C3([H])C([H])([H])C([H])([H])[N+]([H])(C([H])([H])C([H])([H])N(C(=O)N4C([H])([H])C([H])([H])C([H])([H])C([H])(n5nc(-c6c([H])c([H])c(Oc7c([H])c([H])c(F)c([H])c7F)c([H])c6[H])c(C(=O)N([H])[H])c5N([H])[H])C4([H])[H])C([H])([H])C([H])([H])C([H])([H])[N+]([H])([H])[H])C([H])([H])C3([H])[H])c([H])c([H])c2C1([H])[H]

>  <smiles>  (14) 
[H]c1c([H])c([H])c2c(c1[H])C([H])([H])C([H])([H])C([H])([H])C2([H])N([H])C(=O)C1([H])N(C(=O)C([H])(N([H])C(=O)C([H])(N([H])C([H])([H])[H])C([H])([H])[H])C(C([H])([H])[H])(C([H])([H])[H])C([H])([H])[H])C([H])([H])c2c([H])c(OC([H])([H])C([H])([H])[N+]([H])([H])C([H])([H])C3([H])C([H])([H])C([H])([H])[N+]([H])(C([H])([H])C([H])([H])N(C(=O)N4C([H])([H])C([H])([H])C([H])([H])C([H])(n5nc(-c6c([H])c([H])c(Oc7c([H])c([H])c(F)c([H])c7F)c([H])c6[H])c(C(=O)N([H])[H])c5N([H])[H])C4([H])[H])C([H])([H])C([H])([H])C([H])([H])[N+]([H])([H])[H])C([H])([H])C3([H])[H])c([H])c([H])c2C1([H])[H]

$$$$
14:0:0
     RDKit          3D

 97105  0  0  1  0  0  0  0  0999 V2000
  -30.3840  -21.4250   18.4860 C   0  0  0  0  0  2  0  0  0  0  0  0
  -29.8090  -19.9830   18.6020 C   0  0  0  0  0  2  0  0  0  0  0  0
  -28.8820  -21.1490   20.7390 C   0  0  0  0  0  2  0  0  0  0  0  0
  -29.3520  -22.5980   18.6270 C   0  0  0  0  0  3  0  0  0  0  0  0
  -28.9820  -22.8050   20.1220 C   0  0  0  0  0  3  0  0  0  0  0  0
  -29.1040  -19.5780   19.9420 C   0  0  2  0  0  0  0  0  0  0  0  0
  -29.8920  -23.9030   17.9830 C   0  0  0  0  0  2  0  0  0  0  0  0
  -30.0760  -23.7960   16.5240 N   0  0  0  0  0  4  0  0  0  0  0  0
  -30.7780  -23.1150   16.2970 H   0  0  0  0  0  0  0  0  0  0  0  0
  -30.3740  -24.6810   16.1520 H   0  0  0  0  0  0  0  0  0  0  0  0
  -29.2160  -23.5430   16.0720 H   0  0  0  0  0  0  0  0  0  0  0  0
  -27.9930  -24.2710   20.4150 C   0  0  0  0  0  2  0  0  0  0  0  0
  -28.2430  -25.8890   20.3030 O   0  0  0  0  0  0  0  0  0  0  0  0
  -24.6580  -31.8400   23.2490 C   0  0  0  0  0  0  0  0  0  0  0  0
  -27.2150  -26.9590   20.2720 C   0  0  0  0  0  0  0  0  0  0  0  0
  -23.4640  -30.4320   21.6210 C   0  0  0  0  0  3  0  0  0  0  0  0
  -24.9110  -28.8190   20.2150 C   0  0  0  0  0  0  0  0  0  0  0  0
  -26.0300  -30.6480   21.4720 C   0  0  0  0  0  2  0  0  0  0  0  0
  -26.1000  -29.2360   20.8280 C   0  0  0  0  0  0  0  0  0  0  0  0
  -27.2480  -28.3270   20.8300 C   0  0  0  0  0  3  0  0  0  0  0  0
  -25.9950  -26.6870   19.6140 C   0  0  0  0  0  3  0  0  0  0  0  0
  -24.8820  -27.5640   19.5870 C   0  0  0  0  0  3  0  0  0  0  0  0
  -23.6920  -29.7390   20.2500 C   0  0  0  0  0  2  0  0  0  0  0  0
  -24.7390  -31.0000   22.1670 N   0  0  0  0  0  0  0  0  0  0  0  0
  -23.5690  -32.1330   23.7680 O   0  0  0  0  0  0  0  0  0  0  0  0
  -22.7710  -29.4420   22.5920 C   0  0  0  0  0  0  0  0  0  0  0  0
  -21.4420  -29.2700   22.4630 N   0  0  0  0  0  0  0  0  0  0  0  0
  -23.4350  -28.8290   23.4310 O   0  0  0  0  0  0  0  0  0  0  0  0
  -20.9590  -29.8160   21.7620 H   0  0  0  0  0  0  0  0  0  0  0  0
  -18.0630  -28.0510   22.9630 C   0  0  0  0  0  0  0  0  0  0  0  0
  -20.6190  -28.3380   23.2390 C   0  0  0  0  0  3  0  0  0  0  0  0
  -20.7330  -26.8980   22.6850 C   0  0  0  0  0  2  0  0  0  0  0  0
  -19.6400  -26.5550   21.6680 C   0  0  0  0  0  2  0  0  0  0  0  0
  -18.2530  -26.6960   22.3020 C   0  0  0  0  0  2  0  0  0  0  0  0
  -19.1730  -28.8280   23.3890 C   0  0  0  0  0  0  0  0  0  0  0  0
  -18.9390  -30.0930   23.9700 C   0  0  0  0  0  3  0  0  0  0  0  0
  -17.6280  -30.5830   24.1270 C   0  0  0  0  0  3  0  0  0  0  0  0
  -16.5330  -29.8040   23.7160 C   0  0  0  0  0  3  0  0  0  0  0  0
  -16.7510  -28.5400   23.1410 C   0  0  0  0  0  3  0  0  0  0  0  0
  -25.9300  -32.4870   23.8770 C   0  0  0  0  0  3  0  0  0  0  0  0
  -25.6200  -33.8950   24.1790 N   0  0  0  0  0  0  0  0  0  0  0  0
  -25.9640  -34.9380   23.4130 C   0  0  0  0  0  0  0  0  0  0  0  0
  -26.6370  -34.8160   22.3860 O   0  0  0  0  0  0  0  0  0  0  0  0
  -25.0200  -34.0630   24.9740 H   0  0  0  0  0  0  0  0  0  0  0  0
  -24.2530  -36.7470   23.0290 C   0  0  0  0  0  1  0  0  0  0  0  0
  -25.4870  -36.3380   23.8510 C   0  0  0  0  0  3  0  0  0  0  0  0
  -27.6210  -37.2220   24.6870 C   0  0  0  0  0  1  0  0  0  0  0  0
  -26.5290  -37.3810   23.7300 N   0  0  0  0  0  0  0  0  0  0  0  0
  -26.1290  -38.3070   23.8570 H   0  0  0  0  0  0  0  0  0  0  0  0
  -26.4200  -31.7460   25.1820 C   0  0  1  0  0  0  0  0  0  0  0  0
  -25.3090  -31.5470   26.2410 C   0  0  0  0  0  1  0  0  0  0  0  0
  -26.9970  -30.3520   24.8450 C   0  0  0  0  0  1  0  0  0  0  0  0
  -27.5670  -32.5490   25.8420 C   0  0  0  0  0  1  0  0  0  0  0  0
  -29.8840  -18.0870   20.5800 C   0  0  0  0  0  2  0  0  0  0  0  0
  -30.4330  -15.2060   20.2680 C   0  0  0  0  0  0  0  0  0  0  0  0
  -30.3880  -12.7760   19.3840 C   0  0  0  0  0  2  0  0  0  0  0  0
  -29.4570  -12.5970   18.1590 C   0  0  0  0  0  2  0  0  0  0  0  0
  -28.0040  -12.3460   18.6060 C   0  0  0  0  0  2  0  0  0  0  0  0
  -27.5710  -13.3020   19.7480 C   0  0  0  0  0  3  0  0  0  0  0  0
  -28.6300  -13.4250   20.8630 C   0  0  0  0  0  2  0  0  0  0  0  0
  -29.8600  -13.9100   20.2190 N   0  0  0  0  0  0  0  0  0  0  0  0
  -31.6540  -15.2180   20.0660 O   0  0  0  0  0  0  0  0  0  0  0  0
  -29.6480  -16.4550   20.3440 N   0  0  0  0  0  0  0  0  0  0  0  0
  -28.6870  -16.1960   20.5000 H   0  0  0  0  0  0  0  0  0  0  0  0
  -25.2070  -13.8680   20.5200 C   0  0  0  0  0  0  0  0  0  0  0  0
  -24.1410  -13.0940   20.8850 C   0  0  0  0  0  0  0  0  0  0  0  0
  -24.6050  -11.7430   20.8480 C   0  0  0  0  0  0  0  0  0  0  0  0
  -26.2450  -12.9900   20.2670 N   0  0  0  0  0  0  0  0  0  0  0  0
  -25.8950  -11.7050   20.5330 N   0  0  0  0  0  0  0  0  0  0  0  0
  -23.8730  -10.4830   21.0370 C   0  0  0  0  0  0  0  0  0  0  0  0
  -24.2990   -9.5150   21.9730 C   0  0  0  0  0  3  0  0  0  0  0  0
  -23.5660   -8.3210   22.1500 C   0  0  0  0  0  3  0  0  0  0  0  0
  -22.3930   -8.0880   21.3930 C   0  0  0  0  0  0  0  0  0  0  0  0
  -21.9870   -9.0470   20.4470 C   0  0  0  0  0  3  0  0  0  0  0  0
  -22.7200  -10.2320   20.2670 C   0  0  0  0  0  3  0  0  0  0  0  0
  -21.6320   -6.9490   21.4800 O   0  0  0  0  0  0  0  0  0  0  0  0
  -21.5680   -6.2130   22.6360 C   0  0  0  0  0  0  0  0  0  0  0  0
  -21.1070   -6.7690   23.8500 C   0  0  0  0  0  3  0  0  0  0  0  0
  -20.9900   -5.9580   24.9970 C   0  0  0  0  0  3  0  0  0  0  0  0
  -21.3250   -4.5920   24.9310 C   0  0  0  0  0  0  0  0  0  0  0  0
  -21.7800   -4.0360   23.7220 C   0  0  0  0  0  3  0  0  0  0  0  0
  -21.8970   -4.8440   22.5770 C   0  0  0  0  0  0  0  0  0  0  0  0
  -22.3150   -4.2970   21.4100 F   0  0  0  0  0  0  0  0  0  0  0  0
  -21.2070   -3.8120   26.0310 F   0  0  0  0  0  0  0  0  0  0  0  0
  -22.7480  -13.5770   21.1600 C   0  0  0  0  0  0  0  0  0  0  0  0
  -22.0170  -12.8820   22.0230 N   0  0  0  0  0  0  0  0  0  0  0  0
  -22.3170  -14.6080   20.6440 O   0  0  0  0  0  0  0  0  0  0  0  0
  -22.3770  -12.0470   22.4620 H   0  0  0  0  0  0  0  0  0  0  0  0
  -21.0820  -13.1910   22.2520 H   0  0  0  0  0  0  0  0  0  0  0  0
  -25.3760  -15.2400   20.3620 N   0  0  0  0  0  0  0  0  0  0  0  0
  -24.6280  -15.8940   20.5680 H   0  0  0  0  0  0  0  0  0  0  0  0
  -26.2730  -15.6780   20.2380 H   0  0  0  0  0  0  0  0  0  0  0  0
  -27.6370  -19.1540   19.6390 C   0  0  0  0  0  2  0  0  0  0  0  0
  -27.5050  -18.1590   18.5560 N   0  0  0  0  0  4  0  0  0  0  0  0
  -27.7060  -18.5860   17.6700 H   0  0  0  0  0  0  0  0  0  0  0  0
  -26.5620  -17.8110   18.5180 H   0  0  0  0  0  0  0  0  0  0  0  0
  -28.1440  -17.3960   18.6870 H   0  0  0  0  0  0  0  0  0  0  0  0
  1  2  1  0
  1  4  1  0
  2  6  1  0
  4  7  1  0
  4  5  1  0
  5 12  1  0
  5  3  1  0
  6 93  1  6
  6 54  1  0
  6  3  1  0
  8  7  1  0
  9  8  1  0
 10  8  1  0
 11  8  1  0
 13 12  1  0
 14 25  2  0
 15 13  1  0
 15 20  1  0
 16 24  1  0
 16 26  1  0
 17 23  1  0
 17 19  1  0
 18 24  1  0
 19 20  2  0
 19 18  1  0
 21 15  2  0
 22 21  1  0
 22 17  2  0
 23 16  1  0
 24 14  1  0
 26 28  2  0
 27 26  1  0
 29 27  1  0
 30 39  2  0
 30 35  1  0
 31 27  1  0
 31 35  1  0
 32 31  1  0
 33 34  1  0
 33 32  1  0
 34 30  1  0
 35 36  2  0
 36 37  1  0
 38 37  2  0
 39 38  1  0
 40 14  1  0
 40 41  1  0
 40 50  1  0
 41 44  1  0
 42 46  1  0
 42 41  1  0
 43 42  2  0
 46 45  1  0
 48 46  1  0
 48 49  1  0
 48 47  1  0
 50 53  1  1
 50 51  1  0
 52 50  1  0
 55 63  1  0
 56 61  1  0
 57 58  1  0
 57 56  1  0
 59 58  1  0
 59 68  1  0
 59 60  1  0
 61 55  1  0
 61 60  1  0
 62 55  2  0
 63 64  1  0
 63 54  1  0
 65 66  2  0
 66 85  1  0
 67 66  1  0
 67 70  1  0
 68 65  1  0
 68 69  1  0
 69 67  2  0
 70 71  1  0
 71 72  2  0
 73 76  1  0
 73 72  1  0
 74 73  2  0
 75 74  1  0
 75 70  2  0
 76 77  1  0
 77 78  1  0
 78 79  2  0
 80 79  1  0
 80 84  1  0
 81 80  2  0
 82 77  2  0
 82 81  1  0
 83 82  1  0
 85 86  1  0
 86 89  1  0
 86 88  1  0
 87 85  2  0
 90 65  1  0
 90 91  1  0
 92 90  1  0
 94 97  1  0
 94 93  1  0
 95 94  1  0
 96 94  1  0
M  ISO  4  12 101  13 101  55 100  63 100
M  END
>  <TORSDO>  (15) 
F 22

>  <SCORE>  (15) 
-14.470

>  <name>  (15) 
14

>  <ligand_id>  (15) 
14

>  <original_smiles>  (15) 
[H]c1c([H])c([H])c2c(c1[H])C([H])([H])C([H])([H])C([H])([H])C2([H])N([H])C(=O)C1([H])N(C(=O)C([H])(N([H])C(=O)C([H])(N([H])C([H])([H])[H])C([H])([H])[H])C(C([H])([H])[H])(C([H])([H])[H])C([H])([H])[H])C([H])([H])c2c([H])c(OC([H])([H])C3([H])C([H])([H])C(C([H])([H])N([H])C(=O)N4C([H])([H])C([H])([H])C([H])([H])C([H])(n5nc(-c6c([H])c([H])c(Oc7c([H])c([H])c(F)c([H])c7F)c([H])c6[H])c(C(=O)N([H])[H])c5N([H])[H])C4([H])[H])(C([H])([H])[N+]([H])([H])[H])C([H])([H])C([H])([H])C3([H])C([H])([H])[N+]([H])([H])[H])c([H])c([H])c2C1([H])[H]

>  <smiles>  (15) 
[H]c1c([H])c([H])c2c(c1[H])C([H])([H])C([H])([H])C([H])([H])C2([H])N([H])C(=O)C1([H])N(C(=O)C([H])(N([H])C(=O)C([H])(N([H])C([H])([H])[H])C([H])([H])[H])C(C([H])([H])[H])(C([H])([H])[H])C([H])([H])[H])C([H])([H])c2c([H])c(OC([H])([H])C3([H])C([H])([H])C(C([H])([H])N([H])C(=O)N4C([H])([H])C([H])([H])C([H])([H])C([H])(n5nc(-c6c([H])c([H])c(Oc7c([H])c([H])c(F)c([H])c7F)c([H])c6[H])c(C(=O)N([H])[H])c5N([H])[H])C4([H])[H])(C([H])([H])[N+]([H])([H])[H])C([H])([H])C([H])([H])C3([H])C([H])([H])[N+]([H])([H])[H])c([H])c([H])c2C1([H])[H]

$$$$
15:0:0
     RDKit          3D

 94102  0  0  1  0  0  0  0  0999 V2000
  -29.9070  -20.9540   20.0530 C   0  0  0  0  0  0  0  0  0  0  0  0
  -29.0890  -22.0790   19.8470 N   0  0  0  0  0  0  0  0  0  0  0  0
  -31.0870  -21.1770   20.3310 O   0  0  0  0  0  0  0  0  0  0  0  0
  -28.1350  -21.9110   19.5550 H   0  0  0  0  0  0  0  0  0  0  0  0
  -30.9650  -14.8800   19.9100 C   0  0  0  0  0  0  0  0  0  0  0  0
  -30.7150  -12.5580   18.9730 C   0  0  0  0  0  2  0  0  0  0  0  0
  -29.7380  -12.5760   17.7770 C   0  0  0  0  0  2  0  0  0  0  0  0
  -28.2860  -12.4090   18.2660 C   0  0  0  0  0  2  0  0  0  0  0  0
  -27.9510  -13.3260   19.4730 C   0  0  0  0  0  3  0  0  0  0  0  0
  -29.0530  -13.3020   20.5540 C   0  0  0  0  0  2  0  0  0  0  0  0
  -30.3110  -13.6570   19.8900 N   0  0  0  0  0  0  0  0  0  0  0  0
  -32.1440  -14.9040   19.5370 O   0  0  0  0  0  0  0  0  0  0  0  0
  -30.2250  -18.5730   18.8320 C   0  0  0  0  0  2  0  0  0  0  0  0
  -30.0300  -18.4660   21.1800 C   0  0  0  0  0  2  0  0  0  0  0  0
  -30.1050  -16.9730   18.7230 C   0  0  0  0  0  2  0  0  0  0  0  0
  -29.8480  -16.8660   21.1580 C   0  0  0  0  0  2  0  0  0  0  0  0
  -29.4800  -19.3580   19.9840 C   0  0  1  0  0  0  0  0  0  0  0  0
  -30.2330  -16.0920   19.9330 N   0  0  0  0  0  0  0  0  0  0  0  0
  -25.6190  -13.9290   20.3410 C   0  0  0  0  0  0  0  0  0  0  0  0
  -24.5580  -13.1630   20.7390 C   0  0  0  0  0  0  0  0  0  0  0  0
  -24.9920  -11.8050   20.6450 C   0  0  0  0  0  0  0  0  0  0  0  0
  -26.6310  -13.0390   20.0240 N   0  0  0  0  0  0  0  0  0  0  0  0
  -26.2650  -11.7530   20.2700 N   0  0  0  0  0  0  0  0  0  0  0  0
  -24.2460  -10.5520   20.8290 C   0  0  0  0  0  0  0  0  0  0  0  0
  -24.6340   -9.5980   21.7970 C   0  0  0  0  0  3  0  0  0  0  0  0
  -23.8900   -8.4100   21.9700 C   0  0  0  0  0  3  0  0  0  0  0  0
  -22.7440   -8.1700   21.1750 C   0  0  0  0  0  0  0  0  0  0  0  0
  -22.3750   -9.1110   20.1980 C   0  0  0  0  0  3  0  0  0  0  0  0
  -23.1210  -10.2890   20.0240 C   0  0  0  0  0  3  0  0  0  0  0  0
  -21.9730   -7.0350   21.2580 O   0  0  0  0  0  0  0  0  0  0  0  0
  -21.7480   -6.4020   22.4540 C   0  0  0  0  0  0  0  0  0  0  0  0
  -21.1070   -7.0500   23.5310 C   0  0  0  0  0  3  0  0  0  0  0  0
  -20.8330   -6.3410   24.7180 C   0  0  0  0  0  3  0  0  0  0  0  0
  -21.1910   -4.9840   24.8260 C   0  0  0  0  0  0  0  0  0  0  0  0
  -21.8250   -4.3350   23.7520 C   0  0  0  0  0  3  0  0  0  0  0  0
  -22.1000   -5.0410   22.5680 C   0  0  0  0  0  0  0  0  0  0  0  0
  -22.6920   -4.4050   21.5290 F   0  0  0  0  0  0  0  0  0  0  0  0
  -20.9210   -4.3000   25.9630 F   0  0  0  0  0  0  0  0  0  0  0  0
  -23.1850  -13.6590   21.0930 C   0  0  0  0  0  0  0  0  0  0  0  0
  -22.5000  -12.9760   22.0020 N   0  0  0  0  0  0  0  0  0  0  0  0
  -22.7330  -14.6900   20.5960 O   0  0  0  0  0  0  0  0  0  0  0  0
  -22.8790  -12.1410   22.4240 H   0  0  0  0  0  0  0  0  0  0  0  0
  -21.5810  -13.2910   22.2800 H   0  0  0  0  0  0  0  0  0  0  0  0
  -25.8010  -15.3010   20.1920 N   0  0  0  0  0  0  0  0  0  0  0  0
  -25.0320  -15.9510   20.3090 H   0  0  0  0  0  0  0  0  0  0  0  0
  -26.6200  -15.7140   19.7690 H   0  0  0  0  0  0  0  0  0  0  0  0
  -27.9370  -19.1960   19.8330 C   0  0  0  0  0  2  0  0  0  0  0  0
  -27.1530  -19.5650   21.0340 N   0  0  0  0  0  4  0  0  0  0  0  0
  -27.3760  -18.9680   21.8110 H   0  0  0  0  0  0  0  0  0  0  0  0
  -26.1730  -19.4470   20.8430 H   0  0  0  0  0  0  0  0  0  0  0  0
  -27.2970  -20.5160   21.3170 H   0  0  0  0  0  0  0  0  0  0  0  0
  -29.4670  -23.5890   19.9620 C   0  0  0  0  0  3  0  0  0  0  0  0
  -28.3870  -24.8150   19.7250 C   0  0  0  0  0  3  0  0  0  0  0  0
  -28.6650  -26.3040   19.9740 O   0  0  0  0  0  0  0  0  0  0  0  0
  -24.9020  -31.5850   23.3570 C   0  0  0  0  0  0  0  0  0  0  0  0
  -27.5910  -27.2480   19.9630 C   0  0  0  0  0  0  0  0  0  0  0  0
  -23.7490  -30.3400   21.5680 C   0  0  0  0  0  3  0  0  0  0  0  0
  -25.2420  -28.9320   20.0330 C   0  0  0  0  0  0  0  0  0  0  0  0
  -26.2990  -30.6580   21.4830 C   0  0  0  0  0  2  0  0  0  0  0  0
  -26.4000  -29.3400   20.7070 C   0  0  0  0  0  0  0  0  0  0  0  0
  -27.5790  -28.5150   20.6570 C   0  0  0  0  0  3  0  0  0  0  0  0
  -26.4080  -26.9300   19.2590 C   0  0  0  0  0  3  0  0  0  0  0  0
  -25.2560  -27.7400   19.2950 C   0  0  0  0  0  3  0  0  0  0  0  0
  -24.0030  -29.8030   20.1350 C   0  0  0  0  0  2  0  0  0  0  0  0
  -25.0020  -30.8770   22.1930 N   0  0  0  0  0  0  0  0  0  0  0  0
  -23.8020  -31.8080   23.8850 O   0  0  0  0  0  0  0  0  0  0  0  0
  -23.0670  -29.2370   22.4140 C   0  0  0  0  0  0  0  0  0  0  0  0
  -21.7470  -29.0570   22.2280 N   0  0  0  0  0  0  0  0  0  0  0  0
  -23.7250  -28.5500   23.1990 O   0  0  0  0  0  0  0  0  0  0  0  0
  -21.2730  -29.6650   21.5750 H   0  0  0  0  0  0  0  0  0  0  0  0
  -18.3670  -27.7970   22.5340 C   0  0  0  0  0  0  0  0  0  0  0  0
  -20.9170  -28.0460   22.8860 C   0  0  0  0  0  3  0  0  0  0  0  0
  -21.0430  -26.6760   22.1800 C   0  0  0  0  0  2  0  0  0  0  0  0
  -19.9670  -26.4450   21.1140 C   0  0  0  0  0  2  0  0  0  0  0  0
  -18.5700  -26.5200   21.7360 C   0  0  0  0  0  2  0  0  0  0  0  0
  -19.4680  -28.5220   23.0600 C   0  0  0  0  0  0  0  0  0  0  0  0
  -19.2250  -29.7200   23.7640 C   0  0  0  0  0  3  0  0  0  0  0  0
  -17.9120  -30.1930   23.9510 C   0  0  0  0  0  3  0  0  0  0  0  0
  -16.8240  -29.4640   23.4390 C   0  0  0  0  0  3  0  0  0  0  0  0
  -17.0520  -28.2680   22.7360 C   0  0  0  0  0  3  0  0  0  0  0  0
  -26.1610  -32.1660   24.0700 C   0  0  0  0  0  3  0  0  0  0  0  0
  -26.5980  -31.3310   25.3350 C   0  0  1  0  0  0  0  0  0  0  0  0
  -25.4470  -31.0680   26.3340 C   0  0  0  0  0  1  0  0  0  0  0  0
  -27.1800  -29.9620   24.9150 C   0  0  0  0  0  1  0  0  0  0  0  0
  -27.7260  -32.0760   26.0890 C   0  0  0  0  0  1  0  0  0  0  0  0
  -25.8570  -33.5550   24.4500 N   0  0  0  0  0  0  0  0  0  0  0  0
  -26.2110  -34.6350   23.7420 C   0  0  0  0  0  0  0  0  0  0  0  0
  -26.8950  -34.5670   22.7170 O   0  0  0  0  0  0  0  0  0  0  0  0
  -25.2520  -33.6820   25.2480 H   0  0  0  0  0  0  0  0  0  0  0  0
  -24.4970  -36.4560   23.4480 C   0  0  0  0  0  1  0  0  0  0  0  0
  -25.7310  -36.0090   24.2510 C   0  0  0  0  0  3  0  0  0  0  0  0
  -27.8560  -36.8560   25.1420 C   0  0  0  0  0  1  0  0  0  0  0  0
  -26.7730  -37.0580   24.1840 N   0  0  0  0  0  0  0  0  0  0  0  0
  -26.3690  -37.9750   24.3500 H   0  0  0  0  0  0  0  0  0  0  0  0
  1  3  2  0
  2 52  1  0
  2  1  1  0
  4  2  1  0
  5 18  1  0
  6 11  1  0
  7  8  1  0
  7  6  1  0
  9  8  1  0
  9 22  1  0
  9 10  1  0
 11  5  1  0
 11 10  1  0
 12  5  2  0
 13 17  1  0
 15 13  1  0
 15 18  1  0
 16 14  1  0
 17 47  1  6
 17  1  1  0
 17 14  1  0
 18 16  1  0
 19 20  2  0
 20 39  1  0
 21 20  1  0
 21 24  1  0
 22 23  1  0
 22 19  1  0
 23 21  2  0
 24 25  1  0
 25 26  2  0
 27 30  1  0
 27 26  1  0
 28 27  2  0
 29 28  1  0
 29 24  2  0
 30 31  1  0
 31 36  2  0
 31 32  1  0
 32 33  2  0
 33 34  1  0
 34 38  1  0
 35 34  2  0
 36 35  1  0
 37 36  1  0
 39 40  1  0
 40 43  1  0
 40 42  1  0
 41 39  2  0
 44 45  1  0
 44 19  1  0
 46 44  1  0
 47 48  1  0
 48 51  1  0
 48 49  1  0
 50 48  1  0
 53 52  2  0
 53 54  1  0
 55 66  2  0
 56 54  1  0
 56 61  1  0
 57 65  1  0
 57 67  1  0
 58 64  1  0
 58 60  1  0
 59 65  1  0
 60 59  1  0
 61 60  2  0
 62 63  1  0
 62 56  2  0
 63 58  2  0
 64 57  1  0
 65 55  1  0
 67 69  2  0
 68 67  1  0
 70 68  1  0
 71 80  2  0
 71 76  1  0
 72 68  1  0
 72 76  1  0
 73 72  1  0
 74 75  1  0
 74 73  1  0
 75 71  1  0
 76 77  2  0
 77 78  1  0
 79 78  2  0
 80 79  1  0
 81 55  1  0
 81 86  1  0
 81 82  1  0
 82 85  1  1
 82 83  1  0
 84 82  1  0
 86 89  1  0
 87 91  1  0
 87 86  1  0
 88 87  2  0
 91 90  1  0
 93 91  1  0
 93 94  1  0
 93 92  1  0
M  ISO  4   5 100  18 100  53 101  54 101
M  END
>  <TORSDO>  (16) 
F 20

>  <SCORE>  (16) 
-11.992

>  <name>  (16) 
15

>  <ligand_id>  (16) 
15

>  <original_smiles>  (16) 
[H]c1c([H])c([H])c2c(c1[H])C([H])([H])C([H])([H])C([H])([H])C2([H])N([H])C(=O)C1([H])N(C(=O)C([H])(N([H])C(=O)C([H])(N([H])C([H])([H])[H])C([H])([H])[H])C(C([H])([H])[H])(C([H])([H])[H])C([H])([H])[H])C([H])([H])c2c([H])c(OC([H])([H])C([H])([H])N([H])C(=O)C3(C([H])([H])[N+]([H])([H])[H])C([H])([H])C([H])([H])N(C(=O)N4C([H])([H])C([H])([H])C([H])([H])C([H])(n5nc(-c6c([H])c([H])c(Oc7c([H])c([H])c(F)c([H])c7F)c([H])c6[H])c(C(=O)N([H])[H])c5N([H])[H])C4([H])[H])C([H])([H])C3([H])[H])c([H])c([H])c2C1([H])[H]

>  <smiles>  (16) 
[H]c1c([H])c([H])c2c(c1[H])C([H])([H])C([H])([H])C([H])([H])C2([H])N([H])C(=O)C1([H])N(C(=O)C([H])(N([H])C(=O)C([H])(N([H])C([H])([H])[H])C([H])([H])[H])C(C([H])([H])[H])(C([H])([H])[H])C([H])([H])[H])C([H])([H])c2c([H])c(OC([H])([H])C([H])([H])N([H])C(=O)C3(C([H])([H])[N+]([H])([H])[H])C([H])([H])C([H])([H])N(C(=O)N4C([H])([H])C([H])([H])C([H])([H])C([H])(n5nc(-c6c([H])c([H])c(Oc7c([H])c([H])c(F)c([H])c7F)c([H])c6[H])c(C(=O)N([H])[H])c5N([H])[H])C4([H])[H])C([H])([H])C3([H])[H])c([H])c([H])c2C1([H])[H]

$$$$
16:0:0
     RDKit          3D

 94103  0  0  1  0  0  0  0  0999 V2000
  -29.2200  -21.5960   20.5850 N   0  0  1  0  0  4  0  0  0  0  0  0
  -28.4570  -21.4680   21.2360 H   0  0  0  0  0  0  0  0  0  0  0  0
  -30.9060  -15.2520   19.6260 C   0  0  0  0  0  0  0  0  0  0  0  0
  -30.5840  -12.8820   18.6950 C   0  0  0  0  0  2  0  0  0  0  0  0
  -29.5370  -12.7890   17.5610 C   0  0  0  0  0  2  0  0  0  0  0  0
  -28.1310  -12.5870   18.1500 C   0  0  0  0  0  2  0  0  0  0  0  0
  -27.8540  -13.5370   19.3430 C   0  0  0  0  0  3  0  0  0  0  0  0
  -29.0210  -13.5890   20.3520 C   0  0  0  0  0  2  0  0  0  0  0  0
  -30.2020  -14.0260   19.5920 N   0  0  0  0  0  0  0  0  0  0  0  0
  -32.0850  -15.1390   19.2590 O   0  0  0  0  0  0  0  0  0  0  0  0
  -30.4640  -19.4030   19.0390 C   0  0  0  0  0  2  0  0  0  0  0  0
  -28.7980  -18.7540   20.5200 C   0  0  0  0  0  2  0  0  0  0  0  0
  -31.0750  -17.8520   19.1300 C   0  0  0  0  0  2  0  0  0  0  0  0
  -29.3800  -17.2220   20.6870 C   0  0  0  0  0  2  0  0  0  0  0  0
  -29.7730  -20.0370   20.3280 C   0  0  0  0  0  3  0  0  0  0  0  0
  -30.3360  -16.6100   19.6850 N   0  0  0  0  0  0  0  0  0  0  0  0
  -25.6210  -14.1700   20.3990 C   0  0  0  0  0  0  0  0  0  0  0  0
  -24.5570  -13.4280   20.8290 C   0  0  0  0  0  0  0  0  0  0  0  0
  -24.9300  -12.0600   20.6430 C   0  0  0  0  0  0  0  0  0  0  0  0
  -26.5730  -13.2600   19.9780 N   0  0  0  0  0  0  0  0  0  0  0  0
  -26.1760  -11.9790   20.1910 N   0  0  0  0  0  0  0  0  0  0  0  0
  -24.1460  -10.8290   20.8190 C   0  0  0  0  0  0  0  0  0  0  0  0
  -24.5740   -9.7970   21.6840 C   0  0  0  0  0  3  0  0  0  0  0  0
  -23.7920   -8.6340   21.8510 C   0  0  0  0  0  3  0  0  0  0  0  0
  -22.5680   -8.4930   21.1540 C   0  0  0  0  0  0  0  0  0  0  0  0
  -22.1590   -9.5120   20.2750 C   0  0  0  0  0  3  0  0  0  0  0  0
  -22.9410  -10.6680   20.1060 C   0  0  0  0  0  3  0  0  0  0  0  0
  -21.7560   -7.3880   21.2370 O   0  0  0  0  0  0  0  0  0  0  0  0
  -21.6880   -6.6270   22.3750 C   0  0  0  0  0  0  0  0  0  0  0  0
  -21.2930   -7.1760   23.6150 C   0  0  0  0  0  3  0  0  0  0  0  0
  -21.1700   -6.3450   24.7450 C   0  0  0  0  0  3  0  0  0  0  0  0
  -21.4310   -4.9660   24.6390 C   0  0  0  0  0  0  0  0  0  0  0  0
  -21.8190   -4.4170   23.4050 C   0  0  0  0  0  3  0  0  0  0  0  0
  -21.9440   -5.2450   22.2750 C   0  0  0  0  0  0  0  0  0  0  0  0
  -22.2980   -4.7070   21.0830 F   0  0  0  0  0  0  0  0  0  0  0  0
  -21.3060   -4.1660   25.7230 F   0  0  0  0  0  0  0  0  0  0  0  0
  -23.2310  -13.9590   21.2870 C   0  0  0  0  0  0  0  0  0  0  0  0
  -22.5730  -13.2560   22.2010 N   0  0  0  0  0  0  0  0  0  0  0  0
  -22.7940  -15.0310   20.8690 O   0  0  0  0  0  0  0  0  0  0  0  0
  -22.9420  -12.3870   22.5560 H   0  0  0  0  0  0  0  0  0  0  0  0
  -21.6860  -13.5920   22.5510 H   0  0  0  0  0  0  0  0  0  0  0  0
  -25.8540  -15.5390   20.3030 N   0  0  0  0  0  0  0  0  0  0  0  0
  -25.1490  -16.2290   20.5380 H   0  0  0  0  0  0  0  0  0  0  0  0
  -26.6860  -15.9480   19.9010 H   0  0  0  0  0  0  0  0  0  0  0  0
  -30.3170  -22.3040   21.3430 C   0  0  0  0  0  2  0  0  0  0  0  0
  -31.6650  -22.0190   25.5730 C   0  0  0  0  0  2  0  0  0  0  0  0
  -32.1430  -20.9760   24.5520 C   0  0  0  0  0  2  0  0  0  0  0  0
  -30.2270  -22.4750   25.2760 C   0  0  0  0  0  2  0  0  0  0  0  0
  -31.9860  -21.4910   23.1100 C   0  0  0  0  0  2  0  0  0  0  0  0
  -30.0780  -22.9760   23.8280 C   0  0  0  0  0  2  0  0  0  0  0  0
  -30.5240  -21.8940   22.8240 C   0  0  0  0  0  3  0  0  0  0  0  0
  -28.6380  -22.7680   19.5890 C   0  0  0  0  0  2  0  0  0  0  0  0
  -27.9340  -24.3170   20.0990 C   0  0  0  0  0  2  0  0  0  0  0  0
  -28.1370  -25.8690   19.6800 O   0  0  0  0  0  0  0  0  0  0  0  0
  -24.6020  -31.5640   23.0320 C   0  0  0  0  0  0  0  0  0  0  0  0
  -27.0940  -26.9070   19.7290 C   0  0  0  0  0  0  0  0  0  0  0  0
  -23.3510  -30.1960   21.4110 C   0  0  0  0  0  3  0  0  0  0  0  0
  -24.7540  -28.6910   19.8600 C   0  0  0  0  0  0  0  0  0  0  0  0
  -25.8940  -30.4960   21.1280 C   0  0  0  0  0  2  0  0  0  0  0  0
  -25.9620  -29.1150   20.4280 C   0  0  0  0  0  0  0  0  0  0  0  0
  -27.1300  -28.2450   20.3400 C   0  0  0  0  0  3  0  0  0  0  0  0
  -25.8560  -26.6260   19.1080 C   0  0  0  0  0  3  0  0  0  0  0  0
  -24.7210  -27.4630   19.1800 C   0  0  0  0  0  3  0  0  0  0  0  0
  -23.5190  -29.5720   20.0010 C   0  0  0  0  0  2  0  0  0  0  0  0
  -24.6390  -30.7770   21.9100 N   0  0  0  0  0  0  0  0  0  0  0  0
  -23.5370  -31.8070   23.6210 O   0  0  0  0  0  0  0  0  0  0  0  0
  -22.7400  -29.1460   22.3730 C   0  0  0  0  0  0  0  0  0  0  0  0
  -21.4290  -28.8720   22.2400 N   0  0  0  0  0  0  0  0  0  0  0  0
  -23.4500  -28.5800   23.2080 O   0  0  0  0  0  0  0  0  0  0  0  0
  -20.9080  -29.3860   21.5430 H   0  0  0  0  0  0  0  0  0  0  0  0
  -18.1810  -27.3080   22.6330 C   0  0  0  0  0  0  0  0  0  0  0  0
  -20.6770  -27.8730   23.0060 C   0  0  0  0  0  3  0  0  0  0  0  0
  -20.9680  -26.4420   22.4950 C   0  0  0  0  0  2  0  0  0  0  0  0
  -19.9630  -25.9610   21.4460 C   0  0  0  0  0  2  0  0  0  0  0  0
  -18.5430  -25.9650   22.0190 C   0  0  0  0  0  2  0  0  0  0  0  0
  -19.1820  -28.2100   23.0810 C   0  0  0  0  0  0  0  0  0  0  0  0
  -18.7910  -29.4570   23.6160 C   0  0  0  0  0  3  0  0  0  0  0  0
  -17.4300  -29.8060   23.7070 C   0  0  0  0  0  3  0  0  0  0  0  0
  -16.4430  -28.9030   23.2760 C   0  0  0  0  0  3  0  0  0  0  0  0
  -16.8180  -27.6580   22.7420 C   0  0  0  0  0  3  0  0  0  0  0  0
  -25.8920  -32.2130   23.6160 C   0  0  0  0  0  3  0  0  0  0  0  0
  -26.4820  -31.4210   24.8490 C   0  0  1  0  0  0  0  0  0  0  0  0
  -25.4440  -31.1310   25.9590 C   0  0  0  0  0  1  0  0  0  0  0  0
  -27.0760  -30.0670   24.3990 C   0  0  0  0  0  1  0  0  0  0  0  0
  -27.6470  -32.2230   25.4760 C   0  0  0  0  0  1  0  0  0  0  0  0
  -25.5650  -33.5960   24.0070 N   0  0  0  0  0  0  0  0  0  0  0  0
  -25.9060  -34.6890   23.3130 C   0  0  0  0  0  0  0  0  0  0  0  0
  -26.5950  -34.6430   22.2910 O   0  0  0  0  0  0  0  0  0  0  0  0
  -24.9610  -33.7070   24.8070 H   0  0  0  0  0  0  0  0  0  0  0  0
  -24.1810  -36.5000   23.0290 C   0  0  0  0  0  1  0  0  0  0  0  0
  -25.4090  -36.0530   23.8370 C   0  0  0  0  0  3  0  0  0  0  0  0
  -27.5280  -36.8970   24.7480 C   0  0  0  0  0  1  0  0  0  0  0  0
  -26.4400  -37.1120   23.7970 N   0  0  0  0  0  0  0  0  0  0  0  0
  -26.0290  -38.0220   23.9910 H   0  0  0  0  0  0  0  0  0  0  0  0
  1  2  1  1
  1 45  1  0
  3 16  1  0
  4  9  1  0
  5  6  1  0
  5  4  1  0
  7  6  1  0
  7 20  1  0
  7  8  1  0
  9  3  1  0
  9  8  1  0
 10  3  2  0
 11 13  1  0
 11 15  1  0
 12 14  1  0
 13 16  1  0
 15 12  1  0
 15  1  1  0
 16 14  1  0
 17 18  2  0
 18 37  1  0
 19 22  1  0
 19 18  1  0
 20 21  1  0
 20 17  1  0
 21 19  2  0
 22 23  1  0
 23 24  2  0
 25 28  1  0
 25 24  1  0
 26 25  2  0
 27 26  1  0
 27 22  2  0
 28 29  1  0
 29 30  1  0
 30 31  2  0
 32 31  1  0
 32 36  1  0
 33 32  2  0
 34 29  2  0
 34 33  1  0
 35 34  1  0
 37 38  1  0
 38 41  1  0
 38 40  1  0
 39 37  2  0
 42 17  1  0
 42 43  1  0
 44 42  1  0
 45 51  1  0
 47 46  1  0
 48 46  1  0
 49 47  1  0
 50 48  1  0
 51 49  1  0
 51 50  1  0
 52 53  1  0
 52  1  1  0
 54 56  1  0
 54 53  1  0
 55 66  2  0
 56 61  1  0
 57 65  1  0
 57 67  1  0
 58 64  1  0
 58 60  1  0
 59 65  1  0
 60 59  1  0
 61 60  2  0
 62 63  1  0
 62 56  2  0
 63 58  2  0
 64 57  1  0
 65 55  1  0
 67 69  2  0
 68 67  1  0
 70 68  1  0
 71 80  2  0
 71 76  1  0
 72 68  1  0
 72 76  1  0
 73 72  1  0
 74 75  1  0
 74 73  1  0
 75 71  1  0
 76 77  2  0
 77 78  1  0
 79 78  2  0
 80 79  1  0
 81 55  1  0
 81 86  1  0
 81 82  1  0
 82 85  1  1
 82 83  1  0
 84 82  1  0
 86 89  1  0
 87 91  1  0
 87 86  1  0
 88 87  2  0
 91 90  1  0
 93 91  1  0
 93 94  1  0
 93 92  1  0
M  ISO  4   3 100  16 100  53 101  54 101
M  END
>  <TORSDO>  (17) 
F 20

>  <SCORE>  (17) 
-12.439

>  <name>  (17) 
16

>  <ligand_id>  (17) 
16

>  <original_smiles>  (17) 
[H]c1c([H])c([H])c2c(c1[H])C([H])([H])C([H])([H])C([H])([H])C2([H])N([H])C(=O)C1([H])N(C(=O)C([H])(N([H])C(=O)C([H])(N([H])C([H])([H])[H])C([H])([H])[H])C(C([H])([H])[H])(C([H])([H])[H])C([H])([H])[H])C([H])([H])c2c([H])c(OC([H])([H])C([H])([H])[N+]([H])(C([H])([H])C3([H])C([H])([H])C([H])([H])C([H])([H])C([H])([H])C3([H])[H])C3([H])C([H])([H])C([H])([H])N(C(=O)N4C([H])([H])C([H])([H])C([H])([H])C([H])(n5nc(-c6c([H])c([H])c(Oc7c([H])c([H])c(F)c([H])c7F)c([H])c6[H])c(C(=O)N([H])[H])c5N([H])[H])C4([H])[H])C([H])([H])C3([H])[H])c([H])c([H])c2C1([H])[H]

>  <smiles>  (17) 
[H]c1c([H])c([H])c2c(c1[H])C([H])([H])C([H])([H])C([H])([H])C2([H])N([H])C(=O)C1([H])N(C(=O)C([H])(N([H])C(=O)C([H])(N([H])C([H])([H])[H])C([H])([H])[H])C(C([H])([H])[H])(C([H])([H])[H])C([H])([H])[H])C([H])([H])c2c([H])c(OC([H])([H])C([H])([H])[N+]([H])(C([H])([H])C3([H])C([H])([H])C([H])([H])C([H])([H])C([H])([H])C3([H])[H])C3([H])C([H])([H])C([H])([H])N(C(=O)N4C([H])([H])C([H])([H])C([H])([H])C([H])(n5nc(-c6c([H])c([H])c(Oc7c([H])c([H])c(F)c([H])c7F)c([H])c6[H])c(C(=O)N([H])[H])c5N([H])[H])C4([H])[H])C([H])([H])C3([H])[H])c([H])c([H])c2C1([H])[H]

$$$$
17:0:0
     RDKit          3D

100108  0  0  1  0  0  0  0  0999 V2000
  -30.0610  -21.0040   20.6700 N   0  0  1  0  0  4  0  0  0  0  0  0
  -30.5040  -21.2070   21.5550 H   0  0  0  0  0  0  0  0  0  0  0  0
  -33.0250  -22.1340   17.6320 C   0  0  0  0  0  2  0  0  0  0  0  0
  -31.8940  -21.1790   17.2230 C   0  0  0  0  0  2  0  0  0  0  0  0
  -33.5050  -21.8330   19.0610 C   0  0  0  0  0  2  0  0  0  0  0  0
  -30.7170  -21.2600   18.2090 C   0  0  0  0  0  2  0  0  0  0  0  0
  -32.3490  -21.9290   20.0760 C   0  0  0  0  0  2  0  0  0  0  0  0
  -31.1750  -21.0100   19.6700 C   0  0  0  0  0  3  0  0  0  0  0  0
  -29.0100  -22.1830   20.4650 C   0  0  0  0  0  2  0  0  0  0  0  0
  -29.3770  -23.8230   20.4220 C   0  0  0  0  0  3  0  0  0  0  0  0
  -28.2470  -25.0370   20.2310 C   0  0  0  0  0  3  0  0  0  0  0  0
  -28.5080  -26.5570   20.2570 O   0  0  0  0  0  0  0  0  0  0  0  0
  -24.9110  -32.1430   23.3810 C   0  0  0  0  0  0  0  0  0  0  0  0
  -27.4280  -27.5050   20.2280 C   0  0  0  0  0  0  0  0  0  0  0  0
  -23.6750  -30.7840   21.7340 C   0  0  0  0  0  3  0  0  0  0  0  0
  -25.0940  -29.2320   20.2630 C   0  0  0  0  0  0  0  0  0  0  0  0
  -26.2270  -31.0490   21.5340 C   0  0  0  0  0  2  0  0  0  0  0  0
  -26.2830  -29.6720   20.8590 C   0  0  0  0  0  0  0  0  0  0  0  0
  -27.4500  -28.8250   20.8230 C   0  0  0  0  0  3  0  0  0  0  0  0
  -26.2110  -27.1580   19.5980 C   0  0  0  0  0  3  0  0  0  0  0  0
  -25.0680  -27.9870   19.6220 C   0  0  0  0  0  3  0  0  0  0  0  0
  -23.8720  -30.1310   20.3410 C   0  0  0  0  0  2  0  0  0  0  0  0
  -24.9580  -31.3440   22.2730 N   0  0  0  0  0  0  0  0  0  0  0  0
  -23.8340  -32.4250   23.9290 O   0  0  0  0  0  0  0  0  0  0  0  0
  -23.0050  -29.7630   22.6840 C   0  0  0  0  0  0  0  0  0  0  0  0
  -21.6790  -29.5850   22.5530 N   0  0  0  0  0  0  0  0  0  0  0  0
  -23.6810  -29.1320   23.5000 O   0  0  0  0  0  0  0  0  0  0  0  0
  -21.1880  -30.1440   21.8690 H   0  0  0  0  0  0  0  0  0  0  0  0
  -18.3060  -28.3570   23.0150 C   0  0  0  0  0  0  0  0  0  0  0  0
  -20.8590  -28.6390   23.3130 C   0  0  0  0  0  3  0  0  0  0  0  0
  -20.9800  -27.2100   22.7300 C   0  0  0  0  0  2  0  0  0  0  0  0
  -19.8910  -26.8830   21.7050 C   0  0  0  0  0  2  0  0  0  0  0  0
  -18.5020  -27.0120   22.3350 C   0  0  0  0  0  2  0  0  0  0  0  0
  -19.4140  -29.1270   23.4600 C   0  0  0  0  0  0  0  0  0  0  0  0
  -19.1770  -30.3860   24.0550 C   0  0  0  0  0  3  0  0  0  0  0  0
  -17.8670  -30.8740   24.2130 C   0  0  0  0  0  3  0  0  0  0  0  0
  -16.7730  -30.0990   23.7870 C   0  0  0  0  0  3  0  0  0  0  0  0
  -16.9930  -28.8430   23.1940 C   0  0  0  0  0  3  0  0  0  0  0  0
  -26.2030  -32.7550   24.0020 C   0  0  0  0  0  3  0  0  0  0  0  0
  -25.9160  -34.1580   24.3440 N   0  0  0  0  0  0  0  0  0  0  0  0
  -26.2660  -35.2120   23.5960 C   0  0  0  0  0  0  0  0  0  0  0  0
  -26.9290  -35.1050   22.5610 O   0  0  0  0  0  0  0  0  0  0  0  0
  -25.3210  -34.3160   25.1440 H   0  0  0  0  0  0  0  0  0  0  0  0
  -24.5630  -37.0360   23.2700 C   0  0  0  0  0  1  0  0  0  0  0  0
  -25.8050  -36.6050   24.0670 C   0  0  0  0  0  3  0  0  0  0  0  0
  -27.9620  -37.4480   24.8870 C   0  0  0  0  0  1  0  0  0  0  0  0
  -26.8540  -37.6420   23.9540 N   0  0  0  0  0  0  0  0  0  0  0  0
  -26.4650  -38.5680   24.1160 H   0  0  0  0  0  0  0  0  0  0  0  0
  -26.7070  -31.9710   25.2740 C   0  0  1  0  0  0  0  0  0  0  0  0
  -25.6080  -31.7490   26.3400 C   0  0  0  0  0  1  0  0  0  0  0  0
  -27.2660  -30.5850   24.8780 C   0  0  0  0  0  1  0  0  0  0  0  0
  -27.8720  -32.7410   25.9400 C   0  0  0  0  0  1  0  0  0  0  0  0
  -29.5170  -19.5270   20.8470 C   0  0  0  0  0  2  0  0  0  0  0  0
  -30.4070  -18.1700   21.3840 C   0  0  0  0  0  2  0  0  0  0  0  0
  -30.7380  -15.4300   21.3650 C   0  0  0  0  0  0  0  0  0  0  0  0
  -30.8990  -13.0040   20.5880 C   0  0  0  0  0  2  0  0  0  0  0  0
  -30.2170  -12.7030   19.2320 C   0  0  0  0  0  2  0  0  0  0  0  0
  -28.7160  -12.4060   19.4280 C   0  0  0  0  0  2  0  0  0  0  0  0
  -28.0290  -13.4000   20.3870 C   0  0  0  0  0  3  0  0  0  0  0  0
  -28.8620  -13.6670   21.6650 C   0  0  0  0  0  2  0  0  0  0  0  0
  -30.1850  -14.1460   21.2330 N   0  0  0  0  0  0  0  0  0  0  0  0
  -31.9640  -15.4740   21.5100 O   0  0  0  0  0  0  0  0  0  0  0  0
  -30.0040  -16.6570   21.1100 N   0  0  0  0  0  0  0  0  0  0  0  0
  -25.5350  -13.9250   20.6870 C   0  0  0  0  0  0  0  0  0  0  0  0
  -24.4590  -13.1110   20.8950 C   0  0  0  0  0  0  0  0  0  0  0  0
  -24.9870  -11.7930   21.0350 C   0  0  0  0  0  0  0  0  0  0  0  0
  -26.6420  -13.0870   20.6800 N   0  0  0  0  0  0  0  0  0  0  0  0
  -26.3110  -11.8080   20.9700 N   0  0  0  0  0  0  0  0  0  0  0  0
  -24.3080  -10.5030   21.1630 C   0  0  0  0  0  0  0  0  0  0  0  0
  -24.6300   -9.6040   22.2010 C   0  0  0  0  0  3  0  0  0  0  0  0
  -23.9500   -8.3740   22.3110 C   0  0  0  0  0  3  0  0  0  0  0  0
  -22.9380   -8.0360   21.3820 C   0  0  0  0  0  0  0  0  0  0  0  0
  -22.6400   -8.9270   20.3360 C   0  0  0  0  0  3  0  0  0  0  0  0
  -23.3200  -10.1490   20.2230 C   0  0  0  0  0  3  0  0  0  0  0  0
  -22.2380   -6.8560   21.4010 O   0  0  0  0  0  0  0  0  0  0  0  0
  -22.0330   -6.1620   22.5680 C   0  0  0  0  0  0  0  0  0  0  0  0
  -21.3990   -6.7490   23.6820 C   0  0  0  0  0  3  0  0  0  0  0  0
  -21.1460   -5.9780   24.8350 C   0  0  0  0  0  3  0  0  0  0  0  0
  -21.5150   -4.6200   24.8690 C   0  0  0  0  0  0  0  0  0  0  0  0
  -22.1420   -4.0310   23.7580 C   0  0  0  0  0  3  0  0  0  0  0  0
  -22.3970   -4.8000   22.6070 C   0  0  0  0  0  0  0  0  0  0  0  0
  -22.9840   -4.2250   21.5300 F   0  0  0  0  0  0  0  0  0  0  0  0
  -21.2620   -3.8770   25.9730 F   0  0  0  0  0  0  0  0  0  0  0  0
  -23.0150  -13.5180   20.8650 C   0  0  0  0  0  0  0  0  0  0  0  0
  -22.1750  -12.8470   21.6410 N   0  0  0  0  0  0  0  0  0  0  0  0
  -22.6350  -14.4710   20.1830 O   0  0  0  0  0  0  0  0  0  0  0  0
  -22.4910  -12.0870   22.2240 H   0  0  0  0  0  0  0  0  0  0  0  0
  -21.1980  -13.1000   21.6530 H   0  0  0  0  0  0  0  0  0  0  0  0
  -25.6350  -15.2950   20.4760 N   0  0  0  0  0  0  0  0  0  0  0  0
  -24.8090  -15.8800   20.4290 H   0  0  0  0  0  0  0  0  0  0  0  0
  -26.4860  -15.8050   20.2930 H   0  0  0  0  0  0  0  0  0  0  0  0
  -28.8330  -16.6760   20.2110 C   0  0  0  0  0  2  0  0  0  0  0  0
  -29.1190  -17.0780   18.7240 C   0  0  0  0  0  3  0  0  0  0  0  0
  -27.9350  -17.3810   16.4380 C   0  0  0  0  0  1  0  0  0  0  0  0
  -27.7900  -17.3070   17.9650 C   0  0  0  0  0  2  0  0  0  0  0  0
  -30.0800  -18.2920   18.5130 C   0  0  0  0  0  2  0  0  0  0  0  0
  -31.1690  -18.0010   17.5590 N   0  0  0  0  0  4  0  0  0  0  0  0
  -31.8000  -17.3150   17.9330 H   0  0  0  0  0  0  0  0  0  0  0  0
  -31.7000  -18.8360   17.3780 H   0  0  0  0  0  0  0  0  0  0  0  0
  -30.8120  -17.6690   16.6810 H   0  0  0  0  0  0  0  0  0  0  0  0
  1 53  1  0
  1  2  1  1
  3  5  1  0
  4  3  1  0
  4  6  1  0
  5  7  1  0
  6  8  1  0
  8  7  1  0
  8  1  1  0
  9  1  1  0
 10  9  1  0
 11 12  1  0
 11 10  2  0
 13 24  2  0
 14 12  1  0
 14 19  1  0
 15 23  1  0
 15 25  1  0
 16 22  1  0
 16 18  1  0
 17 23  1  0
 18 17  1  0
 19 18  2  0
 20 21  1  0
 20 14  2  0
 21 16  2  0
 22 15  1  0
 23 13  1  0
 25 27  2  0
 26 25  1  0
 28 26  1  0
 29 38  2  0
 29 34  1  0
 30 26  1  0
 30 34  1  0
 31 30  1  0
 32 33  1  0
 32 31  1  0
 33 29  1  0
 34 35  2  0
 35 36  1  0
 37 36  2  0
 38 37  1  0
 39 13  1  0
 39 40  1  0
 39 49  1  0
 40 43  1  0
 41 45  1  0
 41 40  1  0
 42 41  2  0
 45 44  1  0
 47 45  1  0
 47 48  1  0
 47 46  1  0
 49 52  1  1
 49 50  1  0
 51 49  1  0
 53 54  1  0
 55 62  2  0
 56 61  1  0
 57 58  1  0
 57 56  1  0
 59 58  1  0
 59 67  1  0
 59 60  1  0
 61 55  1  0
 61 60  1  0
 63 55  1  0
 63 54  1  0
 64 65  2  0
 65 66  1  0
 66 69  1  0
 67 64  1  0
 67 68  1  0
 68 66  2  0
 69 70  1  0
 70 71  2  0
 72 75  1  0
 72 71  1  0
 73 72  2  0
 74 73  1  0
 74 69  2  0
 75 76  1  0
 76 81  2  0
 76 77  1  0
 77 78  2  0
 78 79  1  0
 79 83  1  0
 80 79  2  0
 81 80  1  0
 82 81  1  0
 84 65  1  0
 84 85  1  0
 85 88  1  0
 85 87  1  0
 86 84  2  0
 89 64  1  0
 90 89  1  0
 91 89  1  0
 92 63  1  0
 93 95  1  0
 93 92  1  0
 94 95  1  0
 96 93  1  0
 97 98  1  0
 97 96  1  0
 99 97  1  0
100 97  1  0
M  ISO  4  11 101  12 101  55 100  63 100
M  END
>  <TORSDO>  (18) 
F 27

>  <SCORE>  (18) 
-8.499

>  <name>  (18) 
17

>  <ligand_id>  (18) 
17

>  <original_smiles>  (18) 
[H]c1c([H])c([H])c2c(c1[H])C([H])([H])C([H])([H])C([H])([H])C2([H])N([H])C(=O)C1([H])N(C(=O)C([H])(N([H])C(=O)C([H])(N([H])C([H])([H])[H])C([H])([H])[H])C(C([H])([H])[H])(C([H])([H])[H])C([H])([H])[H])C([H])([H])c2c([H])c(OC([H])([H])C([H])([H])C([H])([H])[N+]([H])(C([H])([H])C([H])([H])N(C(=O)N3C([H])([H])C([H])([H])C([H])([H])C([H])(n4nc(-c5c([H])c([H])c(Oc6c([H])c([H])c(F)c([H])c6F)c([H])c5[H])c(C(=O)N([H])[H])c4N([H])[H])C3([H])[H])C([H])([H])C([H])(C([H])([H])C([H])([H])[H])C([H])([H])[N+]([H])([H])[H])C3([H])C([H])([H])C([H])([H])C([H])([H])C([H])([H])C3([H])[H])c([H])c([H])c2C1([H])[H]

>  <smiles>  (18) 
[H]c1c([H])c([H])c2c(c1[H])C([H])([H])C([H])([H])C([H])([H])C2([H])N([H])C(=O)C1([H])N(C(=O)C([H])(N([H])C(=O)C([H])(N([H])C([H])([H])[H])C([H])([H])[H])C(C([H])([H])[H])(C([H])([H])[H])C([H])([H])[H])C([H])([H])c2c([H])c(OC([H])([H])C([H])([H])C([H])([H])[N+]([H])(C([H])([H])C([H])([H])N(C(=O)N3C([H])([H])C([H])([H])C([H])([H])C([H])(n4nc(-c5c([H])c([H])c(Oc6c([H])c([H])c(F)c([H])c6F)c([H])c5[H])c(C(=O)N([H])[H])c4N([H])[H])C3([H])[H])C([H])([H])C([H])(C([H])([H])C([H])([H])[H])C([H])([H])[N+]([H])([H])[H])C3([H])C([H])([H])C([H])([H])C([H])([H])C([H])([H])C3([H])[H])c([H])c([H])c2C1([H])[H]

$$$$
18:0:0
     RDKit          3D

 91 99  0  0  1  0  0  0  0  0999 V2000
  -27.7650  -19.4670   19.1210 C   0  0  0  0  0  1  0  0  0  0  0  0
  -29.0040  -19.6060   19.9310 N   0  0  2  0  0  4  0  0  0  0  0  0
  -29.7600  -19.6730   19.2650 H   0  0  0  0  0  0  0  0  0  0  0  0
  -31.6540  -18.4440   21.1190 C   0  0  0  0  0  2  0  0  0  0  0  0
  -31.4330  -17.6850   19.8030 C   0  0  0  0  0  2  0  0  0  0  0  0
  -30.2950  -18.4460   21.8230 C   0  0  0  0  0  2  0  0  0  0  0  0
  -29.9820  -17.1420   19.8270 C   0  0  0  0  0  3  0  0  0  0  0  0
  -29.2710  -18.2880   20.6890 C   0  0  0  0  0  3  0  0  0  0  0  0
  -30.6000  -14.5860   19.9530 C   0  0  0  0  0  0  0  0  0  0  0  0
  -30.2850  -12.3390   18.9450 C   0  0  0  0  0  2  0  0  0  0  0  0
  -29.2800  -12.4800   17.7790 C   0  0  0  0  0  2  0  0  0  0  0  0
  -27.8340  -12.3360   18.2930 C   0  0  0  0  0  2  0  0  0  0  0  0
  -27.5610  -13.2100   19.5460 C   0  0  0  0  0  3  0  0  0  0  0  0
  -28.6800  -13.0610   20.6020 C   0  0  0  0  0  2  0  0  0  0  0  0
  -29.9550  -13.3770   19.9470 N   0  0  0  0  0  0  0  0  0  0  0  0
  -31.7190  -14.6840   19.4470 O   0  0  0  0  0  0  0  0  0  0  0  0
  -29.8750  -15.7020   20.3250 N   0  0  0  0  0  0  0  0  0  0  0  0
  -29.0250  -15.4800   20.8210 H   0  0  0  0  0  0  0  0  0  0  0  0
  -25.2340  -13.8380   20.4310 C   0  0  0  0  0  0  0  0  0  0  0  0
  -24.1790  -13.0780   20.8570 C   0  0  0  0  0  0  0  0  0  0  0  0
  -24.6090  -11.7190   20.7710 C   0  0  0  0  0  0  0  0  0  0  0  0
  -26.2430  -12.9430   20.1130 N   0  0  0  0  0  0  0  0  0  0  0  0
  -25.8760  -11.6620   20.3770 N   0  0  0  0  0  0  0  0  0  0  0  0
  -23.8700  -10.4670   20.9850 C   0  0  0  0  0  0  0  0  0  0  0  0
  -24.3310   -9.4840   21.8870 C   0  0  0  0  0  3  0  0  0  0  0  0
  -23.5940   -8.2970   22.0910 C   0  0  0  0  0  3  0  0  0  0  0  0
  -22.3810   -8.0860   21.3940 C   0  0  0  0  0  0  0  0  0  0  0  0
  -21.9400   -9.0570   20.4790 C   0  0  0  0  0  3  0  0  0  0  0  0
  -22.6760  -10.2360   20.2730 C   0  0  0  0  0  3  0  0  0  0  0  0
  -21.6130   -6.9510   21.5060 O   0  0  0  0  0  0  0  0  0  0  0  0
  -21.5920   -6.2100   22.6620 C   0  0  0  0  0  0  0  0  0  0  0  0
  -21.2020   -6.7690   23.8980 C   0  0  0  0  0  3  0  0  0  0  0  0
  -21.1280   -5.9540   25.0460 C   0  0  0  0  0  3  0  0  0  0  0  0
  -21.4310   -4.5830   24.9580 C   0  0  0  0  0  0  0  0  0  0  0  0
  -21.8120   -4.0230   23.7250 C   0  0  0  0  0  3  0  0  0  0  0  0
  -21.8890   -4.8350   22.5790 C   0  0  0  0  0  0  0  0  0  0  0  0
  -22.2370   -4.2880   21.3890 F   0  0  0  0  0  0  0  0  0  0  0  0
  -21.3520   -3.7970   26.0580 F   0  0  0  0  0  0  0  0  0  0  0  0
  -22.8120  -13.5780   21.2300 C   0  0  0  0  0  0  0  0  0  0  0  0
  -22.1320  -12.8810   22.1340 N   0  0  0  0  0  0  0  0  0  0  0  0
  -22.3610  -14.6180   20.7530 O   0  0  0  0  0  0  0  0  0  0  0  0
  -22.5140  -12.0400   22.5400 H   0  0  0  0  0  0  0  0  0  0  0  0
  -21.2160  -13.1950   22.4230 H   0  0  0  0  0  0  0  0  0  0  0  0
  -25.4190  -15.2070   20.2630 N   0  0  0  0  0  0  0  0  0  0  0  0
  -24.6630  -15.8700   20.3990 H   0  0  0  0  0  0  0  0  0  0  0  0
  -26.2410  -15.6210   19.8480 H   0  0  0  0  0  0  0  0  0  0  0  0
  -29.0490  -20.9430   20.6890 C   0  0  0  0  0  3  0  0  0  0  0  0
  -28.7050  -22.2880   19.8850 C   0  0  0  0  0  3  0  0  0  0  0  0
  -28.8410  -23.7170   20.5970 C   0  0  0  0  0  3  0  0  0  0  0  0
  -28.1840  -24.9450   19.8290 C   0  0  0  0  0  3  0  0  0  0  0  0
  -28.3410  -26.3550   20.2940 O   0  0  0  0  0  0  0  0  0  0  0  0
  -24.6110  -31.7950   23.2340 C   0  0  0  0  0  0  0  0  0  0  0  0
  -27.2550  -27.2450   20.1850 C   0  0  0  0  0  0  0  0  0  0  0  0
  -23.4430  -30.4160   21.5590 C   0  0  0  0  0  3  0  0  0  0  0  0
  -24.9140  -28.8930   20.1350 C   0  0  0  0  0  0  0  0  0  0  0  0
  -25.9910  -30.7260   21.4320 C   0  0  0  0  0  2  0  0  0  0  0  0
  -26.0710  -29.3550   20.7730 C   0  0  0  0  0  0  0  0  0  0  0  0
  -27.2430  -28.5370   20.7990 C   0  0  0  0  0  3  0  0  0  0  0  0
  -26.0840  -26.8710   19.4820 C   0  0  0  0  0  3  0  0  0  0  0  0
  -24.9220  -27.6560   19.4840 C   0  0  0  0  0  3  0  0  0  0  0  0
  -23.6810  -29.7740   20.1700 C   0  0  0  0  0  2  0  0  0  0  0  0
  -24.6990  -30.9960   22.1310 N   0  0  0  0  0  0  0  0  0  0  0  0
  -23.5150  -32.0630   23.7450 O   0  0  0  0  0  0  0  0  0  0  0  0
  -22.7680  -29.3780   22.4890 C   0  0  0  0  0  0  0  0  0  0  0  0
  -21.4450  -29.1930   22.3290 N   0  0  0  0  0  0  0  0  0  0  0  0
  -23.4320  -28.7470   23.3150 O   0  0  0  0  0  0  0  0  0  0  0  0
  -20.9720  -29.7550   21.6350 H   0  0  0  0  0  0  0  0  0  0  0  0
  -18.0630  -27.9720   22.7210 C   0  0  0  0  0  0  0  0  0  0  0  0
  -20.6110  -28.2450   23.0710 C   0  0  0  0  0  3  0  0  0  0  0  0
  -20.7400  -26.8150   22.4960 C   0  0  0  0  0  2  0  0  0  0  0  0
  -19.6700  -26.4880   21.4520 C   0  0  0  0  0  2  0  0  0  0  0  0
  -18.2680  -26.6250   22.0510 C   0  0  0  0  0  2  0  0  0  0  0  0
  -19.1640  -28.7380   23.1870 C   0  0  0  0  0  0  0  0  0  0  0  0
  -18.9160  -30.0010   23.7730 C   0  0  0  0  0  3  0  0  0  0  0  0
  -17.6040  -30.4890   23.9060 C   0  0  0  0  0  3  0  0  0  0  0  0
  -16.5190  -29.7160   23.4580 C   0  0  0  0  0  3  0  0  0  0  0  0
  -16.7500  -28.4620   22.8670 C   0  0  0  0  0  3  0  0  0  0  0  0
  -25.8750  -32.4270   23.8880 C   0  0  0  0  0  3  0  0  0  0  0  0
  -25.5580  -33.8260   24.2070 N   0  0  0  0  0  0  0  0  0  0  0  0
  -25.8920  -34.8760   23.4460 C   0  0  0  0  0  0  0  0  0  0  0  0
  -26.5740  -34.7710   22.4230 O   0  0  0  0  0  0  0  0  0  0  0  0
  -24.9540  -33.9820   25.0000 H   0  0  0  0  0  0  0  0  0  0  0  0
  -24.1540  -36.6560   23.0810 C   0  0  0  0  0  1  0  0  0  0  0  0
  -25.3980  -36.2640   23.8930 C   0  0  0  0  0  3  0  0  0  0  0  0
  -27.5270  -37.1700   24.7140 C   0  0  0  0  0  1  0  0  0  0  0  0
  -26.4230  -37.3220   23.7710 N   0  0  0  0  0  0  0  0  0  0  0  0
  -26.0090  -38.2410   23.9070 H   0  0  0  0  0  0  0  0  0  0  0  0
  -26.3510  -31.6590   25.1810 C   0  0  1  0  0  0  0  0  0  0  0  0
  -25.2270  -31.4270   26.2200 C   0  0  0  0  0  1  0  0  0  0  0  0
  -26.9400  -30.2770   24.8090 C   0  0  0  0  0  1  0  0  0  0  0  0
  -27.4850  -32.4510   25.8720 C   0  0  0  0  0  1  0  0  0  0  0  0
  1  2  1  0
  2 47  1  0
  2  3  1  6
  4  6  1  0
  5  7  1  0
  5  4  1  0
  7 17  1  0
  7  8  1  0
  8  2  1  0
  8  6  1  0
  9 17  1  0
 10 15  1  0
 11 12  1  0
 11 10  1  0
 13 12  1  0
 13 22  1  0
 13 14  1  0
 15  9  1  0
 15 14  1  0
 16  9  2  0
 17 18  1  0
 19 20  2  0
 20 39  1  0
 21 20  1  0
 21 24  1  0
 22 23  1  0
 22 19  1  0
 23 21  2  0
 24 25  1  0
 25 26  2  0
 27 30  1  0
 27 26  1  0
 28 27  2  0
 29 28  1  0
 29 24  2  0
 30 31  1  0
 31 32  1  0
 32 33  2  0
 34 33  1  0
 34 38  1  0
 35 34  2  0
 36 31  2  0
 36 35  1  0
 37 36  1  0
 39 40  1  0
 40 43  1  0
 40 42  1  0
 41 39  2  0
 44 45  1  0
 44 19  1  0
 46 44  1  0
 48 49  1  0
 48 47  2  0
 50 51  1  0
 50 49  2  0
 52 63  2  0
 53 51  1  0
 53 58  1  0
 54 62  1  0
 54 64  1  0
 55 61  1  0
 55 57  1  0
 56 62  1  0
 57 58  2  0
 57 56  1  0
 59 60  1  0
 59 53  2  0
 60 55  2  0
 61 54  1  0
 62 52  1  0
 64 66  2  0
 65 64  1  0
 67 65  1  0
 68 77  2  0
 68 73  1  0
 69 65  1  0
 69 73  1  0
 70 69  1  0
 71 72  1  0
 71 70  1  0
 72 68  1  0
 73 74  2  0
 74 75  1  0
 76 75  2  0
 77 76  1  0
 78 52  1  0
 78 79  1  0
 78 88  1  0
 79 82  1  0
 80 84  1  0
 80 79  1  0
 81 80  2  0
 84 83  1  0
 86 84  1  0
 86 87  1  0
 86 85  1  0
 88 91  1  1
 88 89  1  0
 90 88  1  0
M  ISO  4   9 100  17 100  50 101  51 101
M  END
>  <TORSDO>  (19) 
F 21

>  <SCORE>  (19) 
-13.226

>  <name>  (19) 
18

>  <ligand_id>  (19) 
18

>  <original_smiles>  (19) 
[H]c1c([H])c([H])c2c(c1[H])C([H])([H])C([H])([H])C([H])([H])C2([H])N([H])C(=O)C1([H])N(C(=O)C([H])(N([H])C(=O)C([H])(N([H])C([H])([H])[H])C([H])([H])[H])C(C([H])([H])[H])(C([H])([H])[H])C([H])([H])[H])C([H])([H])c2c([H])c(OC([H])([H])C([H])([H])C([H])([H])C([H])([H])[N+]([H])(C([H])([H])[H])C3([H])C([H])([H])C([H])([H])C([H])([H])C3([H])N([H])C(=O)N3C([H])([H])C([H])([H])C([H])([H])C([H])(n4nc(-c5c([H])c([H])c(Oc6c([H])c([H])c(F)c([H])c6F)c([H])c5[H])c(C(=O)N([H])[H])c4N([H])[H])C3([H])[H])c([H])c([H])c2C1([H])[H]

>  <smiles>  (19) 
[H]c1c([H])c([H])c2c(c1[H])C([H])([H])C([H])([H])C([H])([H])C2([H])N([H])C(=O)C1([H])N(C(=O)C([H])(N([H])C(=O)C([H])(N([H])C([H])([H])[H])C([H])([H])[H])C(C([H])([H])[H])(C([H])([H])[H])C([H])([H])[H])C([H])([H])c2c([H])c(OC([H])([H])C([H])([H])C([H])([H])C([H])([H])[N+]([H])(C([H])([H])[H])C3([H])C([H])([H])C([H])([H])C([H])([H])C3([H])N([H])C(=O)N3C([H])([H])C([H])([H])C([H])([H])C([H])(n4nc(-c5c([H])c([H])c(Oc6c([H])c([H])c(F)c([H])c6F)c([H])c5[H])c(C(=O)N([H])[H])c4N([H])[H])C3([H])[H])c([H])c([H])c2C1([H])[H]

$$$$
19:0:0
     RDKit          3D

 96104  0  0  1  0  0  0  0  0999 V2000
  -30.4360  -21.0340   18.2850 C   0  0  0  0  0  2  0  0  0  0  0  0
  -30.1940  -22.3100   19.1230 C   0  0  0  0  0  2  0  0  0  0  0  0
  -28.9250  -21.0990   20.8260 C   0  0  0  0  0  2  0  0  0  0  0  0
  -31.1460  -19.8990   19.0690 C   0  0  0  0  0  2  0  0  0  0  0  0
  -28.9130  -19.6350   20.1960 C   0  0  0  0  0  2  0  0  0  0  0  0
  -28.9590  -22.2850   19.9180 N   0  0  0  0  0  0  0  0  0  0  0  0
  -30.2730  -19.0390   19.9270 N   0  0  1  0  0  4  0  0  0  0  0  0
  -30.7200  -19.0970   20.8290 H   0  0  0  0  0  0  0  0  0  0  0  0
  -28.8350  -23.6060   20.6370 C   0  0  0  0  0  3  0  0  0  0  0  0
  -28.0250  -24.7320   19.8770 C   0  0  0  0  0  3  0  0  0  0  0  0
  -28.0680  -26.1070   20.4130 O   0  0  0  0  0  0  0  0  0  0  0  0
  -24.3920  -31.6360   23.2080 C   0  0  0  0  0  0  0  0  0  0  0  0
  -26.9520  -26.9520   20.3000 C   0  0  0  0  0  0  0  0  0  0  0  0
  -23.1840  -30.2320   21.5730 C   0  0  0  0  0  3  0  0  0  0  0  0
  -24.6230  -28.6160   20.2090 C   0  0  0  0  0  0  0  0  0  0  0  0
  -25.7310  -30.4750   21.4410 C   0  0  0  0  0  2  0  0  0  0  0  0
  -25.7880  -29.0820   20.8300 C   0  0  0  0  0  0  0  0  0  0  0  0
  -26.9520  -28.2590   20.8740 C   0  0  0  0  0  3  0  0  0  0  0  0
  -25.7630  -26.5390   19.6490 C   0  0  0  0  0  3  0  0  0  0  0  0
  -24.6120  -27.3460   19.6140 C   0  0  0  0  0  3  0  0  0  0  0  0
  -23.4060  -29.5190   20.2160 C   0  0  0  0  0  2  0  0  0  0  0  0
  -24.4530  -30.7980   22.1310 N   0  0  0  0  0  0  0  0  0  0  0  0
  -23.3050  -31.9670   23.7020 O   0  0  0  0  0  0  0  0  0  0  0  0
  -22.4710  -29.2600   22.5420 C   0  0  0  0  0  0  0  0  0  0  0  0
  -21.1430  -29.1220   22.3890 N   0  0  0  0  0  0  0  0  0  0  0  0
  -23.1120  -28.6290   23.3860 O   0  0  0  0  0  0  0  0  0  0  0  0
  -20.6870  -29.6810   21.6790 H   0  0  0  0  0  0  0  0  0  0  0  0
  -17.7190  -28.0680   22.8690 C   0  0  0  0  0  0  0  0  0  0  0  0
  -20.2820  -28.2290   23.1620 C   0  0  0  0  0  3  0  0  0  0  0  0
  -20.3330  -26.7880   22.6070 C   0  0  0  0  0  2  0  0  0  0  0  0
  -19.2310  -26.4970   21.5840 C   0  0  0  0  0  2  0  0  0  0  0  0
  -17.8480  -26.7050   22.2110 C   0  0  0  0  0  2  0  0  0  0  0  0
  -18.8630  -28.7900   23.3010 C   0  0  0  0  0  0  0  0  0  0  0  0
  -18.6890  -30.0670   23.8770 C   0  0  0  0  0  3  0  0  0  0  0  0
  -17.4060  -30.6280   24.0140 C   0  0  0  0  0  3  0  0  0  0  0  0
  -16.2750  -29.9020   23.6020 C   0  0  0  0  0  3  0  0  0  0  0  0
  -16.4330  -28.6240   23.0360 C   0  0  0  0  0  3  0  0  0  0  0  0
  -25.6820  -32.2420   23.8430 C   0  0  0  0  0  3  0  0  0  0  0  0
  -26.1610  -31.4700   25.1340 C   0  0  1  0  0  0  0  0  0  0  0  0
  -25.0370  -31.2490   26.1760 C   0  0  0  0  0  1  0  0  0  0  0  0
  -26.7360  -30.0830   24.7610 C   0  0  0  0  0  1  0  0  0  0  0  0
  -27.3090  -32.2540   25.8160 C   0  0  0  0  0  1  0  0  0  0  0  0
  -25.4030  -33.6510   24.1560 N   0  0  0  0  0  0  0  0  0  0  0  0
  -25.7440  -34.6870   23.3770 C   0  0  0  0  0  0  0  0  0  0  0  0
  -26.4050  -34.5530   22.3430 O   0  0  0  0  0  0  0  0  0  0  0  0
  -24.8110  -33.8230   24.9540 H   0  0  0  0  0  0  0  0  0  0  0  0
  -24.0440  -36.5020   23.0100 C   0  0  0  0  0  1  0  0  0  0  0  0
  -25.2870  -36.0900   23.8140 C   0  0  0  0  0  3  0  0  0  0  0  0
  -27.4450  -36.9610   24.6020 C   0  0  0  0  0  1  0  0  0  0  0  0
  -26.3360  -37.1220   23.6650 N   0  0  0  0  0  0  0  0  0  0  0  0
  -25.9490  -38.0530   23.7910 H   0  0  0  0  0  0  0  0  0  0  0  0
  -30.4600  -17.5600   19.5830 C   0  0  0  0  0  2  0  0  0  0  0  0
  -29.6850  -16.4400   20.3770 C   0  0  0  0  0  2  0  0  0  0  0  0
  -30.4470  -14.2130   19.3160 C   0  0  0  0  0  0  0  0  0  0  0  0
  -29.7010  -12.2430   17.9880 C   0  0  0  0  0  2  0  0  0  0  0  0
  -28.5450  -12.6280   17.0460 C   0  0  0  0  0  2  0  0  0  0  0  0
  -27.1940  -12.4850   17.7660 C   0  0  0  0  0  2  0  0  0  0  0  0
  -27.1930  -13.1460   19.1710 C   0  0  0  0  0  3  0  0  0  0  0  0
  -28.4560  -12.7770   19.9880 C   0  0  0  0  0  2  0  0  0  0  0  0
  -29.6410  -13.1110   19.1830 N   0  0  0  0  0  0  0  0  0  0  0  0
  -31.3660  -14.4350   18.5260 O   0  0  0  0  0  0  0  0  0  0  0  0
  -30.2800  -15.0470   20.3920 N   0  0  0  0  0  0  0  0  0  0  0  0
  -24.9920  -13.7210   20.3620 C   0  0  0  0  0  0  0  0  0  0  0  0
  -24.0060  -12.9390   20.8950 C   0  0  0  0  0  0  0  0  0  0  0  0
  -24.4300  -11.5840   20.7090 C   0  0  0  0  0  0  0  0  0  0  0  0
  -25.9610  -12.8470   19.8960 N   0  0  0  0  0  0  0  0  0  0  0  0
  -25.6380  -11.5530   20.1590 N   0  0  0  0  0  0  0  0  0  0  0  0
  -23.7320  -10.3200   20.9770 C   0  0  0  0  0  0  0  0  0  0  0  0
  -24.2670   -9.3500   21.8540 C   0  0  0  0  0  3  0  0  0  0  0  0
  -23.5650   -8.1540   22.1110 C   0  0  0  0  0  3  0  0  0  0  0  0
  -22.3120   -7.9170   21.4970 C   0  0  0  0  0  0  0  0  0  0  0  0
  -21.7930   -8.8770   20.6110 C   0  0  0  0  0  3  0  0  0  0  0  0
  -22.4980  -10.0660   20.3480 C   0  0  0  0  0  3  0  0  0  0  0  0
  -21.5700   -6.7740   21.6690 O   0  0  0  0  0  0  0  0  0  0  0  0
  -21.6040   -6.0640   22.8430 C   0  0  0  0  0  0  0  0  0  0  0  0
  -21.2410   -6.6470   24.0780 C   0  0  0  0  0  3  0  0  0  0  0  0
  -21.2280   -5.8640   25.2500 C   0  0  0  0  0  3  0  0  0  0  0  0
  -21.5600   -4.4970   25.1890 C   0  0  0  0  0  0  0  0  0  0  0  0
  -21.9090   -3.9120   23.9580 C   0  0  0  0  0  3  0  0  0  0  0  0
  -21.9300   -4.6940   22.7890 C   0  0  0  0  0  0  0  0  0  0  0  0
  -22.2530   -4.1200   21.6050 F   0  0  0  0  0  0  0  0  0  0  0  0
  -21.5390   -3.7410   26.3110 F   0  0  0  0  0  0  0  0  0  0  0  0
  -22.6950  -13.4070   21.4600 C   0  0  0  0  0  0  0  0  0  0  0  0
  -22.1510  -12.6750   22.4230 N   0  0  0  0  0  0  0  0  0  0  0  0
  -22.1770  -14.4570   21.0810 O   0  0  0  0  0  0  0  0  0  0  0  0
  -22.5870  -11.8170   22.7280 H   0  0  0  0  0  0  0  0  0  0  0  0
  -21.2890  -12.9660   22.8650 H   0  0  0  0  0  0  0  0  0  0  0  0
  -25.1400  -15.0980   20.2140 N   0  0  0  0  0  0  0  0  0  0  0  0
  -24.4050  -15.7390   20.4930 H   0  0  0  0  0  0  0  0  0  0  0  0
  -25.9130  -15.5520   19.7460 H   0  0  0  0  0  0  0  0  0  0  0  0
  -31.2220  -14.9670   21.5400 C   0  0  0  0  0  2  0  0  0  0  0  0
  -32.2290  -13.7820   21.5880 C   0  0  0  0  0  2  0  0  0  0  0  0
  -32.9010  -13.6940   22.9010 N   0  0  0  0  0  4  0  0  0  0  0  0
  -33.4100  -14.5340   23.1140 H   0  0  0  0  0  0  0  0  0  0  0  0
  -33.5490  -12.9260   22.9080 H   0  0  0  0  0  0  0  0  0  0  0  0
  -32.2370  -13.5360   23.6370 H   0  0  0  0  0  0  0  0  0  0  0  0
  1  4  1  0
  1  2  1  0
  2  6  1  0
  4  7  1  0
  5  3  1  0
  6  9  1  0
  6  3  1  0
  7  5  1  0
  7  8  1  1
 10 11  1  0
 10  9  2  0
 12 23  2  0
 13 11  1  0
 13 18  1  0
 14 22  1  0
 14 24  1  0
 15 21  1  0
 15 17  1  0
 16 22  1  0
 17 18  2  0
 17 16  1  0
 19 13  2  0
 20 19  1  0
 20 15  2  0
 21 14  1  0
 22 12  1  0
 24 26  2  0
 25 24  1  0
 27 25  1  0
 28 37  2  0
 28 33  1  0
 29 25  1  0
 29 33  1  0
 30 29  1  0
 31 32  1  0
 31 30  1  0
 32 28  1  0
 33 34  2  0
 34 35  1  0
 36 35  2  0
 37 36  1  0
 38 12  1  0
 38 43  1  0
 38 39  1  0
 39 42  1  1
 39 40  1  0
 41 39  1  0
 43 46  1  0
 44 48  1  0
 44 43  1  0
 45 44  2  0
 48 47  1  0
 50 51  1  0
 50 48  1  0
 50 49  1  0
 52  7  1  0
 52 53  1  0
 53 62  1  0
 54 62  1  0
 55 60  1  0
 56 57  1  0
 56 55  1  0
 58 57  1  0
 58 66  1  0
 58 59  1  0
 60 54  1  0
 60 59  1  0
 61 54  2  0
 62 91  1  0
 63 64  2  0
 64 83  1  0
 65 64  1  0
 65 68  1  0
 66 67  1  0
 66 63  1  0
 67 65  2  0
 68 69  1  0
 69 70  2  0
 71 74  1  0
 71 70  1  0
 72 71  2  0
 73 72  1  0
 73 68  2  0
 74 75  1  0
 75 76  1  0
 76 77  2  0
 78 77  1  0
 78 82  1  0
 79 78  2  0
 80 75  2  0
 80 79  1  0
 81 80  1  0
 83 84  1  0
 84 86  1  0
 84 87  1  0
 85 83  2  0
 88 63  1  0
 88 89  1  0
 90 88  1  0
 91 92  1  0
 92 93  1  0
 93 95  1  0
 93 94  1  0
 93 96  1  0
M  ISO  4  10 101  11 101  54 100  62 100
M  END
>  <TORSDO>  (20) 
F 23

>  <SCORE>  (20) 
-9.161

>  <name>  (20) 
19

>  <ligand_id>  (20) 
19

>  <original_smiles>  (20) 
[H]c1c([H])c([H])c2c(c1[H])C([H])([H])C([H])([H])C([H])([H])C2([H])N([H])C(=O)C1([H])N(C(=O)C([H])(N([H])C(=O)C([H])(N([H])C([H])([H])[H])C([H])([H])[H])C(C([H])([H])[H])(C([H])([H])[H])C([H])([H])[H])C([H])([H])c2c([H])c(OC([H])([H])C([H])([H])N3C([H])([H])C([H])([H])C([H])([H])[N+]([H])(C([H])([H])C([H])([H])N(C(=O)N4C([H])([H])C([H])([H])C([H])([H])C([H])(n5nc(-c6c([H])c([H])c(Oc7c([H])c([H])c(F)c([H])c7F)c([H])c6[H])c(C(=O)N([H])[H])c5N([H])[H])C4([H])[H])C([H])([H])C([H])([H])[N+]([H])([H])[H])C([H])([H])C3([H])[H])c([H])c([H])c2C1([H])[H]

>  <smiles>  (20) 
[H]c1c([H])c([H])c2c(c1[H])C([H])([H])C([H])([H])C([H])([H])C2([H])N([H])C(=O)C1([H])N(C(=O)C([H])(N([H])C(=O)C([H])(N([H])C([H])([H])[H])C([H])([H])[H])C(C([H])([H])[H])(C([H])([H])[H])C([H])([H])[H])C([H])([H])c2c([H])c(OC([H])([H])C([H])([H])N3C([H])([H])C([H])([H])C([H])([H])[N+]([H])(C([H])([H])C([H])([H])N(C(=O)N4C([H])([H])C([H])([H])C([H])([H])C([H])(n5nc(-c6c([H])c([H])c(Oc7c([H])c([H])c(F)c([H])c7F)c([H])c6[H])c(C(=O)N([H])[H])c5N([H])[H])C4([H])[H])C([H])([H])C([H])([H])[N+]([H])([H])[H])C([H])([H])C3([H])[H])c([H])c([H])c2C1([H])[H]

$$$$
20:0:0
     RDKit          3D

 94101  0  0  1  0  0  0  0  0999 V2000
  -29.9460  -22.4700   19.4240 C   0  0  0  0  0  0  0  0  0  0  0  0
  -31.1950  -22.1000   19.0880 N   0  0  0  0  0  4  0  0  0  0  0  0
  -29.7480  -23.7210   19.9030 N   0  0  0  0  0  0  0  0  0  0  0  0
  -31.3850  -21.2620   18.5550 H   0  0  0  0  0  0  0  0  0  0  0  0
  -31.9980  -22.6940   19.2540 H   0  0  0  0  0  0  0  0  0  0  0  0
  -30.5240  -24.3720   19.9180 H   0  0  0  0  0  0  0  0  0  0  0  0
  -28.8030  -21.4940   19.2330 C   0  0  0  0  0  2  0  0  0  0  0  0
  -28.7070  -20.4290   20.3570 C   0  0  0  0  0  2  0  0  0  0  0  0
  -29.6910  -19.3170   20.2330 N   0  0  0  0  0  4  0  0  0  0  0  0
  -30.5870  -19.6130   20.5900 H   0  0  0  0  0  0  0  0  0  0  0  0
  -29.8030  -19.1140   19.2540 H   0  0  0  0  0  0  0  0  0  0  0  0
  -29.3070  -18.0270   20.8690 C   0  0  0  0  0  2  0  0  0  0  0  0
  -30.2860  -16.8970   20.4540 C   0  0  0  0  0  2  0  0  0  0  0  0
  -30.6490  -14.4640   20.4670 C   0  0  0  0  0  0  0  0  0  0  0  0
  -30.3550  -12.2880   19.3580 C   0  0  0  0  0  2  0  0  0  0  0  0
  -29.4230  -12.4910   18.1430 C   0  0  0  0  0  2  0  0  0  0  0  0
  -27.9430  -12.3710   18.5590 C   0  0  0  0  0  2  0  0  0  0  0  0
  -27.6070  -13.2070   19.8250 C   0  0  0  0  0  3  0  0  0  0  0  0
  -28.6570  -12.9830   20.9350 C   0  0  0  0  0  2  0  0  0  0  0  0
  -29.9820  -13.2810   20.3740 N   0  0  0  0  0  0  0  0  0  0  0  0
  -31.7820  -14.6280   20.0060 O   0  0  0  0  0  0  0  0  0  0  0  0
  -29.9230  -15.5280   20.8690 N   0  0  0  0  0  0  0  0  0  0  0  0
  -29.0020  -15.3600   21.2450 H   0  0  0  0  0  0  0  0  0  0  0  0
  -25.2020  -13.8200   20.5070 C   0  0  0  0  0  0  0  0  0  0  0  0
  -24.1320  -13.0500   20.8750 C   0  0  0  0  0  0  0  0  0  0  0  0
  -24.5930  -11.6970   20.8600 C   0  0  0  0  0  0  0  0  0  0  0  0
  -26.2500  -12.9360   20.2940 N   0  0  0  0  0  0  0  0  0  0  0  0
  -25.8850  -11.6570   20.5600 N   0  0  0  0  0  0  0  0  0  0  0  0
  -23.8670  -10.4370   21.0550 C   0  0  0  0  0  0  0  0  0  0  0  0
  -24.3060   -9.4660   21.9830 C   0  0  0  0  0  3  0  0  0  0  0  0
  -23.5780   -8.2710   22.1660 C   0  0  0  0  0  3  0  0  0  0  0  0
  -22.3960   -8.0360   21.4200 C   0  0  0  0  0  0  0  0  0  0  0  0
  -21.9790   -8.9960   20.4810 C   0  0  0  0  0  3  0  0  0  0  0  0
  -22.7070  -10.1830   20.2960 C   0  0  0  0  0  3  0  0  0  0  0  0
  -21.6410   -6.8930   21.5100 O   0  0  0  0  0  0  0  0  0  0  0  0
  -21.6150   -6.1370   22.6550 C   0  0  0  0  0  0  0  0  0  0  0  0
  -21.2250   -6.6830   23.8970 C   0  0  0  0  0  3  0  0  0  0  0  0
  -21.1420   -5.8540   25.0340 C   0  0  0  0  0  3  0  0  0  0  0  0
  -21.4420   -4.4840   24.9310 C   0  0  0  0  0  0  0  0  0  0  0  0
  -21.8280   -3.9380   23.6950 C   0  0  0  0  0  3  0  0  0  0  0  0
  -21.9100   -4.7630   22.5580 C   0  0  0  0  0  0  0  0  0  0  0  0
  -22.2610   -4.2270   21.3650 F   0  0  0  0  0  0  0  0  0  0  0  0
  -21.3560   -3.6880   26.0230 F   0  0  0  0  0  0  0  0  0  0  0  0
  -22.7330  -13.5310   21.1340 C   0  0  0  0  0  0  0  0  0  0  0  0
  -22.0030  -12.8450   22.0040 N   0  0  0  0  0  0  0  0  0  0  0  0
  -22.2970  -14.5520   20.6030 O   0  0  0  0  0  0  0  0  0  0  0  0
  -22.3700  -12.0210   22.4570 H   0  0  0  0  0  0  0  0  0  0  0  0
  -21.0660  -13.1470   22.2240 H   0  0  0  0  0  0  0  0  0  0  0  0
  -25.3680  -15.1890   20.3160 N   0  0  0  0  0  0  0  0  0  0  0  0
  -24.5990  -15.8460   20.3940 H   0  0  0  0  0  0  0  0  0  0  0  0
  -26.2080  -15.6140   19.9510 H   0  0  0  0  0  0  0  0  0  0  0  0
  -28.4540  -24.3290   20.2730 C   0  0  0  0  0  2  0  0  0  0  0  0
  -28.6080  -25.6950   20.9690 C   0  0  0  0  0  2  0  0  0  0  0  0
  -28.4350  -26.7760   20.0550 O   0  0  0  0  0  0  0  0  0  0  0  0
  -24.6030  -31.8690   23.2510 C   0  0  0  0  0  0  0  0  0  0  0  0
  -27.2410  -27.4530   20.1420 C   0  0  0  0  0  0  0  0  0  0  0  0
  -23.3860  -30.4680   21.6150 C   0  0  0  0  0  3  0  0  0  0  0  0
  -24.8310  -28.9200   20.1920 C   0  0  0  0  0  0  0  0  0  0  0  0
  -25.9070  -30.8320   21.3950 C   0  0  0  0  0  2  0  0  0  0  0  0
  -25.9920  -29.4590   20.7620 C   0  0  0  0  0  0  0  0  0  0  0  0
  -27.2020  -28.7330   20.7310 C   0  0  0  0  0  3  0  0  0  0  0  0
  -26.0620  -26.9090   19.5900 C   0  0  0  0  0  3  0  0  0  0  0  0
  -24.8560  -27.6370   19.6140 C   0  0  0  0  0  3  0  0  0  0  0  0
  -23.5880  -29.7790   20.2390 C   0  0  0  0  0  2  0  0  0  0  0  0
  -24.6520  -31.0700   22.1460 N   0  0  0  0  0  0  0  0  0  0  0  0
  -23.5250  -32.1420   23.7960 O   0  0  0  0  0  0  0  0  0  0  0  0
  -22.7400  -29.4470   22.5800 C   0  0  0  0  0  0  0  0  0  0  0  0
  -21.4140  -29.2670   22.4560 N   0  0  0  0  0  0  0  0  0  0  0  0
  -23.4250  -28.8220   23.3940 O   0  0  0  0  0  0  0  0  0  0  0  0
  -20.9250  -29.8240   21.7680 H   0  0  0  0  0  0  0  0  0  0  0  0
  -18.0400  -28.0740   22.9480 C   0  0  0  0  0  0  0  0  0  0  0  0
  -20.5970  -28.3290   23.2240 C   0  0  0  0  0  3  0  0  0  0  0  0
  -20.7010  -26.8980   22.6470 C   0  0  0  0  0  2  0  0  0  0  0  0
  -19.6000  -26.5740   21.6330 C   0  0  0  0  0  2  0  0  0  0  0  0
  -18.2170  -26.7220   22.2750 C   0  0  0  0  0  2  0  0  0  0  0  0
  -19.1580  -28.8340   23.3790 C   0  0  0  0  0  0  0  0  0  0  0  0
  -18.9400  -30.1000   23.9670 C   0  0  0  0  0  3  0  0  0  0  0  0
  -17.6360  -30.6040   24.1270 C   0  0  0  0  0  3  0  0  0  0  0  0
  -16.5310  -29.8390   23.7170 C   0  0  0  0  0  3  0  0  0  0  0  0
  -16.7340  -28.5750   23.1330 C   0  0  0  0  0  3  0  0  0  0  0  0
  -25.8930  -32.4970   23.8650 C   0  0  0  0  0  3  0  0  0  0  0  0
  -25.5910  -33.8950   24.1950 N   0  0  0  0  0  0  0  0  0  0  0  0
  -25.9260  -34.9450   23.4340 C   0  0  0  0  0  0  0  0  0  0  0  0
  -26.5910  -34.8380   22.4020 O   0  0  0  0  0  0  0  0  0  0  0  0
  -25.0030  -34.0520   24.9990 H   0  0  0  0  0  0  0  0  0  0  0  0
  -24.2050  -36.7430   23.0760 C   0  0  0  0  0  1  0  0  0  0  0  0
  -25.4440  -36.3370   23.8890 C   0  0  0  0  0  3  0  0  0  0  0  0
  -27.5850  -37.2090   24.7150 C   0  0  0  0  0  1  0  0  0  0  0  0
  -26.4830  -37.3840   23.7730 N   0  0  0  0  0  0  0  0  0  0  0  0
  -26.0810  -38.3060   23.9200 H   0  0  0  0  0  0  0  0  0  0  0  0
  -26.4150  -31.7250   25.1380 C   0  0  1  0  0  0  0  0  0  0  0  0
  -25.3290  -31.4900   26.2150 C   0  0  0  0  0  1  0  0  0  0  0  0
  -26.9920  -30.3480   24.7360 C   0  0  0  0  0  1  0  0  0  0  0  0
  -27.5730  -32.5160   25.7930 C   0  0  0  0  0  1  0  0  0  0  0  0
  1  3  1  0
  2  5  1  0
  2  1  2  0
  3  6  1  0
  3 52  1  0
  4  2  1  0
  7  1  1  0
  7  8  1  0
  9  8  1  0
  9 10  1  0
  9 12  1  0
 11  9  1  0
 13 12  1  0
 13 22  1  0
 14 22  1  0
 15 20  1  0
 16 17  1  0
 16 15  1  0
 18 17  1  0
 18 27  1  0
 18 19  1  0
 20 14  1  0
 20 19  1  0
 21 14  2  0
 22 23  1  0
 24 25  2  0
 25 44  1  0
 26 25  1  0
 26 29  1  0
 27 24  1  0
 27 28  1  0
 28 26  2  0
 29 30  1  0
 30 31  2  0
 32 35  1  0
 32 31  1  0
 33 32  2  0
 34 33  1  0
 34 29  2  0
 35 36  1  0
 36 37  1  0
 37 38  2  0
 39 38  1  0
 39 43  1  0
 40 39  2  0
 41 36  2  0
 41 40  1  0
 42 41  1  0
 44 45  1  0
 45 48  1  0
 45 47  1  0
 46 44  2  0
 49 50  1  0
 49 24  1  0
 51 49  1  0
 52 53  1  0
 54 56  1  0
 54 53  1  0
 55 66  2  0
 56 61  1  0
 57 65  1  0
 57 67  1  0
 58 64  1  0
 58 60  1  0
 59 65  1  0
 60 59  1  0
 61 60  2  0
 62 63  1  0
 62 56  2  0
 63 58  2  0
 64 57  1  0
 65 55  1  0
 67 69  2  0
 68 67  1  0
 70 68  1  0
 71 80  2  0
 71 76  1  0
 72 68  1  0
 72 76  1  0
 73 72  1  0
 74 75  1  0
 74 73  1  0
 75 71  1  0
 76 77  2  0
 77 78  1  0
 79 78  2  0
 80 79  1  0
 81 55  1  0
 81 82  1  0
 81 91  1  0
 82 85  1  0
 83 87  1  0
 83 82  1  0
 84 83  2  0
 87 86  1  0
 89 87  1  0
 89 90  1  0
 89 88  1  0
 91 94  1  1
 91 92  1  0
 93 91  1  0
M  ISO  4  14 100  22 100  53 101  54 101
M  END
>  <TORSDO>  (21) 
F 23

>  <SCORE>  (21) 
-12.594

>  <name>  (21) 
20

>  <ligand_id>  (21) 
20

>  <original_smiles>  (21) 
[H]c1c([H])c([H])c2c(c1[H])C([H])([H])C([H])([H])C([H])([H])C2([H])N([H])C(=O)C1([H])N(C(=O)C([H])(N([H])C(=O)C([H])(N([H])C([H])([H])[H])C([H])([H])[H])C(C([H])([H])[H])(C([H])([H])[H])C([H])([H])[H])C([H])([H])c2c([H])c(OC([H])([H])C([H])([H])[N+]([H])=C(N([H])[H])C([H])([H])C([H])([H])[N+]([H])([H])C([H])([H])C([H])([H])N([H])C(=O)N3C([H])([H])C([H])([H])C([H])([H])C([H])(n4nc(-c5c([H])c([H])c(Oc6c([H])c([H])c(F)c([H])c6F)c([H])c5[H])c(C(=O)N([H])[H])c4N([H])[H])C3([H])[H])c([H])c([H])c2C1([H])[H]

>  <smiles>  (21) 
[H]c1c([H])c([H])c2c(c1[H])C([H])([H])C([H])([H])C([H])([H])C2([H])N([H])C(=O)C1([H])N(C(=O)C([H])(N([H])C(=O)C([H])(N([H])C([H])([H])[H])C([H])([H])[H])C(C([H])([H])[H])(C([H])([H])[H])C([H])([H])[H])C([H])([H])c2c([H])c(OC([H])([H])C([H])([H])[N+]([H])=C(N([H])[H])C([H])([H])C([H])([H])[N+]([H])([H])C([H])([H])C([H])([H])N([H])C(=O)N3C([H])([H])C([H])([H])C([H])([H])C([H])(n4nc(-c5c([H])c([H])c(Oc6c([H])c([H])c(F)c([H])c6F)c([H])c5[H])c(C(=O)N([H])[H])c4N([H])[H])C3([H])[H])c([H])c([H])c2C1([H])[H]

$$$$
21:0:0
     RDKit          3D

 91100  0  0  1  0  0  0  0  0999 V2000
  -30.5950  -14.8150   20.3950 C   0  0  0  0  0  0  0  0  0  0  0  0
  -30.4040  -12.5070   19.4630 C   0  0  0  0  0  2  0  0  0  0  0  0
  -29.4750  -12.5230   18.2300 C   0  0  0  0  0  2  0  0  0  0  0  0
  -27.9940  -12.3880   18.6480 C   0  0  0  0  0  2  0  0  0  0  0  0
  -27.6010  -13.2850   19.8550 C   0  0  0  0  0  3  0  0  0  0  0  0
  -28.6630  -13.2540   20.9730 C   0  0  0  0  0  2  0  0  0  0  0  0
  -29.9550  -13.5930   20.3580 N   0  0  0  0  0  0  0  0  0  0  0  0
  -31.8230  -14.8660   20.2890 O   0  0  0  0  0  0  0  0  0  0  0  0
  -31.0380  -19.4820   21.7790 C   0  0  0  0  0  2  0  0  0  0  0  0
  -31.1700  -18.0210   21.2070 C   0  0  0  0  0  2  0  0  0  0  0  0
  -28.4350  -17.4480   18.8580 C   0  0  0  0  0  2  0  0  0  0  0  0
  -29.3410  -16.2100   18.8100 C   0  0  0  0  0  2  0  0  0  0  0  0
  -30.6530  -20.6840   20.8290 C   0  0  0  0  0  2  0  0  0  0  0  0
  -28.4240  -19.6920   20.2400 C   0  0  0  0  0  2  0  0  0  0  0  0
  -29.2210  -18.3990   19.7410 C   0  0  0  0  0  3  0  0  0  0  0  0
  -29.8270  -17.3840   20.7790 C   0  0  0  0  0  3  0  0  0  0  0  0
  -29.8270  -15.9670   20.1790 N   0  0  0  0  0  0  0  0  0  0  0  0
  -29.1820  -20.9350   20.6980 N   0  0  2  0  0  4  0  0  0  0  0  0
  -28.8670  -21.0570   21.6500 H   0  0  0  0  0  0  0  0  0  0  0  0
  -25.2120  -13.8920   20.5460 C   0  0  0  0  0  0  0  0  0  0  0  0
  -24.1370  -13.1250   20.8970 C   0  0  0  0  0  0  0  0  0  0  0  0
  -24.5970  -11.7720   20.8840 C   0  0  0  0  0  0  0  0  0  0  0  0
  -26.2570  -13.0060   20.3380 N   0  0  0  0  0  0  0  0  0  0  0  0
  -25.8940  -11.7270   20.6050 N   0  0  0  0  0  0  0  0  0  0  0  0
  -23.8660  -10.5140   21.0670 C   0  0  0  0  0  0  0  0  0  0  0  0
  -24.2880   -9.5460   22.0050 C   0  0  0  0  0  3  0  0  0  0  0  0
  -23.5580   -8.3510   22.1750 C   0  0  0  0  0  3  0  0  0  0  0  0
  -22.3910   -8.1170   21.4090 C   0  0  0  0  0  0  0  0  0  0  0  0
  -21.9900   -9.0730   20.4590 C   0  0  0  0  0  3  0  0  0  0  0  0
  -22.7210  -10.2600   20.2860 C   0  0  0  0  0  3  0  0  0  0  0  0
  -21.6330   -6.9740   21.4900 O   0  0  0  0  0  0  0  0  0  0  0  0
  -21.5720   -6.2320   22.6420 C   0  0  0  0  0  0  0  0  0  0  0  0
  -21.1450   -6.7890   23.8660 C   0  0  0  0  0  3  0  0  0  0  0  0
  -21.0320   -5.9740   25.0090 C   0  0  0  0  0  3  0  0  0  0  0  0
  -21.3360   -4.6020   24.9290 C   0  0  0  0  0  0  0  0  0  0  0  0
  -21.7570   -4.0440   23.7090 C   0  0  0  0  0  3  0  0  0  0  0  0
  -21.8720   -4.8570   22.5680 C   0  0  0  0  0  0  0  0  0  0  0  0
  -22.2580   -4.3110   21.3900 F   0  0  0  0  0  0  0  0  0  0  0  0
  -21.2190   -3.8160   26.0250 F   0  0  0  0  0  0  0  0  0  0  0  0
  -22.7350  -13.6080   21.1370 C   0  0  0  0  0  0  0  0  0  0  0  0
  -21.9880  -12.9200   21.9930 N   0  0  0  0  0  0  0  0  0  0  0  0
  -22.3110  -14.6300   20.6000 O   0  0  0  0  0  0  0  0  0  0  0  0
  -22.3430  -12.0940   22.4510 H   0  0  0  0  0  0  0  0  0  0  0  0
  -21.0470  -13.2270   22.1940 H   0  0  0  0  0  0  0  0  0  0  0  0
  -25.3810  -15.2620   20.3640 N   0  0  0  0  0  0  0  0  0  0  0  0
  -24.6180  -15.9220   20.4670 H   0  0  0  0  0  0  0  0  0  0  0  0
  -26.2500  -15.6990   20.0830 H   0  0  0  0  0  0  0  0  0  0  0  0
  -28.7410  -22.2520   20.0110 C   0  0  0  0  0  2  0  0  0  0  0  0
  -29.0000  -23.7250   20.6470 C   0  0  0  0  0  3  0  0  0  0  0  0
  -28.1160  -24.9520   20.0610 C   0  0  0  0  0  3  0  0  0  0  0  0
  -28.3160  -26.4070   20.3980 O   0  0  0  0  0  0  0  0  0  0  0  0
  -24.6070  -31.9520   23.2600 C   0  0  0  0  0  0  0  0  0  0  0  0
  -27.2240  -27.3070   20.2890 C   0  0  0  0  0  0  0  0  0  0  0  0
  -23.4150  -30.5390   21.6250 C   0  0  0  0  0  3  0  0  0  0  0  0
  -24.8740  -28.9660   20.2280 C   0  0  0  0  0  0  0  0  0  0  0  0
  -25.9610  -30.8330   21.4680 C   0  0  0  0  0  2  0  0  0  0  0  0
  -26.0410  -29.4440   20.8380 C   0  0  0  0  0  0  0  0  0  0  0  0
  -27.2160  -28.6240   20.8620 C   0  0  0  0  0  3  0  0  0  0  0  0
  -26.0370  -26.9090   19.6280 C   0  0  0  0  0  3  0  0  0  0  0  0
  -24.8770  -27.7070   19.6120 C   0  0  0  0  0  3  0  0  0  0  0  0
  -23.6410  -29.8490   20.2550 C   0  0  0  0  0  2  0  0  0  0  0  0
  -24.6800  -31.1270   22.1740 N   0  0  0  0  0  0  0  0  0  0  0  0
  -23.5190  -32.2410   23.7780 O   0  0  0  0  0  0  0  0  0  0  0  0
  -22.7370  -29.5370   22.5910 C   0  0  0  0  0  0  0  0  0  0  0  0
  -21.4090  -29.3740   22.4610 N   0  0  0  0  0  0  0  0  0  0  0  0
  -23.4050  -28.9110   23.4180 O   0  0  0  0  0  0  0  0  0  0  0  0
  -20.9290  -29.9310   21.7670 H   0  0  0  0  0  0  0  0  0  0  0  0
  -18.0150  -28.2260   22.9710 C   0  0  0  0  0  0  0  0  0  0  0  0
  -20.5770  -28.4510   23.2370 C   0  0  0  0  0  3  0  0  0  0  0  0
  -20.6580  -27.0160   22.6680 C   0  0  0  0  0  2  0  0  0  0  0  0
  -19.5500  -26.7040   21.6570 C   0  0  0  0  0  2  0  0  0  0  0  0
  -18.1720  -26.8710   22.3010 C   0  0  0  0  0  2  0  0  0  0  0  0
  -19.1450  -28.9740   23.3960 C   0  0  0  0  0  0  0  0  0  0  0  0
  -18.9440  -30.2420   23.9840 C   0  0  0  0  0  3  0  0  0  0  0  0
  -17.6460  -30.7620   24.1490 C   0  0  0  0  0  3  0  0  0  0  0  0
  -16.5310  -30.0110   23.7400 C   0  0  0  0  0  3  0  0  0  0  0  0
  -16.7160  -28.7450   23.1560 C   0  0  0  0  0  3  0  0  0  0  0  0
  -25.8850  -32.5880   23.8880 C   0  0  0  0  0  3  0  0  0  0  0  0
  -25.5750  -33.9900   24.2030 N   0  0  0  0  0  0  0  0  0  0  0  0
  -25.9070  -35.0350   23.4340 C   0  0  0  0  0  0  0  0  0  0  0  0
  -26.5750  -34.9220   22.4030 O   0  0  0  0  0  0  0  0  0  0  0  0
  -24.9790  -34.1520   25.0010 H   0  0  0  0  0  0  0  0  0  0  0  0
  -24.1730  -36.8230   23.0740 C   0  0  0  0  0  1  0  0  0  0  0  0
  -25.4210  -36.4290   23.8790 C   0  0  0  0  0  3  0  0  0  0  0  0
  -27.5630  -37.3280   24.6790 C   0  0  0  0  0  1  0  0  0  0  0  0
  -26.4520  -37.4820   23.7440 N   0  0  0  0  0  0  0  0  0  0  0  0
  -26.0450  -38.4030   23.8820 H   0  0  0  0  0  0  0  0  0  0  0  0
  -26.3880  -31.8280   25.1770 C   0  0  1  0  0  0  0  0  0  0  0  0
  -25.2830  -31.6050   26.2370 C   0  0  0  0  0  1  0  0  0  0  0  0
  -26.9700  -30.4450   24.8060 C   0  0  0  0  0  1  0  0  0  0  0  0
  -27.5330  -32.6250   25.8410 C   0  0  0  0  0  1  0  0  0  0  0  0
  2  7  1  0
  3  4  1  0
  3  2  1  0
  5  4  1  0
  5 23  1  0
  5  6  1  0
  7  1  1  0
  7  6  1  0
  8  1  2  0
 10  9  1  0
 12 11  1  0
 12 17  1  0
 13  9  1  0
 14 18  1  0
 15 11  1  0
 15 14  1  0
 15 16  1  0
 16 10  1  0
 17  1  1  0
 17 16  1  0
 18 13  1  0
 18 19  1  1
 20 21  2  0
 21 40  1  0
 22 21  1  0
 22 25  1  0
 23 20  1  0
 23 24  1  0
 24 22  2  0
 25 26  1  0
 26 27  2  0
 28 31  1  0
 28 27  1  0
 29 28  2  0
 30 29  1  0
 30 25  2  0
 31 32  1  0
 32 33  1  0
 33 34  2  0
 35 34  1  0
 35 39  1  0
 36 35  2  0
 37 32  2  0
 37 36  1  0
 38 37  1  0
 40 41  1  0
 41 44  1  0
 41 43  1  0
 42 40  2  0
 45 46  1  0
 45 20  1  0
 47 45  1  0
 48 49  1  0
 48 18  1  0
 50 51  1  0
 50 49  2  0
 52 63  2  0
 53 51  1  0
 53 58  1  0
 54 62  1  0
 54 64  1  0
 55 61  1  0
 55 57  1  0
 56 62  1  0
 57 58  2  0
 57 56  1  0
 59 53  2  0
 60 59  1  0
 60 55  2  0
 61 54  1  0
 62 52  1  0
 64 66  2  0
 65 64  1  0
 67 65  1  0
 68 77  2  0
 68 73  1  0
 69 65  1  0
 69 73  1  0
 70 69  1  0
 71 72  1  0
 71 70  1  0
 72 68  1  0
 73 74  2  0
 74 75  1  0
 76 75  2  0
 77 76  1  0
 78 52  1  0
 78 79  1  0
 78 88  1  0
 79 82  1  0
 80 84  1  0
 80 79  1  0
 81 80  2  0
 84 83  1  0
 86 84  1  0
 86 87  1  0
 86 85  1  0
 88 91  1  1
 88 89  1  0
 90 88  1  0
M  ISO  4   1 100  17 100  50 101  51 101
M  END
>  <TORSDO>  (22) 
F 18

>  <SCORE>  (22) 
-14.782

>  <name>  (22) 
21

>  <ligand_id>  (22) 
21

>  <original_smiles>  (22) 
[H]c1c([H])c([H])c2c(c1[H])C([H])([H])C([H])([H])C([H])([H])C2([H])N([H])C(=O)C1([H])N(C(=O)C([H])(N([H])C(=O)C([H])(N([H])C([H])([H])[H])C([H])([H])[H])C(C([H])([H])[H])(C([H])([H])[H])C([H])([H])[H])C([H])([H])c2c([H])c(OC([H])([H])C([H])([H])C([H])([H])[N+]3([H])C([H])([H])C([H])([H])C([H])([H])C4([H])N(C(=O)N5C([H])([H])C([H])([H])C([H])([H])C([H])(n6nc(-c7c([H])c([H])c(Oc8c([H])c([H])c(F)c([H])c8F)c([H])c7[H])c(C(=O)N([H])[H])c6N([H])[H])C5([H])[H])C([H])([H])C([H])([H])C4([H])C3([H])[H])c([H])c([H])c2C1([H])[H]

>  <smiles>  (22) 
[H]c1c([H])c([H])c2c(c1[H])C([H])([H])C([H])([H])C([H])([H])C2([H])N([H])C(=O)C1([H])N(C(=O)C([H])(N([H])C(=O)C([H])(N([H])C([H])([H])[H])C([H])([H])[H])C(C([H])([H])[H])(C([H])([H])[H])C([H])([H])[H])C([H])([H])c2c([H])c(OC([H])([H])C([H])([H])C([H])([H])[N+]3([H])C([H])([H])C([H])([H])C([H])([H])C4([H])N(C(=O)N5C([H])([H])C([H])([H])C([H])([H])C([H])(n6nc(-c7c([H])c([H])c(Oc8c([H])c([H])c(F)c([H])c8F)c([H])c7[H])c(C(=O)N([H])[H])c6N([H])[H])C5([H])[H])C([H])([H])C([H])([H])C4([H])C3([H])[H])c([H])c([H])c2C1([H])[H]

$$$$
22:0:0
     RDKit          3D

103113  0  0  1  0  0  0  0  0999 V2000
  -23.9990  -24.1230   23.2350 C   0  0  0  0  0  2  0  0  0  0  0  0
  -24.3260  -25.6120   23.1190 C   0  0  0  0  0  2  0  0  0  0  0  0
  -24.7480  -23.3230   22.1560 C   0  0  0  0  0  2  0  0  0  0  0  0
  -25.8430  -25.8200   23.1560 C   0  0  0  0  0  2  0  0  0  0  0  0
  -26.2780  -23.5770   22.1500 C   0  0  0  0  0  3  0  0  0  0  0  0
  -26.5340  -25.0640   22.0660 N   0  0  2  0  0  4  0  0  0  0  0  0
  -26.0950  -25.3690   21.2120 H   0  0  0  0  0  0  0  0  0  0  0  0
  -26.9780  -22.7500   21.0120 C   0  0  0  0  0  2  0  0  0  0  0  0
  -26.7540  -21.2080   20.9920 C   0  0  0  0  0  2  0  0  0  0  0  0
  -27.7040  -20.5300   20.0730 N   0  0  0  0  0  4  0  0  0  0  0  0
  -27.6590  -21.0050   19.1860 H   0  0  0  0  0  0  0  0  0  0  0  0
  -28.6490  -20.6300   20.4130 H   0  0  0  0  0  0  0  0  0  0  0  0
  -27.4490  -19.1030   19.7650 C   0  0  0  0  0  2  0  0  0  0  0  0
  -31.5100  -15.2080   20.5750 C   0  0  0  0  0  0  0  0  0  0  0  0
  -31.3250  -12.8600   19.9540 C   0  0  0  0  0  2  0  0  0  0  0  0
  -30.5430  -12.8080   18.6250 C   0  0  0  0  0  2  0  0  0  0  0  0
  -29.0240  -12.7450   18.8910 C   0  0  0  0  0  2  0  0  0  0  0  0
  -28.5320  -13.8000   19.9180 C   0  0  0  0  0  3  0  0  0  0  0  0
  -29.4580  -13.8680   21.1540 C   0  0  0  0  0  2  0  0  0  0  0  0
  -30.8300  -14.0390   20.6710 N   0  0  0  0  0  0  0  0  0  0  0  0
  -32.7290  -15.2460   20.7540 O   0  0  0  0  0  0  0  0  0  0  0  0
  -31.3750  -16.9500   17.2540 C   0  0  0  0  0  2  0  0  0  0  0  0
  -30.6260  -18.2030   17.6630 C   0  0  0  0  0  2  0  0  0  0  0  0
  -28.2080  -17.3820   17.8230 C   0  0  0  0  0  2  0  0  0  0  0  0
  -31.9850  -16.3050   18.4920 C   0  0  0  0  0  2  0  0  0  0  0  0
  -29.9600  -17.0400   19.7930 C   0  0  0  0  0  2  0  0  0  0  0  0
  -28.2530  -18.7240   18.5290 C   0  0  0  0  0  3  0  0  0  0  0  0
  -29.4670  -17.8070   18.5390 C   0  0  1  0  0  0  0  0  0  0  0  0
  -31.0230  -16.0190   19.5860 N   0  0  0  0  0  0  0  0  0  0  0  0
  -26.1140  -14.5210   20.4340 C   0  0  0  0  0  0  0  0  0  0  0  0
  -24.9820  -13.8030   20.6740 C   0  0  0  0  0  0  0  0  0  0  0  0
  -25.3870  -12.4340   20.7030 C   0  0  0  0  0  0  0  0  0  0  0  0
  -27.1370  -13.5960   20.2870 N   0  0  0  0  0  0  0  0  0  0  0  0
  -26.6980  -12.3350   20.5260 N   0  0  0  0  0  0  0  0  0  0  0  0
  -24.5940  -11.2120   20.8280 C   0  0  0  0  0  0  0  0  0  0  0  0
  -24.9290  -10.2110   21.7660 C   0  0  0  0  0  3  0  0  0  0  0  0
  -24.1360   -9.0520   21.8820 C   0  0  0  0  0  3  0  0  0  0  0  0
  -22.9950   -8.8870   21.0620 C   0  0  0  0  0  0  0  0  0  0  0  0
  -22.6810   -9.8770   20.1130 C   0  0  0  0  0  3  0  0  0  0  0  0
  -23.4750  -11.0280   19.9940 C   0  0  0  0  0  3  0  0  0  0  0  0
  -22.1810   -7.7820   21.0900 O   0  0  0  0  0  0  0  0  0  0  0  0
  -22.0220   -7.0360   22.2290 C   0  0  0  0  0  0  0  0  0  0  0  0
  -21.5820   -7.6110   23.4420 C   0  0  0  0  0  3  0  0  0  0  0  0
  -21.3610   -6.7960   24.5700 C   0  0  0  0  0  3  0  0  0  0  0  0
  -21.5750   -5.4060   24.4870 C   0  0  0  0  0  0  0  0  0  0  0  0
  -22.0110   -4.8310   23.2800 C   0  0  0  0  0  3  0  0  0  0  0  0
  -22.2320   -5.6440   22.1550 C   0  0  0  0  0  0  0  0  0  0  0  0
  -22.6280   -5.0810   20.9870 F   0  0  0  0  0  0  0  0  0  0  0  0
  -21.3580   -4.6210   25.5670 F   0  0  0  0  0  0  0  0  0  0  0  0
  -23.5880  -14.3460   20.7860 C   0  0  0  0  0  0  0  0  0  0  0  0
  -22.7490  -13.7120   21.5940 N   0  0  0  0  0  0  0  0  0  0  0  0
  -23.2550  -15.3740   20.1930 O   0  0  0  0  0  0  0  0  0  0  0  0
  -23.0330  -12.8760   22.0830 H   0  0  0  0  0  0  0  0  0  0  0  0
  -21.8100  -14.0630   21.7190 H   0  0  0  0  0  0  0  0  0  0  0  0
  -26.3340  -15.8820   20.3100 N   0  0  0  0  0  0  0  0  0  0  0  0
  -25.5590  -16.5370   20.2970 H   0  0  0  0  0  0  0  0  0  0  0  0
  -27.1970  -16.2620   19.9560 H   0  0  0  0  0  0  0  0  0  0  0  0
  -27.9660  -25.4810   21.9560 C   0  0  0  0  0  2  0  0  0  0  0  0
  -28.1940  -26.6370   20.9430 C   0  0  0  0  0  3  0  0  0  0  0  0
  -29.9600  -27.9750   22.2740 C   0  0  0  0  0  1  0  0  0  0  0  0
  -29.6390  -27.1770   21.0020 C   0  0  0  0  0  2  0  0  0  0  0  0
  -27.8540  -26.2150   19.4890 C   0  0  0  0  0  2  0  0  0  0  0  0
  -27.6420  -27.3570   18.6600 O   0  0  0  0  0  0  0  0  0  0  0  0
  -24.7410  -31.7780   23.3870 C   0  0  0  0  0  0  0  0  0  0  0  0
  -26.5420  -28.0980   19.0070 C   0  0  0  0  0  0  0  0  0  0  0  0
  -23.1880  -30.8140   21.7180 C   0  0  0  0  0  3  0  0  0  0  0  0
  -24.2810  -29.6020   19.7630 C   0  0  0  0  0  0  0  0  0  0  0  0
  -25.6630  -31.1460   21.1660 C   0  0  0  0  0  2  0  0  0  0  0  0
  -25.5510  -29.9590   20.2360 C   0  0  0  0  0  0  0  0  0  0  0  0
  -26.6860  -29.2130   19.8580 C   0  0  0  0  0  3  0  0  0  0  0  0
  -25.2570  -27.7430   18.5400 C   0  0  0  0  0  3  0  0  0  0  0  0
  -24.1240  -28.4900   18.9170 C   0  0  0  0  0  3  0  0  0  0  0  0
  -23.1210  -30.4630   20.2100 C   0  0  0  0  0  2  0  0  0  0  0  0
  -24.5570  -31.2490   22.1440 N   0  0  0  0  0  0  0  0  0  0  0  0
  -23.7850  -31.9590   24.1540 O   0  0  0  0  0  0  0  0  0  0  0  0
  -22.6440  -29.6170   22.5300 C   0  0  0  0  0  0  0  0  0  0  0  0
  -21.3320  -29.3610   22.3990 N   0  0  0  0  0  0  0  0  0  0  0  0
  -23.3930  -28.9310   23.2310 O   0  0  0  0  0  0  0  0  0  0  0  0
  -20.7950  -29.9740   21.8030 H   0  0  0  0  0  0  0  0  0  0  0  0
  -18.1260  -27.6990   22.5270 C   0  0  0  0  0  0  0  0  0  0  0  0
  -20.5960  -28.2690   23.0330 C   0  0  0  0  0  3  0  0  0  0  0  0
  -20.9400  -26.9150   22.3740 C   0  0  0  0  0  2  0  0  0  0  0  0
  -19.9710  -26.5260   21.2530 C   0  0  0  0  0  2  0  0  0  0  0  0
  -18.5370  -26.4390   21.7840 C   0  0  0  0  0  2  0  0  0  0  0  0
  -19.0950  -28.5680   23.0960 C   0  0  0  0  0  0  0  0  0  0  0  0
  -18.6650  -29.7450   23.7470 C   0  0  0  0  0  3  0  0  0  0  0  0
  -17.2950  -30.0580   23.8380 C   0  0  0  0  0  3  0  0  0  0  0  0
  -16.3390  -29.1870   23.2870 C   0  0  0  0  0  3  0  0  0  0  0  0
  -16.7550  -28.0080   22.6400 C   0  0  0  0  0  3  0  0  0  0  0  0
  -26.1540  -32.2060   23.8960 C   0  0  0  0  0  3  0  0  0  0  0  0
  -26.0240  -33.5520   24.4710 N   0  0  0  0  0  0  0  0  0  0  0  0
  -26.4050  -34.6810   23.8580 C   0  0  0  0  0  0  0  0  0  0  0  0
  -26.9830  -34.6900   22.7680 O   0  0  0  0  0  0  0  0  0  0  0  0
  -25.5110  -33.6230   25.3390 H   0  0  0  0  0  0  0  0  0  0  0  0
  -24.8660  -36.6700   23.9320 C   0  0  0  0  0  1  0  0  0  0  0  0
  -26.1010  -36.0140   24.5700 C   0  0  0  0  0  3  0  0  0  0  0  0
  -28.3690  -36.5210   25.3610 C   0  0  0  0  0  1  0  0  0  0  0  0
  -27.2360  -36.9630   24.5510 N   0  0  0  0  0  0  0  0  0  0  0  0
  -26.9450  -37.8770   24.8880 H   0  0  0  0  0  0  0  0  0  0  0  0
  -26.7740  -31.2020   24.9470 C   0  0  1  0  0  0  0  0  0  0  0  0
  -25.8180  -30.8580   26.1130 C   0  0  0  0  0  1  0  0  0  0  0  0
  -27.1820  -29.8760   24.2590 C   0  0  0  0  0  1  0  0  0  0  0  0
  -28.0620  -31.8070   25.5520 C   0  0  0  0  0  1  0  0  0  0  0  0
  2  4  1  0
  2  1  1  0
  3  1  1  0
  5  8  1  0
  5  3  1  0
  6  5  1  0
  6  4  1  0
  6  7  1  6
  9  8  1  0
 10 12  1  0
 10  9  1  0
 11 10  1  0
 13 10  1  0
 14 20  1  0
 14 21  2  0
 15 20  1  0
 16 17  1  0
 16 15  1  0
 18 17  1  0
 18 33  1  0
 18 19  1  0
 20 19  1  0
 22 23  1  0
 22 25  1  0
 24 27  1  0
 28 24  1  6
 25 29  1  0
 27 28  1  0
 27 13  1  0
 28 23  1  0
 28 26  1  0
 29 26  1  0
 29 14  1  0
 30 31  2  0
 31 32  1  0
 31 50  1  0
 32 35  1  0
 33 30  1  0
 33 34  1  0
 34 32  2  0
 35 36  1  0
 36 37  2  0
 38 41  1  0
 38 37  1  0
 39 38  2  0
 40 39  1  0
 40 35  2  0
 41 42  1  0
 42 43  1  0
 43 44  2  0
 45 44  1  0
 45 49  1  0
 46 45  2  0
 47 42  2  0
 47 46  1  0
 48 47  1  0
 50 51  1  0
 51 54  1  0
 51 53  1  0
 52 50  2  0
 55 30  1  0
 56 55  1  0
 57 55  1  0
 58  6  1  0
 59 62  1  0
 59 61  1  0
 59 58  1  0
 61 60  1  0
 63 65  1  0
 63 62  1  0
 64 75  2  0
 65 70  1  0
 66 74  1  0
 66 76  1  0
 67 73  1  0
 67 69  1  0
 68 74  1  0
 69 68  1  0
 70 69  2  0
 71 72  1  0
 71 65  2  0
 72 67  2  0
 73 66  1  0
 74 64  1  0
 76 78  2  0
 77 76  1  0
 79 77  1  0
 80 89  2  0
 80 85  1  0
 81 77  1  0
 81 85  1  0
 82 81  1  0
 83 84  1  0
 83 82  1  0
 84 80  1  0
 85 86  2  0
 86 87  1  0
 88 87  2  0
 89 88  1  0
 90 64  1  0
 90 91  1  0
 90100  1  0
 91 94  1  0
 92 91  1  0
 92 96  1  0
 93 92  2  0
 96 95  1  0
 98 96  1  0
 98 99  1  0
 98 97  1  0
100103  1  1
100101  1  0
102100  1  0
M  ISO  4  14 100  29 100  62 101  63 101
M  END
>  <TORSDO>  (23) 
F 24

>  <SCORE>  (23) 
-8.579

>  <name>  (23) 
22

>  <ligand_id>  (23) 
22

>  <original_smiles>  (23) 
[H]c1c([H])c([H])c2c(c1[H])C([H])([H])C([H])([H])C([H])([H])C2([H])N([H])C(=O)C1([H])N(C(=O)C([H])(N([H])C(=O)C([H])(N([H])C([H])([H])[H])C([H])([H])[H])C(C([H])([H])[H])(C([H])([H])[H])C([H])([H])[H])C([H])([H])c2c([H])c(OC([H])([H])C([H])(C([H])([H])C([H])([H])[H])C([H])([H])[N+]3([H])C([H])([H])C([H])([H])C([H])([H])C([H])([H])C3([H])C([H])([H])C([H])([H])[N+]([H])([H])C([H])([H])C3([H])C([H])([H])C34C([H])([H])N(C(=O)N3C([H])([H])C([H])([H])C([H])([H])C([H])(n5nc(-c6c([H])c([H])c(Oc7c([H])c([H])c(F)c([H])c7F)c([H])c6[H])c(C(=O)N([H])[H])c5N([H])[H])C3([H])[H])C([H])([H])C([H])([H])C4([H])[H])c([H])c([H])c2C1([H])[H]

>  <smiles>  (23) 
[H]c1c([H])c([H])c2c(c1[H])C([H])([H])C([H])([H])C([H])([H])C2([H])N([H])C(=O)C1([H])N(C(=O)C([H])(N([H])C(=O)C([H])(N([H])C([H])([H])[H])C([H])([H])[H])C(C([H])([H])[H])(C([H])([H])[H])C([H])([H])[H])C([H])([H])c2c([H])c(OC([H])([H])C([H])(C([H])([H])C([H])([H])[H])C([H])([H])[N+]3([H])C([H])([H])C([H])([H])C([H])([H])C([H])([H])C3([H])C([H])([H])C([H])([H])[N+]([H])([H])C([H])([H])C3([H])C([H])([H])C34C([H])([H])N(C(=O)N3C([H])([H])C([H])([H])C([H])([H])C([H])(n5nc(-c6c([H])c([H])c(Oc7c([H])c([H])c(F)c([H])c7F)c([H])c6[H])c(C(=O)N([H])[H])c5N([H])[H])C3([H])[H])C([H])([H])C([H])([H])C4([H])[H])c([H])c([H])c2C1([H])[H]

$$$$
23:0:0
     RDKit          3D

101109  0  0  1  0  0  0  0  0999 V2000
  -31.7140  -20.1000   19.3230 C   0  0  0  0  0  3  0  0  0  0  0  0
  -33.2050  -20.6750   21.1670 C   0  0  0  0  0  3  0  0  0  0  0  0
  -30.6720  -20.8130   19.9450 C   0  0  0  0  0  3  0  0  0  0  0  0
  -32.1630  -21.3920   21.7880 C   0  0  0  0  0  3  0  0  0  0  0  0
  -32.9860  -20.0370   19.9290 C   0  0  0  0  0  0  0  0  0  0  0  0
  -30.8950  -21.4700   21.1740 C   0  0  0  0  0  0  0  0  0  0  0  0
  -34.1250  -19.3180   19.2290 C   0  0  0  0  0  2  0  0  0  0  0  0
  -34.4120  -17.9760   19.7580 N   0  0  0  0  0  0  0  0  0  0  0  0
  -33.2380  -17.1120   19.5580 C   0  0  0  0  0  2  0  0  0  0  0  0
  -33.1270  -16.0300   20.6680 C   0  0  0  0  0  2  0  0  0  0  0  0
  -31.8730  -14.2720   19.3440 C   0  0  0  0  0  0  0  0  0  0  0  0
  -31.1740  -12.0550   18.5330 C   0  0  0  0  0  2  0  0  0  0  0  0
  -30.1080  -12.0470   17.4270 C   0  0  0  0  0  2  0  0  0  0  0  0
  -28.7030  -12.0460   18.0450 C   0  0  0  0  0  2  0  0  0  0  0  0
  -28.5240  -13.1860   19.0750 C   0  0  0  0  0  3  0  0  0  0  0  0
  -29.6870  -13.2300   20.0880 C   0  0  0  0  0  2  0  0  0  0  0  0
  -30.9910  -13.2340   19.3940 N   0  0  0  0  0  0  0  0  0  0  0  0
  -32.5420  -14.4800   18.3270 O   0  0  0  0  0  0  0  0  0  0  0  0
  -31.8590  -14.3590   21.8510 C   0  0  0  0  0  1  0  0  0  0  0  0
  -32.1530  -14.9200   20.5160 N   0  0  0  0  0  0  0  0  0  0  0  0
  -26.4210  -14.1050   20.2460 C   0  0  0  0  0  0  0  0  0  0  0  0
  -25.2920  -13.4900   20.7180 C   0  0  0  0  0  0  0  0  0  0  0  0
  -25.4760  -12.0940   20.4810 C   0  0  0  0  0  0  0  0  0  0  0  0
  -27.2310  -13.0930   19.7540 N   0  0  0  0  0  0  0  0  0  0  0  0
  -26.6730  -11.8700   19.9530 N   0  0  0  0  0  0  0  0  0  0  0  0
  -24.5570  -10.9630   20.6740 C   0  0  0  0  0  0  0  0  0  0  0  0
  -24.8940   -9.8700   21.5040 C   0  0  0  0  0  3  0  0  0  0  0  0
  -23.9870   -8.8050   21.6880 C   0  0  0  0  0  3  0  0  0  0  0  0
  -22.7280   -8.8240   21.0430 C   0  0  0  0  0  0  0  0  0  0  0  0
  -22.4070   -9.9030   20.2000 C   0  0  0  0  0  3  0  0  0  0  0  0
  -23.3130  -10.9610   20.0140 C   0  0  0  0  0  3  0  0  0  0  0  0
  -21.7950   -7.8210   21.1410 O   0  0  0  0  0  0  0  0  0  0  0  0
  -21.6480   -7.0830   22.2900 C   0  0  0  0  0  0  0  0  0  0  0  0
  -21.3850   -7.6920   23.5360 C   0  0  0  0  0  3  0  0  0  0  0  0
  -21.1710   -6.8930   24.6780 C   0  0  0  0  0  3  0  0  0  0  0  0
  -21.2130   -5.4910   24.5750 C   0  0  0  0  0  0  0  0  0  0  0  0
  -21.4700   -4.8820   23.3330 C   0  0  0  0  0  3  0  0  0  0  0  0
  -21.6840   -5.6780   22.1930 C   0  0  0  0  0  0  0  0  0  0  0  0
  -21.9110   -5.0870   20.9950 F   0  0  0  0  0  0  0  0  0  0  0  0
  -21.0000   -4.7230   25.6690 F   0  0  0  0  0  0  0  0  0  0  0  0
  -24.0690  -14.1650   21.2700 C   0  0  0  0  0  0  0  0  0  0  0  0
  -23.3960  -13.5290   22.2230 N   0  0  0  0  0  0  0  0  0  0  0  0
  -23.7320  -15.2850   20.8920 O   0  0  0  0  0  0  0  0  0  0  0  0
  -23.6840  -12.6180   22.5480 H   0  0  0  0  0  0  0  0  0  0  0  0
  -22.5780  -13.9590   22.6330 H   0  0  0  0  0  0  0  0  0  0  0  0
  -26.8180  -15.4370   20.1750 N   0  0  0  0  0  0  0  0  0  0  0  0
  -26.2240  -16.2000   20.4780 H   0  0  0  0  0  0  0  0  0  0  0  0
  -27.6910  -15.7520   19.7670 H   0  0  0  0  0  0  0  0  0  0  0  0
  -35.5890  -17.4570   19.0410 C   0  0  0  0  0  2  0  0  0  0  0  0
  -36.8480  -18.3000   19.3420 C   0  0  0  0  0  2  0  0  0  0  0  0
  -38.0170  -17.8380   18.5760 N   0  0  0  0  0  4  0  0  0  0  0  0
  -38.2220  -16.8760   18.7820 H   0  0  0  0  0  0  0  0  0  0  0  0
  -38.8210  -18.3870   18.8220 H   0  0  0  0  0  0  0  0  0  0  0  0
  -37.8620  -17.9340   17.5890 H   0  0  0  0  0  0  0  0  0  0  0  0
  -29.7780  -22.2670   21.8220 C   0  0  0  0  0  2  0  0  0  0  0  0
  -29.6530  -23.5910   21.1850 N   0  0  0  0  0  4  0  0  0  0  0  0
  -30.1370  -23.5460   20.3020 H   0  0  0  0  0  0  0  0  0  0  0  0
  -30.1310  -24.2710   21.7570 H   0  0  0  0  0  0  0  0  0  0  0  0
  -28.2500  -24.0090   20.9540 C   0  0  0  0  0  2  0  0  0  0  0  0
  -28.1290  -25.1600   19.9350 C   0  0  0  0  0  2  0  0  0  0  0  0
  -28.1190  -26.4400   20.5720 O   0  0  0  0  0  0  0  0  0  0  0  0
  -24.5800  -31.9810   23.2810 C   0  0  0  0  0  0  0  0  0  0  0  0
  -26.9510  -27.1740   20.5440 C   0  0  0  0  0  0  0  0  0  0  0  0
  -23.2730  -30.5010   21.7930 C   0  0  0  0  0  3  0  0  0  0  0  0
  -24.6200  -28.7790   20.4880 C   0  0  0  0  0  0  0  0  0  0  0  0
  -25.8080  -30.7180   21.5210 C   0  0  0  0  0  2  0  0  0  0  0  0
  -25.8130  -29.2930   21.0100 C   0  0  0  0  0  0  0  0  0  0  0  0
  -26.9760  -28.4940   21.0470 C   0  0  0  0  0  3  0  0  0  0  0  0
  -25.7300  -26.6680   20.0300 C   0  0  0  0  0  3  0  0  0  0  0  0
  -24.5720  -27.4620   20.0040 C   0  0  0  0  0  3  0  0  0  0  0  0
  -23.4210  -29.6960   20.4750 C   0  0  0  0  0  2  0  0  0  0  0  0
  -24.5740  -31.0860   22.2550 N   0  0  0  0  0  0  0  0  0  0  0  0
  -23.5250  -32.3540   23.8130 O   0  0  0  0  0  0  0  0  0  0  0  0
  -22.5980  -29.5970   22.8500 C   0  0  0  0  0  0  0  0  0  0  0  0
  -21.3030  -29.3070   22.6490 N   0  0  0  0  0  0  0  0  0  0  0  0
  -23.2410  -29.1550   23.8060 O   0  0  0  0  0  0  0  0  0  0  0  0
  -20.8470  -29.7140   21.8420 H   0  0  0  0  0  0  0  0  0  0  0  0
  -18.0070  -27.8710   22.9830 C   0  0  0  0  0  0  0  0  0  0  0  0
  -20.4720  -28.4510   23.4940 C   0  0  0  0  0  3  0  0  0  0  0  0
  -20.7710  -26.9560   23.2350 C   0  0  0  0  0  2  0  0  0  0  0  0
  -19.8480  -26.3290   22.1870 C   0  0  0  0  0  2  0  0  0  0  0  0
  -18.3840  -26.4450   22.6210 C   0  0  0  0  0  2  0  0  0  0  0  0
  -18.9890  -28.8170   23.3770 C   0  0  0  0  0  0  0  0  0  0  0  0
  -18.5870  -30.1390   23.6680 C   0  0  0  0  0  3  0  0  0  0  0  0
  -17.2350  -30.5200   23.5720 C   0  0  0  0  0  3  0  0  0  0  0  0
  -16.2650  -29.5740   23.1970 C   0  0  0  0  0  3  0  0  0  0  0  0
  -16.6510  -28.2530   22.9080 C   0  0  0  0  0  3  0  0  0  0  0  0
  -25.9090  -32.6010   23.8180 C   0  0  0  0  0  3  0  0  0  0  0  0
  -25.6320  -33.9990   24.1680 N   0  0  0  0  0  0  0  0  0  0  0  0
  -25.9620  -35.0510   23.4060 C   0  0  0  0  0  0  0  0  0  0  0  0
  -26.6030  -34.9440   22.3570 O   0  0  0  0  0  0  0  0  0  0  0  0
  -25.0610  -34.1570   24.9850 H   0  0  0  0  0  0  0  0  0  0  0  0
  -24.2540  -36.8730   23.1070 C   0  0  0  0  0  1  0  0  0  0  0  0
  -25.5090  -36.4440   23.8850 C   0  0  0  0  0  3  0  0  0  0  0  0
  -27.6780  -37.2870   24.6650 C   0  0  0  0  0  1  0  0  0  0  0  0
  -26.5540  -37.4810   23.7520 N   0  0  0  0  0  0  0  0  0  0  0  0
  -26.1670  -38.4060   23.9200 H   0  0  0  0  0  0  0  0  0  0  0  0
  -26.5040  -31.8210   25.0550 C   0  0  1  0  0  0  0  0  0  0  0  0
  -25.4660  -31.5280   26.1630 C   0  0  0  0  0  1  0  0  0  0  0  0
  -27.1110  -30.4700   24.6070 C   0  0  0  0  0  1  0  0  0  0  0  0
  -27.6620  -32.6340   25.6810 C   0  0  0  0  0  1  0  0  0  0  0  0
  1  5  2  0
  1  3  1  0
  2  4  2  0
  3  6  2  0
  5  2  1  0
  6  4  1  0
  6 55  1  0
  7  8  1  0
  7  5  1  0
  9  8  1  0
  9 10  1  0
 11 17  1  0
 11 20  1  0
 12 17  1  0
 13 14  1  0
 13 12  1  0
 15 14  1  0
 15 24  1  0
 15 16  1  0
 17 16  1  0
 18 11  2  0
 20 10  1  0
 20 19  1  0
 21 22  2  0
 22 41  1  0
 23 26  1  0
 23 22  1  0
 24 25  1  0
 24 21  1  0
 25 23  2  0
 26 27  1  0
 27 28  2  0
 29 32  1  0
 29 28  1  0
 30 29  2  0
 31 30  1  0
 31 26  2  0
 32 33  1  0
 33 34  1  0
 34 35  2  0
 36 35  1  0
 36 40  1  0
 37 36  2  0
 38 33  2  0
 38 37  1  0
 39 38  1  0
 41 42  1  0
 42 44  1  0
 42 45  1  0
 43 41  2  0
 46 21  1  0
 46 47  1  0
 48 46  1  0
 49 50  1  0
 49  8  1  0
 51 52  1  0
 51 53  1  0
 51 50  1  0
 54 51  1  0
 56 58  1  0
 56 55  1  0
 57 56  1  0
 59 56  1  0
 60 61  1  0
 60 59  1  0
 62 73  2  0
 63 61  1  0
 63 68  1  0
 64 72  1  0
 64 74  1  0
 65 67  1  0
 66 72  1  0
 67 68  2  0
 67 66  1  0
 69 63  2  0
 70 69  1  0
 70 65  2  0
 71 65  1  0
 71 64  1  0
 72 62  1  0
 74 76  2  0
 75 74  1  0
 77 75  1  0
 78 83  1  0
 79 75  1  0
 80 79  1  0
 81 82  1  0
 81 80  1  0
 82 78  1  0
 83 79  1  0
 83 84  2  0
 85 84  1  0
 86 85  2  0
 87 78  2  0
 87 86  1  0
 88 62  1  0
 88 89  1  0
 88 98  1  0
 89 92  1  0
 90 94  1  0
 90 89  1  0
 91 90  2  0
 94 93  1  0
 96 94  1  0
 96 97  1  0
 96 95  1  0
 98101  1  1
 98 99  1  0
100 98  1  0
M  ISO  4  11 100  20 100  60 101  61 101
M  END
>  <TORSDO>  (24) 
F 27

>  <SCORE>  (24) 
-9.010

>  <name>  (24) 
23

>  <ligand_id>  (24) 
23

>  <original_smiles>  (24) 
[H]c1c([H])c([H])c2c(c1[H])C([H])([H])C([H])([H])C([H])([H])C2([H])N([H])C(=O)C1([H])N(C(=O)C([H])(N([H])C(=O)C([H])(N([H])C([H])([H])[H])C([H])([H])[H])C(C([H])([H])[H])(C([H])([H])[H])C([H])([H])[H])C([H])([H])c2c([H])c(OC([H])([H])C([H])([H])[N+]([H])([H])C([H])([H])c3c([H])c([H])c(C([H])([H])N(C([H])([H])C([H])([H])N(C(=O)N4C([H])([H])C([H])([H])C([H])([H])C([H])(n5nc(-c6c([H])c([H])c(Oc7c([H])c([H])c(F)c([H])c7F)c([H])c6[H])c(C(=O)N([H])[H])c5N([H])[H])C4([H])[H])C([H])([H])[H])C([H])([H])C([H])([H])[N+]([H])([H])[H])c([H])c3[H])c([H])c([H])c2C1([H])[H]

>  <smiles>  (24) 
[H]c1c([H])c([H])c2c(c1[H])C([H])([H])C([H])([H])C([H])([H])C2([H])N([H])C(=O)C1([H])N(C(=O)C([H])(N([H])C(=O)C([H])(N([H])C([H])([H])[H])C([H])([H])[H])C(C([H])([H])[H])(C([H])([H])[H])C([H])([H])[H])C([H])([H])c2c([H])c(OC([H])([H])C([H])([H])[N+]([H])([H])C([H])([H])c3c([H])c([H])c(C([H])([H])N(C([H])([H])C([H])([H])N(C(=O)N4C([H])([H])C([H])([H])C([H])([H])C([H])(n5nc(-c6c([H])c([H])c(Oc7c([H])c([H])c(F)c([H])c7F)c([H])c6[H])c(C(=O)N([H])[H])c5N([H])[H])C4([H])[H])C([H])([H])[H])C([H])([H])C([H])([H])[N+]([H])([H])[H])c([H])c3[H])c([H])c([H])c2C1([H])[H]

$$$$
24:0:0
     RDKit          3D

101109  0  0  1  0  0  0  0  0999 V2000
  -29.5000  -19.6680   19.5660 C   0  0  0  0  0  3  0  0  0  0  0  0
  -30.4740  -22.6060   21.6640 C   0  0  0  0  0  2  0  0  0  0  0  0
  -30.4810  -23.1320   20.2330 C   0  0  0  0  0  2  0  0  0  0  0  0
  -29.8090  -21.2230   21.5880 C   0  0  0  0  0  2  0  0  0  0  0  0
  -29.1210  -22.6870   19.7010 C   0  0  0  0  0  3  0  0  0  0  0  0
  -29.0790  -21.1200   20.2950 N   0  0  1  0  0  4  0  0  0  0  0  0
  -28.1120  -20.9890   20.5540 H   0  0  0  0  0  0  0  0  0  0  0  0
  -28.0420  -24.1030   20.0140 C   0  0  0  0  0  2  0  0  0  0  0  0
  -28.2150  -25.7430   19.8970 O   0  0  0  0  0  0  0  0  0  0  0  0
  -24.4120  -31.5380   22.9270 C   0  0  0  0  0  0  0  0  0  0  0  0
  -27.1560  -26.7930   19.8770 C   0  0  0  0  0  0  0  0  0  0  0  0
  -23.2890  -30.1520   21.2300 C   0  0  0  0  0  3  0  0  0  0  0  0
  -24.8090  -28.6110   19.8140 C   0  0  0  0  0  0  0  0  0  0  0  0
  -25.8520  -30.4270   21.1500 C   0  0  0  0  0  2  0  0  0  0  0  0
  -25.9720  -29.0340   20.4680 C   0  0  0  0  0  0  0  0  0  0  0  0
  -27.1410  -28.1500   20.4710 C   0  0  0  0  0  3  0  0  0  0  0  0
  -25.9560  -26.5180   19.1820 C   0  0  0  0  0  3  0  0  0  0  0  0
  -24.8250  -27.3720   19.1530 C   0  0  0  0  0  3  0  0  0  0  0  0
  -23.5670  -29.5020   19.8470 C   0  0  0  0  0  2  0  0  0  0  0  0
  -24.5370  -30.7310   21.8240 N   0  0  0  0  0  0  0  0  0  0  0  0
  -23.3040  -31.7910   23.4280 O   0  0  0  0  0  0  0  0  0  0  0  0
  -22.5940  -29.1200   22.1570 C   0  0  0  0  0  0  0  0  0  0  0  0
  -21.2640  -28.9610   22.0270 N   0  0  0  0  0  0  0  0  0  0  0  0
  -23.2610  -28.4630   22.9610 O   0  0  0  0  0  0  0  0  0  0  0  0
  -20.7810  -29.5420   21.3570 H   0  0  0  0  0  0  0  0  0  0  0  0
  -17.8740  -27.7770   22.5370 C   0  0  0  0  0  0  0  0  0  0  0  0
  -20.4430  -27.9950   22.7640 C   0  0  0  0  0  3  0  0  0  0  0  0
  -20.5120  -26.5940   22.1110 C   0  0  0  0  0  2  0  0  0  0  0  0
  -19.3870  -26.3410   21.1030 C   0  0  0  0  0  2  0  0  0  0  0  0
  -18.0190  -26.4660   21.7820 C   0  0  0  0  0  2  0  0  0  0  0  0
  -19.0110  -28.5010   22.9850 C   0  0  0  0  0  0  0  0  0  0  0  0
  -18.8200  -29.7280   23.6570 C   0  0  0  0  0  3  0  0  0  0  0  0
  -17.5240  -30.2310   23.8820 C   0  0  0  0  0  3  0  0  0  0  0  0
  -16.4020  -29.5040   23.4490 C   0  0  0  0  0  3  0  0  0  0  0  0
  -16.5770  -28.2780   22.7830 C   0  0  0  0  0  3  0  0  0  0  0  0
  -25.6520  -32.1940   23.6040 C   0  0  0  0  0  3  0  0  0  0  0  0
  -26.1620  -31.3970   24.8670 C   0  0  1  0  0  0  0  0  0  0  0  0
  -25.0560  -31.1050   25.9090 C   0  0  0  0  0  1  0  0  0  0  0  0
  -26.7820  -30.0430   24.4540 C   0  0  0  0  0  1  0  0  0  0  0  0
  -27.2830  -32.1960   25.5730 C   0  0  0  0  0  1  0  0  0  0  0  0
  -25.2840  -33.5690   23.9870 N   0  0  0  0  0  0  0  0  0  0  0  0
  -25.6070  -34.6730   23.2990 C   0  0  0  0  0  0  0  0  0  0  0  0
  -26.3090  -34.6420   22.2850 O   0  0  0  0  0  0  0  0  0  0  0  0
  -24.6590  -33.6620   24.7750 H   0  0  0  0  0  0  0  0  0  0  0  0
  -23.8420  -36.4420   22.9920 C   0  0  0  0  0  1  0  0  0  0  0  0
  -25.0710  -36.0240   23.8150 C   0  0  0  0  0  3  0  0  0  0  0  0
  -27.1500  -36.9290   24.7590 C   0  0  0  0  0  1  0  0  0  0  0  0
  -26.0770  -37.1090   23.7850 N   0  0  0  0  0  0  0  0  0  0  0  0
  -25.6400  -38.0100   23.9570 H   0  0  0  0  0  0  0  0  0  0  0  0
  -28.6600  -19.4060   18.2960 C   0  0  0  0  0  2  0  0  0  0  0  0
  -27.1810  -19.0390   18.5200 C   0  0  0  0  0  2  0  0  0  0  0  0
  -26.4080  -19.0550   17.2620 N   0  0  0  0  0  4  0  0  0  0  0  0
  -26.7750  -18.3970   16.5980 H   0  0  0  0  0  0  0  0  0  0  0  0
  -26.4140  -19.9690   16.8410 H   0  0  0  0  0  0  0  0  0  0  0  0
  -25.4490  -18.8110   17.4430 H   0  0  0  0  0  0  0  0  0  0  0  0
  -30.2710  -18.1550   20.2210 C   0  0  0  0  0  2  0  0  0  0  0  0
  -30.6390  -15.2400   20.4740 C   0  0  0  0  0  0  0  0  0  0  0  0
  -30.7770  -12.6930   19.9020 C   0  0  0  0  0  2  0  0  0  0  0  0
  -30.0410  -12.2900   18.5930 C   0  0  0  0  0  2  0  0  0  0  0  0
  -28.5370  -12.0510   18.8320 C   0  0  0  0  0  2  0  0  0  0  0  0
  -27.9280  -13.1320   19.7570 C   0  0  0  0  0  3  0  0  0  0  0  0
  -28.8080  -13.3630   21.0020 C   0  0  0  0  0  2  0  0  0  0  0  0
  -30.0970  -13.9050   20.5050 N   0  0  0  0  0  0  0  0  0  0  0  0
  -31.8750  -15.2220   20.3500 O   0  0  0  0  0  0  0  0  0  0  0  0
  -29.8720  -16.5370   20.3940 N   0  0  0  0  0  0  0  0  0  0  0  0
  -25.4730  -13.7640   20.0640 C   0  0  0  0  0  0  0  0  0  0  0  0
  -24.3610  -13.0340   20.3710 C   0  0  0  0  0  0  0  0  0  0  0  0
  -24.8130  -11.6930   20.5660 C   0  0  0  0  0  0  0  0  0  0  0  0
  -26.5340  -12.8740   20.0900 N   0  0  0  0  0  0  0  0  0  0  0  0
  -26.1360  -11.6280   20.4560 N   0  0  0  0  0  0  0  0  0  0  0  0
  -24.0520  -10.4580   20.7840 C   0  0  0  0  0  0  0  0  0  0  0  0
  -24.3990   -9.5450   21.8030 C   0  0  0  0  0  3  0  0  0  0  0  0
  -23.6350   -8.3770   22.0060 C   0  0  0  0  0  3  0  0  0  0  0  0
  -22.5090   -8.1130   21.1900 C   0  0  0  0  0  0  0  0  0  0  0  0
  -22.1820   -9.0130   20.1630 C   0  0  0  0  0  3  0  0  0  0  0  0
  -22.9470  -10.1740   19.9570 C   0  0  0  0  0  3  0  0  0  0  0  0
  -21.7230   -6.9920   21.3010 O   0  0  0  0  0  0  0  0  0  0  0  0
  -21.5660   -6.3360   22.4950 C   0  0  0  0  0  0  0  0  0  0  0  0
  -21.0660   -6.9880   23.6440 C   0  0  0  0  0  3  0  0  0  0  0  0
  -20.8570   -6.2610   24.8330 C   0  0  0  0  0  3  0  0  0  0  0  0
  -21.1380   -4.8820   24.8730 C   0  0  0  0  0  0  0  0  0  0  0  0
  -21.6300   -4.2290   23.7290 C   0  0  0  0  0  3  0  0  0  0  0  0
  -21.8400   -4.9540   22.5430 C   0  0  0  0  0  0  0  0  0  0  0  0
  -22.2940   -4.3150   21.4370 F   0  0  0  0  0  0  0  0  0  0  0  0
  -20.9290   -4.1810   26.0120 F   0  0  0  0  0  0  0  0  0  0  0  0
  -22.9460  -13.5340   20.3730 C   0  0  0  0  0  0  0  0  0  0  0  0
  -22.1150  -13.0200   21.2710 N   0  0  0  0  0  0  0  0  0  0  0  0
  -22.5850  -14.4270   19.6060 O   0  0  0  0  0  0  0  0  0  0  0  0
  -22.4180  -12.3030   21.9150 H   0  0  0  0  0  0  0  0  0  0  0  0
  -21.1600  -13.3440   21.3160 H   0  0  0  0  0  0  0  0  0  0  0  0
  -25.6590  -15.1010   19.7290 N   0  0  0  0  0  0  0  0  0  0  0  0
  -24.8650  -15.7140   19.5820 H   0  0  0  0  0  0  0  0  0  0  0  0
  -26.5290  -15.4730   19.3780 H   0  0  0  0  0  0  0  0  0  0  0  0
  -28.6240  -16.4750   21.1910 C   0  0  0  0  0  2  0  0  0  0  0  0
  -27.4150  -17.3820   20.8450 C   0  0  0  0  0  2  0  0  0  0  0  0
  -26.0920  -16.5980   20.9460 C   0  0  0  0  0  2  0  0  0  0  0  0
  -24.8800  -17.3580   20.3760 C   0  0  0  0  0  2  0  0  0  0  0  0
  -23.6180  -16.6280   20.5830 N   0  0  0  0  0  4  0  0  0  0  0  0
  -23.6410  -15.7280   20.1360 H   0  0  0  0  0  0  0  0  0  0  0  0
  -22.8500  -17.1490   20.1950 H   0  0  0  0  0  0  0  0  0  0  0  0
  -23.4360  -16.4950   21.5610 H   0  0  0  0  0  0  0  0  0  0  0  0
  1 50  1  0
  1 56  1  0
  1  6  1  0
  3  2  1  0
  4  2  1  0
  5  8  1  0
  5  3  1  0
  5  6  1  0
  6  7  1  1
  6  4  1  0
  9  8  1  0
 10 21  2  0
 11  9  1  0
 11 16  1  0
 12 20  1  0
 12 22  1  0
 13 19  1  0
 13 15  1  0
 14 20  1  0
 15 16  2  0
 15 14  1  0
 17 11  2  0
 18 17  1  0
 18 13  2  0
 19 12  1  0
 20 10  1  0
 22 24  2  0
 23 22  1  0
 25 23  1  0
 26 35  2  0
 26 31  1  0
 27 23  1  0
 27 31  1  0
 28 27  1  0
 29 30  1  0
 29 28  1  0
 30 26  1  0
 31 32  2  0
 32 33  1  0
 34 33  2  0
 35 34  1  0
 36 10  1  0
 36 41  1  0
 36 37  1  0
 37 40  1  1
 37 38  1  0
 39 37  1  0
 41 44  1  0
 42 46  1  0
 42 41  1  0
 43 42  2  0
 46 45  1  0
 48 46  1  0
 48 49  1  0
 48 47  1  0
 50 51  1  0
 52 55  1  0
 52 51  1  0
 53 52  1  0
 54 52  1  0
 56 65  1  0
 57 63  1  0
 58 63  1  0
 59 60  1  0
 59 58  1  0
 61 60  1  0
 61 69  1  0
 61 62  1  0
 63 62  1  0
 64 57  2  0
 65 57  1  0
 65 94  1  0
 66 69  1  0
 66 67  2  0
 67 86  1  0
 67 68  1  0
 68 71  1  0
 69 70  1  0
 70 68  2  0
 71 72  1  0
 72 73  2  0
 74 77  1  0
 74 73  1  0
 75 74  2  0
 76 75  1  0
 76 71  2  0
 77 78  1  0
 78 83  2  0
 78 79  1  0
 79 80  2  0
 80 81  1  0
 81 85  1  0
 82 81  2  0
 83 82  1  0
 84 83  1  0
 86 87  1  0
 87 90  1  0
 87 89  1  0
 88 86  2  0
 91 66  1  0
 92 91  1  0
 93 91  1  0
 95 96  1  0
 95 94  1  0
 97 98  1  0
 97 96  1  0
 98101  1  0
 99 98  1  0
100 98  1  0
M  ISO  4   8 101   9 101  57 100  65 100
M  END
>  <TORSDO>  (25) 
F 27

>  <SCORE>  (25) 
-8.222

>  <name>  (25) 
24

>  <ligand_id>  (25) 
24

>  <original_smiles>  (25) 
[H]c1c([H])c([H])c2c(c1[H])C([H])([H])C([H])([H])C([H])([H])C2([H])N([H])C(=O)C1([H])N(C(=O)C([H])(N([H])C(=O)C([H])(N([H])C([H])([H])[H])C([H])([H])[H])C(C([H])([H])[H])(C([H])([H])[H])C([H])([H])[H])C([H])([H])c2c([H])c(OC([H])([H])C3([H])C([H])([H])C([H])([H])C([H])([H])[N+]3([H])C([H])(C([H])([H])N(C(=O)N3C([H])([H])C([H])([H])C([H])([H])C([H])(n4nc(-c5c([H])c([H])c(Oc6c([H])c([H])c(F)c([H])c6F)c([H])c5[H])c(C(=O)N([H])[H])c4N([H])[H])C3([H])[H])C([H])([H])C([H])([H])C([H])([H])C([H])([H])[N+]([H])([H])[H])C([H])([H])C([H])([H])[N+]([H])([H])[H])c([H])c([H])c2C1([H])[H]

>  <smiles>  (25) 
[H]c1c([H])c([H])c2c(c1[H])C([H])([H])C([H])([H])C([H])([H])C2([H])N([H])C(=O)C1([H])N(C(=O)C([H])(N([H])C(=O)C([H])(N([H])C([H])([H])[H])C([H])([H])[H])C(C([H])([H])[H])(C([H])([H])[H])C([H])([H])[H])C([H])([H])c2c([H])c(OC([H])([H])C3([H])C([H])([H])C([H])([H])C([H])([H])[N+]3([H])C([H])(C([H])([H])N(C(=O)N3C([H])([H])C([H])([H])C([H])([H])C([H])(n4nc(-c5c([H])c([H])c(Oc6c([H])c([H])c(F)c([H])c6F)c([H])c5[H])c(C(=O)N([H])[H])c4N([H])[H])C3([H])[H])C([H])([H])C([H])([H])C([H])([H])C([H])([H])[N+]([H])([H])[H])C([H])([H])C([H])([H])[N+]([H])([H])[H])c([H])c([H])c2C1([H])[H]

$$$$
25:0:0
     RDKit          3D

100108  0  0  1  0  0  0  0  0999 V2000
  -30.7860  -21.9780   19.5580 C   0  0  0  0  0  2  0  0  0  0  0  0
  -29.7880  -21.2570   21.7660 C   0  0  0  0  0  2  0  0  0  0  0  0
  -30.6070  -23.3850   20.1560 C   0  0  0  0  0  2  0  0  0  0  0  0
  -28.7100  -22.3100   21.3340 C   0  0  0  0  0  2  0  0  0  0  0  0
  -30.8240  -20.8680   20.6630 C   0  0  0  0  0  3  0  0  0  0  0  0
  -29.2440  -23.5810   20.7310 N   0  0  2  0  0  4  0  0  0  0  0  0
  -29.3740  -24.2300   21.4970 H   0  0  0  0  0  0  0  0  0  0  0  0
  -30.7150  -19.4300   20.1680 N   0  0  1  0  0  4  0  0  0  0  0  0
  -29.7220  -19.2860   20.0860 H   0  0  0  0  0  0  0  0  0  0  0  0
  -31.2330  -19.2340   18.7750 C   0  0  0  0  0  2  0  0  0  0  0  0
  -33.1470  -19.4800   17.1210 C   0  0  0  0  0  1  0  0  0  0  0  0
  -32.7670  -19.3550   18.6020 C   0  0  0  0  0  2  0  0  0  0  0  0
  -31.1940  -18.3420   21.1130 C   0  0  0  0  0  2  0  0  0  0  0  0
  -30.1990  -17.1500   21.4020 C   0  0  0  0  0  2  0  0  0  0  0  0
  -30.8870  -14.8530   20.5730 C   0  0  0  0  0  0  0  0  0  0  0  0
  -30.6270  -12.6790   19.4250 C   0  0  0  0  0  2  0  0  0  0  0  0
  -29.6980  -12.8240   18.1990 C   0  0  0  0  0  2  0  0  0  0  0  0
  -28.2030  -12.7830   18.6000 C   0  0  0  0  0  2  0  0  0  0  0  0
  -27.8460  -13.5630   19.9000 C   0  0  0  0  0  3  0  0  0  0  0  0
  -28.9030  -13.3430   21.0020 C   0  0  0  0  0  2  0  0  0  0  0  0
  -30.2150  -13.6720   20.4260 N   0  0  0  0  0  0  0  0  0  0  0  0
  -32.1090  -14.9340   20.4480 O   0  0  0  0  0  0  0  0  0  0  0  0
  -30.1270  -15.9940   20.4520 N   0  0  0  0  0  0  0  0  0  0  0  0
  -25.4270  -14.1620   20.5480 C   0  0  0  0  0  0  0  0  0  0  0  0
  -24.3510  -13.3840   20.8650 C   0  0  0  0  0  0  0  0  0  0  0  0
  -24.8250  -12.0380   20.8570 C   0  0  0  0  0  0  0  0  0  0  0  0
  -26.4880  -13.2870   20.3560 N   0  0  0  0  0  0  0  0  0  0  0  0
  -26.1260  -12.0050   20.6060 N   0  0  0  0  0  0  0  0  0  0  0  0
  -24.1070  -10.7710   21.0180 C   0  0  0  0  0  0  0  0  0  0  0  0
  -24.4960   -9.8210   21.9870 C   0  0  0  0  0  3  0  0  0  0  0  0
  -23.7770   -8.6170   22.1360 C   0  0  0  0  0  3  0  0  0  0  0  0
  -22.6540   -8.3570   21.3150 C   0  0  0  0  0  0  0  0  0  0  0  0
  -22.2840   -9.2970   20.3380 C   0  0  0  0  0  3  0  0  0  0  0  0
  -23.0060  -10.4920   20.1850 C   0  0  0  0  0  3  0  0  0  0  0  0
  -21.9130   -7.2020   21.3700 O   0  0  0  0  0  0  0  0  0  0  0  0
  -21.7820   -6.4880   22.5340 C   0  0  0  0  0  0  0  0  0  0  0  0
  -21.2560   -7.0670   23.7100 C   0  0  0  0  0  3  0  0  0  0  0  0
  -21.0750   -6.2790   24.8630 C   0  0  0  0  0  3  0  0  0  0  0  0
  -21.4110   -4.9120   24.8410 C   0  0  0  0  0  0  0  0  0  0  0  0
  -21.9310   -4.3330   23.6710 C   0  0  0  0  0  3  0  0  0  0  0  0
  -22.1140   -5.1180   22.5200 C   0  0  0  0  0  0  0  0  0  0  0  0
  -22.5960   -4.5510   21.3880 F   0  0  0  0  0  0  0  0  0  0  0  0
  -21.2280   -4.1520   25.9460 F   0  0  0  0  0  0  0  0  0  0  0  0
  -22.9400  -13.8530   21.0770 C   0  0  0  0  0  0  0  0  0  0  0  0
  -22.1870  -13.1650   21.9270 N   0  0  0  0  0  0  0  0  0  0  0  0
  -22.5160  -14.8690   20.5280 O   0  0  0  0  0  0  0  0  0  0  0  0
  -22.5410  -12.3470   22.3980 H   0  0  0  0  0  0  0  0  0  0  0  0
  -21.2400  -13.4680   22.1110 H   0  0  0  0  0  0  0  0  0  0  0  0
  -25.5850  -15.5360   20.3950 N   0  0  0  0  0  0  0  0  0  0  0  0
  -24.8160  -16.1700   20.5810 H   0  0  0  0  0  0  0  0  0  0  0  0
  -26.4850  -15.9890   20.4170 H   0  0  0  0  0  0  0  0  0  0  0  0
  -29.6910  -16.3580   19.0810 C   0  0  0  0  0  2  0  0  0  0  0  0
  -28.5720  -17.4250   18.9700 C   0  0  0  0  0  2  0  0  0  0  0  0
  -28.2430  -17.7650   17.5710 N   0  0  0  0  0  4  0  0  0  0  0  0
  -27.9050  -16.9630   17.0640 H   0  0  0  0  0  0  0  0  0  0  0  0
  -29.0320  -18.1480   17.0810 H   0  0  0  0  0  0  0  0  0  0  0  0
  -27.5170  -18.4600   17.5570 H   0  0  0  0  0  0  0  0  0  0  0  0
  -28.2250  -24.2280   19.8260 C   0  0  0  0  0  2  0  0  0  0  0  0
  -28.5470  -25.6270   19.2010 C   0  0  0  0  0  2  0  0  0  0  0  0
  -28.3470  -26.7680   20.0500 O   0  0  0  0  0  0  0  0  0  0  0  0
  -24.5830  -31.9150   23.1750 C   0  0  0  0  0  0  0  0  0  0  0  0
  -27.1520  -27.4690   20.0250 C   0  0  0  0  0  0  0  0  0  0  0  0
  -23.3290  -30.5120   21.5650 C   0  0  0  0  0  3  0  0  0  0  0  0
  -24.7470  -28.9740   20.0950 C   0  0  0  0  0  0  0  0  0  0  0  0
  -25.8450  -30.8730   21.2970 C   0  0  0  0  0  2  0  0  0  0  0  0
  -25.9150  -29.4980   20.6590 C   0  0  0  0  0  0  0  0  0  0  0  0
  -27.1140  -28.7490   20.6290 C   0  0  0  0  0  3  0  0  0  0  0  0
  -25.9600  -26.9600   19.4560 C   0  0  0  0  0  3  0  0  0  0  0  0
  -24.7640  -27.7040   19.4930 C   0  0  0  0  0  3  0  0  0  0  0  0
  -23.5010  -29.8320   20.1780 C   0  0  0  0  0  2  0  0  0  0  0  0
  -24.6050  -31.1160   22.0700 N   0  0  0  0  0  0  0  0  0  0  0  0
  -23.5190  -32.1880   23.7490 O   0  0  0  0  0  0  0  0  0  0  0  0
  -22.7080  -29.4910   22.5430 C   0  0  0  0  0  0  0  0  0  0  0  0
  -21.3830  -29.2980   22.4430 N   0  0  0  0  0  0  0  0  0  0  0  0
  -23.4120  -28.8780   23.3500 O   0  0  0  0  0  0  0  0  0  0  0  0
  -20.8790  -29.8460   21.7600 H   0  0  0  0  0  0  0  0  0  0  0  0
  -18.0320  -28.0600   22.9840 C   0  0  0  0  0  0  0  0  0  0  0  0
  -20.5880  -28.3590   23.2330 C   0  0  0  0  0  3  0  0  0  0  0  0
  -20.7080  -26.9240   22.6720 C   0  0  0  0  0  2  0  0  0  0  0  0
  -19.6000  -26.5710   21.6720 C   0  0  0  0  0  2  0  0  0  0  0  0
  -18.2220  -26.7030   22.3250 C   0  0  0  0  0  2  0  0  0  0  0  0
  -19.1430  -28.8430   23.3950 C   0  0  0  0  0  0  0  0  0  0  0  0
  -18.9110  -30.1110   23.9700 C   0  0  0  0  0  3  0  0  0  0  0  0
  -17.6010  -30.5960   24.1400 C   0  0  0  0  0  3  0  0  0  0  0  0
  -16.5040  -29.8090   23.7460 C   0  0  0  0  0  3  0  0  0  0  0  0
  -16.7210  -28.5440   23.1730 C   0  0  0  0  0  3  0  0  0  0  0  0
  -25.8880  -32.5440   23.7560 C   0  0  0  0  0  3  0  0  0  0  0  0
  -26.4530  -31.7560   25.0020 C   0  0  1  0  0  0  0  0  0  0  0  0
  -25.4040  -31.5000   26.1070 C   0  0  0  0  0  1  0  0  0  0  0  0
  -27.0260  -30.3870   24.5680 C   0  0  0  0  0  1  0  0  0  0  0  0
  -27.6250  -32.5470   25.6340 C   0  0  0  0  0  1  0  0  0  0  0  0
  -25.5890  -33.9370   24.1140 N   0  0  0  0  0  0  0  0  0  0  0  0
  -25.9060  -35.0000   23.3620 C   0  0  0  0  0  0  0  0  0  0  0  0
  -26.5570  -34.9110   22.3170 O   0  0  0  0  0  0  0  0  0  0  0  0
  -25.0080  -34.0790   24.9270 H   0  0  0  0  0  0  0  0  0  0  0  0
  -24.1740  -36.7960   23.0580 C   0  0  0  0  0  1  0  0  0  0  0  0
  -25.4260  -36.3800   23.8470 C   0  0  0  0  0  3  0  0  0  0  0  0
  -27.5710  -37.2530   24.6580 C   0  0  0  0  0  1  0  0  0  0  0  0
  -26.4540  -37.4360   23.7330 N   0  0  0  0  0  0  0  0  0  0  0  0
  -26.0500  -38.3530   23.9010 H   0  0  0  0  0  0  0  0  0  0  0  0
  1  3  1  0
  1  5  1  0
  3  6  1  0
  4  2  1  0
  5  8  1  0
  5  2  1  0
  6  4  1  0
  6  7  1  1
  8 13  1  0
  8  9  1  6
 10  8  1  0
 11 12  1  0
 12 10  1  0
 13 14  1  0
 16 21  1  0
 17 18  1  0
 17 16  1  0
 19 18  1  0
 19 27  1  0
 19 20  1  0
 21 15  1  0
 21 20  1  0
 22 15  2  0
 23 15  1  0
 23 14  1  0
 24 25  2  0
 25 44  1  0
 26 25  1  0
 26 29  1  0
 27 24  1  0
 27 28  1  0
 28 26  2  0
 29 30  1  0
 30 31  2  0
 32 35  1  0
 32 31  1  0
 33 32  2  0
 34 33  1  0
 34 29  2  0
 35 36  1  0
 36 37  1  0
 37 38  2  0
 39 38  1  0
 39 43  1  0
 40 39  2  0
 41 36  2  0
 41 40  1  0
 42 41  1  0
 44 45  1  0
 45 48  1  0
 45 47  1  0
 46 44  2  0
 49 51  1  0
 49 24  1  0
 49 50  1  0
 52 23  1  0
 53 52  1  0
 54 53  1  0
 55 54  1  0
 56 54  1  0
 57 54  1  0
 58  6  1  0
 59 58  1  0
 59 60  1  0
 61 72  2  0
 62 60  1  0
 62 67  1  0
 63 71  1  0
 63 73  1  0
 64 70  1  0
 64 66  1  0
 65 71  1  0
 66 65  1  0
 67 66  2  0
 68 69  1  0
 68 62  2  0
 69 64  2  0
 70 63  1  0
 71 61  1  0
 73 75  2  0
 74 73  1  0
 76 74  1  0
 77 86  2  0
 77 82  1  0
 78 74  1  0
 78 82  1  0
 79 78  1  0
 80 81  1  0
 80 79  1  0
 81 77  1  0
 82 83  2  0
 83 84  1  0
 85 84  2  0
 86 85  1  0
 87 61  1  0
 87 92  1  0
 87 88  1  0
 88 91  1  1
 88 89  1  0
 90 88  1  0
 92 95  1  0
 93 97  1  0
 93 92  1  0
 94 93  2  0
 97 96  1  0
 99 97  1  0
 99100  1  0
 99 98  1  0
M  ISO  4  15 100  23 100  59 101  60 101
M  END
>  <TORSDO>  (26) 
F 26

>  <SCORE>  (26) 
-12.347

>  <name>  (26) 
25

>  <ligand_id>  (26) 
25

>  <original_smiles>  (26) 
[H]c1c([H])c([H])c2c(c1[H])C([H])([H])C([H])([H])C([H])([H])C2([H])N([H])C(=O)C1([H])N(C(=O)C([H])(N([H])C(=O)C([H])(N([H])C([H])([H])[H])C([H])([H])[H])C(C([H])([H])[H])(C([H])([H])[H])C([H])([H])[H])C([H])([H])c2c([H])c(OC([H])([H])C([H])([H])[N+]3([H])C([H])([H])C([H])([H])C([H])([N+]([H])(C([H])([H])C([H])([H])N(C(=O)N4C([H])([H])C([H])([H])C([H])([H])C([H])(n5nc(-c6c([H])c([H])c(Oc7c([H])c([H])c(F)c([H])c7F)c([H])c6[H])c(C(=O)N([H])[H])c5N([H])[H])C4([H])[H])C([H])([H])C([H])([H])[N+]([H])([H])[H])C([H])([H])C([H])([H])C([H])([H])[H])C([H])([H])C3([H])[H])c([H])c([H])c2C1([H])[H]

>  <smiles>  (26) 
[H]c1c([H])c([H])c2c(c1[H])C([H])([H])C([H])([H])C([H])([H])C2([H])N([H])C(=O)C1([H])N(C(=O)C([H])(N([H])C(=O)C([H])(N([H])C([H])([H])[H])C([H])([H])[H])C(C([H])([H])[H])(C([H])([H])[H])C([H])([H])[H])C([H])([H])c2c([H])c(OC([H])([H])C([H])([H])[N+]3([H])C([H])([H])C([H])([H])C([H])([N+]([H])(C([H])([H])C([H])([H])N(C(=O)N4C([H])([H])C([H])([H])C([H])([H])C([H])(n5nc(-c6c([H])c([H])c(Oc7c([H])c([H])c(F)c([H])c7F)c([H])c6[H])c(C(=O)N([H])[H])c5N([H])[H])C4([H])[H])C([H])([H])C([H])([H])[N+]([H])([H])[H])C([H])([H])C([H])([H])C([H])([H])[H])C([H])([H])C3([H])[H])c([H])c([H])c2C1([H])[H]

$$$$
26:0:0
     RDKit          3D

 99107  0  0  1  0  0  0  0  0999 V2000
  -30.6980  -20.2260   22.2360 C   0  0  0  0  0  2  0  0  0  0  0  0
  -30.8300  -19.2960   21.0710 N   0  0  2  0  0  4  0  0  0  0  0  0
  -31.7580  -18.9230   21.2040 H   0  0  0  0  0  0  0  0  0  0  0  0
  -30.9460  -19.9720   19.7490 C   0  0  0  0  0  2  0  0  0  0  0  0
  -33.7830  -18.0520   17.0760 C   0  0  0  0  0  3  0  0  0  0  0  0
  -34.2050  -19.0950   17.9240 C   0  0  0  0  0  3  0  0  0  0  0  0
  -32.4430  -17.6220   17.1050 C   0  0  0  0  0  3  0  0  0  0  0  0
  -33.2880  -19.7050   18.8030 C   0  0  0  0  0  3  0  0  0  0  0  0
  -31.5240  -18.2370   17.9750 C   0  0  0  0  0  3  0  0  0  0  0  0
  -31.9410  -19.2780   18.8330 C   0  0  0  0  0  0  0  0  0  0  0  0
  -29.9800  -18.0620   21.0730 C   0  0  0  0  0  2  0  0  0  0  0  0
  -30.7940  -16.8080   21.5120 C   0  0  0  0  0  2  0  0  0  0  0  0
  -30.7140  -14.5280   20.4740 C   0  0  0  0  0  0  0  0  0  0  0  0
  -30.3550  -12.4090   19.2600 C   0  0  0  0  0  2  0  0  0  0  0  0
  -29.4050  -12.6270   18.0680 C   0  0  0  0  0  2  0  0  0  0  0  0
  -27.9370  -12.4790   18.5110 C   0  0  0  0  0  2  0  0  0  0  0  0
  -27.6160  -13.3010   19.7900 C   0  0  0  0  0  3  0  0  0  0  0  0
  -28.6820  -13.0780   20.8870 C   0  0  0  0  0  2  0  0  0  0  0  0
  -30.0020  -13.3790   20.3120 N   0  0  0  0  0  0  0  0  0  0  0  0
  -31.7940  -14.7170   19.9130 O   0  0  0  0  0  0  0  0  0  0  0  0
  -30.1550  -15.4990   21.2280 N   0  0  0  0  0  0  0  0  0  0  0  0
  -29.2690  -15.2880   21.6620 H   0  0  0  0  0  0  0  0  0  0  0  0
  -25.2210  -13.8900   20.5200 C   0  0  0  0  0  0  0  0  0  0  0  0
  -24.1630  -13.1090   20.9010 C   0  0  0  0  0  0  0  0  0  0  0  0
  -24.6330  -11.7620   20.8650 C   0  0  0  0  0  0  0  0  0  0  0  0
  -26.2710  -13.0170   20.2830 N   0  0  0  0  0  0  0  0  0  0  0  0
  -25.9210  -11.7330   20.5510 N   0  0  0  0  0  0  0  0  0  0  0  0
  -23.9210  -10.4920   21.0590 C   0  0  0  0  0  0  0  0  0  0  0  0
  -24.3700   -9.5250   21.9840 C   0  0  0  0  0  3  0  0  0  0  0  0
  -23.6570   -8.3190   22.1680 C   0  0  0  0  0  3  0  0  0  0  0  0
  -22.4780   -8.0720   21.4260 C   0  0  0  0  0  0  0  0  0  0  0  0
  -22.0470   -9.0270   20.4880 C   0  0  0  0  0  3  0  0  0  0  0  0
  -22.7610  -10.2240   20.3030 C   0  0  0  0  0  3  0  0  0  0  0  0
  -21.7300   -6.9230   21.5240 O   0  0  0  0  0  0  0  0  0  0  0  0
  -21.7030   -6.1750   22.6740 C   0  0  0  0  0  0  0  0  0  0  0  0
  -21.2940   -6.7230   23.9110 C   0  0  0  0  0  3  0  0  0  0  0  0
  -21.2140   -5.9010   25.0520 C   0  0  0  0  0  3  0  0  0  0  0  0
  -21.5330   -4.5320   24.9590 C   0  0  0  0  0  0  0  0  0  0  0  0
  -21.9320   -3.9850   23.7280 C   0  0  0  0  0  3  0  0  0  0  0  0
  -22.0140   -4.8040   22.5890 C   0  0  0  0  0  0  0  0  0  0  0  0
  -22.3790   -4.2650   21.4000 F   0  0  0  0  0  0  0  0  0  0  0  0
  -21.4470   -3.7400   26.0530 F   0  0  0  0  0  0  0  0  0  0  0  0
  -22.7650  -13.5730   21.1860 C   0  0  0  0  0  0  0  0  0  0  0  0
  -22.0480  -12.8670   22.0550 N   0  0  0  0  0  0  0  0  0  0  0  0
  -22.3150  -14.5930   20.6680 O   0  0  0  0  0  0  0  0  0  0  0  0
  -22.4250  -12.0390   22.4950 H   0  0  0  0  0  0  0  0  0  0  0  0
  -21.1070  -13.1560   22.2840 H   0  0  0  0  0  0  0  0  0  0  0  0
  -25.3790  -15.2620   20.3390 N   0  0  0  0  0  0  0  0  0  0  0  0
  -24.6150  -15.9200   20.4430 H   0  0  0  0  0  0  0  0  0  0  0  0
  -26.2260  -15.6920   19.9850 H   0  0  0  0  0  0  0  0  0  0  0  0
  -29.7370  -21.4450   22.0730 C   0  0  0  0  0  2  0  0  0  0  0  0
  -30.1270  -22.6250   23.0010 C   0  0  0  0  0  2  0  0  0  0  0  0
  -29.2200  -23.8730   22.8980 C   0  0  0  0  0  2  0  0  0  0  0  0
  -29.5630  -24.7410   21.7480 N   0  0  0  0  0  4  0  0  0  0  0  0
  -28.9030  -24.5630   21.0030 H   0  0  0  0  0  0  0  0  0  0  0  0
  -30.4780  -24.4900   21.4060 H   0  0  0  0  0  0  0  0  0  0  0  0
  -29.5610  -26.1980   22.0390 C   0  0  0  0  0  2  0  0  0  0  0  0
  -29.6750  -27.0150   20.7470 C   0  0  0  0  0  2  0  0  0  0  0  0
  -28.4960  -26.7530   19.9970 O   0  0  0  0  0  0  0  0  0  0  0  0
  -24.6450  -31.9120   23.2350 C   0  0  0  0  0  0  0  0  0  0  0  0
  -27.3600  -27.5150   20.1540 C   0  0  0  0  0  0  0  0  0  0  0  0
  -23.4560  -30.4920   21.5960 C   0  0  0  0  0  3  0  0  0  0  0  0
  -24.9290  -28.9580   20.1900 C   0  0  0  0  0  0  0  0  0  0  0  0
  -25.9740  -30.8800   21.3980 C   0  0  0  0  0  2  0  0  0  0  0  0
  -26.0770  -29.5020   20.7820 C   0  0  0  0  0  0  0  0  0  0  0  0
  -27.2930  -28.7840   20.7820 C   0  0  0  0  0  3  0  0  0  0  0  0
  -26.1880  -26.9770   19.5790 C   0  0  0  0  0  3  0  0  0  0  0  0
  -24.9740  -27.6860   19.6000 C   0  0  0  0  0  3  0  0  0  0  0  0
  -23.6770  -29.8060   20.2220 C   0  0  0  0  0  2  0  0  0  0  0  0
  -24.7100  -31.1100   22.1350 N   0  0  0  0  0  0  0  0  0  0  0  0
  -23.5590  -32.1720   23.7730 O   0  0  0  0  0  0  0  0  0  0  0  0
  -22.8160  -29.4670   22.5580 C   0  0  0  0  0  0  0  0  0  0  0  0
  -21.4920  -29.2790   22.4370 N   0  0  0  0  0  0  0  0  0  0  0  0
  -23.5060  -28.8430   23.3690 O   0  0  0  0  0  0  0  0  0  0  0  0
  -20.9950  -29.8410   21.7590 H   0  0  0  0  0  0  0  0  0  0  0  0
  -18.1220  -28.0780   22.9500 C   0  0  0  0  0  0  0  0  0  0  0  0
  -20.6820  -28.3370   23.2090 C   0  0  0  0  0  3  0  0  0  0  0  0
  -20.7810  -26.9070   22.6270 C   0  0  0  0  0  2  0  0  0  0  0  0
  -19.6730  -26.5860   21.6190 C   0  0  0  0  0  2  0  0  0  0  0  0
  -18.2950  -26.7310   22.2700 C   0  0  0  0  0  2  0  0  0  0  0  0
  -19.2420  -28.8400   23.3770 C   0  0  0  0  0  0  0  0  0  0  0  0
  -19.0270  -30.1020   23.9690 C   0  0  0  0  0  3  0  0  0  0  0  0
  -17.7220  -30.6040   24.1400 C   0  0  0  0  0  3  0  0  0  0  0  0
  -16.6170  -29.8390   23.7290 C   0  0  0  0  0  3  0  0  0  0  0  0
  -16.8170  -28.5790   23.1390 C   0  0  0  0  0  3  0  0  0  0  0  0
  -25.9220  -32.5590   23.8540 C   0  0  0  0  0  3  0  0  0  0  0  0
  -25.5960  -33.9530   24.1870 N   0  0  0  0  0  0  0  0  0  0  0  0
  -25.9170  -35.0100   23.4280 C   0  0  0  0  0  0  0  0  0  0  0  0
  -26.5880  -34.9130   22.3950 O   0  0  0  0  0  0  0  0  0  0  0  0
  -25.0010  -34.1000   24.9900 H   0  0  0  0  0  0  0  0  0  0  0  0
  -24.1700  -36.7790   23.0620 C   0  0  0  0  0  1  0  0  0  0  0  0
  -25.4120  -36.3920   23.8800 C   0  0  0  0  0  3  0  0  0  0  0  0
  -27.5340  -37.2980   24.7210 C   0  0  0  0  0  1  0  0  0  0  0  0
  -26.4330  -37.4560   23.7730 N   0  0  0  0  0  0  0  0  0  0  0  0
  -26.0160  -38.3710   23.9190 H   0  0  0  0  0  0  0  0  0  0  0  0
  -26.4530  -31.7900   25.1240 C   0  0  1  0  0  0  0  0  0  0  0  0
  -25.3700  -31.5320   26.1980 C   0  0  0  0  0  1  0  0  0  0  0  0
  -27.0510  -30.4230   24.7160 C   0  0  0  0  0  1  0  0  0  0  0  0
  -27.5990  -32.5940   25.7820 C   0  0  0  0  0  1  0  0  0  0  0  0
  2 11  1  0
  2  3  1  1
  2  1  1  0
  4  2  1  0
  5  7  2  0
  5  6  1  0
  6  8  2  0
  7  9  1  0
  8 10  1  0
  9 10  2  0
 10  4  1  0
 11 12  1  0
 13 21  1  0
 14 19  1  0
 15 16  1  0
 15 14  1  0
 17 16  1  0
 17 26  1  0
 17 18  1  0
 19 13  1  0
 19 18  1  0
 20 13  2  0
 21 12  1  0
 21 22  1  0
 23 24  2  0
 24 43  1  0
 25 24  1  0
 25 28  1  0
 26 23  1  0
 26 27  1  0
 27 25  2  0
 28 29  1  0
 29 30  2  0
 31 34  1  0
 31 30  1  0
 32 31  2  0
 33 32  1  0
 33 28  2  0
 34 35  1  0
 35 36  1  0
 36 37  2  0
 38 37  1  0
 38 42  1  0
 39 38  2  0
 40 35  2  0
 40 39  1  0
 41 40  1  0
 43 44  1  0
 44 47  1  0
 44 46  1  0
 45 43  2  0
 48 49  1  0
 48 23  1  0
 50 48  1  0
 51  1  1  0
 51 52  1  0
 53 52  1  0
 54 57  1  0
 54 53  1  0
 55 54  1  0
 56 54  1  0
 58 57  1  0
 59 61  1  0
 59 58  1  0
 60 71  2  0
 61 66  1  0
 62 70  1  0
 62 72  1  0
 63 69  1  0
 63 65  1  0
 64 70  1  0
 65 64  1  0
 66 65  2  0
 67 68  1  0
 67 61  2  0
 68 63  2  0
 69 62  1  0
 70 60  1  0
 72 74  2  0
 73 72  1  0
 75 73  1  0
 76 85  2  0
 76 81  1  0
 77 73  1  0
 77 81  1  0
 78 77  1  0
 79 80  1  0
 79 78  1  0
 80 76  1  0
 81 82  2  0
 82 83  1  0
 84 83  2  0
 85 84  1  0
 86 60  1  0
 86 87  1  0
 86 96  1  0
 87 90  1  0
 88 92  1  0
 88 87  1  0
 89 88  2  0
 92 91  1  0
 94 92  1  0
 94 95  1  0
 94 93  1  0
 96 99  1  1
 96 97  1  0
 98 96  1  0
M  ISO  4  13 100  21 100  58 101  59 101
M  END
>  <TORSDO>  (27) 
F 27

>  <SCORE>  (27) 
-11.911

>  <name>  (27) 
26

>  <ligand_id>  (27) 
26

>  <original_smiles>  (27) 
[H]c1c([H])c([H])c(C([H])([H])[N+]([H])(C([H])([H])C([H])([H])N([H])C(=O)N2C([H])([H])C([H])([H])C([H])([H])C([H])(n3nc(-c4c([H])c([H])c(Oc5c([H])c([H])c(F)c([H])c5F)c([H])c4[H])c(C(=O)N([H])[H])c3N([H])[H])C2([H])[H])C([H])([H])C([H])([H])C([H])([H])C([H])([H])[N+]([H])([H])C([H])([H])C([H])([H])Oc2c([H])c([H])c3c(c2[H])C([H])([H])N(C(=O)C([H])(N([H])C(=O)C([H])(N([H])C([H])([H])[H])C([H])([H])[H])C(C([H])([H])[H])(C([H])([H])[H])C([H])([H])[H])C([H])(C(=O)N([H])C2([H])c4c([H])c([H])c([H])c([H])c4C([H])([H])C([H])([H])C2([H])[H])C3([H])[H])c([H])c1[H]

>  <smiles>  (27) 
[H]c1c([H])c([H])c(C([H])([H])[N+]([H])(C([H])([H])C([H])([H])N([H])C(=O)N2C([H])([H])C([H])([H])C([H])([H])C([H])(n3nc(-c4c([H])c([H])c(Oc5c([H])c([H])c(F)c([H])c5F)c([H])c4[H])c(C(=O)N([H])[H])c3N([H])[H])C2([H])[H])C([H])([H])C([H])([H])C([H])([H])C([H])([H])[N+]([H])([H])C([H])([H])C([H])([H])Oc2c([H])c([H])c3c(c2[H])C([H])([H])N(C(=O)C([H])(N([H])C(=O)C([H])(N([H])C([H])([H])[H])C([H])([H])[H])C(C([H])([H])[H])(C([H])([H])[H])C([H])([H])[H])C([H])(C(=O)N([H])C2([H])c4c([H])c([H])c([H])c([H])c4C([H])([H])C([H])([H])C2([H])[H])C3([H])[H])c([H])c1[H]

$$$$
27:0:0
     RDKit          3D

 94102  0  0  1  0  0  0  0  0999 V2000
  -29.5610  -21.5830   19.8170 C   0  0  0  0  0  3  0  0  0  0  0  0
  -26.3180  -20.7280   19.0100 C   0  0  0  0  0  2  0  0  0  0  0  0
  -27.0760  -21.9950   19.3920 C   0  0  0  0  0  2  0  0  0  0  0  0
  -27.6070  -20.0170   19.3990 C   0  0  0  0  0  2  0  0  0  0  0  0
  -28.3060  -21.2610   19.0650 N   0  0  2  0  0  4  0  0  0  0  0  0
  -28.4610  -21.2950   18.0670 H   0  0  0  0  0  0  0  0  0  0  0  0
  -29.8040  -23.3730   19.7260 C   0  0  0  0  0  2  0  0  0  0  0  0
  -28.9990  -24.9370   19.3620 C   0  0  0  0  0  2  0  0  0  0  0  0
  -29.0600  -26.4730   19.8840 O   0  0  0  0  0  0  0  0  0  0  0  0
  -24.7070  -31.6580   23.1250 C   0  0  0  0  0  0  0  0  0  0  0  0
  -27.9360  -27.4340   19.8480 C   0  0  0  0  0  0  0  0  0  0  0  0
  -23.7620  -30.3200   21.2870 C   0  0  0  0  0  3  0  0  0  0  0  0
  -25.4510  -29.0260   19.8250 C   0  0  0  0  0  0  0  0  0  0  0  0
  -26.2920  -30.8170   21.3310 C   0  0  0  0  0  2  0  0  0  0  0  0
  -26.5490  -29.5000   20.5540 C   0  0  0  0  0  0  0  0  0  0  0  0
  -27.7890  -28.7260   20.5420 C   0  0  0  0  0  3  0  0  0  0  0  0
  -26.7940  -27.1000   19.0860 C   0  0  0  0  0  3  0  0  0  0  0  0
  -25.5920  -27.8490   19.0770 C   0  0  0  0  0  3  0  0  0  0  0  0
  -24.1390  -29.8020   19.8730 C   0  0  0  0  0  2  0  0  0  0  0  0
  -24.9360  -30.9530   21.9710 N   0  0  0  0  0  0  0  0  0  0  0  0
  -23.5660  -31.7840   23.5960 O   0  0  0  0  0  0  0  0  0  0  0  0
  -23.1260  -29.1670   22.1050 C   0  0  0  0  0  0  0  0  0  0  0  0
  -21.8200  -28.9130   21.9060 N   0  0  0  0  0  0  0  0  0  0  0  0
  -23.8160  -28.5050   22.8850 O   0  0  0  0  0  0  0  0  0  0  0  0
  -21.3140  -29.5050   21.2630 H   0  0  0  0  0  0  0  0  0  0  0  0
  -18.5120  -27.4580   22.2150 C   0  0  0  0  0  0  0  0  0  0  0  0
  -21.0520  -27.8310   22.5330 C   0  0  0  0  0  3  0  0  0  0  0  0
  -21.2360  -26.5000   21.7670 C   0  0  0  0  0  2  0  0  0  0  0  0
  -20.1540  -26.2570   20.7090 C   0  0  0  0  0  2  0  0  0  0  0  0
  -18.7670  -26.2310   21.3570 C   0  0  0  0  0  2  0  0  0  0  0  0
  -19.5840  -28.2190   22.7540 C   0  0  0  0  0  0  0  0  0  0  0  0
  -19.2900  -29.3680   23.5190 C   0  0  0  0  0  3  0  0  0  0  0  0
  -17.9570  -29.7590   23.7490 C   0  0  0  0  0  3  0  0  0  0  0  0
  -16.9000  -28.9940   23.2250 C   0  0  0  0  0  3  0  0  0  0  0  0
  -17.1790  -27.8450   22.4630 C   0  0  0  0  0  3  0  0  0  0  0  0
  -25.8670  -32.3550   23.9000 C   0  0  0  0  0  3  0  0  0  0  0  0
  -26.2340  -31.6270   25.2520 C   0  0  1  0  0  0  0  0  0  0  0  0
  -25.0180  -31.3720   26.1740 C   0  0  0  0  0  1  0  0  0  0  0  0
  -26.9070  -30.2630   24.9780 C   0  0  0  0  0  1  0  0  0  0  0  0
  -27.2630  -32.4730   26.0390 C   0  0  0  0  0  1  0  0  0  0  0  0
  -25.4600  -33.7460   24.1660 N   0  0  0  0  0  0  0  0  0  0  0  0
  -25.8240  -34.8060   23.4330 C   0  0  0  0  0  0  0  0  0  0  0  0
  -26.6000  -34.7190   22.4770 O   0  0  0  0  0  0  0  0  0  0  0  0
  -24.7790  -33.8850   24.8990 H   0  0  0  0  0  0  0  0  0  0  0  0
  -24.0530  -36.5150   22.8990 C   0  0  0  0  0  1  0  0  0  0  0  0
  -25.2380  -36.1790   23.8180 C   0  0  0  0  0  3  0  0  0  0  0  0
  -27.2420  -37.1900   24.8160 C   0  0  0  0  0  1  0  0  0  0  0  0
  -26.2280  -37.2780   23.7690 N   0  0  0  0  0  0  0  0  0  0  0  0
  -25.7680  -38.1810   23.8500 H   0  0  0  0  0  0  0  0  0  0  0  0
  -30.6580  -20.1910   19.5610 C   0  0  0  0  0  3  0  0  0  0  0  0
  -30.8250  -18.6620   20.4720 C   0  0  0  0  0  2  0  0  0  0  0  0
  -31.4510  -15.8190   20.0910 C   0  0  0  0  0  0  0  0  0  0  0  0
  -31.4100  -13.3790   19.2480 C   0  0  0  0  0  2  0  0  0  0  0  0
  -30.4970  -13.1780   18.0150 C   0  0  0  0  0  2  0  0  0  0  0  0
  -29.0350  -12.9440   18.4450 C   0  0  0  0  0  2  0  0  0  0  0  0
  -28.5860  -13.9230   19.5600 C   0  0  0  0  0  3  0  0  0  0  0  0
  -29.6280  -14.0680   20.6850 C   0  0  0  0  0  2  0  0  0  0  0  0
  -30.8720  -14.5290   20.0470 N   0  0  0  0  0  0  0  0  0  0  0  0
  -32.6790  -15.8380   19.9350 O   0  0  0  0  0  0  0  0  0  0  0  0
  -30.6680  -17.0600   20.0990 N   0  0  0  0  0  0  0  0  0  0  0  0
  -29.6890  -16.8110   20.0540 H   0  0  0  0  0  0  0  0  0  0  0  0
  -26.2380  -14.5170   20.3620 C   0  0  0  0  0  0  0  0  0  0  0  0
  -25.1560  -13.7570   20.7030 C   0  0  0  0  0  0  0  0  0  0  0  0
  -25.5820  -12.3960   20.6010 C   0  0  0  0  0  0  0  0  0  0  0  0
  -27.2510  -13.6250   20.0630 N   0  0  0  0  0  0  0  0  0  0  0  0
  -26.8690  -12.3390   20.2760 N   0  0  0  0  0  0  0  0  0  0  0  0
  -24.8190  -11.1480   20.7340 C   0  0  0  0  0  0  0  0  0  0  0  0
  -25.1850  -10.1530   21.6670 C   0  0  0  0  0  3  0  0  0  0  0  0
  -24.4220   -8.9730   21.7910 C   0  0  0  0  0  3  0  0  0  0  0  0
  -23.2780   -8.7790   20.9820 C   0  0  0  0  0  0  0  0  0  0  0  0
  -22.9290   -9.7610   20.0390 C   0  0  0  0  0  3  0  0  0  0  0  0
  -23.6930  -10.9340   19.9130 C   0  0  0  0  0  3  0  0  0  0  0  0
  -22.4910   -7.6510   21.0140 O   0  0  0  0  0  0  0  0  0  0  0  0
  -22.2760   -6.9570   22.1770 C   0  0  0  0  0  0  0  0  0  0  0  0
  -21.6750   -7.5600   23.3040 C   0  0  0  0  0  3  0  0  0  0  0  0
  -21.4080   -6.7910   24.4550 C   0  0  0  0  0  3  0  0  0  0  0  0
  -21.7310   -5.4220   24.4790 C   0  0  0  0  0  0  0  0  0  0  0  0
  -22.3230   -4.8180   23.3560 C   0  0  0  0  0  3  0  0  0  0  0  0
  -22.5930   -5.5840   22.2080 C   0  0  0  0  0  0  0  0  0  0  0  0
  -23.1450   -4.9930   21.1210 F   0  0  0  0  0  0  0  0  0  0  0  0
  -21.4680   -4.6820   25.5810 F   0  0  0  0  0  0  0  0  0  0  0  0
  -23.7740  -14.2610   21.0050 C   0  0  0  0  0  0  0  0  0  0  0  0
  -23.0360  -13.5610   21.8580 N   0  0  0  0  0  0  0  0  0  0  0  0
  -23.3620  -15.3150   20.5220 O   0  0  0  0  0  0  0  0  0  0  0  0
  -23.3820  -12.7090   22.2740 H   0  0  0  0  0  0  0  0  0  0  0  0
  -22.1090  -13.8820   22.0990 H   0  0  0  0  0  0  0  0  0  0  0  0
  -26.4390  -15.8920   20.2510 N   0  0  0  0  0  0  0  0  0  0  0  0
  -25.6940  -16.5590   20.4170 H   0  0  0  0  0  0  0  0  0  0  0  0
  -27.2770  -16.3190   19.8780 H   0  0  0  0  0  0  0  0  0  0  0  0
  -32.0760  -20.8140   19.5230 C   0  0  0  0  0  2  0  0  0  0  0  0
  -33.0830  -19.9650   18.8570 N   0  0  0  0  0  4  0  0  0  0  0  0
  -33.1590  -19.0670   19.3010 H   0  0  0  0  0  0  0  0  0  0  0  0
  -33.9820  -20.4120   18.9080 H   0  0  0  0  0  0  0  0  0  0  0  0
  -32.8580  -19.8290   17.8870 H   0  0  0  0  0  0  0  0  0  0  0  0
  1  7  1  0
  2  3  1  0
  2  4  1  0
  5  3  1  0
  5  4  1  0
  5  1  1  0
  5  6  1  6
  8  7  1  0
  8  9  1  0
 10 21  2  0
 11  9  1  0
 11 16  1  0
 12 20  1  0
 12 22  1  0
 13 19  1  0
 13 15  1  0
 14 20  1  0
 15 14  1  0
 16 15  2  0
 17 11  2  0
 18 17  1  0
 18 13  2  0
 19 12  1  0
 20 10  1  0
 22 24  2  0
 23 22  1  0
 25 23  1  0
 26 35  2  0
 26 31  1  0
 27 23  1  0
 27 31  1  0
 28 27  1  0
 29 30  1  0
 29 28  1  0
 30 26  1  0
 31 32  2  0
 32 33  1  0
 34 33  2  0
 35 34  1  0
 36 10  1  0
 36 41  1  0
 36 37  1  0
 37 40  1  1
 37 38  1  0
 39 37  1  0
 41 44  1  0
 42 46  1  0
 42 41  1  0
 43 42  2  0
 46 45  1  0
 48 46  1  0
 48 49  1  0
 48 47  1  0
 50 90  1  0
 50  1  1  0
 50 51  1  0
 52 60  1  0
 53 58  1  0
 54 55  1  0
 54 53  1  0
 56 55  1  0
 56 65  1  0
 56 57  1  0
 58 52  1  0
 58 57  1  0
 59 52  2  0
 60 51  1  0
 61 60  1  0
 62 63  2  0
 63 82  1  0
 64 63  1  0
 64 67  1  0
 65 66  1  0
 65 62  1  0
 66 64  2  0
 67 68  1  0
 68 69  2  0
 70 73  1  0
 70 69  1  0
 71 70  2  0
 72 71  1  0
 72 67  2  0
 73 74  1  0
 74 79  2  0
 74 75  1  0
 75 76  2  0
 76 77  1  0
 77 81  1  0
 78 77  2  0
 79 78  1  0
 80 79  1  0
 82 83  1  0
 83 86  1  0
 83 85  1  0
 84 82  2  0
 87 62  1  0
 87 88  1  0
 89 87  1  0
 91 93  1  0
 91 92  1  0
 91 90  1  0
 94 91  1  0
M  ISO  4   8 101   9 101  52 100  60 100
M  END
>  <TORSDO>  (28) 
F 23

>  <SCORE>  (28) 
-12.031

>  <name>  (28) 
27

>  <ligand_id>  (28) 
27

>  <original_smiles>  (28) 
[H]c1c([H])c([H])c2c(c1[H])C([H])([H])C([H])([H])C([H])([H])C2([H])N([H])C(=O)C1([H])N(C(=O)C([H])(N([H])C(=O)C([H])(N([H])C([H])([H])[H])C([H])([H])[H])C(C([H])([H])[H])(C([H])([H])[H])C([H])([H])[H])C([H])([H])c2c([H])c(OC([H])([H])C([H])([H])C([H])(C([H])(C([H])([H])N([H])C(=O)N3C([H])([H])C([H])([H])C([H])([H])C([H])(n4nc(-c5c([H])c([H])c(Oc6c([H])c([H])c(F)c([H])c6F)c([H])c5[H])c(C(=O)N([H])[H])c4N([H])[H])C3([H])[H])C([H])([H])[N+]([H])([H])[H])[N+]3([H])C([H])([H])C([H])([H])C3([H])[H])c([H])c([H])c2C1([H])[H]

>  <smiles>  (28) 
[H]c1c([H])c([H])c2c(c1[H])C([H])([H])C([H])([H])C([H])([H])C2([H])N([H])C(=O)C1([H])N(C(=O)C([H])(N([H])C(=O)C([H])(N([H])C([H])([H])[H])C([H])([H])[H])C(C([H])([H])[H])(C([H])([H])[H])C([H])([H])[H])C([H])([H])c2c([H])c(OC([H])([H])C([H])([H])C([H])(C([H])(C([H])([H])N([H])C(=O)N3C([H])([H])C([H])([H])C([H])([H])C([H])(n4nc(-c5c([H])c([H])c(Oc6c([H])c([H])c(F)c([H])c6F)c([H])c5[H])c(C(=O)N([H])[H])c4N([H])[H])C3([H])[H])C([H])([H])[N+]([H])([H])[H])[N+]3([H])C([H])([H])C([H])([H])C3([H])[H])c([H])c([H])c2C1([H])[H]

$$$$
28:0:0
     RDKit          3D

 90 98  0  0  1  0  0  0  0  0999 V2000
  -28.1970  -24.5010   21.5010 C   0  0  0  0  0  2  0  0  0  0  0  0
  -28.1250  -24.2930   18.9820 C   0  0  0  0  0  2  0  0  0  0  0  0
  -28.6890  -23.0130   21.5680 C   0  0  0  0  0  2  0  0  0  0  0  0
  -28.5990  -22.8010   19.1220 C   0  0  0  0  0  2  0  0  0  0  0  0
  -28.5700  -25.2010   20.1720 C   0  0  0  0  0  3  0  0  0  0  0  0
  -28.1730  -22.2100   20.4240 N   0  0  1  0  0  4  0  0  0  0  0  0
  -27.1850  -22.4140   20.4480 H   0  0  0  0  0  0  0  0  0  0  0  0
  -28.4190  -26.6720   20.1350 O   0  0  0  0  0  0  0  0  0  0  0  0
  -24.6350  -31.9360   23.2590 C   0  0  0  0  0  0  0  0  0  0  0  0
  -27.2250  -27.3970   20.1770 C   0  0  0  0  0  0  0  0  0  0  0  0
  -23.4130  -30.5400   21.6250 C   0  0  0  0  0  3  0  0  0  0  0  0
  -24.8470  -28.9820   20.1940 C   0  0  0  0  0  0  0  0  0  0  0  0
  -25.9460  -30.8630   21.4160 C   0  0  0  0  0  2  0  0  0  0  0  0
  -26.0190  -29.4850   20.7740 C   0  0  0  0  0  0  0  0  0  0  0  0
  -27.2070  -28.7040   20.7490 C   0  0  0  0  0  3  0  0  0  0  0  0
  -26.0260  -26.9290   19.5980 C   0  0  0  0  0  3  0  0  0  0  0  0
  -24.8510  -27.7090   19.6030 C   0  0  0  0  0  3  0  0  0  0  0  0
  -23.6110  -29.8570   20.2460 C   0  0  0  0  0  2  0  0  0  0  0  0
  -24.6850  -31.1300   22.1570 N   0  0  0  0  0  0  0  0  0  0  0  0
  -23.5560  -32.2140   23.8030 O   0  0  0  0  0  0  0  0  0  0  0  0
  -22.7590  -29.5250   22.5920 C   0  0  0  0  0  0  0  0  0  0  0  0
  -21.4350  -29.3400   22.4650 N   0  0  0  0  0  0  0  0  0  0  0  0
  -23.4440  -28.9010   23.4080 O   0  0  0  0  0  0  0  0  0  0  0  0
  -20.9440  -29.8950   21.7790 H   0  0  0  0  0  0  0  0  0  0  0  0
  -18.0640  -28.1330   22.9660 C   0  0  0  0  0  0  0  0  0  0  0  0
  -20.6190  -28.4030   23.2380 C   0  0  0  0  0  3  0  0  0  0  0  0
  -20.7280  -26.9700   22.6690 C   0  0  0  0  0  2  0  0  0  0  0  0
  -19.6280  -26.6390   21.6550 C   0  0  0  0  0  2  0  0  0  0  0  0
  -18.2450  -26.7820   22.2970 C   0  0  0  0  0  2  0  0  0  0  0  0
  -19.1790  -28.9020   23.3930 C   0  0  0  0  0  0  0  0  0  0  0  0
  -18.9550  -30.1660   23.9790 C   0  0  0  0  0  3  0  0  0  0  0  0
  -17.6480  -30.6630   24.1410 C   0  0  0  0  0  3  0  0  0  0  0  0
  -16.5470  -29.8920   23.7280 C   0  0  0  0  0  3  0  0  0  0  0  0
  -16.7560  -28.6300   23.1470 C   0  0  0  0  0  3  0  0  0  0  0  0
  -25.9240  -32.5630   23.8720 C   0  0  0  0  0  3  0  0  0  0  0  0
  -26.4510  -31.7850   25.1400 C   0  0  1  0  0  0  0  0  0  0  0  0
  -25.3680  -31.5430   26.2170 C   0  0  0  0  0  1  0  0  0  0  0  0
  -27.0300  -30.4100   24.7340 C   0  0  0  0  0  1  0  0  0  0  0  0
  -27.6070  -32.5760   25.7960 C   0  0  0  0  0  1  0  0  0  0  0  0
  -25.6190  -33.9600   24.2130 N   0  0  0  0  0  0  0  0  0  0  0  0
  -25.9200  -35.0150   23.4450 C   0  0  0  0  0  0  0  0  0  0  0  0
  -26.5570  -34.9170   22.3920 O   0  0  0  0  0  0  0  0  0  0  0  0
  -25.0510  -34.1110   25.0340 H   0  0  0  0  0  0  0  0  0  0  0  0
  -24.1610  -36.7900   23.1610 C   0  0  0  0  0  1  0  0  0  0  0  0
  -25.4400  -36.4000   23.9190 C   0  0  0  0  0  3  0  0  0  0  0  0
  -27.5990  -37.3100   24.6530 C   0  0  0  0  0  1  0  0  0  0  0  0
  -26.4550  -37.4630   23.7570 N   0  0  0  0  0  0  0  0  0  0  0  0
  -26.0480  -38.3800   23.9170 H   0  0  0  0  0  0  0  0  0  0  0  0
  -28.1210  -20.6970   20.5560 C   0  0  0  0  0  2  0  0  0  0  0  0
  -29.4120  -19.7930   20.4560 C   0  0  0  0  0  2  0  0  0  0  0  0
  -29.1030  -18.2380   20.5940 C   0  0  0  0  0  3  0  0  0  0  0  0
  -30.2830  -17.1950   20.4540 C   0  0  0  0  0  3  0  0  0  0  0  0
  -30.6590  -14.6680   20.1830 C   0  0  0  0  0  0  0  0  0  0  0  0
  -30.4060  -12.4530   19.1030 C   0  0  0  0  0  2  0  0  0  0  0  0
  -29.4250  -12.5810   17.9170 C   0  0  0  0  0  2  0  0  0  0  0  0
  -27.9630  -12.4360   18.3830 C   0  0  0  0  0  2  0  0  0  0  0  0
  -27.6390  -13.2890   19.6380 C   0  0  0  0  0  3  0  0  0  0  0  0
  -28.7270  -13.1290   20.7210 C   0  0  0  0  0  2  0  0  0  0  0  0
  -30.0210  -13.4630   20.1060 N   0  0  0  0  0  0  0  0  0  0  0  0
  -31.8160  -14.8170   19.7790 O   0  0  0  0  0  0  0  0  0  0  0  0
  -29.8960  -15.7460   20.5270 N   0  0  0  0  0  0  0  0  0  0  0  0
  -28.9450  -15.5380   20.7910 H   0  0  0  0  0  0  0  0  0  0  0  0
  -25.2680  -13.8710   20.4380 C   0  0  0  0  0  0  0  0  0  0  0  0
  -24.2160  -13.0880   20.8310 C   0  0  0  0  0  0  0  0  0  0  0  0
  -24.6840  -11.7400   20.7730 C   0  0  0  0  0  0  0  0  0  0  0  0
  -26.3080  -12.9970   20.1590 N   0  0  0  0  0  0  0  0  0  0  0  0
  -25.9650  -11.7100   20.4240 N   0  0  0  0  0  0  0  0  0  0  0  0
  -23.9700  -10.4710   20.9730 C   0  0  0  0  0  0  0  0  0  0  0  0
  -24.4200   -9.5080   21.9030 C   0  0  0  0  0  3  0  0  0  0  0  0
  -23.7040   -8.3050   22.0890 C   0  0  0  0  0  3  0  0  0  0  0  0
  -22.5250   -8.0580   21.3450 C   0  0  0  0  0  0  0  0  0  0  0  0
  -22.0970   -9.0090   20.4030 C   0  0  0  0  0  3  0  0  0  0  0  0
  -22.8130  -10.2030   20.2160 C   0  0  0  0  0  3  0  0  0  0  0  0
  -21.7820   -6.9070   21.4420 O   0  0  0  0  0  0  0  0  0  0  0  0
  -21.7240   -6.1810   22.6050 C   0  0  0  0  0  0  0  0  0  0  0  0
  -21.2700   -6.7480   23.8140 C   0  0  0  0  0  3  0  0  0  0  0  0
  -21.1620   -5.9480   24.9700 C   0  0  0  0  0  3  0  0  0  0  0  0
  -21.4970   -4.5820   24.9150 C   0  0  0  0  0  0  0  0  0  0  0  0
  -21.9410   -4.0140   23.7080 C   0  0  0  0  0  3  0  0  0  0  0  0
  -22.0510   -4.8110   22.5550 C   0  0  0  0  0  0  0  0  0  0  0  0
  -22.4610   -4.2540   21.3900 F   0  0  0  0  0  0  0  0  0  0  0  0
  -21.3830   -3.8100   26.0210 F   0  0  0  0  0  0  0  0  0  0  0  0
  -22.8250  -13.5560   21.1510 C   0  0  0  0  0  0  0  0  0  0  0  0
  -22.1280  -12.8500   22.0360 N   0  0  0  0  0  0  0  0  0  0  0  0
  -22.3660  -14.5800   20.6470 O   0  0  0  0  0  0  0  0  0  0  0  0
  -22.5110  -12.0210   22.4620 H   0  0  0  0  0  0  0  0  0  0  0  0
  -21.1960  -13.1430   22.2910 H   0  0  0  0  0  0  0  0  0  0  0  0
  -25.4220  -15.2430   20.2710 N   0  0  0  0  0  0  0  0  0  0  0  0
  -24.6580  -15.8930   20.4240 H   0  0  0  0  0  0  0  0  0  0  0  0
  -26.2570  -15.6880   19.9110 H   0  0  0  0  0  0  0  0  0  0  0  0
  1  3  1  0
  2  4  1  0
  2  5  1  0
  4  6  1  0
  5  8  1  0
  5  1  1  0
  6  7  1  6
  6 49  1  0
  6  3  1  0
  8 10  1  0
  9 20  2  0
 10 15  1  0
 11 19  1  0
 11 21  1  0
 12 18  1  0
 12 14  1  0
 13 19  1  0
 14 13  1  0
 15 14  2  0
 16 17  1  0
 16 10  2  0
 17 12  2  0
 18 11  1  0
 19  9  1  0
 21 23  2  0
 22 21  1  0
 24 22  1  0
 25 34  2  0
 25 30  1  0
 26 22  1  0
 26 30  1  0
 27 26  1  0
 28 29  1  0
 28 27  1  0
 29 25  1  0
 30 31  2  0
 31 32  1  0
 33 32  2  0
 34 33  1  0
 35  9  1  0
 35 40  1  0
 35 36  1  0
 36 39  1  1
 36 37  1  0
 38 36  1  0
 40 43  1  0
 41 45  1  0
 41 40  1  0
 42 41  2  0
 45 44  1  0
 47 48  1  0
 47 45  1  0
 47 46  1  0
 50 49  1  0
 50 51  1  0
 52 61  1  0
 52 51  2  0
 53 61  1  0
 54 59  1  0
 55 56  1  0
 55 54  1  0
 57 56  1  0
 57 66  1  0
 57 58  1  0
 59 53  1  0
 59 58  1  0
 60 53  2  0
 61 62  1  0
 63 64  2  0
 64 83  1  0
 65 64  1  0
 65 68  1  0
 66 67  1  0
 66 63  1  0
 67 65  2  0
 68 69  1  0
 69 70  2  0
 71 74  1  0
 71 70  1  0
 72 71  2  0
 73 72  1  0
 73 68  2  0
 74 75  1  0
 75 76  1  0
 76 77  2  0
 78 77  1  0
 78 82  1  0
 79 78  2  0
 80 75  2  0
 80 79  1  0
 81 80  1  0
 83 84  1  0
 84 87  1  0
 84 86  1  0
 85 83  2  0
 88 89  1  0
 88 63  1  0
 90 88  1  0
M  ISO  4   5 101   8 101  53 100  61 100
M  END
>  <TORSDO>  (29) 
F 20

>  <SCORE>  (29) 
-13.775

>  <name>  (29) 
28

>  <ligand_id>  (29) 
28

>  <original_smiles>  (29) 
[H]c1c([H])c([H])c2c(c1[H])C([H])([H])C([H])([H])C([H])([H])C2([H])N([H])C(=O)C1([H])N(C(=O)C([H])(N([H])C(=O)C([H])(N([H])C([H])([H])[H])C([H])([H])[H])C(C([H])([H])[H])(C([H])([H])[H])C([H])([H])[H])C([H])([H])c2c([H])c(OC3([H])C([H])([H])C([H])([H])[N+]([H])(C([H])([H])C([H])([H])C([H])([H])C([H])([H])N([H])C(=O)N4C([H])([H])C([H])([H])C([H])([H])C([H])(n5nc(-c6c([H])c([H])c(Oc7c([H])c([H])c(F)c([H])c7F)c([H])c6[H])c(C(=O)N([H])[H])c5N([H])[H])C4([H])[H])C([H])([H])C3([H])[H])c([H])c([H])c2C1([H])[H]

>  <smiles>  (29) 
[H]c1c([H])c([H])c2c(c1[H])C([H])([H])C([H])([H])C([H])([H])C2([H])N([H])C(=O)C1([H])N(C(=O)C([H])(N([H])C(=O)C([H])(N([H])C([H])([H])[H])C([H])([H])[H])C(C([H])([H])[H])(C([H])([H])[H])C([H])([H])[H])C([H])([H])c2c([H])c(OC3([H])C([H])([H])C([H])([H])[N+]([H])(C([H])([H])C([H])([H])C([H])([H])C([H])([H])N([H])C(=O)N4C([H])([H])C([H])([H])C([H])([H])C([H])(n5nc(-c6c([H])c([H])c(Oc7c([H])c([H])c(F)c([H])c7F)c([H])c6[H])c(C(=O)N([H])[H])c5N([H])[H])C4([H])[H])C([H])([H])C3([H])[H])c([H])c([H])c2C1([H])[H]

$$$$
29:0:0
     RDKit          3D

101109  0  0  1  0  0  0  0  0999 V2000
  -31.1910  -18.6660   20.2890 C   0  0  0  0  0  3  0  0  0  0  0  0
  -29.3630  -22.1580   20.4400 C   0  0  0  0  0  2  0  0  0  0  0  0
  -30.8300  -22.2080   18.5680 C   0  0  0  0  0  2  0  0  0  0  0  0
  -29.4100  -20.5800   20.4290 C   0  0  0  0  0  2  0  0  0  0  0  0
  -30.8860  -20.6290   18.5380 C   0  0  0  0  0  2  0  0  0  0  0  0
  -29.5840  -22.8020   19.1230 N   0  0  0  0  0  0  0  0  0  0  0  0
  -30.7210  -20.0870   19.9140 N   0  0  2  0  0  4  0  0  0  0  0  0
  -31.3520  -20.6690   20.4410 H   0  0  0  0  0  0  0  0  0  0  0  0
  -29.6870  -24.3090   19.2230 C   0  0  0  0  0  3  0  0  0  0  0  0
  -28.3780  -25.1900   19.0170 C   0  0  0  0  0  3  0  0  0  0  0  0
  -28.4820  -26.6650   19.1350 O   0  0  0  0  0  0  0  0  0  0  0  0
  -24.5970  -31.4500   22.9090 C   0  0  0  0  0  0  0  0  0  0  0  0
  -27.2950  -27.4110   19.2520 C   0  0  0  0  0  0  0  0  0  0  0  0
  -23.3780  -30.1220   21.2220 C   0  0  0  0  0  3  0  0  0  0  0  0
  -24.8250  -28.8270   19.5620 C   0  0  0  0  0  0  0  0  0  0  0  0
  -25.8690  -30.6510   20.9050 C   0  0  0  0  0  2  0  0  0  0  0  0
  -25.9980  -29.3490   20.1220 C   0  0  0  0  0  0  0  0  0  0  0  0
  -27.2340  -28.6550   19.9560 C   0  0  0  0  0  3  0  0  0  0  0  0
  -26.0890  -26.9410   18.6820 C   0  0  0  0  0  3  0  0  0  0  0  0
  -24.8720  -27.6290   18.8350 C   0  0  0  0  0  3  0  0  0  0  0  0
  -23.5380  -29.5950   19.7730 C   0  0  0  0  0  2  0  0  0  0  0  0
  -24.6370  -30.7540   21.7350 N   0  0  0  0  0  0  0  0  0  0  0  0
  -23.5380  -31.5930   23.5370 O   0  0  0  0  0  0  0  0  0  0  0  0
  -22.8580  -28.9740   22.1200 C   0  0  0  0  0  0  0  0  0  0  0  0
  -21.5610  -28.6490   21.9940 N   0  0  0  0  0  0  0  0  0  0  0  0
  -23.6200  -28.3800   22.8860 O   0  0  0  0  0  0  0  0  0  0  0  0
  -20.9970  -29.1880   21.3500 H   0  0  0  0  0  0  0  0  0  0  0  0
  -18.3680  -26.9970   22.4060 C   0  0  0  0  0  0  0  0  0  0  0  0
  -20.8700  -27.5740   22.7090 C   0  0  0  0  0  3  0  0  0  0  0  0
  -21.1600  -26.2000   22.0620 C   0  0  0  0  0  2  0  0  0  0  0  0
  -20.1110  -25.7890   21.0240 C   0  0  0  0  0  2  0  0  0  0  0  0
  -18.7200  -25.7200   21.6640 C   0  0  0  0  0  2  0  0  0  0  0  0
  -19.3780  -27.8760   22.8830 C   0  0  0  0  0  0  0  0  0  0  0  0
  -18.9950  -29.0670   23.5370 C   0  0  0  0  0  3  0  0  0  0  0  0
  -17.6360  -29.3850   23.7180 C   0  0  0  0  0  3  0  0  0  0  0  0
  -16.6410  -28.5040   23.2570 C   0  0  0  0  0  3  0  0  0  0  0  0
  -17.0080  -27.3110   22.6080 C   0  0  0  0  0  3  0  0  0  0  0  0
  -25.8740  -32.1160   23.5040 C   0  0  0  0  0  3  0  0  0  0  0  0
  -26.5240  -31.2790   24.6740 C   0  0  1  0  0  0  0  0  0  0  0  0
  -25.5150  -30.8330   25.7560 C   0  0  0  0  0  1  0  0  0  0  0  0
  -27.2120  -30.0090   24.1190 C   0  0  0  0  0  1  0  0  0  0  0  0
  -27.6310  -32.1110   25.3630 C   0  0  0  0  0  1  0  0  0  0  0  0
  -25.4970  -33.4560   23.9790 N   0  0  0  0  0  0  0  0  0  0  0  0
  -25.7510  -34.5960   23.3220 C   0  0  0  0  0  0  0  0  0  0  0  0
  -26.3990  -34.6330   22.2720 O   0  0  0  0  0  0  0  0  0  0  0  0
  -24.9150  -33.4960   24.8030 H   0  0  0  0  0  0  0  0  0  0  0  0
  -23.9260  -36.3200   23.1740 C   0  0  0  0  0  1  0  0  0  0  0  0
  -25.2010  -35.9030   23.9250 C   0  0  0  0  0  3  0  0  0  0  0  0
  -27.3020  -36.8120   24.8130 C   0  0  0  0  0  1  0  0  0  0  0  0
  -26.1750  -37.0150   23.9050 N   0  0  0  0  0  0  0  0  0  0  0  0
  -25.7250  -37.8940   24.1510 H   0  0  0  0  0  0  0  0  0  0  0  0
  -32.7370  -18.6010   20.4560 C   0  0  0  0  0  2  0  0  0  0  0  0
  -33.3920  -19.7430   21.2670 C   0  0  0  0  0  2  0  0  0  0  0  0
  -34.8660  -19.6930   21.2130 N   0  0  0  0  0  4  0  0  0  0  0  0
  -35.2160  -18.8330   21.5960 H   0  0  0  0  0  0  0  0  0  0  0  0
  -35.2570  -20.4460   21.7520 H   0  0  0  0  0  0  0  0  0  0  0  0
  -35.2050  -19.7830   20.2710 H   0  0  0  0  0  0  0  0  0  0  0  0
  -30.7070  -17.4030   19.4300 C   0  0  0  0  0  2  0  0  0  0  0  0
  -31.4520  -14.9210   19.2890 C   0  0  0  0  0  0  0  0  0  0  0  0
  -30.9760  -12.7300   18.1830 C   0  0  0  0  0  2  0  0  0  0  0  0
  -29.8620  -12.8990   17.1260 C   0  0  0  0  0  2  0  0  0  0  0  0
  -28.4640  -12.7820   17.7660 C   0  0  0  0  0  2  0  0  0  0  0  0
  -28.3300  -13.6300   19.0550 C   0  0  0  0  0  3  0  0  0  0  0  0
  -29.5320  -13.3800   19.9890 C   0  0  0  0  0  2  0  0  0  0  0  0
  -30.7580  -13.7320   19.2530 N   0  0  0  0  0  0  0  0  0  0  0  0
  -32.4430  -15.0810   18.5700 O   0  0  0  0  0  0  0  0  0  0  0  0
  -30.9160  -15.9930   19.9880 N   0  0  0  0  0  0  0  0  0  0  0  0
  -26.1140  -14.3130   20.1640 C   0  0  0  0  0  0  0  0  0  0  0  0
  -25.0770  -13.5760   20.6710 C   0  0  0  0  0  0  0  0  0  0  0  0
  -25.4550  -12.2070   20.5170 C   0  0  0  0  0  0  0  0  0  0  0  0
  -27.0590  -13.3950   19.7340 N   0  0  0  0  0  0  0  0  0  0  0  0
  -26.6760  -12.1210   20.0050 N   0  0  0  0  0  0  0  0  0  0  0  0
  -24.7010  -10.9740   20.7750 C   0  0  0  0  0  0  0  0  0  0  0  0
  -25.1110  -10.0500   21.7620 C   0  0  0  0  0  3  0  0  0  0  0  0
  -24.3590   -8.8800   22.0030 C   0  0  0  0  0  3  0  0  0  0  0  0
  -23.1820   -8.6260   21.2590 C   0  0  0  0  0  0  0  0  0  0  0  0
  -22.7910   -9.5380   20.2630 C   0  0  0  0  0  3  0  0  0  0  0  0
  -23.5440  -10.7000   20.0200 C   0  0  0  0  0  3  0  0  0  0  0  0
  -22.4020   -7.5060   21.4070 O   0  0  0  0  0  0  0  0  0  0  0  0
  -22.1470   -6.9640   22.6420 C   0  0  0  0  0  0  0  0  0  0  0  0
  -21.5170   -7.7060   23.6650 C   0  0  0  0  0  3  0  0  0  0  0  0
  -21.2110   -7.0890   24.8960 C   0  0  0  0  0  3  0  0  0  0  0  0
  -21.5260   -5.7320   25.1000 C   0  0  0  0  0  0  0  0  0  0  0  0
  -22.1480   -4.9900   24.0810 C   0  0  0  0  0  3  0  0  0  0  0  0
  -22.4550   -5.6050   22.8540 C   0  0  0  0  0  0  0  0  0  0  0  0
  -23.0350   -4.8810   21.8670 F   0  0  0  0  0  0  0  0  0  0  0  0
  -21.2270   -5.1370   26.2790 F   0  0  0  0  0  0  0  0  0  0  0  0
  -23.7680  -14.1070   21.1780 C   0  0  0  0  0  0  0  0  0  0  0  0
  -23.1720  -13.4380   22.1590 N   0  0  0  0  0  0  0  0  0  0  0  0
  -23.2890  -15.1510   20.7360 O   0  0  0  0  0  0  0  0  0  0  0  0
  -23.5750  -12.5940   22.5360 H   0  0  0  0  0  0  0  0  0  0  0  0
  -22.2990  -13.7770   22.5380 H   0  0  0  0  0  0  0  0  0  0  0  0
  -26.3240  -15.6810   20.0160 N   0  0  0  0  0  0  0  0  0  0  0  0
  -25.5960  -16.3530   20.2300 H   0  0  0  0  0  0  0  0  0  0  0  0
  -27.0900  -16.0840   19.4910 H   0  0  0  0  0  0  0  0  0  0  0  0
  -30.9510  -15.9240   21.4680 C   0  0  0  0  0  2  0  0  0  0  0  0
  -29.9210  -16.8520   22.1650 C   0  0  0  0  0  2  0  0  0  0  0  0
  -30.2300  -17.0590   23.5920 N   0  0  0  0  0  4  0  0  0  0  0  0
  -30.2100  -16.1920   24.0990 H   0  0  0  0  0  0  0  0  0  0  0  0
  -29.5460  -17.6700   24.0050 H   0  0  0  0  0  0  0  0  0  0  0  0
  -31.1330  -17.4830   23.7170 H   0  0  0  0  0  0  0  0  0  0  0  0
  1 58  1  0
  1 52  1  0
  3  6  1  0
  4  2  1  0
  5  3  1  0
  5  7  1  0
  6  9  1  0
  6  2  1  0
  7  1  1  0
  7  4  1  0
  7  8  1  1
 10 11  1  0
 10  9  2  0
 11 13  1  0
 12 23  2  0
 13 18  1  0
 14 22  1  0
 14 24  1  0
 15 21  1  0
 15 17  1  0
 16 22  1  0
 17 16  1  0
 18 17  2  0
 19 20  1  0
 19 13  2  0
 20 15  2  0
 21 14  1  0
 22 12  1  0
 24 26  2  0
 25 24  1  0
 27 25  1  0
 28 37  2  0
 28 33  1  0
 29 25  1  0
 29 33  1  0
 30 29  1  0
 31 32  1  0
 31 30  1  0
 32 28  1  0
 33 34  2  0
 34 35  1  0
 36 35  2  0
 37 36  1  0
 38 12  1  0
 38 43  1  0
 38 39  1  0
 39 42  1  1
 39 40  1  0
 41 39  1  0
 43 46  1  0
 44 48  1  0
 44 43  1  0
 45 44  2  0
 48 47  1  0
 50 48  1  0
 50 51  1  0
 50 49  1  0
 52 53  1  0
 54 53  1  0
 54 55  1  0
 54 56  1  0
 57 54  1  0
 58 67  1  0
 59 67  1  0
 60 65  1  0
 61 62  1  0
 61 60  1  0
 63 62  1  0
 63 71  1  0
 63 64  1  0
 65 59  1  0
 65 64  1  0
 66 59  2  0
 67 96  1  0
 68 69  2  0
 69 88  1  0
 70 69  1  0
 70 73  1  0
 71 72  1  0
 71 68  1  0
 72 70  2  0
 73 74  1  0
 74 75  2  0
 76 79  1  0
 76 75  1  0
 77 76  2  0
 78 77  1  0
 78 73  2  0
 79 80  1  0
 80 85  2  0
 80 81  1  0
 81 82  2  0
 82 83  1  0
 83 87  1  0
 84 83  2  0
 85 84  1  0
 86 85  1  0
 88 89  1  0
 89 91  1  0
 89 92  1  0
 90 88  2  0
 93 68  1  0
 93 94  1  0
 95 93  1  0
 96 97  1  0
 97 98  1  0
 98101  1  0
 98100  1  0
 98 99  1  0
M  ISO  4  10 101  11 101  59 100  67 100
M  END
>  <TORSDO>  (30) 
F 26

>  <SCORE>  (30) 
-8.261

>  <name>  (30) 
29

>  <ligand_id>  (30) 
29

>  <original_smiles>  (30) 
[H]c1c([H])c([H])c2c(c1[H])C([H])([H])C([H])([H])C([H])([H])C2([H])N([H])C(=O)C1([H])N(C(=O)C([H])(N([H])C(=O)C([H])(N([H])C([H])([H])[H])C([H])([H])[H])C(C([H])([H])[H])(C([H])([H])[H])C([H])([H])[H])C([H])([H])c2c([H])c(OC([H])([H])C([H])([H])N3C([H])([H])C([H])([H])[N+]([H])(C([H])(C([H])([H])N(C(=O)N4C([H])([H])C([H])([H])C([H])([H])C([H])(n5nc(-c6c([H])c([H])c(Oc7c([H])c([H])c(F)c([H])c7F)c([H])c6[H])c(C(=O)N([H])[H])c5N([H])[H])C4([H])[H])C([H])([H])C([H])([H])[N+]([H])([H])[H])C([H])([H])C([H])([H])[N+]([H])([H])[H])C([H])([H])C3([H])[H])c([H])c([H])c2C1([H])[H]

>  <smiles>  (30) 
[H]c1c([H])c([H])c2c(c1[H])C([H])([H])C([H])([H])C([H])([H])C2([H])N([H])C(=O)C1([H])N(C(=O)C([H])(N([H])C(=O)C([H])(N([H])C([H])([H])[H])C([H])([H])[H])C(C([H])([H])[H])(C([H])([H])[H])C([H])([H])[H])C([H])([H])c2c([H])c(OC([H])([H])C([H])([H])N3C([H])([H])C([H])([H])[N+]([H])(C([H])(C([H])([H])N(C(=O)N4C([H])([H])C([H])([H])C([H])([H])C([H])(n5nc(-c6c([H])c([H])c(Oc7c([H])c([H])c(F)c([H])c7F)c([H])c6[H])c(C(=O)N([H])[H])c5N([H])[H])C4([H])[H])C([H])([H])C([H])([H])[N+]([H])([H])[H])C([H])([H])C([H])([H])[N+]([H])([H])[H])C([H])([H])C3([H])[H])c([H])c([H])c2C1([H])[H]

$$$$
30:0:0
     RDKit          3D

 94102  0  0  1  0  0  0  0  0999 V2000
  -30.8690  -22.0540   20.1860 C   0  0  0  0  0  2  0  0  0  0  0  0
  -28.6420  -21.7240   20.9600 C   0  0  0  0  0  2  0  0  0  0  0  0
  -31.0210  -20.5090   19.9190 C   0  0  0  0  0  2  0  0  0  0  0  0
  -28.8010  -20.1740   20.6890 C   0  0  0  0  0  2  0  0  0  0  0  0
  -29.4830  -22.5920   20.0960 N   0  0  0  0  0  0  0  0  0  0  0  0
  -30.2000  -19.7190   20.8570 N   0  0  0  0  0  0  0  0  0  0  0  0
  -29.4580  -24.0720   20.4460 C   0  0  0  0  0  3  0  0  0  0  0  0
  -28.1960  -24.9810   20.1260 C   0  0  0  0  0  3  0  0  0  0  0  0
  -28.3580  -26.4410   20.3120 O   0  0  0  0  0  0  0  0  0  0  0  0
  -24.6010  -31.8580   23.2240 C   0  0  0  0  0  0  0  0  0  0  0  0
  -27.2220  -27.2640   20.2480 C   0  0  0  0  0  0  0  0  0  0  0  0
  -23.4040  -30.4470   21.5900 C   0  0  0  0  0  3  0  0  0  0  0  0
  -24.8570  -28.8750   20.1940 C   0  0  0  0  0  0  0  0  0  0  0  0
  -25.9420  -30.7570   21.4170 C   0  0  0  0  0  2  0  0  0  0  0  0
  -26.0210  -29.3680   20.7980 C   0  0  0  0  0  0  0  0  0  0  0  0
  -27.2050  -28.5720   20.8200 C   0  0  0  0  0  3  0  0  0  0  0  0
  -26.0360  -26.8190   19.6190 C   0  0  0  0  0  3  0  0  0  0  0  0
  -24.8680  -27.6040   19.5940 C   0  0  0  0  0  3  0  0  0  0  0  0
  -23.6310  -29.7640   20.2150 C   0  0  0  0  0  2  0  0  0  0  0  0
  -24.6690  -31.0370   22.1350 N   0  0  0  0  0  0  0  0  0  0  0  0
  -23.5170  -32.1470   23.7470 O   0  0  0  0  0  0  0  0  0  0  0  0
  -22.7330  -29.4410   22.5550 C   0  0  0  0  0  0  0  0  0  0  0  0
  -21.4030  -29.2820   22.4380 N   0  0  0  0  0  0  0  0  0  0  0  0
  -23.4060  -28.8090   23.3750 O   0  0  0  0  0  0  0  0  0  0  0  0
  -20.9190  -29.8480   21.7530 H   0  0  0  0  0  0  0  0  0  0  0  0
  -18.0110  -28.1430   22.9630 C   0  0  0  0  0  0  0  0  0  0  0  0
  -20.5750  -28.3630   23.2200 C   0  0  0  0  0  3  0  0  0  0  0  0
  -20.6520  -26.9270   22.6510 C   0  0  0  0  0  2  0  0  0  0  0  0
  -19.5370  -26.6170   21.6470 C   0  0  0  0  0  2  0  0  0  0  0  0
  -18.1610  -26.7870   22.2950 C   0  0  0  0  0  2  0  0  0  0  0  0
  -19.1450  -28.8880   23.3850 C   0  0  0  0  0  0  0  0  0  0  0  0
  -18.9470  -30.1590   23.9710 C   0  0  0  0  0  3  0  0  0  0  0  0
  -17.6500  -30.6790   24.1420 C   0  0  0  0  0  3  0  0  0  0  0  0
  -16.5330  -29.9310   23.7320 C   0  0  0  0  0  3  0  0  0  0  0  0
  -16.7160  -28.6670   23.1450 C   0  0  0  0  0  3  0  0  0  0  0  0
  -25.8820  -32.4920   23.8480 C   0  0  0  0  0  3  0  0  0  0  0  0
  -25.5670  -33.8870   24.1870 N   0  0  0  0  0  0  0  0  0  0  0  0
  -25.8950  -34.9470   23.4350 C   0  0  0  0  0  0  0  0  0  0  0  0
  -26.5670  -34.8510   22.4040 O   0  0  0  0  0  0  0  0  0  0  0  0
  -24.9700  -34.0340   24.9870 H   0  0  0  0  0  0  0  0  0  0  0  0
  -24.1630  -36.7390   23.0880 C   0  0  0  0  0  1  0  0  0  0  0  0
  -25.4020  -36.3300   23.8990 C   0  0  0  0  0  3  0  0  0  0  0  0
  -27.5340  -37.2180   24.7360 C   0  0  0  0  0  1  0  0  0  0  0  0
  -26.4300  -37.3890   23.7960 N   0  0  0  0  0  0  0  0  0  0  0  0
  -26.0190  -38.3050   23.9490 H   0  0  0  0  0  0  0  0  0  0  0  0
  -26.4040  -31.7100   25.1150 C   0  0  1  0  0  0  0  0  0  0  0  0
  -25.3170  -31.4610   26.1860 C   0  0  0  0  0  1  0  0  0  0  0  0
  -26.9890  -30.3360   24.7070 C   0  0  0  0  0  1  0  0  0  0  0  0
  -27.5510  -32.5050   25.7820 C   0  0  0  0  0  1  0  0  0  0  0  0
  -30.5090  -18.2400   21.0610 C   0  0  0  0  0  3  0  0  0  0  0  0
  -30.0640  -17.1490   19.9880 C   0  0  0  0  0  2  0  0  0  0  0  0
  -30.7370  -14.6090   20.0780 C   0  0  0  0  0  0  0  0  0  0  0  0
  -30.4440  -12.3890   19.0220 C   0  0  0  0  0  2  0  0  0  0  0  0
  -29.4620  -12.5750   17.8440 C   0  0  0  0  0  2  0  0  0  0  0  0
  -27.9970  -12.4470   18.3140 C   0  0  0  0  0  2  0  0  0  0  0  0
  -27.7040  -13.2690   19.5980 C   0  0  0  0  0  3  0  0  0  0  0  0
  -28.8040  -13.0700   20.6680 C   0  0  0  0  0  2  0  0  0  0  0  0
  -30.0950  -13.3960   20.0410 N   0  0  0  0  0  0  0  0  0  0  0  0
  -31.8780  -14.7490   19.6380 O   0  0  0  0  0  0  0  0  0  0  0  0
  -29.9700  -15.6910   20.4050 N   0  0  0  0  0  0  0  0  0  0  0  0
  -29.0740  -15.4250   20.7780 H   0  0  0  0  0  0  0  0  0  0  0  0
  -25.3380  -13.8790   20.3970 C   0  0  0  0  0  0  0  0  0  0  0  0
  -24.2780  -13.1140   20.8020 C   0  0  0  0  0  0  0  0  0  0  0  0
  -24.7250  -11.7590   20.7490 C   0  0  0  0  0  0  0  0  0  0  0  0
  -26.3670  -12.9910   20.1250 N   0  0  0  0  0  0  0  0  0  0  0  0
  -26.0040  -11.7090   20.3950 N   0  0  0  0  0  0  0  0  0  0  0  0
  -23.9890  -10.5020   20.9630 C   0  0  0  0  0  0  0  0  0  0  0  0
  -24.4420   -9.5330   21.8870 C   0  0  0  0  0  3  0  0  0  0  0  0
  -23.7100   -8.3400   22.0880 C   0  0  0  0  0  3  0  0  0  0  0  0
  -22.5140   -8.1110   21.3670 C   0  0  0  0  0  0  0  0  0  0  0  0
  -22.0810   -9.0700   20.4330 C   0  0  0  0  0  3  0  0  0  0  0  0
  -22.8120  -10.2510   20.2310 C   0  0  0  0  0  3  0  0  0  0  0  0
  -21.7520   -6.9720   21.4780 O   0  0  0  0  0  0  0  0  0  0  0  0
  -21.7190   -6.2390   22.6390 C   0  0  0  0  0  0  0  0  0  0  0  0
  -21.3300   -6.8080   23.8700 C   0  0  0  0  0  3  0  0  0  0  0  0
  -21.2430   -6.0020   25.0240 C   0  0  0  0  0  3  0  0  0  0  0  0
  -21.5340   -4.6260   24.9430 C   0  0  0  0  0  0  0  0  0  0  0  0
  -21.9200   -4.0560   23.7170 C   0  0  0  0  0  3  0  0  0  0  0  0
  -22.0090   -4.8600   22.5680 C   0  0  0  0  0  0  0  0  0  0  0  0
  -22.3580   -4.3040   21.3830 F   0  0  0  0  0  0  0  0  0  0  0  0
  -21.4460   -3.8500   26.0470 F   0  0  0  0  0  0  0  0  0  0  0  0
  -22.8930  -13.6070   21.1280 C   0  0  0  0  0  0  0  0  0  0  0  0
  -22.1900  -12.9180   22.0200 N   0  0  0  0  0  0  0  0  0  0  0  0
  -22.4460  -14.6370   20.6270 O   0  0  0  0  0  0  0  0  0  0  0  0
  -22.5600  -12.0860   22.4530 H   0  0  0  0  0  0  0  0  0  0  0  0
  -21.2630  -13.2300   22.2770 H   0  0  0  0  0  0  0  0  0  0  0  0
  -25.5080  -15.2460   20.2140 N   0  0  0  0  0  0  0  0  0  0  0  0
  -24.7420  -15.9010   20.3270 H   0  0  0  0  0  0  0  0  0  0  0  0
  -26.3380  -15.6640   19.8110 H   0  0  0  0  0  0  0  0  0  0  0  0
  -30.1670  -17.8120   22.5170 C   0  0  0  0  0  2  0  0  0  0  0  0
  -31.3060  -18.0270   23.4300 N   0  0  0  0  0  4  0  0  0  0  0  0
  -32.1400  -17.5880   23.0810 H   0  0  0  0  0  0  0  0  0  0  0  0
  -31.0990  -17.6210   24.3240 H   0  0  0  0  0  0  0  0  0  0  0  0
  -31.4920  -19.0080   23.5600 H   0  0  0  0  0  0  0  0  0  0  0  0
  3  1  1  0
  3  6  1  0
  4  6  1  0
  4  2  1  0
  5  1  1  0
  5  7  1  0
  5  2  1  0
  6 50  1  0
  8  9  1  0
  8  7  2  0
 10 21  2  0
 11  9  1  0
 11 16  1  0
 12 20  1  0
 12 22  1  0
 13 19  1  0
 13 15  1  0
 14 20  1  0
 15 16  2  0
 15 14  1  0
 17 11  2  0
 18 17  1  0
 18 13  2  0
 19 12  1  0
 20 10  1  0
 22 24  2  0
 23 22  1  0
 25 23  1  0
 26 35  2  0
 26 31  1  0
 27 23  1  0
 27 31  1  0
 28 27  1  0
 29 30  1  0
 29 28  1  0
 30 26  1  0
 31 32  2  0
 32 33  1  0
 34 33  2  0
 35 34  1  0
 36 10  1  0
 36 37  1  0
 36 46  1  0
 37 40  1  0
 38 42  1  0
 38 37  1  0
 39 38  2  0
 42 41  1  0
 44 42  1  0
 44 45  1  0
 44 43  1  0
 46 49  1  1
 46 47  1  0
 48 46  1  0
 50 51  1  0
 50 90  1  0
 51 60  1  0
 52 60  1  0
 53 58  1  0
 54 55  1  0
 54 53  1  0
 56 55  1  0
 56 65  1  0
 56 57  1  0
 58 52  1  0
 58 57  1  0
 59 52  2  0
 60 61  1  0
 62 63  2  0
 63 82  1  0
 64 63  1  0
 64 67  1  0
 65 66  1  0
 65 62  1  0
 66 64  2  0
 67 68  1  0
 68 69  2  0
 70 73  1  0
 70 69  1  0
 71 70  2  0
 72 71  1  0
 72 67  2  0
 73 74  1  0
 74 75  1  0
 75 76  2  0
 77 76  1  0
 77 81  1  0
 78 77  2  0
 79 74  2  0
 79 78  1  0
 80 79  1  0
 82 83  1  0
 83 86  1  0
 83 85  1  0
 84 82  2  0
 87 88  1  0
 87 62  1  0
 89 87  1  0
 90 91  1  0
 91 94  1  0
 91 93  1  0
 92 91  1  0
M  ISO  4   8 101   9 101  52 100  60 100
M  END
>  <TORSDO>  (31) 
F 22

>  <SCORE>  (31) 
-12.805

>  <name>  (31) 
30

>  <ligand_id>  (31) 
30

>  <original_smiles>  (31) 
[H]c1c([H])c([H])c2c(c1[H])C([H])([H])C([H])([H])C([H])([H])C2([H])N([H])C(=O)C1([H])N(C(=O)C([H])(N([H])C(=O)C([H])(N([H])C([H])([H])[H])C([H])([H])[H])C(C([H])([H])[H])(C([H])([H])[H])C([H])([H])[H])C([H])([H])c2c([H])c(OC([H])([H])C([H])([H])N3C([H])([H])C([H])([H])N(C([H])(C([H])([H])N([H])C(=O)N4C([H])([H])C([H])([H])C([H])([H])C([H])(n5nc(-c6c([H])c([H])c(Oc7c([H])c([H])c(F)c([H])c7F)c([H])c6[H])c(C(=O)N([H])[H])c5N([H])[H])C4([H])[H])C([H])([H])[N+]([H])([H])[H])C([H])([H])C3([H])[H])c([H])c([H])c2C1([H])[H]

>  <smiles>  (31) 
[H]c1c([H])c([H])c2c(c1[H])C([H])([H])C([H])([H])C([H])([H])C2([H])N([H])C(=O)C1([H])N(C(=O)C([H])(N([H])C(=O)C([H])(N([H])C([H])([H])[H])C([H])([H])[H])C(C([H])([H])[H])(C([H])([H])[H])C([H])([H])[H])C([H])([H])c2c([H])c(OC([H])([H])C([H])([H])N3C([H])([H])C([H])([H])N(C([H])(C([H])([H])N([H])C(=O)N4C([H])([H])C([H])([H])C([H])([H])C([H])(n5nc(-c6c([H])c([H])c(Oc7c([H])c([H])c(F)c([H])c7F)c([H])c6[H])c(C(=O)N([H])[H])c5N([H])[H])C4([H])[H])C([H])([H])[N+]([H])([H])[H])C([H])([H])C3([H])[H])c([H])c([H])c2C1([H])[H]

$$$$
31:0:0
     RDKit          3D

 96104  0  0  1  0  0  0  0  0999 V2000
  -30.2280  -17.4430   22.3120 C   0  0  0  0  0  2  0  0  0  0  0  0
  -30.2180  -18.9780   22.2180 C   0  0  0  0  0  2  0  0  0  0  0  0
  -30.2180  -18.6710   19.6640 C   0  0  0  0  0  2  0  0  0  0  0  0
  -31.0930  -16.7460   21.2310 C   0  0  0  0  0  3  0  0  0  0  0  0
  -29.6470  -19.4720   20.8730 C   0  0  0  0  0  3  0  0  0  0  0  0
  -31.3510  -17.6410   19.9690 C   0  0  0  0  0  3  0  0  0  0  0  0
  -31.0580  -14.4810   20.1750 C   0  0  0  0  0  0  0  0  0  0  0  0
  -30.6150  -12.4110   18.9150 C   0  0  0  0  0  2  0  0  0  0  0  0
  -29.6090  -12.6980   17.7820 C   0  0  0  0  0  2  0  0  0  0  0  0
  -28.1590  -12.5820   18.2910 C   0  0  0  0  0  2  0  0  0  0  0  0
  -27.9220  -13.3700   19.6060 C   0  0  0  0  0  3  0  0  0  0  0  0
  -29.0280  -13.0600   20.6400 C   0  0  0  0  0  2  0  0  0  0  0  0
  -30.3280  -13.3470   20.0110 N   0  0  0  0  0  0  0  0  0  0  0  0
  -32.1440  -14.6740   19.6200 O   0  0  0  0  0  0  0  0  0  0  0  0
  -30.4760  -15.4540   20.8960 N   0  0  0  0  0  0  0  0  0  0  0  0
  -29.5710  -15.2480   21.2910 H   0  0  0  0  0  0  0  0  0  0  0  0
  -25.5810  -14.0150   20.4540 C   0  0  0  0  0  0  0  0  0  0  0  0
  -24.5150  -13.2600   20.8640 C   0  0  0  0  0  0  0  0  0  0  0  0
  -24.9410  -11.8990   20.7750 C   0  0  0  0  0  0  0  0  0  0  0  0
  -26.5900  -13.1160   20.1470 N   0  0  0  0  0  0  0  0  0  0  0  0
  -26.2100  -11.8360   20.3940 N   0  0  0  0  0  0  0  0  0  0  0  0
  -24.1940  -10.6480   20.9700 C   0  0  0  0  0  0  0  0  0  0  0  0
  -24.6230   -9.6680   21.8920 C   0  0  0  0  0  3  0  0  0  0  0  0
  -23.8790   -8.4820   22.0750 C   0  0  0  0  0  3  0  0  0  0  0  0
  -22.6920   -8.2690   21.3350 C   0  0  0  0  0  0  0  0  0  0  0  0
  -22.2820   -9.2370   20.4020 C   0  0  0  0  0  3  0  0  0  0  0  0
  -23.0260  -10.4150   20.2170 C   0  0  0  0  0  3  0  0  0  0  0  0
  -21.9180   -7.1380   21.4300 O   0  0  0  0  0  0  0  0  0  0  0  0
  -21.8370   -6.4160   22.5930 C   0  0  0  0  0  0  0  0  0  0  0  0
  -21.3620   -6.9870   23.7950 C   0  0  0  0  0  3  0  0  0  0  0  0
  -21.2340   -6.1910   24.9500 C   0  0  0  0  0  3  0  0  0  0  0  0
  -21.5670   -4.8240   24.9040 C   0  0  0  0  0  0  0  0  0  0  0  0
  -22.0340   -4.2530   23.7090 C   0  0  0  0  0  3  0  0  0  0  0  0
  -22.1660   -5.0460   22.5550 C   0  0  0  0  0  0  0  0  0  0  0  0
  -22.5970   -4.4860   21.4000 F   0  0  0  0  0  0  0  0  0  0  0  0
  -21.4370   -4.0550   26.0120 F   0  0  0  0  0  0  0  0  0  0  0  0
  -23.1490  -13.7620   21.2250 C   0  0  0  0  0  0  0  0  0  0  0  0
  -22.4560  -13.0680   22.1220 N   0  0  0  0  0  0  0  0  0  0  0  0
  -22.7060  -14.8060   20.7470 O   0  0  0  0  0  0  0  0  0  0  0  0
  -22.8280  -12.2220   22.5260 H   0  0  0  0  0  0  0  0  0  0  0  0
  -21.5410  -13.3870   22.4070 H   0  0  0  0  0  0  0  0  0  0  0  0
  -25.7750  -15.3840   20.2950 N   0  0  0  0  0  0  0  0  0  0  0  0
  -25.0220  -16.0510   20.4280 H   0  0  0  0  0  0  0  0  0  0  0  0
  -26.6060  -15.7950   19.8920 H   0  0  0  0  0  0  0  0  0  0  0  0
  -32.6670  -18.3080   20.0690 N   0  0  0  0  0  4  0  0  0  0  0  0
  -32.7540  -18.8990   20.8740 H   0  0  0  0  0  0  0  0  0  0  0  0
  -32.8670  -18.8390   19.2400 H   0  0  0  0  0  0  0  0  0  0  0  0
  -33.3840  -17.6040   20.1370 H   0  0  0  0  0  0  0  0  0  0  0  0
  -29.7920  -20.9560   20.7540 N   0  0  0  0  0  4  0  0  0  0  0  0
  -30.7200  -21.2130   20.4570 H   0  0  0  0  0  0  0  0  0  0  0  0
  -29.6760  -21.3230   21.6830 H   0  0  0  0  0  0  0  0  0  0  0  0
  -28.7860  -21.6680   19.9230 C   0  0  0  0  0  2  0  0  0  0  0  0
  -28.3380  -23.0110   20.5610 C   0  0  0  0  0  2  0  0  0  0  0  0
  -29.0880  -24.2930   20.1160 C   0  0  0  0  0  2  0  0  0  0  0  0
  -28.6930  -25.5110   20.9830 C   0  0  0  0  0  2  0  0  0  0  0  0
  -28.8730  -26.7860   20.3410 O   0  0  0  0  0  0  0  0  0  0  0  0
  -24.6880  -31.7350   23.2680 C   0  0  0  0  0  0  0  0  0  0  0  0
  -27.7070  -27.5090   20.2480 C   0  0  0  0  0  0  0  0  0  0  0  0
  -23.6490  -30.3250   21.5210 C   0  0  0  0  0  3  0  0  0  0  0  0
  -25.2540  -28.8990   20.1480 C   0  0  0  0  0  0  0  0  0  0  0  0
  -26.1630  -30.8080   21.4860 C   0  0  0  0  0  2  0  0  0  0  0  0
  -26.3510  -29.4620   20.8150 C   0  0  0  0  0  0  0  0  0  0  0  0
  -27.5850  -28.7770   20.8590 C   0  0  0  0  0  3  0  0  0  0  0  0
  -26.6000  -26.9590   19.5700 C   0  0  0  0  0  3  0  0  0  0  0  0
  -25.3740  -27.6460   19.5210 C   0  0  0  0  0  3  0  0  0  0  0  0
  -23.9690  -29.6930   20.1420 C   0  0  0  0  0  2  0  0  0  0  0  0
  -24.8470  -30.9710   22.1500 N   0  0  0  0  0  0  0  0  0  0  0  0
  -23.5630  -31.9400   23.7470 O   0  0  0  0  0  0  0  0  0  0  0  0
  -22.9910  -29.2490   22.4140 C   0  0  0  0  0  0  0  0  0  0  0  0
  -21.6740  -29.0450   22.2370 N   0  0  0  0  0  0  0  0  0  0  0  0
  -23.6620  -28.6020   23.2230 O   0  0  0  0  0  0  0  0  0  0  0  0
  -21.1960  -29.6200   21.5570 H   0  0  0  0  0  0  0  0  0  0  0  0
  -18.3020  -27.8140   22.6180 C   0  0  0  0  0  0  0  0  0  0  0  0
  -20.8540  -28.0600   22.9400 C   0  0  0  0  0  3  0  0  0  0  0  0
  -20.9700  -26.6670   22.2800 C   0  0  0  0  0  2  0  0  0  0  0  0
  -19.8860  -26.4090   21.2300 C   0  0  0  0  0  2  0  0  0  0  0  0
  -18.4940  -26.5110   21.8610 C   0  0  0  0  0  2  0  0  0  0  0  0
  -19.4110  -28.5500   23.1090 C   0  0  0  0  0  0  0  0  0  0  0  0
  -19.1800  -29.7750   23.7730 C   0  0  0  0  0  3  0  0  0  0  0  0
  -17.8720  -30.2640   23.9490 C   0  0  0  0  0  3  0  0  0  0  0  0
  -16.7760  -29.5230   23.4770 C   0  0  0  0  0  3  0  0  0  0  0  0
  -16.9920  -28.2990   22.8160 C   0  0  0  0  0  3  0  0  0  0  0  0
  -25.9030  -32.4060   23.9830 C   0  0  0  0  0  3  0  0  0  0  0  0
  -25.5330  -33.7990   24.2680 N   0  0  0  0  0  0  0  0  0  0  0  0
  -25.8900  -34.8480   23.5160 C   0  0  0  0  0  0  0  0  0  0  0  0
  -26.6330  -34.7490   22.5370 O   0  0  0  0  0  0  0  0  0  0  0  0
  -24.8800  -33.9500   25.0230 H   0  0  0  0  0  0  0  0  0  0  0  0
  -24.1410  -36.5830   23.0150 C   0  0  0  0  0  1  0  0  0  0  0  0
  -25.3340  -36.2280   23.9170 C   0  0  0  0  0  3  0  0  0  0  0  0
  -27.3710  -37.1940   24.8840 C   0  0  0  0  0  1  0  0  0  0  0  0
  -26.3410  -37.3100   23.8560 N   0  0  0  0  0  0  0  0  0  0  0  0
  -25.8990  -38.2200   23.9460 H   0  0  0  0  0  0  0  0  0  0  0  0
  -26.3370  -31.6610   25.3040 C   0  0  1  0  0  0  0  0  0  0  0  0
  -25.1680  -31.4010   26.2830 C   0  0  0  0  0  1  0  0  0  0  0  0
  -26.9890  -30.2990   24.9720 C   0  0  0  0  0  1  0  0  0  0  0  0
  -27.4080  -32.4930   26.0480 C   0  0  0  0  0  1  0  0  0  0  0  0
  2  1  1  0
  3  6  1  0
  3  5  1  0
  4 15  1  0
  4  1  1  0
  5 49  1  0
  5  2  1  0
  6 45  1  0
  6  4  1  0
  7 15  1  0
  8 13  1  0
  9 10  1  0
  9  8  1  0
 11 10  1  0
 11 20  1  0
 11 12  1  0
 13  7  1  0
 13 12  1  0
 14  7  2  0
 15 16  1  0
 17 18  2  0
 18 37  1  0
 19 18  1  0
 19 22  1  0
 20 21  1  0
 20 17  1  0
 21 19  2  0
 22 23  1  0
 23 24  2  0
 25 28  1  0
 25 24  1  0
 26 25  2  0
 27 26  1  0
 27 22  2  0
 28 29  1  0
 29 30  1  0
 30 31  2  0
 32 31  1  0
 32 36  1  0
 33 32  2  0
 34 29  2  0
 34 33  1  0
 35 34  1  0
 37 38  1  0
 38 41  1  0
 38 40  1  0
 39 37  2  0
 42 43  1  0
 42 17  1  0
 44 42  1  0
 45 48  1  0
 45 46  1  0
 47 45  1  0
 49 51  1  0
 50 49  1  0
 52 53  1  0
 52 49  1  0
 54 53  1  0
 54 55  1  0
 56 55  1  0
 57 68  2  0
 58 56  1  0
 58 63  1  0
 59 67  1  0
 59 69  1  0
 60 62  1  0
 61 67  1  0
 62 63  2  0
 62 61  1  0
 64 58  2  0
 65 64  1  0
 65 60  2  0
 66 60  1  0
 66 59  1  0
 67 57  1  0
 69 71  2  0
 70 69  1  0
 72 70  1  0
 73 82  2  0
 73 78  1  0
 74 70  1  0
 74 78  1  0
 75 74  1  0
 76 77  1  0
 76 75  1  0
 77 73  1  0
 78 79  2  0
 79 80  1  0
 81 80  2  0
 82 81  1  0
 83 57  1  0
 83 84  1  0
 83 93  1  0
 84 87  1  0
 85 89  1  0
 85 84  1  0
 86 85  2  0
 89 88  1  0
 91 89  1  0
 91 92  1  0
 91 90  1  0
 93 96  1  1
 93 94  1  0
 95 93  1  0
M  ISO  4   7 100  15 100  55 101  56 101
M  END
>  <TORSDO>  (32) 
F 22

>  <SCORE>  (32) 
-12.317

>  <name>  (32) 
31

>  <ligand_id>  (32) 
31

>  <original_smiles>  (32) 
[H]c1c([H])c([H])c2c(c1[H])C([H])([H])C([H])([H])C([H])([H])C2([H])N([H])C(=O)C1([H])N(C(=O)C([H])(N([H])C(=O)C([H])(N([H])C([H])([H])[H])C([H])([H])[H])C(C([H])([H])[H])(C([H])([H])[H])C([H])([H])[H])C([H])([H])c2c([H])c(OC([H])([H])C([H])([H])C([H])([H])C([H])([H])[N+]([H])([H])C3([H])C([H])([H])C([H])([H])C([H])(N([H])C(=O)N4C([H])([H])C([H])([H])C([H])([H])C([H])(n5nc(-c6c([H])c([H])c(Oc7c([H])c([H])c(F)c([H])c7F)c([H])c6[H])c(C(=O)N([H])[H])c5N([H])[H])C4([H])[H])C([H])([N+]([H])([H])[H])C3([H])[H])c([H])c([H])c2C1([H])[H]

>  <smiles>  (32) 
[H]c1c([H])c([H])c2c(c1[H])C([H])([H])C([H])([H])C([H])([H])C2([H])N([H])C(=O)C1([H])N(C(=O)C([H])(N([H])C(=O)C([H])(N([H])C([H])([H])[H])C([H])([H])[H])C(C([H])([H])[H])(C([H])([H])[H])C([H])([H])[H])C([H])([H])c2c([H])c(OC([H])([H])C([H])([H])C([H])([H])C([H])([H])[N+]([H])([H])C3([H])C([H])([H])C([H])([H])C([H])(N([H])C(=O)N4C([H])([H])C([H])([H])C([H])([H])C([H])(n5nc(-c6c([H])c([H])c(Oc7c([H])c([H])c(F)c([H])c7F)c([H])c6[H])c(C(=O)N([H])[H])c5N([H])[H])C4([H])[H])C([H])([N+]([H])([H])[H])C3([H])[H])c([H])c([H])c2C1([H])[H]

$$$$
32:0:0
     RDKit          3D

 90 99  0  0  1  0  0  0  0  0999 V2000
  -30.5830  -15.0530   20.3740 C   0  0  0  0  0  0  0  0  0  0  0  0
  -30.4210  -12.7070   19.4370 C   0  0  0  0  0  2  0  0  0  0  0  0
  -29.4820  -12.6000   18.2130 C   0  0  0  0  0  2  0  0  0  0  0  0
  -28.0170  -12.4220   18.6530 C   0  0  0  0  0  2  0  0  0  0  0  0
  -27.6020  -13.3590   19.8170 C   0  0  0  0  0  3  0  0  0  0  0  0
  -28.6690  -13.4150   20.9300 C   0  0  0  0  0  2  0  0  0  0  0  0
  -29.9340  -13.8180   20.2980 N   0  0  0  0  0  0  0  0  0  0  0  0
  -31.8150  -15.0350   20.3150 O   0  0  0  0  0  0  0  0  0  0  0  0
  -30.1930  -17.4770   18.0540 C   0  0  0  0  0  2  0  0  0  0  0  0
  -31.5470  -19.5640   18.9250 C   0  0  0  0  0  2  0  0  0  0  0  0
  -29.3340  -16.4390   18.8210 C   0  0  0  0  0  2  0  0  0  0  0  0
  -30.4280  -20.6260   19.0570 C   0  0  0  0  0  2  0  0  0  0  0  0
  -29.2910  -19.0930   20.6290 C   0  0  0  0  0  2  0  0  0  0  0  0
  -31.1090  -18.0900   19.1130 C   0  0  0  0  0  3  0  0  0  0  0  0
  -30.3450  -17.7970   20.4010 C   0  0  0  0  0  3  0  0  0  0  0  0
  -29.8770  -16.2960   20.1910 N   0  0  0  0  0  0  0  0  0  0  0  0
  -29.7580  -20.5880   20.3810 N   0  0  2  0  0  4  0  0  0  0  0  0
  -30.4770  -20.7540   21.0680 H   0  0  0  0  0  0  0  0  0  0  0  0
  -25.2160  -13.9100   20.5630 C   0  0  0  0  0  0  0  0  0  0  0  0
  -24.1580  -13.1200   20.9210 C   0  0  0  0  0  0  0  0  0  0  0  0
  -24.6390  -11.7740   20.8920 C   0  0  0  0  0  0  0  0  0  0  0  0
  -26.2710  -13.0440   20.3260 N   0  0  0  0  0  0  0  0  0  0  0  0
  -25.9330  -11.7550   20.5940 N   0  0  0  0  0  0  0  0  0  0  0  0
  -23.9260  -10.5020   21.0720 C   0  0  0  0  0  0  0  0  0  0  0  0
  -24.3620   -9.5350   22.0020 C   0  0  0  0  0  3  0  0  0  0  0  0
  -23.6470   -8.3290   22.1690 C   0  0  0  0  0  3  0  0  0  0  0  0
  -22.4830   -8.0810   21.4050 C   0  0  0  0  0  0  0  0  0  0  0  0
  -22.0650   -9.0370   20.4650 C   0  0  0  0  0  3  0  0  0  0  0  0
  -22.7790  -10.2340   20.2960 C   0  0  0  0  0  3  0  0  0  0  0  0
  -21.7420   -6.9270   21.4840 O   0  0  0  0  0  0  0  0  0  0  0  0
  -21.6920   -6.1810   22.6350 C   0  0  0  0  0  0  0  0  0  0  0  0
  -21.2420   -6.7250   23.8560 C   0  0  0  0  0  3  0  0  0  0  0  0
  -21.1350   -5.9060   24.9980 C   0  0  0  0  0  3  0  0  0  0  0  0
  -21.4740   -4.5410   24.9180 C   0  0  0  0  0  0  0  0  0  0  0  0
  -21.9190   -3.9960   23.7020 C   0  0  0  0  0  3  0  0  0  0  0  0
  -22.0260   -4.8140   22.5640 C   0  0  0  0  0  0  0  0  0  0  0  0
  -22.4360   -4.2780   21.3880 F   0  0  0  0  0  0  0  0  0  0  0  0
  -21.3680   -3.7520   26.0120 F   0  0  0  0  0  0  0  0  0  0  0  0
  -22.7520  -13.5780   21.1780 C   0  0  0  0  0  0  0  0  0  0  0  0
  -22.0200  -12.8800   22.0380 N   0  0  0  0  0  0  0  0  0  0  0  0
  -22.3100  -14.5960   20.6490 O   0  0  0  0  0  0  0  0  0  0  0  0
  -22.3870  -12.0570   22.4970 H   0  0  0  0  0  0  0  0  0  0  0  0
  -21.0770  -13.1770   22.2470 H   0  0  0  0  0  0  0  0  0  0  0  0
  -25.3630  -15.2840   20.3940 N   0  0  0  0  0  0  0  0  0  0  0  0
  -24.5880  -15.9300   20.5010 H   0  0  0  0  0  0  0  0  0  0  0  0
  -26.2200  -15.7360   20.0990 H   0  0  0  0  0  0  0  0  0  0  0  0
  -28.7560  -21.8180   20.5360 C   0  0  0  0  0  2  0  0  0  0  0  0
  -29.1790  -23.4540   20.4340 C   0  0  0  0  0  3  0  0  0  0  0  0
  -28.0750  -24.7310   20.4130 C   0  0  0  0  0  3  0  0  0  0  0  0
  -28.3250  -26.2700   20.4410 O   0  0  0  0  0  0  0  0  0  0  0  0
  -24.6280  -32.0040   23.2910 C   0  0  0  0  0  0  0  0  0  0  0  0
  -27.2480  -27.2330   20.3740 C   0  0  0  0  0  0  0  0  0  0  0  0
  -23.4440  -30.5790   21.6660 C   0  0  0  0  0  3  0  0  0  0  0  0
  -24.9060  -28.9670   20.2990 C   0  0  0  0  0  0  0  0  0  0  0  0
  -26.0010  -30.8350   21.5250 C   0  0  0  0  0  2  0  0  0  0  0  0
  -26.0830  -29.4310   20.9030 C   0  0  0  0  0  0  0  0  0  0  0  0
  -27.2540  -28.5830   20.9170 C   0  0  0  0  0  3  0  0  0  0  0  0
  -26.0390  -26.8700   19.7350 C   0  0  0  0  0  3  0  0  0  0  0  0
  -24.9000  -27.6980   19.7020 C   0  0  0  0  0  3  0  0  0  0  0  0
  -23.6790  -29.8650   20.3100 C   0  0  0  0  0  2  0  0  0  0  0  0
  -24.7110  -31.1620   22.2170 N   0  0  0  0  0  0  0  0  0  0  0  0
  -23.5350  -32.3030   23.7990 O   0  0  0  0  0  0  0  0  0  0  0  0
  -22.7470  -29.5980   22.6410 C   0  0  0  0  0  0  0  0  0  0  0  0
  -21.4230  -29.4190   22.4930 N   0  0  0  0  0  0  0  0  0  0  0  0
  -23.4020  -28.9940   23.4960 O   0  0  0  0  0  0  0  0  0  0  0  0
  -20.9490  -29.9570   21.7810 H   0  0  0  0  0  0  0  0  0  0  0  0
  -18.0340  -28.2290   22.9690 C   0  0  0  0  0  0  0  0  0  0  0  0
  -20.5870  -28.5010   23.2720 C   0  0  0  0  0  3  0  0  0  0  0  0
  -20.6980  -27.0540   22.7370 C   0  0  0  0  0  2  0  0  0  0  0  0
  -19.6160  -26.7050   21.7100 C   0  0  0  0  0  2  0  0  0  0  0  0
  -18.2240  -26.8640   22.3280 C   0  0  0  0  0  2  0  0  0  0  0  0
  -19.1450  -29.0040   23.3980 C   0  0  0  0  0  0  0  0  0  0  0  0
  -18.9130  -30.2770   23.9620 C   0  0  0  0  0  3  0  0  0  0  0  0
  -17.6060  -30.7800   24.0920 C   0  0  0  0  0  3  0  0  0  0  0  0
  -16.5100  -30.0050   23.6760 C   0  0  0  0  0  3  0  0  0  0  0  0
  -16.7240  -28.7290   23.1240 C   0  0  0  0  0  3  0  0  0  0  0  0
  -25.8990  -32.6490   23.9250 C   0  0  0  0  0  3  0  0  0  0  0  0
  -25.5820  -34.0520   24.2340 N   0  0  0  0  0  0  0  0  0  0  0  0
  -25.9130  -35.0970   23.4610 C   0  0  0  0  0  0  0  0  0  0  0  0
  -26.5800  -34.9810   22.4310 O   0  0  0  0  0  0  0  0  0  0  0  0
  -24.9880  -34.2150   25.0330 H   0  0  0  0  0  0  0  0  0  0  0  0
  -24.1750  -36.8810   23.0990 C   0  0  0  0  0  1  0  0  0  0  0  0
  -25.4260  -36.4930   23.9040 C   0  0  0  0  0  3  0  0  0  0  0  0
  -27.5660  -37.3990   24.6960 C   0  0  0  0  0  1  0  0  0  0  0  0
  -26.4550  -37.5460   23.7600 N   0  0  0  0  0  0  0  0  0  0  0  0
  -26.0490  -38.4690   23.8920 H   0  0  0  0  0  0  0  0  0  0  0  0
  -26.3950  -31.8990   25.2220 C   0  0  1  0  0  0  0  0  0  0  0  0
  -25.2840  -31.6650   26.2720 C   0  0  0  0  0  1  0  0  0  0  0  0
  -26.9960  -30.5220   24.8630 C   0  0  0  0  0  1  0  0  0  0  0  0
  -27.5300  -32.7110   25.8910 C   0  0  0  0  0  1  0  0  0  0  0  0
  2  7  1  0
  3  4  1  0
  3  2  1  0
  5  4  1  0
  5 22  1  0
  5  6  1  0
  7  1  1  0
  7  6  1  0
  8  1  2  0
  9 11  1  0
 10 12  1  0
 10 14  1  0
 11 16  1  0
 12 17  1  0
 14  9  1  0
 14 15  1  0
 15 13  1  0
 16  1  1  0
 16 15  1  0
 17 47  1  0
 17 13  1  0
 17 18  1  1
 19 20  2  0
 20 39  1  0
 21 20  1  0
 21 24  1  0
 22 19  1  0
 22 23  1  0
 23 21  2  0
 24 25  1  0
 25 26  2  0
 27 30  1  0
 27 26  1  0
 28 27  2  0
 29 28  1  0
 29 24  2  0
 30 31  1  0
 31 32  1  0
 32 33  2  0
 34 33  1  0
 34 38  1  0
 35 34  2  0
 36 31  2  0
 36 35  1  0
 37 36  1  0
 39 40  1  0
 40 43  1  0
 40 42  1  0
 41 39  2  0
 44 45  1  0
 44 19  1  0
 46 44  1  0
 48 47  1  0
 49 48  2  0
 49 50  1  0
 51 62  2  0
 52 50  1  0
 52 57  1  0
 53 61  1  0
 53 63  1  0
 54 60  1  0
 54 56  1  0
 55 61  1  0
 56 57  2  0
 56 55  1  0
 58 52  2  0
 59 58  1  0
 59 54  2  0
 60 53  1  0
 61 51  1  0
 63 65  2  0
 64 63  1  0
 66 64  1  0
 67 76  2  0
 67 72  1  0
 68 64  1  0
 68 72  1  0
 69 68  1  0
 70 71  1  0
 70 69  1  0
 71 67  1  0
 72 73  2  0
 73 74  1  0
 75 74  2  0
 76 75  1  0
 77 51  1  0
 77 78  1  0
 77 87  1  0
 78 81  1  0
 79 83  1  0
 79 78  1  0
 80 79  2  0
 83 82  1  0
 85 86  1  0
 85 83  1  0
 85 84  1  0
 87 90  1  1
 87 88  1  0
 89 87  1  0
M  ISO  4   1 100  16 100  49 101  50 101
M  END
>  <TORSDO>  (33) 
F 18

>  <SCORE>  (33) 
-14.268

>  <name>  (33) 
32

>  <ligand_id>  (33) 
32

>  <original_smiles>  (33) 
[H]c1c([H])c([H])c2c(c1[H])C([H])([H])C([H])([H])C([H])([H])C2([H])N([H])C(=O)C1([H])N(C(=O)C([H])(N([H])C(=O)C([H])(N([H])C([H])([H])[H])C([H])([H])[H])C(C([H])([H])[H])(C([H])([H])[H])C([H])([H])[H])C([H])([H])c2c([H])c(OC([H])([H])C([H])([H])C([H])([H])[N+]3([H])C([H])([H])C([H])([H])C4([H])C([H])([H])C([H])([H])N(C(=O)N5C([H])([H])C([H])([H])C([H])([H])C([H])(n6nc(-c7c([H])c([H])c(Oc8c([H])c([H])c(F)c([H])c8F)c([H])c7[H])c(C(=O)N([H])[H])c6N([H])[H])C5([H])[H])C4([H])C3([H])[H])c([H])c([H])c2C1([H])[H]

>  <smiles>  (33) 
[H]c1c([H])c([H])c2c(c1[H])C([H])([H])C([H])([H])C([H])([H])C2([H])N([H])C(=O)C1([H])N(C(=O)C([H])(N([H])C(=O)C([H])(N([H])C([H])([H])[H])C([H])([H])[H])C(C([H])([H])[H])(C([H])([H])[H])C([H])([H])[H])C([H])([H])c2c([H])c(OC([H])([H])C([H])([H])C([H])([H])[N+]3([H])C([H])([H])C([H])([H])C4([H])C([H])([H])C([H])([H])N(C(=O)N5C([H])([H])C([H])([H])C([H])([H])C([H])(n6nc(-c7c([H])c([H])c(Oc8c([H])c([H])c(F)c([H])c8F)c([H])c7[H])c(C(=O)N([H])[H])c6N([H])[H])C5([H])[H])C4([H])C3([H])[H])c([H])c([H])c2C1([H])[H]

$$$$
33:0:0
     RDKit          3D

 96105  0  0  1  0  0  0  0  0999 V2000
  -30.3510  -22.2410   20.7120 C   0  0  0  0  0  2  0  0  0  0  0  0
  -28.5800  -22.2230   19.0280 C   0  0  0  0  0  2  0  0  0  0  0  0
  -30.0480  -20.7640   21.0720 C   0  0  0  0  0  2  0  0  0  0  0  0
  -28.3090  -20.7170   19.3250 C   0  0  0  0  0  2  0  0  0  0  0  0
  -29.0760  -22.9880   20.2730 C   0  0  0  0  0  3  0  0  0  0  0  0
  -29.4500  -19.9720   19.9530 N   0  0  2  0  0  4  0  0  0  0  0  0
  -30.1700  -19.9040   19.2490 H   0  0  0  0  0  0  0  0  0  0  0  0
  -29.0470  -18.5400   20.2630 C   0  0  0  0  0  2  0  0  0  0  0  0
  -30.7190  -15.7010   22.4000 C   0  0  0  0  0  3  0  0  0  0  0  0
  -31.2310  -16.4540   23.4690 C   0  0  0  0  0  3  0  0  0  0  0  0
  -30.2570  -18.4470   22.4930 C   0  0  0  0  0  3  0  0  0  0  0  0
  -29.8060  -17.7350   21.3510 C   0  0  0  0  0  0  0  0  0  0  0  0
  -29.9740  -16.3040   21.3500 C   0  0  0  0  0  0  0  0  0  0  0  0
  -30.9720  -17.8270   23.5290 C   0  0  0  0  0  0  0  0  0  0  0  0
  -31.3970  -18.5550   24.5890 F   0  0  0  0  0  0  0  0  0  0  0  0
  -29.8510  -14.4840   19.6580 C   0  0  0  0  0  0  0  0  0  0  0  0
  -29.4770  -12.3590   18.4370 C   0  0  0  0  0  2  0  0  0  0  0  0
  -28.3560  -12.5160   17.3940 C   0  0  0  0  0  2  0  0  0  0  0  0
  -26.9820  -12.2450   18.0360 C   0  0  0  0  0  2  0  0  0  0  0  0
  -26.7780  -13.0260   19.3620 C   0  0  0  0  0  3  0  0  0  0  0  0
  -28.0020  -12.8780   20.2920 C   0  0  0  0  0  2  0  0  0  0  0  0
  -29.1940  -13.2960   19.5370 N   0  0  0  0  0  0  0  0  0  0  0  0
  -30.8570  -14.7530   18.9930 O   0  0  0  0  0  0  0  0  0  0  0  0
  -29.2810  -15.4220   20.4520 N   0  0  0  0  0  0  0  0  0  0  0  0
  -28.3230  -15.2270   20.7010 H   0  0  0  0  0  0  0  0  0  0  0  0
  -24.4990  -13.4320   20.4810 C   0  0  0  0  0  0  0  0  0  0  0  0
  -23.5520  -12.5720   20.9680 C   0  0  0  0  0  0  0  0  0  0  0  0
  -24.0800  -11.2570   20.7830 C   0  0  0  0  0  0  0  0  0  0  0  0
  -25.5400  -12.6350   20.0320 N   0  0  0  0  0  0  0  0  0  0  0  0
  -25.3020  -11.3200   20.2720 N   0  0  0  0  0  0  0  0  0  0  0  0
  -23.4680   -9.9420   21.0100 C   0  0  0  0  0  0  0  0  0  0  0  0
  -24.0280   -9.0120   21.9130 C   0  0  0  0  0  3  0  0  0  0  0  0
  -23.4100   -7.7610   22.1290 C   0  0  0  0  0  3  0  0  0  0  0  0
  -22.2190   -7.4300   21.4410 C   0  0  0  0  0  0  0  0  0  0  0  0
  -21.6790   -8.3500   20.5240 C   0  0  0  0  0  3  0  0  0  0  0  0
  -22.2980   -9.5920   20.3070 C   0  0  0  0  0  3  0  0  0  0  0  0
  -21.5630   -6.2280   21.5660 O   0  0  0  0  0  0  0  0  0  0  0  0
  -21.5900   -5.5130   22.7360 C   0  0  0  0  0  0  0  0  0  0  0  0
  -21.1090   -6.0510   23.9500 C   0  0  0  0  0  3  0  0  0  0  0  0
  -21.0900   -5.2570   25.1130 C   0  0  0  0  0  3  0  0  0  0  0  0
  -21.5410   -3.9240   25.0650 C   0  0  0  0  0  0  0  0  0  0  0  0
  -22.0160   -3.3850   23.8560 C   0  0  0  0  0  3  0  0  0  0  0  0
  -22.0370   -4.1770   22.6950 C   0  0  0  0  0  0  0  0  0  0  0  0
  -22.4750   -3.6460   21.5280 F   0  0  0  0  0  0  0  0  0  0  0  0
  -21.5160   -3.1590   26.1820 F   0  0  0  0  0  0  0  0  0  0  0  0
  -22.1900  -12.9400   21.4830 C   0  0  0  0  0  0  0  0  0  0  0  0
  -21.6600  -12.1640   22.4230 N   0  0  0  0  0  0  0  0  0  0  0  0
  -21.6070  -13.9490   21.0870 O   0  0  0  0  0  0  0  0  0  0  0  0
  -22.1470  -11.3480   22.7620 H   0  0  0  0  0  0  0  0  0  0  0  0
  -20.7540  -12.3890   22.8070 H   0  0  0  0  0  0  0  0  0  0  0  0
  -24.5510  -14.8170   20.3590 N   0  0  0  0  0  0  0  0  0  0  0  0
  -23.7730  -15.4100   20.6270 H   0  0  0  0  0  0  0  0  0  0  0  0
  -25.2790  -15.3200   19.8680 H   0  0  0  0  0  0  0  0  0  0  0  0
  -29.2970  -24.5330   20.1050 C   0  0  0  0  0  2  0  0  0  0  0  0
  -28.0330  -25.3700   19.7560 C   0  0  0  0  0  2  0  0  0  0  0  0
  -28.2140  -26.8110   19.8420 O   0  0  0  0  0  0  0  0  0  0  0  0
  -24.4530  -31.9100   23.1790 C   0  0  0  0  0  0  0  0  0  0  0  0
  -27.0540  -27.5770   19.8720 C   0  0  0  0  0  0  0  0  0  0  0  0
  -23.2270  -30.5630   21.5120 C   0  0  0  0  0  3  0  0  0  0  0  0
  -24.6610  -29.1010   19.9930 C   0  0  0  0  0  0  0  0  0  0  0  0
  -25.7490  -30.9460   21.2720 C   0  0  0  0  0  2  0  0  0  0  0  0
  -25.8340  -29.6000   20.5750 C   0  0  0  0  0  0  0  0  0  0  0  0
  -27.0350  -28.8480   20.5060 C   0  0  0  0  0  3  0  0  0  0  0  0
  -25.8570  -27.1110   19.2790 C   0  0  0  0  0  3  0  0  0  0  0  0
  -24.6680  -27.8590   19.3430 C   0  0  0  0  0  3  0  0  0  0  0  0
  -23.4150  -29.9530   20.0990 C   0  0  0  0  0  2  0  0  0  0  0  0
  -24.4970  -31.1520   22.0460 N   0  0  0  0  0  0  0  0  0  0  0  0
  -23.3820  -32.1490   23.7520 O   0  0  0  0  0  0  0  0  0  0  0  0
  -22.6050  -29.4950   22.4420 C   0  0  0  0  0  0  0  0  0  0  0  0
  -21.2880  -29.2720   22.3070 N   0  0  0  0  0  0  0  0  0  0  0  0
  -23.3060  -28.8740   23.2460 O   0  0  0  0  0  0  0  0  0  0  0  0
  -20.7800  -29.8350   21.6380 H   0  0  0  0  0  0  0  0  0  0  0  0
  -17.9570  -27.9310   22.7430 C   0  0  0  0  0  0  0  0  0  0  0  0
  -20.5000  -28.2870   23.0490 C   0  0  0  0  0  3  0  0  0  0  0  0
  -20.6670  -26.8710   22.4510 C   0  0  0  0  0  2  0  0  0  0  0  0
  -19.5890  -26.5220   21.4180 C   0  0  0  0  0  2  0  0  0  0  0  0
  -18.1940  -26.6020   22.0480 C   0  0  0  0  0  2  0  0  0  0  0  0
  -19.0400  -28.7290   23.1990 C   0  0  0  0  0  0  0  0  0  0  0  0
  -18.7660  -29.9730   23.8080 C   0  0  0  0  0  3  0  0  0  0  0  0
  -17.4400  -30.4200   23.9660 C   0  0  0  0  0  3  0  0  0  0  0  0
  -16.3710  -29.6200   23.5270 C   0  0  0  0  0  3  0  0  0  0  0  0
  -16.6310  -28.3760   22.9230 C   0  0  0  0  0  3  0  0  0  0  0  0
  -25.7460  -32.5330   23.7950 C   0  0  0  0  0  3  0  0  0  0  0  0
  -26.2860  -31.7340   25.0430 C   0  0  1  0  0  0  0  0  0  0  0  0
  -25.2040  -31.4400   26.1090 C   0  0  0  0  0  1  0  0  0  0  0  0
  -26.8940  -30.3840   24.5970 C   0  0  0  0  0  1  0  0  0  0  0  0
  -27.4210  -32.5310   25.7240 C   0  0  0  0  0  1  0  0  0  0  0  0
  -25.4360  -33.9200   24.1640 N   0  0  0  0  0  0  0  0  0  0  0  0
  -25.7440  -34.9910   23.4200 C   0  0  0  0  0  0  0  0  0  0  0  0
  -26.3910  -34.9140   22.3720 O   0  0  0  0  0  0  0  0  0  0  0  0
  -24.8660  -34.0550   24.9860 H   0  0  0  0  0  0  0  0  0  0  0  0
  -24.0000  -36.7830   23.1390 C   0  0  0  0  0  1  0  0  0  0  0  0
  -25.2590  -36.3660   23.9180 C   0  0  0  0  0  3  0  0  0  0  0  0
  -27.4020  -37.2410   24.7350 C   0  0  0  0  0  1  0  0  0  0  0  0
  -26.2840  -37.4260   23.8130 N   0  0  0  0  0  0  0  0  0  0  0  0
  -25.8750  -38.3400   23.9930 H   0  0  0  0  0  0  0  0  0  0  0  0
  1  3  1  0
  2  4  1  0
  2  5  1  0
  4  6  1  0
  5 54  1  0
  5  1  1  0
  6  8  1  0
  6  3  1  0
  6  7  1  6
  8 12  1  0
  9 10  1  0
 10 14  2  0
 11 14  1  0
 12 11  2  0
 13 12  1  0
 13  9  2  0
 14 15  1  0
 16 24  1  0
 17 22  1  0
 18 19  1  0
 18 17  1  0
 20 19  1  0
 20 29  1  0
 20 21  1  0
 22 16  1  0
 22 21  1  0
 23 16  2  0
 24 25  1  0
 24 13  1  0
 26 27  2  0
 27 46  1  0
 28 27  1  0
 28 31  1  0
 29 30  1  0
 29 26  1  0
 30 28  2  0
 31 32  1  0
 32 33  2  0
 34 37  1  0
 34 33  1  0
 35 34  2  0
 36 35  1  0
 36 31  2  0
 37 38  1  0
 38 39  1  0
 39 40  2  0
 41 40  1  0
 41 45  1  0
 42 41  2  0
 43 38  2  0
 43 42  1  0
 44 43  1  0
 46 47  1  0
 47 49  1  0
 47 50  1  0
 48 46  2  0
 51 26  1  0
 51 52  1  0
 53 51  1  0
 55 56  1  0
 55 54  1  0
 56 58  1  0
 57 68  2  0
 58 63  1  0
 59 67  1  0
 59 69  1  0
 60 66  1  0
 60 62  1  0
 61 67  1  0
 62 61  1  0
 63 62  2  0
 64 65  1  0
 64 58  2  0
 65 60  2  0
 66 59  1  0
 67 57  1  0
 69 71  2  0
 70 69  1  0
 72 70  1  0
 73 82  2  0
 73 78  1  0
 74 70  1  0
 74 78  1  0
 75 74  1  0
 76 77  1  0
 76 75  1  0
 77 73  1  0
 78 79  2  0
 79 80  1  0
 81 80  2  0
 82 81  1  0
 83 57  1  0
 83 88  1  0
 83 84  1  0
 84 87  1  1
 84 85  1  0
 86 84  1  0
 88 91  1  0
 89 93  1  0
 89 88  1  0
 90 89  2  0
 93 92  1  0
 95 93  1  0
 95 96  1  0
 95 94  1  0
M  ISO  4  16 100  24 100  55 101  56 101
M  END
>  <TORSDO>  (34) 
F 20

>  <SCORE>  (34) 
-8.597

>  <name>  (34) 
33

>  <ligand_id>  (34) 
33

>  <original_smiles>  (34) 
[H]c1c([H])c([H])c2c(c1[H])C([H])([H])C([H])([H])C([H])([H])C2([H])N([H])C(=O)C1([H])N(C(=O)C([H])(N([H])C(=O)C([H])(N([H])C([H])([H])[H])C([H])([H])[H])C(C([H])([H])[H])(C([H])([H])[H])C([H])([H])[H])C([H])([H])c2c([H])c(OC([H])([H])C([H])([H])C3([H])C([H])([H])C([H])([H])[N+]([H])(C([H])([H])c4c([H])c(F)c([H])c([H])c4N([H])C(=O)N4C([H])([H])C([H])([H])C([H])([H])C([H])(n5nc(-c6c([H])c([H])c(Oc7c([H])c([H])c(F)c([H])c7F)c([H])c6[H])c(C(=O)N([H])[H])c5N([H])[H])C4([H])[H])C([H])([H])C3([H])[H])c([H])c([H])c2C1([H])[H]

>  <smiles>  (34) 
[H]c1c([H])c([H])c2c(c1[H])C([H])([H])C([H])([H])C([H])([H])C2([H])N([H])C(=O)C1([H])N(C(=O)C([H])(N([H])C(=O)C([H])(N([H])C([H])([H])[H])C([H])([H])[H])C(C([H])([H])[H])(C([H])([H])[H])C([H])([H])[H])C([H])([H])c2c([H])c(OC([H])([H])C([H])([H])C3([H])C([H])([H])C([H])([H])[N+]([H])(C([H])([H])c4c([H])c(F)c([H])c([H])c4N([H])C(=O)N4C([H])([H])C([H])([H])C([H])([H])C([H])(n5nc(-c6c([H])c([H])c(Oc7c([H])c([H])c(F)c([H])c7F)c([H])c6[H])c(C(=O)N([H])[H])c5N([H])[H])C4([H])[H])C([H])([H])C3([H])[H])c([H])c([H])c2C1([H])[H]

$$$$
34:0:0
     RDKit          3D

103111  0  0  1  0  0  0  0  0999 V2000
  -30.9530  -20.4100   20.1440 C   0  0  0  0  0  3  0  0  0  0  0  0
  -31.4610  -19.0990   20.0300 C   0  0  0  0  0  3  0  0  0  0  0  0
  -30.6790  -20.0730   22.5240 C   0  0  0  0  0  3  0  0  0  0  0  0
  -30.5420  -20.9170   21.3970 C   0  0  0  0  0  0  0  0  0  0  0  0
  -31.5450  -18.2310   21.1450 C   0  0  0  0  0  0  0  0  0  0  0  0
  -31.1650  -18.7420   22.4220 C   0  0  0  0  0  0  0  0  0  0  0  0
  -32.0570  -16.7890   20.9090 C   0  0  0  0  0  2  0  0  0  0  0  0
  -31.8280  -14.6230   19.8440 C   0  0  0  0  0  0  0  0  0  0  0  0
  -31.2760  -12.4360   18.8570 C   0  0  0  0  0  2  0  0  0  0  0  0
  -30.2990  -12.6320   17.6800 C   0  0  0  0  0  2  0  0  0  0  0  0
  -28.8410  -12.6170   18.1830 C   0  0  0  0  0  2  0  0  0  0  0  0
  -28.6090  -13.5340   19.4140 C   0  0  0  0  0  3  0  0  0  0  0  0
  -29.7190  -13.3580   20.4790 C   0  0  0  0  0  2  0  0  0  0  0  0
  -31.0210  -13.5220   19.8180 N   0  0  0  0  0  0  0  0  0  0  0  0
  -32.9960  -14.5780   19.4570 O   0  0  0  0  0  0  0  0  0  0  0  0
  -31.2530  -15.8420   20.0740 N   0  0  0  0  0  0  0  0  0  0  0  0
  -26.3100  -14.3170   20.2700 C   0  0  0  0  0  0  0  0  0  0  0  0
  -25.2000  -13.6300   20.6640 C   0  0  0  0  0  0  0  0  0  0  0  0
  -25.5540  -12.2490   20.5940 C   0  0  0  0  0  0  0  0  0  0  0  0
  -27.2720  -13.3620   19.9710 N   0  0  0  0  0  0  0  0  0  0  0  0
  -26.8220  -12.1110   20.2340 N   0  0  0  0  0  0  0  0  0  0  0  0
  -24.7370  -11.0520   20.8040 C   0  0  0  0  0  0  0  0  0  0  0  0
  -25.0950  -10.0720   21.7530 C   0  0  0  0  0  3  0  0  0  0  0  0
  -24.2800   -8.9360   21.9490 C   0  0  0  0  0  3  0  0  0  0  0  0
  -23.0930   -8.7780   21.1940 C   0  0  0  0  0  0  0  0  0  0  0  0
  -22.7520   -9.7500   20.2350 C   0  0  0  0  0  3  0  0  0  0  0  0
  -23.5680  -10.8750   20.0380 C   0  0  0  0  0  3  0  0  0  0  0  0
  -22.2540   -7.6960   21.2960 O   0  0  0  0  0  0  0  0  0  0  0  0
  -22.0810   -7.0310   22.4840 C   0  0  0  0  0  0  0  0  0  0  0  0
  -21.6330   -7.6900   23.6490 C   0  0  0  0  0  3  0  0  0  0  0  0
  -21.4050   -6.9530   24.8290 C   0  0  0  0  0  3  0  0  0  0  0  0
  -21.6120   -5.5610   24.8420 C   0  0  0  0  0  0  0  0  0  0  0  0
  -22.0520   -4.9040   23.6800 C   0  0  0  0  0  3  0  0  0  0  0  0
  -22.2840   -5.6370   22.5030 C   0  0  0  0  0  0  0  0  0  0  0  0
  -22.6900   -4.9960   21.3790 F   0  0  0  0  0  0  0  0  0  0  0  0
  -21.3850   -4.8490   25.9720 F   0  0  0  0  0  0  0  0  0  0  0  0
  -23.8660  -14.2220   21.0130 C   0  0  0  0  0  0  0  0  0  0  0  0
  -23.1410  -13.5990   21.9340 N   0  0  0  0  0  0  0  0  0  0  0  0
  -23.4880  -15.2810   20.5130 O   0  0  0  0  0  0  0  0  0  0  0  0
  -23.4610  -12.7390   22.3550 H   0  0  0  0  0  0  0  0  0  0  0  0
  -22.2510  -13.9770   22.2200 H   0  0  0  0  0  0  0  0  0  0  0  0
  -26.5620  -15.6770   20.1550 N   0  0  0  0  0  0  0  0  0  0  0  0
  -25.8440  -16.1570   20.6900 H   0  0  0  0  0  0  0  0  0  0  0  0
  -27.4750  -15.8260   20.5630 H   0  0  0  0  0  0  0  0  0  0  0  0
  -30.5850  -16.4430   18.8880 C   0  0  0  0  0  2  0  0  0  0  0  0
  -29.4530  -17.4260   19.2540 C   0  0  0  0  0  2  0  0  0  0  0  0
  -28.5540  -17.8320   18.0660 C   0  0  0  0  0  2  0  0  0  0  0  0
  -27.4080  -18.6450   18.5040 N   0  0  0  0  0  4  0  0  0  0  0  0
  -26.8240  -18.0740   19.1060 H   0  0  0  0  0  0  0  0  0  0  0  0
  -26.8550  -18.9250   17.7160 H   0  0  0  0  0  0  0  0  0  0  0  0
  -27.7010  -19.4700   18.9950 H   0  0  0  0  0  0  0  0  0  0  0  0
  -29.9340  -22.3290   21.5570 C   0  0  0  0  0  2  0  0  0  0  0  0
  -30.4420  -23.3360   20.5890 N   0  0  0  0  0  4  0  0  0  0  0  0
  -30.1790  -23.0630   19.6560 H   0  0  0  0  0  0  0  0  0  0  0  0
  -31.4460  -23.2660   20.6440 H   0  0  0  0  0  0  0  0  0  0  0  0
  -30.1000  -24.7740   20.8310 C   0  0  0  0  0  2  0  0  0  0  0  0
  -28.6850  -25.2610   20.4010 C   0  0  0  0  0  2  0  0  0  0  0  0
  -28.6370  -26.6900   20.5790 O   0  0  0  0  0  0  0  0  0  0  0  0
  -24.6280  -31.9440   23.2560 C   0  0  0  0  0  0  0  0  0  0  0  0
  -27.4290  -27.3610   20.4990 C   0  0  0  0  0  0  0  0  0  0  0  0
  -23.4950  -30.4440   21.6480 C   0  0  0  0  0  3  0  0  0  0  0  0
  -25.0090  -28.8360   20.3690 C   0  0  0  0  0  0  0  0  0  0  0  0
  -26.0250  -30.8080   21.5270 C   0  0  0  0  0  2  0  0  0  0  0  0
  -26.1410  -29.4040   20.9660 C   0  0  0  0  0  0  0  0  0  0  0  0
  -27.3480  -28.6720   21.0250 C   0  0  0  0  0  3  0  0  0  0  0  0
  -26.2710  -26.8050   19.9020 C   0  0  0  0  0  3  0  0  0  0  0  0
  -25.0670  -27.5350   19.8450 C   0  0  0  0  0  3  0  0  0  0  0  0
  -23.7600  -29.6900   20.3180 C   0  0  0  0  0  2  0  0  0  0  0  0
  -24.7320  -31.0860   22.2010 N   0  0  0  0  0  0  0  0  0  0  0  0
  -23.5250  -32.2330   23.7420 O   0  0  0  0  0  0  0  0  0  0  0  0
  -22.8170  -29.4680   22.6380 C   0  0  0  0  0  0  0  0  0  0  0  0
  -21.5020  -29.2570   22.4650 N   0  0  0  0  0  0  0  0  0  0  0  0
  -23.4730  -28.9020   23.5160 O   0  0  0  0  0  0  0  0  0  0  0  0
  -21.0370  -29.7650   21.7250 H   0  0  0  0  0  0  0  0  0  0  0  0
  -18.1330  -28.0160   22.8710 C   0  0  0  0  0  0  0  0  0  0  0  0
  -20.6670  -28.3530   23.2560 C   0  0  0  0  0  3  0  0  0  0  0  0
  -20.8290  -26.8920   22.7810 C   0  0  0  0  0  2  0  0  0  0  0  0
  -19.7880  -26.4760   21.7370 C   0  0  0  0  0  2  0  0  0  0  0  0
  -18.3730  -26.6300   22.2980 C   0  0  0  0  0  2  0  0  0  0  0  0
  -19.2130  -28.8300   23.3070 C   0  0  0  0  0  0  0  0  0  0  0  0
  -18.9370  -30.1220   23.8050 C   0  0  0  0  0  3  0  0  0  0  0  0
  -17.6160  -30.6040   23.8710 C   0  0  0  0  0  3  0  0  0  0  0  0
  -16.5510  -29.7880   23.4530 C   0  0  0  0  0  3  0  0  0  0  0  0
  -16.8110  -28.4970   22.9590 C   0  0  0  0  0  3  0  0  0  0  0  0
  -25.8860  -32.6200   23.8860 C   0  0  0  0  0  3  0  0  0  0  0  0
  -25.5340  -34.0140   24.1900 N   0  0  0  0  0  0  0  0  0  0  0  0
  -25.8560  -35.0640   23.4230 C   0  0  0  0  0  0  0  0  0  0  0  0
  -26.5510  -34.9620   22.4080 O   0  0  0  0  0  0  0  0  0  0  0  0
  -24.9220  -34.1620   24.9760 H   0  0  0  0  0  0  0  0  0  0  0  0
  -24.0870  -36.8020   23.0000 C   0  0  0  0  0  1  0  0  0  0  0  0
  -25.3190  -36.4440   23.8470 C   0  0  0  0  0  3  0  0  0  0  0  0
  -27.4130  -37.3970   24.7060 C   0  0  0  0  0  1  0  0  0  0  0  0
  -26.3230  -37.5260   23.7440 N   0  0  0  0  0  0  0  0  0  0  0  0
  -25.8880  -38.4350   23.8780 H   0  0  0  0  0  0  0  0  0  0  0  0
  -26.4080  -31.8830   25.1810 C   0  0  1  0  0  0  0  0  0  0  0  0
  -25.3030  -31.6060   26.2300 C   0  0  0  0  0  1  0  0  0  0  0  0
  -27.0540  -30.5260   24.8150 C   0  0  0  0  0  1  0  0  0  0  0  0
  -27.5110  -32.7280   25.8580 C   0  0  0  0  0  1  0  0  0  0  0  0
  -31.2560  -17.9230   23.7110 C   0  0  0  0  0  2  0  0  0  0  0  0
  -30.0540  -17.1060   23.9200 N   0  0  0  0  0  4  0  0  0  0  0  0
  -29.2340  -17.6550   23.7350 H   0  0  0  0  0  0  0  0  0  0  0  0
  -30.0180  -16.7990   24.8760 H   0  0  0  0  0  0  0  0  0  0  0  0
  -30.0690  -16.2980   23.3310 H   0  0  0  0  0  0  0  0  0  0  0  0
  1  4  1  0
  2  1  2  0
  2  5  1  0
  4 52  1  0
  4  3  2  0
  5  6  2  0
  6  3  1  0
  6 99  1  0
  7  5  1  0
  8 16  1  0
  9 14  1  0
 10 11  1  0
 10  9  1  0
 12 11  1  0
 12 20  1  0
 12 13  1  0
 14  8  1  0
 14 13  1  0
 15  8  2  0
 16  7  1  0
 17 18  2  0
 18 37  1  0
 19 18  1  0
 19 22  1  0
 20 21  1  0
 20 17  1  0
 21 19  2  0
 22 23  1  0
 23 24  2  0
 25 28  1  0
 25 24  1  0
 26 25  2  0
 27 26  1  0
 27 22  2  0
 28 29  1  0
 29 34  2  0
 29 30  1  0
 30 31  2  0
 31 32  1  0
 32 36  1  0
 33 32  2  0
 34 33  1  0
 35 34  1  0
 37 38  1  0
 38 41  1  0
 38 40  1  0
 39 37  2  0
 42 17  1  0
 42 44  1  0
 42 43  1  0
 45 46  1  0
 45 16  1  0
 47 48  1  0
 47 46  1  0
 48 51  1  0
 48 49  1  0
 50 48  1  0
 53 55  1  0
 53 56  1  0
 53 52  1  0
 54 53  1  0
 57 58  1  0
 57 56  1  0
 59 70  2  0
 60 58  1  0
 60 65  1  0
 61 69  1  0
 61 71  1  0
 62 64  1  0
 63 69  1  0
 64 65  2  0
 64 63  1  0
 66 60  2  0
 67 66  1  0
 67 62  2  0
 68 62  1  0
 68 61  1  0
 69 59  1  0
 71 73  2  0
 72 71  1  0
 74 72  1  0
 75 84  2  0
 75 80  1  0
 76 72  1  0
 76 80  1  0
 77 76  1  0
 78 79  1  0
 78 77  1  0
 79 75  1  0
 80 81  2  0
 81 82  1  0
 83 82  2  0
 84 83  1  0
 85 59  1  0
 85 86  1  0
 85 95  1  0
 86 89  1  0
 87 91  1  0
 87 86  1  0
 88 87  2  0
 91 90  1  0
 93 91  1  0
 93 94  1  0
 93 92  1  0
 95 98  1  1
 95 96  1  0
 97 95  1  0
 99100  1  0
100102  1  0
101100  1  0
103100  1  0
M  ISO  4   8 100  16 100  57 101  58 101
M  END
>  <TORSDO>  (35) 
F 27

>  <SCORE>  (35) 
-9.053

>  <name>  (35) 
34

>  <ligand_id>  (35) 
34

>  <original_smiles>  (35) 
[H]c1c([H])c([H])c2c(c1[H])C([H])([H])C([H])([H])C([H])([H])C2([H])N([H])C(=O)C1([H])N(C(=O)C([H])(N([H])C(=O)C([H])(N([H])C([H])([H])[H])C([H])([H])[H])C(C([H])([H])[H])(C([H])([H])[H])C([H])([H])[H])C([H])([H])c2c([H])c(OC([H])([H])C([H])([H])[N+]([H])([H])C([H])([H])c3c([H])c([H])c(C([H])([H])N(C(=O)N4C([H])([H])C([H])([H])C([H])([H])C([H])(n5nc(-c6c([H])c([H])c(Oc7c([H])c([H])c(F)c([H])c7F)c([H])c6[H])c(C(=O)N([H])[H])c5N([H])[H])C4([H])[H])C([H])([H])C([H])([H])C([H])([H])[N+]([H])([H])[H])c(C([H])([H])[N+]([H])([H])[H])c3[H])c([H])c([H])c2C1([H])[H]

>  <smiles>  (35) 
[H]c1c([H])c([H])c2c(c1[H])C([H])([H])C([H])([H])C([H])([H])C2([H])N([H])C(=O)C1([H])N(C(=O)C([H])(N([H])C(=O)C([H])(N([H])C([H])([H])[H])C([H])([H])[H])C(C([H])([H])[H])(C([H])([H])[H])C([H])([H])[H])C([H])([H])c2c([H])c(OC([H])([H])C([H])([H])[N+]([H])([H])C([H])([H])c3c([H])c([H])c(C([H])([H])N(C(=O)N4C([H])([H])C([H])([H])C([H])([H])C([H])(n5nc(-c6c([H])c([H])c(Oc7c([H])c([H])c(F)c([H])c7F)c([H])c6[H])c(C(=O)N([H])[H])c5N([H])[H])C4([H])[H])C([H])([H])C([H])([H])C([H])([H])[N+]([H])([H])[H])c(C([H])([H])[N+]([H])([H])[H])c3[H])c([H])c([H])c2C1([H])[H]

$$$$
35:0:0
     RDKit          3D

101108  0  0  1  0  0  0  0  0999 V2000
  -27.8180  -20.9230   20.4430 N   0  0  0  0  0  0  0  0  0  0  0  0
  -27.0640  -19.8380   21.0810 C   0  0  0  0  0  2  0  0  0  0  0  0
  -26.2010  -19.0600   20.0650 C   0  0  0  0  0  2  0  0  0  0  0  0
  -25.2230  -18.0850   20.7420 C   0  0  0  0  0  2  0  0  0  0  0  0
  -24.0840  -17.6070   19.8170 C   0  0  0  0  0  2  0  0  0  0  0  0
  -24.5280  -16.6520   18.7840 N   0  0  0  0  0  4  0  0  0  0  0  0
  -25.1550  -17.0630   18.1110 H   0  0  0  0  0  0  0  0  0  0  0  0
  -23.7270  -16.3200   18.2780 H   0  0  0  0  0  0  0  0  0  0  0  0
  -24.9760  -15.8560   19.2020 H   0  0  0  0  0  0  0  0  0  0  0  0
  -28.8130  -20.4490   19.4590 C   0  0  0  0  0  2  0  0  0  0  0  0
  -30.1560  -19.8860   20.0300 C   0  0  0  0  0  3  0  0  0  0  0  0
  -31.2630  -20.1830   19.1000 N   0  0  0  0  0  4  0  0  0  0  0  0
  -31.1310  -19.7180   18.2190 H   0  0  0  0  0  0  0  0  0  0  0  0
  -32.1440  -19.8910   19.4840 H   0  0  0  0  0  0  0  0  0  0  0  0
  -31.3200  -21.1710   18.9260 H   0  0  0  0  0  0  0  0  0  0  0  0
  -30.1020  -18.3730   20.3840 C   0  0  0  0  0  2  0  0  0  0  0  0
  -31.4270  -17.8420   20.9770 C   0  0  0  0  0  2  0  0  0  0  0  0
  -31.2760  -16.7110   22.0150 C   0  0  0  0  0  2  0  0  0  0  0  0
  -31.2000  -14.6310   20.6290 C   0  0  0  0  0  0  0  0  0  0  0  0
  -30.9080  -12.4780   19.4580 C   0  0  0  0  0  2  0  0  0  0  0  0
  -29.9380  -12.6220   18.2700 C   0  0  0  0  0  2  0  0  0  0  0  0
  -28.4760  -12.4580   18.7290 C   0  0  0  0  0  2  0  0  0  0  0  0
  -28.1380  -13.3240   19.9720 C   0  0  0  0  0  3  0  0  0  0  0  0
  -29.2100  -13.1410   21.0670 C   0  0  0  0  0  2  0  0  0  0  0  0
  -30.5240  -13.4620   20.4790 N   0  0  0  0  0  0  0  0  0  0  0  0
  -32.2410  -14.8980   20.0230 O   0  0  0  0  0  0  0  0  0  0  0  0
  -30.6540  -15.4910   21.5000 N   0  0  0  0  0  0  0  0  0  0  0  0
  -29.7970  -15.1930   21.9380 H   0  0  0  0  0  0  0  0  0  0  0  0
  -25.7670  -13.9050   20.7960 C   0  0  0  0  0  0  0  0  0  0  0  0
  -24.7040  -13.1150   21.1460 C   0  0  0  0  0  0  0  0  0  0  0  0
  -25.1530  -11.7650   21.0130 C   0  0  0  0  0  0  0  0  0  0  0  0
  -26.7970  -13.0330   20.4750 N   0  0  0  0  0  0  0  0  0  0  0  0
  -26.4310  -11.7390   20.6620 N   0  0  0  0  0  0  0  0  0  0  0  0
  -24.4230  -10.4980   21.1480 C   0  0  0  0  0  0  0  0  0  0  0  0
  -24.8390   -9.4980   22.0540 C   0  0  0  0  0  3  0  0  0  0  0  0
  -24.1090   -8.2960   22.1780 C   0  0  0  0  0  3  0  0  0  0  0  0
  -22.9490   -8.0860   21.3960 C   0  0  0  0  0  0  0  0  0  0  0  0
  -22.5520   -9.0760   20.4780 C   0  0  0  0  0  3  0  0  0  0  0  0
  -23.2830  -10.2690   20.3520 C   0  0  0  0  0  3  0  0  0  0  0  0
  -22.1920   -6.9390   21.4300 O   0  0  0  0  0  0  0  0  0  0  0  0
  -22.0530   -6.2040   22.5790 C   0  0  0  0  0  0  0  0  0  0  0  0
  -21.5230   -6.7630   23.7620 C   0  0  0  0  0  3  0  0  0  0  0  0
  -21.3320   -5.9530   24.8990 C   0  0  0  0  0  3  0  0  0  0  0  0
  -21.6600   -4.5860   24.8550 C   0  0  0  0  0  0  0  0  0  0  0  0
  -22.1830   -4.0260   23.6760 C   0  0  0  0  0  3  0  0  0  0  0  0
  -22.3760   -4.8320   22.5400 C   0  0  0  0  0  0  0  0  0  0  0  0
  -22.8590   -4.2840   21.4000 F   0  0  0  0  0  0  0  0  0  0  0  0
  -21.4710   -3.8050   25.9440 F   0  0  0  0  0  0  0  0  0  0  0  0
  -23.3200  -13.5840   21.4920 C   0  0  0  0  0  0  0  0  0  0  0  0
  -22.6250  -12.8560   22.3590 N   0  0  0  0  0  0  0  0  0  0  0  0
  -22.8700  -14.6330   21.0330 O   0  0  0  0  0  0  0  0  0  0  0  0
  -23.0010  -12.0050   22.7490 H   0  0  0  0  0  0  0  0  0  0  0  0
  -21.6960  -13.1490   22.6300 H   0  0  0  0  0  0  0  0  0  0  0  0
  -25.9350  -15.2860   20.7100 N   0  0  0  0  0  0  0  0  0  0  0  0
  -25.0700  -15.7690   20.4850 H   0  0  0  0  0  0  0  0  0  0  0  0
  -26.6820  -15.5900   20.0990 H   0  0  0  0  0  0  0  0  0  0  0  0
  -28.3670  -21.8600   21.4340 C   0  0  0  0  0  2  0  0  0  0  0  0
  -28.5560  -23.2820   20.8630 C   0  0  0  0  0  2  0  0  0  0  0  0
  -29.8250  -23.9540   21.4170 C   0  0  0  0  0  2  0  0  0  0  0  0
  -30.0740  -25.3870   20.9180 C   0  0  0  0  0  2  0  0  0  0  0  0
  -29.4720  -26.3190   21.8180 O   0  0  0  0  0  0  0  0  0  0  0  0
  -25.0720  -31.5790   23.6120 C   0  0  0  0  0  0  0  0  0  0  0  0
  -28.2770  -26.9360   21.5180 C   0  0  0  0  0  0  0  0  0  0  0  0
  -24.1840  -29.9710   21.9540 C   0  0  0  0  0  3  0  0  0  0  0  0
  -25.8790  -28.3370   20.9750 C   0  0  0  0  0  0  0  0  0  0  0  0
  -26.6980  -30.3910   22.1450 C   0  0  0  0  0  2  0  0  0  0  0  0
  -26.9100  -28.9640   21.6860 C   0  0  0  0  0  0  0  0  0  0  0  0
  -28.1030  -28.2660   21.9620 C   0  0  0  0  0  3  0  0  0  0  0  0
  -27.2170  -26.3090   20.8220 C   0  0  0  0  0  3  0  0  0  0  0  0
  -26.0270  -27.0070   20.5450 C   0  0  0  0  0  3  0  0  0  0  0  0
  -24.6340  -29.1540   20.7140 C   0  0  0  0  0  2  0  0  0  0  0  0
  -25.3260  -30.6690   22.6290 N   0  0  0  0  0  0  0  0  0  0  0  0
  -23.9110  -31.8740   23.9260 O   0  0  0  0  0  0  0  0  0  0  0  0
  -23.3930  -29.0380   22.8980 C   0  0  0  0  0  0  0  0  0  0  0  0
  -22.1020  -28.8330   22.5890 N   0  0  0  0  0  0  0  0  0  0  0  0
  -23.9420  -28.4990   23.8610 O   0  0  0  0  0  0  0  0  0  0  0  0
  -21.7250  -29.3200   21.7880 H   0  0  0  0  0  0  0  0  0  0  0  0
  -18.6460  -27.8010   22.7910 C   0  0  0  0  0  0  0  0  0  0  0  0
  -21.1720  -27.9630   23.3080 C   0  0  0  0  0  3  0  0  0  0  0  0
  -21.2660  -26.5050   22.8010 C   0  0  0  0  0  2  0  0  0  0  0  0
  -20.2560  -26.1850   21.6940 C   0  0  0  0  0  2  0  0  0  0  0  0
  -18.8250  -26.4180   22.1890 C   0  0  0  0  0  2  0  0  0  0  0  0
  -19.7510  -28.5330   23.3020 C   0  0  0  0  0  0  0  0  0  0  0  0
  -19.5340  -29.8300   23.8160 C   0  0  0  0  0  3  0  0  0  0  0  0
  -18.2450  -30.3940   23.8300 C   0  0  0  0  0  3  0  0  0  0  0  0
  -17.1520  -29.6590   23.3400 C   0  0  0  0  0  3  0  0  0  0  0  0
  -17.3530  -28.3650   22.8250 C   0  0  0  0  0  3  0  0  0  0  0  0
  -26.2260  -32.3110   24.3680 C   0  0  0  0  0  3  0  0  0  0  0  0
  -26.5010  -31.7210   25.8060 C   0  0  1  0  0  0  0  0  0  0  0  0
  -25.2240  -31.5510   26.6640 C   0  0  0  0  0  1  0  0  0  0  0  0
  -27.1900  -30.3390   25.7060 C   0  0  0  0  0  1  0  0  0  0  0  0
  -27.4740  -32.6450   26.5750 C   0  0  0  0  0  1  0  0  0  0  0  0
  -25.8680  -33.7340   24.4500 N   0  0  0  0  0  0  0  0  0  0  0  0
  -26.3200  -34.6800   23.6160 C   0  0  0  0  0  0  0  0  0  0  0  0
  -27.1510  -34.4520   22.7320 O   0  0  0  0  0  0  0  0  0  0  0  0
  -25.1530  -33.9840   25.1170 H   0  0  0  0  0  0  0  0  0  0  0  0
  -24.6580  -36.3570   22.7510 C   0  0  0  0  0  1  0  0  0  0  0  0
  -25.7620  -36.1050   23.7910 C   0  0  0  0  0  3  0  0  0  0  0  0
  -27.7360  -37.1560   24.8030 C   0  0  0  0  0  1  0  0  0  0  0  0
  -26.7930  -37.1590   23.6870 N   0  0  0  0  0  0  0  0  0  0  0  0
  -26.3630  -38.0790   23.6380 H   0  0  0  0  0  0  0  0  0  0  0  0
  1  2  1  0
  1 57  1  0
  3  4  1  0
  3  2  1  0
  5  4  1  0
  6  9  1  0
  6  5  1  0
  7  6  1  0
  8  6  1  0
 10  1  1  0
 11 10  1  0
 11 16  1  0
 12 14  1  0
 12 11  1  0
 13 12  1  0
 15 12  1  0
 16 17  1  0
 17 18  1  0
 19 27  1  0
 20 25  1  0
 21 22  1  0
 21 20  1  0
 23 22  1  0
 23 32  1  0
 23 24  1  0
 25 19  1  0
 25 24  1  0
 26 19  2  0
 27 28  1  0
 27 18  1  0
 29 30  2  0
 30 49  1  0
 31 30  1  0
 31 34  1  0
 32 33  1  0
 32 29  1  0
 33 31  2  0
 34 35  1  0
 35 36  2  0
 37 40  1  0
 37 36  1  0
 38 37  2  0
 39 38  1  0
 39 34  2  0
 40 41  1  0
 41 42  1  0
 42 43  2  0
 44 43  1  0
 44 48  1  0
 45 44  2  0
 46 41  2  0
 46 45  1  0
 47 46  1  0
 49 50  1  0
 50 53  1  0
 50 52  1  0
 51 49  2  0
 54 29  1  0
 55 54  1  0
 56 54  1  0
 58 59  1  0
 58 57  1  0
 60 59  1  0
 60 61  1  0
 62 73  2  0
 63 61  1  0
 63 68  1  0
 64 72  1  0
 64 74  1  0
 65 67  1  0
 66 72  1  0
 67 68  2  0
 67 66  1  0
 69 63  2  0
 70 69  1  0
 70 65  2  0
 71 65  1  0
 71 64  1  0
 72 62  1  0
 74 76  2  0
 75 74  1  0
 77 75  1  0
 78 87  2  0
 78 83  1  0
 79 75  1  0
 80 79  1  0
 81 82  1  0
 81 80  1  0
 82 78  1  0
 83 79  1  0
 83 84  2  0
 84 85  1  0
 86 85  2  0
 87 86  1  0
 88 62  1  0
 88 93  1  0
 88 89  1  0
 89 92  1  1
 89 90  1  0
 91 89  1  0
 93 96  1  0
 94 98  1  0
 94 93  1  0
 95 94  2  0
 98 97  1  0
100 98  1  0
100 99  1  0
101100  1  0
M  ISO  4  19 100  27 100  60 101  61 101
M  END
>  <TORSDO>  (36) 
F 31

>  <SCORE>  (36) 
-2.894

>  <name>  (36) 
35

>  <ligand_id>  (36) 
35

>  <original_smiles>  (36) 
[H]c1c([H])c([H])c2c(c1[H])C([H])([H])C([H])([H])C([H])([H])C2([H])N([H])C(=O)C1([H])N(C(=O)C([H])(N([H])C(=O)C([H])(N([H])C([H])([H])[H])C([H])([H])[H])C(C([H])([H])[H])(C([H])([H])[H])C([H])([H])[H])C([H])([H])c2c([H])c(OC([H])([H])C([H])([H])C([H])([H])C([H])([H])N(C([H])([H])C([H])([H])C([H])([H])C([H])([H])[N+]([H])([H])[H])C([H])([H])C([H])(C([H])([H])C([H])([H])C([H])([H])N([H])C(=O)N3C([H])([H])C([H])([H])C([H])([H])C([H])(n4nc(-c5c([H])c([H])c(Oc6c([H])c([H])c(F)c([H])c6F)c([H])c5[H])c(C(=O)N([H])[H])c4N([H])[H])C3([H])[H])[N+]([H])([H])[H])c([H])c([H])c2C1([H])[H]

>  <smiles>  (36) 
[H]c1c([H])c([H])c2c(c1[H])C([H])([H])C([H])([H])C([H])([H])C2([H])N([H])C(=O)C1([H])N(C(=O)C([H])(N([H])C(=O)C([H])(N([H])C([H])([H])[H])C([H])([H])[H])C(C([H])([H])[H])(C([H])([H])[H])C([H])([H])[H])C([H])([H])c2c([H])c(OC([H])([H])C([H])([H])C([H])([H])C([H])([H])N(C([H])([H])C([H])([H])C([H])([H])C([H])([H])[N+]([H])([H])[H])C([H])([H])C([H])(C([H])([H])C([H])([H])C([H])([H])N([H])C(=O)N3C([H])([H])C([H])([H])C([H])([H])C([H])(n4nc(-c5c([H])c([H])c(Oc6c([H])c([H])c(F)c([H])c6F)c([H])c5[H])c(C(=O)N([H])[H])c4N([H])[H])C3([H])[H])[N+]([H])([H])[H])c([H])c([H])c2C1([H])[H]

$$$$
36:0:0
     RDKit          3D

100108  0  0  1  0  0  0  0  0999 V2000
  -29.6970  -20.2630   19.4600 C   0  0  0  0  0  3  0  0  0  0  0  0
  -30.7190  -19.4010   20.1570 N   0  0  0  0  0  4  0  0  0  0  0  0
  -31.5990  -19.8570   19.9750 H   0  0  0  0  0  0  0  0  0  0  0  0
  -30.5840  -19.4700   21.1520 H   0  0  0  0  0  0  0  0  0  0  0  0
  -30.9710  -17.9440   19.8180 C   0  0  0  0  0  2  0  0  0  0  0  0
  -31.2510  -14.6190   19.7560 C   0  0  0  0  0  0  0  0  0  0  0  0
  -30.7900  -12.4930   18.5600 C   0  0  0  0  0  2  0  0  0  0  0  0
  -29.7940  -12.7070   17.4060 C   0  0  0  0  0  2  0  0  0  0  0  0
  -28.3470  -12.5850   17.9170 C   0  0  0  0  0  2  0  0  0  0  0  0
  -28.0920  -13.4440   19.1850 C   0  0  0  0  0  3  0  0  0  0  0  0
  -29.1940  -13.2220   20.2410 C   0  0  0  0  0  2  0  0  0  0  0  0
  -30.5050  -13.4820   19.6170 N   0  0  0  0  0  0  0  0  0  0  0  0
  -32.2610  -14.8390   19.0750 O   0  0  0  0  0  0  0  0  0  0  0  0
  -31.3330  -16.5830   22.8510 C   0  0  0  0  0  2  0  0  0  0  0  0
  -30.1120  -17.1840   22.1840 C   0  0  0  0  0  2  0  0  0  0  0  0
  -31.5980  -15.3160   22.0430 C   0  0  0  0  0  2  0  0  0  0  0  0
  -30.2630  -16.8250   20.6960 C   0  0  0  0  0  3  0  0  0  0  0  0
  -30.9090  -15.4730   20.7560 N   0  0  0  0  0  0  0  0  0  0  0  0
  -25.7180  -14.0970   19.9240 C   0  0  0  0  0  0  0  0  0  0  0  0
  -24.6640  -13.3570   20.3900 C   0  0  0  0  0  0  0  0  0  0  0  0
  -25.1240  -12.0070   20.4410 C   0  0  0  0  0  0  0  0  0  0  0  0
  -26.7560  -13.2000   19.7280 N   0  0  0  0  0  0  0  0  0  0  0  0
  -26.4030  -11.9420   20.0920 N   0  0  0  0  0  0  0  0  0  0  0  0
  -24.4070  -10.7630   20.7440 C   0  0  0  0  0  0  0  0  0  0  0  0
  -24.7960   -9.9240   21.8120 C   0  0  0  0  0  3  0  0  0  0  0  0
  -24.0750   -8.7440   22.0960 C   0  0  0  0  0  3  0  0  0  0  0  0
  -22.9520   -8.3930   21.3120 C   0  0  0  0  0  0  0  0  0  0  0  0
  -22.5830   -9.2190   20.2370 C   0  0  0  0  0  3  0  0  0  0  0  0
  -23.3020  -10.3900   19.9500 C   0  0  0  0  0  3  0  0  0  0  0  0
  -22.2100   -7.2510   21.4940 O   0  0  0  0  0  0  0  0  0  0  0  0
  -22.0220   -6.7110   22.7400 C   0  0  0  0  0  0  0  0  0  0  0  0
  -21.4410   -7.4500   23.7940 C   0  0  0  0  0  3  0  0  0  0  0  0
  -21.1980   -6.8320   25.0370 C   0  0  0  0  0  3  0  0  0  0  0  0
  -21.5260   -5.4780   25.2290 C   0  0  0  0  0  0  0  0  0  0  0  0
  -22.1020   -4.7390   24.1800 C   0  0  0  0  0  3  0  0  0  0  0  0
  -22.3450   -5.3540   22.9390 C   0  0  0  0  0  0  0  0  0  0  0  0
  -22.8780   -4.6300   21.9260 F   0  0  0  0  0  0  0  0  0  0  0  0
  -21.2900   -4.8820   26.4220 F   0  0  0  0  0  0  0  0  0  0  0  0
  -23.2790  -13.8600   20.6810 C   0  0  0  0  0  0  0  0  0  0  0  0
  -22.6050  -13.2540   21.6530 N   0  0  0  0  0  0  0  0  0  0  0  0
  -22.8080  -14.8220   20.0770 O   0  0  0  0  0  0  0  0  0  0  0  0
  -23.0000  -12.4700   22.1480 H   0  0  0  0  0  0  0  0  0  0  0  0
  -21.6780  -13.5720   21.8970 H   0  0  0  0  0  0  0  0  0  0  0  0
  -25.8850  -15.4480   19.6250 N   0  0  0  0  0  0  0  0  0  0  0  0
  -25.0930  -16.0760   19.5670 H   0  0  0  0  0  0  0  0  0  0  0  0
  -26.7070  -15.7980   19.1520 H   0  0  0  0  0  0  0  0  0  0  0  0
  -28.3040  -19.6040   19.6100 C   0  0  0  0  0  2  0  0  0  0  0  0
  -27.2020  -19.9300   18.5910 C   0  0  0  0  0  2  0  0  0  0  0  0
  -25.8450  -19.4140   19.1260 C   0  0  0  0  0  2  0  0  0  0  0  0
  -24.6160  -19.8040   18.2820 C   0  0  0  0  0  2  0  0  0  0  0  0
  -23.3570  -19.7540   19.0520 N   0  0  0  0  0  4  0  0  0  0  0  0
  -23.1550  -18.8360   19.4030 H   0  0  0  0  0  0  0  0  0  0  0  0
  -22.5870  -20.0260   18.4650 H   0  0  0  0  0  0  0  0  0  0  0  0
  -23.3930  -20.3940   19.8250 H   0  0  0  0  0  0  0  0  0  0  0  0
  -29.6690  -21.7220   20.0940 C   0  0  0  0  0  2  0  0  0  0  0  0
  -29.4690  -22.8910   19.2030 N   0  0  0  0  0  0  0  0  0  0  0  0
  -28.6930  -22.7120   18.5710 H   0  0  0  0  0  0  0  0  0  0  0  0
  -29.2080  -24.1560   19.9510 C   0  0  0  0  0  2  0  0  0  0  0  0
  -29.0520  -25.4420   19.0510 C   0  0  0  0  0  2  0  0  0  0  0  0
  -28.8580  -26.7170   19.7580 O   0  0  0  0  0  0  0  0  0  0  0  0
  -24.6990  -31.5460   23.0860 C   0  0  0  0  0  0  0  0  0  0  0  0
  -27.6440  -27.4140   19.7570 C   0  0  0  0  0  0  0  0  0  0  0  0
  -23.6020  -30.1810   21.3460 C   0  0  0  0  0  3  0  0  0  0  0  0
  -25.1650  -28.8410   19.8360 C   0  0  0  0  0  0  0  0  0  0  0  0
  -26.1130  -30.6930   21.2090 C   0  0  0  0  0  2  0  0  0  0  0  0
  -26.2930  -29.3740   20.4710 C   0  0  0  0  0  0  0  0  0  0  0  0
  -27.5290  -28.6710   20.4220 C   0  0  0  0  0  3  0  0  0  0  0  0
  -26.4770  -26.9180   19.1280 C   0  0  0  0  0  3  0  0  0  0  0  0
  -25.2560  -27.6160   19.1660 C   0  0  0  0  0  3  0  0  0  0  0  0
  -23.8720  -29.6240   19.9250 C   0  0  0  0  0  2  0  0  0  0  0  0
  -24.8220  -30.8180   21.9400 N   0  0  0  0  0  0  0  0  0  0  0  0
  -23.5960  -31.7150   23.6280 O   0  0  0  0  0  0  0  0  0  0  0  0
  -23.0120  -29.0510   22.2280 C   0  0  0  0  0  0  0  0  0  0  0  0
  -21.7080  -28.7720   22.0610 N   0  0  0  0  0  0  0  0  0  0  0  0
  -23.7260  -28.4360   23.0230 O   0  0  0  0  0  0  0  0  0  0  0  0
  -21.1860  -29.3270   21.3950 H   0  0  0  0  0  0  0  0  0  0  0  0
  -18.4330  -27.2800   22.3930 C   0  0  0  0  0  0  0  0  0  0  0  0
  -20.9560  -27.7280   22.7580 C   0  0  0  0  0  3  0  0  0  0  0  0
  -21.1820  -26.3440   22.1020 C   0  0  0  0  0  2  0  0  0  0  0  0
  -20.1380  -26.0010   21.0340 C   0  0  0  0  0  2  0  0  0  0  0  0
  -18.7330  -25.9930   21.6440 C   0  0  0  0  0  2  0  0  0  0  0  0
  -19.4750  -28.1040   22.9010 C   0  0  0  0  0  0  0  0  0  0  0  0
  -19.1360  -29.3090   23.5540 C   0  0  0  0  0  3  0  0  0  0  0  0
  -17.7890  -29.6890   23.7100 C   0  0  0  0  0  3  0  0  0  0  0  0
  -16.7630  -28.8630   23.2220 C   0  0  0  0  0  3  0  0  0  0  0  0
  -17.0860  -27.6610   22.5670 C   0  0  0  0  0  3  0  0  0  0  0  0
  -25.9300  -32.2260   23.7570 C   0  0  0  0  0  3  0  0  0  0  0  0
  -25.5330  -33.5920   24.1270 N   0  0  0  0  0  0  0  0  0  0  0  0
  -25.8520  -34.6920   23.4310 C   0  0  0  0  0  0  0  0  0  0  0  0
  -26.5790  -34.6650   22.4320 O   0  0  0  0  0  0  0  0  0  0  0  0
  -24.8840  -33.6820   24.8940 H   0  0  0  0  0  0  0  0  0  0  0  0
  -24.0710  -36.4260   23.0420 C   0  0  0  0  0  1  0  0  0  0  0  0
  -25.2730  -36.0340   23.9160 C   0  0  0  0  0  3  0  0  0  0  0  0
  -27.3040  -36.9680   24.9300 C   0  0  0  0  0  1  0  0  0  0  0  0
  -26.2610  -37.1340   23.9220 N   0  0  0  0  0  0  0  0  0  0  0  0
  -25.8040  -38.0270   24.0840 H   0  0  0  0  0  0  0  0  0  0  0  0
  -26.4610  -31.4390   25.0190 C   0  0  1  0  0  0  0  0  0  0  0  0
  -25.3580  -31.0850   26.0430 C   0  0  0  0  0  1  0  0  0  0  0  0
  -27.1470  -30.1190   24.5950 C   0  0  0  0  0  1  0  0  0  0  0  0
  -27.5360  -32.2810   25.7450 C   0  0  0  0  0  1  0  0  0  0  0  0
  1 47  1  0
  1 55  1  0
  1  2  1  0
  2  4  1  0
  3  2  1  0
  5  2  1  0
  6 18  1  0
  7 12  1  0
  8  9  1  0
  8  7  1  0
 10  9  1  0
 10 22  1  0
 10 11  1  0
 12  6  1  0
 12 11  1  0
 13  6  2  0
 15 14  1  0
 16 14  1  0
 17  5  1  0
 17 18  1  0
 17 15  1  0
 18 16  1  0
 19 20  2  0
 20 21  1  0
 20 39  1  0
 21 24  1  0
 22 19  1  0
 22 23  1  0
 23 21  2  0
 24 25  1  0
 25 26  2  0
 27 30  1  0
 27 26  1  0
 28 27  2  0
 29 28  1  0
 29 24  2  0
 30 31  1  0
 31 36  2  0
 31 32  1  0
 32 33  2  0
 33 34  1  0
 34 38  1  0
 35 34  2  0
 36 35  1  0
 37 36  1  0
 39 40  1  0
 40 43  1  0
 40 42  1  0
 41 39  2  0
 44 19  1  0
 45 44  1  0
 46 44  1  0
 48 49  1  0
 48 47  1  0
 50 51  1  0
 50 49  1  0
 51 52  1  0
 51 54  1  0
 53 51  1  0
 56 58  1  0
 56 55  1  0
 57 56  1  0
 59 60  1  0
 59 58  1  0
 61 72  2  0
 62 60  1  0
 62 67  1  0
 63 71  1  0
 63 73  1  0
 64 70  1  0
 64 66  1  0
 65 71  1  0
 66 65  1  0
 67 66  2  0
 68 69  1  0
 68 62  2  0
 69 64  2  0
 70 63  1  0
 71 61  1  0
 73 75  2  0
 74 73  1  0
 76 74  1  0
 77 86  2  0
 77 82  1  0
 78 74  1  0
 78 82  1  0
 79 78  1  0
 80 81  1  0
 80 79  1  0
 81 77  1  0
 82 83  2  0
 83 84  1  0
 85 84  2  0
 86 85  1  0
 87 61  1  0
 87 88  1  0
 87 97  1  0
 88 91  1  0
 89 93  1  0
 89 88  1  0
 90 89  2  0
 93 92  1  0
 93 95  1  0
 95 96  1  0
 95 94  1  0
 97100  1  1
 97 98  1  0
 99 97  1  0
M  ISO  4   6 100  18 100  59 101  60 101
M  END
>  <TORSDO>  (37) 
F 27

>  <SCORE>  (37) 
-5.249

>  <name>  (37) 
36

>  <ligand_id>  (37) 
36

>  <original_smiles>  (37) 
[H]c1c([H])c([H])c2c(c1[H])C([H])([H])C([H])([H])C([H])([H])C2([H])N([H])C(=O)C1([H])N(C(=O)C([H])(N([H])C(=O)C([H])(N([H])C([H])([H])[H])C([H])([H])[H])C(C([H])([H])[H])(C([H])([H])[H])C([H])([H])[H])C([H])([H])c2c([H])c(OC([H])([H])C([H])([H])N([H])C([H])([H])C([H])(C([H])([H])C([H])([H])C([H])([H])C([H])([H])[N+]([H])([H])[H])[N+]([H])([H])C([H])([H])C3([H])N(C(=O)N4C([H])([H])C([H])([H])C([H])([H])C([H])(n5nc(-c6c([H])c([H])c(Oc7c([H])c([H])c(F)c([H])c7F)c([H])c6[H])c(C(=O)N([H])[H])c5N([H])[H])C4([H])[H])C([H])([H])C([H])([H])C3([H])[H])c([H])c([H])c2C1([H])[H]

>  <smiles>  (37) 
[H]c1c([H])c([H])c2c(c1[H])C([H])([H])C([H])([H])C([H])([H])C2([H])N([H])C(=O)C1([H])N(C(=O)C([H])(N([H])C(=O)C([H])(N([H])C([H])([H])[H])C([H])([H])[H])C(C([H])([H])[H])(C([H])([H])[H])C([H])([H])[H])C([H])([H])c2c([H])c(OC([H])([H])C([H])([H])N([H])C([H])([H])C([H])(C([H])([H])C([H])([H])C([H])([H])C([H])([H])[N+]([H])([H])[H])[N+]([H])([H])C([H])([H])C3([H])N(C(=O)N4C([H])([H])C([H])([H])C([H])([H])C([H])(n5nc(-c6c([H])c([H])c(Oc7c([H])c([H])c(F)c([H])c7F)c([H])c6[H])c(C(=O)N([H])[H])c5N([H])[H])C4([H])[H])C([H])([H])C([H])([H])C3([H])[H])c([H])c([H])c2C1([H])[H]

$$$$
37:0:0
     RDKit          3D

102111  0  0  1  0  0  0  0  0999 V2000
  -29.7380  -22.3650   19.7540 N   0  0  1  0  0  4  0  0  0  0  0  0
  -30.2650  -22.6350   18.9320 H   0  0  0  0  0  0  0  0  0  0  0  0
  -30.5250  -21.1460   20.3430 C   0  0  0  0  0  2  0  0  0  0  0  0
  -32.7000  -21.2150   15.6630 C   0  0  0  0  0  3  0  0  0  0  0  0
  -32.6810  -22.0780   16.7690 C   0  0  0  0  0  3  0  0  0  0  0  0
  -32.1320  -19.9370   15.7730 C   0  0  0  0  0  3  0  0  0  0  0  0
  -32.0730  -21.6710   17.9720 C   0  0  0  0  0  3  0  0  0  0  0  0
  -31.1420  -18.1880   17.1040 C   0  0  0  0  0  3  0  0  0  0  0  0
  -30.8190  -17.6710   18.3590 C   0  0  0  0  0  3  0  0  0  0  0  0
  -31.5740  -19.5110   16.9980 C   0  0  0  0  0  0  0  0  0  0  0  0
  -31.4970  -20.3780   18.1190 C   0  0  0  0  0  0  0  0  0  0  0  0
  -30.8030  -18.4600   19.5350 C   0  0  0  0  0  0  0  0  0  0  0  0
  -30.9180  -19.9390   19.3600 C   0  0  0  0  0  0  0  0  0  0  0  0
  -30.8120  -17.5440   20.8450 C   0  0  0  0  0  2  0  0  0  0  0  0
  -31.1800  -14.8950   20.4010 C   0  0  0  0  0  0  0  0  0  0  0  0
  -30.8650  -12.7010   19.2220 C   0  0  0  0  0  2  0  0  0  0  0  0
  -29.9310  -12.9010   18.0070 C   0  0  0  0  0  2  0  0  0  0  0  0
  -28.4560  -12.7700   18.4280 C   0  0  0  0  0  2  0  0  0  0  0  0
  -28.1290  -13.5950   19.7010 C   0  0  0  0  0  3  0  0  0  0  0  0
  -29.1770  -13.3690   20.8120 C   0  0  0  0  0  2  0  0  0  0  0  0
  -30.4910  -13.7080   20.2470 N   0  0  0  0  0  0  0  0  0  0  0  0
  -32.3660  -14.9620   20.0660 O   0  0  0  0  0  0  0  0  0  0  0  0
  -30.4630  -16.0350   20.7480 N   0  0  0  0  0  0  0  0  0  0  0  0
  -29.5040  -15.8290   20.9750 H   0  0  0  0  0  0  0  0  0  0  0  0
  -25.7440  -14.2570   20.3660 C   0  0  0  0  0  0  0  0  0  0  0  0
  -24.6520  -13.5180   20.7240 C   0  0  0  0  0  0  0  0  0  0  0  0
  -25.0800  -12.1550   20.7250 C   0  0  0  0  0  0  0  0  0  0  0  0
  -26.7700  -13.3490   20.1690 N   0  0  0  0  0  0  0  0  0  0  0  0
  -26.3770  -12.0810   20.4470 N   0  0  0  0  0  0  0  0  0  0  0  0
  -24.3190  -10.9160   20.9170 C   0  0  0  0  0  0  0  0  0  0  0  0
  -24.6990   -9.9550   21.8810 C   0  0  0  0  0  3  0  0  0  0  0  0
  -23.9380   -8.7790   22.0600 C   0  0  0  0  0  3  0  0  0  0  0  0
  -22.7840   -8.5540   21.2720 C   0  0  0  0  0  0  0  0  0  0  0  0
  -22.4250   -9.5010   20.2970 C   0  0  0  0  0  3  0  0  0  0  0  0
  -23.1860  -10.6680   20.1170 C   0  0  0  0  0  3  0  0  0  0  0  0
  -21.9990   -7.4290   21.3600 O   0  0  0  0  0  0  0  0  0  0  0  0
  -21.8550   -6.7430   22.5380 C   0  0  0  0  0  0  0  0  0  0  0  0
  -21.3740   -7.3670   23.7110 C   0  0  0  0  0  3  0  0  0  0  0  0
  -21.1750   -6.6060   24.8810 C   0  0  0  0  0  3  0  0  0  0  0  0
  -21.4470   -5.2250   24.8810 C   0  0  0  0  0  0  0  0  0  0  0  0
  -21.9230   -4.6030   23.7120 C   0  0  0  0  0  3  0  0  0  0  0  0
  -22.1240   -5.3590   22.5440 C   0  0  0  0  0  0  0  0  0  0  0  0
  -22.5600   -4.7500   21.4140 F   0  0  0  0  0  0  0  0  0  0  0  0
  -21.2510   -4.4930   26.0020 F   0  0  0  0  0  0  0  0  0  0  0  0
  -23.2610  -14.0330   20.9580 C   0  0  0  0  0  0  0  0  0  0  0  0
  -22.5130  -13.3870   21.8430 N   0  0  0  0  0  0  0  0  0  0  0  0
  -22.8520  -15.0450   20.3900 O   0  0  0  0  0  0  0  0  0  0  0  0
  -22.8640  -12.5700   22.3230 H   0  0  0  0  0  0  0  0  0  0  0  0
  -21.5750  -13.7060   22.0440 H   0  0  0  0  0  0  0  0  0  0  0  0
  -25.9520  -15.6190   20.1660 N   0  0  0  0  0  0  0  0  0  0  0  0
  -25.1870  -16.2810   20.1950 H   0  0  0  0  0  0  0  0  0  0  0  0
  -26.8000  -16.0080   19.7790 H   0  0  0  0  0  0  0  0  0  0  0  0
  -28.3970  -21.9140   19.2670 C   0  0  0  0  0  2  0  0  0  0  0  0
  -28.4550  -20.7990   18.2040 C   0  0  0  0  0  2  0  0  0  0  0  0
  -27.0650  -20.1860   17.9220 C   0  0  0  0  0  2  0  0  0  0  0  0
  -27.1480  -18.9890   17.0660 N   0  0  0  0  0  4  0  0  0  0  0  0
  -27.5560  -19.2180   16.1770 H   0  0  0  0  0  0  0  0  0  0  0  0
  -26.2250  -18.6290   16.8940 H   0  0  0  0  0  0  0  0  0  0  0  0
  -27.6940  -18.2620   17.4930 H   0  0  0  0  0  0  0  0  0  0  0  0
  -29.5880  -23.6950   20.5660 C   0  0  0  0  0  2  0  0  0  0  0  0
  -28.6730  -24.9150   19.9640 C   0  0  0  0  0  2  0  0  0  0  0  0
  -28.7800  -26.3680   20.3670 O   0  0  0  0  0  0  0  0  0  0  0  0
  -24.6150  -31.6680   23.1390 C   0  0  0  0  0  0  0  0  0  0  0  0
  -27.6320  -27.1990   20.2570 C   0  0  0  0  0  0  0  0  0  0  0  0
  -23.5760  -30.1960   21.4510 C   0  0  0  0  0  3  0  0  0  0  0  0
  -25.1850  -28.7180   20.1150 C   0  0  0  0  0  0  0  0  0  0  0  0
  -26.1020  -30.6410   21.4030 C   0  0  0  0  0  2  0  0  0  0  0  0
  -26.2970  -29.2610   20.7700 C   0  0  0  0  0  0  0  0  0  0  0  0
  -27.5220  -28.5150   20.8310 C   0  0  0  0  0  3  0  0  0  0  0  0
  -26.4900  -26.7320   19.5650 C   0  0  0  0  0  3  0  0  0  0  0  0
  -25.2860  -27.4610   19.5050 C   0  0  0  0  0  3  0  0  0  0  0  0
  -23.9010  -29.5250   20.0900 C   0  0  0  0  0  2  0  0  0  0  0  0
  -24.7800  -30.8520   22.0560 N   0  0  0  0  0  0  0  0  0  0  0  0
  -23.4910  -31.8930   23.6080 O   0  0  0  0  0  0  0  0  0  0  0  0
  -22.9100  -29.1540   22.3830 C   0  0  0  0  0  0  0  0  0  0  0  0
  -21.5900  -28.9570   22.2250 N   0  0  0  0  0  0  0  0  0  0  0  0
  -23.5840  -28.5330   23.2100 O   0  0  0  0  0  0  0  0  0  0  0  0
  -21.1070  -29.5120   21.5320 H   0  0  0  0  0  0  0  0  0  0  0  0
  -18.2150  -27.7290   22.6840 C   0  0  0  0  0  0  0  0  0  0  0  0
  -20.7710  -27.9950   22.9640 C   0  0  0  0  0  3  0  0  0  0  0  0
  -20.8820  -26.5820   22.3450 C   0  0  0  0  0  2  0  0  0  0  0  0
  -19.7840  -26.2810   21.3210 C   0  0  0  0  0  2  0  0  0  0  0  0
  -18.4010  -26.4020   21.9660 C   0  0  0  0  0  2  0  0  0  0  0  0
  -19.3290  -28.4830   23.1380 C   0  0  0  0  0  0  0  0  0  0  0  0
  -19.1070  -29.7270   23.7690 C   0  0  0  0  0  3  0  0  0  0  0  0
  -17.8010  -30.2200   23.9450 C   0  0  0  0  0  3  0  0  0  0  0  0
  -16.7000  -29.4620   23.5090 C   0  0  0  0  0  3  0  0  0  0  0  0
  -16.9060  -28.2170   22.8860 C   0  0  0  0  0  3  0  0  0  0  0  0
  -25.8300  -32.3690   23.8250 C   0  0  0  0  0  3  0  0  0  0  0  0
  -26.3040  -31.6430   25.1450 C   0  0  1  0  0  0  0  0  0  0  0  0
  -25.1570  -31.3480   26.1410 C   0  0  0  0  0  1  0  0  0  0  0  0
  -26.9890  -30.2940   24.8190 C   0  0  0  0  0  1  0  0  0  0  0  0
  -27.3570  -32.5160   25.8680 C   0  0  0  0  0  1  0  0  0  0  0  0
  -25.4320  -33.7550   24.1090 N   0  0  0  0  0  0  0  0  0  0  0  0
  -25.8580  -34.8260   23.4250 C   0  0  0  0  0  0  0  0  0  0  0  0
  -26.6910  -34.7510   22.5180 O   0  0  0  0  0  0  0  0  0  0  0  0
  -24.7050  -33.8830   24.7980 H   0  0  0  0  0  0  0  0  0  0  0  0
  -24.1860  -36.6020   22.7980 C   0  0  0  0  0  1  0  0  0  0  0  0
  -25.2700  -36.1980   23.8080 C   0  0  0  0  0  3  0  0  0  0  0  0
  -27.2070  -37.1040   25.0210 C   0  0  0  0  0  1  0  0  0  0  0  0
  -26.2870  -37.2690   23.8970 N   0  0  0  0  0  0  0  0  0  0  0  0
  -25.8410  -38.1770   23.9910 H   0  0  0  0  0  0  0  0  0  0  0  0
  1  3  1  0
  1 60  1  0
  1  2  1  6
  4  6  2  0
  4  5  1  0
  5  7  2  0
  6 10  1  0
  7 11  1  0
  8  9  1  0
  9 12  2  0
 10  8  2  0
 10 11  1  0
 11 13  2  0
 12 14  1  0
 13 12  1  0
 13  3  1  0
 15 23  1  0
 16 21  1  0
 17 18  1  0
 17 16  1  0
 19 18  1  0
 19 28  1  0
 19 20  1  0
 21 15  1  0
 21 20  1  0
 22 15  2  0
 23 14  1  0
 23 24  1  0
 25 26  2  0
 26 27  1  0
 26 45  1  0
 27 30  1  0
 28 25  1  0
 28 29  1  0
 29 27  2  0
 30 31  1  0
 31 32  2  0
 33 36  1  0
 33 32  1  0
 34 33  2  0
 35 34  1  0
 35 30  2  0
 36 37  1  0
 37 42  2  0
 37 38  1  0
 38 39  2  0
 40 39  1  0
 40 44  1  0
 41 40  2  0
 42 41  1  0
 43 42  1  0
 45 46  1  0
 46 49  1  0
 46 48  1  0
 47 45  2  0
 50 51  1  0
 50 25  1  0
 52 50  1  0
 53  1  1  0
 54 53  1  0
 55 54  1  0
 56 59  1  0
 56 55  1  0
 57 56  1  0
 58 56  1  0
 61 62  1  0
 61 60  1  0
 63 74  2  0
 64 62  1  0
 64 69  1  0
 65 73  1  0
 65 75  1  0
 66 68  1  0
 67 73  1  0
 68 69  2  0
 68 67  1  0
 70 64  2  0
 71 70  1  0
 71 66  2  0
 72 66  1  0
 72 65  1  0
 73 63  1  0
 75 77  2  0
 76 75  1  0
 78 76  1  0
 79 88  2  0
 79 84  1  0
 80 76  1  0
 80 84  1  0
 81 80  1  0
 82 83  1  0
 82 81  1  0
 83 79  1  0
 84 85  2  0
 85 86  1  0
 87 86  2  0
 88 87  1  0
 89 63  1  0
 89 94  1  0
 89 90  1  0
 90 93  1  1
 90 91  1  0
 92 90  1  0
 94 97  1  0
 95 99  1  0
 95 94  1  0
 96 95  2  0
 99 98  1  0
 99101  1  0
101102  1  0
101100  1  0
M  ISO  4  15 100  23 100  61 101  62 101
M  END
>  <TORSDO>  (38) 
F 25

>  <SCORE>  (38) 
-11.715

>  <name>  (38) 
37

>  <ligand_id>  (38) 
37

>  <original_smiles>  (38) 
[H]c1c([H])c([H])c2c(c1[H])C([H])([H])C([H])([H])C([H])([H])C2([H])N([H])C(=O)C1([H])N(C(=O)C([H])(N([H])C(=O)C([H])(N([H])C([H])([H])[H])C([H])([H])[H])C(C([H])([H])[H])(C([H])([H])[H])C([H])([H])[H])C([H])([H])c2c([H])c(OC([H])([H])C([H])([H])[N+]([H])(C([H])([H])c3c(C([H])([H])N([H])C(=O)N4C([H])([H])C([H])([H])C([H])([H])C([H])(n5nc(-c6c([H])c([H])c(Oc7c([H])c([H])c(F)c([H])c7F)c([H])c6[H])c(C(=O)N([H])[H])c5N([H])[H])C4([H])[H])c([H])c([H])c4c([H])c([H])c([H])c([H])c34)C([H])([H])C([H])([H])C([H])([H])[N+]([H])([H])[H])c([H])c([H])c2C1([H])[H]

>  <smiles>  (38) 
[H]c1c([H])c([H])c2c(c1[H])C([H])([H])C([H])([H])C([H])([H])C2([H])N([H])C(=O)C1([H])N(C(=O)C([H])(N([H])C(=O)C([H])(N([H])C([H])([H])[H])C([H])([H])[H])C(C([H])([H])[H])(C([H])([H])[H])C([H])([H])[H])C([H])([H])c2c([H])c(OC([H])([H])C([H])([H])[N+]([H])(C([H])([H])c3c(C([H])([H])N([H])C(=O)N4C([H])([H])C([H])([H])C([H])([H])C([H])(n5nc(-c6c([H])c([H])c(Oc7c([H])c([H])c(F)c([H])c7F)c([H])c6[H])c(C(=O)N([H])[H])c5N([H])[H])C4([H])[H])c([H])c([H])c4c([H])c([H])c([H])c([H])c34)C([H])([H])C([H])([H])C([H])([H])[N+]([H])([H])[H])c([H])c([H])c2C1([H])[H]

$$$$
38:0:0
     RDKit          3D

 94101  0  0  1  0  0  0  0  0999 V2000
  -29.2030  -23.0100   17.1650 C   0  0  0  0  0  2  0  0  0  0  0  0
  -30.5200  -23.6560   17.3600 N   0  0  0  0  0  4  0  0  0  0  0  0
  -31.1080  -23.3700   16.5930 H   0  0  0  0  0  0  0  0  0  0  0  0
  -30.9600  -23.3270   18.2040 H   0  0  0  0  0  0  0  0  0  0  0  0
  -30.5110  -25.1360   17.3670 C   0  0  0  0  0  2  0  0  0  0  0  0
  -30.1540  -25.7620   18.7360 C   0  0  0  0  0  2  0  0  0  0  0  0
  -28.6490  -25.8890   19.0130 C   0  0  0  0  0  2  0  0  0  0  0  0
  -28.4500  -26.8120   20.0760 O   0  0  0  0  0  0  0  0  0  0  0  0
  -24.6080  -31.8800   23.2260 C   0  0  0  0  0  0  0  0  0  0  0  0
  -27.2390  -27.4640   20.1180 C   0  0  0  0  0  0  0  0  0  0  0  0
  -23.3880  -30.4750   21.5940 C   0  0  0  0  0  3  0  0  0  0  0  0
  -24.8290  -28.9340   20.1690 C   0  0  0  0  0  0  0  0  0  0  0  0
  -25.9090  -30.8390   21.3770 C   0  0  0  0  0  2  0  0  0  0  0  0
  -25.9880  -29.4660   20.7480 C   0  0  0  0  0  0  0  0  0  0  0  0
  -27.1920  -28.7320   20.7300 C   0  0  0  0  0  3  0  0  0  0  0  0
  -26.0550  -26.9240   19.5640 C   0  0  0  0  0  3  0  0  0  0  0  0
  -24.8540  -27.6570   19.5830 C   0  0  0  0  0  3  0  0  0  0  0  0
  -23.5870  -29.7910   20.2160 C   0  0  0  0  0  2  0  0  0  0  0  0
  -24.6540  -31.0790   22.1240 N   0  0  0  0  0  0  0  0  0  0  0  0
  -23.5310  -32.1520   23.7740 O   0  0  0  0  0  0  0  0  0  0  0  0
  -22.7460  -29.4540   22.5600 C   0  0  0  0  0  0  0  0  0  0  0  0
  -21.4220  -29.2700   22.4380 N   0  0  0  0  0  0  0  0  0  0  0  0
  -23.4350  -28.8320   23.3730 O   0  0  0  0  0  0  0  0  0  0  0  0
  -20.9290  -29.8240   21.7510 H   0  0  0  0  0  0  0  0  0  0  0  0
  -18.0530  -28.0690   22.9370 C   0  0  0  0  0  0  0  0  0  0  0  0
  -20.6090  -28.3350   23.2120 C   0  0  0  0  0  3  0  0  0  0  0  0
  -20.7160  -26.9010   22.6450 C   0  0  0  0  0  2  0  0  0  0  0  0
  -19.6160  -26.5690   21.6310 C   0  0  0  0  0  2  0  0  0  0  0  0
  -18.2330  -26.7150   22.2720 C   0  0  0  0  0  2  0  0  0  0  0  0
  -19.1690  -28.8360   23.3650 C   0  0  0  0  0  0  0  0  0  0  0  0
  -18.9470  -30.1040   23.9450 C   0  0  0  0  0  3  0  0  0  0  0  0
  -17.6410  -30.6040   24.1040 C   0  0  0  0  0  3  0  0  0  0  0  0
  -16.5390  -29.8340   23.6940 C   0  0  0  0  0  3  0  0  0  0  0  0
  -16.7450  -28.5680   23.1160 C   0  0  0  0  0  3  0  0  0  0  0  0
  -25.9010  -32.5070   23.8370 C   0  0  0  0  0  3  0  0  0  0  0  0
  -26.4350  -31.7270   25.1000 C   0  0  1  0  0  0  0  0  0  0  0  0
  -25.3570  -31.4800   26.1810 C   0  0  0  0  0  1  0  0  0  0  0  0
  -27.0140  -30.3540   24.6850 C   0  0  0  0  0  1  0  0  0  0  0  0
  -27.5950  -32.5170   25.7500 C   0  0  0  0  0  1  0  0  0  0  0  0
  -25.5930  -33.9030   24.1770 N   0  0  0  0  0  0  0  0  0  0  0  0
  -25.9210  -34.9580   23.4190 C   0  0  0  0  0  0  0  0  0  0  0  0
  -26.5850  -34.8600   22.3830 O   0  0  0  0  0  0  0  0  0  0  0  0
  -25.0030  -34.0530   24.9810 H   0  0  0  0  0  0  0  0  0  0  0  0
  -24.1870  -36.7490   23.0830 C   0  0  0  0  0  1  0  0  0  0  0  0
  -25.4350  -36.3440   23.8850 C   0  0  0  0  0  3  0  0  0  0  0  0
  -27.5770  -37.2240   24.7020 C   0  0  0  0  0  1  0  0  0  0  0  0
  -26.4660  -37.3980   23.7690 N   0  0  0  0  0  0  0  0  0  0  0  0
  -26.0610  -38.3170   23.9270 H   0  0  0  0  0  0  0  0  0  0  0  0
  -29.2820  -21.4750   17.2140 C   0  0  0  0  0  2  0  0  0  0  0  0
  -29.6520  -20.9120   18.5990 C   0  0  0  0  0  2  0  0  0  0  0  0
  -29.5480  -19.3790   18.6350 C   0  0  0  0  0  2  0  0  0  0  0  0
  -29.9980  -18.8060   19.9220 N   0  0  0  0  0  4  0  0  0  0  0  0
  -29.4920  -19.2450   20.6740 H   0  0  0  0  0  0  0  0  0  0  0  0
  -30.9780  -19.0040   20.0440 H   0  0  0  0  0  0  0  0  0  0  0  0
  -29.7920  -17.3460   19.9970 C   0  0  0  0  0  2  0  0  0  0  0  0
  -30.3190  -16.7220   21.3070 C   0  0  0  0  0  2  0  0  0  0  0  0
  -30.6860  -14.3730   20.5870 C   0  0  0  0  0  0  0  0  0  0  0  0
  -30.3530  -12.2740   19.3430 C   0  0  0  0  0  2  0  0  0  0  0  0
  -29.4040  -12.5270   18.1540 C   0  0  0  0  0  2  0  0  0  0  0  0
  -27.9310  -12.4030   18.5870 C   0  0  0  0  0  2  0  0  0  0  0  0
  -27.6140  -13.2140   19.8710 C   0  0  0  0  0  3  0  0  0  0  0  0
  -28.6640  -12.9190   20.9660 C   0  0  0  0  0  2  0  0  0  0  0  0
  -30.0020  -13.2140   20.4160 N   0  0  0  0  0  0  0  0  0  0  0  0
  -31.7470  -14.6400   20.0160 O   0  0  0  0  0  0  0  0  0  0  0  0
  -30.0480  -15.2870   21.3280 N   0  0  0  0  0  0  0  0  0  0  0  0
  -29.2020  -14.9790   21.7850 H   0  0  0  0  0  0  0  0  0  0  0  0
  -25.2140  -13.8440   20.5590 C   0  0  0  0  0  0  0  0  0  0  0  0
  -24.1390  -13.0800   20.9260 C   0  0  0  0  0  0  0  0  0  0  0  0
  -24.5930  -11.7250   20.9020 C   0  0  0  0  0  0  0  0  0  0  0  0
  -26.2550  -12.9550   20.3410 N   0  0  0  0  0  0  0  0  0  0  0  0
  -25.8820  -11.6760   20.5990 N   0  0  0  0  0  0  0  0  0  0  0  0
  -23.8590  -10.4680   21.0930 C   0  0  0  0  0  0  0  0  0  0  0  0
  -24.3030   -9.4870   22.0060 C   0  0  0  0  0  3  0  0  0  0  0  0
  -23.5730   -8.2920   22.1860 C   0  0  0  0  0  3  0  0  0  0  0  0
  -22.3820   -8.0720   21.4540 C   0  0  0  0  0  0  0  0  0  0  0  0
  -21.9560   -9.0420   20.5290 C   0  0  0  0  0  3  0  0  0  0  0  0
  -22.6880  -10.2270   20.3470 C   0  0  0  0  0  3  0  0  0  0  0  0
  -21.6210   -6.9320   21.5460 O   0  0  0  0  0  0  0  0  0  0  0  0
  -21.6110   -6.1630   22.6820 C   0  0  0  0  0  0  0  0  0  0  0  0
  -21.2600   -6.6950   23.9410 C   0  0  0  0  0  3  0  0  0  0  0  0
  -21.1970   -5.8540   25.0700 C   0  0  0  0  0  3  0  0  0  0  0  0
  -21.4730   -4.4790   24.9400 C   0  0  0  0  0  0  0  0  0  0  0  0
  -21.8170   -3.9460   23.6850 C   0  0  0  0  0  3  0  0  0  0  0  0
  -21.8830   -4.7850   22.5600 C   0  0  0  0  0  0  0  0  0  0  0  0
  -22.1940   -4.2620   21.3500 F   0  0  0  0  0  0  0  0  0  0  0  0
  -21.4040   -3.6680   26.0210 F   0  0  0  0  0  0  0  0  0  0  0  0
  -22.7430  -13.5640   21.1960 C   0  0  0  0  0  0  0  0  0  0  0  0
  -22.0140  -12.8750   22.0670 N   0  0  0  0  0  0  0  0  0  0  0  0
  -22.3090  -14.5880   20.6700 O   0  0  0  0  0  0  0  0  0  0  0  0
  -22.3780  -12.0460   22.5130 H   0  0  0  0  0  0  0  0  0  0  0  0
  -21.0770  -13.1810   22.2910 H   0  0  0  0  0  0  0  0  0  0  0  0
  -25.3870  -15.2110   20.3710 N   0  0  0  0  0  0  0  0  0  0  0  0
  -24.6220  -15.8720   20.4630 H   0  0  0  0  0  0  0  0  0  0  0  0
  -26.2370  -15.6350   20.0230 H   0  0  0  0  0  0  0  0  0  0  0  0
  1 49  1  0
  1  2  1  0
  2  5  1  0
  2  4  1  0
  3  2  1  0
  5  6  1  0
  6  7  1  0
  7  8  1  0
  8 10  1  0
  9 20  2  0
 10 15  1  0
 11 19  1  0
 11 21  1  0
 12 18  1  0
 12 14  1  0
 13 19  1  0
 14 13  1  0
 15 14  2  0
 16 17  1  0
 16 10  2  0
 17 12  2  0
 18 11  1  0
 19  9  1  0
 21 23  2  0
 22 21  1  0
 24 22  1  0
 25 34  2  0
 25 30  1  0
 26 22  1  0
 26 30  1  0
 27 26  1  0
 28 29  1  0
 28 27  1  0
 29 25  1  0
 30 31  2  0
 31 32  1  0
 33 32  2  0
 34 33  1  0
 35  9  1  0
 35 40  1  0
 35 36  1  0
 36 39  1  1
 36 37  1  0
 38 36  1  0
 40 43  1  0
 41 45  1  0
 41 40  1  0
 42 41  2  0
 45 44  1  0
 47 45  1  0
 47 48  1  0
 47 46  1  0
 49 50  1  0
 50 51  1  0
 51 52  1  0
 52 55  1  0
 52 54  1  0
 52 53  1  0
 55 56  1  0
 56 65  1  0
 57 65  1  0
 58 63  1  0
 59 60  1  0
 59 58  1  0
 61 60  1  0
 61 70  1  0
 61 62  1  0
 63 57  1  0
 63 62  1  0
 64 57  2  0
 65 66  1  0
 67 68  2  0
 68 87  1  0
 69 68  1  0
 69 72  1  0
 70 67  1  0
 70 71  1  0
 71 69  2  0
 72 73  1  0
 73 74  2  0
 75 78  1  0
 75 74  1  0
 76 75  2  0
 77 76  1  0
 77 72  2  0
 78 79  1  0
 79 80  1  0
 80 81  2  0
 82 81  1  0
 82 86  1  0
 83 82  2  0
 84 79  2  0
 84 83  1  0
 85 84  1  0
 87 88  1  0
 88 91  1  0
 88 90  1  0
 89 87  2  0
 92 93  1  0
 92 67  1  0
 94 92  1  0
M  ISO  4   7 101   8 101  57 100  65 100
M  END
>  <TORSDO>  (39) 
F 26

>  <SCORE>  (39) 
-11.711

>  <name>  (39) 
38

>  <ligand_id>  (39) 
38

>  <original_smiles>  (39) 
[H]c1c([H])c([H])c2c(c1[H])C([H])([H])C([H])([H])C([H])([H])C2([H])N([H])C(=O)C1([H])N(C(=O)C([H])(N([H])C(=O)C([H])(N([H])C([H])([H])[H])C([H])([H])[H])C(C([H])([H])[H])(C([H])([H])[H])C([H])([H])[H])C([H])([H])c2c([H])c(OC([H])([H])C([H])([H])C([H])([H])[N+]([H])([H])C([H])([H])C([H])([H])C([H])([H])C([H])([H])[N+]([H])([H])C([H])([H])C([H])([H])N([H])C(=O)N3C([H])([H])C([H])([H])C([H])([H])C([H])(n4nc(-c5c([H])c([H])c(Oc6c([H])c([H])c(F)c([H])c6F)c([H])c5[H])c(C(=O)N([H])[H])c4N([H])[H])C3([H])[H])c([H])c([H])c2C1([H])[H]

>  <smiles>  (39) 
[H]c1c([H])c([H])c2c(c1[H])C([H])([H])C([H])([H])C([H])([H])C2([H])N([H])C(=O)C1([H])N(C(=O)C([H])(N([H])C(=O)C([H])(N([H])C([H])([H])[H])C([H])([H])[H])C(C([H])([H])[H])(C([H])([H])[H])C([H])([H])[H])C([H])([H])c2c([H])c(OC([H])([H])C([H])([H])C([H])([H])[N+]([H])([H])C([H])([H])C([H])([H])C([H])([H])C([H])([H])[N+]([H])([H])C([H])([H])C([H])([H])N([H])C(=O)N3C([H])([H])C([H])([H])C([H])([H])C([H])(n4nc(-c5c([H])c([H])c(Oc6c([H])c([H])c(F)c([H])c6F)c([H])c5[H])c(C(=O)N([H])[H])c4N([H])[H])C3([H])[H])c([H])c([H])c2C1([H])[H]

$$$$
39:0:0
     RDKit          3D

 92100  0  0  1  0  0  0  0  0999 V2000
  -29.7460  -17.6580   20.4100 C   0  0  0  0  0  0  0  0  0  0  0  0
  -29.4880  -19.8620   19.2910 C   0  0  0  0  0  2  0  0  0  0  0  0
  -30.9480  -19.7070   21.2440 C   0  0  0  0  0  2  0  0  0  0  0  0
  -28.8350  -21.1430   19.8610 C   0  0  0  0  0  2  0  0  0  0  0  0
  -30.3010  -20.9850   21.8260 C   0  0  0  0  0  2  0  0  0  0  0  0
  -30.0200  -18.9910   20.3540 N   0  0  0  0  0  0  0  0  0  0  0  0
  -29.7440  -21.8830   20.7760 N   0  0  2  0  0  4  0  0  0  0  0  0
  -28.9500  -17.1230   19.6310 O   0  0  0  0  0  0  0  0  0  0  0  0
  -30.5350  -22.1870   20.2280 H   0  0  0  0  0  0  0  0  0  0  0  0
  -30.4330  -16.7670   21.4700 C   0  0  0  0  0  2  0  0  0  0  0  0
  -30.6810  -14.4420   20.5660 C   0  0  0  0  0  0  0  0  0  0  0  0
  -30.3610  -12.3390   19.3150 C   0  0  0  0  0  2  0  0  0  0  0  0
  -29.4170  -12.5850   18.1210 C   0  0  0  0  0  2  0  0  0  0  0  0
  -27.9430  -12.4500   18.5460 C   0  0  0  0  0  2  0  0  0  0  0  0
  -27.6150  -13.2550   19.8310 C   0  0  0  0  0  3  0  0  0  0  0  0
  -28.6630  -12.9740   20.9310 C   0  0  0  0  0  2  0  0  0  0  0  0
  -29.9970  -13.2820   20.3820 N   0  0  0  0  0  0  0  0  0  0  0  0
  -31.7530  -14.6930   20.0080 O   0  0  0  0  0  0  0  0  0  0  0  0
  -30.0700  -15.3470   21.3440 N   0  0  0  0  0  0  0  0  0  0  0  0
  -29.1850  -15.0710   21.7400 H   0  0  0  0  0  0  0  0  0  0  0  0
  -25.2110  -13.8720   20.5160 C   0  0  0  0  0  0  0  0  0  0  0  0
  -24.1390  -13.1030   20.8820 C   0  0  0  0  0  0  0  0  0  0  0  0
  -24.5970  -11.7510   20.8610 C   0  0  0  0  0  0  0  0  0  0  0  0
  -26.2560  -12.9880   20.2990 N   0  0  0  0  0  0  0  0  0  0  0  0
  -25.8890  -11.7070   20.5600 N   0  0  0  0  0  0  0  0  0  0  0  0
  -23.8680  -10.4890   21.0540 C   0  0  0  0  0  0  0  0  0  0  0  0
  -24.3040   -9.5190   21.9830 C   0  0  0  0  0  3  0  0  0  0  0  0
  -23.5770   -8.3240   22.1630 C   0  0  0  0  0  3  0  0  0  0  0  0
  -22.4000   -8.0890   21.4130 C   0  0  0  0  0  0  0  0  0  0  0  0
  -21.9840   -9.0470   20.4730 C   0  0  0  0  0  3  0  0  0  0  0  0
  -22.7120  -10.2350   20.2910 C   0  0  0  0  0  3  0  0  0  0  0  0
  -21.6440   -6.9440   21.5020 O   0  0  0  0  0  0  0  0  0  0  0  0
  -21.6080   -6.1930   22.6490 C   0  0  0  0  0  0  0  0  0  0  0  0
  -21.2120   -6.7420   23.8880 C   0  0  0  0  0  3  0  0  0  0  0  0
  -21.1230   -5.9180   25.0270 C   0  0  0  0  0  3  0  0  0  0  0  0
  -21.4190   -4.5450   24.9290 C   0  0  0  0  0  0  0  0  0  0  0  0
  -21.8080   -3.9950   23.6950 C   0  0  0  0  0  3  0  0  0  0  0  0
  -21.8990   -4.8170   22.5580 C   0  0  0  0  0  0  0  0  0  0  0  0
  -22.2540   -4.2780   21.3660 F   0  0  0  0  0  0  0  0  0  0  0  0
  -21.3260   -3.7500   26.0210 F   0  0  0  0  0  0  0  0  0  0  0  0
  -22.7400  -13.5830   21.1460 C   0  0  0  0  0  0  0  0  0  0  0  0
  -22.0070  -12.8910   22.0120 N   0  0  0  0  0  0  0  0  0  0  0  0
  -22.3050  -14.6070   20.6200 O   0  0  0  0  0  0  0  0  0  0  0  0
  -22.3710  -12.0640   22.4600 H   0  0  0  0  0  0  0  0  0  0  0  0
  -21.0690  -13.1950   22.2310 H   0  0  0  0  0  0  0  0  0  0  0  0
  -25.3800  -15.2420   20.3330 N   0  0  0  0  0  0  0  0  0  0  0  0
  -24.6150  -15.9000   20.4310 H   0  0  0  0  0  0  0  0  0  0  0  0
  -26.2390  -15.6740   20.0130 H   0  0  0  0  0  0  0  0  0  0  0  0
  -29.1340  -23.1190   21.3560 C   0  0  0  0  0  2  0  0  0  0  0  0
  -29.0680  -24.3330   20.3920 C   0  0  0  0  0  2  0  0  0  0  0  0
  -28.4450  -25.5790   21.0650 C   0  0  0  0  0  2  0  0  0  0  0  0
  -28.4820  -26.7380   20.2200 O   0  0  0  0  0  0  0  0  0  0  0  0
  -24.6160  -31.9010   23.2470 C   0  0  0  0  0  0  0  0  0  0  0  0
  -27.3190  -27.4710   20.2170 C   0  0  0  0  0  0  0  0  0  0  0  0
  -23.4350  -30.4860   21.5970 C   0  0  0  0  0  3  0  0  0  0  0  0
  -24.9130  -28.9490   20.1960 C   0  0  0  0  0  0  0  0  0  0  0  0
  -25.9590  -30.8630   21.4210 C   0  0  0  0  0  2  0  0  0  0  0  0
  -26.0610  -29.4890   20.7910 C   0  0  0  0  0  0  0  0  0  0  0  0
  -27.2700  -28.7580   20.7970 C   0  0  0  0  0  3  0  0  0  0  0  0
  -26.1580  -26.9390   19.6190 C   0  0  0  0  0  3  0  0  0  0  0  0
  -24.9550  -27.6720   19.6070 C   0  0  0  0  0  3  0  0  0  0  0  0
  -23.6620  -29.7990   20.2240 C   0  0  0  0  0  2  0  0  0  0  0  0
  -24.6870  -31.0990   22.1470 N   0  0  0  0  0  0  0  0  0  0  0  0
  -23.5290  -32.1700   23.7740 O   0  0  0  0  0  0  0  0  0  0  0  0
  -22.7790  -29.4670   22.5560 C   0  0  0  0  0  0  0  0  0  0  0  0
  -21.4560  -29.2780   22.4140 N   0  0  0  0  0  0  0  0  0  0  0  0
  -23.4560  -28.8470   23.3810 O   0  0  0  0  0  0  0  0  0  0  0  0
  -20.9710  -29.8290   21.7210 H   0  0  0  0  0  0  0  0  0  0  0  0
  -18.0830  -28.0680   22.8730 C   0  0  0  0  0  0  0  0  0  0  0  0
  -20.6350  -28.3400   23.1790 C   0  0  0  0  0  3  0  0  0  0  0  0
  -20.7530  -26.9070   22.6120 C   0  0  0  0  0  2  0  0  0  0  0  0
  -19.6670  -26.5730   21.5840 C   0  0  0  0  0  2  0  0  0  0  0  0
  -18.2760  -26.7160   22.2080 C   0  0  0  0  0  2  0  0  0  0  0  0
  -19.1920  -28.8380   23.3150 C   0  0  0  0  0  0  0  0  0  0  0  0
  -18.9590  -30.1040   23.8940 C   0  0  0  0  0  3  0  0  0  0  0  0
  -17.6500  -30.6000   24.0380 C   0  0  0  0  0  3  0  0  0  0  0  0
  -16.5550  -29.8280   23.6130 C   0  0  0  0  0  3  0  0  0  0  0  0
  -16.7730  -28.5630   23.0370 C   0  0  0  0  0  3  0  0  0  0  0  0
  -25.8930  -32.5410   23.8780 C   0  0  0  0  0  3  0  0  0  0  0  0
  -26.4030  -31.7750   25.1600 C   0  0  1  0  0  0  0  0  0  0  0  0
  -25.3040  -31.5370   26.2200 C   0  0  0  0  0  1  0  0  0  0  0  0
  -26.9940  -30.3990   24.7740 C   0  0  0  0  0  1  0  0  0  0  0  0
  -27.5460  -32.5750   25.8280 C   0  0  0  0  0  1  0  0  0  0  0  0
  -25.5760  -33.9380   24.1980 N   0  0  0  0  0  0  0  0  0  0  0  0
  -25.9130  -34.9880   23.4350 C   0  0  0  0  0  0  0  0  0  0  0  0
  -26.5940  -34.8810   22.4130 O   0  0  0  0  0  0  0  0  0  0  0  0
  -24.9730  -34.0950   24.9920 H   0  0  0  0  0  0  0  0  0  0  0  0
  -24.1790  -36.7690   23.0520 C   0  0  0  0  0  1  0  0  0  0  0  0
  -25.4140  -36.3760   23.8800 C   0  0  0  0  0  3  0  0  0  0  0  0
  -27.5390  -37.2730   24.7240 C   0  0  0  0  0  1  0  0  0  0  0  0
  -26.4420  -37.4340   23.7720 N   0  0  0  0  0  0  0  0  0  0  0  0
  -26.0300  -38.3520   23.9160 H   0  0  0  0  0  0  0  0  0  0  0  0
  1 10  1  0
  2  4  1  0
  2  6  1  0
  3  5  1  0
  4  7  1  0
  6  1  1  0
  6  3  1  0
  7 49  1  0
  7  5  1  0
  8  1  2  0
  7  9  1  6
 11 19  1  0
 12 17  1  0
 13 14  1  0
 13 12  1  0
 15 14  1  0
 15 24  1  0
 15 16  1  0
 17 11  1  0
 17 16  1  0
 18 11  2  0
 19 10  1  0
 19 20  1  0
 21 22  2  0
 22 41  1  0
 23 22  1  0
 23 26  1  0
 24 21  1  0
 24 25  1  0
 25 23  2  0
 26 27  1  0
 27 28  2  0
 29 32  1  0
 29 28  1  0
 30 29  2  0
 31 30  1  0
 31 26  2  0
 32 33  1  0
 33 34  1  0
 34 35  2  0
 36 35  1  0
 36 40  1  0
 37 36  2  0
 38 33  2  0
 38 37  1  0
 39 38  1  0
 41 42  1  0
 42 45  1  0
 42 44  1  0
 43 41  2  0
 46 47  1  0
 46 21  1  0
 48 46  1  0
 50 51  1  0
 50 49  1  0
 52 51  1  0
 53 64  2  0
 54 52  1  0
 54 59  1  0
 55 63  1  0
 55 65  1  0
 56 62  1  0
 56 58  1  0
 57 63  1  0
 58 59  2  0
 58 57  1  0
 60 54  2  0
 61 60  1  0
 61 56  2  0
 62 55  1  0
 63 53  1  0
 65 67  2  0
 66 65  1  0
 68 66  1  0
 69 78  2  0
 69 74  1  0
 70 66  1  0
 70 74  1  0
 71 70  1  0
 72 73  1  0
 72 71  1  0
 73 69  1  0
 74 75  2  0
 75 76  1  0
 77 76  2  0
 78 77  1  0
 79 53  1  0
 79 84  1  0
 79 80  1  0
 80 83  1  1
 80 81  1  0
 82 80  1  0
 84 87  1  0
 85 89  1  0
 85 84  1  0
 86 85  2  0
 89 88  1  0
 91 89  1  0
 91 92  1  0
 91 90  1  0
M  ISO  4  11 100  19 100  51 101  52 101
M  END
>  <TORSDO>  (40) 
F 20

>  <SCORE>  (40) 
-14.142

>  <name>  (40) 
39

>  <ligand_id>  (40) 
39

>  <original_smiles>  (40) 
[H]c1c([H])c([H])c2c(c1[H])C([H])([H])C([H])([H])C([H])([H])C2([H])N([H])C(=O)C1([H])N(C(=O)C([H])(N([H])C(=O)C([H])(N([H])C([H])([H])[H])C([H])([H])[H])C(C([H])([H])[H])(C([H])([H])[H])C([H])([H])[H])C([H])([H])c2c([H])c(OC([H])([H])C([H])([H])C([H])([H])[N+]3([H])C([H])([H])C([H])([H])N(C(=O)C([H])([H])N([H])C(=O)N4C([H])([H])C([H])([H])C([H])([H])C([H])(n5nc(-c6c([H])c([H])c(Oc7c([H])c([H])c(F)c([H])c7F)c([H])c6[H])c(C(=O)N([H])[H])c5N([H])[H])C4([H])[H])C([H])([H])C3([H])[H])c([H])c([H])c2C1([H])[H]

>  <smiles>  (40) 
[H]c1c([H])c([H])c2c(c1[H])C([H])([H])C([H])([H])C([H])([H])C2([H])N([H])C(=O)C1([H])N(C(=O)C([H])(N([H])C(=O)C([H])(N([H])C([H])([H])[H])C([H])([H])[H])C(C([H])([H])[H])(C([H])([H])[H])C([H])([H])[H])C([H])([H])c2c([H])c(OC([H])([H])C([H])([H])C([H])([H])[N+]3([H])C([H])([H])C([H])([H])N(C(=O)C([H])([H])N([H])C(=O)N4C([H])([H])C([H])([H])C([H])([H])C([H])(n5nc(-c6c([H])c([H])c(Oc7c([H])c([H])c(F)c([H])c7F)c([H])c6[H])c(C(=O)N([H])[H])c5N([H])[H])C4([H])[H])C([H])([H])C3([H])[H])c([H])c([H])c2C1([H])[H]

$$$$
40:0:0
     RDKit          3D

100109  0  0  1  0  0  0  0  0999 V2000
  -24.1780  -24.7760   25.1020 C   0  0  0  0  0  2  0  0  0  0  0  0
  -24.8530  -24.6000   26.4800 C   0  0  0  0  0  2  0  0  0  0  0  0
  -24.7900  -25.9340   24.2980 C   0  0  0  0  0  2  0  0  0  0  0  0
  -25.3040  -25.9280   27.1340 C   0  0  0  0  0  2  0  0  0  0  0  0
  -24.7380  -27.3020   25.0440 C   0  0  0  0  0  3  0  0  0  0  0  0
  -24.5020  -27.1200   26.5810 C   0  0  0  0  0  3  0  0  0  0  0  0
  -24.6160  -28.3640   27.3970 N   0  0  0  0  0  4  0  0  0  0  0  0
  -23.8570  -28.9730   27.1340 H   0  0  0  0  0  0  0  0  0  0  0  0
  -25.4810  -28.8480   27.2040 H   0  0  0  0  0  0  0  0  0  0  0  0
  -24.4790  -28.1550   28.8640 C   0  0  0  0  0  2  0  0  0  0  0  0
  -24.7410  -29.4450   29.6830 C   0  0  0  0  0  2  0  0  0  0  0  0
  -24.6910  -29.1890   31.0930 O   0  0  0  0  0  0  0  0  0  0  0  0
  -22.5240  -31.4060   37.4700 C   0  0  0  0  0  0  0  0  0  0  0  0
  -23.6470  -29.7350   31.8090 C   0  0  0  0  0  0  0  0  0  0  0  0
  -20.7550  -31.2160   35.7500 C   0  0  0  0  0  3  0  0  0  0  0  0
  -21.5690  -30.8580   33.3610 C   0  0  0  0  0  0  0  0  0  0  0  0
  -23.1770  -31.6970   35.0830 C   0  0  0  0  0  2  0  0  0  0  0  0
  -22.8990  -30.9730   33.7830 C   0  0  0  0  0  0  0  0  0  0  0  0
  -23.9390  -30.4220   33.0060 C   0  0  0  0  0  3  0  0  0  0  0  0
  -22.2980  -29.6290   31.3930 C   0  0  0  0  0  3  0  0  0  0  0  0
  -21.2630  -30.1860   32.1660 C   0  0  0  0  0  3  0  0  0  0  0  0
  -20.5150  -31.4860   34.2410 C   0  0  0  0  0  2  0  0  0  0  0  0
  -22.1870  -31.4160   36.1500 N   0  0  0  0  0  0  0  0  0  0  0  0
  -21.6620  -31.2770   38.3500 O   0  0  0  0  0  0  0  0  0  0  0  0
  -20.2150  -29.8090   36.0910 C   0  0  0  0  0  0  0  0  0  0  0  0
  -19.0980  -29.7610   36.8350 N   0  0  0  0  0  0  0  0  0  0  0  0
  -20.7780  -28.7950   35.6660 O   0  0  0  0  0  0  0  0  0  0  0  0
  -18.7000  -30.6370   37.1460 H   0  0  0  0  0  0  0  0  0  0  0  0
  -15.9980  -28.5360   38.2310 C   0  0  0  0  0  0  0  0  0  0  0  0
  -18.3870  -28.5500   37.2400 C   0  0  0  0  0  3  0  0  0  0  0  0
  -17.7750  -27.8250   36.0180 C   0  0  0  0  0  2  0  0  0  0  0  0
  -16.3250  -28.2330   35.7390 C   0  0  0  0  0  2  0  0  0  0  0  0
  -15.4370  -27.9370   36.9520 C   0  0  0  0  0  2  0  0  0  0  0  0
  -17.3800  -28.8380   38.3600 C   0  0  0  0  0  0  0  0  0  0  0  0
  -17.8420  -29.4250   39.5590 C   0  0  0  0  0  3  0  0  0  0  0  0
  -16.9520  -29.7090   40.6130 C   0  0  0  0  0  3  0  0  0  0  0  0
  -15.5890  -29.3930   40.4830 C   0  0  0  0  0  3  0  0  0  0  0  0
  -15.1150  -28.8050   39.2960 C   0  0  0  0  0  3  0  0  0  0  0  0
  -24.0030  -31.5790   37.9400 C   0  0  0  0  0  3  0  0  0  0  0  0
  -24.0690  -32.8040   38.7480 N   0  0  0  0  0  0  0  0  0  0  0  0
  -23.9810  -34.0460   38.2530 C   0  0  0  0  0  0  0  0  0  0  0  0
  -23.9060  -34.2820   37.0440 O   0  0  0  0  0  0  0  0  0  0  0  0
  -24.0730  -32.6860   39.7500 H   0  0  0  0  0  0  0  0  0  0  0  0
  -22.5280  -35.6460   39.5390 C   0  0  0  0  0  1  0  0  0  0  0  0
  -23.9760  -35.2130   39.2590 C   0  0  0  0  0  3  0  0  0  0  0  0
  -26.1030  -36.0240   38.3380 C   0  0  0  0  0  1  0  0  0  0  0  0
  -24.7670  -36.3800   38.8100 N   0  0  0  0  0  0  0  0  0  0  0  0
  -24.8650  -37.0580   39.5610 H   0  0  0  0  0  0  0  0  0  0  0  0
  -24.5460  -30.3420   38.7550 C   0  0  1  0  0  0  0  0  0  0  0  0
  -23.6670  -29.9620   39.9690 C   0  0  0  0  0  1  0  0  0  0  0  0
  -24.6570  -29.0970   37.8440 C   0  0  0  0  0  1  0  0  0  0  0  0
  -25.9730  -30.6410   39.2720 C   0  0  0  0  0  1  0  0  0  0  0  0
  -25.8500  -28.2880   24.5650 C   0  0  0  0  0  2  0  0  0  0  0  0
  -26.9910  -27.6720   23.8440 N   0  0  0  0  0  4  0  0  0  0  0  0
  -26.8220  -27.8460   22.8660 H   0  0  0  0  0  0  0  0  0  0  0  0
  -26.9800  -26.6720   23.9670 H   0  0  0  0  0  0  0  0  0  0  0  0
  -28.3320  -28.2200   24.1380 C   0  0  0  0  0  2  0  0  0  0  0  0
  -29.4330  -27.4490   23.3660 C   0  0  0  0  0  2  0  0  0  0  0  0
  -33.4020  -29.4260   20.0790 C   0  0  0  0  0  0  0  0  0  0  0  0
  -33.9440  -29.0890   17.6980 C   0  0  0  0  0  2  0  0  0  0  0  0
  -32.6990  -29.3580   16.8270 C   0  0  0  0  0  2  0  0  0  0  0  0
  -31.8290  -28.0910   16.7010 C   0  0  0  0  0  2  0  0  0  0  0  0
  -31.5450  -27.4250   18.0720 C   0  0  0  0  0  3  0  0  0  0  0  0
  -32.8530  -27.2680   18.8750 C   0  0  0  0  0  2  0  0  0  0  0  0
  -33.4820  -28.5960   19.0040 N   0  0  0  0  0  0  0  0  0  0  0  0
  -33.8710  -30.5690   20.0800 O   0  0  0  0  0  0  0  0  0  0  0  0
  -31.5520  -29.9940   21.5450 C   0  0  0  0  0  2  0  0  0  0  0  0
  -32.9320  -28.1230   22.1150 C   0  0  0  0  0  2  0  0  0  0  0  0
  -30.2960  -29.2130   21.9440 C   0  0  0  0  0  2  0  0  0  0  0  0
  -31.6840  -27.3440   22.5830 C   0  0  0  0  0  2  0  0  0  0  0  0
  -32.5440  -29.0450   21.0470 N   0  0  0  0  0  0  0  0  0  0  0  0
  -30.6110  -28.2560   23.0150 N   0  0  0  0  0  0  0  0  0  0  0  0
  -29.6450  -25.7220   18.4420 C   0  0  0  0  0  0  0  0  0  0  0  0
  -29.4230  -24.4720   17.9320 C   0  0  0  0  0  0  0  0  0  0  0  0
  -30.5400  -24.1900   17.0840 C   0  0  0  0  0  0  0  0  0  0  0  0
  -30.8550  -26.1440   17.9120 N   0  0  0  0  0  0  0  0  0  0  0  0
  -31.4150  -25.1860   17.1310 N   0  0  0  0  0  0  0  0  0  0  0  0
  -30.7960  -23.0580   16.1870 C   0  0  0  0  0  0  0  0  0  0  0  0
  -31.9760  -22.2850   16.2900 C   0  0  0  0  0  3  0  0  0  0  0  0
  -32.1900  -21.1900   15.4270 C   0  0  0  0  0  3  0  0  0  0  0  0
  -31.2210  -20.8530   14.4510 C   0  0  0  0  0  0  0  0  0  0  0  0
  -30.0620  -21.6400   14.3360 C   0  0  0  0  0  3  0  0  0  0  0  0
  -29.8500  -22.7330   15.1930 C   0  0  0  0  0  3  0  0  0  0  0  0
  -31.3570  -19.8220   13.5550 O   0  0  0  0  0  0  0  0  0  0  0  0
  -32.1770  -18.7520   13.8060 C   0  0  0  0  0  0  0  0  0  0  0  0
  -31.9830  -17.9120   14.9250 C   0  0  0  0  0  3  0  0  0  0  0  0
  -32.8070  -16.7830   15.1080 C   0  0  0  0  0  3  0  0  0  0  0  0
  -33.8160  -16.4860   14.1720 C   0  0  0  0  0  0  0  0  0  0  0  0
  -34.0070  -17.3190   13.0560 C   0  0  0  0  0  3  0  0  0  0  0  0
  -33.1890  -18.4470   12.8730 C   0  0  0  0  0  0  0  0  0  0  0  0
  -33.3630  -19.2330   11.7840 F   0  0  0  0  0  0  0  0  0  0  0  0
  -34.6020  -15.3980   14.3440 F   0  0  0  0  0  0  0  0  0  0  0  0
  -28.2020  -23.6230   18.1360 C   0  0  0  0  0  0  0  0  0  0  0  0
  -28.3840  -22.3220   18.3290 N   0  0  0  0  0  0  0  0  0  0  0  0
  -27.0750  -24.1190   18.1750 O   0  0  0  0  0  0  0  0  0  0  0  0
  -29.3090  -21.9170   18.3090 H   0  0  0  0  0  0  0  0  0  0  0  0
  -27.5900  -21.7210   18.4930 H   0  0  0  0  0  0  0  0  0  0  0  0
  -28.9120  -26.5450   19.2920 N   0  0  0  0  0  0  0  0  0  0  0  0
  -27.9680  -26.3100   19.5760 H   0  0  0  0  0  0  0  0  0  0  0  0
  -29.1420  -27.5180   19.4410 H   0  0  0  0  0  0  0  0  0  0  0  0
  1  2  1  0
  2  4  1  0
  3  5  1  0
  3  1  1  0
  5 53  1  0
  5  6  1  0
  6  4  1  0
  6  7  1  0
  7 10  1  0
  8  7  1  0
  9  7  1  0
 10 11  1  0
 11 12  1  0
 12 14  1  0
 13 24  2  0
 14 19  1  0
 15 25  1  0
 15 23  1  0
 16 18  1  0
 16 22  1  0
 17 23  1  0
 18 17  1  0
 19 18  2  0
 20 14  2  0
 20 21  1  0
 21 16  2  0
 22 15  1  0
 23 13  1  0
 25 26  1  0
 26 28  1  0
 27 25  2  0
 29 34  2  0
 29 38  1  0
 30 26  1  0
 30 34  1  0
 31 30  1  0
 32 31  1  0
 32 33  1  0
 33 29  1  0
 34 35  1  0
 35 36  2  0
 37 36  1  0
 38 37  2  0
 39 13  1  0
 39 40  1  0
 39 49  1  0
 40 43  1  0
 41 40  1  0
 41 45  1  0
 42 41  2  0
 45 44  1  0
 46 47  1  0
 47 45  1  0
 47 48  1  0
 49 52  1  1
 49 50  1  0
 51 49  1  0
 54 56  1  0
 54 57  1  0
 54 53  1  0
 55 54  1  0
 58 57  1  0
 59 66  2  0
 59 71  1  0
 60 65  1  0
 61 60  1  0
 62 61  1  0
 63 62  1  0
 63 64  1  0
 64 65  1  0
 65 59  1  0
 67 69  1  0
 68 70  1  0
 69 72  1  0
 70 72  1  0
 71 67  1  0
 71 68  1  0
 72 58  1  0
 73 98  1  0
 74 93  1  0
 74 73  2  0
 75 77  2  0
 75 74  1  0
 76 63  1  0
 76 73  1  0
 77 76  1  0
 78 79  1  0
 78 75  1  0
 80 79  2  0
 81 80  1  0
 82 81  2  0
 82 83  1  0
 83 78  2  0
 84 85  1  0
 84 81  1  0
 85 86  1  0
 86 87  2  0
 88 92  1  0
 88 87  1  0
 89 88  2  0
 90 89  1  0
 90 85  2  0
 91 90  1  0
 93 95  2  0
 93 94  1  0
 94 97  1  0
 96 94  1  0
 98100  1  0
 98 99  1  0
M  ISO  4  11 101  12 101  59 100  71 100
M  END
>  <TORSDO>  (41) 
F 23

>  <SCORE>  (41) 
-0.443

>  <name>  (41) 
40

>  <ligand_id>  (41) 
40

>  <original_smiles>  (41) 
[H]c1c([H])c([H])c2c(c1[H])C([H])([H])C([H])([H])C([H])([H])C2([H])N([H])C(=O)C1([H])N(C(=O)C([H])(N([H])C(=O)C([H])(N([H])C([H])([H])[H])C([H])([H])[H])C(C([H])([H])[H])(C([H])([H])[H])C([H])([H])[H])C([H])([H])c2c([H])c(OC([H])([H])C([H])([H])[N+]([H])([H])C3([H])C([H])([H])C([H])([H])C([H])([H])C([H])([H])C3([H])C([H])([H])[N+]([H])([H])C([H])([H])C([H])([H])N3C([H])([H])C([H])([H])N(C(=O)N4C([H])([H])C([H])([H])C([H])([H])C([H])(n5nc(-c6c([H])c([H])c(Oc7c([H])c([H])c(F)c([H])c7F)c([H])c6[H])c(C(=O)N([H])[H])c5N([H])[H])C4([H])[H])C([H])([H])C3([H])[H])c([H])c([H])c2C1([H])[H]

>  <smiles>  (41) 
[H]c1c([H])c([H])c2c(c1[H])C([H])([H])C([H])([H])C([H])([H])C2([H])N([H])C(=O)C1([H])N(C(=O)C([H])(N([H])C(=O)C([H])(N([H])C([H])([H])[H])C([H])([H])[H])C(C([H])([H])[H])(C([H])([H])[H])C([H])([H])[H])C([H])([H])c2c([H])c(OC([H])([H])C([H])([H])[N+]([H])([H])C3([H])C([H])([H])C([H])([H])C([H])([H])C([H])([H])C3([H])C([H])([H])[N+]([H])([H])C([H])([H])C([H])([H])N3C([H])([H])C([H])([H])N(C(=O)N4C([H])([H])C([H])([H])C([H])([H])C([H])(n5nc(-c6c([H])c([H])c(Oc7c([H])c([H])c(F)c([H])c7F)c([H])c6[H])c(C(=O)N([H])[H])c5N([H])[H])C4([H])[H])C([H])([H])C3([H])[H])c([H])c([H])c2C1([H])[H]

$$$$
41:0:0
     RDKit          3D

 96105  0  0  1  0  0  0  0  0999 V2000
  -30.9470  -21.5010   18.8800 C   0  0  0  0  0  2  0  0  0  0  0  0
  -30.7120  -21.4730   21.3630 C   0  0  0  0  0  2  0  0  0  0  0  0
  -29.7760  -22.4990   18.7960 C   0  0  0  0  0  2  0  0  0  0  0  0
  -29.5120  -22.4300   21.2420 C   0  0  0  0  0  2  0  0  0  0  0  0
  -30.8390  -20.5790   20.1100 C   0  0  0  0  0  3  0  0  0  0  0  0
  -29.6310  -23.3020   20.0410 N   0  0  2  0  0  4  0  0  0  0  0  0
  -30.4930  -23.8180   20.1430 H   0  0  0  0  0  0  0  0  0  0  0  0
  -32.0260  -19.5870   20.1490 C   0  0  0  0  0  2  0  0  0  0  0  0
  -31.9920  -18.5920   21.3250 C   0  0  0  0  0  2  0  0  0  0  0  0
  -31.0350  -16.2990   21.1240 C   0  0  0  0  0  0  0  0  0  0  0  0
  -32.9500  -15.0530   20.4460 C   0  0  0  0  0  2  0  0  0  0  0  0
  -33.2960  -16.5370   20.6370 C   0  0  0  0  0  2  0  0  0  0  0  0
  -31.6020  -14.8810   21.1730 C   0  0  0  0  0  3  0  0  0  0  0  0
  -32.0250  -17.1830   20.9300 N   0  0  0  0  0  0  0  0  0  0  0  0
  -29.8500  -16.5620   21.3500 O   0  0  0  0  0  0  0  0  0  0  0  0
  -30.2780  -13.7460   19.3650 C   0  0  0  0  0  0  0  0  0  0  0  0
  -29.3390  -12.0530   17.8420 C   0  0  0  0  0  2  0  0  0  0  0  0
  -28.1120  -12.4630   17.0170 C   0  0  0  0  0  2  0  0  0  0  0  0
  -26.8220  -12.2110   17.8120 C   0  0  0  0  0  2  0  0  0  0  0  0
  -26.8710  -12.8580   19.2160 C   0  0  0  0  0  3  0  0  0  0  0  0
  -28.1730  -12.4950   19.9600 C   0  0  0  0  0  2  0  0  0  0  0  0
  -29.3490  -12.7850   19.1140 N   0  0  0  0  0  0  0  0  0  0  0  0
  -30.7950  -14.4100   18.4610 O   0  0  0  0  0  0  0  0  0  0  0  0
  -30.7780  -12.5970   21.5170 C   0  0  0  0  0  1  0  0  0  0  0  0
  -30.7680  -13.7820   20.6380 N   0  0  0  0  0  0  0  0  0  0  0  0
  -24.7360  -13.3340   20.5790 C   0  0  0  0  0  0  0  0  0  0  0  0
  -23.8000  -12.5030   21.1360 C   0  0  0  0  0  0  0  0  0  0  0  0
  -24.2410  -11.1730   20.8620 C   0  0  0  0  0  0  0  0  0  0  0  0
  -25.6880  -12.5050   20.0050 N   0  0  0  0  0  0  0  0  0  0  0  0
  -25.4070  -11.1960   20.2280 N   0  0  0  0  0  0  0  0  0  0  0  0
  -23.5890   -9.8790   21.1130 C   0  0  0  0  0  0  0  0  0  0  0  0
  -24.1390   -8.9390   22.0120 C   0  0  0  0  0  3  0  0  0  0  0  0
  -23.4860   -7.7110   22.2510 C   0  0  0  0  0  3  0  0  0  0  0  0
  -22.2690   -7.4140   21.5910 C   0  0  0  0  0  0  0  0  0  0  0  0
  -21.7380   -8.3440   20.6810 C   0  0  0  0  0  3  0  0  0  0  0  0
  -22.3920   -9.5640   20.4400 C   0  0  0  0  0  3  0  0  0  0  0  0
  -21.5770   -6.2350   21.7410 O   0  0  0  0  0  0  0  0  0  0  0  0
  -21.5600   -5.5580   22.9340 C   0  0  0  0  0  0  0  0  0  0  0  0
  -21.0750   -6.1500   24.1200 C   0  0  0  0  0  3  0  0  0  0  0  0
  -21.0100   -5.3950   25.3090 C   0  0  0  0  0  3  0  0  0  0  0  0
  -21.4180   -4.0490   25.3120 C   0  0  0  0  0  0  0  0  0  0  0  0
  -21.8970   -3.4550   24.1290 C   0  0  0  0  0  3  0  0  0  0  0  0
  -21.9640   -4.2070   22.9440 C   0  0  0  0  0  0  0  0  0  0  0  0
  -22.4050   -3.6250   21.8030 F   0  0  0  0  0  0  0  0  0  0  0  0
  -21.3490   -3.3210   26.4510 F   0  0  0  0  0  0  0  0  0  0  0  0
  -22.5200  -12.9170   21.8040 C   0  0  0  0  0  0  0  0  0  0  0  0
  -22.0590  -12.1430   22.7810 N   0  0  0  0  0  0  0  0  0  0  0  0
  -21.9440  -13.9590   21.4920 O   0  0  0  0  0  0  0  0  0  0  0  0
  -22.5420  -11.2990   23.0500 H   0  0  0  0  0  0  0  0  0  0  0  0
  -21.2110  -12.3990   23.2670 H   0  0  0  0  0  0  0  0  0  0  0  0
  -24.8470  -14.7180   20.4960 N   0  0  0  0  0  0  0  0  0  0  0  0
  -24.1410  -15.3460   20.8640 H   0  0  0  0  0  0  0  0  0  0  0  0
  -25.6010  -15.2040   20.0240 H   0  0  0  0  0  0  0  0  0  0  0  0
  -28.5440  -24.3150   19.9160 C   0  0  0  0  0  2  0  0  0  0  0  0
  -28.5970  -25.4340   20.9750 C   0  0  0  0  0  2  0  0  0  0  0  0
  -28.5510  -26.7090   20.3460 O   0  0  0  0  0  0  0  0  0  0  0  0
  -24.5990  -31.8480   23.2350 C   0  0  0  0  0  0  0  0  0  0  0  0
  -27.3440  -27.3580   20.3610 C   0  0  0  0  0  0  0  0  0  0  0  0
  -23.4330  -30.3840   21.6150 C   0  0  0  0  0  3  0  0  0  0  0  0
  -24.9260  -28.8050   20.2810 C   0  0  0  0  0  0  0  0  0  0  0  0
  -25.9530  -30.7660   21.4500 C   0  0  0  0  0  2  0  0  0  0  0  0
  -26.0640  -29.3720   20.8690 C   0  0  0  0  0  0  0  0  0  0  0  0
  -27.2780  -28.6580   20.9000 C   0  0  0  0  0  3  0  0  0  0  0  0
  -26.1910  -26.7820   19.7870 C   0  0  0  0  0  3  0  0  0  0  0  0
  -24.9840  -27.5070   19.7370 C   0  0  0  0  0  3  0  0  0  0  0  0
  -23.6750  -29.6540   20.2650 C   0  0  0  0  0  2  0  0  0  0  0  0
  -24.6770  -31.0160   22.1600 N   0  0  0  0  0  0  0  0  0  0  0  0
  -23.5060  -32.1320   23.7440 O   0  0  0  0  0  0  0  0  0  0  0  0
  -22.7680  -29.3930   22.5970 C   0  0  0  0  0  0  0  0  0  0  0  0
  -21.4510  -29.1920   22.4380 N   0  0  0  0  0  0  0  0  0  0  0  0
  -23.4370  -28.8070   23.4520 O   0  0  0  0  0  0  0  0  0  0  0  0
  -20.9790  -29.7190   21.7140 H   0  0  0  0  0  0  0  0  0  0  0  0
  -18.0700  -28.0040   22.8880 C   0  0  0  0  0  0  0  0  0  0  0  0
  -20.6190  -28.2760   23.2160 C   0  0  0  0  0  3  0  0  0  0  0  0
  -20.7400  -26.8300   22.6840 C   0  0  0  0  0  2  0  0  0  0  0  0
  -19.6640  -26.4730   21.6540 C   0  0  0  0  0  2  0  0  0  0  0  0
  -18.2670  -26.6350   22.2600 C   0  0  0  0  0  2  0  0  0  0  0  0
  -19.1760  -28.7810   23.3220 C   0  0  0  0  0  0  0  0  0  0  0  0
  -18.9420  -30.0630   23.8670 C   0  0  0  0  0  3  0  0  0  0  0  0
  -17.6320  -30.5660   23.9840 C   0  0  0  0  0  3  0  0  0  0  0  0
  -16.5400  -29.7850   23.5670 C   0  0  0  0  0  3  0  0  0  0  0  0
  -16.7590  -28.5060   23.0240 C   0  0  0  0  0  3  0  0  0  0  0  0
  -25.8710  -32.5030   23.8620 C   0  0  0  0  0  3  0  0  0  0  0  0
  -25.5390  -33.8990   24.1750 N   0  0  0  0  0  0  0  0  0  0  0  0
  -25.8540  -34.9460   23.4020 C   0  0  0  0  0  0  0  0  0  0  0  0
  -26.5260  -34.8420   22.3720 O   0  0  0  0  0  0  0  0  0  0  0  0
  -24.9410  -34.0530   24.9730 H   0  0  0  0  0  0  0  0  0  0  0  0
  -24.0890  -36.6990   23.0300 C   0  0  0  0  0  1  0  0  0  0  0  0
  -25.3400  -36.3310   23.8410 C   0  0  0  0  0  3  0  0  0  0  0  0
  -27.4620  -37.2670   24.6500 C   0  0  0  0  0  1  0  0  0  0  0  0
  -26.3520  -37.4020   23.7100 N   0  0  0  0  0  0  0  0  0  0  0  0
  -25.9280  -38.3160   23.8500 H   0  0  0  0  0  0  0  0  0  0  0  0
  -26.3890  -31.7480   25.1480 C   0  0  1  0  0  0  0  0  0  0  0  0
  -25.2860  -31.4750   26.1950 C   0  0  0  0  0  1  0  0  0  0  0  0
  -27.0230  -30.3920   24.7610 C   0  0  0  0  0  1  0  0  0  0  0  0
  -27.4990  -32.5810   25.8330 C   0  0  0  0  0  1  0  0  0  0  0  0
  1  5  1  0
  3  1  1  0
  3  6  1  0
  4  2  1  0
  5  8  1  0
  5  2  1  0
  6  7  1  1
  6  4  1  0
  8  9  1  0
 10 13  1  0
 10 15  2  0
 11 12  1  0
 11 13  1  0
 12 14  1  0
 13 25  1  0
 14 10  1  0
 14  9  1  0
 16 25  1  0
 17 22  1  0
 18 19  1  0
 18 17  1  0
 20 19  1  0
 20 21  1  0
 20 29  1  0
 22 16  1  0
 22 21  1  0
 23 16  2  0
 25 24  1  0
 26 27  2  0
 27 46  1  0
 28 31  1  0
 28 27  1  0
 29 30  1  0
 29 26  1  0
 30 28  2  0
 31 32  1  0
 32 33  2  0
 34 37  1  0
 34 33  1  0
 35 34  2  0
 36 35  1  0
 36 31  2  0
 37 38  1  0
 38 43  2  0
 38 39  1  0
 39 40  2  0
 40 41  1  0
 41 45  1  0
 42 41  2  0
 43 42  1  0
 44 43  1  0
 46 47  1  0
 47 49  1  0
 47 50  1  0
 48 46  2  0
 51 26  1  0
 51 52  1  0
 53 51  1  0
 54  6  1  0
 54 55  1  0
 56 58  1  0
 56 55  1  0
 57 68  2  0
 58 63  1  0
 59 67  1  0
 59 69  1  0
 60 62  1  0
 61 67  1  0
 62 63  2  0
 62 61  1  0
 64 58  2  0
 65 64  1  0
 65 60  2  0
 66 60  1  0
 66 59  1  0
 67 57  1  0
 69 71  2  0
 70 69  1  0
 72 70  1  0
 73 82  2  0
 73 78  1  0
 74 70  1  0
 74 78  1  0
 75 74  1  0
 76 77  1  0
 76 75  1  0
 77 73  1  0
 78 79  2  0
 79 80  1  0
 81 80  2  0
 82 81  1  0
 83 57  1  0
 83 84  1  0
 83 93  1  0
 84 87  1  0
 85 89  1  0
 85 84  1  0
 86 85  2  0
 89 88  1  0
 91 89  1  0
 91 92  1  0
 91 90  1  0
 93 96  1  1
 93 94  1  0
 95 93  1  0
M  ISO  4  16 100  25 100  55 101  56 101
M  END
>  <TORSDO>  (42) 
F 21

>  <SCORE>  (42) 
-9.325

>  <name>  (42) 
41

>  <ligand_id>  (42) 
41

>  <original_smiles>  (42) 
[H]c1c([H])c([H])c2c(c1[H])C([H])([H])C([H])([H])C([H])([H])C2([H])N([H])C(=O)C1([H])N(C(=O)C([H])(N([H])C(=O)C([H])(N([H])C([H])([H])[H])C([H])([H])[H])C(C([H])([H])[H])(C([H])([H])[H])C([H])([H])[H])C([H])([H])c2c([H])c(OC([H])([H])C([H])([H])[N+]3([H])C([H])([H])C([H])([H])C([H])(C([H])([H])C([H])([H])N4C(=O)C([H])(N(C(=O)N5C([H])([H])C([H])([H])C([H])([H])C([H])(n6nc(-c7c([H])c([H])c(Oc8c([H])c([H])c(F)c([H])c8F)c([H])c7[H])c(C(=O)N([H])[H])c6N([H])[H])C5([H])[H])C([H])([H])[H])C([H])([H])C4([H])[H])C([H])([H])C3([H])[H])c([H])c([H])c2C1([H])[H]

>  <smiles>  (42) 
[H]c1c([H])c([H])c2c(c1[H])C([H])([H])C([H])([H])C([H])([H])C2([H])N([H])C(=O)C1([H])N(C(=O)C([H])(N([H])C(=O)C([H])(N([H])C([H])([H])[H])C([H])([H])[H])C(C([H])([H])[H])(C([H])([H])[H])C([H])([H])[H])C([H])([H])c2c([H])c(OC([H])([H])C([H])([H])[N+]3([H])C([H])([H])C([H])([H])C([H])(C([H])([H])C([H])([H])N4C(=O)C([H])(N(C(=O)N5C([H])([H])C([H])([H])C([H])([H])C([H])(n6nc(-c7c([H])c([H])c(Oc8c([H])c([H])c(F)c([H])c8F)c([H])c7[H])c(C(=O)N([H])[H])c6N([H])[H])C5([H])[H])C([H])([H])[H])C([H])([H])C4([H])[H])C([H])([H])C3([H])[H])c([H])c([H])c2C1([H])[H]

$$$$
42:0:0
     RDKit          3D

 93102  0  0  1  0  0  0  0  0999 V2000
  -27.4480  -24.0750   20.7830 C   0  0  0  0  0  2  0  0  0  0  0  0
  -29.8370  -24.7660   21.2850 C   0  0  0  0  0  2  0  0  0  0  0  0
  -28.0400  -22.8240   20.0280 C   0  0  0  0  0  2  0  0  0  0  0  0
  -30.2740  -23.4950   20.4850 C   0  0  0  0  0  2  0  0  0  0  0  0
  -28.3770  -25.3150   21.1080 C   0  0  2  0  0  0  0  0  0  0  0  0
  -27.9650  -25.8800   22.4960 C   0  0  0  0  0  1  0  0  0  0  0  0
  -29.3270  -22.3460   20.6180 N   0  0  2  0  0  4  0  0  0  0  0  0
  -29.1740  -22.2050   21.6050 H   0  0  0  0  0  0  0  0  0  0  0  0
  -28.3630  -26.4990   20.2040 O   0  0  0  0  0  0  0  0  0  0  0  0
  -24.6330  -31.8730   23.2540 C   0  0  0  0  0  0  0  0  0  0  0  0
  -27.2450  -27.3470   20.1760 C   0  0  0  0  0  0  0  0  0  0  0  0
  -23.4230  -30.4740   21.6160 C   0  0  0  0  0  3  0  0  0  0  0  0
  -24.8730  -28.9350   20.1760 C   0  0  0  0  0  0  0  0  0  0  0  0
  -25.9570  -30.8070   21.4200 C   0  0  0  0  0  2  0  0  0  0  0  0
  -26.0390  -29.4330   20.7710 C   0  0  0  0  0  0  0  0  0  0  0  0
  -27.2300  -28.6490   20.7640 C   0  0  0  0  0  3  0  0  0  0  0  0
  -26.0690  -26.9080   19.5390 C   0  0  0  0  0  3  0  0  0  0  0  0
  -24.8890  -27.6780   19.5510 C   0  0  0  0  0  3  0  0  0  0  0  0
  -23.6310  -29.8010   20.2330 C   0  0  0  0  0  2  0  0  0  0  0  0
  -24.6900  -31.0690   22.1530 N   0  0  0  0  0  0  0  0  0  0  0  0
  -23.5520  -32.1470   23.7980 O   0  0  0  0  0  0  0  0  0  0  0  0
  -22.7710  -29.4530   22.5780 C   0  0  0  0  0  0  0  0  0  0  0  0
  -21.4460  -29.2690   22.4540 N   0  0  0  0  0  0  0  0  0  0  0  0
  -23.4560  -28.8310   23.3940 O   0  0  0  0  0  0  0  0  0  0  0  0
  -20.9540  -29.8210   21.7650 H   0  0  0  0  0  0  0  0  0  0  0  0
  -18.0780  -28.0490   22.9530 C   0  0  0  0  0  0  0  0  0  0  0  0
  -20.6350  -28.3270   23.2270 C   0  0  0  0  0  3  0  0  0  0  0  0
  -20.7480  -26.8950   22.6550 C   0  0  0  0  0  2  0  0  0  0  0  0
  -19.6510  -26.5610   21.6400 C   0  0  0  0  0  2  0  0  0  0  0  0
  -18.2660  -26.6980   22.2810 C   0  0  0  0  0  2  0  0  0  0  0  0
  -19.1910  -28.8190   23.3830 C   0  0  0  0  0  0  0  0  0  0  0  0
  -18.9610  -30.0830   23.9700 C   0  0  0  0  0  3  0  0  0  0  0  0
  -17.6530  -30.5730   24.1340 C   0  0  0  0  0  3  0  0  0  0  0  0
  -16.5550  -29.8000   23.7200 C   0  0  0  0  0  3  0  0  0  0  0  0
  -16.7690  -28.5390   23.1340 C   0  0  0  0  0  3  0  0  0  0  0  0
  -25.9190  -32.5080   23.8700 C   0  0  0  0  0  3  0  0  0  0  0  0
  -26.4360  -31.7410   25.1500 C   0  0  1  0  0  0  0  0  0  0  0  0
  -25.3440  -31.5130   26.2200 C   0  0  0  0  0  1  0  0  0  0  0  0
  -27.0160  -30.3600   24.7640 C   0  0  0  0  0  1  0  0  0  0  0  0
  -27.5900  -32.5370   25.8050 C   0  0  0  0  0  1  0  0  0  0  0  0
  -25.6120  -33.9080   24.1940 N   0  0  0  0  0  0  0  0  0  0  0  0
  -25.9450  -34.9570   23.4310 C   0  0  0  0  0  0  0  0  0  0  0  0
  -26.6160  -34.8470   22.4000 O   0  0  0  0  0  0  0  0  0  0  0  0
  -25.0120  -34.0660   24.9900 H   0  0  0  0  0  0  0  0  0  0  0  0
  -24.2230  -36.7530   23.0660 C   0  0  0  0  0  1  0  0  0  0  0  0
  -25.4600  -36.3480   23.8820 C   0  0  0  0  0  3  0  0  0  0  0  0
  -27.5950  -37.2290   24.7150 C   0  0  0  0  0  1  0  0  0  0  0  0
  -26.4960  -37.3980   23.7680 N   0  0  0  0  0  0  0  0  0  0  0  0
  -26.0930  -38.3190   23.9120 H   0  0  0  0  0  0  0  0  0  0  0  0
  -29.8940  -21.0200   20.1050 C   0  0  0  0  0  2  0  0  0  0  0  0
  -29.2950  -19.6560   20.6810 C   0  0  0  0  0  2  0  0  0  0  0  0
  -31.6930  -18.4920   21.1530 C   0  0  0  0  0  2  0  0  0  0  0  0
  -30.7470  -18.0850   22.2290 C   0  0  0  0  0  2  0  0  0  0  0  0
  -30.2080  -18.3570   20.8270 C   0  0  1  0  0  0  0  0  0  0  0  0
  -29.8110  -17.1080   19.9600 C   0  0  0  0  0  2  0  0  0  0  0  0
  -30.6040  -14.6460   20.2100 C   0  0  0  0  0  0  0  0  0  0  0  0
  -30.3660  -12.4130   19.1580 C   0  0  0  0  0  2  0  0  0  0  0  0
  -29.4060  -12.5610   17.9570 C   0  0  0  0  0  2  0  0  0  0  0  0
  -27.9370  -12.4140   18.3990 C   0  0  0  0  0  2  0  0  0  0  0  0
  -27.6040  -13.2640   19.6530 C   0  0  0  0  0  3  0  0  0  0  0  0
  -28.6780  -13.0950   20.7530 C   0  0  0  0  0  2  0  0  0  0  0  0
  -29.9840  -13.4240   20.1650 N   0  0  0  0  0  0  0  0  0  0  0  0
  -31.7460  -14.8090   19.7680 O   0  0  0  0  0  0  0  0  0  0  0  0
  -29.8100  -15.7120   20.5270 N   0  0  0  0  0  0  0  0  0  0  0  0
  -28.9360  -15.4480   20.9580 H   0  0  0  0  0  0  0  0  0  0  0  0
  -25.2190  -13.8690   20.3950 C   0  0  0  0  0  0  0  0  0  0  0  0
  -24.1570  -13.0990   20.7850 C   0  0  0  0  0  0  0  0  0  0  0  0
  -24.6170  -11.7470   20.7550 C   0  0  0  0  0  0  0  0  0  0  0  0
  -26.2600  -12.9860   20.1540 N   0  0  0  0  0  0  0  0  0  0  0  0
  -25.9020  -11.7050   20.4300 N   0  0  0  0  0  0  0  0  0  0  0  0
  -23.8920  -10.4860   20.9620 C   0  0  0  0  0  0  0  0  0  0  0  0
  -24.3340   -9.5270   21.9000 C   0  0  0  0  0  3  0  0  0  0  0  0
  -23.6110   -8.3300   22.0950 C   0  0  0  0  0  3  0  0  0  0  0  0
  -22.4330   -8.0840   21.3510 C   0  0  0  0  0  0  0  0  0  0  0  0
  -22.0120   -9.0320   20.4010 C   0  0  0  0  0  3  0  0  0  0  0  0
  -22.7330  -10.2200   20.2050 C   0  0  0  0  0  3  0  0  0  0  0  0
  -21.6820   -6.9380   21.4520 O   0  0  0  0  0  0  0  0  0  0  0  0
  -21.6410   -6.2040   22.6100 C   0  0  0  0  0  0  0  0  0  0  0  0
  -21.2160   -6.7660   23.8330 C   0  0  0  0  0  3  0  0  0  0  0  0
  -21.1240   -5.9590   24.9840 C   0  0  0  0  0  3  0  0  0  0  0  0
  -21.4460   -4.5900   24.9140 C   0  0  0  0  0  0  0  0  0  0  0  0
  -21.8610   -4.0270   23.6940 C   0  0  0  0  0  3  0  0  0  0  0  0
  -21.9560   -4.8320   22.5450 C   0  0  0  0  0  0  0  0  0  0  0  0
  -22.3390   -4.2800   21.3680 F   0  0  0  0  0  0  0  0  0  0  0  0
  -21.3490   -3.8120   26.0180 F   0  0  0  0  0  0  0  0  0  0  0  0
  -22.7630  -13.5770   21.0740 C   0  0  0  0  0  0  0  0  0  0  0  0
  -22.0450  -12.8860   21.9530 N   0  0  0  0  0  0  0  0  0  0  0  0
  -22.3180  -14.6020   20.5550 O   0  0  0  0  0  0  0  0  0  0  0  0
  -22.4220  -12.0620   22.3980 H   0  0  0  0  0  0  0  0  0  0  0  0
  -21.1060  -13.1820   22.1810 H   0  0  0  0  0  0  0  0  0  0  0  0
  -25.3820  -15.2370   20.2050 N   0  0  0  0  0  0  0  0  0  0  0  0
  -24.6150  -15.8920   20.3070 H   0  0  0  0  0  0  0  0  0  0  0  0
  -26.2190  -15.6660   19.8320 H   0  0  0  0  0  0  0  0  0  0  0  0
  1  5  1  0
  3  7  1  0
  3  1  1  0
  4  7  1  0
  4  2  1  0
  5  2  1  0
  5  6  1  1
  7  8  1  1
  9  5  1  0
 10 21  2  0
 11  9  1  0
 11 16  1  0
 12 20  1  0
 12 22  1  0
 13 19  1  0
 13 15  1  0
 14 20  1  0
 15 14  1  0
 16 15  2  0
 17 18  1  0
 17 11  2  0
 18 13  2  0
 19 12  1  0
 20 10  1  0
 22 24  2  0
 23 22  1  0
 25 23  1  0
 26 35  2  0
 26 31  1  0
 27 23  1  0
 27 31  1  0
 28 27  1  0
 29 30  1  0
 29 28  1  0
 30 26  1  0
 31 32  2  0
 32 33  1  0
 34 33  2  0
 35 34  1  0
 36 10  1  0
 36 41  1  0
 36 37  1  0
 37 40  1  1
 37 38  1  0
 39 37  1  0
 41 44  1  0
 42 46  1  0
 42 41  1  0
 43 42  2  0
 46 45  1  0
 48 46  1  0
 48 49  1  0
 48 47  1  0
 50  7  1  0
 50 51  1  0
 54 51  1  1
 52 53  1  0
 54 52  1  0
 54 53  1  0
 55 64  1  0
 55 54  1  0
 56 64  1  0
 57 62  1  0
 58 59  1  0
 58 57  1  0
 60 59  1  0
 60 69  1  0
 60 61  1  0
 62 56  1  0
 62 61  1  0
 63 56  2  0
 64 65  1  0
 66 67  2  0
 67 86  1  0
 68 67  1  0
 68 71  1  0
 69 66  1  0
 69 70  1  0
 70 68  2  0
 71 72  1  0
 72 73  2  0
 74 77  1  0
 74 73  1  0
 75 74  2  0
 76 75  1  0
 76 71  2  0
 77 78  1  0
 78 79  1  0
 79 80  2  0
 81 80  1  0
 81 85  1  0
 82 81  2  0
 83 78  2  0
 83 82  1  0
 84 83  1  0
 86 87  1  0
 87 90  1  0
 87 89  1  0
 88 86  2  0
 91 92  1  0
 91 66  1  0
 93 91  1  0
M  ISO  4   5 101   9 101  56 100  64 100
M  END
>  <TORSDO>  (43) 
F 20

>  <SCORE>  (43) 
-13.889

>  <name>  (43) 
42

>  <ligand_id>  (43) 
42

>  <original_smiles>  (43) 
[H]c1c([H])c([H])c2c(c1[H])C([H])([H])C([H])([H])C([H])([H])C2([H])N([H])C(=O)C1([H])N(C(=O)C([H])(N([H])C(=O)C([H])(N([H])C([H])([H])[H])C([H])([H])[H])C(C([H])([H])[H])(C([H])([H])[H])C([H])([H])[H])C([H])([H])c2c([H])c(OC3(C([H])([H])[H])C([H])([H])C([H])([H])[N+]([H])(C([H])([H])C([H])([H])C4(C([H])([H])N([H])C(=O)N5C([H])([H])C([H])([H])C([H])([H])C([H])(n6nc(-c7c([H])c([H])c(Oc8c([H])c([H])c(F)c([H])c8F)c([H])c7[H])c(C(=O)N([H])[H])c6N([H])[H])C5([H])[H])C([H])([H])C4([H])[H])C([H])([H])C3([H])[H])c([H])c([H])c2C1([H])[H]

>  <smiles>  (43) 
[H]c1c([H])c([H])c2c(c1[H])C([H])([H])C([H])([H])C([H])([H])C2([H])N([H])C(=O)C1([H])N(C(=O)C([H])(N([H])C(=O)C([H])(N([H])C([H])([H])[H])C([H])([H])[H])C(C([H])([H])[H])(C([H])([H])[H])C([H])([H])[H])C([H])([H])c2c([H])c(OC3(C([H])([H])[H])C([H])([H])C([H])([H])[N+]([H])(C([H])([H])C([H])([H])C4(C([H])([H])N([H])C(=O)N5C([H])([H])C([H])([H])C([H])([H])C([H])(n6nc(-c7c([H])c([H])c(Oc8c([H])c([H])c(F)c([H])c8F)c([H])c7[H])c(C(=O)N([H])[H])c6N([H])[H])C5([H])[H])C([H])([H])C4([H])[H])C([H])([H])C3([H])[H])c([H])c([H])c2C1([H])[H]

$$$$
43:0:0
     RDKit          3D

 96104  0  0  1  0  0  0  0  0999 V2000
  -31.6700  -21.1770   22.5830 C   0  0  0  0  0  2  0  0  0  0  0  0
  -31.0180  -19.8850   23.1200 C   0  0  0  0  0  2  0  0  0  0  0  0
  -31.8820  -18.6410   22.8440 C   0  0  0  0  0  2  0  0  0  0  0  0
  -30.6160  -16.5240   22.2630 C   0  0  0  0  0  0  0  0  0  0  0  0
  -31.1590  -17.3980   23.1260 N   0  0  0  0  0  0  0  0  0  0  0  0
  -30.0500  -15.5190   22.6870 O   0  0  0  0  0  0  0  0  0  0  0  0
  -31.0700  -17.1570   24.1050 H   0  0  0  0  0  0  0  0  0  0  0  0
  -31.0670  -14.4700   19.9030 C   0  0  0  0  0  0  0  0  0  0  0  0
  -30.6260  -12.3140   18.8360 C   0  0  0  0  0  2  0  0  0  0  0  0
  -29.6480  -12.5450   17.6670 C   0  0  0  0  0  2  0  0  0  0  0  0
  -28.1860  -12.4640   18.1540 C   0  0  0  0  0  2  0  0  0  0  0  0
  -27.9170  -13.2980   19.4370 C   0  0  0  0  0  3  0  0  0  0  0  0
  -29.0240  -13.1010   20.4940 C   0  0  0  0  0  2  0  0  0  0  0  0
  -30.3230  -13.3330   19.8450 N   0  0  0  0  0  0  0  0  0  0  0  0
  -32.2650  -14.5140   19.6290 O   0  0  0  0  0  0  0  0  0  0  0  0
  -29.6910  -17.6790   18.7810 C   0  0  0  0  0  2  0  0  0  0  0  0
  -29.6960  -17.8490   20.2900 C   0  0  0  0  0  2  0  0  0  0  0  0
  -29.9240  -16.1790   18.5870 C   0  0  0  0  0  2  0  0  0  0  0  0
  -30.6970  -16.7800   20.7410 C   0  0  0  0  0  3  0  0  0  0  0  0
  -30.3780  -15.6310   19.8820 N   0  0  0  0  0  0  0  0  0  0  0  0
  -25.5680  -13.9820   20.2100 C   0  0  0  0  0  0  0  0  0  0  0  0
  -24.4910  -13.2430   20.6130 C   0  0  0  0  0  0  0  0  0  0  0  0
  -24.9180  -11.8800   20.5900 C   0  0  0  0  0  0  0  0  0  0  0  0
  -26.5820  -13.0670   19.9680 N   0  0  0  0  0  0  0  0  0  0  0  0
  -26.1960  -11.8000   20.2530 N   0  0  0  0  0  0  0  0  0  0  0  0
  -24.1680  -10.6390   20.8100 C   0  0  0  0  0  0  0  0  0  0  0  0
  -24.5810   -9.6930   21.7740 C   0  0  0  0  0  3  0  0  0  0  0  0
  -23.8340   -8.5150   21.9860 C   0  0  0  0  0  3  0  0  0  0  0  0
  -22.6620   -8.2740   21.2330 C   0  0  0  0  0  0  0  0  0  0  0  0
  -22.2680   -9.2080   20.2570 C   0  0  0  0  0  3  0  0  0  0  0  0
  -23.0140  -10.3780   20.0440 C   0  0  0  0  0  3  0  0  0  0  0  0
  -21.8880   -7.1460   21.3520 O   0  0  0  0  0  0  0  0  0  0  0  0
  -21.7970   -6.4560   22.5340 C   0  0  0  0  0  0  0  0  0  0  0  0
  -21.3620   -7.0750   23.7260 C   0  0  0  0  0  3  0  0  0  0  0  0
  -21.2180   -6.3130   24.9030 C   0  0  0  0  0  3  0  0  0  0  0  0
  -21.4980   -4.9340   24.8880 C   0  0  0  0  0  0  0  0  0  0  0  0
  -21.9290   -4.3150   23.7000 C   0  0  0  0  0  3  0  0  0  0  0  0
  -22.0740   -5.0740   22.5260 C   0  0  0  0  0  0  0  0  0  0  0  0
  -22.4680   -4.4690   21.3790 F   0  0  0  0  0  0  0  0  0  0  0  0
  -21.3510   -4.2000   26.0150 F   0  0  0  0  0  0  0  0  0  0  0  0
  -23.1140  -13.7570   20.9150 C   0  0  0  0  0  0  0  0  0  0  0  0
  -22.4030  -13.1010   21.8240 N   0  0  0  0  0  0  0  0  0  0  0  0
  -22.6790  -14.7760   20.3780 O   0  0  0  0  0  0  0  0  0  0  0  0
  -22.7690  -12.2780   22.2780 H   0  0  0  0  0  0  0  0  0  0  0  0
  -21.4800  -13.4290   22.0720 H   0  0  0  0  0  0  0  0  0  0  0  0
  -25.7650  -15.3470   20.0100 N   0  0  0  0  0  0  0  0  0  0  0  0
  -25.0280  -16.0310   20.1430 H   0  0  0  0  0  0  0  0  0  0  0  0
  -26.6380  -15.7580   19.7010 H   0  0  0  0  0  0  0  0  0  0  0  0
  -30.8810  -22.4640   22.8890 C   0  0  0  0  0  2  0  0  0  0  0  0
  -29.5520  -22.4840   22.2350 N   0  0  0  0  0  4  0  0  0  0  0  0
  -29.6360  -22.2490   21.2600 H   0  0  0  0  0  0  0  0  0  0  0  0
  -28.9830  -21.7760   22.6700 H   0  0  0  0  0  0  0  0  0  0  0  0
  -28.8280  -23.7670   22.3660 C   0  0  0  0  0  2  0  0  0  0  0  0
  -29.0290  -24.6820   21.1450 C   0  0  0  0  0  2  0  0  0  0  0  0
  -28.4470  -26.0810   21.3830 C   0  0  0  0  0  2  0  0  0  0  0  0
  -28.3090  -26.7800   20.1470 O   0  0  0  0  0  0  0  0  0  0  0  0
  -24.5720  -31.9100   23.3220 C   0  0  0  0  0  0  0  0  0  0  0  0
  -27.1800  -27.5520   20.1300 C   0  0  0  0  0  0  0  0  0  0  0  0
  -23.3530  -30.5640   21.6390 C   0  0  0  0  0  3  0  0  0  0  0  0
  -24.7980  -29.0510   20.1780 C   0  0  0  0  0  0  0  0  0  0  0  0
  -25.8810  -30.9090   21.4550 C   0  0  0  0  0  2  0  0  0  0  0  0
  -25.9550  -29.5550   20.7850 C   0  0  0  0  0  0  0  0  0  0  0  0
  -27.1510  -28.8090   20.7660 C   0  0  0  0  0  3  0  0  0  0  0  0
  -26.0170  -27.0520   19.5150 C   0  0  0  0  0  3  0  0  0  0  0  0
  -24.8210  -27.7960   19.5430 C   0  0  0  0  0  3  0  0  0  0  0  0
  -23.5590  -29.9170   20.2440 C   0  0  0  0  0  2  0  0  0  0  0  0
  -24.6200  -31.1390   22.1990 N   0  0  0  0  0  0  0  0  0  0  0  0
  -23.4930  -32.1830   23.8630 O   0  0  0  0  0  0  0  0  0  0  0  0
  -22.6890  -29.5270   22.5710 C   0  0  0  0  0  0  0  0  0  0  0  0
  -21.3640  -29.3650   22.4340 N   0  0  0  0  0  0  0  0  0  0  0  0
  -23.3630  -28.8700   23.3700 O   0  0  0  0  0  0  0  0  0  0  0  0
  -20.8820  -29.9440   21.7590 H   0  0  0  0  0  0  0  0  0  0  0  0
  -17.9690  -28.2170   22.8910 C   0  0  0  0  0  0  0  0  0  0  0  0
  -20.5300  -28.4190   23.1740 C   0  0  0  0  0  3  0  0  0  0  0  0
  -20.6080  -27.0050   22.5540 C   0  0  0  0  0  2  0  0  0  0  0  0
  -19.5020  -26.7340   21.5280 C   0  0  0  0  0  2  0  0  0  0  0  0
  -18.1220  -26.8860   22.1750 C   0  0  0  0  0  2  0  0  0  0  0  0
  -19.1010  -28.9440   23.3460 C   0  0  0  0  0  0  0  0  0  0  0  0
  -18.9060  -30.1930   23.9740 C   0  0  0  0  0  3  0  0  0  0  0  0
  -17.6110  -30.7170   24.1500 C   0  0  0  0  0  3  0  0  0  0  0  0
  -16.4930  -29.9850   23.7130 C   0  0  0  0  0  3  0  0  0  0  0  0
  -16.6730  -28.7370   23.0900 C   0  0  0  0  0  3  0  0  0  0  0  0
  -25.8650  -32.5040   23.9630 C   0  0  0  0  0  3  0  0  0  0  0  0
  -25.5780  -33.8990   24.3240 N   0  0  0  0  0  0  0  0  0  0  0  0
  -25.9390  -34.9610   23.5930 C   0  0  0  0  0  0  0  0  0  0  0  0
  -26.6230  -34.8690   22.5680 O   0  0  0  0  0  0  0  0  0  0  0  0
  -24.9760  -34.0460   25.1200 H   0  0  0  0  0  0  0  0  0  0  0  0
  -24.2560  -36.7950   23.2460 C   0  0  0  0  0  1  0  0  0  0  0  0
  -25.4690  -36.3470   24.0750 C   0  0  0  0  0  3  0  0  0  0  0  0
  -27.6000  -37.1670   24.9790 C   0  0  0  0  0  1  0  0  0  0  0  0
  -26.5250  -37.3800   24.0130 N   0  0  0  0  0  0  0  0  0  0  0  0
  -26.1340  -38.3050   24.1710 H   0  0  0  0  0  0  0  0  0  0  0  0
  -26.3670  -31.6920   25.2190 C   0  0  1  0  0  0  0  0  0  0  0  0
  -25.2680  -31.4410   26.2750 C   0  0  0  0  0  1  0  0  0  0  0  0
  -26.9340  -30.3180   24.7880 C   0  0  0  0  0  1  0  0  0  0  0  0
  -27.5280  -32.4520   25.9060 C   0  0  0  0  0  1  0  0  0  0  0  0
  1 49  1  0
  1  2  1  0
  3  2  1  0
  3  5  1  0
  4  6  2  0
  4  5  1  0
  5  7  1  0
  9 14  1  0
 10 11  1  0
 10  9  1  0
 12 11  1  0
 12 24  1  0
 12 13  1  0
 14  8  1  0
 14 13  1  0
 15  8  2  0
 16 17  1  0
 17 19  1  0
 18 16  1  0
 18 20  1  0
 19  4  1  0
 20  8  1  0
 20 19  1  0
 21 22  2  0
 22 41  1  0
 23 22  1  0
 23 26  1  0
 24 21  1  0
 24 25  1  0
 25 23  2  0
 26 27  1  0
 27 28  2  0
 29 32  1  0
 29 28  1  0
 30 29  2  0
 31 30  1  0
 31 26  2  0
 32 33  1  0
 33 34  1  0
 34 35  2  0
 36 35  1  0
 36 40  1  0
 37 36  2  0
 38 33  2  0
 38 37  1  0
 39 38  1  0
 41 42  1  0
 42 45  1  0
 42 44  1  0
 43 41  2  0
 46 47  1  0
 46 21  1  0
 48 46  1  0
 50 53  1  0
 50 52  1  0
 50 49  1  0
 51 50  1  0
 54 55  1  0
 54 53  1  0
 56 55  1  0
 57 68  2  0
 58 56  1  0
 58 63  1  0
 59 67  1  0
 59 69  1  0
 60 66  1  0
 60 62  1  0
 61 67  1  0
 62 61  1  0
 63 62  2  0
 64 65  1  0
 64 58  2  0
 65 60  2  0
 66 59  1  0
 67 57  1  0
 69 71  2  0
 70 69  1  0
 72 70  1  0
 73 82  2  0
 73 78  1  0
 74 70  1  0
 74 78  1  0
 75 74  1  0
 76 77  1  0
 76 75  1  0
 77 73  1  0
 78 79  2  0
 79 80  1  0
 81 80  2  0
 82 81  1  0
 83 57  1  0
 83 84  1  0
 83 93  1  0
 84 87  1  0
 85 89  1  0
 85 84  1  0
 86 85  2  0
 89 88  1  0
 91 89  1  0
 91 92  1  0
 91 90  1  0
 93 96  1  1
 93 94  1  0
 95 93  1  0
M  ISO  4   8 100  20 100  55 101  56 101
M  END
>  <TORSDO>  (44) 
F 24

>  <SCORE>  (44) 
-10.538

>  <name>  (44) 
43

>  <ligand_id>  (44) 
43

>  <original_smiles>  (44) 
[H]c1c([H])c([H])c2c(c1[H])C([H])([H])C([H])([H])C([H])([H])C2([H])N([H])C(=O)C1([H])N(C(=O)C([H])(N([H])C(=O)C([H])(N([H])C([H])([H])[H])C([H])([H])[H])C(C([H])([H])[H])(C([H])([H])[H])C([H])([H])[H])C([H])([H])c2c([H])c(OC([H])([H])C([H])([H])C([H])([H])[N+]([H])([H])C([H])([H])C([H])([H])C([H])([H])C([H])([H])N([H])C(=O)C3([H])N(C(=O)N4C([H])([H])C([H])([H])C([H])([H])C([H])(n5nc(-c6c([H])c([H])c(Oc7c([H])c([H])c(F)c([H])c7F)c([H])c6[H])c(C(=O)N([H])[H])c5N([H])[H])C4([H])[H])C([H])([H])C([H])([H])C3([H])[H])c([H])c([H])c2C1([H])[H]

>  <smiles>  (44) 
[H]c1c([H])c([H])c2c(c1[H])C([H])([H])C([H])([H])C([H])([H])C2([H])N([H])C(=O)C1([H])N(C(=O)C([H])(N([H])C(=O)C([H])(N([H])C([H])([H])[H])C([H])([H])[H])C(C([H])([H])[H])(C([H])([H])[H])C([H])([H])[H])C([H])([H])c2c([H])c(OC([H])([H])C([H])([H])C([H])([H])[N+]([H])([H])C([H])([H])C([H])([H])C([H])([H])C([H])([H])N([H])C(=O)C3([H])N(C(=O)N4C([H])([H])C([H])([H])C([H])([H])C([H])(n5nc(-c6c([H])c([H])c(Oc7c([H])c([H])c(F)c([H])c7F)c([H])c6[H])c(C(=O)N([H])[H])c5N([H])[H])C4([H])[H])C([H])([H])C([H])([H])C3([H])[H])c([H])c([H])c2C1([H])[H]

$$$$
44:0:0
     RDKit          3D

101109  0  0  1  0  0  0  0  0999 V2000
  -30.4610  -17.9000   19.2830 C   0  0  0  0  0  2  0  0  0  0  0  0
  -29.6630  -19.0390   18.7240 N   0  0  0  0  0  4  0  0  0  0  0  0
  -29.7480  -19.0490   17.7190 H   0  0  0  0  0  0  0  0  0  0  0  0
  -28.6930  -18.8760   18.9380 H   0  0  0  0  0  0  0  0  0  0  0  0
  -30.0010  -20.4050   19.2290 C   0  0  0  0  0  2  0  0  0  0  0  0
  -28.7950  -21.4090   19.2570 C   0  0  0  0  0  2  0  0  0  0  0  0
  -29.1760  -22.8130   18.9960 N   0  0  0  0  0  0  0  0  0  0  0  0
  -29.1870  -22.9810   17.9910 H   0  0  0  0  0  0  0  0  0  0  0  0
  -28.3190  -23.8170   19.6610 C   0  0  0  0  0  2  0  0  0  0  0  0
  -28.6630  -25.2720   19.2100 C   0  0  0  0  0  2  0  0  0  0  0  0
  -28.4250  -26.3140   20.1780 O   0  0  0  0  0  0  0  0  0  0  0  0
  -24.9030  -31.5930   23.4130 C   0  0  0  0  0  0  0  0  0  0  0  0
  -27.2890  -27.1030   20.1500 C   0  0  0  0  0  0  0  0  0  0  0  0
  -23.6380  -30.3730   21.6710 C   0  0  0  0  0  3  0  0  0  0  0  0
  -25.0060  -28.7910   20.2010 C   0  0  0  0  0  0  0  0  0  0  0  0
  -26.1870  -30.5320   21.5560 C   0  0  0  0  0  2  0  0  0  0  0  0
  -26.1830  -29.1920   20.8440 C   0  0  0  0  0  0  0  0  0  0  0  0
  -27.3190  -28.3500   20.8230 C   0  0  0  0  0  3  0  0  0  0  0  0
  -26.0940  -26.7210   19.5010 C   0  0  0  0  0  3  0  0  0  0  0  0
  -24.9560  -27.5550   19.5330 C   0  0  0  0  0  3  0  0  0  0  0  0
  -23.8310  -29.7400   20.2650 C   0  0  0  0  0  2  0  0  0  0  0  0
  -24.9270  -30.8450   22.2730 N   0  0  0  0  0  0  0  0  0  0  0  0
  -23.8320  -31.9230   23.9410 O   0  0  0  0  0  0  0  0  0  0  0  0
  -22.8810  -29.3630   22.5650 C   0  0  0  0  0  0  0  0  0  0  0  0
  -21.5470  -29.3130   22.4150 N   0  0  0  0  0  0  0  0  0  0  0  0
  -23.4940  -28.6310   23.3460 O   0  0  0  0  0  0  0  0  0  0  0  0
  -21.1230  -29.9510   21.7550 H   0  0  0  0  0  0  0  0  0  0  0  0
  -18.0650  -28.4640   22.8710 C   0  0  0  0  0  0  0  0  0  0  0  0
  -20.6370  -28.4120   23.1200 C   0  0  0  0  0  3  0  0  0  0  0  0
  -20.5760  -27.0350   22.4210 C   0  0  0  0  0  2  0  0  0  0  0  0
  -19.4360  -26.9250   21.4040 C   0  0  0  0  0  2  0  0  0  0  0  0
  -18.0840  -27.1670   22.0810 C   0  0  0  0  0  2  0  0  0  0  0  0
  -19.2660  -29.0580   23.3440 C   0  0  0  0  0  0  0  0  0  0  0  0
  -19.1960  -30.2830   24.0400 C   0  0  0  0  0  3  0  0  0  0  0  0
  -17.9590  -30.9130   24.2700 C   0  0  0  0  0  3  0  0  0  0  0  0
  -16.7720  -30.3140   23.8140 C   0  0  0  0  0  3  0  0  0  0  0  0
  -16.8260  -29.0920   23.1210 C   0  0  0  0  0  3  0  0  0  0  0  0
  -26.2160  -32.0860   24.0970 C   0  0  0  0  0  3  0  0  0  0  0  0
  -26.0120  -33.4870   24.4870 N   0  0  0  0  0  0  0  0  0  0  0  0
  -26.4510  -34.5440   23.7900 C   0  0  0  0  0  0  0  0  0  0  0  0
  -27.1400  -34.4360   22.7720 O   0  0  0  0  0  0  0  0  0  0  0  0
  -25.4050  -33.6540   25.2770 H   0  0  0  0  0  0  0  0  0  0  0  0
  -24.8780  -36.4830   23.4820 C   0  0  0  0  0  1  0  0  0  0  0  0
  -26.0610  -35.9440   24.3030 C   0  0  0  0  0  3  0  0  0  0  0  0
  -28.2300  -36.6220   25.2340 C   0  0  0  0  0  1  0  0  0  0  0  0
  -27.1750  -36.9170   24.2670 N   0  0  0  0  0  0  0  0  0  0  0  0
  -26.8380  -37.8590   24.4450 H   0  0  0  0  0  0  0  0  0  0  0  0
  -26.6360  -31.2150   25.3440 C   0  0  1  0  0  0  0  0  0  0  0  0
  -25.4950  -30.9950   26.3650 C   0  0  0  0  0  1  0  0  0  0  0  0
  -27.1360  -29.8220   24.8940 C   0  0  0  0  0  1  0  0  0  0  0  0
  -27.8160  -31.8890   26.0810 C   0  0  0  0  0  1  0  0  0  0  0  0
  -30.1370  -16.5120   18.6200 C   0  0  0  0  0  2  0  0  0  0  0  0
  -31.0610  -14.1760   18.9140 C   0  0  0  0  0  0  0  0  0  0  0  0
  -30.3170  -12.1590   17.6860 C   0  0  0  0  0  2  0  0  0  0  0  0
  -29.1200  -12.5680   16.7960 C   0  0  0  0  0  2  0  0  0  0  0  0
  -27.7860  -12.5340   17.5750 C   0  0  0  0  0  2  0  0  0  0  0  0
  -27.8850  -13.2140   18.9670 C   0  0  0  0  0  3  0  0  0  0  0  0
  -29.1350  -12.6820   19.7020 C   0  0  0  0  0  2  0  0  0  0  0  0
  -30.3030  -13.0320   18.8740 N   0  0  0  0  0  0  0  0  0  0  0  0
  -32.0640  -14.2980   18.2020 O   0  0  0  0  0  0  0  0  0  0  0  0
  -30.4580  -15.3010   19.4300 N   0  0  0  0  0  0  0  0  0  0  0  0
  -25.8130  -13.9900   20.2850 C   0  0  0  0  0  0  0  0  0  0  0  0
  -24.7880  -13.2940   20.8610 C   0  0  0  0  0  0  0  0  0  0  0  0
  -25.0700  -11.9130   20.6280 C   0  0  0  0  0  0  0  0  0  0  0  0
  -26.6660  -13.0350   19.7500 N   0  0  0  0  0  0  0  0  0  0  0  0
  -26.2310  -11.7760   20.0030 N   0  0  0  0  0  0  0  0  0  0  0  0
  -24.2720  -10.7160   20.9100 C   0  0  0  0  0  0  0  0  0  0  0  0
  -24.7480   -9.6980   21.7640 C   0  0  0  0  0  3  0  0  0  0  0  0
  -23.9560   -8.5620   22.0350 C   0  0  0  0  0  3  0  0  0  0  0  0
  -22.6710   -8.4410   21.4540 C   0  0  0  0  0  0  0  0  0  0  0  0
  -22.2110   -9.4460   20.5850 C   0  0  0  0  0  3  0  0  0  0  0  0
  -23.0030  -10.5720   20.3130 C   0  0  0  0  0  3  0  0  0  0  0  0
  -21.8380   -7.3640   21.6430 O   0  0  0  0  0  0  0  0  0  0  0  0
  -21.7450   -6.7280   22.8550 C   0  0  0  0  0  0  0  0  0  0  0  0
  -21.3650   -7.4150   24.0280 C   0  0  0  0  0  3  0  0  0  0  0  0
  -21.2130   -6.7090   25.2390 C   0  0  0  0  0  3  0  0  0  0  0  0
  -21.4320   -5.3190   25.2750 C   0  0  0  0  0  0  0  0  0  0  0  0
  -21.8070   -4.6320   24.1080 C   0  0  0  0  0  3  0  0  0  0  0  0
  -21.9580   -5.3350   22.8980 C   0  0  0  0  0  0  0  0  0  0  0  0
  -22.2960   -4.6650   21.7700 F   0  0  0  0  0  0  0  0  0  0  0  0
  -21.2820   -4.6390   26.4370 F   0  0  0  0  0  0  0  0  0  0  0  0
  -23.5620  -13.8740   21.5050 C   0  0  0  0  0  0  0  0  0  0  0  0
  -23.0500  -13.2210   22.5410 N   0  0  0  0  0  0  0  0  0  0  0  0
  -23.0780  -14.9380   21.1200 O   0  0  0  0  0  0  0  0  0  0  0  0
  -23.4600  -12.3570   22.8640 H   0  0  0  0  0  0  0  0  0  0  0  0
  -22.2350  -13.5850   23.0150 H   0  0  0  0  0  0  0  0  0  0  0  0
  -26.0820  -15.3500   20.1490 N   0  0  0  0  0  0  0  0  0  0  0  0
  -25.4450  -16.0650   20.4840 H   0  0  0  0  0  0  0  0  0  0  0  0
  -26.8700  -15.7250   19.6410 H   0  0  0  0  0  0  0  0  0  0  0  0
  -29.9460  -15.4480   20.8060 C   0  0  0  0  0  2  0  0  0  0  0  0
  -30.6180  -14.5340   21.8470 C   0  0  0  0  0  2  0  0  0  0  0  0
  -34.0570  -14.8340   20.2430 C   0  0  0  0  0  3  0  0  0  0  0  0
  -34.4680  -13.4940   20.1450 C   0  0  0  0  0  3  0  0  0  0  0  0
  -32.8220  -15.1450   20.8350 C   0  0  0  0  0  3  0  0  0  0  0  0
  -33.6580  -12.4710   20.6740 C   0  0  0  0  0  3  0  0  0  0  0  0
  -31.9850  -14.1230   21.3320 C   0  0  0  0  0  0  0  0  0  0  0  0
  -32.4080  -12.7660   21.2700 C   0  0  0  0  0  0  0  0  0  0  0  0
  -31.5680  -11.6320   21.8710 C   0  0  0  0  0  2  0  0  0  0  0  0
  -30.8640   -9.6340   20.9610 N   0  0  0  0  0  0  0  0  0  0  0  0
  -31.8620  -10.3050   21.2730 N   0  0  0  0  0  0  0  0  0  0  0  0
  -31.1560   -8.7100   20.5790 H   0  0  0  0  0  0  0  0  0  0  0  0
  2  4  1  0
  2  5  1  0
  2  1  1  0
  3  2  1  0
  5  6  1  0
  7  6  1  0
  7  9  1  0
  8  7  1  0
 10  9  1  0
 10 11  1  0
 12 23  2  0
 13 11  1  0
 13 18  1  0
 14 22  1  0
 14 24  1  0
 15 21  1  0
 15 17  1  0
 16 22  1  0
 17 16  1  0
 18 17  2  0
 19 20  1  0
 19 13  2  0
 20 15  2  0
 21 14  1  0
 22 12  1  0
 24 26  2  0
 25 24  1  0
 27 25  1  0
 28 37  2  0
 28 33  1  0
 29 25  1  0
 29 33  1  0
 30 29  1  0
 31 32  1  0
 31 30  1  0
 32 28  1  0
 33 34  2  0
 34 35  1  0
 36 35  2  0
 37 36  1  0
 38 12  1  0
 38 39  1  0
 38 48  1  0
 39 42  1  0
 40 44  1  0
 40 39  1  0
 41 40  2  0
 44 43  1  0
 46 44  1  0
 46 47  1  0
 46 45  1  0
 48 51  1  1
 48 49  1  0
 50 48  1  0
 52  1  1  0
 52 61  1  0
 53 61  1  0
 54 59  1  0
 55 56  1  0
 55 54  1  0
 57 56  1  0
 57 58  1  0
 57 65  1  0
 59 53  1  0
 59 58  1  0
 60 53  2  0
 61 90  1  0
 62 63  2  0
 63 82  1  0
 64 63  1  0
 64 67  1  0
 65 66  1  0
 65 62  1  0
 66 64  2  0
 67 68  1  0
 68 69  2  0
 70 73  1  0
 70 69  1  0
 71 70  2  0
 72 71  1  0
 72 67  2  0
 73 74  1  0
 74 79  2  0
 74 75  1  0
 75 76  2  0
 76 77  1  0
 77 81  1  0
 78 77  2  0
 79 78  1  0
 80 79  1  0
 82 83  1  0
 83 85  1  0
 83 86  1  0
 84 82  2  0
 87 62  1  0
 87 88  1  0
 89 87  1  0
 90 91  1  0
 92 94  1  0
 93 92  2  0
 93 95  1  0
 94 96  2  0
 95 97  2  0
 96 91  1  0
 97 96  1  0
 97 98  1  0
 99100  2  0
100 98  1  0
101 99  1  0
M  ISO  4  10 101  11 101  53 100  61 100
M  END
>  <TORSDO>  (45) 
F 28

>  <SCORE>  (45) 
-6.820

>  <name>  (45) 
44

>  <ligand_id>  (45) 
44

>  <original_smiles>  (45) 
[H]N=NC([H])([H])c1c([H])c([H])c([H])c([H])c1C([H])([H])C([H])([H])N(C(=O)N1C([H])([H])C([H])([H])C([H])([H])C([H])(n2nc(-c3c([H])c([H])c(Oc4c([H])c([H])c(F)c([H])c4F)c([H])c3[H])c(C(=O)N([H])[H])c2N([H])[H])C1([H])[H])C([H])([H])C([H])([H])[N+]([H])([H])C([H])([H])C([H])([H])N([H])C([H])([H])C([H])([H])Oc1c([H])c([H])c2c(c1[H])C([H])([H])N(C(=O)C([H])(N([H])C(=O)C([H])(N([H])C([H])([H])[H])C([H])([H])[H])C(C([H])([H])[H])(C([H])([H])[H])C([H])([H])[H])C([H])(C(=O)N([H])C1([H])c3c([H])c([H])c([H])c([H])c3C([H])([H])C([H])([H])C1([H])[H])C2([H])[H]

>  <smiles>  (45) 
[H]N=NC([H])([H])c1c([H])c([H])c([H])c([H])c1C([H])([H])C([H])([H])N(C(=O)N1C([H])([H])C([H])([H])C([H])([H])C([H])(n2nc(-c3c([H])c([H])c(Oc4c([H])c([H])c(F)c([H])c4F)c([H])c3[H])c(C(=O)N([H])[H])c2N([H])[H])C1([H])[H])C([H])([H])C([H])([H])[N+]([H])([H])C([H])([H])C([H])([H])N([H])C([H])([H])C([H])([H])Oc1c([H])c([H])c2c(c1[H])C([H])([H])N(C(=O)C([H])(N([H])C(=O)C([H])(N([H])C([H])([H])[H])C([H])([H])[H])C(C([H])([H])[H])(C([H])([H])[H])C([H])([H])[H])C([H])(C(=O)N([H])C1([H])c3c([H])c([H])c([H])c([H])c3C([H])([H])C([H])([H])C1([H])[H])C2([H])[H]

$$$$
45:0:0
     RDKit          3D

104113  0  0  1  0  0  0  0  0999 V2000
  -27.5540  -19.2530   20.3750 C   0  0  0  0  0  3  0  0  0  0  0  0
  -28.0010  -17.9210   20.4260 C   0  0  0  0  0  3  0  0  0  0  0  0
  -28.9600  -22.6910   20.9660 C   0  0  0  0  0  3  0  0  0  0  0  0
  -30.2860  -22.3780   21.2840 C   0  0  0  0  0  3  0  0  0  0  0  0
  -30.1870  -18.6520   21.1750 C   0  0  0  0  0  3  0  0  0  0  0  0
  -28.4370  -20.3160   20.6900 C   0  0  0  0  0  0  0  0  0  0  0  0
  -29.7700  -20.0000   21.0740 C   0  0  0  0  0  0  0  0  0  0  0  0
  -29.3130  -17.6000   20.8260 C   0  0  0  0  0  0  0  0  0  0  0  0
  -28.0290  -21.6790   20.6460 C   0  0  0  0  0  0  0  0  0  0  0  0
  -30.6900  -21.0350   21.3540 C   0  0  0  0  0  0  0  0  0  0  0  0
  -31.9750  -20.7500   21.6770 F   0  0  0  0  0  0  0  0  0  0  0  0
  -29.7460  -16.1270   20.8910 C   0  0  0  0  0  2  0  0  0  0  0  0
  -31.2210  -14.3860   19.7780 C   0  0  0  0  0  0  0  0  0  0  0  0
  -30.8320  -12.0790   18.9600 C   0  0  0  0  0  2  0  0  0  0  0  0
  -29.8330  -12.0860   17.7810 C   0  0  0  0  0  2  0  0  0  0  0  0
  -28.3770  -12.0320   18.2840 C   0  0  0  0  0  2  0  0  0  0  0  0
  -28.1020  -13.0310   19.4430 C   0  0  0  0  0  3  0  0  0  0  0  0
  -29.2180  -12.9390   20.5100 C   0  0  0  0  0  2  0  0  0  0  0  0
  -30.4890  -13.2250   19.8290 N   0  0  0  0  0  0  0  0  0  0  0  0
  -32.3710  -14.3610   19.3280 O   0  0  0  0  0  0  0  0  0  0  0  0
  -30.5770  -15.6040   19.7680 N   0  0  0  0  0  0  0  0  0  0  0  0
  -25.8260  -13.7820   20.3750 C   0  0  0  0  0  0  0  0  0  0  0  0
  -24.7210  -13.0800   20.7850 C   0  0  0  0  0  0  0  0  0  0  0  0
  -25.0580  -11.7020   20.6350 C   0  0  0  0  0  0  0  0  0  0  0  0
  -26.7710  -12.8360   20.0140 N   0  0  0  0  0  0  0  0  0  0  0  0
  -26.3130  -11.5730   20.2200 N   0  0  0  0  0  0  0  0  0  0  0  0
  -24.2350  -10.4980   20.8100 C   0  0  0  0  0  0  0  0  0  0  0  0
  -24.6240   -9.4630   21.6860 C   0  0  0  0  0  3  0  0  0  0  0  0
  -23.8100   -8.3220   21.8500 C   0  0  0  0  0  3  0  0  0  0  0  0
  -22.5930   -8.2100   21.1350 C   0  0  0  0  0  0  0  0  0  0  0  0
  -22.2210   -9.2370   20.2500 C   0  0  0  0  0  3  0  0  0  0  0  0
  -23.0350  -10.3700   20.0860 C   0  0  0  0  0  3  0  0  0  0  0  0
  -21.7510   -7.1270   21.2080 O   0  0  0  0  0  0  0  0  0  0  0  0
  -21.6480   -6.3740   22.3480 C   0  0  0  0  0  0  0  0  0  0  0  0
  -21.2540   -6.9390   23.5820 C   0  0  0  0  0  3  0  0  0  0  0  0
  -21.0980   -6.1170   24.7150 C   0  0  0  0  0  3  0  0  0  0  0  0
  -21.3200   -4.7300   24.6170 C   0  0  0  0  0  0  0  0  0  0  0  0
  -21.7010   -4.1640   23.3870 C   0  0  0  0  0  3  0  0  0  0  0  0
  -21.8620   -4.9840   22.2570 C   0  0  0  0  0  0  0  0  0  0  0  0
  -22.2120   -4.4310   21.0700 F   0  0  0  0  0  0  0  0  0  0  0  0
  -21.1600   -3.9390   25.7030 F   0  0  0  0  0  0  0  0  0  0  0  0
  -23.4010  -13.6630   21.2010 C   0  0  0  0  0  0  0  0  0  0  0  0
  -22.6880  -13.0010   22.1060 N   0  0  0  0  0  0  0  0  0  0  0  0
  -23.0100  -14.7450   20.7610 O   0  0  0  0  0  0  0  0  0  0  0  0
  -23.0100  -12.1310   22.5030 H   0  0  0  0  0  0  0  0  0  0  0  0
  -21.8090  -13.3890   22.4200 H   0  0  0  0  0  0  0  0  0  0  0  0
  -26.1000  -15.1360   20.2660 N   0  0  0  0  0  0  0  0  0  0  0  0
  -25.4200  -15.8600   20.4770 H   0  0  0  0  0  0  0  0  0  0  0  0
  -26.9780  -15.4920   19.9160 H   0  0  0  0  0  0  0  0  0  0  0  0
  -31.0300  -16.6220   18.7710 C   0  0  0  0  0  2  0  0  0  0  0  0
  -32.2210  -17.5180   19.2320 C   0  0  0  0  0  2  0  0  0  0  0  0
  -32.6340  -18.5300   18.2270 N   0  0  0  0  0  4  0  0  0  0  0  0
  -32.7340  -18.1400   17.3050 H   0  0  0  0  0  0  0  0  0  0  0  0
  -33.5250  -18.9200   18.4890 H   0  0  0  0  0  0  0  0  0  0  0  0
  -31.9800  -19.2910   18.1770 H   0  0  0  0  0  0  0  0  0  0  0  0
  -26.6000  -22.1400   20.3530 C   0  0  0  0  0  2  0  0  0  0  0  0
  -26.3620  -22.9040   19.0880 N   0  0  1  0  0  4  0  0  0  0  0  0
  -26.2900  -22.1520   18.4170 H   0  0  0  0  0  0  0  0  0  0  0  0
  -24.4620  -24.2940   20.2220 C   0  0  0  0  0  1  0  0  0  0  0  0
  -25.0100  -23.5470   18.9740 C   0  0  0  0  0  2  0  0  0  0  0  0
  -27.4920  -23.6700   18.4670 C   0  0  0  0  0  2  0  0  0  0  0  0
  -27.9710  -24.9200   19.2520 C   0  0  0  0  0  2  0  0  0  0  0  0
  -28.2790  -26.1670   18.3900 C   0  0  0  0  0  2  0  0  0  0  0  0
  -28.2440  -27.3880   19.1500 O   0  0  0  0  0  0  0  0  0  0  0  0
  -24.4030  -31.8270   23.1950 C   0  0  0  0  0  0  0  0  0  0  0  0
  -27.0310  -28.0220   19.3340 C   0  0  0  0  0  0  0  0  0  0  0  0
  -23.1450  -30.5620   21.4840 C   0  0  0  0  0  3  0  0  0  0  0  0
  -24.5590  -29.3390   19.7580 C   0  0  0  0  0  0  0  0  0  0  0  0
  -25.6240  -31.1140   21.1510 C   0  0  0  0  0  2  0  0  0  0  0  0
  -25.7310  -29.8520   20.3230 C   0  0  0  0  0  0  0  0  0  0  0  0
  -26.9660  -29.1900   20.1290 C   0  0  0  0  0  3  0  0  0  0  0  0
  -25.8340  -27.5410   18.7530 C   0  0  0  0  0  3  0  0  0  0  0  0
  -24.6030  -28.1740   18.9820 C   0  0  0  0  0  3  0  0  0  0  0  0
  -23.2700  -30.0840   20.0180 C   0  0  0  0  0  2  0  0  0  0  0  0
  -24.4110  -31.1750   22.0000 N   0  0  0  0  0  0  0  0  0  0  0  0
  -23.3530  -31.9660   23.8400 O   0  0  0  0  0  0  0  0  0  0  0  0
  -22.6430  -29.3780   22.3390 C   0  0  0  0  0  0  0  0  0  0  0  0
  -21.3370  -29.0870   22.2410 N   0  0  0  0  0  0  0  0  0  0  0  0
  -23.4210  -28.7300   23.0450 O   0  0  0  0  0  0  0  0  0  0  0  0
  -20.7560  -29.6790   21.6650 H   0  0  0  0  0  0  0  0  0  0  0  0
  -18.1490  -27.4330   22.6120 C   0  0  0  0  0  0  0  0  0  0  0  0
  -20.6510  -27.9890   22.9230 C   0  0  0  0  0  3  0  0  0  0  0  0
  -20.9390  -26.6320   22.2330 C   0  0  0  0  0  2  0  0  0  0  0  0
  -19.8830  -26.2470   21.1910 C   0  0  0  0  0  2  0  0  0  0  0  0
  -18.4900  -26.1770   21.8290 C   0  0  0  0  0  2  0  0  0  0  0  0
  -19.1620  -28.2960   23.1060 C   0  0  0  0  0  0  0  0  0  0  0  0
  -18.7870  -29.4750   23.7870 C   0  0  0  0  0  3  0  0  0  0  0  0
  -17.4300  -29.7950   23.9780 C   0  0  0  0  0  3  0  0  0  0  0  0
  -16.4290  -28.9270   23.5040 C   0  0  0  0  0  3  0  0  0  0  0  0
  -16.7910  -27.7480   22.8280 C   0  0  0  0  0  3  0  0  0  0  0  0
  -25.6990  -32.4580   23.7930 C   0  0  0  0  0  3  0  0  0  0  0  0
  -26.2500  -31.6760   25.0490 C   0  0  1  0  0  0  0  0  0  0  0  0
  -25.1760  -31.4430   26.1360 C   0  0  0  0  0  1  0  0  0  0  0  0
  -26.8200  -30.2960   24.6370 C   0  0  0  0  0  1  0  0  0  0  0  0
  -27.4220  -32.4650   25.6820 C   0  0  0  0  0  1  0  0  0  0  0  0
  -25.3900  -33.8520   24.1390 N   0  0  0  0  0  0  0  0  0  0  0  0
  -25.7300  -34.9090   23.3910 C   0  0  0  0  0  0  0  0  0  0  0  0
  -26.4090  -34.8170   22.3660 O   0  0  0  0  0  0  0  0  0  0  0  0
  -24.7840  -34.0050   24.9310 H   0  0  0  0  0  0  0  0  0  0  0  0
  -24.0200  -36.7100   23.0110 C   0  0  0  0  0  1  0  0  0  0  0  0
  -25.2330  -36.2890   23.8550 C   0  0  0  0  0  3  0  0  0  0  0  0
  -27.3430  -37.1450   24.7730 C   0  0  0  0  0  1  0  0  0  0  0  0
  -26.2750  -37.3370   23.7960 N   0  0  0  0  0  0  0  0  0  0  0  0
  -25.8640  -38.2560   23.9480 H   0  0  0  0  0  0  0  0  0  0  0  0
  1  2  2  0
  1  6  1  0
  2  8  1  0
  3  4  1  0
  4 10  2  0
  6  7  2  0
  7  5  1  0
  7 10  1  0
  8 12  1  0
  8  5  2  0
  9  6  1  0
  9  3  2  0
 10 11  1  0
 13 19  1  0
 14 19  1  0
 15 16  1  0
 15 14  1  0
 17 16  1  0
 17 25  1  0
 17 18  1  0
 19 18  1  0
 20 13  2  0
 21 13  1  0
 21 12  1  0
 22 23  2  0
 23 42  1  0
 24 23  1  0
 24 27  1  0
 25 26  1  0
 25 22  1  0
 26 24  2  0
 27 28  1  0
 28 29  2  0
 30 33  1  0
 30 29  1  0
 31 30  2  0
 32 31  1  0
 32 27  2  0
 33 34  1  0
 34 35  1  0
 35 36  2  0
 37 36  1  0
 37 41  1  0
 38 37  2  0
 39 34  2  0
 39 38  1  0
 40 39  1  0
 42 43  1  0
 43 46  1  0
 43 45  1  0
 44 42  2  0
 47 22  1  0
 47 48  1  0
 49 47  1  0
 50 51  1  0
 50 21  1  0
 52 54  1  0
 52 51  1  0
 53 52  1  0
 55 52  1  0
 56  9  1  0
 57 56  1  0
 57 58  1  6
 60 57  1  0
 60 59  1  0
 61 57  1  0
 61 62  1  0
 63 64  1  0
 63 62  1  0
 64 66  1  0
 65 76  2  0
 66 71  1  0
 67 75  1  0
 67 77  1  0
 68 74  1  0
 68 70  1  0
 69 75  1  0
 70 69  1  0
 71 70  2  0
 72 73  1  0
 72 66  2  0
 73 68  2  0
 74 67  1  0
 75 65  1  0
 77 79  2  0
 78 77  1  0
 80 78  1  0
 81 90  2  0
 81 86  1  0
 82 78  1  0
 82 86  1  0
 83 82  1  0
 84 85  1  0
 84 83  1  0
 85 81  1  0
 86 87  2  0
 87 88  1  0
 89 88  2  0
 90 89  1  0
 91 65  1  0
 91 96  1  0
 91 92  1  0
 92 95  1  1
 92 93  1  0
 94 92  1  0
 96 99  1  0
 97101  1  0
 97 96  1  0
 98 97  2  0
101100  1  0
103101  1  0
103104  1  0
103102  1  0
M  ISO  4  13 100  21 100  63 101  64 101
M  END
>  <TORSDO>  (46) 
F 26

>  <SCORE>  (46) 
-11.098

>  <name>  (46) 
45

>  <ligand_id>  (46) 
45

>  <original_smiles>  (46) 
[H]c1c([H])c([H])c2c(c1[H])C([H])([H])C([H])([H])C([H])([H])C2([H])N([H])C(=O)C1([H])N(C(=O)C([H])(N([H])C(=O)C([H])(N([H])C([H])([H])[H])C([H])([H])[H])C(C([H])([H])[H])(C([H])([H])[H])C([H])([H])[H])C([H])([H])c2c([H])c(OC([H])([H])C([H])([H])C([H])([H])[N+]([H])(C([H])([H])c3c([H])c([H])c(F)c4c([H])c(C([H])([H])N(C(=O)N5C([H])([H])C([H])([H])C([H])([H])C([H])(n6nc(-c7c([H])c([H])c(Oc8c([H])c([H])c(F)c([H])c8F)c([H])c7[H])c(C(=O)N([H])[H])c6N([H])[H])C5([H])[H])C([H])([H])C([H])([H])[N+]([H])([H])[H])c([H])c([H])c34)C([H])([H])C([H])([H])[H])c([H])c([H])c2C1([H])[H]

>  <smiles>  (46) 
[H]c1c([H])c([H])c2c(c1[H])C([H])([H])C([H])([H])C([H])([H])C2([H])N([H])C(=O)C1([H])N(C(=O)C([H])(N([H])C(=O)C([H])(N([H])C([H])([H])[H])C([H])([H])[H])C(C([H])([H])[H])(C([H])([H])[H])C([H])([H])[H])C([H])([H])c2c([H])c(OC([H])([H])C([H])([H])C([H])([H])[N+]([H])(C([H])([H])c3c([H])c([H])c(F)c4c([H])c(C([H])([H])N(C(=O)N5C([H])([H])C([H])([H])C([H])([H])C([H])(n6nc(-c7c([H])c([H])c(Oc8c([H])c([H])c(F)c([H])c8F)c([H])c7[H])c(C(=O)N([H])[H])c6N([H])[H])C5([H])[H])C([H])([H])C([H])([H])[N+]([H])([H])[H])c([H])c([H])c34)C([H])([H])C([H])([H])[H])c([H])c([H])c2C1([H])[H]

$$$$
46:0:0
     RDKit          3D

 91 95  0  0  1  0  0  0  0  0999 V2000
  -27.4570  -21.8060   19.3780 C   0  0  0  0  0  2  0  0  0  0  0  0
  -26.1820  -20.9940   20.7860 C   0  0  0  0  0  2  0  0  0  0  0  0
  -24.7790  -22.5300   18.9220 C   0  0  0  0  0  2  0  0  0  0  0  0
  -27.4090  -19.9750   19.7950 C   0  0  0  0  0  2  0  0  0  0  0  0
  -26.1100  -23.2080   19.1700 C   0  0  2  0  0  0  0  0  0  0  0  0
  -24.9970  -22.4950   20.4190 C   0  0  1  0  0  0  0  0  0  0  0  0
  -25.0770  -24.2500   20.1720 N   0  0  0  0  0  0  0  0  0  0  0  0
  -24.4580  -24.1630   19.3820 H   0  0  0  0  0  0  0  0  0  0  0  0
  -29.6050  -16.7910   19.6580 C   0  0  0  0  0  0  0  0  0  0  0  0
  -30.4500  -14.1300   18.9010 C   0  0  0  0  0  2  0  0  0  0  0  0
  -29.7040  -13.2550   17.8160 C   0  0  0  0  0  2  0  0  0  0  0  0
  -28.3940  -12.6810   18.3650 C   0  0  0  0  0  2  0  0  0  0  0  0
  -27.7850  -13.7180   19.3200 C   0  0  0  0  0  3  0  0  0  0  0  0
  -28.7330  -14.2800   20.3870 C   0  0  0  0  0  2  0  0  0  0  0  0
  -29.5580  -15.2390   19.6330 N   0  0  0  0  0  0  0  0  0  0  0  0
  -30.8590  -16.8380   19.3880 O   0  0  0  0  0  0  0  0  0  0  0  0
  -28.4250  -18.1150   19.8220 N   0  0  0  0  0  2  0  0  0  0  0  0
  -27.6470  -17.5250   20.0940 H   0  0  0  0  0  0  0  0  0  0  0  0
  -25.5820  -14.2630   20.3220 C   0  0  0  0  0  0  0  0  0  0  0  0
  -24.5530  -13.4970   20.7690 C   0  0  0  0  0  0  0  0  0  0  0  0
  -24.9810  -12.1380   20.6330 C   0  0  0  0  0  0  0  0  0  0  0  0
  -26.5450  -13.3650   19.9240 N   0  0  0  0  0  0  0  0  0  0  0  0
  -26.2270  -12.0780   20.1820 N   0  0  0  0  0  0  0  0  0  0  0  0
  -24.2430  -10.8910   20.8330 C   0  0  0  0  0  0  0  0  0  0  0  0
  -24.6890   -9.9060   21.7380 C   0  0  0  0  0  3  0  0  0  0  0  0
  -23.9410   -8.7240   21.9260 C   0  0  0  0  0  3  0  0  0  0  0  0
  -22.7390   -8.5250   21.2060 C   0  0  0  0  0  0  0  0  0  0  0  0
  -22.3160   -9.5000   20.2870 C   0  0  0  0  0  3  0  0  0  0  0  0
  -23.0620  -10.6730   20.0960 C   0  0  0  0  0  3  0  0  0  0  0  0
  -21.9590   -7.4010   21.3080 O   0  0  0  0  0  0  0  0  0  0  0  0
  -21.8680   -6.6930   22.4780 C   0  0  0  0  0  0  0  0  0  0  0  0
  -21.4080   -7.2860   23.6750 C   0  0  0  0  0  3  0  0  0  0  0  0
  -21.2660   -6.5040   24.8370 C   0  0  0  0  0  3  0  0  0  0  0  0
  -21.5730   -5.1300   24.8050 C   0  0  0  0  0  0  0  0  0  0  0  0
  -22.0290   -4.5380   23.6130 C   0  0  0  0  0  3  0  0  0  0  0  0
  -22.1730   -5.3180   22.4530 C   0  0  0  0  0  0  0  0  0  0  0  0
  -22.5910   -4.7390   21.3010 F   0  0  0  0  0  0  0  0  0  0  0  0
  -21.4300   -4.3760   25.9190 F   0  0  0  0  0  0  0  0  0  0  0  0
  -23.2090  -14.0060   21.1800 C   0  0  0  0  0  0  0  0  0  0  0  0
  -22.5420  -13.3030   22.0850 N   0  0  0  0  0  0  0  0  0  0  0  0
  -22.7690  -15.0640   20.7320 O   0  0  0  0  0  0  0  0  0  0  0  0
  -22.9220  -12.4480   22.4660 H   0  0  0  0  0  0  0  0  0  0  0  0
  -21.6400  -13.6240   22.4060 H   0  0  0  0  0  0  0  0  0  0  0  0
  -25.7700  -15.6380   20.1750 N   0  0  0  0  0  0  0  0  0  0  0  0
  -24.9450  -16.2210   20.2750 H   0  0  0  0  0  0  0  0  0  0  0  0
  -26.3710  -15.9590   19.4290 H   0  0  0  0  0  0  0  0  0  0  0  0
  -23.7350  -25.8200   20.0280 C   0  0  0  0  0 15  0  0  0  0  0  0
  -22.0780  -28.2230   19.2550 C   0  0  0  0  0  3  0  0  0  0  0  0
  -22.7730  -27.8200   20.3310 C   0  0  0  0  0  3  0  0  0  0  0  0
  -22.9000  -29.4960   22.0780 C   0  0  0  0  0 15  0  0  0  0  0  0
  -25.3310  -28.9110   22.8850 O   0  0  0  0  0  1  0  0  0  0  0  0
  -24.5140  -31.4930   22.8390 C   0  0  0  0  0  0  0  0  0  0  0  0
  -26.6230  -28.1910   22.1510 C   0  0  0  0  0  3  0  0  0  0  0  0
  -24.5080  -28.8500   20.9710 C   0  0  0  0  0  2  0  0  0  0  0  0
  -25.9820  -28.8820   19.6870 C   0  0  1  0  0  0  0  0  0  0  0  0
  -26.0410  -31.0600   20.9960 C   0  0  0  0  0  2  0  0  0  0  0  0
  -26.7040  -29.7840   20.5690 C   0  0  0  0  0  3  0  0  0  0  0  0
  -27.4360  -29.1820   21.6050 C   0  0  0  0  0  2  0  0  0  0  0  0
  -26.7100  -27.1370   21.0850 C   0  0  0  0  0  2  0  0  0  0  0  0
  -26.3400  -27.5100   19.7510 C   0  0  0  0  0  2  0  0  0  0  0  0
  -24.5020  -29.0510   19.5200 C   0  0  0  0  0  2  0  0  0  0  0  0
  -24.7980  -30.6560   21.5940 N   0  0  0  0  0  2  0  0  0  0  0  0
  -23.3630  -31.6840   23.2920 O   0  0  0  0  0  0  0  0  0  0  0  0
  -23.7490  -27.3020   22.8890 C   0  0  0  0  0  2  0  0  0  0  0  0
  -22.2850  -27.3460   23.3900 N   0  0  0  0  0  0  0  0  0  0  0  0
  -24.1100  -27.4030   24.0530 O   0  0  0  0  0  1  0  0  0  0  0  0
  -22.3460  -27.0870   24.3660 H   0  0  0  0  0  0  0  0  0  0  0  0
  -18.1450  -28.0730   22.5340 C   0  0  0  0  0  0  0  0  0  0  0  0
  -20.7200  -27.5750   23.0510 C   0  0  0  0  0  3  0  0  0  0  0  0
  -20.4090  -26.3230   22.3000 C   0  0  0  0  0  2  0  0  0  0  0  0
  -19.4470  -26.4960   21.1530 C   0  0  0  0  0  2  0  0  0  0  0  0
  -18.1070  -26.7850   21.7530 C   0  0  0  0  0  2  0  0  0  0  0  0
  -19.3790  -28.5850   23.1130 C   0  0  0  0  0  0  0  0  0  0  0  0
  -19.1640  -29.8410   23.7800 C   0  0  0  0  0  3  0  0  0  0  0  0
  -17.8770  -30.4770   23.8680 C   0  0  0  0  0  3  0  0  0  0  0  0
  -16.7190  -29.8980   23.3140 C   0  0  0  0  0  3  0  0  0  0  0  0
  -16.8710  -28.6880   22.6420 C   0  0  0  0  0  3  0  0  0  0  0  0
  -25.5330  -32.3610   23.8170 C   0  0  0  0  0  3  0  0  0  0  0  0
  -25.8220  -31.8040   25.3110 C   0  0  1  0  0  0  0  0  0  0  0  0
  -24.5590  -31.5900   26.1830 C   0  0  0  0  0  1  0  0  0  0  0  0
  -26.5740  -30.4680   25.2690 C   0  0  0  0  0  1  0  0  0  0  0  0
  -26.7490  -32.7590   26.1260 C   0  0  0  0  0  1  0  0  0  0  0  0
  -25.0760  -33.7800   24.0340 N   0  0  0  0  0  0  0  0  0  0  0  0
  -25.5910  -34.8940   23.4730 C   0  0  0  0  0  0  0  0  0  0  0  0
  -26.4750  -34.8280   22.6180 O   0  0  0  0  0  0  0  0  0  0  0  0
  -24.2970  -33.8910   24.6680 H   0  0  0  0  0  0  0  0  0  0  0  0
  -23.8670  -36.6710   22.9420 C   0  0  0  0  0  1  0  0  0  0  0  0
  -25.0360  -36.2940   23.8670 C   0  0  0  0  0  3  0  0  0  0  0  0
  -27.0420  -37.3240   24.8760 C   0  0  0  0  0  1  0  0  0  0  0  0
  -26.0390  -37.3900   23.8170 N   0  0  0  0  0  0  0  0  0  0  0  0
  -25.5830  -38.2970   23.8730 H   0  0  0  0  0  0  0  0  0  0  0  0
  1  4  1  0
  4  2  1  0
  5  3  1  1
  5  1  1  0
  5  7  1  0
  5  6  1  0
  6  3  1  6
  6  2  1  0
  7  6  1  0
  8  7  1  0
  9 17  1  0
 10 15  1  0
 11 12  1  0
 11 10  1  0
 13 12  1  0
 13 22  1  0
 13 14  1  0
 15  9  1  0
 15 14  1  0
 16  9  2  0
 17 18  1  0
 19 20  2  0
 20 39  1  0
 21 20  1  0
 21 24  1  0
 22 23  1  0
 22 19  1  0
 23 21  2  0
 24 25  1  0
 25 26  2  0
 27 30  1  0
 27 26  1  0
 28 27  2  0
 29 28  1  0
 29 24  2  0
 30 31  1  0
 31 32  1  0
 32 33  2  0
 34 33  1  0
 34 38  1  0
 35 34  2  0
 36 31  2  0
 36 35  1  0
 37 36  1  0
 39 40  1  0
 40 43  1  0
 40 42  1  0
 41 39  2  0
 44 45  1  0
 44 19  1  0
 46 44  1  0
 48 49  3  0
 52 63  2  0
 53 51  1  0
 55 60  1  6
 55 57  1  0
 55 54  1  0
 56 62  1  0
 57 56  1  0
 57 58  1  0
 58 53  1  0
 59 53  1  0
 60 59  1  0
 61 55  1  0
 61 54  1  0
 62 52  1  0
 64 65  1  0
 64 66  1  0
 65 67  1  0
 68 77  2  0
 68 73  1  0
 69 73  1  0
 69 65  1  0
 70 69  1  0
 71 72  1  0
 71 70  1  0
 72 68  1  0
 73 74  2  0
 74 75  1  0
 76 75  2  0
 77 76  1  0
 78 52  1  0
 78 83  1  0
 78 79  1  0
 79 82  1  1
 79 80  1  0
 81 79  1  0
 83 86  1  0
 84 88  1  0
 84 83  1  0
 85 84  2  0
 88 87  1  0
 90 88  1  0
 90 91  1  0
 90 89  1  0
M  ISO  4   9 100  17 100  50 101  51 101
M  END
>  <TORSDO>  (47) 
F 19

>  <SCORE>  (47) 
-10.765

>  <name>  (47) 
46

>  <ligand_id>  (47) 
46

>  <original_smiles>  (47) 
[H]C([H])=C(C([H])([H])Oc1c([H])c([H])c2c(c1[H])C([H])([H])N(C(=O)C([H])(N([H])C(=O)C([H])(N([H])C([H])([H])[H])C([H])([H])[H])C(C([H])([H])[H])(C([H])([H])[H])C([H])([H])[H])C([H])(C(=O)N([H])C1([H])c3c([H])c([H])c([H])c([H])c3C([H])([H])C([H])([H])C1([H])[H])C2([H])[H])C([H])([H])[N+]1([H])C2([H])C([H])([H])C([H])(N([H])C(=O)N3C([H])([H])C([H])([H])C([H])([H])C([H])(n4nc(-c5c([H])c([H])c(Oc6c([H])c([H])c(F)c([H])c6F)c([H])c5[H])c(C(=O)N([H])[H])c4N([H])[H])C3([H])[H])C([H])([H])C1([H])C2([H])[H]

>  <smiles>  (47) 
[H]C([H])=C(C([H])([H])Oc1c([H])c([H])c2c(c1[H])C([H])([H])N(C(=O)C([H])(N([H])C(=O)C([H])(N([H])C([H])([H])[H])C([H])([H])[H])C(C([H])([H])[H])(C([H])([H])[H])C([H])([H])[H])C([H])(C(=O)N([H])C1([H])c3c([H])c([H])c([H])c([H])c3C([H])([H])C([H])([H])C1([H])[H])C2([H])[H])C([H])([H])[N+]1([H])C2([H])C([H])([H])C([H])(N([H])C(=O)N3C([H])([H])C([H])([H])C([H])([H])C([H])(n4nc(-c5c([H])c([H])c(Oc6c([H])c([H])c(F)c([H])c6F)c([H])c5[H])c(C(=O)N([H])[H])c4N([H])[H])C3([H])[H])C([H])([H])C1([H])C2([H])[H]

$$$$
47:0:0
     RDKit          3D

102110  0  0  1  0  0  0  0  0999 V2000
  -29.7650  -18.7970   20.3160 N   0  0  0  0  0  4  0  0  0  0  0  0
  -29.4160  -18.5690   21.2350 H   0  0  0  0  0  0  0  0  0  0  0  0
  -30.6660  -19.2210   20.4570 H   0  0  0  0  0  0  0  0  0  0  0  0
  -28.7660  -19.7730   19.7960 C   0  0  0  0  0  2  0  0  0  0  0  0
  -29.2350  -20.6700   18.6180 C   0  0  0  0  0  2  0  0  0  0  0  0
  -29.8930  -22.0290   18.9740 C   0  0  0  0  0  2  0  0  0  0  0  0
  -28.9430  -23.0350   19.5100 N   0  0  0  0  0  4  0  0  0  0  0  0
  -28.6930  -22.7850   20.4550 H   0  0  0  0  0  0  0  0  0  0  0  0
  -28.0970  -23.0090   18.9600 H   0  0  0  0  0  0  0  0  0  0  0  0
  -29.4480  -24.4380   19.5040 C   0  0  0  0  0  2  0  0  0  0  0  0
  -28.5280  -25.3730   20.3210 C   0  0  0  0  0  2  0  0  0  0  0  0
  -28.5380  -26.7300   19.8400 O   0  0  0  0  0  0  0  0  0  0  0  0
  -24.6420  -31.6340   23.2480 C   0  0  0  0  0  0  0  0  0  0  0  0
  -27.3380  -27.4130   19.9120 C   0  0  0  0  0  0  0  0  0  0  0  0
  -23.4300  -30.2550   21.5890 C   0  0  0  0  0  3  0  0  0  0  0  0
  -24.8890  -28.8280   20.0600 C   0  0  0  0  0  0  0  0  0  0  0  0
  -25.9360  -30.7070   21.3330 C   0  0  0  0  0  2  0  0  0  0  0  0
  -26.0450  -29.3660   20.6380 C   0  0  0  0  0  0  0  0  0  0  0  0
  -27.2720  -28.6660   20.5630 C   0  0  0  0  0  3  0  0  0  0  0  0
  -26.1650  -26.9050   19.3050 C   0  0  0  0  0  3  0  0  0  0  0  0
  -24.9430  -27.5970   19.3870 C   0  0  0  0  0  3  0  0  0  0  0  0
  -23.6160  -29.6350   20.1790 C   0  0  0  0  0  2  0  0  0  0  0  0
  -24.6890  -30.8810   22.1140 N   0  0  0  0  0  0  0  0  0  0  0  0
  -23.5700  -31.8450   23.8320 O   0  0  0  0  0  0  0  0  0  0  0  0
  -22.8450  -29.1770   22.5300 C   0  0  0  0  0  0  0  0  0  0  0  0
  -21.5690  -28.8190   22.3130 N   0  0  0  0  0  0  0  0  0  0  0  0
  -23.5420  -28.6610   23.4070 O   0  0  0  0  0  0  0  0  0  0  0  0
  -21.0580  -29.3020   21.5860 H   0  0  0  0  0  0  0  0  0  0  0  0
  -18.3960  -27.1000   22.5030 C   0  0  0  0  0  0  0  0  0  0  0  0
  -20.8250  -27.7950   23.0480 C   0  0  0  0  0  3  0  0  0  0  0  0
  -21.2260  -26.3740   22.5900 C   0  0  0  0  0  2  0  0  0  0  0  0
  -20.3260  -25.8210   21.4800 C   0  0  0  0  0  2  0  0  0  0  0  0
  -18.8680  -25.7650   21.9490 C   0  0  0  0  0  2  0  0  0  0  0  0
  -19.3150  -28.0580   23.0050 C   0  0  0  0  0  0  0  0  0  0  0  0
  -18.8280  -29.2970   23.4740 C   0  0  0  0  0  3  0  0  0  0  0  0
  -17.4490  -29.5810   23.4510 C   0  0  0  0  0  3  0  0  0  0  0  0
  -16.5420  -28.6230   22.9690 C   0  0  0  0  0  3  0  0  0  0  0  0
  -17.0140  -27.3850   22.5000 C   0  0  0  0  0  3  0  0  0  0  0  0
  -25.9240  -32.2850   23.8540 C   0  0  0  0  0  3  0  0  0  0  0  0
  -25.6060  -33.6840   24.1690 N   0  0  0  0  0  0  0  0  0  0  0  0
  -25.9260  -34.7320   23.3980 C   0  0  0  0  0  0  0  0  0  0  0  0
  -26.5960  -34.6210   22.3660 O   0  0  0  0  0  0  0  0  0  0  0  0
  -25.0230  -33.8450   24.9790 H   0  0  0  0  0  0  0  0  0  0  0  0
  -24.1830  -36.5040   23.0200 C   0  0  0  0  0  1  0  0  0  0  0  0
  -25.4270  -36.1220   23.8390 C   0  0  0  0  0  3  0  0  0  0  0  0
  -27.5590  -37.0260   24.6580 C   0  0  0  0  0  1  0  0  0  0  0  0
  -26.4520  -37.1820   23.7160 N   0  0  0  0  0  0  0  0  0  0  0  0
  -26.0420  -38.1020   23.8560 H   0  0  0  0  0  0  0  0  0  0  0  0
  -26.4600  -31.5320   25.1330 C   0  0  1  0  0  0  0  0  0  0  0  0
  -25.3740  -31.2580   26.1970 C   0  0  0  0  0  1  0  0  0  0  0  0
  -27.0900  -30.1750   24.7430 C   0  0  0  0  0  1  0  0  0  0  0  0
  -27.5760  -32.3680   25.8010 C   0  0  0  0  0  1  0  0  0  0  0  0
  -29.8750  -17.4750   19.6230 C   0  0  0  0  0  3  0  0  0  0  0  0
  -30.2250  -14.2480   19.3180 C   0  0  0  0  0  0  0  0  0  0  0  0
  -29.4380  -12.4140   17.8500 C   0  0  0  0  0  2  0  0  0  0  0  0
  -28.2780  -12.8430   16.9300 C   0  0  0  0  0  2  0  0  0  0  0  0
  -26.9270  -12.6480   17.6390 C   0  0  0  0  0  2  0  0  0  0  0  0
  -26.9110  -13.2790   19.0530 C   0  0  0  0  0  3  0  0  0  0  0  0
  -28.1550  -12.8620   19.8600 C   0  0  0  0  0  2  0  0  0  0  0  0
  -29.3710  -13.2000   19.0960 N   0  0  0  0  0  0  0  0  0  0  0  0
  -31.0700  -14.5710   18.4850 O   0  0  0  0  0  0  0  0  0  0  0  0
  -32.5220  -15.3340   21.7360 C   0  0  0  0  0  2  0  0  0  0  0  0
  -31.4440  -14.6710   22.5970 C   0  0  0  0  0  2  0  0  0  0  0  0
  -31.9550  -16.5110   20.9250 C   0  0  0  0  0  2  0  0  0  0  0  0
  -30.2060  -14.2450   21.7680 C   0  0  0  0  0  2  0  0  0  0  0  0
  -30.4340  -16.4020   20.6460 C   0  0  0  0  0  3  0  0  0  0  0  0
  -30.0750  -14.9620   20.4690 N   0  0  0  0  0  0  0  0  0  0  0  0
  -24.7070  -13.8150   20.2720 C   0  0  0  0  0  0  0  0  0  0  0  0
  -23.7410  -13.0120   20.8140 C   0  0  0  0  0  0  0  0  0  0  0  0
  -24.1930  -11.6700   20.6270 C   0  0  0  0  0  0  0  0  0  0  0  0
  -25.6840  -12.9610   19.7830 N   0  0  0  0  0  0  0  0  0  0  0  0
  -25.3930  -11.6640   20.0550 N   0  0  0  0  0  0  0  0  0  0  0  0
  -23.5310  -10.3900   20.9000 C   0  0  0  0  0  0  0  0  0  0  0  0
  -24.1050   -9.4330   21.7640 C   0  0  0  0  0  3  0  0  0  0  0  0
  -23.4430   -8.2140   22.0250 C   0  0  0  0  0  3  0  0  0  0  0  0
  -22.1920   -7.9440   21.4230 C   0  0  0  0  0  0  0  0  0  0  0  0
  -21.6330   -8.8920   20.5470 C   0  0  0  0  0  3  0  0  0  0  0  0
  -22.2960  -10.1020   20.2850 C   0  0  0  0  0  3  0  0  0  0  0  0
  -21.4860   -6.7790   21.5970 O   0  0  0  0  0  0  0  0  0  0  0  0
  -21.5630   -6.0540   22.7600 C   0  0  0  0  0  0  0  0  0  0  0  0
  -21.2470   -6.6230   24.0120 C   0  0  0  0  0  3  0  0  0  0  0  0
  -21.2730   -5.8250   25.1740 C   0  0  0  0  0  3  0  0  0  0  0  0
  -21.6020   -4.4590   25.0840 C   0  0  0  0  0  0  0  0  0  0  0  0
  -21.9110   -3.8900   23.8350 C   0  0  0  0  0  3  0  0  0  0  0  0
  -21.8870   -4.6850   22.6760 C   0  0  0  0  0  0  0  0  0  0  0  0
  -22.1630   -4.1270   21.4730 F   0  0  0  0  0  0  0  0  0  0  0  0
  -21.6210   -3.6900   26.1970 F   0  0  0  0  0  0  0  0  0  0  0  0
  -22.4260  -13.4570   21.3880 C   0  0  0  0  0  0  0  0  0  0  0  0
  -21.9070  -12.7310   22.3730 N   0  0  0  0  0  0  0  0  0  0  0  0
  -21.8700  -14.4800   20.9920 O   0  0  0  0  0  0  0  0  0  0  0  0
  -22.3730  -11.9040   22.7140 H   0  0  0  0  0  0  0  0  0  0  0  0
  -21.0290  -13.0070   22.7900 H   0  0  0  0  0  0  0  0  0  0  0  0
  -24.8280  -15.1930   20.1350 N   0  0  0  0  0  0  0  0  0  0  0  0
  -24.1050  -15.8330   20.4470 H   0  0  0  0  0  0  0  0  0  0  0  0
  -25.6020  -15.6590   19.6820 H   0  0  0  0  0  0  0  0  0  0  0  0
  -30.6110  -17.6620   18.2520 C   0  0  0  0  0  2  0  0  0  0  0  0
  -31.9510  -18.4550   18.2550 C   0  0  0  0  0  2  0  0  0  0  0  0
  -33.0240  -17.8450   17.3260 C   0  0  0  0  0  2  0  0  0  0  0  0
  -34.3710  -18.4060   17.5520 N   0  0  0  0  0  4  0  0  0  0  0  0
  -34.3960  -19.3980   17.3950 H   0  0  0  0  0  0  0  0  0  0  0  0
  -35.0260  -17.9810   16.9160 H   0  0  0  0  0  0  0  0  0  0  0  0
  -34.6900  -18.2180   18.4860 H   0  0  0  0  0  0  0  0  0  0  0  0
  1  3  1  0
  1  2  1  0
  4  1  1  0
  5  6  1  0
  5  4  1  0
  6  7  1  0
  7  8  1  0
  9  7  1  0
 10  7  1  0
 10 11  1  0
 12 14  1  0
 12 11  1  0
 13 24  2  0
 14 19  1  0
 15 23  1  0
 15 25  1  0
 16 22  1  0
 16 18  1  0
 17 23  1  0
 18 17  1  0
 19 18  2  0
 20 21  1  0
 20 14  2  0
 21 16  2  0
 22 15  1  0
 23 13  1  0
 25 27  2  0
 26 25  1  0
 28 26  1  0
 29 34  1  0
 30 26  1  0
 31 30  1  0
 32 33  1  0
 32 31  1  0
 33 29  1  0
 34 30  1  0
 34 35  2  0
 36 35  1  0
 37 36  2  0
 38 29  2  0
 38 37  1  0
 39 13  1  0
 39 40  1  0
 39 49  1  0
 40 43  1  0
 41 45  1  0
 41 40  1  0
 42 41  2  0
 45 44  1  0
 47 45  1  0
 47 48  1  0
 47 46  1  0
 49 52  1  1
 49 50  1  0
 51 49  1  0
 53 96  1  0
 53  1  1  0
 54 67  1  0
 55 60  1  0
 56 57  1  0
 56 55  1  0
 58 57  1  0
 58 71  1  0
 58 59  1  0
 60 54  1  0
 60 59  1  0
 61 54  2  0
 62 63  1  0
 64 62  1  0
 65 63  1  0
 66 53  1  0
 66 64  1  0
 67 66  1  0
 67 65  1  0
 68 69  2  0
 69 88  1  0
 70 69  1  0
 70 73  1  0
 71 72  1  0
 71 68  1  0
 72 70  2  0
 73 74  1  0
 74 75  2  0
 76 79  1  0
 76 75  1  0
 77 76  2  0
 78 77  1  0
 78 73  2  0
 79 80  1  0
 80 81  1  0
 81 82  2  0
 83 82  1  0
 83 87  1  0
 84 83  2  0
 85 80  2  0
 85 84  1  0
 86 85  1  0
 88 89  1  0
 89 91  1  0
 89 92  1  0
 90 88  2  0
 93 68  1  0
 93 94  1  0
 95 93  1  0
 96 97  1  0
 98 99  1  0
 98 97  1  0
 99102  1  0
100 99  1  0
101 99  1  0
M  ISO  4  11 101  12 101  54 100  67 100
M  END
>  <TORSDO>  (48) 
F 27

>  <SCORE>  (48) 
-5.691

>  <name>  (48) 
47

>  <ligand_id>  (48) 
47

>  <original_smiles>  (48) 
[H]c1c([H])c([H])c2c(c1[H])C([H])([H])C([H])([H])C([H])([H])C2([H])N([H])C(=O)C1([H])N(C(=O)C([H])(N([H])C(=O)C([H])(N([H])C([H])([H])[H])C([H])([H])[H])C(C([H])([H])[H])(C([H])([H])[H])C([H])([H])[H])C([H])([H])c2c([H])c(OC([H])([H])C([H])([H])[N+]([H])([H])C([H])([H])C([H])([H])C([H])([H])[N+]([H])([H])C([H])(C([H])([H])C([H])([H])C([H])([H])[N+]([H])([H])[H])C3([H])N(C(=O)N4C([H])([H])C([H])([H])C([H])([H])C([H])(n5nc(-c6c([H])c([H])c(Oc7c([H])c([H])c(F)c([H])c7F)c([H])c6[H])c(C(=O)N([H])[H])c5N([H])[H])C4([H])[H])C([H])([H])C([H])([H])C([H])([H])C3([H])[H])c([H])c([H])c2C1([H])[H]

>  <smiles>  (48) 
[H]c1c([H])c([H])c2c(c1[H])C([H])([H])C([H])([H])C([H])([H])C2([H])N([H])C(=O)C1([H])N(C(=O)C([H])(N([H])C(=O)C([H])(N([H])C([H])([H])[H])C([H])([H])[H])C(C([H])([H])[H])(C([H])([H])[H])C([H])([H])[H])C([H])([H])c2c([H])c(OC([H])([H])C([H])([H])[N+]([H])([H])C([H])([H])C([H])([H])C([H])([H])[N+]([H])([H])C([H])(C([H])([H])C([H])([H])C([H])([H])[N+]([H])([H])[H])C3([H])N(C(=O)N4C([H])([H])C([H])([H])C([H])([H])C([H])(n5nc(-c6c([H])c([H])c(Oc7c([H])c([H])c(F)c([H])c7F)c([H])c6[H])c(C(=O)N([H])[H])c5N([H])[H])C4([H])[H])C([H])([H])C([H])([H])C([H])([H])C3([H])[H])c([H])c([H])c2C1([H])[H]

$$$$
48:0:0
     RDKit          3D

 86 93  0  0  1  0  0  0  0  0999 V2000
  -30.4190  -16.4220   19.8950 C   0  0  0  0  0  0  0  0  0  0  0  0
  -30.7100  -13.7460   19.2170 C   0  0  0  0  0  2  0  0  0  0  0  0
  -29.8820  -12.9980   18.1190 C   0  0  0  0  0  2  0  0  0  0  0  0
  -28.5340  -12.5090   18.6610 C   0  0  0  0  0  2  0  0  0  0  0  0
  -27.9270  -13.5730   19.5910 C   0  0  0  0  0  3  0  0  0  0  0  0
  -28.9250  -14.1950   20.6120 C   0  0  0  0  0  2  0  0  0  0  0  0
  -29.9570  -14.9720   19.8400 N   0  0  0  0  0  0  0  0  0  0  0  0
  -31.6680  -16.2620   19.8830 O   0  0  0  0  0  0  0  0  0  0  0  0
  -29.1630  -20.8180   22.2090 C   0  0  0  0  0  2  0  0  0  0  0  0
  -30.2340  -19.8880   21.6210 C   0  0  0  0  0  2  0  0  0  0  0  0
  -28.0320  -20.9330   21.1780 C   0  0  0  0  0  2  0  0  0  0  0  0
  -28.1850  -20.0890   18.7910 C   0  0  0  0  0  2  0  0  0  0  0  0
  -28.4510  -18.4370   19.1160 C   0  0  0  0  0  2  0  0  0  0  0  0
  -29.9080  -19.7190   20.1300 C   0  0  0  0  0  3  0  0  0  0  0  0
  -28.7060  -21.2280   19.8160 C   0  0  0  0  0  3  0  0  0  0  0  0
  -29.7110  -17.9470   19.8430 N   0  0  0  0  0  0  0  0  0  0  0  0
  -25.6060  -14.0300   20.4800 C   0  0  0  0  0  0  0  0  0  0  0  0
  -24.5680  -13.2300   20.8610 C   0  0  0  0  0  0  0  0  0  0  0  0
  -25.0490  -11.8860   20.7730 C   0  0  0  0  0  0  0  0  0  0  0  0
  -26.6490  -13.1820   20.1740 N   0  0  0  0  0  0  0  0  0  0  0  0
  -26.3310  -11.8790   20.4100 N   0  0  0  0  0  0  0  0  0  0  0  0
  -24.3350  -10.6130   20.9530 C   0  0  0  0  0  0  0  0  0  0  0  0
  -24.7250   -9.6760   21.9350 C   0  0  0  0  0  3  0  0  0  0  0  0
  -24.0040   -8.4740   22.1060 C   0  0  0  0  0  3  0  0  0  0  0  0
  -22.8770   -8.1980   21.2950 C   0  0  0  0  0  0  0  0  0  0  0  0
  -22.5050   -9.1240   20.3050 C   0  0  0  0  0  3  0  0  0  0  0  0
  -23.2260  -10.3180   20.1330 C   0  0  0  0  0  3  0  0  0  0  0  0
  -22.1330   -7.0460   21.3730 O   0  0  0  0  0  0  0  0  0  0  0  0
  -21.9390   -6.3910   22.5630 C   0  0  0  0  0  0  0  0  0  0  0  0
  -21.2920   -7.0090   23.6560 C   0  0  0  0  0  3  0  0  0  0  0  0
  -21.0510   -6.2790   24.8360 C   0  0  0  0  0  3  0  0  0  0  0  0
  -21.4470   -4.9300   24.9250 C   0  0  0  0  0  0  0  0  0  0  0  0
  -22.0860   -4.3120   23.8360 C   0  0  0  0  0  3  0  0  0  0  0  0
  -22.3290   -5.0390   22.6580 C   0  0  0  0  0  0  0  0  0  0  0  0
  -22.9250   -4.4320   21.6040 F   0  0  0  0  0  0  0  0  0  0  0  0
  -21.2090   -4.2270   26.0560 F   0  0  0  0  0  0  0  0  0  0  0  0
  -23.1770  -13.6890   21.1840 C   0  0  0  0  0  0  0  0  0  0  0  0
  -22.4780  -12.9660   22.0500 N   0  0  0  0  0  0  0  0  0  0  0  0
  -22.7210  -14.7270   20.7050 O   0  0  0  0  0  0  0  0  0  0  0  0
  -22.8590  -12.1260   22.4600 H   0  0  0  0  0  0  0  0  0  0  0  0
  -21.5450  -13.2570   22.3090 H   0  0  0  0  0  0  0  0  0  0  0  0
  -25.7470  -15.4080   20.3290 N   0  0  0  0  0  0  0  0  0  0  0  0
  -24.9820  -16.0560   20.4760 H   0  0  0  0  0  0  0  0  0  0  0  0
  -26.5830  -15.8560   19.9810 H   0  0  0  0  0  0  0  0  0  0  0  0
  -28.1700  -23.3450   19.8380 C   0  0  0  0  0 15  0  0  0  0  0  0
  -28.1560  -25.2390   19.4740 O   0  0  0  0  0  1  0  0  0  0  0  0
  -24.8280  -31.8130   22.8730 C   0  0  0  0  0  0  0  0  0  0  0  0
  -27.2070  -26.5830   19.6070 C   0  0  0  0  0  0  0  0  0  0  0  0
  -23.5770  -30.4590   21.2530 C   0  0  0  0  0  3  0  0  0  0  0  0
  -24.9610  -28.8050   19.7370 C   0  0  0  0  0  0  0  0  0  0  0  0
  -26.1630  -30.5290   21.0390 C   0  0  0  0  0  2  0  0  0  0  0  0
  -26.1960  -29.0850   20.3320 C   0  0  0  0  0  0  0  0  0  0  0  0
  -27.2880  -28.0170   20.2230 C   0  0  0  0  0  3  0  0  0  0  0  0
  -25.9260  -26.5970   18.9700 C   0  0  0  0  0  3  0  0  0  0  0  0
  -24.8820  -27.5910   19.0270 C   0  0  0  0  0  3  0  0  0  0  0  0
  -23.7680  -29.7860   19.8600 C   0  0  0  0  0  2  0  0  0  0  0  0
  -24.8860  -30.9730   21.7740 N   0  0  0  0  0  0  0  0  0  0  0  0
  -23.7540  -32.1020   23.4330 O   0  0  0  0  0  0  0  0  0  0  0  0
  -22.8850  -29.4700   22.2360 C   0  0  0  0  0  0  0  0  0  0  0  0
  -21.5490  -29.3070   22.1560 N   0  0  0  0  0  0  0  0  0  0  0  0
  -23.5700  -28.8460   23.0480 O   0  0  0  0  0  0  0  0  0  0  0  0
  -21.0410  -29.8620   21.4820 H   0  0  0  0  0  0  0  0  0  0  0  0
  -18.1930  -28.0510   22.8110 C   0  0  0  0  0  0  0  0  0  0  0  0
  -20.7640  -28.3380   22.9360 C   0  0  0  0  0  3  0  0  0  0  0  0
  -20.8410  -26.9270   22.3050 C   0  0  0  0  0  2  0  0  0  0  0  0
  -19.6890  -26.6360   21.3400 C   0  0  0  0  0  2  0  0  0  0  0  0
  -18.3440  -26.7360   22.0650 C   0  0  0  0  0  2  0  0  0  0  0  0
  -19.3280  -28.8120   23.2040 C   0  0  0  0  0  0  0  0  0  0  0  0
  -19.1280  -30.0390   23.8730 C   0  0  0  0  0  3  0  0  0  0  0  0
  -17.8290  -30.5080   24.1450 C   0  0  0  0  0  3  0  0  0  0  0  0
  -16.7100  -29.7480   23.7600 C   0  0  0  0  0  3  0  0  0  0  0  0
  -16.8940  -28.5200   23.1000 C   0  0  0  0  0  3  0  0  0  0  0  0
  -26.1040  -32.4640   23.4870 C   0  0  0  0  0  3  0  0  0  0  0  0
  -25.7480  -33.8030   24.0100 N   0  0  0  0  0  0  0  0  0  0  0  0
  -25.9470  -34.9660   23.3740 C   0  0  0  0  0  0  0  0  0  0  0  0
  -26.4980  -35.0290   22.2730 O   0  0  0  0  0  0  0  0  0  0  0  0
  -25.2410  -33.8190   24.8820 H   0  0  0  0  0  0  0  0  0  0  0  0
  -24.1110  -36.6950   23.4750 C   0  0  0  0  0  1  0  0  0  0  0  0
  -25.4640  -36.2650   24.0630 C   0  0  0  0  0  3  0  0  0  0  0  0
  -27.6410  -37.1920   24.7340 C   0  0  0  0  0  1  0  0  0  0  0  0
  -26.4240  -37.3870   23.9510 N   0  0  0  0  0  0  0  0  0  0  0  0
  -25.9940  -38.2600   24.2450 H   0  0  0  0  0  0  0  0  0  0  0  0
  -26.7380  -31.6020   24.6500 C   0  0  1  0  0  0  0  0  0  0  0  0
  -25.7350  -31.2230   25.7660 C   0  0  0  0  0  1  0  0  0  0  0  0
  -27.3390  -30.2880   24.1060 C   0  0  0  0  0  1  0  0  0  0  0  0
  -27.9080  -32.3780   25.2990 C   0  0  0  0  0  1  0  0  0  0  0  0
  2  7  1  0
  3  4  1  0
  3  2  1  0
  5  4  1  0
  5 20  1  0
  5  6  1  0
  7  1  1  0
  7  6  1  0
  8  1  2  0
 10  9  1  0
 11  9  1  0
 12 13  1  0
 13 16  1  0
 14 10  1  0
 15 12  1  0
 15 14  1  0
 15 11  1  0
 16  1  1  0
 16 14  1  0
 17 18  2  0
 18 37  1  0
 19 18  1  0
 19 22  1  0
 20 21  1  0
 20 17  1  0
 21 19  2  0
 22 23  1  0
 23 24  2  0
 25 28  1  0
 25 24  1  0
 26 25  2  0
 27 26  1  0
 27 22  2  0
 28 29  1  0
 29 34  2  0
 29 30  1  0
 30 31  2  0
 31 32  1  0
 32 36  1  0
 33 32  2  0
 34 33  1  0
 35 34  1  0
 37 38  1  0
 38 41  1  0
 38 40  1  0
 39 37  2  0
 42 43  1  0
 42 17  1  0
 44 42  1  0
 46 48  1  0
 47 58  2  0
 48 53  1  0
 49 57  1  0
 49 59  1  0
 50 56  1  0
 50 52  1  0
 51 57  1  0
 52 51  1  0
 53 52  2  0
 54 55  1  0
 54 48  2  0
 55 50  2  0
 56 49  1  0
 57 47  1  0
 59 61  2  0
 60 59  1  0
 62 60  1  0
 63 72  2  0
 63 68  1  0
 64 60  1  0
 64 68  1  0
 65 64  1  0
 66 67  1  0
 66 65  1  0
 67 63  1  0
 68 69  2  0
 69 70  1  0
 71 70  2  0
 72 71  1  0
 73 47  1  0
 73 74  1  0
 73 83  1  0
 74 77  1  0
 75 74  1  0
 75 79  1  0
 76 75  2  0
 79 78  1  0
 81 79  1  0
 81 82  1  0
 81 80  1  0
 83 86  1  1
 83 84  1  0
 85 83  1  0
M  ISO  4   1 100  16 100  45 101  46 101
M  END
>  <TORSDO>  (49) 
F 16

>  <SCORE>  (49) 
-15.001

>  <name>  (49) 
48

>  <ligand_id>  (49) 
48

>  <original_smiles>  (49) 
[H]c1c([H])c([H])c2c(c1[H])C([H])([H])C([H])([H])C([H])([H])C2([H])N([H])C(=O)C1([H])N(C(=O)C([H])(N([H])C(=O)C([H])(N([H])C([H])([H])[H])C([H])([H])[H])C(C([H])([H])[H])(C([H])([H])[H])C([H])([H])[H])C([H])([H])c2c([H])c(OC([H])([H])C34C([H])([H])C([H])([H])N(C(=O)N5C([H])([H])C([H])([H])C([H])([H])C([H])(n6nc(-c7c([H])c([H])c(Oc8c([H])c([H])c(F)c([H])c8F)c([H])c7[H])c(C(=O)N([H])[H])c6N([H])[H])C5([H])[H])C3([H])C([H])([H])C([H])([H])C4([H])[H])c([H])c([H])c2C1([H])[H]

>  <smiles>  (49) 
[H]c1c([H])c([H])c2c(c1[H])C([H])([H])C([H])([H])C([H])([H])C2([H])N([H])C(=O)C1([H])N(C(=O)C([H])(N([H])C(=O)C([H])(N([H])C([H])([H])[H])C([H])([H])[H])C(C([H])([H])[H])(C([H])([H])[H])C([H])([H])[H])C([H])([H])c2c([H])c(OC([H])([H])C34C([H])([H])C([H])([H])N(C(=O)N5C([H])([H])C([H])([H])C([H])([H])C([H])(n6nc(-c7c([H])c([H])c(Oc8c([H])c([H])c(F)c([H])c8F)c([H])c7[H])c(C(=O)N([H])[H])c6N([H])[H])C5([H])[H])C3([H])C([H])([H])C([H])([H])C4([H])[H])c([H])c([H])c2C1([H])[H]

$$$$
49:0:0
     RDKit          3D

100109  0  0  1  0  0  0  0  0999 V2000
  -29.4790  -22.0440   19.7400 C   0  0  0  0  0  2  0  0  0  0  0  0
  -31.6460  -22.1520   20.9690 C   0  0  0  0  0  2  0  0  0  0  0  0
  -28.9710  -23.2520   20.5560 C   0  0  0  0  0  2  0  0  0  0  0  0
  -31.1160  -23.3740   21.7360 C   0  0  0  0  0  2  0  0  0  0  0  0
  -30.5220  -21.2000   20.5070 C   0  0  0  0  0  3  0  0  0  0  0  0
  -30.0910  -24.1390   20.9780 N   0  0  2  0  0  4  0  0  0  0  0  0
  -30.5230  -24.4600   20.1220 H   0  0  0  0  0  0  0  0  0  0  0  0
  -31.0640  -20.0330   19.6300 C   0  0  0  0  0  2  0  0  0  0  0  0
  -31.6050  -18.8760   20.4120 N   0  0  2  0  0  4  0  0  0  0  0  0
  -31.6230  -19.1540   21.3810 H   0  0  0  0  0  0  0  0  0  0  0  0
  -33.0100  -18.5350   20.0350 C   0  0  0  0  0  2  0  0  0  0  0  0
  -36.4440  -20.3560   22.1480 C   0  0  0  0  0  2  0  0  0  0  0  0
  -35.0260  -20.7520   22.5840 C   0  0  0  0  0  2  0  0  0  0  0  0
  -36.5190  -20.1740   20.6240 C   0  0  0  0  0  2  0  0  0  0  0  0
  -33.9880  -19.7320   22.0860 C   0  0  0  0  0  2  0  0  0  0  0  0
  -35.4770  -19.1540   20.1320 C   0  0  0  0  0  2  0  0  0  0  0  0
  -34.0470  -19.5560   20.5490 C   0  0  0  0  0  3  0  0  0  0  0  0
  -30.7180  -17.6760   20.3360 C   0  0  0  0  0  2  0  0  0  0  0  0
  -30.9050  -16.6700   21.5050 C   0  0  0  0  0  2  0  0  0  0  0  0
  -30.8040  -14.4240   20.4560 C   0  0  0  0  0  0  0  0  0  0  0  0
  -30.4360  -12.2870   19.2870 C   0  0  0  0  0  2  0  0  0  0  0  0
  -29.4880  -12.4780   18.0880 C   0  0  0  0  0  2  0  0  0  0  0  0
  -28.0180  -12.3630   18.5290 C   0  0  0  0  0  2  0  0  0  0  0  0
  -27.6980  -13.2320   19.7750 C   0  0  0  0  0  3  0  0  0  0  0  0
  -28.7520  -13.0170   20.8850 C   0  0  0  0  0  2  0  0  0  0  0  0
  -30.0820  -13.2820   20.3110 N   0  0  0  0  0  0  0  0  0  0  0  0
  -31.8690  -14.6310   19.8680 O   0  0  0  0  0  0  0  0  0  0  0  0
  -30.2690  -15.3730   21.2420 N   0  0  0  0  0  0  0  0  0  0  0  0
  -29.3890  -15.1690   21.6930 H   0  0  0  0  0  0  0  0  0  0  0  0
  -25.3130  -13.8820   20.4950 C   0  0  0  0  0  0  0  0  0  0  0  0
  -24.2330  -13.1290   20.8700 C   0  0  0  0  0  0  0  0  0  0  0  0
  -24.6700  -11.7690   20.8360 C   0  0  0  0  0  0  0  0  0  0  0  0
  -26.3410  -12.9830   20.2600 N   0  0  0  0  0  0  0  0  0  0  0  0
  -25.9570  -11.7070   20.5190 N   0  0  0  0  0  0  0  0  0  0  0  0
  -23.9230  -10.5190   21.0320 C   0  0  0  0  0  0  0  0  0  0  0  0
  -24.3510   -9.5410   21.9560 C   0  0  0  0  0  3  0  0  0  0  0  0
  -23.6060   -8.3560   22.1400 C   0  0  0  0  0  3  0  0  0  0  0  0
  -22.4190   -8.1410   21.3990 C   0  0  0  0  0  0  0  0  0  0  0  0
  -22.0110   -9.1090   20.4630 C   0  0  0  0  0  3  0  0  0  0  0  0
  -22.7560  -10.2850   20.2780 C   0  0  0  0  0  3  0  0  0  0  0  0
  -21.6460   -7.0100   21.4920 O   0  0  0  0  0  0  0  0  0  0  0  0
  -21.5960   -6.2650   22.6430 C   0  0  0  0  0  0  0  0  0  0  0  0
  -21.1980   -6.8260   23.8760 C   0  0  0  0  0  3  0  0  0  0  0  0
  -21.0940   -6.0080   25.0210 C   0  0  0  0  0  3  0  0  0  0  0  0
  -21.3770   -4.6320   24.9310 C   0  0  0  0  0  0  0  0  0  0  0  0
  -21.7680   -4.0720   23.7020 C   0  0  0  0  0  3  0  0  0  0  0  0
  -21.8750   -4.8850   22.5620 C   0  0  0  0  0  0  0  0  0  0  0  0
  -22.2320   -4.3370   21.3760 F   0  0  0  0  0  0  0  0  0  0  0  0
  -21.2680   -3.8460   26.0280 F   0  0  0  0  0  0  0  0  0  0  0  0
  -22.8470  -13.6290   21.1530 C   0  0  0  0  0  0  0  0  0  0  0  0
  -22.1170  -12.9520   22.0310 N   0  0  0  0  0  0  0  0  0  0  0  0
  -22.4200  -14.6580   20.6300 O   0  0  0  0  0  0  0  0  0  0  0  0
  -22.4750  -12.1180   22.4750 H   0  0  0  0  0  0  0  0  0  0  0  0
  -21.1860  -13.2680   22.2620 H   0  0  0  0  0  0  0  0  0  0  0  0
  -25.5000  -15.2500   20.3140 N   0  0  0  0  0  0  0  0  0  0  0  0
  -24.7470  -15.9190   20.4240 H   0  0  0  0  0  0  0  0  0  0  0  0
  -26.3590  -15.6720   19.9850 H   0  0  0  0  0  0  0  0  0  0  0  0
  -29.7290  -25.3790   21.7310 C   0  0  0  0  0  2  0  0  0  0  0  0
  -28.3650  -26.0280   21.4450 C   0  0  0  0  0  2  0  0  0  0  0  0
  -28.3010  -26.6980   20.1830 O   0  0  0  0  0  0  0  0  0  0  0  0
  -24.5760  -31.8930   23.2390 C   0  0  0  0  0  0  0  0  0  0  0  0
  -27.1680  -27.4680   20.1270 C   0  0  0  0  0  0  0  0  0  0  0  0
  -23.3440  -30.5010   21.6040 C   0  0  0  0  0  3  0  0  0  0  0  0
  -24.7770  -28.9560   20.1620 C   0  0  0  0  0  0  0  0  0  0  0  0
  -25.8640  -30.8550   21.3780 C   0  0  0  0  0  2  0  0  0  0  0  0
  -25.9380  -29.4870   20.7380 C   0  0  0  0  0  0  0  0  0  0  0  0
  -27.1400  -28.7490   20.7180 C   0  0  0  0  0  3  0  0  0  0  0  0
  -25.9990  -26.9460   19.5400 C   0  0  0  0  0  3  0  0  0  0  0  0
  -24.8000  -27.6850   19.5590 C   0  0  0  0  0  3  0  0  0  0  0  0
  -23.5360  -29.8160   20.2230 C   0  0  0  0  0  2  0  0  0  0  0  0
  -24.6130  -31.0960   22.1340 N   0  0  0  0  0  0  0  0  0  0  0  0
  -23.5020  -32.1750   23.7890 O   0  0  0  0  0  0  0  0  0  0  0  0
  -22.6940  -29.4850   22.5710 C   0  0  0  0  0  0  0  0  0  0  0  0
  -21.3690  -29.3130   22.4530 N   0  0  0  0  0  0  0  0  0  0  0  0
  -23.3810  -28.8550   23.3810 O   0  0  0  0  0  0  0  0  0  0  0  0
  -20.8780  -29.8730   21.7690 H   0  0  0  0  0  0  0  0  0  0  0  0
  -17.9890  -28.1430   22.9690 C   0  0  0  0  0  0  0  0  0  0  0  0
  -20.5510  -28.3830   23.2290 C   0  0  0  0  0  3  0  0  0  0  0  0
  -20.6400  -26.9500   22.6550 C   0  0  0  0  0  2  0  0  0  0  0  0
  -19.5320  -26.6340   21.6450 C   0  0  0  0  0  2  0  0  0  0  0  0
  -18.1540  -26.7910   22.2950 C   0  0  0  0  0  2  0  0  0  0  0  0
  -19.1160  -28.8970   23.3930 C   0  0  0  0  0  0  0  0  0  0  0  0
  -18.9100  -30.1630   23.9820 C   0  0  0  0  0  3  0  0  0  0  0  0
  -17.6110  -30.6770   24.1500 C   0  0  0  0  0  3  0  0  0  0  0  0
  -16.4990  -29.9200   23.7400 C   0  0  0  0  0  3  0  0  0  0  0  0
  -16.6890  -28.6540   23.1580 C   0  0  0  0  0  3  0  0  0  0  0  0
  -25.8740  -32.5110   23.8470 C   0  0  0  0  0  3  0  0  0  0  0  0
  -25.5800  -33.9090   24.1850 N   0  0  0  0  0  0  0  0  0  0  0  0
  -25.9240  -34.9610   23.4280 C   0  0  0  0  0  0  0  0  0  0  0  0
  -26.5950  -34.8550   22.3970 O   0  0  0  0  0  0  0  0  0  0  0  0
  -24.9810  -34.0660   24.9820 H   0  0  0  0  0  0  0  0  0  0  0  0
  -24.2230  -36.7770   23.0680 C   0  0  0  0  0  1  0  0  0  0  0  0
  -25.4500  -36.3520   23.8900 C   0  0  0  0  0  3  0  0  0  0  0  0
  -27.5880  -37.2020   24.7480 C   0  0  0  0  0  1  0  0  0  0  0  0
  -26.4980  -37.3920   23.7950 N   0  0  0  0  0  0  0  0  0  0  0  0
  -26.1020  -38.3160   23.9480 H   0  0  0  0  0  0  0  0  0  0  0  0
  -26.4010  -31.7290   25.1120 C   0  0  1  0  0  0  0  0  0  0  0  0
  -25.3200  -31.4880   26.1920 C   0  0  0  0  0  1  0  0  0  0  0  0
  -26.9720  -30.3520   24.6990 C   0  0  0  0  0  1  0  0  0  0  0  0
  -27.5650  -32.5110   25.7670 C   0  0  0  0  0  1  0  0  0  0  0  0
  1  5  1  0
  1  3  1  0
  2  4  1  0
  3  6  1  0
  5  8  1  0
  5  2  1  0
  6 58  1  0
  6  4  1  0
  6  7  1  6
  8  9  1  0
  9 10  1  1
 11  9  1  0
 11 17  1  0
 12 13  1  0
 14 12  1  0
 15 13  1  0
 16 17  1  0
 16 14  1  0
 17 15  1  0
 18  9  1  0
 18 19  1  0
 20 28  1  0
 21 26  1  0
 22 23  1  0
 22 21  1  0
 24 23  1  0
 24 33  1  0
 24 25  1  0
 26 20  1  0
 26 25  1  0
 27 20  2  0
 28 19  1  0
 28 29  1  0
 30 31  2  0
 31 50  1  0
 32 31  1  0
 32 35  1  0
 33 30  1  0
 33 34  1  0
 34 32  2  0
 35 36  1  0
 36 37  2  0
 38 41  1  0
 38 37  1  0
 39 38  2  0
 40 39  1  0
 40 35  2  0
 41 42  1  0
 42 43  1  0
 43 44  2  0
 45 44  1  0
 45 49  1  0
 46 45  2  0
 47 42  2  0
 47 46  1  0
 48 47  1  0
 50 51  1  0
 51 54  1  0
 51 53  1  0
 52 50  2  0
 55 56  1  0
 55 30  1  0
 57 55  1  0
 59 58  1  0
 60 59  1  0
 61 72  2  0
 62 60  1  0
 62 67  1  0
 63 71  1  0
 63 73  1  0
 64 70  1  0
 64 66  1  0
 65 71  1  0
 66 65  1  0
 67 66  2  0
 68 69  1  0
 68 62  2  0
 69 64  2  0
 70 63  1  0
 71 61  1  0
 73 75  2  0
 74 73  1  0
 76 74  1  0
 77 86  2  0
 77 82  1  0
 78 74  1  0
 78 82  1  0
 79 78  1  0
 80 81  1  0
 80 79  1  0
 81 77  1  0
 82 83  2  0
 83 84  1  0
 85 84  2  0
 86 85  1  0
 87 61  1  0
 87 88  1  0
 87 97  1  0
 88 91  1  0
 89 93  1  0
 89 88  1  0
 90 89  2  0
 93 92  1  0
 95 93  1  0
 95 96  1  0
 95 94  1  0
 97100  1  1
 97 98  1  0
 99 97  1  0
M  ISO  4  20 100  28 100  59 101  60 101
M  END
>  <TORSDO>  (50) 
F 24

>  <SCORE>  (50) 
-12.750

>  <name>  (50) 
49

>  <ligand_id>  (50) 
49

>  <original_smiles>  (50) 
[H]c1c([H])c([H])c2c(c1[H])C([H])([H])C([H])([H])C([H])([H])C2([H])N([H])C(=O)C1([H])N(C(=O)C([H])(N([H])C(=O)C([H])(N([H])C([H])([H])[H])C([H])([H])[H])C(C([H])([H])[H])(C([H])([H])[H])C([H])([H])[H])C([H])([H])c2c([H])c(OC([H])([H])C([H])([H])[N+]3([H])C([H])([H])C([H])([H])C([H])(C([H])([H])[N+]([H])(C([H])([H])C([H])([H])N([H])C(=O)N4C([H])([H])C([H])([H])C([H])([H])C([H])(n5nc(-c6c([H])c([H])c(Oc7c([H])c([H])c(F)c([H])c7F)c([H])c6[H])c(C(=O)N([H])[H])c5N([H])[H])C4([H])[H])C([H])([H])C4([H])C([H])([H])C([H])([H])C([H])([H])C([H])([H])C4([H])[H])C([H])([H])C3([H])[H])c([H])c([H])c2C1([H])[H]

>  <smiles>  (50) 
[H]c1c([H])c([H])c2c(c1[H])C([H])([H])C([H])([H])C([H])([H])C2([H])N([H])C(=O)C1([H])N(C(=O)C([H])(N([H])C(=O)C([H])(N([H])C([H])([H])[H])C([H])([H])[H])C(C([H])([H])[H])(C([H])([H])[H])C([H])([H])[H])C([H])([H])c2c([H])c(OC([H])([H])C([H])([H])[N+]3([H])C([H])([H])C([H])([H])C([H])(C([H])([H])[N+]([H])(C([H])([H])C([H])([H])N([H])C(=O)N4C([H])([H])C([H])([H])C([H])([H])C([H])(n5nc(-c6c([H])c([H])c(Oc7c([H])c([H])c(F)c([H])c7F)c([H])c6[H])c(C(=O)N([H])[H])c5N([H])[H])C4([H])[H])C([H])([H])C4([H])C([H])([H])C([H])([H])C([H])([H])C([H])([H])C4([H])[H])C([H])([H])C3([H])[H])c([H])c([H])c2C1([H])[H]

$$$$
50:0:0
     RDKit          3D

 97105  0  0  1  0  0  0  0  0999 V2000
  -29.7740  -22.0540   19.0360 N   0  0  0  0  0  0  0  0  0  0  0  0
  -29.3290  -20.8960   18.2310 C   0  0  0  0  0  2  0  0  0  0  0  0
  -28.6500  -19.8030   19.0870 C   0  0  0  0  0  2  0  0  0  0  0  0
  -29.6220  -19.0470   19.9120 N   0  0  0  0  0  4  0  0  0  0  0  0
  -30.5220  -19.1200   19.4670 H   0  0  0  0  0  0  0  0  0  0  0  0
  -29.6820  -19.5070   20.8040 H   0  0  0  0  0  0  0  0  0  0  0  0
  -29.2960  -17.6110   20.0940 C   0  0  0  0  0  2  0  0  0  0  0  0
  -30.2430  -16.8870   21.0840 C   0  0  0  0  0  2  0  0  0  0  0  0
  -30.6590  -14.4740   20.5600 C   0  0  0  0  0  0  0  0  0  0  0  0
  -30.3840  -12.3360   19.3710 C   0  0  0  0  0  2  0  0  0  0  0  0
  -29.4500  -12.5680   18.1640 C   0  0  0  0  0  2  0  0  0  0  0  0
  -27.9710  -12.4220   18.5780 C   0  0  0  0  0  2  0  0  0  0  0  0
  -27.6230  -13.2330   19.8560 C   0  0  0  0  0  3  0  0  0  0  0  0
  -28.6690  -12.9790   20.9660 C   0  0  0  0  0  2  0  0  0  0  0  0
  -30.0010  -13.2940   20.4190 N   0  0  0  0  0  0  0  0  0  0  0  0
  -31.7620  -14.7010   20.0580 O   0  0  0  0  0  0  0  0  0  0  0  0
  -29.9480  -15.4480   21.1500 N   0  0  0  0  0  0  0  0  0  0  0  0
  -29.0640  -15.1730   21.5510 H   0  0  0  0  0  0  0  0  0  0  0  0
  -25.2080  -13.8260   20.5270 C   0  0  0  0  0  0  0  0  0  0  0  0
  -24.1410  -13.0460   20.8870 C   0  0  0  0  0  0  0  0  0  0  0  0
  -24.6150  -11.6980   20.8680 C   0  0  0  0  0  0  0  0  0  0  0  0
  -26.2640  -12.9520   20.3150 N   0  0  0  0  0  0  0  0  0  0  0  0
  -25.9090  -11.6680   20.5770 N   0  0  0  0  0  0  0  0  0  0  0  0
  -23.8980  -10.4300   21.0550 C   0  0  0  0  0  0  0  0  0  0  0  0
  -24.3320   -9.4680   21.9930 C   0  0  0  0  0  3  0  0  0  0  0  0
  -23.6160   -8.2640   22.1680 C   0  0  0  0  0  3  0  0  0  0  0  0
  -22.4510   -8.0130   21.4030 C   0  0  0  0  0  0  0  0  0  0  0  0
  -22.0370   -8.9640   20.4550 C   0  0  0  0  0  3  0  0  0  0  0  0
  -22.7530  -10.1600   20.2780 C   0  0  0  0  0  3  0  0  0  0  0  0
  -21.7060   -6.8620   21.4880 O   0  0  0  0  0  0  0  0  0  0  0  0
  -21.6620   -6.1170   22.6400 C   0  0  0  0  0  0  0  0  0  0  0  0
  -21.2270   -6.6650   23.8660 C   0  0  0  0  0  3  0  0  0  0  0  0
  -21.1310   -5.8440   25.0090 C   0  0  0  0  0  3  0  0  0  0  0  0
  -21.4580   -4.4780   24.9260 C   0  0  0  0  0  0  0  0  0  0  0  0
  -21.8830   -3.9300   23.7030 C   0  0  0  0  0  3  0  0  0  0  0  0
  -21.9830   -4.7470   22.5630 C   0  0  0  0  0  0  0  0  0  0  0  0
  -22.3740   -4.2080   21.3830 F   0  0  0  0  0  0  0  0  0  0  0  0
  -21.3570   -3.6880   26.0200 F   0  0  0  0  0  0  0  0  0  0  0  0
  -22.7360  -13.5130   21.1390 C   0  0  0  0  0  0  0  0  0  0  0  0
  -22.0020  -12.8120   21.9970 N   0  0  0  0  0  0  0  0  0  0  0  0
  -22.2970  -14.5330   20.6100 O   0  0  0  0  0  0  0  0  0  0  0  0
  -22.3710  -11.9890   22.4490 H   0  0  0  0  0  0  0  0  0  0  0  0
  -21.0590  -13.1080   22.2090 H   0  0  0  0  0  0  0  0  0  0  0  0
  -25.3650  -15.1970   20.3450 N   0  0  0  0  0  0  0  0  0  0  0  0
  -24.5910  -15.8460   20.4330 H   0  0  0  0  0  0  0  0  0  0  0  0
  -26.2090  -15.6310   19.9950 H   0  0  0  0  0  0  0  0  0  0  0  0
  -28.8820  -23.1950   18.7370 C   0  0  0  0  0  2  0  0  0  0  0  0
  -28.9010  -24.3440   19.7790 C   0  0  0  0  0  2  0  0  0  0  0  0
  -28.6840  -25.7330   19.1330 C   0  0  0  0  0  2  0  0  0  0  0  0
  -28.4430  -26.7630   20.1070 O   0  0  0  0  0  0  0  0  0  0  0  0
  -24.5890  -31.8810   23.2340 C   0  0  0  0  0  0  0  0  0  0  0  0
  -27.2380  -27.4420   20.1220 C   0  0  0  0  0  0  0  0  0  0  0  0
  -23.3800  -30.4780   21.5950 C   0  0  0  0  0  3  0  0  0  0  0  0
  -24.8310  -28.9410   20.1690 C   0  0  0  0  0  0  0  0  0  0  0  0
  -25.9070  -30.8370   21.3910 C   0  0  0  0  0  2  0  0  0  0  0  0
  -25.9900  -29.4640   20.7510 C   0  0  0  0  0  0  0  0  0  0  0  0
  -27.1910  -28.7200   20.7310 C   0  0  0  0  0  3  0  0  0  0  0  0
  -26.0430  -26.9180   19.5730 C   0  0  0  0  0  3  0  0  0  0  0  0
  -24.8500  -27.6640   19.5840 C   0  0  0  0  0  3  0  0  0  0  0  0
  -23.5870  -29.8000   20.2140 C   0  0  0  0  0  2  0  0  0  0  0  0
  -24.6440  -31.0800   22.1310 N   0  0  0  0  0  0  0  0  0  0  0  0
  -23.5090  -32.1520   23.7760 O   0  0  0  0  0  0  0  0  0  0  0  0
  -22.7340  -29.4540   22.5560 C   0  0  0  0  0  0  0  0  0  0  0  0
  -21.4090  -29.2690   22.4310 N   0  0  0  0  0  0  0  0  0  0  0  0
  -23.4200  -28.8310   23.3700 O   0  0  0  0  0  0  0  0  0  0  0  0
  -20.9170  -29.8240   21.7460 H   0  0  0  0  0  0  0  0  0  0  0  0
  -18.0400  -28.0650   22.9290 C   0  0  0  0  0  0  0  0  0  0  0  0
  -20.5960  -28.3300   23.2020 C   0  0  0  0  0  3  0  0  0  0  0  0
  -20.7030  -26.8980   22.6280 C   0  0  0  0  0  2  0  0  0  0  0  0
  -19.6020  -26.5720   21.6140 C   0  0  0  0  0  2  0  0  0  0  0  0
  -18.2200  -26.7140   22.2560 C   0  0  0  0  0  2  0  0  0  0  0  0
  -19.1560  -28.8300   23.3580 C   0  0  0  0  0  0  0  0  0  0  0  0
  -18.9340  -30.0950   23.9460 C   0  0  0  0  0  3  0  0  0  0  0  0
  -17.6290  -30.5950   24.1080 C   0  0  0  0  0  3  0  0  0  0  0  0
  -16.5260  -29.8260   23.6950 C   0  0  0  0  0  3  0  0  0  0  0  0
  -16.7330  -28.5640   23.1120 C   0  0  0  0  0  3  0  0  0  0  0  0
  -25.8770  -32.5130   23.8480 C   0  0  0  0  0  3  0  0  0  0  0  0
  -26.4030  -31.7410   25.1200 C   0  0  1  0  0  0  0  0  0  0  0  0
  -25.3180  -31.4980   26.1950 C   0  0  0  0  0  1  0  0  0  0  0  0
  -26.9870  -30.3650   24.7200 C   0  0  0  0  0  1  0  0  0  0  0  0
  -27.5560  -32.5350   25.7760 C   0  0  0  0  0  1  0  0  0  0  0  0
  -25.5670  -33.9100   24.1800 N   0  0  0  0  0  0  0  0  0  0  0  0
  -25.8970  -34.9630   23.4200 C   0  0  0  0  0  0  0  0  0  0  0  0
  -26.5670  -34.8610   22.3880 O   0  0  0  0  0  0  0  0  0  0  0  0
  -24.9730  -34.0640   24.9810 H   0  0  0  0  0  0  0  0  0  0  0  0
  -24.1700  -36.7540   23.0620 C   0  0  0  0  0  1  0  0  0  0  0  0
  -25.4070  -36.3500   23.8780 C   0  0  0  0  0  3  0  0  0  0  0  0
  -27.5390  -37.2330   24.7190 C   0  0  0  0  0  1  0  0  0  0  0  0
  -26.4400  -37.4040   23.7720 N   0  0  0  0  0  0  0  0  0  0  0  0
  -26.0340  -38.3230   23.9210 H   0  0  0  0  0  0  0  0  0  0  0  0
  -31.1410  -22.4430   18.6450 C   0  0  0  0  0  2  0  0  0  0  0  0
  -34.8360  -20.6090   20.2640 C   0  0  0  0  0  2  0  0  0  0  0  0
  -34.6570  -20.7290   18.7420 C   0  0  0  0  0  2  0  0  0  0  0  0
  -33.5000  -20.3170   20.9690 C   0  0  0  0  0  2  0  0  0  0  0  0
  -33.5770  -21.7640   18.3860 C   0  0  0  0  0  2  0  0  0  0  0  0
  -32.4280  -21.3550   20.5910 C   0  0  0  0  0  2  0  0  0  0  0  0
  -32.2330  -21.4270   19.0630 C   0  0  0  0  0  3  0  0  0  0  0  0
  2  1  1  0
  2  3  1  0
  3  4  1  0
  4  7  1  0
  4  6  1  0
  5  4  1  0
  7  8  1  0
  8 17  1  0
  9 17  1  0
 10 15  1  0
 11 12  1  0
 11 10  1  0
 13 12  1  0
 13 22  1  0
 13 14  1  0
 15  9  1  0
 15 14  1  0
 16  9  2  0
 17 18  1  0
 19 20  2  0
 20 39  1  0
 21 20  1  0
 21 24  1  0
 22 19  1  0
 22 23  1  0
 23 21  2  0
 24 25  1  0
 25 26  2  0
 27 30  1  0
 27 26  1  0
 28 27  2  0
 29 28  1  0
 29 24  2  0
 30 31  1  0
 31 32  1  0
 32 33  2  0
 34 33  1  0
 34 38  1  0
 35 34  2  0
 36 31  2  0
 36 35  1  0
 37 36  1  0
 39 40  1  0
 40 43  1  0
 40 42  1  0
 41 39  2  0
 44 45  1  0
 44 19  1  0
 46 44  1  0
 47  1  1  0
 47 48  1  0
 49 48  1  0
 49 50  1  0
 50 52  1  0
 51 62  2  0
 52 57  1  0
 53 61  1  0
 53 63  1  0
 54 60  1  0
 54 56  1  0
 55 61  1  0
 56 55  1  0
 57 56  2  0
 58 59  1  0
 58 52  2  0
 59 54  2  0
 60 53  1  0
 61 51  1  0
 63 65  2  0
 64 63  1  0
 66 64  1  0
 67 76  2  0
 67 72  1  0
 68 64  1  0
 68 72  1  0
 69 68  1  0
 70 71  1  0
 70 69  1  0
 71 67  1  0
 72 73  2  0
 73 74  1  0
 75 74  2  0
 76 75  1  0
 77 51  1  0
 77 82  1  0
 77 78  1  0
 78 81  1  1
 78 79  1  0
 80 78  1  0
 82 85  1  0
 83 87  1  0
 83 82  1  0
 84 83  2  0
 87 86  1  0
 89 87  1  0
 89 90  1  0
 89 88  1  0
 91  1  1  0
 91 97  1  0
 92 94  1  0
 93 92  1  0
 95 93  1  0
 95 97  1  0
 96 94  1  0
 97 96  1  0
M  ISO  4   9 100  17 100  49 101  50 101
M  END
>  <TORSDO>  (51) 
F 26

>  <SCORE>  (51) 
-12.006

>  <name>  (51) 
50

>  <ligand_id>  (51) 
50

>  <original_smiles>  (51) 
[H]c1c([H])c([H])c2c(c1[H])C([H])([H])C([H])([H])C([H])([H])C2([H])N([H])C(=O)C1([H])N(C(=O)C([H])(N([H])C(=O)C([H])(N([H])C([H])([H])[H])C([H])([H])[H])C(C([H])([H])[H])(C([H])([H])[H])C([H])([H])[H])C([H])([H])c2c([H])c(OC([H])([H])C([H])([H])C([H])([H])N(C([H])([H])C3([H])C([H])([H])C([H])([H])C([H])([H])C([H])([H])C3([H])[H])C([H])([H])C([H])([H])[N+]([H])([H])C([H])([H])C([H])([H])N([H])C(=O)N3C([H])([H])C([H])([H])C([H])([H])C([H])(n4nc(-c5c([H])c([H])c(Oc6c([H])c([H])c(F)c([H])c6F)c([H])c5[H])c(C(=O)N([H])[H])c4N([H])[H])C3([H])[H])c([H])c([H])c2C1([H])[H]

>  <smiles>  (51) 
[H]c1c([H])c([H])c2c(c1[H])C([H])([H])C([H])([H])C([H])([H])C2([H])N([H])C(=O)C1([H])N(C(=O)C([H])(N([H])C(=O)C([H])(N([H])C([H])([H])[H])C([H])([H])[H])C(C([H])([H])[H])(C([H])([H])[H])C([H])([H])[H])C([H])([H])c2c([H])c(OC([H])([H])C([H])([H])C([H])([H])N(C([H])([H])C3([H])C([H])([H])C([H])([H])C([H])([H])C([H])([H])C3([H])[H])C([H])([H])C([H])([H])[N+]([H])([H])C([H])([H])C([H])([H])N([H])C(=O)N3C([H])([H])C([H])([H])C([H])([H])C([H])(n4nc(-c5c([H])c([H])c(Oc6c([H])c([H])c(F)c([H])c6F)c([H])c5[H])c(C(=O)N([H])[H])c4N([H])[H])C3([H])[H])c([H])c([H])c2C1([H])[H]

$$$$
51:0:0
     RDKit          3D

102110  0  0  1  0  0  0  0  0999 V2000
  -28.6690  -21.5450   17.4790 C   0  0  0  0  0  3  0  0  0  0  0  0
  -30.9720  -21.8030   18.2300 C   0  0  0  0  0  3  0  0  0  0  0  0
  -28.7130  -22.8310   16.9020 C   0  0  0  0  0  3  0  0  0  0  0  0
  -31.0210  -23.0850   17.6460 C   0  0  0  0  0  3  0  0  0  0  0  0
  -29.8030  -21.0200   18.1330 C   0  0  0  0  0  0  0  0  0  0  0  0
  -29.8960  -23.6020   16.9720 C   0  0  0  0  0  0  0  0  0  0  0  0
  -29.7870  -19.6070   18.7010 C   0  0  0  0  0  2  0  0  0  0  0  0
  -29.9450  -19.5550   20.1610 N   0  0  0  0  0  0  0  0  0  0  0  0
  -29.8170  -18.1690   20.6370 C   0  0  0  0  0  2  0  0  0  0  0  0
  -31.1600  -17.4120   20.5510 C   0  0  0  0  0  2  0  0  0  0  0  0
  -31.3060  -16.2620   21.5710 C   0  0  0  0  0  2  0  0  0  0  0  0
  -31.1210  -14.1230   20.2900 C   0  0  0  0  0  0  0  0  0  0  0  0
  -30.6720  -11.9880   19.1330 C   0  0  0  0  0  2  0  0  0  0  0  0
  -29.7170  -12.2000   17.9420 C   0  0  0  0  0  2  0  0  0  0  0  0
  -28.2480  -12.1350   18.4050 C   0  0  0  0  0  2  0  0  0  0  0  0
  -27.9720  -13.0370   19.6350 C   0  0  0  0  0  3  0  0  0  0  0  0
  -29.0280  -12.7890   20.7360 C   0  0  0  0  0  2  0  0  0  0  0  0
  -30.3650  -13.0050   20.1500 N   0  0  0  0  0  0  0  0  0  0  0  0
  -32.1690  -14.3190   19.6640 O   0  0  0  0  0  0  0  0  0  0  0  0
  -30.6490  -15.0210   21.1640 N   0  0  0  0  0  0  0  0  0  0  0  0
  -29.7960  -14.7690   21.6420 H   0  0  0  0  0  0  0  0  0  0  0  0
  -25.6330  -13.7950   20.4020 C   0  0  0  0  0  0  0  0  0  0  0  0
  -24.5250  -13.0890   20.7870 C   0  0  0  0  0  0  0  0  0  0  0  0
  -24.8970  -11.7110   20.7320 C   0  0  0  0  0  0  0  0  0  0  0  0
  -26.6130  -12.8500   20.1390 N   0  0  0  0  0  0  0  0  0  0  0  0
  -26.1730  -11.5910   20.3930 N   0  0  0  0  0  0  0  0  0  0  0  0
  -24.0950  -10.4970   20.9260 C   0  0  0  0  0  0  0  0  0  0  0  0
  -24.4760   -9.5000   21.8530 C   0  0  0  0  0  3  0  0  0  0  0  0
  -23.6790   -8.3500   22.0330 C   0  0  0  0  0  3  0  0  0  0  0  0
  -22.4870   -8.1880   21.2870 C   0  0  0  0  0  0  0  0  0  0  0  0
  -22.1250   -9.1710   20.3500 C   0  0  0  0  0  3  0  0  0  0  0  0
  -22.9220  -10.3130   20.1670 C   0  0  0  0  0  3  0  0  0  0  0  0
  -21.6640   -7.0900   21.3790 O   0  0  0  0  0  0  0  0  0  0  0  0
  -21.5430   -6.3760   22.5430 C   0  0  0  0  0  0  0  0  0  0  0  0
  -21.1410   -6.9850   23.7520 C   0  0  0  0  0  3  0  0  0  0  0  0
  -20.9610   -6.2010   24.9090 C   0  0  0  0  0  3  0  0  0  0  0  0
  -21.1740   -4.8100   24.8590 C   0  0  0  0  0  0  0  0  0  0  0  0
  -21.5710   -4.2020   23.6550 C   0  0  0  0  0  3  0  0  0  0  0  0
  -21.7530   -4.9830   22.5000 C   0  0  0  0  0  0  0  0  0  0  0  0
  -22.1130   -4.3890   21.3360 F   0  0  0  0  0  0  0  0  0  0  0  0
  -20.9950   -4.0550   25.9690 F   0  0  0  0  0  0  0  0  0  0  0  0
  -23.1680  -13.6520   21.0990 C   0  0  0  0  0  0  0  0  0  0  0  0
  -22.4300  -13.0090   21.9980 N   0  0  0  0  0  0  0  0  0  0  0  0
  -22.7740  -14.6960   20.5820 O   0  0  0  0  0  0  0  0  0  0  0  0
  -22.7610  -12.1620   22.4360 H   0  0  0  0  0  0  0  0  0  0  0  0
  -21.5210  -13.3690   22.2500 H   0  0  0  0  0  0  0  0  0  0  0  0
  -25.8830  -15.1530   20.2330 N   0  0  0  0  0  0  0  0  0  0  0  0
  -25.1600  -15.8540   20.3540 H   0  0  0  0  0  0  0  0  0  0  0  0
  -26.7520  -15.5330   19.8820 H   0  0  0  0  0  0  0  0  0  0  0  0
  -28.9290  -20.4110   20.7910 C   0  0  0  0  0  2  0  0  0  0  0  0
  -29.4750  -21.1980   22.0030 C   0  0  0  0  0  2  0  0  0  0  0  0
  -28.6870  -22.4130   22.2650 N   0  0  0  0  0  4  0  0  0  0  0  0
  -28.7300  -23.0420   21.4840 H   0  0  0  0  0  0  0  0  0  0  0  0
  -29.0510  -22.8890   23.0700 H   0  0  0  0  0  0  0  0  0  0  0  0
  -27.7260  -22.1840   22.4460 H   0  0  0  0  0  0  0  0  0  0  0  0
  -29.9540  -24.9680   16.3030 C   0  0  0  0  0  2  0  0  0  0  0  0
  -29.3610  -26.0160   17.1540 N   0  0  0  0  0  4  0  0  0  0  0  0
  -28.4820  -25.6680   17.5040 H   0  0  0  0  0  0  0  0  0  0  0  0
  -29.1620  -26.8110   16.5670 H   0  0  0  0  0  0  0  0  0  0  0  0
  -30.2000  -26.4510   18.2980 C   0  0  0  0  0  2  0  0  0  0  0  0
  -29.4320  -27.4270   19.1960 C   0  0  0  0  0  2  0  0  0  0  0  0
  -28.2870  -26.7220   19.6600 O   0  0  0  0  0  0  0  0  0  0  0  0
  -24.5320  -31.6900   23.1530 C   0  0  0  0  0  0  0  0  0  0  0  0
  -27.1420  -27.4640   19.7920 C   0  0  0  0  0  0  0  0  0  0  0  0
  -23.3000  -30.3750   21.4570 C   0  0  0  0  0  3  0  0  0  0  0  0
  -24.7350  -28.9170   19.9370 C   0  0  0  0  0  0  0  0  0  0  0  0
  -25.8140  -30.7670   21.2280 C   0  0  0  0  0  2  0  0  0  0  0  0
  -25.8980  -29.4300   20.5250 C   0  0  0  0  0  0  0  0  0  0  0  0
  -27.1100  -28.7120   20.4540 C   0  0  0  0  0  3  0  0  0  0  0  0
  -25.9610  -26.9420   19.2330 C   0  0  0  0  0  3  0  0  0  0  0  0
  -24.7560  -27.6680   19.2930 C   0  0  0  0  0  3  0  0  0  0  0  0
  -23.4870  -29.7640   20.0420 C   0  0  0  0  0  2  0  0  0  0  0  0
  -24.5680  -30.9540   22.0070 N   0  0  0  0  0  0  0  0  0  0  0  0
  -23.4610  -31.9300   23.7280 O   0  0  0  0  0  0  0  0  0  0  0  0
  -22.6690  -29.3010   22.3720 C   0  0  0  0  0  0  0  0  0  0  0  0
  -21.3460  -29.1160   22.2470 N   0  0  0  0  0  0  0  0  0  0  0  0
  -23.3650  -28.6370   23.1440 O   0  0  0  0  0  0  0  0  0  0  0  0
  -20.8460  -29.7060   21.5950 H   0  0  0  0  0  0  0  0  0  0  0  0
  -17.9900  -27.8510   22.6760 C   0  0  0  0  0  0  0  0  0  0  0  0
  -20.5410  -28.1360   22.9750 C   0  0  0  0  0  3  0  0  0  0  0  0
  -20.6690  -26.7310   22.3410 C   0  0  0  0  0  2  0  0  0  0  0  0
  -19.5780  -26.4330   21.3080 C   0  0  0  0  0  2  0  0  0  0  0  0
  -18.1900  -26.5330   21.9480 C   0  0  0  0  0  2  0  0  0  0  0  0
  -19.0940  -28.6120   23.1430 C   0  0  0  0  0  0  0  0  0  0  0  0
  -18.8550  -29.8500   23.7790 C   0  0  0  0  0  3  0  0  0  0  0  0
  -17.5420  -30.3260   23.9540 C   0  0  0  0  0  3  0  0  0  0  0  0
  -16.4520  -29.5610   23.5050 C   0  0  0  0  0  3  0  0  0  0  0  0
  -16.6770  -28.3260   22.8700 C   0  0  0  0  0  3  0  0  0  0  0  0
  -25.8290  -32.2850   23.7870 C   0  0  0  0  0  3  0  0  0  0  0  0
  -25.5460  -33.6820   24.1400 N   0  0  0  0  0  0  0  0  0  0  0  0
  -25.8950  -34.7390   23.3960 C   0  0  0  0  0  0  0  0  0  0  0  0
  -26.5630  -34.6420   22.3630 O   0  0  0  0  0  0  0  0  0  0  0  0
  -24.9540  -33.8320   24.9430 H   0  0  0  0  0  0  0  0  0  0  0  0
  -24.1890  -36.5600   23.0750 C   0  0  0  0  0  1  0  0  0  0  0  0
  -25.4280  -36.1270   23.8750 C   0  0  0  0  0  3  0  0  0  0  0  0
  -27.5760  -36.9720   24.7130 C   0  0  0  0  0  1  0  0  0  0  0  0
  -26.4740  -37.1680   23.7740 N   0  0  0  0  0  0  0  0  0  0  0  0
  -26.0820  -38.0910   23.9350 H   0  0  0  0  0  0  0  0  0  0  0  0
  -26.3350  -31.4790   25.0440 C   0  0  1  0  0  0  0  0  0  0  0  0
  -25.2420  -31.2470   26.1130 C   0  0  0  0  0  1  0  0  0  0  0  0
  -26.8830  -30.0970   24.6180 C   0  0  0  0  0  1  0  0  0  0  0  0
  -27.5100  -32.2320   25.7110 C   0  0  0  0  0  1  0  0  0  0  0  0
  1  5  1  0
  3  6  1  0
  3  1  2  0
  4  2  1  0
  5  2  2  0
  5  7  1  0
  6  4  2  0
  7  8  1  0
  8  9  1  0
  8 50  1  0
 10  9  1  0
 10 11  1  0
 12 20  1  0
 13 18  1  0
 14 15  1  0
 14 13  1  0
 16 15  1  0
 16 25  1  0
 16 17  1  0
 18 12  1  0
 18 17  1  0
 19 12  2  0
 20 11  1  0
 20 21  1  0
 22 23  2  0
 23 42  1  0
 24 23  1  0
 24 27  1  0
 25 26  1  0
 25 22  1  0
 26 24  2  0
 27 28  1  0
 28 29  2  0
 30 33  1  0
 30 29  1  0
 31 30  2  0
 32 31  1  0
 32 27  2  0
 33 34  1  0
 34 35  1  0
 35 36  2  0
 37 36  1  0
 37 41  1  0
 38 37  2  0
 39 34  2  0
 39 38  1  0
 40 39  1  0
 42 43  1  0
 43 46  1  0
 43 45  1  0
 44 42  2  0
 47 48  1  0
 47 22  1  0
 49 47  1  0
 50 51  1  0
 51 52  1  0
 52 55  1  0
 52 54  1  0
 53 52  1  0
 56  6  1  0
 56 57  1  0
 57 58  1  0
 57 60  1  0
 59 57  1  0
 60 61  1  0
 61 62  1  0
 62 64  1  0
 63 74  2  0
 64 69  1  0
 65 73  1  0
 65 75  1  0
 66 72  1  0
 66 68  1  0
 67 73  1  0
 68 67  1  0
 69 68  2  0
 70 71  1  0
 70 64  2  0
 71 66  2  0
 72 65  1  0
 73 63  1  0
 75 77  2  0
 76 75  1  0
 78 76  1  0
 79 88  2  0
 79 84  1  0
 80 76  1  0
 80 84  1  0
 81 80  1  0
 82 83  1  0
 82 81  1  0
 83 79  1  0
 84 85  2  0
 85 86  1  0
 87 86  2  0
 88 87  1  0
 89 63  1  0
 89 90  1  0
 89 99  1  0
 90 93  1  0
 91 95  1  0
 91 90  1  0
 92 91  2  0
 95 94  1  0
 97 95  1  0
 97 98  1  0
 97 96  1  0
 99102  1  1
 99100  1  0
101 99  1  0
M  ISO  4  12 100  20 100  61 101  62 101
M  END
>  <TORSDO>  (52) 
F 28

>  <SCORE>  (52) 
-11.242

>  <name>  (52) 
51

>  <ligand_id>  (52) 
51

>  <original_smiles>  (52) 
[H]c1c([H])c([H])c2c(c1[H])C([H])([H])C([H])([H])C([H])([H])C2([H])N([H])C(=O)C1([H])N(C(=O)C([H])(N([H])C(=O)C([H])(N([H])C([H])([H])[H])C([H])([H])[H])C(C([H])([H])[H])(C([H])([H])[H])C([H])([H])[H])C([H])([H])c2c([H])c(OC([H])([H])C([H])([H])[N+]([H])([H])C([H])([H])c3c([H])c([H])c(C([H])([H])N(C([H])([H])C([H])([H])C([H])([H])N([H])C(=O)N4C([H])([H])C([H])([H])C([H])([H])C([H])(n5nc(-c6c([H])c([H])c(Oc7c([H])c([H])c(F)c([H])c7F)c([H])c6[H])c(C(=O)N([H])[H])c5N([H])[H])C4([H])[H])C([H])([H])C([H])([H])[N+]([H])([H])[H])c([H])c3[H])c([H])c([H])c2C1([H])[H]

>  <smiles>  (52) 
[H]c1c([H])c([H])c2c(c1[H])C([H])([H])C([H])([H])C([H])([H])C2([H])N([H])C(=O)C1([H])N(C(=O)C([H])(N([H])C(=O)C([H])(N([H])C([H])([H])[H])C([H])([H])[H])C(C([H])([H])[H])(C([H])([H])[H])C([H])([H])[H])C([H])([H])c2c([H])c(OC([H])([H])C([H])([H])[N+]([H])([H])C([H])([H])c3c([H])c([H])c(C([H])([H])N(C([H])([H])C([H])([H])C([H])([H])N([H])C(=O)N4C([H])([H])C([H])([H])C([H])([H])C([H])(n5nc(-c6c([H])c([H])c(Oc7c([H])c([H])c(F)c([H])c7F)c([H])c6[H])c(C(=O)N([H])[H])c5N([H])[H])C4([H])[H])C([H])([H])C([H])([H])[N+]([H])([H])[H])c([H])c3[H])c([H])c([H])c2C1([H])[H]

$$$$
52:0:0
     RDKit          3D

 96105  0  0  1  0  0  0  0  0999 V2000
  -31.4370  -23.4590   20.6120 C   0  0  0  0  0  2  0  0  0  0  0  0
  -29.4970  -22.0080   19.9560 C   0  0  0  0  0  2  0  0  0  0  0  0
  -31.0420  -24.4470   19.4980 C   0  0  0  0  0  2  0  0  0  0  0  0
  -29.1450  -23.0230   18.8540 C   0  0  0  0  0  2  0  0  0  0  0  0
  -31.0080  -22.0150   20.2800 C   0  0  0  0  0  3  0  0  0  0  0  0
  -29.5820  -24.3900   19.2290 N   0  0  2  0  0  4  0  0  0  0  0  0
  -29.1150  -24.6140   20.0990 H   0  0  0  0  0  0  0  0  0  0  0  0
  -31.3750  -21.0460   21.4330 C   0  0  0  0  0  2  0  0  0  0  0  0
  -31.0380  -17.5840   19.8070 C   0  0  0  0  0  2  0  0  0  0  0  0
  -30.3520  -17.4140   22.2060 C   0  0  0  0  0  2  0  0  0  0  0  0
  -31.6300  -18.9730   20.0930 C   0  0  0  0  0  2  0  0  0  0  0  0
  -30.9270  -18.8290   22.4420 C   0  0  0  0  0  2  0  0  0  0  0  0
  -31.0890  -16.6880   21.0650 C   0  0  0  0  0  3  0  0  0  0  0  0
  -30.9080  -19.6510   21.2020 N   0  0  1  0  0  4  0  0  0  0  0  0
  -29.9390  -19.7250   20.9310 H   0  0  0  0  0  0  0  0  0  0  0  0
  -31.0850  -14.3670   20.1320 C   0  0  0  0  0  0  0  0  0  0  0  0
  -30.6420  -12.2550   18.9490 C   0  0  0  0  0  2  0  0  0  0  0  0
  -29.6460  -12.5020   17.8000 C   0  0  0  0  0  2  0  0  0  0  0  0
  -28.1950  -12.3890   18.3060 C   0  0  0  0  0  2  0  0  0  0  0  0
  -27.9430  -13.2240   19.5900 C   0  0  0  0  0  3  0  0  0  0  0  0
  -29.0460  -12.9670   20.6410 C   0  0  0  0  0  2  0  0  0  0  0  0
  -30.3500  -13.2320   20.0070 N   0  0  0  0  0  0  0  0  0  0  0  0
  -32.1640  -14.5350   19.5580 O   0  0  0  0  0  0  0  0  0  0  0  0
  -30.5170  -15.3540   20.8400 N   0  0  0  0  0  0  0  0  0  0  0  0
  -29.6220  -15.1500   21.2580 H   0  0  0  0  0  0  0  0  0  0  0  0
  -25.6060  -13.8750   20.4540 C   0  0  0  0  0  0  0  0  0  0  0  0
  -24.5370  -13.1210   20.8560 C   0  0  0  0  0  0  0  0  0  0  0  0
  -24.9540  -11.7590   20.7550 C   0  0  0  0  0  0  0  0  0  0  0  0
  -26.6100  -12.9740   20.1360 N   0  0  0  0  0  0  0  0  0  0  0  0
  -26.2220  -11.6940   20.3710 N   0  0  0  0  0  0  0  0  0  0  0  0
  -24.2020  -10.5110   20.9430 C   0  0  0  0  0  0  0  0  0  0  0  0
  -24.6090   -9.5400   21.8840 C   0  0  0  0  0  3  0  0  0  0  0  0
  -23.8590   -8.3570   22.0610 C   0  0  0  0  0  3  0  0  0  0  0  0
  -22.6890   -8.1370   21.2950 C   0  0  0  0  0  0  0  0  0  0  0  0
  -22.3010   -9.0980   20.3450 C   0  0  0  0  0  3  0  0  0  0  0  0
  -23.0510  -10.2720   20.1660 C   0  0  0  0  0  3  0  0  0  0  0  0
  -21.9120   -7.0080   21.3810 O   0  0  0  0  0  0  0  0  0  0  0  0
  -21.7660   -6.3220   22.5600 C   0  0  0  0  0  0  0  0  0  0  0  0
  -21.2270   -6.9320   23.7140 C   0  0  0  0  0  3  0  0  0  0  0  0
  -21.0300   -6.1720   24.8840 C   0  0  0  0  0  3  0  0  0  0  0  0
  -21.3610   -4.8040   24.9010 C   0  0  0  0  0  0  0  0  0  0  0  0
  -21.8910   -4.1930   23.7510 C   0  0  0  0  0  3  0  0  0  0  0  0
  -22.0900   -4.9500   22.5840 C   0  0  0  0  0  0  0  0  0  0  0  0
  -22.5830   -4.3540   21.4710 F   0  0  0  0  0  0  0  0  0  0  0  0
  -21.1630   -4.0700   26.0220 F   0  0  0  0  0  0  0  0  0  0  0  0
  -23.1730  -13.6290   21.2250 C   0  0  0  0  0  0  0  0  0  0  0  0
  -22.4740  -12.9220   22.1070 N   0  0  0  0  0  0  0  0  0  0  0  0
  -22.7380  -14.6850   20.7660 O   0  0  0  0  0  0  0  0  0  0  0  0
  -22.8390  -12.0660   22.4990 H   0  0  0  0  0  0  0  0  0  0  0  0
  -21.5600  -13.2420   22.3960 H   0  0  0  0  0  0  0  0  0  0  0  0
  -25.8040  -15.2450   20.3120 N   0  0  0  0  0  0  0  0  0  0  0  0
  -25.0650  -15.9180   20.4840 H   0  0  0  0  0  0  0  0  0  0  0  0
  -26.6500  -15.6690   19.9530 H   0  0  0  0  0  0  0  0  0  0  0  0
  -29.1040  -25.4310   18.2830 C   0  0  0  0  0  2  0  0  0  0  0  0
  -29.0520  -26.8040   18.9650 C   0  0  0  0  0  2  0  0  0  0  0  0
  -28.2880  -26.6660   20.1620 O   0  0  0  0  0  0  0  0  0  0  0  0
  -24.5300  -31.8450   23.2300 C   0  0  0  0  0  0  0  0  0  0  0  0
  -27.1210  -27.3810   20.1770 C   0  0  0  0  0  0  0  0  0  0  0  0
  -23.3030  -30.4460   21.5960 C   0  0  0  0  0  3  0  0  0  0  0  0
  -24.7380  -28.8740   20.1890 C   0  0  0  0  0  0  0  0  0  0  0  0
  -25.8290  -30.7760   21.3980 C   0  0  0  0  0  2  0  0  0  0  0  0
  -25.8960  -29.3980   20.7770 C   0  0  0  0  0  0  0  0  0  0  0  0
  -27.0890  -28.6510   20.7830 C   0  0  0  0  0  3  0  0  0  0  0  0
  -25.9520  -26.8490   19.5970 C   0  0  0  0  0  3  0  0  0  0  0  0
  -24.7560  -27.5940   19.6020 C   0  0  0  0  0  3  0  0  0  0  0  0
  -23.5040  -29.7460   20.2230 C   0  0  0  0  0  2  0  0  0  0  0  0
  -24.5720  -31.0360   22.1340 N   0  0  0  0  0  0  0  0  0  0  0  0
  -23.4530  -32.1360   23.7680 O   0  0  0  0  0  0  0  0  0  0  0  0
  -22.6390  -29.4420   22.5650 C   0  0  0  0  0  0  0  0  0  0  0  0
  -21.3190  -29.2470   22.4100 N   0  0  0  0  0  0  0  0  0  0  0  0
  -23.3070  -28.8410   23.4100 O   0  0  0  0  0  0  0  0  0  0  0  0
  -20.8390  -29.7870   21.7020 H   0  0  0  0  0  0  0  0  0  0  0  0
  -17.9510  -28.0150   22.8190 C   0  0  0  0  0  0  0  0  0  0  0  0
  -20.4900  -28.3230   23.1820 C   0  0  0  0  0  3  0  0  0  0  0  0
  -20.6370  -26.8750   22.6600 C   0  0  0  0  0  2  0  0  0  0  0  0
  -19.5810  -26.5000   21.6150 C   0  0  0  0  0  2  0  0  0  0  0  0
  -18.1730  -26.6460   22.2000 C   0  0  0  0  0  2  0  0  0  0  0  0
  -19.0400  -28.8090   23.2650 C   0  0  0  0  0  0  0  0  0  0  0  0
  -18.7790  -30.0900   23.8010 C   0  0  0  0  0  3  0  0  0  0  0  0
  -17.4620  -30.5770   23.8960 C   0  0  0  0  0  3  0  0  0  0  0  0
  -16.3860  -29.7800   23.4660 C   0  0  0  0  0  3  0  0  0  0  0  0
  -16.6300  -28.5010   22.9350 C   0  0  0  0  0  3  0  0  0  0  0  0
  -25.8270  -32.4590   23.8430 C   0  0  0  0  0  3  0  0  0  0  0  0
  -26.3420  -31.6830   25.1170 C   0  0  1  0  0  0  0  0  0  0  0  0
  -25.2490  -31.4530   26.1860 C   0  0  0  0  0  1  0  0  0  0  0  0
  -26.9100  -30.3010   24.7200 C   0  0  0  0  0  1  0  0  0  0  0  0
  -27.5000  -32.4660   25.7770 C   0  0  0  0  0  1  0  0  0  0  0  0
  -25.5390  -33.8620   24.1660 N   0  0  0  0  0  0  0  0  0  0  0  0
  -25.9000  -34.9060   23.4060 C   0  0  0  0  0  0  0  0  0  0  0  0
  -26.5780  -34.7880   22.3830 O   0  0  0  0  0  0  0  0  0  0  0  0
  -24.9320  -34.0310   24.9550 H   0  0  0  0  0  0  0  0  0  0  0  0
  -24.2150  -36.7320   23.0170 C   0  0  0  0  0  1  0  0  0  0  0  0
  -25.4320  -36.3040   23.8540 C   0  0  0  0  0  3  0  0  0  0  0  0
  -27.5620  -37.1480   24.7340 C   0  0  0  0  0  1  0  0  0  0  0  0
  -26.4870  -37.3360   23.7630 N   0  0  0  0  0  0  0  0  0  0  0  0
  -26.0960  -38.2640   23.9030 H   0  0  0  0  0  0  0  0  0  0  0  0
  2  5  1  0
  3  1  1  0
  4  6  1  0
  4  2  1  0
  5  1  1  0
  5  8  1  0
  6  3  1  0
  6  7  1  1
  9 11  1  0
  9 13  1  0
 10 12  1  0
 11 14  1  0
 13 24  1  0
 13 10  1  0
 14  8  1  0
 14 12  1  0
 14 15  1  6
 16 24  1  0
 17 22  1  0
 18 19  1  0
 18 17  1  0
 20 19  1  0
 20 29  1  0
 20 21  1  0
 22 16  1  0
 22 21  1  0
 23 16  2  0
 24 25  1  0
 26 27  2  0
 27 46  1  0
 28 27  1  0
 28 31  1  0
 29 30  1  0
 29 26  1  0
 30 28  2  0
 31 32  1  0
 32 33  2  0
 34 37  1  0
 34 33  1  0
 35 34  2  0
 36 35  1  0
 36 31  2  0
 37 38  1  0
 38 43  2  0
 38 39  1  0
 39 40  2  0
 40 41  1  0
 41 45  1  0
 42 41  2  0
 43 42  1  0
 44 43  1  0
 46 47  1  0
 47 50  1  0
 47 49  1  0
 48 46  2  0
 51 26  1  0
 51 52  1  0
 53 51  1  0
 54 55  1  0
 54  6  1  0
 55 56  1  0
 56 58  1  0
 57 68  2  0
 58 63  1  0
 59 67  1  0
 59 69  1  0
 60 66  1  0
 60 62  1  0
 61 67  1  0
 62 63  2  0
 62 61  1  0
 64 65  1  0
 64 58  2  0
 65 60  2  0
 66 59  1  0
 67 57  1  0
 69 71  2  0
 70 69  1  0
 72 70  1  0
 73 82  2  0
 73 78  1  0
 74 70  1  0
 74 78  1  0
 75 74  1  0
 76 77  1  0
 76 75  1  0
 77 73  1  0
 78 79  2  0
 79 80  1  0
 81 80  2  0
 82 81  1  0
 83 57  1  0
 83 88  1  0
 83 84  1  0
 84 87  1  1
 84 85  1  0
 86 84  1  0
 88 91  1  0
 89 93  1  0
 89 88  1  0
 90 89  2  0
 93 92  1  0
 95 93  1  0
 95 96  1  0
 95 94  1  0
M  ISO  4  16 100  24 100  55 101  56 101
M  END
>  <TORSDO>  (53) 
F 20

>  <SCORE>  (53) 
-13.523

>  <name>  (53) 
52

>  <ligand_id>  (53) 
52

>  <original_smiles>  (53) 
[H]c1c([H])c([H])c2c(c1[H])C([H])([H])C([H])([H])C([H])([H])C2([H])N([H])C(=O)C1([H])N(C(=O)C([H])(N([H])C(=O)C([H])(N([H])C([H])([H])[H])C([H])([H])[H])C(C([H])([H])[H])(C([H])([H])[H])C([H])([H])[H])C([H])([H])c2c([H])c(OC([H])([H])C([H])([H])[N+]3([H])C([H])([H])C([H])([H])C([H])(C([H])([H])[N+]4([H])C([H])([H])C([H])([H])C([H])(N([H])C(=O)N5C([H])([H])C([H])([H])C([H])([H])C([H])(n6nc(-c7c([H])c([H])c(Oc8c([H])c([H])c(F)c([H])c8F)c([H])c7[H])c(C(=O)N([H])[H])c6N([H])[H])C5([H])[H])C([H])([H])C4([H])[H])C([H])([H])C3([H])[H])c([H])c([H])c2C1([H])[H]

>  <smiles>  (53) 
[H]c1c([H])c([H])c2c(c1[H])C([H])([H])C([H])([H])C([H])([H])C2([H])N([H])C(=O)C1([H])N(C(=O)C([H])(N([H])C(=O)C([H])(N([H])C([H])([H])[H])C([H])([H])[H])C(C([H])([H])[H])(C([H])([H])[H])C([H])([H])[H])C([H])([H])c2c([H])c(OC([H])([H])C([H])([H])[N+]3([H])C([H])([H])C([H])([H])C([H])(C([H])([H])[N+]4([H])C([H])([H])C([H])([H])C([H])(N([H])C(=O)N5C([H])([H])C([H])([H])C([H])([H])C([H])(n6nc(-c7c([H])c([H])c(Oc8c([H])c([H])c(F)c([H])c8F)c([H])c7[H])c(C(=O)N([H])[H])c6N([H])[H])C5([H])[H])C([H])([H])C4([H])[H])C([H])([H])C3([H])[H])c([H])c([H])c2C1([H])[H]

$$$$
53:0:0
     RDKit          3D

 91 99  0  0  1  0  0  0  0  0999 V2000
  -29.6620  -20.5030   19.4450 N   0  0  0  0  0  4  0  0  0  0  0  0
  -29.1930  -20.3770   18.5630 H   0  0  0  0  0  0  0  0  0  0  0  0
  -30.6030  -20.7830   19.2250 H   0  0  0  0  0  0  0  0  0  0  0  0
  -30.8290  -15.1170   19.6450 C   0  0  0  0  0  0  0  0  0  0  0  0
  -30.5760  -12.7660   18.7050 C   0  0  0  0  0  2  0  0  0  0  0  0
  -29.5300  -12.7040   17.5690 C   0  0  0  0  0  2  0  0  0  0  0  0
  -28.1200  -12.4810   18.1480 C   0  0  0  0  0  2  0  0  0  0  0  0
  -27.8280  -13.4050   19.3570 C   0  0  0  0  0  3  0  0  0  0  0  0
  -28.9950  -13.4240   20.3720 C   0  0  0  0  0  2  0  0  0  0  0  0
  -30.1830  -13.8720   19.6340 N   0  0  0  0  0  0  0  0  0  0  0  0
  -31.9910  -15.1140   19.2210 O   0  0  0  0  0  0  0  0  0  0  0  0
  -28.9730  -16.7330   20.6090 C   0  0  0  0  0  2  0  0  0  0  0  0
  -30.6050  -17.8080   19.3590 C   0  0  0  0  0  2  0  0  0  0  0  0
  -28.5320  -18.2280   20.3360 C   0  0  0  0  0  3  0  0  0  0  0  0
  -29.8080  -19.0490   20.0890 C   0  0  0  0  0  3  0  0  0  0  0  0
  -30.1640  -16.3880   19.8110 N   0  0  0  0  0  0  0  0  0  0  0  0
  -25.5550  -13.9840   20.3840 C   0  0  0  0  0  0  0  0  0  0  0  0
  -24.5230  -13.2090   20.8330 C   0  0  0  0  0  0  0  0  0  0  0  0
  -24.9500  -11.8560   20.6770 C   0  0  0  0  0  0  0  0  0  0  0  0
  -26.5470  -13.1030   19.9870 N   0  0  0  0  0  0  0  0  0  0  0  0
  -26.1990  -11.8130   20.2240 N   0  0  0  0  0  0  0  0  0  0  0  0
  -24.2160  -10.5990   20.8730 C   0  0  0  0  0  0  0  0  0  0  0  0
  -24.6650   -9.6160   21.7820 C   0  0  0  0  0  3  0  0  0  0  0  0
  -23.9280   -8.4260   21.9700 C   0  0  0  0  0  3  0  0  0  0  0  0
  -22.7310   -8.2110   21.2470 C   0  0  0  0  0  0  0  0  0  0  0  0
  -22.3020   -9.1820   20.3250 C   0  0  0  0  0  3  0  0  0  0  0  0
  -23.0390  -10.3630   20.1360 C   0  0  0  0  0  3  0  0  0  0  0  0
  -21.9650   -7.0740   21.3460 O   0  0  0  0  0  0  0  0  0  0  0  0
  -21.8520   -6.3830   22.5240 C   0  0  0  0  0  0  0  0  0  0  0  0
  -21.3030   -6.9740   23.6850 C   0  0  0  0  0  3  0  0  0  0  0  0
  -21.1400   -6.2060   24.8540 C   0  0  0  0  0  3  0  0  0  0  0  0
  -21.5160   -4.8490   24.8660 C   0  0  0  0  0  0  0  0  0  0  0  0
  -22.0570   -4.2590   23.7110 C   0  0  0  0  0  3  0  0  0  0  0  0
  -22.2210   -5.0230   22.5420 C   0  0  0  0  0  0  0  0  0  0  0  0
  -22.7230   -4.4440   21.4250 F   0  0  0  0  0  0  0  0  0  0  0  0
  -21.3520   -4.1090   25.9880 F   0  0  0  0  0  0  0  0  0  0  0  0
  -23.1770  -13.6980   21.2820 C   0  0  0  0  0  0  0  0  0  0  0  0
  -22.5510  -12.9930   22.2180 N   0  0  0  0  0  0  0  0  0  0  0  0
  -22.6940  -14.7400   20.8390 O   0  0  0  0  0  0  0  0  0  0  0  0
  -22.9560  -12.1470   22.5920 H   0  0  0  0  0  0  0  0  0  0  0  0
  -21.6560  -13.3030   22.5660 H   0  0  0  0  0  0  0  0  0  0  0  0
  -25.7130  -15.3590   20.2520 N   0  0  0  0  0  0  0  0  0  0  0  0
  -24.9550  -16.0010   20.4550 H   0  0  0  0  0  0  0  0  0  0  0  0
  -26.4900  -15.7980   19.7780 H   0  0  0  0  0  0  0  0  0  0  0  0
  -27.7640  -18.7450   21.4550 N   0  0  0  0  0  0  0  0  0  0  0  0
  -28.2910  -18.6330   22.3150 H   0  0  0  0  0  0  0  0  0  0  0  0
  -26.9430  -18.1630   21.5910 H   0  0  0  0  0  0  0  0  0  0  0  0
  -28.9940  -21.7780   20.1320 C   0  0  0  0  0  2  0  0  0  0  0  0
  -29.0620  -23.3650   19.5070 C   0  0  0  0  0  3  0  0  0  0  0  0
  -28.2040  -24.7230   20.0640 C   0  0  0  0  0  3  0  0  0  0  0  0
  -28.3880  -26.2440   19.7270 O   0  0  0  0  0  0  0  0  0  0  0  0
  -24.6780  -31.7210   23.0490 C   0  0  0  0  0  0  0  0  0  0  0  0
  -27.3020  -27.1960   19.7740 C   0  0  0  0  0  0  0  0  0  0  0  0
  -23.4770  -30.3670   21.3780 C   0  0  0  0  0  3  0  0  0  0  0  0
  -24.9320  -28.8860   19.8600 C   0  0  0  0  0  0  0  0  0  0  0  0
  -26.0190  -30.7020   21.1680 C   0  0  0  0  0  2  0  0  0  0  0  0
  -26.1140  -29.3380   20.4610 C   0  0  0  0  0  0  0  0  0  0  0  0
  -27.3010  -28.5110   20.3990 C   0  0  0  0  0  3  0  0  0  0  0  0
  -26.0920  -26.8510   19.1360 C   0  0  0  0  0  3  0  0  0  0  0  0
  -24.9340  -27.6580   19.1820 C   0  0  0  0  0  3  0  0  0  0  0  0
  -23.6850  -29.7500   19.9690 C   0  0  0  0  0  2  0  0  0  0  0  0
  -24.7460  -30.9490   21.9210 N   0  0  0  0  0  0  0  0  0  0  0  0
  -23.5980  -31.9550   23.6110 O   0  0  0  0  0  0  0  0  0  0  0  0
  -22.8430  -29.3040   22.3110 C   0  0  0  0  0  0  0  0  0  0  0  0
  -21.5160  -29.1070   22.2070 N   0  0  0  0  0  0  0  0  0  0  0  0
  -23.5470  -28.6590   23.0920 O   0  0  0  0  0  0  0  0  0  0  0  0
  -21.0020  -29.6810   21.5530 H   0  0  0  0  0  0  0  0  0  0  0  0
  -18.1730  -27.8210   22.7510 C   0  0  0  0  0  0  0  0  0  0  0  0
  -20.7350  -28.1180   22.9530 C   0  0  0  0  0  3  0  0  0  0  0  0
  -20.8430  -26.7170   22.3060 C   0  0  0  0  0  2  0  0  0  0  0  0
  -19.7170  -26.4240   21.3100 C   0  0  0  0  0  2  0  0  0  0  0  0
  -18.3530  -26.5110   22.0020 C   0  0  0  0  0  2  0  0  0  0  0  0
  -19.2920  -28.5830   23.1830 C   0  0  0  0  0  0  0  0  0  0  0  0
  -19.0690  -29.8080   23.8480 C   0  0  0  0  0  3  0  0  0  0  0  0
  -17.7610  -30.2740   24.0790 C   0  0  0  0  0  3  0  0  0  0  0  0
  -16.6580  -29.5100   23.6610 C   0  0  0  0  0  3  0  0  0  0  0  0
  -16.8660  -28.2840   23.0020 C   0  0  0  0  0  3  0  0  0  0  0  0
  -25.9540  -32.3630   23.6770 C   0  0  0  0  0  3  0  0  0  0  0  0
  -26.5050  -31.5590   24.9200 C   0  0  1  0  0  0  0  0  0  0  0  0
  -25.4300  -31.2570   25.9910 C   0  0  0  0  0  1  0  0  0  0  0  0
  -27.1160  -30.2110   24.4740 C   0  0  0  0  0  1  0  0  0  0  0  0
  -27.6460  -32.3570   25.5950 C   0  0  0  0  0  1  0  0  0  0  0  0
  -25.6180  -33.7410   24.0660 N   0  0  0  0  0  0  0  0  0  0  0  0
  -25.9170  -34.8320   23.3480 C   0  0  0  0  0  0  0  0  0  0  0  0
  -26.5700  -34.7840   22.3030 O   0  0  0  0  0  0  0  0  0  0  0  0
  -25.0350  -33.8520   24.8820 H   0  0  0  0  0  0  0  0  0  0  0  0
  -24.1550  -36.6100   23.0950 C   0  0  0  0  0  1  0  0  0  0  0  0
  -25.4130  -36.1900   23.8730 C   0  0  0  0  0  3  0  0  0  0  0  0
  -27.5300  -37.0880   24.7320 C   0  0  0  0  0  1  0  0  0  0  0  0
  -26.4250  -37.2650   23.7950 N   0  0  0  0  0  0  0  0  0  0  0  0
  -26.0010  -38.1730   23.9720 H   0  0  0  0  0  0  0  0  0  0  0  0
  1 48  1  0
  2  1  1  0
  3  1  1  0
  4 16  1  0
  5 10  1  0
  6  7  1  0
  6  5  1  0
  8  7  1  0
  8 20  1  0
  8  9  1  0
 10  4  1  0
 10  9  1  0
 11  4  2  0
 13 16  1  0
 13 15  1  0
 14 12  1  0
 14 45  1  0
 15  1  1  0
 15 14  1  0
 16 12  1  0
 17 18  2  0
 18 37  1  0
 19 18  1  0
 19 22  1  0
 20 21  1  0
 20 17  1  0
 21 19  2  0
 22 23  1  0
 23 24  2  0
 25 28  1  0
 25 24  1  0
 26 25  2  0
 27 26  1  0
 27 22  2  0
 28 29  1  0
 29 34  2  0
 29 30  1  0
 30 31  2  0
 31 32  1  0
 32 36  1  0
 33 32  2  0
 34 33  1  0
 35 34  1  0
 37 38  1  0
 38 41  1  0
 38 40  1  0
 39 37  2  0
 42 17  1  0
 42 43  1  0
 44 42  1  0
 45 47  1  0
 45 46  1  0
 49 50  2  0
 49 48  1  0
 51 53  1  0
 51 50  1  0
 52 63  2  0
 53 58  1  0
 54 62  1  0
 54 64  1  0
 55 61  1  0
 55 57  1  0
 56 62  1  0
 57 56  1  0
 58 57  2  0
 59 60  1  0
 59 53  2  0
 60 55  2  0
 61 54  1  0
 62 52  1  0
 64 66  2  0
 65 64  1  0
 67 65  1  0
 68 77  2  0
 68 73  1  0
 69 65  1  0
 69 73  1  0
 70 69  1  0
 71 72  1  0
 71 70  1  0
 72 68  1  0
 73 74  2  0
 74 75  1  0
 76 75  2  0
 77 76  1  0
 78 52  1  0
 78 83  1  0
 78 79  1  0
 79 82  1  1
 79 80  1  0
 81 79  1  0
 83 86  1  0
 84 88  1  0
 84 83  1  0
 85 84  2  0
 88 87  1  0
 90 88  1  0
 90 91  1  0
 90 89  1  0
M  ISO  4   4 100  16 100  50 101  51 101
M  END
>  <TORSDO>  (54) 
F 20

>  <SCORE>  (54) 
-13.331

>  <name>  (54) 
53

>  <ligand_id>  (54) 
53

>  <original_smiles>  (54) 
[H]c1c([H])c([H])c2c(c1[H])C([H])([H])C([H])([H])C([H])([H])C2([H])N([H])C(=O)C1([H])N(C(=O)C([H])(N([H])C(=O)C([H])(N([H])C([H])([H])[H])C([H])([H])[H])C(C([H])([H])[H])(C([H])([H])[H])C([H])([H])[H])C([H])([H])c2c([H])c(OC([H])([H])C([H])([H])C([H])([H])[N+]([H])([H])C3([H])C([H])([H])N(C(=O)N4C([H])([H])C([H])([H])C([H])([H])C([H])(n5nc(-c6c([H])c([H])c(Oc7c([H])c([H])c(F)c([H])c7F)c([H])c6[H])c(C(=O)N([H])[H])c5N([H])[H])C4([H])[H])C([H])([H])C3([H])N([H])[H])c([H])c([H])c2C1([H])[H]

>  <smiles>  (54) 
[H]c1c([H])c([H])c2c(c1[H])C([H])([H])C([H])([H])C([H])([H])C2([H])N([H])C(=O)C1([H])N(C(=O)C([H])(N([H])C(=O)C([H])(N([H])C([H])([H])[H])C([H])([H])[H])C(C([H])([H])[H])(C([H])([H])[H])C([H])([H])[H])C([H])([H])c2c([H])c(OC([H])([H])C([H])([H])C([H])([H])[N+]([H])([H])C3([H])C([H])([H])N(C(=O)N4C([H])([H])C([H])([H])C([H])([H])C([H])(n5nc(-c6c([H])c([H])c(Oc7c([H])c([H])c(F)c([H])c7F)c([H])c6[H])c(C(=O)N([H])[H])c5N([H])[H])C4([H])[H])C([H])([H])C3([H])N([H])[H])c([H])c([H])c2C1([H])[H]

$$$$
54:0:0
     RDKit          3D

 96105  0  0  1  0  0  0  0  0999 V2000
  -27.6270  -21.4470   19.0900 C   0  0  0  0  0  2  0  0  0  0  0  0
  -30.1520  -21.1260   18.8730 C   0  0  0  0  0  2  0  0  0  0  0  0
  -27.7500  -22.7700   18.3080 C   0  0  0  0  0  2  0  0  0  0  0  0
  -30.0990  -22.6310   19.1970 C   0  0  0  0  0  2  0  0  0  0  0  0
  -28.7620  -20.4570   18.7390 C   0  0  0  0  0  3  0  0  0  0  0  0
  -29.1140  -23.3730   18.3610 N   0  0  2  0  0  4  0  0  0  0  0  0
  -29.4630  -23.2830   17.4170 H   0  0  0  0  0  0  0  0  0  0  0  0
  -28.6940  -19.2410   19.5870 N   0  0  0  0  0  4  0  0  0  0  0  0
  -27.9490  -19.3900   20.2540 H   0  0  0  0  0  0  0  0  0  0  0  0
  -29.5480  -19.1540   20.1120 H   0  0  0  0  0  0  0  0  0  0  0  0
  -28.4360  -17.9480   18.9090 C   0  0  0  0  0  2  0  0  0  0  0  0
  -29.6690  -17.0050   18.8520 C   0  0  0  0  0  2  0  0  0  0  0  0
  -31.2610  -14.4260   19.6190 C   0  0  0  0  0  0  0  0  0  0  0  0
  -30.7910  -12.2480   18.5370 C   0  0  0  0  0  2  0  0  0  0  0  0
  -29.7250  -12.3780   17.4340 C   0  0  0  0  0  2  0  0  0  0  0  0
  -28.3000  -12.2860   18.0180 C   0  0  0  0  0  2  0  0  0  0  0  0
  -28.1030  -13.2190   19.2360 C   0  0  0  0  0  3  0  0  0  0  0  0
  -29.2480  -13.0310   20.2450 C   0  0  0  0  0  2  0  0  0  0  0  0
  -30.5340  -13.2770   19.5580 N   0  0  0  0  0  0  0  0  0  0  0  0
  -32.2120  -14.6620   18.8650 O   0  0  0  0  0  0  0  0  0  0  0  0
  -30.6480  -16.5750   22.5490 C   0  0  0  0  0  2  0  0  0  0  0  0
  -29.8200  -17.2590   21.4710 C   0  0  0  0  0  2  0  0  0  0  0  0
  -31.0560  -15.2440   21.9200 C   0  0  0  0  0  2  0  0  0  0  0  0
  -30.4680  -16.7640   20.1730 C   0  0  0  0  0  3  0  0  0  0  0  0
  -30.7760  -15.3550   20.4790 N   0  0  0  0  0  0  0  0  0  0  0  0
  -25.8820  -13.9840   20.2950 C   0  0  0  0  0  0  0  0  0  0  0  0
  -24.8090  -13.2760   20.7620 C   0  0  0  0  0  0  0  0  0  0  0  0
  -25.1430  -11.8980   20.5950 C   0  0  0  0  0  0  0  0  0  0  0  0
  -26.8030  -13.0350   19.8700 N   0  0  0  0  0  0  0  0  0  0  0  0
  -26.3700  -11.7730   20.1140 N   0  0  0  0  0  0  0  0  0  0  0  0
  -24.3400  -10.6900   20.8110 C   0  0  0  0  0  0  0  0  0  0  0  0
  -24.7600   -9.6830   21.7070 C   0  0  0  0  0  3  0  0  0  0  0  0
  -23.9660   -8.5340   21.9110 C   0  0  0  0  0  3  0  0  0  0  0  0
  -22.7420   -8.3850   21.2170 C   0  0  0  0  0  0  0  0  0  0  0  0
  -22.3420   -9.3790   20.3080 C   0  0  0  0  0  3  0  0  0  0  0  0
  -23.1350  -10.5200   20.1020 C   0  0  0  0  0  3  0  0  0  0  0  0
  -21.9170   -7.2910   21.3300 O   0  0  0  0  0  0  0  0  0  0  0  0
  -21.7850   -6.6110   22.5120 C   0  0  0  0  0  0  0  0  0  0  0  0
  -21.3300   -7.2430   23.6910 C   0  0  0  0  0  3  0  0  0  0  0  0
  -21.1430   -6.4900   24.8670 C   0  0  0  0  0  3  0  0  0  0  0  0
  -21.3990   -5.1060   24.8670 C   0  0  0  0  0  0  0  0  0  0  0  0
  -21.8480   -4.4750   23.6920 C   0  0  0  0  0  3  0  0  0  0  0  0
  -22.0390   -5.2250   22.5220 C   0  0  0  0  0  0  0  0  0  0  0  0
  -22.4510   -4.6060   21.3880 F   0  0  0  0  0  0  0  0  0  0  0  0
  -21.2120   -4.3810   25.9940 F   0  0  0  0  0  0  0  0  0  0  0  0
  -23.5060  -13.8420   21.2410 C   0  0  0  0  0  0  0  0  0  0  0  0
  -22.8630  -13.1900   22.2050 N   0  0  0  0  0  0  0  0  0  0  0  0
  -23.0700  -14.8980   20.7900 O   0  0  0  0  0  0  0  0  0  0  0  0
  -23.2330  -12.3400   22.6000 H   0  0  0  0  0  0  0  0  0  0  0  0
  -21.9940  -13.5580   22.5680 H   0  0  0  0  0  0  0  0  0  0  0  0
  -26.1400  -15.3490   20.1740 N   0  0  0  0  0  0  0  0  0  0  0  0
  -25.4570  -16.0470   20.4470 H   0  0  0  0  0  0  0  0  0  0  0  0
  -26.9430  -15.7340   19.6960 H   0  0  0  0  0  0  0  0  0  0  0  0
  -29.1060  -24.8400   18.6100 C   0  0  0  0  0  2  0  0  0  0  0  0
  -28.6150  -25.2360   20.0210 C   0  0  0  0  0  2  0  0  0  0  0  0
  -28.5750  -26.6510   20.1550 O   0  0  0  0  0  0  0  0  0  0  0  0
  -24.6260  -31.7490   23.0880 C   0  0  0  0  0  0  0  0  0  0  0  0
  -27.3560  -27.2840   20.1370 C   0  0  0  0  0  0  0  0  0  0  0  0
  -23.4510  -30.3000   21.4610 C   0  0  0  0  0  3  0  0  0  0  0  0
  -24.9370  -28.7390   20.0920 C   0  0  0  0  0  0  0  0  0  0  0  0
  -25.9740  -30.6780   21.2880 C   0  0  0  0  0  2  0  0  0  0  0  0
  -26.0790  -29.2940   20.6810 C   0  0  0  0  0  0  0  0  0  0  0  0
  -27.2890  -28.5770   20.6960 C   0  0  0  0  0  3  0  0  0  0  0  0
  -26.1960  -26.7280   19.5510 C   0  0  0  0  0  3  0  0  0  0  0  0
  -24.9890  -27.4540   19.5240 C   0  0  0  0  0  3  0  0  0  0  0  0
  -23.6840  -29.5860   20.1020 C   0  0  0  0  0  2  0  0  0  0  0  0
  -24.7010  -30.9250   22.0040 N   0  0  0  0  0  0  0  0  0  0  0  0
  -23.5340  -32.0270   23.6030 O   0  0  0  0  0  0  0  0  0  0  0  0
  -22.7940  -29.2950   22.4360 C   0  0  0  0  0  0  0  0  0  0  0  0
  -21.4750  -29.0950   22.2860 N   0  0  0  0  0  0  0  0  0  0  0  0
  -23.4680  -28.7000   23.2810 O   0  0  0  0  0  0  0  0  0  0  0  0
  -20.9940  -29.6320   21.5770 H   0  0  0  0  0  0  0  0  0  0  0  0
  -18.0930  -27.9220   22.7740 C   0  0  0  0  0  0  0  0  0  0  0  0
  -20.6500  -28.1700   23.0620 C   0  0  0  0  0  3  0  0  0  0  0  0
  -20.7490  -26.7310   22.5020 C   0  0  0  0  0  2  0  0  0  0  0  0
  -19.6510  -26.4020   21.4870 C   0  0  0  0  0  2  0  0  0  0  0  0
  -18.2670  -26.5630   22.1200 C   0  0  0  0  0  2  0  0  0  0  0  0
  -19.2130  -28.6840   23.2040 C   0  0  0  0  0  0  0  0  0  0  0  0
  -18.9940  -29.9580   23.7720 C   0  0  0  0  0  3  0  0  0  0  0  0
  -17.6900  -30.4680   23.9200 C   0  0  0  0  0  3  0  0  0  0  0  0
  -16.5870  -29.7000   23.5090 C   0  0  0  0  0  3  0  0  0  0  0  0
  -16.7890  -28.4300   22.9420 C   0  0  0  0  0  3  0  0  0  0  0  0
  -25.8980  -32.4010   23.7130 C   0  0  0  0  0  3  0  0  0  0  0  0
  -25.5500  -33.7750   24.0960 N   0  0  0  0  0  0  0  0  0  0  0  0
  -25.8270  -34.8610   23.3600 C   0  0  0  0  0  0  0  0  0  0  0  0
  -26.4750  -34.8110   22.3110 O   0  0  0  0  0  0  0  0  0  0  0  0
  -24.9730  -33.8860   24.9160 H   0  0  0  0  0  0  0  0  0  0  0  0
  -24.0450  -36.6110   23.0800 C   0  0  0  0  0  1  0  0  0  0  0  0
  -25.3020  -36.2160   23.8710 C   0  0  0  0  0  3  0  0  0  0  0  0
  -27.4100  -37.1350   24.7320 C   0  0  0  0  0  1  0  0  0  0  0  0
  -26.3050  -37.3020   23.7930 N   0  0  0  0  0  0  0  0  0  0  0  0
  -25.8730  -38.2060   23.9670 H   0  0  0  0  0  0  0  0  0  0  0  0
  -26.4620  -31.6020   24.9520 C   0  0  1  0  0  0  0  0  0  0  0  0
  -25.3920  -31.2590   26.0140 C   0  0  0  0  0  1  0  0  0  0  0  0
  -27.1080  -30.2760   24.4880 C   0  0  0  0  0  1  0  0  0  0  0  0
  -27.5790  -32.4220   25.6380 C   0  0  0  0  0  1  0  0  0  0  0  0
  2  4  1  0
  3  6  1  0
  3  1  1  0
  5  2  1  0
  5  1  1  0
  5  8  1  0
  6 54  1  0
  6  4  1  0
  6  7  1  6
  8 10  1  0
  8  9  1  0
 11  8  1  0
 12 11  1  0
 13 25  1  0
 14 19  1  0
 15 16  1  0
 15 14  1  0
 17 16  1  0
 17 29  1  0
 17 18  1  0
 19 13  1  0
 19 18  1  0
 20 13  2  0
 22 21  1  0
 23 21  1  0
 24 12  1  0
 24 25  1  0
 24 22  1  0
 25 23  1  0
 26 27  2  0
 27 46  1  0
 28 27  1  0
 28 31  1  0
 29 30  1  0
 29 26  1  0
 30 28  2  0
 31 32  1  0
 32 33  2  0
 34 37  1  0
 34 33  1  0
 35 34  2  0
 36 35  1  0
 36 31  2  0
 37 38  1  0
 38 43  2  0
 38 39  1  0
 39 40  2  0
 40 41  1  0
 41 45  1  0
 42 41  2  0
 43 42  1  0
 44 43  1  0
 46 47  1  0
 47 50  1  0
 47 49  1  0
 48 46  2  0
 51 26  1  0
 51 52  1  0
 53 51  1  0
 54 55  1  0
 55 56  1  0
 57 68  2  0
 58 56  1  0
 58 63  1  0
 59 67  1  0
 59 69  1  0
 60 66  1  0
 60 62  1  0
 61 67  1  0
 62 63  2  0
 62 61  1  0
 64 58  2  0
 65 64  1  0
 65 60  2  0
 66 59  1  0
 67 57  1  0
 69 71  2  0
 70 69  1  0
 72 70  1  0
 73 82  2  0
 73 78  1  0
 74 70  1  0
 74 78  1  0
 75 74  1  0
 76 77  1  0
 76 75  1  0
 77 73  1  0
 78 79  2  0
 79 80  1  0
 81 80  2  0
 82 81  1  0
 83 57  1  0
 83 84  1  0
 83 93  1  0
 84 87  1  0
 85 89  1  0
 85 84  1  0
 86 85  2  0
 89 88  1  0
 91 89  1  0
 91 92  1  0
 91 90  1  0
 93 96  1  1
 93 94  1  0
 95 93  1  0
M  ISO  4  13 100  25 100  55 101  56 101
M  END
>  <TORSDO>  (55) 
F 21

>  <SCORE>  (55) 
-12.536

>  <name>  (55) 
54

>  <ligand_id>  (55) 
54

>  <original_smiles>  (55) 
[H]c1c([H])c([H])c2c(c1[H])C([H])([H])C([H])([H])C([H])([H])C2([H])N([H])C(=O)C1([H])N(C(=O)C([H])(N([H])C(=O)C([H])(N([H])C([H])([H])[H])C([H])([H])[H])C(C([H])([H])[H])(C([H])([H])[H])C([H])([H])[H])C([H])([H])c2c([H])c(OC([H])([H])C([H])([H])[N+]3([H])C([H])([H])C([H])([H])C([H])([N+]([H])([H])C([H])([H])C([H])([H])C4([H])N(C(=O)N5C([H])([H])C([H])([H])C([H])([H])C([H])(n6nc(-c7c([H])c([H])c(Oc8c([H])c([H])c(F)c([H])c8F)c([H])c7[H])c(C(=O)N([H])[H])c6N([H])[H])C5([H])[H])C([H])([H])C([H])([H])C4([H])[H])C([H])([H])C3([H])[H])c([H])c([H])c2C1([H])[H]

>  <smiles>  (55) 
[H]c1c([H])c([H])c2c(c1[H])C([H])([H])C([H])([H])C([H])([H])C2([H])N([H])C(=O)C1([H])N(C(=O)C([H])(N([H])C(=O)C([H])(N([H])C([H])([H])[H])C([H])([H])[H])C(C([H])([H])[H])(C([H])([H])[H])C([H])([H])[H])C([H])([H])c2c([H])c(OC([H])([H])C([H])([H])[N+]3([H])C([H])([H])C([H])([H])C([H])([N+]([H])([H])C([H])([H])C([H])([H])C4([H])N(C(=O)N5C([H])([H])C([H])([H])C([H])([H])C([H])(n6nc(-c7c([H])c([H])c(Oc8c([H])c([H])c(F)c([H])c8F)c([H])c7[H])c(C(=O)N([H])[H])c6N([H])[H])C5([H])[H])C([H])([H])C([H])([H])C4([H])[H])C([H])([H])C3([H])[H])c([H])c([H])c2C1([H])[H]

$$$$
55:0:0
     RDKit          3D

 94103  0  0  1  0  0  0  0  0999 V2000
  -29.4040  -22.2530   19.8870 C   0  0  0  0  0  2  0  0  0  0  0  0
  -32.0920  -24.7140   19.2120 C   0  0  0  0  0  2  0  0  0  0  0  0
  -30.9040  -25.6550   19.2520 C   0  0  0  0  0  2  0  0  0  0  0  0
  -31.4670  -23.3320   19.2570 C   0  0  0  0  0  2  0  0  0  0  0  0
  -29.6540  -24.7770   19.4380 C   0  0  0  0  0  3  0  0  0  0  0  0
  -30.2120  -23.5030   19.9970 N   0  0  0  0  0  0  0  0  0  0  0  0
  -28.5770  -25.5790   20.2550 C   0  0  0  0  0  2  0  0  0  0  0  0
  -28.5960  -27.0130   19.9610 O   0  0  0  0  0  0  0  0  0  0  0  0
  -24.6440  -31.9010   23.4170 C   0  0  0  0  0  0  0  0  0  0  0  0
  -27.4090  -27.7290   20.0340 C   0  0  0  0  0  0  0  0  0  0  0  0
  -23.4770  -30.5740   21.6880 C   0  0  0  0  0  3  0  0  0  0  0  0
  -24.9720  -29.1870   20.1520 C   0  0  0  0  0  0  0  0  0  0  0  0
  -25.9920  -31.0240   21.5030 C   0  0  0  0  0  2  0  0  0  0  0  0
  -26.1200  -29.7000   20.7680 C   0  0  0  0  0  0  0  0  0  0  0  0
  -27.3430  -28.9840   20.6990 C   0  0  0  0  0  3  0  0  0  0  0  0
  -26.2430  -27.2480   19.4030 C   0  0  0  0  0  3  0  0  0  0  0  0
  -25.0320  -27.9640   19.4620 C   0  0  0  0  0  3  0  0  0  0  0  0
  -23.7020  -30.0000   20.2630 C   0  0  0  0  0  2  0  0  0  0  0  0
  -24.7220  -31.1800   22.2620 N   0  0  0  0  0  0  0  0  0  0  0  0
  -23.5570  -32.0950   23.9800 O   0  0  0  0  0  0  0  0  0  0  0  0
  -22.8680  -29.4670   22.5800 C   0  0  0  0  0  0  0  0  0  0  0  0
  -21.5670  -29.1880   22.3870 N   0  0  0  0  0  0  0  0  0  0  0  0
  -23.5640  -28.8620   23.3990 O   0  0  0  0  0  0  0  0  0  0  0  0
  -21.0640  -29.7340   21.7020 H   0  0  0  0  0  0  0  0  0  0  0  0
  -18.2890  -27.6910   22.6650 C   0  0  0  0  0  0  0  0  0  0  0  0
  -20.7970  -28.1560   23.0830 C   0  0  0  0  0  3  0  0  0  0  0  0
  -21.0540  -26.7610   22.4680 C   0  0  0  0  0  2  0  0  0  0  0  0
  -20.0380  -26.3830   21.3860 C   0  0  0  0  0  2  0  0  0  0  0  0
  -18.6160  -26.3860   21.9580 C   0  0  0  0  0  2  0  0  0  0  0  0
  -19.3140  -28.5290   23.1800 C   0  0  0  0  0  0  0  0  0  0  0  0
  -18.9550  -29.7480   23.7970 C   0  0  0  0  0  3  0  0  0  0  0  0
  -17.6050  -30.1290   23.9070 C   0  0  0  0  0  3  0  0  0  0  0  0
  -16.5950  -29.2880   23.4110 C   0  0  0  0  0  3  0  0  0  0  0  0
  -16.9370  -28.0700   22.7960 C   0  0  0  0  0  3  0  0  0  0  0  0
  -25.9100  -32.5340   24.0730 C   0  0  0  0  0  3  0  0  0  0  0  0
  -26.3670  -31.7910   25.3880 C   0  0  1  0  0  0  0  0  0  0  0  0
  -25.2260  -31.5740   26.4090 C   0  0  0  0  0  1  0  0  0  0  0  0
  -26.9660  -30.4050   25.0510 C   0  0  0  0  0  1  0  0  0  0  0  0
  -27.4870  -32.5980   26.0850 C   0  0  0  0  0  1  0  0  0  0  0  0
  -25.6040  -33.9430   24.3550 N   0  0  0  0  0  0  0  0  0  0  0  0
  -26.0080  -34.9750   23.6010 C   0  0  0  0  0  0  0  0  0  0  0  0
  -26.7460  -34.8390   22.6210 O   0  0  0  0  0  0  0  0  0  0  0  0
  -24.9590  -34.1250   25.1090 H   0  0  0  0  0  0  0  0  0  0  0  0
  -24.3630  -36.8020   23.0720 C   0  0  0  0  0  1  0  0  0  0  0  0
  -25.5160  -36.3810   23.9960 C   0  0  0  0  0  3  0  0  0  0  0  0
  -27.5760  -37.2400   25.0200 C   0  0  0  0  0  1  0  0  0  0  0  0
  -26.5800  -37.4070   23.9650 N   0  0  0  0  0  0  0  0  0  0  0  0
  -26.1840  -38.3400   24.0480 H   0  0  0  0  0  0  0  0  0  0  0  0
  -30.2330  -20.8970   19.9650 C   0  0  0  0  0  2  0  0  0  0  0  0
  -29.5460  -19.5930   21.9650 C   0  0  0  0  0  1  0  0  0  0  0  0
  -29.4760  -19.7020   20.4880 N   0  0  2  0  0  4  0  0  0  0  0  0
  -28.5130  -19.9490   20.3100 H   0  0  0  0  0  0  0  0  0  0  0  0
  -31.4360  -14.9280   19.9560 C   0  0  0  0  0  0  0  0  0  0  0  0
  -31.0800  -12.6730   19.0190 C   0  0  0  0  0  2  0  0  0  0  0  0
  -30.1050  -12.7500   17.8230 C   0  0  0  0  0  2  0  0  0  0  0  0
  -28.6400  -12.7020   18.2970 C   0  0  0  0  0  2  0  0  0  0  0  0
  -28.3440  -13.6380   19.5000 C   0  0  0  0  0  3  0  0  0  0  0  0
  -29.4320  -13.5320   20.5900 C   0  0  0  0  0  2  0  0  0  0  0  0
  -30.7270  -13.7620   19.9420 N   0  0  0  0  0  0  0  0  0  0  0  0
  -32.6580  -14.9400   19.7920 O   0  0  0  0  0  0  0  0  0  0  0  0
  -29.7880  -17.1650   17.5620 C   0  0  0  0  0  2  0  0  0  0  0  0
  -29.6880  -18.5220   18.2560 C   0  0  0  0  0  2  0  0  0  0  0  0
  -30.9760  -16.3970   18.1470 C   0  0  0  0  0  2  0  0  0  0  0  0
  -30.6670  -17.3120   20.3520 C   0  0  0  0  0  2  0  0  0  0  0  0
  -29.6110  -18.3600   19.7910 C   0  0  0  0  0  3  0  0  0  0  0  0
  -30.7310  -16.0390   19.5580 N   0  0  0  0  0  0  0  0  0  0  0  0
  -26.0100  -14.3310   20.3190 C   0  0  0  0  0  0  0  0  0  0  0  0
  -24.9220  -13.6000   20.7090 C   0  0  0  0  0  0  0  0  0  0  0  0
  -25.3210  -12.2300   20.6420 C   0  0  0  0  0  0  0  0  0  0  0  0
  -27.0060  -13.4090   20.0370 N   0  0  0  0  0  0  0  0  0  0  0  0
  -26.6000  -12.1390   20.2960 N   0  0  0  0  0  0  0  0  0  0  0  0
  -24.5450  -10.9970   20.8260 C   0  0  0  0  0  0  0  0  0  0  0  0
  -24.9000  -10.0390   21.8010 C   0  0  0  0  0  3  0  0  0  0  0  0
  -24.1270   -8.8710   21.9720 C   0  0  0  0  0  3  0  0  0  0  0  0
  -22.9830   -8.6520   21.1680 C   0  0  0  0  0  0  0  0  0  0  0  0
  -22.6480   -9.5980   20.1820 C   0  0  0  0  0  3  0  0  0  0  0  0
  -23.4230  -10.7570   20.0090 C   0  0  0  0  0  3  0  0  0  0  0  0
  -22.1850   -7.5370   21.2490 O   0  0  0  0  0  0  0  0  0  0  0  0
  -21.9680   -6.8930   22.4410 C   0  0  0  0  0  0  0  0  0  0  0  0
  -21.3150   -7.5240   23.5220 C   0  0  0  0  0  3  0  0  0  0  0  0
  -21.0520   -6.8010   24.7030 C   0  0  0  0  0  3  0  0  0  0  0  0
  -21.4300   -5.4500   24.8020 C   0  0  0  0  0  0  0  0  0  0  0  0
  -22.0760   -4.8180   23.7240 C   0  0  0  0  0  3  0  0  0  0  0  0
  -22.3420   -5.5380   22.5470 C   0  0  0  0  0  0  0  0  0  0  0  0
  -22.9460   -4.9200   21.5030 F   0  0  0  0  0  0  0  0  0  0  0  0
  -21.1710   -4.7530   25.9330 F   0  0  0  0  0  0  0  0  0  0  0  0
  -23.5550  -14.1330   21.0290 C   0  0  0  0  0  0  0  0  0  0  0  0
  -22.8260  -13.4600   21.9120 N   0  0  0  0  0  0  0  0  0  0  0  0
  -23.1450  -15.1800   20.5290 O   0  0  0  0  0  0  0  0  0  0  0  0
  -23.1710  -12.6140   22.3400 H   0  0  0  0  0  0  0  0  0  0  0  0
  -21.9090  -13.7990   22.1650 H   0  0  0  0  0  0  0  0  0  0  0  0
  -26.2330  -15.6950   20.1550 N   0  0  0  0  0  0  0  0  0  0  0  0
  -25.4870  -16.3750   20.2610 H   0  0  0  0  0  0  0  0  0  0  0  0
  -27.0730  -16.0820   19.7480 H   0  0  0  0  0  0  0  0  0  0  0  0
  1 49  1  0
  1  6  1  0
  2  3  1  0
  2  4  1  0
  3  5  1  0
  4  6  1  0
  5  6  1  0
  5  7  1  0
  8 10  1  0
  8  7  1  0
  9 20  2  0
 10 15  1  0
 11 19  1  0
 11 21  1  0
 12 18  1  0
 12 14  1  0
 13 19  1  0
 14 13  1  0
 15 14  2  0
 16 17  1  0
 16 10  2  0
 17 12  2  0
 18 11  1  0
 19  9  1  0
 21 23  2  0
 22 21  1  0
 24 22  1  0
 25 34  2  0
 25 30  1  0
 26 22  1  0
 26 30  1  0
 27 26  1  0
 28 29  1  0
 28 27  1  0
 29 25  1  0
 30 31  2  0
 31 32  1  0
 33 32  2  0
 34 33  1  0
 35  9  1  0
 35 40  1  0
 35 36  1  0
 36 39  1  1
 36 37  1  0
 38 36  1  0
 40 43  1  0
 41 45  1  0
 41 40  1  0
 42 41  2  0
 45 44  1  0
 47 45  1  0
 47 48  1  0
 47 46  1  0
 49 51  1  0
 51 50  1  0
 51 52  1  1
 54 59  1  0
 55 56  1  0
 55 54  1  0
 57 56  1  0
 57 70  1  0
 57 58  1  0
 59 53  1  0
 59 58  1  0
 60 53  2  0
 61 63  1  0
 61 62  1  0
 62 65  1  0
 63 66  1  0
 65 64  1  0
 65 51  1  0
 66 53  1  0
 66 64  1  0
 67 68  2  0
 68 87  1  0
 69 68  1  0
 69 72  1  0
 70 71  1  0
 70 67  1  0
 71 69  2  0
 72 73  1  0
 73 74  2  0
 75 78  1  0
 75 74  1  0
 76 75  2  0
 77 76  1  0
 77 72  2  0
 78 79  1  0
 79 84  2  0
 79 80  1  0
 80 81  2  0
 81 82  1  0
 82 86  1  0
 83 82  2  0
 84 83  1  0
 85 84  1  0
 87 88  1  0
 88 91  1  0
 88 90  1  0
 89 87  2  0
 92 93  1  0
 92 67  1  0
 94 92  1  0
M  ISO  4   7 101   8 101  53 100  66 100
M  END
>  <TORSDO>  (56) 
F 20

>  <SCORE>  (56) 
-11.129

>  <name>  (56) 
55

>  <ligand_id>  (56) 
55

>  <original_smiles>  (56) 
[H]c1c([H])c([H])c2c(c1[H])C([H])([H])C([H])([H])C([H])([H])C2([H])N([H])C(=O)C1([H])N(C(=O)C([H])(N([H])C(=O)C([H])(N([H])C([H])([H])[H])C([H])([H])[H])C(C([H])([H])[H])(C([H])([H])[H])C([H])([H])[H])C([H])([H])c2c([H])c(OC([H])([H])C3([H])N(C([H])([H])C([H])([H])[N+]([H])(C([H])([H])[H])C4([H])C([H])([H])N(C(=O)N5C([H])([H])C([H])([H])C([H])([H])C([H])(n6nc(-c7c([H])c([H])c(Oc8c([H])c([H])c(F)c([H])c8F)c([H])c7[H])c(C(=O)N([H])[H])c6N([H])[H])C5([H])[H])C([H])([H])C([H])([H])C4([H])[H])C([H])([H])C([H])([H])C3([H])[H])c([H])c([H])c2C1([H])[H]

>  <smiles>  (56) 
[H]c1c([H])c([H])c2c(c1[H])C([H])([H])C([H])([H])C([H])([H])C2([H])N([H])C(=O)C1([H])N(C(=O)C([H])(N([H])C(=O)C([H])(N([H])C([H])([H])[H])C([H])([H])[H])C(C([H])([H])[H])(C([H])([H])[H])C([H])([H])[H])C([H])([H])c2c([H])c(OC([H])([H])C3([H])N(C([H])([H])C([H])([H])[N+]([H])(C([H])([H])[H])C4([H])C([H])([H])N(C(=O)N5C([H])([H])C([H])([H])C([H])([H])C([H])(n6nc(-c7c([H])c([H])c(Oc8c([H])c([H])c(F)c([H])c8F)c([H])c7[H])c(C(=O)N([H])[H])c6N([H])[H])C5([H])[H])C([H])([H])C([H])([H])C4([H])[H])C([H])([H])C([H])([H])C3([H])[H])c([H])c([H])c2C1([H])[H]

$$$$
56:0:0
     RDKit          3D

 94102  0  0  1  0  0  0  0  0999 V2000
  -29.6080  -20.1890   20.3870 N   0  0  1  0  0  4  0  0  0  0  0  0
  -29.8470  -20.3170   21.3600 H   0  0  0  0  0  0  0  0  0  0  0  0
  -30.4920  -15.1060   20.2610 C   0  0  0  0  0  0  0  0  0  0  0  0
  -30.3790  -12.7320   19.3230 C   0  0  0  0  0  2  0  0  0  0  0  0
  -29.4270  -12.6380   18.1090 C   0  0  0  0  0  2  0  0  0  0  0  0
  -27.9790  -12.3960   18.5730 C   0  0  0  0  0  2  0  0  0  0  0  0
  -27.5770  -13.3220   19.7510 C   0  0  0  0  0  3  0  0  0  0  0  0
  -28.6540  -13.3880   20.8540 C   0  0  0  0  0  2  0  0  0  0  0  0
  -29.8920  -13.8390   20.2060 N   0  0  0  0  0  0  0  0  0  0  0  0
  -31.6970  -15.1300   19.9870 O   0  0  0  0  0  0  0  0  0  0  0  0
  -29.8100  -17.5050   19.3460 C   0  0  0  0  0  2  0  0  0  0  0  0
  -29.9940  -17.5220   21.3120 C   0  0  0  0  0  2  0  0  0  0  0  0
  -29.2490  -18.5920   20.3800 C   0  0  0  0  0  3  0  0  0  0  0  0
  -29.7420  -16.3460   20.3550 N   0  0  0  0  0  0  0  0  0  0  0  0
  -25.2140  -13.8660   20.5510 C   0  0  0  0  0  0  0  0  0  0  0  0
  -24.1630  -13.0790   20.9330 C   0  0  0  0  0  0  0  0  0  0  0  0
  -24.6400  -11.7320   20.8800 C   0  0  0  0  0  0  0  0  0  0  0  0
  -26.2580  -13.0000   20.2810 N   0  0  0  0  0  0  0  0  0  0  0  0
  -25.9240  -11.7090   20.5460 N   0  0  0  0  0  0  0  0  0  0  0  0
  -23.9260  -10.4620   21.0730 C   0  0  0  0  0  0  0  0  0  0  0  0
  -24.3790   -9.4890   21.9910 C   0  0  0  0  0  3  0  0  0  0  0  0
  -23.6630   -8.2870   22.1730 C   0  0  0  0  0  3  0  0  0  0  0  0
  -22.4790   -8.0480   21.4350 C   0  0  0  0  0  0  0  0  0  0  0  0
  -22.0450   -9.0090   20.5050 C   0  0  0  0  0  3  0  0  0  0  0  0
  -22.7610  -10.2020   20.3230 C   0  0  0  0  0  3  0  0  0  0  0  0
  -21.7320   -6.8970   21.5260 O   0  0  0  0  0  0  0  0  0  0  0  0
  -21.7010   -6.1490   22.6760 C   0  0  0  0  0  0  0  0  0  0  0  0
  -21.2640   -6.6890   23.9060 C   0  0  0  0  0  3  0  0  0  0  0  0
  -21.1820   -5.8670   25.0470 C   0  0  0  0  0  3  0  0  0  0  0  0
  -21.5250   -4.5040   24.9590 C   0  0  0  0  0  0  0  0  0  0  0  0
  -21.9550   -3.9630   23.7340 C   0  0  0  0  0  3  0  0  0  0  0  0
  -22.0390   -4.7830   22.5950 C   0  0  0  0  0  0  0  0  0  0  0  0
  -22.4330   -4.2510   21.4130 F   0  0  0  0  0  0  0  0  0  0  0  0
  -21.4390   -3.7110   26.0530 F   0  0  0  0  0  0  0  0  0  0  0  0
  -22.7680  -13.5430   21.2330 C   0  0  0  0  0  0  0  0  0  0  0  0
  -22.0630  -12.8360   22.1080 N   0  0  0  0  0  0  0  0  0  0  0  0
  -22.3130  -14.5670   20.7260 O   0  0  0  0  0  0  0  0  0  0  0  0
  -22.4440  -12.0080   22.5400 H   0  0  0  0  0  0  0  0  0  0  0  0
  -21.1270  -13.1290   22.3520 H   0  0  0  0  0  0  0  0  0  0  0  0
  -25.3650  -15.2400   20.3870 N   0  0  0  0  0  0  0  0  0  0  0  0
  -24.6020  -15.8920   20.5290 H   0  0  0  0  0  0  0  0  0  0  0  0
  -26.2180  -15.6880   20.0760 H   0  0  0  0  0  0  0  0  0  0  0  0
  -30.8940  -20.4590   19.6960 C   0  0  0  0  0  2  0  0  0  0  0  0
  -30.7620  -20.5670   18.1580 C   0  0  0  0  0  2  0  0  0  0  0  0
  -32.1220  -20.5570   17.4380 C   0  0  0  0  0  2  0  0  0  0  0  0
  -31.9860  -20.6530   15.9050 C   0  0  0  0  0  2  0  0  0  0  0  0
  -33.2910  -20.6180   15.2230 N   0  0  0  0  0  4  0  0  0  0  0  0
  -33.8670  -21.3930   15.5000 H   0  0  0  0  0  0  0  0  0  0  0  0
  -33.1570  -20.6720   14.2290 H   0  0  0  0  0  0  0  0  0  0  0  0
  -33.7800  -19.7630   15.4220 H   0  0  0  0  0  0  0  0  0  0  0  0
  -28.5780  -21.4300   20.1960 C   0  0  0  0  0  2  0  0  0  0  0  0
  -28.9510  -23.1240   20.3710 C   0  0  0  0  0  3  0  0  0  0  0  0
  -27.9370  -24.5140   20.1420 C   0  0  0  0  0  3  0  0  0  0  0  0
  -28.2110  -26.0750   20.3220 O   0  0  0  0  0  0  0  0  0  0  0  0
  -24.6290  -31.9040   23.2590 C   0  0  0  0  0  0  0  0  0  0  0  0
  -27.1780  -27.1070   20.2510 C   0  0  0  0  0  0  0  0  0  0  0  0
  -23.4280  -30.5120   21.6190 C   0  0  0  0  0  3  0  0  0  0  0  0
  -24.8710  -28.9160   20.2030 C   0  0  0  0  0  0  0  0  0  0  0  0
  -25.9890  -30.7430   21.4680 C   0  0  0  0  0  2  0  0  0  0  0  0
  -26.0550  -29.3430   20.8170 C   0  0  0  0  0  0  0  0  0  0  0  0
  -27.2080  -28.4560   20.8190 C   0  0  0  0  0  3  0  0  0  0  0  0
  -25.9650  -26.8010   19.5970 C   0  0  0  0  0  3  0  0  0  0  0  0
  -24.8430  -27.6610   19.5770 C   0  0  0  0  0  3  0  0  0  0  0  0
  -23.6520  -29.8280   20.2440 C   0  0  0  0  0  2  0  0  0  0  0  0
  -24.7020  -31.0760   22.1700 N   0  0  0  0  0  0  0  0  0  0  0  0
  -23.5410  -32.1980   23.7800 O   0  0  0  0  0  0  0  0  0  0  0  0
  -22.7330  -29.5150   22.5810 C   0  0  0  0  0  0  0  0  0  0  0  0
  -21.4030  -29.3560   22.4510 N   0  0  0  0  0  0  0  0  0  0  0  0
  -23.3950  -28.8880   23.4110 O   0  0  0  0  0  0  0  0  0  0  0  0
  -20.9250  -29.9130   21.7570 H   0  0  0  0  0  0  0  0  0  0  0  0
  -18.0120  -28.1790   22.9480 C   0  0  0  0  0  0  0  0  0  0  0  0
  -20.5730  -28.4260   23.2210 C   0  0  0  0  0  3  0  0  0  0  0  0
  -20.6650  -26.9920   22.6500 C   0  0  0  0  0  2  0  0  0  0  0  0
  -19.5630  -26.6750   21.6320 C   0  0  0  0  0  2  0  0  0  0  0  0
  -18.1820  -26.8290   22.2730 C   0  0  0  0  0  2  0  0  0  0  0  0
  -19.1340  -28.9360   23.3800 C   0  0  0  0  0  0  0  0  0  0  0  0
  -18.9200  -30.1990   23.9750 C   0  0  0  0  0  3  0  0  0  0  0  0
  -17.6180  -30.7060   24.1390 C   0  0  0  0  0  3  0  0  0  0  0  0
  -16.5100  -29.9470   23.7240 C   0  0  0  0  0  3  0  0  0  0  0  0
  -16.7070  -28.6850   23.1340 C   0  0  0  0  0  3  0  0  0  0  0  0
  -25.9050  -32.5350   23.8920 C   0  0  0  0  0  3  0  0  0  0  0  0
  -25.5980  -33.9360   24.2230 N   0  0  0  0  0  0  0  0  0  0  0  0
  -25.9180  -34.9910   23.4630 C   0  0  0  0  0  0  0  0  0  0  0  0
  -26.5680  -34.8870   22.4200 O   0  0  0  0  0  0  0  0  0  0  0  0
  -25.0160  -34.0900   25.0340 H   0  0  0  0  0  0  0  0  0  0  0  0
  -24.1770  -36.7850   23.1590 C   0  0  0  0  0  1  0  0  0  0  0  0
  -25.4440  -36.3830   23.9320 C   0  0  0  0  0  3  0  0  0  0  0  0
  -27.5990  -37.2780   24.6970 C   0  0  0  0  0  1  0  0  0  0  0  0
  -26.4700  -37.4370   23.7830 N   0  0  0  0  0  0  0  0  0  0  0  0
  -26.0670  -38.3570   23.9360 H   0  0  0  0  0  0  0  0  0  0  0  0
  -26.4050  -31.7660   25.1770 C   0  0  1  0  0  0  0  0  0  0  0  0
  -25.3000  -31.5390   26.2360 C   0  0  0  0  0  1  0  0  0  0  0  0
  -26.9830  -30.3820   24.8020 C   0  0  0  0  0  1  0  0  0  0  0  0
  -27.5550  -32.5550   25.8470 C   0  0  0  0  0  1  0  0  0  0  0  0
  1  2  1  1
  3 14  1  0
  4  9  1  0
  5  6  1  0
  5  4  1  0
  7  6  1  0
  7 18  1  0
  7  8  1  0
  9  3  1  0
  9  8  1  0
 10  3  2  0
 11 14  1  0
 11 13  1  0
 13  1  1  0
 13 12  1  0
 14 12  1  0
 15 16  2  0
 16 35  1  0
 17 16  1  0
 17 20  1  0
 18 19  1  0
 18 15  1  0
 19 17  2  0
 20 21  1  0
 21 22  2  0
 23 26  1  0
 23 22  1  0
 24 23  2  0
 25 24  1  0
 25 20  2  0
 26 27  1  0
 27 28  1  0
 28 29  2  0
 30 29  1  0
 30 34  1  0
 31 30  2  0
 32 27  2  0
 32 31  1  0
 33 32  1  0
 35 36  1  0
 36 39  1  0
 36 38  1  0
 37 35  2  0
 40 41  1  0
 40 15  1  0
 42 40  1  0
 43  1  1  0
 44 43  1  0
 45 44  1  0
 46 45  1  0
 47 50  1  0
 47 48  1  0
 47 46  1  0
 49 47  1  0
 51 52  1  0
 51  1  1  0
 53 54  1  0
 53 52  2  0
 55 66  2  0
 56 54  1  0
 56 61  1  0
 57 65  1  0
 57 67  1  0
 58 64  1  0
 58 60  1  0
 59 65  1  0
 60 61  2  0
 60 59  1  0
 62 56  2  0
 63 62  1  0
 63 58  2  0
 64 57  1  0
 65 55  1  0
 67 69  2  0
 68 67  1  0
 70 68  1  0
 71 80  2  0
 71 76  1  0
 72 68  1  0
 72 76  1  0
 73 72  1  0
 74 75  1  0
 74 73  1  0
 75 71  1  0
 76 77  2  0
 77 78  1  0
 79 78  2  0
 80 79  1  0
 81 55  1  0
 81 82  1  0
 81 91  1  0
 82 85  1  0
 83 87  1  0
 83 82  1  0
 84 83  2  0
 87 86  1  0
 89 87  1  0
 89 90  1  0
 89 88  1  0
 91 94  1  1
 91 92  1  0
 93 91  1  0
M  ISO  4   3 100  14 100  53 101  54 101
M  END
>  <TORSDO>  (57) 
F 24

>  <SCORE>  (57) 
-13.659

>  <name>  (57) 
56

>  <ligand_id>  (57) 
56

>  <original_smiles>  (57) 
[H]c1c([H])c([H])c2c(c1[H])C([H])([H])C([H])([H])C([H])([H])C2([H])N([H])C(=O)C1([H])N(C(=O)C([H])(N([H])C(=O)C([H])(N([H])C([H])([H])[H])C([H])([H])[H])C(C([H])([H])[H])(C([H])([H])[H])C([H])([H])[H])C([H])([H])c2c([H])c(OC([H])([H])C([H])([H])C([H])([H])[N+]([H])(C([H])([H])C([H])([H])C([H])([H])C([H])([H])[N+]([H])([H])[H])C3([H])C([H])([H])N(C(=O)N4C([H])([H])C([H])([H])C([H])([H])C([H])(n5nc(-c6c([H])c([H])c(Oc7c([H])c([H])c(F)c([H])c7F)c([H])c6[H])c(C(=O)N([H])[H])c5N([H])[H])C4([H])[H])C3([H])[H])c([H])c([H])c2C1([H])[H]

>  <smiles>  (57) 
[H]c1c([H])c([H])c2c(c1[H])C([H])([H])C([H])([H])C([H])([H])C2([H])N([H])C(=O)C1([H])N(C(=O)C([H])(N([H])C(=O)C([H])(N([H])C([H])([H])[H])C([H])([H])[H])C(C([H])([H])[H])(C([H])([H])[H])C([H])([H])[H])C([H])([H])c2c([H])c(OC([H])([H])C([H])([H])C([H])([H])[N+]([H])(C([H])([H])C([H])([H])C([H])([H])C([H])([H])[N+]([H])([H])[H])C3([H])C([H])([H])N(C(=O)N4C([H])([H])C([H])([H])C([H])([H])C([H])(n5nc(-c6c([H])c([H])c(Oc7c([H])c([H])c(F)c([H])c7F)c([H])c6[H])c(C(=O)N([H])[H])c5N([H])[H])C4([H])[H])C3([H])[H])c([H])c([H])c2C1([H])[H]

$$$$
57:0:0
     RDKit          3D

 88 96  0  0  1  0  0  0  0  0999 V2000
  -28.6900  -21.9820   20.0600 C   0  0  0  0  0  3  0  0  0  0  0  0
  -28.9810  -23.5510   20.5020 C   0  0  0  0  0  3  0  0  0  0  0  0
  -28.0320  -24.8100   20.0310 C   0  0  0  0  0  3  0  0  0  0  0  0
  -28.2760  -26.2830   20.3540 O   0  0  0  0  0  0  0  0  0  0  0  0
  -24.6400  -31.8750   23.3260 C   0  0  0  0  0  0  0  0  0  0  0  0
  -27.2120  -27.2300   20.2670 C   0  0  0  0  0  0  0  0  0  0  0  0
  -23.4370  -30.4980   21.6710 C   0  0  0  0  0  3  0  0  0  0  0  0
  -24.8830  -28.9390   20.2370 C   0  0  0  0  0  0  0  0  0  0  0  0
  -25.9890  -30.7690   21.5150 C   0  0  0  0  0  2  0  0  0  0  0  0
  -26.0580  -29.3880   20.8550 C   0  0  0  0  0  0  0  0  0  0  0  0
  -27.2230  -28.5460   20.8580 C   0  0  0  0  0  3  0  0  0  0  0  0
  -26.0170  -26.8720   19.6000 C   0  0  0  0  0  3  0  0  0  0  0  0
  -24.8720  -27.6920   19.5960 C   0  0  0  0  0  3  0  0  0  0  0  0
  -23.6570  -29.8330   20.2870 C   0  0  0  0  0  2  0  0  0  0  0  0
  -24.7080  -31.0670   22.2270 N   0  0  0  0  0  0  0  0  0  0  0  0
  -23.5550  -32.1590   23.8550 O   0  0  0  0  0  0  0  0  0  0  0  0
  -22.7560  -29.4820   22.6220 C   0  0  0  0  0  0  0  0  0  0  0  0
  -21.4300  -29.3120   22.4830 N   0  0  0  0  0  0  0  0  0  0  0  0
  -23.4230  -28.8510   23.4470 O   0  0  0  0  0  0  0  0  0  0  0  0
  -20.9500  -29.8740   21.7930 H   0  0  0  0  0  0  0  0  0  0  0  0
  -18.0430  -28.1190   22.9500 C   0  0  0  0  0  0  0  0  0  0  0  0
  -20.5990  -28.3740   23.2440 C   0  0  0  0  0  3  0  0  0  0  0  0
  -20.7040  -26.9430   22.6660 C   0  0  0  0  0  2  0  0  0  0  0  0
  -19.6120  -26.6250   21.6400 C   0  0  0  0  0  2  0  0  0  0  0  0
  -18.2240  -26.7710   22.2720 C   0  0  0  0  0  2  0  0  0  0  0  0
  -19.1590  -28.8780   23.3910 C   0  0  0  0  0  0  0  0  0  0  0  0
  -18.9360  -30.1390   23.9870 C   0  0  0  0  0  3  0  0  0  0  0  0
  -17.6300  -30.6410   24.1420 C   0  0  0  0  0  3  0  0  0  0  0  0
  -16.5290  -29.8790   23.7170 C   0  0  0  0  0  3  0  0  0  0  0  0
  -16.7360  -28.6190   23.1250 C   0  0  0  0  0  3  0  0  0  0  0  0
  -25.9220  -32.4960   23.9600 C   0  0  0  0  0  3  0  0  0  0  0  0
  -26.4040  -31.7360   25.2570 C   0  0  1  0  0  0  0  0  0  0  0  0
  -25.2900  -31.5340   26.3110 C   0  0  0  0  0  1  0  0  0  0  0  0
  -26.9700  -30.3420   24.9020 C   0  0  0  0  0  1  0  0  0  0  0  0
  -27.5570  -32.5200   25.9270 C   0  0  0  0  0  1  0  0  0  0  0  0
  -25.6300  -33.9040   24.2680 N   0  0  0  0  0  0  0  0  0  0  0  0
  -25.9690  -34.9420   23.4910 C   0  0  0  0  0  0  0  0  0  0  0  0
  -26.6300  -34.8140   22.4570 O   0  0  0  0  0  0  0  0  0  0  0  0
  -25.0430  -34.0780   25.0710 H   0  0  0  0  0  0  0  0  0  0  0  0
  -24.2510  -36.7460   23.1340 C   0  0  0  0  0  1  0  0  0  0  0  0
  -25.5030  -36.3440   23.9300 C   0  0  0  0  0  3  0  0  0  0  0  0
  -27.6590  -37.2260   24.7040 C   0  0  0  0  0  1  0  0  0  0  0  0
  -26.5400  -37.3870   23.7810 N   0  0  0  0  0  0  0  0  0  0  0  0
  -26.1430  -38.3120   23.9210 H   0  0  0  0  0  0  0  0  0  0  0  0
  -29.5990  -20.7270   20.6170 C   0  0  0  0  0  3  0  0  0  0  0  0
  -30.6540  -14.8440   19.9900 C   0  0  0  0  0  0  0  0  0  0  0  0
  -30.3760  -12.5560   18.9900 C   0  0  0  0  0  2  0  0  0  0  0  0
  -29.3810  -12.6020   17.8110 C   0  0  0  0  0  2  0  0  0  0  0  0
  -27.9400  -12.4130   18.3200 C   0  0  0  0  0  2  0  0  0  0  0  0
  -27.6220  -13.3000   19.5550 C   0  0  0  0  0  3  0  0  0  0  0  0
  -28.7410  -13.2540   20.6170 C   0  0  0  0  0  2  0  0  0  0  0  0
  -29.9880  -13.6320   19.9410 N   0  0  0  0  0  0  0  0  0  0  0  0
  -31.8290  -14.8670   19.6090 O   0  0  0  0  0  0  0  0  0  0  0  0
  -29.2090  -16.6910   21.1320 C   0  0  0  0  0  2  0  0  0  0  0  0
  -30.0440  -17.0700   18.8840 C   0  0  0  0  0  2  0  0  0  0  0  0
  -29.4290  -18.2550   21.4200 C   0  0  0  0  0  2  0  0  0  0  0  0
  -30.2310  -18.6240   19.2120 C   0  0  0  0  0  2  0  0  0  0  0  0
  -29.9370  -16.0610   19.9930 N   0  0  0  0  0  0  0  0  0  0  0  0
  -29.3330  -19.2190   20.2590 N   0  0  2  0  0  4  0  0  0  0  0  0
  -28.3840  -19.1650   19.9200 H   0  0  0  0  0  0  0  0  0  0  0  0
  -25.2880  -13.8690   20.4410 C   0  0  0  0  0  0  0  0  0  0  0  0
  -24.2420  -13.0880   20.8500 C   0  0  0  0  0  0  0  0  0  0  0  0
  -24.6980  -11.7380   20.7580 C   0  0  0  0  0  0  0  0  0  0  0  0
  -26.3110  -12.9950   20.1190 N   0  0  0  0  0  0  0  0  0  0  0  0
  -25.9690  -11.7050   20.3740 N   0  0  0  0  0  0  0  0  0  0  0  0
  -23.9760  -10.4720   20.9550 C   0  0  0  0  0  0  0  0  0  0  0  0
  -24.4270   -9.5010   21.8770 C   0  0  0  0  0  3  0  0  0  0  0  0
  -23.7050   -8.3030   22.0630 C   0  0  0  0  0  3  0  0  0  0  0  0
  -22.5180   -8.0660   21.3300 C   0  0  0  0  0  0  0  0  0  0  0  0
  -22.0860   -9.0260   20.3990 C   0  0  0  0  0  3  0  0  0  0  0  0
  -22.8080  -10.2160   20.2090 C   0  0  0  0  0  3  0  0  0  0  0  0
  -21.7670   -6.9200   21.4270 O   0  0  0  0  0  0  0  0  0  0  0  0
  -21.6970   -6.2010   22.5930 C   0  0  0  0  0  0  0  0  0  0  0  0
  -21.2400   -6.7770   23.7980 C   0  0  0  0  0  3  0  0  0  0  0  0
  -21.1200   -5.9840   24.9570 C   0  0  0  0  0  3  0  0  0  0  0  0
  -21.4470   -4.6150   24.9100 C   0  0  0  0  0  0  0  0  0  0  0  0
  -21.8960   -4.0380   23.7100 C   0  0  0  0  0  3  0  0  0  0  0  0
  -22.0180   -4.8280   22.5540 C   0  0  0  0  0  0  0  0  0  0  0  0
  -22.4320   -4.2620   21.3950 F   0  0  0  0  0  0  0  0  0  0  0  0
  -21.3230   -3.8510   26.0210 F   0  0  0  0  0  0  0  0  0  0  0  0
  -22.8650  -13.5640   21.2090 C   0  0  0  0  0  0  0  0  0  0  0  0
  -22.1840  -12.8550   22.1030 N   0  0  0  0  0  0  0  0  0  0  0  0
  -22.4020  -14.5990   20.7310 O   0  0  0  0  0  0  0  0  0  0  0  0
  -22.5720  -12.0180   22.5110 H   0  0  0  0  0  0  0  0  0  0  0  0
  -21.2610  -13.1560   22.3830 H   0  0  0  0  0  0  0  0  0  0  0  0
  -25.4500  -15.2440   20.2900 N   0  0  0  0  0  0  0  0  0  0  0  0
  -24.6970  -15.8990   20.4670 H   0  0  0  0  0  0  0  0  0  0  0  0
  -26.2750  -15.6790   19.9010 H   0  0  0  0  0  0  0  0  0  0  0  0
  1  2  1  0
  1 45  2  0
  3  4  1  0
  3  2  2  0
  5 16  2  0
  6  4  1  0
  6 11  1  0
  7 15  1  0
  7 17  1  0
  8 14  1  0
  8 10  1  0
  9 15  1  0
 10 11  2  0
 10  9  1  0
 12  6  2  0
 13 12  1  0
 13  8  2  0
 14  7  1  0
 15  5  1  0
 17 19  2  0
 18 17  1  0
 20 18  1  0
 21 30  2  0
 21 26  1  0
 22 18  1  0
 22 26  1  0
 23 22  1  0
 24 25  1  0
 24 23  1  0
 25 21  1  0
 26 27  2  0
 27 28  1  0
 29 28  2  0
 30 29  1  0
 31  5  1  0
 31 36  1  0
 31 32  1  0
 32 35  1  1
 32 33  1  0
 34 32  1  0
 36 39  1  0
 37 41  1  0
 37 36  1  0
 38 37  2  0
 41 40  1  0
 43 44  1  0
 43 41  1  0
 43 42  1  0
 46 58  1  0
 47 52  1  0
 48 49  1  0
 48 47  1  0
 50 49  1  0
 50 64  1  0
 50 51  1  0
 52 46  1  0
 52 51  1  0
 53 46  2  0
 54 56  1  0
 55 57  1  0
 55 58  1  0
 57 59  1  0
 58 54  1  0
 59 45  1  0
 59 56  1  0
 59 60  1  6
 61 62  2  0
 62 81  1  0
 63 62  1  0
 63 66  1  0
 64 65  1  0
 64 61  1  0
 65 63  2  0
 66 67  1  0
 67 68  2  0
 69 72  1  0
 69 68  1  0
 70 69  2  0
 71 70  1  0
 71 66  2  0
 72 73  1  0
 73 74  1  0
 74 75  2  0
 76 75  1  0
 76 80  1  0
 77 76  2  0
 78 73  2  0
 78 77  1  0
 79 78  1  0
 81 82  1  0
 82 85  1  0
 82 84  1  0
 83 81  2  0
 86 61  1  0
 86 87  1  0
 88 86  1  0
M  ISO  4   3 101   4 101  46 100  58 100
M  END
>  <TORSDO>  (58) 
F 19

>  <SCORE>  (58) 
-13.639

>  <name>  (58) 
57

>  <ligand_id>  (58) 
57

>  <original_smiles>  (58) 
[H]c1c([H])c([H])c2c(c1[H])C([H])([H])C([H])([H])C([H])([H])C2([H])N([H])C(=O)C1([H])N(C(=O)C([H])(N([H])C(=O)C([H])(N([H])C([H])([H])[H])C([H])([H])[H])C(C([H])([H])[H])(C([H])([H])[H])C([H])([H])[H])C([H])([H])c2c([H])c(OC([H])([H])C([H])([H])C([H])([H])C([H])([H])[N+]3([H])C([H])([H])C([H])([H])N(C(=O)N4C([H])([H])C([H])([H])C([H])([H])C([H])(n5nc(-c6c([H])c([H])c(Oc7c([H])c([H])c(F)c([H])c7F)c([H])c6[H])c(C(=O)N([H])[H])c5N([H])[H])C4([H])[H])C([H])([H])C3([H])[H])c([H])c([H])c2C1([H])[H]

>  <smiles>  (58) 
[H]c1c([H])c([H])c2c(c1[H])C([H])([H])C([H])([H])C([H])([H])C2([H])N([H])C(=O)C1([H])N(C(=O)C([H])(N([H])C(=O)C([H])(N([H])C([H])([H])[H])C([H])([H])[H])C(C([H])([H])[H])(C([H])([H])[H])C([H])([H])[H])C([H])([H])c2c([H])c(OC([H])([H])C([H])([H])C([H])([H])C([H])([H])[N+]3([H])C([H])([H])C([H])([H])N(C(=O)N4C([H])([H])C([H])([H])C([H])([H])C([H])(n5nc(-c6c([H])c([H])c(Oc7c([H])c([H])c(F)c([H])c7F)c([H])c6[H])c(C(=O)N([H])[H])c5N([H])[H])C4([H])[H])C([H])([H])C3([H])[H])c([H])c([H])c2C1([H])[H]

$$$$
58:0:0
     RDKit          3D

100110  0  0  1  0  0  0  0  0999 V2000
  -29.5640  -23.1760   17.6370 C   0  0  0  0  0  2  0  0  0  0  0  0
  -30.5090  -22.2180   18.3810 C   0  0  0  0  0  2  0  0  0  0  0  0
  -32.7860  -22.9660   20.7140 C   0  0  0  0  0  2  0  0  0  0  0  0
  -32.3400  -21.7070   21.4480 C   0  0  0  0  0  2  0  0  0  0  0  0
  -30.1010  -24.6050   17.4430 C   0  0  0  0  0  2  0  0  0  0  0  0
  -31.6770  -24.8000   19.3290 C   0  0  0  0  0  2  0  0  0  0  0  0
  -31.4710  -23.6440   20.3270 C   0  0  0  0  0  3  0  0  0  0  0  0
  -30.5570  -22.4710   19.9080 C   0  0  0  0  0  3  0  0  0  0  0  0
  -31.0920  -21.2330   20.6810 C   0  0  0  0  0  3  0  0  0  0  0  0
  -30.4050  -25.2850   18.7310 N   0  0  1  0  0  4  0  0  0  0  0  0
  -29.6520  -25.0450   19.3600 H   0  0  0  0  0  0  0  0  0  0  0  0
  -30.0300  -20.5480   21.5840 C   0  0  0  0  0  2  0  0  0  0  0  0
  -30.3830  -19.1420   21.8960 N   0  0  0  0  0  4  0  0  0  0  0  0
  -31.3860  -19.0540   21.8720 H   0  0  0  0  0  0  0  0  0  0  0  0
  -30.0990  -18.9690   22.8470 H   0  0  0  0  0  0  0  0  0  0  0  0
  -30.7380  -14.4520   20.4820 C   0  0  0  0  0  0  0  0  0  0  0  0
  -30.4160  -12.2700   19.4230 C   0  0  0  0  0  2  0  0  0  0  0  0
  -29.4890  -12.4460   18.2030 C   0  0  0  0  0  2  0  0  0  0  0  0
  -28.0130  -12.3030   18.6250 C   0  0  0  0  0  2  0  0  0  0  0  0
  -27.6480  -13.1780   19.8540 C   0  0  0  0  0  3  0  0  0  0  0  0
  -28.7040  -13.0520   20.9790 C   0  0  0  0  0  2  0  0  0  0  0  0
  -30.0320  -13.2960   20.3970 N   0  0  0  0  0  0  0  0  0  0  0  0
  -31.9480  -14.5290   20.2580 O   0  0  0  0  0  0  0  0  0  0  0  0
  -29.1140  -17.3740   18.6820 C   0  0  0  0  0  2  0  0  0  0  0  0
  -29.8410  -18.4150   19.5330 C   0  0  0  0  0  2  0  0  0  0  0  0
  -29.4300  -15.9310   19.1180 C   0  0  0  0  0  2  0  0  0  0  0  0
  -30.3980  -16.7060   21.3560 C   0  0  0  0  0  2  0  0  0  0  0  0
  -29.7620  -18.0920   21.0440 C   0  0  0  0  0  3  0  0  0  0  0  0
  -30.0040  -15.5930   20.4510 N   0  0  0  0  0  0  0  0  0  0  0  0
  -25.2600  -13.8070   20.5690 C   0  0  0  0  0  0  0  0  0  0  0  0
  -24.1840  -13.0380   20.9210 C   0  0  0  0  0  0  0  0  0  0  0  0
  -24.6380  -11.6850   20.8780 C   0  0  0  0  0  0  0  0  0  0  0  0
  -26.2970  -12.9160   20.3340 N   0  0  0  0  0  0  0  0  0  0  0  0
  -25.9280  -11.6360   20.5810 N   0  0  0  0  0  0  0  0  0  0  0  0
  -23.9050  -10.4250   21.0440 C   0  0  0  0  0  0  0  0  0  0  0  0
  -24.3620   -9.4180   21.9210 C   0  0  0  0  0  3  0  0  0  0  0  0
  -23.6290   -8.2220   22.0770 C   0  0  0  0  0  3  0  0  0  0  0  0
  -22.4270   -8.0280   21.3550 C   0  0  0  0  0  0  0  0  0  0  0  0
  -21.9910   -9.0240   20.4650 C   0  0  0  0  0  3  0  0  0  0  0  0
  -22.7230  -10.2120   20.3080 C   0  0  0  0  0  3  0  0  0  0  0  0
  -21.6620   -6.8880   21.4250 O   0  0  0  0  0  0  0  0  0  0  0  0
  -21.6840   -6.0750   22.5290 C   0  0  0  0  0  0  0  0  0  0  0  0
  -21.4000   -6.5660   23.8230 C   0  0  0  0  0  3  0  0  0  0  0  0
  -21.3640   -5.6810   24.9190 C   0  0  0  0  0  3  0  0  0  0  0  0
  -21.6040   -4.3080   24.7250 C   0  0  0  0  0  0  0  0  0  0  0  0
  -21.8820   -3.8170   23.4370 C   0  0  0  0  0  3  0  0  0  0  0  0
  -21.9180   -4.6990   22.3420 C   0  0  0  0  0  0  0  0  0  0  0  0
  -22.1660   -4.2170   21.1000 F   0  0  0  0  0  0  0  0  0  0  0  0
  -21.5620   -3.4560   25.7760 F   0  0  0  0  0  0  0  0  0  0  0  0
  -22.7880  -13.5190   21.1860 C   0  0  0  0  0  0  0  0  0  0  0  0
  -22.0490  -12.8190   22.0410 N   0  0  0  0  0  0  0  0  0  0  0  0
  -22.3560  -14.5490   20.6700 O   0  0  0  0  0  0  0  0  0  0  0  0
  -22.4070  -11.9850   22.4820 H   0  0  0  0  0  0  0  0  0  0  0  0
  -21.1130  -13.1260   22.2590 H   0  0  0  0  0  0  0  0  0  0  0  0
  -25.4350  -15.1800   20.4070 N   0  0  0  0  0  0  0  0  0  0  0  0
  -24.6720  -15.8380   20.5270 H   0  0  0  0  0  0  0  0  0  0  0  0
  -26.2930  -15.6170   20.0970 H   0  0  0  0  0  0  0  0  0  0  0  0
  -30.3330  -26.7690   18.6390 C   0  0  0  0  0  2  0  0  0  0  0  0
  -29.6610  -27.3680   19.8830 C   0  0  0  0  0  2  0  0  0  0  0  0
  -28.3950  -26.7180   20.0100 O   0  0  0  0  0  0  0  0  0  0  0  0
  -24.6060  -31.8720   23.2120 C   0  0  0  0  0  0  0  0  0  0  0  0
  -27.2580  -27.4910   20.0820 C   0  0  0  0  0  0  0  0  0  0  0  0
  -23.3930  -30.4910   21.5520 C   0  0  0  0  0  3  0  0  0  0  0  0
  -24.8480  -28.9630   20.1160 C   0  0  0  0  0  0  0  0  0  0  0  0
  -25.9160  -30.8530   21.3600 C   0  0  0  0  0  2  0  0  0  0  0  0
  -26.0000  -29.4890   20.7130 C   0  0  0  0  0  0  0  0  0  0  0  0
  -27.2060  -28.7580   20.7050 C   0  0  0  0  0  3  0  0  0  0  0  0
  -26.0840  -26.9600   19.5110 C   0  0  0  0  0  3  0  0  0  0  0  0
  -24.8810  -27.6920   19.5170 C   0  0  0  0  0  3  0  0  0  0  0  0
  -23.6020  -29.8200   20.1670 C   0  0  0  0  0  2  0  0  0  0  0  0
  -24.6560  -31.0840   22.1010 N   0  0  0  0  0  0  0  0  0  0  0  0
  -23.5270  -32.1450   23.7550 O   0  0  0  0  0  0  0  0  0  0  0  0
  -22.7360  -29.4670   22.5020 C   0  0  0  0  0  0  0  0  0  0  0  0
  -21.4100  -29.3010   22.3750 N   0  0  0  0  0  0  0  0  0  0  0  0
  -23.4140  -28.8210   23.3050 O   0  0  0  0  0  0  0  0  0  0  0  0
  -20.9230  -29.8730   21.6990 H   0  0  0  0  0  0  0  0  0  0  0  0
  -18.0260  -28.1360   22.8500 C   0  0  0  0  0  0  0  0  0  0  0  0
  -20.5840  -28.3640   23.1340 C   0  0  0  0  0  3  0  0  0  0  0  0
  -20.6750  -26.9380   22.5430 C   0  0  0  0  0  2  0  0  0  0  0  0
  -19.5730  -26.6380   21.5210 C   0  0  0  0  0  2  0  0  0  0  0  0
  -18.1910  -26.7920   22.1620 C   0  0  0  0  0  2  0  0  0  0  0  0
  -19.1510  -28.8810   23.2920 C   0  0  0  0  0  0  0  0  0  0  0  0
  -18.9440  -30.1430   23.8920 C   0  0  0  0  0  3  0  0  0  0  0  0
  -17.6450  -30.6570   24.0570 C   0  0  0  0  0  3  0  0  0  0  0  0
  -16.5340  -29.9070   23.6340 C   0  0  0  0  0  3  0  0  0  0  0  0
  -16.7260  -28.6490   23.0360 C   0  0  0  0  0  3  0  0  0  0  0  0
  -25.8980  -32.4850   23.8400 C   0  0  0  0  0  3  0  0  0  0  0  0
  -26.4440  -31.6610   25.0710 C   0  0  1  0  0  0  0  0  0  0  0  0
  -25.3710  -31.3710   26.1470 C   0  0  0  0  0  1  0  0  0  0  0  0
  -27.0270  -30.3060   24.6060 C   0  0  0  0  0  1  0  0  0  0  0  0
  -27.6010  -32.4330   25.7470 C   0  0  0  0  0  1  0  0  0  0  0  0
  -25.5870  -33.8640   24.2340 N   0  0  0  0  0  0  0  0  0  0  0  0
  -25.9030  -34.9490   23.5140 C   0  0  0  0  0  0  0  0  0  0  0  0
  -26.5620  -34.8940   22.4710 O   0  0  0  0  0  0  0  0  0  0  0  0
  -24.9970  -33.9820   25.0450 H   0  0  0  0  0  0  0  0  0  0  0  0
  -24.1480  -36.7330   23.2630 C   0  0  0  0  0  1  0  0  0  0  0  0
  -25.4100  -36.3130   24.0330 C   0  0  0  0  0  3  0  0  0  0  0  0
  -27.5610  -37.1780   24.8440 C   0  0  0  0  0  1  0  0  0  0  0  0
  -26.4290  -37.3820   23.9430 N   0  0  0  0  0  0  0  0  0  0  0  0
  -26.0180  -38.2860   24.1540 H   0  0  0  0  0  0  0  0  0  0  0  0
  1  2  1  0
  3  4  1  0
  5  1  1  0
  5 10  1  0
  7  6  1  0
  7  3  1  0
  8  2  1  0
  8  7  1  0
  8  9  1  0
  9  4  1  0
  9 12  1  0
 10  6  1  0
 10 11  1  1
 12 13  1  0
 13 15  1  0
 14 13  1  0
 17 22  1  0
 18 19  1  0
 18 17  1  0
 20 19  1  0
 20 33  1  0
 20 21  1  0
 22 16  1  0
 22 21  1  0
 23 16  2  0
 24 26  1  0
 24 25  1  0
 25 28  1  0
 26 29  1  0
 28 27  1  0
 28 13  1  0
 29 16  1  0
 29 27  1  0
 30 31  2  0
 31 50  1  0
 32 31  1  0
 32 35  1  0
 33 30  1  0
 33 34  1  0
 34 32  2  0
 35 36  1  0
 36 37  2  0
 38 41  1  0
 38 37  1  0
 39 38  2  0
 40 39  1  0
 40 35  2  0
 41 42  1  0
 42 43  1  0
 43 44  2  0
 45 44  1  0
 45 49  1  0
 46 45  2  0
 47 42  2  0
 47 46  1  0
 48 47  1  0
 50 51  1  0
 51 54  1  0
 51 53  1  0
 52 50  2  0
 55 56  1  0
 55 30  1  0
 57 55  1  0
 58 10  1  0
 58 59  1  0
 59 60  1  0
 60 62  1  0
 61 72  2  0
 62 67  1  0
 63 71  1  0
 63 73  1  0
 64 70  1  0
 64 66  1  0
 65 71  1  0
 66 65  1  0
 67 66  2  0
 68 69  1  0
 68 62  2  0
 69 64  2  0
 70 63  1  0
 71 61  1  0
 73 75  2  0
 74 73  1  0
 76 74  1  0
 77 86  2  0
 77 82  1  0
 78 74  1  0
 78 82  1  0
 79 78  1  0
 80 81  1  0
 80 79  1  0
 81 77  1  0
 82 83  2  0
 83 84  1  0
 85 84  2  0
 86 85  1  0
 87 61  1  0
 87 92  1  0
 87 88  1  0
 88 91  1  1
 88 89  1  0
 90 88  1  0
 92 95  1  0
 93 97  1  0
 93 92  1  0
 94 93  2  0
 97 96  1  0
 99 97  1  0
 99100  1  0
 99 98  1  0
M  ISO  4  16 100  29 100  59 101  60 101
M  END
>  <TORSDO>  (59) 
F 20

>  <SCORE>  (59) 
-13.390

>  <name>  (59) 
58

>  <ligand_id>  (59) 
58

>  <original_smiles>  (59) 
[H]c1c([H])c([H])c2c(c1[H])C([H])([H])C([H])([H])C([H])([H])C2([H])N([H])C(=O)C1([H])N(C(=O)C([H])(N([H])C(=O)C([H])(N([H])C([H])([H])[H])C([H])([H])[H])C(C([H])([H])[H])(C([H])([H])[H])C([H])([H])[H])C([H])([H])c2c([H])c(OC([H])([H])C([H])([H])[N+]3([H])C([H])([H])C([H])([H])C([H])([H])C4([H])C([H])(C([H])([H])[N+]([H])([H])C5([H])C([H])([H])N(C(=O)N6C([H])([H])C([H])([H])C([H])([H])C([H])(n7nc(-c8c([H])c([H])c(Oc9c([H])c([H])c(F)c([H])c9F)c([H])c8[H])c(C(=O)N([H])[H])c7N([H])[H])C6([H])[H])C([H])([H])C([H])([H])C5([H])[H])C([H])([H])C([H])([H])C4([H])C3([H])[H])c([H])c([H])c2C1([H])[H]

>  <smiles>  (59) 
[H]c1c([H])c([H])c2c(c1[H])C([H])([H])C([H])([H])C([H])([H])C2([H])N([H])C(=O)C1([H])N(C(=O)C([H])(N([H])C(=O)C([H])(N([H])C([H])([H])[H])C([H])([H])[H])C(C([H])([H])[H])(C([H])([H])[H])C([H])([H])[H])C([H])([H])c2c([H])c(OC([H])([H])C([H])([H])[N+]3([H])C([H])([H])C([H])([H])C([H])([H])C4([H])C([H])(C([H])([H])[N+]([H])([H])C5([H])C([H])([H])N(C(=O)N6C([H])([H])C([H])([H])C([H])([H])C([H])(n7nc(-c8c([H])c([H])c(Oc9c([H])c([H])c(F)c([H])c9F)c([H])c8[H])c(C(=O)N([H])[H])c7N([H])[H])C6([H])[H])C([H])([H])C([H])([H])C5([H])[H])C([H])([H])C([H])([H])C4([H])C3([H])[H])c([H])c([H])c2C1([H])[H]

$$$$
59:0:0
     RDKit          3D

 97106  0  0  1  0  0  0  0  0999 V2000
  -27.8900  -21.6530   20.1110 C   0  0  0  0  0  0  0  0  0  0  0  0
  -27.2970  -21.3280   18.7520 C   0  0  0  0  0  2  0  0  0  0  0  0
  -28.9370  -22.6750   17.3590 C   0  0  0  0  0  2  0  0  0  0  0  0
  -29.4770  -23.9500   18.0100 C   0  0  0  0  0  2  0  0  0  0  0  0
  -27.4640  -22.5320   17.8180 C   0  0  0  0  0  3  0  0  0  0  0  0
  -27.0650  -23.8860   18.4840 C   0  0  0  0  0  3  0  0  0  0  0  0
  -28.2330  -24.8280   18.0250 C   0  0  0  0  0  3  0  0  0  0  0  0
  -26.7720  -23.7260   20.0320 C   0  0  0  0  0  3  0  0  0  0  0  0
  -27.6890  -22.7800   20.6840 N   0  0  0  0  0  0  0  0  0  0  0  0
  -28.7780  -20.5650   20.6810 C   0  0  0  0  0  2  0  0  0  0  0  0
  -28.1590  -19.1590   20.5030 C   0  0  0  0  0  2  0  0  0  0  0  0
  -28.9800  -18.0130   21.1280 C   0  0  0  0  0  2  0  0  0  0  0  0
  -30.0050  -17.4060   20.1530 C   0  0  0  0  0  2  0  0  0  0  0  0
  -30.8850  -16.3080   20.7760 C   0  0  0  0  0  2  0  0  0  0  0  0
  -32.0760  -14.3190   19.8090 C   0  0  0  0  0  0  0  0  0  0  0  0
  -31.5940  -12.0450   19.0230 C   0  0  0  0  0  2  0  0  0  0  0  0
  -30.6400  -12.1360   17.8120 C   0  0  0  0  0  2  0  0  0  0  0  0
  -29.1690  -12.1920   18.2730 C   0  0  0  0  0  2  0  0  0  0  0  0
  -28.9320  -13.2480   19.3870 C   0  0  0  0  0  3  0  0  0  0  0  0
  -29.9860  -13.0820   20.5040 C   0  0  0  0  0  2  0  0  0  0  0  0
  -31.3150  -13.1980   19.8880 N   0  0  0  0  0  0  0  0  0  0  0  0
  -33.2300  -14.3220   19.3750 O   0  0  0  0  0  0  0  0  0  0  0  0
  -31.3820  -15.4580   19.6990 N   0  0  0  0  0  0  0  0  0  0  0  0
  -31.7950  -16.0240   18.9750 H   0  0  0  0  0  0  0  0  0  0  0  0
  -26.6660  -14.2040   20.1600 C   0  0  0  0  0  0  0  0  0  0  0  0
  -25.5120  -13.5960   20.5670 C   0  0  0  0  0  0  0  0  0  0  0  0
  -25.7750  -12.1910   20.5370 C   0  0  0  0  0  0  0  0  0  0  0  0
  -27.5690  -13.1810   19.9080 N   0  0  0  0  0  0  0  0  0  0  0  0
  -27.0340  -11.9660   20.1910 N   0  0  0  0  0  0  0  0  0  0  0  0
  -24.8880  -11.0450   20.7630 C   0  0  0  0  0  0  0  0  0  0  0  0
  -25.1540  -10.0950   21.7720 C   0  0  0  0  0  3  0  0  0  0  0  0
  -24.2770   -9.0100   21.9820 C   0  0  0  0  0  3  0  0  0  0  0  0
  -23.1200   -8.8680   21.1790 C   0  0  0  0  0  0  0  0  0  0  0  0
  -22.8720   -9.8050   20.1590 C   0  0  0  0  0  3  0  0  0  0  0  0
  -23.7480  -10.8810   19.9490 C   0  0  0  0  0  3  0  0  0  0  0  0
  -22.2240   -7.8330   21.2930 O   0  0  0  0  0  0  0  0  0  0  0  0
  -21.9560   -7.2420   22.5020 C   0  0  0  0  0  0  0  0  0  0  0  0
  -21.4780   -7.9830   23.6060 C   0  0  0  0  0  3  0  0  0  0  0  0
  -21.1550   -7.3240   24.8080 C   0  0  0  0  0  3  0  0  0  0  0  0
  -21.2970   -5.9270   24.9060 C   0  0  0  0  0  0  0  0  0  0  0  0
  -21.7670   -5.1880   23.8070 C   0  0  0  0  0  3  0  0  0  0  0  0
  -22.0930   -5.8430   22.6070 C   0  0  0  0  0  0  0  0  0  0  0  0
  -22.5270   -5.1240   21.5430 F   0  0  0  0  0  0  0  0  0  0  0  0
  -20.9770   -5.2930   26.0580 F   0  0  0  0  0  0  0  0  0  0  0  0
  -24.2060  -14.2660   20.8790 C   0  0  0  0  0  0  0  0  0  0  0  0
  -23.4430  -13.7130   21.8120 N   0  0  0  0  0  0  0  0  0  0  0  0
  -23.8780  -15.3160   20.3250 O   0  0  0  0  0  0  0  0  0  0  0  0
  -23.7200  -12.8620   22.2790 H   0  0  0  0  0  0  0  0  0  0  0  0
  -22.5650  -14.1450   22.0650 H   0  0  0  0  0  0  0  0  0  0  0  0
  -27.0230  -15.5350   19.9640 N   0  0  0  0  0  0  0  0  0  0  0  0
  -26.3760  -16.3020   20.1130 H   0  0  0  0  0  0  0  0  0  0  0  0
  -27.9360  -15.8370   19.6500 H   0  0  0  0  0  0  0  0  0  0  0  0
  -28.4250  -26.3420   18.3860 C   0  0  0  0  0  2  0  0  0  0  0  0
  -28.2300  -26.8560   19.7170 O   0  0  0  0  0  0  0  0  0  0  0  0
  -24.7350  -31.9650   23.3460 C   0  0  0  0  0  0  0  0  0  0  0  0
  -27.1050  -27.6420   19.8760 C   0  0  0  0  0  0  0  0  0  0  0  0
  -23.4200  -30.6770   21.7000 C   0  0  0  0  0  3  0  0  0  0  0  0
  -24.7640  -29.2090   20.1240 C   0  0  0  0  0  0  0  0  0  0  0  0
  -25.9460  -30.9850   21.4040 C   0  0  0  0  0  2  0  0  0  0  0  0
  -25.9650  -29.6470   20.6980 C   0  0  0  0  0  0  0  0  0  0  0  0
  -27.1370  -28.8580   20.5980 C   0  0  0  0  0  3  0  0  0  0  0  0
  -25.8870  -27.2450   19.2930 C   0  0  0  0  0  3  0  0  0  0  0  0
  -24.7170  -28.0010   19.4230 C   0  0  0  0  0  3  0  0  0  0  0  0
  -23.5520  -30.0930   20.2720 C   0  0  0  0  0  2  0  0  0  0  0  0
  -24.7220  -31.2190   22.2070 N   0  0  0  0  0  0  0  0  0  0  0  0
  -23.6860  -32.2330   23.9480 O   0  0  0  0  0  0  0  0  0  0  0  0
  -22.7950  -29.6090   22.6260 C   0  0  0  0  0  0  0  0  0  0  0  0
  -21.4900  -29.3480   22.4500 N   0  0  0  0  0  0  0  0  0  0  0  0
  -23.4840  -29.0220   23.4660 O   0  0  0  0  0  0  0  0  0  0  0  0
  -20.9950  -29.8560   21.7290 H   0  0  0  0  0  0  0  0  0  0  0  0
  -18.1950  -27.9050   22.7760 C   0  0  0  0  0  0  0  0  0  0  0  0
  -20.6990  -28.3800   23.2090 C   0  0  0  0  0  3  0  0  0  0  0  0
  -20.9490  -26.9380   22.7100 C   0  0  0  0  0  2  0  0  0  0  0  0
  -19.9550  -26.4950   21.6330 C   0  0  0  0  0  2  0  0  0  0  0  0
  -18.5240  -26.5470   22.1810 C   0  0  0  0  0  2  0  0  0  0  0  0
  -19.2160  -28.7720   23.2470 C   0  0  0  0  0  0  0  0  0  0  0  0
  -18.8590  -30.0330   23.7700 C   0  0  0  0  0  3  0  0  0  0  0  0
  -17.5110  -30.4320   23.8210 C   0  0  0  0  0  3  0  0  0  0  0  0
  -16.5010  -29.5660   23.3670 C   0  0  0  0  0  3  0  0  0  0  0  0
  -16.8440  -28.3040   22.8520 C   0  0  0  0  0  3  0  0  0  0  0  0
  -26.0650  -32.5380   23.9300 C   0  0  0  0  0  3  0  0  0  0  0  0
  -25.8180  -33.9380   24.2960 N   0  0  0  0  0  0  0  0  0  0  0  0
  -26.1650  -34.9920   23.5440 C   0  0  0  0  0  0  0  0  0  0  0  0
  -26.7970  -34.8830   22.4910 O   0  0  0  0  0  0  0  0  0  0  0  0
  -25.2530  -34.0990   25.1160 H   0  0  0  0  0  0  0  0  0  0  0  0
  -24.5010  -36.8550   23.2560 C   0  0  0  0  0  1  0  0  0  0  0  0
  -25.7390  -36.3870   24.0380 C   0  0  0  0  0  3  0  0  0  0  0  0
  -27.9200  -37.1720   24.8470 C   0  0  0  0  0  1  0  0  0  0  0  0
  -26.8090  -37.4010   23.9270 N   0  0  0  0  0  0  0  0  0  0  0  0
  -26.4430  -38.3340   24.0950 H   0  0  0  0  0  0  0  0  0  0  0  0
  -26.6000  -31.7200   25.1690 C   0  0  1  0  0  0  0  0  0  0  0  0
  -25.5290  -31.4760   26.2580 C   0  0  0  0  0  1  0  0  0  0  0  0
  -27.1460  -30.3430   24.7240 C   0  0  0  0  0  1  0  0  0  0  0  0
  -27.7820  -32.4730   25.8210 C   0  0  0  0  0  1  0  0  0  0  0  0
  -25.3150  -23.3170   20.4480 C   0  0  0  0  0  2  0  0  0  0  0  0
  -23.5210  -23.1970   18.6060 C   0  0  0  0  0  1  0  0  0  0  0  0
  -24.0980  -23.9950   19.7800 C   0  0  0  0  0  2  0  0  0  0  0  0
  1 10  1  0
  1  9  2  0
  2  1  1  0
  3  4  1  0
  4  7  1  0
  5  3  1  0
  5  6  1  0
  5  2  1  0
  6  8  1  0
  7 53  1  0
  7  6  1  0
  8 95  1  0
  8  9  1  0
 11 10  1  0
 11 12  1  0
 13 14  1  0
 13 12  1  0
 15 21  1  0
 16 21  1  0
 17 18  1  0
 17 16  1  0
 18 19  1  0
 19 28  1  0
 19 20  1  0
 21 20  1  0
 22 15  2  0
 23 15  1  0
 23 14  1  0
 24 23  1  0
 25 26  2  0
 26 45  1  0
 27 26  1  0
 27 30  1  0
 28 25  1  0
 28 29  1  0
 29 27  2  0
 30 31  1  0
 31 32  2  0
 33 36  1  0
 33 32  1  0
 34 33  2  0
 35 34  1  0
 35 30  2  0
 36 37  1  0
 37 42  2  0
 37 38  1  0
 38 39  2  0
 39 40  1  0
 40 44  1  0
 41 40  2  0
 42 41  1  0
 43 42  1  0
 45 46  1  0
 46 49  1  0
 46 48  1  0
 47 45  2  0
 50 51  1  0
 50 25  1  0
 52 50  1  0
 53 54  1  0
 54 56  1  0
 55 81  1  0
 55 66  2  0
 56 61  1  0
 57 65  1  0
 57 67  1  0
 58 64  1  0
 58 60  1  0
 59 65  1  0
 60 59  1  0
 61 60  2  0
 62 63  1  0
 62 56  2  0
 63 58  2  0
 64 57  1  0
 65 55  1  0
 67 69  2  0
 68 67  1  0
 68 72  1  0
 70 68  1  0
 71 80  2  0
 71 76  1  0
 72 76  1  0
 73 72  1  0
 74 75  1  0
 74 73  1  0
 75 71  1  0
 76 77  2  0
 77 78  1  0
 79 78  2  0
 80 79  1  0
 81 82  1  0
 81 91  1  0
 82 85  1  0
 83 87  1  0
 83 82  1  0
 84 83  2  0
 86 87  1  0
 89 87  1  0
 89 90  1  0
 89 88  1  0
 91 94  1  1
 91 92  1  0
 93 91  1  0
 96 97  1  0
 97 95  1  0
M  ISO  4  15 100  23 100  53 101  54 101
M  END
>  <TORSDO>  (60) 
F 24

>  <SCORE>  (60) 
-10.838

>  <name>  (60) 
59

>  <ligand_id>  (60) 
59

>  <original_smiles>  (60) 
[H]c1c([H])c([H])c2c(c1[H])C([H])([H])C([H])([H])C([H])([H])C2([H])N([H])C(=O)C1([H])N(C(=O)C([H])(N([H])C(=O)C([H])(N([H])C([H])([H])[H])C([H])([H])[H])C(C([H])([H])[H])(C([H])([H])[H])C([H])([H])[H])C([H])([H])c2c([H])c(OC([H])([H])C3([H])C([H])([H])C([H])([H])C4([H])C([H])([H])C(C([H])([H])C([H])([H])C([H])([H])C([H])([H])C([H])([H])N([H])C(=O)N5C([H])([H])C([H])([H])C([H])([H])C([H])(n6nc(-c7c([H])c([H])c(Oc8c([H])c([H])c(F)c([H])c8F)c([H])c7[H])c(C(=O)N([H])[H])c6N([H])[H])C5([H])[H])=NC([H])(C([H])([H])C([H])([H])C([H])([H])[H])C34[H])c([H])c([H])c2C1([H])[H]

>  <smiles>  (60) 
[H]c1c([H])c([H])c2c(c1[H])C([H])([H])C([H])([H])C([H])([H])C2([H])N([H])C(=O)C1([H])N(C(=O)C([H])(N([H])C(=O)C([H])(N([H])C([H])([H])[H])C([H])([H])[H])C(C([H])([H])[H])(C([H])([H])[H])C([H])([H])[H])C([H])([H])c2c([H])c(OC([H])([H])C3([H])C([H])([H])C([H])([H])C4([H])C([H])([H])C(C([H])([H])C([H])([H])C([H])([H])C([H])([H])C([H])([H])N([H])C(=O)N5C([H])([H])C([H])([H])C([H])([H])C([H])(n6nc(-c7c([H])c([H])c(Oc8c([H])c([H])c(F)c([H])c8F)c([H])c7[H])c(C(=O)N([H])[H])c6N([H])[H])C5([H])[H])=NC([H])(C([H])([H])C([H])([H])C([H])([H])[H])C34[H])c([H])c([H])c2C1([H])[H]

$$$$
60:0:0
     RDKit          3D

 95102  0  0  1  0  0  0  0  0999 V2000
  -28.3750  -23.8020   20.4740 C   0  0  0  0  0  3  0  0  0  0  0  0
  -29.0220  -22.4670   19.8160 C   0  0  0  0  0  2  0  0  0  0  0  0
  -28.7070  -21.0530   20.4380 C   0  0  0  0  0  0  0  0  0  0  0  0
  -27.6470  -20.9550   21.2630 N   0  0  0  0  0  4  0  0  0  0  0  0
  -29.4310  -19.8960   20.1440 N   0  0  0  0  0  0  0  0  0  0  0  0
  -27.0010  -21.7220   21.3900 H   0  0  0  0  0  0  0  0  0  0  0  0
  -27.4070  -20.1010   21.7450 H   0  0  0  0  0  0  0  0  0  0  0  0
  -30.2160  -20.0060   19.5130 H   0  0  0  0  0  0  0  0  0  0  0  0
  -29.1990  -18.4410   20.5820 C   0  0  0  0  0  3  0  0  0  0  0  0
  -30.2600  -17.3040   20.1510 C   0  0  0  0  0  3  0  0  0  0  0  0
  -30.6470  -14.7260   20.0300 C   0  0  0  0  0  0  0  0  0  0  0  0
  -30.3730  -12.4890   18.9680 C   0  0  0  0  0  2  0  0  0  0  0  0
  -29.3820  -12.6310   17.7930 C   0  0  0  0  0  2  0  0  0  0  0  0
  -27.9260  -12.4820   18.2790 C   0  0  0  0  0  2  0  0  0  0  0  0
  -27.6300  -13.3220   19.5510 C   0  0  0  0  0  3  0  0  0  0  0  0
  -28.7380  -13.1640   20.6170 C   0  0  0  0  0  2  0  0  0  0  0  0
  -30.0130  -13.5090   19.9770 N   0  0  0  0  0  0  0  0  0  0  0  0
  -31.8070  -14.8500   19.6280 O   0  0  0  0  0  0  0  0  0  0  0  0
  -29.8870  -15.8370   20.3230 N   0  0  0  0  0  0  0  0  0  0  0  0
  -28.9370  -15.6470   20.6020 H   0  0  0  0  0  0  0  0  0  0  0  0
  -25.2760  -13.9180   20.3840 C   0  0  0  0  0  0  0  0  0  0  0  0
  -24.2240  -13.1430   20.7940 C   0  0  0  0  0  0  0  0  0  0  0  0
  -24.6800  -11.7920   20.7270 C   0  0  0  0  0  0  0  0  0  0  0  0
  -26.3060  -13.0360   20.0950 N   0  0  0  0  0  0  0  0  0  0  0  0
  -25.9570  -11.7520   20.3630 N   0  0  0  0  0  0  0  0  0  0  0  0
  -23.9600  -10.5290   20.9360 C   0  0  0  0  0  0  0  0  0  0  0  0
  -24.4180   -9.5610   21.8560 C   0  0  0  0  0  3  0  0  0  0  0  0
  -23.6960   -8.3630   22.0540 C   0  0  0  0  0  3  0  0  0  0  0  0
  -22.5030   -8.1270   21.3320 C   0  0  0  0  0  0  0  0  0  0  0  0
  -22.0640   -9.0830   20.4000 C   0  0  0  0  0  3  0  0  0  0  0  0
  -22.7860  -10.2720   20.2000 C   0  0  0  0  0  3  0  0  0  0  0  0
  -21.7490   -6.9820   21.4400 O   0  0  0  0  0  0  0  0  0  0  0  0
  -21.7150   -6.2490   22.5980 C   0  0  0  0  0  0  0  0  0  0  0  0
  -21.3080   -6.8120   23.8270 C   0  0  0  0  0  3  0  0  0  0  0  0
  -21.2240   -6.0060   24.9790 C   0  0  0  0  0  3  0  0  0  0  0  0
  -21.5360   -4.6350   24.9030 C   0  0  0  0  0  0  0  0  0  0  0  0
  -21.9350   -4.0700   23.6790 C   0  0  0  0  0  3  0  0  0  0  0  0
  -22.0240   -4.8750   22.5300 C   0  0  0  0  0  0  0  0  0  0  0  0
  -22.3890   -4.3210   21.3490 F   0  0  0  0  0  0  0  0  0  0  0  0
  -21.4470   -3.8570   26.0070 F   0  0  0  0  0  0  0  0  0  0  0  0
  -22.8430  -13.6220   21.1300 C   0  0  0  0  0  0  0  0  0  0  0  0
  -22.1530  -12.9180   22.0210 N   0  0  0  0  0  0  0  0  0  0  0  0
  -22.3860  -14.6520   20.6390 O   0  0  0  0  0  0  0  0  0  0  0  0
  -22.5380  -12.0810   22.4350 H   0  0  0  0  0  0  0  0  0  0  0  0
  -21.2280  -13.2190   22.2930 H   0  0  0  0  0  0  0  0  0  0  0  0
  -25.4360  -15.2880   20.2080 N   0  0  0  0  0  0  0  0  0  0  0  0
  -24.6710  -15.9390   20.3460 H   0  0  0  0  0  0  0  0  0  0  0  0
  -26.2440  -15.7160   19.7730 H   0  0  0  0  0  0  0  0  0  0  0  0
  -28.9440  -24.0060   21.9010 C   0  0  0  0  0  2  0  0  0  0  0  0
  -28.1790  -24.9970   22.6830 N   0  0  0  0  0  4  0  0  0  0  0  0
  -27.2210  -24.7110   22.7830 H   0  0  0  0  0  0  0  0  0  0  0  0
  -28.2030  -25.8900   22.2210 H   0  0  0  0  0  0  0  0  0  0  0  0
  -28.5710  -25.1050   23.6020 H   0  0  0  0  0  0  0  0  0  0  0  0
  -28.5150  -25.1580   19.6060 C   0  0  0  0  0  2  0  0  0  0  0  0
  -28.3860  -26.5190   20.2010 O   0  0  0  0  0  0  0  0  0  0  0  0
  -24.6310  -31.8830   23.2190 C   0  0  0  0  0  0  0  0  0  0  0  0
  -27.2420  -27.3350   20.1250 C   0  0  0  0  0  0  0  0  0  0  0  0
  -23.4270  -30.4910   21.5720 C   0  0  0  0  0  3  0  0  0  0  0  0
  -24.8730  -28.9470   20.1290 C   0  0  0  0  0  0  0  0  0  0  0  0
  -25.9650  -30.8090   21.3870 C   0  0  0  0  0  2  0  0  0  0  0  0
  -26.0400  -29.4350   20.7280 C   0  0  0  0  0  0  0  0  0  0  0  0
  -27.2230  -28.6380   20.7180 C   0  0  0  0  0  3  0  0  0  0  0  0
  -26.0500  -26.8960   19.5100 C   0  0  0  0  0  3  0  0  0  0  0  0
  -24.8810  -27.6850   19.5110 C   0  0  0  0  0  3  0  0  0  0  0  0
  -23.6390  -29.8240   20.1860 C   0  0  0  0  0  2  0  0  0  0  0  0
  -24.6940  -31.0810   22.1150 N   0  0  0  0  0  0  0  0  0  0  0  0
  -23.5490  -32.1510   23.7610 O   0  0  0  0  0  0  0  0  0  0  0  0
  -22.7730  -29.4650   22.5270 C   0  0  0  0  0  0  0  0  0  0  0  0
  -21.4470  -29.2850   22.4020 N   0  0  0  0  0  0  0  0  0  0  0  0
  -23.4540  -28.8350   23.3400 O   0  0  0  0  0  0  0  0  0  0  0  0
  -20.9570  -29.8420   21.7140 H   0  0  0  0  0  0  0  0  0  0  0  0
  -18.0760  -28.0710   22.8900 C   0  0  0  0  0  0  0  0  0  0  0  0
  -20.6320  -28.3400   23.1660 C   0  0  0  0  0  3  0  0  0  0  0  0
  -20.7410  -26.9120   22.5820 C   0  0  0  0  0  2  0  0  0  0  0  0
  -19.6430  -26.5890   21.5660 C   0  0  0  0  0  2  0  0  0  0  0  0
  -18.2590  -26.7260   22.2080 C   0  0  0  0  0  2  0  0  0  0  0  0
  -19.1910  -28.8360   23.3260 C   0  0  0  0  0  0  0  0  0  0  0  0
  -18.9650  -30.0950   23.9230 C   0  0  0  0  0  3  0  0  0  0  0  0
  -17.6570  -30.5890   24.0880 C   0  0  0  0  0  3  0  0  0  0  0  0
  -16.5560  -29.8200   23.6700 C   0  0  0  0  0  3  0  0  0  0  0  0
  -16.7670  -28.5640   23.0760 C   0  0  0  0  0  3  0  0  0  0  0  0
  -25.9140  -32.5160   23.8440 C   0  0  0  0  0  3  0  0  0  0  0  0
  -26.4250  -31.7450   25.1220 C   0  0  1  0  0  0  0  0  0  0  0  0
  -25.3320  -31.5110   26.1910 C   0  0  0  0  0  1  0  0  0  0  0  0
  -27.0030  -30.3650   24.7320 C   0  0  0  0  0  1  0  0  0  0  0  0
  -27.5740  -32.5400   25.7860 C   0  0  0  0  0  1  0  0  0  0  0  0
  -25.6040  -33.9130   24.1730 N   0  0  0  0  0  0  0  0  0  0  0  0
  -25.9360  -34.9680   23.4150 C   0  0  0  0  0  0  0  0  0  0  0  0
  -26.6050  -34.8650   22.3830 O   0  0  0  0  0  0  0  0  0  0  0  0
  -25.0120  -34.0650   24.9780 H   0  0  0  0  0  0  0  0  0  0  0  0
  -24.2100  -36.7620   23.0610 C   0  0  0  0  0  1  0  0  0  0  0  0
  -25.4500  -36.3540   23.8730 C   0  0  0  0  0  3  0  0  0  0  0  0
  -27.5850  -37.2380   24.7080 C   0  0  0  0  0  1  0  0  0  0  0  0
  -26.4830  -37.4080   23.7640 N   0  0  0  0  0  0  0  0  0  0  0  0
  -26.0750  -38.3270   23.9130 H   0  0  0  0  0  0  0  0  0  0  0  0
  1 54  1  0
  1 49  1  0
  2  3  1  0
  2  1  1  0
  3  4  2  0
  4  6  1  0
  4  7  1  0
  5  3  1  0
  5  9  1  0
  8  5  1  0
 10 19  1  0
 10  9  2  0
 11 19  1  0
 12 17  1  0
 13 14  1  0
 13 12  1  0
 15 14  1  0
 15 24  1  0
 15 16  1  0
 17 11  1  0
 17 16  1  0
 18 11  2  0
 19 20  1  0
 21 22  2  0
 22 41  1  0
 23 22  1  0
 23 26  1  0
 24 25  1  0
 24 21  1  0
 25 23  2  0
 26 27  1  0
 27 28  2  0
 29 32  1  0
 29 28  1  0
 30 29  2  0
 31 30  1  0
 31 26  2  0
 32 33  1  0
 33 34  1  0
 34 35  2  0
 36 35  1  0
 36 40  1  0
 37 36  2  0
 38 33  2  0
 38 37  1  0
 39 38  1  0
 41 42  1  0
 42 45  1  0
 42 44  1  0
 43 41  2  0
 46 47  1  0
 46 21  1  0
 48 46  1  0
 49 50  1  0
 50 51  1  0
 50 53  1  0
 52 50  1  0
 54 55  1  0
 56 67  2  0
 57 55  1  0
 57 62  1  0
 58 66  1  0
 58 68  1  0
 59 65  1  0
 59 61  1  0
 60 66  1  0
 61 60  1  0
 62 61  2  0
 63 64  1  0
 63 57  2  0
 64 59  2  0
 65 58  1  0
 66 56  1  0
 68 70  2  0
 69 68  1  0
 71 69  1  0
 72 81  2  0
 72 77  1  0
 73 69  1  0
 73 77  1  0
 74 73  1  0
 75 76  1  0
 75 74  1  0
 76 72  1  0
 77 78  2  0
 78 79  1  0
 80 79  2  0
 81 80  1  0
 82 56  1  0
 82 87  1  0
 82 83  1  0
 83 86  1  1
 83 84  1  0
 85 83  1  0
 87 90  1  0
 88 92  1  0
 88 87  1  0
 89 88  2  0
 92 91  1  0
 94 92  1  0
 94 95  1  0
 94 93  1  0
M  ISO  4  11 100  19 100  54 101  55 101
M  END
>  <TORSDO>  (61) 
F 23

>  <SCORE>  (61) 
-12.818

>  <name>  (61) 
60

>  <ligand_id>  (61) 
60

>  <original_smiles>  (61) 
[H]c1c([H])c([H])c2c(c1[H])C([H])([H])C([H])([H])C([H])([H])C2([H])N([H])C(=O)C1([H])N(C(=O)C([H])(N([H])C(=O)C([H])(N([H])C([H])([H])[H])C([H])([H])[H])C(C([H])([H])[H])(C([H])([H])[H])C([H])([H])[H])C([H])([H])c2c([H])c(OC([H])([H])C([H])(C([H])([H])C(N([H])[H])=[N+]([H])C([H])([H])C([H])([H])N([H])C(=O)N3C([H])([H])C([H])([H])C([H])([H])C([H])(n4nc(-c5c([H])c([H])c(Oc6c([H])c([H])c(F)c([H])c6F)c([H])c5[H])c(C(=O)N([H])[H])c4N([H])[H])C3([H])[H])C([H])([H])[N+]([H])([H])[H])c([H])c([H])c2C1([H])[H]

>  <smiles>  (61) 
[H]c1c([H])c([H])c2c(c1[H])C([H])([H])C([H])([H])C([H])([H])C2([H])N([H])C(=O)C1([H])N(C(=O)C([H])(N([H])C(=O)C([H])(N([H])C([H])([H])[H])C([H])([H])[H])C(C([H])([H])[H])(C([H])([H])[H])C([H])([H])[H])C([H])([H])c2c([H])c(OC([H])([H])C([H])(C([H])([H])C(N([H])[H])=[N+]([H])C([H])([H])C([H])([H])N([H])C(=O)N3C([H])([H])C([H])([H])C([H])([H])C([H])(n4nc(-c5c([H])c([H])c(Oc6c([H])c([H])c(F)c([H])c6F)c([H])c5[H])c(C(=O)N([H])[H])c4N([H])[H])C3([H])[H])C([H])([H])[N+]([H])([H])[H])c([H])c([H])c2C1([H])[H]

$$$$
61:0:0
     RDKit          3D

 89 97  0  0  1  0  0  0  0  0999 V2000
  -28.6360  -21.8050   19.1350 C   0  0  0  0  0  2  0  0  0  0  0  0
  -29.3150  -20.3040   19.2360 C   0  0  0  0  0  2  0  0  0  0  0  0
  -28.5020  -21.8440   21.5040 C   0  0  0  0  0  2  0  0  0  0  0  0
  -28.7820  -22.9030   20.3100 C   0  0  0  0  0  3  0  0  0  0  0  0
  -29.1010  -19.3770   20.5280 C   0  0  0  0  0  3  0  0  0  0  0  0
  -29.2900  -20.4930   21.5710 N   0  0  0  0  0  4  0  0  0  0  0  0
  -29.0570  -20.0890   22.4630 H   0  0  0  0  0  0  0  0  0  0  0  0
  -30.2690  -20.7240   21.6180 H   0  0  0  0  0  0  0  0  0  0  0  0
  -27.8860  -24.4100   20.1930 C   0  0  0  0  0  2  0  0  0  0  0  0
  -28.2230  -25.9790   20.2550 O   0  0  0  0  0  0  0  0  0  0  0  0
  -24.6550  -31.8340   23.1790 C   0  0  0  0  0  0  0  0  0  0  0  0
  -27.2070  -27.0340   20.1760 C   0  0  0  0  0  0  0  0  0  0  0  0
  -23.4620  -30.4530   21.5240 C   0  0  0  0  0  3  0  0  0  0  0  0
  -24.9120  -28.8630   20.1090 C   0  0  0  0  0  0  0  0  0  0  0  0
  -26.0250  -30.6820   21.3860 C   0  0  0  0  0  2  0  0  0  0  0  0
  -26.0920  -29.2820   20.7340 C   0  0  0  0  0  0  0  0  0  0  0  0
  -27.2410  -28.3850   20.7460 C   0  0  0  0  0  3  0  0  0  0  0  0
  -25.9990  -26.7460   19.5040 C   0  0  0  0  0  3  0  0  0  0  0  0
  -24.8840  -27.6130   19.4760 C   0  0  0  0  0  3  0  0  0  0  0  0
  -23.6930  -29.7770   20.1450 C   0  0  0  0  0  2  0  0  0  0  0  0
  -24.7350  -31.0130   22.0850 N   0  0  0  0  0  0  0  0  0  0  0  0
  -23.5650  -32.1240   23.6980 O   0  0  0  0  0  0  0  0  0  0  0  0
  -22.7620  -29.4510   22.4800 C   0  0  0  0  0  0  0  0  0  0  0  0
  -21.4310  -29.3050   22.3560 N   0  0  0  0  0  0  0  0  0  0  0  0
  -23.4230  -28.8050   23.2970 O   0  0  0  0  0  0  0  0  0  0  0  0
  -20.9510  -29.8780   21.6750 H   0  0  0  0  0  0  0  0  0  0  0  0
  -18.0320  -28.1420   22.8500 C   0  0  0  0  0  0  0  0  0  0  0  0
  -20.5940  -28.3740   23.1220 C   0  0  0  0  0  3  0  0  0  0  0  0
  -20.6800  -26.9440   22.5400 C   0  0  0  0  0  2  0  0  0  0  0  0
  -19.5770  -26.6400   21.5220 C   0  0  0  0  0  2  0  0  0  0  0  0
  -18.1950  -26.7970   22.1620 C   0  0  0  0  0  2  0  0  0  0  0  0
  -19.1580  -28.8900   23.2850 C   0  0  0  0  0  0  0  0  0  0  0  0
  -18.9490  -30.1490   23.8870 C   0  0  0  0  0  3  0  0  0  0  0  0
  -17.6490  -30.6610   24.0580 C   0  0  0  0  0  3  0  0  0  0  0  0
  -16.5380  -29.9120   23.6360 C   0  0  0  0  0  3  0  0  0  0  0  0
  -16.7300  -28.6540   23.0380 C   0  0  0  0  0  3  0  0  0  0  0  0
  -25.9290  -32.4650   23.8210 C   0  0  0  0  0  3  0  0  0  0  0  0
  -25.6020  -33.8460   24.2140 N   0  0  0  0  0  0  0  0  0  0  0  0
  -25.9090  -34.9390   23.5030 C   0  0  0  0  0  0  0  0  0  0  0  0
  -26.5640  -34.8920   22.4580 O   0  0  0  0  0  0  0  0  0  0  0  0
  -25.0310  -33.9580   25.0390 H   0  0  0  0  0  0  0  0  0  0  0  0
  -24.1480  -36.7200   23.2630 C   0  0  0  0  0  1  0  0  0  0  0  0
  -25.4110  -36.2990   24.0320 C   0  0  0  0  0  3  0  0  0  0  0  0
  -27.5560  -37.1740   24.8460 C   0  0  0  0  0  1  0  0  0  0  0  0
  -26.4240  -37.3730   23.9460 N   0  0  0  0  0  0  0  0  0  0  0  0
  -26.0070  -38.2770   24.1530 H   0  0  0  0  0  0  0  0  0  0  0  0
  -26.4580  -31.6540   25.0670 C   0  0  1  0  0  0  0  0  0  0  0  0
  -25.3760  -31.3790   26.1370 C   0  0  0  0  0  1  0  0  0  0  0  0
  -27.0420  -30.2920   24.6290 C   0  0  0  0  0  1  0  0  0  0  0  0
  -27.6100  -32.4310   25.7470 C   0  0  0  0  0  1  0  0  0  0  0  0
  -30.0210  -17.8950   20.7780 C   0  0  0  0  0  2  0  0  0  0  0  0
  -30.4800  -15.1010   20.4140 C   0  0  0  0  0  0  0  0  0  0  0  0
  -30.4440  -12.7000   19.5060 C   0  0  0  0  0  2  0  0  0  0  0  0
  -29.5250  -12.5430   18.2700 C   0  0  0  0  0  2  0  0  0  0  0  0
  -28.0700  -12.2860   18.7050 C   0  0  0  0  0  2  0  0  0  0  0  0
  -27.6180  -13.2520   19.8280 C   0  0  0  0  0  3  0  0  0  0  0  0
  -28.6580  -13.3540   20.9640 C   0  0  0  0  0  2  0  0  0  0  0  0
  -29.9070  -13.8190   20.3460 N   0  0  0  0  0  0  0  0  0  0  0  0
  -31.7010  -15.1410   20.2150 O   0  0  0  0  0  0  0  0  0  0  0  0
  -29.6970  -16.3230   20.5150 N   0  0  0  0  0  0  0  0  0  0  0  0
  -28.7080  -16.1250   20.5480 H   0  0  0  0  0  0  0  0  0  0  0  0
  -25.2420  -13.8220   20.5720 C   0  0  0  0  0  0  0  0  0  0  0  0
  -24.1750  -13.0440   20.9270 C   0  0  0  0  0  0  0  0  0  0  0  0
  -24.6380  -11.6930   20.8790 C   0  0  0  0  0  0  0  0  0  0  0  0
  -26.2830  -12.9440   20.3230 N   0  0  0  0  0  0  0  0  0  0  0  0
  -25.9300  -11.6570   20.5750 N   0  0  0  0  0  0  0  0  0  0  0  0
  -23.9060  -10.4300   21.0430 C   0  0  0  0  0  0  0  0  0  0  0  0
  -24.3620   -9.4220   21.9200 C   0  0  0  0  0  3  0  0  0  0  0  0
  -23.6310   -8.2250   22.0750 C   0  0  0  0  0  3  0  0  0  0  0  0
  -22.4290   -8.0280   21.3540 C   0  0  0  0  0  0  0  0  0  0  0  0
  -21.9930   -9.0250   20.4640 C   0  0  0  0  0  3  0  0  0  0  0  0
  -22.7250  -10.2130   20.3060 C   0  0  0  0  0  3  0  0  0  0  0  0
  -21.6640   -6.8880   21.4250 O   0  0  0  0  0  0  0  0  0  0  0  0
  -21.6850   -6.0750   22.5290 C   0  0  0  0  0  0  0  0  0  0  0  0
  -21.3990   -6.5660   23.8230 C   0  0  0  0  0  3  0  0  0  0  0  0
  -21.3660   -5.6800   24.9200 C   0  0  0  0  0  3  0  0  0  0  0  0
  -21.6040   -4.3060   24.7230 C   0  0  0  0  0  0  0  0  0  0  0  0
  -21.8820   -3.8160   23.4360 C   0  0  0  0  0  3  0  0  0  0  0  0
  -21.9190   -4.6970   22.3420 C   0  0  0  0  0  0  0  0  0  0  0  0
  -22.1660   -4.2170   21.0990 F   0  0  0  0  0  0  0  0  0  0  0  0
  -21.5640   -3.4540   25.7740 F   0  0  0  0  0  0  0  0  0  0  0  0
  -22.7780  -13.5210   21.1940 C   0  0  0  0  0  0  0  0  0  0  0  0
  -22.0420  -12.8160   22.0460 N   0  0  0  0  0  0  0  0  0  0  0  0
  -22.3470  -14.5530   20.6810 O   0  0  0  0  0  0  0  0  0  0  0  0
  -22.4030  -11.9790   22.4800 H   0  0  0  0  0  0  0  0  0  0  0  0
  -21.1030  -13.1150   22.2660 H   0  0  0  0  0  0  0  0  0  0  0  0
  -25.4090  -15.1940   20.4100 N   0  0  0  0  0  0  0  0  0  0  0  0
  -24.6340  -15.8420   20.5010 H   0  0  0  0  0  0  0  0  0  0  0  0
  -26.2410  -15.6240   20.0270 H   0  0  0  0  0  0  0  0  0  0  0  0
  1  2  1  0
  1  4  1  0
  2  5  1  0
  3  6  1  0
  4  9  1  0
  4  3  1  0
  5 51  1  0
  5  6  1  0
  6  8  1  0
  6  7  1  0
  9 10  1  0
 11 22  2  0
 12 10  1  0
 12 17  1  0
 13 21  1  0
 13 23  1  0
 14 20  1  0
 14 16  1  0
 15 21  1  0
 16 17  2  0
 16 15  1  0
 18 12  2  0
 19 18  1  0
 19 14  2  0
 20 13  1  0
 21 11  1  0
 23 25  2  0
 24 23  1  0
 26 24  1  0
 27 36  2  0
 27 32  1  0
 28 24  1  0
 28 32  1  0
 29 28  1  0
 30 31  1  0
 30 29  1  0
 31 27  1  0
 32 33  2  0
 33 34  1  0
 35 34  2  0
 36 35  1  0
 37 11  1  0
 37 38  1  0
 37 47  1  0
 38 41  1  0
 39 43  1  0
 39 38  1  0
 40 39  2  0
 43 42  1  0
 45 43  1  0
 45 46  1  0
 45 44  1  0
 47 50  1  1
 47 48  1  0
 49 47  1  0
 52 60  1  0
 53 58  1  0
 54 55  1  0
 54 53  1  0
 56 55  1  0
 56 65  1  0
 56 57  1  0
 58 52  1  0
 58 57  1  0
 59 52  2  0
 60 61  1  0
 60 51  1  0
 62 63  2  0
 63 82  1  0
 64 63  1  0
 64 67  1  0
 65 62  1  0
 65 66  1  0
 66 64  2  0
 67 68  1  0
 68 69  2  0
 70 73  1  0
 70 69  1  0
 71 70  2  0
 72 71  1  0
 72 67  2  0
 73 74  1  0
 74 75  1  0
 75 76  2  0
 77 76  1  0
 77 81  1  0
 78 77  2  0
 79 74  2  0
 79 78  1  0
 80 79  1  0
 82 83  1  0
 83 86  1  0
 83 85  1  0
 84 82  2  0
 87 88  1  0
 87 62  1  0
 89 87  1  0
M  ISO  4   9 101  10 101  52 100  60 100
M  END
>  <TORSDO>  (62) 
F 18

>  <SCORE>  (62) 
-15.840

>  <name>  (62) 
61

>  <ligand_id>  (62) 
61

>  <original_smiles>  (62) 
[H]c1c([H])c([H])c2c(c1[H])C([H])([H])C([H])([H])C([H])([H])C2([H])N([H])C(=O)C1([H])N(C(=O)C([H])(N([H])C(=O)C([H])(N([H])C([H])([H])[H])C([H])([H])[H])C(C([H])([H])[H])(C([H])([H])[H])C([H])([H])[H])C([H])([H])c2c([H])c(OC([H])([H])C3([H])C([H])([H])C([H])([H])C([H])(C([H])([H])N([H])C(=O)N4C([H])([H])C([H])([H])C([H])([H])C([H])(n5nc(-c6c([H])c([H])c(Oc7c([H])c([H])c(F)c([H])c7F)c([H])c6[H])c(C(=O)N([H])[H])c5N([H])[H])C4([H])[H])[N+]([H])([H])C3([H])[H])c([H])c([H])c2C1([H])[H]

>  <smiles>  (62) 
[H]c1c([H])c([H])c2c(c1[H])C([H])([H])C([H])([H])C([H])([H])C2([H])N([H])C(=O)C1([H])N(C(=O)C([H])(N([H])C(=O)C([H])(N([H])C([H])([H])[H])C([H])([H])[H])C(C([H])([H])[H])(C([H])([H])[H])C([H])([H])[H])C([H])([H])c2c([H])c(OC([H])([H])C3([H])C([H])([H])C([H])([H])C([H])(C([H])([H])N([H])C(=O)N4C([H])([H])C([H])([H])C([H])([H])C([H])(n5nc(-c6c([H])c([H])c(Oc7c([H])c([H])c(F)c([H])c7F)c([H])c6[H])c(C(=O)N([H])[H])c5N([H])[H])C4([H])[H])[N+]([H])([H])C3([H])[H])c([H])c([H])c2C1([H])[H]

$$$$
62:0:0
     RDKit          3D

 91 99  0  0  1  0  0  0  0  0999 V2000
  -29.5640  -19.9650   20.2720 C   0  0  0  0  0  0  0  0  0  0  0  0
  -28.7340  -21.2030   20.3400 N   0  0  0  0  0  0  0  0  0  0  0  0
  -30.7700  -20.1870   20.1900 O   0  0  0  0  0  0  0  0  0  0  0  0
  -27.7470  -21.0160   20.4660 H   0  0  0  0  0  0  0  0  0  0  0  0
  -30.5320  -15.5080   20.2880 C   0  0  0  0  0  0  0  0  0  0  0  0
  -30.4490  -13.0870   19.3690 C   0  0  0  0  0  2  0  0  0  0  0  0
  -29.5180  -12.7360   18.1890 C   0  0  0  0  0  2  0  0  0  0  0  0
  -28.0980  -12.4250   18.6840 C   0  0  0  0  0  2  0  0  0  0  0  0
  -27.6160  -13.4350   19.7530 C   0  0  0  0  0  3  0  0  0  0  0  0
  -28.6860  -13.7160   20.8380 C   0  0  0  0  0  2  0  0  0  0  0  0
  -29.8620  -14.2560   20.1260 N   0  0  0  0  0  0  0  0  0  0  0  0
  -31.7590  -15.3230   20.2760 O   0  0  0  0  0  0  0  0  0  0  0  0
  -30.7060  -17.2550   18.5510 C   0  0  0  0  0  2  0  0  0  0  0  0
  -29.6500  -17.5360   17.4420 C   0  0  0  0  0  2  0  0  0  0  0  0
  -27.9990  -18.0620   19.2980 C   0  0  0  0  0  2  0  0  0  0  0  0
  -29.1840  -18.2270   20.2690 C   0  0  0  0  0  3  0  0  0  0  0  0
  -30.0650  -16.8680   19.8330 N   0  0  0  0  0  0  0  0  0  0  0  0
  -28.4290  -18.2650   17.8910 N   0  0  0  0  0  4  0  0  0  0  0  0
  -27.6740  -18.0040   17.2790 H   0  0  0  0  0  0  0  0  0  0  0  0
  -28.5840  -19.2470   17.7320 H   0  0  0  0  0  0  0  0  0  0  0  0
  -25.2420  -13.9460   20.5200 C   0  0  0  0  0  0  0  0  0  0  0  0
  -24.1880  -13.1500   20.8840 C   0  0  0  0  0  0  0  0  0  0  0  0
  -24.6780  -11.8090   20.8560 C   0  0  0  0  0  0  0  0  0  0  0  0
  -26.3030  -13.0920   20.2900 N   0  0  0  0  0  0  0  0  0  0  0  0
  -25.9770  -11.8000   20.5600 N   0  0  0  0  0  0  0  0  0  0  0  0
  -23.9720  -10.5310   21.0320 C   0  0  0  0  0  0  0  0  0  0  0  0
  -24.4010   -9.5730   21.9750 C   0  0  0  0  0  3  0  0  0  0  0  0
  -23.6870   -8.3670   22.1500 C   0  0  0  0  0  3  0  0  0  0  0  0
  -22.5320   -8.1080   21.3730 C   0  0  0  0  0  0  0  0  0  0  0  0
  -22.1180   -9.0580   20.4230 C   0  0  0  0  0  3  0  0  0  0  0  0
  -22.8340  -10.2550   20.2490 C   0  0  0  0  0  3  0  0  0  0  0  0
  -21.7880   -6.9540   21.4560 O   0  0  0  0  0  0  0  0  0  0  0  0
  -21.7180   -6.2240   22.6160 C   0  0  0  0  0  0  0  0  0  0  0  0
  -21.2250   -6.7820   23.8150 C   0  0  0  0  0  3  0  0  0  0  0  0
  -21.1040   -5.9800   24.9670 C   0  0  0  0  0  3  0  0  0  0  0  0
  -21.4660   -4.6200   24.9200 C   0  0  0  0  0  0  0  0  0  0  0  0
  -21.9520   -4.0600   23.7240 C   0  0  0  0  0  3  0  0  0  0  0  0
  -22.0750   -4.8610   22.5750 C   0  0  0  0  0  0  0  0  0  0  0  0
  -22.5220   -4.3120   21.4200 F   0  0  0  0  0  0  0  0  0  0  0  0
  -21.3420   -3.8450   26.0230 F   0  0  0  0  0  0  0  0  0  0  0  0
  -22.7800  -13.6000   21.1370 C   0  0  0  0  0  0  0  0  0  0  0  0
  -22.0610  -12.8970   22.0080 N   0  0  0  0  0  0  0  0  0  0  0  0
  -22.3250  -14.6090   20.6000 O   0  0  0  0  0  0  0  0  0  0  0  0
  -22.4430  -12.0810   22.4590 H   0  0  0  0  0  0  0  0  0  0  0  0
  -21.1120  -13.1730   22.2200 H   0  0  0  0  0  0  0  0  0  0  0  0
  -25.3780  -15.3170   20.3300 N   0  0  0  0  0  0  0  0  0  0  0  0
  -24.5920  -15.9580   20.3780 H   0  0  0  0  0  0  0  0  0  0  0  0
  -26.2170  -15.7340   19.9590 H   0  0  0  0  0  0  0  0  0  0  0  0
  -29.0090  -22.8600   20.3010 C   0  0  0  0  0  3  0  0  0  0  0  0
  -27.9530  -24.3350   20.3280 C   0  0  0  0  0  3  0  0  0  0  0  0
  -28.2050  -25.9740   20.3580 O   0  0  0  0  0  0  0  0  0  0  0  0
  -24.6150  -31.9700   23.2740 C   0  0  0  0  0  0  0  0  0  0  0  0
  -27.1910  -27.0630   20.3100 C   0  0  0  0  0  0  0  0  0  0  0  0
  -23.4330  -30.5650   21.6350 C   0  0  0  0  0  3  0  0  0  0  0  0
  -24.8910  -28.9420   20.2410 C   0  0  0  0  0  0  0  0  0  0  0  0
  -26.0040  -30.7660   21.5110 C   0  0  0  0  0  2  0  0  0  0  0  0
  -26.0760  -29.3510   20.8680 C   0  0  0  0  0  0  0  0  0  0  0  0
  -27.2220  -28.4330   20.8780 C   0  0  0  0  0  3  0  0  0  0  0  0
  -25.9790  -26.8100   19.6360 C   0  0  0  0  0  3  0  0  0  0  0  0
  -24.8670  -27.6870   19.6100 C   0  0  0  0  0  3  0  0  0  0  0  0
  -23.6800  -29.8680   20.2710 C   0  0  0  0  0  2  0  0  0  0  0  0
  -24.7050  -31.1300   22.1920 N   0  0  0  0  0  0  0  0  0  0  0  0
  -23.5220  -32.2650   23.7860 O   0  0  0  0  0  0  0  0  0  0  0  0
  -22.7300  -29.5780   22.6050 C   0  0  0  0  0  0  0  0  0  0  0  0
  -21.4020  -29.4110   22.4710 N   0  0  0  0  0  0  0  0  0  0  0  0
  -23.3900  -28.9570   23.4410 O   0  0  0  0  0  0  0  0  0  0  0  0
  -20.9240  -29.9660   21.7760 H   0  0  0  0  0  0  0  0  0  0  0  0
  -18.0110  -28.2150   22.9710 C   0  0  0  0  0  0  0  0  0  0  0  0
  -20.5710  -28.4810   23.2440 C   0  0  0  0  0  3  0  0  0  0  0  0
  -20.6730  -27.0450   22.6830 C   0  0  0  0  0  2  0  0  0  0  0  0
  -19.5770  -26.7110   21.6630 C   0  0  0  0  0  2  0  0  0  0  0  0
  -18.1910  -26.8620   22.3000 C   0  0  0  0  0  2  0  0  0  0  0  0
  -19.1260  -28.9820   23.3970 C   0  0  0  0  0  0  0  0  0  0  0  0
  -18.9030  -30.2420   23.9870 C   0  0  0  0  0  3  0  0  0  0  0  0
  -17.5940  -30.7410   24.1470 C   0  0  0  0  0  3  0  0  0  0  0  0
  -16.4940  -29.9750   23.7290 C   0  0  0  0  0  3  0  0  0  0  0  0
  -16.7010  -28.7140   23.1470 C   0  0  0  0  0  3  0  0  0  0  0  0
  -25.8840  -32.6120   23.9130 C   0  0  0  0  0  3  0  0  0  0  0  0
  -25.5670  -34.0150   24.2290 N   0  0  0  0  0  0  0  0  0  0  0  0
  -25.9040  -35.0700   23.4670 C   0  0  0  0  0  0  0  0  0  0  0  0
  -26.5680  -34.9550   22.4340 O   0  0  0  0  0  0  0  0  0  0  0  0
  -24.9770  -34.1790   25.0290 H   0  0  0  0  0  0  0  0  0  0  0  0
  -24.1780  -36.8700   23.1100 C   0  0  0  0  0  1  0  0  0  0  0  0
  -25.4290  -36.4690   23.9110 C   0  0  0  0  0  3  0  0  0  0  0  0
  -27.5730  -37.3610   24.7100 C   0  0  0  0  0  1  0  0  0  0  0  0
  -26.4660  -37.5170   23.7720 N   0  0  0  0  0  0  0  0  0  0  0  0
  -26.0670  -38.4430   23.9010 H   0  0  0  0  0  0  0  0  0  0  0  0
  -26.3690  -31.8630   25.2140 C   0  0  1  0  0  0  0  0  0  0  0  0
  -25.2530  -31.6480   26.2660 C   0  0  0  0  0  1  0  0  0  0  0  0
  -26.9560  -30.4770   24.8630 C   0  0  0  0  0  1  0  0  0  0  0  0
  -27.5120  -32.6640   25.8800 C   0  0  0  0  0  1  0  0  0  0  0  0
  1  2  1  0
  2  4  1  0
  3  1  2  0
  6 11  1  0
  7  8  1  0
  7  6  1  0
  9  8  1  0
  9 24  1  0
  9 10  1  0
 11  5  1  0
 11 10  1  0
 12  5  2  0
 13 17  1  0
 14 18  1  0
 14 13  1  0
 15 16  1  0
 16  1  1  0
 17 16  1  0
 17  5  1  0
 18 15  1  0
 19 18  1  0
 20 18  1  0
 21 22  2  0
 22 41  1  0
 23 22  1  0
 23 26  1  0
 24 21  1  0
 24 25  1  0
 25 23  2  0
 26 27  1  0
 27 28  2  0
 29 32  1  0
 29 28  1  0
 30 29  2  0
 31 30  1  0
 31 26  2  0
 32 33  1  0
 33 34  1  0
 34 35  2  0
 36 35  1  0
 36 40  1  0
 37 36  2  0
 38 33  2  0
 38 37  1  0
 39 38  1  0
 41 42  1  0
 42 45  1  0
 42 44  1  0
 43 41  2  0
 46 47  1  0
 46 21  1  0
 48 46  1  0
 49 50  2  0
 49  2  1  0
 50 51  1  0
 52 63  2  0
 53 51  1  0
 53 58  1  0
 54 62  1  0
 54 64  1  0
 55 61  1  0
 55 57  1  0
 56 62  1  0
 57 58  2  0
 57 56  1  0
 59 53  2  0
 60 59  1  0
 60 55  2  0
 61 54  1  0
 62 52  1  0
 64 66  2  0
 65 64  1  0
 67 65  1  0
 68 77  2  0
 68 73  1  0
 69 65  1  0
 69 73  1  0
 70 69  1  0
 71 72  1  0
 71 70  1  0
 72 68  1  0
 73 74  2  0
 74 75  1  0
 76 75  2  0
 77 76  1  0
 78 52  1  0
 78 79  1  0
 78 88  1  0
 79 82  1  0
 80 84  1  0
 80 79  1  0
 81 80  2  0
 84 83  1  0
 86 87  1  0
 86 84  1  0
 86 85  1  0
 88 91  1  1
 88 89  1  0
 90 88  1  0
M  ISO  4   5 100  17 100  50 101  51 101
M  END
>  <TORSDO>  (63) 
F 18

>  <SCORE>  (63) 
-16.378

>  <name>  (63) 
62

>  <ligand_id>  (63) 
62

>  <original_smiles>  (63) 
[H]c1c([H])c([H])c2c(c1[H])C([H])([H])C([H])([H])C([H])([H])C2([H])N([H])C(=O)C1([H])N(C(=O)C([H])(N([H])C(=O)C([H])(N([H])C([H])([H])[H])C([H])([H])[H])C(C([H])([H])[H])(C([H])([H])[H])C([H])([H])[H])C([H])([H])c2c([H])c(OC([H])([H])C([H])([H])N([H])C(=O)C3([H])N(C(=O)N4C([H])([H])C([H])([H])C([H])([H])C([H])(n5nc(-c6c([H])c([H])c(Oc7c([H])c([H])c(F)c([H])c7F)c([H])c6[H])c(C(=O)N([H])[H])c5N([H])[H])C4([H])[H])C([H])([H])C([H])([H])[N+]([H])([H])C3([H])[H])c([H])c([H])c2C1([H])[H]

>  <smiles>  (63) 
[H]c1c([H])c([H])c2c(c1[H])C([H])([H])C([H])([H])C([H])([H])C2([H])N([H])C(=O)C1([H])N(C(=O)C([H])(N([H])C(=O)C([H])(N([H])C([H])([H])[H])C([H])([H])[H])C(C([H])([H])[H])(C([H])([H])[H])C([H])([H])[H])C([H])([H])c2c([H])c(OC([H])([H])C([H])([H])N([H])C(=O)C3([H])N(C(=O)N4C([H])([H])C([H])([H])C([H])([H])C([H])(n5nc(-c6c([H])c([H])c(Oc7c([H])c([H])c(F)c([H])c7F)c([H])c6[H])c(C(=O)N([H])[H])c5N([H])[H])C4([H])[H])C([H])([H])C([H])([H])[N+]([H])([H])C3([H])[H])c([H])c([H])c2C1([H])[H]

$$$$
63:0:0
     RDKit          3D

 96105  0  0  1  0  0  0  0  0999 V2000
  -28.9440  -21.5860   17.5040 C   0  0  0  0  0  2  0  0  0  0  0  0
  -29.9850  -20.5580   17.9830 C   0  0  0  0  0  2  0  0  0  0  0  0
  -29.3780  -23.0370   17.7830 C   0  0  0  0  0  2  0  0  0  0  0  0
  -30.8810  -22.2870   19.5890 C   0  0  0  0  0  2  0  0  0  0  0  0
  -30.3800  -20.8290   19.4530 C   0  0  0  0  0  3  0  0  0  0  0  0
  -29.7760  -23.2110   19.2090 N   0  0  1  0  0  4  0  0  0  0  0  0
  -28.9860  -22.8950   19.7560 H   0  0  0  0  0  0  0  0  0  0  0  0
  -31.3510  -19.7620   20.0110 C   0  0  0  0  0  2  0  0  0  0  0  0
  -31.0800  -17.4270   20.9040 C   0  0  0  0  0  0  0  0  0  0  0  0
  -30.6080  -18.5370   20.3210 N   0  0  0  0  0  0  0  0  0  0  0  0
  -32.2500  -17.3250   21.2800 O   0  0  0  0  0  0  0  0  0  0  0  0
  -29.6220  -18.5510   20.0970 H   0  0  0  0  0  0  0  0  0  0  0  0
  -30.9610  -14.2690   19.9700 C   0  0  0  0  0  0  0  0  0  0  0  0
  -30.3650  -12.3810   18.4840 C   0  0  0  0  0  2  0  0  0  0  0  0
  -29.2690  -12.7590   17.4710 C   0  0  0  0  0  2  0  0  0  0  0  0
  -27.8650  -12.5580   18.0680 C   0  0  0  0  0  2  0  0  0  0  0  0
  -27.7240  -13.2190   19.4630 C   0  0  0  0  0  3  0  0  0  0  0  0
  -28.9060  -12.8340   20.3740 C   0  0  0  0  0  2  0  0  0  0  0  0
  -30.1760  -13.1840   19.7020 N   0  0  0  0  0  0  0  0  0  0  0  0
  -31.8310  -14.6800   19.1990 O   0  0  0  0  0  0  0  0  0  0  0  0
  -30.2730  -15.4650   23.4040 C   0  0  0  0  0  2  0  0  0  0  0  0
  -29.3900  -16.3230   22.4900 C   0  0  0  0  0  2  0  0  0  0  0  0
  -30.8770  -14.4170   22.4600 C   0  0  0  0  0  2  0  0  0  0  0  0
  -30.0610  -16.2760   21.1090 C   0  0  0  0  0  3  0  0  0  0  0  0
  -30.6540  -14.9340   21.1000 N   0  0  0  0  0  0  0  0  0  0  0  0
  -25.4630  -13.7650   20.5770 C   0  0  0  0  0  0  0  0  0  0  0  0
  -24.4300  -12.9640   20.9910 C   0  0  0  0  0  0  0  0  0  0  0  0
  -24.8350  -11.6230   20.7180 C   0  0  0  0  0  0  0  0  0  0  0  0
  -26.4370  -12.9070   20.0870 N   0  0  0  0  0  0  0  0  0  0  0  0
  -26.0700  -11.6060   20.2280 N   0  0  0  0  0  0  0  0  0  0  0  0
  -24.0990  -10.3570   20.8480 C   0  0  0  0  0  0  0  0  0  0  0  0
  -24.6510   -9.2450   21.5200 C   0  0  0  0  0  3  0  0  0  0  0  0
  -23.9160   -8.0480   21.6460 C   0  0  0  0  0  3  0  0  0  0  0  0
  -22.6130   -7.9530   21.1030 C   0  0  0  0  0  0  0  0  0  0  0  0
  -22.0750   -9.0560   20.4150 C   0  0  0  0  0  3  0  0  0  0  0  0
  -22.8110  -10.2460   20.2860 C   0  0  0  0  0  3  0  0  0  0  0  0
  -21.8350   -6.8220   21.1560 O   0  0  0  0  0  0  0  0  0  0  0  0
  -22.0060   -5.8750   22.1340 C   0  0  0  0  0  0  0  0  0  0  0  0
  -21.9390   -6.1980   23.5070 C   0  0  0  0  0  3  0  0  0  0  0  0
  -22.0490   -5.1830   24.4770 C   0  0  0  0  0  3  0  0  0  0  0  0
  -22.2160   -3.8420   24.0780 C   0  0  0  0  0  0  0  0  0  0  0  0
  -22.2740   -3.5170   22.7120 C   0  0  0  0  0  3  0  0  0  0  0  0
  -22.1640   -4.5290   21.7430 C   0  0  0  0  0  0  0  0  0  0  0  0
  -22.1980   -4.2070   20.4270 F   0  0  0  0  0  0  0  0  0  0  0  0
  -22.3150   -2.8650   25.0100 F   0  0  0  0  0  0  0  0  0  0  0  0
  -23.0980  -13.4210   21.5200 C   0  0  0  0  0  0  0  0  0  0  0  0
  -22.4760  -12.6290   22.3890 N   0  0  0  0  0  0  0  0  0  0  0  0
  -22.6220  -14.5070   21.2000 O   0  0  0  0  0  0  0  0  0  0  0  0
  -22.8820  -11.7530   22.6830 H   0  0  0  0  0  0  0  0  0  0  0  0
  -21.5830  -12.9120   22.7700 H   0  0  0  0  0  0  0  0  0  0  0  0
  -25.6490  -15.1440   20.5610 N   0  0  0  0  0  0  0  0  0  0  0  0
  -24.9350  -15.7890   20.8820 H   0  0  0  0  0  0  0  0  0  0  0  0
  -26.4590  -15.6110   20.1710 H   0  0  0  0  0  0  0  0  0  0  0  0
  -29.9620  -24.6310   19.6260 C   0  0  0  0  0  2  0  0  0  0  0  0
  -28.5910  -25.2980   19.8400 C   0  0  0  0  0  2  0  0  0  0  0  0
  -28.6750  -26.6840   20.1630 O   0  0  0  0  0  0  0  0  0  0  0  0
  -25.0260  -31.8490   23.4230 C   0  0  0  0  0  0  0  0  0  0  0  0
  -27.4920  -27.3950   20.2160 C   0  0  0  0  0  0  0  0  0  0  0  0
  -23.7530  -30.5100   21.7810 C   0  0  0  0  0  3  0  0  0  0  0  0
  -25.1320  -28.9560   20.3160 C   0  0  0  0  0  0  0  0  0  0  0  0
  -26.2810  -30.8120   21.5280 C   0  0  0  0  0  2  0  0  0  0  0  0
  -26.3190  -29.4470   20.8730 C   0  0  0  0  0  0  0  0  0  0  0  0
  -27.5040  -28.6770   20.8050 C   0  0  0  0  0  3  0  0  0  0  0  0
  -26.2660  -26.9060   19.6900 C   0  0  0  0  0  3  0  0  0  0  0  0
  -25.0980  -27.6850   19.7280 C   0  0  0  0  0  3  0  0  0  0  0  0
  -23.9210  -29.8520   20.3870 C   0  0  0  0  0  2  0  0  0  0  0  0
  -25.0420  -31.0650   22.3070 N   0  0  0  0  0  0  0  0  0  0  0  0
  -23.9600  -32.1410   23.9850 O   0  0  0  0  0  0  0  0  0  0  0  0
  -23.0890  -29.4900   22.7350 C   0  0  0  0  0  0  0  0  0  0  0  0
  -21.7560  -29.3520   22.6320 N   0  0  0  0  0  0  0  0  0  0  0  0
  -23.7680  -28.8270   23.5240 O   0  0  0  0  0  0  0  0  0  0  0  0
  -21.2690  -29.9420   21.9720 H   0  0  0  0  0  0  0  0  0  0  0  0
  -18.3610  -28.2310   23.1540 C   0  0  0  0  0  0  0  0  0  0  0  0
  -20.9270  -28.4250   23.4020 C   0  0  0  0  0  3  0  0  0  0  0  0
  -20.9900  -26.9970   22.8120 C   0  0  0  0  0  2  0  0  0  0  0  0
  -19.8710  -26.7090   21.8060 C   0  0  0  0  0  2  0  0  0  0  0  0
  -18.4990  -26.8860   22.4630 C   0  0  0  0  0  2  0  0  0  0  0  0
  -19.5030  -28.9600   23.5820 C   0  0  0  0  0  0  0  0  0  0  0  0
  -19.3200  -30.2230   24.1860 C   0  0  0  0  0  3  0  0  0  0  0  0
  -18.0290  -30.7540   24.3710 C   0  0  0  0  0  3  0  0  0  0  0  0
  -16.9020  -30.0190   23.9620 C   0  0  0  0  0  3  0  0  0  0  0  0
  -17.0690  -28.7600   23.3580 C   0  0  0  0  0  3  0  0  0  0  0  0
  -26.3400  -32.4350   24.0280 C   0  0  0  0  0  3  0  0  0  0  0  0
  -26.8890  -31.6030   25.2510 C   0  0  1  0  0  0  0  0  0  0  0  0
  -25.8360  -31.3330   26.3480 C   0  0  0  0  0  1  0  0  0  0  0  0
  -27.4300  -30.2360   24.7720 C   0  0  0  0  0  1  0  0  0  0  0  0
  -28.0760  -32.3490   25.9060 C   0  0  0  0  0  1  0  0  0  0  0  0
  -26.0680  -33.8240   24.4230 N   0  0  0  0  0  0  0  0  0  0  0  0
  -26.3850  -34.8990   23.6880 C   0  0  0  0  0  0  0  0  0  0  0  0
  -27.0170  -34.8240   22.6320 O   0  0  0  0  0  0  0  0  0  0  0  0
  -25.5200  -33.9600   25.2590 H   0  0  0  0  0  0  0  0  0  0  0  0
  -24.6710  -36.7250   23.4600 C   0  0  0  0  0  1  0  0  0  0  0  0
  -25.9320  -36.2740   24.2130 C   0  0  0  0  0  3  0  0  0  0  0  0
  -28.1140  -37.0970   24.9890 C   0  0  0  0  0  1  0  0  0  0  0  0
  -26.9730  -37.3200   24.1040 N   0  0  0  0  0  0  0  0  0  0  0  0
  -26.5840  -38.2340   24.3160 H   0  0  0  0  0  0  0  0  0  0  0  0
  1  3  1  0
  1  2  1  0
  2  5  1  0
  3  6  1  0
  5  4  1  0
  5  8  1  0
  6  4  1  0
  6 54  1  0
  6  7  1  1
  8 10  1  0
  9 11  2  0
 10  9  1  0
 12 10  1  0
 13 25  1  0
 14 19  1  0
 15 16  1  0
 15 14  1  0
 17 16  1  0
 17 29  1  0
 17 18  1  0
 19 13  1  0
 19 18  1  0
 20 13  2  0
 22 21  1  0
 23 21  1  0
 24  9  1  0
 24 22  1  0
 25 24  1  0
 25 23  1  0
 26 27  2  0
 27 46  1  0
 28 31  1  0
 28 27  1  0
 29 30  1  0
 29 26  1  0
 30 28  2  0
 31 32  1  0
 32 33  2  0
 34 37  1  0
 34 33  1  0
 35 34  2  0
 36 35  1  0
 36 31  2  0
 37 38  1  0
 38 39  1  0
 39 40  2  0
 41 40  1  0
 41 45  1  0
 42 41  2  0
 43 38  2  0
 43 42  1  0
 44 43  1  0
 46 47  1  0
 47 49  1  0
 47 50  1  0
 48 46  2  0
 51 26  1  0
 51 52  1  0
 53 51  1  0
 54 55  1  0
 55 56  1  0
 56 58  1  0
 57 68  2  0
 58 63  1  0
 59 67  1  0
 59 69  1  0
 60 66  1  0
 60 62  1  0
 61 67  1  0
 62 61  1  0
 63 62  2  0
 64 65  1  0
 64 58  2  0
 65 60  2  0
 66 59  1  0
 67 57  1  0
 69 71  2  0
 70 69  1  0
 72 70  1  0
 73 82  2  0
 73 78  1  0
 74 70  1  0
 74 78  1  0
 75 74  1  0
 76 77  1  0
 76 75  1  0
 77 73  1  0
 78 79  2  0
 79 80  1  0
 81 80  2  0
 82 81  1  0
 83 57  1  0
 83 88  1  0
 83 84  1  0
 84 87  1  1
 84 85  1  0
 86 84  1  0
 88 91  1  0
 89 93  1  0
 89 88  1  0
 90 89  2  0
 93 92  1  0
 95 93  1  0
 95 96  1  0
 95 94  1  0
M  ISO  4  13 100  25 100  55 101  56 101
M  END
>  <TORSDO>  (64) 
F 20

>  <SCORE>  (64) 
-5.319

>  <name>  (64) 
63

>  <ligand_id>  (64) 
63

>  <original_smiles>  (64) 
[H]c1c([H])c([H])c2c(c1[H])C([H])([H])C([H])([H])C([H])([H])C2([H])N([H])C(=O)C1([H])N(C(=O)C([H])(N([H])C(=O)C([H])(N([H])C([H])([H])[H])C([H])([H])[H])C(C([H])([H])[H])(C([H])([H])[H])C([H])([H])[H])C([H])([H])c2c([H])c(OC([H])([H])C([H])([H])[N+]3([H])C([H])([H])C([H])([H])C([H])([H])C([H])(C([H])([H])N([H])C(=O)C4([H])N(C(=O)N5C([H])([H])C([H])([H])C([H])([H])C([H])(n6nc(-c7c([H])c([H])c(Oc8c([H])c([H])c(F)c([H])c8F)c([H])c7[H])c(C(=O)N([H])[H])c6N([H])[H])C5([H])[H])C([H])([H])C([H])([H])C4([H])[H])C3([H])[H])c([H])c([H])c2C1([H])[H]

>  <smiles>  (64) 
[H]c1c([H])c([H])c2c(c1[H])C([H])([H])C([H])([H])C([H])([H])C2([H])N([H])C(=O)C1([H])N(C(=O)C([H])(N([H])C(=O)C([H])(N([H])C([H])([H])[H])C([H])([H])[H])C(C([H])([H])[H])(C([H])([H])[H])C([H])([H])[H])C([H])([H])c2c([H])c(OC([H])([H])C([H])([H])[N+]3([H])C([H])([H])C([H])([H])C([H])([H])C([H])(C([H])([H])N([H])C(=O)C4([H])N(C(=O)N5C([H])([H])C([H])([H])C([H])([H])C([H])(n6nc(-c7c([H])c([H])c(Oc8c([H])c([H])c(F)c([H])c8F)c([H])c7[H])c(C(=O)N([H])[H])c6N([H])[H])C5([H])[H])C([H])([H])C([H])([H])C4([H])[H])C3([H])[H])c([H])c([H])c2C1([H])[H]

$$$$
64:0:0
     RDKit          3D

 98106  0  0  1  0  0  0  0  0999 V2000
  -29.2110  -20.6780   19.8160 N   0  0  1  0  0  4  0  0  0  0  0  0
  -30.1380  -20.5700   19.4310 H   0  0  0  0  0  0  0  0  0  0  0  0
  -29.0310  -19.2010   20.4350 C   0  0  0  0  0  2  0  0  0  0  0  0
  -30.0740  -17.8720   17.3210 C   0  0  0  0  0  2  0  0  0  0  0  0
  -31.1190  -18.7500   17.9920 C   0  0  0  0  0  2  0  0  0  0  0  0
  -29.1160  -17.4430   18.4400 C   0  0  0  0  0  2  0  0  0  0  0  0
  -31.2000  -18.2050   19.4170 C   0  0  0  0  0  2  0  0  0  0  0  0
  -29.7630  -17.7750   19.8140 C   0  0  1  0  0  0  0  0  0  0  0  0
  -30.5390  -15.1480   20.5350 C   0  0  0  0  0  0  0  0  0  0  0  0
  -30.5040  -12.7270   19.7950 C   0  0  0  0  0  2  0  0  0  0  0  0
  -29.6600  -12.5810   18.5060 C   0  0  0  0  0  2  0  0  0  0  0  0
  -28.1690  -12.3820   18.8440 C   0  0  0  0  0  2  0  0  0  0  0  0
  -27.6750  -13.3660   19.9360 C   0  0  0  0  0  3  0  0  0  0  0  0
  -28.6560  -13.4800   21.1240 C   0  0  0  0  0  2  0  0  0  0  0  0
  -29.9580  -13.8760   20.5740 N   0  0  0  0  0  0  0  0  0  0  0  0
  -31.7510  -15.1720   20.2950 O   0  0  0  0  0  0  0  0  0  0  0  0
  -29.7490  -16.3460   20.5600 N   0  0  0  0  0  0  0  0  0  0  0  0
  -28.8350  -16.1480   20.9410 H   0  0  0  0  0  0  0  0  0  0  0  0
  -25.2560  -13.9470   20.5330 C   0  0  0  0  0  0  0  0  0  0  0  0
  -24.1770  -13.1740   20.8700 C   0  0  0  0  0  0  0  0  0  0  0  0
  -24.6470  -11.8250   20.8990 C   0  0  0  0  0  0  0  0  0  0  0  0
  -26.3140  -13.0680   20.3710 N   0  0  0  0  0  0  0  0  0  0  0  0
  -25.9540  -11.7890   20.6590 N   0  0  0  0  0  0  0  0  0  0  0  0
  -23.9150  -10.5630   21.0780 C   0  0  0  0  0  0  0  0  0  0  0  0
  -24.3210   -9.6040   22.0340 C   0  0  0  0  0  3  0  0  0  0  0  0
  -23.5890   -8.4100   22.2010 C   0  0  0  0  0  3  0  0  0  0  0  0
  -22.4400   -8.1640   21.4140 C   0  0  0  0  0  0  0  0  0  0  0  0
  -22.0540   -9.1100   20.4490 C   0  0  0  0  0  3  0  0  0  0  0  0
  -22.7840  -10.2970   20.2780 C   0  0  0  0  0  3  0  0  0  0  0  0
  -21.6810   -7.0210   21.4910 O   0  0  0  0  0  0  0  0  0  0  0  0
  -21.6260   -6.2680   22.6370 C   0  0  0  0  0  0  0  0  0  0  0  0
  -21.2140   -6.8210   23.8680 C   0  0  0  0  0  3  0  0  0  0  0  0
  -21.1040   -5.9980   25.0080 C   0  0  0  0  0  3  0  0  0  0  0  0
  -21.3990   -4.6240   24.9160 C   0  0  0  0  0  0  0  0  0  0  0  0
  -21.8050   -4.0720   23.6890 C   0  0  0  0  0  3  0  0  0  0  0  0
  -21.9150   -4.8910   22.5510 C   0  0  0  0  0  0  0  0  0  0  0  0
  -22.2880   -4.3530   21.3650 F   0  0  0  0  0  0  0  0  0  0  0  0
  -21.2880   -3.8290   26.0070 F   0  0  0  0  0  0  0  0  0  0  0  0
  -22.7660  -13.6540   21.0510 C   0  0  0  0  0  0  0  0  0  0  0  0
  -21.9960  -12.9820   21.9030 N   0  0  0  0  0  0  0  0  0  0  0  0
  -22.3520  -14.6570   20.4720 O   0  0  0  0  0  0  0  0  0  0  0  0
  -22.3440  -12.1760   22.3980 H   0  0  0  0  0  0  0  0  0  0  0  0
  -21.0490  -13.2910   22.0700 H   0  0  0  0  0  0  0  0  0  0  0  0
  -25.4250  -15.3110   20.3230 N   0  0  0  0  0  0  0  0  0  0  0  0
  -24.6400  -15.9530   20.3220 H   0  0  0  0  0  0  0  0  0  0  0  0
  -26.2660  -15.7160   19.9370 H   0  0  0  0  0  0  0  0  0  0  0  0
  -28.4070  -20.9970   18.6010 C   0  0  0  0  0  2  0  0  0  0  0  0
  -26.8990  -21.2060   18.8580 C   0  0  0  0  0  2  0  0  0  0  0  0
  -26.2220  -22.1600   17.8480 C   0  0  0  0  0  2  0  0  0  0  0  0
  -24.6810  -22.1220   17.9400 C   0  0  0  0  0  2  0  0  0  0  0  0
  -24.0490  -23.1990   17.1560 N   0  0  0  0  0  4  0  0  0  0  0  0
  -24.1640  -24.0870   17.6120 H   0  0  0  0  0  0  0  0  0  0  0  0
  -23.0630  -23.0270   17.0640 H   0  0  0  0  0  0  0  0  0  0  0  0
  -24.4380  -23.2620   16.2310 H   0  0  0  0  0  0  0  0  0  0  0  0
  -29.4770  -22.0020   20.6520 C   0  0  0  0  0  2  0  0  0  0  0  0
  -28.5490  -23.4250   20.7340 C   0  0  0  0  0  2  0  0  0  0  0  0
  -28.7030  -24.8870   19.9160 C   0  0  0  0  0  2  0  0  0  0  0  0
  -28.5300  -26.3420   20.4500 O   0  0  0  0  0  0  0  0  0  0  0  0
  -24.6810  -31.9130   23.2420 C   0  0  0  0  0  0  0  0  0  0  0  0
  -27.4170  -27.2460   20.3010 C   0  0  0  0  0  0  0  0  0  0  0  0
  -23.5330  -30.4830   21.5860 C   0  0  0  0  0  3  0  0  0  0  0  0
  -25.0390  -28.9230   20.1950 C   0  0  0  0  0  0  0  0  0  0  0  0
  -26.0760  -30.8030   21.4610 C   0  0  0  0  0  2  0  0  0  0  0  0
  -26.1880  -29.4060   20.8280 C   0  0  0  0  0  0  0  0  0  0  0  0
  -27.3710  -28.5800   20.8690 C   0  0  0  0  0  3  0  0  0  0  0  0
  -26.2420  -26.8550   19.6260 C   0  0  0  0  0  3  0  0  0  0  0  0
  -25.0780  -27.6600   19.5790 C   0  0  0  0  0  3  0  0  0  0  0  0
  -23.7880  -29.7920   20.2160 C   0  0  0  0  0  2  0  0  0  0  0  0
  -24.7800  -31.0880   22.1520 N   0  0  0  0  0  0  0  0  0  0  0  0
  -23.5810  -32.1790   23.7500 O   0  0  0  0  0  0  0  0  0  0  0  0
  -22.8550  -29.4760   22.5460 C   0  0  0  0  0  0  0  0  0  0  0  0
  -21.5290  -29.3010   22.4150 N   0  0  0  0  0  0  0  0  0  0  0  0
  -23.5280  -28.8510   23.3720 O   0  0  0  0  0  0  0  0  0  0  0  0
  -21.0420  -29.8670   21.7330 H   0  0  0  0  0  0  0  0  0  0  0  0
  -18.1470  -28.1040   22.9170 C   0  0  0  0  0  0  0  0  0  0  0  0
  -20.7090  -28.3530   23.1710 C   0  0  0  0  0  3  0  0  0  0  0  0
  -20.8000  -26.9320   22.5660 C   0  0  0  0  0  2  0  0  0  0  0  0
  -19.6900  -26.6390   21.5510 C   0  0  0  0  0  2  0  0  0  0  0  0
  -18.3140  -26.7690   22.2110 C   0  0  0  0  0  2  0  0  0  0  0  0
  -19.2710  -28.8560   23.3520 C   0  0  0  0  0  0  0  0  0  0  0  0
  -19.0620  -30.1080   23.9690 C   0  0  0  0  0  3  0  0  0  0  0  0
  -17.7600  -30.6120   24.1510 C   0  0  0  0  0  3  0  0  0  0  0  0
  -16.6510  -29.8580   23.7320 C   0  0  0  0  0  3  0  0  0  0  0  0
  -16.8440  -28.6060   23.1210 C   0  0  0  0  0  3  0  0  0  0  0  0
  -25.9360  -32.5750   23.8860 C   0  0  0  0  0  3  0  0  0  0  0  0
  -26.4240  -31.8310   25.1920 C   0  0  1  0  0  0  0  0  0  0  0  0
  -25.3080  -31.6020   26.2380 C   0  0  0  0  0  1  0  0  0  0  0  0
  -27.0300  -30.4540   24.8420 C   0  0  0  0  0  1  0  0  0  0  0  0
  -27.5460  -32.6490   25.8750 C   0  0  0  0  0  1  0  0  0  0  0  0
  -25.5980  -33.9730   24.1950 N   0  0  0  0  0  0  0  0  0  0  0  0
  -25.9290  -35.0280   23.4400 C   0  0  0  0  0  0  0  0  0  0  0  0
  -26.6200  -34.9280   22.4220 O   0  0  0  0  0  0  0  0  0  0  0  0
  -24.9930  -34.1200   24.9900 H   0  0  0  0  0  0  0  0  0  0  0  0
  -24.1780  -36.7930   23.0490 C   0  0  0  0  0  1  0  0  0  0  0  0
  -25.4140  -36.4130   23.8810 C   0  0  0  0  0  3  0  0  0  0  0  0
  -27.5240  -37.3420   24.7270 C   0  0  0  0  0  1  0  0  0  0  0  0
  -26.4300  -37.4830   23.7710 N   0  0  0  0  0  0  0  0  0  0  0  0
  -26.0080  -38.3980   23.9040 H   0  0  0  0  0  0  0  0  0  0  0  0
  1  3  1  0
  1 55  1  0
  1  2  1  6
  4  5  1  0
  4  6  1  0
  5  7  1  0
  6  8  1  0
  7  8  1  0
  8  3  1  1
  8 17  1  0
  9 17  1  0
  9 15  1  0
 10 15  1  0
 11 12  1  0
 11 10  1  0
 13 12  1  0
 13 22  1  0
 13 14  1  0
 15 14  1  0
 16  9  2  0
 17 18  1  0
 19 20  2  0
 20 21  1  0
 20 39  1  0
 21 24  1  0
 22 19  1  0
 22 23  1  0
 23 21  2  0
 24 25  1  0
 25 26  2  0
 27 30  1  0
 27 26  1  0
 28 27  2  0
 29 28  1  0
 29 24  2  0
 30 31  1  0
 31 32  1  0
 32 33  2  0
 34 33  1  0
 34 38  1  0
 35 34  2  0
 36 31  2  0
 36 35  1  0
 37 36  1  0
 39 40  1  0
 40 43  1  0
 40 42  1  0
 41 39  2  0
 44 19  1  0
 45 44  1  0
 46 44  1  0
 47 48  1  0
 47  1  1  0
 49 50  1  0
 49 48  1  0
 51 52  1  0
 51 50  1  0
 53 51  1  0
 54 51  1  0
 55 56  1  0
 57 58  1  0
 57 56  1  0
 59 70  2  0
 60 58  1  0
 60 65  1  0
 61 69  1  0
 61 71  1  0
 62 68  1  0
 62 64  1  0
 63 69  1  0
 64 65  2  0
 64 63  1  0
 66 60  2  0
 67 66  1  0
 67 62  2  0
 68 61  1  0
 69 59  1  0
 71 73  2  0
 72 71  1  0
 74 72  1  0
 75 84  2  0
 75 80  1  0
 76 72  1  0
 76 80  1  0
 77 76  1  0
 78 79  1  0
 78 77  1  0
 79 75  1  0
 80 81  2  0
 81 82  1  0
 83 82  2  0
 84 83  1  0
 85 59  1  0
 85 90  1  0
 85 86  1  0
 86 89  1  1
 86 87  1  0
 88 86  1  0
 90 93  1  0
 91 95  1  0
 91 90  1  0
 92 91  2  0
 95 94  1  0
 97 95  1  0
 97 98  1  0
 97 96  1  0
M  ISO  4   9 100  17 100  57 101  58 101
M  END
>  <TORSDO>  (65) 
F 26

>  <SCORE>  (65) 
-12.974

>  <name>  (65) 
64

>  <ligand_id>  (65) 
64

>  <original_smiles>  (65) 
[H]c1c([H])c([H])c2c(c1[H])C([H])([H])C([H])([H])C([H])([H])C2([H])N([H])C(=O)C1([H])N(C(=O)C([H])(N([H])C(=O)C([H])(N([H])C([H])([H])[H])C([H])([H])[H])C(C([H])([H])[H])(C([H])([H])[H])C([H])([H])[H])C([H])([H])c2c([H])c(OC([H])([H])C([H])([H])C([H])([H])[N+]([H])(C([H])([H])C([H])([H])C([H])([H])C([H])([H])[N+]([H])([H])[H])C([H])([H])C3(N([H])C(=O)N4C([H])([H])C([H])([H])C([H])([H])C([H])(n5nc(-c6c([H])c([H])c(Oc7c([H])c([H])c(F)c([H])c7F)c([H])c6[H])c(C(=O)N([H])[H])c5N([H])[H])C4([H])[H])C([H])([H])C([H])([H])C([H])([H])C3([H])[H])c([H])c([H])c2C1([H])[H]

>  <smiles>  (65) 
[H]c1c([H])c([H])c2c(c1[H])C([H])([H])C([H])([H])C([H])([H])C2([H])N([H])C(=O)C1([H])N(C(=O)C([H])(N([H])C(=O)C([H])(N([H])C([H])([H])[H])C([H])([H])[H])C(C([H])([H])[H])(C([H])([H])[H])C([H])([H])[H])C([H])([H])c2c([H])c(OC([H])([H])C([H])([H])C([H])([H])[N+]([H])(C([H])([H])C([H])([H])C([H])([H])C([H])([H])[N+]([H])([H])[H])C([H])([H])C3(N([H])C(=O)N4C([H])([H])C([H])([H])C([H])([H])C([H])(n5nc(-c6c([H])c([H])c(Oc7c([H])c([H])c(F)c([H])c7F)c([H])c6[H])c(C(=O)N([H])[H])c5N([H])[H])C4([H])[H])C([H])([H])C([H])([H])C([H])([H])C3([H])[H])c([H])c([H])c2C1([H])[H]

$$$$
65:0:0
     RDKit          3D

101109  0  0  1  0  0  0  0  0999 V2000
  -30.0560  -21.1560   22.5740 C   0  0  0  0  0  3  0  0  0  0  0  0
  -31.5010  -21.7140   22.7760 C   0  0  0  0  0  2  0  0  0  0  0  0
  -31.9250  -21.8430   24.1920 N   0  0  0  0  0  4  0  0  0  0  0  0
  -31.4000  -22.5240   24.7080 H   0  0  0  0  0  0  0  0  0  0  0  0
  -32.8870  -22.1370   24.2300 H   0  0  0  0  0  0  0  0  0  0  0  0
  -31.8750  -20.9650   24.6790 H   0  0  0  0  0  0  0  0  0  0  0  0
  -29.8030  -20.6110   21.1310 C   0  0  0  0  0  2  0  0  0  0  0  0
  -30.7250  -19.5210   20.7090 N   0  0  0  0  0  4  0  0  0  0  0  0
  -30.7500  -19.5490   19.7000 H   0  0  0  0  0  0  0  0  0  0  0  0
  -31.6660  -19.6880   21.0200 H   0  0  0  0  0  0  0  0  0  0  0  0
  -31.8220  -17.6070   22.9150 C   0  0  0  0  0  2  0  0  0  0  0  0
  -32.4730  -17.0960   21.6210 C   0  0  0  0  0  2  0  0  0  0  0  0
  -30.3520  -17.8680   22.5680 C   0  0  0  0  0  2  0  0  0  0  0  0
  -31.3860  -17.1370   20.5290 C   0  0  0  0  0  3  0  0  0  0  0  0
  -30.3270  -18.1310   21.0520 C   0  0  0  0  0  3  0  0  0  0  0  0
  -31.2190  -14.8820   19.4820 C   0  0  0  0  0  0  0  0  0  0  0  0
  -30.7620  -12.6710   18.5000 C   0  0  0  0  0  2  0  0  0  0  0  0
  -29.6850  -12.7720   17.4040 C   0  0  0  0  0  2  0  0  0  0  0  0
  -28.2740  -12.6690   18.0130 C   0  0  0  0  0  2  0  0  0  0  0  0
  -28.0760  -13.6290   19.2170 C   0  0  0  0  0  3  0  0  0  0  0  0
  -29.2470  -13.4930   20.2150 C   0  0  0  0  0  2  0  0  0  0  0  0
  -30.5080  -13.7260   19.4900 N   0  0  0  0  0  0  0  0  0  0  0  0
  -32.1650  -15.0930   18.7180 O   0  0  0  0  0  0  0  0  0  0  0  0
  -30.8180  -15.7970   20.3710 N   0  0  0  0  0  0  0  0  0  0  0  0
  -30.0530  -15.5340   20.9750 H   0  0  0  0  0  0  0  0  0  0  0  0
  -25.8640  -14.3410   20.3280 C   0  0  0  0  0  0  0  0  0  0  0  0
  -24.7950  -13.6170   20.7810 C   0  0  0  0  0  0  0  0  0  0  0  0
  -25.1240  -12.2450   20.5540 C   0  0  0  0  0  0  0  0  0  0  0  0
  -26.7840  -13.4120   19.8640 N   0  0  0  0  0  0  0  0  0  0  0  0
  -26.3480  -12.1410   20.0540 N   0  0  0  0  0  0  0  0  0  0  0  0
  -24.3230  -11.0270   20.7310 C   0  0  0  0  0  0  0  0  0  0  0  0
  -24.7460   -9.9820   21.5800 C   0  0  0  0  0  3  0  0  0  0  0  0
  -23.9510   -8.8280   21.7480 C   0  0  0  0  0  3  0  0  0  0  0  0
  -22.7170   -8.7110   21.0660 C   0  0  0  0  0  0  0  0  0  0  0  0
  -22.3100   -9.7450   20.2040 C   0  0  0  0  0  3  0  0  0  0  0  0
  -23.1050  -10.8900   20.0330 C   0  0  0  0  0  3  0  0  0  0  0  0
  -21.8900   -7.6170   21.1500 O   0  0  0  0  0  0  0  0  0  0  0  0
  -21.7830   -6.8820   22.3030 C   0  0  0  0  0  0  0  0  0  0  0  0
  -21.3890   -7.4680   23.5260 C   0  0  0  0  0  3  0  0  0  0  0  0
  -21.2250   -6.6630   24.6710 C   0  0  0  0  0  3  0  0  0  0  0  0
  -21.4420   -5.2750   24.5930 C   0  0  0  0  0  0  0  0  0  0  0  0
  -21.8270   -4.6890   23.3750 C   0  0  0  0  0  3  0  0  0  0  0  0
  -21.9940   -5.4910   22.2320 C   0  0  0  0  0  0  0  0  0  0  0  0
  -22.3460   -4.9180   21.0550 F   0  0  0  0  0  0  0  0  0  0  0  0
  -21.2760   -4.5000   25.6910 F   0  0  0  0  0  0  0  0  0  0  0  0
  -23.4980  -14.1660   21.3050 C   0  0  0  0  0  0  0  0  0  0  0  0
  -22.8640  -13.4580   22.2330 N   0  0  0  0  0  0  0  0  0  0  0  0
  -23.0650  -15.2520   20.9260 O   0  0  0  0  0  0  0  0  0  0  0  0
  -23.2280  -12.5770   22.5610 H   0  0  0  0  0  0  0  0  0  0  0  0
  -21.9980  -13.8060   22.6220 H   0  0  0  0  0  0  0  0  0  0  0  0
  -26.1260  -15.7070   20.2530 N   0  0  0  0  0  0  0  0  0  0  0  0
  -25.4460  -16.4070   20.5280 H   0  0  0  0  0  0  0  0  0  0  0  0
  -26.9510  -16.1040   19.8200 H   0  0  0  0  0  0  0  0  0  0  0  0
  -28.9040  -22.1120   23.0380 C   0  0  0  0  0  2  0  0  0  0  0  0
  -28.3950  -23.0880   22.0310 N   0  0  0  0  0  4  0  0  0  0  0  0
  -28.4250  -22.7090   21.0990 H   0  0  0  0  0  0  0  0  0  0  0  0
  -27.4160  -23.2240   22.2390 H   0  0  0  0  0  0  0  0  0  0  0  0
  -28.9950  -24.4460   22.0660 C   0  0  0  0  0  2  0  0  0  0  0  0
  -28.6920  -25.2600   20.7920 C   0  0  0  0  0  2  0  0  0  0  0  0
  -29.3960  -26.6320   20.7780 C   0  0  0  0  0  2  0  0  0  0  0  0
  -29.0820  -27.3560   19.5880 O   0  0  0  0  0  0  0  0  0  0  0  0
  -24.7450  -31.7200   23.1270 C   0  0  0  0  0  0  0  0  0  0  0  0
  -27.8590  -27.9700   19.6380 C   0  0  0  0  0  0  0  0  0  0  0  0
  -23.6980  -30.3830   21.3260 C   0  0  0  0  0  3  0  0  0  0  0  0
  -25.3140  -29.1720   19.7650 C   0  0  0  0  0  0  0  0  0  0  0  0
  -26.1640  -31.0370   21.1990 C   0  0  0  0  0  2  0  0  0  0  0  0
  -26.3990  -29.7590   20.4280 C   0  0  0  0  0  0  0  0  0  0  0  0
  -27.6750  -29.1620   20.3710 C   0  0  0  0  0  3  0  0  0  0  0  0
  -26.7680  -27.3980   18.9570 C   0  0  0  0  0  3  0  0  0  0  0  0
  -25.4910  -27.9870   19.0300 C   0  0  0  0  0  3  0  0  0  0  0  0
  -23.9820  -29.8750   19.8850 C   0  0  0  0  0  2  0  0  0  0  0  0
  -24.8850  -31.0570   21.9430 N   0  0  0  0  0  0  0  0  0  0  0  0
  -23.6430  -31.8140   23.6840 O   0  0  0  0  0  0  0  0  0  0  0  0
  -23.1650  -29.1990   22.1650 C   0  0  0  0  0  0  0  0  0  0  0  0
  -21.8670  -28.8950   22.0120 N   0  0  0  0  0  0  0  0  0  0  0  0
  -23.9170  -28.5620   22.9100 O   0  0  0  0  0  0  0  0  0  0  0  0
  -21.3170  -29.4710   21.3890 H   0  0  0  0  0  0  0  0  0  0  0  0
  -18.6400  -27.3160   22.3510 C   0  0  0  0  0  0  0  0  0  0  0  0
  -21.1580  -27.8000   22.6720 C   0  0  0  0  0  3  0  0  0  0  0  0
  -21.4050  -26.4590   21.9440 C   0  0  0  0  0  2  0  0  0  0  0  0
  -20.3380  -26.1400   20.8930 C   0  0  0  0  0  2  0  0  0  0  0  0
  -18.9510  -26.0720   21.5370 C   0  0  0  0  0  2  0  0  0  0  0  0
  -19.6760  -28.1360   22.8720 C   0  0  0  0  0  0  0  0  0  0  0  0
  -19.3330  -29.2990   23.5940 C   0  0  0  0  0  3  0  0  0  0  0  0
  -17.9860  -29.6450   23.8040 C   0  0  0  0  0  3  0  0  0  0  0  0
  -16.9630  -28.8210   23.3030 C   0  0  0  0  0  3  0  0  0  0  0  0
  -17.2920  -27.6590   22.5800 C   0  0  0  0  0  3  0  0  0  0  0  0
  -25.9580  -32.4130   23.8230 C   0  0  0  0  0  3  0  0  0  0  0  0
  -26.4690  -31.6380   25.1000 C   0  0  1  0  0  0  0  0  0  0  0  0
  -25.3480  -31.2980   26.1100 C   0  0  0  0  0  1  0  0  0  0  0  0
  -27.1570  -30.3120   24.6950 C   0  0  0  0  0  1  0  0  0  0  0  0
  -27.5360  -32.4830   25.8340 C   0  0  0  0  0  1  0  0  0  0  0  0
  -25.5420  -33.7790   24.1710 N   0  0  0  0  0  0  0  0  0  0  0  0
  -25.8430  -34.8700   23.4560 C   0  0  0  0  0  0  0  0  0  0  0  0
  -26.5730  -34.8390   22.4590 O   0  0  0  0  0  0  0  0  0  0  0  0
  -24.8860  -33.8710   24.9330 H   0  0  0  0  0  0  0  0  0  0  0  0
  -24.0080  -36.5510   23.0700 C   0  0  0  0  0  1  0  0  0  0  0  0
  -25.2420  -36.2120   23.9210 C   0  0  0  0  0  3  0  0  0  0  0  0
  -27.2740  -37.2260   24.8530 C   0  0  0  0  0  1  0  0  0  0  0  0
  -26.2010  -37.3360   23.8670 N   0  0  0  0  0  0  0  0  0  0  0  0
  -25.7270  -38.2220   24.0160 H   0  0  0  0  0  0  0  0  0  0  0  0
  1  7  1  0
  1  2  1  0
  1 54  1  0
  2  3  1  0
  3  5  1  0
  3  6  1  0
  3  4  1  0
  8 10  1  0
  8  7  1  0
  9  8  1  0
 12 11  1  0
 13 11  1  0
 14 24  1  0
 14 15  1  0
 14 12  1  0
 15  8  1  0
 15 13  1  0
 16 22  1  0
 16 24  1  0
 17 22  1  0
 18 19  1  0
 18 17  1  0
 20 19  1  0
 20 29  1  0
 20 21  1  0
 22 21  1  0
 23 16  2  0
 24 25  1  0
 26 27  2  0
 27 46  1  0
 28 31  1  0
 28 27  1  0
 29 30  1  0
 29 26  1  0
 30 28  2  0
 31 32  1  0
 32 33  2  0
 34 37  1  0
 34 33  1  0
 35 34  2  0
 36 35  1  0
 36 31  2  0
 37 38  1  0
 38 39  1  0
 39 40  2  0
 41 40  1  0
 41 45  1  0
 42 41  2  0
 43 38  2  0
 43 42  1  0
 44 43  1  0
 46 47  1  0
 47 49  1  0
 47 50  1  0
 48 46  2  0
 51 26  1  0
 51 52  1  0
 53 51  1  0
 55 58  1  0
 55 57  1  0
 55 54  1  0
 56 55  1  0
 59 58  1  0
 60 59  1  0
 61 63  1  0
 61 60  1  0
 62 73  2  0
 63 68  1  0
 64 72  1  0
 64 74  1  0
 65 71  1  0
 65 67  1  0
 66 72  1  0
 67 66  1  0
 68 67  2  0
 69 70  1  0
 69 63  2  0
 70 65  2  0
 71 64  1  0
 72 62  1  0
 74 76  2  0
 75 74  1  0
 77 75  1  0
 78 87  2  0
 78 83  1  0
 79 75  1  0
 79 83  1  0
 80 79  1  0
 81 82  1  0
 81 80  1  0
 82 78  1  0
 83 84  2  0
 84 85  1  0
 86 85  2  0
 87 86  1  0
 88 62  1  0
 88 93  1  0
 88 89  1  0
 89 92  1  1
 89 90  1  0
 91 89  1  0
 93 96  1  0
 94 98  1  0
 94 93  1  0
 95 94  2  0
 98 97  1  0
100 98  1  0
100101  1  0
100 99  1  0
M  ISO  4  16 100  24 100  60 101  61 101
M  END
>  <TORSDO>  (66) 
F 26

>  <SCORE>  (66) 
-6.927

>  <name>  (66) 
65

>  <ligand_id>  (66) 
65

>  <original_smiles>  (66) 
[H]c1c([H])c([H])c2c(c1[H])C([H])([H])C([H])([H])C([H])([H])C2([H])N([H])C(=O)C1([H])N(C(=O)C([H])(N([H])C(=O)C([H])(N([H])C([H])([H])[H])C([H])([H])[H])C(C([H])([H])[H])(C([H])([H])[H])C([H])([H])[H])C([H])([H])c2c([H])c(OC([H])([H])C([H])([H])C([H])([H])[N+]([H])([H])C([H])([H])C([H])(C([H])([H])[N+]([H])([H])[H])C([H])([H])[N+]([H])([H])C3([H])C([H])([H])C([H])([H])C([H])([H])C3([H])N([H])C(=O)N3C([H])([H])C([H])([H])C([H])([H])C([H])(n4nc(-c5c([H])c([H])c(Oc6c([H])c([H])c(F)c([H])c6F)c([H])c5[H])c(C(=O)N([H])[H])c4N([H])[H])C3([H])[H])c([H])c([H])c2C1([H])[H]

>  <smiles>  (66) 
[H]c1c([H])c([H])c2c(c1[H])C([H])([H])C([H])([H])C([H])([H])C2([H])N([H])C(=O)C1([H])N(C(=O)C([H])(N([H])C(=O)C([H])(N([H])C([H])([H])[H])C([H])([H])[H])C(C([H])([H])[H])(C([H])([H])[H])C([H])([H])[H])C([H])([H])c2c([H])c(OC([H])([H])C([H])([H])C([H])([H])[N+]([H])([H])C([H])([H])C([H])(C([H])([H])[N+]([H])([H])[H])C([H])([H])[N+]([H])([H])C3([H])C([H])([H])C([H])([H])C([H])([H])C3([H])N([H])C(=O)N3C([H])([H])C([H])([H])C([H])([H])C([H])(n4nc(-c5c([H])c([H])c(Oc6c([H])c([H])c(F)c([H])c6F)c([H])c5[H])c(C(=O)N([H])[H])c4N([H])[H])C3([H])[H])c([H])c([H])c2C1([H])[H]

$$$$
66:0:0
     RDKit          3D

 89 98  0  0  1  0  0  0  0  0999 V2000
  -30.5490  -15.2090   20.3390 C   0  0  0  0  0  0  0  0  0  0  0  0
  -30.4140  -12.7700   19.5060 C   0  0  0  0  0  2  0  0  0  0  0  0
  -29.5380  -12.5740   18.2500 C   0  0  0  0  0  2  0  0  0  0  0  0
  -28.0680  -12.3530   18.6450 C   0  0  0  0  0  2  0  0  0  0  0  0
  -27.6050  -13.3330   19.7570 C   0  0  0  0  0  3  0  0  0  0  0  0
  -28.6310  -13.5060   20.8980 C   0  0  0  0  0  2  0  0  0  0  0  0
  -29.8800  -13.9570   20.2680 N   0  0  0  0  0  0  0  0  0  0  0  0
  -31.7710  -15.0850   20.1700 O   0  0  0  0  0  0  0  0  0  0  0  0
  -28.7240  -22.8590   20.1820 C   0  0  0  0  0  0  0  0  0  0  0  0
  -29.5340  -23.0560   21.4560 C   0  0  0  0  0  2  0  0  0  0  0  0
  -30.4360  -21.8420   21.8110 C   0  0  0  0  0  2  0  0  0  0  0  0
  -29.6710  -20.4980   21.7780 C   0  0  0  0  0  2  0  0  0  0  0  0
  -28.2560  -18.8100   20.3660 C   0  0  0  0  0  2  0  0  0  0  0  0
  -30.3420  -19.3220   19.5380 C   0  0  0  0  0  2  0  0  0  0  0  0
  -28.7640  -17.2860   20.8470 C   0  0  0  0  0  2  0  0  0  0  0  0
  -30.8790  -17.8190   20.0020 C   0  0  0  0  0  2  0  0  0  0  0  0
  -29.2110  -20.1320   20.3500 C   0  0  2  0  0  0  0  0  0  0  0  0
  -28.6240  -21.5430   19.7280 N   0  0  0  0  0  0  0  0  0  0  0  0
  -29.9880  -16.5840   20.2550 N   0  0  0  0  0  0  0  0  0  0  0  0
  -25.2190  -13.9020   20.4540 C   0  0  0  0  0  0  0  0  0  0  0  0
  -24.1480  -13.1340   20.8160 C   0  0  0  0  0  0  0  0  0  0  0  0
  -24.6140  -11.7830   20.8190 C   0  0  0  0  0  0  0  0  0  0  0  0
  -26.2680  -13.0240   20.2490 N   0  0  0  0  0  0  0  0  0  0  0  0
  -25.9140  -11.7430   20.5380 N   0  0  0  0  0  0  0  0  0  0  0  0
  -23.8780  -10.5240   21.0110 C   0  0  0  0  0  0  0  0  0  0  0  0
  -24.2900   -9.5610   21.9580 C   0  0  0  0  0  3  0  0  0  0  0  0
  -23.5510   -8.3710   22.1410 C   0  0  0  0  0  3  0  0  0  0  0  0
  -22.3820   -8.1380   21.3790 C   0  0  0  0  0  0  0  0  0  0  0  0
  -21.9860   -9.0900   20.4210 C   0  0  0  0  0  3  0  0  0  0  0  0
  -22.7280  -10.2690   20.2360 C   0  0  0  0  0  3  0  0  0  0  0  0
  -21.6140   -7.0020   21.4710 O   0  0  0  0  0  0  0  0  0  0  0  0
  -21.5580   -6.2620   22.6250 C   0  0  0  0  0  0  0  0  0  0  0  0
  -21.1580   -6.8280   23.8550 C   0  0  0  0  0  3  0  0  0  0  0  0
  -21.0510   -6.0170   25.0030 C   0  0  0  0  0  3  0  0  0  0  0  0
  -21.3270   -4.6400   24.9200 C   0  0  0  0  0  0  0  0  0  0  0  0
  -21.7160   -4.0710   23.6940 C   0  0  0  0  0  3  0  0  0  0  0  0
  -21.8260   -4.8790   22.5490 C   0  0  0  0  0  0  0  0  0  0  0  0
  -22.1840   -4.3220   21.3660 F   0  0  0  0  0  0  0  0  0  0  0  0
  -21.2120   -3.8580   26.0190 F   0  0  0  0  0  0  0  0  0  0  0  0
  -22.7450  -13.6200   21.0360 C   0  0  0  0  0  0  0  0  0  0  0  0
  -21.9890  -12.9530   21.8990 N   0  0  0  0  0  0  0  0  0  0  0  0
  -22.3260  -14.6320   20.4730 O   0  0  0  0  0  0  0  0  0  0  0  0
  -22.3380  -12.1380   22.3810 H   0  0  0  0  0  0  0  0  0  0  0  0
  -21.0450  -13.2630   22.0830 H   0  0  0  0  0  0  0  0  0  0  0  0
  -25.3840  -15.2690   20.2450 N   0  0  0  0  0  0  0  0  0  0  0  0
  -24.6050  -15.9180   20.3130 H   0  0  0  0  0  0  0  0  0  0  0  0
  -26.2190  -15.6860   19.8570 H   0  0  0  0  0  0  0  0  0  0  0  0
  -27.9880  -24.3600   19.6240 C   0  0  0  0  0  2  0  0  0  0  0  0
  -28.2530  -25.9190   19.9990 O   0  0  0  0  0  0  0  0  0  0  0  0
  -24.6620  -31.7610   23.0450 C   0  0  0  0  0  0  0  0  0  0  0  0
  -27.2430  -26.9980   19.9290 C   0  0  0  0  0  0  0  0  0  0  0  0
  -23.4670  -30.3740   21.4010 C   0  0  0  0  0  3  0  0  0  0  0  0
  -24.9200  -28.8200   19.9360 C   0  0  0  0  0  0  0  0  0  0  0  0
  -26.0270  -30.6280   21.2340 C   0  0  0  0  0  2  0  0  0  0  0  0
  -26.1060  -29.2350   20.5530 C   0  0  0  0  0  0  0  0  0  0  0  0
  -27.2630  -28.3430   20.5320 C   0  0  0  0  0  3  0  0  0  0  0  0
  -26.0320  -26.7340   19.2500 C   0  0  0  0  0  3  0  0  0  0  0  0
  -24.9030  -27.5880   19.2630 C   0  0  0  0  0  3  0  0  0  0  0  0
  -23.6880  -29.7180   20.0090 C   0  0  0  0  0  2  0  0  0  0  0  0
  -24.7380  -30.9470   21.9460 N   0  0  0  0  0  0  0  0  0  0  0  0
  -23.5740  -32.0260   23.5840 O   0  0  0  0  0  0  0  0  0  0  0  0
  -22.8010  -29.3500   22.3580 C   0  0  0  0  0  0  0  0  0  0  0  0
  -21.4680  -29.1860   22.2630 N   0  0  0  0  0  0  0  0  0  0  0  0
  -23.4870  -28.7080   23.1580 O   0  0  0  0  0  0  0  0  0  0  0  0
  -20.9670  -29.7570   21.5970 H   0  0  0  0  0  0  0  0  0  0  0  0
  -18.0960  -27.9830   22.8440 C   0  0  0  0  0  0  0  0  0  0  0  0
  -20.6630  -28.2330   23.0340 C   0  0  0  0  0  3  0  0  0  0  0  0
  -20.7430  -26.8160   22.4210 C   0  0  0  0  0  2  0  0  0  0  0  0
  -19.6080  -26.5220   21.4340 C   0  0  0  0  0  2  0  0  0  0  0  0
  -18.2480  -26.6510   22.1240 C   0  0  0  0  0  2  0  0  0  0  0  0
  -19.2300  -28.7320   23.2560 C   0  0  0  0  0  0  0  0  0  0  0  0
  -19.0310  -29.9750   23.8950 C   0  0  0  0  0  3  0  0  0  0  0  0
  -17.7340  -30.4700   24.1240 C   0  0  0  0  0  3  0  0  0  0  0  0
  -16.6160  -29.7180   23.7260 C   0  0  0  0  0  3  0  0  0  0  0  0
  -16.7980  -28.4770   23.0900 C   0  0  0  0  0  3  0  0  0  0  0  0
  -25.9330  -32.4120   23.6690 C   0  0  0  0  0  3  0  0  0  0  0  0
  -25.5860  -33.7900   24.0580 N   0  0  0  0  0  0  0  0  0  0  0  0
  -25.8690  -34.8870   23.3430 C   0  0  0  0  0  0  0  0  0  0  0  0
  -26.5130  -34.8470   22.2910 O   0  0  0  0  0  0  0  0  0  0  0  0
  -25.0100  -33.8900   24.8810 H   0  0  0  0  0  0  0  0  0  0  0  0
  -24.0800  -36.6480   23.1270 C   0  0  0  0  0  1  0  0  0  0  0  0
  -25.3600  -36.2430   23.8750 C   0  0  0  0  0  3  0  0  0  0  0  0
  -27.5010  -37.1580   24.6620 C   0  0  0  0  0  1  0  0  0  0  0  0
  -26.3570  -37.3320   23.7710 N   0  0  0  0  0  0  0  0  0  0  0  0
  -25.9300  -38.2310   23.9770 H   0  0  0  0  0  0  0  0  0  0  0  0
  -26.4840  -31.6200   24.9190 C   0  0  1  0  0  0  0  0  0  0  0  0
  -25.4140  -31.3350   26.0000 C   0  0  0  0  0  1  0  0  0  0  0  0
  -27.0880  -30.2610   24.4940 C   0  0  0  0  0  1  0  0  0  0  0  0
  -27.6290  -32.4180   25.5830 C   0  0  0  0  0  1  0  0  0  0  0  0
  2  7  1  0
  3  4  1  0
  3  2  1  0
  5  4  1  0
  5 23  1  0
  5  6  1  0
  7  1  1  0
  7  6  1  0
  8  1  2  0
  9 10  1  0
 10 11  1  0
 12 11  1  0
 13 15  1  0
 14 16  1  0
 16 19  1  0
 17 14  1  6
 17 13  1  0
 17 12  1  0
 18  9  2  0
 18 17  1  0
 19  1  1  0
 19 15  1  0
 20 21  2  0
 21 22  1  0
 21 40  1  0
 22 25  1  0
 23 20  1  0
 23 24  1  0
 24 22  2  0
 25 26  1  0
 26 27  2  0
 28 31  1  0
 28 27  1  0
 29 28  2  0
 30 29  1  0
 30 25  2  0
 31 32  1  0
 32 33  1  0
 33 34  2  0
 35 34  1  0
 35 39  1  0
 36 35  2  0
 37 32  2  0
 37 36  1  0
 38 37  1  0
 40 41  1  0
 41 44  1  0
 41 43  1  0
 42 40  2  0
 45 46  1  0
 45 20  1  0
 47 45  1  0
 48 49  1  0
 48  9  1  0
 50 61  2  0
 51 49  1  0
 51 56  1  0
 52 60  1  0
 52 62  1  0
 53 59  1  0
 53 55  1  0
 54 60  1  0
 55 54  1  0
 56 55  2  0
 57 58  1  0
 57 51  2  0
 58 53  2  0
 59 52  1  0
 60 50  1  0
 62 64  2  0
 63 62  1  0
 65 63  1  0
 66 75  2  0
 66 71  1  0
 67 63  1  0
 67 71  1  0
 68 67  1  0
 69 70  1  0
 69 68  1  0
 70 66  1  0
 71 72  2  0
 72 73  1  0
 74 73  2  0
 75 74  1  0
 76 50  1  0
 76 77  1  0
 76 86  1  0
 77 80  1  0
 78 82  1  0
 78 77  1  0
 79 78  2  0
 82 81  1  0
 84 82  1  0
 84 85  1  0
 84 83  1  0
 86 89  1  1
 86 87  1  0
 88 86  1  0
M  ISO  4   1 100  19 100  48 101  49 101
M  END
>  <TORSDO>  (67) 
F 16

>  <SCORE>  (67) 
-15.943

>  <name>  (67) 
66

>  <ligand_id>  (67) 
66

>  <original_smiles>  (67) 
[H]c1c([H])c([H])c2c(c1[H])C([H])([H])C([H])([H])C([H])([H])C2([H])N([H])C(=O)C1([H])N(C(=O)C([H])(N([H])C(=O)C([H])(N([H])C([H])([H])[H])C([H])([H])[H])C(C([H])([H])[H])(C([H])([H])[H])C([H])([H])[H])C([H])([H])c2c([H])c(OC([H])([H])C3=NC4(C([H])([H])C([H])([H])N(C(=O)N5C([H])([H])C([H])([H])C([H])([H])C([H])(n6nc(-c7c([H])c([H])c(Oc8c([H])c([H])c(F)c([H])c8F)c([H])c7[H])c(C(=O)N([H])[H])c6N([H])[H])C5([H])[H])C([H])([H])C4([H])[H])C([H])([H])C([H])([H])C3([H])[H])c([H])c([H])c2C1([H])[H]

>  <smiles>  (67) 
[H]c1c([H])c([H])c2c(c1[H])C([H])([H])C([H])([H])C([H])([H])C2([H])N([H])C(=O)C1([H])N(C(=O)C([H])(N([H])C(=O)C([H])(N([H])C([H])([H])[H])C([H])([H])[H])C(C([H])([H])[H])(C([H])([H])[H])C([H])([H])[H])C([H])([H])c2c([H])c(OC([H])([H])C3=NC4(C([H])([H])C([H])([H])N(C(=O)N5C([H])([H])C([H])([H])C([H])([H])C([H])(n6nc(-c7c([H])c([H])c(Oc8c([H])c([H])c(F)c([H])c8F)c([H])c7[H])c(C(=O)N([H])[H])c6N([H])[H])C5([H])[H])C([H])([H])C4([H])[H])C([H])([H])C([H])([H])C3([H])[H])c([H])c([H])c2C1([H])[H]

$$$$
67:0:0
     RDKit          3D

 93101  0  0  1  0  0  0  0  0999 V2000
  -29.9800  -20.7770   19.7090 C   0  0  0  0  0  2  0  0  0  0  0  0
  -31.0860  -15.2710   19.4150 C   0  0  0  0  0  0  0  0  0  0  0  0
  -30.8330  -12.9370   18.4300 C   0  0  0  0  0  2  0  0  0  0  0  0
  -29.6950  -12.8670   17.3840 C   0  0  0  0  0  2  0  0  0  0  0  0
  -28.3430  -12.5870   18.0650 C   0  0  0  0  0  2  0  0  0  0  0  0
  -28.1280  -13.4650   19.3220 C   0  0  0  0  0  3  0  0  0  0  0  0
  -29.3700  -13.4880   20.2340 C   0  0  0  0  0  2  0  0  0  0  0  0
  -30.4890  -14.0010   19.4280 N   0  0  0  0  0  0  0  0  0  0  0  0
  -32.1790  -15.3350   18.8370 O   0  0  0  0  0  0  0  0  0  0  0  0
  -29.3340  -18.4060   21.0200 C   0  0  0  0  0  2  0  0  0  0  0  0
  -30.6640  -17.9280   19.1710 C   0  0  0  0  0  2  0  0  0  0  0  0
  -29.6330  -19.1040   19.6800 C   0  0  0  0  0  3  0  0  0  0  0  0
  -29.5840  -16.8340   20.9320 C   0  0  0  0  0  3  0  0  0  0  0  0
  -30.4050  -16.5050   19.7340 N   0  0  0  0  0  0  0  0  0  0  0  0
  -26.0130  -13.9390   20.6790 C   0  0  0  0  0  0  0  0  0  0  0  0
  -25.0130  -13.1280   21.1410 C   0  0  0  0  0  0  0  0  0  0  0  0
  -25.3770  -11.7980   20.7640 C   0  0  0  0  0  0  0  0  0  0  0  0
  -26.9190  -13.1020   20.0500 N   0  0  0  0  0  0  0  0  0  0  0  0
  -26.5610  -11.7970   20.1630 N   0  0  0  0  0  0  0  0  0  0  0  0
  -24.6340  -10.5370   20.8870 C   0  0  0  0  0  0  0  0  0  0  0  0
  -25.0240   -9.5350   21.8030 C   0  0  0  0  0  3  0  0  0  0  0  0
  -24.2800   -8.3410   21.9170 C   0  0  0  0  0  3  0  0  0  0  0  0
  -23.1320   -8.1400   21.1130 C   0  0  0  0  0  0  0  0  0  0  0  0
  -22.7620   -9.1310   20.1870 C   0  0  0  0  0  3  0  0  0  0  0  0
  -23.5060  -10.3160   20.0710 C   0  0  0  0  0  3  0  0  0  0  0  0
  -22.3650   -7.0000   21.1370 O   0  0  0  0  0  0  0  0  0  0  0  0
  -21.9870   -6.4110   22.3170 C   0  0  0  0  0  0  0  0  0  0  0  0
  -21.2910   -7.1240   23.3170 C   0  0  0  0  0  3  0  0  0  0  0  0
  -20.8610   -6.4610   24.4840 C   0  0  0  0  0  3  0  0  0  0  0  0
  -21.1180   -5.0860   24.6490 C   0  0  0  0  0  0  0  0  0  0  0  0
  -21.8070   -4.3730   23.6520 C   0  0  0  0  0  3  0  0  0  0  0  0
  -22.2370   -5.0330   22.4880 C   0  0  0  0  0  0  0  0  0  0  0  0
  -22.8820   -4.3380   21.5210 F   0  0  0  0  0  0  0  0  0  0  0  0
  -20.6980   -4.4490   25.7670 F   0  0  0  0  0  0  0  0  0  0  0  0
  -23.7420  -13.5740   21.8010 C   0  0  0  0  0  0  0  0  0  0  0  0
  -23.1990  -12.7620   22.7010 N   0  0  0  0  0  0  0  0  0  0  0  0
  -23.2470  -14.6740   21.5560 O   0  0  0  0  0  0  0  0  0  0  0  0
  -23.6140  -11.8690   22.9170 H   0  0  0  0  0  0  0  0  0  0  0  0
  -22.3550  -13.0400   23.1820 H   0  0  0  0  0  0  0  0  0  0  0  0
  -26.2130  -15.3150   20.7150 N   0  0  0  0  0  0  0  0  0  0  0  0
  -25.4900  -15.9360   21.0650 H   0  0  0  0  0  0  0  0  0  0  0  0
  -26.9170  -15.7980   20.1730 H   0  0  0  0  0  0  0  0  0  0  0  0
  -30.2420  -16.3420   22.2550 C   0  0  0  0  0  2  0  0  0  0  0  0
  -29.5800  -16.8960   23.4500 N   0  0  0  0  0  4  0  0  0  0  0  0
  -29.6360  -17.8980   23.4690 H   0  0  0  0  0  0  0  0  0  0  0  0
  -30.0280  -16.5470   24.2800 H   0  0  0  0  0  0  0  0  0  0  0  0
  -28.6120  -16.6290   23.4840 H   0  0  0  0  0  0  0  0  0  0  0  0
  -28.9180  -21.9660   19.6910 N   0  0  0  0  0  4  0  0  0  0  0  0
  -28.3170  -21.8240   20.4880 H   0  0  0  0  0  0  0  0  0  0  0  0
  -28.3400  -21.8070   18.8810 H   0  0  0  0  0  0  0  0  0  0  0  0
  -29.3080  -23.5190   19.6800 C   0  0  0  0  0  3  0  0  0  0  0  0
  -28.1970  -24.7920   19.5000 C   0  0  0  0  0  3  0  0  0  0  0  0
  -28.4150  -26.3340   19.7080 O   0  0  0  0  0  0  0  0  0  0  0  0
  -24.5460  -31.6410   23.0930 C   0  0  0  0  0  0  0  0  0  0  0  0
  -27.3230  -27.2840   19.7120 C   0  0  0  0  0  0  0  0  0  0  0  0
  -23.4120  -30.3380   21.3360 C   0  0  0  0  0  3  0  0  0  0  0  0
  -24.9290  -28.9420   19.8000 C   0  0  0  0  0  0  0  0  0  0  0  0
  -25.9560  -30.7120   21.2160 C   0  0  0  0  0  2  0  0  0  0  0  0
  -26.0880  -29.3810   20.4530 C   0  0  0  0  0  0  0  0  0  0  0  0
  -27.2850  -28.5710   20.3920 C   0  0  0  0  0  3  0  0  0  0  0  0
  -26.1330  -26.9520   19.0280 C   0  0  0  0  0  3  0  0  0  0  0  0
  -24.9650  -27.7440   19.0730 C   0  0  0  0  0  3  0  0  0  0  0  0
  -23.6670  -29.7860   19.9080 C   0  0  0  0  0  2  0  0  0  0  0  0
  -24.6570  -30.9160   21.9380 N   0  0  0  0  0  0  0  0  0  0  0  0
  -23.4460  -31.8400   23.6320 O   0  0  0  0  0  0  0  0  0  0  0  0
  -22.7680  -29.2300   22.2080 C   0  0  0  0  0  0  0  0  0  0  0  0
  -21.4560  -28.9940   22.0290 N   0  0  0  0  0  0  0  0  0  0  0  0
  -23.4520  -28.5870   23.0070 O   0  0  0  0  0  0  0  0  0  0  0  0
  -20.9570  -29.5670   21.3630 H   0  0  0  0  0  0  0  0  0  0  0  0
  -18.1290  -27.6040   22.3820 C   0  0  0  0  0  0  0  0  0  0  0  0
  -20.6690  -27.9620   22.7100 C   0  0  0  0  0  3  0  0  0  0  0  0
  -20.8450  -26.5870   22.0250 C   0  0  0  0  0  2  0  0  0  0  0  0
  -19.7720  -26.2960   20.9720 C   0  0  0  0  0  2  0  0  0  0  0  0
  -18.3770  -26.3240   21.6030 C   0  0  0  0  0  2  0  0  0  0  0  0
  -19.2040  -28.3820   22.8880 C   0  0  0  0  0  0  0  0  0  0  0  0
  -18.9180  -29.5790   23.5790 C   0  0  0  0  0  3  0  0  0  0  0  0
  -17.5890  -30.0020   23.7670 C   0  0  0  0  0  3  0  0  0  0  0  0
  -16.5270  -29.2220   23.2760 C   0  0  0  0  0  3  0  0  0  0  0  0
  -16.7980  -28.0240   22.5900 C   0  0  0  0  0  3  0  0  0  0  0  0
  -25.7930  -32.2730   23.7810 C   0  0  0  0  0  3  0  0  0  0  0  0
  -25.4280  -33.6330   24.2100 N   0  0  0  0  0  0  0  0  0  0  0  0
  -25.6740  -34.7480   23.5080 C   0  0  0  0  0  0  0  0  0  0  0  0
  -26.2970  -34.7420   22.4430 O   0  0  0  0  0  0  0  0  0  0  0  0
  -24.8640  -33.7070   25.0440 H   0  0  0  0  0  0  0  0  0  0  0  0
  -23.8270  -36.4530   23.3760 C   0  0  0  0  0  1  0  0  0  0  0  0
  -25.1450  -36.0800   24.0750 C   0  0  0  0  0  3  0  0  0  0  0  0
  -27.2740  -37.0560   24.8160 C   0  0  0  0  0  1  0  0  0  0  0  0
  -26.1060  -37.1970   23.9490 N   0  0  0  0  0  0  0  0  0  0  0  0
  -25.6580  -38.0840   24.1630 H   0  0  0  0  0  0  0  0  0  0  0  0
  -26.3160  -31.4330   25.0120 C   0  0  1  0  0  0  0  0  0  0  0  0
  -25.2100  -31.0700   26.0310 C   0  0  0  0  0  1  0  0  0  0  0  0
  -26.9700  -30.1140   24.5400 C   0  0  0  0  0  1  0  0  0  0  0  0
  -27.4130  -32.2250   25.7590 C   0  0  0  0  0  1  0  0  0  0  0  0
  2  8  1  0
  2 14  1  0
  3  8  1  0
  4  5  1  0
  4  3  1  0
  6  5  1  0
  6 18  1  0
  6  7  1  0
  8  7  1  0
  9  2  2  0
 11 12  1  0
 11 14  1  0
 12  1  1  0
 12 10  1  0
 13 10  1  0
 13 43  1  0
 14 13  1  0
 15 40  1  0
 15 16  2  0
 16 35  1  0
 17 20  1  0
 17 16  1  0
 18 19  1  0
 18 15  1  0
 19 17  2  0
 20 21  1  0
 21 22  2  0
 23 26  1  0
 23 22  1  0
 24 23  2  0
 25 24  1  0
 25 20  2  0
 26 27  1  0
 27 32  2  0
 27 28  1  0
 28 29  2  0
 29 30  1  0
 30 34  1  0
 31 30  2  0
 32 31  1  0
 33 32  1  0
 35 36  1  0
 36 38  1  0
 36 39  1  0
 37 35  2  0
 40 41  1  0
 42 40  1  0
 43 44  1  0
 44 45  1  0
 44 47  1  0
 44 46  1  0
 48  1  1  0
 48 49  1  0
 50 48  1  0
 51 48  1  0
 52 51  2  0
 52 53  1  0
 53 55  1  0
 54 65  2  0
 55 60  1  0
 56 64  1  0
 56 66  1  0
 57 63  1  0
 57 59  1  0
 58 64  1  0
 59 58  1  0
 60 59  2  0
 61 62  1  0
 61 55  2  0
 62 57  2  0
 63 56  1  0
 64 54  1  0
 66 68  2  0
 67 66  1  0
 69 67  1  0
 70 79  2  0
 70 75  1  0
 71 67  1  0
 71 75  1  0
 72 71  1  0
 73 74  1  0
 73 72  1  0
 74 70  1  0
 75 76  2  0
 76 77  1  0
 78 77  2  0
 79 78  1  0
 80 54  1  0
 80 81  1  0
 80 90  1  0
 81 84  1  0
 82 86  1  0
 82 81  1  0
 83 82  2  0
 86 85  1  0
 88 86  1  0
 88 89  1  0
 88 87  1  0
 90 93  1  1
 90 91  1  0
 92 90  1  0
M  ISO  4   2 100  14 100  52 101  53 101
M  END
>  <TORSDO>  (68) 
F 21

>  <SCORE>  (68) 
-9.212

>  <name>  (68) 
67

>  <ligand_id>  (68) 
67

>  <original_smiles>  (68) 
[H]c1c([H])c([H])c2c(c1[H])C([H])([H])C([H])([H])C([H])([H])C2([H])N([H])C(=O)C1([H])N(C(=O)C([H])(N([H])C(=O)C([H])(N([H])C([H])([H])[H])C([H])([H])[H])C(C([H])([H])[H])(C([H])([H])[H])C([H])([H])[H])C([H])([H])c2c([H])c(OC([H])([H])C([H])([H])[N+]([H])([H])C([H])([H])C3([H])C([H])([H])N(C(=O)N4C([H])([H])C([H])([H])C([H])([H])C([H])(n5nc(-c6c([H])c([H])c(Oc7c([H])c([H])c(F)c([H])c7F)c([H])c6[H])c(C(=O)N([H])[H])c5N([H])[H])C4([H])[H])C([H])(C([H])([H])[N+]([H])([H])[H])C3([H])[H])c([H])c([H])c2C1([H])[H]

>  <smiles>  (68) 
[H]c1c([H])c([H])c2c(c1[H])C([H])([H])C([H])([H])C([H])([H])C2([H])N([H])C(=O)C1([H])N(C(=O)C([H])(N([H])C(=O)C([H])(N([H])C([H])([H])[H])C([H])([H])[H])C(C([H])([H])[H])(C([H])([H])[H])C([H])([H])[H])C([H])([H])c2c([H])c(OC([H])([H])C([H])([H])[N+]([H])([H])C([H])([H])C3([H])C([H])([H])N(C(=O)N4C([H])([H])C([H])([H])C([H])([H])C([H])(n5nc(-c6c([H])c([H])c(Oc7c([H])c([H])c(F)c([H])c7F)c([H])c6[H])c(C(=O)N([H])[H])c5N([H])[H])C4([H])[H])C([H])(C([H])([H])[N+]([H])([H])[H])C3([H])[H])c([H])c([H])c2C1([H])[H]

$$$$
68:0:0
     RDKit          3D

 94102  0  0  1  0  0  0  0  0999 V2000
  -29.3890  -18.8220   19.3420 C   0  0  0  0  0  3  0  0  0  0  0  0
  -30.0210  -20.7990   20.7660 C   0  0  0  0  0  2  0  0  0  0  0  0
  -28.7080  -21.0940   18.6300 C   0  0  0  0  0  2  0  0  0  0  0  0
  -29.3800  -22.1160   21.2710 C   0  0  0  0  0  2  0  0  0  0  0  0
  -28.0920  -22.3740   19.2290 C   0  0  0  0  0  2  0  0  0  0  0  0
  -29.3050  -20.1640   19.6300 N   0  0  0  0  0  0  0  0  0  0  0  0
  -28.8080  -18.3400   18.2200 N   0  0  0  0  0  0  0  0  0  0  0  0
  -29.0110  -23.0480   20.1750 N   0  0  1  0  0  4  0  0  0  0  0  0
  -28.9160  -17.3730   17.9480 H   0  0  0  0  0  0  0  0  0  0  0  0
  -28.2800  -18.9250   17.5890 H   0  0  0  0  0  0  0  0  0  0  0  0
  -29.8690  -23.2450   19.6770 H   0  0  0  0  0  0  0  0  0  0  0  0
  -30.1540  -17.8080   20.1930 C   0  0  0  0  0  2  0  0  0  0  0  0
  -29.3830  -16.4640   20.3200 C   0  0  0  0  0  2  0  0  0  0  0  0
  -30.7590  -14.4160   20.1750 C   0  0  0  0  0  0  0  0  0  0  0  0
  -30.3670  -12.3350   18.9010 C   0  0  0  0  0  2  0  0  0  0  0  0
  -29.3590  -12.5980   17.7640 C   0  0  0  0  0  2  0  0  0  0  0  0
  -27.9100  -12.4480   18.2680 C   0  0  0  0  0  2  0  0  0  0  0  0
  -27.6510  -13.2320   19.5820 C   0  0  0  0  0  3  0  0  0  0  0  0
  -28.7590  -12.9420   20.6180 C   0  0  0  0  0  2  0  0  0  0  0  0
  -30.0580  -13.2620   19.9990 N   0  0  0  0  0  0  0  0  0  0  0  0
  -31.8190  -14.6620   19.5910 O   0  0  0  0  0  0  0  0  0  0  0  0
  -30.5390  -15.5370   22.3270 C   0  0  0  0  0  1  0  0  0  0  0  0
  -30.1480  -15.3570   20.9290 N   0  0  0  0  0  0  0  0  0  0  0  0
  -25.2880  -13.8440   20.4000 C   0  0  0  0  0  0  0  0  0  0  0  0
  -24.2360  -13.0720   20.8110 C   0  0  0  0  0  0  0  0  0  0  0  0
  -24.6930  -11.7200   20.7500 C   0  0  0  0  0  0  0  0  0  0  0  0
  -26.3200  -12.9610   20.1170 N   0  0  0  0  0  0  0  0  0  0  0  0
  -25.9670  -11.6790   20.3830 N   0  0  0  0  0  0  0  0  0  0  0  0
  -23.9760  -10.4580   20.9640 C   0  0  0  0  0  0  0  0  0  0  0  0
  -24.4320   -9.4970   21.8930 C   0  0  0  0  0  3  0  0  0  0  0  0
  -23.7150   -8.2980   22.0930 C   0  0  0  0  0  3  0  0  0  0  0  0
  -22.5280   -8.0510   21.3640 C   0  0  0  0  0  0  0  0  0  0  0  0
  -22.0900   -9.0010   20.4230 C   0  0  0  0  0  3  0  0  0  0  0  0
  -22.8070  -10.1920   20.2210 C   0  0  0  0  0  3  0  0  0  0  0  0
  -21.7790   -6.9040   21.4740 O   0  0  0  0  0  0  0  0  0  0  0  0
  -21.7320   -6.1860   22.6420 C   0  0  0  0  0  0  0  0  0  0  0  0
  -21.2970   -6.7640   23.8540 C   0  0  0  0  0  3  0  0  0  0  0  0
  -21.1970   -5.9710   25.0160 C   0  0  0  0  0  3  0  0  0  0  0  0
  -21.5200   -4.6030   24.9650 C   0  0  0  0  0  0  0  0  0  0  0  0
  -21.9490   -4.0250   23.7560 C   0  0  0  0  0  3  0  0  0  0  0  0
  -22.0510   -4.8140   22.5970 C   0  0  0  0  0  0  0  0  0  0  0  0
  -22.4430   -4.2480   21.4310 F   0  0  0  0  0  0  0  0  0  0  0  0
  -21.4170   -3.8390   26.0770 F   0  0  0  0  0  0  0  0  0  0  0  0
  -22.8540  -13.5500   21.1510 C   0  0  0  0  0  0  0  0  0  0  0  0
  -22.1690  -12.8520   22.0520 N   0  0  0  0  0  0  0  0  0  0  0  0
  -22.3910  -14.5750   20.6520 O   0  0  0  0  0  0  0  0  0  0  0  0
  -22.5580  -12.0240   22.4750 H   0  0  0  0  0  0  0  0  0  0  0  0
  -21.2430  -13.1530   22.3200 H   0  0  0  0  0  0  0  0  0  0  0  0
  -25.4480  -15.2160   20.2250 N   0  0  0  0  0  0  0  0  0  0  0  0
  -24.6880  -15.8710   20.3760 H   0  0  0  0  0  0  0  0  0  0  0  0
  -26.2850  -15.6570   19.8680 H   0  0  0  0  0  0  0  0  0  0  0  0
  -28.5010  -24.3690   20.6660 C   0  0  0  0  0  2  0  0  0  0  0  0
  -28.7060  -25.5240   19.6540 C   0  0  0  0  0  2  0  0  0  0  0  0
  -28.5250  -26.8080   20.2660 O   0  0  0  0  0  0  0  0  0  0  0  0
  -24.6230  -31.9230   23.2710 C   0  0  0  0  0  0  0  0  0  0  0  0
  -27.3060  -27.4590   20.2480 C   0  0  0  0  0  0  0  0  0  0  0  0
  -23.4290  -30.5000   21.6370 C   0  0  0  0  0  3  0  0  0  0  0  0
  -24.8940  -28.9480   20.2410 C   0  0  0  0  0  0  0  0  0  0  0  0
  -25.9530  -30.8650   21.4470 C   0  0  0  0  0  2  0  0  0  0  0  0
  -26.0450  -29.4860   20.8260 C   0  0  0  0  0  0  0  0  0  0  0  0
  -27.2480  -28.7480   20.8280 C   0  0  0  0  0  3  0  0  0  0  0  0
  -26.1270  -26.9230   19.6760 C   0  0  0  0  0  3  0  0  0  0  0  0
  -24.9290  -27.6650   19.6670 C   0  0  0  0  0  3  0  0  0  0  0  0
  -23.6480  -29.8020   20.2670 C   0  0  0  0  0  2  0  0  0  0  0  0
  -24.6860  -31.1110   22.1770 N   0  0  0  0  0  0  0  0  0  0  0  0
  -23.5390  -32.1970   23.8030 O   0  0  0  0  0  0  0  0  0  0  0  0
  -22.7760  -29.4870   22.6050 C   0  0  0  0  0  0  0  0  0  0  0  0
  -21.4550  -29.2930   22.4660 N   0  0  0  0  0  0  0  0  0  0  0  0
  -23.4560  -28.8790   23.4360 O   0  0  0  0  0  0  0  0  0  0  0  0
  -20.9670  -29.8360   21.7660 H   0  0  0  0  0  0  0  0  0  0  0  0
  -18.0880  -28.0710   22.9310 C   0  0  0  0  0  0  0  0  0  0  0  0
  -20.6380  -28.3600   23.2410 C   0  0  0  0  0  3  0  0  0  0  0  0
  -20.7650  -26.9200   22.6910 C   0  0  0  0  0  2  0  0  0  0  0  0
  -19.6830  -26.5680   21.6640 C   0  0  0  0  0  2  0  0  0  0  0  0
  -18.2900  -26.7110   22.2840 C   0  0  0  0  0  2  0  0  0  0  0  0
  -19.1910  -28.8520   23.3660 C   0  0  0  0  0  0  0  0  0  0  0  0
  -18.9500  -30.1240   23.9290 C   0  0  0  0  0  3  0  0  0  0  0  0
  -17.6380  -30.6160   24.0620 C   0  0  0  0  0  3  0  0  0  0  0  0
  -16.5490  -29.8320   23.6440 C   0  0  0  0  0  3  0  0  0  0  0  0
  -16.7740  -28.5620   23.0850 C   0  0  0  0  0  3  0  0  0  0  0  0
  -25.9040  -32.5630   23.8910 C   0  0  0  0  0  3  0  0  0  0  0  0
  -26.4250  -31.7990   25.1700 C   0  0  1  0  0  0  0  0  0  0  0  0
  -25.3340  -31.5580   26.2370 C   0  0  0  0  0  1  0  0  0  0  0  0
  -27.0180  -30.4250   24.7800 C   0  0  0  0  0  1  0  0  0  0  0  0
  -27.5710  -32.6030   25.8300 C   0  0  0  0  0  1  0  0  0  0  0  0
  -25.5880  -33.9620   24.2120 N   0  0  0  0  0  0  0  0  0  0  0  0
  -25.9160  -35.0110   23.4460 C   0  0  0  0  0  0  0  0  0  0  0  0
  -26.5890  -34.9030   22.4150 O   0  0  0  0  0  0  0  0  0  0  0  0
  -24.9890  -34.1180   25.0090 H   0  0  0  0  0  0  0  0  0  0  0  0
  -24.1780  -36.7890   23.0770 C   0  0  0  0  0  1  0  0  0  0  0  0
  -25.4210  -36.3980   23.8910 C   0  0  0  0  0  3  0  0  0  0  0  0
  -27.5510  -37.3030   24.7120 C   0  0  0  0  0  1  0  0  0  0  0  0
  -26.4470  -37.4570   23.7690 N   0  0  0  0  0  0  0  0  0  0  0  0
  -26.0360  -38.3750   23.9100 H   0  0  0  0  0  0  0  0  0  0  0  0
  1  6  1  0
  1 12  1  0
  2  4  1  0
  3  5  1  0
  3  6  1  0
  5  8  1  0
  6  2  1  0
  7  1  1  0
  8 52  1  0
  8  4  1  0
  9  7  1  0
 10  7  1  0
  8 11  1  6
 12 13  1  0
 13 23  1  0
 14 23  1  0
 15 20  1  0
 16 17  1  0
 16 15  1  0
 18 17  1  0
 18 27  1  0
 18 19  1  0
 20 14  1  0
 20 19  1  0
 21 14  2  0
 23 22  1  0
 24 25  2  0
 25 44  1  0
 26 25  1  0
 26 29  1  0
 27 28  1  0
 27 24  1  0
 28 26  2  0
 29 30  1  0
 30 31  2  0
 32 35  1  0
 32 31  1  0
 33 32  2  0
 34 33  1  0
 34 29  2  0
 35 36  1  0
 36 37  1  0
 37 38  2  0
 39 38  1  0
 39 43  1  0
 40 39  2  0
 41 36  2  0
 41 40  1  0
 42 41  1  0
 44 45  1  0
 45 48  1  0
 45 47  1  0
 46 44  2  0
 49 50  1  0
 49 24  1  0
 51 49  1  0
 53 54  1  0
 53 52  1  0
 55 66  2  0
 56 54  1  0
 56 61  1  0
 57 65  1  0
 57 67  1  0
 58 64  1  0
 58 60  1  0
 59 65  1  0
 60 61  2  0
 60 59  1  0
 62 56  2  0
 63 62  1  0
 63 58  2  0
 64 57  1  0
 65 55  1  0
 67 69  2  0
 68 67  1  0
 70 68  1  0
 71 80  2  0
 71 76  1  0
 72 68  1  0
 72 76  1  0
 73 72  1  0
 74 75  1  0
 74 73  1  0
 75 71  1  0
 76 77  2  0
 77 78  1  0
 79 78  2  0
 80 79  1  0
 81 55  1  0
 81 86  1  0
 81 82  1  0
 82 85  1  1
 82 83  1  0
 84 82  1  0
 86 89  1  0
 87 91  1  0
 87 86  1  0
 88 87  2  0
 91 90  1  0
 93 91  1  0
 93 94  1  0
 93 92  1  0
M  ISO  4  14 100  23 100  53 101  54 101
M  END
>  <TORSDO>  (69) 
F 20

>  <SCORE>  (69) 
-13.342

>  <name>  (69) 
68

>  <ligand_id>  (69) 
68

>  <original_smiles>  (69) 
[H]c1c([H])c([H])c2c(c1[H])C([H])([H])C([H])([H])C([H])([H])C2([H])N([H])C(=O)C1([H])N(C(=O)C([H])(N([H])C(=O)C([H])(N([H])C([H])([H])[H])C([H])([H])[H])C(C([H])([H])[H])(C([H])([H])[H])C([H])([H])[H])C([H])([H])c2c([H])c(OC([H])([H])C([H])([H])[N+]3([H])C([H])([H])C([H])([H])N(C(=[N+]([H])[H])C([H])([H])C([H])([H])N(C(=O)N4C([H])([H])C([H])([H])C([H])([H])C([H])(n5nc(-c6c([H])c([H])c(Oc7c([H])c([H])c(F)c([H])c7F)c([H])c6[H])c(C(=O)N([H])[H])c5N([H])[H])C4([H])[H])C([H])([H])[H])C([H])([H])C3([H])[H])c([H])c([H])c2C1([H])[H]

>  <smiles>  (69) 
[H]c1c([H])c([H])c2c(c1[H])C([H])([H])C([H])([H])C([H])([H])C2([H])N([H])C(=O)C1([H])N(C(=O)C([H])(N([H])C(=O)C([H])(N([H])C([H])([H])[H])C([H])([H])[H])C(C([H])([H])[H])(C([H])([H])[H])C([H])([H])[H])C([H])([H])c2c([H])c(OC([H])([H])C([H])([H])[N+]3([H])C([H])([H])C([H])([H])N(C(=[N+]([H])[H])C([H])([H])C([H])([H])N(C(=O)N4C([H])([H])C([H])([H])C([H])([H])C([H])(n5nc(-c6c([H])c([H])c(Oc7c([H])c([H])c(F)c([H])c7F)c([H])c6[H])c(C(=O)N([H])[H])c5N([H])[H])C4([H])[H])C([H])([H])[H])C([H])([H])C3([H])[H])c([H])c([H])c2C1([H])[H]

$$$$
70:0:0
     RDKit          3D

 94102  0  0  1  0  0  0  0  0999 V2000
  -29.3100  -22.1550   21.3570 C   0  0  0  0  0  2  0  0  0  0  0  0
  -28.7470  -24.3940   20.7180 C   0  0  0  0  0  0  0  0  0  0  0  0
  -29.0950  -23.1990   20.3560 N   0  0  0  0  0  2  0  0  0  0  0  0
  -28.5210  -24.8520   22.0000 N   0  0  0  0  0  4  0  0  0  0  0  0
  -28.2880  -25.8180   22.1970 H   0  0  0  0  0  0  0  0  0  0  0  0
  -28.6000  -24.3150   22.8560 H   0  0  0  0  0  0  0  0  0  0  0  0
  -28.5800  -25.4800   19.6470 C   0  0  0  0  0  2  0  0  0  0  0  0
  -28.4290  -26.8010   20.1920 O   0  0  0  0  0  0  0  0  0  0  0  0
  -24.5710  -31.9140   23.2590 C   0  0  0  0  0  0  0  0  0  0  0  0
  -27.2140  -27.4610   20.1850 C   0  0  0  0  0  0  0  0  0  0  0  0
  -23.3600  -30.5070   21.6240 C   0  0  0  0  0  3  0  0  0  0  0  0
  -24.8090  -28.9590   20.2100 C   0  0  0  0  0  0  0  0  0  0  0  0
  -25.8870  -30.8630   21.4230 C   0  0  0  0  0  2  0  0  0  0  0  0
  -25.9680  -29.4890   20.7900 C   0  0  0  0  0  0  0  0  0  0  0  0
  -27.1680  -28.7460   20.7760 C   0  0  0  0  0  3  0  0  0  0  0  0
  -26.0270  -26.9370   19.6210 C   0  0  0  0  0  3  0  0  0  0  0  0
  -24.8320  -27.6810   19.6310 C   0  0  0  0  0  3  0  0  0  0  0  0
  -23.5680  -29.8200   20.2480 C   0  0  0  0  0  2  0  0  0  0  0  0
  -24.6250  -31.1100   22.1600 N   0  0  0  0  0  0  0  0  0  0  0  0
  -23.4900  -32.1890   23.8000 O   0  0  0  0  0  0  0  0  0  0  0  0
  -22.7130  -29.4880   22.5890 C   0  0  0  0  0  0  0  0  0  0  0  0
  -21.3940  -29.2860   22.4470 N   0  0  0  0  0  0  0  0  0  0  0  0
  -23.3950  -28.8850   23.4210 O   0  0  0  0  0  0  0  0  0  0  0  0
  -20.9020  -29.8270   21.7500 H   0  0  0  0  0  0  0  0  0  0  0  0
  -18.0350  -28.0420   22.9050 C   0  0  0  0  0  0  0  0  0  0  0  0
  -20.5820  -28.3470   23.2200 C   0  0  0  0  0  3  0  0  0  0  0  0
  -20.7180  -26.9080   22.6690 C   0  0  0  0  0  2  0  0  0  0  0  0
  -19.6390  -26.5500   21.6410 C   0  0  0  0  0  2  0  0  0  0  0  0
  -18.2440  -26.6840   22.2590 C   0  0  0  0  0  2  0  0  0  0  0  0
  -19.1330  -28.8300   23.3430 C   0  0  0  0  0  0  0  0  0  0  0  0
  -18.8850  -30.0990   23.9070 C   0  0  0  0  0  3  0  0  0  0  0  0
  -17.5700  -30.5850   24.0390 C   0  0  0  0  0  3  0  0  0  0  0  0
  -16.4850  -29.7950   23.6190 C   0  0  0  0  0  3  0  0  0  0  0  0
  -16.7190  -28.5260   23.0590 C   0  0  0  0  0  3  0  0  0  0  0  0
  -25.8600  -32.5490   23.8720 C   0  0  0  0  0  3  0  0  0  0  0  0
  -26.3700  -31.7940   25.1610 C   0  0  1  0  0  0  0  0  0  0  0  0
  -25.2720  -31.5770   26.2290 C   0  0  0  0  0  1  0  0  0  0  0  0
  -26.9490  -30.4080   24.7920 C   0  0  0  0  0  1  0  0  0  0  0  0
  -27.5170  -32.5940   25.8200 C   0  0  0  0  0  1  0  0  0  0  0  0
  -25.5600  -33.9530   24.1790 N   0  0  0  0  0  0  0  0  0  0  0  0
  -25.9000  -34.9910   23.4040 C   0  0  0  0  0  0  0  0  0  0  0  0
  -26.5720  -34.8660   22.3760 O   0  0  0  0  0  0  0  0  0  0  0  0
  -24.9670  -34.1230   24.9790 H   0  0  0  0  0  0  0  0  0  0  0  0
  -24.1840  -36.7830   23.0090 C   0  0  0  0  0  1  0  0  0  0  0  0
  -25.4190  -36.3900   23.8340 C   0  0  0  0  0  3  0  0  0  0  0  0
  -27.5530  -37.2760   24.6680 C   0  0  0  0  0  1  0  0  0  0  0  0
  -26.4610  -37.4330   23.7100 N   0  0  0  0  0  0  0  0  0  0  0  0
  -26.0600  -38.3590   23.8360 H   0  0  0  0  0  0  0  0  0  0  0  0
  -30.4920  -21.2380   20.9440 C   0  0  0  0  0  2  0  0  0  0  0  0
  -30.4340  -17.6420   19.5410 C   0  0  0  0  0  2  0  0  0  0  0  0
  -29.9150  -17.5570   21.9740 C   0  0  0  0  0  2  0  0  0  0  0  0
  -30.8000  -19.1360   19.6850 C   0  0  0  0  0  2  0  0  0  0  0  0
  -30.3310  -19.0400   22.1050 C   0  0  0  0  0  2  0  0  0  0  0  0
  -30.6860  -16.8500   20.8410 C   0  0  0  0  0  3  0  0  0  0  0  0
  -30.1240  -19.7960   20.8370 N   0  0  1  0  0  4  0  0  0  0  0  0
  -29.1370  -19.7860   20.6310 H   0  0  0  0  0  0  0  0  0  0  0  0
  -30.9320  -14.4600   20.0870 C   0  0  0  0  0  0  0  0  0  0  0  0
  -30.5820  -12.3200   18.9160 C   0  0  0  0  0  2  0  0  0  0  0  0
  -29.5770  -12.5340   17.7640 C   0  0  0  0  0  2  0  0  0  0  0  0
  -28.1250  -12.3960   18.2660 C   0  0  0  0  0  2  0  0  0  0  0  0
  -27.8520  -13.2200   19.5530 C   0  0  0  0  0  3  0  0  0  0  0  0
  -28.9610  -12.9740   20.6000 C   0  0  0  0  0  2  0  0  0  0  0  0
  -30.2560  -13.2870   19.9720 N   0  0  0  0  0  0  0  0  0  0  0  0
  -32.0190  -14.6680   19.5400 O   0  0  0  0  0  0  0  0  0  0  0  0
  -30.2700  -15.4420   20.7230 N   0  0  0  0  0  0  0  0  0  0  0  0
  -29.3770  -15.1850   21.1220 H   0  0  0  0  0  0  0  0  0  0  0  0
  -25.4970  -13.8250   20.4030 C   0  0  0  0  0  0  0  0  0  0  0  0
  -24.4450  -13.0500   20.8140 C   0  0  0  0  0  0  0  0  0  0  0  0
  -24.8970  -11.6980   20.7280 C   0  0  0  0  0  0  0  0  0  0  0  0
  -26.5240  -12.9450   20.0970 N   0  0  0  0  0  0  0  0  0  0  0  0
  -26.1670  -11.6590   20.3470 N   0  0  0  0  0  0  0  0  0  0  0  0
  -24.1760  -10.4350   20.9310 C   0  0  0  0  0  0  0  0  0  0  0  0
  -24.5870   -9.4970   21.9040 C   0  0  0  0  0  3  0  0  0  0  0  0
  -23.8640   -8.2980   22.0920 C   0  0  0  0  0  3  0  0  0  0  0  0
  -22.7190   -8.0300   21.3050 C   0  0  0  0  0  0  0  0  0  0  0  0
  -22.3280   -8.9570   20.3220 C   0  0  0  0  0  3  0  0  0  0  0  0
  -23.0520  -10.1460   20.1330 C   0  0  0  0  0  3  0  0  0  0  0  0
  -21.9700   -6.8830   21.4010 O   0  0  0  0  0  0  0  0  0  0  0  0
  -21.7890   -6.2370   22.5990 C   0  0  0  0  0  0  0  0  0  0  0  0
  -21.1860   -6.8750   23.7050 C   0  0  0  0  0  3  0  0  0  0  0  0
  -20.9590   -6.1550   24.8940 C   0  0  0  0  0  3  0  0  0  0  0  0
  -21.3220   -4.7970   24.9760 C   0  0  0  0  0  0  0  0  0  0  0  0
  -21.9180   -4.1590   23.8740 C   0  0  0  0  0  3  0  0  0  0  0  0
  -22.1470   -4.8780   22.6870 C   0  0  0  0  0  0  0  0  0  0  0  0
  -22.7020   -4.2530   21.6210 F   0  0  0  0  0  0  0  0  0  0  0  0
  -21.0970   -4.1020   26.1150 F   0  0  0  0  0  0  0  0  0  0  0  0
  -23.0690  -13.5290   21.1750 C   0  0  0  0  0  0  0  0  0  0  0  0
  -22.3850  -12.8160   22.0650 N   0  0  0  0  0  0  0  0  0  0  0  0
  -22.6090  -14.5660   20.7030 O   0  0  0  0  0  0  0  0  0  0  0  0
  -22.7710  -11.9760   22.4710 H   0  0  0  0  0  0  0  0  0  0  0  0
  -21.4630  -13.1200   22.3480 H   0  0  0  0  0  0  0  0  0  0  0  0
  -25.6550  -15.2000   20.2450 N   0  0  0  0  0  0  0  0  0  0  0  0
  -24.8900  -15.8460   20.4060 H   0  0  0  0  0  0  0  0  0  0  0  0
  -26.4730  -15.6480   19.8560 H   0  0  0  0  0  0  0  0  0  0  0  0
  2  4  2  0
  3  2  1  0
  3  1  1  0
  4  5  1  0
  4  6  1  0
  7  8  1  0
  7  2  1  0
  9 20  2  0
 10  8  1  0
 10 15  1  0
 11 19  1  0
 11 21  1  0
 12 18  1  0
 12 14  1  0
 13 19  1  0
 14 13  1  0
 15 14  2  0
 16 17  1  0
 16 10  2  0
 17 12  2  0
 18 11  1  0
 19  9  1  0
 21 23  2  0
 22 21  1  0
 24 22  1  0
 25 34  2  0
 25 30  1  0
 26 22  1  0
 26 30  1  0
 27 26  1  0
 28 29  1  0
 28 27  1  0
 29 25  1  0
 30 31  2  0
 31 32  1  0
 33 32  2  0
 34 33  1  0
 35  9  1  0
 35 40  1  0
 35 36  1  0
 36 39  1  1
 36 37  1  0
 38 36  1  0
 40 43  1  0
 41 45  1  0
 41 40  1  0
 42 41  2  0
 45 44  1  0
 47 45  1  0
 47 48  1  0
 47 46  1  0
 49  1  1  0
 50 52  1  0
 50 54  1  0
 51 53  1  0
 52 55  1  0
 54 65  1  0
 54 51  1  0
 55 49  1  0
 55 53  1  0
 55 56  1  6
 57 65  1  0
 58 63  1  0
 59 60  1  0
 59 58  1  0
 61 60  1  0
 61 70  1  0
 61 62  1  0
 63 57  1  0
 63 62  1  0
 64 57  2  0
 65 66  1  0
 67 68  2  0
 68 87  1  0
 69 68  1  0
 69 72  1  0
 70 71  1  0
 70 67  1  0
 71 69  2  0
 72 73  1  0
 73 74  2  0
 75 78  1  0
 75 74  1  0
 76 75  2  0
 77 76  1  0
 77 72  2  0
 78 79  1  0
 79 84  2  0
 79 80  1  0
 80 81  2  0
 81 82  1  0
 82 86  1  0
 83 82  2  0
 84 83  1  0
 85 84  1  0
 87 88  1  0
 88 91  1  0
 88 90  1  0
 89 87  2  0
 92 67  1  0
 92 93  1  0
 94 92  1  0
M  ISO  4   7 101   8 101  57 100  65 100
M  END
>  <TORSDO>  (70) 
F 20

>  <SCORE>  (70) 
-13.058

>  <name>  (70) 
70

>  <ligand_id>  (70) 
70

>  <original_smiles>  (70) 
[H]c1c([H])c([H])c2c(c1[H])C([H])([H])C([H])([H])C([H])([H])C2([H])N([H])C(=O)C1([H])N(C(=O)C([H])(N([H])C(=O)C([H])(N([H])C([H])([H])[H])C([H])([H])[H])C(C([H])([H])[H])(C([H])([H])[H])C([H])([H])[H])C([H])([H])c2c([H])c(OC([H])([H])C(=NC([H])([H])C([H])([H])[N+]3([H])C([H])([H])C([H])([H])C([H])(N([H])C(=O)N4C([H])([H])C([H])([H])C([H])([H])C([H])(n5nc(-c6c([H])c([H])c(Oc7c([H])c([H])c(F)c([H])c7F)c([H])c6[H])c(C(=O)N([H])[H])c5N([H])[H])C4([H])[H])C([H])([H])C3([H])[H])N([H])[H])c([H])c([H])c2C1([H])[H]

>  <smiles>  (70) 
[H]c1c([H])c([H])c2c(c1[H])C([H])([H])C([H])([H])C([H])([H])C2([H])N([H])C(=O)C1([H])N(C(=O)C([H])(N([H])C(=O)C([H])(N([H])C([H])([H])[H])C([H])([H])[H])C(C([H])([H])[H])(C([H])([H])[H])C([H])([H])[H])C([H])([H])c2c([H])c(OC([H])([H])C(=NC([H])([H])C([H])([H])[N+]3([H])C([H])([H])C([H])([H])C([H])(N([H])C(=O)N4C([H])([H])C([H])([H])C([H])([H])C([H])(n5nc(-c6c([H])c([H])c(Oc7c([H])c([H])c(F)c([H])c7F)c([H])c6[H])c(C(=O)N([H])[H])c5N([H])[H])C4([H])[H])C([H])([H])C3([H])[H])N([H])[H])c([H])c([H])c2C1([H])[H]

$$$$
71:0:0
     RDKit          3D

 95104  0  0  1  0  0  0  0  0999 V2000
  -28.3330  -21.2440   19.3880 C   0  0  0  0  0  2  0  0  0  0  0  0
  -30.4220  -22.4820   19.2140 C   0  0  0  0  0  2  0  0  0  0  0  0
  -28.9840  -20.0790   18.6060 C   0  0  0  0  0  2  0  0  0  0  0  0
  -31.0340  -21.3370   18.3930 C   0  0  0  0  0  2  0  0  0  0  0  0
  -28.9630  -22.5280   19.0400 N   0  0  0  0  0  0  0  0  0  0  0  0
  -30.4470  -20.0620   18.8560 N   0  0  2  0  0  4  0  0  0  0  0  0
  -30.5670  -20.0680   19.8580 H   0  0  0  0  0  0  0  0  0  0  0  0
  -31.1730  -18.8550   18.3840 C   0  0  0  0  0  2  0  0  0  0  0  0
  -30.8180  -14.5280   20.0780 C   0  0  0  0  0  0  0  0  0  0  0  0
  -30.4150  -12.3990   18.9250 C   0  0  0  0  0  2  0  0  0  0  0  0
  -29.4200  -12.6600   17.7760 C   0  0  0  0  0  2  0  0  0  0  0  0
  -27.9680  -12.5290   18.2770 C   0  0  0  0  0  2  0  0  0  0  0  0
  -27.7030  -13.3420   19.5750 C   0  0  0  0  0  3  0  0  0  0  0  0
  -28.8150  -13.0890   20.6210 C   0  0  0  0  0  2  0  0  0  0  0  0
  -30.1100  -13.3710   19.9830 N   0  0  0  0  0  0  0  0  0  0  0  0
  -31.9550  -14.6450   19.6150 O   0  0  0  0  0  0  0  0  0  0  0  0
  -30.2500  -17.6780   21.8000 C   0  0  0  0  0  2  0  0  0  0  0  0
  -31.4290  -18.0950   20.8960 C   0  0  0  0  0  2  0  0  0  0  0  0
  -29.9140  -16.1680   21.6760 C   0  0  0  0  0  2  0  0  0  0  0  0
  -30.0210  -16.6900   19.2740 C   0  0  0  0  0  2  0  0  0  0  0  0
  -31.1950  -17.6940   19.4160 C   0  0  0  0  0  3  0  0  0  0  0  0
  -30.0760  -15.6400   20.3070 N   0  0  0  0  0  0  0  0  0  0  0  0
  -25.3490  -13.9470   20.4230 C   0  0  0  0  0  0  0  0  0  0  0  0
  -24.2970  -13.1710   20.8330 C   0  0  0  0  0  0  0  0  0  0  0  0
  -24.7480  -11.8170   20.7510 C   0  0  0  0  0  0  0  0  0  0  0  0
  -26.3750  -13.0640   20.1200 N   0  0  0  0  0  0  0  0  0  0  0  0
  -26.0210  -11.7780   20.3770 N   0  0  0  0  0  0  0  0  0  0  0  0
  -24.0250  -10.5560   20.9550 C   0  0  0  0  0  0  0  0  0  0  0  0
  -24.4810   -9.5810   21.8700 C   0  0  0  0  0  3  0  0  0  0  0  0
  -23.7550   -8.3840   22.0590 C   0  0  0  0  0  3  0  0  0  0  0  0
  -22.5620   -8.1540   21.3350 C   0  0  0  0  0  0  0  0  0  0  0  0
  -22.1300   -9.1170   20.4060 C   0  0  0  0  0  3  0  0  0  0  0  0
  -22.8550  -10.3040   20.2140 C   0  0  0  0  0  3  0  0  0  0  0  0
  -21.8080   -7.0100   21.4360 O   0  0  0  0  0  0  0  0  0  0  0  0
  -21.7570   -6.2830   22.5980 C   0  0  0  0  0  0  0  0  0  0  0  0
  -21.3420   -6.8560   23.8190 C   0  0  0  0  0  3  0  0  0  0  0  0
  -21.2340   -6.0540   24.9740 C   0  0  0  0  0  3  0  0  0  0  0  0
  -21.5380   -4.6810   24.9080 C   0  0  0  0  0  0  0  0  0  0  0  0
  -21.9480   -4.1080   23.6910 C   0  0  0  0  0  3  0  0  0  0  0  0
  -22.0540   -4.9060   22.5390 C   0  0  0  0  0  0  0  0  0  0  0  0
  -22.4310   -4.3440   21.3650 F   0  0  0  0  0  0  0  0  0  0  0  0
  -21.4270   -3.9090   26.0140 F   0  0  0  0  0  0  0  0  0  0  0  0
  -22.9190  -13.6490   21.1850 C   0  0  0  0  0  0  0  0  0  0  0  0
  -22.2300  -12.9460   22.0760 N   0  0  0  0  0  0  0  0  0  0  0  0
  -22.4610  -14.6850   20.7030 O   0  0  0  0  0  0  0  0  0  0  0  0
  -22.6110  -12.1090   22.4940 H   0  0  0  0  0  0  0  0  0  0  0  0
  -21.3060  -13.2510   22.3490 H   0  0  0  0  0  0  0  0  0  0  0  0
  -25.5120  -15.3190   20.2660 N   0  0  0  0  0  0  0  0  0  0  0  0
  -24.7590  -15.9750   20.4420 H   0  0  0  0  0  0  0  0  0  0  0  0
  -26.3600  -15.7640   19.9360 H   0  0  0  0  0  0  0  0  0  0  0  0
  -28.3570  -23.6770   19.7270 C   0  0  0  0  0  2  0  0  0  0  0  0
  -28.5780  -23.7100   21.2600 C   0  0  0  0  0  2  0  0  0  0  0  0
  -28.0770  -24.9870   21.9540 C   0  0  0  0  0  2  0  0  0  0  0  0
  -28.8290  -26.2710   21.5490 C   0  0  0  0  0  2  0  0  0  0  0  0
  -28.4410  -26.6990   20.2430 O   0  0  0  0  0  0  0  0  0  0  0  0
  -24.5940  -31.8600   23.2330 C   0  0  0  0  0  0  0  0  0  0  0  0
  -27.2840  -27.4350   20.2220 C   0  0  0  0  0  0  0  0  0  0  0  0
  -23.4040  -30.4390   21.5890 C   0  0  0  0  0  3  0  0  0  0  0  0
  -24.8760  -28.8950   20.1900 C   0  0  0  0  0  0  0  0  0  0  0  0
  -25.9220  -30.8160   21.4080 C   0  0  0  0  0  2  0  0  0  0  0  0
  -26.0190  -29.4400   20.7880 C   0  0  0  0  0  0  0  0  0  0  0  0
  -27.2270  -28.7180   20.8030 C   0  0  0  0  0  3  0  0  0  0  0  0
  -26.1350  -26.8950   19.6110 C   0  0  0  0  0  3  0  0  0  0  0  0
  -24.9270  -27.6200   19.5950 C   0  0  0  0  0  3  0  0  0  0  0  0
  -23.6270  -29.7470   20.2170 C   0  0  0  0  0  2  0  0  0  0  0  0
  -24.6580  -31.0530   22.1360 N   0  0  0  0  0  0  0  0  0  0  0  0
  -23.5080  -32.1360   23.7630 O   0  0  0  0  0  0  0  0  0  0  0  0
  -22.7490  -29.4240   22.5540 C   0  0  0  0  0  0  0  0  0  0  0  0
  -21.4250  -29.2500   22.4230 N   0  0  0  0  0  0  0  0  0  0  0  0
  -23.4290  -28.7980   23.3740 O   0  0  0  0  0  0  0  0  0  0  0  0
  -20.9440  -29.8060   21.7290 H   0  0  0  0  0  0  0  0  0  0  0  0
  -18.0380  -28.0880   22.9080 C   0  0  0  0  0  0  0  0  0  0  0  0
  -20.5980  -28.3220   23.1930 C   0  0  0  0  0  3  0  0  0  0  0  0
  -20.6900  -26.8890   22.6200 C   0  0  0  0  0  2  0  0  0  0  0  0
  -19.5880  -26.5740   21.6030 C   0  0  0  0  0  2  0  0  0  0  0  0
  -18.2050  -26.7340   22.2400 C   0  0  0  0  0  2  0  0  0  0  0  0
  -19.1630  -28.8410   23.3410 C   0  0  0  0  0  0  0  0  0  0  0  0
  -18.9530  -30.1090   23.9240 C   0  0  0  0  0  3  0  0  0  0  0  0
  -17.6530  -30.6240   24.0820 C   0  0  0  0  0  3  0  0  0  0  0  0
  -16.5430  -29.8660   23.6660 C   0  0  0  0  0  3  0  0  0  0  0  0
  -16.7370  -28.6010   23.0860 C   0  0  0  0  0  3  0  0  0  0  0  0
  -25.8770  -32.4930   23.8610 C   0  0  0  0  0  3  0  0  0  0  0  0
  -25.5650  -33.8880   24.1950 N   0  0  0  0  0  0  0  0  0  0  0  0
  -25.8920  -34.9400   23.4330 C   0  0  0  0  0  0  0  0  0  0  0  0
  -26.5610  -34.8370   22.4010 O   0  0  0  0  0  0  0  0  0  0  0  0
  -24.9760  -34.0420   25.0000 H   0  0  0  0  0  0  0  0  0  0  0  0
  -24.1500  -36.7130   23.0780 C   0  0  0  0  0  1  0  0  0  0  0  0
  -25.3970  -36.3250   23.8880 C   0  0  0  0  0  3  0  0  0  0  0  0
  -27.5290  -37.2220   24.7120 C   0  0  0  0  0  1  0  0  0  0  0  0
  -26.4230  -37.3840   23.7700 N   0  0  0  0  0  0  0  0  0  0  0  0
  -26.0120  -38.3020   23.9180 H   0  0  0  0  0  0  0  0  0  0  0  0
  -26.3970  -31.7160   25.1310 C   0  0  1  0  0  0  0  0  0  0  0  0
  -25.3060  -31.4640   26.1970 C   0  0  0  0  0  1  0  0  0  0  0  0
  -26.9870  -30.3460   24.7250 C   0  0  0  0  0  1  0  0  0  0  0  0
  -27.5460  -32.5090   25.7980 C   0  0  0  0  0  1  0  0  0  0  0  0
  3  6  1  0
  3  1  1  0
  4  6  1  0
  4  2  1  0
  5  2  1  0
  5  1  1  0
  5 51  1  0
  6  7  1  1
  8  6  1  0
  9 22  1  0
 10 15  1  0
 11 12  1  0
 11 10  1  0
 13 12  1  0
 13 26  1  0
 13 14  1  0
 15  9  1  0
 15 14  1  0
 16  9  2  0
 18 17  1  0
 19 17  1  0
 20 21  1  0
 20 22  1  0
 21  8  1  0
 21 18  1  0
 22 19  1  0
 23 24  2  0
 24 43  1  0
 25 24  1  0
 25 28  1  0
 26 27  1  0
 26 23  1  0
 27 25  2  0
 28 29  1  0
 29 30  2  0
 31 34  1  0
 31 30  1  0
 32 31  2  0
 33 32  1  0
 33 28  2  0
 34 35  1  0
 35 36  1  0
 36 37  2  0
 38 37  1  0
 38 42  1  0
 39 38  2  0
 40 35  2  0
 40 39  1  0
 41 40  1  0
 43 44  1  0
 44 47  1  0
 44 46  1  0
 45 43  2  0
 48 23  1  0
 48 49  1  0
 50 48  1  0
 51 52  1  0
 52 53  1  0
 54 53  1  0
 55 54  1  0
 56 67  2  0
 57 55  1  0
 57 62  1  0
 58 66  1  0
 58 68  1  0
 59 65  1  0
 59 61  1  0
 60 66  1  0
 61 62  2  0
 61 60  1  0
 63 57  2  0
 64 63  1  0
 64 59  2  0
 65 58  1  0
 66 56  1  0
 68 70  2  0
 69 68  1  0
 71 69  1  0
 72 81  2  0
 72 77  1  0
 73 69  1  0
 73 77  1  0
 74 73  1  0
 75 76  1  0
 75 74  1  0
 76 72  1  0
 77 78  2  0
 78 79  1  0
 80 79  2  0
 81 80  1  0
 82 56  1  0
 82 83  1  0
 82 92  1  0
 83 86  1  0
 84 88  1  0
 84 83  1  0
 85 84  2  0
 88 87  1  0
 90 88  1  0
 90 91  1  0
 90 89  1  0
 92 95  1  1
 92 93  1  0
 94 92  1  0
M  ISO  4   9 100  22 100  54 101  55 101
M  END
>  <TORSDO>  (71) 
F 21

>  <SCORE>  (71) 
-13.546

>  <name>  (71) 
71

>  <ligand_id>  (71) 
71

>  <original_smiles>  (71) 
[H]c1c([H])c([H])c2c(c1[H])C([H])([H])C([H])([H])C([H])([H])C2([H])N([H])C(=O)C1([H])N(C(=O)C([H])(N([H])C(=O)C([H])(N([H])C([H])([H])[H])C([H])([H])[H])C(C([H])([H])[H])(C([H])([H])[H])C([H])([H])[H])C([H])([H])c2c([H])c(OC([H])([H])C([H])([H])C([H])([H])C([H])([H])N3C([H])([H])C([H])([H])[N+]([H])(C([H])([H])C4([H])C([H])([H])N(C(=O)N5C([H])([H])C([H])([H])C([H])([H])C([H])(n6nc(-c7c([H])c([H])c(Oc8c([H])c([H])c(F)c([H])c8F)c([H])c7[H])c(C(=O)N([H])[H])c6N([H])[H])C5([H])[H])C([H])([H])C([H])([H])C4([H])[H])C([H])([H])C3([H])[H])c([H])c([H])c2C1([H])[H]

>  <smiles>  (71) 
[H]c1c([H])c([H])c2c(c1[H])C([H])([H])C([H])([H])C([H])([H])C2([H])N([H])C(=O)C1([H])N(C(=O)C([H])(N([H])C(=O)C([H])(N([H])C([H])([H])[H])C([H])([H])[H])C(C([H])([H])[H])(C([H])([H])[H])C([H])([H])[H])C([H])([H])c2c([H])c(OC([H])([H])C([H])([H])C([H])([H])C([H])([H])N3C([H])([H])C([H])([H])[N+]([H])(C([H])([H])C4([H])C([H])([H])N(C(=O)N5C([H])([H])C([H])([H])C([H])([H])C([H])(n6nc(-c7c([H])c([H])c(Oc8c([H])c([H])c(F)c([H])c8F)c([H])c7[H])c(C(=O)N([H])[H])c6N([H])[H])C5([H])[H])C([H])([H])C([H])([H])C4([H])[H])C([H])([H])C3([H])[H])c([H])c([H])c2C1([H])[H]

$$$$
72:0:0
     RDKit          3D

 92 99  0  0  1  0  0  0  0  0999 V2000
  -29.0730  -21.9050   21.5500 N   0  0  2  0  0  4  0  0  0  0  0  0
  -28.2790  -22.1430   22.1260 H   0  0  0  0  0  0  0  0  0  0  0  0
  -30.1760  -22.5780   23.7020 C   0  0  0  0  0  1  0  0  0  0  0  0
  -30.1320  -21.5780   22.5410 C   0  0  0  0  0  2  0  0  0  0  0  0
  -28.5350  -20.6940   20.8270 C   0  0  0  0  0  2  0  0  0  0  0  0
  -29.5470  -19.6280   20.3300 C   0  0  0  0  0  0  0  0  0  0  0  0
  -30.5720  -19.9830   19.6770 N   0  0  0  0  0  0  0  0  0  0  0  0
  -31.1430  -19.2030   19.3800 H   0  0  0  0  0  0  0  0  0  0  0  0
  -29.2040  -18.1360   20.6290 C   0  0  0  0  0  3  0  0  0  0  0  0
  -30.3480  -17.0810   20.4560 C   0  0  0  0  0  3  0  0  0  0  0  0
  -30.6750  -14.5870   20.3040 C   0  0  0  0  0  0  0  0  0  0  0  0
  -30.3880  -12.4050   19.2060 C   0  0  0  0  0  2  0  0  0  0  0  0
  -29.4260  -12.5610   18.0070 C   0  0  0  0  0  2  0  0  0  0  0  0
  -27.9560  -12.4380   18.4440 C   0  0  0  0  0  2  0  0  0  0  0  0
  -27.6230  -13.2900   19.6980 C   0  0  0  0  0  3  0  0  0  0  0  0
  -28.6920  -13.1020   20.8010 C   0  0  0  0  0  2  0  0  0  0  0  0
  -30.0070  -13.4050   20.2160 N   0  0  0  0  0  0  0  0  0  0  0  0
  -31.8170  -14.7400   19.8660 O   0  0  0  0  0  0  0  0  0  0  0  0
  -29.9490  -15.6650   20.6950 N   0  0  0  0  0  0  0  0  0  0  0  0
  -29.0230  -15.4800   21.0510 H   0  0  0  0  0  0  0  0  0  0  0  0
  -25.2300  -13.8920   20.4240 C   0  0  0  0  0  0  0  0  0  0  0  0
  -24.1680  -13.1170   20.8050 C   0  0  0  0  0  0  0  0  0  0  0  0
  -24.6330  -11.7650   20.7780 C   0  0  0  0  0  0  0  0  0  0  0  0
  -26.2760  -13.0120   20.1890 N   0  0  0  0  0  0  0  0  0  0  0  0
  -25.9220  -11.7290   20.4650 N   0  0  0  0  0  0  0  0  0  0  0  0
  -23.9100  -10.5010   20.9760 C   0  0  0  0  0  0  0  0  0  0  0  0
  -24.3380   -9.5410   21.9190 C   0  0  0  0  0  3  0  0  0  0  0  0
  -23.6110   -8.3450   22.1050 C   0  0  0  0  0  3  0  0  0  0  0  0
  -22.4410   -8.0990   21.3470 C   0  0  0  0  0  0  0  0  0  0  0  0
  -22.0320   -9.0480   20.3920 C   0  0  0  0  0  3  0  0  0  0  0  0
  -22.7610  -10.2340   20.2050 C   0  0  0  0  0  3  0  0  0  0  0  0
  -21.6890   -6.9540   21.4430 O   0  0  0  0  0  0  0  0  0  0  0  0
  -21.6300   -6.2270   22.6060 C   0  0  0  0  0  0  0  0  0  0  0  0
  -21.1840   -6.7960   23.8180 C   0  0  0  0  0  3  0  0  0  0  0  0
  -21.0730   -5.9960   24.9740 C   0  0  0  0  0  3  0  0  0  0  0  0
  -21.3940   -4.6290   24.9150 C   0  0  0  0  0  0  0  0  0  0  0  0
  -21.8310   -4.0560   23.7090 C   0  0  0  0  0  3  0  0  0  0  0  0
  -21.9450   -4.8540   22.5560 C   0  0  0  0  0  0  0  0  0  0  0  0
  -22.3460   -4.2940   21.3900 F   0  0  0  0  0  0  0  0  0  0  0  0
  -21.2790   -3.8580   26.0230 F   0  0  0  0  0  0  0  0  0  0  0  0
  -22.7690  -13.5930   21.0750 C   0  0  0  0  0  0  0  0  0  0  0  0
  -22.0440  -12.9030   21.9470 N   0  0  0  0  0  0  0  0  0  0  0  0
  -22.3290  -14.6120   20.5460 O   0  0  0  0  0  0  0  0  0  0  0  0
  -22.4140  -12.0870   22.4100 H   0  0  0  0  0  0  0  0  0  0  0  0
  -21.1030  -13.2040   22.1620 H   0  0  0  0  0  0  0  0  0  0  0  0
  -25.3890  -15.2610   20.2320 N   0  0  0  0  0  0  0  0  0  0  0  0
  -24.6280  -15.9220   20.3650 H   0  0  0  0  0  0  0  0  0  0  0  0
  -26.2250  -15.6900   19.8540 H   0  0  0  0  0  0  0  0  0  0  0  0
  -29.3000  -23.1880   20.7860 C   0  0  0  0  0  2  0  0  0  0  0  0
  -28.3480  -24.3590   21.2570 C   0  0  0  0  0  2  0  0  0  0  0  0
  -28.8840  -25.8430   21.2970 C   0  0  0  0  0  2  0  0  0  0  0  0
  -28.5210  -26.7010   20.1840 O   0  0  0  0  0  0  0  0  0  0  0  0
  -24.5850  -31.8990   23.2420 C   0  0  0  0  0  0  0  0  0  0  0  0
  -27.3520  -27.4440   20.2600 C   0  0  0  0  0  0  0  0  0  0  0  0
  -23.4320  -30.4850   21.5700 C   0  0  0  0  0  3  0  0  0  0  0  0
  -24.9410  -28.9450   20.1920 C   0  0  0  0  0  0  0  0  0  0  0  0
  -25.9560  -30.8580   21.4330 C   0  0  0  0  0  2  0  0  0  0  0  0
  -26.0750  -29.4710   20.8240 C   0  0  0  0  0  0  0  0  0  0  0  0
  -27.2800  -28.7240   20.8670 C   0  0  0  0  0  3  0  0  0  0  0  0
  -26.2100  -26.9500   19.5980 C   0  0  0  0  0  3  0  0  0  0  0  0
  -25.0050  -27.6830   19.5730 C   0  0  0  0  0  3  0  0  0  0  0  0
  -23.6900  -29.7980   20.2000 C   0  0  0  0  0  2  0  0  0  0  0  0
  -24.6740  -31.0990   22.1410 N   0  0  0  0  0  0  0  0  0  0  0  0
  -23.4890  -32.1570   23.7580 O   0  0  0  0  0  0  0  0  0  0  0  0
  -22.7600  -29.4650   22.5200 C   0  0  0  0  0  0  0  0  0  0  0  0
  -21.4360  -29.2900   22.3760 N   0  0  0  0  0  0  0  0  0  0  0  0
  -23.4300  -28.8310   23.3390 O   0  0  0  0  0  0  0  0  0  0  0  0
  -20.9530  -29.8550   21.6910 H   0  0  0  0  0  0  0  0  0  0  0  0
  -18.0450  -28.1170   22.8540 C   0  0  0  0  0  0  0  0  0  0  0  0
  -20.6060  -28.3470   23.1320 C   0  0  0  0  0  3  0  0  0  0  0  0
  -20.6970  -26.9240   22.5330 C   0  0  0  0  0  2  0  0  0  0  0  0
  -19.5920  -26.6270   21.5140 C   0  0  0  0  0  2  0  0  0  0  0  0
  -18.2110  -26.7760   22.1580 C   0  0  0  0  0  2  0  0  0  0  0  0
  -19.1710  -28.8600   23.2990 C   0  0  0  0  0  0  0  0  0  0  0  0
  -18.9620  -30.1150   23.9130 C   0  0  0  0  0  3  0  0  0  0  0  0
  -17.6630  -30.6250   24.0820 C   0  0  0  0  0  3  0  0  0  0  0  0
  -16.5520  -29.8820   23.6480 C   0  0  0  0  0  3  0  0  0  0  0  0
  -16.7450  -28.6270   23.0410 C   0  0  0  0  0  3  0  0  0  0  0  0
  -25.8490  -32.5400   23.8950 C   0  0  0  0  0  3  0  0  0  0  0  0
  -25.5260  -33.9380   24.2120 N   0  0  0  0  0  0  0  0  0  0  0  0
  -25.8760  -34.9870   23.4570 C   0  0  0  0  0  0  0  0  0  0  0  0
  -26.5740  -34.8810   22.4420 O   0  0  0  0  0  0  0  0  0  0  0  0
  -24.9200  -34.0960   25.0030 H   0  0  0  0  0  0  0  0  0  0  0  0
  -24.1590  -36.7730   23.0380 C   0  0  0  0  0  1  0  0  0  0  0  0
  -25.3760  -36.3770   23.8920 C   0  0  0  0  0  3  0  0  0  0  0  0
  -27.4820  -37.2660   24.7850 C   0  0  0  0  0  1  0  0  0  0  0  0
  -26.4120  -37.4310   23.8040 N   0  0  0  0  0  0  0  0  0  0  0  0
  -26.0020  -38.3530   23.9330 H   0  0  0  0  0  0  0  0  0  0  0  0
  -26.3390  -31.7770   25.1860 C   0  0  1  0  0  0  0  0  0  0  0  0
  -25.2220  -31.5390   26.2270 C   0  0  0  0  0  1  0  0  0  0  0  0
  -26.9370  -30.4040   24.8060 C   0  0  0  0  0  1  0  0  0  0  0  0
  -27.4730  -32.5790   25.8690 C   0  0  0  0  0  1  0  0  0  0  0  0
  1  2  1  1
  1  4  1  0
  4  3  1  0
  5  1  1  0
  6  9  1  0
  6  5  1  0
  7  6  2  0
  8  7  1  0
 10  9  2  0
 10 19  1  0
 11 19  1  0
 12 17  1  0
 13 14  1  0
 13 12  1  0
 15 14  1  0
 15 24  1  0
 15 16  1  0
 17 11  1  0
 17 16  1  0
 18 11  2  0
 19 20  1  0
 21 22  2  0
 22 41  1  0
 23 22  1  0
 23 26  1  0
 24 21  1  0
 24 25  1  0
 25 23  2  0
 26 27  1  0
 27 28  2  0
 29 32  1  0
 29 28  1  0
 30 29  2  0
 31 30  1  0
 31 26  2  0
 32 33  1  0
 33 34  1  0
 34 35  2  0
 36 35  1  0
 36 40  1  0
 37 36  2  0
 38 33  2  0
 38 37  1  0
 39 38  1  0
 41 42  1  0
 42 45  1  0
 42 44  1  0
 43 41  2  0
 46 47  1  0
 46 21  1  0
 48 46  1  0
 49 50  1  0
 49  1  1  0
 50 51  1  0
 52 54  1  0
 52 51  1  0
 53 64  2  0
 54 59  1  0
 55 63  1  0
 55 65  1  0
 56 62  1  0
 56 58  1  0
 57 63  1  0
 58 59  2  0
 58 57  1  0
 60 54  2  0
 61 60  1  0
 61 56  2  0
 62 55  1  0
 63 53  1  0
 65 67  2  0
 66 65  1  0
 68 66  1  0
 69 78  2  0
 69 74  1  0
 70 66  1  0
 70 74  1  0
 71 70  1  0
 72 73  1  0
 72 71  1  0
 73 69  1  0
 74 75  2  0
 75 76  1  0
 77 76  2  0
 78 77  1  0
 79 53  1  0
 79 80  1  0
 79 89  1  0
 80 83  1  0
 81 85  1  0
 81 80  1  0
 82 81  2  0
 85 84  1  0
 87 85  1  0
 87 88  1  0
 87 86  1  0
 89 92  1  1
 89 90  1  0
 91 89  1  0
M  ISO  4  11 100  19 100  51 101  52 101
M  END
>  <TORSDO>  (72) 
F 24

>  <SCORE>  (72) 
-12.797

>  <name>  (72) 
72

>  <ligand_id>  (72) 
72

>  <original_smiles>  (72) 
[H]N=C(C([H])([H])C([H])([H])N([H])C(=O)N1C([H])([H])C([H])([H])C([H])([H])C([H])(n2nc(-c3c([H])c([H])c(Oc4c([H])c([H])c(F)c([H])c4F)c([H])c3[H])c(C(=O)N([H])[H])c2N([H])[H])C1([H])[H])C([H])([H])[N+]([H])(C([H])([H])C([H])([H])[H])C([H])([H])C([H])([H])C([H])([H])Oc1c([H])c([H])c2c(c1[H])C([H])([H])N(C(=O)C([H])(N([H])C(=O)C([H])(N([H])C([H])([H])[H])C([H])([H])[H])C(C([H])([H])[H])(C([H])([H])[H])C([H])([H])[H])C([H])(C(=O)N([H])C1([H])c3c([H])c([H])c([H])c([H])c3C([H])([H])C([H])([H])C1([H])[H])C2([H])[H]

>  <smiles>  (72) 
[H]N=C(C([H])([H])C([H])([H])N([H])C(=O)N1C([H])([H])C([H])([H])C([H])([H])C([H])(n2nc(-c3c([H])c([H])c(Oc4c([H])c([H])c(F)c([H])c4F)c([H])c3[H])c(C(=O)N([H])[H])c2N([H])[H])C1([H])[H])C([H])([H])[N+]([H])(C([H])([H])C([H])([H])[H])C([H])([H])C([H])([H])C([H])([H])Oc1c([H])c([H])c2c(c1[H])C([H])([H])N(C(=O)C([H])(N([H])C(=O)C([H])(N([H])C([H])([H])[H])C([H])([H])[H])C(C([H])([H])[H])(C([H])([H])[H])C([H])([H])[H])C([H])(C(=O)N([H])C1([H])c3c([H])c([H])c([H])c([H])c3C([H])([H])C([H])([H])C1([H])[H])C2([H])[H]

$$$$
73:0:0
     RDKit          3D

 95104  0  0  1  0  0  0  0  0999 V2000
  -27.5690  -21.3600   18.4150 C   0  0  0  0  0  2  0  0  0  0  0  0
  -27.9170  -22.6430   17.6320 C   0  0  0  0  0  2  0  0  0  0  0  0
  -28.0130  -21.4260   19.8930 C   0  0  0  0  0  2  0  0  0  0  0  0
  -29.3780  -23.1020   17.8740 C   0  0  0  0  0  2  0  0  0  0  0  0
  -29.4730  -21.9260   20.0970 C   0  0  0  0  0  3  0  0  0  0  0  0
  -29.7140  -23.2180   19.3270 N   0  0  2  0  0  4  0  0  0  0  0  0
  -30.7170  -23.3390   19.3330 H   0  0  0  0  0  0  0  0  0  0  0  0
  -30.5440  -20.8020   19.8380 C   0  0  0  0  0  2  0  0  0  0  0  0
  -30.3980  -18.2590   19.8990 C   0  0  0  0  0  0  0  0  0  0  0  0
  -30.3360  -19.4780   20.4960 N   0  0  0  0  0  0  0  0  0  0  0  0
  -30.1350  -18.0930   18.7070 O   0  0  0  0  0  0  0  0  0  0  0  0
  -30.4220  -19.4750   21.5070 H   0  0  0  0  0  0  0  0  0  0  0  0
  -30.9810  -14.6470   20.0140 C   0  0  0  0  0  0  0  0  0  0  0  0
  -30.5990  -12.4620   18.8920 C   0  0  0  0  0  2  0  0  0  0  0  0
  -29.5970  -12.6420   17.7300 C   0  0  0  0  0  2  0  0  0  0  0  0
  -28.1420  -12.5240   18.2320 C   0  0  0  0  0  2  0  0  0  0  0  0
  -27.8740  -13.3540   19.5200 C   0  0  0  0  0  3  0  0  0  0  0  0
  -28.9960  -13.1250   20.5530 C   0  0  0  0  0  2  0  0  0  0  0  0
  -30.2780  -13.4720   19.9160 N   0  0  0  0  0  0  0  0  0  0  0  0
  -32.0500  -14.8060   19.4190 O   0  0  0  0  0  0  0  0  0  0  0  0
  -30.4140  -17.1320   22.1780 C   0  0  0  0  0  2  0  0  0  0  0  0
  -30.4590  -15.6220   22.1630 C   0  0  0  0  0  2  0  0  0  0  0  0
  -30.9640  -17.0900   20.7640 C   0  0  0  0  0  3  0  0  0  0  0  0
  -30.4130  -15.6840   20.6900 N   0  0  0  0  0  0  0  0  0  0  0  0
  -25.5360  -13.9650   20.4080 C   0  0  0  0  0  0  0  0  0  0  0  0
  -24.4840  -13.1910   20.8230 C   0  0  0  0  0  0  0  0  0  0  0  0
  -24.9250  -11.8360   20.7230 C   0  0  0  0  0  0  0  0  0  0  0  0
  -26.5540  -13.0750   20.0870 N   0  0  0  0  0  0  0  0  0  0  0  0
  -26.1940  -11.7890   20.3360 N   0  0  0  0  0  0  0  0  0  0  0  0
  -24.1940  -10.5740   20.9160 C   0  0  0  0  0  0  0  0  0  0  0  0
  -24.6100   -9.6140   21.8650 C   0  0  0  0  0  3  0  0  0  0  0  0
  -23.8790   -8.4210   22.0460 C   0  0  0  0  0  3  0  0  0  0  0  0
  -22.7160   -8.1770   21.2790 C   0  0  0  0  0  0  0  0  0  0  0  0
  -22.3200   -9.1240   20.3170 C   0  0  0  0  0  3  0  0  0  0  0  0
  -23.0520  -10.3080   20.1350 C   0  0  0  0  0  3  0  0  0  0  0  0
  -21.9600   -7.0320   21.3700 O   0  0  0  0  0  0  0  0  0  0  0  0
  -21.8110   -6.3600   22.5550 C   0  0  0  0  0  0  0  0  0  0  0  0
  -21.2800   -6.9840   23.7060 C   0  0  0  0  0  3  0  0  0  0  0  0
  -21.0800   -6.2380   24.8840 C   0  0  0  0  0  3  0  0  0  0  0  0
  -21.3990   -4.8690   24.9120 C   0  0  0  0  0  0  0  0  0  0  0  0
  -21.9190   -4.2400   23.7670 C   0  0  0  0  0  3  0  0  0  0  0  0
  -22.1220   -4.9840   22.5890 C   0  0  0  0  0  0  0  0  0  0  0  0
  -22.6040   -4.3710   21.4810 F   0  0  0  0  0  0  0  0  0  0  0  0
  -21.1990   -4.1480   26.0420 F   0  0  0  0  0  0  0  0  0  0  0  0
  -23.1120  -13.6730   21.1970 C   0  0  0  0  0  0  0  0  0  0  0  0
  -22.4360  -12.9640   22.0950 N   0  0  0  0  0  0  0  0  0  0  0  0
  -22.6460  -14.7110   20.7290 O   0  0  0  0  0  0  0  0  0  0  0  0
  -22.8160  -12.1110   22.4790 H   0  0  0  0  0  0  0  0  0  0  0  0
  -21.5230  -13.2710   22.3980 H   0  0  0  0  0  0  0  0  0  0  0  0
  -25.7120  -15.3340   20.2510 N   0  0  0  0  0  0  0  0  0  0  0  0
  -24.9750  -16.0170   20.3860 H   0  0  0  0  0  0  0  0  0  0  0  0
  -26.5680  -15.7510   19.9040 H   0  0  0  0  0  0  0  0  0  0  0  0
  -29.2180  -24.4690   20.0330 C   0  0  0  0  0  2  0  0  0  0  0  0
  -28.8100  -25.7330   19.1950 C   0  0  0  0  0  2  0  0  0  0  0  0
  -28.4690  -26.8250   20.0740 O   0  0  0  0  0  0  0  0  0  0  0  0
  -24.5550  -31.8650   23.1940 C   0  0  0  0  0  0  0  0  0  0  0  0
  -27.2330  -27.4630   20.0630 C   0  0  0  0  0  0  0  0  0  0  0  0
  -23.3460  -30.4590   21.5550 C   0  0  0  0  0  3  0  0  0  0  0  0
  -24.8000  -28.9220   20.1240 C   0  0  0  0  0  0  0  0  0  0  0  0
  -25.8570  -30.8470   21.3260 C   0  0  0  0  0  2  0  0  0  0  0  0
  -25.9540  -29.4720   20.6890 C   0  0  0  0  0  0  0  0  0  0  0  0
  -27.1680  -28.7460   20.6610 C   0  0  0  0  0  3  0  0  0  0  0  0
  -26.0500  -26.9090   19.5280 C   0  0  0  0  0  3  0  0  0  0  0  0
  -24.8400  -27.6420   19.5430 C   0  0  0  0  0  3  0  0  0  0  0  0
  -23.5520  -29.7760   20.1730 C   0  0  0  0  0  2  0  0  0  0  0  0
  -24.6050  -31.0740   22.0870 N   0  0  0  0  0  0  0  0  0  0  0  0
  -23.4760  -32.1210   23.7460 O   0  0  0  0  0  0  0  0  0  0  0  0
  -22.7060  -29.4380   22.5160 C   0  0  0  0  0  0  0  0  0  0  0  0
  -21.3810  -29.2560   22.3960 N   0  0  0  0  0  0  0  0  0  0  0  0
  -23.3990  -28.8050   23.3180 O   0  0  0  0  0  0  0  0  0  0  0  0
  -20.8880  -29.8080   21.7100 H   0  0  0  0  0  0  0  0  0  0  0  0
  -18.0160  -28.0490   22.9310 C   0  0  0  0  0  0  0  0  0  0  0  0
  -20.5780  -28.3120   23.1730 C   0  0  0  0  0  3  0  0  0  0  0  0
  -20.6790  -26.8870   22.5880 C   0  0  0  0  0  2  0  0  0  0  0  0
  -19.5670  -26.5640   21.5880 C   0  0  0  0  0  2  0  0  0  0  0  0
  -18.1910  -26.7030   22.2420 C   0  0  0  0  0  2  0  0  0  0  0  0
  -19.1380  -28.8090   23.3570 C   0  0  0  0  0  0  0  0  0  0  0  0
  -18.9210  -30.0690   23.9610 C   0  0  0  0  0  3  0  0  0  0  0  0
  -17.6160  -30.5670   24.1390 C   0  0  0  0  0  3  0  0  0  0  0  0
  -16.5120  -29.8050   23.7270 C   0  0  0  0  0  3  0  0  0  0  0  0
  -16.7100  -28.5470   23.1290 C   0  0  0  0  0  3  0  0  0  0  0  0
  -25.8440  -32.5010   23.8110 C   0  0  0  0  0  3  0  0  0  0  0  0
  -26.3690  -31.7260   25.0810 C   0  0  1  0  0  0  0  0  0  0  0  0
  -25.2800  -31.4880   26.1530 C   0  0  0  0  0  1  0  0  0  0  0  0
  -26.9530  -30.3530   24.6710 C   0  0  0  0  0  1  0  0  0  0  0  0
  -27.5200  -32.5210   25.7460 C   0  0  0  0  0  1  0  0  0  0  0  0
  -25.5380  -33.8920   24.1530 N   0  0  0  0  0  0  0  0  0  0  0  0
  -25.8540  -34.9470   23.3910 C   0  0  0  0  0  0  0  0  0  0  0  0
  -26.5110  -34.8530   22.3510 O   0  0  0  0  0  0  0  0  0  0  0  0
  -24.9720  -34.0440   24.9740 H   0  0  0  0  0  0  0  0  0  0  0  0
  -24.1090  -36.7140   23.0550 C   0  0  0  0  0  1  0  0  0  0  0  0
  -25.3600  -36.3250   23.8580 C   0  0  0  0  0  3  0  0  0  0  0  0
  -27.4910  -37.2140   24.6810 C   0  0  0  0  0  1  0  0  0  0  0  0
  -26.3830  -37.3860   23.7460 N   0  0  0  0  0  0  0  0  0  0  0  0
  -25.9690  -38.2990   23.9130 H   0  0  0  0  0  0  0  0  0  0  0  0
  1  3  1  0
  2  4  1  0
  2  1  1  0
  3  5  1  0
  4  6  1  0
  5  8  1  0
  6  7  1  6
  6 53  1  0
  6  5  1  0
  8 10  1  0
  9 10  1  0
 10 12  1  0
 11  9  2  0
 13 24  1  0
 14 19  1  0
 15 16  1  0
 15 14  1  0
 17 16  1  0
 17 28  1  0
 17 18  1  0
 19 13  1  0
 19 18  1  0
 20 13  2  0
 22 21  1  0
 23  9  1  0
 23 21  1  0
 24 23  1  0
 24 22  1  0
 25 26  2  0
 26 45  1  0
 27 26  1  0
 27 30  1  0
 28 29  1  0
 28 25  1  0
 29 27  2  0
 30 31  1  0
 31 32  2  0
 33 36  1  0
 33 32  1  0
 34 33  2  0
 35 34  1  0
 35 30  2  0
 36 37  1  0
 37 42  2  0
 37 38  1  0
 38 39  2  0
 39 40  1  0
 40 44  1  0
 41 40  2  0
 42 41  1  0
 43 42  1  0
 45 46  1  0
 46 49  1  0
 46 48  1  0
 47 45  2  0
 50 51  1  0
 50 25  1  0
 52 50  1  0
 54 53  1  0
 54 55  1  0
 56 67  2  0
 57 55  1  0
 57 62  1  0
 58 66  1  0
 58 68  1  0
 59 65  1  0
 59 61  1  0
 60 66  1  0
 61 60  1  0
 62 61  2  0
 63 64  1  0
 63 57  2  0
 64 59  2  0
 65 58  1  0
 66 56  1  0
 68 70  2  0
 69 68  1  0
 71 69  1  0
 72 81  2  0
 72 77  1  0
 73 69  1  0
 73 77  1  0
 74 73  1  0
 75 76  1  0
 75 74  1  0
 76 72  1  0
 77 78  2  0
 78 79  1  0
 80 79  2  0
 81 80  1  0
 82 56  1  0
 82 87  1  0
 82 83  1  0
 83 86  1  1
 83 84  1  0
 85 83  1  0
 87 90  1  0
 88 92  1  0
 88 87  1  0
 89 88  2  0
 92 91  1  0
 94 92  1  0
 94 95  1  0
 94 93  1  0
M  ISO  4  13 100  24 100  54 101  55 101
M  END
>  <TORSDO>  (73) 
F 20

>  <SCORE>  (73) 
-13.280

>  <name>  (73) 
73

>  <ligand_id>  (73) 
73

>  <original_smiles>  (73) 
[H]c1c([H])c([H])c2c(c1[H])C([H])([H])C([H])([H])C([H])([H])C2([H])N([H])C(=O)C1([H])N(C(=O)C([H])(N([H])C(=O)C([H])(N([H])C([H])([H])[H])C([H])([H])[H])C(C([H])([H])[H])(C([H])([H])[H])C([H])([H])[H])C([H])([H])c2c([H])c(OC([H])([H])C([H])([H])[N+]3([H])C([H])([H])C([H])([H])C([H])([H])C([H])([H])C3([H])C([H])([H])N([H])C(=O)C3([H])N(C(=O)N4C([H])([H])C([H])([H])C([H])([H])C([H])(n5nc(-c6c([H])c([H])c(Oc7c([H])c([H])c(F)c([H])c7F)c([H])c6[H])c(C(=O)N([H])[H])c5N([H])[H])C4([H])[H])C([H])([H])C3([H])[H])c([H])c([H])c2C1([H])[H]

>  <smiles>  (73) 
[H]c1c([H])c([H])c2c(c1[H])C([H])([H])C([H])([H])C([H])([H])C2([H])N([H])C(=O)C1([H])N(C(=O)C([H])(N([H])C(=O)C([H])(N([H])C([H])([H])[H])C([H])([H])[H])C(C([H])([H])[H])(C([H])([H])[H])C([H])([H])[H])C([H])([H])c2c([H])c(OC([H])([H])C([H])([H])[N+]3([H])C([H])([H])C([H])([H])C([H])([H])C([H])([H])C3([H])C([H])([H])N([H])C(=O)C3([H])N(C(=O)N4C([H])([H])C([H])([H])C([H])([H])C([H])(n5nc(-c6c([H])c([H])c(Oc7c([H])c([H])c(F)c([H])c7F)c([H])c6[H])c(C(=O)N([H])[H])c5N([H])[H])C4([H])[H])C([H])([H])C3([H])[H])c([H])c([H])c2C1([H])[H]

$$$$
74:0:0
     RDKit          3D

 96104  0  0  1  0  0  0  0  0999 V2000
  -28.6110  -19.8580   20.0970 C   0  0  0  0  0  2  0  0  0  0  0  0
  -28.6250  -21.3600   20.7360 C   0  0  0  0  0  2  0  0  0  0  0  0
  -29.0750  -22.5680   19.9110 N   0  0  0  0  0  4  0  0  0  0  0  0
  -29.1600  -22.2070   18.9760 H   0  0  0  0  0  0  0  0  0  0  0  0
  -30.0130  -22.8180   20.1870 H   0  0  0  0  0  0  0  0  0  0  0  0
  -28.2310  -23.8540   19.7270 C   0  0  0  0  0  2  0  0  0  0  0  0
  -28.3870  -25.1250   20.7010 C   0  0  0  0  0  2  0  0  0  0  0  0
  -28.3720  -26.5340   20.1910 O   0  0  0  0  0  0  0  0  0  0  0  0
  -24.5840  -31.9320   23.2300 C   0  0  0  0  0  0  0  0  0  0  0  0
  -27.2220  -27.3410   20.2210 C   0  0  0  0  0  0  0  0  0  0  0  0
  -23.3900  -30.5180   21.5940 C   0  0  0  0  0  3  0  0  0  0  0  0
  -24.8510  -28.9520   20.1860 C   0  0  0  0  0  0  0  0  0  0  0  0
  -25.9310  -30.8370   21.4180 C   0  0  0  0  0  2  0  0  0  0  0  0
  -26.0160  -29.4510   20.7810 C   0  0  0  0  0  0  0  0  0  0  0  0
  -27.2060  -28.6610   20.7760 C   0  0  0  0  0  3  0  0  0  0  0  0
  -26.0320  -26.8870   19.6140 C   0  0  0  0  0  3  0  0  0  0  0  0
  -24.8630  -27.6780   19.5900 C   0  0  0  0  0  3  0  0  0  0  0  0
  -23.6120  -29.8280   20.2190 C   0  0  0  0  0  2  0  0  0  0  0  0
  -24.6540  -31.1150   22.1370 N   0  0  0  0  0  0  0  0  0  0  0  0
  -23.4960  -32.2100   23.7580 O   0  0  0  0  0  0  0  0  0  0  0  0
  -22.7250  -29.5100   22.5590 C   0  0  0  0  0  0  0  0  0  0  0  0
  -21.4050  -29.3050   22.4050 N   0  0  0  0  0  0  0  0  0  0  0  0
  -23.3970  -28.9090   23.4020 O   0  0  0  0  0  0  0  0  0  0  0  0
  -20.9260  -29.8370   21.6910 H   0  0  0  0  0  0  0  0  0  0  0  0
  -18.0420  -28.0400   22.8320 C   0  0  0  0  0  0  0  0  0  0  0  0
  -20.5850  -28.3670   23.1710 C   0  0  0  0  0  3  0  0  0  0  0  0
  -20.7390  -26.9260   22.6320 C   0  0  0  0  0  2  0  0  0  0  0  0
  -19.6760  -26.5540   21.5930 C   0  0  0  0  0  2  0  0  0  0  0  0
  -18.2710  -26.6810   22.1920 C   0  0  0  0  0  2  0  0  0  0  0  0
  -19.1300  -28.8380   23.2760 C   0  0  0  0  0  0  0  0  0  0  0  0
  -18.8630  -30.1080   23.8320 C   0  0  0  0  0  3  0  0  0  0  0  0
  -17.5420  -30.5820   23.9460 C   0  0  0  0  0  3  0  0  0  0  0  0
  -16.4700  -29.7810   23.5170 C   0  0  0  0  0  3  0  0  0  0  0  0
  -16.7200  -28.5110   22.9680 C   0  0  0  0  0  3  0  0  0  0  0  0
  -25.8620  -32.5700   23.8580 C   0  0  0  0  0  3  0  0  0  0  0  0
  -25.5500  -33.9710   24.1760 N   0  0  0  0  0  0  0  0  0  0  0  0
  -25.8870  -35.0180   23.4120 C   0  0  0  0  0  0  0  0  0  0  0  0
  -26.5610  -34.9090   22.3850 O   0  0  0  0  0  0  0  0  0  0  0  0
  -24.9570  -34.1320   24.9760 H   0  0  0  0  0  0  0  0  0  0  0  0
  -24.1650  -36.8130   23.0290 C   0  0  0  0  0  1  0  0  0  0  0  0
  -25.3970  -36.4120   23.8570 C   0  0  0  0  0  3  0  0  0  0  0  0
  -27.5230  -37.2990   24.7090 C   0  0  0  0  0  1  0  0  0  0  0  0
  -26.4340  -37.4620   23.7480 N   0  0  0  0  0  0  0  0  0  0  0  0
  -26.0300  -38.3850   23.8820 H   0  0  0  0  0  0  0  0  0  0  0  0
  -26.3680  -31.8090   25.1450 C   0  0  1  0  0  0  0  0  0  0  0  0
  -25.2660  -31.5770   26.2030 C   0  0  0  0  0  1  0  0  0  0  0  0
  -26.9570  -30.4300   24.7650 C   0  0  0  0  0  1  0  0  0  0  0  0
  -27.5140  -32.6080   25.8090 C   0  0  0  0  0  1  0  0  0  0  0  0
  -29.7260  -18.8380   20.2630 N   0  0  0  0  0  0  0  0  0  0  0  0
  -32.0480  -18.3570   19.5820 C   0  0  0  0  0  3  0  0  0  0  0  0
  -30.6440  -19.3330   17.9340 C   0  0  0  0  0  3  0  0  0  0  0  0
  -31.7170  -18.4460   17.2830 C   0  0  0  0  0  3  0  0  0  0  0  0
  -30.8850  -19.2890   19.4680 C   0  0  0  0  0  3  0  0  0  0  0  0
  -32.4830  -17.9070   18.4010 N   0  0  0  0  0  0  0  0  0  0  0  0
  -32.5930  -18.0350   20.7620 N   0  0  0  0  0  0  0  0  0  0  0  0
  -33.2430  -17.2570   18.2540 H   0  0  0  0  0  0  0  0  0  0  0  0
  -32.1840  -18.3950   21.6130 H   0  0  0  0  0  0  0  0  0  0  0  0
  -33.3580  -17.3840   20.8460 H   0  0  0  0  0  0  0  0  0  0  0  0
  -29.4050  -17.3720   19.9470 C   0  0  0  0  0  2  0  0  0  0  0  0
  -29.8630  -16.1330   20.8880 C   0  0  0  0  0  2  0  0  0  0  0  0
  -30.5770  -14.8210   20.2840 C   0  0  0  0  0  0  0  0  0  0  0  0
  -30.4020  -12.5670   19.2120 C   0  0  0  0  0  2  0  0  0  0  0  0
  -29.4330  -12.6780   18.0120 C   0  0  0  0  0  2  0  0  0  0  0  0
  -27.9700  -12.4930   18.4610 C   0  0  0  0  0  2  0  0  0  0  0  0
  -27.6240  -13.3300   19.7220 C   0  0  0  0  0  3  0  0  0  0  0  0
  -28.7060  -13.1800   20.8140 C   0  0  0  0  0  2  0  0  0  0  0  0
  -29.9860  -13.5760   20.2140 N   0  0  0  0  0  0  0  0  0  0  0  0
  -31.7130  -14.9600   19.8170 O   0  0  0  0  0  0  0  0  0  0  0  0
  -25.2400  -13.8900   20.4820 C   0  0  0  0  0  0  0  0  0  0  0  0
  -24.1900  -13.1000   20.8610 C   0  0  0  0  0  0  0  0  0  0  0  0
  -24.6650  -11.7550   20.8160 C   0  0  0  0  0  0  0  0  0  0  0  0
  -26.2900  -13.0220   20.2260 N   0  0  0  0  0  0  0  0  0  0  0  0
  -25.9500  -11.7320   20.4880 N   0  0  0  0  0  0  0  0  0  0  0  0
  -23.9540  -10.4840   21.0130 C   0  0  0  0  0  0  0  0  0  0  0  0
  -24.3990   -9.5240   21.9490 C   0  0  0  0  0  3  0  0  0  0  0  0
  -23.6840   -8.3220   22.1330 C   0  0  0  0  0  3  0  0  0  0  0  0
  -22.5130   -8.0690   21.3820 C   0  0  0  0  0  0  0  0  0  0  0  0
  -22.0890   -9.0170   20.4350 C   0  0  0  0  0  3  0  0  0  0  0  0
  -22.8030  -10.2110   20.2490 C   0  0  0  0  0  3  0  0  0  0  0  0
  -21.7750   -6.9150   21.4700 O   0  0  0  0  0  0  0  0  0  0  0  0
  -21.7210   -6.1800   22.6290 C   0  0  0  0  0  0  0  0  0  0  0  0
  -21.2540   -6.7330   23.8410 C   0  0  0  0  0  3  0  0  0  0  0  0
  -21.1530   -5.9280   24.9920 C   0  0  0  0  0  3  0  0  0  0  0  0
  -21.5070   -4.5660   24.9310 C   0  0  0  0  0  0  0  0  0  0  0  0
  -21.9650   -4.0100   23.7240 C   0  0  0  0  0  3  0  0  0  0  0  0
  -22.0700   -4.8150   22.5750 C   0  0  0  0  0  0  0  0  0  0  0  0
  -22.4940   -4.2690   21.4100 F   0  0  0  0  0  0  0  0  0  0  0  0
  -21.4020   -3.7870   26.0340 F   0  0  0  0  0  0  0  0  0  0  0  0
  -22.7930  -13.5640   21.1560 C   0  0  0  0  0  0  0  0  0  0  0  0
  -22.0860  -12.8540   22.0300 N   0  0  0  0  0  0  0  0  0  0  0  0
  -22.3370  -14.5890   20.6500 O   0  0  0  0  0  0  0  0  0  0  0  0
  -22.4700  -12.0260   22.4600 H   0  0  0  0  0  0  0  0  0  0  0  0
  -21.1460  -13.1410   22.2680 H   0  0  0  0  0  0  0  0  0  0  0  0
  -25.3860  -15.2620   20.3090 N   0  0  0  0  0  0  0  0  0  0  0  0
  -24.6110  -15.9060   20.4280 H   0  0  0  0  0  0  0  0  0  0  0  0
  -26.2260  -15.7150   19.9680 H   0  0  0  0  0  0  0  0  0  0  0  0
  1 49  1  0
  1  2  1  0
  3  5  1  0
  3  2  1  0
  4  3  1  0
  6  3  1  0
  6  7  1  0
  8 10  1  0
  8  7  1  0
  9 20  2  0
 10 15  1  0
 11 19  1  0
 11 21  1  0
 12 18  1  0
 12 14  1  0
 13 19  1  0
 14 13  1  0
 15 14  2  0
 16 10  2  0
 17 16  1  0
 17 12  2  0
 18 11  1  0
 19  9  1  0
 21 23  2  0
 22 21  1  0
 24 22  1  0
 25 34  2  0
 25 30  1  0
 26 22  1  0
 26 30  1  0
 27 26  1  0
 28 29  1  0
 28 27  1  0
 29 25  1  0
 30 31  2  0
 31 32  1  0
 33 32  2  0
 34 33  1  0
 35  9  1  0
 35 36  1  0
 35 45  1  0
 36 39  1  0
 37 41  1  0
 37 36  1  0
 38 37  2  0
 41 40  1  0
 43 41  1  0
 43 44  1  0
 43 42  1  0
 45 48  1  1
 45 46  1  0
 47 45  1  0
 50 55  1  0
 51 53  1  0
 52 51  2  0
 52 54  1  0
 53 50  1  0
 53 49  1  0
 54 50  1  0
 55 58  1  0
 55 57  1  0
 56 54  1  0
 59 49  1  0
 59 60  1  0
 61 60  1  0
 62 67  1  0
 63 64  1  0
 63 62  1  0
 65 64  1  0
 65 72  1  0
 65 66  1  0
 67 61  1  0
 67 66  1  0
 68 61  2  0
 69 70  2  0
 70 89  1  0
 71 70  1  0
 71 74  1  0
 72 69  1  0
 72 73  1  0
 73 71  2  0
 74 75  1  0
 75 76  2  0
 77 80  1  0
 77 76  1  0
 78 77  2  0
 79 78  1  0
 79 74  2  0
 80 81  1  0
 81 82  1  0
 82 83  2  0
 84 83  1  0
 84 88  1  0
 85 84  2  0
 86 81  2  0
 86 85  1  0
 87 86  1  0
 89 90  1  0
 90 93  1  0
 90 92  1  0
 91 89  2  0
 94 95  1  0
 94 69  1  0
 96 94  1  0
M  ISO  4   7 101   8 101  60 100  61 100
M  END
>  <TORSDO>  (74) 
F 24

>  <SCORE>  (74) 
-12.684

>  <name>  (74) 
74

>  <ligand_id>  (74) 
74

>  <original_smiles>  (74) 
[H]c1c([H])c([H])c2c(c1[H])C([H])([H])C([H])([H])C([H])([H])C2([H])N([H])C(=O)C1([H])N(C(=O)C([H])(N([H])C(=O)C([H])(N([H])C([H])([H])[H])C([H])([H])[H])C(C([H])([H])[H])(C([H])([H])[H])C([H])([H])[H])C([H])([H])c2c([H])c(OC([H])([H])C([H])([H])[N+]([H])([H])C([H])([H])C([H])([H])N(C([H])([H])C([H])([H])C(=O)N3C([H])([H])C([H])([H])C([H])([H])C([H])(n4nc(-c5c([H])c([H])c(Oc6c([H])c([H])c(F)c([H])c6F)c([H])c5[H])c(C(=O)N([H])[H])c4N([H])[H])C3([H])[H])C3([H])C(N([H])[H])=[N+]([H])C([H])([H])C3([H])[H])c([H])c([H])c2C1([H])[H]

>  <smiles>  (74) 
[H]c1c([H])c([H])c2c(c1[H])C([H])([H])C([H])([H])C([H])([H])C2([H])N([H])C(=O)C1([H])N(C(=O)C([H])(N([H])C(=O)C([H])(N([H])C([H])([H])[H])C([H])([H])[H])C(C([H])([H])[H])(C([H])([H])[H])C([H])([H])[H])C([H])([H])c2c([H])c(OC([H])([H])C([H])([H])[N+]([H])([H])C([H])([H])C([H])([H])N(C([H])([H])C([H])([H])C(=O)N3C([H])([H])C([H])([H])C([H])([H])C([H])(n4nc(-c5c([H])c([H])c(Oc6c([H])c([H])c(F)c([H])c6F)c([H])c5[H])c(C(=O)N([H])[H])c4N([H])[H])C3([H])[H])C3([H])C(N([H])[H])=[N+]([H])C([H])([H])C3([H])[H])c([H])c([H])c2C1([H])[H]

$$$$
75:0:0
     RDKit          3D

 92100  0  0  1  0  0  0  0  0999 V2000
  -29.4350  -18.3130   20.5720 C   0  0  0  0  0  0  0  0  0  0  0  0
  -28.8920  -18.1720   21.6720 O   0  0  0  0  0  0  0  0  0  0  0  0
  -30.4690  -14.7160   19.3000 C   0  0  0  0  0  0  0  0  0  0  0  0
  -29.9620  -12.5630   18.1250 C   0  0  0  0  0  2  0  0  0  0  0  0
  -28.8090  -12.7120   17.1090 C   0  0  0  0  0  2  0  0  0  0  0  0
  -27.4490  -12.4840   17.7920 C   0  0  0  0  0  2  0  0  0  0  0  0
  -27.3150  -13.2900   19.1110 C   0  0  0  0  0  3  0  0  0  0  0  0
  -28.5610  -13.1420   20.0040 C   0  0  0  0  0  2  0  0  0  0  0  0
  -29.7560  -13.5290   19.2320 N   0  0  0  0  0  0  0  0  0  0  0  0
  -31.3620  -14.9370   18.4830 O   0  0  0  0  0  0  0  0  0  0  0  0
  -30.4650  -15.2680   21.6190 C   0  0  0  0  0  2  0  0  0  0  0  0
  -31.9530  -15.5060   21.9370 C   0  0  0  0  0  2  0  0  0  0  0  0
  -31.9170  -17.4890   20.4350 C   0  0  0  0  0  2  0  0  0  0  0  0
  -30.4440  -17.1810   20.0030 C   0  0  0  0  0  3  0  0  0  0  0  0
  -30.1550  -15.6820   20.2380 N   0  0  0  0  0  0  0  0  0  0  0  0
  -32.2810  -16.9330   21.7640 N   0  0  0  0  0  4  0  0  0  0  0  0
  -33.2710  -17.0550   21.9160 H   0  0  0  0  0  0  0  0  0  0  0  0
  -31.8060  -17.4420   22.4930 H   0  0  0  0  0  0  0  0  0  0  0  0
  -25.0990  -13.8090   20.2990 C   0  0  0  0  0  0  0  0  0  0  0  0
  -24.1280  -13.0010   20.8260 C   0  0  0  0  0  0  0  0  0  0  0  0
  -24.5920  -11.6620   20.6490 C   0  0  0  0  0  0  0  0  0  0  0  0
  -26.0860  -12.9600   19.8290 N   0  0  0  0  0  0  0  0  0  0  0  0
  -25.8000  -11.6610   20.0960 N   0  0  0  0  0  0  0  0  0  0  0  0
  -23.9350  -10.3790   20.9240 C   0  0  0  0  0  0  0  0  0  0  0  0
  -24.4530   -9.4680   21.8710 C   0  0  0  0  0  3  0  0  0  0  0  0
  -23.7890   -8.2480   22.1280 C   0  0  0  0  0  3  0  0  0  0  0  0
  -22.5920   -7.9320   21.4380 C   0  0  0  0  0  0  0  0  0  0  0  0
  -22.0940   -8.8340   20.4800 C   0  0  0  0  0  3  0  0  0  0  0  0
  -22.7580  -10.0450   20.2250 C   0  0  0  0  0  3  0  0  0  0  0  0
  -21.8900   -6.7630   21.6090 O   0  0  0  0  0  0  0  0  0  0  0  0
  -21.7870   -6.1530   22.8340 C   0  0  0  0  0  0  0  0  0  0  0  0
  -21.2110   -6.8040   23.9470 C   0  0  0  0  0  3  0  0  0  0  0  0
  -21.0640   -6.1130   25.1680 C   0  0  0  0  0  3  0  0  0  0  0  0
  -21.4860   -4.7730   25.2730 C   0  0  0  0  0  0  0  0  0  0  0  0
  -22.0520   -4.1210   24.1640 C   0  0  0  0  0  3  0  0  0  0  0  0
  -22.2010   -4.8090   22.9470 C   0  0  0  0  0  0  0  0  0  0  0  0
  -22.7260   -4.1710   21.8730 F   0  0  0  0  0  0  0  0  0  0  0  0
  -21.3410   -4.1040   26.4400 F   0  0  0  0  0  0  0  0  0  0  0  0
  -22.8070  -13.4410   21.3840 C   0  0  0  0  0  0  0  0  0  0  0  0
  -22.2750  -12.7070   22.3540 N   0  0  0  0  0  0  0  0  0  0  0  0
  -22.2570  -14.4670   20.9920 O   0  0  0  0  0  0  0  0  0  0  0  0
  -22.7380  -11.8780   22.6930 H   0  0  0  0  0  0  0  0  0  0  0  0
  -21.3910  -12.9810   22.7630 H   0  0  0  0  0  0  0  0  0  0  0  0
  -25.2220  -15.1880   20.1600 N   0  0  0  0  0  0  0  0  0  0  0  0
  -24.5250  -15.8380   20.5110 H   0  0  0  0  0  0  0  0  0  0  0  0
  -26.0310  -15.6420   19.7530 H   0  0  0  0  0  0  0  0  0  0  0  0
  -29.1280  -19.6640   19.7770 C   0  0  0  0  0  3  0  0  0  0  0  0
  -29.0780  -21.1010   20.5200 C   0  0  0  0  0  3  0  0  0  0  0  0
  -28.5400  -22.3880   19.7030 C   0  0  0  0  0  2  0  0  0  0  0  0
  -28.6320  -23.9040   20.2680 C   0  0  0  0  0  3  0  0  0  0  0  0
  -28.2070  -25.1060   19.2830 C   0  0  0  0  0  3  0  0  0  0  0  0
  -28.1750  -26.5260   19.7430 O   0  0  0  0  0  0  0  0  0  0  0  0
  -24.5350  -31.7580   23.0850 C   0  0  0  0  0  0  0  0  0  0  0  0
  -27.0220  -27.3400   19.7290 C   0  0  0  0  0  0  0  0  0  0  0  0
  -23.2550  -30.4160   21.4520 C   0  0  0  0  0  3  0  0  0  0  0  0
  -24.6440  -28.9420   19.8800 C   0  0  0  0  0  0  0  0  0  0  0  0
  -25.7750  -30.7620   21.1510 C   0  0  0  0  0  2  0  0  0  0  0  0
  -25.8310  -29.4100   20.4500 C   0  0  0  0  0  0  0  0  0  0  0  0
  -27.0170  -28.6210   20.3720 C   0  0  0  0  0  3  0  0  0  0  0  0
  -25.8130  -26.9410   19.1120 C   0  0  0  0  0  3  0  0  0  0  0  0
  -24.6410  -27.7210   19.1850 C   0  0  0  0  0  3  0  0  0  0  0  0
  -23.3970  -29.7920   20.0360 C   0  0  0  0  0  2  0  0  0  0  0  0
  -24.5420  -30.9970   21.9520 N   0  0  0  0  0  0  0  0  0  0  0  0
  -23.4800  -32.0070   23.6870 O   0  0  0  0  0  0  0  0  0  0  0  0
  -22.6520  -29.3590   22.4060 C   0  0  0  0  0  0  0  0  0  0  0  0
  -21.3380  -29.1130   22.2840 N   0  0  0  0  0  0  0  0  0  0  0  0
  -23.3640  -28.7580   23.2140 O   0  0  0  0  0  0  0  0  0  0  0  0
  -20.8200  -29.6500   21.6040 H   0  0  0  0  0  0  0  0  0  0  0  0
  -18.0370  -27.6950   22.7240 C   0  0  0  0  0  0  0  0  0  0  0  0
  -20.5670  -28.1270   23.0430 C   0  0  0  0  0  3  0  0  0  0  0  0
  -20.7760  -26.7040   22.4790 C   0  0  0  0  0  2  0  0  0  0  0  0
  -19.7200  -26.3000   21.4460 C   0  0  0  0  0  2  0  0  0  0  0  0
  -18.3180  -26.3570   22.0610 C   0  0  0  0  0  2  0  0  0  0  0  0
  -19.0940  -28.5340   23.1690 C   0  0  0  0  0  0  0  0  0  0  0  0
  -18.7770  -29.7820   23.7470 C   0  0  0  0  0  3  0  0  0  0  0  0
  -17.4370  -30.1950   23.8830 C   0  0  0  0  0  3  0  0  0  0  0  0
  -16.3960  -29.3530   23.4540 C   0  0  0  0  0  3  0  0  0  0  0  0
  -16.6960  -28.1050   22.8800 C   0  0  0  0  0  3  0  0  0  0  0  0
  -25.8440  -32.3740   23.6670 C   0  0  0  0  0  3  0  0  0  0  0  0
  -25.5420  -33.7470   24.0980 N   0  0  0  0  0  0  0  0  0  0  0  0
  -25.8010  -34.8460   23.3780 C   0  0  0  0  0  0  0  0  0  0  0  0
  -26.3950  -34.8130   22.2960 O   0  0  0  0  0  0  0  0  0  0  0  0
  -25.0000  -33.8440   24.9440 H   0  0  0  0  0  0  0  0  0  0  0  0
  -24.0190  -36.6190   23.2630 C   0  0  0  0  0  1  0  0  0  0  0  0
  -25.3290  -36.1980   23.9500 C   0  0  0  0  0  3  0  0  0  0  0  0
  -27.5030  -37.0890   24.6660 C   0  0  0  0  0  1  0  0  0  0  0  0
  -26.3310  -37.2770   23.8150 N   0  0  0  0  0  0  0  0  0  0  0  0
  -25.9210  -38.1820   24.0330 H   0  0  0  0  0  0  0  0  0  0  0  0
  -26.4460  -31.5380   24.8610 C   0  0  1  0  0  0  0  0  0  0  0  0
  -25.4120  -31.1830   25.9560 C   0  0  0  0  0  1  0  0  0  0  0  0
  -27.0590  -30.2150   24.3480 C   0  0  0  0  0  1  0  0  0  0  0  0
  -27.6000  -32.3280   25.5250 C   0  0  0  0  0  1  0  0  0  0  0  0
  1  2  2  0
  3 15  1  0
  4  9  1  0
  5  6  1  0
  5  4  1  0
  7  6  1  0
  7 22  1  0
  7  8  1  0
  9  3  1  0
  9  8  1  0
 10  3  2  0
 11 12  1  0
 13 16  1  0
 14 15  1  0
 14 13  1  0
 14  1  1  0
 15 11  1  0
 16 17  1  0
 16 12  1  0
 16 18  1  0
 19 20  2  0
 20 39  1  0
 21 20  1  0
 21 24  1  0
 22 23  1  0
 22 19  1  0
 23 21  2  0
 24 25  1  0
 25 26  2  0
 27 30  1  0
 27 26  1  0
 28 27  2  0
 29 28  1  0
 29 24  2  0
 30 31  1  0
 31 36  2  0
 31 32  1  0
 32 33  2  0
 33 34  1  0
 34 38  1  0
 35 34  2  0
 36 35  1  0
 37 36  1  0
 39 40  1  0
 40 42  1  0
 40 43  1  0
 41 39  2  0
 44 19  1  0
 44 45  1  0
 46 44  1  0
 47 48  2  0
 47  1  1  0
 49 50  1  0
 49 48  1  0
 51 52  1  0
 51 50  2  0
 53 64  2  0
 54 52  1  0
 54 59  1  0
 55 63  1  0
 55 65  1  0
 56 62  1  0
 56 58  1  0
 57 63  1  0
 58 57  1  0
 59 58  2  0
 60 61  1  0
 60 54  2  0
 61 56  2  0
 62 55  1  0
 63 53  1  0
 65 67  2  0
 66 65  1  0
 68 66  1  0
 69 78  2  0
 69 74  1  0
 70 66  1  0
 70 74  1  0
 71 70  1  0
 72 73  1  0
 72 71  1  0
 73 69  1  0
 74 75  2  0
 75 76  1  0
 77 76  2  0
 78 77  1  0
 79 53  1  0
 79 80  1  0
 79 89  1  0
 80 83  1  0
 81 85  1  0
 81 80  1  0
 82 81  2  0
 85 84  1  0
 87 85  1  0
 87 88  1  0
 87 86  1  0
 89 92  1  1
 89 90  1  0
 91 89  1  0
M  ISO  4   3 100  15 100  51 101  52 101
M  END
>  <TORSDO>  (75) 
F 21

>  <SCORE>  (75) 
-8.734

>  <name>  (75) 
75

>  <ligand_id>  (75) 
75

>  <original_smiles>  (75) 
[H]c1c([H])c([H])c2c(c1[H])C([H])([H])C([H])([H])C([H])([H])C2([H])N([H])C(=O)C1([H])N(C(=O)C([H])(N([H])C(=O)C([H])(N([H])C([H])([H])[H])C([H])([H])[H])C(C([H])([H])[H])(C([H])([H])[H])C([H])([H])[H])C([H])([H])c2c([H])c(OC([H])([H])C([H])([H])C([H])([H])C([H])([H])C([H])([H])C(=O)C3([H])N(C(=O)N4C([H])([H])C([H])([H])C([H])([H])C([H])(n5nc(-c6c([H])c([H])c(Oc7c([H])c([H])c(F)c([H])c7F)c([H])c6[H])c(C(=O)N([H])[H])c5N([H])[H])C4([H])[H])C([H])([H])C([H])([H])[N+]([H])([H])C3([H])[H])c([H])c([H])c2C1([H])[H]

>  <smiles>  (75) 
[H]c1c([H])c([H])c2c(c1[H])C([H])([H])C([H])([H])C([H])([H])C2([H])N([H])C(=O)C1([H])N(C(=O)C([H])(N([H])C(=O)C([H])(N([H])C([H])([H])[H])C([H])([H])[H])C(C([H])([H])[H])(C([H])([H])[H])C([H])([H])[H])C([H])([H])c2c([H])c(OC([H])([H])C([H])([H])C([H])([H])C([H])([H])C([H])([H])C(=O)C3([H])N(C(=O)N4C([H])([H])C([H])([H])C([H])([H])C([H])(n5nc(-c6c([H])c([H])c(Oc7c([H])c([H])c(F)c([H])c7F)c([H])c6[H])c(C(=O)N([H])[H])c5N([H])[H])C4([H])[H])C([H])([H])C([H])([H])[N+]([H])([H])C3([H])[H])c([H])c([H])c2C1([H])[H]

$$$$
76:0:0
     RDKit          3D

 94103  0  0  1  0  0  0  0  0999 V2000
  -28.6600  -22.9580   19.8380 C   0  0  0  0  0  3  0  0  0  0  0  0
  -30.5570  -15.2210   20.0430 C   0  0  0  0  0  0  0  0  0  0  0  0
  -30.3790  -12.8360   19.0950 C   0  0  0  0  0  2  0  0  0  0  0  0
  -29.4110  -12.6780   17.9020 C   0  0  0  0  0  2  0  0  0  0  0  0
  -27.9840  -12.4110   18.4060 C   0  0  0  0  0  2  0  0  0  0  0  0
  -27.5850  -13.3600   19.5630 C   0  0  0  0  0  3  0  0  0  0  0  0
  -28.6820  -13.4960   20.6410 C   0  0  0  0  0  2  0  0  0  0  0  0
  -29.8910  -13.9740   19.9530 N   0  0  0  0  0  0  0  0  0  0  0  0
  -31.7740  -15.1210   19.8200 O   0  0  0  0  0  0  0  0  0  0  0  0
  -28.2330  -18.7440   20.1940 C   0  0  0  0  0  2  0  0  0  0  0  0
  -30.3490  -20.1000   21.9430 C   0  0  0  0  0  2  0  0  0  0  0  0
  -28.6890  -17.2040   19.7800 C   0  0  0  0  0  2  0  0  0  0  0  0
  -30.8790  -17.8000   20.5700 C   0  0  0  0  0  2  0  0  0  0  0  0
  -29.7720  -21.5310   21.7090 C   0  0  0  0  0  2  0  0  0  0  0  0
  -30.4460  -19.4160   20.5640 C   0  0  0  0  0  3  0  0  0  0  0  0
  -29.1520  -20.0400   19.9090 C   0  0  0  0  0  3  0  0  0  0  0  0
  -29.9930  -16.5740   20.2500 N   0  0  0  0  0  0  0  0  0  0  0  0
  -28.8130  -21.4920   20.5730 N   0  0  2  0  0  4  0  0  0  0  0  0
  -27.9080  -21.3470   20.9970 H   0  0  0  0  0  0  0  0  0  0  0  0
  -25.2470  -13.8980   20.4280 C   0  0  0  0  0  0  0  0  0  0  0  0
  -24.2030  -13.1120   20.8280 C   0  0  0  0  0  0  0  0  0  0  0  0
  -24.6750  -11.7640   20.7620 C   0  0  0  0  0  0  0  0  0  0  0  0
  -26.2810  -13.0320   20.1270 N   0  0  0  0  0  0  0  0  0  0  0  0
  -25.9540  -11.7430   20.3990 N   0  0  0  0  0  0  0  0  0  0  0  0
  -23.9620  -10.4970   20.9620 C   0  0  0  0  0  0  0  0  0  0  0  0
  -24.4140   -9.5320   21.8890 C   0  0  0  0  0  3  0  0  0  0  0  0
  -23.6970   -8.3290   22.0790 C   0  0  0  0  0  3  0  0  0  0  0  0
  -22.5140   -8.0840   21.3420 C   0  0  0  0  0  0  0  0  0  0  0  0
  -22.0800   -9.0380   20.4050 C   0  0  0  0  0  3  0  0  0  0  0  0
  -22.7980  -10.2310   20.2130 C   0  0  0  0  0  3  0  0  0  0  0  0
  -21.7670   -6.9350   21.4420 O   0  0  0  0  0  0  0  0  0  0  0  0
  -21.7200   -6.2060   22.6040 C   0  0  0  0  0  0  0  0  0  0  0  0
  -21.2580   -6.7660   23.8150 C   0  0  0  0  0  3  0  0  0  0  0  0
  -21.1590   -5.9620   24.9690 C   0  0  0  0  0  3  0  0  0  0  0  0
  -21.5110   -4.6010   24.9120 C   0  0  0  0  0  0  0  0  0  0  0  0
  -21.9690   -4.0410   23.7070 C   0  0  0  0  0  3  0  0  0  0  0  0
  -22.0700   -4.8420   22.5550 C   0  0  0  0  0  0  0  0  0  0  0  0
  -22.4890   -4.2940   21.3900 F   0  0  0  0  0  0  0  0  0  0  0  0
  -21.4120   -3.8260   26.0180 F   0  0  0  0  0  0  0  0  0  0  0  0
  -22.8150  -13.5790   21.1540 C   0  0  0  0  0  0  0  0  0  0  0  0
  -22.1200  -12.8690   22.0340 N   0  0  0  0  0  0  0  0  0  0  0  0
  -22.3570  -14.6120   20.6640 O   0  0  0  0  0  0  0  0  0  0  0  0
  -22.5050  -12.0370   22.4550 H   0  0  0  0  0  0  0  0  0  0  0  0
  -21.1900  -13.1670   22.2950 H   0  0  0  0  0  0  0  0  0  0  0  0
  -25.3930  -15.2710   20.2610 N   0  0  0  0  0  0  0  0  0  0  0  0
  -24.6270  -15.9180   20.4110 H   0  0  0  0  0  0  0  0  0  0  0  0
  -26.2180  -15.7120   19.8770 H   0  0  0  0  0  0  0  0  0  0  0  0
  -29.9230  -23.2530   18.9980 C   0  0  0  0  0  2  0  0  0  0  0  0
  -29.6210  -24.0040   17.6870 C   0  0  0  0  0  2  0  0  0  0  0  0
  -30.8810  -24.2700   16.8540 C   0  0  0  0  0  2  0  0  0  0  0  0
  -31.8440  -25.4070   14.7770 C   0  0  0  0  0  1  0  0  0  0  0  0
  -30.5760  -25.0420   15.5620 C   0  0  0  0  0  2  0  0  0  0  0  0
  -28.0840  -24.4520   20.5800 C   0  0  0  0  0  2  0  0  0  0  0  0
  -28.2740  -26.0270   20.2590 O   0  0  0  0  0  0  0  0  0  0  0  0
  -24.6510  -31.8730   23.2560 C   0  0  0  0  0  0  0  0  0  0  0  0
  -27.2310  -27.0610   20.2640 C   0  0  0  0  0  0  0  0  0  0  0  0
  -23.4640  -30.4690   21.6200 C   0  0  0  0  0  3  0  0  0  0  0  0
  -24.9190  -28.8770   20.2090 C   0  0  0  0  0  0  0  0  0  0  0  0
  -26.0260  -30.7120   21.4700 C   0  0  0  0  0  2  0  0  0  0  0  0
  -26.1030  -29.3060   20.8230 C   0  0  0  0  0  0  0  0  0  0  0  0
  -27.2600  -28.4200   20.8220 C   0  0  0  0  0  3  0  0  0  0  0  0
  -26.0180  -26.7560   19.6130 C   0  0  0  0  0  3  0  0  0  0  0  0
  -24.8960  -27.6200   19.5860 C   0  0  0  0  0  3  0  0  0  0  0  0
  -23.6970  -29.7880   20.2450 C   0  0  0  0  0  2  0  0  0  0  0  0
  -24.7350  -31.0430   22.1690 N   0  0  0  0  0  0  0  0  0  0  0  0
  -23.5610  -32.1580   23.7770 O   0  0  0  0  0  0  0  0  0  0  0  0
  -22.7800  -29.4680   22.5840 C   0  0  0  0  0  0  0  0  0  0  0  0
  -21.4520  -29.2950   22.4560 N   0  0  0  0  0  0  0  0  0  0  0  0
  -23.4490  -28.8470   23.4150 O   0  0  0  0  0  0  0  0  0  0  0  0
  -20.9660  -29.8440   21.7620 H   0  0  0  0  0  0  0  0  0  0  0  0
  -18.0740  -28.0790   22.9600 C   0  0  0  0  0  0  0  0  0  0  0  0
  -20.6310  -28.3570   23.2300 C   0  0  0  0  0  3  0  0  0  0  0  0
  -20.7430  -26.9240   22.6620 C   0  0  0  0  0  2  0  0  0  0  0  0
  -19.6450  -26.5910   21.6460 C   0  0  0  0  0  2  0  0  0  0  0  0
  -18.2610  -26.7290   22.2860 C   0  0  0  0  0  2  0  0  0  0  0  0
  -19.1870  -28.8500   23.3890 C   0  0  0  0  0  0  0  0  0  0  0  0
  -18.9580  -30.1100   23.9840 C   0  0  0  0  0  3  0  0  0  0  0  0
  -17.6490  -30.6010   24.1490 C   0  0  0  0  0  3  0  0  0  0  0  0
  -16.5500  -29.8280   23.7340 C   0  0  0  0  0  3  0  0  0  0  0  0
  -16.7640  -28.5680   23.1470 C   0  0  0  0  0  3  0  0  0  0  0  0
  -25.9210  -32.5220   23.8880 C   0  0  0  0  0  3  0  0  0  0  0  0
  -25.6020  -33.9240   24.2000 N   0  0  0  0  0  0  0  0  0  0  0  0
  -25.9400  -34.9770   23.4410 C   0  0  0  0  0  0  0  0  0  0  0  0
  -26.6170  -34.8650   22.4150 O   0  0  0  0  0  0  0  0  0  0  0  0
  -25.0000  -34.0830   24.9950 H   0  0  0  0  0  0  0  0  0  0  0  0
  -24.2200  -36.7760   23.0680 C   0  0  0  0  0  1  0  0  0  0  0  0
  -25.4540  -36.3700   23.8880 C   0  0  0  0  0  3  0  0  0  0  0  0
  -27.5830  -37.2590   24.7320 C   0  0  0  0  0  1  0  0  0  0  0  0
  -26.4920  -37.4190   23.7760 N   0  0  0  0  0  0  0  0  0  0  0  0
  -26.0860  -38.3420   23.9090 H   0  0  0  0  0  0  0  0  0  0  0  0
  -26.4170  -31.7730   25.1870 C   0  0  1  0  0  0  0  0  0  0  0  0
  -25.3090  -31.5570   26.2440 C   0  0  0  0  0  1  0  0  0  0  0  0
  -27.0030  -30.3860   24.8350 C   0  0  0  0  0  1  0  0  0  0  0  0
  -27.5600  -32.5770   25.8500 C   0  0  0  0  0  1  0  0  0  0  0  0
  1 48  1  0
  1 18  1  0
  1 53  1  0
  2 17  1  0
  3  8  1  0
  4  5  1  0
  4  3  1  0
  6  5  1  0
  6 23  1  0
  6  7  1  0
  8  2  1  0
  8  7  1  0
  9  2  2  0
 12 10  1  0
 12 17  1  0
 14 11  1  0
 15 13  1  0
 15 11  1  0
 16 10  1  0
 16 15  1  0
 16 18  1  0
 17 13  1  0
 18 19  1  1
 18 14  1  0
 20 21  2  0
 21 40  1  0
 22 21  1  0
 22 25  1  0
 23 24  1  0
 23 20  1  0
 24 22  2  0
 25 26  1  0
 26 27  2  0
 28 31  1  0
 28 27  1  0
 29 28  2  0
 30 29  1  0
 30 25  2  0
 31 32  1  0
 32 33  1  0
 33 34  2  0
 35 34  1  0
 35 39  1  0
 36 35  2  0
 37 32  2  0
 37 36  1  0
 38 37  1  0
 40 41  1  0
 41 44  1  0
 41 43  1  0
 42 40  2  0
 45 46  1  0
 45 20  1  0
 47 45  1  0
 49 48  1  0
 50 49  1  0
 51 52  1  0
 52 50  1  0
 54 56  1  0
 54 53  1  0
 55 66  2  0
 56 61  1  0
 57 65  1  0
 57 67  1  0
 58 64  1  0
 58 60  1  0
 59 65  1  0
 60 59  1  0
 61 60  2  0
 62 56  2  0
 63 62  1  0
 63 58  2  0
 64 57  1  0
 65 55  1  0
 67 69  2  0
 68 67  1  0
 70 68  1  0
 71 80  2  0
 71 76  1  0
 72 68  1  0
 72 76  1  0
 73 72  1  0
 74 75  1  0
 74 73  1  0
 75 71  1  0
 76 77  2  0
 77 78  1  0
 79 78  2  0
 80 79  1  0
 81 55  1  0
 81 82  1  0
 81 91  1  0
 82 85  1  0
 83 87  1  0
 83 82  1  0
 84 83  2  0
 87 86  1  0
 89 87  1  0
 89 90  1  0
 89 88  1  0
 91 94  1  1
 91 92  1  0
 93 91  1  0
M  ISO  4   2 100  17 100  53 101  54 101
M  END
>  <TORSDO>  (76) 
F 21

>  <SCORE>  (76) 
-14.138

>  <name>  (76) 
76

>  <ligand_id>  (76) 
76

>  <original_smiles>  (76) 
[H]c1c([H])c([H])c2c(c1[H])C([H])([H])C([H])([H])C([H])([H])C2([H])N([H])C(=O)C1([H])N(C(=O)C([H])(N([H])C(=O)C([H])(N([H])C([H])([H])[H])C([H])([H])[H])C(C([H])([H])[H])(C([H])([H])[H])C([H])([H])[H])C([H])([H])c2c([H])c(OC([H])([H])C([H])(C([H])([H])C([H])([H])C([H])([H])C([H])([H])C([H])([H])[H])[N+]3([H])C([H])([H])C([H])([H])C4([H])C([H])([H])N(C(=O)N5C([H])([H])C([H])([H])C([H])([H])C([H])(n6nc(-c7c([H])c([H])c(Oc8c([H])c([H])c(F)c([H])c8F)c([H])c7[H])c(C(=O)N([H])[H])c6N([H])[H])C5([H])[H])C([H])([H])C([H])([H])C43[H])c([H])c([H])c2C1([H])[H]

>  <smiles>  (76) 
[H]c1c([H])c([H])c2c(c1[H])C([H])([H])C([H])([H])C([H])([H])C2([H])N([H])C(=O)C1([H])N(C(=O)C([H])(N([H])C(=O)C([H])(N([H])C([H])([H])[H])C([H])([H])[H])C(C([H])([H])[H])(C([H])([H])[H])C([H])([H])[H])C([H])([H])c2c([H])c(OC([H])([H])C([H])(C([H])([H])C([H])([H])C([H])([H])C([H])([H])C([H])([H])[H])[N+]3([H])C([H])([H])C([H])([H])C4([H])C([H])([H])N(C(=O)N5C([H])([H])C([H])([H])C([H])([H])C([H])(n6nc(-c7c([H])c([H])c(Oc8c([H])c([H])c(F)c([H])c8F)c([H])c7[H])c(C(=O)N([H])[H])c6N([H])[H])C5([H])[H])C([H])([H])C([H])([H])C43[H])c([H])c([H])c2C1([H])[H]

$$$$
77:0:0
     RDKit          3D

 88 96  0  0  1  0  0  0  0  0999 V2000
  -28.4270  -21.4570   20.6390 N   0  0  0  0  0  4  0  0  0  0  0  0
  -28.2940  -21.4350   21.6380 H   0  0  0  0  0  0  0  0  0  0  0  0
  -27.4940  -21.3950   20.2590 H   0  0  0  0  0  0  0  0  0  0  0  0
  -30.5160  -15.1950   20.2960 C   0  0  0  0  0  0  0  0  0  0  0  0
  -30.3760  -12.8050   19.3580 C   0  0  0  0  0  2  0  0  0  0  0  0
  -29.4420  -12.6300   18.1390 C   0  0  0  0  0  2  0  0  0  0  0  0
  -28.0000  -12.3760   18.6050 C   0  0  0  0  0  2  0  0  0  0  0  0
  -27.5710  -13.3400   19.7410 C   0  0  0  0  0  3  0  0  0  0  0  0
  -28.6350  -13.4810   20.8520 C   0  0  0  0  0  2  0  0  0  0  0  0
  -29.8640  -13.9450   20.1990 N   0  0  0  0  0  0  0  0  0  0  0  0
  -31.7380  -15.1150   20.0970 O   0  0  0  0  0  0  0  0  0  0  0  0
  -28.1280  -18.6930   20.2560 C   0  0  0  0  0  2  0  0  0  0  0  0
  -30.2020  -19.2830   21.1030 C   0  0  0  0  0  2  0  0  0  0  0  0
  -28.6400  -17.1440   19.9250 C   0  0  0  0  0  2  0  0  0  0  0  0
  -30.7830  -17.7880   20.6990 C   0  0  0  0  0  2  0  0  0  0  0  0
  -29.0780  -20.0060   20.2220 C   0  0  0  0  0  3  0  0  0  0  0  0
  -29.9200  -16.5350   20.4850 N   0  0  0  0  0  0  0  0  0  0  0  0
  -25.2100  -13.8850   20.5360 C   0  0  0  0  0  0  0  0  0  0  0  0
  -24.1560  -13.0990   20.9110 C   0  0  0  0  0  0  0  0  0  0  0  0
  -24.6290  -11.7530   20.8590 C   0  0  0  0  0  0  0  0  0  0  0  0
  -26.2540  -13.0170   20.2680 N   0  0  0  0  0  0  0  0  0  0  0  0
  -25.9160  -11.7270   20.5310 N   0  0  0  0  0  0  0  0  0  0  0  0
  -23.9100  -10.4840   21.0380 C   0  0  0  0  0  0  0  0  0  0  0  0
  -24.3360   -9.5180   21.9740 C   0  0  0  0  0  3  0  0  0  0  0  0
  -23.6120   -8.3180   22.1450 C   0  0  0  0  0  3  0  0  0  0  0  0
  -22.4470   -8.0770   21.3780 C   0  0  0  0  0  0  0  0  0  0  0  0
  -22.0410   -9.0330   20.4290 C   0  0  0  0  0  3  0  0  0  0  0  0
  -22.7670  -10.2230   20.2570 C   0  0  0  0  0  3  0  0  0  0  0  0
  -21.6950   -6.9310   21.4580 O   0  0  0  0  0  0  0  0  0  0  0  0
  -21.6090   -6.2030   22.6180 C   0  0  0  0  0  0  0  0  0  0  0  0
  -21.1110   -6.7650   23.8140 C   0  0  0  0  0  3  0  0  0  0  0  0
  -20.9780   -5.9650   24.9660 C   0  0  0  0  0  3  0  0  0  0  0  0
  -21.3310   -4.6010   24.9220 C   0  0  0  0  0  0  0  0  0  0  0  0
  -21.8220   -4.0400   23.7300 C   0  0  0  0  0  3  0  0  0  0  0  0
  -21.9590   -4.8400   22.5810 C   0  0  0  0  0  0  0  0  0  0  0  0
  -22.4130   -4.2870   21.4290 F   0  0  0  0  0  0  0  0  0  0  0  0
  -21.1950   -3.8300   26.0250 F   0  0  0  0  0  0  0  0  0  0  0  0
  -22.7620  -13.5680   21.1990 C   0  0  0  0  0  0  0  0  0  0  0  0
  -22.0420  -12.8590   22.0640 N   0  0  0  0  0  0  0  0  0  0  0  0
  -22.3200  -14.6000   20.6990 O   0  0  0  0  0  0  0  0  0  0  0  0
  -22.4100  -12.0190   22.4860 H   0  0  0  0  0  0  0  0  0  0  0  0
  -21.1090  -13.1610   22.3050 H   0  0  0  0  0  0  0  0  0  0  0  0
  -25.3570  -15.2570   20.3670 N   0  0  0  0  0  0  0  0  0  0  0  0
  -24.5770  -15.8960   20.4770 H   0  0  0  0  0  0  0  0  0  0  0  0
  -26.1810  -15.7050   19.9920 H   0  0  0  0  0  0  0  0  0  0  0  0
  -28.8550  -22.9880   20.2630 C   0  0  0  0  0  3  0  0  0  0  0  0
  -27.8740  -24.4330   20.4390 C   0  0  0  0  0  3  0  0  0  0  0  0
  -28.1840  -26.0100   20.2860 O   0  0  0  0  0  0  0  0  0  0  0  0
  -24.6290  -31.8790   23.2430 C   0  0  0  0  0  0  0  0  0  0  0  0
  -27.1660  -27.0670   20.2330 C   0  0  0  0  0  0  0  0  0  0  0  0
  -23.4250  -30.4880   21.6050 C   0  0  0  0  0  3  0  0  0  0  0  0
  -24.8690  -28.9010   20.1770 C   0  0  0  0  0  0  0  0  0  0  0  0
  -25.9870  -30.7190   21.4480 C   0  0  0  0  0  2  0  0  0  0  0  0
  -26.0540  -29.3170   20.7940 C   0  0  0  0  0  0  0  0  0  0  0  0
  -27.2030  -28.4200   20.7990 C   0  0  0  0  0  3  0  0  0  0  0  0
  -25.9560  -26.7870   19.5580 C   0  0  0  0  0  3  0  0  0  0  0  0
  -24.8400  -27.6530   19.5370 C   0  0  0  0  0  3  0  0  0  0  0  0
  -23.6500  -29.8160   20.2250 C   0  0  0  0  0  2  0  0  0  0  0  0
  -24.7010  -31.0510   22.1550 N   0  0  0  0  0  0  0  0  0  0  0  0
  -23.5430  -32.1690   23.7710 O   0  0  0  0  0  0  0  0  0  0  0  0
  -22.7390  -29.4820   22.5690 C   0  0  0  0  0  0  0  0  0  0  0  0
  -21.4120  -29.3120   22.4440 N   0  0  0  0  0  0  0  0  0  0  0  0
  -23.4090  -28.8590   23.3970 O   0  0  0  0  0  0  0  0  0  0  0  0
  -20.9280  -29.8700   21.7540 H   0  0  0  0  0  0  0  0  0  0  0  0
  -18.0310  -28.1040   22.9440 C   0  0  0  0  0  0  0  0  0  0  0  0
  -20.5910  -28.3750   23.2140 C   0  0  0  0  0  3  0  0  0  0  0  0
  -20.6950  -26.9410   22.6460 C   0  0  0  0  0  2  0  0  0  0  0  0
  -19.5970  -26.6140   21.6300 C   0  0  0  0  0  2  0  0  0  0  0  0
  -18.2130  -26.7540   22.2710 C   0  0  0  0  0  2  0  0  0  0  0  0
  -19.1470  -28.8710   23.3720 C   0  0  0  0  0  0  0  0  0  0  0  0
  -18.9230  -30.1300   23.9670 C   0  0  0  0  0  3  0  0  0  0  0  0
  -17.6160  -30.6260   24.1360 C   0  0  0  0  0  3  0  0  0  0  0  0
  -16.5140  -29.8560   23.7250 C   0  0  0  0  0  3  0  0  0  0  0  0
  -16.7230  -28.5980   23.1330 C   0  0  0  0  0  3  0  0  0  0  0  0
  -25.9060  -32.5150   23.8690 C   0  0  0  0  0  3  0  0  0  0  0  0
  -25.5950  -33.9160   24.2010 N   0  0  0  0  0  0  0  0  0  0  0  0
  -25.9230  -34.9730   23.4460 C   0  0  0  0  0  0  0  0  0  0  0  0
  -26.5810  -34.8730   22.4080 O   0  0  0  0  0  0  0  0  0  0  0  0
  -25.0150  -34.0710   25.0110 H   0  0  0  0  0  0  0  0  0  0  0  0
  -24.1990  -36.7790   23.1070 C   0  0  0  0  0  1  0  0  0  0  0  0
  -25.4390  -36.3620   23.9130 C   0  0  0  0  0  3  0  0  0  0  0  0
  -27.5750  -37.2430   24.7420 C   0  0  0  0  0  1  0  0  0  0  0  0
  -26.4730  -37.4130   23.8000 N   0  0  0  0  0  0  0  0  0  0  0  0
  -26.0700  -38.3340   23.9520 H   0  0  0  0  0  0  0  0  0  0  0  0
  -26.4140  -31.7510   25.1560 C   0  0  1  0  0  0  0  0  0  0  0  0
  -25.3150  -31.5280   26.2200 C   0  0  0  0  0  1  0  0  0  0  0  0
  -26.9950  -30.3690   24.7820 C   0  0  0  0  0  1  0  0  0  0  0  0
  -27.5610  -32.5500   25.8190 C   0  0  0  0  0  1  0  0  0  0  0  0
  1  2  1  0
  3  1  1  0
  4 17  1  0
  5 10  1  0
  6  7  1  0
  6  5  1  0
  8  7  1  0
  8 21  1  0
  8  9  1  0
 10  4  1  0
 10  9  1  0
 11  4  2  0
 14 12  1  0
 14 17  1  0
 15 13  1  0
 16 12  1  0
 16  1  1  0
 16 13  1  0
 17 15  1  0
 18 19  2  0
 19 38  1  0
 20 19  1  0
 20 23  1  0
 21 22  1  0
 21 18  1  0
 22 20  2  0
 23 24  1  0
 24 25  2  0
 26 29  1  0
 26 25  1  0
 27 26  2  0
 28 27  1  0
 28 23  2  0
 29 30  1  0
 30 31  1  0
 31 32  2  0
 33 32  1  0
 33 37  1  0
 34 33  2  0
 35 30  2  0
 35 34  1  0
 36 35  1  0
 38 39  1  0
 39 42  1  0
 39 41  1  0
 40 38  2  0
 43 44  1  0
 43 18  1  0
 45 43  1  0
 46 47  2  0
 46  1  1  0
 48 47  1  0
 49 60  2  0
 50 48  1  0
 50 55  1  0
 51 59  1  0
 51 61  1  0
 52 58  1  0
 52 54  1  0
 53 59  1  0
 54 55  2  0
 54 53  1  0
 56 50  2  0
 57 56  1  0
 57 52  2  0
 58 51  1  0
 59 49  1  0
 61 63  2  0
 62 61  1  0
 64 62  1  0
 65 74  2  0
 65 70  1  0
 66 62  1  0
 66 70  1  0
 67 66  1  0
 68 69  1  0
 68 67  1  0
 69 65  1  0
 70 71  2  0
 71 72  1  0
 73 72  2  0
 74 73  1  0
 75 49  1  0
 75 76  1  0
 75 85  1  0
 76 79  1  0
 77 81  1  0
 77 76  1  0
 78 77  2  0
 81 80  1  0
 83 81  1  0
 83 84  1  0
 83 82  1  0
 85 88  1  1
 85 86  1  0
 87 85  1  0
M  ISO  4   4 100  17 100  47 101  48 101
M  END
>  <TORSDO>  (77) 
F 18

>  <SCORE>  (77) 
-15.515

>  <name>  (77) 
77

>  <ligand_id>  (77) 
77

>  <original_smiles>  (77) 
[H]c1c([H])c([H])c2c(c1[H])C([H])([H])C([H])([H])C([H])([H])C2([H])N([H])C(=O)C1([H])N(C(=O)C([H])(N([H])C(=O)C([H])(N([H])C([H])([H])[H])C([H])([H])[H])C(C([H])([H])[H])(C([H])([H])[H])C([H])([H])[H])C([H])([H])c2c([H])c(OC([H])([H])C([H])([H])[N+]([H])([H])C3([H])C([H])([H])C([H])([H])N(C(=O)N4C([H])([H])C([H])([H])C([H])([H])C([H])(n5nc(-c6c([H])c([H])c(Oc7c([H])c([H])c(F)c([H])c7F)c([H])c6[H])c(C(=O)N([H])[H])c5N([H])[H])C4([H])[H])C([H])([H])C3([H])[H])c([H])c([H])c2C1([H])[H]

>  <smiles>  (77) 
[H]c1c([H])c([H])c2c(c1[H])C([H])([H])C([H])([H])C([H])([H])C2([H])N([H])C(=O)C1([H])N(C(=O)C([H])(N([H])C(=O)C([H])(N([H])C([H])([H])[H])C([H])([H])[H])C(C([H])([H])[H])(C([H])([H])[H])C([H])([H])[H])C([H])([H])c2c([H])c(OC([H])([H])C([H])([H])[N+]([H])([H])C3([H])C([H])([H])C([H])([H])N(C(=O)N4C([H])([H])C([H])([H])C([H])([H])C([H])(n5nc(-c6c([H])c([H])c(Oc7c([H])c([H])c(F)c([H])c7F)c([H])c6[H])c(C(=O)N([H])[H])c5N([H])[H])C4([H])[H])C([H])([H])C3([H])[H])c([H])c([H])c2C1([H])[H]

$$$$
78:0:0
     RDKit          3D

101111  0  0  1  0  0  0  0  0999 V2000
  -24.4740  -20.6450   19.4180 C   0  0  0  0  0  3  0  0  0  0  0  0
  -23.6800  -23.8540   17.6900 C   0  0  0  0  0  2  0  0  0  0  0  0
  -25.7180  -25.3770   18.6460 C   0  0  0  0  0  2  0  0  0  0  0  0
  -25.1840  -25.0190   20.9600 C   0  0  0  0  0  2  0  0  0  0  0  0
  -24.4920  -22.5460   17.8890 C   0  0  0  0  0  2  0  0  0  0  0  0
  -23.6810  -22.8900   20.1500 C   0  0  0  0  0  2  0  0  0  0  0  0
  -24.2240  -24.8550   18.6970 C   0  0  0  0  0  3  0  0  0  0  0  0
  -23.9640  -24.4430   20.1680 C   0  0  0  0  0  3  0  0  0  0  0  0
  -26.5070  -25.1040   20.0470 C   0  0  0  0  0  3  0  0  0  0  0  0
  -24.6110  -22.0970   19.2860 N   0  0  0  0  0  0  0  0  0  0  0  0
  -28.1220  -25.1320   20.3910 O   0  0  0  0  0  0  0  0  0  0  0  0
  -26.3440  -29.8600   25.1640 C   0  0  0  0  0  0  0  0  0  0  0  0
  -28.5810  -26.3920   20.6980 C   0  0  0  0  0  0  0  0  0  0  0  0
  -25.3520  -29.3900   22.9430 C   0  0  0  0  0  3  0  0  0  0  0  0
  -26.9340  -28.4950   21.1790 C   0  0  0  0  0  0  0  0  0  0  0  0
  -27.8640  -29.1360   23.3730 C   0  0  0  0  0  2  0  0  0  0  0  0
  -27.8990  -28.1910   22.1760 C   0  0  0  0  0  0  0  0  0  0  0  0
  -28.6570  -27.0040   21.9830 C   0  0  0  0  0  3  0  0  0  0  0  0
  -28.2690  -27.2190   19.6380 C   0  0  0  0  0  3  0  0  0  0  0  0
  -27.2520  -28.1310   19.8580 C   0  0  0  0  0  3  0  0  0  0  0  0
  -25.7830  -29.3840   21.4360 C   0  0  0  0  0  2  0  0  0  0  0  0
  -26.5170  -29.4510   23.8890 N   0  0  0  0  0  0  0  0  0  0  0  0
  -25.2330  -30.1670   25.5920 O   0  0  0  0  0  0  0  0  0  0  0  0
  -24.3220  -28.2680   23.3090 C   0  0  0  0  0  0  0  0  0  0  0  0
  -23.0760  -28.3800   22.7610 N   0  0  0  0  0  0  0  0  0  0  0  0
  -24.5970  -27.3460   24.0780 O   0  0  0  0  0  0  0  0  0  0  0  0
  -22.9170  -29.1840   22.1530 H   0  0  0  0  0  0  0  0  0  0  0  0
  -19.4240  -27.6850   22.2810 C   0  0  0  0  0  0  0  0  0  0  0  0
  -21.9240  -27.4440   22.9900 C   0  0  0  0  0  3  0  0  0  0  0  0
  -21.9230  -26.0600   22.2300 C   0  0  0  0  0  2  0  0  0  0  0  0
  -20.9820  -25.9280   21.0220 C   0  0  0  0  0  2  0  0  0  0  0  0
  -19.5310  -26.4410   21.3490 C   0  0  0  0  0  2  0  0  0  0  0  0
  -20.5450  -28.1530   22.9910 C   0  0  0  0  0  0  0  0  0  0  0  0
  -20.3090  -29.3400   23.8160 C   0  0  0  0  0  3  0  0  0  0  0  0
  -19.0220  -29.9080   23.9570 C   0  0  0  0  0  3  0  0  0  0  0  0
  -17.9170  -29.3610   23.2710 C   0  0  0  0  0  3  0  0  0  0  0  0
  -18.1070  -28.2840   22.3720 C   0  0  0  0  0  3  0  0  0  0  0  0
  -27.5460  -30.0120   26.1130 C   0  0  0  0  0  3  0  0  0  0  0  0
  -27.3700  -31.2800   26.8260 N   0  0  0  0  0  0  0  0  0  0  0  0
  -28.0590  -32.4160   26.6120 C   0  0  0  0  0  0  0  0  0  0  0  0
  -28.9960  -32.5020   25.8090 O   0  0  0  0  0  0  0  0  0  0  0  0
  -26.6030  -31.2940   27.4740 H   0  0  0  0  0  0  0  0  0  0  0  0
  -26.7850  -34.5860   26.5900 C   0  0  0  0  0  1  0  0  0  0  0  0
  -27.6430  -33.6480   27.4520 C   0  0  0  0  0  3  0  0  0  0  0  0
  -29.5150  -33.6820   29.0410 C   0  0  0  0  0  1  0  0  0  0  0  0
  -28.7880  -34.4040   28.0000 N   0  0  0  0  0  0  0  0  0  0  0  0
  -28.4830  -35.2900   28.3840 H   0  0  0  0  0  0  0  0  0  0  0  0
  -27.7290  -28.8060   27.1220 C   0  0  1  0  0  0  0  0  0  0  0  0
  -26.4150  -28.4570   27.8660 C   0  0  0  0  0  1  0  0  0  0  0  0
  -28.1950  -27.5240   26.3850 C   0  0  0  0  0  1  0  0  0  0  0  0
  -28.8320  -29.1490   28.1380 C   0  0  0  0  0  1  0  0  0  0  0  0
  -25.7930  -19.7660   19.0400 C   0  0  0  0  0  3  0  0  0  0  0  0
  -25.8690  -18.2180   19.2310 N   0  0  2  0  0  4  0  0  0  0  0  0
  -25.7030  -17.8240   18.3250 H   0  0  0  0  0  0  0  0  0  0  0  0
  -24.6410  -17.8000   20.0340 C   0  0  0  0  0  2  0  0  0  0  0  0
  -21.7200  -14.6000   19.1730 C   0  0  0  0  0  2  0  0  0  0  0  0
  -22.0550  -14.8240   20.6380 C   0  0  0  0  0  2  0  0  0  0  0  0
  -23.0320  -14.4190   18.4130 C   0  0  0  0  0  2  0  0  0  0  0  0
  -22.7510  -16.1910   20.7870 C   0  0  0  0  0  2  0  0  0  0  0  0
  -24.0690  -15.5670   18.6270 C   0  0  0  0  0  2  0  0  0  0  0  0
  -24.1150  -16.3030   20.0210 C   0  0  0  0  0  3  0  0  0  0  0  0
  -27.2170  -17.5590   19.8250 C   0  0  0  0  0  2  0  0  0  0  0  0
  -28.2580  -16.3120   19.1880 C   0  0  0  0  0  2  0  0  0  0  0  0
  -30.5780  -14.5810   19.8780 C   0  0  0  0  0  0  0  0  0  0  0  0
  -31.2380  -12.1310   19.6400 C   0  0  0  0  0  2  0  0  0  0  0  0
  -30.3350  -11.5510   18.5110 C   0  0  0  0  0  2  0  0  0  0  0  0
  -28.9040  -11.2510   19.0320 C   0  0  0  0  0  2  0  0  0  0  0  0
  -28.3730  -12.4080   19.9210 C   0  0  0  0  0  3  0  0  0  0  0  0
  -29.3880  -12.7540   21.0190 C   0  0  0  0  0  2  0  0  0  0  0  0
  -30.5220  -13.2460   20.3160 N   0  0  0  0  0  0  0  0  0  0  0  0
  -31.6300  -14.8890   19.3510 O   0  0  0  0  0  0  0  0  0  0  0  0
  -29.3060  -15.3450   20.0070 N   0  0  0  0  0  0  0  0  0  0  0  0
  -28.7330  -14.8600   20.6660 H   0  0  0  0  0  0  0  0  0  0  0  0
  -26.2280  -13.0800   21.0820 C   0  0  0  0  0  0  0  0  0  0  0  0
  -25.1490  -12.3380   21.4600 C   0  0  0  0  0  0  0  0  0  0  0  0
  -25.4300  -11.0020   21.0900 C   0  0  0  0  0  0  0  0  0  0  0  0
  -27.0840  -12.1620   20.5000 N   0  0  0  0  0  0  0  0  0  0  0  0
  -26.6490  -10.8910   20.5920 N   0  0  0  0  0  0  0  0  0  0  0  0
  -24.5920   -9.7990   21.1380 C   0  0  0  0  0  0  0  0  0  0  0  0
  -25.0010   -8.6400   21.8310 C   0  0  0  0  0  3  0  0  0  0  0  0
  -24.1650   -7.5030   21.8620 C   0  0  0  0  0  3  0  0  0  0  0  0
  -22.9080   -7.5320   21.2130 C   0  0  0  0  0  0  0  0  0  0  0  0
  -22.5210   -8.6800   20.4990 C   0  0  0  0  0  3  0  0  0  0  0  0
  -23.3530   -9.8060   20.4630 C   0  0  0  0  0  3  0  0  0  0  0  0
  -22.0490   -6.4670   21.1690 O   0  0  0  0  0  0  0  0  0  0  0  0
  -21.9420   -5.5920   22.2210 C   0  0  0  0  0  0  0  0  0  0  0  0
  -21.5760   -6.0230   23.5140 C   0  0  0  0  0  3  0  0  0  0  0  0
  -21.4060   -5.0780   24.5470 C   0  0  0  0  0  3  0  0  0  0  0  0
  -21.6000   -3.7100   24.2860 C   0  0  0  0  0  0  0  0  0  0  0  0
  -21.9540   -3.2790   22.9980 C   0  0  0  0  0  3  0  0  0  0  0  0
  -22.1240   -4.2180   21.9660 C   0  0  0  0  0  0  0  0  0  0  0  0
  -22.4530   -3.8000   20.7200 F   0  0  0  0  0  0  0  0  0  0  0  0
  -21.4250   -2.8020   25.2740 F   0  0  0  0  0  0  0  0  0  0  0  0
  -23.8560  -12.8750   22.0040 C   0  0  0  0  0  0  0  0  0  0  0  0
  -23.2190  -12.1490   22.9210 N   0  0  0  0  0  0  0  0  0  0  0  0
  -23.4290  -13.9530   21.6380 O   0  0  0  0  0  0  0  0  0  0  0  0
  -23.5590  -11.2560   23.2300 H   0  0  0  0  0  0  0  0  0  0  0  0
  -22.3540  -12.4940   23.3120 H   0  0  0  0  0  0  0  0  0  0  0  0
  -26.5220  -14.4290   21.1550 N   0  0  0  0  0  0  0  0  0  0  0  0
  -25.6730  -14.9810   21.2650 H   0  0  0  0  0  0  0  0  0  0  0  0
  -27.1510  -14.7900   20.4490 H   0  0  0  0  0  0  0  0  0  0  0  0
  2  5  1  0
  3  7  1  0
  3  9  1  0
  5 10  1  0
  7  2  1  0
  7  8  1  0
  8  6  1  0
  8  4  1  0
  9 11  1  0
  9  4  1  0
 10  1  1  0
 10  6  1  0
 11 13  1  0
 12 23  2  0
 13 18  1  0
 14 24  1  0
 14 22  1  0
 15 21  1  0
 15 17  1  0
 16 22  1  0
 17 16  1  0
 18 17  2  0
 19 20  1  0
 19 13  2  0
 20 15  2  0
 21 14  1  0
 22 12  1  0
 24 26  2  0
 25 24  1  0
 27 25  1  0
 28 37  2  0
 28 33  1  0
 29 25  1  0
 29 33  1  0
 30 29  1  0
 31 32  1  0
 31 30  1  0
 32 28  1  0
 33 34  2  0
 34 35  1  0
 36 35  2  0
 37 36  1  0
 38 12  1  0
 38 39  1  0
 38 48  1  0
 39 42  1  0
 40 39  1  0
 40 44  1  0
 41 40  2  0
 44 43  1  0
 44 46  1  0
 46 47  1  0
 46 45  1  0
 48 49  1  1
 48 51  1  0
 50 48  1  0
 52 53  1  0
 52  1  2  0
 53 62  1  0
 53 55  1  0
 53 54  1  6
 56 57  1  0
 57 59  1  0
 58 60  1  0
 58 56  1  0
 60 61  1  0
 61 55  1  0
 61 59  1  0
 63 62  1  0
 63 72  1  0
 64 72  1  0
 64 70  1  0
 65 70  1  0
 66 67  1  0
 66 65  1  0
 68 67  1  0
 68 77  1  0
 68 69  1  0
 70 69  1  0
 71 64  2  0
 72 73  1  0
 74 99  1  0
 74 75  2  0
 75 94  1  0
 76 79  1  0
 76 75  1  0
 77 78  1  0
 77 74  1  0
 78 76  2  0
 79 80  1  0
 80 81  2  0
 82 81  1  0
 83 82  2  0
 84 83  1  0
 84 79  2  0
 85 82  1  0
 85 86  1  0
 86 87  1  0
 87 88  2  0
 89 88  1  0
 89 93  1  0
 90 89  2  0
 91 86  2  0
 91 90  1  0
 92 91  1  0
 94 95  1  0
 95 97  1  0
 95 98  1  0
 96 94  2  0
 99100  1  0
101 99  1  0
M  ISO  4   9 101  11 101  64 100  72 100
M  END
>  <TORSDO>  (78) 
F 23

>  <SCORE>  (78) 
6.462

>  <name>  (78) 
78

>  <ligand_id>  (78) 
78

>  <original_smiles>  (78) 
[H]c1c([H])c([H])c2c(c1[H])C([H])([H])C([H])([H])C([H])([H])C2([H])N([H])C(=O)C1([H])N(C(=O)C([H])(N([H])C(=O)C([H])(N([H])C([H])([H])[H])C([H])([H])[H])C(C([H])([H])[H])(C([H])([H])[H])C([H])([H])[H])C([H])([H])c2c([H])c(OC3([H])C([H])([H])C4([H])C([H])([H])N(C([H])([H])C([H])([H])[N+]([H])(C([H])([H])C([H])([H])N([H])C(=O)N5C([H])([H])C([H])([H])C([H])([H])C([H])(n6nc(-c7c([H])c([H])c(Oc8c([H])c([H])c(F)c([H])c8F)c([H])c7[H])c(C(=O)N([H])[H])c6N([H])[H])C5([H])[H])C([H])([H])C5([H])C([H])([H])C([H])([H])C([H])([H])C([H])([H])C5([H])[H])C([H])([H])C([H])([H])C4([H])C3([H])[H])c([H])c([H])c2C1([H])[H]

>  <smiles>  (78) 
[H]c1c([H])c([H])c2c(c1[H])C([H])([H])C([H])([H])C([H])([H])C2([H])N([H])C(=O)C1([H])N(C(=O)C([H])(N([H])C(=O)C([H])(N([H])C([H])([H])[H])C([H])([H])[H])C(C([H])([H])[H])(C([H])([H])[H])C([H])([H])[H])C([H])([H])c2c([H])c(OC3([H])C([H])([H])C4([H])C([H])([H])N(C([H])([H])C([H])([H])[N+]([H])(C([H])([H])C([H])([H])N([H])C(=O)N5C([H])([H])C([H])([H])C([H])([H])C([H])(n6nc(-c7c([H])c([H])c(Oc8c([H])c([H])c(F)c([H])c8F)c([H])c7[H])c(C(=O)N([H])[H])c6N([H])[H])C5([H])[H])C([H])([H])C5([H])C([H])([H])C([H])([H])C([H])([H])C([H])([H])C5([H])[H])C([H])([H])C([H])([H])C4([H])C3([H])[H])c([H])c([H])c2C1([H])[H]

$$$$
79:0:0
     RDKit          3D

 96106  0  0  1  0  0  0  0  0999 V2000
  -31.4060  -14.9920   19.8240 C   0  0  0  0  0  0  0  0  0  0  0  0
  -31.1020  -12.5990   19.0250 C   0  0  0  0  0  2  0  0  0  0  0  0
  -30.1850  -12.5390   17.7830 C   0  0  0  0  0  2  0  0  0  0  0  0
  -28.7040  -12.4670   18.2000 C   0  0  0  0  0  2  0  0  0  0  0  0
  -28.3540  -13.4950   19.3080 C   0  0  0  0  0  3  0  0  0  0  0  0
  -29.3910  -13.5020   20.4470 C   0  0  0  0  0  2  0  0  0  0  0  0
  -30.6990  -13.7860   19.8400 N   0  0  0  0  0  0  0  0  0  0  0  0
  -32.5840  -14.9270   19.4490 O   0  0  0  0  0  0  0  0  0  0  0  0
  -28.5440  -18.2020   21.2220 C   0  0  0  0  0  2  0  0  0  0  0  0
  -30.6990  -16.6260   21.4910 C   0  0  0  0  0  2  0  0  0  0  0  0
  -30.6970  -17.5670   19.1670 C   0  0  0  0  0  3  0  0  0  0  0  0
  -29.8370  -17.8190   21.9110 C   0  0  0  0  0  3  0  0  0  0  0  0
  -29.7740  -19.0720   21.0640 C   0  0  0  0  0  3  0  0  0  0  0  0
  -30.6170  -19.1350   19.8000 C   0  0  0  0  0  3  0  0  0  0  0  0
  -30.7830  -16.2610   20.0630 N   0  0  0  0  0  0  0  0  0  0  0  0
  -33.1290  -17.2280   15.5650 C   0  0  0  0  0  3  0  0  0  0  0  0
  -31.7740  -16.8440   15.5440 C   0  0  0  0  0  3  0  0  0  0  0  0
  -33.6980  -17.7290   16.7520 C   0  0  0  0  0  3  0  0  0  0  0  0
  -30.9900  -16.9710   16.7090 C   0  0  0  0  0  3  0  0  0  0  0  0
  -32.9180  -17.8430   17.9220 C   0  0  0  0  0  3  0  0  0  0  0  0
  -31.5540  -17.4750   17.9050 C   0  0  0  0  0  0  0  0  0  0  0  0
  -26.0340  -14.2910   20.0350 C   0  0  0  0  0  0  0  0  0  0  0  0
  -24.9060  -13.6210   20.4190 C   0  0  0  0  0  0  0  0  0  0  0  0
  -25.2490  -12.2340   20.4100 C   0  0  0  0  0  0  0  0  0  0  0  0
  -26.9950  -13.3230   19.8080 N   0  0  0  0  0  0  0  0  0  0  0  0
  -26.5310  -12.0790   20.0960 N   0  0  0  0  0  0  0  0  0  0  0  0
  -24.4120  -11.0450   20.6150 C   0  0  0  0  0  0  0  0  0  0  0  0
  -24.7880  -10.0220   21.5130 C   0  0  0  0  0  3  0  0  0  0  0  0
  -23.9550   -8.8990   21.7080 C   0  0  0  0  0  3  0  0  0  0  0  0
  -22.7320   -8.7910   21.0050 C   0  0  0  0  0  0  0  0  0  0  0  0
  -22.3740   -9.8010   20.0940 C   0  0  0  0  0  3  0  0  0  0  0  0
  -23.2060  -10.9150   19.8960 C   0  0  0  0  0  3  0  0  0  0  0  0
  -21.8720   -7.7250   21.1110 O   0  0  0  0  0  0  0  0  0  0  0  0
  -21.8600   -6.9190   22.2220 C   0  0  0  0  0  0  0  0  0  0  0  0
  -21.6360   -7.4380   23.5150 C   0  0  0  0  0  3  0  0  0  0  0  0
  -21.5640   -6.5650   24.6180 C   0  0  0  0  0  3  0  0  0  0  0  0
  -21.7040   -5.1760   24.4310 C   0  0  0  0  0  0  0  0  0  0  0  0
  -21.9220   -4.6590   23.1420 C   0  0  0  0  0  3  0  0  0  0  0  0
  -21.9970   -5.5280   22.0400 C   0  0  0  0  0  0  0  0  0  0  0  0
  -22.1860   -5.0230   20.7970 F   0  0  0  0  0  0  0  0  0  0  0  0
  -21.6260   -4.3350   25.4900 F   0  0  0  0  0  0  0  0  0  0  0  0
  -23.5570  -14.2250   20.6790 C   0  0  0  0  0  0  0  0  0  0  0  0
  -22.7760  -13.6190   21.5660 N   0  0  0  0  0  0  0  0  0  0  0  0
  -23.2090  -15.2710   20.1320 O   0  0  0  0  0  0  0  0  0  0  0  0
  -23.0720  -12.7760   22.0350 H   0  0  0  0  0  0  0  0  0  0  0  0
  -21.8650  -14.0010   21.7770 H   0  0  0  0  0  0  0  0  0  0  0  0
  -26.3140  -15.6380   19.8290 N   0  0  0  0  0  0  0  0  0  0  0  0
  -25.5960  -16.3520   19.9000 H   0  0  0  0  0  0  0  0  0  0  0  0
  -27.1840  -15.9850   19.4470 H   0  0  0  0  0  0  0  0  0  0  0  0
  -30.3100  -20.5380   18.8940 C   0  0  0  0  0  2  0  0  0  0  0  0
  -29.7440  -21.9070   19.4820 N   0  0  0  0  0  4  0  0  0  0  0  0
  -30.3520  -22.1580   20.2470 H   0  0  0  0  0  0  0  0  0  0  0  0
  -28.8550  -21.6710   19.8960 H   0  0  0  0  0  0  0  0  0  0  0  0
  -29.5150  -23.2390   18.6310 C   0  0  0  0  0  2  0  0  0  0  0  0
  -28.6600  -24.5950   19.1930 C   0  0  0  0  0  2  0  0  0  0  0  0
  -28.6940  -26.0800   18.6960 O   0  0  0  0  0  0  0  0  0  0  0  0
  -25.0200  -31.0250   22.7930 C   0  0  0  0  0  0  0  0  0  0  0  0
  -27.6050  -27.0060   18.8940 C   0  0  0  0  0  0  0  0  0  0  0  0
  -23.7980  -29.9040   20.9670 C   0  0  0  0  0  3  0  0  0  0  0  0
  -25.2330  -28.6500   19.2440 C   0  0  0  0  0  0  0  0  0  0  0  0
  -26.3370  -30.2760   20.7720 C   0  0  0  0  0  2  0  0  0  0  0  0
  -26.4230  -29.0210   19.8860 C   0  0  0  0  0  0  0  0  0  0  0  0
  -27.6090  -28.2190   19.6950 C   0  0  0  0  0  3  0  0  0  0  0  0
  -26.3870  -26.7420   18.2320 C   0  0  0  0  0  3  0  0  0  0  0  0
  -25.2270  -27.5270   18.4040 C   0  0  0  0  0  3  0  0  0  0  0  0
  -23.9860  -29.4890   19.4830 C   0  0  0  0  0  2  0  0  0  0  0  0
  -25.0750  -30.4180   21.5660 N   0  0  0  0  0  0  0  0  0  0  0  0
  -23.9480  -31.1720   23.3980 O   0  0  0  0  0  0  0  0  0  0  0  0
  -23.1860  -28.7200   21.7590 C   0  0  0  0  0  0  0  0  0  0  0  0
  -21.8590  -28.5320   21.6550 N   0  0  0  0  0  0  0  0  0  0  0  0
  -23.9070  -27.9770   22.4300 O   0  0  0  0  0  0  0  0  0  0  0  0
  -21.3340  -29.1840   21.0890 H   0  0  0  0  0  0  0  0  0  0  0  0
  -18.5320  -27.1460   22.0520 C   0  0  0  0  0  0  0  0  0  0  0  0
  -21.0920  -27.4440   22.2730 C   0  0  0  0  0  3  0  0  0  0  0  0
  -21.2120  -26.1410   21.4480 C   0  0  0  0  0  2  0  0  0  0  0  0
  -20.0790  -25.9630   20.4320 C   0  0  0  0  0  2  0  0  0  0  0  0
  -18.7180  -25.9470   21.1360 C   0  0  0  0  0  2  0  0  0  0  0  0
  -19.6470  -27.8580   22.5700 C   0  0  0  0  0  0  0  0  0  0  0  0
  -19.4170  -28.9840   23.3890 C   0  0  0  0  0  3  0  0  0  0  0  0
  -18.1060  -29.3990   23.6920 C   0  0  0  0  0  3  0  0  0  0  0  0
  -17.0070  -28.6850   23.1810 C   0  0  0  0  0  3  0  0  0  0  0  0
  -17.2210  -27.5590   22.3680 C   0  0  0  0  0  3  0  0  0  0  0  0
  -26.3020  -31.5830   23.4850 C   0  0  0  0  0  3  0  0  0  0  0  0
  -26.9400  -30.5710   24.5150 C   0  0  1  0  0  0  0  0  0  0  0  0
  -25.9350  -30.0320   25.5590 C   0  0  0  0  0  1  0  0  0  0  0  0
  -27.5550  -29.3550   23.7830 C   0  0  0  0  0  1  0  0  0  0  0  0
  -28.1000  -31.2600   25.2730 C   0  0  0  0  0  1  0  0  0  0  0  0
  -25.9380  -32.8380   24.1610 N   0  0  0  0  0  0  0  0  0  0  0  0
  -26.1980  -34.0670   23.6940 C   0  0  0  0  0  0  0  0  0  0  0  0
  -26.8430  -34.2650   22.6610 O   0  0  0  0  0  0  0  0  0  0  0  0
  -25.3640  -32.7530   24.9880 H   0  0  0  0  0  0  0  0  0  0  0  0
  -24.3910  -35.8130   23.8360 C   0  0  0  0  0  1  0  0  0  0  0  0
  -25.6640  -35.2660   24.5020 C   0  0  0  0  0  3  0  0  0  0  0  0
  -27.7770  -36.0060   25.5110 C   0  0  0  0  0  1  0  0  0  0  0  0
  -26.6500  -36.3610   24.6540 N   0  0  0  0  0  0  0  0  0  0  0  0
  -26.2090  -37.1960   25.0310 H   0  0  0  0  0  0  0  0  0  0  0  0
  1  7  1  0
  1 15  1  0
  2  7  1  0
  3  4  1  0
  3  2  1  0
  5  4  1  0
  5 25  1  0
  5  6  1  0
  7  6  1  0
  8  1  2  0
 10 12  1  0
 11 21  1  0
 11 14  1  0
 11 15  1  0
 12  9  1  0
 13  9  1  0
 13 12  1  0
 14 50  1  0
 14 13  1  0
 15 10  1  0
 16 18  1  0
 17 16  2  0
 17 19  1  0
 18 20  2  0
 19 21  2  0
 21 20  1  0
 22 23  2  0
 23 42  1  0
 24 23  1  0
 24 27  1  0
 25 22  1  0
 25 26  1  0
 26 24  2  0
 27 28  1  0
 28 29  2  0
 30 33  1  0
 30 29  1  0
 31 30  2  0
 32 31  1  0
 32 27  2  0
 33 34  1  0
 34 35  1  0
 35 36  2  0
 37 36  1  0
 37 41  1  0
 38 37  2  0
 39 34  2  0
 39 38  1  0
 40 39  1  0
 42 43  1  0
 43 46  1  0
 43 45  1  0
 44 42  2  0
 47 48  1  0
 47 22  1  0
 49 47  1  0
 50 51  1  0
 51 53  1  0
 51 52  1  0
 54 55  1  0
 54 51  1  0
 56 58  1  0
 56 55  1  0
 57 68  2  0
 58 63  1  0
 59 67  1  0
 59 69  1  0
 60 66  1  0
 60 62  1  0
 61 67  1  0
 62 61  1  0
 63 62  2  0
 64 65  1  0
 64 58  2  0
 65 60  2  0
 66 59  1  0
 67 57  1  0
 69 71  2  0
 70 69  1  0
 72 70  1  0
 73 82  2  0
 73 78  1  0
 74 70  1  0
 74 78  1  0
 75 74  1  0
 76 77  1  0
 76 75  1  0
 77 73  1  0
 78 79  2  0
 79 80  1  0
 81 80  2  0
 82 81  1  0
 83 57  1  0
 83 88  1  0
 83 84  1  0
 84 87  1  1
 84 85  1  0
 86 84  1  0
 88 91  1  0
 89 88  1  0
 89 93  1  0
 90 89  2  0
 93 92  1  0
 93 95  1  0
 95 96  1  0
 95 94  1  0
M  ISO  4   1 100  15 100  55 101  56 101
M  END
>  <TORSDO>  (79) 
F 20

>  <SCORE>  (79) 
-9.662

>  <name>  (79) 
79

>  <ligand_id>  (79) 
79

>  <original_smiles>  (79) 
[H]c1c([H])c([H])c(C2([H])N(C(=O)N3C([H])([H])C([H])([H])C([H])([H])C([H])(n4nc(-c5c([H])c([H])c(Oc6c([H])c([H])c(F)c([H])c6F)c([H])c5[H])c(C(=O)N([H])[H])c4N([H])[H])C3([H])[H])C([H])([H])C3([H])C([H])([H])C3([H])C2([H])C([H])([H])[N+]([H])([H])C([H])([H])C([H])([H])Oc2c([H])c([H])c3c(c2[H])C([H])([H])N(C(=O)C([H])(N([H])C(=O)C([H])(N([H])C([H])([H])[H])C([H])([H])[H])C(C([H])([H])[H])(C([H])([H])[H])C([H])([H])[H])C([H])(C(=O)N([H])C2([H])c4c([H])c([H])c([H])c([H])c4C([H])([H])C([H])([H])C2([H])[H])C3([H])[H])c([H])c1[H]

>  <smiles>  (79) 
[H]c1c([H])c([H])c(C2([H])N(C(=O)N3C([H])([H])C([H])([H])C([H])([H])C([H])(n4nc(-c5c([H])c([H])c(Oc6c([H])c([H])c(F)c([H])c6F)c([H])c5[H])c(C(=O)N([H])[H])c4N([H])[H])C3([H])[H])C([H])([H])C3([H])C([H])([H])C3([H])C2([H])C([H])([H])[N+]([H])([H])C([H])([H])C([H])([H])Oc2c([H])c([H])c3c(c2[H])C([H])([H])N(C(=O)C([H])(N([H])C(=O)C([H])(N([H])C([H])([H])[H])C([H])([H])[H])C(C([H])([H])[H])(C([H])([H])[H])C([H])([H])[H])C([H])(C(=O)N([H])C2([H])c4c([H])c([H])c([H])c([H])c4C([H])([H])C([H])([H])C2([H])[H])C3([H])[H])c([H])c1[H]

$$$$
80:0:0
     RDKit          3D

 95103  0  0  1  0  0  0  0  0999 V2000
  -32.1090  -22.6430   18.6260 N   0  0  0  0  0  4  0  0  0  0  0  0
  -32.3730  -22.7890   19.5890 H   0  0  0  0  0  0  0  0  0  0  0  0
  -32.5860  -23.3600   18.1000 H   0  0  0  0  0  0  0  0  0  0  0  0
  -30.6630  -22.9060   18.4570 C   0  0  0  0  0  2  0  0  0  0  0  0
  -30.1130  -23.6460   19.6850 C   0  0  0  0  0  2  0  0  0  0  0  0
  -28.5910  -23.8510   19.6540 C   0  0  0  0  0  2  0  0  0  0  0  0
  -28.0530  -24.5030   20.9420 C   0  0  0  0  0  2  0  0  0  0  0  0
  -28.6280  -25.9020   21.2270 C   0  0  0  0  0  2  0  0  0  0  0  0
  -28.4360  -26.7620   20.1130 O   0  0  0  0  0  0  0  0  0  0  0  0
  -24.6060  -31.8680   23.2480 C   0  0  0  0  0  0  0  0  0  0  0  0
  -27.2640  -27.4660   20.1500 C   0  0  0  0  0  0  0  0  0  0  0  0
  -23.4060  -30.4610   21.6050 C   0  0  0  0  0  3  0  0  0  0  0  0
  -24.8630  -28.9290   20.1780 C   0  0  0  0  0  0  0  0  0  0  0  0
  -25.9260  -30.8310   21.4130 C   0  0  0  0  0  2  0  0  0  0  0  0
  -26.0130  -29.4620   20.7770 C   0  0  0  0  0  0  0  0  0  0  0  0
  -27.2170  -28.7290   20.7710 C   0  0  0  0  0  3  0  0  0  0  0  0
  -26.1090  -26.9390   19.5430 C   0  0  0  0  0  3  0  0  0  0  0  0
  -24.9020  -27.6650   19.5590 C   0  0  0  0  0  3  0  0  0  0  0  0
  -23.6170  -29.7790   20.2260 C   0  0  0  0  0  2  0  0  0  0  0  0
  -24.6620  -31.0690   22.1480 N   0  0  0  0  0  0  0  0  0  0  0  0
  -23.5260  -32.1340   23.7940 O   0  0  0  0  0  0  0  0  0  0  0  0
  -22.7580  -29.4400   22.5670 C   0  0  0  0  0  0  0  0  0  0  0  0
  -21.4340  -29.2650   22.4490 N   0  0  0  0  0  0  0  0  0  0  0  0
  -23.4420  -28.8050   23.3750 O   0  0  0  0  0  0  0  0  0  0  0  0
  -20.9430  -29.8240   21.7640 H   0  0  0  0  0  0  0  0  0  0  0  0
  -18.0530  -28.0860   22.9550 C   0  0  0  0  0  0  0  0  0  0  0  0
  -20.6130  -28.3300   23.2200 C   0  0  0  0  0  3  0  0  0  0  0  0
  -20.7090  -26.8990   22.6400 C   0  0  0  0  0  2  0  0  0  0  0  0
  -19.6040  -26.5870   21.6280 C   0  0  0  0  0  2  0  0  0  0  0  0
  -18.2250  -26.7330   22.2780 C   0  0  0  0  0  2  0  0  0  0  0  0
  -19.1760  -28.8410   23.3810 C   0  0  0  0  0  0  0  0  0  0  0  0
  -18.9640  -30.1070   23.9730 C   0  0  0  0  0  3  0  0  0  0  0  0
  -17.6620  -30.6120   24.1460 C   0  0  0  0  0  3  0  0  0  0  0  0
  -16.5540  -29.8520   23.7350 C   0  0  0  0  0  3  0  0  0  0  0  0
  -16.7500  -28.5920   23.1400 C   0  0  0  0  0  3  0  0  0  0  0  0
  -25.8940  -32.5030   23.8610 C   0  0  0  0  0  3  0  0  0  0  0  0
  -26.4160  -31.7260   25.1310 C   0  0  1  0  0  0  0  0  0  0  0  0
  -25.3310  -31.4810   26.2060 C   0  0  0  0  0  1  0  0  0  0  0  0
  -26.9970  -30.3520   24.7300 C   0  0  0  0  0  1  0  0  0  0  0  0
  -27.5740  -32.5130   25.7840 C   0  0  0  0  0  1  0  0  0  0  0  0
  -25.5810  -33.8990   24.1910 N   0  0  0  0  0  0  0  0  0  0  0  0
  -25.9180  -34.9520   23.4310 C   0  0  0  0  0  0  0  0  0  0  0  0
  -26.5960  -34.8500   22.4040 O   0  0  0  0  0  0  0  0  0  0  0  0
  -24.9690  -34.0480   24.9800 H   0  0  0  0  0  0  0  0  0  0  0  0
  -24.1990  -36.7520   23.0660 C   0  0  0  0  0  1  0  0  0  0  0  0
  -25.4330  -36.3430   23.8840 C   0  0  0  0  0  3  0  0  0  0  0  0
  -27.5680  -37.2260   24.7160 C   0  0  0  0  0  1  0  0  0  0  0  0
  -26.4690  -37.3930   23.7690 N   0  0  0  0  0  0  0  0  0  0  0  0
  -26.0670  -38.3170   23.9070 H   0  0  0  0  0  0  0  0  0  0  0  0
  -32.6190  -21.3270   18.1650 C   0  0  0  0  0  2  0  0  0  0  0  0
  -32.3550  -20.1310   19.1260 C   0  0  0  0  0  2  0  0  0  0  0  0
  -30.9020  -19.6120   19.1160 C   0  0  0  0  0  2  0  0  0  0  0  0
  -30.6670  -14.4950   20.5000 C   0  0  0  0  0  0  0  0  0  0  0  0
  -30.3650  -12.3080   19.4570 C   0  0  0  0  0  2  0  0  0  0  0  0
  -29.4420  -12.5040   18.2380 C   0  0  0  0  0  2  0  0  0  0  0  0
  -27.9630  -12.3790   18.6530 C   0  0  0  0  0  2  0  0  0  0  0  0
  -27.6030  -13.2300   19.9010 C   0  0  0  0  0  3  0  0  0  0  0  0
  -28.6570  -13.0810   21.0230 C   0  0  0  0  0  2  0  0  0  0  0  0
  -29.9880  -13.3240   20.4440 N   0  0  0  0  0  0  0  0  0  0  0  0
  -31.8690  -14.6100   20.2560 O   0  0  0  0  0  0  0  0  0  0  0  0
  -29.6330  -16.0660   18.9920 C   0  0  0  0  0  2  0  0  0  0  0  0
  -29.9560  -16.6540   21.3910 C   0  0  0  0  0  2  0  0  0  0  0  0
  -29.5490  -17.5860   18.8730 C   0  0  0  0  0  2  0  0  0  0  0  0
  -30.8000  -17.8960   20.9630 C   0  0  0  0  0  2  0  0  0  0  0  0
  -29.8840  -15.5900   20.3740 N   0  0  0  0  0  0  0  0  0  0  0  0
  -30.7430  -18.1840   19.5020 N   0  0  2  0  0  4  0  0  0  0  0  0
  -31.5170  -17.6810   19.0930 H   0  0  0  0  0  0  0  0  0  0  0  0
  -25.2050  -13.8650   20.5630 C   0  0  0  0  0  0  0  0  0  0  0  0
  -24.1260  -13.1020   20.9130 C   0  0  0  0  0  0  0  0  0  0  0  0
  -24.5810  -11.7490   20.9050 C   0  0  0  0  0  0  0  0  0  0  0  0
  -26.2470  -12.9730   20.3660 N   0  0  0  0  0  0  0  0  0  0  0  0
  -25.8760  -11.6970   20.6280 N   0  0  0  0  0  0  0  0  0  0  0  0
  -23.8500  -10.4920   21.0890 C   0  0  0  0  0  0  0  0  0  0  0  0
  -24.2770   -9.5190   22.0200 C   0  0  0  0  0  3  0  0  0  0  0  0
  -23.5450   -8.3250   22.1930 C   0  0  0  0  0  3  0  0  0  0  0  0
  -22.3740   -8.0950   21.4320 C   0  0  0  0  0  0  0  0  0  0  0  0
  -21.9660   -9.0570   20.4920 C   0  0  0  0  0  3  0  0  0  0  0  0
  -22.6980  -10.2430   20.3180 C   0  0  0  0  0  3  0  0  0  0  0  0
  -21.6140   -6.9530   21.5140 O   0  0  0  0  0  0  0  0  0  0  0  0
  -21.5760   -6.1970   22.6580 C   0  0  0  0  0  0  0  0  0  0  0  0
  -21.1820   -6.7430   23.9000 C   0  0  0  0  0  3  0  0  0  0  0  0
  -21.0880   -5.9130   25.0340 C   0  0  0  0  0  3  0  0  0  0  0  0
  -21.3790   -4.5390   24.9290 C   0  0  0  0  0  0  0  0  0  0  0  0
  -21.7650   -3.9940   23.6920 C   0  0  0  0  0  3  0  0  0  0  0  0
  -21.8610   -4.8210   22.5600 C   0  0  0  0  0  0  0  0  0  0  0  0
  -22.2140   -4.2850   21.3650 F   0  0  0  0  0  0  0  0  0  0  0  0
  -21.2810   -3.7400   26.0180 F   0  0  0  0  0  0  0  0  0  0  0  0
  -22.7260  -13.5890   21.1530 C   0  0  0  0  0  0  0  0  0  0  0  0
  -21.9810  -12.9010   22.0120 N   0  0  0  0  0  0  0  0  0  0  0  0
  -22.3010  -14.6110   20.6180 O   0  0  0  0  0  0  0  0  0  0  0  0
  -22.3370  -12.0730   22.4650 H   0  0  0  0  0  0  0  0  0  0  0  0
  -21.0400  -13.2060   22.2170 H   0  0  0  0  0  0  0  0  0  0  0  0
  -25.3790  -15.2340   20.3790 N   0  0  0  0  0  0  0  0  0  0  0  0
  -24.6140  -15.8920   20.4870 H   0  0  0  0  0  0  0  0  0  0  0  0
  -26.2490  -15.6780   20.1150 H   0  0  0  0  0  0  0  0  0  0  0  0
  1  2  1  0
  3  1  1  0
  4  1  1  0
  4  5  1  0
  6  5  1  0
  6  7  1  0
  7  8  1  0
  9 11  1  0
  9  8  1  0
 10 21  2  0
 11 16  1  0
 12 20  1  0
 12 22  1  0
 13 19  1  0
 13 15  1  0
 14 20  1  0
 15 14  1  0
 16 15  2  0
 17 18  1  0
 17 11  2  0
 18 13  2  0
 19 12  1  0
 20 10  1  0
 22 24  2  0
 23 22  1  0
 25 23  1  0
 26 35  2  0
 26 31  1  0
 27 23  1  0
 27 31  1  0
 28 27  1  0
 29 30  1  0
 29 28  1  0
 30 26  1  0
 31 32  2  0
 32 33  1  0
 34 33  2  0
 35 34  1  0
 36 10  1  0
 36 41  1  0
 36 37  1  0
 37 40  1  1
 37 38  1  0
 39 37  1  0
 41 44  1  0
 42 46  1  0
 42 41  1  0
 43 42  2  0
 46 45  1  0
 48 46  1  0
 48 49  1  0
 48 47  1  0
 50  1  1  0
 50 51  1  0
 52 51  1  0
 52 66  1  0
 54 59  1  0
 55 56  1  0
 55 54  1  0
 57 56  1  0
 57 71  1  0
 57 58  1  0
 59 53  1  0
 59 58  1  0
 60 53  2  0
 61 65  1  0
 63 61  1  0
 63 66  1  0
 64 62  1  0
 65 53  1  0
 65 62  1  0
 66 64  1  0
 66 67  1  6
 68 69  2  0
 69 88  1  0
 70 69  1  0
 70 73  1  0
 71 68  1  0
 71 72  1  0
 72 70  2  0
 73 74  1  0
 74 75  2  0
 76 79  1  0
 76 75  1  0
 77 76  2  0
 78 77  1  0
 78 73  2  0
 79 80  1  0
 80 81  1  0
 81 82  2  0
 83 82  1  0
 83 87  1  0
 84 83  2  0
 85 80  2  0
 85 84  1  0
 86 85  1  0
 88 89  1  0
 89 92  1  0
 89 91  1  0
 90 88  2  0
 93 94  1  0
 93 68  1  0
 95 93  1  0
M  ISO  4   8 101   9 101  53 100  65 100
M  END
>  <TORSDO>  (80) 
F 24

>  <SCORE>  (80) 
-12.377

>  <name>  (80) 
80

>  <ligand_id>  (80) 
80

>  <original_smiles>  (80) 
[H]c1c([H])c([H])c2c(c1[H])C([H])([H])C([H])([H])C([H])([H])C2([H])N([H])C(=O)C1([H])N(C(=O)C([H])(N([H])C(=O)C([H])(N([H])C([H])([H])[H])C([H])([H])[H])C(C([H])([H])[H])(C([H])([H])[H])C([H])([H])[H])C([H])([H])c2c([H])c(OC([H])([H])C([H])([H])C([H])([H])C([H])([H])C([H])([H])[N+]([H])([H])C([H])([H])C([H])([H])C([H])([H])[N+]3([H])C([H])([H])C([H])([H])N(C(=O)N4C([H])([H])C([H])([H])C([H])([H])C([H])(n5nc(-c6c([H])c([H])c(Oc7c([H])c([H])c(F)c([H])c7F)c([H])c6[H])c(C(=O)N([H])[H])c5N([H])[H])C4([H])[H])C([H])([H])C3([H])[H])c([H])c([H])c2C1([H])[H]

>  <smiles>  (80) 
[H]c1c([H])c([H])c2c(c1[H])C([H])([H])C([H])([H])C([H])([H])C2([H])N([H])C(=O)C1([H])N(C(=O)C([H])(N([H])C(=O)C([H])(N([H])C([H])([H])[H])C([H])([H])[H])C(C([H])([H])[H])(C([H])([H])[H])C([H])([H])[H])C([H])([H])c2c([H])c(OC([H])([H])C([H])([H])C([H])([H])C([H])([H])C([H])([H])[N+]([H])([H])C([H])([H])C([H])([H])C([H])([H])[N+]3([H])C([H])([H])C([H])([H])N(C(=O)N4C([H])([H])C([H])([H])C([H])([H])C([H])(n5nc(-c6c([H])c([H])c(Oc7c([H])c([H])c(F)c([H])c7F)c([H])c6[H])c(C(=O)N([H])[H])c5N([H])[H])C4([H])[H])C([H])([H])C3([H])[H])c([H])c([H])c2C1([H])[H]

$$$$
81:0:0
     RDKit          3D

 89 97  0  0  1  0  0  0  0  0999 V2000
  -30.7340  -20.1060   20.5000 C   0  0  0  0  0  2  0  0  0  0  0  0
  -28.4000  -19.6020   20.7070 C   0  0  0  0  0  2  0  0  0  0  0  0
  -30.3860  -21.5610   19.9590 C   0  0  0  0  0  2  0  0  0  0  0  0
  -28.0470  -21.0990   20.1980 C   0  0  0  0  0  2  0  0  0  0  0  0
  -29.7380  -18.9250   20.1950 C   0  0  0  0  0  3  0  0  0  0  0  0
  -29.0890  -22.1800   20.4230 N   0  0  2  0  0  4  0  0  0  0  0  0
  -29.1790  -22.3000   21.4220 H   0  0  0  0  0  0  0  0  0  0  0  0
  -30.2930  -17.4790   20.8050 C   0  0  0  0  0  2  0  0  0  0  0  0
  -30.5440  -14.8690   20.2450 C   0  0  0  0  0  0  0  0  0  0  0  0
  -30.3380  -12.5850   19.2090 C   0  0  0  0  0  2  0  0  0  0  0  0
  -29.3800  -12.6320   17.9980 C   0  0  0  0  0  2  0  0  0  0  0  0
  -27.9170  -12.4490   18.4510 C   0  0  0  0  0  2  0  0  0  0  0  0
  -27.5600  -13.3300   19.6790 C   0  0  0  0  0  3  0  0  0  0  0  0
  -28.6380  -13.2570   20.7810 C   0  0  0  0  0  2  0  0  0  0  0  0
  -29.9080  -13.6450   20.1550 N   0  0  0  0  0  0  0  0  0  0  0  0
  -31.7380  -14.9350   19.9430 O   0  0  0  0  0  0  0  0  0  0  0  0
  -29.8030  -16.0400   20.4880 N   0  0  0  0  0  0  0  0  0  0  0  0
  -28.8120  -15.8860   20.6180 H   0  0  0  0  0  0  0  0  0  0  0  0
  -25.1880  -13.9140   20.4530 C   0  0  0  0  0  0  0  0  0  0  0  0
  -24.1310  -13.1390   20.8410 C   0  0  0  0  0  0  0  0  0  0  0  0
  -24.5960  -11.7880   20.8010 C   0  0  0  0  0  0  0  0  0  0  0  0
  -26.2280  -13.0360   20.1960 N   0  0  0  0  0  0  0  0  0  0  0  0
  -25.8810  -11.7520   20.4690 N   0  0  0  0  0  0  0  0  0  0  0  0
  -23.8720  -10.5250   20.9970 C   0  0  0  0  0  0  0  0  0  0  0  0
  -24.3160   -9.5560   21.9230 C   0  0  0  0  0  3  0  0  0  0  0  0
  -23.5920   -8.3590   22.1100 C   0  0  0  0  0  3  0  0  0  0  0  0
  -22.4070   -8.1260   21.3720 C   0  0  0  0  0  0  0  0  0  0  0  0
  -21.9830   -9.0820   20.4320 C   0  0  0  0  0  3  0  0  0  0  0  0
  -22.7090  -10.2700   20.2430 C   0  0  0  0  0  3  0  0  0  0  0  0
  -21.6500   -6.9840   21.4670 O   0  0  0  0  0  0  0  0  0  0  0  0
  -21.6130   -6.2380   22.6180 C   0  0  0  0  0  0  0  0  0  0  0  0
  -21.2070   -6.7910   23.8520 C   0  0  0  0  0  3  0  0  0  0  0  0
  -21.1200   -5.9720   24.9960 C   0  0  0  0  0  3  0  0  0  0  0  0
  -21.4280   -4.6020   24.9060 C   0  0  0  0  0  0  0  0  0  0  0  0
  -21.8270   -4.0480   23.6770 C   0  0  0  0  0  3  0  0  0  0  0  0
  -21.9170   -4.8640   22.5360 C   0  0  0  0  0  0  0  0  0  0  0  0
  -22.2830   -4.3220   21.3490 F   0  0  0  0  0  0  0  0  0  0  0  0
  -21.3360   -3.8140   26.0020 F   0  0  0  0  0  0  0  0  0  0  0  0
  -22.7360  -13.6160   21.1300 C   0  0  0  0  0  0  0  0  0  0  0  0
  -22.0160  -12.9210   22.0010 N   0  0  0  0  0  0  0  0  0  0  0  0
  -22.2950  -14.6440   20.6180 O   0  0  0  0  0  0  0  0  0  0  0  0
  -22.3880  -12.0940   22.4430 H   0  0  0  0  0  0  0  0  0  0  0  0
  -21.0810  -13.2260   22.2340 H   0  0  0  0  0  0  0  0  0  0  0  0
  -25.3420  -15.2860   20.2730 N   0  0  0  0  0  0  0  0  0  0  0  0
  -24.5640  -15.9250   20.4010 H   0  0  0  0  0  0  0  0  0  0  0  0
  -26.1660  -15.7360   19.8950 H   0  0  0  0  0  0  0  0  0  0  0  0
  -28.8450  -23.6150   19.8100 C   0  0  0  0  0  2  0  0  0  0  0  0
  -28.1520  -24.8720   20.6150 C   0  0  0  0  0  2  0  0  0  0  0  0
  -28.3230  -26.3390   20.2030 O   0  0  0  0  0  0  0  0  0  0  0  0
  -24.5560  -31.8480   23.1970 C   0  0  0  0  0  0  0  0  0  0  0  0
  -27.2220  -27.2400   20.1790 C   0  0  0  0  0  0  0  0  0  0  0  0
  -23.3860  -30.4450   21.5400 C   0  0  0  0  0  3  0  0  0  0  0  0
  -24.8640  -28.8980   20.1250 C   0  0  0  0  0  0  0  0  0  0  0  0
  -25.9280  -30.7640   21.3890 C   0  0  0  0  0  2  0  0  0  0  0  0
  -26.0270  -29.3790   20.7400 C   0  0  0  0  0  0  0  0  0  0  0  0
  -27.2130  -28.5650   20.7460 C   0  0  0  0  0  3  0  0  0  0  0  0
  -26.0370  -26.8360   19.5320 C   0  0  0  0  0  3  0  0  0  0  0  0
  -24.8760  -27.6370   19.5080 C   0  0  0  0  0  3  0  0  0  0  0  0
  -23.6240  -29.7760   20.1590 C   0  0  0  0  0  2  0  0  0  0  0  0
  -24.6420  -31.0380   22.0990 N   0  0  0  0  0  0  0  0  0  0  0  0
  -23.4630  -32.1150   23.7180 O   0  0  0  0  0  0  0  0  0  0  0  0
  -22.7170  -29.4200   22.4890 C   0  0  0  0  0  0  0  0  0  0  0  0
  -21.3950  -29.2280   22.3420 N   0  0  0  0  0  0  0  0  0  0  0  0
  -23.3890  -28.8030   23.3190 O   0  0  0  0  0  0  0  0  0  0  0  0
  -20.9100  -29.7810   21.6490 H   0  0  0  0  0  0  0  0  0  0  0  0
  -18.0310  -27.9650   22.7790 C   0  0  0  0  0  0  0  0  0  0  0  0
  -20.5770  -28.2790   23.1000 C   0  0  0  0  0  3  0  0  0  0  0  0
  -20.7190  -26.8450   22.5370 C   0  0  0  0  0  2  0  0  0  0  0  0
  -19.6450  -26.4930   21.5000 C   0  0  0  0  0  2  0  0  0  0  0  0
  -18.2480  -26.6150   22.1140 C   0  0  0  0  0  2  0  0  0  0  0  0
  -19.1250  -28.7510   23.2270 C   0  0  0  0  0  0  0  0  0  0  0  0
  -18.8660  -30.0120   23.8090 C   0  0  0  0  0  3  0  0  0  0  0  0
  -17.5470  -30.4850   23.9480 C   0  0  0  0  0  3  0  0  0  0  0  0
  -16.4690  -29.6950   23.5150 C   0  0  0  0  0  3  0  0  0  0  0  0
  -16.7110  -28.4370   22.9340 C   0  0  0  0  0  3  0  0  0  0  0  0
  -25.8240  -32.4920   23.8390 C   0  0  0  0  0  3  0  0  0  0  0  0
  -26.3290  -31.7280   25.1240 C   0  0  1  0  0  0  0  0  0  0  0  0
  -25.2230  -31.4840   26.1770 C   0  0  0  0  0  1  0  0  0  0  0  0
  -26.9280  -30.3540   24.7440 C   0  0  0  0  0  1  0  0  0  0  0  0
  -27.4660  -32.5290   25.7990 C   0  0  0  0  0  1  0  0  0  0  0  0
  -25.4980  -33.8890   24.1660 N   0  0  0  0  0  0  0  0  0  0  0  0
  -25.8350  -34.9460   23.4150 C   0  0  0  0  0  0  0  0  0  0  0  0
  -26.5210  -34.8500   22.3940 O   0  0  0  0  0  0  0  0  0  0  0  0
  -24.8930  -34.0410   24.9590 H   0  0  0  0  0  0  0  0  0  0  0  0
  -24.1060  -36.7330   23.0390 C   0  0  0  0  0  1  0  0  0  0  0  0
  -25.3330  -36.3310   23.8690 C   0  0  0  0  0  3  0  0  0  0  0  0
  -27.4480  -37.2230   24.7420 C   0  0  0  0  0  1  0  0  0  0  0  0
  -26.3630  -37.3890   23.7790 N   0  0  0  0  0  0  0  0  0  0  0  0
  -25.9480  -38.3070   23.9220 H   0  0  0  0  0  0  0  0  0  0  0  0
  3  6  1  0
  3  1  1  0
  4  6  1  0
  4  2  1  0
  5  1  1  0
  5  2  1  0
  5  8  1  0
  6  7  1  1
  9 17  1  0
 10 15  1  0
 11 12  1  0
 11 10  1  0
 13 12  1  0
 13 22  1  0
 13 14  1  0
 15  9  1  0
 15 14  1  0
 16  9  2  0
 17 18  1  0
 17  8  1  0
 19 20  2  0
 20 39  1  0
 21 20  1  0
 21 24  1  0
 22 19  1  0
 22 23  1  0
 23 21  2  0
 24 25  1  0
 25 26  2  0
 27 30  1  0
 27 26  1  0
 28 27  2  0
 29 28  1  0
 29 24  2  0
 30 31  1  0
 31 32  1  0
 32 33  2  0
 34 33  1  0
 34 38  1  0
 35 34  2  0
 36 31  2  0
 36 35  1  0
 37 36  1  0
 39 40  1  0
 40 43  1  0
 40 42  1  0
 41 39  2  0
 44 45  1  0
 44 19  1  0
 46 44  1  0
 47  6  1  0
 47 48  1  0
 49 48  1  0
 50 61  2  0
 51 49  1  0
 51 56  1  0
 52 60  1  0
 52 62  1  0
 53 59  1  0
 53 55  1  0
 54 60  1  0
 55 56  2  0
 55 54  1  0
 57 51  2  0
 58 57  1  0
 58 53  2  0
 59 52  1  0
 60 50  1  0
 62 64  2  0
 63 62  1  0
 65 63  1  0
 66 75  2  0
 66 71  1  0
 67 63  1  0
 67 71  1  0
 68 67  1  0
 69 70  1  0
 69 68  1  0
 70 66  1  0
 71 72  2  0
 72 73  1  0
 74 73  2  0
 75 74  1  0
 76 50  1  0
 76 81  1  0
 76 77  1  0
 77 80  1  1
 77 78  1  0
 79 77  1  0
 81 84  1  0
 82 86  1  0
 82 81  1  0
 83 82  2  0
 86 85  1  0
 88 86  1  0
 88 89  1  0
 88 87  1  0
M  ISO  4   9 100  17 100  48 101  49 101
M  END
>  <TORSDO>  (81) 
F 19

>  <SCORE>  (81) 
-14.022

>  <name>  (81) 
81

>  <ligand_id>  (81) 
81

>  <original_smiles>  (81) 
[H]c1c([H])c([H])c2c(c1[H])C([H])([H])C([H])([H])C([H])([H])C2([H])N([H])C(=O)C1([H])N(C(=O)C([H])(N([H])C(=O)C([H])(N([H])C([H])([H])[H])C([H])([H])[H])C(C([H])([H])[H])(C([H])([H])[H])C([H])([H])[H])C([H])([H])c2c([H])c(OC([H])([H])C([H])([H])[N+]3([H])C([H])([H])C([H])([H])C([H])(C([H])([H])N([H])C(=O)N4C([H])([H])C([H])([H])C([H])([H])C([H])(n5nc(-c6c([H])c([H])c(Oc7c([H])c([H])c(F)c([H])c7F)c([H])c6[H])c(C(=O)N([H])[H])c5N([H])[H])C4([H])[H])C([H])([H])C3([H])[H])c([H])c([H])c2C1([H])[H]

>  <smiles>  (81) 
[H]c1c([H])c([H])c2c(c1[H])C([H])([H])C([H])([H])C([H])([H])C2([H])N([H])C(=O)C1([H])N(C(=O)C([H])(N([H])C(=O)C([H])(N([H])C([H])([H])[H])C([H])([H])[H])C(C([H])([H])[H])(C([H])([H])[H])C([H])([H])[H])C([H])([H])c2c([H])c(OC([H])([H])C([H])([H])[N+]3([H])C([H])([H])C([H])([H])C([H])(C([H])([H])N([H])C(=O)N4C([H])([H])C([H])([H])C([H])([H])C([H])(n5nc(-c6c([H])c([H])c(Oc7c([H])c([H])c(F)c([H])c7F)c([H])c6[H])c(C(=O)N([H])[H])c5N([H])[H])C4([H])[H])C([H])([H])C3([H])[H])c([H])c([H])c2C1([H])[H]

$$$$
82:0:0
     RDKit          3D

 87 95  0  0  1  0  0  0  0  0999 V2000
  -28.6710  -21.0470   19.8780 N   0  0  0  0  0  4  0  0  0  0  0  0
  -27.6710  -20.9150   19.8860 H   0  0  0  0  0  0  0  0  0  0  0  0
  -28.9060  -21.1140   18.9000 H   0  0  0  0  0  0  0  0  0  0  0  0
  -30.4410  -15.3740   19.7820 C   0  0  0  0  0  0  0  0  0  0  0  0
  -30.3740  -12.9270   18.8570 C   0  0  0  0  0  2  0  0  0  0  0  0
  -29.3570  -12.7160   17.7050 C   0  0  0  0  0  2  0  0  0  0  0  0
  -27.9560  -12.4260   18.2670 C   0  0  0  0  0  2  0  0  0  0  0  0
  -27.6050  -13.3640   19.4510 C   0  0  0  0  0  3  0  0  0  0  0  0
  -28.7440  -13.4900   20.4850 C   0  0  0  0  0  2  0  0  0  0  0  0
  -29.8930  -14.0520   19.7580 N   0  0  0  0  0  0  0  0  0  0  0  0
  -31.6030  -15.3780   19.3340 O   0  0  0  0  0  0  0  0  0  0  0  0
  -28.2690  -18.5660   21.0860 C   0  0  0  0  0  2  0  0  0  0  0  0
  -28.8290  -17.0520   21.1440 C   0  0  0  0  0  2  0  0  0  0  0  0
  -29.8200  -18.1980   19.4350 C   0  0  0  0  0  2  0  0  0  0  0  0
  -29.2580  -19.5410   20.3700 C   0  0  0  0  0  3  0  0  0  0  0  0
  -29.7150  -16.6810   20.0000 N   0  0  0  0  0  0  0  0  0  0  0  0
  -25.3280  -13.9050   20.4490 C   0  0  0  0  0  0  0  0  0  0  0  0
  -24.2990  -13.1210   20.8850 C   0  0  0  0  0  0  0  0  0  0  0  0
  -24.7420  -11.7700   20.7430 C   0  0  0  0  0  0  0  0  0  0  0  0
  -26.3310  -13.0340   20.0650 N   0  0  0  0  0  0  0  0  0  0  0  0
  -25.9960  -11.7390   20.3040 N   0  0  0  0  0  0  0  0  0  0  0  0
  -24.0210  -10.5080   20.9430 C   0  0  0  0  0  0  0  0  0  0  0  0
  -24.4890   -9.5200   21.8380 C   0  0  0  0  0  3  0  0  0  0  0  0
  -23.7620   -8.3260   22.0280 C   0  0  0  0  0  3  0  0  0  0  0  0
  -22.5530   -8.1090   21.3240 C   0  0  0  0  0  0  0  0  0  0  0  0
  -22.1030   -9.0880   20.4200 C   0  0  0  0  0  3  0  0  0  0  0  0
  -22.8290  -10.2730   20.2270 C   0  0  0  0  0  3  0  0  0  0  0  0
  -21.7930   -6.9700   21.4280 O   0  0  0  0  0  0  0  0  0  0  0  0
  -21.7360   -6.2480   22.5930 C   0  0  0  0  0  0  0  0  0  0  0  0
  -21.2950   -6.8220   23.8060 C   0  0  0  0  0  3  0  0  0  0  0  0
  -21.1810   -6.0250   24.9610 C   0  0  0  0  0  3  0  0  0  0  0  0
  -21.5010   -4.6540   24.9040 C   0  0  0  0  0  0  0  0  0  0  0  0
  -21.9380   -4.0810   23.6980 C   0  0  0  0  0  3  0  0  0  0  0  0
  -22.0520   -4.8740   22.5440 C   0  0  0  0  0  0  0  0  0  0  0  0
  -22.4490   -4.3130   21.3770 F   0  0  0  0  0  0  0  0  0  0  0  0
  -21.3870   -3.8880   26.0140 F   0  0  0  0  0  0  0  0  0  0  0  0
  -22.9430  -13.6000   21.3070 C   0  0  0  0  0  0  0  0  0  0  0  0
  -22.2960  -12.8820   22.2160 N   0  0  0  0  0  0  0  0  0  0  0  0
  -22.4710  -14.6500   20.8710 O   0  0  0  0  0  0  0  0  0  0  0  0
  -22.6980  -12.0400   22.6020 H   0  0  0  0  0  0  0  0  0  0  0  0
  -21.3920  -13.1910   22.5470 H   0  0  0  0  0  0  0  0  0  0  0  0
  -25.4770  -15.2790   20.3100 N   0  0  0  0  0  0  0  0  0  0  0  0
  -24.7020  -15.9030   20.4950 H   0  0  0  0  0  0  0  0  0  0  0  0
  -26.2400  -15.7310   19.8220 H   0  0  0  0  0  0  0  0  0  0  0  0
  -28.8430  -22.6160   20.4690 C   0  0  0  0  0  3  0  0  0  0  0  0
  -27.9680  -24.1680   20.0560 C   0  0  0  0  0  3  0  0  0  0  0  0
  -28.1700  -25.8030   20.3440 O   0  0  0  0  0  0  0  0  0  0  0  0
  -24.6210  -31.8290   23.1980 C   0  0  0  0  0  0  0  0  0  0  0  0
  -27.1840  -26.9270   20.2240 C   0  0  0  0  0  0  0  0  0  0  0  0
  -23.4430  -30.4390   21.5400 C   0  0  0  0  0  3  0  0  0  0  0  0
  -24.9060  -28.8400   20.1230 C   0  0  0  0  0  0  0  0  0  0  0  0
  -26.0090  -30.6460   21.4260 C   0  0  0  0  0  2  0  0  0  0  0  0
  -26.0850  -29.2330   20.7720 C   0  0  0  0  0  0  0  0  0  0  0  0
  -27.2170  -28.2970   20.7970 C   0  0  0  0  0  3  0  0  0  0  0  0
  -25.9840  -26.6980   19.5170 C   0  0  0  0  0  3  0  0  0  0  0  0
  -24.8860  -27.5970   19.4720 C   0  0  0  0  0  3  0  0  0  0  0  0
  -23.6890  -29.7680   20.1600 C   0  0  0  0  0  2  0  0  0  0  0  0
  -24.7110  -31.0000   22.1090 N   0  0  0  0  0  0  0  0  0  0  0  0
  -23.5280  -32.1150   23.7140 O   0  0  0  0  0  0  0  0  0  0  0  0
  -22.7400  -29.4370   22.4950 C   0  0  0  0  0  0  0  0  0  0  0  0
  -21.4120  -29.2680   22.3560 N   0  0  0  0  0  0  0  0  0  0  0  0
  -23.4000  -28.8130   23.3300 O   0  0  0  0  0  0  0  0  0  0  0  0
  -20.9290  -29.8250   21.6640 H   0  0  0  0  0  0  0  0  0  0  0  0
  -18.0330  -28.0390   22.8250 C   0  0  0  0  0  0  0  0  0  0  0  0
  -20.5870  -28.3280   23.1210 C   0  0  0  0  0  3  0  0  0  0  0  0
  -20.7080  -26.8950   22.5520 C   0  0  0  0  0  2  0  0  0  0  0  0
  -19.6220  -26.5600   21.5240 C   0  0  0  0  0  2  0  0  0  0  0  0
  -18.2320  -26.6920   22.1500 C   0  0  0  0  0  2  0  0  0  0  0  0
  -19.1390  -28.8150   23.2670 C   0  0  0  0  0  0  0  0  0  0  0  0
  -18.8980  -30.0720   23.8630 C   0  0  0  0  0  3  0  0  0  0  0  0
  -17.5850  -30.5560   24.0160 C   0  0  0  0  0  3  0  0  0  0  0  0
  -16.4940  -29.7790   23.5880 C   0  0  0  0  0  3  0  0  0  0  0  0
  -16.7200  -28.5220   22.9990 C   0  0  0  0  0  3  0  0  0  0  0  0
  -25.8870  -32.4720   23.8400 C   0  0  0  0  0  3  0  0  0  0  0  0
  -25.5770  -33.8800   24.1460 N   0  0  0  0  0  0  0  0  0  0  0  0
  -25.9040  -34.9240   23.3740 C   0  0  0  0  0  0  0  0  0  0  0  0
  -26.5600  -34.8050   22.3360 O   0  0  0  0  0  0  0  0  0  0  0  0
  -24.9930  -34.0450   24.9520 H   0  0  0  0  0  0  0  0  0  0  0  0
  -24.1650  -36.7200   23.0450 C   0  0  0  0  0  1  0  0  0  0  0  0
  -25.4300  -36.3220   23.8230 C   0  0  0  0  0  3  0  0  0  0  0  0
  -27.5810  -37.2370   24.5800 C   0  0  0  0  0  1  0  0  0  0  0  0
  -26.4560  -37.3750   23.6600 N   0  0  0  0  0  0  0  0  0  0  0  0
  -26.0490  -38.2960   23.7930 H   0  0  0  0  0  0  0  0  0  0  0  0
  -26.3670  -31.7260   25.1470 C   0  0  1  0  0  0  0  0  0  0  0  0
  -25.2470  -31.5240   26.1940 C   0  0  0  0  0  1  0  0  0  0  0  0
  -26.9460  -30.3330   24.8110 C   0  0  0  0  0  1  0  0  0  0  0  0
  -27.5050  -32.5290   25.8250 C   0  0  0  0  0  1  0  0  0  0  0  0
  1  2  1  0
  1 45  1  0
  3  1  1  0
  4 16  1  0
  5 10  1  0
  6  7  1  0
  6  5  1  0
  8  7  1  0
  8 20  1  0
  8  9  1  0
 10  4  1  0
 10  9  1  0
 11  4  2  0
 12 13  1  0
 14 16  1  0
 14 15  1  0
 15  1  1  0
 15 12  1  0
 16 13  1  0
 17 18  2  0
 18 37  1  0
 19 18  1  0
 19 22  1  0
 20 21  1  0
 20 17  1  0
 21 19  2  0
 22 23  1  0
 23 24  2  0
 25 28  1  0
 25 24  1  0
 26 25  2  0
 27 26  1  0
 27 22  2  0
 28 29  1  0
 29 30  1  0
 30 31  2  0
 32 31  1  0
 32 36  1  0
 33 32  2  0
 34 29  2  0
 34 33  1  0
 35 34  1  0
 37 38  1  0
 38 41  1  0
 38 40  1  0
 39 37  2  0
 42 17  1  0
 42 43  1  0
 44 42  1  0
 46 47  1  0
 46 45  2  0
 48 59  2  0
 49 47  1  0
 49 54  1  0
 50 58  1  0
 50 60  1  0
 51 57  1  0
 51 53  1  0
 52 58  1  0
 53 54  2  0
 53 52  1  0
 55 49  2  0
 56 55  1  0
 56 51  2  0
 57 50  1  0
 58 48  1  0
 60 62  2  0
 61 60  1  0
 63 61  1  0
 64 73  2  0
 64 69  1  0
 65 61  1  0
 65 69  1  0
 66 65  1  0
 67 68  1  0
 67 66  1  0
 68 64  1  0
 69 70  2  0
 70 71  1  0
 72 71  2  0
 73 72  1  0
 74 48  1  0
 74 75  1  0
 74 84  1  0
 75 78  1  0
 76 80  1  0
 76 75  1  0
 77 76  2  0
 80 79  1  0
 82 83  1  0
 82 80  1  0
 82 81  1  0
 84 87  1  1
 84 85  1  0
 86 84  1  0
M  ISO  4   4 100  16 100  46 101  47 101
M  END
>  <TORSDO>  (82) 
F 18

>  <SCORE>  (82) 
-15.235

>  <name>  (82) 
82

>  <ligand_id>  (82) 
82

>  <original_smiles>  (82) 
[H]c1c([H])c([H])c2c(c1[H])C([H])([H])C([H])([H])C([H])([H])C2([H])N([H])C(=O)C1([H])N(C(=O)C([H])(N([H])C(=O)C([H])(N([H])C([H])([H])[H])C([H])([H])[H])C(C([H])([H])[H])(C([H])([H])[H])C([H])([H])[H])C([H])([H])c2c([H])c(OC([H])([H])C([H])([H])[N+]([H])([H])C3([H])C([H])([H])N(C(=O)N4C([H])([H])C([H])([H])C([H])([H])C([H])(n5nc(-c6c([H])c([H])c(Oc7c([H])c([H])c(F)c([H])c7F)c([H])c6[H])c(C(=O)N([H])[H])c5N([H])[H])C4([H])[H])C([H])([H])C3([H])[H])c([H])c([H])c2C1([H])[H]

>  <smiles>  (82) 
[H]c1c([H])c([H])c2c(c1[H])C([H])([H])C([H])([H])C([H])([H])C2([H])N([H])C(=O)C1([H])N(C(=O)C([H])(N([H])C(=O)C([H])(N([H])C([H])([H])[H])C([H])([H])[H])C(C([H])([H])[H])(C([H])([H])[H])C([H])([H])[H])C([H])([H])c2c([H])c(OC([H])([H])C([H])([H])[N+]([H])([H])C3([H])C([H])([H])N(C(=O)N4C([H])([H])C([H])([H])C([H])([H])C([H])(n5nc(-c6c([H])c([H])c(Oc7c([H])c([H])c(F)c([H])c7F)c([H])c6[H])c(C(=O)N([H])[H])c5N([H])[H])C4([H])[H])C([H])([H])C3([H])[H])c([H])c([H])c2C1([H])[H]

$$$$
83:0:0
     RDKit          3D

100107  0  0  1  0  0  0  0  0999 V2000
  -26.2680  -23.5380   16.7140 C   0  0  0  0  0  2  0  0  0  0  0  0
  -24.9450  -23.1820   17.4260 C   0  0  0  0  0  2  0  0  0  0  0  0
  -24.4830  -24.3020   18.3800 C   0  0  0  0  0  2  0  0  0  0  0  0
  -24.8510  -24.0860   19.8040 N   0  0  0  0  0  4  0  0  0  0  0  0
  -24.2820  -23.3320   20.1610 H   0  0  0  0  0  0  0  0  0  0  0  0
  -24.5680  -24.9200   20.2870 H   0  0  0  0  0  0  0  0  0  0  0  0
  -26.2770  -23.8180   20.1630 C   0  0  0  0  0  2  0  0  0  0  0  0
  -26.8530  -24.6570   21.3540 C   0  0  0  0  0  2  0  0  0  0  0  0
  -28.2590  -25.3530   21.1610 C   0  0  0  0  0  2  0  0  0  0  0  0
  -28.4510  -26.5990   20.4140 O   0  0  0  0  0  0  0  0  0  0  0  0
  -24.6650  -31.8130   23.4950 C   0  0  0  0  0  0  0  0  0  0  0  0
  -27.3670  -27.4460   20.3710 C   0  0  0  0  0  0  0  0  0  0  0  0
  -23.4960  -30.4260   21.8120 C   0  0  0  0  0  3  0  0  0  0  0  0
  -24.9870  -28.9530   20.3660 C   0  0  0  0  0  0  0  0  0  0  0  0
  -26.0150  -30.8080   21.6550 C   0  0  0  0  0  2  0  0  0  0  0  0
  -26.1140  -29.4320   21.0340 C   0  0  0  0  0  0  0  0  0  0  0  0
  -27.3110  -28.6700   21.0650 C   0  0  0  0  0  3  0  0  0  0  0  0
  -26.2730  -27.0650   19.5870 C   0  0  0  0  0  3  0  0  0  0  0  0
  -25.0600  -27.7700   19.6150 C   0  0  0  0  0  3  0  0  0  0  0  0
  -23.7440  -29.8020   20.4150 C   0  0  0  0  0  2  0  0  0  0  0  0
  -24.7440  -31.0300   22.3840 N   0  0  0  0  0  0  0  0  0  0  0  0
  -23.5740  -32.0470   24.0410 O   0  0  0  0  0  0  0  0  0  0  0  0
  -22.8490  -29.3670   22.7410 C   0  0  0  0  0  0  0  0  0  0  0  0
  -21.5530  -29.0920   22.5240 N   0  0  0  0  0  0  0  0  0  0  0  0
  -23.5110  -28.8080   23.6220 O   0  0  0  0  0  0  0  0  0  0  0  0
  -21.0750  -29.6110   21.8090 H   0  0  0  0  0  0  0  0  0  0  0  0
  -18.2690  -27.6000   22.7490 C   0  0  0  0  0  0  0  0  0  0  0  0
  -20.7470  -28.1120   23.2640 C   0  0  0  0  0  3  0  0  0  0  0  0
  -21.0370  -26.6750   22.7720 C   0  0  0  0  0  2  0  0  0  0  0  0
  -20.0820  -26.2100   21.6680 C   0  0  0  0  0  2  0  0  0  0  0  0
  -18.6400  -26.2450   22.1710 C   0  0  0  0  0  2  0  0  0  0  0  0
  -19.2620  -28.4840   23.2440 C   0  0  0  0  0  0  0  0  0  0  0  0
  -18.8680  -29.7440   23.7500 C   0  0  0  0  0  3  0  0  0  0  0  0
  -17.5130  -30.1220   23.7610 C   0  0  0  0  0  3  0  0  0  0  0  0
  -16.5310  -29.2390   23.2680 C   0  0  0  0  0  3  0  0  0  0  0  0
  -16.9120  -27.9810   22.7730 C   0  0  0  0  0  3  0  0  0  0  0  0
  -25.9370  -32.4520   24.1330 C   0  0  0  0  0  3  0  0  0  0  0  0
  -25.6510  -33.8670   24.3590 N   0  0  0  0  0  0  0  0  0  0  0  0
  -26.0540  -34.8510   23.5470 C   0  0  0  0  0  0  0  0  0  0  0  0
  -26.7550  -34.6560   22.5500 O   0  0  0  0  0  0  0  0  0  0  0  0
  -25.0100  -34.0860   25.1060 H   0  0  0  0  0  0  0  0  0  0  0  0
  -24.3790  -36.6500   23.0100 C   0  0  0  0  0  1  0  0  0  0  0  0
  -25.5970  -36.2940   23.8800 C   0  0  0  0  0  3  0  0  0  0  0  0
  -27.7350  -37.1820   24.6860 C   0  0  0  0  0  1  0  0  0  0  0  0
  -26.6620  -37.3050   23.7040 N   0  0  0  0  0  0  0  0  0  0  0  0
  -26.2850  -38.2440   23.7720 H   0  0  0  0  0  0  0  0  0  0  0  0
  -26.3760  -31.7420   25.4710 C   0  0  1  0  0  0  0  0  0  0  0  0
  -25.2220  -31.5610   26.4940 C   0  0  0  0  0  1  0  0  0  0  0  0
  -26.9440  -30.3370   25.1540 C   0  0  0  0  0  1  0  0  0  0  0  0
  -27.5160  -32.5410   26.1480 C   0  0  0  0  0  1  0  0  0  0  0  0
  -27.2810  -22.3900   16.5910 C   0  0  0  0  0  2  0  0  0  0  0  0
  -28.0590  -22.1910   17.8400 N   0  0  0  0  0  4  0  0  0  0  0  0
  -29.0060  -22.0240   17.5340 H   0  0  0  0  0  0  0  0  0  0  0  0
  -28.1070  -23.0420   18.3760 H   0  0  0  0  0  0  0  0  0  0  0  0
  -27.6910  -21.0370   18.7070 C   0  0  0  0  0  2  0  0  0  0  0  0
  -29.0020  -20.3530   19.1650 C   0  0  0  0  0  2  0  0  0  0  0  0
  -28.9410  -19.1180   20.1000 C   0  0  0  0  0  2  0  0  0  0  0  0
  -30.0400  -18.0980   19.7270 C   0  0  0  0  0  2  0  0  0  0  0  0
  -30.9660  -14.7970   21.1100 C   0  0  0  0  0  0  0  0  0  0  0  0
  -30.7520  -12.7880   19.7200 C   0  0  0  0  0  2  0  0  0  0  0  0
  -29.9060  -13.1960   18.4890 C   0  0  0  0  0  2  0  0  0  0  0  0
  -28.3990  -13.0450   18.7890 C   0  0  0  0  0  2  0  0  0  0  0  0
  -27.9640  -13.7200   20.1150 C   0  0  0  0  0  3  0  0  0  0  0  0
  -28.9380  -13.3290   21.2590 C   0  0  0  0  0  2  0  0  0  0  0  0
  -30.3080  -13.6410   20.8230 N   0  0  0  0  0  0  0  0  0  0  0  0
  -32.1880  -14.9410   21.0880 O   0  0  0  0  0  0  0  0  0  0  0  0
  -30.5170  -17.2470   20.8780 C   0  0  0  0  0  0  0  0  0  0  0  0
  -30.1440  -15.9430   20.8530 N   0  0  0  0  0  0  0  0  0  0  0  0
  -31.2820  -17.8250   21.8380 N   0  0  0  0  0  4  0  0  0  0  0  0
  -29.2240  -15.7980   20.4670 H   0  0  0  0  0  0  0  0  0  0  0  0
  -31.4870  -18.8210   21.8440 H   0  0  0  0  0  0  0  0  0  0  0  0
  -31.6550  -17.3070   22.6190 H   0  0  0  0  0  0  0  0  0  0  0  0
  -25.4990  -14.2950   20.5770 C   0  0  0  0  0  0  0  0  0  0  0  0
  -24.4100  -13.4980   20.8280 C   0  0  0  0  0  0  0  0  0  0  0  0
  -24.9000  -12.1610   20.8300 C   0  0  0  0  0  0  0  0  0  0  0  0
  -26.5750  -13.4280   20.4520 N   0  0  0  0  0  0  0  0  0  0  0  0
  -26.2130  -12.1420   20.6750 N   0  0  0  0  0  0  0  0  0  0  0  0
  -24.1810  -10.8810   20.9390 C   0  0  0  0  0  0  0  0  0  0  0  0
  -24.5040   -9.9390   21.9390 C   0  0  0  0  0  3  0  0  0  0  0  0
  -23.7920   -8.7240   22.0320 C   0  0  0  0  0  3  0  0  0  0  0  0
  -22.7450   -8.4440   21.1210 C   0  0  0  0  0  0  0  0  0  0  0  0
  -22.4470   -9.3760   20.1110 C   0  0  0  0  0  3  0  0  0  0  0  0
  -23.1600  -10.5820   20.0180 C   0  0  0  0  0  3  0  0  0  0  0  0
  -22.0160   -7.2800   21.1180 O   0  0  0  0  0  0  0  0  0  0  0  0
  -21.7660   -6.5860   22.2700 C   0  0  0  0  0  0  0  0  0  0  0  0
  -21.0620   -7.1620   23.3500 C   0  0  0  0  0  3  0  0  0  0  0  0
  -20.7720   -6.3910   24.4920 C   0  0  0  0  0  3  0  0  0  0  0  0
  -21.1720   -5.0430   24.5520 C   0  0  0  0  0  0  0  0  0  0  0  0
  -21.8660   -4.4650   23.4750 C   0  0  0  0  0  3  0  0  0  0  0  0
  -22.1610   -5.2340   22.3350 C   0  0  0  0  0  0  0  0  0  0  0  0
  -22.8160   -4.6710   21.2900 F   0  0  0  0  0  0  0  0  0  0  0  0
  -20.8830   -4.2930   25.6420 F   0  0  0  0  0  0  0  0  0  0  0  0
  -22.9850  -13.9510   20.9410 C   0  0  0  0  0  0  0  0  0  0  0  0
  -22.1800  -13.2410   21.7310 N   0  0  0  0  0  0  0  0  0  0  0  0
  -22.5840  -14.9610   20.3670 O   0  0  0  0  0  0  0  0  0  0  0  0
  -22.5190  -12.4280   22.2240 H   0  0  0  0  0  0  0  0  0  0  0  0
  -21.2200  -13.5290   21.8480 H   0  0  0  0  0  0  0  0  0  0  0  0
  -25.6470  -15.6670   20.4330 N   0  0  0  0  0  0  0  0  0  0  0  0
  -24.8410  -16.2840   20.4710 H   0  0  0  0  0  0  0  0  0  0  0  0
  -26.5030  -16.1620   20.2310 H   0  0  0  0  0  0  0  0  0  0  0  0
  1  2  1  0
  2  3  1  0
  3  4  1  0
  4  5  1  0
  4  7  1  0
  4  6  1  0
  7  8  1  0
  9  8  1  0
 10  9  1  0
 11 22  2  0
 12 10  1  0
 12 17  1  0
 13 21  1  0
 13 23  1  0
 14 20  1  0
 14 16  1  0
 15 21  1  0
 16 17  2  0
 16 15  1  0
 18 19  1  0
 18 12  2  0
 19 14  2  0
 20 13  1  0
 21 11  1  0
 23 25  2  0
 24 23  1  0
 26 24  1  0
 27 36  2  0
 27 32  1  0
 28 24  1  0
 29 28  1  0
 30 31  1  0
 30 29  1  0
 31 27  1  0
 32 28  1  0
 32 33  2  0
 33 34  1  0
 35 34  2  0
 36 35  1  0
 37 11  1  0
 37 38  1  0
 37 47  1  0
 38 41  1  0
 39 43  1  0
 39 38  1  0
 40 39  2  0
 43 42  1  0
 45 46  1  0
 45 43  1  0
 45 44  1  0
 47 50  1  1
 47 48  1  0
 49 47  1  0
 51  1  1  0
 51 52  1  0
 52 54  1  0
 52 55  1  0
 53 52  1  0
 55 56  1  0
 56 57  1  0
 58 57  1  0
 58 67  1  0
 60 65  1  0
 61 62  1  0
 61 60  1  0
 63 62  1  0
 63 76  1  0
 63 64  1  0
 65 59  1  0
 65 64  1  0
 66 59  2  0
 67 69  2  0
 68 67  1  0
 68 59  1  0
 69 71  1  0
 69 72  1  0
 70 68  1  0
 73 74  2  0
 74 75  1  0
 74 93  1  0
 75 78  1  0
 76 73  1  0
 76 77  1  0
 77 75  2  0
 78 79  1  0
 79 80  2  0
 81 80  1  0
 82 81  2  0
 83 82  1  0
 83 78  2  0
 84 81  1  0
 84 85  1  0
 85 90  2  0
 85 86  1  0
 86 87  2  0
 87 88  1  0
 88 92  1  0
 89 88  2  0
 90 89  1  0
 91 90  1  0
 93 94  1  0
 94 97  1  0
 94 96  1  0
 95 93  2  0
 98 99  1  0
 98 73  1  0
100 98  1  0
M  ISO  4   9 101  10 101  59 100  68 100
M  END
>  <TORSDO>  (83) 
F 28

>  <SCORE>  (83) 
-9.123

>  <name>  (83) 
83

>  <ligand_id>  (83) 
83

>  <original_smiles>  (83) 
[H]c1c([H])c([H])c2c(c1[H])C([H])([H])C([H])([H])C([H])([H])C2([H])N([H])C(=O)C1([H])N(C(=O)C([H])(N([H])C(=O)C([H])(N([H])C([H])([H])[H])C([H])([H])[H])C(C([H])([H])[H])(C([H])([H])[H])C([H])([H])[H])C([H])([H])c2c([H])c(OC([H])([H])C([H])([H])C([H])([H])[N+]([H])([H])C([H])([H])C([H])([H])C([H])([H])C([H])([H])[N+]([H])([H])C([H])([H])C([H])([H])C([H])([H])C([H])([H])C(N([H])C(=O)N3C([H])([H])C([H])([H])C([H])([H])C([H])(n4nc(-c5c([H])c([H])c(Oc6c([H])c([H])c(F)c([H])c6F)c([H])c5[H])c(C(=O)N([H])[H])c4N([H])[H])C3([H])[H])=[N+]([H])[H])c([H])c([H])c2C1([H])[H]

>  <smiles>  (83) 
[H]c1c([H])c([H])c2c(c1[H])C([H])([H])C([H])([H])C([H])([H])C2([H])N([H])C(=O)C1([H])N(C(=O)C([H])(N([H])C(=O)C([H])(N([H])C([H])([H])[H])C([H])([H])[H])C(C([H])([H])[H])(C([H])([H])[H])C([H])([H])[H])C([H])([H])c2c([H])c(OC([H])([H])C([H])([H])C([H])([H])[N+]([H])([H])C([H])([H])C([H])([H])C([H])([H])C([H])([H])[N+]([H])([H])C([H])([H])C([H])([H])C([H])([H])C([H])([H])C(N([H])C(=O)N3C([H])([H])C([H])([H])C([H])([H])C([H])(n4nc(-c5c([H])c([H])c(Oc6c([H])c([H])c(F)c([H])c6F)c([H])c5[H])c(C(=O)N([H])[H])c4N([H])[H])C3([H])[H])=[N+]([H])[H])c([H])c([H])c2C1([H])[H]

$$$$
84:0:0
     RDKit          3D

 92100  0  0  1  0  0  0  0  0999 V2000
  -28.9610  -23.5490   19.0760 C   0  0  0  0  0  2  0  0  0  0  0  0
  -28.6370  -23.4720   21.3970 C   0  0  0  0  0  2  0  0  0  0  0  0
  -29.0100  -21.8860   19.0450 C   0  0  0  0  0  2  0  0  0  0  0  0
  -28.5440  -21.8310   21.3050 C   0  0  0  0  0  2  0  0  0  0  0  0
  -28.1580  -24.4160   20.1880 C   0  0  0  0  0  3  0  0  0  0  0  0
  -29.3610  -21.0740   20.2760 N   0  0  0  0  0  0  0  0  0  0  0  0
  -28.2840  -26.0330   20.2740 O   0  0  0  0  0  0  0  0  0  0  0  0
  -24.6440  -31.8870   23.1950 C   0  0  0  0  0  0  0  0  0  0  0  0
  -27.2200  -27.0480   20.2200 C   0  0  0  0  0  0  0  0  0  0  0  0
  -23.4460  -30.4610   21.5860 C   0  0  0  0  0  3  0  0  0  0  0  0
  -24.8890  -28.8530   20.1750 C   0  0  0  0  0  0  0  0  0  0  0  0
  -26.0020  -30.7080   21.4020 C   0  0  0  0  0  2  0  0  0  0  0  0
  -26.0790  -29.2930   20.7700 C   0  0  0  0  0  0  0  0  0  0  0  0
  -27.2360  -28.4130   20.7680 C   0  0  0  0  0  3  0  0  0  0  0  0
  -25.9930  -26.7270   19.5940 C   0  0  0  0  0  3  0  0  0  0  0  0
  -24.8670  -27.5870   19.5690 C   0  0  0  0  0  3  0  0  0  0  0  0
  -23.6610  -29.7550   20.2200 C   0  0  0  0  0  2  0  0  0  0  0  0
  -24.7200  -31.0460   22.1140 N   0  0  0  0  0  0  0  0  0  0  0  0
  -23.5570  -32.1730   23.7210 O   0  0  0  0  0  0  0  0  0  0  0  0
  -22.7710  -29.4710   22.5710 C   0  0  0  0  0  0  0  0  0  0  0  0
  -21.4440  -29.2850   22.4470 N   0  0  0  0  0  0  0  0  0  0  0  0
  -23.4470  -28.8720   23.4120 O   0  0  0  0  0  0  0  0  0  0  0  0
  -20.9550  -29.8160   21.7420 H   0  0  0  0  0  0  0  0  0  0  0  0
  -18.0760  -28.0530   22.9860 C   0  0  0  0  0  0  0  0  0  0  0  0
  -20.6330  -28.3500   23.2340 C   0  0  0  0  0  3  0  0  0  0  0  0
  -20.7450  -26.9100   22.6790 C   0  0  0  0  0  2  0  0  0  0  0  0
  -19.6430  -26.5630   21.6730 C   0  0  0  0  0  2  0  0  0  0  0  0
  -18.2640  -26.6990   22.3210 C   0  0  0  0  0  2  0  0  0  0  0  0
  -19.1880  -28.8360   23.3970 C   0  0  0  0  0  0  0  0  0  0  0  0
  -18.9540  -30.1000   23.9770 C   0  0  0  0  0  3  0  0  0  0  0  0
  -17.6420  -30.5830   24.1490 C   0  0  0  0  0  3  0  0  0  0  0  0
  -16.5460  -29.8000   23.7520 C   0  0  0  0  0  3  0  0  0  0  0  0
  -16.7640  -28.5360   23.1750 C   0  0  0  0  0  3  0  0  0  0  0  0
  -25.9140  -32.5420   23.8140 C   0  0  0  0  0  3  0  0  0  0  0  0
  -26.4280  -31.7950   25.1080 C   0  0  1  0  0  0  0  0  0  0  0  0
  -25.3340  -31.5690   26.1780 C   0  0  0  0  0  1  0  0  0  0  0  0
  -27.0210  -30.4140   24.7420 C   0  0  0  0  0  1  0  0  0  0  0  0
  -27.5730  -32.6070   25.7600 C   0  0  0  0  0  1  0  0  0  0  0  0
  -25.5860  -33.9420   24.1370 N   0  0  0  0  0  0  0  0  0  0  0  0
  -25.9200  -35.0000   23.3870 C   0  0  0  0  0  0  0  0  0  0  0  0
  -26.5990  -34.9010   22.3600 O   0  0  0  0  0  0  0  0  0  0  0  0
  -24.9720  -34.0870   24.9220 H   0  0  0  0  0  0  0  0  0  0  0  0
  -24.2040  -36.8080   23.0160 C   0  0  0  0  0  1  0  0  0  0  0  0
  -25.4290  -36.3880   23.8460 C   0  0  0  0  0  3  0  0  0  0  0  0
  -27.5410  -37.2740   24.7330 C   0  0  0  0  0  1  0  0  0  0  0  0
  -26.4640  -37.4420   23.7590 N   0  0  0  0  0  0  0  0  0  0  0  0
  -26.0570  -38.3620   23.8910 H   0  0  0  0  0  0  0  0  0  0  0  0
  -30.0630  -19.6080   20.4250 C   0  0  0  0  0  3  0  0  0  0  0  0
  -29.8560  -17.9870   19.7570 C   0  0  0  0  0  2  0  0  0  0  0  0
  -30.6120  -15.2300   20.2420 C   0  0  0  0  0  0  0  0  0  0  0  0
  -30.5380  -12.8130   19.4010 C   0  0  0  0  0  2  0  0  0  0  0  0
  -29.6160  -12.6820   18.1610 C   0  0  0  0  0  2  0  0  0  0  0  0
  -28.1600  -12.4250   18.5920 C   0  0  0  0  0  2  0  0  0  0  0  0
  -27.7150  -13.3770   19.7330 C   0  0  0  0  0  3  0  0  0  0  0  0
  -28.7610  -13.5030   20.8660 C   0  0  0  0  0  2  0  0  0  0  0  0
  -30.0220  -13.9460   20.2460 N   0  0  0  0  0  0  0  0  0  0  0  0
  -31.8100  -15.2510   19.9330 O   0  0  0  0  0  0  0  0  0  0  0  0
  -29.8540  -16.4680   20.3750 N   0  0  0  0  0  0  0  0  0  0  0  0
  -28.9180  -16.2380   20.6740 H   0  0  0  0  0  0  0  0  0  0  0  0
  -25.3380  -13.9270   20.4770 C   0  0  0  0  0  0  0  0  0  0  0  0
  -24.2750  -13.1490   20.8400 C   0  0  0  0  0  0  0  0  0  0  0  0
  -24.7460  -11.7990   20.8040 C   0  0  0  0  0  0  0  0  0  0  0  0
  -26.3860  -13.0580   20.2350 N   0  0  0  0  0  0  0  0  0  0  0  0
  -26.0360  -11.7700   20.4950 N   0  0  0  0  0  0  0  0  0  0  0  0
  -24.0180  -10.5380   20.9910 C   0  0  0  0  0  0  0  0  0  0  0  0
  -24.4230   -9.5810   21.9490 C   0  0  0  0  0  3  0  0  0  0  0  0
  -23.6960   -8.3830   22.1170 C   0  0  0  0  0  3  0  0  0  0  0  0
  -22.5480   -8.1340   21.3290 C   0  0  0  0  0  0  0  0  0  0  0  0
  -22.1600   -9.0820   20.3660 C   0  0  0  0  0  3  0  0  0  0  0  0
  -22.8880  -10.2700   20.1940 C   0  0  0  0  0  3  0  0  0  0  0  0
  -21.7920   -6.9900   21.4090 O   0  0  0  0  0  0  0  0  0  0  0  0
  -21.6820   -6.2810   22.5800 C   0  0  0  0  0  0  0  0  0  0  0  0
  -21.1440   -6.8520   23.7530 C   0  0  0  0  0  3  0  0  0  0  0  0
  -20.9830   -6.0630   24.9100 C   0  0  0  0  0  3  0  0  0  0  0  0
  -21.3580   -4.7060   24.8930 C   0  0  0  0  0  0  0  0  0  0  0  0
  -21.8930   -4.1360   23.7240 C   0  0  0  0  0  3  0  0  0  0  0  0
  -22.0530   -4.9220   22.5720 C   0  0  0  0  0  0  0  0  0  0  0  0
  -22.5490   -4.3640   21.4390 F   0  0  0  0  0  0  0  0  0  0  0  0
  -21.2040   -3.9470   26.0010 F   0  0  0  0  0  0  0  0  0  0  0  0
  -22.8790  -13.6280   21.1020 C   0  0  0  0  0  0  0  0  0  0  0  0
  -22.1430  -12.9290   21.9600 N   0  0  0  0  0  0  0  0  0  0  0  0
  -22.4520  -14.6570   20.5850 O   0  0  0  0  0  0  0  0  0  0  0  0
  -22.5030  -12.0970   22.4040 H   0  0  0  0  0  0  0  0  0  0  0  0
  -21.2020  -13.2340   22.1740 H   0  0  0  0  0  0  0  0  0  0  0  0
  -25.4960  -15.2980   20.2970 N   0  0  0  0  0  0  0  0  0  0  0  0
  -24.7120  -15.9350   20.3860 H   0  0  0  0  0  0  0  0  0  0  0  0
  -26.3160  -15.7290   19.8920 H   0  0  0  0  0  0  0  0  0  0  0  0
  -30.8880  -19.5850   21.7400 C   0  0  0  0  0  2  0  0  0  0  0  0
  -31.9830  -20.5940   21.7360 N   0  0  0  0  0  4  0  0  0  0  0  0
  -32.6450  -20.4170   20.9970 H   0  0  0  0  0  0  0  0  0  0  0  0
  -32.5030  -20.5850   22.5960 H   0  0  0  0  0  0  0  0  0  0  0  0
  -31.6160  -21.5210   21.6200 H   0  0  0  0  0  0  0  0  0  0  0  0
  1  5  1  0
  3  1  1  0
  3  6  1  0
  4  2  1  0
  5  7  1  0
  5  2  1  0
  6 48  1  0
  6  4  1  0
  8 19  2  0
  9  7  1  0
  9 14  1  0
 10 18  1  0
 10 20  1  0
 11 17  1  0
 11 13  1  0
 12 18  1  0
 13 12  1  0
 14 13  2  0
 15  9  2  0
 16 15  1  0
 16 11  2  0
 17 10  1  0
 18  8  1  0
 20 22  2  0
 21 20  1  0
 23 21  1  0
 24 33  2  0
 24 29  1  0
 25 21  1  0
 25 29  1  0
 26 25  1  0
 27 28  1  0
 27 26  1  0
 28 24  1  0
 29 30  2  0
 30 31  1  0
 32 31  2  0
 33 32  1  0
 34  8  1  0
 34 39  1  0
 34 35  1  0
 35 38  1  1
 35 36  1  0
 37 35  1  0
 39 42  1  0
 40 44  1  0
 40 39  1  0
 41 40  2  0
 44 43  1  0
 46 44  1  0
 46 47  1  0
 46 45  1  0
 48 49  1  0
 48 88  1  0
 49 58  1  0
 50 56  1  0
 50 58  1  0
 51 56  1  0
 52 53  1  0
 52 51  1  0
 54 53  1  0
 54 63  1  0
 54 55  1  0
 56 55  1  0
 57 50  2  0
 58 59  1  0
 60 61  2  0
 61 80  1  0
 62 61  1  0
 62 65  1  0
 63 60  1  0
 63 64  1  0
 64 62  2  0
 65 66  1  0
 66 67  2  0
 68 71  1  0
 68 67  1  0
 69 68  2  0
 70 69  1  0
 70 65  2  0
 71 72  1  0
 72 73  1  0
 73 74  2  0
 75 74  1  0
 75 79  1  0
 76 75  2  0
 77 72  2  0
 77 76  1  0
 78 77  1  0
 80 81  1  0
 81 84  1  0
 81 83  1  0
 82 80  2  0
 85 86  1  0
 85 60  1  0
 87 85  1  0
 89 88  1  0
 89 91  1  0
 90 89  1  0
 92 89  1  0
M  ISO  4   5 101   7 101  50 100  58 100
M  END
>  <TORSDO>  (84) 
F 20

>  <SCORE>  (84) 
-14.602

>  <name>  (84) 
84

>  <ligand_id>  (84) 
84

>  <original_smiles>  (84) 
[H]c1c([H])c([H])c2c(c1[H])C([H])([H])C([H])([H])C([H])([H])C2([H])N([H])C(=O)C1([H])N(C(=O)C([H])(N([H])C(=O)C([H])(N([H])C([H])([H])[H])C([H])([H])[H])C(C([H])([H])[H])(C([H])([H])[H])C([H])([H])[H])C([H])([H])c2c([H])c(OC3([H])C([H])([H])C([H])([H])N(C([H])(C([H])([H])N([H])C(=O)N4C([H])([H])C([H])([H])C([H])([H])C([H])(n5nc(-c6c([H])c([H])c(Oc7c([H])c([H])c(F)c([H])c7F)c([H])c6[H])c(C(=O)N([H])[H])c5N([H])[H])C4([H])[H])C([H])([H])[N+]([H])([H])[H])C([H])([H])C3([H])[H])c([H])c([H])c2C1([H])[H]

>  <smiles>  (84) 
[H]c1c([H])c([H])c2c(c1[H])C([H])([H])C([H])([H])C([H])([H])C2([H])N([H])C(=O)C1([H])N(C(=O)C([H])(N([H])C(=O)C([H])(N([H])C([H])([H])[H])C([H])([H])[H])C(C([H])([H])[H])(C([H])([H])[H])C([H])([H])[H])C([H])([H])c2c([H])c(OC3([H])C([H])([H])C([H])([H])N(C([H])(C([H])([H])N([H])C(=O)N4C([H])([H])C([H])([H])C([H])([H])C([H])(n5nc(-c6c([H])c([H])c(Oc7c([H])c([H])c(F)c([H])c7F)c([H])c6[H])c(C(=O)N([H])[H])c5N([H])[H])C4([H])[H])C([H])([H])[N+]([H])([H])[H])C([H])([H])C3([H])[H])c([H])c([H])c2C1([H])[H]

$$$$
85:0:0
     RDKit          3D

103111  0  0  1  0  0  0  0  0999 V2000
  -32.0220  -23.8190   20.3440 C   0  0  0  0  0  3  0  0  0  0  0  0
  -31.0600  -22.9340   18.2880 C   0  0  0  0  0  3  0  0  0  0  0  0
  -31.4730  -22.7400   21.0670 C   0  0  0  0  0  3  0  0  0  0  0  0
  -30.5070  -21.8590   19.0100 C   0  0  0  0  0  3  0  0  0  0  0  0
  -31.8120  -23.9260   18.9520 C   0  0  0  0  0  0  0  0  0  0  0  0
  -30.7150  -21.7470   20.4050 C   0  0  0  0  0  0  0  0  0  0  0  0
  -32.3710  -25.1170   18.1750 C   0  0  0  0  0  2  0  0  0  0  0  0
  -31.7240  -26.3820   18.5820 N   0  0  0  0  0  4  0  0  0  0  0  0
  -32.2100  -27.1560   18.1490 H   0  0  0  0  0  0  0  0  0  0  0  0
  -31.8780  -26.4600   19.5720 H   0  0  0  0  0  0  0  0  0  0  0  0
  -30.2630  -26.5050   18.3380 C   0  0  0  0  0  2  0  0  0  0  0  0
  -29.5820  -27.3700   19.4290 C   0  0  0  0  0  2  0  0  0  0  0  0
  -28.4300  -26.7130   19.9650 O   0  0  0  0  0  0  0  0  0  0  0  0
  -24.6250  -31.8780   23.2290 C   0  0  0  0  0  0  0  0  0  0  0  0
  -27.2830  -27.4630   20.0880 C   0  0  0  0  0  0  0  0  0  0  0  0
  -23.4170  -30.4650   21.5980 C   0  0  0  0  0  3  0  0  0  0  0  0
  -24.8680  -28.9240   20.1760 C   0  0  0  0  0  0  0  0  0  0  0  0
  -25.9400  -30.8330   21.3860 C   0  0  0  0  0  2  0  0  0  0  0  0
  -26.0300  -29.4620   20.7460 C   0  0  0  0  0  0  0  0  0  0  0  0
  -27.2430  -28.7370   20.7030 C   0  0  0  0  0  3  0  0  0  0  0  0
  -26.0910  -26.9130   19.5730 C   0  0  0  0  0  3  0  0  0  0  0  0
  -24.8910  -27.6460   19.5940 C   0  0  0  0  0  3  0  0  0  0  0  0
  -23.6210  -29.7740   20.2240 C   0  0  0  0  0  2  0  0  0  0  0  0
  -24.6800  -31.0720   22.1300 N   0  0  0  0  0  0  0  0  0  0  0  0
  -23.5460  -32.1510   23.7710 O   0  0  0  0  0  0  0  0  0  0  0  0
  -22.7680  -29.4500   22.5660 C   0  0  0  0  0  0  0  0  0  0  0  0
  -21.4420  -29.2680   22.4440 N   0  0  0  0  0  0  0  0  0  0  0  0
  -23.4540  -28.8260   23.3800 O   0  0  0  0  0  0  0  0  0  0  0  0
  -20.9510  -29.8230   21.7570 H   0  0  0  0  0  0  0  0  0  0  0  0
  -18.0700  -28.0740   22.9510 C   0  0  0  0  0  0  0  0  0  0  0  0
  -20.6280  -28.3330   23.2180 C   0  0  0  0  0  3  0  0  0  0  0  0
  -20.7290  -26.9010   22.6460 C   0  0  0  0  0  2  0  0  0  0  0  0
  -19.6250  -26.5750   21.6360 C   0  0  0  0  0  2  0  0  0  0  0  0
  -18.2440  -26.7210   22.2820 C   0  0  0  0  0  2  0  0  0  0  0  0
  -19.1880  -28.8370   23.3770 C   0  0  0  0  0  0  0  0  0  0  0  0
  -18.9710  -30.1050   23.9640 C   0  0  0  0  0  3  0  0  0  0  0  0
  -17.6660  -30.6050   24.1300 C   0  0  0  0  0  3  0  0  0  0  0  0
  -16.5620  -29.8390   23.7230 C   0  0  0  0  0  3  0  0  0  0  0  0
  -16.7640  -28.5740   23.1400 C   0  0  0  0  0  3  0  0  0  0  0  0
  -25.9120  -32.5150   23.8410 C   0  0  0  0  0  3  0  0  0  0  0  0
  -25.6010  -33.9110   24.1770 N   0  0  0  0  0  0  0  0  0  0  0  0
  -25.9280  -34.9660   23.4180 C   0  0  0  0  0  0  0  0  0  0  0  0
  -26.5950  -34.8660   22.3850 O   0  0  0  0  0  0  0  0  0  0  0  0
  -25.0080  -34.0620   24.9790 H   0  0  0  0  0  0  0  0  0  0  0  0
  -24.1950  -36.7560   23.0720 C   0  0  0  0  0  1  0  0  0  0  0  0
  -25.4380  -36.3510   23.8800 C   0  0  0  0  0  3  0  0  0  0  0  0
  -27.5740  -37.2370   24.7090 C   0  0  0  0  0  1  0  0  0  0  0  0
  -26.4680  -37.4070   23.7690 N   0  0  0  0  0  0  0  0  0  0  0  0
  -26.0590  -38.3250   23.9230 H   0  0  0  0  0  0  0  0  0  0  0  0
  -26.4430  -31.7420   25.1100 C   0  0  1  0  0  0  0  0  0  0  0  0
  -25.3620  -31.5000   26.1890 C   0  0  0  0  0  1  0  0  0  0  0  0
  -27.0260  -30.3660   24.7090 C   0  0  0  0  0  1  0  0  0  0  0  0
  -27.5960  -32.5390   25.7650 C   0  0  0  0  0  1  0  0  0  0  0  0
  -30.1670  -20.5440   21.1780 C   0  0  0  0  0  2  0  0  0  0  0  0
  -30.8470  -19.2800   20.7860 N   0  0  1  0  0  4  0  0  0  0  0  0
  -30.5990  -19.2020   19.8120 H   0  0  0  0  0  0  0  0  0  0  0  0
  -32.3420  -19.3260   20.7950 C   0  0  0  0  0  2  0  0  0  0  0  0
  -32.8940  -19.2140   19.3520 C   0  0  0  0  0  2  0  0  0  0  0  0
  -34.3170  -18.6250   19.2250 C   0  0  0  0  0  2  0  0  0  0  0  0
  -35.3730  -19.4670   19.8210 N   0  0  0  0  0  4  0  0  0  0  0  0
  -36.2710  -19.0370   19.6620 H   0  0  0  0  0  0  0  0  0  0  0  0
  -35.2750  -19.5670   20.8140 H   0  0  0  0  0  0  0  0  0  0  0  0
  -35.4010  -20.3780   19.3990 H   0  0  0  0  0  0  0  0  0  0  0  0
  -30.2800  -18.0390   21.3960 C   0  0  0  0  0  2  0  0  0  0  0  0
  -30.6060  -16.8320   20.4870 C   0  0  0  0  0  2  0  0  0  0  0  0
  -30.7650  -14.4010   20.4960 C   0  0  0  0  0  0  0  0  0  0  0  0
  -30.3600  -12.2740   19.3580 C   0  0  0  0  0  2  0  0  0  0  0  0
  -29.4500  -12.5300   18.1390 C   0  0  0  0  0  2  0  0  0  0  0  0
  -27.9720  -12.4090   18.5550 C   0  0  0  0  0  2  0  0  0  0  0  0
  -27.6340  -13.2480   19.8180 C   0  0  0  0  0  3  0  0  0  0  0  0
  -28.6810  -13.0310   20.9410 C   0  0  0  0  0  2  0  0  0  0  0  0
  -30.0170  -13.2740   20.3800 N   0  0  0  0  0  0  0  0  0  0  0  0
  -31.8980  -14.4930   20.0270 O   0  0  0  0  0  0  0  0  0  0  0  0
  -30.1410  -15.5090   20.9340 N   0  0  0  0  0  0  0  0  0  0  0  0
  -29.2100  -15.4190   21.3150 H   0  0  0  0  0  0  0  0  0  0  0  0
  -25.2230  -13.8520   20.4870 C   0  0  0  0  0  0  0  0  0  0  0  0
  -24.1540  -13.0800   20.8500 C   0  0  0  0  0  0  0  0  0  0  0  0
  -24.6170  -11.7290   20.8400 C   0  0  0  0  0  0  0  0  0  0  0  0
  -26.2750  -12.9720   20.2840 N   0  0  0  0  0  0  0  0  0  0  0  0
  -25.9120  -11.6910   20.5520 N   0  0  0  0  0  0  0  0  0  0  0  0
  -23.8910  -10.4660   21.0350 C   0  0  0  0  0  0  0  0  0  0  0  0
  -24.3270   -9.5060   21.9730 C   0  0  0  0  0  3  0  0  0  0  0  0
  -23.6050   -8.3060   22.1590 C   0  0  0  0  0  3  0  0  0  0  0  0
  -22.4330   -8.0580   21.4070 C   0  0  0  0  0  0  0  0  0  0  0  0
  -22.0170   -9.0070   20.4570 C   0  0  0  0  0  3  0  0  0  0  0  0
  -22.7370  -10.1980   20.2680 C   0  0  0  0  0  3  0  0  0  0  0  0
  -21.6840   -6.9110   21.4970 O   0  0  0  0  0  0  0  0  0  0  0  0
  -21.6460   -6.1640   22.6470 C   0  0  0  0  0  0  0  0  0  0  0  0
  -21.2420   -6.7200   23.8810 C   0  0  0  0  0  3  0  0  0  0  0  0
  -21.1570   -5.9030   25.0270 C   0  0  0  0  0  3  0  0  0  0  0  0
  -21.4560   -4.5310   24.9390 C   0  0  0  0  0  0  0  0  0  0  0  0
  -21.8530   -3.9740   23.7090 C   0  0  0  0  0  3  0  0  0  0  0  0
  -21.9440   -4.7900   22.5670 C   0  0  0  0  0  0  0  0  0  0  0  0
  -22.3060   -4.2440   21.3800 F   0  0  0  0  0  0  0  0  0  0  0  0
  -21.3640   -3.7430   26.0360 F   0  0  0  0  0  0  0  0  0  0  0  0
  -22.7500  -13.5530   21.1040 C   0  0  0  0  0  0  0  0  0  0  0  0
  -22.0240  -12.8570   21.9740 N   0  0  0  0  0  0  0  0  0  0  0  0
  -22.3100  -14.5700   20.5690 O   0  0  0  0  0  0  0  0  0  0  0  0
  -22.3980  -12.0350   22.4220 H   0  0  0  0  0  0  0  0  0  0  0  0
  -21.0800  -13.1440   22.1950 H   0  0  0  0  0  0  0  0  0  0  0  0
  -25.3880  -15.2200   20.2930 N   0  0  0  0  0  0  0  0  0  0  0  0
  -24.6180  -15.8750   20.3750 H   0  0  0  0  0  0  0  0  0  0  0  0
  -26.2420  -15.6530   19.9610 H   0  0  0  0  0  0  0  0  0  0  0  0
  1  3  1  0
  2  5  1  0
  2  4  2  0
  4  6  1  0
  5  1  2  0
  6  3  2  0
  6 54  1  0
  7  8  1  0
  7  5  1  0
  8 10  1  0
  9  8  1  0
 11  8  1  0
 11 12  1  0
 12 13  1  0
 13 15  1  0
 14 25  2  0
 15 20  1  0
 16 24  1  0
 16 26  1  0
 17 23  1  0
 17 19  1  0
 18 24  1  0
 19 18  1  0
 20 19  2  0
 21 22  1  0
 21 15  2  0
 22 17  2  0
 23 16  1  0
 24 14  1  0
 26 28  2  0
 27 26  1  0
 29 27  1  0
 30 39  2  0
 30 35  1  0
 31 27  1  0
 31 35  1  0
 32 31  1  0
 33 34  1  0
 33 32  1  0
 34 30  1  0
 35 36  2  0
 36 37  1  0
 38 37  2  0
 39 38  1  0
 40 14  1  0
 40 41  1  0
 40 50  1  0
 41 44  1  0
 42 46  1  0
 42 41  1  0
 43 42  2  0
 46 45  1  0
 48 46  1  0
 48 49  1  0
 48 47  1  0
 50 53  1  1
 50 51  1  0
 52 50  1  0
 55 57  1  0
 55 54  1  0
 55 64  1  0
 55 56  1  6
 58 57  1  0
 59 58  1  0
 59 60  1  0
 60 62  1  0
 61 60  1  0
 63 60  1  0
 65 74  1  0
 65 64  1  0
 66 74  1  0
 67 72  1  0
 68 69  1  0
 68 67  1  0
 70 69  1  0
 70 79  1  0
 70 71  1  0
 72 66  1  0
 72 71  1  0
 73 66  2  0
 74 75  1  0
 76 77  2  0
 77 96  1  0
 78 77  1  0
 78 81  1  0
 79 76  1  0
 79 80  1  0
 80 78  2  0
 81 82  1  0
 82 83  2  0
 84 87  1  0
 84 83  1  0
 85 84  2  0
 86 85  1  0
 86 81  2  0
 87 88  1  0
 88 89  1  0
 89 90  2  0
 91 90  1  0
 91 95  1  0
 92 91  2  0
 93 88  2  0
 93 92  1  0
 94 93  1  0
 96 97  1  0
 97100  1  0
 97 99  1  0
 98 96  2  0
101102  1  0
101 76  1  0
103101  1  0
M  ISO  4  12 101  13 101  66 100  74 100
M  END
>  <TORSDO>  (85) 
F 28

>  <SCORE>  (85) 
-11.397

>  <name>  (85) 
85

>  <ligand_id>  (85) 
85

>  <original_smiles>  (85) 
[H]c1c([H])c([H])c2c(c1[H])C([H])([H])C([H])([H])C([H])([H])C2([H])N([H])C(=O)C1([H])N(C(=O)C([H])(N([H])C(=O)C([H])(N([H])C([H])([H])[H])C([H])([H])[H])C(C([H])([H])[H])(C([H])([H])[H])C([H])([H])[H])C([H])([H])c2c([H])c(OC([H])([H])C([H])([H])[N+]([H])([H])C([H])([H])c3c([H])c([H])c(C([H])([H])[N+]([H])(C([H])([H])C([H])([H])N([H])C(=O)N4C([H])([H])C([H])([H])C([H])([H])C([H])(n5nc(-c6c([H])c([H])c(Oc7c([H])c([H])c(F)c([H])c7F)c([H])c6[H])c(C(=O)N([H])[H])c5N([H])[H])C4([H])[H])C([H])([H])C([H])([H])C([H])([H])[N+]([H])([H])[H])c([H])c3[H])c([H])c([H])c2C1([H])[H]

>  <smiles>  (85) 
[H]c1c([H])c([H])c2c(c1[H])C([H])([H])C([H])([H])C([H])([H])C2([H])N([H])C(=O)C1([H])N(C(=O)C([H])(N([H])C(=O)C([H])(N([H])C([H])([H])[H])C([H])([H])[H])C(C([H])([H])[H])(C([H])([H])[H])C([H])([H])[H])C([H])([H])c2c([H])c(OC([H])([H])C([H])([H])[N+]([H])([H])C([H])([H])c3c([H])c([H])c(C([H])([H])[N+]([H])(C([H])([H])C([H])([H])N([H])C(=O)N4C([H])([H])C([H])([H])C([H])([H])C([H])(n5nc(-c6c([H])c([H])c(Oc7c([H])c([H])c(F)c([H])c7F)c([H])c6[H])c(C(=O)N([H])[H])c5N([H])[H])C4([H])[H])C([H])([H])C([H])([H])C([H])([H])[N+]([H])([H])[H])c([H])c3[H])c([H])c([H])c2C1([H])[H]

$$$$
86:0:0
     RDKit          3D

 98107  0  0  1  0  0  0  0  0999 V2000
  -29.1420  -23.4060   22.2690 C   0  0  0  0  0  3  0  0  0  0  0  0
  -30.3510  -24.0640   22.5390 C   0  0  0  0  0  3  0  0  0  0  0  0
  -28.6180  -23.4230   20.9660 C   0  0  0  0  0  3  0  0  0  0  0  0
  -31.0470  -24.7020   21.4990 C   0  0  0  0  0  3  0  0  0  0  0  0
  -29.2850  -24.0890   19.9080 C   0  0  0  0  0  0  0  0  0  0  0  0
  -30.5540  -24.6930   20.1700 C   0  0  0  0  0  0  0  0  0  0  0  0
  -28.5840  -24.0770   18.5390 C   0  0  0  0  0  2  0  0  0  0  0  0
  -28.1940  -27.7150   18.0410 C   0  0  0  0  0  2  0  0  0  0  0  0
  -29.1280  -26.5720   18.4720 C   0  0  0  0  0  2  0  0  0  0  0  0
  -27.4770  -25.6910   16.9830 C   0  0  0  0  0  2  0  0  0  0  0  0
  -27.5530  -27.2020   16.7470 C   0  0  0  0  0  3  0  0  0  0  0  0
  -28.7010  -25.3410   17.7500 N   0  0  2  0  0  4  0  0  0  0  0  0
  -29.4310  -25.1830   17.0690 H   0  0  0  0  0  0  0  0  0  0  0  0
  -26.3320  -27.8090   16.2780 O   0  0  0  0  0  0  0  0  0  0  0  0
  -24.5980  -29.7550   22.8910 C   0  0  0  0  0  0  0  0  0  0  0  0
  -25.3240  -28.0730   17.1760 C   0  0  0  0  0  0  0  0  0  0  0  0
  -22.7180  -29.0070   21.4640 C   0  0  0  0  0  3  0  0  0  0  0  0
  -23.2560  -28.7190   18.9870 C   0  0  0  0  0  0  0  0  0  0  0  0
  -24.8010  -30.0620   20.4260 C   0  0  0  0  0  2  0  0  0  0  0  0
  -24.5520  -29.2020   19.2050 C   0  0  0  0  0  0  0  0  0  0  0  0
  -25.5880  -28.8870   18.2990 C   0  0  0  0  0  3  0  0  0  0  0  0
  -24.0150  -27.5970   16.9610 C   0  0  0  0  0  3  0  0  0  0  0  0
  -22.9800  -27.9120   17.8660 C   0  0  0  0  0  3  0  0  0  0  0  0
  -22.2050  -29.1080   20.0020 C   0  0  0  0  0  2  0  0  0  0  0  0
  -24.0850  -29.5980   21.6380 N   0  0  0  0  0  0  0  0  0  0  0  0
  -23.9360  -29.4580   23.8950 O   0  0  0  0  0  0  0  0  0  0  0  0
  -22.6320  -27.5300   21.9140 C   0  0  0  0  0  0  0  0  0  0  0  0
  -21.4600  -26.9070   21.6990 N   0  0  0  0  0  0  0  0  0  0  0  0
  -23.6070  -26.9630   22.4110 O   0  0  0  0  0  0  0  0  0  0  0  0
  -20.7070  -27.4460   21.2960 H   0  0  0  0  0  0  0  0  0  0  0  0
  -19.1330  -24.2250   21.0450 C   0  0  0  0  0  0  0  0  0  0  0  0
  -21.1630  -25.5090   22.0020 C   0  0  0  0  0  3  0  0  0  0  0  0
  -22.0350  -24.5550   21.1530 C   0  0  0  0  0  2  0  0  0  0  0  0
  -21.3610  -24.1180   19.8490 C   0  0  0  0  0  2  0  0  0  0  0  0
  -20.0380  -23.4040   20.1420 C   0  0  0  0  0  2  0  0  0  0  0  0
  -19.6580  -25.2240   21.9060 C   0  0  0  0  0  0  0  0  0  0  0  0
  -18.7690  -25.9830   22.6960 C   0  0  0  0  0  3  0  0  0  0  0  0
  -17.3810  -25.7530   22.6410 C   0  0  0  0  0  3  0  0  0  0  0  0
  -16.8680  -24.7530   21.7990 C   0  0  0  0  0  3  0  0  0  0  0  0
  -17.7430  -23.9890   21.0050 C   0  0  0  0  0  3  0  0  0  0  0  0
  -26.0280  -30.3390   23.1240 C   0  0  0  0  0  3  0  0  0  0  0  0
  -25.8720  -31.6740   23.7130 N   0  0  0  0  0  0  0  0  0  0  0  0
  -26.1010  -32.8240   23.0620 C   0  0  0  0  0  0  0  0  0  0  0  0
  -26.5440  -32.8650   21.9100 O   0  0  0  0  0  0  0  0  0  0  0  0
  -25.4660  -31.7180   24.6360 H   0  0  0  0  0  0  0  0  0  0  0  0
  -24.4820  -34.7340   23.2760 C   0  0  0  0  0  1  0  0  0  0  0  0
  -25.7920  -34.1350   23.8100 C   0  0  0  0  0  3  0  0  0  0  0  0
  -28.0880  -34.7480   24.4250 C   0  0  0  0  0  1  0  0  0  0  0  0
  -26.8750  -35.1380   23.7120 N   0  0  0  0  0  0  0  0  0  0  0  0
  -26.5680  -36.0360   24.0740 H   0  0  0  0  0  0  0  0  0  0  0  0
  -26.9300  -29.4270   24.0420 C   0  0  1  0  0  0  0  0  0  0  0  0
  -26.2260  -28.9570   25.3370 C   0  0  0  0  0  1  0  0  0  0  0  0
  -27.3930  -28.1700   23.2690 C   0  0  0  0  0  1  0  0  0  0  0  0
  -28.2110  -30.1940   24.4470 C   0  0  0  0  0  1  0  0  0  0  0  0
  -31.4520  -25.3360   19.1070 C   0  0  0  0  0  2  0  0  0  0  0  0
  -32.6750  -24.5240   18.8840 N   0  0  0  0  0  4  0  0  0  0  0  0
  -32.6120  -24.0650   17.9890 H   0  0  0  0  0  0  0  0  0  0  0  0
  -32.6830  -23.8050   19.5880 H   0  0  0  0  0  0  0  0  0  0  0  0
  -33.9560  -25.2580   18.9770 C   0  0  0  0  0  2  0  0  0  0  0  0
  -34.8060  -24.8080   20.1910 C   0  0  0  0  0  2  0  0  0  0  0  0
  -35.8650  -22.6050   20.6210 C   0  0  0  0  0  0  0  0  0  0  0  0
  -36.7860  -20.4250   21.3180 C   0  0  0  0  0  2  0  0  0  0  0  0
  -36.8340  -19.4320   20.1430 C   0  0  0  0  0  2  0  0  0  0  0  0
  -35.4960  -18.6800   20.0220 C   0  0  0  0  0  2  0  0  0  0  0  0
  -34.2750  -19.6370   20.0180 C   0  0  0  0  0  3  0  0  0  0  0  0
  -34.3650  -20.6500   21.1820 C   0  0  0  0  0  2  0  0  0  0  0  0
  -35.6610  -21.3470   21.0980 N   0  0  0  0  0  0  0  0  0  0  0  0
  -36.9830  -23.0630   20.3820 O   0  0  0  0  0  0  0  0  0  0  0  0
  -34.7690  -23.3640   20.4630 N   0  0  0  0  0  0  0  0  0  0  0  0
  -33.8870  -22.9440   20.7190 H   0  0  0  0  0  0  0  0  0  0  0  0
  -31.7200  -19.3470   19.8560 C   0  0  0  0  0  0  0  0  0  0  0  0
  -30.9210  -18.2380   19.9140 C   0  0  0  0  0  0  0  0  0  0  0  0
  -31.7980  -17.1310   20.1330 C   0  0  0  0  0  0  0  0  0  0  0  0
  -33.0170  -18.8920   20.0450 N   0  0  0  0  0  0  0  0  0  0  0  0
  -33.0480  -17.5530   20.2660 N   0  0  0  0  0  0  0  0  0  0  0  0
  -31.5270  -15.6880   20.1670 C   0  0  0  0  0  0  0  0  0  0  0  0
  -31.2760  -15.0120   21.3810 C   0  0  0  0  0  3  0  0  0  0  0  0
  -31.0000  -13.6280   21.3860 C   0  0  0  0  0  3  0  0  0  0  0  0
  -30.9700  -12.9070   20.1690 C   0  0  0  0  0  0  0  0  0  0  0  0
  -31.2440  -13.5800   18.9660 C   0  0  0  0  0  3  0  0  0  0  0  0
  -31.5230  -14.9550   18.9630 C   0  0  0  0  0  3  0  0  0  0  0  0
  -30.7360  -11.5550   20.0800 O   0  0  0  0  0  0  0  0  0  0  0  0
  -29.5350  -11.0060   20.4550 C   0  0  0  0  0  0  0  0  0  0  0  0
  -28.3330  -11.3070   19.7760 C   0  0  0  0  0  3  0  0  0  0  0  0
  -27.1360  -10.6660   20.1500 C   0  0  0  0  0  3  0  0  0  0  0  0
  -27.1370   -9.7210   21.1930 C   0  0  0  0  0  0  0  0  0  0  0  0
  -28.3330   -9.4170   21.8650 C   0  0  0  0  0  3  0  0  0  0  0  0
  -29.5300  -10.0540   21.4960 C   0  0  0  0  0  0  0  0  0  0  0  0
  -30.6830   -9.7420   22.1330 F   0  0  0  0  0  0  0  0  0  0  0  0
  -25.9880   -9.0990   21.5460 F   0  0  0  0  0  0  0  0  0  0  0  0
  -29.4390  -18.1890   19.6790 C   0  0  0  0  0  0  0  0  0  0  0  0
  -28.7500  -17.2340   20.2960 N   0  0  0  0  0  0  0  0  0  0  0  0
  -28.8740  -19.0300   18.9830 O   0  0  0  0  0  0  0  0  0  0  0  0
  -29.2100  -16.5540   20.8830 H   0  0  0  0  0  0  0  0  0  0  0  0
  -27.7480  -17.1830   20.1780 H   0  0  0  0  0  0  0  0  0  0  0  0
  -31.4610  -20.6980   19.6410 N   0  0  0  0  0  0  0  0  0  0  0  0
  -30.5270  -21.0430   19.4460 H   0  0  0  0  0  0  0  0  0  0  0  0
  -32.1760  -21.4050   19.5390 H   0  0  0  0  0  0  0  0  0  0  0  0
  1  2  1  0
  3  1  2  0
  4  2  2  0
  5  6  2  0
  5  3  1  0
  6  4  1  0
  7  5  1  0
  8  9  1  0
 10 12  1  0
 11 14  1  0
 11 10  1  0
 11  8  1  0
 12  9  1  0
 12  7  1  0
 12 13  1  6
 14 16  1  0
 15 26  2  0
 16 21  1  0
 17 25  1  0
 17 27  1  0
 18 20  1  0
 18 24  1  0
 19 25  1  0
 20 19  1  0
 21 20  2  0
 22 16  2  0
 22 23  1  0
 23 18  2  0
 24 17  1  0
 25 15  1  0
 27 29  2  0
 28 27  1  0
 30 28  1  0
 31 36  1  0
 32 28  1  0
 33 32  1  0
 34 35  1  0
 34 33  1  0
 35 31  1  0
 36 32  1  0
 36 37  2  0
 38 37  1  0
 39 38  2  0
 40 31  2  0
 40 39  1  0
 41 15  1  0
 41 42  1  0
 41 51  1  0
 42 45  1  0
 43 42  1  0
 43 47  1  0
 44 43  2  0
 47 46  1  0
 49 47  1  0
 49 50  1  0
 49 48  1  0
 51 54  1  1
 51 52  1  0
 53 51  1  0
 55  6  1  0
 56 59  1  0
 56 55  1  0
 56 58  1  0
 57 56  1  0
 59 60  1  0
 60 69  1  0
 61 67  1  0
 63 62  1  0
 64 63  1  0
 65 64  1  0
 65 74  1  0
 65 66  1  0
 67 66  1  0
 67 62  1  0
 68 61  2  0
 69 61  1  0
 69 70  1  0
 71 72  2  0
 71 74  1  0
 72 73  1  0
 73 76  1  0
 73 75  2  0
 74 75  1  0
 76 77  1  0
 77 78  2  0
 79 78  1  0
 80 79  2  0
 81 80  1  0
 81 76  2  0
 82 79  1  0
 82 83  1  0
 83 88  1  0
 84 85  1  0
 84 83  2  0
 85 86  2  0
 86 90  1  0
 86 87  1  0
 88 87  2  0
 88 89  1  0
 91 72  1  0
 91 92  1  0
 92 94  1  0
 93 91  2  0
 95 92  1  0
 96 71  1  0
 97 96  1  0
 98 96  1  0
M  ISO  4  11 101  14 101  61 100  69 100
M  END
>  <TORSDO>  (86) 
F 22

>  <SCORE>  (86) 
-5.656

>  <name>  (86) 
86

>  <ligand_id>  (86) 
86

>  <original_smiles>  (86) 
[H]c1c([H])c([H])c2c(c1[H])C([H])([H])C([H])([H])C([H])([H])C2([H])N([H])C(=O)C1([H])N(C(=O)C([H])(N([H])C(=O)C([H])(N([H])C([H])([H])[H])C([H])([H])[H])C(C([H])([H])[H])(C([H])([H])[H])C([H])([H])[H])C([H])([H])c2c([H])c(OC3([H])C([H])([H])C([H])([H])[N+]([H])(C([H])([H])c4c([H])c([H])c([H])c([H])c4C([H])([H])[N+]([H])([H])C([H])([H])C([H])([H])N([H])C(=O)N4C([H])([H])C([H])([H])C([H])([H])C([H])(n5nc(-c6c([H])c([H])c(Oc7c([H])c([H])c(F)c([H])c7F)c([H])c6[H])c(C(=O)N([H])[H])c5N([H])[H])C4([H])[H])C3([H])[H])c([H])c([H])c2C1([H])[H]

>  <smiles>  (86) 
[H]c1c([H])c([H])c2c(c1[H])C([H])([H])C([H])([H])C([H])([H])C2([H])N([H])C(=O)C1([H])N(C(=O)C([H])(N([H])C(=O)C([H])(N([H])C([H])([H])[H])C([H])([H])[H])C(C([H])([H])[H])(C([H])([H])[H])C([H])([H])[H])C([H])([H])c2c([H])c(OC3([H])C([H])([H])C([H])([H])[N+]([H])(C([H])([H])c4c([H])c([H])c([H])c([H])c4C([H])([H])[N+]([H])([H])C([H])([H])C([H])([H])N([H])C(=O)N4C([H])([H])C([H])([H])C([H])([H])C([H])(n5nc(-c6c([H])c([H])c(Oc7c([H])c([H])c(F)c([H])c7F)c([H])c6[H])c(C(=O)N([H])[H])c5N([H])[H])C4([H])[H])C3([H])[H])c([H])c([H])c2C1([H])[H]

$$$$
87:0:0
     RDKit          3D

 93101  0  0  1  0  0  0  0  0999 V2000
  -29.6010  -22.6100   18.9190 C   0  0  0  0  0  2  0  0  0  0  0  0
  -28.2780  -23.0510   19.4390 N   0  0  0  0  0  4  0  0  0  0  0  0
  -27.9110  -22.3500   20.0640 H   0  0  0  0  0  0  0  0  0  0  0  0
  -27.6250  -23.1090   18.6690 H   0  0  0  0  0  0  0  0  0  0  0  0
  -28.2700  -24.3380   20.1880 C   0  0  0  0  0  2  0  0  0  0  0  0
  -28.6220  -25.5750   19.3340 C   0  0  0  0  0  2  0  0  0  0  0  0
  -28.4620  -26.7730   20.1040 O   0  0  0  0  0  0  0  0  0  0  0  0
  -24.5800  -31.8610   23.2470 C   0  0  0  0  0  0  0  0  0  0  0  0
  -27.2480  -27.4340   20.1270 C   0  0  0  0  0  0  0  0  0  0  0  0
  -23.3860  -30.4690   21.5880 C   0  0  0  0  0  3  0  0  0  0  0  0
  -24.8450  -28.9340   20.1720 C   0  0  0  0  0  0  0  0  0  0  0  0
  -25.9200  -30.8050   21.4350 C   0  0  0  0  0  2  0  0  0  0  0  0
  -25.9990  -29.4440   20.7760 C   0  0  0  0  0  0  0  0  0  0  0  0
  -27.1970  -28.6980   20.7580 C   0  0  0  0  0  3  0  0  0  0  0  0
  -26.0650  -26.9300   19.5320 C   0  0  0  0  0  3  0  0  0  0  0  0
  -24.8720  -27.6750   19.5490 C   0  0  0  0  0  3  0  0  0  0  0  0
  -23.6150  -29.8090   20.2030 C   0  0  0  0  0  2  0  0  0  0  0  0
  -24.6430  -31.0620   22.1450 N   0  0  0  0  0  0  0  0  0  0  0  0
  -23.4960  -32.1370   23.7800 O   0  0  0  0  0  0  0  0  0  0  0  0
  -22.7240  -29.4410   22.5360 C   0  0  0  0  0  0  0  0  0  0  0  0
  -21.4010  -29.2630   22.3990 N   0  0  0  0  0  0  0  0  0  0  0  0
  -23.3990  -28.8120   23.3560 O   0  0  0  0  0  0  0  0  0  0  0  0
  -20.9210  -29.8290   21.7140 H   0  0  0  0  0  0  0  0  0  0  0  0
  -18.0180  -28.0720   22.8650 C   0  0  0  0  0  0  0  0  0  0  0  0
  -20.5730  -28.3260   23.1590 C   0  0  0  0  0  3  0  0  0  0  0  0
  -20.6800  -26.8970   22.5820 C   0  0  0  0  0  2  0  0  0  0  0  0
  -19.5850  -26.5750   21.5600 C   0  0  0  0  0  2  0  0  0  0  0  0
  -18.1990  -26.7230   22.1930 C   0  0  0  0  0  2  0  0  0  0  0  0
  -19.1350  -28.8340   23.3050 C   0  0  0  0  0  0  0  0  0  0  0  0
  -18.9140  -30.0970   23.8940 C   0  0  0  0  0  3  0  0  0  0  0  0
  -17.6080  -30.6000   24.0520 C   0  0  0  0  0  3  0  0  0  0  0  0
  -16.5060  -29.8360   23.6280 C   0  0  0  0  0  3  0  0  0  0  0  0
  -16.7120  -28.5760   23.0390 C   0  0  0  0  0  3  0  0  0  0  0  0
  -25.8650  -32.4910   23.8740 C   0  0  0  0  0  3  0  0  0  0  0  0
  -25.5620  -33.8910   24.1940 N   0  0  0  0  0  0  0  0  0  0  0  0
  -25.8960  -34.9390   23.4280 C   0  0  0  0  0  0  0  0  0  0  0  0
  -26.5710  -34.8280   22.4000 O   0  0  0  0  0  0  0  0  0  0  0  0
  -24.9810  -34.0550   25.0040 H   0  0  0  0  0  0  0  0  0  0  0  0
  -24.1760  -36.7340   23.0480 C   0  0  0  0  0  1  0  0  0  0  0  0
  -25.4060  -36.3300   23.8770 C   0  0  0  0  0  3  0  0  0  0  0  0
  -27.5310  -37.2110   24.7320 C   0  0  0  0  0  1  0  0  0  0  0  0
  -26.4420  -37.3810   23.7740 N   0  0  0  0  0  0  0  0  0  0  0  0
  -26.0340  -38.2990   23.9200 H   0  0  0  0  0  0  0  0  0  0  0  0
  -26.3760  -31.7240   25.1570 C   0  0  1  0  0  0  0  0  0  0  0  0
  -25.2780  -31.4890   26.2200 C   0  0  0  0  0  1  0  0  0  0  0  0
  -26.9660  -30.3450   24.7770 C   0  0  0  0  0  1  0  0  0  0  0  0
  -27.5200  -32.5230   25.8250 C   0  0  0  0  0  1  0  0  0  0  0  0
  -29.7010  -21.0760   18.7220 C   0  0  0  0  0  2  0  0  0  0  0  0
  -30.2610  -20.3390   19.9660 C   0  0  0  0  0  2  0  0  0  0  0  0
  -30.8250  -14.4020   20.2410 C   0  0  0  0  0  0  0  0  0  0  0  0
  -30.3320  -12.3150   19.0330 C   0  0  0  0  0  2  0  0  0  0  0  0
  -29.3440  -12.5330   17.8740 C   0  0  0  0  0  2  0  0  0  0  0  0
  -27.8890  -12.4280   18.3740 C   0  0  0  0  0  2  0  0  0  0  0  0
  -27.6320  -13.2350   19.6770 C   0  0  0  0  0  3  0  0  0  0  0  0
  -28.7420  -12.9310   20.7150 C   0  0  0  0  0  2  0  0  0  0  0  0
  -30.0150  -13.3070   20.0860 N   0  0  0  0  0  0  0  0  0  0  0  0
  -31.9730  -14.3520   19.7960 O   0  0  0  0  0  0  0  0  0  0  0  0
  -28.3590  -16.9790   20.1150 C   0  0  0  0  0  2  0  0  0  0  0  0
  -29.0770  -16.0940   21.1500 C   0  0  0  0  0  2  0  0  0  0  0  0
  -31.3770  -16.7410   20.4670 C   0  0  0  0  0  2  0  0  0  0  0  0
  -28.6650  -18.4820   20.2180 C   0  0  0  0  0  2  0  0  0  0  0  0
  -31.0190  -18.1790   20.8880 C   0  0  0  0  0  2  0  0  0  0  0  0
  -30.3770  -15.6430   20.6310 N   0  0  0  0  0  0  0  0  0  0  0  0
  -30.0780  -18.8540   19.9490 N   0  0  2  0  0  4  0  0  0  0  0  0
  -30.3200  -18.5330   19.0220 H   0  0  0  0  0  0  0  0  0  0  0  0
  -25.2480  -13.8510   20.4330 C   0  0  0  0  0  0  0  0  0  0  0  0
  -24.1900  -13.0830   20.8340 C   0  0  0  0  0  0  0  0  0  0  0  0
  -24.6470  -11.7340   20.7870 C   0  0  0  0  0  0  0  0  0  0  0  0
  -26.2930  -12.9720   20.1940 N   0  0  0  0  0  0  0  0  0  0  0  0
  -25.9320  -11.6900   20.4580 N   0  0  0  0  0  0  0  0  0  0  0  0
  -23.9220  -10.4750   20.9890 C   0  0  0  0  0  0  0  0  0  0  0  0
  -24.3710   -9.5060   21.9130 C   0  0  0  0  0  3  0  0  0  0  0  0
  -23.6480   -8.3060   22.0990 C   0  0  0  0  0  3  0  0  0  0  0  0
  -22.4590   -8.0750   21.3680 C   0  0  0  0  0  0  0  0  0  0  0  0
  -22.0300   -9.0320   20.4330 C   0  0  0  0  0  3  0  0  0  0  0  0
  -22.7520  -10.2220   20.2450 C   0  0  0  0  0  3  0  0  0  0  0  0
  -21.7040   -6.9330   21.4700 O   0  0  0  0  0  0  0  0  0  0  0  0
  -21.6740   -6.1930   22.6230 C   0  0  0  0  0  0  0  0  0  0  0  0
  -21.2670   -6.7500   23.8550 C   0  0  0  0  0  3  0  0  0  0  0  0
  -21.1830   -5.9360   25.0020 C   0  0  0  0  0  3  0  0  0  0  0  0
  -21.4950   -4.5660   24.9170 C   0  0  0  0  0  0  0  0  0  0  0  0
  -21.8960   -4.0100   23.6900 C   0  0  0  0  0  3  0  0  0  0  0  0
  -21.9840   -4.8210   22.5450 C   0  0  0  0  0  0  0  0  0  0  0  0
  -22.3430   -4.2740   21.3610 F   0  0  0  0  0  0  0  0  0  0  0  0
  -21.4070   -3.7810   26.0170 F   0  0  0  0  0  0  0  0  0  0  0  0
  -22.8030  -13.5690   21.1340 C   0  0  0  0  0  0  0  0  0  0  0  0
  -22.0940  -12.8870   22.0290 N   0  0  0  0  0  0  0  0  0  0  0  0
  -22.3550  -14.5900   20.6130 O   0  0  0  0  0  0  0  0  0  0  0  0
  -22.4600  -12.0660   22.4840 H   0  0  0  0  0  0  0  0  0  0  0  0
  -21.1650  -13.2070   22.2660 H   0  0  0  0  0  0  0  0  0  0  0  0
  -25.3770  -15.2120   20.2280 N   0  0  0  0  0  0  0  0  0  0  0  0
  -24.5490  -15.8010   20.2640 H   0  0  0  0  0  0  0  0  0  0  0  0
  -26.1630  -15.6500   19.7670 H   0  0  0  0  0  0  0  0  0  0  0  0
  1  2  1  0
  2  3  1  0
  2  5  1  0
  4  2  1  0
  6  7  1  0
  6  5  1  0
  7  9  1  0
  8 19  2  0
  9 14  1  0
 10 18  1  0
 10 20  1  0
 11 17  1  0
 11 13  1  0
 12 18  1  0
 13 12  1  0
 14 13  2  0
 15 16  1  0
 15  9  2  0
 16 11  2  0
 17 10  1  0
 18  8  1  0
 20 22  2  0
 21 20  1  0
 23 21  1  0
 24 33  2  0
 24 29  1  0
 25 21  1  0
 25 29  1  0
 26 25  1  0
 27 28  1  0
 27 26  1  0
 28 24  1  0
 29 30  2  0
 30 31  1  0
 32 31  2  0
 33 32  1  0
 34  8  1  0
 34 35  1  0
 34 44  1  0
 35 38  1  0
 36 40  1  0
 36 35  1  0
 37 36  2  0
 40 39  1  0
 42 40  1  0
 42 43  1  0
 42 41  1  0
 44 47  1  1
 44 45  1  0
 46 44  1  0
 48  1  1  0
 48 49  1  0
 50 63  1  0
 51 56  1  0
 52 53  1  0
 52 51  1  0
 54 53  1  0
 54 69  1  0
 54 55  1  0
 56 50  1  0
 56 55  1  0
 57 50  2  0
 58 61  1  0
 58 59  1  0
 60 63  1  0
 60 62  1  0
 63 59  1  0
 64 49  1  0
 64 61  1  0
 64 62  1  0
 64 65  1  6
 66 67  2  0
 67 86  1  0
 68 67  1  0
 68 71  1  0
 69 66  1  0
 69 70  1  0
 70 68  2  0
 71 72  1  0
 72 73  2  0
 74 77  1  0
 74 73  1  0
 75 74  2  0
 76 75  1  0
 76 71  2  0
 77 78  1  0
 78 79  1  0
 79 80  2  0
 81 80  1  0
 81 85  1  0
 82 81  2  0
 83 78  2  0
 83 82  1  0
 84 83  1  0
 86 87  1  0
 87 90  1  0
 87 89  1  0
 88 86  2  0
 91 92  1  0
 91 66  1  0
 93 91  1  0
M  ISO  4   6 101   7 101  50 100  63 100
M  END
>  <TORSDO>  (87) 
F 21

>  <SCORE>  (87) 
-13.490

>  <name>  (87) 
87

>  <ligand_id>  (87) 
87

>  <original_smiles>  (87) 
[H]c1c([H])c([H])c2c(c1[H])C([H])([H])C([H])([H])C([H])([H])C2([H])N([H])C(=O)C1([H])N(C(=O)C([H])(N([H])C(=O)C([H])(N([H])C([H])([H])[H])C([H])([H])[H])C(C([H])([H])[H])(C([H])([H])[H])C([H])([H])[H])C([H])([H])c2c([H])c(OC([H])([H])C([H])([H])[N+]([H])([H])C([H])([H])C([H])([H])C([H])([H])[N+]3([H])C([H])([H])C([H])([H])N(C(=O)N4C([H])([H])C([H])([H])C([H])([H])C([H])(n5nc(-c6c([H])c([H])c(Oc7c([H])c([H])c(F)c([H])c7F)c([H])c6[H])c(C(=O)N([H])[H])c5N([H])[H])C4([H])[H])C([H])([H])C([H])([H])C3([H])[H])c([H])c([H])c2C1([H])[H]

>  <smiles>  (87) 
[H]c1c([H])c([H])c2c(c1[H])C([H])([H])C([H])([H])C([H])([H])C2([H])N([H])C(=O)C1([H])N(C(=O)C([H])(N([H])C(=O)C([H])(N([H])C([H])([H])[H])C([H])([H])[H])C(C([H])([H])[H])(C([H])([H])[H])C([H])([H])[H])C([H])([H])c2c([H])c(OC([H])([H])C([H])([H])[N+]([H])([H])C([H])([H])C([H])([H])C([H])([H])[N+]3([H])C([H])([H])C([H])([H])N(C(=O)N4C([H])([H])C([H])([H])C([H])([H])C([H])(n5nc(-c6c([H])c([H])c(Oc7c([H])c([H])c(F)c([H])c7F)c([H])c6[H])c(C(=O)N([H])[H])c5N([H])[H])C4([H])[H])C([H])([H])C([H])([H])C3([H])[H])c([H])c([H])c2C1([H])[H]

$$$$
88:0:0
     RDKit          3D

 90 98  0  0  1  0  0  0  0  0999 V2000
  -29.4320  -21.4260   20.4430 N   0  0  0  0  0  4  0  0  0  0  0  0
  -29.0210  -21.2290   19.5450 H   0  0  0  0  0  0  0  0  0  0  0  0
  -30.4250  -21.5350   20.3060 H   0  0  0  0  0  0  0  0  0  0  0  0
  -29.2000  -20.2460   21.3500 C   0  0  0  0  0  2  0  0  0  0  0  0
  -30.6780  -14.6730   20.1000 C   0  0  0  0  0  0  0  0  0  0  0  0
  -30.2920  -12.4890   18.9810 C   0  0  0  0  0  2  0  0  0  0  0  0
  -29.3000  -12.6510   17.8120 C   0  0  0  0  0  2  0  0  0  0  0  0
  -27.8560  -12.4700   18.3140 C   0  0  0  0  0  2  0  0  0  0  0  0
  -27.5580  -13.3180   19.5770 C   0  0  0  0  0  3  0  0  0  0  0  0
  -28.6750  -13.1740   20.6400 C   0  0  0  0  0  2  0  0  0  0  0  0
  -29.9510  -13.5120   19.9950 N   0  0  0  0  0  0  0  0  0  0  0  0
  -31.8290  -14.7140   19.6550 O   0  0  0  0  0  0  0  0  0  0  0  0
  -28.5810  -17.8900   20.5610 C   0  0  0  0  0  3  0  0  0  0  0  0
  -29.5310  -18.7930   20.8750 C   0  0  0  0  0  0  0  0  0  0  0  0
  -28.8230  -16.3920   20.2850 C   0  0  0  0  0  2  0  0  0  0  0  0
  -30.9540  -18.2700   20.9710 C   0  0  0  0  0  2  0  0  0  0  0  0
  -31.0170  -16.7670   21.4060 C   0  0  0  0  0  2  0  0  0  0  0  0
  -30.1400  -15.8150   20.6680 N   0  0  0  0  0  0  0  0  0  0  0  0
  -25.2060  -13.9230   20.4130 C   0  0  0  0  0  0  0  0  0  0  0  0
  -24.1540  -13.1500   20.8190 C   0  0  0  0  0  0  0  0  0  0  0  0
  -24.6110  -11.7990   20.7560 C   0  0  0  0  0  0  0  0  0  0  0  0
  -26.2360  -13.0410   20.1240 N   0  0  0  0  0  0  0  0  0  0  0  0
  -25.8860  -11.7580   20.3930 N   0  0  0  0  0  0  0  0  0  0  0  0
  -23.8890  -10.5370   20.9580 C   0  0  0  0  0  0  0  0  0  0  0  0
  -24.3400   -9.5700   21.8830 C   0  0  0  0  0  3  0  0  0  0  0  0
  -23.6180   -8.3720   22.0740 C   0  0  0  0  0  3  0  0  0  0  0  0
  -22.4330   -8.1340   21.3380 C   0  0  0  0  0  0  0  0  0  0  0  0
  -22.0010   -9.0890   20.4020 C   0  0  0  0  0  3  0  0  0  0  0  0
  -22.7240  -10.2790   20.2090 C   0  0  0  0  0  3  0  0  0  0  0  0
  -21.6800   -6.9890   21.4410 O   0  0  0  0  0  0  0  0  0  0  0  0
  -21.6320   -6.2600   22.6020 C   0  0  0  0  0  0  0  0  0  0  0  0
  -21.1780   -6.8220   23.8160 C   0  0  0  0  0  3  0  0  0  0  0  0
  -21.0800   -6.0200   24.9700 C   0  0  0  0  0  3  0  0  0  0  0  0
  -21.4240   -4.6560   24.9110 C   0  0  0  0  0  0  0  0  0  0  0  0
  -21.8700   -4.0920   23.7040 C   0  0  0  0  0  3  0  0  0  0  0  0
  -21.9710   -4.8930   22.5520 C   0  0  0  0  0  0  0  0  0  0  0  0
  -22.3820   -4.3400   21.3840 F   0  0  0  0  0  0  0  0  0  0  0  0
  -21.3210   -3.8830   26.0180 F   0  0  0  0  0  0  0  0  0  0  0  0
  -22.7710  -13.6300   21.1540 C   0  0  0  0  0  0  0  0  0  0  0  0
  -22.0730  -12.9220   22.0350 N   0  0  0  0  0  0  0  0  0  0  0  0
  -22.3200  -14.6680   20.6710 O   0  0  0  0  0  0  0  0  0  0  0  0
  -22.4510  -12.0840   22.4500 H   0  0  0  0  0  0  0  0  0  0  0  0
  -21.1480  -13.2260   22.3040 H   0  0  0  0  0  0  0  0  0  0  0  0
  -25.3620  -15.2950   20.2440 N   0  0  0  0  0  0  0  0  0  0  0  0
  -24.5980  -15.9440   20.4010 H   0  0  0  0  0  0  0  0  0  0  0  0
  -26.1860  -15.7400   19.8620 H   0  0  0  0  0  0  0  0  0  0  0  0
  -28.8540  -22.7150   20.9870 C   0  0  0  0  0  2  0  0  0  0  0  0
  -29.0400  -24.0610   20.1750 C   0  0  0  0  0  2  0  0  0  0  0  0
  -28.2840  -25.2920   20.8160 C   0  0  0  0  0  2  0  0  0  0  0  0
  -28.4490  -26.6240   20.2290 O   0  0  0  0  0  0  0  0  0  0  0  0
  -24.5880  -31.9000   23.2300 C   0  0  0  0  0  0  0  0  0  0  0  0
  -27.3100  -27.4250   20.2020 C   0  0  0  0  0  0  0  0  0  0  0  0
  -23.4210  -30.4900   21.5670 C   0  0  0  0  0  3  0  0  0  0  0  0
  -24.9130  -28.9600   20.1640 C   0  0  0  0  0  0  0  0  0  0  0  0
  -25.9510  -30.8580   21.4110 C   0  0  0  0  0  2  0  0  0  0  0  0
  -26.0620  -29.4810   20.7730 C   0  0  0  0  0  0  0  0  0  0  0  0
  -27.2670  -28.7240   20.7820 C   0  0  0  0  0  3  0  0  0  0  0  0
  -26.1440  -26.9440   19.5710 C   0  0  0  0  0  3  0  0  0  0  0  0
  -24.9530  -27.6940   19.5570 C   0  0  0  0  0  3  0  0  0  0  0  0
  -23.6620  -29.8120   20.1920 C   0  0  0  0  0  2  0  0  0  0  0  0
  -24.6710  -31.0980   22.1280 N   0  0  0  0  0  0  0  0  0  0  0  0
  -23.4950  -32.1630   23.7510 O   0  0  0  0  0  0  0  0  0  0  0  0
  -22.7590  -29.4650   22.5170 C   0  0  0  0  0  0  0  0  0  0  0  0
  -21.4350  -29.2820   22.3780 N   0  0  0  0  0  0  0  0  0  0  0  0
  -23.4340  -28.8360   23.3360 O   0  0  0  0  0  0  0  0  0  0  0  0
  -20.9460  -29.8480   21.6970 H   0  0  0  0  0  0  0  0  0  0  0  0
  -18.0600  -28.0690   22.8330 C   0  0  0  0  0  0  0  0  0  0  0  0
  -20.6140  -28.3350   23.1340 C   0  0  0  0  0  3  0  0  0  0  0  0
  -20.7290  -26.9080   22.5490 C   0  0  0  0  0  2  0  0  0  0  0  0
  -19.6400  -26.5930   21.5190 C   0  0  0  0  0  2  0  0  0  0  0  0
  -18.2490  -26.7270   22.1470 C   0  0  0  0  0  2  0  0  0  0  0  0
  -19.1720  -28.8320   23.2810 C   0  0  0  0  0  0  0  0  0  0  0  0
  -18.9420  -30.0890   23.8810 C   0  0  0  0  0  3  0  0  0  0  0  0
  -17.6330  -30.5850   24.0370 C   0  0  0  0  0  3  0  0  0  0  0  0
  -16.5370  -29.8190   23.6040 C   0  0  0  0  0  3  0  0  0  0  0  0
  -16.7520  -28.5640   23.0090 C   0  0  0  0  0  3  0  0  0  0  0  0
  -25.8560  -32.5430   23.8710 C   0  0  0  0  0  3  0  0  0  0  0  0
  -26.3570  -31.7750   25.1550 C   0  0  1  0  0  0  0  0  0  0  0  0
  -25.2480  -31.5300   26.2050 C   0  0  0  0  0  1  0  0  0  0  0  0
  -26.9590  -30.4040   24.7690 C   0  0  0  0  0  1  0  0  0  0  0  0
  -27.4890  -32.5790   25.8370 C   0  0  0  0  0  1  0  0  0  0  0  0
  -25.5320  -33.9380   24.1960 N   0  0  0  0  0  0  0  0  0  0  0  0
  -25.8640  -34.9920   23.4370 C   0  0  0  0  0  0  0  0  0  0  0  0
  -26.5470  -34.8910   22.4140 O   0  0  0  0  0  0  0  0  0  0  0  0
  -24.9310  -34.0900   24.9920 H   0  0  0  0  0  0  0  0  0  0  0  0
  -24.1290  -36.7720   23.0530 C   0  0  0  0  0  1  0  0  0  0  0  0
  -25.3590  -36.3780   23.8850 C   0  0  0  0  0  3  0  0  0  0  0  0
  -27.4720  -37.2820   24.7510 C   0  0  0  0  0  1  0  0  0  0  0  0
  -26.3860  -37.4370   23.7870 N   0  0  0  0  0  0  0  0  0  0  0  0
  -25.9720  -38.3550   23.9220 H   0  0  0  0  0  0  0  0  0  0  0  0
  1 47  1  0
  1  4  1  0
  2  1  1  0
  3  1  1  0
  5 18  1  0
  6 11  1  0
  7  8  1  0
  7  6  1  0
  9  8  1  0
  9 22  1  0
  9 10  1  0
 11  5  1  0
 11 10  1  0
 12  5  2  0
 13 14  2  0
 14 16  1  0
 14  4  1  0
 15 13  1  0
 15 18  1  0
 16 17  1  0
 18 17  1  0
 19 20  2  0
 20 39  1  0
 21 20  1  0
 21 24  1  0
 22 23  1  0
 22 19  1  0
 23 21  2  0
 24 25  1  0
 25 26  2  0
 27 30  1  0
 27 26  1  0
 28 27  2  0
 29 28  1  0
 29 24  2  0
 30 31  1  0
 31 32  1  0
 32 33  2  0
 34 33  1  0
 34 38  1  0
 35 34  2  0
 36 31  2  0
 36 35  1  0
 37 36  1  0
 39 40  1  0
 40 43  1  0
 40 42  1  0
 41 39  2  0
 44 45  1  0
 44 19  1  0
 46 44  1  0
 48 49  1  0
 48 47  1  0
 50 49  1  0
 51 62  2  0
 52 50  1  0
 52 57  1  0
 53 61  1  0
 53 63  1  0
 54 60  1  0
 54 56  1  0
 55 61  1  0
 56 57  2  0
 56 55  1  0
 58 52  2  0
 59 58  1  0
 59 54  2  0
 60 53  1  0
 61 51  1  0
 63 65  2  0
 64 63  1  0
 66 64  1  0
 67 76  2  0
 67 72  1  0
 68 64  1  0
 68 72  1  0
 69 68  1  0
 70 71  1  0
 70 69  1  0
 71 67  1  0
 72 73  2  0
 73 74  1  0
 75 74  2  0
 76 75  1  0
 77 51  1  0
 77 82  1  0
 77 78  1  0
 78 81  1  1
 78 79  1  0
 80 78  1  0
 82 85  1  0
 83 87  1  0
 83 82  1  0
 84 83  2  0
 87 86  1  0
 89 87  1  0
 89 90  1  0
 89 88  1  0
M  ISO  4   5 100  18 100  49 101  50 101
M  END
>  <TORSDO>  (88) 
F 20

>  <SCORE>  (88) 
-13.684

>  <name>  (88) 
88

>  <ligand_id>  (88) 
88

>  <original_smiles>  (88) 
[H]C1=C(C([H])([H])[N+]([H])([H])C([H])([H])C([H])([H])C([H])([H])Oc2c([H])c([H])c3c(c2[H])C([H])([H])N(C(=O)C([H])(N([H])C(=O)C([H])(N([H])C([H])([H])[H])C([H])([H])[H])C(C([H])([H])[H])(C([H])([H])[H])C([H])([H])[H])C([H])(C(=O)N([H])C2([H])c4c([H])c([H])c([H])c([H])c4C([H])([H])C([H])([H])C2([H])[H])C3([H])[H])C([H])([H])C([H])([H])N(C(=O)N2C([H])([H])C([H])([H])C([H])([H])C([H])(n3nc(-c4c([H])c([H])c(Oc5c([H])c([H])c(F)c([H])c5F)c([H])c4[H])c(C(=O)N([H])[H])c3N([H])[H])C2([H])[H])C1([H])[H]

>  <smiles>  (88) 
[H]C1=C(C([H])([H])[N+]([H])([H])C([H])([H])C([H])([H])C([H])([H])Oc2c([H])c([H])c3c(c2[H])C([H])([H])N(C(=O)C([H])(N([H])C(=O)C([H])(N([H])C([H])([H])[H])C([H])([H])[H])C(C([H])([H])[H])(C([H])([H])[H])C([H])([H])[H])C([H])(C(=O)N([H])C2([H])c4c([H])c([H])c([H])c([H])c4C([H])([H])C([H])([H])C2([H])[H])C3([H])[H])C([H])([H])C([H])([H])N(C(=O)N2C([H])([H])C([H])([H])C([H])([H])C([H])(n3nc(-c4c([H])c([H])c(Oc5c([H])c([H])c(F)c([H])c5F)c([H])c4[H])c(C(=O)N([H])[H])c3N([H])[H])C2([H])[H])C1([H])[H]

$$$$
89:0:0
     RDKit          3D

 94102  0  0  1  0  0  0  0  0999 V2000
  -29.3310  -23.5160   20.1990 N   0  0  1  0  0  4  0  0  0  0  0  0
  -28.5920  -23.0770   19.6670 H   0  0  0  0  0  0  0  0  0  0  0  0
  -30.0710  -24.2530   19.1300 C   0  0  0  0  0  2  0  0  0  0  0  0
  -29.6630  -25.5380   16.9510 C   0  0  0  0  0  1  0  0  0  0  0  0
  -29.2090  -24.3950   17.8680 C   0  0  0  0  0  2  0  0  0  0  0  0
  -30.1180  -22.3360   20.7340 C   0  0  0  0  0  2  0  0  0  0  0  0
  -29.3710  -21.2260   21.5640 C   0  0  0  0  0  2  0  0  0  0  0  0
  -28.8600  -19.9250   20.8290 C   0  0  0  0  0  2  0  0  0  0  0  0
  -30.8730  -14.6410   20.0170 C   0  0  0  0  0  0  0  0  0  0  0  0
  -30.5330  -12.4200   18.9580 C   0  0  0  0  0  2  0  0  0  0  0  0
  -29.5500  -12.5500   17.7760 C   0  0  0  0  0  2  0  0  0  0  0  0
  -28.1010  -12.3700   18.2730 C   0  0  0  0  0  2  0  0  0  0  0  0
  -27.7910  -13.2410   19.5230 C   0  0  0  0  0  3  0  0  0  0  0  0
  -28.9050  -13.1500   20.5910 C   0  0  0  0  0  2  0  0  0  0  0  0
  -30.1850  -13.4620   19.9420 N   0  0  0  0  0  0  0  0  0  0  0  0
  -32.0180  -14.7340   19.5510 O   0  0  0  0  0  0  0  0  0  0  0  0
  -29.1860  -16.4410   19.7800 C   0  0  0  0  0  2  0  0  0  0  0  0
  -31.0480  -16.7240   21.3510 C   0  0  0  0  0  2  0  0  0  0  0  0
  -29.5130  -17.9250   19.3990 C   0  0  0  0  0  2  0  0  0  0  0  0
  -30.2520  -18.0120   21.7440 C   0  0  0  0  0  2  0  0  0  0  0  0
  -30.2600  -15.7520   20.5450 N   0  0  0  0  0  0  0  0  0  0  0  0
  -29.8570  -18.8150   20.5520 N   0  0  2  0  0  4  0  0  0  0  0  0
  -30.7000  -19.2790   20.2360 H   0  0  0  0  0  0  0  0  0  0  0  0
  -25.4710  -13.8500   20.4320 C   0  0  0  0  0  0  0  0  0  0  0  0
  -24.4200  -13.0780   20.8450 C   0  0  0  0  0  0  0  0  0  0  0  0
  -24.8630  -11.7230   20.7410 C   0  0  0  0  0  0  0  0  0  0  0  0
  -26.4800  -12.9620   20.0920 N   0  0  0  0  0  0  0  0  0  0  0  0
  -26.1250  -11.6770   20.3370 N   0  0  0  0  0  0  0  0  0  0  0  0
  -24.1370  -10.4640   20.9370 C   0  0  0  0  0  0  0  0  0  0  0  0
  -24.5720   -9.4980   21.8710 C   0  0  0  0  0  3  0  0  0  0  0  0
  -23.8470   -8.3020   22.0590 C   0  0  0  0  0  3  0  0  0  0  0  0
  -22.6720   -8.0650   21.3040 C   0  0  0  0  0  0  0  0  0  0  0  0
  -22.2530   -9.0210   20.3610 C   0  0  0  0  0  3  0  0  0  0  0  0
  -22.9820  -10.2060   20.1740 C   0  0  0  0  0  3  0  0  0  0  0  0
  -21.9130   -6.9230   21.3990 O   0  0  0  0  0  0  0  0  0  0  0  0
  -21.8050   -6.2240   22.5730 C   0  0  0  0  0  0  0  0  0  0  0  0
  -21.2810   -6.8110   23.7450 C   0  0  0  0  0  3  0  0  0  0  0  0
  -21.1210   -6.0340   24.9100 C   0  0  0  0  0  3  0  0  0  0  0  0
  -21.4790   -4.6740   24.9030 C   0  0  0  0  0  0  0  0  0  0  0  0
  -22.0010   -4.0870   23.7370 C   0  0  0  0  0  3  0  0  0  0  0  0
  -22.1590   -4.8590   22.5740 C   0  0  0  0  0  0  0  0  0  0  0  0
  -22.6410   -4.2850   21.4450 F   0  0  0  0  0  0  0  0  0  0  0  0
  -21.3170   -3.9250   26.0200 F   0  0  0  0  0  0  0  0  0  0  0  0
  -23.0480  -13.5650   21.2170 C   0  0  0  0  0  0  0  0  0  0  0  0
  -22.3560  -12.8560   22.0990 N   0  0  0  0  0  0  0  0  0  0  0  0
  -22.6020  -14.6160   20.7610 O   0  0  0  0  0  0  0  0  0  0  0  0
  -22.7270  -12.0070   22.4980 H   0  0  0  0  0  0  0  0  0  0  0  0
  -21.4390  -13.1720   22.3790 H   0  0  0  0  0  0  0  0  0  0  0  0
  -25.6370  -15.2250   20.2920 N   0  0  0  0  0  0  0  0  0  0  0  0
  -24.8700  -15.8720   20.4530 H   0  0  0  0  0  0  0  0  0  0  0  0
  -26.4450  -15.6640   19.8780 H   0  0  0  0  0  0  0  0  0  0  0  0
  -28.5730  -24.3990   21.1790 C   0  0  0  0  0  2  0  0  0  0  0  0
  -28.9380  -25.9240   21.2900 C   0  0  0  0  0  2  0  0  0  0  0  0
  -28.5470  -26.7190   20.1440 O   0  0  0  0  0  0  0  0  0  0  0  0
  -24.5940  -31.8690   23.2030 C   0  0  0  0  0  0  0  0  0  0  0  0
  -27.3730  -27.4490   20.2070 C   0  0  0  0  0  0  0  0  0  0  0  0
  -23.4410  -30.4660   21.5210 C   0  0  0  0  0  3  0  0  0  0  0  0
  -24.9580  -28.9400   20.1380 C   0  0  0  0  0  0  0  0  0  0  0  0
  -25.9670  -30.8460   21.3920 C   0  0  0  0  0  2  0  0  0  0  0  0
  -26.0900  -29.4690   20.7690 C   0  0  0  0  0  0  0  0  0  0  0  0
  -27.3000  -28.7320   20.8100 C   0  0  0  0  0  3  0  0  0  0  0  0
  -26.2270  -26.9450   19.5570 C   0  0  0  0  0  3  0  0  0  0  0  0
  -25.0210  -27.6750   19.5290 C   0  0  0  0  0  3  0  0  0  0  0  0
  -23.7010  -29.7870   20.1480 C   0  0  0  0  0  2  0  0  0  0  0  0
  -24.6830  -31.0760   22.1000 N   0  0  0  0  0  0  0  0  0  0  0  0
  -23.4960  -32.1310   23.7180 O   0  0  0  0  0  0  0  0  0  0  0  0
  -22.7710  -29.4380   22.4620 C   0  0  0  0  0  0  0  0  0  0  0  0
  -21.4470  -29.2580   22.3130 N   0  0  0  0  0  0  0  0  0  0  0  0
  -23.4410  -28.8020   23.2800 O   0  0  0  0  0  0  0  0  0  0  0  0
  -20.9630  -29.8190   21.6250 H   0  0  0  0  0  0  0  0  0  0  0  0
  -18.0690  -28.0620   22.7660 C   0  0  0  0  0  0  0  0  0  0  0  0
  -20.6240  -28.3130   23.0660 C   0  0  0  0  0  3  0  0  0  0  0  0
  -20.7300  -26.8880   22.4760 C   0  0  0  0  0  2  0  0  0  0  0  0
  -19.6420  -26.5800   21.4430 C   0  0  0  0  0  2  0  0  0  0  0  0
  -18.2530  -26.7200   22.0730 C   0  0  0  0  0  2  0  0  0  0  0  0
  -19.1830  -28.8150   23.2180 C   0  0  0  0  0  0  0  0  0  0  0  0
  -18.9620  -30.0690   23.8270 C   0  0  0  0  0  3  0  0  0  0  0  0
  -17.6570  -30.5730   23.9830 C   0  0  0  0  0  3  0  0  0  0  0  0
  -16.5570  -29.8160   23.5480 C   0  0  0  0  0  3  0  0  0  0  0  0
  -16.7620  -28.5620   22.9450 C   0  0  0  0  0  3  0  0  0  0  0  0
  -25.8600  -32.5080   23.8560 C   0  0  0  0  0  3  0  0  0  0  0  0
  -25.5350  -33.9030   24.1810 N   0  0  0  0  0  0  0  0  0  0  0  0
  -25.8710  -34.9570   23.4250 C   0  0  0  0  0  0  0  0  0  0  0  0
  -26.5630  -34.8590   22.4080 O   0  0  0  0  0  0  0  0  0  0  0  0
  -24.9220  -34.0530   24.9690 H   0  0  0  0  0  0  0  0  0  0  0  0
  -24.1430  -36.7420   23.0340 C   0  0  0  0  0  1  0  0  0  0  0  0
  -25.3650  -36.3410   23.8750 C   0  0  0  0  0  3  0  0  0  0  0  0
  -27.4680  -37.2430   24.7660 C   0  0  0  0  0  1  0  0  0  0  0  0
  -26.3910  -37.4030   23.7900 N   0  0  0  0  0  0  0  0  0  0  0  0
  -25.9700  -38.3170   23.9330 H   0  0  0  0  0  0  0  0  0  0  0  0
  -26.3610  -31.7350   25.1370 C   0  0  1  0  0  0  0  0  0  0  0  0
  -25.2510  -31.4830   26.1840 C   0  0  0  0  0  1  0  0  0  0  0  0
  -26.9620  -30.3620   24.7490 C   0  0  0  0  0  1  0  0  0  0  0  0
  -27.4930  -32.5340   25.8250 C   0  0  0  0  0  1  0  0  0  0  0  0
  1  6  1  0
  1 52  1  0
  1  2  1  6
  3  1  1  0
  4  5  1  0
  5  3  1  0
  6  7  1  0
  8  7  1  0
  9 21  1  0
 10 15  1  0
 11 12  1  0
 11 10  1  0
 13 12  1  0
 13 27  1  0
 13 14  1  0
 15  9  1  0
 15 14  1  0
 16  9  2  0
 17 21  1  0
 18 20  1  0
 19 17  1  0
 19 22  1  0
 21 18  1  0
 22  8  1  0
 22 20  1  0
 22 23  1  6
 24 25  2  0
 25 44  1  0
 26 25  1  0
 26 29  1  0
 27 28  1  0
 27 24  1  0
 28 26  2  0
 29 30  1  0
 30 31  2  0
 32 35  1  0
 32 31  1  0
 33 32  2  0
 34 33  1  0
 34 29  2  0
 35 36  1  0
 36 41  2  0
 36 37  1  0
 37 38  2  0
 39 38  1  0
 39 43  1  0
 40 39  2  0
 41 40  1  0
 42 41  1  0
 44 45  1  0
 45 48  1  0
 45 47  1  0
 46 44  2  0
 49 24  1  0
 49 50  1  0
 51 49  1  0
 52 53  1  0
 54 56  1  0
 54 53  1  0
 55 66  2  0
 56 61  1  0
 57 65  1  0
 57 67  1  0
 58 64  1  0
 58 60  1  0
 59 65  1  0
 60 61  2  0
 60 59  1  0
 62 56  2  0
 63 62  1  0
 63 58  2  0
 64 57  1  0
 65 55  1  0
 67 69  2  0
 68 67  1  0
 70 68  1  0
 71 80  2  0
 71 76  1  0
 72 68  1  0
 72 76  1  0
 73 72  1  0
 74 75  1  0
 74 73  1  0
 75 71  1  0
 76 77  2  0
 77 78  1  0
 79 78  2  0
 80 79  1  0
 81 55  1  0
 81 82  1  0
 81 91  1  0
 82 85  1  0
 83 87  1  0
 83 82  1  0
 84 83  2  0
 87 86  1  0
 89 87  1  0
 89 90  1  0
 89 88  1  0
 91 94  1  1
 91 92  1  0
 93 91  1  0
M  ISO  4   9 100  21 100  53 101  54 101
M  END
>  <TORSDO>  (89) 
F 23

>  <SCORE>  (89) 
-12.682

>  <name>  (89) 
89

>  <ligand_id>  (89) 
89

>  <original_smiles>  (89) 
[H]c1c([H])c([H])c2c(c1[H])C([H])([H])C([H])([H])C([H])([H])C2([H])N([H])C(=O)C1([H])N(C(=O)C([H])(N([H])C(=O)C([H])(N([H])C([H])([H])[H])C([H])([H])[H])C(C([H])([H])[H])(C([H])([H])[H])C([H])([H])[H])C([H])([H])c2c([H])c(OC([H])([H])C([H])([H])[N+]([H])(C([H])([H])C([H])([H])C([H])([H])[H])C([H])([H])C([H])([H])C([H])([H])[N+]3([H])C([H])([H])C([H])([H])N(C(=O)N4C([H])([H])C([H])([H])C([H])([H])C([H])(n5nc(-c6c([H])c([H])c(Oc7c([H])c([H])c(F)c([H])c7F)c([H])c6[H])c(C(=O)N([H])[H])c5N([H])[H])C4([H])[H])C([H])([H])C3([H])[H])c([H])c([H])c2C1([H])[H]

>  <smiles>  (89) 
[H]c1c([H])c([H])c2c(c1[H])C([H])([H])C([H])([H])C([H])([H])C2([H])N([H])C(=O)C1([H])N(C(=O)C([H])(N([H])C(=O)C([H])(N([H])C([H])([H])[H])C([H])([H])[H])C(C([H])([H])[H])(C([H])([H])[H])C([H])([H])[H])C([H])([H])c2c([H])c(OC([H])([H])C([H])([H])[N+]([H])(C([H])([H])C([H])([H])C([H])([H])[H])C([H])([H])C([H])([H])C([H])([H])[N+]3([H])C([H])([H])C([H])([H])N(C(=O)N4C([H])([H])C([H])([H])C([H])([H])C([H])(n5nc(-c6c([H])c([H])c(Oc7c([H])c([H])c(F)c([H])c7F)c([H])c6[H])c(C(=O)N([H])[H])c5N([H])[H])C4([H])[H])C([H])([H])C3([H])[H])c([H])c([H])c2C1([H])[H]

$$$$
90:0:0
     RDKit          3D

 97105  0  0  1  0  0  0  0  0999 V2000
  -28.5590  -19.9920   19.5720 N   0  0  1  0  0  4  0  0  0  0  0  0
  -28.8300  -20.2240   18.6280 H   0  0  0  0  0  0  0  0  0  0  0  0
  -30.9130  -14.6260   19.9580 C   0  0  0  0  0  0  0  0  0  0  0  0
  -30.5230  -12.4220   18.9120 C   0  0  0  0  0  2  0  0  0  0  0  0
  -29.5230  -12.5840   17.7510 C   0  0  0  0  0  2  0  0  0  0  0  0
  -28.0750  -12.4560   18.2650 C   0  0  0  0  0  2  0  0  0  0  0  0
  -27.8040  -13.3190   19.5280 C   0  0  0  0  0  3  0  0  0  0  0  0
  -28.9250  -13.1750   20.5780 C   0  0  0  0  0  2  0  0  0  0  0  0
  -30.1970  -13.4620   19.9040 N   0  0  0  0  0  0  0  0  0  0  0  0
  -32.0990  -14.6510   19.6190 O   0  0  0  0  0  0  0  0  0  0  0  0
  -29.2150  -17.9390   21.1080 C   0  0  0  0  0  2  0  0  0  0  0  0
  -30.2940  -18.1840   18.8740 C   0  0  0  0  0  2  0  0  0  0  0  0
  -30.0440  -16.5980   21.1770 C   0  0  0  0  0  2  0  0  0  0  0  0
  -30.3490  -16.6370   18.6950 C   0  0  0  0  0  2  0  0  0  0  0  0
  -29.0640  -18.5590   19.6980 C   0  0  0  0  0  3  0  0  0  0  0  0
  -30.2000  -15.8040   19.9280 N   0  0  0  0  0  0  0  0  0  0  0  0
  -25.4720  -13.9340   20.4120 C   0  0  0  0  0  0  0  0  0  0  0  0
  -24.4150  -13.1680   20.8210 C   0  0  0  0  0  0  0  0  0  0  0  0
  -24.8500  -11.8100   20.7270 C   0  0  0  0  0  0  0  0  0  0  0  0
  -26.4840  -13.0440   20.0920 N   0  0  0  0  0  0  0  0  0  0  0  0
  -26.1190  -11.7600   20.3430 N   0  0  0  0  0  0  0  0  0  0  0  0
  -24.1130  -10.5550   20.9260 C   0  0  0  0  0  0  0  0  0  0  0  0
  -24.5400   -9.5880   21.8620 C   0  0  0  0  0  3  0  0  0  0  0  0
  -23.8050   -8.3980   22.0490 C   0  0  0  0  0  3  0  0  0  0  0  0
  -22.6280   -8.1650   21.2970 C   0  0  0  0  0  0  0  0  0  0  0  0
  -22.2200   -9.1210   20.3500 C   0  0  0  0  0  3  0  0  0  0  0  0
  -22.9550  -10.3030   20.1620 C   0  0  0  0  0  3  0  0  0  0  0  0
  -21.8630   -7.0290   21.3940 O   0  0  0  0  0  0  0  0  0  0  0  0
  -21.7410   -6.3410   22.5740 C   0  0  0  0  0  0  0  0  0  0  0  0
  -21.2100   -6.9430   23.7360 C   0  0  0  0  0  3  0  0  0  0  0  0
  -21.0360   -6.1800   24.9080 C   0  0  0  0  0  3  0  0  0  0  0  0
  -21.3840   -4.8170   24.9200 C   0  0  0  0  0  0  0  0  0  0  0  0
  -21.9070   -4.2140   23.7630 C   0  0  0  0  0  3  0  0  0  0  0  0
  -22.0830   -4.9740   22.5930 C   0  0  0  0  0  0  0  0  0  0  0  0
  -22.5680   -4.3830   21.4740 F   0  0  0  0  0  0  0  0  0  0  0  0
  -21.2110   -4.0820   26.0430 F   0  0  0  0  0  0  0  0  0  0  0  0
  -23.0440  -13.6610   21.1860 C   0  0  0  0  0  0  0  0  0  0  0  0
  -22.3560  -12.9560   22.0770 N   0  0  0  0  0  0  0  0  0  0  0  0
  -22.5950  -14.7060   20.7160 O   0  0  0  0  0  0  0  0  0  0  0  0
  -22.7340  -12.1110   22.4790 H   0  0  0  0  0  0  0  0  0  0  0  0
  -21.4380  -13.2660   22.3620 H   0  0  0  0  0  0  0  0  0  0  0  0
  -25.6550  -15.3060   20.2650 N   0  0  0  0  0  0  0  0  0  0  0  0
  -24.9150  -15.9720   20.4540 H   0  0  0  0  0  0  0  0  0  0  0  0
  -26.5100  -15.7340   19.9370 H   0  0  0  0  0  0  0  0  0  0  0  0
  -27.0690  -20.0290   19.5090 C   0  0  0  0  0  2  0  0  0  0  0  0
  -26.6040  -20.5410   18.1310 C   0  0  0  0  0  2  0  0  0  0  0  0
  -25.0910  -20.7950   18.0400 C   0  0  0  0  0  2  0  0  0  0  0  0
  -24.6790  -21.3590   16.6640 C   0  0  0  0  0  2  0  0  0  0  0  0
  -23.2400  -21.6640   16.5890 N   0  0  0  0  0  4  0  0  0  0  0  0
  -22.6880  -20.8440   16.7630 H   0  0  0  0  0  0  0  0  0  0  0  0
  -23.0130  -22.0010   15.6700 H   0  0  0  0  0  0  0  0  0  0  0  0
  -22.9880  -22.3750   17.2510 H   0  0  0  0  0  0  0  0  0  0  0  0
  -29.1630  -21.1390   20.3590 C   0  0  0  0  0  2  0  0  0  0  0  0
  -28.8330  -22.5720   19.7380 C   0  0  0  0  0  2  0  0  0  0  0  0
  -29.1320  -23.9230   20.5080 C   0  0  0  0  0  2  0  0  0  0  0  0
  -28.2880  -25.1290   19.9370 C   0  0  0  0  0  2  0  0  0  0  0  0
  -28.4470  -26.5140   20.4130 O   0  0  0  0  0  0  0  0  0  0  0  0
  -24.5930  -31.8910   23.2630 C   0  0  0  0  0  0  0  0  0  0  0  0
  -27.3230  -27.3490   20.3090 C   0  0  0  0  0  0  0  0  0  0  0  0
  -23.4400  -30.4580   21.6180 C   0  0  0  0  0  3  0  0  0  0  0  0
  -24.9380  -28.9200   20.2390 C   0  0  0  0  0  0  0  0  0  0  0  0
  -25.9790  -30.8090   21.4850 C   0  0  0  0  0  2  0  0  0  0  0  0
  -26.0870  -29.4260   20.8590 C   0  0  0  0  0  0  0  0  0  0  0  0
  -27.2810  -28.6490   20.8940 C   0  0  0  0  0  3  0  0  0  0  0  0
  -26.1530  -26.9090   19.6390 C   0  0  0  0  0  3  0  0  0  0  0  0
  -24.9710  -27.6640   19.6220 C   0  0  0  0  0  3  0  0  0  0  0  0
  -23.6890  -29.7750   20.2500 C   0  0  0  0  0  2  0  0  0  0  0  0
  -24.6880  -31.0710   22.1780 N   0  0  0  0  0  0  0  0  0  0  0  0
  -23.4950  -32.1630   23.7700 O   0  0  0  0  0  0  0  0  0  0  0  0
  -22.7730  -29.4410   22.5750 C   0  0  0  0  0  0  0  0  0  0  0  0
  -21.4510  -29.2540   22.4310 N   0  0  0  0  0  0  0  0  0  0  0  0
  -23.4450  -28.8240   23.4060 O   0  0  0  0  0  0  0  0  0  0  0  0
  -20.9680  -29.8040   21.7340 H   0  0  0  0  0  0  0  0  0  0  0  0
  -18.0630  -28.0970   22.9430 C   0  0  0  0  0  0  0  0  0  0  0  0
  -20.6250  -28.3210   23.2000 C   0  0  0  0  0  3  0  0  0  0  0  0
  -20.7050  -26.8930   22.6130 C   0  0  0  0  0  2  0  0  0  0  0  0
  -19.5940  -26.5920   21.6030 C   0  0  0  0  0  2  0  0  0  0  0  0
  -18.2180  -26.7510   22.2560 C   0  0  0  0  0  2  0  0  0  0  0  0
  -19.1940  -28.8410   23.3710 C   0  0  0  0  0  0  0  0  0  0  0  0
  -18.9950  -30.1030   23.9730 C   0  0  0  0  0  3  0  0  0  0  0  0
  -17.6980  -30.6210   24.1500 C   0  0  0  0  0  3  0  0  0  0  0  0
  -16.5810  -29.8740   23.7380 C   0  0  0  0  0  3  0  0  0  0  0  0
  -16.7640  -28.6130   23.1400 C   0  0  0  0  0  3  0  0  0  0  0  0
  -25.8560  -32.5480   23.9000 C   0  0  0  0  0  3  0  0  0  0  0  0
  -26.3580  -31.7970   25.1930 C   0  0  1  0  0  0  0  0  0  0  0  0
  -25.2440  -31.5370   26.2330 C   0  0  0  0  0  1  0  0  0  0  0  0
  -26.9870  -30.4330   24.8260 C   0  0  0  0  0  1  0  0  0  0  0  0
  -27.4700  -32.6240   25.8800 C   0  0  0  0  0  1  0  0  0  0  0  0
  -25.5210  -33.9450   24.2080 N   0  0  0  0  0  0  0  0  0  0  0  0
  -25.8230  -34.9900   23.4260 C   0  0  0  0  0  0  0  0  0  0  0  0
  -26.4830  -34.8810   22.3890 O   0  0  0  0  0  0  0  0  0  0  0  0
  -24.9340  -34.1020   25.0140 H   0  0  0  0  0  0  0  0  0  0  0  0
  -24.0430  -36.7320   23.0700 C   0  0  0  0  0  1  0  0  0  0  0  0
  -25.3110  -36.3770   23.8630 C   0  0  0  0  0  3  0  0  0  0  0  0
  -27.4340  -37.3360   24.6360 C   0  0  0  0  0  1  0  0  0  0  0  0
  -26.3150  -37.4510   23.7050 N   0  0  0  0  0  0  0  0  0  0  0  0
  -25.8890  -38.3640   23.8340 H   0  0  0  0  0  0  0  0  0  0  0  0
  1 53  1  0
  1  2  1  6
  4  9  1  0
  5  6  1  0
  5  4  1  0
  7  6  1  0
  7 20  1  0
  7  8  1  0
  9  3  1  0
  9  8  1  0
 10  3  2  0
 11 13  1  0
 12 15  1  0
 14 12  1  0
 14 16  1  0
 15  1  1  0
 15 11  1  0
 16  3  1  0
 16 13  1  0
 17 18  2  0
 18 37  1  0
 19 18  1  0
 19 22  1  0
 20 21  1  0
 20 17  1  0
 21 19  2  0
 22 23  1  0
 23 24  2  0
 25 28  1  0
 25 24  1  0
 26 25  2  0
 27 26  1  0
 27 22  2  0
 28 29  1  0
 29 34  2  0
 29 30  1  0
 30 31  2  0
 31 32  1  0
 32 36  1  0
 33 32  2  0
 34 33  1  0
 35 34  1  0
 37 38  1  0
 38 41  1  0
 38 40  1  0
 39 37  2  0
 42 17  1  0
 42 43  1  0
 44 42  1  0
 45  1  1  0
 46 45  1  0
 47 46  1  0
 48 47  1  0
 49 48  1  0
 49 50  1  0
 49 52  1  0
 51 49  1  0
 54 53  1  0
 54 55  1  0
 56 57  1  0
 56 55  1  0
 58 69  2  0
 59 57  1  0
 59 64  1  0
 60 68  1  0
 60 70  1  0
 61 67  1  0
 61 63  1  0
 62 68  1  0
 63 64  2  0
 63 62  1  0
 65 59  2  0
 66 65  1  0
 66 61  2  0
 67 60  1  0
 68 58  1  0
 70 72  2  0
 71 70  1  0
 73 71  1  0
 74 83  2  0
 74 79  1  0
 75 71  1  0
 75 79  1  0
 76 75  1  0
 77 78  1  0
 77 76  1  0
 78 74  1  0
 79 80  2  0
 80 81  1  0
 82 81  2  0
 83 82  1  0
 84 58  1  0
 84 89  1  0
 84 85  1  0
 85 88  1  1
 85 86  1  0
 87 85  1  0
 89 92  1  0
 90 94  1  0
 90 89  1  0
 91 90  2  0
 94 93  1  0
 96 97  1  0
 96 94  1  0
 96 95  1  0
M  ISO  4   3 100  16 100  56 101  57 101
M  END
>  <TORSDO>  (90) 
F 25

>  <SCORE>  (90) 
-11.963

>  <name>  (90) 
90

>  <ligand_id>  (90) 
90

>  <original_smiles>  (90) 
[H]c1c([H])c([H])c2c(c1[H])C([H])([H])C([H])([H])C([H])([H])C2([H])N([H])C(=O)C1([H])N(C(=O)C([H])(N([H])C(=O)C([H])(N([H])C([H])([H])[H])C([H])([H])[H])C(C([H])([H])[H])(C([H])([H])[H])C([H])([H])[H])C([H])([H])c2c([H])c(OC([H])([H])C([H])([H])C([H])([H])C([H])([H])[N+]([H])(C([H])([H])C([H])([H])C([H])([H])C([H])([H])[N+]([H])([H])[H])C3([H])C([H])([H])C([H])([H])N(C(=O)N4C([H])([H])C([H])([H])C([H])([H])C([H])(n5nc(-c6c([H])c([H])c(Oc7c([H])c([H])c(F)c([H])c7F)c([H])c6[H])c(C(=O)N([H])[H])c5N([H])[H])C4([H])[H])C([H])([H])C3([H])[H])c([H])c([H])c2C1([H])[H]

>  <smiles>  (90) 
[H]c1c([H])c([H])c2c(c1[H])C([H])([H])C([H])([H])C([H])([H])C2([H])N([H])C(=O)C1([H])N(C(=O)C([H])(N([H])C(=O)C([H])(N([H])C([H])([H])[H])C([H])([H])[H])C(C([H])([H])[H])(C([H])([H])[H])C([H])([H])[H])C([H])([H])c2c([H])c(OC([H])([H])C([H])([H])C([H])([H])C([H])([H])[N+]([H])(C([H])([H])C([H])([H])C([H])([H])C([H])([H])[N+]([H])([H])[H])C3([H])C([H])([H])C([H])([H])N(C(=O)N4C([H])([H])C([H])([H])C([H])([H])C([H])(n5nc(-c6c([H])c([H])c(Oc7c([H])c([H])c(F)c([H])c7F)c([H])c6[H])c(C(=O)N([H])[H])c5N([H])[H])C4([H])[H])C([H])([H])C3([H])[H])c([H])c([H])c2C1([H])[H]

$$$$
91:0:0
     RDKit          3D

 89 97  0  0  1  0  0  0  0  0999 V2000
  -29.1780  -20.3660   19.7900 C   0  0  0  0  0  3  0  0  0  0  0  0
  -30.4150  -15.5600   19.8700 C   0  0  0  0  0  0  0  0  0  0  0  0
  -30.4050  -13.0590   18.9330 C   0  0  0  0  0  2  0  0  0  0  0  0
  -29.4130  -12.7530   17.7740 C   0  0  0  0  0  2  0  0  0  0  0  0
  -28.0160  -12.4080   18.3130 C   0  0  0  0  0  2  0  0  0  0  0  0
  -27.6150  -13.3530   19.4680 C   0  0  0  0  0  3  0  0  0  0  0  0
  -28.7340  -13.5690   20.5090 C   0  0  0  0  0  2  0  0  0  0  0  0
  -29.8770  -14.2010   19.8060 N   0  0  0  0  0  0  0  0  0  0  0  0
  -31.5870  -15.5370   19.4480 O   0  0  0  0  0  0  0  0  0  0  0  0
  -30.5620  -17.5800   22.4770 C   0  0  0  0  0  2  0  0  0  0  0  0
  -30.5420  -18.8960   21.7080 C   0  0  0  0  0  2  0  0  0  0  0  0
  -29.5750  -16.6350   21.7740 C   0  0  0  0  0  2  0  0  0  0  0  0
  -29.6030  -18.6540   20.5280 C   0  0  0  0  0  3  0  0  0  0  0  0
  -29.7020  -16.8720   20.3140 N   0  0  0  0  0  0  0  0  0  0  0  0
  -25.3210  -13.8700   20.4360 C   0  0  0  0  0  0  0  0  0  0  0  0
  -24.2870  -13.0810   20.8550 C   0  0  0  0  0  0  0  0  0  0  0  0
  -24.7460  -11.7320   20.7380 C   0  0  0  0  0  0  0  0  0  0  0  0
  -26.3360  -13.0060   20.0750 N   0  0  0  0  0  0  0  0  0  0  0  0
  -26.0100  -11.7100   20.3230 N   0  0  0  0  0  0  0  0  0  0  0  0
  -24.0290  -10.4640   20.9380 C   0  0  0  0  0  0  0  0  0  0  0  0
  -24.4800   -9.4950   21.8610 C   0  0  0  0  0  3  0  0  0  0  0  0
  -23.7580   -8.2980   22.0540 C   0  0  0  0  0  3  0  0  0  0  0  0
  -22.5700   -8.0590   21.3250 C   0  0  0  0  0  0  0  0  0  0  0  0
  -22.1350   -9.0180   20.3920 C   0  0  0  0  0  3  0  0  0  0  0  0
  -22.8580  -10.2060   20.1980 C   0  0  0  0  0  3  0  0  0  0  0  0
  -21.8190   -6.9120   21.4250 O   0  0  0  0  0  0  0  0  0  0  0  0
  -21.7370   -6.2070   22.5990 C   0  0  0  0  0  0  0  0  0  0  0  0
  -21.2710   -6.7990   23.7940 C   0  0  0  0  0  3  0  0  0  0  0  0
  -21.1370   -6.0190   24.9600 C   0  0  0  0  0  3  0  0  0  0  0  0
  -21.4590   -4.6480   24.9320 C   0  0  0  0  0  0  0  0  0  0  0  0
  -21.9180   -4.0570   23.7410 C   0  0  0  0  0  3  0  0  0  0  0  0
  -22.0540   -4.8340   22.5790 C   0  0  0  0  0  0  0  0  0  0  0  0
  -22.4770   -4.2540   21.4290 F   0  0  0  0  0  0  0  0  0  0  0  0
  -21.3240   -3.8970   26.0500 F   0  0  0  0  0  0  0  0  0  0  0  0
  -22.9170  -13.5520   21.2420 C   0  0  0  0  0  0  0  0  0  0  0  0
  -22.2570  -12.8390   22.1460 N   0  0  0  0  0  0  0  0  0  0  0  0
  -22.4430  -14.5880   20.7770 O   0  0  0  0  0  0  0  0  0  0  0  0
  -22.6530  -11.9980   22.5410 H   0  0  0  0  0  0  0  0  0  0  0  0
  -21.3420  -13.1380   22.4500 H   0  0  0  0  0  0  0  0  0  0  0  0
  -25.4740  -15.2480   20.3060 N   0  0  0  0  0  0  0  0  0  0  0  0
  -24.7230  -15.8940   20.5250 H   0  0  0  0  0  0  0  0  0  0  0  0
  -26.3010  -15.7050   19.9400 H   0  0  0  0  0  0  0  0  0  0  0  0
  -30.0530  -20.4970   18.6160 N   0  0  0  0  0  4  0  0  0  0  0  0
  -30.9920  -20.7150   18.8950 H   0  0  0  0  0  0  0  0  0  0  0  0
  -29.7240  -21.2250   18.0070 H   0  0  0  0  0  0  0  0  0  0  0  0
  -30.0700  -19.6390   18.0970 H   0  0  0  0  0  0  0  0  0  0  0  0
  -28.9250  -22.1540   20.4650 C   0  0  0  0  0  3  0  0  0  0  0  0
  -28.1830  -23.8630   19.9870 C   0  0  0  0  0  3  0  0  0  0  0  0
  -28.2210  -25.5500   20.4250 O   0  0  0  0  0  0  0  0  0  0  0  0
  -24.7160  -31.8020   23.2650 C   0  0  0  0  0  0  0  0  0  0  0  0
  -27.2480  -26.7420   20.3090 C   0  0  0  0  0  0  0  0  0  0  0  0
  -23.5330  -30.4100   21.6170 C   0  0  0  0  0  3  0  0  0  0  0  0
  -24.9850  -28.7540   20.2210 C   0  0  0  0  0  0  0  0  0  0  0  0
  -26.1120  -30.5460   21.5180 C   0  0  0  0  0  2  0  0  0  0  0  0
  -26.1730  -29.1160   20.8670 C   0  0  0  0  0  0  0  0  0  0  0  0
  -27.2890  -28.1350   20.8800 C   0  0  0  0  0  3  0  0  0  0  0  0
  -26.0290  -26.5780   19.6030 C   0  0  0  0  0  3  0  0  0  0  0  0
  -24.9490  -27.5110   19.5660 C   0  0  0  0  0  3  0  0  0  0  0  0
  -23.7810  -29.7090   20.2500 C   0  0  0  0  0  2  0  0  0  0  0  0
  -24.8100  -30.9520   22.1860 N   0  0  0  0  0  0  0  0  0  0  0  0
  -23.6210  -32.1100   23.7660 O   0  0  0  0  0  0  0  0  0  0  0  0
  -22.8030  -29.4380   22.5830 C   0  0  0  0  0  0  0  0  0  0  0  0
  -21.4740  -29.2780   22.4310 N   0  0  0  0  0  0  0  0  0  0  0  0
  -23.4440  -28.8270   23.4410 O   0  0  0  0  0  0  0  0  0  0  0  0
  -21.0090  -29.8210   21.7170 H   0  0  0  0  0  0  0  0  0  0  0  0
  -18.0830  -28.0470   22.8630 C   0  0  0  0  0  0  0  0  0  0  0  0
  -20.6320  -28.3480   23.1950 C   0  0  0  0  0  3  0  0  0  0  0  0
  -20.7640  -26.9060   22.6520 C   0  0  0  0  0  2  0  0  0  0  0  0
  -19.6960  -26.5530   21.6120 C   0  0  0  0  0  2  0  0  0  0  0  0
  -18.2950  -26.6910   22.2120 C   0  0  0  0  0  2  0  0  0  0  0  0
  -19.1790  -28.8320   23.3100 C   0  0  0  0  0  0  0  0  0  0  0  0
  -18.9240  -30.0990   23.8820 C   0  0  0  0  0  3  0  0  0  0  0  0
  -17.6070  -30.5800   24.0080 C   0  0  0  0  0  3  0  0  0  0  0  0
  -16.5260  -29.7930   23.5760 C   0  0  0  0  0  3  0  0  0  0  0  0
  -16.7640  -28.5280   23.0090 C   0  0  0  0  0  3  0  0  0  0  0  0
  -25.9790  -32.4410   23.9180 C   0  0  0  0  0  3  0  0  0  0  0  0
  -26.4370  -31.6990   25.2350 C   0  0  1  0  0  0  0  0  0  0  0  0
  -25.3040  -31.5130   26.2720 C   0  0  0  0  0  1  0  0  0  0  0  0
  -27.0060  -30.2980   24.9150 C   0  0  0  0  0  1  0  0  0  0  0  0
  -27.5810  -32.4900   25.9110 C   0  0  0  0  0  1  0  0  0  0  0  0
  -25.6780  -33.8540   24.2200 N   0  0  0  0  0  0  0  0  0  0  0  0
  -26.0270  -34.8990   23.4560 C   0  0  0  0  0  0  0  0  0  0  0  0
  -26.6960  -34.7730   22.4280 O   0  0  0  0  0  0  0  0  0  0  0  0
  -25.0890  -34.0240   25.0230 H   0  0  0  0  0  0  0  0  0  0  0  0
  -24.3170  -36.7130   23.1000 C   0  0  0  0  0  1  0  0  0  0  0  0
  -25.5650  -36.3020   23.9010 C   0  0  0  0  0  3  0  0  0  0  0  0
  -27.7190  -37.1790   24.6910 C   0  0  0  0  0  1  0  0  0  0  0  0
  -26.6090  -37.3420   23.7570 N   0  0  0  0  0  0  0  0  0  0  0  0
  -26.2140  -38.2690   23.8910 H   0  0  0  0  0  0  0  0  0  0  0  0
  1 47  1  0
  2 14  1  0
  3  8  1  0
  4  5  1  0
  4  3  1  0
  6  5  1  0
  6 18  1  0
  6  7  1  0
  8  2  1  0
  8  7  1  0
  9  2  2  0
 11 10  1  0
 12 10  1  0
 13  1  1  0
 13 11  1  0
 14 13  1  0
 14 12  1  0
 15 16  2  0
 16 35  1  0
 17 16  1  0
 17 20  1  0
 18 19  1  0
 18 15  1  0
 19 17  2  0
 20 21  1  0
 21 22  2  0
 23 26  1  0
 23 22  1  0
 24 23  2  0
 25 24  1  0
 25 20  2  0
 26 27  1  0
 27 28  1  0
 28 29  2  0
 30 29  1  0
 30 34  1  0
 31 30  2  0
 32 27  2  0
 32 31  1  0
 33 32  1  0
 35 36  1  0
 36 39  1  0
 36 38  1  0
 37 35  2  0
 40 15  1  0
 40 41  1  0
 42 40  1  0
 43 44  1  0
 43  1  1  0
 45 43  1  0
 46 43  1  0
 48 49  1  0
 48 47  2  0
 50 61  2  0
 51 49  1  0
 51 56  1  0
 52 60  1  0
 52 62  1  0
 53 59  1  0
 53 55  1  0
 54 60  1  0
 55 56  2  0
 55 54  1  0
 57 51  2  0
 58 57  1  0
 58 53  2  0
 59 52  1  0
 60 50  1  0
 62 64  2  0
 63 62  1  0
 65 63  1  0
 66 75  2  0
 66 71  1  0
 67 63  1  0
 67 71  1  0
 68 67  1  0
 69 70  1  0
 69 68  1  0
 70 66  1  0
 71 72  2  0
 72 73  1  0
 74 73  2  0
 75 74  1  0
 76 50  1  0
 76 81  1  0
 76 77  1  0
 77 80  1  1
 77 78  1  0
 79 77  1  0
 81 84  1  0
 82 86  1  0
 82 81  1  0
 83 82  2  0
 86 85  1  0
 88 89  1  0
 88 86  1  0
 88 87  1  0
M  ISO  4   2 100  14 100  48 101  49 101
M  END
>  <TORSDO>  (91) 
F 19

>  <SCORE>  (91) 
-15.803

>  <name>  (91) 
91

>  <ligand_id>  (91) 
91

>  <original_smiles>  (91) 
[H]c1c([H])c([H])c2c(c1[H])C([H])([H])C([H])([H])C([H])([H])C2([H])N([H])C(=O)C1([H])N(C(=O)C([H])(N([H])C(=O)C([H])(N([H])C([H])([H])[H])C([H])([H])[H])C(C([H])([H])[H])(C([H])([H])[H])C([H])([H])[H])C([H])([H])c2c([H])c(OC([H])([H])C([H])([H])C([H])(C3([H])N(C(=O)N4C([H])([H])C([H])([H])C([H])([H])C([H])(n5nc(-c6c([H])c([H])c(Oc7c([H])c([H])c(F)c([H])c7F)c([H])c6[H])c(C(=O)N([H])[H])c5N([H])[H])C4([H])[H])C([H])([H])C([H])([H])C3([H])[H])[N+]([H])([H])[H])c([H])c([H])c2C1([H])[H]

>  <smiles>  (91) 
[H]c1c([H])c([H])c2c(c1[H])C([H])([H])C([H])([H])C([H])([H])C2([H])N([H])C(=O)C1([H])N(C(=O)C([H])(N([H])C(=O)C([H])(N([H])C([H])([H])[H])C([H])([H])[H])C(C([H])([H])[H])(C([H])([H])[H])C([H])([H])[H])C([H])([H])c2c([H])c(OC([H])([H])C([H])([H])C([H])(C3([H])N(C(=O)N4C([H])([H])C([H])([H])C([H])([H])C([H])(n5nc(-c6c([H])c([H])c(Oc7c([H])c([H])c(F)c([H])c7F)c([H])c6[H])c(C(=O)N([H])[H])c5N([H])[H])C4([H])[H])C([H])([H])C([H])([H])C3([H])[H])[N+]([H])([H])[H])c([H])c([H])c2C1([H])[H]

$$$$
92:0:0
     RDKit          3D

 97106  0  0  1  0  0  0  0  0999 V2000
  -31.6560  -22.2080   18.8980 N   0  0  0  0  0  4  0  0  0  0  0  0
  -31.5780  -22.2170   19.9010 H   0  0  0  0  0  0  0  0  0  0  0  0
  -32.5970  -22.4830   18.6550 H   0  0  0  0  0  0  0  0  0  0  0  0
  -30.7240  -23.2170   18.3400 C   0  0  0  0  0  2  0  0  0  0  0  0
  -30.0810  -25.6630   18.0950 C   0  0  0  0  0  2  0  0  0  0  0  0
  -30.5930  -24.7400   20.4090 C   0  0  0  0  0  2  0  0  0  0  0  0
  -30.1270  -27.0930   18.6700 C   0  0  0  0  0  2  0  0  0  0  0  0
  -30.6050  -26.1850   20.9550 C   0  0  0  0  0  2  0  0  0  0  0  0
  -30.9340  -24.6500   18.9000 C   0  0  0  0  0  3  0  0  0  0  0  0
  -29.6950  -27.1270   20.1450 C   0  0  0  0  0  3  0  0  0  0  0  0
  -28.3640  -26.6210   20.2430 O   0  0  0  0  0  0  0  0  0  0  0  0
  -24.5870  -31.8960   23.2840 C   0  0  0  0  0  0  0  0  0  0  0  0
  -27.2650  -27.4500   20.2490 C   0  0  0  0  0  0  0  0  0  0  0  0
  -23.3860  -30.4770   21.6480 C   0  0  0  0  0  3  0  0  0  0  0  0
  -24.8530  -28.9260   20.2490 C   0  0  0  0  0  0  0  0  0  0  0  0
  -25.9120  -30.8400   21.4600 C   0  0  0  0  0  2  0  0  0  0  0  0
  -26.0060  -29.4660   20.8320 C   0  0  0  0  0  0  0  0  0  0  0  0
  -27.2170  -28.7370   20.8360 C   0  0  0  0  0  3  0  0  0  0  0  0
  -26.0900  -26.9130   19.6870 C   0  0  0  0  0  3  0  0  0  0  0  0
  -24.8870  -27.6440   19.6760 C   0  0  0  0  0  3  0  0  0  0  0  0
  -23.6050  -29.7780   20.2790 C   0  0  0  0  0  2  0  0  0  0  0  0
  -24.6460  -31.0860   22.1900 N   0  0  0  0  0  0  0  0  0  0  0  0
  -23.5030  -32.1760   23.8160 O   0  0  0  0  0  0  0  0  0  0  0  0
  -22.7260  -29.4700   22.6170 C   0  0  0  0  0  0  0  0  0  0  0  0
  -21.4010  -29.2910   22.4820 N   0  0  0  0  0  0  0  0  0  0  0  0
  -23.4010  -28.8530   23.4420 O   0  0  0  0  0  0  0  0  0  0  0  0
  -20.9190  -29.8410   21.7860 H   0  0  0  0  0  0  0  0  0  0  0  0
  -18.0200  -28.1120   22.9630 C   0  0  0  0  0  0  0  0  0  0  0  0
  -20.5750  -28.3650   23.2560 C   0  0  0  0  0  3  0  0  0  0  0  0
  -20.6790  -26.9270   22.6970 C   0  0  0  0  0  2  0  0  0  0  0  0
  -19.5850  -26.5950   21.6770 C   0  0  0  0  0  2  0  0  0  0  0  0
  -18.1980  -26.7540   22.3060 C   0  0  0  0  0  2  0  0  0  0  0  0
  -19.1360  -28.8750   23.3940 C   0  0  0  0  0  0  0  0  0  0  0  0
  -18.9170  -30.1480   23.9660 C   0  0  0  0  0  3  0  0  0  0  0  0
  -17.6140  -30.6570   24.1110 C   0  0  0  0  0  3  0  0  0  0  0  0
  -16.5100  -29.8890   23.6990 C   0  0  0  0  0  3  0  0  0  0  0  0
  -16.7140  -28.6190   23.1310 C   0  0  0  0  0  3  0  0  0  0  0  0
  -25.8720  -32.5280   23.9040 C   0  0  0  0  0  3  0  0  0  0  0  0
  -25.5680  -33.9310   24.2190 N   0  0  0  0  0  0  0  0  0  0  0  0
  -25.9090  -34.9720   23.4480 C   0  0  0  0  0  0  0  0  0  0  0  0
  -26.5840  -34.8540   22.4210 O   0  0  0  0  0  0  0  0  0  0  0  0
  -24.9700  -34.0970   25.0140 H   0  0  0  0  0  0  0  0  0  0  0  0
  -24.1880  -36.7640   23.0630 C   0  0  0  0  0  1  0  0  0  0  0  0
  -25.4230  -36.3670   23.8860 C   0  0  0  0  0  3  0  0  0  0  0  0
  -27.5590  -37.2490   24.7130 C   0  0  0  0  0  1  0  0  0  0  0  0
  -26.4590  -37.4170   23.7680 N   0  0  0  0  0  0  0  0  0  0  0  0
  -26.0550  -38.3380   23.9130 H   0  0  0  0  0  0  0  0  0  0  0  0
  -26.3840  -31.7650   25.1880 C   0  0  1  0  0  0  0  0  0  0  0  0
  -25.2890  -31.5400   26.2550 C   0  0  0  0  0  1  0  0  0  0  0  0
  -26.9630  -30.3830   24.8050 C   0  0  0  0  0  1  0  0  0  0  0  0
  -27.5360  -32.5600   25.8450 C   0  0  0  0  0  1  0  0  0  0  0  0
  -31.4060  -20.8320   18.3940 C   0  0  0  0  0  2  0  0  0  0  0  0
  -32.4880  -19.7950   18.7920 C   0  0  0  0  0  2  0  0  0  0  0  0
  -32.3810  -19.1220   20.1910 C   0  0  0  0  0  2  0  0  0  0  0  0
  -30.6850  -14.4460   20.3550 C   0  0  0  0  0  0  0  0  0  0  0  0
  -30.3140  -12.3070   19.2040 C   0  0  0  0  0  2  0  0  0  0  0  0
  -29.3850  -12.5650   18.0020 C   0  0  0  0  0  2  0  0  0  0  0  0
  -27.9040  -12.4650   18.4240 C   0  0  0  0  0  2  0  0  0  0  0  0
  -27.5840  -13.2740   19.7110 C   0  0  0  0  0  3  0  0  0  0  0  0
  -28.6440  -13.0380   20.8130 C   0  0  0  0  0  2  0  0  0  0  0  0
  -29.9710  -13.2960   20.2320 N   0  0  0  0  0  0  0  0  0  0  0  0
  -31.8360  -14.5780   19.9320 O   0  0  0  0  0  0  0  0  0  0  0  0
  -30.3430  -16.3120   21.9000 C   0  0  0  0  0  2  0  0  0  0  0  0
  -29.5830  -16.4670   19.6310 C   0  0  0  0  0  2  0  0  0  0  0  0
  -31.5020  -17.3000   21.6070 C   0  0  0  0  0  2  0  0  0  0  0  0
  -30.7330  -17.4380   19.2600 C   0  0  0  0  0  2  0  0  0  0  0  0
  -29.9760  -15.5440   20.7040 N   0  0  0  0  0  0  0  0  0  0  0  0
  -31.2300  -18.1950   20.4430 N   0  0  2  0  0  4  0  0  0  0  0  0
  -30.4580  -18.7790   20.7350 H   0  0  0  0  0  0  0  0  0  0  0  0
  -25.1860  -13.8900   20.4160 C   0  0  0  0  0  0  0  0  0  0  0  0
  -24.1180  -13.1240   20.7960 C   0  0  0  0  0  0  0  0  0  0  0  0
  -24.5770  -11.7710   20.7800 C   0  0  0  0  0  0  0  0  0  0  0  0
  -26.2300  -13.0060   20.1940 N   0  0  0  0  0  0  0  0  0  0  0  0
  -25.8660  -11.7260   20.4700 N   0  0  0  0  0  0  0  0  0  0  0  0
  -23.8480  -10.5130   20.9850 C   0  0  0  0  0  0  0  0  0  0  0  0
  -24.2860   -9.5520   21.9230 C   0  0  0  0  0  3  0  0  0  0  0  0
  -23.5600   -8.3560   22.1160 C   0  0  0  0  0  3  0  0  0  0  0  0
  -22.3830   -8.1130   21.3710 C   0  0  0  0  0  0  0  0  0  0  0  0
  -21.9650   -9.0610   20.4210 C   0  0  0  0  0  3  0  0  0  0  0  0
  -22.6890  -10.2480   20.2260 C   0  0  0  0  0  3  0  0  0  0  0  0
  -21.6270   -6.9710   21.4740 O   0  0  0  0  0  0  0  0  0  0  0  0
  -21.5930   -6.2290   22.6260 C   0  0  0  0  0  0  0  0  0  0  0  0
  -21.1990   -6.7900   23.8610 C   0  0  0  0  0  3  0  0  0  0  0  0
  -21.1130   -5.9760   25.0080 C   0  0  0  0  0  3  0  0  0  0  0  0
  -21.4100   -4.6020   24.9220 C   0  0  0  0  0  0  0  0  0  0  0  0
  -21.7980   -4.0420   23.6930 C   0  0  0  0  0  3  0  0  0  0  0  0
  -21.8860   -4.8530   22.5470 C   0  0  0  0  0  0  0  0  0  0  0  0
  -22.2400   -4.3020   21.3610 F   0  0  0  0  0  0  0  0  0  0  0  0
  -21.3190   -3.8190   26.0220 F   0  0  0  0  0  0  0  0  0  0  0  0
  -22.7210  -13.6080   21.0630 C   0  0  0  0  0  0  0  0  0  0  0  0
  -21.9890  -12.9240   21.9380 N   0  0  0  0  0  0  0  0  0  0  0  0
  -22.2870  -14.6290   20.5320 O   0  0  0  0  0  0  0  0  0  0  0  0
  -22.3510  -12.1000   22.3940 H   0  0  0  0  0  0  0  0  0  0  0  0
  -21.0520  -13.2310   22.1530 H   0  0  0  0  0  0  0  0  0  0  0  0
  -25.3560  -15.2590   20.2240 N   0  0  0  0  0  0  0  0  0  0  0  0
  -24.5980  -15.9230   20.3370 H   0  0  0  0  0  0  0  0  0  0  0  0
  -26.2180  -15.6920   19.9170 H   0  0  0  0  0  0  0  0  0  0  0  0
  1  2  1  0
  3  1  1  0
  4  1  1  0
  5  7  1  0
  5  9  1  0
  6  8  1  0
  7 10  1  0
  9  4  1  0
  9  6  1  0
 10 11  1  0
 10  8  1  0
 11 13  1  0
 12 23  2  0
 13 18  1  0
 14 22  1  0
 14 24  1  0
 15 21  1  0
 15 17  1  0
 16 22  1  0
 17 18  2  0
 17 16  1  0
 19 13  2  0
 20 19  1  0
 20 15  2  0
 21 14  1  0
 22 12  1  0
 24 26  2  0
 25 24  1  0
 27 25  1  0
 28 37  2  0
 28 33  1  0
 29 25  1  0
 29 33  1  0
 30 29  1  0
 31 32  1  0
 31 30  1  0
 32 28  1  0
 33 34  2  0
 34 35  1  0
 36 35  2  0
 37 36  1  0
 38 12  1  0
 38 39  1  0
 38 48  1  0
 39 42  1  0
 40 44  1  0
 40 39  1  0
 41 40  2  0
 44 43  1  0
 46 44  1  0
 46 47  1  0
 46 45  1  0
 48 51  1  1
 48 49  1  0
 50 48  1  0
 52 53  1  0
 52  1  1  0
 53 54  1  0
 54 68  1  0
 55 67  1  0
 56 61  1  0
 57 58  1  0
 57 56  1  0
 59 58  1  0
 59 73  1  0
 59 60  1  0
 61 55  1  0
 61 60  1  0
 62 55  2  0
 64 67  1  0
 65 63  1  0
 66 64  1  0
 66 68  1  0
 67 63  1  0
 68 69  1  1
 68 65  1  0
 70 71  2  0
 71 90  1  0
 72 71  1  0
 72 75  1  0
 73 70  1  0
 73 74  1  0
 74 72  2  0
 75 76  1  0
 76 77  2  0
 78 81  1  0
 78 77  1  0
 79 78  2  0
 80 79  1  0
 80 75  2  0
 81 82  1  0
 82 83  1  0
 83 84  2  0
 85 84  1  0
 85 89  1  0
 86 85  2  0
 87 82  2  0
 87 86  1  0
 88 87  1  0
 90 91  1  0
 91 94  1  0
 91 93  1  0
 92 90  2  0
 95 96  1  0
 95 70  1  0
 97 95  1  0
M  ISO  4  10 101  11 101  55 100  67 100
M  END
>  <TORSDO>  (92) 
F 21

>  <SCORE>  (92) 
-13.468

>  <name>  (92) 
92

>  <ligand_id>  (92) 
92

>  <original_smiles>  (92) 
[H]c1c([H])c([H])c2c(c1[H])C([H])([H])C([H])([H])C([H])([H])C2([H])N([H])C(=O)C1([H])N(C(=O)C([H])(N([H])C(=O)C([H])(N([H])C([H])([H])[H])C([H])([H])[H])C(C([H])([H])[H])(C([H])([H])[H])C([H])([H])[H])C([H])([H])c2c([H])c(OC3([H])C([H])([H])C([H])([H])C([H])(C([H])([H])[N+]([H])([H])C([H])([H])C([H])([H])C([H])([H])[N+]4([H])C([H])([H])C([H])([H])N(C(=O)N5C([H])([H])C([H])([H])C([H])([H])C([H])(n6nc(-c7c([H])c([H])c(Oc8c([H])c([H])c(F)c([H])c8F)c([H])c7[H])c(C(=O)N([H])[H])c6N([H])[H])C5([H])[H])C([H])([H])C4([H])[H])C([H])([H])C3([H])[H])c([H])c([H])c2C1([H])[H]

>  <smiles>  (92) 
[H]c1c([H])c([H])c2c(c1[H])C([H])([H])C([H])([H])C([H])([H])C2([H])N([H])C(=O)C1([H])N(C(=O)C([H])(N([H])C(=O)C([H])(N([H])C([H])([H])[H])C([H])([H])[H])C(C([H])([H])[H])(C([H])([H])[H])C([H])([H])[H])C([H])([H])c2c([H])c(OC3([H])C([H])([H])C([H])([H])C([H])(C([H])([H])[N+]([H])([H])C([H])([H])C([H])([H])C([H])([H])[N+]4([H])C([H])([H])C([H])([H])N(C(=O)N5C([H])([H])C([H])([H])C([H])([H])C([H])(n6nc(-c7c([H])c([H])c(Oc8c([H])c([H])c(F)c([H])c8F)c([H])c7[H])c(C(=O)N([H])[H])c6N([H])[H])C5([H])[H])C([H])([H])C4([H])[H])C([H])([H])C3([H])[H])c([H])c([H])c2C1([H])[H]

$$$$
93:0:0
     RDKit          3D

 94102  0  0  1  0  0  0  0  0999 V2000
  -29.4310  -17.8010   20.3490 C   0  0  0  0  0  3  0  0  0  0  0  0
  -28.3140  -19.9680   19.8320 C   0  0  0  0  0  2  0  0  0  0  0  0
  -29.9630  -19.8930   21.6740 C   0  0  0  0  0  2  0  0  0  0  0  0
  -28.9950  -21.2240   19.2720 C   0  0  0  0  0  2  0  0  0  0  0  0
  -30.4900  -21.2910   21.2220 C   0  0  0  0  0  2  0  0  0  0  0  0
  -29.2800  -19.1420   20.5910 N   0  0  0  0  0  0  0  0  0  0  0  0
  -28.7630  -17.2080   19.3350 N   0  0  0  0  0  0  0  0  0  0  0  0
  -29.5570  -22.0750   20.3510 N   0  0  1  0  0  4  0  0  0  0  0  0
  -28.9780  -16.2570   19.0830 H   0  0  0  0  0  0  0  0  0  0  0  0
  -28.1300  -17.7120   18.7320 H   0  0  0  0  0  0  0  0  0  0  0  0
  -28.7740  -22.3570   20.9240 H   0  0  0  0  0  0  0  0  0  0  0  0
  -30.3460  -16.9000   21.1670 C   0  0  0  0  0  2  0  0  0  0  0  0
  -30.6830  -14.4880   20.4850 C   0  0  0  0  0  0  0  0  0  0  0  0
  -30.3730  -12.3530   19.2790 C   0  0  0  0  0  2  0  0  0  0  0  0
  -29.4290  -12.5810   18.0800 C   0  0  0  0  0  2  0  0  0  0  0  0
  -27.9540  -12.4440   18.5120 C   0  0  0  0  0  2  0  0  0  0  0  0
  -27.6250  -13.2640   19.7890 C   0  0  0  0  0  3  0  0  0  0  0  0
  -28.6780  -13.0090   20.8910 C   0  0  0  0  0  2  0  0  0  0  0  0
  -30.0060  -13.3170   20.3280 N   0  0  0  0  0  0  0  0  0  0  0  0
  -31.7980  -14.6910   20.0010 O   0  0  0  0  0  0  0  0  0  0  0  0
  -29.9750  -15.4760   21.0590 N   0  0  0  0  0  0  0  0  0  0  0  0
  -29.0670  -15.2310   21.4190 H   0  0  0  0  0  0  0  0  0  0  0  0
  -25.2240  -13.8820   20.4820 C   0  0  0  0  0  0  0  0  0  0  0  0
  -24.1520  -13.1140   20.8520 C   0  0  0  0  0  0  0  0  0  0  0  0
  -24.6120  -11.7630   20.8330 C   0  0  0  0  0  0  0  0  0  0  0  0
  -26.2680  -12.9990   20.2640 N   0  0  0  0  0  0  0  0  0  0  0  0
  -25.9030  -11.7180   20.5300 N   0  0  0  0  0  0  0  0  0  0  0  0
  -23.8840  -10.5020   21.0300 C   0  0  0  0  0  0  0  0  0  0  0  0
  -24.3190   -9.5370   21.9650 C   0  0  0  0  0  3  0  0  0  0  0  0
  -23.5910   -8.3420   22.1470 C   0  0  0  0  0  3  0  0  0  0  0  0
  -22.4170   -8.1030   21.3950 C   0  0  0  0  0  0  0  0  0  0  0  0
  -22.0030   -9.0570   20.4500 C   0  0  0  0  0  3  0  0  0  0  0  0
  -22.7290  -10.2440   20.2650 C   0  0  0  0  0  3  0  0  0  0  0  0
  -21.6610   -6.9590   21.4890 O   0  0  0  0  0  0  0  0  0  0  0  0
  -21.6160   -6.2170   22.6420 C   0  0  0  0  0  0  0  0  0  0  0  0
  -21.1970   -6.7730   23.8710 C   0  0  0  0  0  3  0  0  0  0  0  0
  -21.1000   -5.9580   25.0160 C   0  0  0  0  0  3  0  0  0  0  0  0
  -21.4140   -4.5870   24.9340 C   0  0  0  0  0  0  0  0  0  0  0  0
  -21.8270   -4.0320   23.7110 C   0  0  0  0  0  3  0  0  0  0  0  0
  -21.9260   -4.8450   22.5670 C   0  0  0  0  0  0  0  0  0  0  0  0
  -22.3040   -4.2990   21.3860 F   0  0  0  0  0  0  0  0  0  0  0  0
  -21.3130   -3.8020   26.0310 F   0  0  0  0  0  0  0  0  0  0  0  0
  -22.7550  -13.5970   21.1190 C   0  0  0  0  0  0  0  0  0  0  0  0
  -22.0230  -12.9050   21.9850 N   0  0  0  0  0  0  0  0  0  0  0  0
  -22.3200  -14.6190   20.5920 O   0  0  0  0  0  0  0  0  0  0  0  0
  -22.3870  -12.0760   22.4330 H   0  0  0  0  0  0  0  0  0  0  0  0
  -21.0860  -13.2080   22.2050 H   0  0  0  0  0  0  0  0  0  0  0  0
  -25.3920  -15.2530   20.2970 N   0  0  0  0  0  0  0  0  0  0  0  0
  -24.6230  -15.9060   20.3960 H   0  0  0  0  0  0  0  0  0  0  0  0
  -26.2470  -15.6950   19.9860 H   0  0  0  0  0  0  0  0  0  0  0  0
  -30.1660  -23.3330   19.8040 C   0  0  0  0  0  2  0  0  0  0  0  0
  -29.7260  -24.6560   20.4910 C   0  0  0  0  0  2  0  0  0  0  0  0
  -28.4330  -25.3120   19.9450 C   0  0  0  0  0  2  0  0  0  0  0  0
  -28.4510  -26.7220   20.2270 O   0  0  0  0  0  0  0  0  0  0  0  0
  -24.6110  -31.8820   23.2400 C   0  0  0  0  0  0  0  0  0  0  0  0
  -27.2680  -27.4330   20.1750 C   0  0  0  0  0  0  0  0  0  0  0  0
  -23.4090  -30.4780   21.5930 C   0  0  0  0  0  3  0  0  0  0  0  0
  -24.8680  -28.9430   20.1710 C   0  0  0  0  0  0  0  0  0  0  0  0
  -25.9360  -30.8410   21.3990 C   0  0  0  0  0  2  0  0  0  0  0  0
  -26.0230  -29.4680   20.7630 C   0  0  0  0  0  0  0  0  0  0  0  0
  -27.2240  -28.7200   20.7600 C   0  0  0  0  0  3  0  0  0  0  0  0
  -26.0960  -26.9290   19.5650 C   0  0  0  0  0  3  0  0  0  0  0  0
  -24.9010  -27.6760   19.5640 C   0  0  0  0  0  3  0  0  0  0  0  0
  -23.6230  -29.8030   20.2130 C   0  0  0  0  0  2  0  0  0  0  0  0
  -24.6710  -31.0820   22.1370 N   0  0  0  0  0  0  0  0  0  0  0  0
  -23.5270  -32.1510   23.7760 O   0  0  0  0  0  0  0  0  0  0  0  0
  -22.7590  -29.4560   22.5540 C   0  0  0  0  0  0  0  0  0  0  0  0
  -21.4340  -29.2770   22.4300 N   0  0  0  0  0  0  0  0  0  0  0  0
  -23.4440  -28.8250   23.3630 O   0  0  0  0  0  0  0  0  0  0  0  0
  -20.9430  -29.8400   21.7500 H   0  0  0  0  0  0  0  0  0  0  0  0
  -18.0540  -28.0920   22.9290 C   0  0  0  0  0  0  0  0  0  0  0  0
  -20.6150  -28.3370   23.1960 C   0  0  0  0  0  3  0  0  0  0  0  0
  -20.7100  -26.9080   22.6120 C   0  0  0  0  0  2  0  0  0  0  0  0
  -19.6040  -26.5960   21.6000 C   0  0  0  0  0  2  0  0  0  0  0  0
  -18.2230  -26.7450   22.2470 C   0  0  0  0  0  2  0  0  0  0  0  0
  -19.1790  -28.8470   23.3590 C   0  0  0  0  0  0  0  0  0  0  0  0
  -18.9690  -30.1090   23.9560 C   0  0  0  0  0  3  0  0  0  0  0  0
  -17.6670  -30.6170   24.1270 C   0  0  0  0  0  3  0  0  0  0  0  0
  -16.5570  -29.8590   23.7120 C   0  0  0  0  0  3  0  0  0  0  0  0
  -16.7530  -28.6000   23.1160 C   0  0  0  0  0  3  0  0  0  0  0  0
  -25.8940  -32.5150   23.8620 C   0  0  0  0  0  3  0  0  0  0  0  0
  -26.4130  -31.7390   25.1340 C   0  0  1  0  0  0  0  0  0  0  0  0
  -25.3230  -31.4920   26.2020 C   0  0  0  0  0  1  0  0  0  0  0  0
  -26.9960  -30.3650   24.7280 C   0  0  0  0  0  1  0  0  0  0  0  0
  -27.5630  -32.5330   25.8000 C   0  0  0  0  0  1  0  0  0  0  0  0
  -25.5820  -33.9100   24.1950 N   0  0  0  0  0  0  0  0  0  0  0  0
  -25.9080  -34.9650   23.4350 C   0  0  0  0  0  0  0  0  0  0  0  0
  -26.5750  -34.8630   22.4010 O   0  0  0  0  0  0  0  0  0  0  0  0
  -24.9930  -34.0640   25.0010 H   0  0  0  0  0  0  0  0  0  0  0  0
  -24.1740  -36.7520   23.0790 C   0  0  0  0  0  1  0  0  0  0  0  0
  -25.4150  -36.3520   23.8930 C   0  0  0  0  0  3  0  0  0  0  0  0
  -27.5480  -37.2430   24.7240 C   0  0  0  0  0  1  0  0  0  0  0  0
  -26.4450  -37.4080   23.7800 N   0  0  0  0  0  0  0  0  0  0  0  0
  -26.0360  -38.3250   23.9280 H   0  0  0  0  0  0  0  0  0  0  0  0
  1  6  1  0
  1 12  1  0
  2  6  1  0
  4  2  1  0
  4  8  1  0
  5  3  1  0
  6  3  1  0
  7  1  1  0
  8 11  1  1
  8  5  1  0
  9  7  1  0
 10  7  1  0
 13 21  1  0
 14 19  1  0
 15 16  1  0
 15 14  1  0
 17 16  1  0
 17 26  1  0
 17 18  1  0
 19 13  1  0
 19 18  1  0
 20 13  2  0
 21 12  1  0
 21 22  1  0
 23 24  2  0
 24 43  1  0
 25 24  1  0
 25 28  1  0
 26 23  1  0
 26 27  1  0
 27 25  2  0
 28 29  1  0
 29 30  2  0
 31 34  1  0
 31 30  1  0
 32 31  2  0
 33 32  1  0
 33 28  2  0
 34 35  1  0
 35 36  1  0
 36 37  2  0
 38 37  1  0
 38 42  1  0
 39 38  2  0
 40 35  2  0
 40 39  1  0
 41 40  1  0
 43 44  1  0
 44 47  1  0
 44 46  1  0
 45 43  2  0
 48 49  1  0
 48 23  1  0
 50 48  1  0
 51  8  1  0
 51 52  1  0
 53 54  1  0
 53 52  1  0
 55 66  2  0
 56 54  1  0
 56 61  1  0
 57 65  1  0
 57 67  1  0
 58 64  1  0
 58 60  1  0
 59 65  1  0
 60 59  1  0
 61 60  2  0
 62 56  2  0
 63 62  1  0
 63 58  2  0
 64 57  1  0
 65 55  1  0
 67 69  2  0
 68 67  1  0
 70 68  1  0
 71 80  2  0
 71 76  1  0
 72 68  1  0
 72 76  1  0
 73 72  1  0
 74 75  1  0
 74 73  1  0
 75 71  1  0
 76 77  2  0
 77 78  1  0
 79 78  2  0
 80 79  1  0
 81 55  1  0
 81 86  1  0
 81 82  1  0
 82 85  1  1
 82 83  1  0
 84 82  1  0
 86 89  1  0
 87 91  1  0
 87 86  1  0
 88 87  2  0
 91 90  1  0
 93 91  1  0
 93 94  1  0
 93 92  1  0
M  ISO  4  13 100  21 100  53 101  54 101
M  END
>  <TORSDO>  (93) 
F 20

>  <SCORE>  (93) 
-13.891

>  <name>  (93) 
93

>  <ligand_id>  (93) 
93

>  <original_smiles>  (93) 
[H]c1c([H])c([H])c2c(c1[H])C([H])([H])C([H])([H])C([H])([H])C2([H])N([H])C(=O)C1([H])N(C(=O)C([H])(N([H])C(=O)C([H])(N([H])C([H])([H])[H])C([H])([H])[H])C(C([H])([H])[H])(C([H])([H])[H])C([H])([H])[H])C([H])([H])c2c([H])c(OC([H])([H])C([H])([H])C([H])([H])[N+]3([H])C([H])([H])C([H])([H])N(C(=[N+]([H])[H])C([H])([H])N([H])C(=O)N4C([H])([H])C([H])([H])C([H])([H])C([H])(n5nc(-c6c([H])c([H])c(Oc7c([H])c([H])c(F)c([H])c7F)c([H])c6[H])c(C(=O)N([H])[H])c5N([H])[H])C4([H])[H])C([H])([H])C3([H])[H])c([H])c([H])c2C1([H])[H]

>  <smiles>  (93) 
[H]c1c([H])c([H])c2c(c1[H])C([H])([H])C([H])([H])C([H])([H])C2([H])N([H])C(=O)C1([H])N(C(=O)C([H])(N([H])C(=O)C([H])(N([H])C([H])([H])[H])C([H])([H])[H])C(C([H])([H])[H])(C([H])([H])[H])C([H])([H])[H])C([H])([H])c2c([H])c(OC([H])([H])C([H])([H])C([H])([H])[N+]3([H])C([H])([H])C([H])([H])N(C(=[N+]([H])[H])C([H])([H])N([H])C(=O)N4C([H])([H])C([H])([H])C([H])([H])C([H])(n5nc(-c6c([H])c([H])c(Oc7c([H])c([H])c(F)c([H])c7F)c([H])c6[H])c(C(=O)N([H])[H])c5N([H])[H])C4([H])[H])C([H])([H])C3([H])[H])c([H])c([H])c2C1([H])[H]

$$$$
94:0:0
     RDKit          3D

 94103  0  0  1  0  0  0  0  0999 V2000
  -26.9840  -22.5090   21.3640 C   0  0  0  0  0  2  0  0  0  0  0  0
  -28.4740  -22.1480   21.4980 C   0  0  0  0  0  2  0  0  0  0  0  0
  -26.7720  -22.8270   19.8760 C   0  0  0  0  0  2  0  0  0  0  0  0
  -29.0100  -22.0150   20.0590 C   0  0  0  0  0  3  0  0  0  0  0  0
  -28.1260  -22.9370   19.2780 N   0  0  2  0  0  4  0  0  0  0  0  0
  -28.0830  -22.4860   18.3720 H   0  0  0  0  0  0  0  0  0  0  0  0
  -28.9020  -20.5390   19.5440 C   0  0  0  0  0  0  0  0  0  0  0  0
  -29.5390  -19.5440   20.2110 N   0  0  0  0  0  0  0  0  0  0  0  0
  -28.1940  -20.3040   18.5600 O   0  0  0  0  0  0  0  0  0  0  0  0
  -30.1430  -19.8210   20.9750 H   0  0  0  0  0  0  0  0  0  0  0  0
  -30.7830  -14.6850   19.9310 C   0  0  0  0  0  0  0  0  0  0  0  0
  -30.4900  -12.4800   18.8300 C   0  0  0  0  0  2  0  0  0  0  0  0
  -29.4620  -12.5990   17.6820 C   0  0  0  0  0  2  0  0  0  0  0  0
  -28.0210  -12.4410   18.2070 C   0  0  0  0  0  2  0  0  0  0  0  0
  -27.7470  -13.3050   19.4670 C   0  0  0  0  0  3  0  0  0  0  0  0
  -28.8730  -13.0770   20.5010 C   0  0  0  0  0  2  0  0  0  0  0  0
  -30.1330  -13.4780   19.8590 N   0  0  0  0  0  0  0  0  0  0  0  0
  -31.8980  -14.8220   19.4110 O   0  0  0  0  0  0  0  0  0  0  0  0
  -28.8810  -17.5240   21.4940 C   0  0  0  0  0  2  0  0  0  0  0  0
  -29.1040  -16.0160   21.3430 C   0  0  0  0  0  2  0  0  0  0  0  0
  -30.3500  -17.1480   19.6640 C   0  0  0  0  0  2  0  0  0  0  0  0
  -29.2180  -18.0990   20.1240 C   0  0  0  0  0  3  0  0  0  0  0  0
  -30.0530  -15.8110   20.2370 N   0  0  0  0  0  0  0  0  0  0  0  0
  -25.4140  -13.9350   20.3540 C   0  0  0  0  0  0  0  0  0  0  0  0
  -24.3620  -13.1710   20.7780 C   0  0  0  0  0  0  0  0  0  0  0  0
  -24.7960  -11.8140   20.6710 C   0  0  0  0  0  0  0  0  0  0  0  0
  -26.4250  -13.0440   20.0290 N   0  0  0  0  0  0  0  0  0  0  0  0
  -26.0590  -11.7610   20.2720 N   0  0  0  0  0  0  0  0  0  0  0  0
  -24.0640  -10.5590   20.8710 C   0  0  0  0  0  0  0  0  0  0  0  0
  -24.4870   -9.5970   21.8160 C   0  0  0  0  0  3  0  0  0  0  0  0
  -23.7570   -8.4040   21.9990 C   0  0  0  0  0  3  0  0  0  0  0  0
  -22.5870   -8.1630   21.2390 C   0  0  0  0  0  0  0  0  0  0  0  0
  -22.1840   -9.1120   20.2830 C   0  0  0  0  0  3  0  0  0  0  0  0
  -22.9160  -10.2960   20.0970 C   0  0  0  0  0  3  0  0  0  0  0  0
  -21.8290   -7.0220   21.3330 O   0  0  0  0  0  0  0  0  0  0  0  0
  -21.7040   -6.3370   22.5160 C   0  0  0  0  0  0  0  0  0  0  0  0
  -21.1810   -6.9470   23.6770 C   0  0  0  0  0  3  0  0  0  0  0  0
  -21.0030   -6.1870   24.8510 C   0  0  0  0  0  3  0  0  0  0  0  0
  -21.3360   -4.8180   24.8620 C   0  0  0  0  0  0  0  0  0  0  0  0
  -21.8510   -4.2100   23.7040 C   0  0  0  0  0  3  0  0  0  0  0  0
  -22.0300   -4.9670   22.5330 C   0  0  0  0  0  0  0  0  0  0  0  0
  -22.5070   -4.3700   21.4140 F   0  0  0  0  0  0  0  0  0  0  0  0
  -21.1580   -4.0860   25.9860 F   0  0  0  0  0  0  0  0  0  0  0  0
  -22.9960  -13.6600   21.1650 C   0  0  0  0  0  0  0  0  0  0  0  0
  -22.3300  -12.9640   22.0780 N   0  0  0  0  0  0  0  0  0  0  0  0
  -22.5310  -14.6960   20.6900 O   0  0  0  0  0  0  0  0  0  0  0  0
  -22.7220  -12.1260   22.4840 H   0  0  0  0  0  0  0  0  0  0  0  0
  -21.4180  -13.2740   22.3800 H   0  0  0  0  0  0  0  0  0  0  0  0
  -25.5890  -15.3070   20.1970 N   0  0  0  0  0  0  0  0  0  0  0  0
  -24.8330  -15.9660   20.3440 H   0  0  0  0  0  0  0  0  0  0  0  0
  -26.4050  -15.7300   19.7770 H   0  0  0  0  0  0  0  0  0  0  0  0
  -28.5930  -24.3560   19.0400 C   0  0  0  0  0  2  0  0  0  0  0  0
  -28.3230  -25.4090   20.1660 C   0  0  0  0  0  2  0  0  0  0  0  0
  -28.3980  -26.7900   19.7230 O   0  0  0  0  0  0  0  0  0  0  0  0
  -24.6310  -31.7690   23.2030 C   0  0  0  0  0  0  0  0  0  0  0  0
  -27.2300  -27.5320   19.7910 C   0  0  0  0  0  0  0  0  0  0  0  0
  -23.3920  -30.4580   21.5110 C   0  0  0  0  0  3  0  0  0  0  0  0
  -24.8210  -29.0210   19.9580 C   0  0  0  0  0  0  0  0  0  0  0  0
  -25.9090  -30.8500   21.2690 C   0  0  0  0  0  2  0  0  0  0  0  0
  -25.9920  -29.5200   20.5430 C   0  0  0  0  0  0  0  0  0  0  0  0
  -27.2010  -28.7860   20.4520 C   0  0  0  0  0  3  0  0  0  0  0  0
  -26.0420  -27.0590   19.1920 C   0  0  0  0  0  3  0  0  0  0  0  0
  -24.8430  -27.7930   19.2750 C   0  0  0  0  0  3  0  0  0  0  0  0
  -23.5700  -29.8610   20.0880 C   0  0  0  0  0  2  0  0  0  0  0  0
  -24.6640  -31.0360   22.0530 N   0  0  0  0  0  0  0  0  0  0  0  0
  -23.5620  -32.0030   23.7850 O   0  0  0  0  0  0  0  0  0  0  0  0
  -22.7720  -29.3800   22.4280 C   0  0  0  0  0  0  0  0  0  0  0  0
  -21.4520  -29.1740   22.3000 N   0  0  0  0  0  0  0  0  0  0  0  0
  -23.4770  -28.7330   23.2080 O   0  0  0  0  0  0  0  0  0  0  0  0
  -20.9460  -29.7470   21.6420 H   0  0  0  0  0  0  0  0  0  0  0  0
  -18.1220  -27.8490   22.7410 C   0  0  0  0  0  0  0  0  0  0  0  0
  -20.6680  -28.1810   23.0310 C   0  0  0  0  0  3  0  0  0  0  0  0
  -20.8190  -26.7780   22.3980 C   0  0  0  0  0  2  0  0  0  0  0  0
  -19.7280  -26.4520   21.3720 C   0  0  0  0  0  2  0  0  0  0  0  0
  -18.3420  -26.5310   22.0190 C   0  0  0  0  0  2  0  0  0  0  0  0
  -19.2140  -28.6310   23.2030 C   0  0  0  0  0  0  0  0  0  0  0  0
  -18.9530  -29.8640   23.8400 C   0  0  0  0  0  3  0  0  0  0  0  0
  -17.6320  -30.3100   24.0280 C   0  0  0  0  0  3  0  0  0  0  0  0
  -16.5550  -29.5240   23.5840 C   0  0  0  0  0  3  0  0  0  0  0  0
  -16.8010  -28.2970   22.9440 C   0  0  0  0  0  3  0  0  0  0  0  0
  -25.9280  -32.3760   23.8240 C   0  0  0  0  0  3  0  0  0  0  0  0
  -26.4900  -31.5360   25.0360 C   0  0  1  0  0  0  0  0  0  0  0  0
  -25.4300  -31.2190   26.1160 C   0  0  0  0  0  1  0  0  0  0  0  0
  -27.0770  -30.1920   24.5440 C   0  0  0  0  0  1  0  0  0  0  0  0
  -27.6450  -32.3050   25.7180 C   0  0  0  0  0  1  0  0  0  0  0  0
  -25.6180  -33.7500   24.2430 N   0  0  0  0  0  0  0  0  0  0  0  0
  -25.9360  -34.8490   23.5440 C   0  0  0  0  0  0  0  0  0  0  0  0
  -26.5930  -34.8110   22.5000 O   0  0  0  0  0  0  0  0  0  0  0  0
  -25.0290  -33.8510   25.0570 H   0  0  0  0  0  0  0  0  0  0  0  0
  -24.2070  -36.6600   23.3050 C   0  0  0  0  0  1  0  0  0  0  0  0
  -25.4470  -36.2050   24.0910 C   0  0  0  0  0  3  0  0  0  0  0  0
  -27.5790  -37.0340   24.9850 C   0  0  0  0  0  1  0  0  0  0  0  0
  -26.4800  -37.2640   24.0500 N   0  0  0  0  0  0  0  0  0  0  0  0
  -26.0740  -38.1720   24.2570 H   0  0  0  0  0  0  0  0  0  0  0  0
  1  2  1  0
  3  1  1  0
  4  7  1  0
  4  2  1  0
  5  3  1  0
  5  4  1  0
  5  6  1  6
  7  8  1  0
  8 10  1  0
  9  7  2  0
 11 23  1  0
 12 17  1  0
 13 14  1  0
 13 12  1  0
 15 14  1  0
 15 27  1  0
 15 16  1  0
 17 11  1  0
 17 16  1  0
 18 11  2  0
 20 19  1  0
 21 22  1  0
 21 23  1  0
 22  8  1  0
 22 19  1  0
 23 20  1  0
 24 25  2  0
 25 44  1  0
 26 25  1  0
 26 29  1  0
 27 28  1  0
 27 24  1  0
 28 26  2  0
 29 30  1  0
 30 31  2  0
 32 35  1  0
 32 31  1  0
 33 32  2  0
 34 33  1  0
 34 29  2  0
 35 36  1  0
 36 41  2  0
 36 37  1  0
 37 38  2  0
 38 39  1  0
 39 43  1  0
 40 39  2  0
 41 40  1  0
 42 41  1  0
 44 45  1  0
 45 48  1  0
 45 47  1  0
 46 44  2  0
 49 50  1  0
 49 24  1  0
 51 49  1  0
 52  5  1  0
 52 53  1  0
 54 56  1  0
 54 53  1  0
 55 66  2  0
 56 61  1  0
 57 65  1  0
 57 67  1  0
 58 64  1  0
 58 60  1  0
 59 65  1  0
 60 59  1  0
 61 60  2  0
 62 63  1  0
 62 56  2  0
 63 58  2  0
 64 57  1  0
 65 55  1  0
 67 69  2  0
 68 67  1  0
 70 68  1  0
 71 80  2  0
 71 76  1  0
 72 68  1  0
 72 76  1  0
 73 72  1  0
 74 75  1  0
 74 73  1  0
 75 71  1  0
 76 77  2  0
 77 78  1  0
 79 78  2  0
 80 79  1  0
 81 55  1  0
 81 86  1  0
 81 82  1  0
 82 85  1  1
 82 83  1  0
 84 82  1  0
 86 89  1  0
 87 91  1  0
 87 86  1  0
 88 87  2  0
 91 90  1  0
 93 91  1  0
 93 94  1  0
 93 92  1  0
M  ISO  4  11 100  23 100  53 101  54 101
M  END
>  <TORSDO>  (94) 
F 19

>  <SCORE>  (94) 
-12.926

>  <name>  (94) 
94

>  <ligand_id>  (94) 
94

>  <original_smiles>  (94) 
[H]c1c([H])c([H])c2c(c1[H])C([H])([H])C([H])([H])C([H])([H])C2([H])N([H])C(=O)C1([H])N(C(=O)C([H])(N([H])C(=O)C([H])(N([H])C([H])([H])[H])C([H])([H])[H])C(C([H])([H])[H])(C([H])([H])[H])C([H])([H])[H])C([H])([H])c2c([H])c(OC([H])([H])C([H])([H])[N+]3([H])C([H])([H])C([H])([H])C([H])([H])C3([H])C(=O)N([H])C3([H])C([H])([H])N(C(=O)N4C([H])([H])C([H])([H])C([H])([H])C([H])(n5nc(-c6c([H])c([H])c(Oc7c([H])c([H])c(F)c([H])c7F)c([H])c6[H])c(C(=O)N([H])[H])c5N([H])[H])C4([H])[H])C([H])([H])C3([H])[H])c([H])c([H])c2C1([H])[H]

>  <smiles>  (94) 
[H]c1c([H])c([H])c2c(c1[H])C([H])([H])C([H])([H])C([H])([H])C2([H])N([H])C(=O)C1([H])N(C(=O)C([H])(N([H])C(=O)C([H])(N([H])C([H])([H])[H])C([H])([H])[H])C(C([H])([H])[H])(C([H])([H])[H])C([H])([H])[H])C([H])([H])c2c([H])c(OC([H])([H])C([H])([H])[N+]3([H])C([H])([H])C([H])([H])C([H])([H])C3([H])C(=O)N([H])C3([H])C([H])([H])N(C(=O)N4C([H])([H])C([H])([H])C([H])([H])C([H])(n5nc(-c6c([H])c([H])c(Oc7c([H])c([H])c(F)c([H])c7F)c([H])c6[H])c(C(=O)N([H])[H])c5N([H])[H])C4([H])[H])C([H])([H])C3([H])[H])c([H])c([H])c2C1([H])[H]

$$$$
95:0:0
     RDKit          3D

 96100  0  0  1  0  0  0  0  0999 V2000
  -24.9250  -20.0440   18.5340 C   0  0  0  0  0  2  0  0  0  0  0  0
  -25.5000  -18.6830   18.1550 C   0  0  0  0  0  2  0  0  0  0  0  0
  -25.7370  -20.4720   19.7560 C   0  0  0  0  0  2  0  0  0  0  0  0
  -26.9940  -18.7060   18.5140 C   0  0  0  0  0  3  0  0  0  0  0  0
  -27.1490  -20.2640   19.3800 N   0  0  1  0  0  4  0  0  0  0  0  0
  -27.6230  -20.0270   20.2420 H   0  0  0  0  0  0  0  0  0  0  0  0
  -27.3670  -16.7970   18.7320 C   0  0  0  0  0  1  0  0  0  0  0  0
  -26.7880  -14.9240   18.2990 C   0  0  0  0  0  1  0  0  0  0  0  0
  -27.3900  -13.1630   18.1450 N   0  0  0  0  0  4  0  0  0  0  0  0
  -26.4990  -12.6910   18.0930 H   0  0  0  0  0  0  0  0  0  0  0  0
  -27.7620  -13.1080   17.2100 H   0  0  0  0  0  0  0  0  0  0  0  0
  -32.0240  -13.5540   21.3650 C   0  0  2  0  0  0  0  0  0  0  0  0
  -32.2730  -12.7440   18.9400 C   0  0  0  0  0  2  0  0  0  0  0  0
  -31.2950  -13.8990   17.8980 C   0  0  0  0  0  2  0  0  0  0  0  0
  -29.5470  -14.5420   18.3850 C   0  0  0  0  0  1  0  0  0  0  0  0
  -28.7380  -13.7830   20.1900 C   0  0  0  0  0  1  0  0  0  0  0  0
  -30.6250  -12.0390   20.7620 C   0  0  0  0  0  1  0  0  0  0  0  0
  -31.9810  -12.4560   20.4900 N   0  0  0  0  0  0  0  0  0  0  0  0
  -33.0480  -14.2940   21.2950 O   0  0  0  0  0  1  0  0  0  0  0  0
  -29.7880  -12.3040   18.7140 C   0  0  0  0  0  1  0  0  0  0  0  0
  -28.4250  -11.5520   21.1910 C   0  0  0  0  0 15  0  0  0  0  0  0
  -30.8750  -14.3390   20.2480 C   0  0  0  0  0  2  0  0  0  0  0  0
  -29.2850  -12.9810   22.4140 C   0  0  0  0  0  1  0  0  0  0  0  0
  -28.3050  -11.8240   19.0830 C   0  0  0  0  0  2  0  0  0  0  0  0
  -30.7240  -13.9850   21.8190 N   0  0  0  0  0  0  0  0  0  0  0  0
  -26.1410  -14.3450   21.0840 C   0  0  0  0  0  0  0  0  0  0  0  0
  -25.0370  -13.5370   21.3110 C   0  0  0  0  0  0  0  0  0  0  0  0
  -25.3610  -12.1890   21.1210 C   0  0  0  0  0  0  0  0  0  0  0  0
  -27.1200  -13.5580   20.6220 N   0  0  0  0  0  0  0  0  0  0  0  0
  -26.2800  -12.4370   20.3100 N   0  0  0  0  0  0  0  0  0  0  0  0
  -24.7150  -10.8390   21.1270 C   0  0  0  0  0  0  0  0  0  0  0  0
  -25.0490   -9.8220   22.0650 C   0  0  0  0  0  3  0  0  0  0  0  0
  -24.3210   -8.6070   22.1240 C   0  0  0  0  0  3  0  0  0  0  0  0
  -23.2420   -8.3860   21.2350 C   0  0  0  0  0  0  0  0  0  0  0  0
  -22.9730   -9.3550   20.2510 C   0  0  0  0  0  3  0  0  0  0  0  0
  -23.7090  -10.5550   20.1870 C   0  0  0  0  0  3  0  0  0  0  0  0
  -22.4480   -7.2600   21.2280 O   0  0  0  0  0  0  0  0  0  0  0  0
  -22.0390   -6.6370   22.3840 C   0  0  0  0  0  0  0  0  0  0  0  0
  -21.3310   -7.3180   23.4000 C   0  0  0  0  0  3  0  0  0  0  0  0
  -20.8740   -6.6170   24.5340 C   0  0  0  0  0  3  0  0  0  0  0  0
  -21.1180   -5.2340   24.6570 C   0  0  0  0  0  0  0  0  0  0  0  0
  -21.8120   -4.5510   23.6430 C   0  0  0  0  0  3  0  0  0  0  0  0
  -22.2660   -5.2500   22.5090 C   0  0  0  0  0  0  0  0  0  0  0  0
  -22.9100   -4.5790   21.5230 F   0  0  0  0  0  0  0  0  0  0  0  0
  -20.6770   -4.5610   25.7440 F   0  0  0  0  0  0  0  0  0  0  0  0
  -23.6590  -13.9920   21.4500 C   0  0  0  0  0  0  0  0  0  0  0  0
  -22.8710  -13.2480   22.2100 N   0  0  0  0  0  0  0  0  0  0  0  0
  -23.2920  -15.0020   20.8640 O   0  0  0  0  0  0  0  0  0  0  0  0
  -23.2150  -12.4270   22.6840 H   0  0  0  0  0  0  0  0  0  0  0  0
  -21.9050  -13.5130   22.3360 H   0  0  0  0  0  0  0  0  0  0  0  0
  -26.3910  -15.6940   21.1180 N   0  0  0  0  0  0  0  0  0  0  0  0
  -25.6860  -16.3570   21.4210 H   0  0  0  0  0  0  0  0  0  0  0  0
  -27.3010  -16.1140   20.9950 H   0  0  0  0  0  0  0  0  0  0  0  0
  -27.7300  -21.9150   19.0450 C   0  0  0  0  0  3  0  0  0  0  0  0
  -27.4880  -23.7080   19.7950 C   0  0  0  0  0  3  0  0  0  0  0  0
  -28.1440  -25.3720   19.8990 O   0  0  0  0  0  0  0  0  0  0  0  0
  -25.0980  -31.6240   23.5540 C   0  0  0  0  0  0  0  0  0  0  0  0
  -27.4300  -26.7200   20.0920 C   0  0  0  0  0  0  0  0  0  0  0  0
  -23.9480  -30.3850   21.7950 C   0  0  0  0  0  3  0  0  0  0  0  0
  -25.3690  -28.8810   20.2510 C   0  0  0  0  0  0  0  0  0  0  0  0
  -26.5380  -30.4540   21.7600 C   0  0  0  0  0  2  0  0  0  0  0  0
  -26.5620  -29.0930   20.9510 C   0  0  0  0  0  0  0  0  0  0  0  0
  -27.6080  -28.0290   20.8510 C   0  0  0  0  0  3  0  0  0  0  0  0
  -26.2520  -26.7660   19.3550 C   0  0  0  0  0  3  0  0  0  0  0  0
  -25.2590  -27.7550   19.4360 C   0  0  0  0  0  3  0  0  0  0  0  0
  -24.2060  -29.8590   20.3640 C   0  0  0  0  0  2  0  0  0  0  0  0
  -25.2230  -30.8530   22.4210 N   0  0  0  0  0  0  0  0  0  0  0  0
  -23.9880  -31.8910   24.0480 O   0  0  0  0  0  0  0  0  0  0  0  0
  -23.2170  -29.3080   22.6410 C   0  0  0  0  0  0  0  0  0  0  0  0
  -21.9070  -29.1060   22.4050 N   0  0  0  0  0  0  0  0  0  0  0  0
  -23.8380  -28.6630   23.4900 O   0  0  0  0  0  0  0  0  0  0  0  0
  -21.4560  -29.6790   21.7060 H   0  0  0  0  0  0  0  0  0  0  0  0
  -18.5600  -27.7030   22.5460 C   0  0  0  0  0  0  0  0  0  0  0  0
  -21.0630  -28.1030   23.0670 C   0  0  0  0  0  3  0  0  0  0  0  0
  -21.3020  -26.6960   22.4720 C   0  0  0  0  0  2  0  0  0  0  0  0
  -20.3250  -26.3430   21.3470 C   0  0  0  0  0  2  0  0  0  0  0  0
  -18.8810  -26.3900   21.8540 C   0  0  0  0  0  2  0  0  0  0  0  0
  -19.5860  -28.5150   23.1010 C   0  0  0  0  0  0  0  0  0  0  0  0
  -19.2320  -29.7400   23.7080 C   0  0  0  0  0  3  0  0  0  0  0  0
  -17.8880  -30.1560   23.7640 C   0  0  0  0  0  3  0  0  0  0  0  0
  -16.8770  -29.3420   23.2230 C   0  0  0  0  0  3  0  0  0  0  0  0
  -17.2130  -28.1170   22.6210 C   0  0  0  0  0  3  0  0  0  0  0  0
  -26.3370  -32.2260   24.2790 C   0  0  0  0  0  3  0  0  0  0  0  0
  -26.0030  -33.6080   24.6830 N   0  0  0  0  0  0  0  0  0  0  0  0
  -26.4080  -34.7180   24.0530 C   0  0  0  0  0  0  0  0  0  0  0  0
  -27.1610  -34.6890   23.0780 O   0  0  0  0  0  0  0  0  0  0  0  0
  -25.3420  -33.7030   25.4390 H   0  0  0  0  0  0  0  0  0  0  0  0
  -24.7600  -36.5940   23.6970 C   0  0  0  0  0  1  0  0  0  0  0  0
  -25.9010  -36.0770   24.5870 C   0  0  0  0  0  3  0  0  0  0  0  0
  -27.9510  -36.8270   25.7150 C   0  0  0  0  0  1  0  0  0  0  0  0
  -26.9600  -37.1070   24.6810 N   0  0  0  0  0  0  0  0  0  0  0  0
  -26.5570  -38.0220   24.8670 H   0  0  0  0  0  0  0  0  0  0  0  0
  -26.7690  -31.3940   25.5500 C   0  0  1  0  0  0  0  0  0  0  0  0
  -25.6130  -31.1160   26.5420 C   0  0  0  0  0  1  0  0  0  0  0  0
  -27.3650  -30.0290   25.1420 C   0  0  0  0  0  1  0  0  0  0  0  0
  -27.8810  -32.1490   26.3130 C   0  0  0  0  0  1  0  0  0  0  0  0
  1  3  1  0
  2  4  1  0
  2  1  1  0
  4  7  1  0
  4  5  1  0
  5  3  1  0
  5  6  1  1
  9  8  1  0
  9 24  1  0
 10  9  1  0
 11  9  1  0
 12 19  1  6
 12 25  1  0
 13 18  1  0
 14 15  1  0
 14 13  1  0
 16 29  1  0
 18 17  1  0
 18 12  1  0
 20 24  1  0
 22 12  1  0
 22 25  1  0
 25 23  1  0
 26 51  1  0
 26 27  2  0
 27 46  1  0
 28 31  1  0
 28 27  1  0
 29 26  1  0
 30 29  1  0
 30 28  2  0
 31 32  1  0
 32 33  2  0
 34 33  1  0
 35 34  2  0
 36 35  1  0
 36 31  2  0
 37 34  1  0
 37 38  1  0
 38 43  2  0
 38 39  1  0
 39 40  2  0
 40 41  1  0
 41 45  1  0
 42 41  2  0
 43 42  1  0
 44 43  1  0
 46 47  1  0
 47 50  1  0
 47 49  1  0
 48 46  2  0
 51 52  1  0
 53 51  1  0
 54  5  1  0
 54 55  2  0
 55 56  1  0
 56 58  1  0
 57 68  2  0
 58 63  1  0
 59 67  1  0
 59 69  1  0
 60 66  1  0
 60 62  1  0
 61 67  1  0
 62 61  1  0
 63 62  2  0
 64 65  1  0
 64 58  2  0
 65 60  2  0
 66 59  1  0
 67 57  1  0
 69 71  2  0
 70 69  1  0
 72 70  1  0
 73 82  2  0
 73 78  1  0
 74 70  1  0
 74 78  1  0
 75 74  1  0
 76 77  1  0
 76 75  1  0
 77 73  1  0
 78 79  2  0
 79 80  1  0
 81 80  2  0
 82 81  1  0
 83 57  1  0
 83 84  1  0
 83 93  1  0
 84 87  1  0
 85 89  1  0
 85 84  1  0
 86 85  2  0
 89 88  1  0
 89 91  1  0
 91 92  1  0
 91 90  1  0
 93 96  1  1
 93 94  1  0
 95 93  1  0
M  ISO  4  12 100  25 100  55 101  56 101
M  END
>  <TORSDO>  (95) 
F 21

>  <SCORE>  (95) 
-4.885

>  <name>  (95) 
95

>  <ligand_id>  (95) 
95

>  <original_smiles>  (95) 
[H]c1c([H])c([H])c2c(c1[H])C([H])([H])C([H])([H])C([H])([H])C2([H])N([H])C(=O)C1([H])N(C(=O)C([H])(N([H])C(=O)C([H])(N([H])C([H])([H])[H])C([H])([H])[H])C(C([H])([H])[H])(C([H])([H])[H])C([H])([H])[H])C([H])([H])c2c([H])c(OC([H])([H])C([H])([H])[N+]3([H])C([H])([H])C([H])([H])C([H])([H])C3([H])C([H])([H])C([H])([H])[N+]([H])([H])C3([H])C([H])([H])C([H])([H])N(C(=O)N4C([H])([H])C([H])([H])C([H])([H])C([H])(n5nc(-c6c([H])c([H])c(Oc7c([H])c([H])c(F)c([H])c7F)c([H])c6[H])c(C(=O)N([H])[H])c5N([H])[H])C4([H])[H])C([H])([H])C3([H])[H])c([H])c([H])c2C1([H])[H]

>  <smiles>  (95) 
[H]c1c([H])c([H])c2c(c1[H])C([H])([H])C([H])([H])C([H])([H])C2([H])N([H])C(=O)C1([H])N(C(=O)C([H])(N([H])C(=O)C([H])(N([H])C([H])([H])[H])C([H])([H])[H])C(C([H])([H])[H])(C([H])([H])[H])C([H])([H])[H])C([H])([H])c2c([H])c(OC([H])([H])C([H])([H])[N+]3([H])C([H])([H])C([H])([H])C([H])([H])C3([H])C([H])([H])C([H])([H])[N+]([H])([H])C3([H])C([H])([H])C([H])([H])N(C(=O)N4C([H])([H])C([H])([H])C([H])([H])C([H])(n5nc(-c6c([H])c([H])c(Oc7c([H])c([H])c(F)c([H])c7F)c([H])c6[H])c(C(=O)N([H])[H])c5N([H])[H])C4([H])[H])C([H])([H])C3([H])[H])c([H])c([H])c2C1([H])[H]

$$$$
96:0:0
     RDKit          3D

 94102  0  0  1  0  0  0  0  0999 V2000
  -29.2090  -19.2110   19.9170 C   0  0  0  0  0  3  0  0  0  0  0  0
  -29.5930  -20.6780   20.4100 N   0  0  0  0  0  4  0  0  0  0  0  0
  -29.3350  -20.7390   21.3780 H   0  0  0  0  0  0  0  0  0  0  0  0
  -30.6000  -20.7090   20.4000 H   0  0  0  0  0  0  0  0  0  0  0  0
  -29.1250  -22.0410   19.7480 C   0  0  0  0  0  2  0  0  0  0  0  0
  -29.1320  -23.5340   20.5370 C   0  0  0  0  0  3  0  0  0  0  0  0
  -28.7510  -24.9970   19.7960 C   0  0  0  0  0  3  0  0  0  0  0  0
  -28.5920  -26.4100   20.4300 O   0  0  0  0  0  0  0  0  0  0  0  0
  -24.5150  -31.9330   23.1100 C   0  0  0  0  0  0  0  0  0  0  0  0
  -27.4660  -27.2980   20.2830 C   0  0  0  0  0  0  0  0  0  0  0  0
  -23.4630  -30.4380   21.4590 C   0  0  0  0  0  3  0  0  0  0  0  0
  -25.0470  -28.9090   20.1390 C   0  0  0  0  0  0  0  0  0  0  0  0
  -26.0060  -30.8320   21.3970 C   0  0  0  0  0  2  0  0  0  0  0  0
  -26.1790  -29.4310   20.7800 C   0  0  0  0  0  0  0  0  0  0  0  0
  -27.3850  -28.6410   20.8360 C   0  0  0  0  0  3  0  0  0  0  0  0
  -26.2990  -26.8710   19.6080 C   0  0  0  0  0  3  0  0  0  0  0  0
  -25.1190  -27.6460   19.5400 C   0  0  0  0  0  3  0  0  0  0  0  0
  -23.7720  -29.7400   20.1130 C   0  0  0  0  0  2  0  0  0  0  0  0
  -24.6800  -31.0890   22.0450 N   0  0  0  0  0  0  0  0  0  0  0  0
  -23.3930  -32.1740   23.5840 O   0  0  0  0  0  0  0  0  0  0  0  0
  -22.7970  -29.4160   22.4150 C   0  0  0  0  0  0  0  0  0  0  0  0
  -21.4780  -29.1970   22.2560 N   0  0  0  0  0  0  0  0  0  0  0  0
  -23.4660  -28.8230   23.2650 O   0  0  0  0  0  0  0  0  0  0  0  0
  -20.9930  -29.7230   21.5440 H   0  0  0  0  0  0  0  0  0  0  0  0
  -18.1190  -27.9440   22.7340 C   0  0  0  0  0  0  0  0  0  0  0  0
  -20.6700  -28.2430   23.0170 C   0  0  0  0  0  3  0  0  0  0  0  0
  -20.8000  -26.8170   22.4350 C   0  0  0  0  0  2  0  0  0  0  0  0
  -19.7120  -26.4790   21.4120 C   0  0  0  0  0  2  0  0  0  0  0  0
  -18.3230  -26.5990   22.0500 C   0  0  0  0  0  2  0  0  0  0  0  0
  -19.2210  -28.7200   23.1740 C   0  0  0  0  0  0  0  0  0  0  0  0
  -18.9790  -29.9760   23.7790 C   0  0  0  0  0  3  0  0  0  0  0  0
  -17.6650  -30.4500   23.9460 C   0  0  0  0  0  3  0  0  0  0  0  0
  -16.5760  -29.6700   23.5240 C   0  0  0  0  0  3  0  0  0  0  0  0
  -16.8030  -28.4180   22.9230 C   0  0  0  0  0  3  0  0  0  0  0  0
  -25.7250  -32.6500   23.7770 C   0  0  0  0  0  3  0  0  0  0  0  0
  -25.3330  -34.0420   24.0500 N   0  0  0  0  0  0  0  0  0  0  0  0
  -25.6660  -35.0920   23.2880 C   0  0  0  0  0  0  0  0  0  0  0  0
  -26.4000  -34.9980   22.3010 O   0  0  0  0  0  0  0  0  0  0  0  0
  -24.6820  -34.1890   24.8070 H   0  0  0  0  0  0  0  0  0  0  0  0
  -23.9010  -36.8140   22.7730 C   0  0  0  0  0  1  0  0  0  0  0  0
  -25.0930  -36.4690   23.6830 C   0  0  0  0  0  3  0  0  0  0  0  0
  -27.1190  -37.4500   24.6630 C   0  0  0  0  0  1  0  0  0  0  0  0
  -26.0900  -37.5610   23.6310 N   0  0  0  0  0  0  0  0  0  0  0  0
  -25.6390  -38.4650   23.7360 H   0  0  0  0  0  0  0  0  0  0  0  0
  -26.2130  -31.9480   25.1050 C   0  0  1  0  0  0  0  0  0  0  0  0
  -25.0720  -31.6660   26.1130 C   0  0  0  0  0  1  0  0  0  0  0  0
  -26.8970  -30.5980   24.7890 C   0  0  0  0  0  1  0  0  0  0  0  0
  -27.2780  -32.8220   25.8080 C   0  0  0  0  0  1  0  0  0  0  0  0
  -27.6420  -19.0940   19.8750 C   0  0  0  0  0  2  0  0  0  0  0  0
  -24.9940  -21.4850   17.3490 C   0  0  0  0  0  2  0  0  0  0  0  0
  -26.5140  -21.5960   17.1750 C   0  0  0  0  0  2  0  0  0  0  0  0
  -24.6480  -20.0590   17.7840 C   0  0  0  0  0  2  0  0  0  0  0  0
  -27.2720  -21.0920   18.4270 C   0  0  0  0  0  2  0  0  0  0  0  0
  -25.4880  -19.6460   19.0110 C   0  0  0  0  0  2  0  0  0  0  0  0
  -26.9300  -19.6850   18.7140 N   0  0  0  0  0  0  0  0  0  0  0  0
  -30.0000  -17.8700   20.6250 C   0  0  0  0  0  2  0  0  0  0  0  0
  -30.6460  -15.1840   20.3060 C   0  0  0  0  0  0  0  0  0  0  0  0
  -30.6060  -12.8700   19.2790 C   0  0  0  0  0  2  0  0  0  0  0  0
  -29.6570  -12.8780   18.0600 C   0  0  0  0  0  2  0  0  0  0  0  0
  -28.1920  -12.6470   18.4890 C   0  0  0  0  0  2  0  0  0  0  0  0
  -27.7920  -13.4880   19.7280 C   0  0  0  0  0  3  0  0  0  0  0  0
  -28.8640  -13.4430   20.8350 C   0  0  0  0  0  2  0  0  0  0  0  0
  -30.1060  -13.9080   20.2160 N   0  0  0  0  0  0  0  0  0  0  0  0
  -31.8660  -15.2950   20.1310 O   0  0  0  0  0  0  0  0  0  0  0  0
  -29.7850  -16.3170   20.3760 N   0  0  0  0  0  0  0  0  0  0  0  0
  -28.8070  -16.0560   20.3780 H   0  0  0  0  0  0  0  0  0  0  0  0
  -25.4070  -13.9920   20.4940 C   0  0  0  0  0  0  0  0  0  0  0  0
  -24.3590  -13.1950   20.8500 C   0  0  0  0  0  0  0  0  0  0  0  0
  -24.8590  -11.8590   20.8170 C   0  0  0  0  0  0  0  0  0  0  0  0
  -26.4680  -13.1460   20.2310 N   0  0  0  0  0  0  0  0  0  0  0  0
  -26.1520  -11.8550   20.5020 N   0  0  0  0  0  0  0  0  0  0  0  0
  -24.1630  -10.5820   21.0020 C   0  0  0  0  0  0  0  0  0  0  0  0
  -24.5820   -9.6540   21.9770 C   0  0  0  0  0  3  0  0  0  0  0  0
  -23.8840   -8.4400   22.1530 C   0  0  0  0  0  3  0  0  0  0  0  0
  -22.7560   -8.1460   21.3470 C   0  0  0  0  0  0  0  0  0  0  0  0
  -22.3550   -9.0670   20.3650 C   0  0  0  0  0  3  0  0  0  0  0  0
  -23.0540  -10.2740   20.1880 C   0  0  0  0  0  3  0  0  0  0  0  0
  -22.0340   -6.9800   21.4260 O   0  0  0  0  0  0  0  0  0  0  0  0
  -21.9200   -6.2870   22.6050 C   0  0  0  0  0  0  0  0  0  0  0  0
  -21.3680   -6.8750   23.7640 C   0  0  0  0  0  3  0  0  0  0  0  0
  -21.2000   -6.1040   24.9320 C   0  0  0  0  0  3  0  0  0  0  0  0
  -21.5780   -4.7470   24.9420 C   0  0  0  0  0  0  0  0  0  0  0  0
  -22.1220   -4.1600   23.7840 C   0  0  0  0  0  3  0  0  0  0  0  0
  -22.2900   -4.9280   22.6210 C   0  0  0  0  0  0  0  0  0  0  0  0
  -22.7940   -4.3540   21.5040 F   0  0  0  0  0  0  0  0  0  0  0  0
  -21.4100   -4.0040   26.0590 F   0  0  0  0  0  0  0  0  0  0  0  0
  -22.9480  -13.6430   21.1050 C   0  0  0  0  0  0  0  0  0  0  0  0
  -22.2310  -12.9500   21.9820 N   0  0  0  0  0  0  0  0  0  0  0  0
  -22.4890  -14.6490   20.5620 O   0  0  0  0  0  0  0  0  0  0  0  0
  -22.6130  -12.1420   22.4500 H   0  0  0  0  0  0  0  0  0  0  0  0
  -21.2840  -13.2370   22.1940 H   0  0  0  0  0  0  0  0  0  0  0  0
  -25.5360  -15.3590   20.3450 N   0  0  0  0  0  0  0  0  0  0  0  0
  -24.7050  -15.9330   20.4040 H   0  0  0  0  0  0  0  0  0  0  0  0
  -26.2960  -15.7920   19.8370 H   0  0  0  0  0  0  0  0  0  0  0  0
  1 49  1  0
  1  2  1  0
  1 56  1  0
  2  3  1  0
  4  2  1  0
  5  2  1  0
  5  6  1  0
  7  8  1  0
  7  6  2  0
  9 20  2  0
 10  8  1  0
 10 15  1  0
 11 19  1  0
 11 21  1  0
 12 14  1  0
 13 19  1  0
 14 15  2  0
 14 13  1  0
 16 10  2  0
 17 16  1  0
 17 12  2  0
 18 12  1  0
 18 11  1  0
 19  9  1  0
 21 23  2  0
 22 21  1  0
 24 22  1  0
 25 34  2  0
 25 30  1  0
 26 22  1  0
 26 30  1  0
 27 26  1  0
 28 29  1  0
 28 27  1  0
 29 25  1  0
 30 31  2  0
 31 32  1  0
 33 32  2  0
 34 33  1  0
 35  9  1  0
 35 36  1  0
 35 45  1  0
 36 39  1  0
 37 41  1  0
 37 36  1  0
 38 37  2  0
 41 40  1  0
 43 41  1  0
 43 44  1  0
 43 42  1  0
 45 48  1  1
 45 46  1  0
 47 45  1  0
 50 52  1  0
 51 50  1  0
 51 53  1  0
 52 54  1  0
 53 55  1  0
 55 54  1  0
 55 49  1  0
 57 65  1  0
 58 63  1  0
 59 60  1  0
 59 58  1  0
 61 60  1  0
 61 70  1  0
 61 62  1  0
 63 57  1  0
 63 62  1  0
 64 57  2  0
 65 66  1  0
 65 56  1  0
 67 68  2  0
 68 87  1  0
 69 68  1  0
 69 72  1  0
 70 67  1  0
 70 71  1  0
 71 69  2  0
 72 73  1  0
 73 74  2  0
 75 78  1  0
 75 74  1  0
 76 75  2  0
 77 76  1  0
 77 72  2  0
 78 79  1  0
 79 84  2  0
 79 80  1  0
 80 81  2  0
 81 82  1  0
 82 86  1  0
 83 82  2  0
 84 83  1  0
 85 84  1  0
 87 88  1  0
 88 91  1  0
 88 90  1  0
 89 87  2  0
 92 93  1  0
 92 67  1  0
 94 92  1  0
M  ISO  4   7 101   8 101  57 100  65 100
M  END
>  <TORSDO>  (96) 
F 23

>  <SCORE>  (96) 
-11.685

>  <name>  (96) 
96

>  <ligand_id>  (96) 
96

>  <original_smiles>  (96) 
[H]c1c([H])c([H])c2c(c1[H])C([H])([H])C([H])([H])C([H])([H])C2([H])N([H])C(=O)C1([H])N(C(=O)C([H])(N([H])C(=O)C([H])(N([H])C([H])([H])[H])C([H])([H])[H])C(C([H])([H])[H])(C([H])([H])[H])C([H])([H])[H])C([H])([H])c2c([H])c(OC([H])([H])C([H])([H])C([H])([H])[N+]([H])([H])C([H])(C([H])([H])N([H])C(=O)N3C([H])([H])C([H])([H])C([H])([H])C([H])(n4nc(-c5c([H])c([H])c(Oc6c([H])c([H])c(F)c([H])c6F)c([H])c5[H])c(C(=O)N([H])[H])c4N([H])[H])C3([H])[H])C([H])([H])N3C([H])([H])C([H])([H])C([H])([H])C([H])([H])C3([H])[H])c([H])c([H])c2C1([H])[H]

>  <smiles>  (96) 
[H]c1c([H])c([H])c2c(c1[H])C([H])([H])C([H])([H])C([H])([H])C2([H])N([H])C(=O)C1([H])N(C(=O)C([H])(N([H])C(=O)C([H])(N([H])C([H])([H])[H])C([H])([H])[H])C(C([H])([H])[H])(C([H])([H])[H])C([H])([H])[H])C([H])([H])c2c([H])c(OC([H])([H])C([H])([H])C([H])([H])[N+]([H])([H])C([H])(C([H])([H])N([H])C(=O)N3C([H])([H])C([H])([H])C([H])([H])C([H])(n4nc(-c5c([H])c([H])c(Oc6c([H])c([H])c(F)c([H])c6F)c([H])c5[H])c(C(=O)N([H])[H])c4N([H])[H])C3([H])[H])C([H])([H])N3C([H])([H])C([H])([H])C([H])([H])C([H])([H])C3([H])[H])c([H])c([H])c2C1([H])[H]

$$$$
97:0:0
     RDKit          3D

101106  0  0  1  0  0  0  0  0999 V2000
  -29.9230  -24.6310   20.2170 C   0  0  0  0  0 15  0  0  0  0  0  0
  -26.8040  -24.0220   21.4620 C   0  0  0  0  0 15  0  0  0  0  0  0
  -29.9730  -26.3550   21.3480 C   0  0  0  0  0  1  0  0  0  0  0  0
  -26.9750  -25.7180   22.6040 C   0  0  0  0  0  1  0  0  0  0  0  0
  -28.3630  -23.3080   20.3900 C   0  0  0  0  0  1  0  0  0  0  0  0
  -28.5850  -26.6610   22.5460 N   0  0  2  0  0  4  0  0  0  0  0  0
  -28.8260  -25.6980   22.6160 H   0  0  0  0  0  0  0  0  0  0  0  0
  -28.5620  -21.4860   20.7620 C   0  0  0  0  0  2  0  0  0  0  0  0
  -30.4320  -15.3910   20.4010 C   0  0  0  0  0  0  0  0  0  0  0  0
  -30.3290  -12.9590   19.4370 C   0  0  0  0  0  2  0  0  0  0  0  0
  -29.4270  -12.6380   18.2300 C   0  0  0  0  0  2  0  0  0  0  0  0
  -27.9920  -12.3650   18.6910 C   0  0  0  0  0  2  0  0  0  0  0  0
  -27.5210  -13.3730   19.7650 C   0  0  0  0  0  3  0  0  0  0  0  0
  -28.5590  -13.6300   20.8760 C   0  0  0  0  0  2  0  0  0  0  0  0
  -29.7610  -14.1440   20.2040 N   0  0  0  0  0  0  0  0  0  0  0  0
  -31.6560  -15.1950   20.3610 O   0  0  0  0  0  0  0  0  0  0  0  0
  -29.5690  -17.8810   18.0600 C   0  0  0  0  0  2  0  0  0  0  0  0
  -28.2990  -17.9150   18.9360 C   0  0  0  0  0  2  0  0  0  0  0  0
  -31.5610  -18.6430   19.6170 C   0  0  0  0  0  2  0  0  0  0  0  0
  -30.8790  -19.9000   20.2760 C   0  0  0  0  0  3  0  0  0  0  0  0
  -29.3320  -19.9190   20.1640 C   0  0  0  0  0  3  0  0  0  0  0  0
  -30.6950  -17.4830   19.0390 C   0  0  0  0  0  3  0  0  0  0  0  0
  -28.9450  -18.1240   20.3080 C   0  0  0  0  0  3  0  0  0  0  0  0
  -29.9760  -16.8150   20.1130 N   0  0  0  0  0  0  0  0  0  0  0  0
  -25.1650  -13.9280   20.5160 C   0  0  0  0  0  0  0  0  0  0  0  0
  -24.0990  -13.1490   20.8570 C   0  0  0  0  0  0  0  0  0  0  0  0
  -24.5670  -11.7980   20.8290 C   0  0  0  0  0  0  0  0  0  0  0  0
  -26.2100  -13.0520   20.2820 N   0  0  0  0  0  0  0  0  0  0  0  0
  -25.8620  -11.7640   20.5440 N   0  0  0  0  0  0  0  0  0  0  0  0
  -23.8430  -10.5370   21.0100 C   0  0  0  0  0  0  0  0  0  0  0  0
  -24.2610   -9.5780   21.9610 C   0  0  0  0  0  3  0  0  0  0  0  0
  -23.5450   -8.3720   22.1270 C   0  0  0  0  0  3  0  0  0  0  0  0
  -22.3930   -8.1240   21.3480 C   0  0  0  0  0  0  0  0  0  0  0  0
  -21.9870   -9.0650   20.3890 C   0  0  0  0  0  3  0  0  0  0  0  0
  -22.7040  -10.2600   20.2200 C   0  0  0  0  0  3  0  0  0  0  0  0
  -21.6430   -6.9730   21.4260 O   0  0  0  0  0  0  0  0  0  0  0  0
  -21.5670   -6.2400   22.5790 C   0  0  0  0  0  0  0  0  0  0  0  0
  -21.0880   -6.8000   23.7820 C   0  0  0  0  0  3  0  0  0  0  0  0
  -20.9570   -5.9950   24.9330 C   0  0  0  0  0  3  0  0  0  0  0  0
  -21.3010   -4.6290   24.8770 C   0  0  0  0  0  0  0  0  0  0  0  0
  -21.7670   -4.0670   23.6740 C   0  0  0  0  0  3  0  0  0  0  0  0
  -21.8950   -4.8730   22.5270 C   0  0  0  0  0  0  0  0  0  0  0  0
  -22.3310   -4.3260   21.3660 F   0  0  0  0  0  0  0  0  0  0  0  0
  -21.1630   -3.8480   25.9710 F   0  0  0  0  0  0  0  0  0  0  0  0
  -22.7000  -13.6190   21.0980 C   0  0  0  0  0  0  0  0  0  0  0  0
  -21.9670  -12.9110   21.9480 N   0  0  0  0  0  0  0  0  0  0  0  0
  -22.2700  -14.6460   20.5780 O   0  0  0  0  0  0  0  0  0  0  0  0
  -22.3450  -12.0730   22.3770 H   0  0  0  0  0  0  0  0  0  0  0  0
  -21.0220  -13.1870   22.1720 H   0  0  0  0  0  0  0  0  0  0  0  0
  -25.3450  -15.2940   20.3380 N   0  0  0  0  0  0  0  0  0  0  0  0
  -24.5960  -15.9780   20.4160 H   0  0  0  0  0  0  0  0  0  0  0  0
  -26.2210  -15.6960   20.0210 H   0  0  0  0  0  0  0  0  0  0  0  0
  -31.4600  -21.2010   19.6920 C   0  0  0  0  0  2  0  0  0  0  0  0
  -32.9010  -21.3730   19.9290 N   0  0  0  0  0  4  0  0  0  0  0  0
  -33.3900  -20.5690   19.5800 H   0  0  0  0  0  0  0  0  0  0  0  0
  -33.1080  -21.4840   20.9060 H   0  0  0  0  0  0  0  0  0  0  0  0
  -33.2060  -22.1950   19.4450 H   0  0  0  0  0  0  0  0  0  0  0  0
  -29.1250  -26.6500   23.8610 C   0  0  0  0  0  2  0  0  0  0  0  0
  -29.5570  -25.1930   23.7290 C   0  0  0  0  0  2  0  0  0  0  0  0
  -29.1300  -24.5360   22.3030 C   0  0  0  0  0  1  0  0  0  0  0  0
  -28.3070  -25.7850   20.5120 O   0  0  0  0  0  1  0  0  0  0  0  0
  -24.6830  -31.8610   23.1150 C   0  0  0  0  0  0  0  0  0  0  0  0
  -27.4600  -27.0690   20.1960 C   0  0  0  0  0  0  0  0  0  0  0  0
  -23.5690  -30.4380   21.4360 C   0  0  0  0  0  3  0  0  0  0  0  0
  -25.1070  -28.9000   20.0170 C   0  0  0  0  0  0  0  0  0  0  0  0
  -26.1240  -30.7430   21.3490 C   0  0  0  0  0  2  0  0  0  0  0  0
  -26.2560  -29.3410   20.6830 C   0  0  0  0  0  0  0  0  0  0  0  0
  -27.4240  -28.4650   20.7230 C   0  0  0  0  0  3  0  0  0  0  0  0
  -26.3030  -26.8220   19.4150 C   0  0  0  0  0  3  0  0  0  0  0  0
  -25.1630  -27.6700   19.3410 C   0  0  0  0  0  3  0  0  0  0  0  0
  -23.8470  -29.7670   20.0590 C   0  0  0  0  0  2  0  0  0  0  0  0
  -24.8120  -31.0430   22.0210 N   0  0  0  0  0  0  0  0  0  0  0  0
  -23.5770  -32.1200   23.6140 O   0  0  0  0  0  0  0  0  0  0  0  0
  -22.8850  -29.4260   22.3870 C   0  0  0  0  0  0  0  0  0  0  0  0
  -21.5540  -29.2700   22.2730 N   0  0  0  0  0  0  0  0  0  0  0  0
  -23.5570  -28.7790   23.1960 O   0  0  0  0  0  0  0  0  0  0  0  0
  -21.0650  -29.8560   21.6100 H   0  0  0  0  0  0  0  0  0  0  0  0
  -18.1640  -28.0970   22.8400 C   0  0  0  0  0  0  0  0  0  0  0  0
  -20.7360  -28.3110   23.0240 C   0  0  0  0  0  3  0  0  0  0  0  0
  -20.7900  -26.9060   22.3830 C   0  0  0  0  0  2  0  0  0  0  0  0
  -19.6510  -26.6510   21.3910 C   0  0  0  0  0  2  0  0  0  0  0  0
  -18.2940  -26.7830   22.0870 C   0  0  0  0  0  2  0  0  0  0  0  0
  -19.3090  -28.8260   23.2650 C   0  0  0  0  0  0  0  0  0  0  0  0
  -19.1310  -30.0560   23.9320 C   0  0  0  0  0  3  0  0  0  0  0  0
  -17.8410  -30.5640   24.1710 C   0  0  0  0  0  3  0  0  0  0  0  0
  -16.7110  -29.8390   23.7540 C   0  0  0  0  0  3  0  0  0  0  0  0
  -16.8750  -28.6060   23.0980 C   0  0  0  0  0  3  0  0  0  0  0  0
  -25.9250  -32.5320   23.7810 C   0  0  0  0  0  3  0  0  0  0  0  0
  -25.5660  -33.9250   24.1050 N   0  0  0  0  0  0  0  0  0  0  0  0
  -25.9090  -34.9990   23.3770 C   0  0  0  0  0  0  0  0  0  0  0  0
  -26.6210  -34.9210   22.3750 O   0  0  0  0  0  0  0  0  0  0  0  0
  -24.9250  -34.0540   24.8730 H   0  0  0  0  0  0  0  0  0  0  0  0
  -24.1690  -36.7850   22.9840 C   0  0  0  0  0  1  0  0  0  0  0  0
  -25.3850  -36.3790   23.8330 C   0  0  0  0  0  3  0  0  0  0  0  0
  -27.4710  -37.3010   24.7520 C   0  0  0  0  0  1  0  0  0  0  0  0
  -26.4060  -37.4490   23.7640 N   0  0  0  0  0  0  0  0  0  0  0  0
  -25.9780  -38.3620   23.8900 H   0  0  0  0  0  0  0  0  0  0  0  0
  -26.4140  -31.7760   25.0810 C   0  0  1  0  0  0  0  0  0  0  0  0
  -25.2930  -31.5290   26.1190 C   0  0  0  0  0  1  0  0  0  0  0  0
  -27.0340  -30.4020   24.7280 C   0  0  0  0  0  1  0  0  0  0  0  0
  -27.5210  -32.6030   25.7710 C   0  0  0  0  0  1  0  0  0  0  0  0
  3  6  1  0
  5  8  1  0
  6  4  1  0
  6  7  1  1
  6 58  1  0
 10 15  1  0
 11 12  1  0
 11 10  1  0
 13 12  1  0
 13 28  1  0
 13 14  1  0
 15  9  1  0
 15 14  1  0
 16  9  2  0
 17 18  1  0
 19 20  1  0
 20 53  1  0
 21 20  1  0
 21 23  1  0
 21  8  1  0
 22 17  1  0
 22 19  1  0
 22 24  1  0
 23 18  1  0
 24 23  1  0
 24  9  1  0
 25 26  2  0
 26 45  1  0
 27 26  1  0
 27 30  1  0
 28 25  1  0
 28 29  1  0
 29 27  2  0
 30 31  1  0
 31 32  2  0
 33 36  1  0
 33 32  1  0
 34 33  2  0
 35 34  1  0
 35 30  2  0
 36 37  1  0
 37 38  1  0
 38 39  2  0
 40 39  1  0
 40 44  1  0
 41 40  2  0
 42 37  2  0
 42 41  1  0
 43 42  1  0
 45 46  1  0
 46 49  1  0
 46 48  1  0
 47 45  2  0
 50 51  1  0
 50 25  1  0
 52 50  1  0
 53 54  1  0
 54 56  1  0
 55 54  1  0
 57 54  1  0
 59 58  1  0
 60 59  1  0
 62 73  2  0
 63 61  1  0
 63 68  1  0
 64 72  1  0
 64 74  1  0
 65 71  1  0
 65 67  1  0
 66 72  1  0
 67 68  2  0
 67 66  1  0
 69 63  2  0
 70 69  1  0
 70 65  2  0
 71 64  1  0
 72 62  1  0
 74 76  2  0
 75 74  1  0
 77 75  1  0
 78 87  2  0
 78 83  1  0
 79 75  1  0
 79 83  1  0
 80 79  1  0
 81 82  1  0
 81 80  1  0
 82 78  1  0
 83 84  2  0
 84 85  1  0
 86 85  2  0
 87 86  1  0
 88 62  1  0
 88 89  1  0
 88 98  1  0
 89 92  1  0
 90 94  1  0
 90 89  1  0
 91 90  2  0
 94 93  1  0
 96 94  1  0
 96 97  1  0
 96 95  1  0
 98101  1  1
 98 99  1  0
100 98  1  0
M  ISO  4   9 100  24 100  60 101  61 101
M  END
>  <TORSDO>  (97) 
F 22

>  <SCORE>  (97) 
-15.662

>  <name>  (97) 
97

>  <ligand_id>  (97) 
97

>  <original_smiles>  (97) 
[H]c1c([H])c([H])c2c(c1[H])C([H])([H])C([H])([H])C([H])([H])C2([H])N([H])C(=O)C1([H])N(C(=O)C([H])(N([H])C(=O)C([H])(N([H])C([H])([H])[H])C([H])([H])[H])C(C([H])([H])[H])(C([H])([H])[H])C([H])([H])[H])C([H])([H])c2c([H])c(OC([H])([H])C([H])([H])C([H])([H])[N+]3([H])C([H])([H])C([H])([H])C([H])(C([H])([H])C4([H])C5([H])N(C(=O)N6C([H])([H])C([H])([H])C([H])([H])C([H])(n7nc(-c8c([H])c([H])c(Oc9c([H])c([H])c(F)c([H])c9F)c([H])c8[H])c(C(=O)N([H])[H])c7N([H])[H])C6([H])[H])C([H])(C([H])([H])C5([H])[H])C([H])([H])C4([H])C([H])([H])[N+]([H])([H])[H])C([H])([H])C3([H])[H])c([H])c([H])c2C1([H])[H]

>  <smiles>  (97) 
[H]c1c([H])c([H])c2c(c1[H])C([H])([H])C([H])([H])C([H])([H])C2([H])N([H])C(=O)C1([H])N(C(=O)C([H])(N([H])C(=O)C([H])(N([H])C([H])([H])[H])C([H])([H])[H])C(C([H])([H])[H])(C([H])([H])[H])C([H])([H])[H])C([H])([H])c2c([H])c(OC([H])([H])C([H])([H])C([H])([H])[N+]3([H])C([H])([H])C([H])([H])C([H])(C([H])([H])C4([H])C5([H])N(C(=O)N6C([H])([H])C([H])([H])C([H])([H])C([H])(n7nc(-c8c([H])c([H])c(Oc9c([H])c([H])c(F)c([H])c9F)c([H])c8[H])c(C(=O)N([H])[H])c7N([H])[H])C6([H])[H])C([H])(C([H])([H])C5([H])[H])C([H])([H])C4([H])C([H])([H])[N+]([H])([H])[H])C([H])([H])C3([H])[H])c([H])c([H])c2C1([H])[H]

$$$$
98:0:0
     RDKit          3D

105113  0  0  1  0  0  0  0  0999 V2000
  -27.9800  -21.1610   18.1080 C   0  0  0  0  0  2  0  0  0  0  0  0
  -28.0790  -22.4430   18.9370 C   0  0  0  0  0  3  0  0  0  0  0  0
  -31.3550  -24.0290   18.3260 C   0  0  0  0  0  2  0  0  0  0  0  0
  -30.6240  -25.2130   18.9760 C   0  0  0  0  0  2  0  0  0  0  0  0
  -30.2660  -23.0260   17.9290 C   0  0  0  0  0  2  0  0  0  0  0  0
  -29.1380  -24.8140   19.0460 C   0  0  0  0  0  3  0  0  0  0  0  0
  -29.1020  -23.3410   18.7690 N   0  0  0  0  0  0  0  0  0  0  0  0
  -27.0540  -22.6930   19.7690 N   0  0  0  0  0  0  0  0  0  0  0  0
  -26.2250  -22.1180   19.8050 H   0  0  0  0  0  0  0  0  0  0  0  0
  -27.1240  -23.4600   20.4390 H   0  0  0  0  0  0  0  0  0  0  0  0
  -28.4390  -25.4160   20.2950 C   0  0  0  0  0  0  0  0  0  0  0  0
  -27.8890  -24.7740   21.1960 O   0  0  0  0  0  0  0  0  0  0  0  0
  -28.4240  -26.7850   20.2110 O   0  0  0  0  0  0  0  0  0  0  0  0
  -24.6180  -32.0030   23.3160 C   0  0  0  0  0  0  0  0  0  0  0  0
  -27.2420  -27.4990   20.2890 C   0  0  0  0  0  0  0  0  0  0  0  0
  -23.4040  -30.5770   21.7040 C   0  0  0  0  0  3  0  0  0  0  0  0
  -24.8470  -29.0120   20.3050 C   0  0  0  0  0  0  0  0  0  0  0  0
  -25.9310  -30.9250   21.4910 C   0  0  0  0  0  2  0  0  0  0  0  0
  -26.0110  -29.5420   20.8770 C   0  0  0  0  0  0  0  0  0  0  0  0
  -27.2120  -28.7910   20.8670 C   0  0  0  0  0  3  0  0  0  0  0  0
  -26.0490  -26.9820   19.7280 C   0  0  0  0  0  3  0  0  0  0  0  0
  -24.8600  -27.7290   19.7350 C   0  0  0  0  0  3  0  0  0  0  0  0
  -23.6070  -29.8750   20.3350 C   0  0  0  0  0  2  0  0  0  0  0  0
  -24.6690  -31.1840   22.2280 N   0  0  0  0  0  0  0  0  0  0  0  0
  -23.5380  -32.2840   23.8560 O   0  0  0  0  0  0  0  0  0  0  0  0
  -22.7550  -29.5710   22.6820 C   0  0  0  0  0  0  0  0  0  0  0  0
  -21.4480  -29.3160   22.5030 N   0  0  0  0  0  0  0  0  0  0  0  0
  -23.4260  -29.0210   23.5590 O   0  0  0  0  0  0  0  0  0  0  0  0
  -20.9670  -29.8080   21.7620 H   0  0  0  0  0  0  0  0  0  0  0  0
  -18.1370  -27.9130   22.8420 C   0  0  0  0  0  0  0  0  0  0  0  0
  -20.6410  -28.3790   23.2830 C   0  0  0  0  0  3  0  0  0  0  0  0
  -20.8890  -26.9240   22.8270 C   0  0  0  0  0  2  0  0  0  0  0  0
  -19.8950  -26.4480   21.7630 C   0  0  0  0  0  2  0  0  0  0  0  0
  -18.4590  -26.5380   22.2880 C   0  0  0  0  0  2  0  0  0  0  0  0
  -19.1630  -28.7840   23.2960 C   0  0  0  0  0  0  0  0  0  0  0  0
  -18.8110  -30.0670   23.7680 C   0  0  0  0  0  3  0  0  0  0  0  0
  -17.4660  -30.4820   23.7950 C   0  0  0  0  0  3  0  0  0  0  0  0
  -16.4530  -29.6100   23.3620 C   0  0  0  0  0  3  0  0  0  0  0  0
  -16.7890  -28.3270   22.8900 C   0  0  0  0  0  3  0  0  0  0  0  0
  -25.9070  -32.6430   23.9180 C   0  0  0  0  0  3  0  0  0  0  0  0
  -25.5960  -34.0400   24.2430 N   0  0  0  0  0  0  0  0  0  0  0  0
  -25.9120  -35.0880   23.4710 C   0  0  0  0  0  0  0  0  0  0  0  0
  -26.5690  -34.9800   22.4320 O   0  0  0  0  0  0  0  0  0  0  0  0
  -25.0090  -34.1970   25.0490 H   0  0  0  0  0  0  0  0  0  0  0  0
  -24.1580  -36.8560   23.1350 C   0  0  0  0  0  1  0  0  0  0  0  0
  -25.4220  -36.4760   23.9230 C   0  0  0  0  0  3  0  0  0  0  0  0
  -27.5690  -37.3850   24.6890 C   0  0  0  0  0  1  0  0  0  0  0  0
  -26.4400  -37.5390   23.7750 N   0  0  0  0  0  0  0  0  0  0  0  0
  -26.0310  -38.4550   23.9300 H   0  0  0  0  0  0  0  0  0  0  0  0
  -26.4410  -31.8820   25.1930 C   0  0  1  0  0  0  0  0  0  0  0  0
  -25.3490  -31.6170   26.2550 C   0  0  0  0  0  1  0  0  0  0  0  0
  -27.0600  -30.5210   24.7990 C   0  0  0  0  0  1  0  0  0  0  0  0
  -27.5690  -32.7040   25.8600 C   0  0  0  0  0  1  0  0  0  0  0  0
  -28.6710  -19.9000   18.5600 N   0  0  1  0  0  4  0  0  0  0  0  0
  -29.6190  -20.1650   18.7790 H   0  0  0  0  0  0  0  0  0  0  0  0
  -28.1210  -19.3010   19.8130 C   0  0  0  0  0  2  0  0  0  0  0  0
  -28.7060  -17.9150   20.2510 C   0  0  0  0  0  2  0  0  0  0  0  0
  -30.2370  -17.8310   20.4540 C   0  0  0  0  0  2  0  0  0  0  0  0
  -30.6960  -16.7000   21.4090 C   0  0  0  0  0  2  0  0  0  0  0  0
  -30.7740  -14.3800   20.4400 C   0  0  0  0  0  0  0  0  0  0  0  0
  -30.4540  -12.1990   19.3280 C   0  0  0  0  0  2  0  0  0  0  0  0
  -29.5160  -12.3770   18.1180 C   0  0  0  0  0  2  0  0  0  0  0  0
  -28.0400  -12.2540   18.5500 C   0  0  0  0  0  2  0  0  0  0  0  0
  -27.7060  -13.1300   19.7880 C   0  0  0  0  0  3  0  0  0  0  0  0
  -28.7580  -12.9330   20.9030 C   0  0  0  0  0  2  0  0  0  0  0  0
  -30.0850  -13.2140   20.3270 N   0  0  0  0  0  0  0  0  0  0  0  0
  -31.8740  -14.5670   19.9090 O   0  0  0  0  0  0  0  0  0  0  0  0
  -30.1460  -15.3700   21.1040 N   0  0  0  0  0  0  0  0  0  0  0  0
  -29.2420  -15.1420   21.4930 H   0  0  0  0  0  0  0  0  0  0  0  0
  -25.3220  -13.7750   20.5230 C   0  0  0  0  0  0  0  0  0  0  0  0
  -24.2430  -13.0210   20.8980 C   0  0  0  0  0  0  0  0  0  0  0  0
  -24.6780  -11.6620   20.8520 C   0  0  0  0  0  0  0  0  0  0  0  0
  -26.3480  -12.8780   20.2760 N   0  0  0  0  0  0  0  0  0  0  0  0
  -25.9650  -11.6000   20.5300 N   0  0  0  0  0  0  0  0  0  0  0  0
  -23.9290  -10.4130   21.0430 C   0  0  0  0  0  0  0  0  0  0  0  0
  -24.3510   -9.4320   21.9680 C   0  0  0  0  0  3  0  0  0  0  0  0
  -23.6040   -8.2470   22.1460 C   0  0  0  0  0  3  0  0  0  0  0  0
  -22.4210   -8.0350   21.4000 C   0  0  0  0  0  0  0  0  0  0  0  0
  -22.0180   -9.0050   20.4650 C   0  0  0  0  0  3  0  0  0  0  0  0
  -22.7650  -10.1810   20.2850 C   0  0  0  0  0  3  0  0  0  0  0  0
  -21.6470   -6.9030   21.4860 O   0  0  0  0  0  0  0  0  0  0  0  0
  -21.5900   -6.1570   22.6360 C   0  0  0  0  0  0  0  0  0  0  0  0
  -21.1830   -6.7140   23.8670 C   0  0  0  0  0  3  0  0  0  0  0  0
  -21.0710   -5.8940   25.0080 C   0  0  0  0  0  3  0  0  0  0  0  0
  -21.3570   -4.5190   24.9180 C   0  0  0  0  0  0  0  0  0  0  0  0
  -21.7570   -3.9620   23.6910 C   0  0  0  0  0  3  0  0  0  0  0  0
  -21.8720   -4.7790   22.5530 C   0  0  0  0  0  0  0  0  0  0  0  0
  -22.2370   -4.2330   21.3680 F   0  0  0  0  0  0  0  0  0  0  0  0
  -21.2440   -3.7290   26.0120 F   0  0  0  0  0  0  0  0  0  0  0  0
  -22.8580  -13.5260   21.1880 C   0  0  0  0  0  0  0  0  0  0  0  0
  -22.1250  -12.8440   22.0610 N   0  0  0  0  0  0  0  0  0  0  0  0
  -22.4350  -14.5620   20.6760 O   0  0  0  0  0  0  0  0  0  0  0  0
  -22.4800  -12.0090   22.5020 H   0  0  0  0  0  0  0  0  0  0  0  0
  -21.1950  -13.1650   22.2940 H   0  0  0  0  0  0  0  0  0  0  0  0
  -25.5090  -15.1430   20.3520 N   0  0  0  0  0  0  0  0  0  0  0  0
  -24.7510  -15.8030   20.4780 H   0  0  0  0  0  0  0  0  0  0  0  0
  -26.3710  -15.5730   20.0470 H   0  0  0  0  0  0  0  0  0  0  0  0
  -28.7600  -18.9340   17.4150 C   0  0  0  0  0  2  0  0  0  0  0  0
  -30.1350  -18.9300   16.7160 C   0  0  0  0  0  2  0  0  0  0  0  0
  -30.0500  -18.4560   15.2510 C   0  0  0  0  0  2  0  0  0  0  0  0
  -31.3550  -18.6970   14.4640 C   0  0  0  0  0  2  0  0  0  0  0  0
  -31.1840  -18.4930   13.0150 N   0  0  0  0  0  4  0  0  0  0  0  0
  -30.9200  -17.5470   12.8020 H   0  0  0  0  0  0  0  0  0  0  0  0
  -32.0490  -18.6890   12.5410 H   0  0  0  0  0  0  0  0  0  0  0  0
  -30.4870  -19.1150   12.6460 H   0  0  0  0  0  0  0  0  0  0  0  0
  1 54  1  0
  2  1  1  0
  2  8  1  0
  3  4  1  0
  4  6  1  0
  5  3  1  0
  5  7  1  0
  6 11  1  0
  7  2  1  0
  7  6  1  0
  8  9  1  0
  8 10  1  0
 11 12  2  0
 13 15  1  0
 13 11  1  0
 14 25  2  0
 15 20  1  0
 16 24  1  0
 16 26  1  0
 17 23  1  0
 17 19  1  0
 18 24  1  0
 19 18  1  0
 20 19  2  0
 21 22  1  0
 21 15  2  0
 22 17  2  0
 23 16  1  0
 24 14  1  0
 26 28  2  0
 27 26  1  0
 29 27  1  0
 30 39  2  0
 30 35  1  0
 31 27  1  0
 31 35  1  0
 32 31  1  0
 33 34  1  0
 33 32  1  0
 34 30  1  0
 35 36  2  0
 36 37  1  0
 38 37  2  0
 39 38  1  0
 40 14  1  0
 40 41  1  0
 40 50  1  0
 41 44  1  0
 42 46  1  0
 42 41  1  0
 43 42  2  0
 46 45  1  0
 48 46  1  0
 48 49  1  0
 48 47  1  0
 50 53  1  1
 50 51  1  0
 52 50  1  0
 54 55  1  1
 54 56  1  0
 56 57  1  0
 57 58  1  0
 58 59  1  0
 60 68  1  0
 61 66  1  0
 62 63  1  0
 62 61  1  0
 64 63  1  0
 64 73  1  0
 64 65  1  0
 66 60  1  0
 66 65  1  0
 67 60  2  0
 68 59  1  0
 68 69  1  0
 70 71  2  0
 71 90  1  0
 72 71  1  0
 72 75  1  0
 73 70  1  0
 73 74  1  0
 74 72  2  0
 75 76  1  0
 76 77  2  0
 78 81  1  0
 78 77  1  0
 79 78  2  0
 80 79  1  0
 80 75  2  0
 81 82  1  0
 82 83  1  0
 83 84  2  0
 85 84  1  0
 85 89  1  0
 86 85  2  0
 87 82  2  0
 87 86  1  0
 88 87  1  0
 90 91  1  0
 91 94  1  0
 91 93  1  0
 92 90  2  0
 95 96  1  0
 95 70  1  0
 97 95  1  0
 98 54  1  0
 99 98  1  0
100 99  1  0
101100  1  0
102101  1  0
103102  1  0
104102  1  0
105102  1  0
M  ISO  4  11 101  13 101  60 100  68 100
M  END
>  <TORSDO>  (98) 
F 28

>  <SCORE>  (98) 
-11.812

>  <name>  (98) 
98

>  <ligand_id>  (98) 
98

>  <original_smiles>  (98) 
[H]c1c([H])c([H])c2c(c1[H])C([H])([H])C([H])([H])C([H])([H])C2([H])N([H])C(=O)C1([H])N(C(=O)C([H])(N([H])C(=O)C([H])(N([H])C([H])([H])[H])C([H])([H])[H])C(C([H])([H])[H])(C([H])([H])[H])C([H])([H])[H])C([H])([H])c2c([H])c(OC(=O)C3([H])N(C(=[N+]([H])[H])C([H])([H])[N+]([H])(C([H])([H])C([H])([H])C([H])([H])C([H])([H])N([H])C(=O)N4C([H])([H])C([H])([H])C([H])([H])C([H])(n5nc(-c6c([H])c([H])c(Oc7c([H])c([H])c(F)c([H])c7F)c([H])c6[H])c(C(=O)N([H])[H])c5N([H])[H])C4([H])[H])C([H])([H])C([H])([H])C([H])([H])C([H])([H])[N+]([H])([H])[H])C([H])([H])C([H])([H])C3([H])[H])c([H])c([H])c2C1([H])[H]

>  <smiles>  (98) 
[H]c1c([H])c([H])c2c(c1[H])C([H])([H])C([H])([H])C([H])([H])C2([H])N([H])C(=O)C1([H])N(C(=O)C([H])(N([H])C(=O)C([H])(N([H])C([H])([H])[H])C([H])([H])[H])C(C([H])([H])[H])(C([H])([H])[H])C([H])([H])[H])C([H])([H])c2c([H])c(OC(=O)C3([H])N(C(=[N+]([H])[H])C([H])([H])[N+]([H])(C([H])([H])C([H])([H])C([H])([H])C([H])([H])N([H])C(=O)N4C([H])([H])C([H])([H])C([H])([H])C([H])(n5nc(-c6c([H])c([H])c(Oc7c([H])c([H])c(F)c([H])c7F)c([H])c6[H])c(C(=O)N([H])[H])c5N([H])[H])C4([H])[H])C([H])([H])C([H])([H])C([H])([H])C([H])([H])[N+]([H])([H])[H])C([H])([H])C([H])([H])C3([H])[H])c([H])c([H])c2C1([H])[H]

$$$$
99:0:0
     RDKit          3D

 87 95  0  0  1  0  0  0  0  0999 V2000
  -29.3980  -21.7540   20.1130 O   0  0  0  0  0  0  0  0  0  0  0  0
  -30.6350  -15.1470   19.7510 C   0  0  0  0  0  0  0  0  0  0  0  0
  -30.4580  -12.8100   18.6970 C   0  0  0  0  0  2  0  0  0  0  0  0
  -29.4410  -12.7560   17.5300 C   0  0  0  0  0  2  0  0  0  0  0  0
  -28.0170  -12.4940   18.0520 C   0  0  0  0  0  2  0  0  0  0  0  0
  -27.6830  -13.3690   19.2850 C   0  0  0  0  0  3  0  0  0  0  0  0
  -28.8140  -13.3530   20.3300 C   0  0  0  0  0  2  0  0  0  0  0  0
  -30.0260  -13.8730   19.6690 N   0  0  0  0  0  0  0  0  0  0  0  0
  -31.7720  -15.2020   19.2640 O   0  0  0  0  0  0  0  0  0  0  0  0
  -28.9460  -19.0850   20.1130 C   0  0  0  0  0  0  0  0  0  0  0  0
  -27.7680  -18.1890   20.4860 C   0  0  0  0  0  2  0  0  0  0  0  0
  -30.1430  -17.9390   19.7610 C   0  0  0  0  0  2  0  0  0  0  0  0
  -28.0880  -17.1780   21.6210 C   0  0  0  0  0  2  0  0  0  0  0  0
  -29.4640  -16.4720   21.5230 C   0  0  0  0  0  2  0  0  0  0  0  0
  -28.6130  -20.4330   20.1650 N   0  0  0  0  0  0  0  0  0  0  0  0
  -29.9490  -16.3760   20.1400 N   0  0  0  0  0  0  0  0  0  0  0  0
  -25.3450  -13.8920   20.1730 C   0  0  0  0  0  0  0  0  0  0  0  0
  -24.3280  -13.0980   20.6220 C   0  0  0  0  0  0  0  0  0  0  0  0
  -24.8190  -11.7580   20.5630 C   0  0  0  0  0  0  0  0  0  0  0  0
  -26.3900  -13.0380   19.8700 N   0  0  0  0  0  0  0  0  0  0  0  0
  -26.0880  -11.7480   20.1680 N   0  0  0  0  0  0  0  0  0  0  0  0
  -24.1300  -10.4830   20.8000 C   0  0  0  0  0  0  0  0  0  0  0  0
  -24.5800   -9.5700   21.7800 C   0  0  0  0  0  3  0  0  0  0  0  0
  -23.8880   -8.3600   22.0020 C   0  0  0  0  0  3  0  0  0  0  0  0
  -22.7320   -8.0540   21.2440 C   0  0  0  0  0  0  0  0  0  0  0  0
  -22.3020   -8.9560   20.2540 C   0  0  0  0  0  3  0  0  0  0  0  0
  -22.9960  -10.1570   20.0310 C   0  0  0  0  0  3  0  0  0  0  0  0
  -22.0110   -6.8920   21.3730 O   0  0  0  0  0  0  0  0  0  0  0  0
  -21.8970   -6.2450   22.5780 C   0  0  0  0  0  0  0  0  0  0  0  0
  -21.3610   -6.8830   23.7180 C   0  0  0  0  0  3  0  0  0  0  0  0
  -21.1990   -6.1600   24.9170 C   0  0  0  0  0  3  0  0  0  0  0  0
  -21.5620   -4.8010   24.9760 C   0  0  0  0  0  0  0  0  0  0  0  0
  -22.0910   -4.1630   23.8400 C   0  0  0  0  0  3  0  0  0  0  0  0
  -22.2550   -4.8830   22.6430 C   0  0  0  0  0  0  0  0  0  0  0  0
  -22.7450   -4.2590   21.5450 F   0  0  0  0  0  0  0  0  0  0  0  0
  -21.3990   -4.1050   26.1250 F   0  0  0  0  0  0  0  0  0  0  0  0
  -22.9430  -13.5500   20.9840 C   0  0  0  0  0  0  0  0  0  0  0  0
  -22.2990  -12.8610   21.9190 N   0  0  0  0  0  0  0  0  0  0  0  0
  -22.4430  -14.5500   20.4710 O   0  0  0  0  0  0  0  0  0  0  0  0
  -22.7180  -12.0530   22.3550 H   0  0  0  0  0  0  0  0  0  0  0  0
  -21.3720  -13.1470   22.2040 H   0  0  0  0  0  0  0  0  0  0  0  0
  -25.4570  -15.2620   19.9680 N   0  0  0  0  0  0  0  0  0  0  0  0
  -24.6800  -15.8950   20.1210 H   0  0  0  0  0  0  0  0  0  0  0  0
  -26.2700  -15.7140   19.5730 H   0  0  0  0  0  0  0  0  0  0  0  0
  -28.6220  -23.0840   19.6920 C   0  0  0  0  0  2  0  0  0  0  0  0
  -28.3290  -24.6000   20.4860 C   0  0  0  0  0  2  0  0  0  0  0  0
  -28.4120  -26.1310   20.0470 O   0  0  0  0  0  0  0  0  0  0  0  0
  -24.6020  -31.7930   23.0670 C   0  0  0  0  0  0  0  0  0  0  0  0
  -27.3240  -27.1020   20.0610 C   0  0  0  0  0  0  0  0  0  0  0  0
  -23.4650  -30.3930   21.3870 C   0  0  0  0  0  3  0  0  0  0  0  0
  -24.9720  -28.8430   19.9860 C   0  0  0  0  0  0  0  0  0  0  0  0
  -26.0200  -30.6900   21.2840 C   0  0  0  0  0  2  0  0  0  0  0  0
  -26.1330  -29.2980   20.6230 C   0  0  0  0  0  0  0  0  0  0  0  0
  -27.3120  -28.4490   20.6320 C   0  0  0  0  0  3  0  0  0  0  0  0
  -26.1310  -26.7550   19.3960 C   0  0  0  0  0  3  0  0  0  0  0  0
  -24.9860  -27.5870   19.3560 C   0  0  0  0  0  3  0  0  0  0  0  0
  -23.7310  -29.7280   20.0090 C   0  0  0  0  0  2  0  0  0  0  0  0
  -24.7150  -30.9830   21.9680 N   0  0  0  0  0  0  0  0  0  0  0  0
  -23.4990  -32.0540   23.5720 O   0  0  0  0  0  0  0  0  0  0  0  0
  -22.7770  -29.3700   22.3260 C   0  0  0  0  0  0  0  0  0  0  0  0
  -21.4470  -29.2110   22.1970 N   0  0  0  0  0  0  0  0  0  0  0  0
  -23.4450  -28.7200   23.1340 O   0  0  0  0  0  0  0  0  0  0  0  0
  -20.9650  -29.7860   21.5210 H   0  0  0  0  0  0  0  0  0  0  0  0
  -18.0560  -28.0340   22.7010 C   0  0  0  0  0  0  0  0  0  0  0  0
  -20.6220  -28.2560   22.9440 C   0  0  0  0  0  3  0  0  0  0  0  0
  -20.6980  -26.8450   22.3170 C   0  0  0  0  0  2  0  0  0  0  0  0
  -19.5800  -26.5730   21.3060 C   0  0  0  0  0  2  0  0  0  0  0  0
  -18.2080  -26.7100   21.9720 C   0  0  0  0  0  2  0  0  0  0  0  0
  -19.1900  -28.7680   23.1440 C   0  0  0  0  0  0  0  0  0  0  0  0
  -18.9920  -30.0080   23.7890 C   0  0  0  0  0  3  0  0  0  0  0  0
  -17.6950  -30.5150   23.9940 C   0  0  0  0  0  3  0  0  0  0  0  0
  -16.5770  -29.7790   23.5660 C   0  0  0  0  0  3  0  0  0  0  0  0
  -16.7580  -28.5390   22.9260 C   0  0  0  0  0  3  0  0  0  0  0  0
  -25.8510  -32.4460   23.7310 C   0  0  0  0  0  3  0  0  0  0  0  0
  -25.5000  -33.8310   24.0870 N   0  0  0  0  0  0  0  0  0  0  0  0
  -25.8210  -34.9130   23.3650 C   0  0  0  0  0  0  0  0  0  0  0  0
  -26.5080  -34.8500   22.3420 O   0  0  0  0  0  0  0  0  0  0  0  0
  -24.8880  -33.9510   24.8820 H   0  0  0  0  0  0  0  0  0  0  0  0
  -24.0670  -36.6870   23.0280 C   0  0  0  0  0  1  0  0  0  0  0  0
  -25.3000  -36.2800   23.8520 C   0  0  0  0  0  3  0  0  0  0  0  0
  -27.3970  -37.1850   24.7540 C   0  0  0  0  0  1  0  0  0  0  0  0
  -26.3140  -37.3550   23.7900 N   0  0  0  0  0  0  0  0  0  0  0  0
  -25.8870  -38.2630   23.9490 H   0  0  0  0  0  0  0  0  0  0  0  0
  -26.3540  -31.6650   25.0080 C   0  0  1  0  0  0  0  0  0  0  0  0
  -25.2420  -31.3870   26.0470 C   0  0  0  0  0  1  0  0  0  0  0  0
  -26.9750  -30.3060   24.6130 C   0  0  0  0  0  1  0  0  0  0  0  0
  -27.4730  -32.4720   25.7090 C   0  0  0  0  0  1  0  0  0  0  0  0
  1 15  1  0
  2 16  1  0
  3  8  1  0
  4  5  1  0
  4  3  1  0
  6  5  1  0
  6 20  1  0
  6  7  1  0
  8  2  1  0
  8  7  1  0
  9  2  2  0
 10 15  2  0
 10 11  1  0
 11 13  1  0
 12 10  1  0
 12 16  1  0
 14 13  1  0
 16 14  1  0
 17 18  2  0
 18 37  1  0
 19 18  1  0
 19 22  1  0
 20 21  1  0
 20 17  1  0
 21 19  2  0
 22 23  1  0
 23 24  2  0
 25 28  1  0
 25 24  1  0
 26 25  2  0
 27 26  1  0
 27 22  2  0
 28 29  1  0
 29 34  2  0
 29 30  1  0
 30 31  2  0
 31 32  1  0
 32 36  1  0
 33 32  2  0
 34 33  1  0
 35 34  1  0
 37 38  1  0
 38 41  1  0
 38 40  1  0
 39 37  2  0
 42 43  1  0
 42 17  1  0
 44 42  1  0
 45  1  1  0
 45 46  1  0
 47 49  1  0
 47 46  1  0
 48 59  2  0
 49 54  1  0
 50 58  1  0
 50 60  1  0
 51 57  1  0
 51 53  1  0
 52 58  1  0
 53 54  2  0
 53 52  1  0
 55 49  2  0
 56 55  1  0
 56 51  2  0
 57 50  1  0
 58 48  1  0
 60 62  2  0
 61 60  1  0
 63 61  1  0
 64 73  2  0
 64 69  1  0
 65 61  1  0
 65 69  1  0
 66 65  1  0
 67 68  1  0
 67 66  1  0
 68 64  1  0
 69 70  2  0
 70 71  1  0
 72 71  2  0
 73 72  1  0
 74 48  1  0
 74 75  1  0
 74 84  1  0
 75 78  1  0
 76 80  1  0
 76 75  1  0
 77 76  2  0
 80 79  1  0
 82 80  1  0
 82 83  1  0
 82 81  1  0
 84 87  1  1
 84 85  1  0
 86 84  1  0
M  ISO  4   2 100  16 100  46 101  47 101
M  END
>  <TORSDO>  (99) 
F 18

>  <SCORE>  (99) 
-12.319

>  <name>  (99) 
99

>  <ligand_id>  (99) 
99

>  <original_smiles>  (99) 
[H]c1c([H])c([H])c2c(c1[H])C([H])([H])C([H])([H])C([H])([H])C2([H])N([H])C(=O)C1([H])N(C(=O)C([H])(N([H])C(=O)C([H])(N([H])C([H])([H])[H])C([H])([H])[H])C(C([H])([H])[H])(C([H])([H])[H])C([H])([H])[H])C([H])([H])c2c([H])c(OC([H])([H])C([H])([H])ON=C3C([H])([H])N(C(=O)N4C([H])([H])C([H])([H])C([H])([H])C([H])(n5nc(-c6c([H])c([H])c(Oc7c([H])c([H])c(F)c([H])c7F)c([H])c6[H])c(C(=O)N([H])[H])c5N([H])[H])C4([H])[H])C([H])([H])C([H])([H])C3([H])[H])c([H])c([H])c2C1([H])[H]

>  <smiles>  (99) 
[H]c1c([H])c([H])c2c(c1[H])C([H])([H])C([H])([H])C([H])([H])C2([H])N([H])C(=O)C1([H])N(C(=O)C([H])(N([H])C(=O)C([H])(N([H])C([H])([H])[H])C([H])([H])[H])C(C([H])([H])[H])(C([H])([H])[H])C([H])([H])[H])C([H])([H])c2c([H])c(OC([H])([H])C([H])([H])ON=C3C([H])([H])N(C(=O)N4C([H])([H])C([H])([H])C([H])([H])C([H])(n5nc(-c6c([H])c([H])c(Oc7c([H])c([H])c(F)c([H])c7F)c([H])c6[H])c(C(=O)N([H])[H])c5N([H])[H])C4([H])[H])C([H])([H])C([H])([H])C3([H])[H])c([H])c([H])c2C1([H])[H]

$$$$
