0:0:0
     RDKit          3D

 93101  0  0  1  0  0  0  0  0999 V2000
  -30.4530  -15.6540   20.1580 C   0  0  0  0  0  0  0  0  0  0  0  0
  -30.5550  -13.0300   19.6520 C   0  0  0  0  0  2  0  0  0  0  0  0
  -29.7340  -12.4710   18.4560 C   0  0  0  0  0  2  0  0  0  0  0  0
  -28.2910  -12.1640   18.8840 C   0  0  0  0  0  2  0  0  0  0  0  0
  -27.7240  -13.2880   19.7800 C   0  0  0  0  0  3  0  0  0  0  0  0
  -28.6930  -13.7540   20.8940 C   0  0  0  0  0  2  0  0  0  0  0  0
  -29.8960  -14.2990   20.2180 N   0  0  0  0  0  0  0  0  0  0  0  0
  -31.6860  -15.5300   20.0290 O   0  0  0  0  0  0  0  0  0  0  0  0
  -28.4560  -17.5900   20.4450 C   0  0  0  0  0  2  0  0  0  0  0  0
  -29.0410  -20.0640   19.4400 C   0  0  0  0  0  3  0  0  0  0  0  0
  -28.3220  -19.2310   20.5810 C   0  0  0  0  0  3  0  0  0  0  0  0
  -30.1880  -18.6410   19.4940 C   0  0  0  0  0  3  0  0  0  0  0  0
  -29.7840  -17.0680   19.9690 N   0  0  0  0  0  0  0  0  0  0  0  0
  -25.3630  -13.9060   20.4690 C   0  0  0  0  0  0  0  0  0  0  0  0
  -24.2690  -13.1670   20.8190 C   0  0  0  0  0  0  0  0  0  0  0  0
  -24.6970  -11.8030   20.8260 C   0  0  0  0  0  0  0  0  0  0  0  0
  -26.3850  -12.9990   20.2710 N   0  0  0  0  0  0  0  0  0  0  0  0
  -25.9980  -11.7270   20.5540 N   0  0  0  0  0  0  0  0  0  0  0  0
  -23.9240  -10.5680   21.0150 C   0  0  0  0  0  0  0  0  0  0  0  0
  -24.3190   -9.5840   21.9470 C   0  0  0  0  0  3  0  0  0  0  0  0
  -23.5450   -8.4170   22.1280 C   0  0  0  0  0  3  0  0  0  0  0  0
  -22.3610   -8.2260   21.3770 C   0  0  0  0  0  0  0  0  0  0  0  0
  -21.9840   -9.1980   20.4330 C   0  0  0  0  0  3  0  0  0  0  0  0
  -22.7590  -10.3570   20.2510 C   0  0  0  0  0  3  0  0  0  0  0  0
  -21.5610   -7.1130   21.4660 O   0  0  0  0  0  0  0  0  0  0  0  0
  -21.5140   -6.3500   22.6060 C   0  0  0  0  0  0  0  0  0  0  0  0
  -21.1600   -6.9010   23.8560 C   0  0  0  0  0  3  0  0  0  0  0  0
  -21.0560   -6.0680   24.9880 C   0  0  0  0  0  3  0  0  0  0  0  0
  -21.2960   -4.6850   24.8710 C   0  0  0  0  0  0  0  0  0  0  0  0
  -21.6420   -4.1340   23.6240 C   0  0  0  0  0  3  0  0  0  0  0  0
  -21.7470   -4.9640   22.4950 C   0  0  0  0  0  0  0  0  0  0  0  0
  -22.0610   -4.4250   21.2920 F   0  0  0  0  0  0  0  0  0  0  0  0
  -21.1890   -3.8840   25.9560 F   0  0  0  0  0  0  0  0  0  0  0  0
  -22.8810  -13.6930   21.0300 C   0  0  0  0  0  0  0  0  0  0  0  0
  -22.1050  -13.0460   21.8920 N   0  0  0  0  0  0  0  0  0  0  0  0
  -22.4930  -14.7160   20.4650 O   0  0  0  0  0  0  0  0  0  0  0  0
  -22.4300  -12.2190   22.3700 H   0  0  0  0  0  0  0  0  0  0  0  0
  -21.1720  -13.3840   22.0760 H   0  0  0  0  0  0  0  0  0  0  0  0
  -25.5690  -15.2670   20.2670 N   0  0  0  0  0  0  0  0  0  0  0  0
  -24.8010  -15.9280   20.2980 H   0  0  0  0  0  0  0  0  0  0  0  0
  -26.4130  -15.6530   19.8710 H   0  0  0  0  0  0  0  0  0  0  0  0
  -26.9260  -19.6580   20.7800 N   0  0  0  0  0  4  0  0  0  0  0  0
  -26.3630  -19.4810   19.9680 H   0  0  0  0  0  0  0  0  0  0  0  0
  -26.8920  -20.6410   20.9820 H   0  0  0  0  0  0  0  0  0  0  0  0
  -26.5190  -19.1750   21.5620 H   0  0  0  0  0  0  0  0  0  0  0  0
  -29.1590  -22.0210   19.4140 C   0  0  0  0  0  3  0  0  0  0  0  0
  -28.1370  -23.6760   19.2120 C   0  0  0  0  0  3  0  0  0  0  0  0
  -28.2740  -25.4380   19.3060 O   0  0  0  0  0  0  0  0  0  0  0  0
  -24.7690  -31.4360   22.8080 C   0  0  0  0  0  0  0  0  0  0  0  0
  -27.2680  -26.6240   19.3750 C   0  0  0  0  0  0  0  0  0  0  0  0
  -23.5380  -30.1150   21.1400 C   0  0  0  0  0  3  0  0  0  0  0  0
  -24.9520  -28.6000   19.5550 C   0  0  0  0  0  0  0  0  0  0  0  0
  -26.1030  -30.3300   20.9090 C   0  0  0  0  0  2  0  0  0  0  0  0
  -26.1680  -28.9450   20.1570 C   0  0  0  0  0  0  0  0  0  0  0  0
  -27.3070  -27.9880   20.0350 C   0  0  0  0  0  3  0  0  0  0  0  0
  -26.0090  -26.4920   18.7340 C   0  0  0  0  0  3  0  0  0  0  0  0
  -24.9100  -27.4010   18.8200 C   0  0  0  0  0  3  0  0  0  0  0  0
  -23.7260  -29.5150   19.7170 C   0  0  0  0  0  2  0  0  0  0  0  0
  -24.8300  -30.6570   21.6730 N   0  0  0  0  0  0  0  0  0  0  0  0
  -23.6940  -31.6740   23.3860 O   0  0  0  0  0  0  0  0  0  0  0  0
  -22.8890  -29.0590   22.0770 C   0  0  0  0  0  0  0  0  0  0  0  0
  -21.5540  -28.8930   22.0180 N   0  0  0  0  0  0  0  0  0  0  0  0
  -23.5990  -28.3870   22.8290 O   0  0  0  0  0  0  0  0  0  0  0  0
  -21.0290  -29.4870   21.3910 H   0  0  0  0  0  0  0  0  0  0  0  0
  -18.2160  -27.5990   22.6410 C   0  0  0  0  0  0  0  0  0  0  0  0
  -20.7850  -27.8910   22.7680 C   0  0  0  0  0  3  0  0  0  0  0  0
  -20.8680  -26.5050   22.0860 C   0  0  0  0  0  2  0  0  0  0  0  0
  -19.7100  -26.2400   21.1170 C   0  0  0  0  0  2  0  0  0  0  0  0
  -18.3680  -26.3090   21.8530 C   0  0  0  0  0  2  0  0  0  0  0  0
  -19.3490  -28.3490   23.0580 C   0  0  0  0  0  0  0  0  0  0  0  0
  -19.1470  -29.5540   23.7650 C   0  0  0  0  0  3  0  0  0  0  0  0
  -17.8480  -30.0100   24.0560 C   0  0  0  0  0  3  0  0  0  0  0  0
  -16.7310  -29.2580   23.6530 C   0  0  0  0  0  3  0  0  0  0  0  0
  -16.9160  -28.0530   22.9510 C   0  0  0  0  0  3  0  0  0  0  0  0
  -26.0450  -32.0750   23.4320 C   0  0  0  0  0  3  0  0  0  0  0  0
  -26.6660  -31.2070   24.5970 C   0  0  1  0  0  0  0  0  0  0  0  0
  -25.6520  -30.8260   25.7010 C   0  0  0  0  0  1  0  0  0  0  0  0
  -27.2730  -29.8950   24.0520 C   0  0  0  0  0  1  0  0  0  0  0  0
  -27.8280  -31.9800   25.2640 C   0  0  0  0  0  1  0  0  0  0  0  0
  -25.6870  -33.4130   23.9460 N   0  0  0  0  0  0  0  0  0  0  0  0
  -25.9360  -34.5730   23.3220 C   0  0  0  0  0  0  0  0  0  0  0  0
  -26.5500  -34.6310   22.2530 O   0  0  0  0  0  0  0  0  0  0  0  0
  -25.1320  -33.4380   24.7880 H   0  0  0  0  0  0  0  0  0  0  0  0
  -24.1220  -36.3210   23.3130 C   0  0  0  0  0  1  0  0  0  0  0  0
  -25.4310  -35.8710   23.9830 C   0  0  0  0  0  3  0  0  0  0  0  0
  -27.5800  -36.7500   24.7860 C   0  0  0  0  0  1  0  0  0  0  0  0
  -26.4110  -36.9800   23.9400 N   0  0  0  0  0  0  0  0  0  0  0  0
  -25.9790  -37.8530   24.2280 H   0  0  0  0  0  0  0  0  0  0  0  0
  -31.0180  -18.5780   18.1940 C   0  0  0  0  0  2  0  0  0  0  0  0
  -30.2680  -18.0090   17.0590 N   0  0  0  0  0  4  0  0  0  0  0  0
  -29.9260  -17.0900   17.2660 H   0  0  0  0  0  0  0  0  0  0  0  0
  -30.8750  -17.9380   16.2610 H   0  0  0  0  0  0  0  0  0  0  0  0
  -29.4960  -18.5960   16.8000 H   0  0  0  0  0  0  0  0  0  0  0  0
  1  7  1  0
  2  7  1  0
  3  4  1  0
  3  2  1  0
  5  4  1  0
  5 17  1  0
  5  6  1  0
  7  6  1  0
  8  1  2  0
  9 11  1  0
 10 46  1  0
 10 12  1  0
 10 11  1  0
 11 42  1  0
 12 89  1  0
 12 13  1  0
 13  1  1  0
 13  9  1  0
 14 15  2  0
 15 16  1  0
 15 34  1  0
 16 19  1  0
 17 14  1  0
 17 18  1  0
 18 16  2  0
 19 20  1  0
 20 21  2  0
 22 25  1  0
 22 21  1  0
 23 22  2  0
 24 23  1  0
 24 19  2  0
 25 26  1  0
 26 27  1  0
 27 28  2  0
 29 28  1  0
 29 33  1  0
 30 29  2  0
 31 26  2  0
 31 30  1  0
 32 31  1  0
 34 35  1  0
 35 38  1  0
 35 37  1  0
 36 34  2  0
 39 40  1  0
 39 14  1  0
 41 39  1  0
 42 44  1  0
 42 45  1  0
 43 42  1  0
 47 48  1  0
 47 46  2  0
 48 50  1  0
 49 60  2  0
 50 55  1  0
 51 59  1  0
 51 61  1  0
 52 58  1  0
 52 54  1  0
 53 59  1  0
 54 53  1  0
 55 54  2  0
 56 57  1  0
 56 50  2  0
 57 52  2  0
 58 51  1  0
 59 49  1  0
 61 63  2  0
 62 61  1  0
 64 62  1  0
 65 74  2  0
 65 70  1  0
 66 62  1  0
 66 70  1  0
 67 66  1  0
 68 69  1  0
 68 67  1  0
 69 65  1  0
 70 71  2  0
 71 72  1  0
 73 72  2  0
 74 73  1  0
 75 49  1  0
 75 80  1  0
 75 76  1  0
 76 79  1  1
 76 77  1  0
 78 76  1  0
 80 83  1  0
 81 80  1  0
 81 85  1  0
 82 81  2  0
 85 84  1  0
 87 85  1  0
 87 88  1  0
 87 86  1  0
 90 91  1  0
 90 89  1  0
 92 90  1  0
 93 90  1  0
M  ISO  4   1 100  13 100  47 101  48 101
M  END
>  <TORSDO>  (1) 
F 20

>  <SCORE>  (1) 
-13.432

>  <name>  (1) 
0

>  <ligand_id>  (1) 
0

>  <original_smiles>  (1) 
[H]c1c([H])c([H])c2c(c1[H])C([H])([H])C([H])([H])C([H])([H])C2([H])N([H])C(=O)C1([H])N(C(=O)C([H])(N([H])C(=O)C([H])(N([H])C([H])([H])[H])C([H])([H])[H])C(C([H])([H])[H])(C([H])([H])[H])C([H])([H])[H])C([H])([H])c2c([H])c(OC([H])([H])C([H])([H])C3([H])C([H])(C([H])([H])[N+]([H])([H])[H])N(C(=O)N4C([H])([H])C([H])([H])C([H])([H])C([H])(n5nc(-c6c([H])c([H])c(Oc7c([H])c([H])c(F)c([H])c7F)c([H])c6[H])c(C(=O)N([H])[H])c5N([H])[H])C4([H])[H])C([H])([H])C3([H])[N+]([H])([H])[H])c([H])c([H])c2C1([H])[H]

>  <smiles>  (1) 
[H]c1c([H])c([H])c2c(c1[H])C([H])([H])C([H])([H])C([H])([H])C2([H])N([H])C(=O)C1([H])N(C(=O)C([H])(N([H])C(=O)C([H])(N([H])C([H])([H])[H])C([H])([H])[H])C(C([H])([H])[H])(C([H])([H])[H])C([H])([H])[H])C([H])([H])c2c([H])c(OC([H])([H])C([H])([H])C3([H])C([H])(C([H])([H])[N+]([H])([H])[H])N(C(=O)N4C([H])([H])C([H])([H])C([H])([H])C([H])(n5nc(-c6c([H])c([H])c(Oc7c([H])c([H])c(F)c([H])c7F)c([H])c6[H])c(C(=O)N([H])[H])c5N([H])[H])C4([H])[H])C([H])([H])C3([H])[N+]([H])([H])[H])c([H])c([H])c2C1([H])[H]

$$$$
1:0:0
     RDKit          3D

 90 99  0  0  1  0  0  0  0  0999 V2000
  -29.9240  -19.9630   19.9490 C   0  0  0  0  0  0  0  0  0  0  0  0
  -27.8690  -18.3280   19.5410 C   0  0  0  0  0  3  0  0  0  0  0  0
  -27.1880  -19.7120   19.3420 C   0  0  0  0  0  2  0  0  0  0  0  0
  -26.8900  -21.9830   20.6400 C   0  0  0  0  0  2  0  0  0  0  0  0
  -27.9140  -22.9060   21.3030 C   0  0  0  0  0  2  0  0  0  0  0  0
  -29.3500  -18.3060   20.0450 C   0  0  0  0  0  0  0  0  0  0  0  0
  -27.7180  -20.7390   20.3590 C   0  0  0  0  0  3  0  0  0  0  0  0
  -29.1040  -22.8610   20.3330 C   0  0  0  0  0  3  0  0  0  0  0  0
  -29.0700  -21.1880   20.0100 N   0  0  0  0  0  0  0  0  0  0  0  0
  -31.1440  -20.0980   19.8520 O   0  0  0  0  0  0  0  0  0  0  0  0
  -30.6570  -15.4700   19.9490 C   0  0  0  0  0  0  0  0  0  0  0  0
  -30.6780  -12.9760   19.1830 C   0  0  0  0  0  2  0  0  0  0  0  0
  -29.7420  -12.7130   17.9740 C   0  0  0  0  0  2  0  0  0  0  0  0
  -28.2920  -12.4730   18.4370 C   0  0  0  0  0  2  0  0  0  0  0  0
  -27.8550  -13.4900   19.5200 C   0  0  0  0  0  3  0  0  0  0  0  0
  -28.9110  -13.6600   20.6310 C   0  0  0  0  0  2  0  0  0  0  0  0
  -30.1370  -14.1440   19.9690 N   0  0  0  0  0  0  0  0  0  0  0  0
  -31.8760  -15.5100   19.7210 O   0  0  0  0  0  0  0  0  0  0  0  0
  -29.7730  -16.6580   20.0130 N   0  0  0  0  0  0  0  0  0  0  0  0
  -28.8830  -16.2060   20.1370 H   0  0  0  0  0  0  0  0  0  0  0  0
  -25.5220  -14.1220   20.3310 C   0  0  0  0  0  0  0  0  0  0  0  0
  -24.4420  -13.3790   20.7140 C   0  0  0  0  0  0  0  0  0  0  0  0
  -24.8590  -12.0130   20.6490 C   0  0  0  0  0  0  0  0  0  0  0  0
  -26.5270  -13.2140   20.0510 N   0  0  0  0  0  0  0  0  0  0  0  0
  -26.1420  -11.9380   20.3100 N   0  0  0  0  0  0  0  0  0  0  0  0
  -24.0900  -10.7750   20.8310 C   0  0  0  0  0  0  0  0  0  0  0  0
  -24.5140   -9.7670   21.7250 C   0  0  0  0  0  3  0  0  0  0  0  0
  -23.7440   -8.5960   21.8980 C   0  0  0  0  0  3  0  0  0  0  0  0
  -22.5380   -8.4260   21.1790 C   0  0  0  0  0  0  0  0  0  0  0  0
  -22.1320   -9.4230   20.2740 C   0  0  0  0  0  3  0  0  0  0  0  0
  -22.9020  -10.5850   20.0980 C   0  0  0  0  0  3  0  0  0  0  0  0
  -21.7400   -7.3120   21.2630 O   0  0  0  0  0  0  0  0  0  0  0  0
  -21.7230   -6.5220   22.3850 C   0  0  0  0  0  0  0  0  0  0  0  0
  -21.3730   -7.0360   23.6530 C   0  0  0  0  0  3  0  0  0  0  0  0
  -21.3020   -6.1760   24.7660 C   0  0  0  0  0  3  0  0  0  0  0  0
  -21.5700   -4.8030   24.6140 C   0  0  0  0  0  0  0  0  0  0  0  0
  -21.9130   -4.2870   23.3520 C   0  0  0  0  0  3  0  0  0  0  0  0
  -21.9870   -5.1450   22.2400 C   0  0  0  0  0  0  0  0  0  0  0  0
  -22.2970   -4.6400   21.0210 F   0  0  0  0  0  0  0  0  0  0  0  0
  -21.4940   -3.9740   25.6820 F   0  0  0  0  0  0  0  0  0  0  0  0
  -23.0680  -13.9030   21.0130 C   0  0  0  0  0  0  0  0  0  0  0  0
  -22.3340  -13.2270   21.8910 N   0  0  0  0  0  0  0  0  0  0  0  0
  -22.6570  -14.9450   20.5060 O   0  0  0  0  0  0  0  0  0  0  0  0
  -22.6810  -12.3850   22.3240 H   0  0  0  0  0  0  0  0  0  0  0  0
  -21.4120  -13.5600   22.1350 H   0  0  0  0  0  0  0  0  0  0  0  0
  -25.7240  -15.4880   20.1660 N   0  0  0  0  0  0  0  0  0  0  0  0
  -24.9600  -16.1450   20.2760 H   0  0  0  0  0  0  0  0  0  0  0  0
  -26.5260  -15.8900   19.7030 H   0  0  0  0  0  0  0  0  0  0  0  0
  -28.7790  -24.4160   19.4470 C   0  0  0  0  0  2  0  0  0  0  0  0
  -28.7180  -26.0200   19.8930 O   0  0  0  0  0  0  0  0  0  0  0  0
  -24.6320  -31.5930   22.9640 C   0  0  0  0  0  0  0  0  0  0  0  0
  -27.6300  -27.0450   19.8050 C   0  0  0  0  0  0  0  0  0  0  0  0
  -23.6120  -30.1920   21.2340 C   0  0  0  0  0  3  0  0  0  0  0  0
  -25.2030  -28.7630   19.7740 C   0  0  0  0  0  0  0  0  0  0  0  0
  -26.1480  -30.5900   21.1740 C   0  0  0  0  0  2  0  0  0  0  0  0
  -26.3370  -29.2200   20.4560 C   0  0  0  0  0  0  0  0  0  0  0  0
  -27.5400  -28.3800   20.4500 C   0  0  0  0  0  3  0  0  0  0  0  0
  -26.4610  -26.7500   19.0700 C   0  0  0  0  0  3  0  0  0  0  0  0
  -25.2890  -27.5540   19.0630 C   0  0  0  0  0  3  0  0  0  0  0  0
  -23.9200  -29.5880   19.8340 C   0  0  0  0  0  2  0  0  0  0  0  0
  -24.8180  -30.8200   21.8450 N   0  0  0  0  0  0  0  0  0  0  0  0
  -23.5040  -31.7760   23.4540 O   0  0  0  0  0  0  0  0  0  0  0  0
  -22.9630  -29.1160   22.1370 C   0  0  0  0  0  0  0  0  0  0  0  0
  -21.6440  -29.0090   21.9930 N   0  0  0  0  0  0  0  0  0  0  0  0
  -23.6310  -28.4110   22.8940 O   0  0  0  0  0  0  0  0  0  0  0  0
  -21.2350  -29.7190   21.4020 H   0  0  0  0  0  0  0  0  0  0  0  0
  -18.2740  -27.4090   22.4080 C   0  0  0  0  0  0  0  0  0  0  0  0
  -20.7280  -27.9360   22.3140 C   0  0  0  0  0  3  0  0  0  0  0  0
  -21.0400  -26.4750   21.9710 C   0  0  0  0  0  2  0  0  0  0  0  0
  -19.9340  -25.9520   21.0300 C   0  0  0  0  0  2  0  0  0  0  0  0
  -18.5220  -26.1090   21.6370 C   0  0  0  0  0  2  0  0  0  0  0  0
  -19.3430  -28.2360   22.8330 C   0  0  0  0  0  0  0  0  0  0  0  0
  -19.0830  -29.4190   23.5560 C   0  0  0  0  0  3  0  0  0  0  0  0
  -17.7540  -29.8080   23.8090 C   0  0  0  0  0  3  0  0  0  0  0  0
  -16.6870  -29.0100   23.3550 C   0  0  0  0  0  3  0  0  0  0  0  0
  -16.9480  -27.8040   22.6750 C   0  0  0  0  0  3  0  0  0  0  0  0
  -25.8220  -32.2990   23.6720 C   0  0  0  0  0  3  0  0  0  0  0  0
  -25.3930  -33.6620   24.0320 N   0  0  0  0  0  0  0  0  0  0  0  0
  -25.6740  -34.7670   23.3300 C   0  0  0  0  0  0  0  0  0  0  0  0
  -26.3850  -34.7490   22.3220 O   0  0  0  0  0  0  0  0  0  0  0  0
  -24.7630  -33.7420   24.8160 H   0  0  0  0  0  0  0  0  0  0  0  0
  -23.8310  -36.4520   22.9940 C   0  0  0  0  0  1  0  0  0  0  0  0
  -25.0780  -36.1040   23.8220 C   0  0  0  0  0  3  0  0  0  0  0  0
  -27.1210  -37.1130   24.7420 C   0  0  0  0  0  1  0  0  0  0  0  0
  -26.0360  -37.2300   23.7720 N   0  0  0  0  0  0  0  0  0  0  0  0
  -25.5620  -38.1160   23.9310 H   0  0  0  0  0  0  0  0  0  0  0  0
  -26.3190  -31.5280   24.9550 C   0  0  1  0  0  0  0  0  0  0  0  0
  -25.1920  -31.1960   25.9610 C   0  0  0  0  0  1  0  0  0  0  0  0
  -27.0030  -30.1960   24.5690 C   0  0  0  0  0  1  0  0  0  0  0  0
  -27.3850  -32.3750   25.6890 C   0  0  0  0  0  1  0  0  0  0  0  0
  1  9  1  0
  1  6  1  0
  2  6  2  0
  3  2  1  0
  4  5  1  0
  7  3  1  0
  7  4  1  0
  8 49  1  0
  8  5  1  0
  9  8  1  0
  9  7  1  0
 10  1  2  0
 11 17  1  0
 11 19  1  0
 12 17  1  0
 13 14  1  0
 13 12  1  0
 15 14  1  0
 15 24  1  0
 15 16  1  0
 17 16  1  0
 18 11  2  0
 19  6  1  0
 19 20  1  0
 21 22  2  0
 22 41  1  0
 23 22  1  0
 23 26  1  0
 24 25  1  0
 24 21  1  0
 25 23  2  0
 26 27  1  0
 27 28  2  0
 29 32  1  0
 29 28  1  0
 30 29  2  0
 31 30  1  0
 31 26  2  0
 32 33  1  0
 33 34  1  0
 34 35  2  0
 36 35  1  0
 36 40  1  0
 37 36  2  0
 38 33  2  0
 38 37  1  0
 39 38  1  0
 41 42  1  0
 42 45  1  0
 42 44  1  0
 43 41  2  0
 46 47  1  0
 46 21  1  0
 48 46  1  0
 49 50  1  0
 51 62  2  0
 52 50  1  0
 52 57  1  0
 53 61  1  0
 53 63  1  0
 54 60  1  0
 54 56  1  0
 55 61  1  0
 56 55  1  0
 57 56  2  0
 58 52  2  0
 59 58  1  0
 59 54  2  0
 60 53  1  0
 61 51  1  0
 63 65  2  0
 64 63  1  0
 66 64  1  0
 67 76  2  0
 67 72  1  0
 68 64  1  0
 68 72  1  0
 69 68  1  0
 70 71  1  0
 70 69  1  0
 71 67  1  0
 72 73  2  0
 73 74  1  0
 75 74  2  0
 76 75  1  0
 77 51  1  0
 77 78  1  0
 77 87  1  0
 78 81  1  0
 79 83  1  0
 79 78  1  0
 80 79  2  0
 83 82  1  0
 85 83  1  0
 85 86  1  0
 85 84  1  0
 87 90  1  1
 87 88  1  0
 89 87  1  0
M  ISO  4  11 100  19 100  49 101  50 101
M  END
>  <TORSDO>  (2) 
F 17

>  <SCORE>  (2) 
-15.136

>  <name>  (2) 
1

>  <ligand_id>  (2) 
1

>  <original_smiles>  (2) 
[H]c1c([H])c([H])c2c(c1[H])C([H])([H])C([H])([H])C([H])([H])C2([H])N([H])C(=O)C1([H])N(C(=O)C([H])(N([H])C(=O)C([H])(N([H])C([H])([H])[H])C([H])([H])[H])C(C([H])([H])[H])(C([H])([H])[H])C([H])([H])[H])C([H])([H])c2c([H])c(OC([H])([H])C3([H])N4C(=O)C([H])(N([H])C(=O)N5C([H])([H])C([H])([H])C([H])([H])C([H])(n6nc(-c7c([H])c([H])c(Oc8c([H])c([H])c(F)c([H])c8F)c([H])c7[H])c(C(=O)N([H])[H])c6N([H])[H])C5([H])[H])C([H])([H])C([H])([H])C4([H])C([H])([H])C3([H])[H])c([H])c([H])c2C1([H])[H]

>  <smiles>  (2) 
[H]c1c([H])c([H])c2c(c1[H])C([H])([H])C([H])([H])C([H])([H])C2([H])N([H])C(=O)C1([H])N(C(=O)C([H])(N([H])C(=O)C([H])(N([H])C([H])([H])[H])C([H])([H])[H])C(C([H])([H])[H])(C([H])([H])[H])C([H])([H])[H])C([H])([H])c2c([H])c(OC([H])([H])C3([H])N4C(=O)C([H])(N([H])C(=O)N5C([H])([H])C([H])([H])C([H])([H])C([H])(n6nc(-c7c([H])c([H])c(Oc8c([H])c([H])c(F)c([H])c8F)c([H])c7[H])c(C(=O)N([H])[H])c6N([H])[H])C5([H])[H])C([H])([H])C([H])([H])C4([H])C([H])([H])C3([H])[H])c([H])c([H])c2C1([H])[H]

$$$$
2:0:0
     RDKit          3D

 92101  0  0  1  0  0  0  0  0999 V2000
  -30.1370  -23.6910   18.5660 C   0  0  0  0  0  2  0  0  0  0  0  0
  -30.7890  -22.3940   19.0830 C   0  0  0  0  0  2  0  0  0  0  0  0
  -28.4610  -23.5160   20.4410 C   0  0  0  0  0  2  0  0  0  0  0  0
  -29.4310  -24.4730   19.6970 C   0  0  0  0  0  3  0  0  0  0  0  0
  -29.7620  -21.4840   19.7940 C   0  0  0  0  0  3  0  0  0  0  0  0
  -29.1210  -22.2560   20.8920 N   0  0  0  0  0  4  0  0  0  0  0  0
  -28.4250  -21.6820   21.3400 H   0  0  0  0  0  0  0  0  0  0  0  0
  -29.8120  -22.4860   21.5880 H   0  0  0  0  0  0  0  0  0  0  0  0
  -28.7340  -25.7440   19.1270 C   0  0  0  0  0  2  0  0  0  0  0  0
  -28.4320  -26.7250   20.1340 O   0  0  0  0  0  0  0  0  0  0  0  0
  -24.6140  -31.8800   23.2250 C   0  0  0  0  0  0  0  0  0  0  0  0
  -27.2420  -27.4350   20.1040 C   0  0  0  0  0  0  0  0  0  0  0  0
  -23.3950  -30.4780   21.5940 C   0  0  0  0  0  3  0  0  0  0  0  0
  -24.8370  -28.9420   20.1540 C   0  0  0  0  0  0  0  0  0  0  0  0
  -25.9200  -30.8350   21.3750 C   0  0  0  0  0  2  0  0  0  0  0  0
  -26.0000  -29.4640   20.7320 C   0  0  0  0  0  0  0  0  0  0  0  0
  -27.2000  -28.7130   20.7100 C   0  0  0  0  0  3  0  0  0  0  0  0
  -26.0490  -26.9210   19.5420 C   0  0  0  0  0  3  0  0  0  0  0  0
  -24.8560  -27.6700   19.5610 C   0  0  0  0  0  3  0  0  0  0  0  0
  -23.5930  -29.8000   20.2120 C   0  0  0  0  0  2  0  0  0  0  0  0
  -24.6620  -31.0800   22.1230 N   0  0  0  0  0  0  0  0  0  0  0  0
  -23.5370  -32.1510   23.7740 O   0  0  0  0  0  0  0  0  0  0  0  0
  -22.7530  -29.4560   22.5590 C   0  0  0  0  0  0  0  0  0  0  0  0
  -21.4270  -29.2730   22.4410 N   0  0  0  0  0  0  0  0  0  0  0  0
  -23.4430  -28.8300   23.3690 O   0  0  0  0  0  0  0  0  0  0  0  0
  -20.9320  -29.8290   21.7600 H   0  0  0  0  0  0  0  0  0  0  0  0
  -18.0590  -28.0700   22.9570 C   0  0  0  0  0  0  0  0  0  0  0  0
  -20.6170  -28.3340   23.2170 C   0  0  0  0  0  3  0  0  0  0  0  0
  -20.7210  -26.9020   22.6430 C   0  0  0  0  0  2  0  0  0  0  0  0
  -19.6150  -26.5750   21.6350 C   0  0  0  0  0  2  0  0  0  0  0  0
  -18.2360  -26.7180   22.2840 C   0  0  0  0  0  2  0  0  0  0  0  0
  -19.1780  -28.8350   23.3810 C   0  0  0  0  0  0  0  0  0  0  0  0
  -18.9590  -30.0990   23.9700 C   0  0  0  0  0  3  0  0  0  0  0  0
  -17.6540  -30.5980   24.1400 C   0  0  0  0  0  3  0  0  0  0  0  0
  -16.5490  -29.8300   23.7330 C   0  0  0  0  0  3  0  0  0  0  0  0
  -16.7530  -28.5670   23.1470 C   0  0  0  0  0  3  0  0  0  0  0  0
  -25.9040  -32.5110   23.8340 C   0  0  0  0  0  3  0  0  0  0  0  0
  -26.4400  -31.7340   25.0990 C   0  0  1  0  0  0  0  0  0  0  0  0
  -25.3620  -31.4870   26.1790 C   0  0  0  0  0  1  0  0  0  0  0  0
  -27.0220  -30.3610   24.6900 C   0  0  0  0  0  1  0  0  0  0  0  0
  -27.5990  -32.5260   25.7500 C   0  0  0  0  0  1  0  0  0  0  0  0
  -25.5950  -33.9070   24.1750 N   0  0  0  0  0  0  0  0  0  0  0  0
  -25.9180  -34.9630   23.4180 C   0  0  0  0  0  0  0  0  0  0  0  0
  -26.5790  -34.8670   22.3790 O   0  0  0  0  0  0  0  0  0  0  0  0
  -25.0070  -34.0560   24.9810 H   0  0  0  0  0  0  0  0  0  0  0  0
  -24.1820  -36.7520   23.0850 C   0  0  0  0  0  1  0  0  0  0  0  0
  -25.4300  -36.3480   23.8860 C   0  0  0  0  0  3  0  0  0  0  0  0
  -27.5700  -37.2300   24.7040 C   0  0  0  0  0  1  0  0  0  0  0  0
  -26.4590  -37.4050   23.7720 N   0  0  0  0  0  0  0  0  0  0  0  0
  -26.0520  -38.3220   23.9320 H   0  0  0  0  0  0  0  0  0  0  0  0
  -30.4070  -20.1380   20.2590 C   0  0  0  0  0  2  0  0  0  0  0  0
  -29.4110  -18.9800   20.5360 C   0  0  0  0  0  2  0  0  0  0  0  0
  -30.6860  -14.5110   20.4990 C   0  0  0  0  0  0  0  0  0  0  0  0
  -30.3670  -12.3470   19.3550 C   0  0  0  0  0  2  0  0  0  0  0  0
  -29.4350  -12.5430   18.1430 C   0  0  0  0  0  2  0  0  0  0  0  0
  -27.9610  -12.3910   18.5650 C   0  0  0  0  0  2  0  0  0  0  0  0
  -27.6100  -13.2340   19.8180 C   0  0  0  0  0  3  0  0  0  0  0  0
  -28.6630  -13.0530   20.9360 C   0  0  0  0  0  2  0  0  0  0  0  0
  -29.9910  -13.3460   20.3700 N   0  0  0  0  0  0  0  0  0  0  0  0
  -31.8300  -14.6510   20.0620 O   0  0  0  0  0  0  0  0  0  0  0  0
  -29.0380  -16.3680   20.3480 C   0  0  0  0  0  2  0  0  0  0  0  0
  -30.6540  -16.8020   21.5750 C   0  0  0  0  0  2  0  0  0  0  0  0
  -29.9960  -17.5530   20.4110 C   0  0  0  0  0  3  0  0  0  0  0  0
  -30.0330  -15.5570   21.0690 N   0  0  0  0  0  0  0  0  0  0  0  0
  -25.2100  -13.8510   20.5050 C   0  0  0  0  0  0  0  0  0  0  0  0
  -24.1390  -13.0820   20.8700 C   0  0  0  0  0  0  0  0  0  0  0  0
  -24.6010  -11.7300   20.8540 C   0  0  0  0  0  0  0  0  0  0  0  0
  -26.2570  -12.9660   20.2910 N   0  0  0  0  0  0  0  0  0  0  0  0
  -25.8930  -11.6870   20.5600 N   0  0  0  0  0  0  0  0  0  0  0  0
  -23.8720  -10.4700   21.0450 C   0  0  0  0  0  0  0  0  0  0  0  0
  -24.3050   -9.5040   21.9800 C   0  0  0  0  0  3  0  0  0  0  0  0
  -23.5800   -8.3070   22.1580 C   0  0  0  0  0  3  0  0  0  0  0  0
  -22.4070   -8.0680   21.4030 C   0  0  0  0  0  0  0  0  0  0  0  0
  -21.9940   -9.0230   20.4560 C   0  0  0  0  0  3  0  0  0  0  0  0
  -22.7200  -10.2110   20.2760 C   0  0  0  0  0  3  0  0  0  0  0  0
  -21.6540   -6.9230   21.4910 O   0  0  0  0  0  0  0  0  0  0  0  0
  -21.6120   -6.1770   22.6420 C   0  0  0  0  0  0  0  0  0  0  0  0
  -21.2020   -6.7300   23.8750 C   0  0  0  0  0  3  0  0  0  0  0  0
  -21.1070   -5.9100   25.0160 C   0  0  0  0  0  3  0  0  0  0  0  0
  -21.4110   -4.5380   24.9270 C   0  0  0  0  0  0  0  0  0  0  0  0
  -21.8150   -3.9850   23.6990 C   0  0  0  0  0  3  0  0  0  0  0  0
  -21.9120   -4.8020   22.5590 C   0  0  0  0  0  0  0  0  0  0  0  0
  -22.2810   -4.2600   21.3730 F   0  0  0  0  0  0  0  0  0  0  0  0
  -21.3130   -3.7490   26.0230 F   0  0  0  0  0  0  0  0  0  0  0  0
  -22.7390  -13.5620   21.1250 C   0  0  0  0  0  0  0  0  0  0  0  0
  -22.0030  -12.8710   21.9880 N   0  0  0  0  0  0  0  0  0  0  0  0
  -22.3060  -14.5840   20.5950 O   0  0  0  0  0  0  0  0  0  0  0  0
  -22.3650  -12.0430   22.4380 H   0  0  0  0  0  0  0  0  0  0  0  0
  -21.0630  -13.1740   22.2020 H   0  0  0  0  0  0  0  0  0  0  0  0
  -25.3750  -15.2190   20.3160 N   0  0  0  0  0  0  0  0  0  0  0  0
  -24.6060  -15.8740   20.4030 H   0  0  0  0  0  0  0  0  0  0  0  0
  -26.2300  -15.6520   19.9930 H   0  0  0  0  0  0  0  0  0  0  0  0
  1  2  1  0
  1  4  1  0
  2  5  1  0
  3  6  1  0
  4  9  1  0
  4  3  1  0
  5 51  1  0
  5  6  1  0
  6  7  1  0
  6  8  1  0
  9 10  1  0
 11 22  2  0
 12 10  1  0
 12 17  1  0
 13 21  1  0
 13 23  1  0
 14 20  1  0
 14 16  1  0
 15 21  1  0
 16 15  1  0
 17 16  2  0
 18 19  1  0
 18 12  2  0
 19 14  2  0
 20 13  1  0
 21 11  1  0
 23 25  2  0
 24 23  1  0
 26 24  1  0
 27 36  2  0
 27 32  1  0
 28 24  1  0
 28 32  1  0
 29 28  1  0
 30 31  1  0
 30 29  1  0
 31 27  1  0
 32 33  2  0
 33 34  1  0
 35 34  2  0
 36 35  1  0
 37 11  1  0
 37 42  1  0
 37 38  1  0
 38 41  1  1
 38 39  1  0
 40 38  1  0
 42 45  1  0
 43 47  1  0
 43 42  1  0
 44 43  2  0
 47 46  1  0
 49 47  1  0
 49 50  1  0
 49 48  1  0
 51 52  1  0
 53 64  1  0
 54 59  1  0
 55 56  1  0
 55 54  1  0
 57 56  1  0
 57 68  1  0
 57 58  1  0
 59 53  1  0
 59 58  1  0
 60 53  2  0
 61 63  1  0
 61 64  1  0
 63 52  1  0
 63 62  1  0
 64 62  1  0
 65 66  2  0
 66 85  1  0
 67 66  1  0
 67 70  1  0
 68 65  1  0
 68 69  1  0
 69 67  2  0
 70 71  1  0
 71 72  2  0
 73 76  1  0
 73 72  1  0
 74 73  2  0
 75 74  1  0
 75 70  2  0
 76 77  1  0
 77 78  1  0
 78 79  2  0
 80 79  1  0
 80 84  1  0
 81 80  2  0
 82 77  2  0
 82 81  1  0
 83 82  1  0
 85 86  1  0
 86 89  1  0
 86 88  1  0
 87 85  2  0
 90 91  1  0
 90 65  1  0
 92 90  1  0
M  ISO  4   9 101  10 101  53 100  64 100
M  END
>  <TORSDO>  (3) 
F 19

>  <SCORE>  (3) 
-14.312

>  <name>  (3) 
2

>  <ligand_id>  (3) 
2

>  <original_smiles>  (3) 
[H]c1c([H])c([H])c2c(c1[H])C([H])([H])C([H])([H])C([H])([H])C2([H])N([H])C(=O)C1([H])N(C(=O)C([H])(N([H])C(=O)C([H])(N([H])C([H])([H])[H])C([H])([H])[H])C(C([H])([H])[H])(C([H])([H])[H])C([H])([H])[H])C([H])([H])c2c([H])c(OC([H])([H])C3([H])C([H])([H])C([H])([H])C([H])(C([H])([H])C([H])([H])C4([H])C([H])([H])N(C(=O)N5C([H])([H])C([H])([H])C([H])([H])C([H])(n6nc(-c7c([H])c([H])c(Oc8c([H])c([H])c(F)c([H])c8F)c([H])c7[H])c(C(=O)N([H])[H])c6N([H])[H])C5([H])[H])C4([H])[H])[N+]([H])([H])C3([H])[H])c([H])c([H])c2C1([H])[H]

>  <smiles>  (3) 
[H]c1c([H])c([H])c2c(c1[H])C([H])([H])C([H])([H])C([H])([H])C2([H])N([H])C(=O)C1([H])N(C(=O)C([H])(N([H])C(=O)C([H])(N([H])C([H])([H])[H])C([H])([H])[H])C(C([H])([H])[H])(C([H])([H])[H])C([H])([H])[H])C([H])([H])c2c([H])c(OC([H])([H])C3([H])C([H])([H])C([H])([H])C([H])(C([H])([H])C([H])([H])C4([H])C([H])([H])N(C(=O)N5C([H])([H])C([H])([H])C([H])([H])C([H])(n6nc(-c7c([H])c([H])c(Oc8c([H])c([H])c(F)c([H])c8F)c([H])c7[H])c(C(=O)N([H])[H])c6N([H])[H])C5([H])[H])C4([H])[H])[N+]([H])([H])C3([H])[H])c([H])c([H])c2C1([H])[H]

$$$$
3:0:0
     RDKit          3D

 88 96  0  0  1  0  0  0  0  0999 V2000
  -30.9900  -20.9320   20.7360 C   0  0  0  0  0  3  0  0  0  0  0  0
  -31.1300  -19.4230   20.2290 C   0  0  0  0  0  3  0  0  0  0  0  0
  -28.8370  -20.1510   19.3180 C   0  0  0  0  0  3  0  0  0  0  0  0
  -30.0050  -18.7070   19.3900 C   0  0  0  0  0  0  0  0  0  0  0  0
  -29.1770  -21.9780   19.4110 C   0  0  0  0  0  0  0  0  0  0  0  0
  -30.2290  -21.9590   20.4440 N   0  0  0  0  0  0  0  0  0  0  0  0
  -30.5220  -15.5510   19.2030 C   0  0  0  0  0  0  0  0  0  0  0  0
  -30.3610  -13.0550   18.2300 C   0  0  0  0  0  2  0  0  0  0  0  0
  -29.2670  -12.7840   17.1580 C   0  0  0  0  0  2  0  0  0  0  0  0
  -27.9210  -12.4360   17.8120 C   0  0  0  0  0  2  0  0  0  0  0  0
  -27.6380  -13.3550   19.0190 C   0  0  0  0  0  3  0  0  0  0  0  0
  -28.8540  -13.5530   19.9570 C   0  0  0  0  0  2  0  0  0  0  0  0
  -29.9370  -14.1990   19.1680 N   0  0  0  0  0  0  0  0  0  0  0  0
  -31.6420  -15.4750   18.6620 O   0  0  0  0  0  0  0  0  0  0  0  0
  -29.9130  -16.9360   19.6470 N   0  0  0  0  0  0  0  0  0  0  0  0
  -25.4350  -13.8580   20.1920 C   0  0  0  0  0  0  0  0  0  0  0  0
  -24.4480  -13.0760   20.7070 C   0  0  0  0  0  0  0  0  0  0  0  0
  -24.8730  -11.7280   20.5070 C   0  0  0  0  0  0  0  0  0  0  0  0
  -26.4140  -12.9990   19.7290 N   0  0  0  0  0  0  0  0  0  0  0  0
  -26.0950  -11.7000   19.9760 N   0  0  0  0  0  0  0  0  0  0  0  0
  -24.1470  -10.4720   20.7300 C   0  0  0  0  0  0  0  0  0  0  0  0
  -24.6360   -9.4800   21.6070 C   0  0  0  0  0  3  0  0  0  0  0  0
  -23.9020   -8.2940   21.8220 C   0  0  0  0  0  3  0  0  0  0  0  0
  -22.6670   -8.0920   21.1610 C   0  0  0  0  0  0  0  0  0  0  0  0
  -22.1990   -9.0720   20.2690 C   0  0  0  0  0  3  0  0  0  0  0  0
  -22.9330  -10.2490   20.0510 C   0  0  0  0  0  3  0  0  0  0  0  0
  -21.8980   -6.9600   21.2900 O   0  0  0  0  0  0  0  0  0  0  0  0
  -21.7890   -6.3020   22.4880 C   0  0  0  0  0  0  0  0  0  0  0  0
  -21.3250   -6.9500   23.6540 C   0  0  0  0  0  3  0  0  0  0  0  0
  -21.1560   -6.2180   24.8460 C   0  0  0  0  0  3  0  0  0  0  0  0
  -21.4400   -4.8400   24.8740 C   0  0  0  0  0  0  0  0  0  0  0  0
  -21.8980   -4.1920   23.7120 C   0  0  0  0  0  3  0  0  0  0  0  0
  -22.0680   -4.9210   22.5230 C   0  0  0  0  0  0  0  0  0  0  0  0
  -22.4860   -4.2870   21.4000 F   0  0  0  0  0  0  0  0  0  0  0  0
  -21.2730   -4.1360   26.0170 F   0  0  0  0  0  0  0  0  0  0  0  0
  -23.1340  -13.5620   21.2450 C   0  0  0  0  0  0  0  0  0  0  0  0
  -22.5690  -12.8450   22.2060 N   0  0  0  0  0  0  0  0  0  0  0  0
  -22.6280  -14.6130   20.8510 O   0  0  0  0  0  0  0  0  0  0  0  0
  -22.9980  -11.9930   22.5380 H   0  0  0  0  0  0  0  0  0  0  0  0
  -21.6940  -13.1450   22.6130 H   0  0  0  0  0  0  0  0  0  0  0  0
  -25.5480  -15.2290   20.0380 N   0  0  0  0  0  0  0  0  0  0  0  0
  -24.8210  -15.8720   20.3320 H   0  0  0  0  0  0  0  0  0  0  0  0
  -26.3300  -15.6910   19.5970 H   0  0  0  0  0  0  0  0  0  0  0  0
  -29.4860  -16.8550   21.0520 C   0  0  0  0  0  2  0  0  0  0  0  0
  -27.5380  -15.4650   21.9340 C   0  0  0  0  0  1  0  0  0  0  0  0
  -27.9700  -16.7320   21.1860 C   0  0  0  0  0  2  0  0  0  0  0  0
  -28.1620  -23.6450   19.4560 C   0  0  0  0  0  2  0  0  0  0  0  0
  -28.3010  -25.4000   19.4820 O   0  0  0  0  0  0  0  0  0  0  0  0
  -24.6500  -31.4010   22.8060 C   0  0  0  0  0  0  0  0  0  0  0  0
  -27.2800  -26.5700   19.5290 C   0  0  0  0  0  0  0  0  0  0  0  0
  -23.4790  -30.0640   21.1070 C   0  0  0  0  0  3  0  0  0  0  0  0
  -24.9520  -28.5310   19.5970 C   0  0  0  0  0  0  0  0  0  0  0  0
  -26.0510  -30.2840   20.9670 C   0  0  0  0  0  2  0  0  0  0  0  0
  -26.1460  -28.8910   20.2350 C   0  0  0  0  0  0  0  0  0  0  0  0
  -27.2930  -27.9410   20.1680 C   0  0  0  0  0  3  0  0  0  0  0  0
  -26.0420  -26.4160   18.8500 C   0  0  0  0  0  3  0  0  0  0  0  0
  -24.9380  -27.3220   18.8820 C   0  0  0  0  0  3  0  0  0  0  0  0
  -23.7220  -29.4490   19.6990 C   0  0  0  0  0  2  0  0  0  0  0  0
  -24.7500  -30.6140   21.6810 N   0  0  0  0  0  0  0  0  0  0  0  0
  -23.5550  -31.6460   23.3420 O   0  0  0  0  0  0  0  0  0  0  0  0
  -22.7970  -29.0180   22.0290 C   0  0  0  0  0  0  0  0  0  0  0  0
  -21.4600  -28.8780   21.9470 N   0  0  0  0  0  0  0  0  0  0  0  0
  -23.4820  -28.3340   22.7930 O   0  0  0  0  0  0  0  0  0  0  0  0
  -20.9570  -29.4850   21.3130 H   0  0  0  0  0  0  0  0  0  0  0  0
  -18.0790  -27.7010   22.5680 C   0  0  0  0  0  0  0  0  0  0  0  0
  -20.6580  -27.8900   22.6770 C   0  0  0  0  0  3  0  0  0  0  0  0
  -20.6810  -26.5190   21.9630 C   0  0  0  0  0  2  0  0  0  0  0  0
  -19.5050  -26.3210   20.9990 C   0  0  0  0  0  2  0  0  0  0  0  0
  -18.1740  -26.4260   21.7480 C   0  0  0  0  0  2  0  0  0  0  0  0
  -19.2430  -28.3970   22.9910 C   0  0  0  0  0  0  0  0  0  0  0  0
  -19.0950  -29.5920   23.7270 C   0  0  0  0  0  3  0  0  0  0  0  0
  -17.8160  -30.0910   24.0400 C   0  0  0  0  0  3  0  0  0  0  0  0
  -16.6680  -29.3920   23.6280 C   0  0  0  0  0  3  0  0  0  0  0  0
  -16.8010  -28.1980   22.8970 C   0  0  0  0  0  3  0  0  0  0  0  0
  -25.9030  -32.0460   23.4700 C   0  0  0  0  0  3  0  0  0  0  0  0
  -26.4550  -31.2070   24.6910 C   0  0  1  0  0  0  0  0  0  0  0  0
  -25.3820  -30.8720   25.7540 C   0  0  0  0  0  1  0  0  0  0  0  0
  -27.0700  -29.8720   24.2150 C   0  0  0  0  0  1  0  0  0  0  0  0
  -27.5920  -31.9890   25.3910 C   0  0  0  0  0  1  0  0  0  0  0  0
  -25.5380  -33.4030   23.9210 N   0  0  0  0  0  0  0  0  0  0  0  0
  -25.8040  -34.5350   23.2560 C   0  0  0  0  0  0  0  0  0  0  0  0
  -26.4400  -34.5500   22.2000 O   0  0  0  0  0  0  0  0  0  0  0  0
  -24.9640  -33.4610   24.7490 H   0  0  0  0  0  0  0  0  0  0  0  0
  -23.9980  -36.2890   23.1350 C   0  0  0  0  0  1  0  0  0  0  0  0
  -25.2890  -35.8620   23.8540 C   0  0  0  0  0  3  0  0  0  0  0  0
  -27.4140  -36.7750   24.6850 C   0  0  0  0  0  1  0  0  0  0  0  0
  -26.2750  -36.9640   23.7910 N   0  0  0  0  0  0  0  0  0  0  0  0
  -25.8370  -37.8540   24.0180 H   0  0  0  0  0  0  0  0  0  0  0  0
  2  1  2  0
  3  4  2  0
  3  5  1  0
  4 15  1  0
  4  2  1  0
  5 47  1  0
  5  6  2  0
  6  1  1  0
  7 15  1  0
  8 13  1  0
  9 10  1  0
  9  8  1  0
 11 10  1  0
 11 19  1  0
 11 12  1  0
 13  7  1  0
 13 12  1  0
 14  7  2  0
 15 44  1  0
 16 17  2  0
 17 36  1  0
 18 17  1  0
 18 21  1  0
 19 20  1  0
 19 16  1  0
 20 18  2  0
 21 22  1  0
 22 23  2  0
 24 27  1  0
 24 23  1  0
 25 24  2  0
 26 25  1  0
 26 21  2  0
 27 28  1  0
 28 33  2  0
 28 29  1  0
 29 30  2  0
 30 31  1  0
 31 35  1  0
 32 31  2  0
 33 32  1  0
 34 33  1  0
 36 37  1  0
 37 39  1  0
 37 40  1  0
 38 36  2  0
 41 16  1  0
 41 42  1  0
 43 41  1  0
 44 46  1  0
 46 45  1  0
 47 48  1  0
 48 50  1  0
 49 60  2  0
 50 55  1  0
 51 59  1  0
 51 61  1  0
 52 58  1  0
 52 54  1  0
 53 59  1  0
 54 53  1  0
 55 54  2  0
 56 57  1  0
 56 50  2  0
 57 52  2  0
 58 51  1  0
 59 49  1  0
 61 63  2  0
 62 61  1  0
 64 62  1  0
 65 74  2  0
 65 70  1  0
 66 62  1  0
 66 70  1  0
 67 66  1  0
 68 69  1  0
 68 67  1  0
 69 65  1  0
 70 71  2  0
 71 72  1  0
 73 72  2  0
 74 73  1  0
 75 49  1  0
 75 80  1  0
 75 76  1  0
 76 79  1  1
 76 77  1  0
 78 76  1  0
 80 83  1  0
 81 85  1  0
 81 80  1  0
 82 81  2  0
 85 84  1  0
 87 85  1  0
 87 88  1  0
 87 86  1  0
M  ISO  4   7 100  15 100  47 101  48 101
M  END
>  <TORSDO>  (4) 
F 19

>  <SCORE>  (4) 
-9.447

>  <name>  (4) 
3

>  <ligand_id>  (4) 
3

>  <original_smiles>  (4) 
[H]C1=NC([H])(C([H])([H])Oc2c([H])c([H])c3c(c2[H])C([H])([H])N(C(=O)C([H])(N([H])C(=O)C([H])(N([H])C([H])([H])[H])C([H])([H])[H])C(C([H])([H])[H])(C([H])([H])[H])C([H])([H])[H])C([H])(C(=O)N([H])C2([H])c4c([H])c([H])c([H])c([H])c4C([H])([H])C([H])([H])C2([H])[H])C3([H])[H])C([H])([H])C([H])(N(C(=O)N2C([H])([H])C([H])([H])C([H])([H])C([H])(n3nc(-c4c([H])c([H])c(Oc5c([H])c([H])c(F)c([H])c5F)c([H])c4[H])c(C(=O)N([H])[H])c3N([H])[H])C2([H])[H])C([H])([H])C([H])([H])C([H])([H])[H])C1([H])[H]

>  <smiles>  (4) 
[H]C1=NC([H])(C([H])([H])Oc2c([H])c([H])c3c(c2[H])C([H])([H])N(C(=O)C([H])(N([H])C(=O)C([H])(N([H])C([H])([H])[H])C([H])([H])[H])C(C([H])([H])[H])(C([H])([H])[H])C([H])([H])[H])C([H])(C(=O)N([H])C2([H])c4c([H])c([H])c([H])c([H])c4C([H])([H])C([H])([H])C2([H])[H])C3([H])[H])C([H])([H])C([H])(N(C(=O)N2C([H])([H])C([H])([H])C([H])([H])C([H])(n3nc(-c4c([H])c([H])c(Oc5c([H])c([H])c(F)c([H])c5F)c([H])c4[H])c(C(=O)N([H])[H])c3N([H])[H])C2([H])[H])C([H])([H])C([H])([H])C([H])([H])[H])C1([H])[H]

$$$$
4:0:0
     RDKit          3D

 88 97  0  0  1  0  0  0  0  0999 V2000
  -30.4100  -15.3180   20.3550 C   0  0  0  0  0  0  0  0  0  0  0  0
  -30.3900  -12.8780   19.4630 C   0  0  0  0  0  2  0  0  0  0  0  0
  -29.4830  -12.6580   18.2290 C   0  0  0  0  0  2  0  0  0  0  0  0
  -28.0240  -12.4000   18.6510 C   0  0  0  0  0  2  0  0  0  0  0  0
  -27.5650  -13.3460   19.7910 C   0  0  0  0  0  3  0  0  0  0  0  0
  -28.6100  -13.5050   20.9110 C   0  0  0  0  0  2  0  0  0  0  0  0
  -29.8250  -14.0220   20.2620 N   0  0  0  0  0  0  0  0  0  0  0  0
  -31.6480  -15.2770   20.2780 O   0  0  0  0  0  0  0  0  0  0  0  0
  -29.3930  -21.0140   18.1990 C   0  0  0  0  0  2  0  0  0  0  0  0
  -28.4860  -22.1790   18.7650 C   0  0  0  0  0  2  0  0  0  0  0  0
  -28.6400  -18.4030   18.5160 C   0  0  0  0  0  2  0  0  0  0  0  0
  -28.8250  -21.1610   20.9710 C   0  0  0  0  0  2  0  0  0  0  0  0
  -29.2210  -16.9540   18.8340 C   0  0  0  0  0  2  0  0  0  0  0  0
  -29.6040  -18.0330   21.0420 C   0  0  0  0  0  2  0  0  0  0  0  0
  -29.5440  -19.6060   18.9180 C   0  0  0  0  0  3  0  0  0  0  0  0
  -29.6140  -19.6870   20.4340 C   0  0  0  0  0  3  0  0  0  0  0  0
  -28.8480  -22.7230   20.1830 C   0  0  0  0  0  3  0  0  0  0  0  0
  -29.6830  -16.6200   20.2180 N   0  0  0  0  0  0  0  0  0  0  0  0
  -25.1900  -13.8930   20.5340 C   0  0  0  0  0  0  0  0  0  0  0  0
  -24.1290  -13.1120   20.8920 C   0  0  0  0  0  0  0  0  0  0  0  0
  -24.6040  -11.7630   20.8710 C   0  0  0  0  0  0  0  0  0  0  0  0
  -26.2390  -13.0220   20.2980 N   0  0  0  0  0  0  0  0  0  0  0  0
  -25.8990  -11.7360   20.5710 N   0  0  0  0  0  0  0  0  0  0  0  0
  -23.8810  -10.4980   21.0560 C   0  0  0  0  0  0  0  0  0  0  0  0
  -24.3120   -9.5310   21.9900 C   0  0  0  0  0  3  0  0  0  0  0  0
  -23.5870   -8.3320   22.1650 C   0  0  0  0  0  3  0  0  0  0  0  0
  -22.4170   -8.0930   21.4050 C   0  0  0  0  0  0  0  0  0  0  0  0
  -22.0060   -9.0480   20.4600 C   0  0  0  0  0  3  0  0  0  0  0  0
  -22.7320  -10.2380   20.2820 C   0  0  0  0  0  3  0  0  0  0  0  0
  -21.6630   -6.9470   21.4900 O   0  0  0  0  0  0  0  0  0  0  0  0
  -21.6120   -6.2010   22.6410 C   0  0  0  0  0  0  0  0  0  0  0  0
  -21.1880   -6.7530   23.8700 C   0  0  0  0  0  3  0  0  0  0  0  0
  -21.0860   -5.9340   25.0110 C   0  0  0  0  0  3  0  0  0  0  0  0
  -21.3950   -4.5640   24.9260 C   0  0  0  0  0  0  0  0  0  0  0  0
  -21.8100   -4.0110   23.7030 C   0  0  0  0  0  3  0  0  0  0  0  0
  -21.9170   -4.8270   22.5630 C   0  0  0  0  0  0  0  0  0  0  0  0
  -22.2970   -4.2830   21.3810 F   0  0  0  0  0  0  0  0  0  0  0  0
  -21.2900   -3.7750   26.0220 F   0  0  0  0  0  0  0  0  0  0  0  0
  -22.7260  -13.5830   21.1420 C   0  0  0  0  0  0  0  0  0  0  0  0
  -21.9910  -12.8900   22.0060 N   0  0  0  0  0  0  0  0  0  0  0  0
  -22.2890  -14.5990   20.6050 O   0  0  0  0  0  0  0  0  0  0  0  0
  -22.3580  -12.0700   22.4640 H   0  0  0  0  0  0  0  0  0  0  0  0
  -21.0480  -13.1890   22.2150 H   0  0  0  0  0  0  0  0  0  0  0  0
  -25.3500  -15.2640   20.3580 N   0  0  0  0  0  0  0  0  0  0  0  0
  -24.5810  -15.9170   20.4670 H   0  0  0  0  0  0  0  0  0  0  0  0
  -26.2080  -15.7110   20.0610 H   0  0  0  0  0  0  0  0  0  0  0  0
  -28.0060  -24.2780   20.5740 C   0  0  0  0  0  2  0  0  0  0  0  0
  -28.2450  -25.8940   20.3330 O   0  0  0  0  0  0  0  0  0  0  0  0
  -24.6590  -31.8920   23.2480 C   0  0  0  0  0  0  0  0  0  0  0  0
  -27.2230  -26.9790   20.3070 C   0  0  0  0  0  0  0  0  0  0  0  0
  -23.4710  -30.4790   21.6200 C   0  0  0  0  0  3  0  0  0  0  0  0
  -24.9250  -28.8550   20.2280 C   0  0  0  0  0  0  0  0  0  0  0  0
  -26.0390  -30.6880   21.4820 C   0  0  0  0  0  2  0  0  0  0  0  0
  -26.1120  -29.2700   20.8450 C   0  0  0  0  0  0  0  0  0  0  0  0
  -27.2580  -28.3540   20.8570 C   0  0  0  0  0  3  0  0  0  0  0  0
  -26.0060  -26.7140   19.6420 C   0  0  0  0  0  3  0  0  0  0  0  0
  -24.8970  -27.5980   19.6050 C   0  0  0  0  0  3  0  0  0  0  0  0
  -23.7070  -29.7770   20.2540 C   0  0  0  0  0  2  0  0  0  0  0  0
  -24.7440  -31.0470   22.1700 N   0  0  0  0  0  0  0  0  0  0  0  0
  -23.5690  -32.1870   23.7630 O   0  0  0  0  0  0  0  0  0  0  0  0
  -22.7730  -29.4930   22.5940 C   0  0  0  0  0  0  0  0  0  0  0  0
  -21.4420  -29.3300   22.4650 N   0  0  0  0  0  0  0  0  0  0  0  0
  -23.4350  -28.8780   23.4320 O   0  0  0  0  0  0  0  0  0  0  0  0
  -20.9610  -29.8760   21.7650 H   0  0  0  0  0  0  0  0  0  0  0  0
  -18.0600  -28.1190   22.9710 C   0  0  0  0  0  0  0  0  0  0  0  0
  -20.6170  -28.4010   23.2460 C   0  0  0  0  0  3  0  0  0  0  0  0
  -20.7280  -26.9590   22.6960 C   0  0  0  0  0  2  0  0  0  0  0  0
  -19.6340  -26.6170   21.6780 C   0  0  0  0  0  2  0  0  0  0  0  0
  -18.2480  -26.7640   22.3110 C   0  0  0  0  0  2  0  0  0  0  0  0
  -19.1720  -28.8950   23.3950 C   0  0  0  0  0  0  0  0  0  0  0  0
  -18.9410  -30.1620   23.9750 C   0  0  0  0  0  3  0  0  0  0  0  0
  -17.6320  -30.6540   24.1310 C   0  0  0  0  0  3  0  0  0  0  0  0
  -16.5350  -29.8770   23.7200 C   0  0  0  0  0  3  0  0  0  0  0  0
  -16.7500  -28.6120   23.1470 C   0  0  0  0  0  3  0  0  0  0  0  0
  -25.9270  -32.5430   23.8790 C   0  0  0  0  0  3  0  0  0  0  0  0
  -25.6020  -33.9420   24.2090 N   0  0  0  0  0  0  0  0  0  0  0  0
  -25.9210  -35.0040   23.4570 C   0  0  0  0  0  0  0  0  0  0  0  0
  -26.5820  -34.9080   22.4200 O   0  0  0  0  0  0  0  0  0  0  0  0
  -25.0130  -34.0870   25.0160 H   0  0  0  0  0  0  0  0  0  0  0  0
  -24.1750  -36.7910   23.1370 C   0  0  0  0  0  1  0  0  0  0  0  0
  -25.4330  -36.3890   23.9250 C   0  0  0  0  0  3  0  0  0  0  0  0
  -27.5750  -37.2930   24.7200 C   0  0  0  0  0  1  0  0  0  0  0  0
  -26.4550  -37.4510   23.7960 N   0  0  0  0  0  0  0  0  0  0  0  0
  -26.0450  -38.3690   23.9500 H   0  0  0  0  0  0  0  0  0  0  0  0
  -26.4340  -31.7860   25.1700 C   0  0  1  0  0  0  0  0  0  0  0  0
  -25.3350  -31.5590   26.2340 C   0  0  0  0  0  1  0  0  0  0  0  0
  -27.0220  -30.4040   24.8050 C   0  0  0  0  0  1  0  0  0  0  0  0
  -27.5790  -32.5890   25.8320 C   0  0  0  0  0  1  0  0  0  0  0  0
  2  7  1  0
  3  4  1  0
  3  2  1  0
  5  4  1  0
  5 22  1  0
  5  6  1  0
  7  1  1  0
  7  6  1  0
  8  1  2  0
  9 10  1  0
 10 17  1  0
 11 13  1  0
 11 15  1  0
 13 18  1  0
 15  9  1  0
 15 16  1  0
 16 12  1  0
 16 14  1  0
 17 47  1  0
 17 12  1  0
 18  1  1  0
 18 14  1  0
 19 20  2  0
 20 39  1  0
 21 20  1  0
 21 24  1  0
 22 19  1  0
 22 23  1  0
 23 21  2  0
 24 25  1  0
 25 26  2  0
 27 30  1  0
 27 26  1  0
 28 27  2  0
 29 28  1  0
 29 24  2  0
 30 31  1  0
 31 32  1  0
 32 33  2  0
 34 33  1  0
 34 38  1  0
 35 34  2  0
 36 31  2  0
 36 35  1  0
 37 36  1  0
 39 40  1  0
 40 43  1  0
 40 42  1  0
 41 39  2  0
 44 45  1  0
 44 19  1  0
 46 44  1  0
 48 47  1  0
 49 60  2  0
 50 48  1  0
 50 55  1  0
 51 59  1  0
 51 61  1  0
 52 58  1  0
 52 54  1  0
 53 59  1  0
 54 55  2  0
 54 53  1  0
 56 50  2  0
 57 56  1  0
 57 52  2  0
 58 51  1  0
 59 49  1  0
 61 63  2  0
 62 61  1  0
 64 62  1  0
 65 74  2  0
 65 70  1  0
 66 62  1  0
 66 70  1  0
 67 66  1  0
 68 69  1  0
 68 67  1  0
 69 65  1  0
 70 71  2  0
 71 72  1  0
 73 72  2  0
 74 73  1  0
 75 49  1  0
 75 76  1  0
 75 85  1  0
 76 79  1  0
 77 81  1  0
 77 76  1  0
 78 77  2  0
 81 80  1  0
 83 81  1  0
 83 84  1  0
 83 82  1  0
 85 88  1  1
 85 86  1  0
 87 85  1  0
M  ISO  4   1 100  18 100  47 101  48 101
M  END
>  <TORSDO>  (5) 
F 16

>  <SCORE>  (5) 
-16.712

>  <name>  (5) 
4

>  <ligand_id>  (5) 
4

>  <original_smiles>  (5) 
[H]c1c([H])c([H])c2c(c1[H])C([H])([H])C([H])([H])C([H])([H])C2([H])N([H])C(=O)C1([H])N(C(=O)C([H])(N([H])C(=O)C([H])(N([H])C([H])([H])[H])C([H])([H])[H])C(C([H])([H])[H])(C([H])([H])[H])C([H])([H])[H])C([H])([H])c2c([H])c(OC([H])([H])C3([H])C([H])([H])C([H])([H])C4([H])C([H])([H])C([H])([H])N(C(=O)N5C([H])([H])C([H])([H])C([H])([H])C([H])(n6nc(-c7c([H])c([H])c(Oc8c([H])c([H])c(F)c([H])c8F)c([H])c7[H])c(C(=O)N([H])[H])c6N([H])[H])C5([H])[H])C([H])([H])C4([H])C3([H])[H])c([H])c([H])c2C1([H])[H]

>  <smiles>  (5) 
[H]c1c([H])c([H])c2c(c1[H])C([H])([H])C([H])([H])C([H])([H])C2([H])N([H])C(=O)C1([H])N(C(=O)C([H])(N([H])C(=O)C([H])(N([H])C([H])([H])[H])C([H])([H])[H])C(C([H])([H])[H])(C([H])([H])[H])C([H])([H])[H])C([H])([H])c2c([H])c(OC([H])([H])C3([H])C([H])([H])C([H])([H])C4([H])C([H])([H])C([H])([H])N(C(=O)N5C([H])([H])C([H])([H])C([H])([H])C([H])(n6nc(-c7c([H])c([H])c(Oc8c([H])c([H])c(F)c([H])c8F)c([H])c7[H])c(C(=O)N([H])[H])c6N([H])[H])C5([H])[H])C([H])([H])C4([H])C3([H])[H])c([H])c([H])c2C1([H])[H]

$$$$
5:0:0
     RDKit          3D

 90 98  0  0  1  0  0  0  0  0999 V2000
  -31.8420  -19.5680   18.6900 C   0  0  0  0  0  2  0  0  0  0  0  0
  -31.9090  -20.9720   19.2970 C   0  0  0  0  0  2  0  0  0  0  0  0
  -30.3840  -19.0420   18.6580 C   0  0  0  0  0  2  0  0  0  0  0  0
  -31.2380  -21.0130   20.6760 C   0  0  0  0  0  2  0  0  0  0  0  0
  -29.6870  -19.0860   20.0410 C   0  0  0  0  0  3  0  0  0  0  0  0
  -29.8160  -20.5800   20.6090 N   0  0  2  0  0  4  0  0  0  0  0  0
  -29.5580  -20.4880   21.5840 H   0  0  0  0  0  0  0  0  0  0  0  0
  -30.1990  -17.6990   20.8690 C   0  0  0  0  0  2  0  0  0  0  0  0
  -30.5430  -14.9820   20.3660 C   0  0  0  0  0  0  0  0  0  0  0  0
  -30.3590  -12.6340   19.3980 C   0  0  0  0  0  2  0  0  0  0  0  0
  -29.4160  -12.5320   18.1740 C   0  0  0  0  0  2  0  0  0  0  0  0
  -27.9650  -12.3250   18.6260 C   0  0  0  0  0  2  0  0  0  0  0  0
  -27.5530  -13.2970   19.7550 C   0  0  0  0  0  3  0  0  0  0  0  0
  -28.6070  -13.3720   20.8830 C   0  0  0  0  0  2  0  0  0  0  0  0
  -29.8850  -13.7560   20.2610 N   0  0  0  0  0  0  0  0  0  0  0  0
  -31.7590  -14.9930   20.1520 O   0  0  0  0  0  0  0  0  0  0  0  0
  -29.8230  -16.2010   20.5070 N   0  0  0  0  0  0  0  0  0  0  0  0
  -28.8280  -16.0480   20.5370 H   0  0  0  0  0  0  0  0  0  0  0  0
  -25.1650  -13.8760   20.4750 C   0  0  0  0  0  0  0  0  0  0  0  0
  -24.1010  -13.1000   20.8400 C   0  0  0  0  0  0  0  0  0  0  0  0
  -24.5730  -11.7510   20.8340 C   0  0  0  0  0  0  0  0  0  0  0  0
  -26.2180  -13.0020   20.2600 N   0  0  0  0  0  0  0  0  0  0  0  0
  -25.8700  -11.7210   20.5450 N   0  0  0  0  0  0  0  0  0  0  0  0
  -23.8520  -10.4880   21.0220 C   0  0  0  0  0  0  0  0  0  0  0  0
  -24.2710   -9.5270   21.9670 C   0  0  0  0  0  3  0  0  0  0  0  0
  -23.5430   -8.3300   22.1410 C   0  0  0  0  0  3  0  0  0  0  0  0
  -22.3820   -8.0880   21.3700 C   0  0  0  0  0  0  0  0  0  0  0  0
  -21.9830   -9.0380   20.4140 C   0  0  0  0  0  3  0  0  0  0  0  0
  -22.7110  -10.2240   20.2380 C   0  0  0  0  0  3  0  0  0  0  0  0
  -21.6240   -6.9450   21.4590 O   0  0  0  0  0  0  0  0  0  0  0  0
  -21.5550   -6.2120   22.6170 C   0  0  0  0  0  0  0  0  0  0  0  0
  -21.1050   -6.7740   23.8310 C   0  0  0  0  0  3  0  0  0  0  0  0
  -20.9880   -5.9660   24.9800 C   0  0  0  0  0  3  0  0  0  0  0  0
  -21.3110   -4.5990   24.9150 C   0  0  0  0  0  0  0  0  0  0  0  0
  -21.7560   -4.0360   23.7070 C   0  0  0  0  0  3  0  0  0  0  0  0
  -21.8750   -4.8400   22.5610 C   0  0  0  0  0  0  0  0  0  0  0  0
  -22.2830   -4.2870   21.3940 F   0  0  0  0  0  0  0  0  0  0  0  0
  -21.1930   -3.8240   26.0180 F   0  0  0  0  0  0  0  0  0  0  0  0
  -22.6980  -13.5720   21.0860 C   0  0  0  0  0  0  0  0  0  0  0  0
  -21.9610  -12.8750   21.9410 N   0  0  0  0  0  0  0  0  0  0  0  0
  -22.2650  -14.5940   20.5530 O   0  0  0  0  0  0  0  0  0  0  0  0
  -22.3260  -12.0430   22.3800 H   0  0  0  0  0  0  0  0  0  0  0  0
  -21.0240  -13.1750   22.1620 H   0  0  0  0  0  0  0  0  0  0  0  0
  -25.3210  -15.2470   20.2750 N   0  0  0  0  0  0  0  0  0  0  0  0
  -24.5330  -15.8810   20.3180 H   0  0  0  0  0  0  0  0  0  0  0  0
  -26.1600  -15.6810   19.9150 H   0  0  0  0  0  0  0  0  0  0  0  0
  -28.8680  -21.7580   20.1000 C   0  0  0  0  0  2  0  0  0  0  0  0
  -29.1540  -23.4100   20.3620 C   0  0  0  0  0  3  0  0  0  0  0  0
  -28.0270  -24.6540   20.2150 C   0  0  0  0  0  3  0  0  0  0  0  0
  -28.2690  -26.1890   20.3090 O   0  0  0  0  0  0  0  0  0  0  0  0
  -24.6470  -31.8920   23.2720 C   0  0  0  0  0  0  0  0  0  0  0  0
  -27.1980  -27.1570   20.2580 C   0  0  0  0  0  0  0  0  0  0  0  0
  -23.4320  -30.5000   21.6450 C   0  0  0  0  0  3  0  0  0  0  0  0
  -24.8720  -28.9070   20.2320 C   0  0  0  0  0  0  0  0  0  0  0  0
  -25.9880  -30.7480   21.4680 C   0  0  0  0  0  2  0  0  0  0  0  0
  -26.0580  -29.3520   20.8250 C   0  0  0  0  0  0  0  0  0  0  0  0
  -27.2240  -28.4930   20.8230 C   0  0  0  0  0  3  0  0  0  0  0  0
  -25.9770  -26.8010   19.6420 C   0  0  0  0  0  3  0  0  0  0  0  0
  -24.8390  -27.6420   19.6300 C   0  0  0  0  0  3  0  0  0  0  0  0
  -23.6440  -29.8100   20.2740 C   0  0  0  0  0  2  0  0  0  0  0  0
  -24.7100  -31.0710   22.1820 N   0  0  0  0  0  0  0  0  0  0  0  0
  -23.5660  -32.1930   23.8000 O   0  0  0  0  0  0  0  0  0  0  0  0
  -22.7530  -29.5040   22.6140 C   0  0  0  0  0  0  0  0  0  0  0  0
  -21.4260  -29.3300   22.4830 N   0  0  0  0  0  0  0  0  0  0  0  0
  -23.4230  -28.8830   23.4420 O   0  0  0  0  0  0  0  0  0  0  0  0
  -20.9450  -29.8860   21.7900 H   0  0  0  0  0  0  0  0  0  0  0  0
  -18.0430  -28.1320   22.9840 C   0  0  0  0  0  0  0  0  0  0  0  0
  -20.6020  -28.4030   23.2610 C   0  0  0  0  0  3  0  0  0  0  0  0
  -20.7080  -26.9620   22.7050 C   0  0  0  0  0  2  0  0  0  0  0  0
  -19.6120  -26.6280   21.6880 C   0  0  0  0  0  2  0  0  0  0  0  0
  -18.2250  -26.7760   22.3210 C   0  0  0  0  0  2  0  0  0  0  0  0
  -19.1590  -28.9000   23.4080 C   0  0  0  0  0  0  0  0  0  0  0  0
  -18.9350  -30.1680   23.9840 C   0  0  0  0  0  3  0  0  0  0  0  0
  -17.6290  -30.6650   24.1470 C   0  0  0  0  0  3  0  0  0  0  0  0
  -16.5270  -29.8920   23.7400 C   0  0  0  0  0  3  0  0  0  0  0  0
  -16.7360  -28.6320   23.1580 C   0  0  0  0  0  3  0  0  0  0  0  0
  -25.9300  -32.5210   23.8920 C   0  0  0  0  0  3  0  0  0  0  0  0
  -26.4350  -31.7630   25.1780 C   0  0  1  0  0  0  0  0  0  0  0  0
  -25.3350  -31.5450   26.2470 C   0  0  0  0  0  1  0  0  0  0  0  0
  -27.0180  -30.3780   24.8170 C   0  0  0  0  0  1  0  0  0  0  0  0
  -27.5880  -32.5630   25.8360 C   0  0  0  0  0  1  0  0  0  0  0  0
  -25.6260  -33.9260   24.2140 N   0  0  0  0  0  0  0  0  0  0  0  0
  -25.9510  -34.9780   23.4530 C   0  0  0  0  0  0  0  0  0  0  0  0
  -26.6140  -34.8670   22.4180 O   0  0  0  0  0  0  0  0  0  0  0  0
  -25.0240  -34.0790   25.0120 H   0  0  0  0  0  0  0  0  0  0  0  0
  -24.2210  -36.7800   23.1330 C   0  0  0  0  0  1  0  0  0  0  0  0
  -25.4790  -36.3700   23.9140 C   0  0  0  0  0  3  0  0  0  0  0  0
  -27.6300  -37.2580   24.6960 C   0  0  0  0  0  1  0  0  0  0  0  0
  -26.5090  -37.4210   23.7740 N   0  0  0  0  0  0  0  0  0  0  0  0
  -26.1070  -38.3400   23.9340 H   0  0  0  0  0  0  0  0  0  0  0  0
  1  2  1  0
  2  4  1  0
  3  1  1  0
  3  5  1  0
  5  6  1  0
  5  8  1  0
  6  4  1  0
  6  7  1  1
  9 17  1  0
 10 15  1  0
 11 12  1  0
 11 10  1  0
 13 12  1  0
 13 22  1  0
 13 14  1  0
 15  9  1  0
 15 14  1  0
 16  9  2  0
 17 18  1  0
 17  8  1  0
 19 20  2  0
 20 39  1  0
 21 20  1  0
 21 24  1  0
 22 19  1  0
 22 23  1  0
 23 21  2  0
 24 25  1  0
 25 26  2  0
 27 30  1  0
 27 26  1  0
 28 27  2  0
 29 28  1  0
 29 24  2  0
 30 31  1  0
 31 32  1  0
 32 33  2  0
 34 33  1  0
 34 38  1  0
 35 34  2  0
 36 31  2  0
 36 35  1  0
 37 36  1  0
 39 40  1  0
 40 43  1  0
 40 42  1  0
 41 39  2  0
 44 45  1  0
 44 19  1  0
 46 44  1  0
 47 48  1  0
 47  6  1  0
 49 50  1  0
 49 48  2  0
 51 62  2  0
 52 50  1  0
 52 57  1  0
 53 61  1  0
 53 63  1  0
 54 60  1  0
 54 56  1  0
 55 61  1  0
 56 55  1  0
 57 56  2  0
 58 52  2  0
 59 58  1  0
 59 54  2  0
 60 53  1  0
 61 51  1  0
 63 65  2  0
 64 63  1  0
 66 64  1  0
 67 76  2  0
 67 72  1  0
 68 64  1  0
 68 72  1  0
 69 68  1  0
 70 71  1  0
 70 69  1  0
 71 67  1  0
 72 73  2  0
 73 74  1  0
 75 74  2  0
 76 75  1  0
 77 51  1  0
 77 82  1  0
 77 78  1  0
 78 81  1  1
 78 79  1  0
 80 78  1  0
 82 85  1  0
 83 87  1  0
 83 82  1  0
 84 83  2  0
 87 86  1  0
 89 87  1  0
 89 90  1  0
 89 88  1  0
M  ISO  4   9 100  17 100  49 101  50 101
M  END
>  <TORSDO>  (6) 
F 20

>  <SCORE>  (6) 
-15.096

>  <name>  (6) 
5

>  <ligand_id>  (6) 
5

>  <original_smiles>  (6) 
[H]c1c([H])c([H])c2c(c1[H])C([H])([H])C([H])([H])C([H])([H])C2([H])N([H])C(=O)C1([H])N(C(=O)C([H])(N([H])C(=O)C([H])(N([H])C([H])([H])[H])C([H])([H])[H])C(C([H])([H])[H])(C([H])([H])[H])C([H])([H])[H])C([H])([H])c2c([H])c(OC([H])([H])C([H])([H])C([H])([H])[N+]3([H])C([H])([H])C([H])([H])C([H])([H])C([H])([H])C3([H])C([H])([H])N([H])C(=O)N3C([H])([H])C([H])([H])C([H])([H])C([H])(n4nc(-c5c([H])c([H])c(Oc6c([H])c([H])c(F)c([H])c6F)c([H])c5[H])c(C(=O)N([H])[H])c4N([H])[H])C3([H])[H])c([H])c([H])c2C1([H])[H]

>  <smiles>  (6) 
[H]c1c([H])c([H])c2c(c1[H])C([H])([H])C([H])([H])C([H])([H])C2([H])N([H])C(=O)C1([H])N(C(=O)C([H])(N([H])C(=O)C([H])(N([H])C([H])([H])[H])C([H])([H])[H])C(C([H])([H])[H])(C([H])([H])[H])C([H])([H])[H])C([H])([H])c2c([H])c(OC([H])([H])C([H])([H])C([H])([H])[N+]3([H])C([H])([H])C([H])([H])C([H])([H])C([H])([H])C3([H])C([H])([H])N([H])C(=O)N3C([H])([H])C([H])([H])C([H])([H])C([H])(n4nc(-c5c([H])c([H])c(Oc6c([H])c([H])c(F)c([H])c6F)c([H])c5[H])c(C(=O)N([H])[H])c4N([H])[H])C3([H])[H])c([H])c([H])c2C1([H])[H]

$$$$
6:0:0
     RDKit          3D

 91 99  0  0  1  0  0  0  0  0999 V2000
  -29.8160  -21.2230   20.7430 N   0  0  1  0  0  4  0  0  0  0  0  0
  -30.6620  -21.6490   20.3950 H   0  0  0  0  0  0  0  0  0  0  0  0
  -31.4950  -21.3650   23.7580 C   0  0  0  0  0  2  0  0  0  0  0  0
  -30.6190  -22.3140   22.9380 C   0  0  0  0  0  2  0  0  0  0  0  0
  -31.3800  -20.3810   22.5920 C   0  0  0  0  0  2  0  0  0  0  0  0
  -30.0520  -21.0780   22.2100 C   0  0  0  0  0  3  0  0  0  0  0  0
  -29.8450  -19.8850   19.9800 C   0  0  0  0  0  2  0  0  0  0  0  0
  -29.4850  -18.4590   20.6560 C   0  0  0  0  0  3  0  0  0  0  0  0
  -30.2440  -17.1760   20.0590 C   0  0  0  0  0  3  0  0  0  0  0  0
  -30.5880  -14.6300   20.1900 C   0  0  0  0  0  0  0  0  0  0  0  0
  -30.2820  -12.4130   19.1130 C   0  0  0  0  0  2  0  0  0  0  0  0
  -29.3080  -12.5680   17.9240 C   0  0  0  0  0  2  0  0  0  0  0  0
  -27.8490  -12.4190   18.3960 C   0  0  0  0  0  2  0  0  0  0  0  0
  -27.5390  -13.2620   19.6620 C   0  0  0  0  0  3  0  0  0  0  0  0
  -28.6320  -13.1060   20.7430 C   0  0  0  0  0  2  0  0  0  0  0  0
  -29.9200  -13.4320   20.1220 N   0  0  0  0  0  0  0  0  0  0  0  0
  -31.7470  -14.7260   19.7800 O   0  0  0  0  0  0  0  0  0  0  0  0
  -29.8680  -15.7670   20.4810 N   0  0  0  0  0  0  0  0  0  0  0  0
  -28.9230  -15.6200   20.8000 H   0  0  0  0  0  0  0  0  0  0  0  0
  -25.1700  -13.8560   20.4540 C   0  0  0  0  0  0  0  0  0  0  0  0
  -24.1130  -13.0820   20.8480 C   0  0  0  0  0  0  0  0  0  0  0  0
  -24.5720  -11.7300   20.7950 C   0  0  0  0  0  0  0  0  0  0  0  0
  -26.2060  -12.9760   20.1860 N   0  0  0  0  0  0  0  0  0  0  0  0
  -25.8530  -11.6920   20.4530 N   0  0  0  0  0  0  0  0  0  0  0  0
  -23.8480  -10.4680   20.9970 C   0  0  0  0  0  0  0  0  0  0  0  0
  -24.2950   -9.4990   21.9220 C   0  0  0  0  0  3  0  0  0  0  0  0
  -23.5720   -8.3030   22.1120 C   0  0  0  0  0  3  0  0  0  0  0  0
  -22.3870   -8.0650   21.3750 C   0  0  0  0  0  0  0  0  0  0  0  0
  -21.9580   -9.0220   20.4390 C   0  0  0  0  0  3  0  0  0  0  0  0
  -22.6830  -10.2100   20.2480 C   0  0  0  0  0  3  0  0  0  0  0  0
  -21.6340   -6.9210   21.4750 O   0  0  0  0  0  0  0  0  0  0  0  0
  -21.5960   -6.1800   22.6300 C   0  0  0  0  0  0  0  0  0  0  0  0
  -21.1800   -6.7380   23.8580 C   0  0  0  0  0  3  0  0  0  0  0  0
  -21.0900   -5.9250   25.0050 C   0  0  0  0  0  3  0  0  0  0  0  0
  -21.4070   -4.5560   24.9250 C   0  0  0  0  0  0  0  0  0  0  0  0
  -21.8180   -3.9980   23.7020 C   0  0  0  0  0  3  0  0  0  0  0  0
  -21.9090   -4.8080   22.5570 C   0  0  0  0  0  0  0  0  0  0  0  0
  -22.2840   -4.2610   21.3750 F   0  0  0  0  0  0  0  0  0  0  0  0
  -21.3140   -3.7730   26.0260 F   0  0  0  0  0  0  0  0  0  0  0  0
  -22.7250  -13.5600   21.1620 C   0  0  0  0  0  0  0  0  0  0  0  0
  -22.0200  -12.8590   22.0420 N   0  0  0  0  0  0  0  0  0  0  0  0
  -22.2760  -14.5900   20.6610 O   0  0  0  0  0  0  0  0  0  0  0  0
  -22.3990  -12.0260   22.4670 H   0  0  0  0  0  0  0  0  0  0  0  0
  -21.0890  -13.1590   22.2940 H   0  0  0  0  0  0  0  0  0  0  0  0
  -25.3330  -15.2270   20.2790 N   0  0  0  0  0  0  0  0  0  0  0  0
  -24.5710  -15.8840   20.4140 H   0  0  0  0  0  0  0  0  0  0  0  0
  -26.1660  -15.6620   19.9030 H   0  0  0  0  0  0  0  0  0  0  0  0
  -28.7670  -22.2770   20.3480 C   0  0  0  0  0  2  0  0  0  0  0  0
  -29.1150  -23.8500   20.5190 C   0  0  0  0  0  3  0  0  0  0  0  0
  -28.0550  -24.9410   20.0270 C   0  0  0  0  0  3  0  0  0  0  0  0
  -28.2910  -26.3980   20.2450 O   0  0  0  0  0  0  0  0  0  0  0  0
  -24.5730  -31.8310   23.2390 C   0  0  0  0  0  0  0  0  0  0  0  0
  -27.1860  -27.2690   20.1750 C   0  0  0  0  0  0  0  0  0  0  0  0
  -23.3750  -30.4430   21.5850 C   0  0  0  0  0  3  0  0  0  0  0  0
  -24.8300  -28.9010   20.1570 C   0  0  0  0  0  0  0  0  0  0  0  0
  -25.9190  -30.7520   21.4210 C   0  0  0  0  0  2  0  0  0  0  0  0
  -25.9990  -29.3790   20.7650 C   0  0  0  0  0  0  0  0  0  0  0  0
  -27.1800  -28.5740   20.7640 C   0  0  0  0  0  3  0  0  0  0  0  0
  -25.9960  -26.8570   19.5320 C   0  0  0  0  0  3  0  0  0  0  0  0
  -24.8320  -27.6480   19.5310 C   0  0  0  0  0  3  0  0  0  0  0  0
  -23.5940  -29.7770   20.2040 C   0  0  0  0  0  2  0  0  0  0  0  0
  -24.6410  -31.0260   22.1380 N   0  0  0  0  0  0  0  0  0  0  0  0
  -23.4860  -32.1100   23.7670 O   0  0  0  0  0  0  0  0  0  0  0  0
  -22.7040  -29.4240   22.5360 C   0  0  0  0  0  0  0  0  0  0  0  0
  -21.3800  -29.2470   22.3960 N   0  0  0  0  0  0  0  0  0  0  0  0
  -23.3750  -28.7930   23.3570 O   0  0  0  0  0  0  0  0  0  0  0  0
  -20.8990  -29.8050   21.7040 H   0  0  0  0  0  0  0  0  0  0  0  0
  -17.9920  -28.0610   22.8640 C   0  0  0  0  0  0  0  0  0  0  0  0
  -20.5500  -28.3100   23.1550 C   0  0  0  0  0  3  0  0  0  0  0  0
  -20.6510  -26.8810   22.5730 C   0  0  0  0  0  2  0  0  0  0  0  0
  -19.5550  -26.5670   21.5480 C   0  0  0  0  0  2  0  0  0  0  0  0
  -18.1690  -26.7150   22.1830 C   0  0  0  0  0  2  0  0  0  0  0  0
  -19.1100  -28.8170   23.3070 C   0  0  0  0  0  0  0  0  0  0  0  0
  -18.8920  -30.0770   23.9030 C   0  0  0  0  0  3  0  0  0  0  0  0
  -17.5880  -30.5830   24.0630 C   0  0  0  0  0  3  0  0  0  0  0  0
  -16.4840  -29.8230   23.6380 C   0  0  0  0  0  3  0  0  0  0  0  0
  -16.6870  -28.5640   23.0450 C   0  0  0  0  0  3  0  0  0  0  0  0
  -25.8530  -32.4550   23.8730 C   0  0  0  0  0  3  0  0  0  0  0  0
  -25.5410  -33.8500   24.2210 N   0  0  0  0  0  0  0  0  0  0  0  0
  -25.8640  -34.9120   23.4730 C   0  0  0  0  0  0  0  0  0  0  0  0
  -26.5250  -34.8230   22.4350 O   0  0  0  0  0  0  0  0  0  0  0  0
  -24.9510  -33.9930   25.0280 H   0  0  0  0  0  0  0  0  0  0  0  0
  -24.1210  -36.6990   23.1610 C   0  0  0  0  0  1  0  0  0  0  0  0
  -25.3760  -36.2940   23.9510 C   0  0  0  0  0  3  0  0  0  0  0  0
  -27.5170  -37.1800   24.7620 C   0  0  0  0  0  1  0  0  0  0  0  0
  -26.4020  -37.3530   23.8340 N   0  0  0  0  0  0  0  0  0  0  0  0
  -25.9940  -38.2710   23.9950 H   0  0  0  0  0  0  0  0  0  0  0  0
  -26.3660  -31.6680   25.1410 C   0  0  1  0  0  0  0  0  0  0  0  0
  -25.2680  -31.4150   26.2020 C   0  0  0  0  0  1  0  0  0  0  0  0
  -26.9520  -30.2970   24.7340 C   0  0  0  0  0  1  0  0  0  0  0  0
  -27.5150  -32.4550   25.8140 C   0  0  0  0  0  1  0  0  0  0  0  0
  1  6  1  0
  1  2  1  6
  4  3  1  0
  5  3  1  0
  6  5  1  0
  6  4  1  0
  7  8  1  0
  7  1  1  0
  9 18  1  0
  9  8  2  0
 10 18  1  0
 11 16  1  0
 12 13  1  0
 12 11  1  0
 14 13  1  0
 14 23  1  0
 14 15  1  0
 16 10  1  0
 16 15  1  0
 17 10  2  0
 18 19  1  0
 20 21  2  0
 21 40  1  0
 22 21  1  0
 22 25  1  0
 23 24  1  0
 23 20  1  0
 24 22  2  0
 25 26  1  0
 26 27  2  0
 28 31  1  0
 28 27  1  0
 29 28  2  0
 30 29  1  0
 30 25  2  0
 31 32  1  0
 32 33  1  0
 33 34  2  0
 35 34  1  0
 35 39  1  0
 36 35  2  0
 37 32  2  0
 37 36  1  0
 38 37  1  0
 40 41  1  0
 41 44  1  0
 41 43  1  0
 42 40  2  0
 45 46  1  0
 45 20  1  0
 47 45  1  0
 48 49  1  0
 48  1  1  0
 50 51  1  0
 50 49  2  0
 52 63  2  0
 53 51  1  0
 53 58  1  0
 54 62  1  0
 54 64  1  0
 55 61  1  0
 55 57  1  0
 56 62  1  0
 57 56  1  0
 58 57  2  0
 59 53  2  0
 60 59  1  0
 60 55  2  0
 61 54  1  0
 62 52  1  0
 64 66  2  0
 65 64  1  0
 67 65  1  0
 68 77  2  0
 68 73  1  0
 69 65  1  0
 69 73  1  0
 70 69  1  0
 71 72  1  0
 71 70  1  0
 72 68  1  0
 73 74  2  0
 74 75  1  0
 76 75  2  0
 77 76  1  0
 78 52  1  0
 78 79  1  0
 78 88  1  0
 79 82  1  0
 80 84  1  0
 80 79  1  0
 81 80  2  0
 84 83  1  0
 86 84  1  0
 86 87  1  0
 86 85  1  0
 88 91  1  1
 88 89  1  0
 90 88  1  0
M  ISO  4  10 100  18 100  50 101  51 101
M  END
>  <TORSDO>  (7) 
F 23

>  <SCORE>  (7) 
-13.005

>  <name>  (7) 
6

>  <ligand_id>  (7) 
6

>  <original_smiles>  (7) 
[H]c1c([H])c([H])c2c(c1[H])C([H])([H])C([H])([H])C([H])([H])C2([H])N([H])C(=O)C1([H])N(C(=O)C([H])(N([H])C(=O)C([H])(N([H])C([H])([H])[H])C([H])([H])[H])C(C([H])([H])[H])(C([H])([H])[H])C([H])([H])[H])C([H])([H])c2c([H])c(OC([H])([H])C([H])([H])C([H])([H])[N+]([H])(C([H])([H])C([H])([H])C([H])([H])N([H])C(=O)N3C([H])([H])C([H])([H])C([H])([H])C([H])(n4nc(-c5c([H])c([H])c(Oc6c([H])c([H])c(F)c([H])c6F)c([H])c5[H])c(C(=O)N([H])[H])c4N([H])[H])C3([H])[H])C3([H])C([H])([H])C([H])([H])C3([H])[H])c([H])c([H])c2C1([H])[H]

>  <smiles>  (7) 
[H]c1c([H])c([H])c2c(c1[H])C([H])([H])C([H])([H])C([H])([H])C2([H])N([H])C(=O)C1([H])N(C(=O)C([H])(N([H])C(=O)C([H])(N([H])C([H])([H])[H])C([H])([H])[H])C(C([H])([H])[H])(C([H])([H])[H])C([H])([H])[H])C([H])([H])c2c([H])c(OC([H])([H])C([H])([H])C([H])([H])[N+]([H])(C([H])([H])C([H])([H])C([H])([H])N([H])C(=O)N3C([H])([H])C([H])([H])C([H])([H])C([H])(n4nc(-c5c([H])c([H])c(Oc6c([H])c([H])c(F)c([H])c6F)c([H])c5[H])c(C(=O)N([H])[H])c4N([H])[H])C3([H])[H])C3([H])C([H])([H])C([H])([H])C3([H])[H])c([H])c([H])c2C1([H])[H]

$$$$
7:0:0
     RDKit          3D

 90 97  0  0  1  0  0  0  0  0999 V2000
  -28.7640  -20.4780   21.3530 C   0  0  0  0  0  2  0  0  0  0  0  0
  -27.9890  -22.1090   21.1920 C   0  0  0  0  0  2  0  0  0  0  0  0
  -28.9910  -20.5640   19.1300 C   0  0  0  0  0  2  0  0  0  0  0  0
  -29.0800  -22.3710   19.2010 C   0  0  0  0  0  3  0  0  0  0  0  0
  -29.4620  -19.3220   20.2420 C   0  0  0  0  0  3  0  0  0  0  0  0
  -28.3840  -23.5470   20.2960 C   0  0  0  0  0  2  0  0  0  0  0  0
  -30.1950  -16.0260   20.1200 C   0  0  0  0  0  0  0  0  0  0  0  0
  -30.3730  -13.4310   19.2920 C   0  0  0  0  0  2  0  0  0  0  0  0
  -29.4870  -12.8920   18.1230 C   0  0  0  0  0  2  0  0  0  0  0  0
  -28.1010  -12.4690   18.6230 C   0  0  0  0  0  2  0  0  0  0  0  0
  -27.5660  -13.4770   19.6600 C   0  0  0  0  0  3  0  0  0  0  0  0
  -28.6020  -13.9000   20.7340 C   0  0  0  0  0  2  0  0  0  0  0  0
  -29.7050  -14.6180   20.0330 N   0  0  0  0  0  0  0  0  0  0  0  0
  -31.4340  -15.9300   19.9650 O   0  0  0  0  0  0  0  0  0  0  0  0
  -29.4290  -17.4500   20.1930 N   0  0  0  0  0  0  0  0  0  0  0  0
  -28.4550  -17.1870   20.2350 H   0  0  0  0  0  0  0  0  0  0  0  0
  -25.2260  -13.9520   20.5030 C   0  0  0  0  0  0  0  0  0  0  0  0
  -24.1870  -13.1510   20.8820 C   0  0  0  0  0  0  0  0  0  0  0  0
  -24.6760  -11.8090   20.8180 C   0  0  0  0  0  0  0  0  0  0  0  0
  -26.2750  -13.1010   20.2180 N   0  0  0  0  0  0  0  0  0  0  0  0
  -25.9620  -11.8020   20.4740 N   0  0  0  0  0  0  0  0  0  0  0  0
  -23.9680  -10.5340   21.0050 C   0  0  0  0  0  0  0  0  0  0  0  0
  -24.4130   -9.5690   21.9340 C   0  0  0  0  0  3  0  0  0  0  0  0
  -23.6990   -8.3640   22.1140 C   0  0  0  0  0  3  0  0  0  0  0  0
  -22.5250   -8.1170   21.3640 C   0  0  0  0  0  0  0  0  0  0  0  0
  -22.0990   -9.0700   20.4230 C   0  0  0  0  0  3  0  0  0  0  0  0
  -22.8140  -10.2650   20.2420 C   0  0  0  0  0  3  0  0  0  0  0  0
  -21.7820   -6.9630   21.4510 O   0  0  0  0  0  0  0  0  0  0  0  0
  -21.7210   -6.2330   22.6120 C   0  0  0  0  0  0  0  0  0  0  0  0
  -21.2450   -6.7900   23.8190 C   0  0  0  0  0  3  0  0  0  0  0  0
  -21.1320   -5.9850   24.9700 C   0  0  0  0  0  3  0  0  0  0  0  0
  -21.4880   -4.6230   24.9150 C   0  0  0  0  0  0  0  0  0  0  0  0
  -21.9580   -4.0660   23.7130 C   0  0  0  0  0  3  0  0  0  0  0  0
  -22.0710   -4.8680   22.5640 C   0  0  0  0  0  0  0  0  0  0  0  0
  -22.5030   -4.3210   21.4030 F   0  0  0  0  0  0  0  0  0  0  0  0
  -21.3730   -3.8470   26.0180 F   0  0  0  0  0  0  0  0  0  0  0  0
  -22.7900  -13.6050   21.1830 C   0  0  0  0  0  0  0  0  0  0  0  0
  -22.0870  -12.8900   22.0540 N   0  0  0  0  0  0  0  0  0  0  0  0
  -22.3320  -14.6320   20.6840 O   0  0  0  0  0  0  0  0  0  0  0  0
  -22.4740  -12.0590   22.4790 H   0  0  0  0  0  0  0  0  0  0  0  0
  -21.1510  -13.1760   22.3000 H   0  0  0  0  0  0  0  0  0  0  0  0
  -25.3610  -15.3280   20.3420 N   0  0  0  0  0  0  0  0  0  0  0  0
  -24.5890  -15.9690   20.4930 H   0  0  0  0  0  0  0  0  0  0  0  0
  -26.1940  -15.7840   19.9980 H   0  0  0  0  0  0  0  0  0  0  0  0
  -28.6780  -22.8360   17.7970 C   0  0  0  0  0  0  0  0  0  0  0  0
  -29.6100  -23.3920   17.0290 N   0  0  0  0  0  0  0  0  0  0  0  0
  -27.5310  -22.6770   17.3870 O   0  0  0  0  0  0  0  0  0  0  0  0
  -30.5520  -23.5210   17.3730 H   0  0  0  0  0  0  0  0  0  0  0  0
  -29.3850  -23.7020   16.0940 H   0  0  0  0  0  0  0  0  0  0  0  0
  -28.1790  -25.4070   20.3660 O   0  0  0  0  0  1  0  0  0  0  0  0
  -24.6680  -31.9020   23.2480 C   0  0  0  0  0  0  0  0  0  0  0  0
  -27.1840  -26.6630   20.3040 C   0  0  0  0  0  0  0  0  0  0  0  0
  -23.4880  -30.5000   21.6140 C   0  0  0  0  0  3  0  0  0  0  0  0
  -24.9330  -28.8070   20.2230 C   0  0  0  0  0  0  0  0  0  0  0  0
  -26.0730  -30.5880   21.5170 C   0  0  0  0  0  2  0  0  0  0  0  0
  -26.1310  -29.1330   20.8670 C   0  0  0  0  0  0  0  0  0  0  0  0
  -27.2300  -28.0960   20.8660 C   0  0  0  0  0  3  0  0  0  0  0  0
  -25.9480  -26.5870   19.5980 C   0  0  0  0  0  3  0  0  0  0  0  0
  -24.8910  -27.5630   19.5640 C   0  0  0  0  0  3  0  0  0  0  0  0
  -23.7370  -29.7840   20.2520 C   0  0  0  0  0  2  0  0  0  0  0  0
  -24.7680  -31.0350   22.1780 N   0  0  0  0  0  0  0  0  0  0  0  0
  -23.5720  -32.2140   23.7480 O   0  0  0  0  0  0  0  0  0  0  0  0
  -22.7500  -29.5440   22.5910 C   0  0  0  0  0  0  0  0  0  0  0  0
  -21.4160  -29.3980   22.4610 N   0  0  0  0  0  0  0  0  0  0  0  0
  -23.3940  -28.9260   23.4420 O   0  0  0  0  0  0  0  0  0  0  0  0
  -20.9420  -29.9430   21.7540 H   0  0  0  0  0  0  0  0  0  0  0  0
  -18.0230  -28.1870   22.9620 C   0  0  0  0  0  0  0  0  0  0  0  0
  -20.5820  -28.4680   23.2360 C   0  0  0  0  0  3  0  0  0  0  0  0
  -20.6910  -27.0300   22.6760 C   0  0  0  0  0  2  0  0  0  0  0  0
  -19.5980  -26.6970   21.6560 C   0  0  0  0  0  2  0  0  0  0  0  0
  -18.2110  -26.8390   22.2880 C   0  0  0  0  0  2  0  0  0  0  0  0
  -19.1370  -28.9610   23.3920 C   0  0  0  0  0  0  0  0  0  0  0  0
  -18.9030  -30.2190   23.9860 C   0  0  0  0  0  3  0  0  0  0  0  0
  -17.5930  -30.7080   24.1510 C   0  0  0  0  0  3  0  0  0  0  0  0
  -16.4970  -29.9330   23.7340 C   0  0  0  0  0  3  0  0  0  0  0  0
  -16.7120  -28.6740   23.1460 C   0  0  0  0  0  3  0  0  0  0  0  0
  -25.9250  -32.5600   23.8970 C   0  0  0  0  0  3  0  0  0  0  0  0
  -25.6060  -33.9680   24.2160 N   0  0  0  0  0  0  0  0  0  0  0  0
  -25.9320  -35.0260   23.4610 C   0  0  0  0  0  0  0  0  0  0  0  0
  -26.5870  -34.9210   22.4220 O   0  0  0  0  0  0  0  0  0  0  0  0
  -25.0240  -34.1220   25.0260 H   0  0  0  0  0  0  0  0  0  0  0  0
  -24.1940  -36.8280   23.1620 C   0  0  0  0  0  1  0  0  0  0  0  0
  -25.4640  -36.4210   23.9300 C   0  0  0  0  0  3  0  0  0  0  0  0
  -27.6230  -37.3240   24.6810 C   0  0  0  0  0  1  0  0  0  0  0  0
  -26.4900  -37.4770   23.7730 N   0  0  0  0  0  0  0  0  0  0  0  0
  -26.0850  -38.3970   23.9230 H   0  0  0  0  0  0  0  0  0  0  0  0
  -26.3980  -31.8180   25.2110 C   0  0  1  0  0  0  0  0  0  0  0  0
  -25.2730  -31.6200   26.2550 C   0  0  0  0  0  1  0  0  0  0  0  0
  -26.9820  -30.4260   24.8870 C   0  0  0  0  0  1  0  0  0  0  0  0
  -27.5370  -32.6210   25.8830 C   0  0  0  0  0  1  0  0  0  0  0  0
  2  1  1  0
  3  4  1  0
  3  5  1  0
  4 45  1  0
  4  6  1  0
  5 15  1  0
  5  1  1  0
  6  2  1  0
  7 15  1  0
  8 13  1  0
  9 10  1  0
  9  8  1  0
 11 10  1  0
 11 20  1  0
 11 12  1  0
 13  7  1  0
 13 12  1  0
 14  7  2  0
 15 16  1  0
 17 18  2  0
 18 37  1  0
 19 18  1  0
 19 22  1  0
 20 21  1  0
 20 17  1  0
 21 19  2  0
 22 23  1  0
 23 24  2  0
 25 28  1  0
 25 24  1  0
 26 25  2  0
 27 26  1  0
 27 22  2  0
 28 29  1  0
 29 30  1  0
 30 31  2  0
 32 31  1  0
 32 36  1  0
 33 32  2  0
 34 29  2  0
 34 33  1  0
 35 34  1  0
 37 38  1  0
 38 41  1  0
 38 40  1  0
 39 37  2  0
 42 43  1  0
 42 17  1  0
 44 42  1  0
 46 48  1  0
 46 45  1  0
 47 45  2  0
 49 46  1  0
 51 62  2  0
 52 50  1  0
 52 57  1  0
 53 61  1  0
 53 63  1  0
 54 60  1  0
 54 56  1  0
 55 61  1  0
 56 55  1  0
 57 56  2  0
 58 52  2  0
 59 58  1  0
 59 54  2  0
 60 53  1  0
 61 51  1  0
 63 65  2  0
 64 63  1  0
 66 64  1  0
 67 76  2  0
 67 72  1  0
 68 64  1  0
 68 72  1  0
 69 68  1  0
 70 71  1  0
 70 69  1  0
 71 67  1  0
 72 73  2  0
 73 74  1  0
 75 74  2  0
 76 75  1  0
 77 51  1  0
 77 78  1  0
 77 87  1  0
 78 81  1  0
 79 83  1  0
 79 78  1  0
 80 79  2  0
 83 82  1  0
 85 86  1  0
 85 83  1  0
 85 84  1  0
 87 90  1  1
 87 88  1  0
 89 87  1  0
M  ISO  4   6 101   7 100  15 100  50 101
M  END
>  <TORSDO>  (8) 
F 17

>  <SCORE>  (8) 
-16.171

>  <name>  (8) 
7

>  <ligand_id>  (8) 
7

>  <original_smiles>  (8) 
[H]c1c([H])c([H])c2c(c1[H])C([H])([H])C([H])([H])C([H])([H])C2([H])N([H])C(=O)C1([H])N(C(=O)C([H])(N([H])C(=O)C([H])(N([H])C([H])([H])[H])C([H])([H])[H])C(C([H])([H])[H])(C([H])([H])[H])C([H])([H])[H])C([H])([H])c2c([H])c(OC3([H])C([H])([H])C([H])([H])C([H])(N([H])C(=O)N4C([H])([H])C([H])([H])C([H])([H])C([H])(n5nc(-c6c([H])c([H])c(Oc7c([H])c([H])c(F)c([H])c7F)c([H])c6[H])c(C(=O)N([H])[H])c5N([H])[H])C4([H])[H])C([H])([H])C3([H])C(=O)N([H])[H])c([H])c([H])c2C1([H])[H]

>  <smiles>  (8) 
[H]c1c([H])c([H])c2c(c1[H])C([H])([H])C([H])([H])C([H])([H])C2([H])N([H])C(=O)C1([H])N(C(=O)C([H])(N([H])C(=O)C([H])(N([H])C([H])([H])[H])C([H])([H])[H])C(C([H])([H])[H])(C([H])([H])[H])C([H])([H])[H])C([H])([H])c2c([H])c(OC3([H])C([H])([H])C([H])([H])C([H])(N([H])C(=O)N4C([H])([H])C([H])([H])C([H])([H])C([H])(n5nc(-c6c([H])c([H])c(Oc7c([H])c([H])c(F)c([H])c7F)c([H])c6[H])c(C(=O)N([H])[H])c5N([H])[H])C4([H])[H])C([H])([H])C3([H])C(=O)N([H])[H])c([H])c([H])c2C1([H])[H]

$$$$
8:0:0
     RDKit          3D

 97106  0  0  1  0  0  0  0  0999 V2000
  -30.6740  -24.4660   21.8900 C   0  0  0  0  0  2  0  0  0  0  0  0
  -30.5720  -23.2360   20.9830 C   0  0  0  0  0  2  0  0  0  0  0  0
  -30.1440  -25.7050   21.1610 C   0  0  0  0  0  2  0  0  0  0  0  0
  -29.1110  -22.9420   20.5890 C   0  0  0  0  0  3  0  0  0  0  0  0
  -28.4000  -24.2140   19.9940 C   0  0  0  0  0  3  0  0  0  0  0  0
  -28.6700  -25.5660   20.7450 C   0  0  0  0  0  3  0  0  0  0  0  0
  -26.9430  -23.9630   19.9290 N   0  0  0  0  0  4  0  0  0  0  0  0
  -26.5680  -23.7370   20.8360 H   0  0  0  0  0  0  0  0  0  0  0  0
  -26.7260  -23.2090   19.3000 H   0  0  0  0  0  0  0  0  0  0  0  0
  -26.4660  -24.7860   19.5990 H   0  0  0  0  0  0  0  0  0  0  0  0
  -28.4660  -26.7150   19.9000 O   0  0  0  0  0  0  0  0  0  0  0  0
  -24.5220  -31.7330   23.1340 C   0  0  0  0  0  0  0  0  0  0  0  0
  -27.2780  -27.4060   19.9880 C   0  0  0  0  0  0  0  0  0  0  0  0
  -23.3600  -30.3480   21.4450 C   0  0  0  0  0  3  0  0  0  0  0  0
  -24.8580  -28.8670   20.0080 C   0  0  0  0  0  0  0  0  0  0  0  0
  -25.8800  -30.7510   21.2890 C   0  0  0  0  0  2  0  0  0  0  0  0
  -25.9970  -29.3920   20.6310 C   0  0  0  0  0  0  0  0  0  0  0  0
  -27.2090  -28.6650   20.6280 C   0  0  0  0  0  3  0  0  0  0  0  0
  -26.1340  -26.9140   19.3240 C   0  0  0  0  0  3  0  0  0  0  0  0
  -24.9200  -27.6240   19.3540 C   0  0  0  0  0  3  0  0  0  0  0  0
  -23.5990  -29.7040   20.0540 C   0  0  0  0  0  2  0  0  0  0  0  0
  -24.6050  -30.9590   22.0150 N   0  0  0  0  0  0  0  0  0  0  0  0
  -23.4300  -31.9730   23.6670 O   0  0  0  0  0  0  0  0  0  0  0  0
  -22.7180  -29.2920   22.3740 C   0  0  0  0  0  0  0  0  0  0  0  0
  -21.3960  -29.0970   22.2350 N   0  0  0  0  0  0  0  0  0  0  0  0
  -23.4070  -28.6510   23.1730 O   0  0  0  0  0  0  0  0  0  0  0  0
  -20.9020  -29.6670   21.5640 H   0  0  0  0  0  0  0  0  0  0  0  0
  -18.0340  -27.8560   22.6910 C   0  0  0  0  0  0  0  0  0  0  0  0
  -20.5890  -28.1270   22.9750 C   0  0  0  0  0  3  0  0  0  0  0  0
  -20.7050  -26.7160   22.3530 C   0  0  0  0  0  2  0  0  0  0  0  0
  -19.6070  -26.4170   21.3280 C   0  0  0  0  0  2  0  0  0  0  0  0
  -18.2230  -26.5290   21.9750 C   0  0  0  0  0  2  0  0  0  0  0  0
  -19.1450  -28.6140   23.1470 C   0  0  0  0  0  0  0  0  0  0  0  0
  -18.9150  -29.8580   23.7740 C   0  0  0  0  0  3  0  0  0  0  0  0
  -17.6060  -30.3420   23.9530 C   0  0  0  0  0  3  0  0  0  0  0  0
  -16.5090  -29.5820   23.5140 C   0  0  0  0  0  3  0  0  0  0  0  0
  -16.7240  -28.3400   22.8890 C   0  0  0  0  0  3  0  0  0  0  0  0
  -25.7910  -32.3710   23.7820 C   0  0  0  0  0  3  0  0  0  0  0  0
  -26.3060  -31.5820   25.0480 C   0  0  1  0  0  0  0  0  0  0  0  0
  -25.2070  -31.3080   26.1010 C   0  0  0  0  0  1  0  0  0  0  0  0
  -26.9130  -30.2210   24.6340 C   0  0  0  0  0  1  0  0  0  0  0  0
  -27.4400  -32.3790   25.7360 C   0  0  0  0  0  1  0  0  0  0  0  0
  -25.4580  -33.7580   24.1320 N   0  0  0  0  0  0  0  0  0  0  0  0
  -25.7810  -34.8270   23.3920 C   0  0  0  0  0  0  0  0  0  0  0  0
  -26.4640  -34.7510   22.3680 O   0  0  0  0  0  0  0  0  0  0  0  0
  -24.8540  -33.8900   24.9300 H   0  0  0  0  0  0  0  0  0  0  0  0
  -24.0250  -36.5940   23.0480 C   0  0  0  0  0  1  0  0  0  0  0  0
  -25.2660  -36.1990   23.8660 C   0  0  0  0  0  3  0  0  0  0  0  0
  -27.3790  -37.1030   24.7270 C   0  0  0  0  0  1  0  0  0  0  0  0
  -26.2800  -37.2720   23.7800 N   0  0  0  0  0  0  0  0  0  0  0  0
  -25.8560  -38.1820   23.9450 H   0  0  0  0  0  0  0  0  0  0  0  0
  -29.0300  -21.7270   19.6140 C   0  0  0  0  0  2  0  0  0  0  0  0
  -30.8490  -19.9330   19.5100 C   0  0  0  0  0  3  0  0  0  0  0  0
  -28.9960  -19.6070   21.0490 C   0  0  0  0  0  3  0  0  0  0  0  0
  -31.3840  -18.6820   19.8870 C   0  0  0  0  0  3  0  0  0  0  0  0
  -29.5300  -18.3540   21.4260 C   0  0  0  0  0  3  0  0  0  0  0  0
  -29.6500  -20.4080   20.0870 C   0  0  0  0  0  0  0  0  0  0  0  0
  -30.7310  -17.8830   20.8510 C   0  0  0  0  0  0  0  0  0  0  0  0
  -31.3540  -16.5630   21.3110 C   0  0  0  0  0  2  0  0  0  0  0  0
  -31.1090  -14.4020   20.0710 C   0  0  0  0  0  0  0  0  0  0  0  0
  -30.6490  -12.2420   18.9580 C   0  0  0  0  0  2  0  0  0  0  0  0
  -29.6800  -12.4310   17.7750 C   0  0  0  0  0  2  0  0  0  0  0  0
  -28.2160  -12.3680   18.2530 C   0  0  0  0  0  2  0  0  0  0  0  0
  -27.9530  -13.2760   19.4820 C   0  0  0  0  0  3  0  0  0  0  0  0
  -29.0260  -13.0580   20.5720 C   0  0  0  0  0  2  0  0  0  0  0  0
  -30.3500  -13.2770   19.9610 N   0  0  0  0  0  0  0  0  0  0  0  0
  -32.1650  -14.5580   19.4520 O   0  0  0  0  0  0  0  0  0  0  0  0
  -30.6380  -15.3500   20.8970 N   0  0  0  0  0  0  0  0  0  0  0  0
  -29.7600  -15.1590   21.3540 H   0  0  0  0  0  0  0  0  0  0  0  0
  -25.6200  -14.0250   20.2740 C   0  0  0  0  0  0  0  0  0  0  0  0
  -24.5220  -13.3160   20.6820 C   0  0  0  0  0  0  0  0  0  0  0  0
  -24.9000  -11.9400   20.6340 C   0  0  0  0  0  0  0  0  0  0  0  0
  -26.6030  -13.0830   20.0080 N   0  0  0  0  0  0  0  0  0  0  0  0
  -26.1730  -11.8240   20.2800 N   0  0  0  0  0  0  0  0  0  0  0  0
  -24.1070  -10.7230   20.8510 C   0  0  0  0  0  0  0  0  0  0  0  0
  -24.5060   -9.7360   21.7800 C   0  0  0  0  0  3  0  0  0  0  0  0
  -23.7170   -8.5830   21.9830 C   0  0  0  0  0  3  0  0  0  0  0  0
  -22.5140   -8.4090   21.2590 C   0  0  0  0  0  0  0  0  0  0  0  0
  -22.1340   -9.3840   20.3190 C   0  0  0  0  0  3  0  0  0  0  0  0
  -22.9230  -10.5280   20.1130 C   0  0  0  0  0  3  0  0  0  0  0  0
  -21.6980   -7.3100   21.3720 O   0  0  0  0  0  0  0  0  0  0  0  0
  -21.6180   -6.5900   22.5360 C   0  0  0  0  0  0  0  0  0  0  0  0
  -21.2570   -7.1920   23.7620 C   0  0  0  0  0  3  0  0  0  0  0  0
  -21.1190   -6.4010   24.9210 C   0  0  0  0  0  3  0  0  0  0  0  0
  -21.3320   -5.0120   24.8550 C   0  0  0  0  0  0  0  0  0  0  0  0
  -21.6860   -4.4100   23.6350 C   0  0  0  0  0  3  0  0  0  0  0  0
  -21.8260   -5.1980   22.4780 C   0  0  0  0  0  0  0  0  0  0  0  0
  -22.1460   -4.6100   21.3000 F   0  0  0  0  0  0  0  0  0  0  0  0
  -21.1920   -4.2510   25.9660 F   0  0  0  0  0  0  0  0  0  0  0  0
  -23.1660  -13.8760   21.0060 C   0  0  0  0  0  0  0  0  0  0  0  0
  -22.4350  -13.2290   21.9070 N   0  0  0  0  0  0  0  0  0  0  0  0
  -22.7670  -14.9210   20.4940 O   0  0  0  0  0  0  0  0  0  0  0  0
  -22.7710  -12.3830   22.3420 H   0  0  0  0  0  0  0  0  0  0  0  0
  -21.5260  -13.5860   22.1660 H   0  0  0  0  0  0  0  0  0  0  0  0
  -25.8610  -15.3820   20.0910 N   0  0  0  0  0  0  0  0  0  0  0  0
  -25.1410  -16.0850   20.2290 H   0  0  0  0  0  0  0  0  0  0  0  0
  -26.7310  -15.7700   19.7470 H   0  0  0  0  0  0  0  0  0  0  0  0
  2  1  1  0
  3  1  1  0
  4 52  1  0
  4  2  1  0
  5  7  1  0
  5  4  1  0
  5  6  1  0
  6 11  1  0
  6  3  1  0
  7  8  1  0
  9  7  1  0
 10  7  1  0
 11 13  1  0
 12 23  2  0
 13 18  1  0
 14 22  1  0
 14 24  1  0
 15 21  1  0
 15 17  1  0
 16 22  1  0
 17 16  1  0
 18 17  2  0
 19 20  1  0
 19 13  2  0
 20 15  2  0
 21 14  1  0
 22 12  1  0
 24 26  2  0
 25 24  1  0
 27 25  1  0
 28 37  2  0
 28 33  1  0
 29 25  1  0
 29 33  1  0
 30 29  1  0
 31 32  1  0
 31 30  1  0
 32 28  1  0
 33 34  2  0
 34 35  1  0
 36 35  2  0
 37 36  1  0
 38 12  1  0
 38 43  1  0
 38 39  1  0
 39 42  1  1
 39 40  1  0
 41 39  1  0
 43 46  1  0
 44 48  1  0
 44 43  1  0
 45 44  2  0
 48 47  1  0
 50 48  1  0
 50 51  1  0
 50 49  1  0
 52 57  1  0
 53 55  2  0
 53 57  1  0
 54 56  1  0
 55 58  1  0
 57 54  2  0
 58 59  1  0
 58 56  2  0
 60 68  1  0
 61 66  1  0
 62 63  1  0
 62 61  1  0
 64 63  1  0
 64 73  1  0
 64 65  1  0
 66 60  1  0
 66 65  1  0
 67 60  2  0
 68 59  1  0
 68 69  1  0
 70 71  2  0
 71 90  1  0
 72 71  1  0
 72 75  1  0
 73 70  1  0
 73 74  1  0
 74 72  2  0
 75 76  1  0
 76 77  2  0
 78 81  1  0
 78 77  1  0
 79 78  2  0
 80 79  1  0
 80 75  2  0
 81 82  1  0
 82 83  1  0
 83 84  2  0
 85 84  1  0
 85 89  1  0
 86 85  2  0
 87 82  2  0
 87 86  1  0
 88 87  1  0
 90 91  1  0
 91 94  1  0
 91 93  1  0
 92 90  2  0
 95 96  1  0
 95 70  1  0
 97 95  1  0
M  ISO  4   6 101  11 101  60 100  68 100
M  END
>  <TORSDO>  (9) 
F 20

>  <SCORE>  (9) 
-13.215

>  <name>  (9) 
8

>  <ligand_id>  (9) 
8

>  <original_smiles>  (9) 
[H]c1c([H])c([H])c2c(c1[H])C([H])([H])C([H])([H])C([H])([H])C2([H])N([H])C(=O)C1([H])N(C(=O)C([H])(N([H])C(=O)C([H])(N([H])C([H])([H])[H])C([H])([H])[H])C(C([H])([H])[H])(C([H])([H])[H])C([H])([H])[H])C([H])([H])c2c([H])c(OC3([H])C([H])([H])C([H])([H])C([H])([H])C([H])(C([H])([H])c4c([H])c([H])c(C([H])([H])N([H])C(=O)N5C([H])([H])C([H])([H])C([H])([H])C([H])(n6nc(-c7c([H])c([H])c(Oc8c([H])c([H])c(F)c([H])c8F)c([H])c7[H])c(C(=O)N([H])[H])c6N([H])[H])C5([H])[H])c([H])c4[H])C3([H])[N+]([H])([H])[H])c([H])c([H])c2C1([H])[H]

>  <smiles>  (9) 
[H]c1c([H])c([H])c2c(c1[H])C([H])([H])C([H])([H])C([H])([H])C2([H])N([H])C(=O)C1([H])N(C(=O)C([H])(N([H])C(=O)C([H])(N([H])C([H])([H])[H])C([H])([H])[H])C(C([H])([H])[H])(C([H])([H])[H])C([H])([H])[H])C([H])([H])c2c([H])c(OC3([H])C([H])([H])C([H])([H])C([H])([H])C([H])(C([H])([H])c4c([H])c([H])c(C([H])([H])N([H])C(=O)N5C([H])([H])C([H])([H])C([H])([H])C([H])(n6nc(-c7c([H])c([H])c(Oc8c([H])c([H])c(F)c([H])c8F)c([H])c7[H])c(C(=O)N([H])[H])c6N([H])[H])C5([H])[H])c([H])c4[H])C3([H])[N+]([H])([H])[H])c([H])c([H])c2C1([H])[H]

$$$$
9:0:0
     RDKit          3D

 94102  0  0  1  0  0  0  0  0999 V2000
  -29.4970  -21.4470   19.9080 C   0  0  0  0  0  0  0  0  0  0  0  0
  -29.0590  -22.7250   19.7140 N   0  0  0  0  0  0  0  0  0  0  0  0
  -29.2620  -20.6360   19.0110 O   0  0  0  0  0  0  0  0  0  0  0  0
  -28.5790  -22.8170   18.8280 H   0  0  0  0  0  0  0  0  0  0  0  0
  -32.5340  -21.5690   22.3540 C   0  0  0  0  0  2  0  0  0  0  0  0
  -33.2150  -20.4930   21.5350 C   0  0  0  0  0  2  0  0  0  0  0  0
  -31.3260  -22.0240   21.5540 C   0  0  0  0  0  2  0  0  0  0  0  0
  -32.2820  -19.2870   21.4160 C   0  0  0  0  0  2  0  0  0  0  0  0
  -30.3000  -20.9170   21.1470 C   0  0  0  0  0  3  0  0  0  0  0  0
  -30.9170  -19.5430   20.8440 N   0  0  2  0  0  4  0  0  0  0  0  0
  -31.0220  -19.6050   19.8410 H   0  0  0  0  0  0  0  0  0  0  0  0
  -30.0320  -18.3170   21.0620 C   0  0  0  0  0  2  0  0  0  0  0  0
  -30.6530  -16.9680   20.4980 C   0  0  0  0  0  2  0  0  0  0  0  0
  -30.6300  -14.4860   20.3200 C   0  0  0  0  0  0  0  0  0  0  0  0
  -30.2760  -12.3010   19.2260 C   0  0  0  0  0  2  0  0  0  0  0  0
  -29.3260  -12.4820   18.0280 C   0  0  0  0  0  2  0  0  0  0  0  0
  -27.8620  -12.3270   18.4830 C   0  0  0  0  0  2  0  0  0  0  0  0
  -27.5340  -13.1770   19.7420 C   0  0  0  0  0  3  0  0  0  0  0  0
  -28.6140  -13.0290   20.8380 C   0  0  0  0  0  2  0  0  0  0  0  0
  -29.9170  -13.3240   20.2290 N   0  0  0  0  0  0  0  0  0  0  0  0
  -31.7790  -14.5600   19.8840 O   0  0  0  0  0  0  0  0  0  0  0  0
  -29.9960  -15.6340   20.6980 N   0  0  0  0  0  0  0  0  0  0  0  0
  -29.0330  -15.5890   20.9980 H   0  0  0  0  0  0  0  0  0  0  0  0
  -25.1490  -13.7590   20.4990 C   0  0  0  0  0  0  0  0  0  0  0  0
  -24.0930  -12.9790   20.8870 C   0  0  0  0  0  0  0  0  0  0  0  0
  -24.5630  -11.6300   20.8480 C   0  0  0  0  0  0  0  0  0  0  0  0
  -26.1960  -12.8860   20.2490 N   0  0  0  0  0  0  0  0  0  0  0  0
  -25.8490  -11.6000   20.5180 N   0  0  0  0  0  0  0  0  0  0  0  0
  -23.8460  -10.3630   21.0450 C   0  0  0  0  0  0  0  0  0  0  0  0
  -24.2990   -9.3910   21.9640 C   0  0  0  0  0  3  0  0  0  0  0  0
  -23.5790   -8.1920   22.1510 C   0  0  0  0  0  3  0  0  0  0  0  0
  -22.3920   -7.9540   21.4170 C   0  0  0  0  0  0  0  0  0  0  0  0
  -21.9600   -8.9140   20.4850 C   0  0  0  0  0  3  0  0  0  0  0  0
  -22.6810  -10.1060   20.2970 C   0  0  0  0  0  3  0  0  0  0  0  0
  -21.6430   -6.8060   21.5130 O   0  0  0  0  0  0  0  0  0  0  0  0
  -21.6270   -6.0510   22.6590 C   0  0  0  0  0  0  0  0  0  0  0  0
  -21.2290   -6.5900   23.9020 C   0  0  0  0  0  3  0  0  0  0  0  0
  -21.1600   -5.7610   25.0380 C   0  0  0  0  0  3  0  0  0  0  0  0
  -21.4800   -4.3940   24.9350 C   0  0  0  0  0  0  0  0  0  0  0  0
  -21.8720   -3.8550   23.6960 C   0  0  0  0  0  3  0  0  0  0  0  0
  -21.9420   -4.6800   22.5610 C   0  0  0  0  0  0  0  0  0  0  0  0
  -22.2990   -4.1510   21.3670 F   0  0  0  0  0  0  0  0  0  0  0  0
  -21.4060   -3.5950   26.0250 F   0  0  0  0  0  0  0  0  0  0  0  0
  -22.6980  -13.4480   21.1820 C   0  0  0  0  0  0  0  0  0  0  0  0
  -21.9860  -12.7480   22.0560 N   0  0  0  0  0  0  0  0  0  0  0  0
  -22.2490  -14.4740   20.6710 O   0  0  0  0  0  0  0  0  0  0  0  0
  -22.3610  -11.9170   22.4920 H   0  0  0  0  0  0  0  0  0  0  0  0
  -21.0510  -13.0460   22.2940 H   0  0  0  0  0  0  0  0  0  0  0  0
  -25.3000  -15.1300   20.3170 N   0  0  0  0  0  0  0  0  0  0  0  0
  -24.5170  -15.7680   20.4160 H   0  0  0  0  0  0  0  0  0  0  0  0
  -26.1240  -15.5720   19.9320 H   0  0  0  0  0  0  0  0  0  0  0  0
  -29.1870  -24.0310   20.4200 C   0  0  0  0  0  2  0  0  0  0  0  0
  -28.1510  -25.0820   19.8920 C   0  0  0  0  0  2  0  0  0  0  0  0
  -28.3060  -26.4840   20.2770 O   0  0  0  0  0  0  0  0  0  0  0  0
  -24.5870  -31.8510   23.2510 C   0  0  0  0  0  0  0  0  0  0  0  0
  -27.1760  -27.3040   20.2060 C   0  0  0  0  0  0  0  0  0  0  0  0
  -23.3750  -30.4610   21.6100 C   0  0  0  0  0  3  0  0  0  0  0  0
  -24.8160  -28.9050   20.1910 C   0  0  0  0  0  0  0  0  0  0  0  0
  -25.9140  -30.7680   21.4300 C   0  0  0  0  0  2  0  0  0  0  0  0
  -25.9830  -29.3900   20.7920 C   0  0  0  0  0  0  0  0  0  0  0  0
  -27.1640  -28.5980   20.7980 C   0  0  0  0  0  3  0  0  0  0  0  0
  -25.9880  -26.8690   19.5680 C   0  0  0  0  0  3  0  0  0  0  0  0
  -24.8180  -27.6470   19.5710 C   0  0  0  0  0  3  0  0  0  0  0  0
  -23.5850  -29.7840   20.2310 C   0  0  0  0  0  2  0  0  0  0  0  0
  -24.6440  -31.0420   22.1540 N   0  0  0  0  0  0  0  0  0  0  0  0
  -23.5060  -32.1390   23.7800 O   0  0  0  0  0  0  0  0  0  0  0  0
  -22.7030  -29.4490   22.5660 C   0  0  0  0  0  0  0  0  0  0  0  0
  -21.3770  -29.2860   22.4330 N   0  0  0  0  0  0  0  0  0  0  0  0
  -23.3730  -28.8170   23.3870 O   0  0  0  0  0  0  0  0  0  0  0  0
  -20.8980  -29.8490   21.7450 H   0  0  0  0  0  0  0  0  0  0  0  0
  -17.9800  -28.1450   22.9230 C   0  0  0  0  0  0  0  0  0  0  0  0
  -20.5420  -28.3630   23.2030 C   0  0  0  0  0  3  0  0  0  0  0  0
  -20.6230  -26.9300   22.6270 C   0  0  0  0  0  2  0  0  0  0  0  0
  -19.5190  -26.6250   21.6100 C   0  0  0  0  0  2  0  0  0  0  0  0
  -18.1370  -26.7920   22.2500 C   0  0  0  0  0  2  0  0  0  0  0  0
  -19.1100  -28.8880   23.3570 C   0  0  0  0  0  0  0  0  0  0  0  0
  -18.9110  -30.1540   23.9470 C   0  0  0  0  0  3  0  0  0  0  0  0
  -17.6140  -30.6770   24.1090 C   0  0  0  0  0  3  0  0  0  0  0  0
  -16.4980  -29.9300   23.6930 C   0  0  0  0  0  3  0  0  0  0  0  0
  -16.6830  -28.6670   23.1060 C   0  0  0  0  0  3  0  0  0  0  0  0
  -25.8750  -32.4700   23.8760 C   0  0  0  0  0  3  0  0  0  0  0  0
  -25.5770  -33.8700   24.2090 N   0  0  0  0  0  0  0  0  0  0  0  0
  -25.9090  -34.9200   23.4460 C   0  0  0  0  0  0  0  0  0  0  0  0
  -26.5700  -34.8100   22.4080 O   0  0  0  0  0  0  0  0  0  0  0  0
  -24.9900  -34.0290   25.0140 H   0  0  0  0  0  0  0  0  0  0  0  0
  -24.1820  -36.7170   23.1100 C   0  0  0  0  0  1  0  0  0  0  0  0
  -25.4340  -36.3130   23.9040 C   0  0  0  0  0  3  0  0  0  0  0  0
  -27.5830  -37.1920   24.7000 C   0  0  0  0  0  1  0  0  0  0  0  0
  -26.4690  -37.3610   23.7710 N   0  0  0  0  0  0  0  0  0  0  0  0
  -26.0690  -38.2830   23.9200 H   0  0  0  0  0  0  0  0  0  0  0  0
  -26.3800  -31.6910   25.1520 C   0  0  1  0  0  0  0  0  0  0  0  0
  -25.2820  -31.4610   26.2160 C   0  0  0  0  0  1  0  0  0  0  0  0
  -26.9510  -30.3100   24.7550 C   0  0  0  0  0  1  0  0  0  0  0  0
  -27.5360  -32.4730   25.8190 C   0  0  0  0  0  1  0  0  0  0  0  0
  2  1  1  0
  2 52  1  0
  3  1  2  0
  4  2  1  0
  6  5  1  0
  7  5  1  0
  8  6  1  0
  9  1  1  0
  9  7  1  0
 10 12  1  0
 10  9  1  0
 10  8  1  0
 10 11  1  6
 13 22  1  0
 13 12  1  0
 14 22  1  0
 15 20  1  0
 16 17  1  0
 16 15  1  0
 18 17  1  0
 18 27  1  0
 18 19  1  0
 20 14  1  0
 20 19  1  0
 21 14  2  0
 22 23  1  0
 24 25  2  0
 25 44  1  0
 26 25  1  0
 26 29  1  0
 27 24  1  0
 27 28  1  0
 28 26  2  0
 29 30  1  0
 30 31  2  0
 32 35  1  0
 32 31  1  0
 33 32  2  0
 34 33  1  0
 34 29  2  0
 35 36  1  0
 36 37  1  0
 37 38  2  0
 39 38  1  0
 39 43  1  0
 40 39  2  0
 41 36  2  0
 41 40  1  0
 42 41  1  0
 44 45  1  0
 45 48  1  0
 45 47  1  0
 46 44  2  0
 49 50  1  0
 49 24  1  0
 51 49  1  0
 53 54  1  0
 53 52  1  0
 55 66  2  0
 56 54  1  0
 56 61  1  0
 57 65  1  0
 57 67  1  0
 58 64  1  0
 58 60  1  0
 59 65  1  0
 60 61  2  0
 60 59  1  0
 62 63  1  0
 62 56  2  0
 63 58  2  0
 64 57  1  0
 65 55  1  0
 67 69  2  0
 68 67  1  0
 70 68  1  0
 71 80  2  0
 71 76  1  0
 72 68  1  0
 72 76  1  0
 73 72  1  0
 74 75  1  0
 74 73  1  0
 75 71  1  0
 76 77  2  0
 77 78  1  0
 79 78  2  0
 80 79  1  0
 81 55  1  0
 81 82  1  0
 81 91  1  0
 82 85  1  0
 83 87  1  0
 83 82  1  0
 84 83  2  0
 87 86  1  0
 89 87  1  0
 89 90  1  0
 89 88  1  0
 91 94  1  1
 91 92  1  0
 93 91  1  0
M  ISO  4  14 100  22 100  53 101  54 101
M  END
>  <TORSDO>  (10) 
F 21

>  <SCORE>  (10) 
-13.202

>  <name>  (10) 
9

>  <ligand_id>  (10) 
9

>  <original_smiles>  (10) 
[H]c1c([H])c([H])c2c(c1[H])C([H])([H])C([H])([H])C([H])([H])C2([H])N([H])C(=O)C1([H])N(C(=O)C([H])(N([H])C(=O)C([H])(N([H])C([H])([H])[H])C([H])([H])[H])C(C([H])([H])[H])(C([H])([H])[H])C([H])([H])[H])C([H])([H])c2c([H])c(OC([H])([H])C([H])([H])N([H])C(=O)C3([H])C([H])([H])C([H])([H])C([H])([H])C([H])([H])[N+]3([H])C([H])([H])C([H])([H])N([H])C(=O)N3C([H])([H])C([H])([H])C([H])([H])C([H])(n4nc(-c5c([H])c([H])c(Oc6c([H])c([H])c(F)c([H])c6F)c([H])c5[H])c(C(=O)N([H])[H])c4N([H])[H])C3([H])[H])c([H])c([H])c2C1([H])[H]

>  <smiles>  (10) 
[H]c1c([H])c([H])c2c(c1[H])C([H])([H])C([H])([H])C([H])([H])C2([H])N([H])C(=O)C1([H])N(C(=O)C([H])(N([H])C(=O)C([H])(N([H])C([H])([H])[H])C([H])([H])[H])C(C([H])([H])[H])(C([H])([H])[H])C([H])([H])[H])C([H])([H])c2c([H])c(OC([H])([H])C([H])([H])N([H])C(=O)C3([H])C([H])([H])C([H])([H])C([H])([H])C([H])([H])[N+]3([H])C([H])([H])C([H])([H])N([H])C(=O)N3C([H])([H])C([H])([H])C([H])([H])C([H])(n4nc(-c5c([H])c([H])c(Oc6c([H])c([H])c(F)c([H])c6F)c([H])c5[H])c(C(=O)N([H])[H])c4N([H])[H])C3([H])[H])c([H])c([H])c2C1([H])[H]

$$$$
10:0:0
     RDKit          3D

101110  0  0  1  0  0  0  0  0999 V2000
  -29.9670  -19.9460   20.5650 N   0  0  0  0  0  4  0  0  0  0  0  0
  -29.8810  -19.5110   19.6610 H   0  0  0  0  0  0  0  0  0  0  0  0
  -30.9410  -20.1710   20.6920 H   0  0  0  0  0  0  0  0  0  0  0  0
  -31.0340  -18.1990   24.1360 C   0  0  0  0  0  2  0  0  0  0  0  0
  -31.0880  -17.1970   22.9870 C   0  0  0  0  0  2  0  0  0  0  0  0
  -29.4320  -19.6530   22.9910 C   0  0  0  0  0  2  0  0  0  0  0  0
  -29.6270  -18.7930   24.2410 C   0  0  0  0  0  3  0  0  0  0  0  0
  -30.5110  -17.6540   21.6070 C   0  0  0  0  0  3  0  0  0  0  0  0
  -29.5670  -18.9350   21.6110 C   0  0  0  0  0  3  0  0  0  0  0  0
  -30.4270  -15.5310   20.2790 C   0  0  0  0  0  0  0  0  0  0  0  0
  -30.3550  -13.2550   19.3030 C   0  0  0  0  0  2  0  0  0  0  0  0
  -29.4410  -13.2070   18.0640 C   0  0  0  0  0  2  0  0  0  0  0  0
  -27.9820  -12.9410   18.4790 C   0  0  0  0  0  2  0  0  0  0  0  0
  -27.5060  -13.8730   19.6250 C   0  0  0  0  0  3  0  0  0  0  0  0
  -28.5370  -13.9160   20.7740 C   0  0  0  0  0  2  0  0  0  0  0  0
  -29.8430  -14.2990   20.2100 N   0  0  0  0  0  0  0  0  0  0  0  0
  -31.4720  -15.8010   19.6810 O   0  0  0  0  0  0  0  0  0  0  0  0
  -29.8330  -16.4470   21.0710 N   0  0  0  0  0  0  0  0  0  0  0  0
  -28.9600  -16.1690   21.4960 H   0  0  0  0  0  0  0  0  0  0  0  0
  -25.0830  -14.3010   20.3760 C   0  0  0  0  0  0  0  0  0  0  0  0
  -24.0680  -13.4510   20.7260 C   0  0  0  0  0  0  0  0  0  0  0  0
  -24.6100  -12.1320   20.6420 C   0  0  0  0  0  0  0  0  0  0  0  0
  -26.1780  -13.4960   20.1040 N   0  0  0  0  0  0  0  0  0  0  0  0
  -25.8980  -12.1840   20.3210 N   0  0  0  0  0  0  0  0  0  0  0  0
  -23.9640  -10.8220   20.7940 C   0  0  0  0  0  0  0  0  0  0  0  0
  -24.4230   -9.8760   21.7380 C   0  0  0  0  0  3  0  0  0  0  0  0
  -23.7730   -8.6310   21.8790 C   0  0  0  0  0  3  0  0  0  0  0  0
  -22.6510   -8.3220   21.0740 C   0  0  0  0  0  0  0  0  0  0  0  0
  -22.2110   -9.2580   20.1210 C   0  0  0  0  0  3  0  0  0  0  0  0
  -22.8630  -10.4950   19.9780 C   0  0  0  0  0  3  0  0  0  0  0  0
  -21.9740   -7.1270   21.1230 O   0  0  0  0  0  0  0  0  0  0  0  0
  -21.8700   -6.4050   22.2850 C   0  0  0  0  0  0  0  0  0  0  0  0
  -21.2400   -6.9300   23.4340 C   0  0  0  0  0  3  0  0  0  0  0  0
  -21.0930   -6.1300   24.5840 C   0  0  0  0  0  3  0  0  0  0  0  0
  -21.5630   -4.8030   24.5840 C   0  0  0  0  0  0  0  0  0  0  0  0
  -22.1850   -4.2760   23.4380 C   0  0  0  0  0  3  0  0  0  0  0  0
  -22.3350   -5.0740   22.2910 C   0  0  0  0  0  0  0  0  0  0  0  0
  -22.9160   -4.5550   21.1820 F   0  0  0  0  0  0  0  0  0  0  0  0
  -21.4160   -4.0310   25.6860 F   0  0  0  0  0  0  0  0  0  0  0  0
  -22.6470  -13.8330   21.0280 C   0  0  0  0  0  0  0  0  0  0  0  0
  -21.9720  -13.0670   21.8790 N   0  0  0  0  0  0  0  0  0  0  0  0
  -22.1390  -14.8440   20.5440 O   0  0  0  0  0  0  0  0  0  0  0  0
  -22.3930  -12.2500   22.2940 H   0  0  0  0  0  0  0  0  0  0  0  0
  -21.0190  -13.3020   22.1140 H   0  0  0  0  0  0  0  0  0  0  0  0
  -25.1610  -15.6850   20.2460 N   0  0  0  0  0  0  0  0  0  0  0  0
  -24.3550  -16.2880   20.3770 H   0  0  0  0  0  0  0  0  0  0  0  0
  -25.9780  -16.1850   19.9180 H   0  0  0  0  0  0  0  0  0  0  0  0
  -29.4220  -19.6290   25.5280 C   0  0  0  0  0  2  0  0  0  0  0  0
  -29.4660  -18.8080   26.7510 N   0  0  0  0  0  4  0  0  0  0  0  0
  -28.7650  -18.0900   26.7270 H   0  0  0  0  0  0  0  0  0  0  0  0
  -29.2930  -19.3840   27.5540 H   0  0  0  0  0  0  0  0  0  0  0  0
  -30.3680  -18.3810   26.8660 H   0  0  0  0  0  0  0  0  0  0  0  0
  -29.1860  -21.2260   20.5460 C   0  0  0  0  0  2  0  0  0  0  0  0
  -28.9520  -22.2490   18.1730 C   0  0  0  0  0  2  0  0  0  0  0  0
  -29.4130  -23.7380   20.2260 C   0  0  0  0  0  2  0  0  0  0  0  0
  -29.0550  -23.5290   17.3010 C   0  0  0  0  0  2  0  0  0  0  0  0
  -29.4800  -24.9790   19.2950 C   0  0  0  0  0  2  0  0  0  0  0  0
  -29.6550  -22.3460   19.5540 C   0  0  0  0  0  3  0  0  0  0  0  0
  -28.5540  -24.7480   18.1020 C   0  0  0  0  0  3  0  0  0  0  0  0
  -27.9840  -25.9670   17.2970 C   0  0  0  0  0  2  0  0  0  0  0  0
  -28.1140  -27.3740   17.6750 O   0  0  0  0  0  0  0  0  0  0  0  0
  -24.4390  -31.0250   22.6500 C   0  0  0  0  0  0  0  0  0  0  0  0
  -26.9140  -28.0110   18.0170 C   0  0  0  0  0  0  0  0  0  0  0  0
  -23.1120  -29.9330   20.8800 C   0  0  0  0  0  3  0  0  0  0  0  0
  -24.4210  -29.1150   18.8560 C   0  0  0  0  0  0  0  0  0  0  0  0
  -25.5100  -30.7180   20.4150 C   0  0  0  0  0  2  0  0  0  0  0  0
  -25.6180  -29.6030   19.3930 C   0  0  0  0  0  0  0  0  0  0  0  0
  -26.8660  -29.0540   18.9850 C   0  0  0  0  0  3  0  0  0  0  0  0
  -25.6790  -27.6190   17.4370 C   0  0  0  0  0  3  0  0  0  0  0  0
  -24.4490  -28.1220   17.8730 C   0  0  0  0  0  3  0  0  0  0  0  0
  -23.1270  -29.7140   19.3490 C   0  0  0  0  0  2  0  0  0  0  0  0
  -24.3820  -30.5620   21.3710 N   0  0  0  0  0  0  0  0  0  0  0  0
  -23.4550  -30.9640   23.4000 O   0  0  0  0  0  0  0  0  0  0  0  0
  -22.7820  -28.5930   21.5800 C   0  0  0  0  0  0  0  0  0  0  0  0
  -21.5040  -28.1820   21.5200 N   0  0  0  0  0  0  0  0  0  0  0  0
  -23.6640  -27.9390   22.1410 O   0  0  0  0  0  0  0  0  0  0  0  0
  -20.8360  -28.7820   21.0560 H   0  0  0  0  0  0  0  0  0  0  0  0
  -18.5020  -26.2030   21.8960 C   0  0  0  0  0  0  0  0  0  0  0  0
  -20.9720  -26.9400   22.0820 C   0  0  0  0  0  3  0  0  0  0  0  0
  -21.2950  -25.7340   21.1720 C   0  0  0  0  0  2  0  0  0  0  0  0
  -20.1790  -25.4180   20.1710 C   0  0  0  0  0  2  0  0  0  0  0  0
  -18.8690  -25.1130   20.9050 C   0  0  0  0  0  2  0  0  0  0  0  0
  -19.4870  -27.0700   22.4370 C   0  0  0  0  0  0  0  0  0  0  0  0
  -19.0870  -28.0880   23.3300 C   0  0  0  0  0  3  0  0  0  0  0  0
  -17.7340  -28.2450   23.6850 C   0  0  0  0  0  3  0  0  0  0  0  0
  -16.7650  -27.3730   23.1580 C   0  0  0  0  0  3  0  0  0  0  0  0
  -17.1490  -26.3530   22.2690 C   0  0  0  0  0  3  0  0  0  0  0  0
  -25.7350  -31.6760   23.2240 C   0  0  0  0  0  3  0  0  0  0  0  0
  -25.3430  -32.9170   23.9060 N   0  0  0  0  0  0  0  0  0  0  0  0
  -25.4590  -34.1420   23.3760 C   0  0  0  0  0  0  0  0  0  0  0  0
  -25.9820  -34.3510   22.2800 O   0  0  0  0  0  0  0  0  0  0  0  0
  -24.8600  -32.8210   24.7870 H   0  0  0  0  0  0  0  0  0  0  0  0
  -23.5310  -35.7330   23.6580 C   0  0  0  0  0  1  0  0  0  0  0  0
  -24.9090  -35.3240   24.1980 C   0  0  0  0  0  3  0  0  0  0  0  0
  -27.0390  -36.2750   24.9660 C   0  0  0  0  0  1  0  0  0  0  0  0
  -25.8080  -36.4980   24.2130 N   0  0  0  0  0  0  0  0  0  0  0  0
  -25.3380  -37.3070   24.6100 H   0  0  0  0  0  0  0  0  0  0  0  0
  -26.5250  -30.7270   24.2060 C   0  0  1  0  0  0  0  0  0  0  0  0
  -25.6480  -30.1270   25.3310 C   0  0  0  0  0  1  0  0  0  0  0  0
  -27.1710  -29.5540   23.4330 C   0  0  0  0  0  1  0  0  0  0  0  0
  -27.6830  -31.5080   24.8720 C   0  0  0  0  0  1  0  0  0  0  0  0
  1  3  1  0
  2  1  1  0
  4  7  1  0
  5  4  1  0
  6  7  1  0
  7 48  1  0
  8 18  1  0
  8  9  1  0
  8  5  1  0
  9  1  1  0
  9  6  1  0
 10 18  1  0
 11 16  1  0
 12 13  1  0
 12 11  1  0
 14 13  1  0
 14 23  1  0
 14 15  1  0
 16 10  1  0
 16 15  1  0
 17 10  2  0
 18 19  1  0
 20 21  2  0
 21 40  1  0
 22 21  1  0
 22 25  1  0
 23 24  1  0
 23 20  1  0
 24 22  2  0
 25 26  1  0
 26 27  2  0
 28 31  1  0
 28 27  1  0
 29 28  2  0
 30 29  1  0
 30 25  2  0
 31 32  1  0
 32 37  2  0
 32 33  1  0
 33 34  2  0
 34 35  1  0
 35 39  1  0
 36 35  2  0
 37 36  1  0
 38 37  1  0
 40 41  1  0
 41 44  1  0
 41 43  1  0
 42 40  2  0
 45 20  1  0
 45 46  1  0
 47 45  1  0
 48 49  1  0
 49 52  1  0
 49 51  1  0
 50 49  1  0
 53  1  1  0
 54 58  1  0
 56 59  1  0
 56 54  1  0
 57 55  1  0
 58 55  1  0
 58 53  1  0
 59 60  1  0
 59 57  1  0
 60 61  1  0
 61 63  1  0
 62 73  2  0
 63 68  1  0
 64 72  1  0
 64 74  1  0
 65 71  1  0
 65 67  1  0
 66 72  1  0
 67 66  1  0
 68 67  2  0
 69 70  1  0
 69 63  2  0
 70 65  2  0
 71 64  1  0
 72 62  1  0
 74 76  2  0
 75 74  1  0
 77 75  1  0
 78 87  2  0
 78 83  1  0
 79 75  1  0
 79 83  1  0
 80 79  1  0
 81 82  1  0
 81 80  1  0
 82 78  1  0
 83 84  2  0
 84 85  1  0
 86 85  2  0
 87 86  1  0
 88 62  1  0
 88 89  1  0
 88 98  1  0
 89 92  1  0
 90 89  1  0
 90 94  1  0
 91 90  2  0
 94 93  1  0
 94 96  1  0
 96 97  1  0
 96 95  1  0
 98101  1  1
 98 99  1  0
100 98  1  0
M  ISO  4  10 100  18 100  60 101  61 101
M  END
>  <TORSDO>  (11) 
F 22

>  <SCORE>  (11) 
0.405

>  <name>  (11) 
10

>  <ligand_id>  (11) 
10

>  <original_smiles>  (11) 
[H]c1c([H])c([H])c2c(c1[H])C([H])([H])C([H])([H])C([H])([H])C2([H])N([H])C(=O)C1([H])N(C(=O)C([H])(N([H])C(=O)C([H])(N([H])C([H])([H])[H])C([H])([H])[H])C(C([H])([H])[H])(C([H])([H])[H])C([H])([H])[H])C([H])([H])c2c([H])c(OC([H])([H])C3([H])C([H])([H])C([H])([H])C([H])(C([H])([H])[N+]([H])([H])C4([H])C([H])([H])C([H])(C([H])([H])[N+]([H])([H])[H])C([H])([H])C([H])([H])C4([H])N([H])C(=O)N4C([H])([H])C([H])([H])C([H])([H])C([H])(n5nc(-c6c([H])c([H])c(Oc7c([H])c([H])c(F)c([H])c7F)c([H])c6[H])c(C(=O)N([H])[H])c5N([H])[H])C4([H])[H])C([H])([H])C3([H])[H])c([H])c([H])c2C1([H])[H]

>  <smiles>  (11) 
[H]c1c([H])c([H])c2c(c1[H])C([H])([H])C([H])([H])C([H])([H])C2([H])N([H])C(=O)C1([H])N(C(=O)C([H])(N([H])C(=O)C([H])(N([H])C([H])([H])[H])C([H])([H])[H])C(C([H])([H])[H])(C([H])([H])[H])C([H])([H])[H])C([H])([H])c2c([H])c(OC([H])([H])C3([H])C([H])([H])C([H])([H])C([H])(C([H])([H])[N+]([H])([H])C4([H])C([H])([H])C([H])(C([H])([H])[N+]([H])([H])[H])C([H])([H])C([H])([H])C4([H])N([H])C(=O)N4C([H])([H])C([H])([H])C([H])([H])C([H])(n5nc(-c6c([H])c([H])c(Oc7c([H])c([H])c(F)c([H])c7F)c([H])c6[H])c(C(=O)N([H])[H])c5N([H])[H])C4([H])[H])C([H])([H])C3([H])[H])c([H])c([H])c2C1([H])[H]

$$$$
11:0:0
     RDKit          3D

103108  0  0  1  0  0  0  0  0999 V2000
  -19.8470  -24.4610   23.2210 N   0  0  0  0  0  4  0  0  0  0  0  0
  -20.4690  -24.2970   23.9950 H   0  0  0  0  0  0  0  0  0  0  0  0
  -19.0310  -23.9200   23.4640 H   0  0  0  0  0  0  0  0  0  0  0  0
  -20.6060  -23.5900   21.9730 C   0  0  0  0  0  2  0  0  0  0  0  0
  -23.7540  -23.3400   19.1800 C   0  0  0  0  0  3  0  0  0  0  0  0
  -22.7190  -25.2180   18.5910 C   0  0  0  0  0  3  0  0  0  0  0  0
  -22.7240  -23.0200   20.1870 C   0  0  0  0  0  3  0  0  0  0  0  0
  -21.5730  -24.7620   19.4080 C   0  0  0  0  0  3  0  0  0  0  0  0
  -24.0480  -24.6610   18.6500 C   0  0  0  0  0  0  0  0  0  0  0  0
  -21.6240  -23.8720   20.5730 C   0  0  0  0  0  0  0  0  0  0  0  0
  -25.5730  -25.2700   18.1970 C   0  0  0  0  0  0  0  0  0  0  0  0
  -26.0940  -24.7100   17.1970 N   0  0  0  0  0  0  0  0  0  0  0  0
  -25.4760  -24.0070   16.8010 H   0  0  0  0  0  0  0  0  0  0  0  0
  -26.4860  -26.3150   18.8760 O   0  0  0  0  0  0  0  0  0  0  0  0
  -24.8580  -32.2250   23.0590 C   0  0  0  0  0  0  0  0  0  0  0  0
  -26.1870  -27.7010   19.0210 C   0  0  0  0  0  0  0  0  0  0  0  0
  -23.3640  -31.0710   21.5550 C   0  0  0  0  0  3  0  0  0  0  0  0
  -24.4480  -29.8410   19.5500 C   0  0  0  0  0  0  0  0  0  0  0  0
  -25.9060  -31.1340   21.0370 C   0  0  0  0  0  2  0  0  0  0  0  0
  -25.7060  -29.8920   20.1540 C   0  0  0  0  0  0  0  0  0  0  0  0
  -26.6080  -28.7760   19.9270 C   0  0  0  0  0  3  0  0  0  0  0  0
  -25.1260  -27.9890   18.1950 C   0  0  0  0  0  3  0  0  0  0  0  0
  -24.1990  -28.9410   18.5280 C   0  0  0  0  0  3  0  0  0  0  0  0
  -23.3140  -30.7190   20.0370 C   0  0  0  0  0  2  0  0  0  0  0  0
  -24.7380  -31.5280   21.8980 N   0  0  0  0  0  0  0  0  0  0  0  0
  -23.8650  -32.5290   23.7390 O   0  0  0  0  0  0  0  0  0  0  0  0
  -22.9580  -29.9300   22.5670 C   0  0  0  0  0  0  0  0  0  0  0  0
  -21.7440  -29.8370   23.1230 N   0  0  0  0  0  0  0  0  0  0  0  0
  -23.7890  -29.1010   22.9060 O   0  0  0  0  0  0  0  0  0  0  0  0
  -21.1430  -30.6370   22.9800 H   0  0  0  0  0  0  0  0  0  0  0  0
  -18.2660  -28.9800   22.4880 C   0  0  0  0  0  0  0  0  0  0  0  0
  -20.9670  -28.5880   23.5820 C   0  0  0  0  0  3  0  0  0  0  0  0
  -21.3970  -26.8550   22.7100 C   0  0  0  0  0  1  0  0  0  0  0  0
  -19.6800  -26.5020   20.9160 C   0  0  0  0  0  1  0  0  0  0  0  0
  -18.2840  -27.8060   21.1740 C   0  0  0  0  0  2  0  0  0  0  0  0
  -19.4230  -29.3340   23.4110 C   0  0  0  0  0  0  0  0  0  0  0  0
  -19.2210  -30.4560   24.2790 C   0  0  0  0  0  3  0  0  0  0  0  0
  -17.9690  -31.0560   24.5120 C   0  0  0  0  0  3  0  0  0  0  0  0
  -16.8350  -30.5010   23.9070 C   0  0  0  0  0  3  0  0  0  0  0  0
  -16.9930  -29.4930   22.9230 C   0  0  0  0  0  3  0  0  0  0  0  0
  -26.2430  -32.6710   23.5840 C   0  0  0  0  0  3  0  0  0  0  0  0
  -26.0780  -34.0430   24.0850 N   0  0  0  0  0  0  0  0  0  0  0  0
  -26.3890  -35.1470   23.3970 C   0  0  0  0  0  0  0  0  0  0  0  0
  -26.9360  -35.1110   22.2930 O   0  0  0  0  0  0  0  0  0  0  0  0
  -25.5950  -34.1490   24.9650 H   0  0  0  0  0  0  0  0  0  0  0  0
  -24.7760  -37.0800   23.4000 C   0  0  0  0  0  1  0  0  0  0  0  0
  -26.0470  -36.5040   24.0430 C   0  0  0  0  0  3  0  0  0  0  0  0
  -28.3130  -37.1380   24.7470 C   0  0  0  0  0  1  0  0  0  0  0  0
  -27.1440  -37.4910   23.9450 N   0  0  0  0  0  0  0  0  0  0  0  0
  -26.8280  -38.4130   24.2330 H   0  0  0  0  0  0  0  0  0  0  0  0
  -26.7940  -31.7290   24.7230 C   0  0  1  0  0  0  0  0  0  0  0  0
  -25.7820  -31.4610   25.8620 C   0  0  0  0  0  1  0  0  0  0  0  0
  -27.2240  -30.3570   24.1580 C   0  0  0  0  0  1  0  0  0  0  0  0
  -28.0600  -32.3610   25.3450 C   0  0  0  0  0  1  0  0  0  0  0  0
  -19.4050  -26.1100   23.4580 C   0  0  0  0  0  1  0  0  0  0  0  0
  -20.8510  -27.9480   21.7880 C   0  0  0  0  0  2  0  0  0  0  0  0
  -22.7360  -27.2880   21.3290 C   0  0  0  0  0 15  0  0  0  0  0  0
  -23.9430  -25.7960   21.8980 C   0  0  0  0  0  1  0  0  0  0  0  0
  -25.5520  -25.0590   21.9710 N   0  0  0  0  0  4  0  0  0  0  0  0
  -25.5370  -24.7720   22.9390 H   0  0  0  0  0  0  0  0  0  0  0  0
  -26.2130  -25.8190   21.9930 H   0  0  0  0  0  0  0  0  0  0  0  0
  -26.4260  -23.6580   21.3170 C   0  0  0  0  0  2  0  0  0  0  0  0
  -28.1910  -23.2390   20.6450 C   0  0  0  0  0  2  0  0  0  0  0  0
  -29.0840  -21.9820   19.4910 C   0  0  0  0  0  3  0  0  0  0  0  0
  -30.8560  -21.3810   19.0360 C   0  0  0  0  0  3  0  0  0  0  0  0
  -32.9790  -19.7310   17.3690 C   0  0  0  0  0  0  0  0  0  0  0  0
  -34.8170  -19.1830   15.5010 C   0  0  0  0  0  2  0  0  0  0  0  0
  -35.2930  -20.3990   14.6460 C   0  0  0  0  0  2  0  0  0  0  0  0
  -34.2730  -20.7420   13.5480 C   0  0  0  0  0  2  0  0  0  0  0  0
  -32.8320  -20.6530   14.0990 C   0  0  0  0  0  3  0  0  0  0  0  0
  -32.5470  -19.3470   14.8520 C   0  0  0  0  0  2  0  0  0  0  0  0
  -33.3940  -19.3980   16.0310 N   0  0  0  0  0  0  0  0  0  0  0  0
  -33.8920  -19.3920   18.1550 O   0  0  0  0  0  0  0  0  0  0  0  0
  -31.6880  -20.4950   17.7590 N   0  0  0  0  0  0  0  0  0  0  0  0
  -31.1320  -20.5630   16.9170 H   0  0  0  0  0  0  0  0  0  0  0  0
  -30.6450  -21.6020   13.2570 C   0  0  0  0  0  0  0  0  0  0  0  0
  -30.0470  -21.5850   12.0310 C   0  0  0  0  0  0  0  0  0  0  0  0
  -30.9060  -20.8210   11.1790 C   0  0  0  0  0  0  0  0  0  0  0  0
  -31.8170  -20.8890   13.1030 N   0  0  0  0  0  0  0  0  0  0  0  0
  -31.9400  -20.3520   11.8640 N   0  0  0  0  0  0  0  0  0  0  0  0
  -30.8380  -20.5680    9.7380 C   0  0  0  0  0  0  0  0  0  0  0  0
  -30.9140  -19.2600    9.2120 C   0  0  0  0  0  3  0  0  0  0  0  0
  -30.8240  -19.0450    7.8210 C   0  0  0  0  0  3  0  0  0  0  0  0
  -30.6550  -20.1420    6.9420 C   0  0  0  0  0  0  0  0  0  0  0  0
  -30.6050  -21.4440    7.4710 C   0  0  0  0  0  3  0  0  0  0  0  0
  -30.6990  -21.6570    8.8560 C   0  0  0  0  0  3  0  0  0  0  0  0
  -30.5830  -20.0320    5.5760 O   0  0  0  0  0  0  0  0  0  0  0  0
  -30.1430  -18.8830    4.9690 C   0  0  0  0  0  0  0  0  0  0  0  0
  -28.8780  -18.3250    5.2580 C   0  0  0  0  0  3  0  0  0  0  0  0
  -28.4390  -17.1820    4.5600 C   0  0  0  0  0  3  0  0  0  0  0  0
  -29.2540  -16.6040    3.5690 C   0  0  0  0  0  0  0  0  0  0  0  0
  -30.5110  -17.1610    3.2770 C   0  0  0  0  0  3  0  0  0  0  0  0
  -30.9530  -18.3000    3.9740 C   0  0  0  0  0  0  0  0  0  0  0  0
  -32.1550  -18.8470    3.6740 F   0  0  0  0  0  0  0  0  0  0  0  0
  -28.8280  -15.5110    2.8940 F   0  0  0  0  0  0  0  0  0  0  0  0
  -28.8020  -22.3240   11.6480 C   0  0  0  0  0  0  0  0  0  0  0  0
  -28.0420  -21.7930   10.6980 N   0  0  0  0  0  0  0  0  0  0  0  0
  -28.4730  -23.3590   12.2270 O   0  0  0  0  0  0  0  0  0  0  0  0
  -28.3070  -20.9340   10.2380 H   0  0  0  0  0  0  0  0  0  0  0  0
  -27.1830  -22.2500   10.4270 H   0  0  0  0  0  0  0  0  0  0  0  0
  -30.3150  -22.1870   14.4780 N   0  0  0  0  0  0  0  0  0  0  0  0
  -29.5050  -22.7890   14.5690 H   0  0  0  0  0  0  0  0  0  0  0  0
  -30.9630  -22.2810   15.2470 H   0  0  0  0  0  0  0  0  0  0  0  0
  1 55  1  0
  1  3  1  0
  1  2  1  0
  4  1  1  0
  5  7  1  0
  6  9  1  0
  6  8  2  0
  7 10  2  0
  8 10  1  0
  9  5  2  0
 10  4  1  0
 11  9  1  0
 11 14  1  0
 12 11  2  0
 13 12  1  0
 14 16  1  0
 15 26  2  0
 16 21  1  0
 17 25  1  0
 17 27  1  0
 18 24  1  0
 18 20  1  0
 19 25  1  0
 20 19  1  0
 21 20  2  0
 22 23  1  0
 22 16  2  0
 23 18  2  0
 24 17  1  0
 25 15  1  0
 27 29  2  0
 27 28  1  0
 28 32  1  0
 30 28  1  0
 31 40  2  0
 31 36  1  0
 32 56  1  0
 34 35  1  0
 35 31  1  0
 36 32  1  0
 36 37  2  0
 37 38  1  0
 39 38  2  0
 40 39  1  0
 41 15  1  0
 41 42  1  0
 41 51  1  0
 42 45  1  0
 43 47  1  0
 43 42  1  0
 44 43  2  0
 47 46  1  0
 49 47  1  0
 49 50  1  0
 49 48  1  0
 51 54  1  1
 51 52  1  0
 53 51  1  0
 56 33  1  0
 58 59  1  0
 59 61  1  0
 59 60  1  0
 62 59  1  0
 63 62  1  0
 64 63  1  0
 65 64  2  0
 66 74  1  0
 66 73  2  0
 67 72  1  0
 68 67  1  0
 69 70  1  0
 69 68  1  0
 70 79  1  0
 70 71  1  0
 71 72  1  0
 72 66  1  0
 74 65  1  0
 75 74  1  0
 76101  1  0
 77 76  2  0
 78 80  2  0
 78 77  1  0
 79 76  1  0
 80 79  1  0
 81 78  1  0
 82 81  1  0
 83 82  2  0
 84 85  2  0
 84 83  1  0
 85 86  1  0
 86 81  2  0
 87 84  1  0
 88 89  1  0
 88 87  1  0
 90 89  2  0
 91 90  1  0
 92 91  2  0
 92 93  1  0
 93 88  2  0
 94 93  1  0
 95 91  1  0
 96 77  1  0
 96 98  2  0
 97 96  1  0
 99 97  1  0
100 97  1  0
101102  1  0
101103  1  0
M  ISO  4  11 101  14 101  66 100  74 100
M  END
>  <TORSDO>  (12) 
F 28

>  <SCORE>  (12) 
-3.869

>  <name>  (12) 
11

>  <ligand_id>  (12) 
11

>  <original_smiles>  (12) 
[H]N=C(Oc1c([H])c([H])c2c(c1[H])C([H])([H])N(C(=O)C([H])(N([H])C(=O)C([H])(N([H])C([H])([H])[H])C([H])([H])[H])C(C([H])([H])[H])(C([H])([H])[H])C([H])([H])[H])C([H])(C(=O)N([H])C1([H])c3c([H])c([H])c([H])c([H])c3C([H])([H])C([H])([H])C1([H])[H])C2([H])[H])c1c([H])c([H])c(C([H])([H])[N+]([H])([H])C([H])([H])C([H])([H])C([H])([H])C([H])([H])[N+]([H])([H])C([H])([H])C([H])([H])C([H])([H])C([H])([H])N([H])C(=O)N2C([H])([H])C([H])([H])C([H])([H])C([H])(n3nc(-c4c([H])c([H])c(Oc5c([H])c([H])c(F)c([H])c5F)c([H])c4[H])c(C(=O)N([H])[H])c3N([H])[H])C2([H])[H])c([H])c1[H]

>  <smiles>  (12) 
[H]N=C(Oc1c([H])c([H])c2c(c1[H])C([H])([H])N(C(=O)C([H])(N([H])C(=O)C([H])(N([H])C([H])([H])[H])C([H])([H])[H])C(C([H])([H])[H])(C([H])([H])[H])C([H])([H])[H])C([H])(C(=O)N([H])C1([H])c3c([H])c([H])c([H])c([H])c3C([H])([H])C([H])([H])C1([H])[H])C2([H])[H])c1c([H])c([H])c(C([H])([H])[N+]([H])([H])C([H])([H])C([H])([H])C([H])([H])C([H])([H])[N+]([H])([H])C([H])([H])C([H])([H])C([H])([H])C([H])([H])N([H])C(=O)N2C([H])([H])C([H])([H])C([H])([H])C([H])(n3nc(-c4c([H])c([H])c(Oc5c([H])c([H])c(F)c([H])c5F)c([H])c4[H])c(C(=O)N([H])[H])c3N([H])[H])C2([H])[H])c([H])c1[H]

$$$$
12:0:0
     RDKit          3D

 90 98  0  0  1  0  0  0  0  0999 V2000
  -29.5490  -20.5230   20.3780 N   0  0  0  0  0  4  0  0  0  0  0  0
  -30.2470  -20.6530   19.6640 H   0  0  0  0  0  0  0  0  0  0  0  0
  -30.0170  -20.6250   21.2620 H   0  0  0  0  0  0  0  0  0  0  0  0
  -30.5200  -14.9910   20.4920 C   0  0  0  0  0  0  0  0  0  0  0  0
  -30.4260  -12.6040   19.6580 C   0  0  0  0  0  2  0  0  0  0  0  0
  -29.5480  -12.4860   18.3920 C   0  0  0  0  0  2  0  0  0  0  0  0
  -28.0590  -12.3230   18.7640 C   0  0  0  0  0  2  0  0  0  0  0  0
  -27.5960  -13.2750   19.9010 C   0  0  0  0  0  3  0  0  0  0  0  0
  -28.6170  -13.3570   21.0550 C   0  0  0  0  0  2  0  0  0  0  0  0
  -29.9040  -13.7410   20.4600 N   0  0  0  0  0  0  0  0  0  0  0  0
  -31.7540  -15.0120   20.4530 O   0  0  0  0  0  0  0  0  0  0  0  0
  -28.6020  -18.7160   18.8580 C   0  0  0  0  0  0  0  0  0  0  0  0
  -28.1420  -17.2790   18.6240 C   0  0  0  0  0  2  0  0  0  0  0  0
  -29.3030  -16.2850   18.8470 C   0  0  0  0  0  2  0  0  0  0  0  0
  -30.1360  -17.6910   20.6320 C   0  0  0  0  0  2  0  0  0  0  0  0
  -29.1200  -18.9920   20.2700 C   0  0  0  0  0  3  0  0  0  0  0  0
  -29.7780  -16.1980   20.2480 N   0  0  0  0  0  0  0  0  0  0  0  0
  -28.5840  -19.5350   17.9340 O   0  0  0  0  0  0  0  0  0  0  0  0
  -25.1920  -13.8680   20.5290 C   0  0  0  0  0  0  0  0  0  0  0  0
  -24.1130  -13.0990   20.8630 C   0  0  0  0  0  0  0  0  0  0  0  0
  -24.5820  -11.7500   20.8850 C   0  0  0  0  0  0  0  0  0  0  0  0
  -26.2460  -12.9860   20.3580 N   0  0  0  0  0  0  0  0  0  0  0  0
  -25.8860  -11.7080   20.6390 N   0  0  0  0  0  0  0  0  0  0  0  0
  -23.8520  -10.4900   21.0660 C   0  0  0  0  0  0  0  0  0  0  0  0
  -24.2590   -9.5330   22.0200 C   0  0  0  0  0  3  0  0  0  0  0  0
  -23.5270   -8.3380   22.1900 C   0  0  0  0  0  3  0  0  0  0  0  0
  -22.3750   -8.0940   21.4050 C   0  0  0  0  0  0  0  0  0  0  0  0
  -21.9870   -9.0410   20.4410 C   0  0  0  0  0  3  0  0  0  0  0  0
  -22.7200  -10.2270   20.2680 C   0  0  0  0  0  3  0  0  0  0  0  0
  -21.6160   -6.9510   21.4850 O   0  0  0  0  0  0  0  0  0  0  0  0
  -21.5520   -6.2110   22.6380 C   0  0  0  0  0  0  0  0  0  0  0  0
  -21.1240   -6.7710   23.8620 C   0  0  0  0  0  3  0  0  0  0  0  0
  -21.0060   -5.9570   25.0060 C   0  0  0  0  0  3  0  0  0  0  0  0
  -21.3050   -4.5830   24.9270 C   0  0  0  0  0  0  0  0  0  0  0  0
  -21.7260   -4.0230   23.7080 C   0  0  0  0  0  3  0  0  0  0  0  0
  -21.8470   -4.8340   22.5660 C   0  0  0  0  0  0  0  0  0  0  0  0
  -22.2330   -4.2850   21.3900 F   0  0  0  0  0  0  0  0  0  0  0  0
  -21.1840   -3.7980   26.0230 F   0  0  0  0  0  0  0  0  0  0  0  0
  -22.7040  -13.5790   21.0530 C   0  0  0  0  0  0  0  0  0  0  0  0
  -21.9370  -12.9080   21.9030 N   0  0  0  0  0  0  0  0  0  0  0  0
  -22.2910  -14.5880   20.4810 O   0  0  0  0  0  0  0  0  0  0  0  0
  -22.2820  -12.0940   22.3890 H   0  0  0  0  0  0  0  0  0  0  0  0
  -20.9900  -13.2150   22.0720 H   0  0  0  0  0  0  0  0  0  0  0  0
  -25.3600  -15.2360   20.3310 N   0  0  0  0  0  0  0  0  0  0  0  0
  -24.5890  -15.8910   20.4020 H   0  0  0  0  0  0  0  0  0  0  0  0
  -26.2330  -15.6700   20.0710 H   0  0  0  0  0  0  0  0  0  0  0  0
  -28.5490  -21.7530   20.2460 C   0  0  0  0  0  2  0  0  0  0  0  0
  -29.0010  -23.3770   20.3630 C   0  0  0  0  0  3  0  0  0  0  0  0
  -27.9630  -24.6840   20.1220 C   0  0  0  0  0  3  0  0  0  0  0  0
  -28.2490  -26.2090   20.2530 O   0  0  0  0  0  0  0  0  0  0  0  0
  -24.6430  -31.9060   23.2250 C   0  0  0  0  0  0  0  0  0  0  0  0
  -27.1900  -27.1870   20.1910 C   0  0  0  0  0  0  0  0  0  0  0  0
  -23.4290  -30.5120   21.5940 C   0  0  0  0  0  3  0  0  0  0  0  0
  -24.8640  -28.9300   20.1670 C   0  0  0  0  0  0  0  0  0  0  0  0
  -25.9820  -30.7700   21.4150 C   0  0  0  0  0  2  0  0  0  0  0  0
  -26.0470  -29.3780   20.7670 C   0  0  0  0  0  0  0  0  0  0  0  0
  -27.2120  -28.5220   20.7600 C   0  0  0  0  0  3  0  0  0  0  0  0
  -25.9780  -26.8390   19.5520 C   0  0  0  0  0  3  0  0  0  0  0  0
  -24.8410  -27.6750   19.5460 C   0  0  0  0  0  3  0  0  0  0  0  0
  -23.6390  -29.8310   20.2170 C   0  0  0  0  0  2  0  0  0  0  0  0
  -24.7050  -31.0840   22.1340 N   0  0  0  0  0  0  0  0  0  0  0  0
  -23.5600  -32.1970   23.7570 O   0  0  0  0  0  0  0  0  0  0  0  0
  -22.7500  -29.5100   22.5620 C   0  0  0  0  0  0  0  0  0  0  0  0
  -21.4190  -29.3490   22.4450 N   0  0  0  0  0  0  0  0  0  0  0  0
  -23.4230  -28.8790   23.3810 O   0  0  0  0  0  0  0  0  0  0  0  0
  -20.9330  -29.9090   21.7590 H   0  0  0  0  0  0  0  0  0  0  0  0
  -18.0360  -28.1660   22.9670 C   0  0  0  0  0  0  0  0  0  0  0  0
  -20.5970  -28.4190   23.2230 C   0  0  0  0  0  3  0  0  0  0  0  0
  -20.6900  -26.9840   22.6550 C   0  0  0  0  0  2  0  0  0  0  0  0
  -19.5830  -26.6600   21.6470 C   0  0  0  0  0  2  0  0  0  0  0  0
  -18.2040  -26.8140   22.2950 C   0  0  0  0  0  2  0  0  0  0  0  0
  -19.1590  -28.9260   23.3880 C   0  0  0  0  0  0  0  0  0  0  0  0
  -18.9460  -30.1910   23.9790 C   0  0  0  0  0  3  0  0  0  0  0  0
  -17.6440  -30.6970   24.1490 C   0  0  0  0  0  3  0  0  0  0  0  0
  -16.5360  -29.9350   23.7430 C   0  0  0  0  0  3  0  0  0  0  0  0
  -16.7320  -28.6710   23.1560 C   0  0  0  0  0  3  0  0  0  0  0  0
  -25.9260  -32.5380   23.8440 C   0  0  0  0  0  3  0  0  0  0  0  0
  -26.4490  -31.7580   25.1140 C   0  0  1  0  0  0  0  0  0  0  0  0
  -25.3640  -31.5180   26.1900 C   0  0  0  0  0  1  0  0  0  0  0  0
  -27.0260  -30.3810   24.7150 C   0  0  0  0  0  1  0  0  0  0  0  0
  -27.6070  -32.5460   25.7710 C   0  0  0  0  0  1  0  0  0  0  0  0
  -25.6160  -33.9340   24.1920 N   0  0  0  0  0  0  0  0  0  0  0  0
  -25.9250  -34.9960   23.4380 C   0  0  0  0  0  0  0  0  0  0  0  0
  -26.5690  -34.9040   22.3890 O   0  0  0  0  0  0  0  0  0  0  0  0
  -25.0410  -34.0790   25.0100 H   0  0  0  0  0  0  0  0  0  0  0  0
  -24.1730  -36.7830   23.1580 C   0  0  0  0  0  1  0  0  0  0  0  0
  -25.4450  -36.3800   23.9220 C   0  0  0  0  0  3  0  0  0  0  0  0
  -27.6050  -37.2730   24.6780 C   0  0  0  0  0  1  0  0  0  0  0  0
  -26.4670  -37.4410   23.7780 N   0  0  0  0  0  0  0  0  0  0  0  0
  -26.0600  -38.3570   23.9460 H   0  0  0  0  0  0  0  0  0  0  0  0
  1  3  1  0
  2  1  1  0
  5 10  1  0
  6  7  1  0
  6  5  1  0
  8  7  1  0
  8 22  1  0
  8  9  1  0
 10  4  1  0
 10  9  1  0
 11  4  2  0
 12 16  1  0
 13 14  1  0
 13 12  1  0
 14 17  1  0
 16  1  1  0
 16 15  1  0
 17  4  1  0
 17 15  1  0
 18 12  2  0
 19 20  2  0
 20 21  1  0
 20 39  1  0
 21 24  1  0
 22 19  1  0
 22 23  1  0
 23 21  2  0
 24 25  1  0
 25 26  2  0
 27 30  1  0
 27 26  1  0
 28 27  2  0
 29 28  1  0
 29 24  2  0
 30 31  1  0
 31 32  1  0
 32 33  2  0
 34 33  1  0
 34 38  1  0
 35 34  2  0
 36 31  2  0
 36 35  1  0
 37 36  1  0
 39 40  1  0
 40 43  1  0
 40 42  1  0
 41 39  2  0
 44 45  1  0
 44 19  1  0
 46 44  1  0
 47 48  1  0
 47  1  1  0
 49 50  1  0
 49 48  2  0
 51 62  2  0
 52 50  1  0
 52 57  1  0
 53 61  1  0
 53 63  1  0
 54 60  1  0
 54 56  1  0
 55 61  1  0
 56 55  1  0
 57 56  2  0
 58 52  2  0
 59 58  1  0
 59 54  2  0
 60 53  1  0
 61 51  1  0
 63 65  2  0
 64 63  1  0
 66 64  1  0
 67 76  2  0
 67 72  1  0
 68 64  1  0
 68 72  1  0
 69 68  1  0
 70 71  1  0
 70 69  1  0
 71 67  1  0
 72 73  2  0
 73 74  1  0
 75 74  2  0
 76 75  1  0
 77 51  1  0
 77 82  1  0
 77 78  1  0
 78 81  1  1
 78 79  1  0
 80 78  1  0
 82 85  1  0
 83 87  1  0
 83 82  1  0
 84 83  2  0
 87 86  1  0
 89 87  1  0
 89 90  1  0
 89 88  1  0
M  ISO  4   4 100  17 100  49 101  50 101
M  END
>  <TORSDO>  (13) 
F 19

>  <SCORE>  (13) 
-13.953

>  <name>  (13) 
12

>  <ligand_id>  (13) 
12

>  <original_smiles>  (13) 
[H]c1c([H])c([H])c2c(c1[H])C([H])([H])C([H])([H])C([H])([H])C2([H])N([H])C(=O)C1([H])N(C(=O)C([H])(N([H])C(=O)C([H])(N([H])C([H])([H])[H])C([H])([H])[H])C(C([H])([H])[H])(C([H])([H])[H])C([H])([H])[H])C([H])([H])c2c([H])c(OC([H])([H])C([H])([H])C([H])([H])[N+]([H])([H])C3([H])C(=O)C([H])([H])C([H])([H])N(C(=O)N4C([H])([H])C([H])([H])C([H])([H])C([H])(n5nc(-c6c([H])c([H])c(Oc7c([H])c([H])c(F)c([H])c7F)c([H])c6[H])c(C(=O)N([H])[H])c5N([H])[H])C4([H])[H])C3([H])[H])c([H])c([H])c2C1([H])[H]

>  <smiles>  (13) 
[H]c1c([H])c([H])c2c(c1[H])C([H])([H])C([H])([H])C([H])([H])C2([H])N([H])C(=O)C1([H])N(C(=O)C([H])(N([H])C(=O)C([H])(N([H])C([H])([H])[H])C([H])([H])[H])C(C([H])([H])[H])(C([H])([H])[H])C([H])([H])[H])C([H])([H])c2c([H])c(OC([H])([H])C([H])([H])C([H])([H])[N+]([H])([H])C3([H])C(=O)C([H])([H])C([H])([H])N(C(=O)N4C([H])([H])C([H])([H])C([H])([H])C([H])(n5nc(-c6c([H])c([H])c(Oc7c([H])c([H])c(F)c([H])c7F)c([H])c6[H])c(C(=O)N([H])[H])c5N([H])[H])C4([H])[H])C3([H])[H])c([H])c([H])c2C1([H])[H]

$$$$
13:0:0
     RDKit          3D

 92100  0  0  1  0  0  0  0  0999 V2000
  -30.4810  -15.3560   20.3640 C   0  0  0  0  0  0  0  0  0  0  0  0
  -30.4320  -12.8840   19.5310 C   0  0  0  0  0  2  0  0  0  0  0  0
  -29.5580  -12.6050   18.2840 C   0  0  0  0  0  2  0  0  0  0  0  0
  -28.1010  -12.3410   18.6970 C   0  0  0  0  0  2  0  0  0  0  0  0
  -27.6140  -13.3460   19.7690 C   0  0  0  0  0  3  0  0  0  0  0  0
  -28.6290  -13.5740   20.9080 C   0  0  0  0  0  2  0  0  0  0  0  0
  -29.8540  -14.0740   20.2680 N   0  0  0  0  0  0  0  0  0  0  0  0
  -31.7110  -15.2290   20.2480 O   0  0  0  0  0  0  0  0  0  0  0  0
  -29.2740  -20.2980   18.7160 C   0  0  0  0  0  2  0  0  0  0  0  0
  -29.1580  -18.7080   18.4960 C   0  0  0  0  0  2  0  0  0  0  0  0
  -29.4450  -19.6300   21.0700 C   0  0  0  0  0  2  0  0  0  0  0  0
  -29.2620  -17.8650   21.0930 C   0  0  0  0  0  2  0  0  0  0  0  0
  -28.7960  -20.9050   20.0940 C   0  0  0  0  0  3  0  0  0  0  0  0
  -30.3050  -17.6870   19.0300 C   0  0  0  0  0  3  0  0  0  0  0  0
  -29.8680  -16.7200   20.1330 N   0  0  0  0  0  0  0  0  0  0  0  0
  -25.2400  -13.9220   20.4720 C   0  0  0  0  0  0  0  0  0  0  0  0
  -24.1670  -13.1550   20.8280 C   0  0  0  0  0  0  0  0  0  0  0  0
  -24.6300  -11.8020   20.8250 C   0  0  0  0  0  0  0  0  0  0  0  0
  -26.2800  -13.0400   20.2610 N   0  0  0  0  0  0  0  0  0  0  0  0
  -25.9270  -11.7590   20.5440 N   0  0  0  0  0  0  0  0  0  0  0  0
  -23.8940  -10.5460   21.0150 C   0  0  0  0  0  0  0  0  0  0  0  0
  -24.3050   -9.5830   21.9630 C   0  0  0  0  0  3  0  0  0  0  0  0
  -23.5640   -8.3950   22.1440 C   0  0  0  0  0  3  0  0  0  0  0  0
  -22.4000   -8.1600   21.3740 C   0  0  0  0  0  0  0  0  0  0  0  0
  -22.0100   -9.1100   20.4150 C   0  0  0  0  0  3  0  0  0  0  0  0
  -22.7500  -10.2900   20.2330 C   0  0  0  0  0  3  0  0  0  0  0  0
  -21.6320   -7.0240   21.4640 O   0  0  0  0  0  0  0  0  0  0  0  0
  -21.5630   -6.2910   22.6210 C   0  0  0  0  0  0  0  0  0  0  0  0
  -21.1270   -6.8600   23.8380 C   0  0  0  0  0  3  0  0  0  0  0  0
  -21.0020   -6.0530   24.9870 C   0  0  0  0  0  3  0  0  0  0  0  0
  -21.3060   -4.6810   24.9210 C   0  0  0  0  0  0  0  0  0  0  0  0
  -21.7360   -4.1120   23.7080 C   0  0  0  0  0  3  0  0  0  0  0  0
  -21.8620   -4.9150   22.5610 C   0  0  0  0  0  0  0  0  0  0  0  0
  -22.2550   -4.3570   21.3920 F   0  0  0  0  0  0  0  0  0  0  0  0
  -21.1810   -3.9050   26.0230 F   0  0  0  0  0  0  0  0  0  0  0  0
  -22.7660  -13.6400   21.0550 C   0  0  0  0  0  0  0  0  0  0  0  0
  -22.0210  -12.9660   21.9220 N   0  0  0  0  0  0  0  0  0  0  0  0
  -22.3430  -14.6540   20.4990 O   0  0  0  0  0  0  0  0  0  0  0  0
  -22.3820  -12.1490   22.3920 H   0  0  0  0  0  0  0  0  0  0  0  0
  -21.0800  -13.2730   22.1240 H   0  0  0  0  0  0  0  0  0  0  0  0
  -25.4180  -15.2910   20.2800 N   0  0  0  0  0  0  0  0  0  0  0  0
  -24.6640  -15.9610   20.3820 H   0  0  0  0  0  0  0  0  0  0  0  0
  -26.2840  -15.7150   19.9770 H   0  0  0  0  0  0  0  0  0  0  0  0
  -28.9580  -22.7190   20.3120 C   0  0  0  0  0  3  0  0  0  0  0  0
  -28.0330  -24.2280   19.8690 C   0  0  0  0  0  3  0  0  0  0  0  0
  -28.2280  -25.8650   20.0870 O   0  0  0  0  0  0  0  0  0  0  0  0
  -24.6010  -31.7830   23.0720 C   0  0  0  0  0  0  0  0  0  0  0  0
  -27.2120  -26.9620   20.0040 C   0  0  0  0  0  0  0  0  0  0  0  0
  -23.4260  -30.4030   21.4120 C   0  0  0  0  0  3  0  0  0  0  0  0
  -24.8950  -28.8310   19.9640 C   0  0  0  0  0  0  0  0  0  0  0  0
  -25.9910  -30.6360   21.2770 C   0  0  0  0  0  2  0  0  0  0  0  0
  -26.0770  -29.2360   20.5980 C   0  0  0  0  0  0  0  0  0  0  0  0
  -27.2290  -28.3230   20.5900 C   0  0  0  0  0  3  0  0  0  0  0  0
  -26.0010  -26.7160   19.3150 C   0  0  0  0  0  3  0  0  0  0  0  0
  -24.8840  -27.5940   19.2990 C   0  0  0  0  0  3  0  0  0  0  0  0
  -23.6610  -29.7370   20.0290 C   0  0  0  0  0  2  0  0  0  0  0  0
  -24.6940  -30.9670   21.9740 N   0  0  0  0  0  0  0  0  0  0  0  0
  -23.5060  -32.0570   23.5930 O   0  0  0  0  0  0  0  0  0  0  0  0
  -22.7390  -29.3860   22.3600 C   0  0  0  0  0  0  0  0  0  0  0  0
  -21.4060  -29.2420   22.2540 N   0  0  0  0  0  0  0  0  0  0  0  0
  -23.4110  -28.7270   23.1570 O   0  0  0  0  0  0  0  0  0  0  0  0
  -20.9160  -29.8210   21.5850 H   0  0  0  0  0  0  0  0  0  0  0  0
  -18.0120  -28.0880   22.8270 C   0  0  0  0  0  0  0  0  0  0  0  0
  -20.5850  -28.2920   23.0110 C   0  0  0  0  0  3  0  0  0  0  0  0
  -20.6360  -26.8830   22.3740 C   0  0  0  0  0  2  0  0  0  0  0  0
  -19.4930  -26.6250   21.3860 C   0  0  0  0  0  2  0  0  0  0  0  0
  -18.1380  -26.7690   22.0820 C   0  0  0  0  0  2  0  0  0  0  0  0
  -19.1620  -28.8110   23.2480 C   0  0  0  0  0  0  0  0  0  0  0  0
  -18.9870  -30.0460   23.9070 C   0  0  0  0  0  3  0  0  0  0  0  0
  -17.6990  -30.5610   24.1470 C   0  0  0  0  0  3  0  0  0  0  0  0
  -16.5660  -29.8360   23.7400 C   0  0  0  0  0  3  0  0  0  0  0  0
  -16.7230  -28.6000   23.0860 C   0  0  0  0  0  3  0  0  0  0  0  0
  -25.8620  -32.4280   23.7210 C   0  0  0  0  0  3  0  0  0  0  0  0
  -26.3810  -31.6400   24.9890 C   0  0  1  0  0  0  0  0  0  0  0  0
  -25.2870  -31.3690   26.0490 C   0  0  0  0  0  1  0  0  0  0  0  0
  -26.9840  -30.2760   24.5850 C   0  0  0  0  0  1  0  0  0  0  0  0
  -27.5160  -32.4390   25.6730 C   0  0  0  0  0  1  0  0  0  0  0  0
  -25.5210  -33.8130   24.0940 N   0  0  0  0  0  0  0  0  0  0  0  0
  -25.8280  -34.9010   23.3760 C   0  0  0  0  0  0  0  0  0  0  0  0
  -26.4920  -34.8480   22.3380 O   0  0  0  0  0  0  0  0  0  0  0  0
  -24.9250  -33.9230   24.9020 H   0  0  0  0  0  0  0  0  0  0  0  0
  -24.0630  -36.6800   23.1180 C   0  0  0  0  0  1  0  0  0  0  0  0
  -25.3250  -36.2660   23.8910 C   0  0  0  0  0  3  0  0  0  0  0  0
  -27.4540  -37.1690   24.7180 C   0  0  0  0  0  1  0  0  0  0  0  0
  -26.3340  -37.3420   23.7960 N   0  0  0  0  0  0  0  0  0  0  0  0
  -25.9140  -38.2510   23.9760 H   0  0  0  0  0  0  0  0  0  0  0  0
  -31.0640  -17.0010   17.8540 C   0  0  0  0  0  2  0  0  0  0  0  0
  -32.6050  -17.1350   17.9790 C   0  0  0  0  0  2  0  0  0  0  0  0
  -33.3420  -16.1340   17.1870 N   0  0  0  0  0  4  0  0  0  0  0  0
  -33.1220  -15.2010   17.4870 H   0  0  0  0  0  0  0  0  0  0  0  0
  -34.3280  -16.2700   17.3190 H   0  0  0  0  0  0  0  0  0  0  0  0
  -33.1400  -16.2250   16.2080 H   0  0  0  0  0  0  0  0  0  0  0  0
  2  7  1  0
  3  4  1  0
  3  2  1  0
  5  4  1  0
  5 19  1  0
  5  6  1  0
  7  1  1  0
  7  6  1  0
  8  1  2  0
  9 13  1  0
 10  9  1  0
 10 14  1  0
 11 12  1  0
 13 44  1  0
 13 11  1  0
 14 87  1  0
 14 15  1  0
 15  1  1  0
 15 12  1  0
 16 17  2  0
 17 36  1  0
 18 17  1  0
 18 21  1  0
 19 16  1  0
 19 20  1  0
 20 18  2  0
 21 22  1  0
 22 23  2  0
 24 27  1  0
 24 23  1  0
 25 24  2  0
 26 25  1  0
 26 21  2  0
 27 28  1  0
 28 29  1  0
 29 30  2  0
 31 30  1  0
 31 35  1  0
 32 31  2  0
 33 28  2  0
 33 32  1  0
 34 33  1  0
 36 37  1  0
 37 40  1  0
 37 39  1  0
 38 36  2  0
 41 42  1  0
 41 16  1  0
 43 41  1  0
 45 46  1  0
 45 44  2  0
 47 58  2  0
 48 46  1  0
 48 53  1  0
 49 57  1  0
 49 59  1  0
 50 56  1  0
 50 52  1  0
 51 57  1  0
 52 51  1  0
 53 52  2  0
 54 48  2  0
 55 54  1  0
 55 50  2  0
 56 49  1  0
 57 47  1  0
 59 61  2  0
 60 59  1  0
 62 60  1  0
 63 72  2  0
 63 68  1  0
 64 60  1  0
 64 68  1  0
 65 64  1  0
 66 67  1  0
 66 65  1  0
 67 63  1  0
 68 69  2  0
 69 70  1  0
 71 70  2  0
 72 71  1  0
 73 47  1  0
 73 78  1  0
 73 74  1  0
 74 77  1  1
 74 75  1  0
 76 74  1  0
 78 81  1  0
 79 83  1  0
 79 78  1  0
 80 79  2  0
 83 82  1  0
 85 83  1  0
 85 86  1  0
 85 84  1  0
 87 88  1  0
 89 91  1  0
 89 90  1  0
 89 88  1  0
 92 89  1  0
M  ISO  4   1 100  15 100  45 101  46 101
M  END
>  <TORSDO>  (14) 
F 20

>  <SCORE>  (14) 
-14.965

>  <name>  (14) 
13

>  <ligand_id>  (14) 
13

>  <original_smiles>  (14) 
[H]c1c([H])c([H])c2c(c1[H])C([H])([H])C([H])([H])C([H])([H])C2([H])N([H])C(=O)C1([H])N(C(=O)C([H])(N([H])C(=O)C([H])(N([H])C([H])([H])[H])C([H])([H])[H])C(C([H])([H])[H])(C([H])([H])[H])C([H])([H])[H])C([H])([H])c2c([H])c(OC([H])([H])C([H])([H])C3([H])C([H])([H])C([H])([H])N(C(=O)N4C([H])([H])C([H])([H])C([H])([H])C([H])(n5nc(-c6c([H])c([H])c(Oc7c([H])c([H])c(F)c([H])c7F)c([H])c6[H])c(C(=O)N([H])[H])c5N([H])[H])C4([H])[H])C([H])(C([H])([H])C([H])([H])[N+]([H])([H])[H])C([H])([H])C3([H])[H])c([H])c([H])c2C1([H])[H]

>  <smiles>  (14) 
[H]c1c([H])c([H])c2c(c1[H])C([H])([H])C([H])([H])C([H])([H])C2([H])N([H])C(=O)C1([H])N(C(=O)C([H])(N([H])C(=O)C([H])(N([H])C([H])([H])[H])C([H])([H])[H])C(C([H])([H])[H])(C([H])([H])[H])C([H])([H])[H])C([H])([H])c2c([H])c(OC([H])([H])C([H])([H])C3([H])C([H])([H])C([H])([H])N(C(=O)N4C([H])([H])C([H])([H])C([H])([H])C([H])(n5nc(-c6c([H])c([H])c(Oc7c([H])c([H])c(F)c([H])c7F)c([H])c6[H])c(C(=O)N([H])[H])c5N([H])[H])C4([H])[H])C([H])(C([H])([H])C([H])([H])[N+]([H])([H])[H])C([H])([H])C3([H])[H])c([H])c([H])c2C1([H])[H]

$$$$
14:0:0
     RDKit          3D

 92101  0  0  1  0  0  0  0  0999 V2000
  -29.9320  -21.6620   21.2090 C   0  0  0  0  0  2  0  0  0  0  0  0
  -29.7380  -23.3070   20.7650 C   0  0  0  0  0  2  0  0  0  0  0  0
  -28.3130  -21.2910   19.5790 C   0  0  0  0  0  2  0  0  0  0  0  0
  -29.1600  -20.3010   20.6200 C   0  0  0  0  0  3  0  0  0  0  0  0
  -27.6140  -22.8550   19.9040 C   0  0  0  0  0  3  0  0  0  0  0  0
  -28.3350  -24.1790   20.6490 C   0  0  0  0  0  3  0  0  0  0  0  0
  -30.4120  -15.6140   20.2590 C   0  0  0  0  0  0  0  0  0  0  0  0
  -30.4160  -13.1310   19.3670 C   0  0  0  0  0  2  0  0  0  0  0  0
  -29.4980  -12.8250   18.1550 C   0  0  0  0  0  2  0  0  0  0  0  0
  -28.0780  -12.4820   18.6290 C   0  0  0  0  0  2  0  0  0  0  0  0
  -27.5990  -13.4640   19.7240 C   0  0  0  0  0  3  0  0  0  0  0  0
  -28.6500  -13.7170   20.8300 C   0  0  0  0  0  2  0  0  0  0  0  0
  -29.8380  -14.2900   20.1610 N   0  0  0  0  0  0  0  0  0  0  0  0
  -31.6510  -15.5430   20.1630 O   0  0  0  0  0  0  0  0  0  0  0  0
  -29.9350  -18.0280   18.0610 C   0  0  0  0  0  2  0  0  0  0  0  0
  -30.7960  -18.8170   19.0490 C   0  0  0  0  0  2  0  0  0  0  0  0
  -29.0170  -17.1210   18.9170 C   0  0  0  0  0  2  0  0  0  0  0  0
  -30.0380  -18.6510   20.3560 C   0  0  0  0  0  3  0  0  0  0  0  0
  -29.6850  -16.9700   20.2080 N   0  0  0  0  0  0  0  0  0  0  0  0
  -25.2350  -13.9820   20.5060 C   0  0  0  0  0  0  0  0  0  0  0  0
  -24.1840  -13.1900   20.8700 C   0  0  0  0  0  0  0  0  0  0  0  0
  -24.6680  -11.8440   20.8250 C   0  0  0  0  0  0  0  0  0  0  0  0
  -26.2860  -13.1220   20.2500 N   0  0  0  0  0  0  0  0  0  0  0  0
  -25.9600  -11.8280   20.5110 N   0  0  0  0  0  0  0  0  0  0  0  0
  -23.9540  -10.5730   21.0040 C   0  0  0  0  0  0  0  0  0  0  0  0
  -24.3880   -9.6050   21.9360 C   0  0  0  0  0  3  0  0  0  0  0  0
  -23.6690   -8.4030   22.1050 C   0  0  0  0  0  3  0  0  0  0  0  0
  -22.5020   -8.1590   21.3440 C   0  0  0  0  0  0  0  0  0  0  0  0
  -22.0870   -9.1160   20.4020 C   0  0  0  0  0  3  0  0  0  0  0  0
  -22.8060  -10.3100   20.2290 C   0  0  0  0  0  3  0  0  0  0  0  0
  -21.7540   -7.0080   21.4250 O   0  0  0  0  0  0  0  0  0  0  0  0
  -21.6950   -6.2660   22.5790 C   0  0  0  0  0  0  0  0  0  0  0  0
  -21.2190   -6.8110   23.7920 C   0  0  0  0  0  3  0  0  0  0  0  0
  -21.1110   -5.9940   24.9360 C   0  0  0  0  0  3  0  0  0  0  0  0
  -21.4670   -4.6340   24.8660 C   0  0  0  0  0  0  0  0  0  0  0  0
  -21.9360   -4.0880   23.6570 C   0  0  0  0  0  3  0  0  0  0  0  0
  -22.0450   -4.9020   22.5150 C   0  0  0  0  0  0  0  0  0  0  0  0
  -22.4760   -4.3660   21.3490 F   0  0  0  0  0  0  0  0  0  0  0  0
  -21.3570   -3.8460   25.9610 F   0  0  0  0  0  0  0  0  0  0  0  0
  -22.7830  -13.6460   21.1480 C   0  0  0  0  0  0  0  0  0  0  0  0
  -22.0660  -12.9300   22.0060 N   0  0  0  0  0  0  0  0  0  0  0  0
  -22.3340  -14.6750   20.6420 O   0  0  0  0  0  0  0  0  0  0  0  0
  -22.4460  -12.0950   22.4270 H   0  0  0  0  0  0  0  0  0  0  0  0
  -21.1260  -13.2150   22.2430 H   0  0  0  0  0  0  0  0  0  0  0  0
  -25.3800  -15.3580   20.3430 N   0  0  0  0  0  0  0  0  0  0  0  0
  -24.6010  -15.9930   20.4650 H   0  0  0  0  0  0  0  0  0  0  0  0
  -26.2290  -15.8220   20.0470 H   0  0  0  0  0  0  0  0  0  0  0  0
  -26.2980  -22.6440   20.5500 N   0  0  0  0  0  4  0  0  0  0  0  0
  -25.7590  -21.9530   20.0600 H   0  0  0  0  0  0  0  0  0  0  0  0
  -25.7630  -23.4980   20.5710 H   0  0  0  0  0  0  0  0  0  0  0  0
  -26.4120  -22.3380   21.5030 H   0  0  0  0  0  0  0  0  0  0  0  0
  -28.2820  -25.8720   20.3670 O   0  0  0  0  0  0  0  0  0  0  0  0
  -24.6340  -31.9690   23.2720 C   0  0  0  0  0  0  0  0  0  0  0  0
  -27.2270  -26.9700   20.3680 C   0  0  0  0  0  0  0  0  0  0  0  0
  -23.4590  -30.5480   21.6390 C   0  0  0  0  0  3  0  0  0  0  0  0
  -24.9230  -28.9040   20.2610 C   0  0  0  0  0  0  0  0  0  0  0  0
  -26.0300  -30.7380   21.5200 C   0  0  0  0  0  2  0  0  0  0  0  0
  -26.1080  -29.3070   20.8880 C   0  0  0  0  0  0  0  0  0  0  0  0
  -27.2480  -28.3670   20.9050 C   0  0  0  0  0  3  0  0  0  0  0  0
  -26.0050  -26.7430   19.6870 C   0  0  0  0  0  3  0  0  0  0  0  0
  -24.9030  -27.6450   19.6380 C   0  0  0  0  0  3  0  0  0  0  0  0
  -23.7070  -29.8360   20.2780 C   0  0  0  0  0  2  0  0  0  0  0  0
  -24.7300  -31.1180   22.1950 N   0  0  0  0  0  0  0  0  0  0  0  0
  -23.5390  -32.2650   23.7800 O   0  0  0  0  0  0  0  0  0  0  0  0
  -22.7490  -29.5740   22.6150 C   0  0  0  0  0  0  0  0  0  0  0  0
  -21.4210  -29.3990   22.4770 N   0  0  0  0  0  0  0  0  0  0  0  0
  -23.4030  -28.9730   23.4710 O   0  0  0  0  0  0  0  0  0  0  0  0
  -20.9440  -29.9300   21.7620 H   0  0  0  0  0  0  0  0  0  0  0  0
  -18.0360  -28.1790   22.9710 C   0  0  0  0  0  0  0  0  0  0  0  0
  -20.5920  -28.4720   23.2600 C   0  0  0  0  0  3  0  0  0  0  0  0
  -20.7060  -27.0260   22.7220 C   0  0  0  0  0  2  0  0  0  0  0  0
  -19.6250  -26.6910   21.6880 C   0  0  0  0  0  2  0  0  0  0  0  0
  -18.2350  -26.8220   22.3170 C   0  0  0  0  0  2  0  0  0  0  0  0
  -19.1430  -28.9610   23.4000 C   0  0  0  0  0  0  0  0  0  0  0  0
  -18.9060  -30.2250   23.9780 C   0  0  0  0  0  3  0  0  0  0  0  0
  -17.5930  -30.7080   24.1380 C   0  0  0  0  0  3  0  0  0  0  0  0
  -16.5010  -29.9240   23.7270 C   0  0  0  0  0  3  0  0  0  0  0  0
  -16.7230  -28.6630   23.1460 C   0  0  0  0  0  3  0  0  0  0  0  0
  -25.8970  -32.6240   23.9110 C   0  0  0  0  0  3  0  0  0  0  0  0
  -26.3850  -31.8840   25.2190 C   0  0  1  0  0  0  0  0  0  0  0  0
  -25.2690  -31.6660   26.2680 C   0  0  0  0  0  1  0  0  0  0  0  0
  -26.9840  -30.5010   24.8800 C   0  0  0  0  0  1  0  0  0  0  0  0
  -27.5190  -32.6960   25.8890 C   0  0  0  0  0  1  0  0  0  0  0  0
  -25.5740  -34.0300   24.2210 N   0  0  0  0  0  0  0  0  0  0  0  0
  -25.8990  -35.0820   23.4580 C   0  0  0  0  0  0  0  0  0  0  0  0
  -26.5580  -34.9710   22.4220 O   0  0  0  0  0  0  0  0  0  0  0  0
  -24.9860  -34.1870   25.0260 H   0  0  0  0  0  0  0  0  0  0  0  0
  -24.1550  -36.8730   23.1210 C   0  0  0  0  0  1  0  0  0  0  0  0
  -25.4160  -36.4770   23.9090 C   0  0  0  0  0  3  0  0  0  0  0  0
  -27.5600  -37.3920   24.6880 C   0  0  0  0  0  1  0  0  0  0  0  0
  -26.4430  -37.5340   23.7580 N   0  0  0  0  0  0  0  0  0  0  0  0
  -26.0340  -38.4550   23.8910 H   0  0  0  0  0  0  0  0  0  0  0  0
  2  1  1  0
  3  5  1  0
  4  3  1  0
  4  1  1  0
  5 48  1  0
  5  6  1  0
  6 52  1  0
  6  2  1  0
  8 13  1  0
  9 10  1  0
  9  8  1  0
 11 10  1  0
 11 23  1  0
 11 12  1  0
 13  7  1  0
 13 12  1  0
 14  7  2  0
 15 17  1  0
 15 16  1  0
 17 19  1  0
 18 16  1  0
 18  4  1  0
 19  7  1  0
 19 18  1  0
 20 21  2  0
 21 40  1  0
 22 21  1  0
 22 25  1  0
 23 20  1  0
 23 24  1  0
 24 22  2  0
 25 26  1  0
 26 27  2  0
 28 31  1  0
 28 27  1  0
 29 28  2  0
 30 29  1  0
 30 25  2  0
 31 32  1  0
 32 33  1  0
 33 34  2  0
 35 34  1  0
 35 39  1  0
 36 35  2  0
 37 32  2  0
 37 36  1  0
 38 37  1  0
 40 41  1  0
 41 44  1  0
 41 43  1  0
 42 40  2  0
 45 46  1  0
 45 20  1  0
 47 45  1  0
 48 50  1  0
 48 51  1  0
 49 48  1  0
 52 54  1  0
 53 64  2  0
 54 59  1  0
 55 63  1  0
 55 65  1  0
 56 62  1  0
 56 58  1  0
 57 63  1  0
 58 59  2  0
 58 57  1  0
 60 54  2  0
 61 60  1  0
 61 56  2  0
 62 55  1  0
 63 53  1  0
 65 67  2  0
 66 65  1  0
 68 66  1  0
 69 78  2  0
 69 74  1  0
 70 66  1  0
 70 74  1  0
 71 70  1  0
 72 73  1  0
 72 71  1  0
 73 69  1  0
 74 75  2  0
 75 76  1  0
 77 76  2  0
 78 77  1  0
 79 53  1  0
 79 84  1  0
 79 80  1  0
 80 83  1  1
 80 81  1  0
 82 80  1  0
 84 87  1  0
 85 89  1  0
 85 84  1  0
 86 85  2  0
 89 88  1  0
 91 92  1  0
 91 89  1  0
 91 90  1  0
M  ISO  4   6 101   7 100  19 100  52 101
M  END
>  <TORSDO>  (15) 
F 17

>  <SCORE>  (15) 
-16.728

>  <name>  (15) 
14

>  <ligand_id>  (15) 
14

>  <original_smiles>  (15) 
[H]c1c([H])c([H])c2c(c1[H])C([H])([H])C([H])([H])C([H])([H])C2([H])N([H])C(=O)C1([H])N(C(=O)C([H])(N([H])C(=O)C([H])(N([H])C([H])([H])[H])C([H])([H])[H])C(C([H])([H])[H])(C([H])([H])[H])C([H])([H])[H])C([H])([H])c2c([H])c(OC3([H])C([H])([H])C([H])([H])C([H])(C4([H])N(C(=O)N5C([H])([H])C([H])([H])C([H])([H])C([H])(n6nc(-c7c([H])c([H])c(Oc8c([H])c([H])c(F)c([H])c8F)c([H])c7[H])c(C(=O)N([H])[H])c6N([H])[H])C5([H])[H])C([H])([H])C([H])([H])C4([H])[H])C([H])([H])C3([H])[N+]([H])([H])[H])c([H])c([H])c2C1([H])[H]

>  <smiles>  (15) 
[H]c1c([H])c([H])c2c(c1[H])C([H])([H])C([H])([H])C([H])([H])C2([H])N([H])C(=O)C1([H])N(C(=O)C([H])(N([H])C(=O)C([H])(N([H])C([H])([H])[H])C([H])([H])[H])C(C([H])([H])[H])(C([H])([H])[H])C([H])([H])[H])C([H])([H])c2c([H])c(OC3([H])C([H])([H])C([H])([H])C([H])(C4([H])N(C(=O)N5C([H])([H])C([H])([H])C([H])([H])C([H])(n6nc(-c7c([H])c([H])c(Oc8c([H])c([H])c(F)c([H])c8F)c([H])c7[H])c(C(=O)N([H])[H])c6N([H])[H])C5([H])[H])C([H])([H])C([H])([H])C4([H])[H])C([H])([H])C3([H])[N+]([H])([H])[H])c([H])c([H])c2C1([H])[H]

$$$$
15:0:0
     RDKit          3D

 97105  0  0  1  0  0  0  0  0999 V2000
  -29.0970  -21.8440   20.3720 C   0  0  0  0  0  3  0  0  0  0  0  0
  -28.9710  -22.6510   21.6830 C   0  0  0  0  0  2  0  0  0  0  0  0
  -29.0590  -24.2240   21.5300 C   0  0  0  0  0  2  0  0  0  0  0  0
  -28.1440  -24.8450   20.4320 C   0  0  0  0  0  3  0  0  0  0  0  0
  -28.4400  -23.9510   19.1370 C   0  0  0  0  0  3  0  0  0  0  0  0
  -28.7380  -22.4570   19.2870 N   0  0  0  0  0  2  0  0  0  0  0  0
  -28.2880  -26.3690   20.3270 O   0  0  0  0  0  0  0  0  0  0  0  0
  -24.6050  -31.9350   23.2890 C   0  0  0  0  0  0  0  0  0  0  0  0
  -27.1850  -27.2680   20.2780 C   0  0  0  0  0  0  0  0  0  0  0  0
  -23.4000  -30.5390   21.6490 C   0  0  0  0  0  3  0  0  0  0  0  0
  -24.8450  -28.9590   20.2340 C   0  0  0  0  0  0  0  0  0  0  0  0
  -25.9480  -30.8180   21.4780 C   0  0  0  0  0  2  0  0  0  0  0  0
  -26.0200  -29.4290   20.8360 C   0  0  0  0  0  0  0  0  0  0  0  0
  -27.1930  -28.5990   20.8360 C   0  0  0  0  0  3  0  0  0  0  0  0
  -25.9880  -26.8730   19.6460 C   0  0  0  0  0  3  0  0  0  0  0  0
  -24.8380  -27.6930   19.6250 C   0  0  0  0  0  3  0  0  0  0  0  0
  -23.6180  -29.8530   20.2740 C   0  0  0  0  0  2  0  0  0  0  0  0
  -24.6710  -31.1180   22.1940 N   0  0  0  0  0  0  0  0  0  0  0  0
  -23.5210  -32.2220   23.8180 O   0  0  0  0  0  0  0  0  0  0  0  0
  -22.7220  -29.5340   22.6140 C   0  0  0  0  0  0  0  0  0  0  0  0
  -21.3960  -29.3620   22.4790 N   0  0  0  0  0  0  0  0  0  0  0  0
  -23.3910  -28.9130   23.4430 O   0  0  0  0  0  0  0  0  0  0  0  0
  -20.9130  -29.9130   21.7840 H   0  0  0  0  0  0  0  0  0  0  0  0
  -18.0110  -28.1740   22.9680 C   0  0  0  0  0  0  0  0  0  0  0  0
  -20.5680  -28.4290   23.2500 C   0  0  0  0  0  3  0  0  0  0  0  0
  -20.6700  -26.9960   22.6810 C   0  0  0  0  0  2  0  0  0  0  0  0
  -19.5730  -26.6710   21.6630 C   0  0  0  0  0  2  0  0  0  0  0  0
  -18.1880  -26.8220   22.2980 C   0  0  0  0  0  2  0  0  0  0  0  0
  -19.1290  -28.9360   23.4000 C   0  0  0  0  0  0  0  0  0  0  0  0
  -18.9090  -30.2010   23.9880 C   0  0  0  0  0  3  0  0  0  0  0  0
  -17.6040  -30.7040   24.1470 C   0  0  0  0  0  3  0  0  0  0  0  0
  -16.5010  -29.9400   23.7300 C   0  0  0  0  0  3  0  0  0  0  0  0
  -16.7040  -28.6770   23.1460 C   0  0  0  0  0  3  0  0  0  0  0  0
  -25.8870  -32.5640   23.9160 C   0  0  0  0  0  3  0  0  0  0  0  0
  -25.5830  -33.9650   24.2440 N   0  0  0  0  0  0  0  0  0  0  0  0
  -25.8950  -35.0150   23.4720 C   0  0  0  0  0  0  0  0  0  0  0  0
  -26.5380  -34.9060   22.4240 O   0  0  0  0  0  0  0  0  0  0  0  0
  -25.0100  -34.1240   25.0590 H   0  0  0  0  0  0  0  0  0  0  0  0
  -24.1480  -36.8010   23.1680 C   0  0  0  0  0  1  0  0  0  0  0  0
  -25.4200  -36.4070   23.9350 C   0  0  0  0  0  3  0  0  0  0  0  0
  -27.5760  -37.3140   24.6820 C   0  0  0  0  0  1  0  0  0  0  0  0
  -26.4440  -37.4630   23.7730 N   0  0  0  0  0  0  0  0  0  0  0  0
  -26.0380  -38.3840   23.9190 H   0  0  0  0  0  0  0  0  0  0  0  0
  -26.3920  -31.7960   25.1990 C   0  0  1  0  0  0  0  0  0  0  0  0
  -25.2910  -31.5670   26.2610 C   0  0  0  0  0  1  0  0  0  0  0  0
  -26.9730  -30.4140   24.8170 C   0  0  0  0  0  1  0  0  0  0  0  0
  -27.5420  -32.5880   25.8650 C   0  0  0  0  0  1  0  0  0  0  0  0
  -29.8510  -20.3800   20.4210 C   0  0  0  0  0  2  0  0  0  0  0  0
  -29.2140  -18.8570   20.3990 C   0  0  0  0  0  3  0  0  0  0  0  0
  -30.2300  -17.5450   20.4480 C   0  0  0  0  0  3  0  0  0  0  0  0
  -30.5360  -14.8890   20.3020 C   0  0  0  0  0  0  0  0  0  0  0  0
  -30.3520  -12.5830   19.3190 C   0  0  0  0  0  2  0  0  0  0  0  0
  -29.4000  -12.6080   18.1040 C   0  0  0  0  0  2  0  0  0  0  0  0
  -27.9400  -12.4160   18.5530 C   0  0  0  0  0  2  0  0  0  0  0  0
  -27.5670  -13.3130   19.7640 C   0  0  0  0  0  3  0  0  0  0  0  0
  -28.6420  -13.2720   20.8700 C   0  0  0  0  0  2  0  0  0  0  0  0
  -29.9150  -13.6540   20.2500 N   0  0  0  0  0  0  0  0  0  0  0  0
  -31.7260  -14.9660   19.9830 O   0  0  0  0  0  0  0  0  0  0  0  0
  -29.7820  -16.0560   20.5040 N   0  0  0  0  0  0  0  0  0  0  0  0
  -28.8060  -15.8980   20.7110 H   0  0  0  0  0  0  0  0  0  0  0  0
  -25.1980  -13.8860   20.5530 C   0  0  0  0  0  0  0  0  0  0  0  0
  -24.1390  -13.1050   20.9280 C   0  0  0  0  0  0  0  0  0  0  0  0
  -24.6020  -11.7550   20.8650 C   0  0  0  0  0  0  0  0  0  0  0  0
  -26.2350  -13.0120   20.2770 N   0  0  0  0  0  0  0  0  0  0  0  0
  -25.8870  -11.7240   20.5320 N   0  0  0  0  0  0  0  0  0  0  0  0
  -23.8770  -10.4900   21.0450 C   0  0  0  0  0  0  0  0  0  0  0  0
  -24.3050   -9.5180   21.9770 C   0  0  0  0  0  3  0  0  0  0  0  0
  -23.5800   -8.3190   22.1460 C   0  0  0  0  0  3  0  0  0  0  0  0
  -22.4120   -8.0830   21.3840 C   0  0  0  0  0  0  0  0  0  0  0  0
  -22.0010   -9.0430   20.4420 C   0  0  0  0  0  3  0  0  0  0  0  0
  -22.7270  -10.2330   20.2710 C   0  0  0  0  0  3  0  0  0  0  0  0
  -21.6570   -6.9370   21.4630 O   0  0  0  0  0  0  0  0  0  0  0  0
  -21.5800   -6.2050   22.6200 C   0  0  0  0  0  0  0  0  0  0  0  0
  -21.0770   -6.7570   23.8200 C   0  0  0  0  0  3  0  0  0  0  0  0
  -20.9500   -5.9490   24.9670 C   0  0  0  0  0  3  0  0  0  0  0  0
  -21.3160   -4.5910   24.9170 C   0  0  0  0  0  0  0  0  0  0  0  0
  -21.8120   -4.0390   23.7230 C   0  0  0  0  0  3  0  0  0  0  0  0
  -21.9400   -4.8440   22.5780 C   0  0  0  0  0  0  0  0  0  0  0  0
  -22.3990   -4.3010   21.4230 F   0  0  0  0  0  0  0  0  0  0  0  0
  -21.1870   -3.8120   26.0170 F   0  0  0  0  0  0  0  0  0  0  0  0
  -22.7460  -13.5780   21.2290 C   0  0  0  0  0  0  0  0  0  0  0  0
  -22.0350  -12.8730   22.1010 N   0  0  0  0  0  0  0  0  0  0  0  0
  -22.3000  -14.6090   20.7270 O   0  0  0  0  0  0  0  0  0  0  0  0
  -22.4090  -12.0390   22.5280 H   0  0  0  0  0  0  0  0  0  0  0  0
  -21.1010  -13.1710   22.3430 H   0  0  0  0  0  0  0  0  0  0  0  0
  -25.3570  -15.2600   20.3960 N   0  0  0  0  0  0  0  0  0  0  0  0
  -24.5840  -15.9060   20.5280 H   0  0  0  0  0  0  0  0  0  0  0  0
  -26.1860  -15.7080   20.0290 H   0  0  0  0  0  0  0  0  0  0  0  0
  -29.5930  -24.5780   18.3250 C   0  0  0  0  0  2  0  0  0  0  0  0
  -29.7770  -23.9950   16.9110 C   0  0  0  0  0  2  0  0  0  0  0  0
  -30.4460  -22.6480   16.9520 C   0  0  0  0  0  0  0  0  0  0  0  0
  -29.8560  -21.5920   16.3740 N   0  0  0  0  0  4  0  0  0  0  0  0
  -31.6520  -22.5160   17.5290 N   0  0  0  0  0  0  0  0  0  0  0  0
  -28.9320  -21.6870   15.9760 H   0  0  0  0  0  0  0  0  0  0  0  0
  -30.2540  -20.6640   16.3620 H   0  0  0  0  0  0  0  0  0  0  0  0
  -32.1070  -23.3180   17.9430 H   0  0  0  0  0  0  0  0  0  0  0  0
  -32.1610  -21.6450   17.5530 H   0  0  0  0  0  0  0  0  0  0  0  0
  1 48  1  0
  1  2  1  0
  3  2  1  0
  4  7  1  0
  4  3  1  0
  5 89  1  0
  5  6  1  0
  5  4  1  0
  6  1  1  0
  8 19  2  0
  9  7  1  0
  9 14  1  0
 10 18  1  0
 10 20  1  0
 11 17  1  0
 11 13  1  0
 12 18  1  0
 13 14  2  0
 13 12  1  0
 15  9  2  0
 16 15  1  0
 16 11  2  0
 17 10  1  0
 18  8  1  0
 20 22  2  0
 21 20  1  0
 23 21  1  0
 24 33  2  0
 24 29  1  0
 25 21  1  0
 25 29  1  0
 26 25  1  0
 27 28  1  0
 27 26  1  0
 28 24  1  0
 29 30  2  0
 30 31  1  0
 32 31  2  0
 33 32  1  0
 34  8  1  0
 34 35  1  0
 34 44  1  0
 35 38  1  0
 36 40  1  0
 36 35  1  0
 37 36  2  0
 40 39  1  0
 42 43  1  0
 42 40  1  0
 42 41  1  0
 44 47  1  1
 44 45  1  0
 46 44  1  0
 49 48  1  0
 49 50  2  0
 50 59  1  0
 51 59  1  0
 52 57  1  0
 53 54  1  0
 53 52  1  0
 55 54  1  0
 55 64  1  0
 55 56  1  0
 57 51  1  0
 57 56  1  0
 58 51  2  0
 59 60  1  0
 61 62  2  0
 62 81  1  0
 63 62  1  0
 63 66  1  0
 64 65  1  0
 64 61  1  0
 65 63  2  0
 66 67  1  0
 67 68  2  0
 69 72  1  0
 69 68  1  0
 70 69  2  0
 71 70  1  0
 71 66  2  0
 72 73  1  0
 73 74  1  0
 74 75  2  0
 76 75  1  0
 76 80  1  0
 77 76  2  0
 78 73  2  0
 78 77  1  0
 79 78  1  0
 81 82  1  0
 82 85  1  0
 82 84  1  0
 83 81  2  0
 86 87  1  0
 86 61  1  0
 88 86  1  0
 90 91  1  0
 90 89  1  0
 91 93  1  0
 92 91  2  0
 93 97  1  0
 93 96  1  0
 94 92  1  0
 95 92  1  0
M  ISO  4   4 101   7 101  51 100  59 100
M  END
>  <TORSDO>  (16) 
F 22

>  <SCORE>  (16) 
-13.150

>  <name>  (16) 
15

>  <ligand_id>  (16) 
15

>  <original_smiles>  (16) 
[H]c1c([H])c([H])c2c(c1[H])C([H])([H])C([H])([H])C([H])([H])C2([H])N([H])C(=O)C1([H])N(C(=O)C([H])(N([H])C(=O)C([H])(N([H])C([H])([H])[H])C([H])([H])[H])C(C([H])([H])[H])(C([H])([H])[H])C([H])([H])[H])C([H])([H])c2c([H])c(OC3([H])C([H])([H])C([H])([H])C(C([H])([H])C([H])([H])C([H])([H])N([H])C(=O)N4C([H])([H])C([H])([H])C([H])([H])C([H])(n5nc(-c6c([H])c([H])c(Oc7c([H])c([H])c(F)c([H])c7F)c([H])c6[H])c(C(=O)N([H])[H])c5N([H])[H])C4([H])[H])=NC3([H])C([H])([H])C([H])([H])C(N([H])[H])=[N+]([H])[H])c([H])c([H])c2C1([H])[H]

>  <smiles>  (16) 
[H]c1c([H])c([H])c2c(c1[H])C([H])([H])C([H])([H])C([H])([H])C2([H])N([H])C(=O)C1([H])N(C(=O)C([H])(N([H])C(=O)C([H])(N([H])C([H])([H])[H])C([H])([H])[H])C(C([H])([H])[H])(C([H])([H])[H])C([H])([H])[H])C([H])([H])c2c([H])c(OC3([H])C([H])([H])C([H])([H])C(C([H])([H])C([H])([H])C([H])([H])N([H])C(=O)N4C([H])([H])C([H])([H])C([H])([H])C([H])(n5nc(-c6c([H])c([H])c(Oc7c([H])c([H])c(F)c([H])c7F)c([H])c6[H])c(C(=O)N([H])[H])c5N([H])[H])C4([H])[H])=NC3([H])C([H])([H])C([H])([H])C(N([H])[H])=[N+]([H])[H])c([H])c([H])c2C1([H])[H]

$$$$
16:0:0
     RDKit          3D

 87 94  0  0  1  0  0  0  0  0999 V2000
  -29.1390  -22.0210   20.2280 C   0  0  0  0  0  2  0  0  0  0  0  0
  -30.3160  -15.7410   19.8520 C   0  0  0  0  0  0  0  0  0  0  0  0
  -30.3830  -13.2080   18.9330 C   0  0  0  0  0  2  0  0  0  0  0  0
  -29.4150  -12.8420   17.7730 C   0  0  0  0  0  2  0  0  0  0  0  0
  -28.0420  -12.4270   18.3200 C   0  0  0  0  0  2  0  0  0  0  0  0
  -27.5940  -13.3780   19.4540 C   0  0  0  0  0  3  0  0  0  0  0  0
  -28.6970  -13.6730   20.4980 C   0  0  0  0  0  2  0  0  0  0  0  0
  -29.8100  -14.3560   19.7870 N   0  0  0  0  0  0  0  0  0  0  0  0
  -31.5000  -15.6980   19.4580 O   0  0  0  0  0  0  0  0  0  0  0  0
  -29.7640  -18.7820   20.2390 C   0  0  0  0  0  3  0  0  0  0  0  0
  -28.9860  -20.1280   20.0630 C   0  0  0  0  0  2  0  0  0  0  0  0
  -31.0440  -18.8420   21.0370 C   0  0  0  0  0  2  0  0  0  0  0  0
  -30.8720  -17.7520   22.1070 C   0  0  0  0  0  2  0  0  0  0  0  0
  -29.5930  -16.9880   21.7050 C   0  0  0  0  0  2  0  0  0  0  0  0
  -29.5890  -17.1000   20.2440 N   0  0  0  0  0  0  0  0  0  0  0  0
  -25.2950  -13.8360   20.4280 C   0  0  0  0  0  0  0  0  0  0  0  0
  -24.2770  -13.0260   20.8470 C   0  0  0  0  0  0  0  0  0  0  0  0
  -24.7640  -11.6880   20.7290 C   0  0  0  0  0  0  0  0  0  0  0  0
  -26.3260  -12.9950   20.0630 N   0  0  0  0  0  0  0  0  0  0  0  0
  -26.0280  -11.6900   20.3080 N   0  0  0  0  0  0  0  0  0  0  0  0
  -24.0730  -10.4050   20.9270 C   0  0  0  0  0  0  0  0  0  0  0  0
  -24.5320   -9.4520   21.8630 C   0  0  0  0  0  3  0  0  0  0  0  0
  -23.8330   -8.2400   22.0540 C   0  0  0  0  0  3  0  0  0  0  0  0
  -22.6570   -7.9730   21.3110 C   0  0  0  0  0  0  0  0  0  0  0  0
  -22.2160   -8.9160   20.3650 C   0  0  0  0  0  3  0  0  0  0  0  0
  -22.9160  -10.1190   20.1730 C   0  0  0  0  0  3  0  0  0  0  0  0
  -21.9280   -6.8120   21.4110 O   0  0  0  0  0  0  0  0  0  0  0  0
  -21.8300   -6.1220   22.5930 C   0  0  0  0  0  0  0  0  0  0  0  0
  -21.3150   -6.7220   23.7640 C   0  0  0  0  0  3  0  0  0  0  0  0
  -21.1670   -5.9550   24.9390 C   0  0  0  0  0  3  0  0  0  0  0  0
  -21.5220   -4.5930   24.9410 C   0  0  0  0  0  0  0  0  0  0  0  0
  -22.0280   -3.9950   23.7740 C   0  0  0  0  0  3  0  0  0  0  0  0
  -22.1790   -4.7580   22.6030 C   0  0  0  0  0  0  0  0  0  0  0  0
  -22.6490   -4.1710   21.4740 F   0  0  0  0  0  0  0  0  0  0  0  0
  -21.3730   -3.8550   26.0660 F   0  0  0  0  0  0  0  0  0  0  0  0
  -22.8970  -13.4680   21.2370 C   0  0  0  0  0  0  0  0  0  0  0  0
  -22.2510  -12.7470   22.1470 N   0  0  0  0  0  0  0  0  0  0  0  0
  -22.4050  -14.4970   20.7760 O   0  0  0  0  0  0  0  0  0  0  0  0
  -22.6620  -11.9180   22.5510 H   0  0  0  0  0  0  0  0  0  0  0  0
  -21.3290  -13.0310   22.4410 H   0  0  0  0  0  0  0  0  0  0  0  0
  -25.4260  -15.2150   20.2930 N   0  0  0  0  0  0  0  0  0  0  0  0
  -24.6700  -15.8580   20.4980 H   0  0  0  0  0  0  0  0  0  0  0  0
  -26.2480  -15.6820   19.9370 H   0  0  0  0  0  0  0  0  0  0  0  0
  -31.6890  -22.2740   20.6320 C   0  0  0  0  0  1  0  0  0  0  0  0
  -30.2710  -22.3310   21.2330 C   0  0  0  0  0  2  0  0  0  0  0  0
  -28.0660  -23.6800   20.2850 C   0  0  0  0  0  1  0  0  0  0  0  0
  -28.2220  -25.4630   20.3240 O   0  0  0  0  0  0  0  0  0  0  0  0
  -24.7400  -31.8290   23.2360 C   0  0  0  0  0  0  0  0  0  0  0  0
  -27.2500  -26.6920   20.2770 C   0  0  0  0  0  0  0  0  0  0  0  0
  -23.5500  -30.4330   21.5990 C   0  0  0  0  0  3  0  0  0  0  0  0
  -24.9940  -28.7600   20.2020 C   0  0  0  0  0  0  0  0  0  0  0  0
  -26.1300  -30.5510   21.4850 C   0  0  0  0  0  2  0  0  0  0  0  0
  -26.1920  -29.1080   20.8370 C   0  0  0  0  0  0  0  0  0  0  0  0
  -27.3010  -28.1050   20.8400 C   0  0  0  0  0  3  0  0  0  0  0  0
  -26.0190  -26.5650   19.5820 C   0  0  0  0  0  3  0  0  0  0  0  0
  -24.9480  -27.5120   19.5550 C   0  0  0  0  0  3  0  0  0  0  0  0
  -23.7920  -29.7250   20.2330 C   0  0  0  0  0  2  0  0  0  0  0  0
  -24.8320  -30.9720   22.1600 N   0  0  0  0  0  0  0  0  0  0  0  0
  -23.6470  -32.1370   23.7390 O   0  0  0  0  0  0  0  0  0  0  0  0
  -22.8210  -29.4670   22.5710 C   0  0  0  0  0  0  0  0  0  0  0  0
  -21.4870  -29.3230   22.4450 N   0  0  0  0  0  0  0  0  0  0  0  0
  -23.4690  -28.8420   23.4130 O   0  0  0  0  0  0  0  0  0  0  0  0
  -21.0130  -29.8870   21.7530 H   0  0  0  0  0  0  0  0  0  0  0  0
  -18.0900  -28.1300   22.9490 C   0  0  0  0  0  0  0  0  0  0  0  0
  -20.6510  -28.3910   23.2120 C   0  0  0  0  0  3  0  0  0  0  0  0
  -20.7450  -26.9540   22.6460 C   0  0  0  0  0  2  0  0  0  0  0  0
  -19.6470  -26.6340   21.6280 C   0  0  0  0  0  2  0  0  0  0  0  0
  -18.2640  -26.7820   22.2680 C   0  0  0  0  0  2  0  0  0  0  0  0
  -19.2090  -28.8930   23.3750 C   0  0  0  0  0  0  0  0  0  0  0  0
  -18.9870  -30.1500   23.9750 C   0  0  0  0  0  3  0  0  0  0  0  0
  -17.6810  -30.6490   24.1440 C   0  0  0  0  0  3  0  0  0  0  0  0
  -16.5780  -29.8840   23.7270 C   0  0  0  0  0  3  0  0  0  0  0  0
  -16.7820  -28.6240   23.1370 C   0  0  0  0  0  3  0  0  0  0  0  0
  -26.0020  -32.4760   23.8840 C   0  0  0  0  0  3  0  0  0  0  0  0
  -25.6810  -33.8760   24.2270 N   0  0  0  0  0  0  0  0  0  0  0  0
  -26.0000  -34.9470   23.4860 C   0  0  0  0  0  0  0  0  0  0  0  0
  -26.6500  -34.8600   22.4410 O   0  0  0  0  0  0  0  0  0  0  0  0
  -25.0960  -34.0180   25.0370 H   0  0  0  0  0  0  0  0  0  0  0  0
  -24.2510  -36.7440   23.2210 C   0  0  0  0  0  1  0  0  0  0  0  0
  -25.5260  -36.3330   23.9750 C   0  0  0  0  0  3  0  0  0  0  0  0
  -27.6890  -37.2300   24.7250 C   0  0  0  0  0  1  0  0  0  0  0  0
  -26.5480  -37.3950   23.8280 N   0  0  0  0  0  0  0  0  0  0  0  0
  -26.1420  -38.3120   23.9940 H   0  0  0  0  0  0  0  0  0  0  0  0
  -26.4940  -31.7120   25.1760 C   0  0  1  0  0  0  0  0  0  0  0  0
  -25.3850  -31.4930   26.2320 C   0  0  0  0  0  1  0  0  0  0  0  0
  -27.0700  -30.3260   24.8120 C   0  0  0  0  0  1  0  0  0  0  0  0
  -27.6430  -32.5030   25.8470 C   0  0  0  0  0  1  0  0  0  0  0  0
  1 45  1  0
  2 15  1  0
  3  8  1  0
  4  5  1  0
  4  3  1  0
  6  5  1  0
  6 19  1  0
  6  7  1  0
  8  2  1  0
  8  7  1  0
  9  2  2  0
 10 11  1  0
 10 15  1  0
 10 12  1  0
 11  1  1  0
 12 13  1  0
 14 13  1  0
 15 14  1  0
 16 17  2  0
 17 36  1  0
 18 17  1  0
 18 21  1  0
 19 20  1  0
 19 16  1  0
 20 18  2  0
 21 22  1  0
 22 23  2  0
 24 27  1  0
 24 23  1  0
 25 24  2  0
 26 25  1  0
 26 21  2  0
 27 28  1  0
 28 33  2  0
 28 29  1  0
 29 30  2  0
 30 31  1  0
 31 35  1  0
 32 31  2  0
 33 32  1  0
 34 33  1  0
 36 37  1  0
 37 40  1  0
 37 39  1  0
 38 36  2  0
 41 16  1  0
 41 42  1  0
 43 41  1  0
 44 45  1  0
 46 47  1  0
 48 59  2  0
 49 47  1  0
 49 54  1  0
 50 58  1  0
 50 60  1  0
 51 57  1  0
 51 53  1  0
 52 58  1  0
 53 54  2  0
 53 52  1  0
 55 49  2  0
 56 55  1  0
 56 51  2  0
 57 50  1  0
 58 48  1  0
 60 62  2  0
 61 60  1  0
 63 61  1  0
 64 73  2  0
 64 69  1  0
 65 61  1  0
 65 69  1  0
 66 65  1  0
 67 68  1  0
 67 66  1  0
 68 64  1  0
 69 70  2  0
 70 71  1  0
 72 71  2  0
 73 72  1  0
 74 48  1  0
 74 75  1  0
 74 84  1  0
 75 78  1  0
 76 80  1  0
 76 75  1  0
 77 76  2  0
 80 79  1  0
 82 80  1  0
 82 83  1  0
 82 81  1  0
 84 87  1  1
 84 85  1  0
 86 84  1  0
M  ISO  4   2 100  15 100  46 101  47 101
M  END
>  <TORSDO>  (17) 
F 18

>  <SCORE>  (17) 
-15.963

>  <name>  (17) 
16

>  <ligand_id>  (17) 
16

>  <original_smiles>  (17) 
[H]C(=C1N(C(=O)N2C([H])([H])C([H])([H])C([H])([H])C([H])(n3nc(-c4c([H])c([H])c(Oc5c([H])c([H])c(F)c([H])c5F)c([H])c4[H])c(C(=O)N([H])[H])c3N([H])[H])C2([H])[H])C([H])([H])C([H])([H])C1([H])[H])C([H])(C([H])([H])Oc1c([H])c([H])c2c(c1[H])C([H])([H])N(C(=O)C([H])(N([H])C(=O)C([H])(N([H])C([H])([H])[H])C([H])([H])[H])C(C([H])([H])[H])(C([H])([H])[H])C([H])([H])[H])C([H])(C(=O)N([H])C1([H])c3c([H])c([H])c([H])c([H])c3C([H])([H])C([H])([H])C1([H])[H])C2([H])[H])C([H])([H])C([H])([H])[H]

>  <smiles>  (17) 
[H]C(=C1N(C(=O)N2C([H])([H])C([H])([H])C([H])([H])C([H])(n3nc(-c4c([H])c([H])c(Oc5c([H])c([H])c(F)c([H])c5F)c([H])c4[H])c(C(=O)N([H])[H])c3N([H])[H])C2([H])[H])C([H])([H])C([H])([H])C1([H])[H])C([H])(C([H])([H])Oc1c([H])c([H])c2c(c1[H])C([H])([H])N(C(=O)C([H])(N([H])C(=O)C([H])(N([H])C([H])([H])[H])C([H])([H])[H])C(C([H])([H])[H])(C([H])([H])[H])C([H])([H])[H])C([H])(C(=O)N([H])C1([H])c3c([H])c([H])c([H])c([H])c3C([H])([H])C([H])([H])C1([H])[H])C2([H])[H])C([H])([H])C([H])([H])[H]

$$$$
17:0:0
     RDKit          3D

 92100  0  0  1  0  0  0  0  0999 V2000
  -29.6270  -20.2530   21.0660 C   0  0  0  0  0  2  0  0  0  0  0  0
  -30.7470  -15.8110   20.9410 C   0  0  0  0  0  0  0  0  0  0  0  0
  -30.8960  -13.3330   20.1940 C   0  0  0  0  0  2  0  0  0  0  0  0
  -30.1220  -13.0280   18.8870 C   0  0  0  0  0  2  0  0  0  0  0  0
  -28.6300  -12.7650   19.1720 C   0  0  0  0  0  2  0  0  0  0  0  0
  -28.0330  -13.7380   20.2220 C   0  0  0  0  0  3  0  0  0  0  0  0
  -28.9580  -13.9670   21.4320 C   0  0  0  0  0  2  0  0  0  0  0  0
  -30.2240  -14.4880   20.8850 N   0  0  0  0  0  0  0  0  0  0  0  0
  -31.9860  -15.8320   21.0200 O   0  0  0  0  0  0  0  0  0  0  0  0
  -30.7260  -18.5270   19.1690 C   0  0  0  0  0  2  0  0  0  0  0  0
  -30.2600  -17.0810   19.0130 C   0  0  0  0  0  3  0  0  0  0  0  0
  -29.6890  -18.6790   20.2360 C   0  0  0  0  0  3  0  0  0  0  0  0
  -29.9680  -17.0120   20.5010 N   0  0  0  0  0  0  0  0  0  0  0  0
  -25.5940  -14.2680   20.7340 C   0  0  0  0  0  0  0  0  0  0  0  0
  -24.5060  -13.4740   20.9680 C   0  0  0  0  0  0  0  0  0  0  0  0
  -24.9920  -12.1290   20.9650 C   0  0  0  0  0  0  0  0  0  0  0  0
  -26.6660  -13.4050   20.5920 N   0  0  0  0  0  0  0  0  0  0  0  0
  -26.3090  -12.1120   20.7970 N   0  0  0  0  0  0  0  0  0  0  0  0
  -24.2650  -10.8570   21.0530 C   0  0  0  0  0  0  0  0  0  0  0  0
  -24.5950   -9.8850   22.0230 C   0  0  0  0  0  3  0  0  0  0  0  0
  -23.8660   -8.6780   22.1030 C   0  0  0  0  0  3  0  0  0  0  0  0
  -22.7940   -8.4360   21.2100 C   0  0  0  0  0  0  0  0  0  0  0  0
  -22.4860   -9.3970   20.2330 C   0  0  0  0  0  3  0  0  0  0  0  0
  -23.2150  -10.5950   20.1510 C   0  0  0  0  0  3  0  0  0  0  0  0
  -22.0470   -7.2830   21.1980 O   0  0  0  0  0  0  0  0  0  0  0  0
  -21.8330   -6.5530   22.3390 C   0  0  0  0  0  0  0  0  0  0  0  0
  -21.1880   -7.1060   23.4670 C   0  0  0  0  0  3  0  0  0  0  0  0
  -20.9250   -6.3000   24.5930 C   0  0  0  0  0  3  0  0  0  0  0  0
  -21.2950   -4.9410   24.5900 C   0  0  0  0  0  0  0  0  0  0  0  0
  -21.9330   -4.3880   23.4650 C   0  0  0  0  0  3  0  0  0  0  0  0
  -22.1980   -5.1920   22.3420 C   0  0  0  0  0  0  0  0  0  0  0  0
  -22.7920   -4.6490   21.2530 F   0  0  0  0  0  0  0  0  0  0  0  0
  -21.0360   -4.1650   25.6670 F   0  0  0  0  0  0  0  0  0  0  0  0
  -23.0840  -13.9320   21.0910 C   0  0  0  0  0  0  0  0  0  0  0  0
  -22.2790  -13.2250   21.8740 N   0  0  0  0  0  0  0  0  0  0  0  0
  -22.6920  -14.9550   20.5300 O   0  0  0  0  0  0  0  0  0  0  0  0
  -22.6070  -12.3980   22.3510 H   0  0  0  0  0  0  0  0  0  0  0  0
  -21.3190  -13.5140   22.0000 H   0  0  0  0  0  0  0  0  0  0  0  0
  -25.7580  -15.6440   20.6050 N   0  0  0  0  0  0  0  0  0  0  0  0
  -24.9800  -16.2890   20.6890 H   0  0  0  0  0  0  0  0  0  0  0  0
  -26.6480  -16.1110   20.4970 H   0  0  0  0  0  0  0  0  0  0  0  0
  -29.0710  -16.7160   18.0940 C   0  0  0  0  0  2  0  0  0  0  0  0
  -28.9580  -17.6370   16.9500 N   0  0  0  0  0  4  0  0  0  0  0  0
  -28.7690  -18.5750   17.2540 H   0  0  0  0  0  0  0  0  0  0  0  0
  -28.2010  -17.3520   16.3550 H   0  0  0  0  0  0  0  0  0  0  0  0
  -29.7990  -17.6420   16.3990 H   0  0  0  0  0  0  0  0  0  0  0  0
  -29.0200  -21.6670   20.4090 N   0  0  0  0  0  4  0  0  0  0  0  0
  -28.0320  -21.4860   20.3210 H   0  0  0  0  0  0  0  0  0  0  0  0
  -29.3680  -21.6720   19.4640 H   0  0  0  0  0  0  0  0  0  0  0  0
  -29.1190  -23.2600   20.8980 C   0  0  0  0  0  3  0  0  0  0  0  0
  -28.2730  -24.7270   20.2810 C   0  0  0  0  0  3  0  0  0  0  0  0
  -28.4310  -26.3530   20.5130 O   0  0  0  0  0  0  0  0  0  0  0  0
  -24.7830  -32.2240   23.5090 C   0  0  0  0  0  0  0  0  0  0  0  0
  -27.3920  -27.4180   20.4400 C   0  0  0  0  0  0  0  0  0  0  0  0
  -23.5940  -30.8160   21.8770 C   0  0  0  0  0  3  0  0  0  0  0  0
  -25.0550  -29.2460   20.4280 C   0  0  0  0  0  0  0  0  0  0  0  0
  -26.1530  -31.0760   21.7020 C   0  0  0  0  0  2  0  0  0  0  0  0
  -26.2410  -29.6720   21.0380 C   0  0  0  0  0  0  0  0  0  0  0  0
  -27.4020  -28.7790   21.0210 C   0  0  0  0  0  3  0  0  0  0  0  0
  -26.1750  -27.1410   19.7760 C   0  0  0  0  0  3  0  0  0  0  0  0
  -25.0460  -28.0020   19.7770 C   0  0  0  0  0  3  0  0  0  0  0  0
  -23.8200  -30.1430   20.4930 C   0  0  0  0  0  2  0  0  0  0  0  0
  -24.8650  -31.3980   22.4160 N   0  0  0  0  0  0  0  0  0  0  0  0
  -23.6940  -32.4920   24.0440 O   0  0  0  0  0  0  0  0  0  0  0  0
  -22.9290  -29.8030   22.8440 C   0  0  0  0  0  0  0  0  0  0  0  0
  -21.6360  -29.4940   22.6310 N   0  0  0  0  0  0  0  0  0  0  0  0
  -23.5850  -29.2940   23.7570 O   0  0  0  0  0  0  0  0  0  0  0  0
  -21.1560  -29.9600   21.8730 H   0  0  0  0  0  0  0  0  0  0  0  0
  -18.3900  -27.8960   22.8930 C   0  0  0  0  0  0  0  0  0  0  0  0
  -20.8510  -28.5170   23.3920 C   0  0  0  0  0  3  0  0  0  0  0  0
  -21.1930  -27.0710   22.9600 C   0  0  0  0  0  2  0  0  0  0  0  0
  -20.2610  -26.5320   21.8700 C   0  0  0  0  0  2  0  0  0  0  0  0
  -18.8080  -26.5370   22.3550 C   0  0  0  0  0  2  0  0  0  0  0  0
  -19.3500  -28.8310   23.3650 C   0  0  0  0  0  0  0  0  0  0  0  0
  -18.9070  -30.0900   23.8250 C   0  0  0  0  0  3  0  0  0  0  0  0
  -17.5390  -30.4200   23.8180 C   0  0  0  0  0  3  0  0  0  0  0  0
  -16.5930  -29.4850   23.3610 C   0  0  0  0  0  3  0  0  0  0  0  0
  -17.0180  -28.2260   22.9040 C   0  0  0  0  0  3  0  0  0  0  0  0
  -26.0500  -32.8840   24.1310 C   0  0  0  0  0  3  0  0  0  0  0  0
  -25.7280  -34.2910   24.4280 N   0  0  0  0  0  0  0  0  0  0  0  0
  -26.0280  -35.3310   23.6370 C   0  0  0  0  0  0  0  0  0  0  0  0
  -26.6660  -35.2070   22.5890 O   0  0  0  0  0  0  0  0  0  0  0  0
  -25.1550  -34.4610   25.2410 H   0  0  0  0  0  0  0  0  0  0  0  0
  -24.2530  -37.0910   23.3260 C   0  0  0  0  0  1  0  0  0  0  0  0
  -25.5460  -36.7290   24.0760 C   0  0  0  0  0  3  0  0  0  0  0  0
  -27.7090  -37.6780   24.7510 C   0  0  0  0  0  1  0  0  0  0  0  0
  -26.5520  -37.7930   23.8660 N   0  0  0  0  0  0  0  0  0  0  0  0
  -26.1390  -38.7120   24.0020 H   0  0  0  0  0  0  0  0  0  0  0  0
  -26.5500  -32.1560   25.4410 C   0  0  1  0  0  0  0  0  0  0  0  0
  -25.4220  -31.8620   26.4600 C   0  0  0  0  0  1  0  0  0  0  0  0
  -27.2300  -30.8110   25.0980 C   0  0  0  0  0  1  0  0  0  0  0  0
  -27.6190  -33.0230   26.1470 C   0  0  0  0  0  1  0  0  0  0  0  0
  2  9  2  0
  3  8  1  0
  4  5  1  0
  4  3  1  0
  6  5  1  0
  6 17  1  0
  6  7  1  0
  8  2  1  0
  8  7  1  0
 10 12  1  0
 11 42  1  0
 11 10  1  0
 11 13  1  0
 12 13  1  0
 12  1  1  0
 13  2  1  0
 14 15  2  0
 15 34  1  0
 16 15  1  0
 16 19  1  0
 17 14  1  0
 17 18  1  0
 18 16  2  0
 19 20  1  0
 20 21  2  0
 22 21  1  0
 23 22  2  0
 24 23  1  0
 24 19  2  0
 25 22  1  0
 25 26  1  0
 26 31  2  0
 26 27  1  0
 27 28  2  0
 29 28  1  0
 29 33  1  0
 30 29  2  0
 31 30  1  0
 32 31  1  0
 34 35  1  0
 35 38  1  0
 35 37  1  0
 36 34  2  0
 39 40  1  0
 39 14  1  0
 41 39  1  0
 43 44  1  0
 43 42  1  0
 45 43  1  0
 46 43  1  0
 47 50  1  0
 47  1  1  0
 48 47  1  0
 49 47  1  0
 51 52  1  0
 51 50  2  0
 53 64  2  0
 54 52  1  0
 54 59  1  0
 55 63  1  0
 55 65  1  0
 56 62  1  0
 56 58  1  0
 57 63  1  0
 58 57  1  0
 59 58  2  0
 60 61  1  0
 60 54  2  0
 61 56  2  0
 62 55  1  0
 63 53  1  0
 65 67  2  0
 66 65  1  0
 68 66  1  0
 69 78  2  0
 69 74  1  0
 70 66  1  0
 71 70  1  0
 72 73  1  0
 72 71  1  0
 73 69  1  0
 74 70  1  0
 74 75  2  0
 76 75  1  0
 77 76  2  0
 78 77  1  0
 79 53  1  0
 79 80  1  0
 79 89  1  0
 80 83  1  0
 81 85  1  0
 81 80  1  0
 82 81  2  0
 85 84  1  0
 87 88  1  0
 87 85  1  0
 87 86  1  0
 89 92  1  1
 89 90  1  0
 91 89  1  0
M  ISO  4   2 100  13 100  51 101  52 101
M  END
>  <TORSDO>  (18) 
F 21

>  <SCORE>  (18) 
-13.279

>  <name>  (18) 
17

>  <ligand_id>  (18) 
17

>  <original_smiles>  (18) 
[H]c1c([H])c([H])c2c(c1[H])C([H])([H])C([H])([H])C([H])([H])C2([H])N([H])C(=O)C1([H])N(C(=O)C([H])(N([H])C(=O)C([H])(N([H])C([H])([H])[H])C([H])([H])[H])C(C([H])([H])[H])(C([H])([H])[H])C([H])([H])[H])C([H])([H])c2c([H])c(OC([H])([H])C([H])([H])[N+]([H])([H])C([H])([H])C3([H])N(C(=O)N4C([H])([H])C([H])([H])C([H])([H])C([H])(n5nc(-c6c([H])c([H])c(Oc7c([H])c([H])c(F)c([H])c7F)c([H])c6[H])c(C(=O)N([H])[H])c5N([H])[H])C4([H])[H])C([H])(C([H])([H])[N+]([H])([H])[H])C3([H])[H])c([H])c([H])c2C1([H])[H]

>  <smiles>  (18) 
[H]c1c([H])c([H])c2c(c1[H])C([H])([H])C([H])([H])C([H])([H])C2([H])N([H])C(=O)C1([H])N(C(=O)C([H])(N([H])C(=O)C([H])(N([H])C([H])([H])[H])C([H])([H])[H])C(C([H])([H])[H])(C([H])([H])[H])C([H])([H])[H])C([H])([H])c2c([H])c(OC([H])([H])C([H])([H])[N+]([H])([H])C([H])([H])C3([H])N(C(=O)N4C([H])([H])C([H])([H])C([H])([H])C([H])(n5nc(-c6c([H])c([H])c(Oc7c([H])c([H])c(F)c([H])c7F)c([H])c6[H])c(C(=O)N([H])[H])c5N([H])[H])C4([H])[H])C([H])(C([H])([H])[N+]([H])([H])[H])C3([H])[H])c([H])c([H])c2C1([H])[H]

$$$$
18:0:0
     RDKit          3D

 88 96  0  0  1  0  0  0  0  0999 V2000
  -28.9790  -21.1120   20.6790 N   0  0  1  0  0  4  0  0  0  0  0  0
  -28.1030  -21.0350   21.1770 H   0  0  0  0  0  0  0  0  0  0  0  0
  -30.4200  -15.3530   20.2050 C   0  0  0  0  0  0  0  0  0  0  0  0
  -30.3720  -12.9050   19.3090 C   0  0  0  0  0  2  0  0  0  0  0  0
  -29.4390  -12.6670   18.0960 C   0  0  0  0  0  2  0  0  0  0  0  0
  -28.0020  -12.3800   18.5640 C   0  0  0  0  0  2  0  0  0  0  0  0
  -27.5580  -13.3420   19.6940 C   0  0  0  0  0  3  0  0  0  0  0  0
  -28.6250  -13.5270   20.7930 C   0  0  0  0  0  2  0  0  0  0  0  0
  -29.8220  -14.0570   20.1190 N   0  0  0  0  0  0  0  0  0  0  0  0
  -31.6510  -15.2890   20.0420 O   0  0  0  0  0  0  0  0  0  0  0  0
  -29.9400  -19.0740   18.9210 C   0  0  0  0  0  2  0  0  0  0  0  0
  -29.9060  -17.4640   18.7830 C   0  0  0  0  0  2  0  0  0  0  0  0
  -29.4760  -18.0400   20.9130 C   0  0  0  0  0  2  0  0  0  0  0  0
  -29.0480  -19.5160   20.1000 C   0  0  0  0  0  3  0  0  0  0  0  0
  -29.7250  -16.6830   20.0580 N   0  0  0  0  0  0  0  0  0  0  0  0
  -25.2020  -13.8770   20.4910 C   0  0  0  0  0  0  0  0  0  0  0  0
  -24.1500  -13.0910   20.8680 C   0  0  0  0  0  0  0  0  0  0  0  0
  -24.6260  -11.7440   20.8270 C   0  0  0  0  0  0  0  0  0  0  0  0
  -26.2460  -13.0100   20.2290 N   0  0  0  0  0  0  0  0  0  0  0  0
  -25.9150  -11.7210   20.5010 N   0  0  0  0  0  0  0  0  0  0  0  0
  -23.9090  -10.4760   21.0230 C   0  0  0  0  0  0  0  0  0  0  0  0
  -24.3570   -9.5080   21.9490 C   0  0  0  0  0  3  0  0  0  0  0  0
  -23.6380   -8.3070   22.1320 C   0  0  0  0  0  3  0  0  0  0  0  0
  -22.4570   -8.0650   21.3920 C   0  0  0  0  0  0  0  0  0  0  0  0
  -22.0290   -9.0220   20.4540 C   0  0  0  0  0  3  0  0  0  0  0  0
  -22.7490  -10.2150   20.2690 C   0  0  0  0  0  3  0  0  0  0  0  0
  -21.7090   -6.9170   21.4850 O   0  0  0  0  0  0  0  0  0  0  0  0
  -21.6750   -6.1710   22.6360 C   0  0  0  0  0  0  0  0  0  0  0  0
  -21.2590   -6.7200   23.8690 C   0  0  0  0  0  3  0  0  0  0  0  0
  -21.1740   -5.8990   25.0110 C   0  0  0  0  0  3  0  0  0  0  0  0
  -21.4980   -4.5320   24.9230 C   0  0  0  0  0  0  0  0  0  0  0  0
  -21.9080   -3.9830   23.6950 C   0  0  0  0  0  3  0  0  0  0  0  0
  -21.9950   -4.8000   22.5550 C   0  0  0  0  0  0  0  0  0  0  0  0
  -22.3710   -4.2630   21.3700 F   0  0  0  0  0  0  0  0  0  0  0  0
  -21.4100   -3.7420   26.0180 F   0  0  0  0  0  0  0  0  0  0  0  0
  -22.7530  -13.5580   21.1540 C   0  0  0  0  0  0  0  0  0  0  0  0
  -22.0390  -12.8530   22.0230 N   0  0  0  0  0  0  0  0  0  0  0  0
  -22.3050  -14.5820   20.6400 O   0  0  0  0  0  0  0  0  0  0  0  0
  -22.4180  -12.0260   22.4610 H   0  0  0  0  0  0  0  0  0  0  0  0
  -21.0990  -13.1440   22.2560 H   0  0  0  0  0  0  0  0  0  0  0  0
  -25.3560  -15.2500   20.3170 N   0  0  0  0  0  0  0  0  0  0  0  0
  -24.5910  -15.9050   20.4440 H   0  0  0  0  0  0  0  0  0  0  0  0
  -26.2070  -15.6900   19.9930 H   0  0  0  0  0  0  0  0  0  0  0  0
  -31.3850  -21.4970   21.3600 C   0  0  0  0  0  1  0  0  0  0  0  0
  -29.9280  -21.2810   21.8040 C   0  0  0  0  0  2  0  0  0  0  0  0
  -28.7190  -22.6070   19.9330 C   0  0  0  0  0  2  0  0  0  0  0  0
  -28.1160  -24.2070   20.5920 C   0  0  0  0  0  2  0  0  0  0  0  0
  -28.2520  -25.8420   20.2610 O   0  0  0  0  0  0  0  0  0  0  0  0
  -24.6450  -31.8610   23.2180 C   0  0  0  0  0  0  0  0  0  0  0  0
  -27.2210  -26.9330   20.2700 C   0  0  0  0  0  0  0  0  0  0  0  0
  -23.4630  -30.4510   21.5860 C   0  0  0  0  0  3  0  0  0  0  0  0
  -24.9200  -28.8260   20.1930 C   0  0  0  0  0  0  0  0  0  0  0  0
  -26.0310  -30.6570   21.4520 C   0  0  0  0  0  2  0  0  0  0  0  0
  -26.1070  -29.2350   20.8130 C   0  0  0  0  0  0  0  0  0  0  0  0
  -27.2540  -28.3140   20.8180 C   0  0  0  0  0  3  0  0  0  0  0  0
  -25.9990  -26.6780   19.6080 C   0  0  0  0  0  3  0  0  0  0  0  0
  -24.8920  -27.5670   19.5700 C   0  0  0  0  0  3  0  0  0  0  0  0
  -23.7030  -29.7510   20.2190 C   0  0  0  0  0  2  0  0  0  0  0  0
  -24.7340  -31.0190   22.1380 N   0  0  0  0  0  0  0  0  0  0  0  0
  -23.5510  -32.1550   23.7300 O   0  0  0  0  0  0  0  0  0  0  0  0
  -22.7610  -29.4640   22.5560 C   0  0  0  0  0  0  0  0  0  0  0  0
  -21.4300  -29.3060   22.4300 N   0  0  0  0  0  0  0  0  0  0  0  0
  -23.4230  -28.8400   23.3900 O   0  0  0  0  0  0  0  0  0  0  0  0
  -20.9510  -29.8600   21.7350 H   0  0  0  0  0  0  0  0  0  0  0  0
  -18.0420  -28.1150   22.9480 C   0  0  0  0  0  0  0  0  0  0  0  0
  -20.6040  -28.3740   23.2050 C   0  0  0  0  0  3  0  0  0  0  0  0
  -20.6990  -26.9410   22.6340 C   0  0  0  0  0  2  0  0  0  0  0  0
  -19.5940  -26.6190   21.6230 C   0  0  0  0  0  2  0  0  0  0  0  0
  -18.2140  -26.7660   22.2700 C   0  0  0  0  0  2  0  0  0  0  0  0
  -19.1640  -28.8770   23.3720 C   0  0  0  0  0  0  0  0  0  0  0  0
  -18.9470  -30.1360   23.9720 C   0  0  0  0  0  3  0  0  0  0  0  0
  -17.6420  -30.6370   24.1470 C   0  0  0  0  0  3  0  0  0  0  0  0
  -16.5360  -29.8730   23.7350 C   0  0  0  0  0  3  0  0  0  0  0  0
  -16.7370  -28.6140   23.1420 C   0  0  0  0  0  3  0  0  0  0  0  0
  -25.9100  -32.5120   23.8560 C   0  0  0  0  0  3  0  0  0  0  0  0
  -26.4050  -31.7610   25.1540 C   0  0  1  0  0  0  0  0  0  0  0  0
  -25.2950  -31.5440   26.2100 C   0  0  0  0  0  1  0  0  0  0  0  0
  -26.9900  -30.3750   24.8010 C   0  0  0  0  0  1  0  0  0  0  0  0
  -27.5470  -32.5640   25.8210 C   0  0  0  0  0  1  0  0  0  0  0  0
  -25.5870  -33.9150   24.1780 N   0  0  0  0  0  0  0  0  0  0  0  0
  -25.9210  -34.9720   23.4260 C   0  0  0  0  0  0  0  0  0  0  0  0
  -26.5970  -34.8700   22.3990 O   0  0  0  0  0  0  0  0  0  0  0  0
  -24.9880  -34.0660   24.9760 H   0  0  0  0  0  0  0  0  0  0  0  0
  -24.1930  -36.7700   23.0720 C   0  0  0  0  0  1  0  0  0  0  0  0
  -25.4330  -36.3630   23.8840 C   0  0  0  0  0  3  0  0  0  0  0  0
  -27.5670  -37.2530   24.7160 C   0  0  0  0  0  1  0  0  0  0  0  0
  -26.4660  -37.4180   23.7720 N   0  0  0  0  0  0  0  0  0  0  0  0
  -26.0590  -38.3380   23.9170 H   0  0  0  0  0  0  0  0  0  0  0  0
  1  2  1  1
  1 45  1  0
  4  9  1  0
  5  6  1  0
  5  4  1  0
  7  6  1  0
  7 19  1  0
  7  8  1  0
  9  3  1  0
  9  8  1  0
 10  3  2  0
 11 14  1  0
 12 11  1  0
 12 15  1  0
 14  1  1  0
 14 13  1  0
 15  3  1  0
 15 13  1  0
 16 17  2  0
 17 36  1  0
 18 17  1  0
 18 21  1  0
 19 16  1  0
 19 20  1  0
 20 18  2  0
 21 22  1  0
 22 23  2  0
 24 27  1  0
 24 23  1  0
 25 24  2  0
 26 25  1  0
 26 21  2  0
 27 28  1  0
 28 29  1  0
 29 30  2  0
 31 30  1  0
 31 35  1  0
 32 31  2  0
 33 28  2  0
 33 32  1  0
 34 33  1  0
 36 37  1  0
 37 40  1  0
 37 39  1  0
 38 36  2  0
 41 42  1  0
 41 16  1  0
 43 41  1  0
 44 45  1  0
 46 47  1  0
 46  1  1  0
 48 50  1  0
 48 47  1  0
 49 60  2  0
 50 55  1  0
 51 59  1  0
 51 61  1  0
 52 58  1  0
 52 54  1  0
 53 59  1  0
 54 55  2  0
 54 53  1  0
 56 50  2  0
 57 56  1  0
 57 52  2  0
 58 51  1  0
 59 49  1  0
 61 63  2  0
 62 61  1  0
 64 62  1  0
 65 74  2  0
 65 70  1  0
 66 62  1  0
 66 70  1  0
 67 66  1  0
 68 69  1  0
 68 67  1  0
 69 65  1  0
 70 71  2  0
 71 72  1  0
 73 72  2  0
 74 73  1  0
 75 49  1  0
 75 80  1  0
 75 76  1  0
 76 79  1  1
 76 77  1  0
 78 76  1  0
 80 83  1  0
 81 85  1  0
 81 80  1  0
 82 81  2  0
 85 84  1  0
 87 85  1  0
 87 88  1  0
 87 86  1  0
M  ISO  4   3 100  15 100  47 101  48 101
M  END
>  <TORSDO>  (19) 
F 19

>  <SCORE>  (19) 
-16.521

>  <name>  (19) 
18

>  <ligand_id>  (19) 
18

>  <original_smiles>  (19) 
[H]c1c([H])c([H])c2c(c1[H])C([H])([H])C([H])([H])C([H])([H])C2([H])N([H])C(=O)C1([H])N(C(=O)C([H])(N([H])C(=O)C([H])(N([H])C([H])([H])[H])C([H])([H])[H])C(C([H])([H])[H])(C([H])([H])[H])C([H])([H])[H])C([H])([H])c2c([H])c(OC([H])([H])C([H])([H])[N+]([H])(C([H])([H])C([H])([H])[H])C3([H])C([H])([H])N(C(=O)N4C([H])([H])C([H])([H])C([H])([H])C([H])(n5nc(-c6c([H])c([H])c(Oc7c([H])c([H])c(F)c([H])c7F)c([H])c6[H])c(C(=O)N([H])[H])c5N([H])[H])C4([H])[H])C([H])([H])C3([H])[H])c([H])c([H])c2C1([H])[H]

>  <smiles>  (19) 
[H]c1c([H])c([H])c2c(c1[H])C([H])([H])C([H])([H])C([H])([H])C2([H])N([H])C(=O)C1([H])N(C(=O)C([H])(N([H])C(=O)C([H])(N([H])C([H])([H])[H])C([H])([H])[H])C(C([H])([H])[H])(C([H])([H])[H])C([H])([H])[H])C([H])([H])c2c([H])c(OC([H])([H])C([H])([H])[N+]([H])(C([H])([H])C([H])([H])[H])C3([H])C([H])([H])N(C(=O)N4C([H])([H])C([H])([H])C([H])([H])C([H])(n5nc(-c6c([H])c([H])c(Oc7c([H])c([H])c(F)c([H])c7F)c([H])c6[H])c(C(=O)N([H])[H])c5N([H])[H])C4([H])[H])C([H])([H])C3([H])[H])c([H])c([H])c2C1([H])[H]

$$$$
19:0:0
     RDKit          3D

 92100  0  0  1  0  0  0  0  0999 V2000
  -28.9430  -21.1000   19.5240 C   0  0  0  0  0  0  0  0  0  0  0  0
  -28.8430  -21.3730   18.2050 N   0  0  0  0  0  4  0  0  0  0  0  0
  -29.3190  -19.7790   19.7800 N   0  0  0  0  0  0  0  0  0  0  0  0
  -28.9890  -20.6930   17.4690 H   0  0  0  0  0  0  0  0  0  0  0  0
  -28.6140  -22.3000   17.8830 H   0  0  0  0  0  0  0  0  0  0  0  0
  -29.4450  -19.2490   18.9320 H   0  0  0  0  0  0  0  0  0  0  0  0
  -28.6150  -22.2880   20.4960 C   0  0  0  0  0  2  0  0  0  0  0  0
  -28.5930  -23.7730   19.8330 C   0  0  0  0  0  3  0  0  0  0  0  0
  -28.1280  -25.0620   20.6770 C   0  0  0  0  0  3  0  0  0  0  0  0
  -28.2910  -26.4590   20.1630 O   0  0  0  0  0  0  0  0  0  0  0  0
  -24.5900  -31.8970   23.2350 C   0  0  0  0  0  0  0  0  0  0  0  0
  -27.1820  -27.3250   20.1630 C   0  0  0  0  0  0  0  0  0  0  0  0
  -23.3770  -30.5010   21.5980 C   0  0  0  0  0  3  0  0  0  0  0  0
  -24.8230  -28.9490   20.1650 C   0  0  0  0  0  0  0  0  0  0  0  0
  -25.9190  -30.8160   21.4000 C   0  0  0  0  0  2  0  0  0  0  0  0
  -25.9990  -29.4400   20.7460 C   0  0  0  0  0  0  0  0  0  0  0  0
  -27.1860  -28.6440   20.7260 C   0  0  0  0  0  3  0  0  0  0  0  0
  -25.9800  -26.8860   19.5700 C   0  0  0  0  0  3  0  0  0  0  0  0
  -24.8160  -27.6770   19.5720 C   0  0  0  0  0  3  0  0  0  0  0  0
  -23.5860  -29.8200   20.2210 C   0  0  0  0  0  2  0  0  0  0  0  0
  -24.6480  -31.0900   22.1340 N   0  0  0  0  0  0  0  0  0  0  0  0
  -23.5090  -32.1750   23.7780 O   0  0  0  0  0  0  0  0  0  0  0  0
  -22.7190  -29.4860   22.5660 C   0  0  0  0  0  0  0  0  0  0  0  0
  -21.3920  -29.2960   22.4410 N   0  0  0  0  0  0  0  0  0  0  0  0
  -23.3990  -28.8660   23.3850 O   0  0  0  0  0  0  0  0  0  0  0  0
  -20.9010  -29.8330   21.7410 H   0  0  0  0  0  0  0  0  0  0  0  0
  -18.0280  -28.0680   22.9380 C   0  0  0  0  0  0  0  0  0  0  0  0
  -20.5820  -28.3580   23.2210 C   0  0  0  0  0  3  0  0  0  0  0  0
  -20.7020  -26.9190   22.6610 C   0  0  0  0  0  2  0  0  0  0  0  0
  -19.6140  -26.5800   21.6380 C   0  0  0  0  0  2  0  0  0  0  0  0
  -18.2210  -26.7240   22.2580 C   0  0  0  0  0  2  0  0  0  0  0  0
  -19.1350  -28.8430   23.3720 C   0  0  0  0  0  0  0  0  0  0  0  0
  -18.9010  -30.1040   23.9590 C   0  0  0  0  0  3  0  0  0  0  0  0
  -17.5890  -30.5910   24.1190 C   0  0  0  0  0  3  0  0  0  0  0  0
  -16.4970  -29.8090   23.7050 C   0  0  0  0  0  3  0  0  0  0  0  0
  -16.7160  -28.5500   23.1190 C   0  0  0  0  0  3  0  0  0  0  0  0
  -25.8740  -32.5300   23.8510 C   0  0  0  0  0  3  0  0  0  0  0  0
  -26.3960  -31.7650   25.1290 C   0  0  1  0  0  0  0  0  0  0  0  0
  -25.3110  -31.5340   26.2060 C   0  0  0  0  0  1  0  0  0  0  0  0
  -26.9700  -30.3820   24.7410 C   0  0  0  0  0  1  0  0  0  0  0  0
  -27.5520  -32.5640   25.7800 C   0  0  0  0  0  1  0  0  0  0  0  0
  -25.5650  -33.9290   24.1780 N   0  0  0  0  0  0  0  0  0  0  0  0
  -25.9020  -34.9820   23.4210 C   0  0  0  0  0  0  0  0  0  0  0  0
  -26.5730  -34.8770   22.3900 O   0  0  0  0  0  0  0  0  0  0  0  0
  -24.9640  -34.0830   24.9740 H   0  0  0  0  0  0  0  0  0  0  0  0
  -24.1810  -36.7830   23.0650 C   0  0  0  0  0  1  0  0  0  0  0  0
  -25.4170  -36.3700   23.8800 C   0  0  0  0  0  3  0  0  0  0  0  0
  -27.5500  -37.2470   24.7230 C   0  0  0  0  0  1  0  0  0  0  0  0
  -26.4530  -37.4200   23.7750 N   0  0  0  0  0  0  0  0  0  0  0  0
  -26.0490  -38.3400   23.9270 H   0  0  0  0  0  0  0  0  0  0  0  0
  -29.6460  -18.7580   20.8650 C   0  0  0  0  0  2  0  0  0  0  0  0
  -30.6760  -14.8730   20.3990 C   0  0  0  0  0  0  0  0  0  0  0  0
  -30.4910  -12.5690   19.4600 C   0  0  0  0  0  2  0  0  0  0  0  0
  -29.5670  -12.5170   18.2250 C   0  0  0  0  0  2  0  0  0  0  0  0
  -28.0920  -12.3570   18.6410 C   0  0  0  0  0  2  0  0  0  0  0  0
  -27.6630  -13.3040   19.7940 C   0  0  0  0  0  3  0  0  0  0  0  0
  -28.7120  -13.3350   20.9300 C   0  0  0  0  0  2  0  0  0  0  0  0
  -30.0120  -13.6630   20.3340 N   0  0  0  0  0  0  0  0  0  0  0  0
  -31.9070  -14.8810   20.3290 O   0  0  0  0  0  0  0  0  0  0  0  0
  -30.0190  -17.1880   18.0400 C   0  0  0  0  0  2  0  0  0  0  0  0
  -31.1010  -17.7660   18.9400 C   0  0  0  0  0  2  0  0  0  0  0  0
  -29.2510  -16.2130   18.9450 C   0  0  0  0  0  2  0  0  0  0  0  0
  -30.5450  -17.4960   20.3520 C   0  0  0  0  0  3  0  0  0  0  0  0
  -29.9630  -16.0770   20.2320 N   0  0  0  0  0  0  0  0  0  0  0  0
  -25.2690  -13.9080   20.4640 C   0  0  0  0  0  0  0  0  0  0  0  0
  -24.1950  -13.1400   20.8070 C   0  0  0  0  0  0  0  0  0  0  0  0
  -24.6620  -11.7890   20.8190 C   0  0  0  0  0  0  0  0  0  0  0  0
  -26.3200  -13.0240   20.2720 N   0  0  0  0  0  0  0  0  0  0  0  0
  -25.9610  -11.7480   20.5540 N   0  0  0  0  0  0  0  0  0  0  0  0
  -23.9360  -10.5300   21.0090 C   0  0  0  0  0  0  0  0  0  0  0  0
  -24.3540   -9.5820   21.9670 C   0  0  0  0  0  3  0  0  0  0  0  0
  -23.6330   -8.3810   22.1460 C   0  0  0  0  0  3  0  0  0  0  0  0
  -22.4840   -8.1200   21.3630 C   0  0  0  0  0  0  0  0  0  0  0  0
  -22.0850   -9.0560   20.3940 C   0  0  0  0  0  3  0  0  0  0  0  0
  -22.8050  -10.2490   20.2160 C   0  0  0  0  0  3  0  0  0  0  0  0
  -21.7370   -6.9710   21.4500 O   0  0  0  0  0  0  0  0  0  0  0  0
  -21.6680   -6.2490   22.6120 C   0  0  0  0  0  0  0  0  0  0  0  0
  -21.2080   -6.8170   23.8190 C   0  0  0  0  0  3  0  0  0  0  0  0
  -21.0880   -6.0140   24.9720 C   0  0  0  0  0  3  0  0  0  0  0  0
  -21.4170   -4.6460   24.9160 C   0  0  0  0  0  0  0  0  0  0  0  0
  -21.8680   -4.0770   23.7120 C   0  0  0  0  0  3  0  0  0  0  0  0
  -21.9910   -4.8770   22.5630 C   0  0  0  0  0  0  0  0  0  0  0  0
  -22.4090   -4.3240   21.3990 F   0  0  0  0  0  0  0  0  0  0  0  0
  -21.2900   -3.8700   26.0180 F   0  0  0  0  0  0  0  0  0  0  0  0
  -22.7880  -13.6140   21.0200 C   0  0  0  0  0  0  0  0  0  0  0  0
  -22.0410  -12.9350   21.8800 N   0  0  0  0  0  0  0  0  0  0  0  0
  -22.3620  -14.6280   20.4650 O   0  0  0  0  0  0  0  0  0  0  0  0
  -22.3990  -12.1190   22.3560 H   0  0  0  0  0  0  0  0  0  0  0  0
  -21.0970  -13.2350   22.0690 H   0  0  0  0  0  0  0  0  0  0  0  0
  -25.4370  -15.2780   20.2780 N   0  0  0  0  0  0  0  0  0  0  0  0
  -24.6630  -15.9290   20.3420 H   0  0  0  0  0  0  0  0  0  0  0  0
  -26.3020  -15.7120   19.9840 H   0  0  0  0  0  0  0  0  0  0  0  0
  1  3  1  0
  1  7  1  0
  2  1  2  0
  3 51  1  0
  4  2  1  0
  5  2  1  0
  6  3  1  0
  8  7  1  0
  8  9  2  0
 10  9  1  0
 11 22  2  0
 12 10  1  0
 12 17  1  0
 13 21  1  0
 13 23  1  0
 14 20  1  0
 14 16  1  0
 15 21  1  0
 16 15  1  0
 17 16  2  0
 18 19  1  0
 18 12  2  0
 19 14  2  0
 20 13  1  0
 21 11  1  0
 23 25  2  0
 24 23  1  0
 26 24  1  0
 27 36  2  0
 27 32  1  0
 28 24  1  0
 28 32  1  0
 29 28  1  0
 30 31  1  0
 30 29  1  0
 31 27  1  0
 32 33  2  0
 33 34  1  0
 35 34  2  0
 36 35  1  0
 37 11  1  0
 37 42  1  0
 37 38  1  0
 38 41  1  1
 38 39  1  0
 40 38  1  0
 42 45  1  0
 43 47  1  0
 43 42  1  0
 44 43  2  0
 47 46  1  0
 49 47  1  0
 49 50  1  0
 49 48  1  0
 53 58  1  0
 54 55  1  0
 54 53  1  0
 56 55  1  0
 56 68  1  0
 56 57  1  0
 58 52  1  0
 58 57  1  0
 59 52  2  0
 60 61  1  0
 60 62  1  0
 61 63  1  0
 62 64  1  0
 63 51  1  0
 64 63  1  0
 64 52  1  0
 65 66  2  0
 66 67  1  0
 66 85  1  0
 67 70  1  0
 68 65  1  0
 68 69  1  0
 69 67  2  0
 70 71  1  0
 71 72  2  0
 73 76  1  0
 73 72  1  0
 74 73  2  0
 75 74  1  0
 75 70  2  0
 76 77  1  0
 77 78  1  0
 78 79  2  0
 80 79  1  0
 80 84  1  0
 81 80  2  0
 82 77  2  0
 82 81  1  0
 83 82  1  0
 85 86  1  0
 86 89  1  0
 86 88  1  0
 87 85  2  0
 90 91  1  0
 90 65  1  0
 92 90  1  0
M  ISO  4   9 101  10 101  52 100  64 100
M  END
>  <TORSDO>  (20) 
F 20

>  <SCORE>  (20) 
-13.270

>  <name>  (20) 
19

>  <ligand_id>  (20) 
19

>  <original_smiles>  (20) 
[H]c1c([H])c([H])c2c(c1[H])C([H])([H])C([H])([H])C([H])([H])C2([H])N([H])C(=O)C1([H])N(C(=O)C([H])(N([H])C(=O)C([H])(N([H])C([H])([H])[H])C([H])([H])[H])C(C([H])([H])[H])(C([H])([H])[H])C([H])([H])[H])C([H])([H])c2c([H])c(OC([H])([H])C([H])([H])C([H])([H])C(N([H])[H])=[N+]([H])C([H])([H])C3([H])N(C(=O)N4C([H])([H])C([H])([H])C([H])([H])C([H])(n5nc(-c6c([H])c([H])c(Oc7c([H])c([H])c(F)c([H])c7F)c([H])c6[H])c(C(=O)N([H])[H])c5N([H])[H])C4([H])[H])C([H])([H])C([H])([H])C3([H])[H])c([H])c([H])c2C1([H])[H]

>  <smiles>  (20) 
[H]c1c([H])c([H])c2c(c1[H])C([H])([H])C([H])([H])C([H])([H])C2([H])N([H])C(=O)C1([H])N(C(=O)C([H])(N([H])C(=O)C([H])(N([H])C([H])([H])[H])C([H])([H])[H])C(C([H])([H])[H])(C([H])([H])[H])C([H])([H])[H])C([H])([H])c2c([H])c(OC([H])([H])C([H])([H])C([H])([H])C(N([H])[H])=[N+]([H])C([H])([H])C3([H])N(C(=O)N4C([H])([H])C([H])([H])C([H])([H])C([H])(n5nc(-c6c([H])c([H])c(Oc7c([H])c([H])c(F)c([H])c7F)c([H])c6[H])c(C(=O)N([H])[H])c5N([H])[H])C4([H])[H])C([H])([H])C([H])([H])C3([H])[H])c([H])c([H])c2C1([H])[H]

$$$$
20:0:0
     RDKit          3D

 98107  0  0  1  0  0  0  0  0999 V2000
  -28.1220  -20.6760   20.6080 C   0  0  0  0  0  2  0  0  0  0  0  0
  -29.3200  -20.8240   18.5000 C   0  0  0  0  0  2  0  0  0  0  0  0
  -28.4480  -22.1650   20.9210 C   0  0  0  0  0  2  0  0  0  0  0  0
  -29.5480  -22.3720   18.7360 C   0  0  0  0  0  2  0  0  0  0  0  0
  -29.2420  -19.9900   19.8040 C   0  0  0  0  0  3  0  0  0  0  0  0
  -28.5880  -23.0160   19.6980 N   0  0  2  0  0  4  0  0  0  0  0  0
  -27.6940  -22.9860   19.2310 H   0  0  0  0  0  0  0  0  0  0  0  0
  -29.0150  -18.4140   19.7040 C   0  0  0  0  0  2  0  0  0  0  0  0
  -30.6470  -14.9230   19.5580 C   0  0  0  0  0  0  0  0  0  0  0  0
  -30.3090  -12.5960   18.7660 C   0  0  0  0  0  2  0  0  0  0  0  0
  -29.3070  -12.5760   17.5950 C   0  0  0  0  0  2  0  0  0  0  0  0
  -27.8670  -12.4480   18.1230 C   0  0  0  0  0  2  0  0  0  0  0  0
  -27.5620  -13.4070   19.3060 C   0  0  0  0  0  3  0  0  0  0  0  0
  -28.7040  -13.4540   20.3470 C   0  0  0  0  0  2  0  0  0  0  0  0
  -29.9690  -13.7320   19.6500 N   0  0  0  0  0  0  0  0  0  0  0  0
  -31.6600  -15.0100   18.8630 O   0  0  0  0  0  0  0  0  0  0  0  0
  -31.7880  -16.8900   21.8660 C   0  0  0  0  0  2  0  0  0  0  0  0
  -31.5990  -18.0610   19.6520 C   0  0  0  0  0  2  0  0  0  0  0  0
  -30.4180  -16.2100   21.5810 C   0  0  0  0  0  2  0  0  0  0  0  0
  -31.9500  -18.2440   21.1360 C   0  0  0  0  0  3  0  0  0  0  0  0
  -30.2150  -17.4150   19.4350 C   0  0  0  0  0  3  0  0  0  0  0  0
  -30.1380  -16.0670   20.1360 N   0  0  0  0  0  0  0  0  0  0  0  0
  -25.2690  -13.9660   20.3120 C   0  0  0  0  0  0  0  0  0  0  0  0
  -24.2430  -13.1830   20.7650 C   0  0  0  0  0  0  0  0  0  0  0  0
  -24.6840  -11.8320   20.6180 C   0  0  0  0  0  0  0  0  0  0  0  0
  -26.2730  -13.0960   19.9220 N   0  0  0  0  0  0  0  0  0  0  0  0
  -25.9320  -11.8030   20.1640 N   0  0  0  0  0  0  0  0  0  0  0  0
  -23.9680  -10.5660   20.8290 C   0  0  0  0  0  0  0  0  0  0  0  0
  -24.3530   -9.6580   21.8410 C   0  0  0  0  0  3  0  0  0  0  0  0
  -23.6370   -8.4560   22.0390 C   0  0  0  0  0  3  0  0  0  0  0  0
  -22.5200   -8.1520   21.2260 C   0  0  0  0  0  0  0  0  0  0  0  0
  -22.1500   -9.0490   20.2090 C   0  0  0  0  0  3  0  0  0  0  0  0
  -22.8680  -10.2420   20.0090 C   0  0  0  0  0  3  0  0  0  0  0  0
  -21.7760   -7.0000   21.3280 O   0  0  0  0  0  0  0  0  0  0  0  0
  -21.5050   -6.4230   22.5420 C   0  0  0  0  0  0  0  0  0  0  0  0
  -20.8250   -7.1230   23.5630 C   0  0  0  0  0  3  0  0  0  0  0  0
  -20.5060   -6.4710   24.7700 C   0  0  0  0  0  3  0  0  0  0  0  0
  -20.8560   -5.1190   24.9580 C   0  0  0  0  0  0  0  0  0  0  0  0
  -21.5260   -4.4190   23.9400 C   0  0  0  0  0  3  0  0  0  0  0  0
  -21.8510   -5.0700   22.7360 C   0  0  0  0  0  0  0  0  0  0  0  0
  -22.4790   -4.3850   21.7510 F   0  0  0  0  0  0  0  0  0  0  0  0
  -20.5400   -4.4920   26.1150 F   0  0  0  0  0  0  0  0  0  0  0  0
  -22.8900  -13.6520   21.2120 C   0  0  0  0  0  0  0  0  0  0  0  0
  -22.2790  -12.9540   22.1620 N   0  0  0  0  0  0  0  0  0  0  0  0
  -22.3890  -14.6800   20.7560 O   0  0  0  0  0  0  0  0  0  0  0  0
  -22.7020  -12.1320   22.5650 H   0  0  0  0  0  0  0  0  0  0  0  0
  -21.3730  -13.2490   22.4970 H   0  0  0  0  0  0  0  0  0  0  0  0
  -25.4280  -15.3440   20.1860 N   0  0  0  0  0  0  0  0  0  0  0  0
  -24.6900  -15.9990   20.4200 H   0  0  0  0  0  0  0  0  0  0  0  0
  -26.2550  -15.7920   19.8150 H   0  0  0  0  0  0  0  0  0  0  0  0
  -33.3730  -18.8580   21.2380 C   0  0  0  0  0  2  0  0  0  0  0  0
  -33.6110  -19.6480   22.4580 N   0  0  0  0  0  4  0  0  0  0  0  0
  -32.9310  -20.3780   22.5590 H   0  0  0  0  0  0  0  0  0  0  0  0
  -34.5160  -20.0800   22.3910 H   0  0  0  0  0  0  0  0  0  0  0  0
  -33.6140  -19.0710   23.2770 H   0  0  0  0  0  0  0  0  0  0  0  0
  -28.8390  -24.4870   20.0240 C   0  0  0  0  0  3  0  0  0  0  0  0
  -27.8590  -25.5240   19.3420 C   0  0  0  0  0  3  0  0  0  0  0  0
  -27.9360  -26.9180   19.8110 O   0  0  0  0  0  0  0  0  0  0  0  0
  -24.4530  -32.0720   23.4100 C   0  0  0  0  0  0  0  0  0  0  0  0
  -26.7840  -27.7150   19.8850 C   0  0  0  0  0  0  0  0  0  0  0  0
  -23.0980  -30.7630   21.8080 C   0  0  0  0  0  3  0  0  0  0  0  0
  -24.4130  -29.2930   20.1690 C   0  0  0  0  0  0  0  0  0  0  0  0
  -25.6030  -31.0970   21.4100 C   0  0  0  0  0  2  0  0  0  0  0  0
  -25.6200  -29.7470   20.7120 C   0  0  0  0  0  0  0  0  0  0  0  0
  -26.8000  -28.9600   20.5830 C   0  0  0  0  0  3  0  0  0  0  0  0
  -25.5610  -27.3290   19.2890 C   0  0  0  0  0  3  0  0  0  0  0  0
  -24.3870  -28.0930   19.4400 C   0  0  0  0  0  3  0  0  0  0  0  0
  -23.1800  -30.1490   20.3820 C   0  0  0  0  0  2  0  0  0  0  0  0
  -24.4080  -31.3260   22.2710 N   0  0  0  0  0  0  0  0  0  0  0  0
  -23.4220  -32.3250   24.0510 O   0  0  0  0  0  0  0  0  0  0  0  0
  -22.5160  -29.7020   22.7720 C   0  0  0  0  0  0  0  0  0  0  0  0
  -21.2250  -29.3720   22.6020 N   0  0  0  0  0  0  0  0  0  0  0  0
  -23.2300  -29.1750   23.6310 O   0  0  0  0  0  0  0  0  0  0  0  0
  -20.7010  -29.8660   21.8910 H   0  0  0  0  0  0  0  0  0  0  0  0
  -18.0460  -27.6740   22.8760 C   0  0  0  0  0  0  0  0  0  0  0  0
  -20.4870  -28.3620   23.3660 C   0  0  0  0  0  3  0  0  0  0  0  0
  -20.8690  -26.9330   22.9200 C   0  0  0  0  0  2  0  0  0  0  0  0
  -19.9470  -26.3720   21.8320 C   0  0  0  0  0  2  0  0  0  0  0  0
  -18.5000  -26.3300   22.3320 C   0  0  0  0  0  2  0  0  0  0  0  0
  -18.9810  -28.6350   23.3470 C   0  0  0  0  0  0  0  0  0  0  0  0
  -18.5030  -29.8790   23.8110 C   0  0  0  0  0  3  0  0  0  0  0  0
  -17.1270  -30.1720   23.8080 C   0  0  0  0  0  3  0  0  0  0  0  0
  -16.2060  -29.2110   23.3530 C   0  0  0  0  0  3  0  0  0  0  0  0
  -16.6660  -27.9630   22.8960 C   0  0  0  0  0  3  0  0  0  0  0  0
  -25.7890  -32.6670   23.9510 C   0  0  0  0  0  3  0  0  0  0  0  0
  -25.5490  -34.0780   24.2910 N   0  0  0  0  0  0  0  0  0  0  0  0
  -25.8680  -35.1160   23.5080 C   0  0  0  0  0  0  0  0  0  0  0  0
  -26.4710  -34.9840   22.4390 O   0  0  0  0  0  0  0  0  0  0  0  0
  -25.0070  -34.2590   25.1230 H   0  0  0  0  0  0  0  0  0  0  0  0
  -24.1790  -36.9630   23.2520 C   0  0  0  0  0  1  0  0  0  0  0  0
  -25.4570  -36.5230   23.9810 C   0  0  0  0  0  3  0  0  0  0  0  0
  -27.6750  -37.3380   24.6570 C   0  0  0  0  0  1  0  0  0  0  0  0
  -26.5150  -37.5410   23.7910 N   0  0  0  0  0  0  0  0  0  0  0  0
  -26.1540  -38.4760   23.9630 H   0  0  0  0  0  0  0  0  0  0  0  0
  -26.3630  -31.8810   25.1910 C   0  0  1  0  0  0  0  0  0  0  0  0
  -25.3160  -31.6160   26.3010 C   0  0  0  0  0  1  0  0  0  0  0  0
  -26.9180  -30.5110   24.7420 C   0  0  0  0  0  1  0  0  0  0  0  0
  -27.5530  -32.6570   25.8060 C   0  0  0  0  0  1  0  0  0  0  0  0
  1  3  1  0
  2  4  1  0
  2  5  1  0
  4  6  1  0
  5  8  1  0
  5  1  1  0
  6 56  1  0
  6  3  1  0
  6  7  1  6
  9 15  1  0
  9 22  1  0
 10 15  1  0
 11 12  1  0
 11 10  1  0
 13 12  1  0
 13 26  1  0
 13 14  1  0
 15 14  1  0
 16  9  2  0
 18 20  1  0
 19 17  1  0
 20 51  1  0
 20 17  1  0
 21 18  1  0
 21  8  1  0
 21 22  1  0
 22 19  1  0
 23 24  2  0
 24 43  1  0
 25 24  1  0
 25 28  1  0
 26 27  1  0
 26 23  1  0
 27 25  2  0
 28 29  1  0
 29 30  2  0
 31 34  1  0
 31 30  1  0
 32 31  2  0
 33 32  1  0
 33 28  2  0
 34 35  1  0
 35 40  2  0
 35 36  1  0
 36 37  2  0
 37 38  1  0
 38 42  1  0
 39 38  2  0
 40 39  1  0
 41 40  1  0
 43 44  1  0
 44 47  1  0
 44 46  1  0
 45 43  2  0
 48 23  1  0
 48 49  1  0
 50 48  1  0
 51 52  1  0
 52 53  1  0
 52 55  1  0
 54 52  1  0
 57 58  1  0
 57 56  2  0
 58 60  1  0
 59 70  2  0
 60 65  1  0
 61 69  1  0
 61 71  1  0
 62 68  1  0
 62 64  1  0
 63 69  1  0
 64 63  1  0
 65 64  2  0
 66 67  1  0
 66 60  2  0
 67 62  2  0
 68 61  1  0
 69 59  1  0
 71 73  2  0
 72 71  1  0
 74 72  1  0
 75 84  2  0
 75 80  1  0
 76 72  1  0
 77 76  1  0
 78 79  1  0
 78 77  1  0
 79 75  1  0
 80 76  1  0
 80 81  2  0
 82 81  1  0
 83 82  2  0
 84 83  1  0
 85 59  1  0
 85 86  1  0
 85 95  1  0
 86 89  1  0
 87 91  1  0
 87 86  1  0
 88 87  2  0
 91 90  1  0
 93 94  1  0
 93 91  1  0
 93 92  1  0
 95 98  1  1
 95 96  1  0
 97 95  1  0
M  ISO  4   9 100  22 100  57 101  58 101
M  END
>  <TORSDO>  (21) 
F 21

>  <SCORE>  (21) 
-11.868

>  <name>  (21) 
20

>  <ligand_id>  (21) 
20

>  <original_smiles>  (21) 
[H]c1c([H])c([H])c2c(c1[H])C([H])([H])C([H])([H])C([H])([H])C2([H])N([H])C(=O)C1([H])N(C(=O)C([H])(N([H])C(=O)C([H])(N([H])C([H])([H])[H])C([H])([H])[H])C(C([H])([H])[H])(C([H])([H])[H])C([H])([H])[H])C([H])([H])c2c([H])c(OC([H])([H])C([H])([H])[N+]3([H])C([H])([H])C([H])([H])C([H])(C([H])([H])C4([H])N(C(=O)N5C([H])([H])C([H])([H])C([H])([H])C([H])(n6nc(-c7c([H])c([H])c(Oc8c([H])c([H])c(F)c([H])c8F)c([H])c7[H])c(C(=O)N([H])[H])c6N([H])[H])C5([H])[H])C([H])([H])C([H])([H])C([H])(C([H])([H])[N+]([H])([H])[H])C4([H])[H])C([H])([H])C3([H])[H])c([H])c([H])c2C1([H])[H]

>  <smiles>  (21) 
[H]c1c([H])c([H])c2c(c1[H])C([H])([H])C([H])([H])C([H])([H])C2([H])N([H])C(=O)C1([H])N(C(=O)C([H])(N([H])C(=O)C([H])(N([H])C([H])([H])[H])C([H])([H])[H])C(C([H])([H])[H])(C([H])([H])[H])C([H])([H])[H])C([H])([H])c2c([H])c(OC([H])([H])C([H])([H])[N+]3([H])C([H])([H])C([H])([H])C([H])(C([H])([H])C4([H])N(C(=O)N5C([H])([H])C([H])([H])C([H])([H])C([H])(n6nc(-c7c([H])c([H])c(Oc8c([H])c([H])c(F)c([H])c8F)c([H])c7[H])c(C(=O)N([H])[H])c6N([H])[H])C5([H])[H])C([H])([H])C([H])([H])C([H])(C([H])([H])[N+]([H])([H])[H])C4([H])[H])C([H])([H])C3([H])[H])c([H])c([H])c2C1([H])[H]

$$$$
21:0:0
     RDKit          3D

 94102  0  0  1  0  0  0  0  0999 V2000
  -26.5760  -23.4370   21.6430 C   0  0  0  0  0  3  0  0  0  0  0  0
  -26.2150  -22.4660   20.6900 C   0  0  0  0  0  3  0  0  0  0  0  0
  -27.4610  -24.4740   21.2920 C   0  0  0  0  0  3  0  0  0  0  0  0
  -27.6580  -23.5460   19.0460 C   0  0  0  0  0  3  0  0  0  0  0  0
  -26.7740  -22.5040   19.3910 C   0  0  0  0  0  0  0  0  0  0  0  0
  -27.9780  -24.5500   19.9810 C   0  0  0  0  0  0  0  0  0  0  0  0
  -26.4240  -21.4430   18.3570 C   0  0  0  0  0  2  0  0  0  0  0  0
  -26.6320  -20.0660   18.8420 N   0  0  0  0  0  4  0  0  0  0  0  0
  -26.4540  -19.4540   18.0630 H   0  0  0  0  0  0  0  0  0  0  0  0
  -25.9300  -19.8680   19.5370 H   0  0  0  0  0  0  0  0  0  0  0  0
  -27.9660  -19.7570   19.4020 C   0  0  0  0  0  2  0  0  0  0  0  0
  -28.0310  -18.2730   19.7870 C   0  0  0  0  0  2  0  0  0  0  0  0
  -29.3210  -17.8140   20.4910 C   0  0  0  0  0  2  0  0  0  0  0  0
  -29.2920  -16.2840   20.5610 C   0  0  0  0  0  2  0  0  0  0  0  0
  -31.0480  -14.6020   20.5770 C   0  0  0  0  0  0  0  0  0  0  0  0
  -30.7150  -12.4380   19.4470 C   0  0  0  0  0  2  0  0  0  0  0  0
  -29.8030  -12.5980   18.2150 C   0  0  0  0  0  2  0  0  0  0  0  0
  -28.3220  -12.4460   18.6120 C   0  0  0  0  0  2  0  0  0  0  0  0
  -27.9450  -13.3340   19.8230 C   0  0  0  0  0  3  0  0  0  0  0  0
  -28.9780  -13.1850   20.9710 C   0  0  0  0  0  2  0  0  0  0  0  0
  -30.3210  -13.4580   20.4300 N   0  0  0  0  0  0  0  0  0  0  0  0
  -32.1910  -14.7380   20.1440 O   0  0  0  0  0  0  0  0  0  0  0  0
  -30.4560  -15.6490   21.1710 N   0  0  0  0  0  0  0  0  0  0  0  0
  -31.1270  -16.3160   21.5260 H   0  0  0  0  0  0  0  0  0  0  0  0
  -25.5500  -14.0110   20.4700 C   0  0  0  0  0  0  0  0  0  0  0  0
  -24.4590  -13.2650   20.8220 C   0  0  0  0  0  0  0  0  0  0  0  0
  -24.8960  -11.9060   20.8180 C   0  0  0  0  0  0  0  0  0  0  0  0
  -26.5810  -13.1030   20.2760 N   0  0  0  0  0  0  0  0  0  0  0  0
  -26.1900  -11.8350   20.5460 N   0  0  0  0  0  0  0  0  0  0  0  0
  -24.1460  -10.6590   20.9980 C   0  0  0  0  0  0  0  0  0  0  0  0
  -24.5430   -9.6960   21.9520 C   0  0  0  0  0  3  0  0  0  0  0  0
  -23.7980   -8.5100   22.1190 C   0  0  0  0  0  3  0  0  0  0  0  0
  -22.6440   -8.2810   21.3330 C   0  0  0  0  0  0  0  0  0  0  0  0
  -22.2690   -9.2330   20.3680 C   0  0  0  0  0  3  0  0  0  0  0  0
  -23.0150  -10.4100   20.1990 C   0  0  0  0  0  3  0  0  0  0  0  0
  -21.8730   -7.1460   21.4100 O   0  0  0  0  0  0  0  0  0  0  0  0
  -21.7750   -6.4220   22.5690 C   0  0  0  0  0  0  0  0  0  0  0  0
  -21.3150   -6.9990   23.7730 C   0  0  0  0  0  3  0  0  0  0  0  0
  -21.1620   -6.2010   24.9240 C   0  0  0  0  0  3  0  0  0  0  0  0
  -21.4590   -4.8260   24.8720 C   0  0  0  0  0  0  0  0  0  0  0  0
  -21.9120   -4.2480   23.6730 C   0  0  0  0  0  3  0  0  0  0  0  0
  -22.0660   -5.0440   22.5240 C   0  0  0  0  0  0  0  0  0  0  0  0
  -22.4830   -4.4790   21.3670 F   0  0  0  0  0  0  0  0  0  0  0  0
  -21.3060   -4.0560   25.9750 F   0  0  0  0  0  0  0  0  0  0  0  0
  -23.0620  -13.7700   21.0480 C   0  0  0  0  0  0  0  0  0  0  0  0
  -22.3060  -13.1100   21.9180 N   0  0  0  0  0  0  0  0  0  0  0  0
  -22.6500  -14.7850   20.4890 O   0  0  0  0  0  0  0  0  0  0  0  0
  -22.6520  -12.2880   22.3920 H   0  0  0  0  0  0  0  0  0  0  0  0
  -21.3690  -13.4290   22.1120 H   0  0  0  0  0  0  0  0  0  0  0  0
  -25.7380  -15.3760   20.2730 N   0  0  0  0  0  0  0  0  0  0  0  0
  -24.9680  -16.0330   20.3360 H   0  0  0  0  0  0  0  0  0  0  0  0
  -26.5880  -15.7850   19.9100 H   0  0  0  0  0  0  0  0  0  0  0  0
  -28.8310  -25.7300   19.5400 C   0  0  0  0  0  2  0  0  0  0  0  0
  -28.6230  -26.9240   20.2910 O   0  0  0  0  0  0  0  0  0  0  0  0
  -24.6210  -31.9430   23.2960 C   0  0  0  0  0  0  0  0  0  0  0  0
  -27.4020  -27.5700   20.2460 C   0  0  0  0  0  0  0  0  0  0  0  0
  -23.4640  -30.5200   21.6360 C   0  0  0  0  0  3  0  0  0  0  0  0
  -24.9650  -29.0090   20.2360 C   0  0  0  0  0  0  0  0  0  0  0  0
  -25.9830  -30.9240   21.4810 C   0  0  0  0  0  2  0  0  0  0  0  0
  -26.1010  -29.5550   20.8480 C   0  0  0  0  0  0  0  0  0  0  0  0
  -27.3130  -28.8360   20.8640 C   0  0  0  0  0  3  0  0  0  0  0  0
  -26.2480  -27.0380   19.6230 C   0  0  0  0  0  3  0  0  0  0  0  0
  -25.0310  -27.7440   19.6290 C   0  0  0  0  0  3  0  0  0  0  0  0
  -23.7060  -29.8410   20.2610 C   0  0  0  0  0  2  0  0  0  0  0  0
  -24.7050  -31.1440   22.1960 N   0  0  0  0  0  0  0  0  0  0  0  0
  -23.5280  -32.1980   23.8200 O   0  0  0  0  0  0  0  0  0  0  0  0
  -22.8160  -29.4880   22.5870 C   0  0  0  0  0  0  0  0  0  0  0  0
  -21.4960  -29.2920   22.4450 N   0  0  0  0  0  0  0  0  0  0  0  0
  -23.4980  -28.8660   23.4060 O   0  0  0  0  0  0  0  0  0  0  0  0
  -21.0060  -29.8470   21.7580 H   0  0  0  0  0  0  0  0  0  0  0  0
  -18.1210  -28.0970   22.9300 C   0  0  0  0  0  0  0  0  0  0  0  0
  -20.6790  -28.3460   23.2040 C   0  0  0  0  0  3  0  0  0  0  0  0
  -20.7790  -26.9230   22.6070 C   0  0  0  0  0  2  0  0  0  0  0  0
  -19.6750  -26.6170   21.5890 C   0  0  0  0  0  2  0  0  0  0  0  0
  -18.2950  -26.7570   22.2370 C   0  0  0  0  0  2  0  0  0  0  0  0
  -19.2420  -28.8510   23.3700 C   0  0  0  0  0  0  0  0  0  0  0  0
  -19.0290  -30.1080   23.9770 C   0  0  0  0  0  3  0  0  0  0  0  0
  -17.7250  -30.6110   24.1490 C   0  0  0  0  0  3  0  0  0  0  0  0
  -16.6180  -29.8540   23.7270 C   0  0  0  0  0  3  0  0  0  0  0  0
  -16.8180  -28.5990   23.1230 C   0  0  0  0  0  3  0  0  0  0  0  0
  -25.8890  -32.5930   23.9350 C   0  0  0  0  0  3  0  0  0  0  0  0
  -25.5610  -33.9920   24.2400 N   0  0  0  0  0  0  0  0  0  0  0  0
  -25.9070  -35.0370   23.4760 C   0  0  0  0  0  0  0  0  0  0  0  0
  -26.6090  -34.9250   22.4660 O   0  0  0  0  0  0  0  0  0  0  0  0
  -24.9430  -34.1530   25.0210 H   0  0  0  0  0  0  0  0  0  0  0  0
  -24.1790  -36.8100   23.0380 C   0  0  0  0  0  1  0  0  0  0  0  0
  -25.3950  -36.4260   23.8980 C   0  0  0  0  0  3  0  0  0  0  0  0
  -27.4930  -37.3370   24.7900 C   0  0  0  0  0  1  0  0  0  0  0  0
  -26.4220  -37.4870   23.8080 N   0  0  0  0  0  0  0  0  0  0  0  0
  -26.0040  -38.4050   23.9310 H   0  0  0  0  0  0  0  0  0  0  0  0
  -26.3880  -31.8420   25.2300 C   0  0  1  0  0  0  0  0  0  0  0  0
  -25.2740  -31.5950   26.2740 C   0  0  0  0  0  1  0  0  0  0  0  0
  -27.0030  -30.4720   24.8620 C   0  0  0  0  0  1  0  0  0  0  0  0
  -27.5100  -32.6600   25.9120 C   0  0  0  0  0  1  0  0  0  0  0  0
  2  1  2  0
  3  1  1  0
  4  5  2  0
  4  6  1  0
  5  2  1  0
  6  3  2  0
  7  8  1  0
  7  5  1  0
  8 11  1  0
  8 10  1  0
  9  8  1  0
 11 12  1  0
 12 13  1  0
 13 14  1  0
 14 23  1  0
 15 23  1  0
 16 21  1  0
 17 18  1  0
 17 16  1  0
 19 18  1  0
 19 28  1  0
 19 20  1  0
 21 15  1  0
 21 20  1  0
 22 15  2  0
 23 24  1  0
 25 26  2  0
 26 45  1  0
 27 26  1  0
 27 30  1  0
 28 25  1  0
 28 29  1  0
 29 27  2  0
 30 31  1  0
 31 32  2  0
 33 36  1  0
 33 32  1  0
 34 33  2  0
 35 34  1  0
 35 30  2  0
 36 37  1  0
 37 38  1  0
 38 39  2  0
 40 39  1  0
 40 44  1  0
 41 40  2  0
 42 37  2  0
 42 41  1  0
 43 42  1  0
 45 46  1  0
 46 49  1  0
 46 48  1  0
 47 45  2  0
 50 51  1  0
 50 25  1  0
 52 50  1  0
 53  6  1  0
 53 54  1  0
 55 66  2  0
 56 54  1  0
 56 61  1  0
 57 65  1  0
 57 67  1  0
 58 64  1  0
 58 60  1  0
 59 65  1  0
 60 61  2  0
 60 59  1  0
 62 63  1  0
 62 56  2  0
 63 58  2  0
 64 57  1  0
 65 55  1  0
 67 69  2  0
 68 67  1  0
 70 68  1  0
 71 80  2  0
 71 76  1  0
 72 68  1  0
 72 76  1  0
 73 72  1  0
 74 75  1  0
 74 73  1  0
 75 71  1  0
 76 77  2  0
 77 78  1  0
 79 78  2  0
 80 79  1  0
 81 55  1  0
 81 82  1  0
 81 91  1  0
 82 85  1  0
 83 87  1  0
 83 82  1  0
 84 83  2  0
 87 86  1  0
 89 87  1  0
 89 90  1  0
 89 88  1  0
 91 94  1  1
 91 92  1  0
 93 91  1  0
M  ISO  4  15 100  23 100  53 101  54 101
M  END
>  <TORSDO>  (22) 
F 23

>  <SCORE>  (22) 
-12.714

>  <name>  (22) 
21

>  <ligand_id>  (22) 
21

>  <original_smiles>  (22) 
[H]c1c([H])c([H])c2c(c1[H])C([H])([H])C([H])([H])C([H])([H])C2([H])N([H])C(=O)C1([H])N(C(=O)C([H])(N([H])C(=O)C([H])(N([H])C([H])([H])[H])C([H])([H])[H])C(C([H])([H])[H])(C([H])([H])[H])C([H])([H])[H])C([H])([H])c2c([H])c(OC([H])([H])c3c([H])c([H])c([H])c(C([H])([H])[N+]([H])([H])C([H])([H])C([H])([H])C([H])([H])C([H])([H])N([H])C(=O)N4C([H])([H])C([H])([H])C([H])([H])C([H])(n5nc(-c6c([H])c([H])c(Oc7c([H])c([H])c(F)c([H])c7F)c([H])c6[H])c(C(=O)N([H])[H])c5N([H])[H])C4([H])[H])c3[H])c([H])c([H])c2C1([H])[H]

>  <smiles>  (22) 
[H]c1c([H])c([H])c2c(c1[H])C([H])([H])C([H])([H])C([H])([H])C2([H])N([H])C(=O)C1([H])N(C(=O)C([H])(N([H])C(=O)C([H])(N([H])C([H])([H])[H])C([H])([H])[H])C(C([H])([H])[H])(C([H])([H])[H])C([H])([H])[H])C([H])([H])c2c([H])c(OC([H])([H])c3c([H])c([H])c([H])c(C([H])([H])[N+]([H])([H])C([H])([H])C([H])([H])C([H])([H])C([H])([H])N([H])C(=O)N4C([H])([H])C([H])([H])C([H])([H])C([H])(n5nc(-c6c([H])c([H])c(Oc7c([H])c([H])c(F)c([H])c7F)c([H])c6[H])c(C(=O)N([H])[H])c5N([H])[H])C4([H])[H])c3[H])c([H])c([H])c2C1([H])[H]

$$$$
22:0:0
     RDKit          3D

 94102  0  0  1  0  0  0  0  0999 V2000
  -30.2990  -15.5440   19.8520 C   0  0  0  0  0  0  0  0  0  0  0  0
  -30.3540  -12.9970   19.3100 C   0  0  0  0  0  2  0  0  0  0  0  0
  -29.4480  -12.5960   18.1160 C   0  0  0  0  0  2  0  0  0  0  0  0
  -28.0040  -12.3480   18.5820 C   0  0  0  0  0  2  0  0  0  0  0  0
  -27.5250  -13.4360   19.5740 C   0  0  0  0  0  3  0  0  0  0  0  0
  -28.5600  -13.7480   20.6760 C   0  0  0  0  0  2  0  0  0  0  0  0
  -29.7820  -14.2200   20.0000 N   0  0  0  0  0  0  0  0  0  0  0  0
  -31.4690  -15.5410   19.4420 O   0  0  0  0  0  0  0  0  0  0  0  0
  -31.5960  -19.1960   20.4650 C   0  0  0  0  0  2  0  0  0  0  0  0
  -30.7220  -20.3320   19.8920 C   0  0  0  0  0  2  0  0  0  0  0  0
  -29.7990  -18.3390   22.1860 C   0  0  0  0  0  2  0  0  0  0  0  0
  -29.3280  -16.9950   21.5730 C   0  0  0  0  0  2  0  0  0  0  0  0
  -28.9450  -18.2170   19.4000 C   0  0  0  0  0  2  0  0  0  0  0  0
  -31.2590  -18.7990   21.9300 C   0  0  0  0  0  3  0  0  0  0  0  0
  -29.3660  -19.9780   19.2210 C   0  0  0  0  0  3  0  0  0  0  0  0
  -29.5880  -16.8350   20.1310 N   0  0  0  0  0  0  0  0  0  0  0  0
  -25.2240  -14.0600   20.4710 C   0  0  0  0  0  0  0  0  0  0  0  0
  -24.1380  -13.3140   20.8320 C   0  0  0  0  0  0  0  0  0  0  0  0
  -24.5290  -11.9470   20.6850 C   0  0  0  0  0  0  0  0  0  0  0  0
  -26.2040  -13.1520   20.1170 N   0  0  0  0  0  0  0  0  0  0  0  0
  -25.8020  -11.8690   20.3130 N   0  0  0  0  0  0  0  0  0  0  0  0
  -23.7420  -10.7130   20.8200 C   0  0  0  0  0  0  0  0  0  0  0  0
  -24.1330   -9.6800   21.7010 C   0  0  0  0  0  3  0  0  0  0  0  0
  -23.3480   -8.5130   21.8280 C   0  0  0  0  0  3  0  0  0  0  0  0
  -22.1570   -8.3730   21.0760 C   0  0  0  0  0  0  0  0  0  0  0  0
  -21.7850   -9.3940   20.1850 C   0  0  0  0  0  3  0  0  0  0  0  0
  -22.5690  -10.5530   20.0550 C   0  0  0  0  0  3  0  0  0  0  0  0
  -21.3450   -7.2660   21.1180 O   0  0  0  0  0  0  0  0  0  0  0  0
  -21.2300   -6.4970   22.2480 C   0  0  0  0  0  0  0  0  0  0  0  0
  -20.7390   -7.0240   23.4620 C   0  0  0  0  0  3  0  0  0  0  0  0
  -20.5730   -6.1830   24.5800 C   0  0  0  0  0  3  0  0  0  0  0  0
  -20.8890   -4.8150   24.4850 C   0  0  0  0  0  0  0  0  0  0  0  0
  -21.3750   -4.2860   23.2750 C   0  0  0  0  0  3  0  0  0  0  0  0
  -21.5410   -5.1250   22.1590 C   0  0  0  0  0  0  0  0  0  0  0  0
  -21.9890   -4.6070   20.9900 F   0  0  0  0  0  0  0  0  0  0  0  0
  -20.7240   -4.0040   25.5560 F   0  0  0  0  0  0  0  0  0  0  0  0
  -22.7810  -13.8420   21.1970 C   0  0  0  0  0  0  0  0  0  0  0  0
  -22.0570  -13.1350   22.0560 N   0  0  0  0  0  0  0  0  0  0  0  0
  -22.3760  -14.9160   20.7550 O   0  0  0  0  0  0  0  0  0  0  0  0
  -22.4000  -12.2640   22.4370 H   0  0  0  0  0  0  0  0  0  0  0  0
  -21.1470  -13.4680   22.3400 H   0  0  0  0  0  0  0  0  0  0  0  0
  -25.4540  -15.4300   20.3850 N   0  0  0  0  0  0  0  0  0  0  0  0
  -24.7310  -16.1120   20.5860 H   0  0  0  0  0  0  0  0  0  0  0  0
  -26.3120  -15.8490   20.0500 H   0  0  0  0  0  0  0  0  0  0  0  0
  -32.2420  -17.8470   22.4850 N   0  0  0  0  0  4  0  0  0  0  0  0
  -32.2650  -16.9810   21.9790 H   0  0  0  0  0  0  0  0  0  0  0  0
  -32.0340  -17.6490   23.4490 H   0  0  0  0  0  0  0  0  0  0  0  0
  -33.1640  -18.2450   22.4590 H   0  0  0  0  0  0  0  0  0  0  0  0
  -28.4050  -21.3410   19.4080 N   0  0  0  0  0  4  0  0  0  0  0  0
  -28.4620  -21.5800   20.3850 H   0  0  0  0  0  0  0  0  0  0  0  0
  -27.4960  -20.9110   19.3270 H   0  0  0  0  0  0  0  0  0  0  0  0
  -28.0920  -22.7930   18.6220 C   0  0  0  0  0  2  0  0  0  0  0  0
  -28.5830  -24.5260   18.7560 C   0  0  0  0  0  2  0  0  0  0  0  0
  -28.2540  -26.0410   19.3630 O   0  0  0  0  0  0  0  0  0  0  0  0
  -24.6690  -31.4470   23.1070 C   0  0  0  0  0  0  0  0  0  0  0  0
  -27.2170  -27.1110   19.3420 C   0  0  0  0  0  0  0  0  0  0  0  0
  -23.4570  -30.3060   21.2900 C   0  0  0  0  0  3  0  0  0  0  0  0
  -24.8960  -28.9490   19.6070 C   0  0  0  0  0  0  0  0  0  0  0  0
  -26.0170  -30.5610   21.1390 C   0  0  0  0  0  2  0  0  0  0  0  0
  -26.0850  -29.2700   20.2730 C   0  0  0  0  0  0  0  0  0  0  0  0
  -27.2300  -28.3700   20.1220 C   0  0  0  0  0  3  0  0  0  0  0  0
  -26.0040  -26.9470   18.6380 C   0  0  0  0  0  3  0  0  0  0  0  0
  -24.8810  -27.8140   18.7730 C   0  0  0  0  0  3  0  0  0  0  0  0
  -23.6690  -29.8390   19.8200 C   0  0  0  0  0  2  0  0  0  0  0  0
  -24.7370  -30.7890   21.9020 N   0  0  0  0  0  0  0  0  0  0  0  0
  -23.5870  -31.6470   23.6830 O   0  0  0  0  0  0  0  0  0  0  0  0
  -22.7850  -29.1710   22.1060 C   0  0  0  0  0  0  0  0  0  0  0  0
  -21.4460  -29.0610   22.0350 N   0  0  0  0  0  0  0  0  0  0  0  0
  -23.4750  -28.3950   22.7730 O   0  0  0  0  0  0  0  0  0  0  0  0
  -20.9440  -29.7450   21.4870 H   0  0  0  0  0  0  0  0  0  0  0  0
  -18.0520  -27.9050   22.5910 C   0  0  0  0  0  0  0  0  0  0  0  0
  -20.6350  -28.0180   22.6720 C   0  0  0  0  0  3  0  0  0  0  0  0
  -20.6110  -26.7290   21.8170 C   0  0  0  0  0  2  0  0  0  0  0  0
  -19.4170  -26.6620   20.8600 C   0  0  0  0  0  2  0  0  0  0  0  0
  -18.1010  -26.7200   21.6410 C   0  0  0  0  0  2  0  0  0  0  0  0
  -19.2410  -28.5250   23.0620 C   0  0  0  0  0  0  0  0  0  0  0  0
  -19.1390  -29.6400   23.9190 C   0  0  0  0  0  3  0  0  0  0  0  0
  -17.8800  -30.1390   24.3050 C   0  0  0  0  0  3  0  0  0  0  0  0
  -16.7070  -29.5150   23.8470 C   0  0  0  0  0  3  0  0  0  0  0  0
  -16.7940  -28.3990   22.9970 C   0  0  0  0  0  3  0  0  0  0  0  0
  -25.9470  -31.9960   23.8130 C   0  0  0  0  0  3  0  0  0  0  0  0
  -26.4620  -31.0620   24.9790 C   0  0  1  0  0  0  0  0  0  0  0  0
  -25.3730  -30.7020   26.0180 C   0  0  0  0  0  1  0  0  0  0  0  0
  -27.0280  -29.7380   24.4170 C   0  0  0  0  0  1  0  0  0  0  0  0
  -27.6290  -31.7530   25.7250 C   0  0  0  0  0  1  0  0  0  0  0  0
  -25.6320  -33.3370   24.3410 N   0  0  0  0  0  0  0  0  0  0  0  0
  -26.0100  -34.4930   23.7820 C   0  0  0  0  0  0  0  0  0  0  0  0
  -26.7230  -34.5440   22.7760 O   0  0  0  0  0  0  0  0  0  0  0  0
  -25.0040  -33.3720   25.1310 H   0  0  0  0  0  0  0  0  0  0  0  0
  -24.3480  -36.3820   23.6440 C   0  0  0  0  0  1  0  0  0  0  0  0
  -25.5260  -35.8020   24.4420 C   0  0  0  0  0  3  0  0  0  0  0  0
  -27.6110  -36.4820   25.5460 C   0  0  0  0  0  1  0  0  0  0  0  0
  -26.5840  -36.8270   24.5680 N   0  0  0  0  0  0  0  0  0  0  0  0
  -26.1870  -37.7240   24.8300 H   0  0  0  0  0  0  0  0  0  0  0  0
  1  7  1  0
  1 16  1  0
  2  7  1  0
  3  4  1  0
  3  2  1  0
  5  4  1  0
  5 20  1  0
  5  6  1  0
  7  6  1  0
  8  1  2  0
  9 14  1  0
 10  9  1  0
 12 11  1  0
 13 16  1  0
 14 11  1  0
 14 45  1  0
 15 13  1  0
 15 49  1  0
 15 10  1  0
 16 12  1  0
 17 18  2  0
 18 37  1  0
 19 22  1  0
 19 18  1  0
 20 21  1  0
 20 17  1  0
 21 19  2  0
 22 23  1  0
 23 24  2  0
 25 28  1  0
 25 24  1  0
 26 25  2  0
 27 26  1  0
 27 22  2  0
 28 29  1  0
 29 30  1  0
 30 31  2  0
 32 31  1  0
 32 36  1  0
 33 32  2  0
 34 29  2  0
 34 33  1  0
 35 34  1  0
 37 38  1  0
 38 41  1  0
 38 40  1  0
 39 37  2  0
 42 17  1  0
 42 43  1  0
 44 42  1  0
 45 47  1  0
 46 45  1  0
 48 45  1  0
 49 50  1  0
 51 49  1  0
 52 53  1  0
 52 49  1  0
 53 54  1  0
 55 66  2  0
 56 54  1  0
 56 61  1  0
 57 65  1  0
 57 67  1  0
 58 64  1  0
 58 60  1  0
 59 65  1  0
 60 59  1  0
 61 60  2  0
 62 63  1  0
 62 56  2  0
 63 58  2  0
 64 57  1  0
 65 55  1  0
 67 69  2  0
 68 67  1  0
 70 68  1  0
 71 80  2  0
 71 76  1  0
 72 68  1  0
 72 76  1  0
 73 72  1  0
 74 75  1  0
 74 73  1  0
 75 71  1  0
 76 77  2  0
 77 78  1  0
 79 78  2  0
 80 79  1  0
 81 55  1  0
 81 86  1  0
 81 82  1  0
 82 85  1  1
 82 83  1  0
 84 82  1  0
 86 89  1  0
 87 86  1  0
 87 91  1  0
 88 87  2  0
 91 90  1  0
 91 93  1  0
 93 94  1  0
 93 92  1  0
M  ISO  4   1 100  16 100  53 101  54 101
M  END
>  <TORSDO>  (23) 
F 19

>  <SCORE>  (23) 
-12.028

>  <name>  (23) 
22

>  <ligand_id>  (23) 
22

>  <original_smiles>  (23) 
[H]c1c([H])c([H])c2c(c1[H])C([H])([H])C([H])([H])C([H])([H])C2([H])N([H])C(=O)C1([H])N(C(=O)C([H])(N([H])C(=O)C([H])(N([H])C([H])([H])[H])C([H])([H])[H])C(C([H])([H])[H])(C([H])([H])[H])C([H])([H])[H])C([H])([H])c2c([H])c(OC([H])([H])C([H])([H])[N+]([H])([H])C3([H])C([H])([H])N(C(=O)N4C([H])([H])C([H])([H])C([H])([H])C([H])(n5nc(-c6c([H])c([H])c(Oc7c([H])c([H])c(F)c([H])c7F)c([H])c6[H])c(C(=O)N([H])[H])c5N([H])[H])C4([H])[H])C([H])([H])C([H])([H])C([H])([N+]([H])([H])[H])C([H])([H])C3([H])[H])c([H])c([H])c2C1([H])[H]

>  <smiles>  (23) 
[H]c1c([H])c([H])c2c(c1[H])C([H])([H])C([H])([H])C([H])([H])C2([H])N([H])C(=O)C1([H])N(C(=O)C([H])(N([H])C(=O)C([H])(N([H])C([H])([H])[H])C([H])([H])[H])C(C([H])([H])[H])(C([H])([H])[H])C([H])([H])[H])C([H])([H])c2c([H])c(OC([H])([H])C([H])([H])[N+]([H])([H])C3([H])C([H])([H])N(C(=O)N4C([H])([H])C([H])([H])C([H])([H])C([H])(n5nc(-c6c([H])c([H])c(Oc7c([H])c([H])c(F)c([H])c7F)c([H])c6[H])c(C(=O)N([H])[H])c5N([H])[H])C4([H])[H])C([H])([H])C([H])([H])C([H])([N+]([H])([H])[H])C([H])([H])C3([H])[H])c([H])c([H])c2C1([H])[H]

$$$$
23:0:0
     RDKit          3D

101109  0  0  1  0  0  0  0  0999 V2000
  -28.0570  -19.6090   17.0090 C   0  0  0  0  0  2  0  0  0  0  0  0
  -28.1520  -18.4390   17.9940 C   0  0  0  0  0  2  0  0  0  0  0  0
  -28.1090  -20.0550   19.9080 C   0  0  0  0  0  2  0  0  0  0  0  0
  -27.2880  -20.7940   17.6090 C   0  0  0  0  0  3  0  0  0  0  0  0
  -28.0330  -21.2360   18.8950 C   0  0  0  0  0  3  0  0  0  0  0  0
  -28.7260  -18.8210   19.3210 N   0  0  1  0  0  4  0  0  0  0  0  0
  -29.6990  -19.0270   19.1530 H   0  0  0  0  0  0  0  0  0  0  0  0
  -25.7680  -20.5070   17.8190 C   0  0  0  0  0  2  0  0  0  0  0  0
  -24.9220  -20.6400   16.5390 C   0  0  0  0  0  2  0  0  0  0  0  0
  -23.4400  -20.9490   16.8430 C   0  0  0  0  0  2  0  0  0  0  0  0
  -22.6680  -21.2650   15.6290 N   0  0  0  0  0  4  0  0  0  0  0  0
  -23.0750  -22.0350   15.1300 H   0  0  0  0  0  0  0  0  0  0  0  0
  -21.7290  -21.5210   15.8810 H   0  0  0  0  0  0  0  0  0  0  0  0
  -22.6160  -20.4710   15.0160 H   0  0  0  0  0  0  0  0  0  0  0  0
  -27.4070  -22.5420   19.4590 C   0  0  0  0  0  2  0  0  0  0  0  0
  -28.3890  -23.5580   19.9120 N   0  0  0  0  0  4  0  0  0  0  0  0
  -29.2710  -23.4110   19.4480 H   0  0  0  0  0  0  0  0  0  0  0  0
  -28.5420  -23.4470   20.9020 H   0  0  0  0  0  0  0  0  0  0  0  0
  -27.9380  -24.9370   19.6070 C   0  0  0  0  0  2  0  0  0  0  0  0
  -28.7190  -26.0660   20.3020 C   0  0  0  0  0  2  0  0  0  0  0  0
  -28.5160  -27.3310   19.6620 O   0  0  0  0  0  0  0  0  0  0  0  0
  -24.4930  -31.9650   23.2710 C   0  0  0  0  0  0  0  0  0  0  0  0
  -27.2860  -27.9350   19.8040 C   0  0  0  0  0  0  0  0  0  0  0  0
  -23.3170  -30.6500   21.5330 C   0  0  0  0  0  3  0  0  0  0  0  0
  -24.8140  -29.2990   19.9720 C   0  0  0  0  0  0  0  0  0  0  0  0
  -25.8170  -31.1390   21.3320 C   0  0  0  0  0  2  0  0  0  0  0  0
  -25.9540  -29.8260   20.5940 C   0  0  0  0  0  0  0  0  0  0  0  0
  -27.1890  -29.1490   20.5140 C   0  0  0  0  0  3  0  0  0  0  0  0
  -26.1350  -27.4300   19.1560 C   0  0  0  0  0  3  0  0  0  0  0  0
  -24.8980  -28.0940   19.2530 C   0  0  0  0  0  3  0  0  0  0  0  0
  -23.5350  -30.0970   20.0980 C   0  0  0  0  0  2  0  0  0  0  0  0
  -24.5600  -31.2610   22.1050 N   0  0  0  0  0  0  0  0  0  0  0  0
  -23.4110  -32.1470   23.8470 O   0  0  0  0  0  0  0  0  0  0  0  0
  -22.7290  -29.5240   22.4140 C   0  0  0  0  0  0  0  0  0  0  0  0
  -21.4200  -29.2710   22.2600 N   0  0  0  0  0  0  0  0  0  0  0  0
  -23.4470  -28.8860   23.1880 O   0  0  0  0  0  0  0  0  0  0  0  0
  -20.9050  -29.8440   21.6070 H   0  0  0  0  0  0  0  0  0  0  0  0
  -18.1340  -27.8110   22.6050 C   0  0  0  0  0  0  0  0  0  0  0  0
  -20.6590  -28.2300   22.9520 C   0  0  0  0  0  3  0  0  0  0  0  0
  -20.8770  -26.8490   22.2920 C   0  0  0  0  0  2  0  0  0  0  0  0
  -19.8220  -26.5090   21.2360 C   0  0  0  0  0  2  0  0  0  0  0  0
  -18.4180  -26.5190   21.8550 C   0  0  0  0  0  2  0  0  0  0  0  0
  -19.1860  -28.6200   23.1070 C   0  0  0  0  0  0  0  0  0  0  0  0
  -18.8690  -29.8270   23.7680 C   0  0  0  0  0  3  0  0  0  0  0  0
  -17.5310  -30.2290   23.9290 C   0  0  0  0  0  3  0  0  0  0  0  0
  -16.4910  -29.4180   23.4430 C   0  0  0  0  0  3  0  0  0  0  0  0
  -16.7930  -28.2090   22.7870 C   0  0  0  0  0  3  0  0  0  0  0  0
  -25.7640  -32.5950   23.9210 C   0  0  0  0  0  3  0  0  0  0  0  0
  -26.2350  -31.8390   25.2230 C   0  0  1  0  0  0  0  0  0  0  0  0
  -25.1070  -31.6300   26.2610 C   0  0  0  0  0  1  0  0  0  0  0  0
  -26.8130  -30.4490   24.8670 C   0  0  0  0  0  1  0  0  0  0  0  0
  -27.3720  -32.6310   25.9070 C   0  0  0  0  0  1  0  0  0  0  0  0
  -25.4580  -34.0000   24.2170 N   0  0  0  0  0  0  0  0  0  0  0  0
  -25.8340  -35.0330   23.4500 C   0  0  0  0  0  0  0  0  0  0  0  0
  -26.5460  -34.9010   22.4510 O   0  0  0  0  0  0  0  0  0  0  0  0
  -24.8340  -34.1750   24.9910 H   0  0  0  0  0  0  0  0  0  0  0  0
  -24.1470  -36.8350   22.9700 C   0  0  0  0  0  1  0  0  0  0  0  0
  -25.3380  -36.4330   23.8560 C   0  0  0  0  0  3  0  0  0  0  0  0
  -27.4370  -37.3070   24.7860 C   0  0  0  0  0  1  0  0  0  0  0  0
  -26.3880  -37.4720   23.7820 N   0  0  0  0  0  0  0  0  0  0  0  0
  -25.9870  -38.3990   23.8930 H   0  0  0  0  0  0  0  0  0  0  0  0
  -28.6800  -17.6470   20.2380 C   0  0  0  0  0  2  0  0  0  0  0  0
  -29.9470  -17.3990   21.0790 C   0  0  0  0  0  2  0  0  0  0  0  0
  -30.6870  -15.0370   20.9290 C   0  0  0  0  0  0  0  0  0  0  0  0
  -30.4800  -12.9600   19.6330 C   0  0  0  0  0  2  0  0  0  0  0  0
  -29.5990  -13.2270   18.3940 C   0  0  0  0  0  2  0  0  0  0  0  0
  -28.1080  -13.0270   18.7340 C   0  0  0  0  0  2  0  0  0  0  0  0
  -27.6840  -13.7820   20.0210 C   0  0  0  0  0  3  0  0  0  0  0  0
  -28.6830  -13.5180   21.1750 C   0  0  0  0  0  2  0  0  0  0  0  0
  -30.0400  -13.8620   20.7100 N   0  0  0  0  0  0  0  0  0  0  0  0
  -31.7990  -15.3000   20.4680 O   0  0  0  0  0  0  0  0  0  0  0  0
  -29.9350  -15.9910   21.4980 N   0  0  0  0  0  0  0  0  0  0  0  0
  -29.0920  -15.6600   21.9430 H   0  0  0  0  0  0  0  0  0  0  0  0
  -25.2280  -14.3150   20.5930 C   0  0  0  0  0  0  0  0  0  0  0  0
  -24.1590  -13.5060   20.8710 C   0  0  0  0  0  0  0  0  0  0  0  0
  -24.6570  -12.1690   20.8260 C   0  0  0  0  0  0  0  0  0  0  0  0
  -26.3090  -13.4650   20.4010 N   0  0  0  0  0  0  0  0  0  0  0  0
  -25.9630  -12.1670   20.5960 N   0  0  0  0  0  0  0  0  0  0  0  0
  -23.9560  -10.8840   20.9270 C   0  0  0  0  0  0  0  0  0  0  0  0
  -24.3640   -9.8880   21.8430 C   0  0  0  0  0  3  0  0  0  0  0  0
  -23.6610   -8.6680   21.9340 C   0  0  0  0  0  3  0  0  0  0  0  0
  -22.5410   -8.4330   21.1050 C   0  0  0  0  0  0  0  0  0  0  0  0
  -22.1530   -9.4160   20.1770 C   0  0  0  0  0  3  0  0  0  0  0  0
  -22.8560  -10.6280   20.0830 C   0  0  0  0  0  3  0  0  0  0  0  0
  -21.8090   -7.2680   21.1100 O   0  0  0  0  0  0  0  0  0  0  0  0
  -21.7350   -6.4700   22.2220 C   0  0  0  0  0  0  0  0  0  0  0  0
  -21.2590   -6.9560   23.4590 C   0  0  0  0  0  3  0  0  0  0  0  0
  -21.1380   -6.0850   24.5600 C   0  0  0  0  0  3  0  0  0  0  0  0
  -21.4780   -4.7250   24.4230 C   0  0  0  0  0  0  0  0  0  0  0  0
  -21.9460   -4.2370   23.1910 C   0  0  0  0  0  3  0  0  0  0  0  0
  -22.0730   -5.1060   22.0940 C   0  0  0  0  0  0  0  0  0  0  0  0
  -22.5060   -4.6260   20.9040 F   0  0  0  0  0  0  0  0  0  0  0  0
  -21.3500   -3.8850   25.4770 F   0  0  0  0  0  0  0  0  0  0  0  0
  -22.7350  -13.9400   21.0670 C   0  0  0  0  0  0  0  0  0  0  0  0
  -21.9790  -13.2130   21.8780 N   0  0  0  0  0  0  0  0  0  0  0  0
  -22.2990  -14.9600   20.5320 O   0  0  0  0  0  0  0  0  0  0  0  0
  -22.3390  -12.3880   22.3370 H   0  0  0  0  0  0  0  0  0  0  0  0
  -21.0220  -13.4890   22.0490 H   0  0  0  0  0  0  0  0  0  0  0  0
  -25.3630  -15.6920   20.4670 N   0  0  0  0  0  0  0  0  0  0  0  0
  -24.5640  -16.3130   20.5530 H   0  0  0  0  0  0  0  0  0  0  0  0
  -26.1890  -16.1430   20.1110 H   0  0  0  0  0  0  0  0  0  0  0  0
  1  4  1  0
  1  2  1  0
  2  6  1  0
  4  8  1  0
  4  5  1  0
  5 15  1  0
  5  3  1  0
  6  3  1  0
  6 62  1  0
  6  7  1  6
  9 10  1  0
  9  8  1  0
 11 13  1  0
 11 10  1  0
 12 11  1  0
 14 11  1  0
 15 16  1  0
 16 18  1  0
 17 16  1  0
 19 16  1  0
 19 20  1  0
 21 23  1  0
 21 20  1  0
 22 33  2  0
 23 28  1  0
 24 32  1  0
 24 34  1  0
 25 31  1  0
 25 27  1  0
 26 32  1  0
 27 26  1  0
 28 27  2  0
 29 30  1  0
 29 23  2  0
 30 25  2  0
 31 24  1  0
 32 22  1  0
 34 36  2  0
 35 34  1  0
 37 35  1  0
 38 47  2  0
 38 43  1  0
 39 35  1  0
 39 43  1  0
 40 39  1  0
 41 42  1  0
 41 40  1  0
 42 38  1  0
 43 44  2  0
 44 45  1  0
 46 45  2  0
 47 46  1  0
 48 22  1  0
 48 53  1  0
 48 49  1  0
 49 52  1  1
 49 50  1  0
 51 49  1  0
 53 56  1  0
 54 58  1  0
 54 53  1  0
 55 54  2  0
 58 57  1  0
 60 58  1  0
 60 61  1  0
 60 59  1  0
 62 63  1  0
 63 72  1  0
 64 72  1  0
 65 70  1  0
 66 67  1  0
 66 65  1  0
 68 67  1  0
 68 77  1  0
 68 69  1  0
 70 64  1  0
 70 69  1  0
 71 64  2  0
 72 73  1  0
 74 75  2  0
 75 94  1  0
 76 75  1  0
 76 79  1  0
 77 74  1  0
 77 78  1  0
 78 76  2  0
 79 80  1  0
 80 81  2  0
 82 85  1  0
 82 81  1  0
 83 82  2  0
 84 83  1  0
 84 79  2  0
 85 86  1  0
 86 87  1  0
 87 88  2  0
 89 88  1  0
 89 93  1  0
 90 89  2  0
 91 86  2  0
 91 90  1  0
 92 91  1  0
 94 95  1  0
 95 98  1  0
 95 97  1  0
 96 94  2  0
 99100  1  0
 99 74  1  0
101 99  1  0
M  ISO  4  20 101  21 101  64 100  72 100
M  END
>  <TORSDO>  (24) 
F 26

>  <SCORE>  (24) 
-11.275

>  <name>  (24) 
23

>  <ligand_id>  (24) 
23

>  <original_smiles>  (24) 
[H]c1c([H])c([H])c2c(c1[H])C([H])([H])C([H])([H])C([H])([H])C2([H])N([H])C(=O)C1([H])N(C(=O)C([H])(N([H])C(=O)C([H])(N([H])C([H])([H])[H])C([H])([H])[H])C(C([H])([H])[H])(C([H])([H])[H])C([H])([H])[H])C([H])([H])c2c([H])c(OC([H])([H])C([H])([H])[N+]([H])([H])C([H])([H])C3([H])C([H])(C([H])([H])C([H])([H])C([H])([H])[N+]([H])([H])[H])C([H])([H])C([H])([H])[N+]([H])(C([H])([H])C([H])([H])N([H])C(=O)N4C([H])([H])C([H])([H])C([H])([H])C([H])(n5nc(-c6c([H])c([H])c(Oc7c([H])c([H])c(F)c([H])c7F)c([H])c6[H])c(C(=O)N([H])[H])c5N([H])[H])C4([H])[H])C3([H])[H])c([H])c([H])c2C1([H])[H]

>  <smiles>  (24) 
[H]c1c([H])c([H])c2c(c1[H])C([H])([H])C([H])([H])C([H])([H])C2([H])N([H])C(=O)C1([H])N(C(=O)C([H])(N([H])C(=O)C([H])(N([H])C([H])([H])[H])C([H])([H])[H])C(C([H])([H])[H])(C([H])([H])[H])C([H])([H])[H])C([H])([H])c2c([H])c(OC([H])([H])C([H])([H])[N+]([H])([H])C([H])([H])C3([H])C([H])(C([H])([H])C([H])([H])C([H])([H])[N+]([H])([H])[H])C([H])([H])C([H])([H])[N+]([H])(C([H])([H])C([H])([H])N([H])C(=O)N4C([H])([H])C([H])([H])C([H])([H])C([H])(n5nc(-c6c([H])c([H])c(Oc7c([H])c([H])c(F)c([H])c7F)c([H])c6[H])c(C(=O)N([H])[H])c5N([H])[H])C4([H])[H])C3([H])[H])c([H])c([H])c2C1([H])[H]

$$$$
24:0:0
     RDKit          3D

 95104  0  0  1  0  0  0  0  0999 V2000
  -29.2680  -18.8470   19.0870 C   0  0  0  0  0  2  0  0  0  0  0  0
  -28.6270  -20.3550   19.3730 C   0  0  0  0  0  2  0  0  0  0  0  0
  -31.4630  -20.8040   21.5060 C   0  0  0  0  0  2  0  0  0  0  0  0
  -29.6850  -18.9010   21.4560 C   0  0  0  0  0  2  0  0  0  0  0  0
  -30.7400  -21.8200   19.4650 C   0  0  0  0  0  2  0  0  0  0  0  0
  -29.9500  -20.5290   21.3900 C   0  0  0  0  0  3  0  0  0  0  0  0
  -31.7800  -21.9770   20.5770 C   0  0  0  0  0  3  0  0  0  0  0  0
  -30.0110  -17.9500   20.2100 C   0  0  0  0  0  3  0  0  0  0  0  0
  -29.4220  -21.4930   20.1900 C   0  0  2  0  0  0  0  0  0  0  0  0
  -30.5680  -15.1270   20.1690 C   0  0  0  0  0  0  0  0  0  0  0  0
  -30.4830  -12.7250   19.2830 C   0  0  0  0  0  2  0  0  0  0  0  0
  -29.5470  -12.6020   18.0580 C   0  0  0  0  0  2  0  0  0  0  0  0
  -28.0920  -12.3750   18.5050 C   0  0  0  0  0  2  0  0  0  0  0  0
  -27.6760  -13.3340   19.6500 C   0  0  0  0  0  3  0  0  0  0  0  0
  -28.7330  -13.4110   20.7700 C   0  0  0  0  0  2  0  0  0  0  0  0
  -29.9860  -13.8480   20.1410 N   0  0  0  0  0  0  0  0  0  0  0  0
  -31.7750  -15.1650   19.8940 O   0  0  0  0  0  0  0  0  0  0  0  0
  -29.7850  -16.3400   20.3060 N   0  0  0  0  0  0  0  0  0  0  0  0
  -28.8190  -16.1090   20.4900 H   0  0  0  0  0  0  0  0  0  0  0  0
  -25.3110  -13.9250   20.4160 C   0  0  0  0  0  0  0  0  0  0  0  0
  -24.2450  -13.1580   20.7960 C   0  0  0  0  0  0  0  0  0  0  0  0
  -24.6990  -11.8050   20.7610 C   0  0  0  0  0  0  0  0  0  0  0  0
  -26.3440  -13.0390   20.1650 N   0  0  0  0  0  0  0  0  0  0  0  0
  -25.9870  -11.7580   20.4390 N   0  0  0  0  0  0  0  0  0  0  0  0
  -23.9630  -10.5480   20.9580 C   0  0  0  0  0  0  0  0  0  0  0  0
  -24.3770   -9.5890   21.9070 C   0  0  0  0  0  3  0  0  0  0  0  0
  -23.6390   -8.4000   22.0900 C   0  0  0  0  0  3  0  0  0  0  0  0
  -22.4730   -8.1610   21.3250 C   0  0  0  0  0  0  0  0  0  0  0  0
  -22.0780   -9.1100   20.3650 C   0  0  0  0  0  3  0  0  0  0  0  0
  -22.8160  -10.2910   20.1790 C   0  0  0  0  0  3  0  0  0  0  0  0
  -21.7080   -7.0230   21.4170 O   0  0  0  0  0  0  0  0  0  0  0  0
  -21.6190   -6.3080   22.5840 C   0  0  0  0  0  0  0  0  0  0  0  0
  -21.1330   -6.8850   23.7780 C   0  0  0  0  0  3  0  0  0  0  0  0
  -20.9930   -6.0950   24.9360 C   0  0  0  0  0  3  0  0  0  0  0  0
  -21.3300   -4.7300   24.9030 C   0  0  0  0  0  0  0  0  0  0  0  0
  -21.8110   -4.1520   23.7140 C   0  0  0  0  0  3  0  0  0  0  0  0
  -21.9530   -4.9390   22.5570 C   0  0  0  0  0  0  0  0  0  0  0  0
  -22.3960   -4.3720   21.4090 F   0  0  0  0  0  0  0  0  0  0  0  0
  -21.1900   -3.9680   26.0130 F   0  0  0  0  0  0  0  0  0  0  0  0
  -22.8540  -13.6490   21.0750 C   0  0  0  0  0  0  0  0  0  0  0  0
  -22.1250  -12.9600   21.9440 N   0  0  0  0  0  0  0  0  0  0  0  0
  -22.4250  -14.6790   20.5560 O   0  0  0  0  0  0  0  0  0  0  0  0
  -22.4850  -12.1260   22.3860 H   0  0  0  0  0  0  0  0  0  0  0  0
  -21.1920  -13.2710   22.1740 H   0  0  0  0  0  0  0  0  0  0  0  0
  -25.4830  -15.2950   20.2350 N   0  0  0  0  0  0  0  0  0  0  0  0
  -24.7150  -15.9500   20.3480 H   0  0  0  0  0  0  0  0  0  0  0  0
  -26.3160  -15.7270   19.8590 H   0  0  0  0  0  0  0  0  0  0  0  0
  -33.2430  -22.0000   20.0880 C   0  0  0  0  0  2  0  0  0  0  0  0
  -33.5600  -23.2360   19.3570 N   0  0  0  0  0  4  0  0  0  0  0  0
  -32.9810  -23.3330   18.5420 H   0  0  0  0  0  0  0  0  0  0  0  0
  -34.5190  -23.2190   19.0570 H   0  0  0  0  0  0  0  0  0  0  0  0
  -33.4290  -24.0380   19.9460 H   0  0  0  0  0  0  0  0  0  0  0  0
  -28.7540  -23.0580   20.6450 C   0  0  0  0  0  2  0  0  0  0  0  0
  -28.4620  -24.5600   19.8110 C   0  0  0  0  0  2  0  0  0  0  0  0
  -28.3930  -26.0870   20.3020 O   0  0  0  0  0  0  0  0  0  0  0  0
  -24.6310  -31.8050   23.1810 C   0  0  0  0  0  0  0  0  0  0  0  0
  -27.3270  -27.0830   20.1680 C   0  0  0  0  0  0  0  0  0  0  0  0
  -23.4830  -30.4010   21.5110 C   0  0  0  0  0  3  0  0  0  0  0  0
  -24.9800  -28.8490   20.0960 C   0  0  0  0  0  0  0  0  0  0  0  0
  -26.0390  -30.6860   21.4010 C   0  0  0  0  0  2  0  0  0  0  0  0
  -26.1430  -29.2930   20.7380 C   0  0  0  0  0  0  0  0  0  0  0  0
  -27.3090  -28.4260   20.7560 C   0  0  0  0  0  3  0  0  0  0  0  0
  -26.1370  -26.7640   19.4770 C   0  0  0  0  0  3  0  0  0  0  0  0
  -24.9960  -27.6040   19.4490 C   0  0  0  0  0  3  0  0  0  0  0  0
  -23.7410  -29.7350   20.1320 C   0  0  0  0  0  2  0  0  0  0  0  0
  -24.7370  -30.9890   22.0860 N   0  0  0  0  0  0  0  0  0  0  0  0
  -23.5300  -32.0710   23.6900 O   0  0  0  0  0  0  0  0  0  0  0  0
  -22.7990  -29.3820   22.4580 C   0  0  0  0  0  0  0  0  0  0  0  0
  -21.4740  -29.1970   22.3120 N   0  0  0  0  0  0  0  0  0  0  0  0
  -23.4650  -28.7590   23.2890 O   0  0  0  0  0  0  0  0  0  0  0  0
  -20.9910  -29.7520   21.6190 H   0  0  0  0  0  0  0  0  0  0  0  0
  -18.1010  -27.9470   22.7590 C   0  0  0  0  0  0  0  0  0  0  0  0
  -20.6530  -28.2430   23.0630 C   0  0  0  0  0  3  0  0  0  0  0  0
  -20.7810  -26.8170   22.4760 C   0  0  0  0  0  2  0  0  0  0  0  0
  -19.6970  -26.4900   21.4440 C   0  0  0  0  0  2  0  0  0  0  0  0
  -18.3060  -26.6090   22.0700 C   0  0  0  0  0  2  0  0  0  0  0  0
  -19.2030  -28.7220   23.2110 C   0  0  0  0  0  0  0  0  0  0  0  0
  -18.9560  -29.9730   23.8150 C   0  0  0  0  0  3  0  0  0  0  0  0
  -17.6420  -30.4510   23.9720 C   0  0  0  0  0  3  0  0  0  0  0  0
  -16.5550  -29.6750   23.5360 C   0  0  0  0  0  3  0  0  0  0  0  0
  -16.7840  -28.4240   22.9360 C   0  0  0  0  0  3  0  0  0  0  0  0
  -25.8860  -32.4580   23.8370 C   0  0  0  0  0  3  0  0  0  0  0  0
  -26.3650  -31.7080   25.1410 C   0  0  1  0  0  0  0  0  0  0  0  0
  -25.2420  -31.4820   26.1790 C   0  0  0  0  0  1  0  0  0  0  0  0
  -26.9670  -30.3260   24.7940 C   0  0  0  0  0  1  0  0  0  0  0  0
  -27.4910  -32.5170   25.8280 C   0  0  0  0  0  1  0  0  0  0  0  0
  -25.5550  -33.8580   24.1480 N   0  0  0  0  0  0  0  0  0  0  0  0
  -25.8950  -34.9120   23.3930 C   0  0  0  0  0  0  0  0  0  0  0  0
  -26.5840  -34.8070   22.3760 O   0  0  0  0  0  0  0  0  0  0  0  0
  -24.9450  -34.0130   24.9370 H   0  0  0  0  0  0  0  0  0  0  0  0
  -24.1620  -36.6980   23.0010 C   0  0  0  0  0  1  0  0  0  0  0  0
  -25.3910  -36.3010   23.8350 C   0  0  0  0  0  3  0  0  0  0  0  0
  -27.5000  -37.2110   24.7070 C   0  0  0  0  0  1  0  0  0  0  0  0
  -26.4200  -37.3600   23.7360 N   0  0  0  0  0  0  0  0  0  0  0  0
  -26.0040  -38.2790   23.8630 H   0  0  0  0  0  0  0  0  0  0  0  0
  1  2  1  0
  1  8  1  0
  2  9  1  0
  5  9  1  0
  5  7  1  0
  6  4  1  0
  6  3  1  0
  7 48  1  0
  7  3  1  0
  8 18  1  0
  8  4  1  0
  9 53  1  1
  9  6  1  0
 10 18  1  0
 11 16  1  0
 12 13  1  0
 12 11  1  0
 14 13  1  0
 14 23  1  0
 14 15  1  0
 16 10  1  0
 16 15  1  0
 17 10  2  0
 18 19  1  0
 20 21  2  0
 21 40  1  0
 22 21  1  0
 22 25  1  0
 23 20  1  0
 23 24  1  0
 24 22  2  0
 25 26  1  0
 26 27  2  0
 28 31  1  0
 28 27  1  0
 29 28  2  0
 30 29  1  0
 30 25  2  0
 31 32  1  0
 32 33  1  0
 33 34  2  0
 35 34  1  0
 35 39  1  0
 36 35  2  0
 37 32  2  0
 37 36  1  0
 38 37  1  0
 40 41  1  0
 41 44  1  0
 41 43  1  0
 42 40  2  0
 45 46  1  0
 45 20  1  0
 47 45  1  0
 49 52  1  0
 49 48  1  0
 50 49  1  0
 51 49  1  0
 54 55  1  0
 54 53  1  0
 56 67  2  0
 57 55  1  0
 57 62  1  0
 58 66  1  0
 58 68  1  0
 59 65  1  0
 59 61  1  0
 60 66  1  0
 61 62  2  0
 61 60  1  0
 63 57  2  0
 64 63  1  0
 64 59  2  0
 65 58  1  0
 66 56  1  0
 68 70  2  0
 69 68  1  0
 71 69  1  0
 72 81  2  0
 72 77  1  0
 73 69  1  0
 73 77  1  0
 74 73  1  0
 75 76  1  0
 75 74  1  0
 76 72  1  0
 77 78  2  0
 78 79  1  0
 80 79  2  0
 81 80  1  0
 82 56  1  0
 82 87  1  0
 82 83  1  0
 83 86  1  1
 83 84  1  0
 85 83  1  0
 87 90  1  0
 88 92  1  0
 88 87  1  0
 89 88  2  0
 92 91  1  0
 94 92  1  0
 94 95  1  0
 94 93  1  0
M  ISO  4  10 100  18 100  54 101  55 101
M  END
>  <TORSDO>  (25) 
F 20

>  <SCORE>  (25) 
-14.808

>  <name>  (25) 
24

>  <ligand_id>  (25) 
24

>  <original_smiles>  (25) 
[H]c1c([H])c([H])c2c(c1[H])C([H])([H])C([H])([H])C([H])([H])C2([H])N([H])C(=O)C1([H])N(C(=O)C([H])(N([H])C(=O)C([H])(N([H])C([H])([H])[H])C([H])([H])[H])C(C([H])([H])[H])(C([H])([H])[H])C([H])([H])[H])C([H])([H])c2c([H])c(OC([H])([H])C([H])([H])C34C([H])([H])C([H])([H])C([H])(N([H])C(=O)N5C([H])([H])C([H])([H])C([H])([H])C([H])(n6nc(-c7c([H])c([H])c(Oc8c([H])c([H])c(F)c([H])c8F)c([H])c7[H])c(C(=O)N([H])[H])c6N([H])[H])C5([H])[H])C([H])([H])C3([H])C([H])([H])C([H])(C([H])([H])[N+]([H])([H])[H])C4([H])[H])c([H])c([H])c2C1([H])[H]

>  <smiles>  (25) 
[H]c1c([H])c([H])c2c(c1[H])C([H])([H])C([H])([H])C([H])([H])C2([H])N([H])C(=O)C1([H])N(C(=O)C([H])(N([H])C(=O)C([H])(N([H])C([H])([H])[H])C([H])([H])[H])C(C([H])([H])[H])(C([H])([H])[H])C([H])([H])[H])C([H])([H])c2c([H])c(OC([H])([H])C([H])([H])C34C([H])([H])C([H])([H])C([H])(N([H])C(=O)N5C([H])([H])C([H])([H])C([H])([H])C([H])(n6nc(-c7c([H])c([H])c(Oc8c([H])c([H])c(F)c([H])c8F)c([H])c7[H])c(C(=O)N([H])[H])c6N([H])[H])C5([H])[H])C([H])([H])C3([H])C([H])([H])C([H])(C([H])([H])[N+]([H])([H])[H])C4([H])[H])c([H])c([H])c2C1([H])[H]

$$$$
25:0:0
     RDKit          3D

 91 99  0  0  1  0  0  0  0  0999 V2000
  -29.6820  -22.0460   19.5450 N   0  0  0  0  0  4  0  0  0  0  0  0
  -30.5050  -22.0850   20.1260 H   0  0  0  0  0  0  0  0  0  0  0  0
  -30.0220  -22.1760   18.6060 H   0  0  0  0  0  0  0  0  0  0  0  0
  -30.2110  -19.1950   19.7620 C   0  0  0  0  0  0  0  0  0  0  0  0
  -27.3450  -18.9610   20.4550 C   0  0  0  0  0  2  0  0  0  0  0  0
  -28.2710  -17.7510   20.7140 C   0  0  0  0  0  2  0  0  0  0  0  0
  -28.0400  -20.3330   20.6230 C   0  0  0  0  0  2  0  0  0  0  0  0
  -29.5230  -17.6590   19.8040 C   0  0  0  0  0  3  0  0  0  0  0  0
  -29.1710  -20.5360   19.5920 C   0  0  0  0  0  3  0  0  0  0  0  0
  -31.4300  -19.3470   19.8880 O   0  0  0  0  0  0  0  0  0  0  0  0
  -30.9180  -15.0790   19.5610 C   0  0  0  0  0  0  0  0  0  0  0  0
  -30.8770  -12.6280   18.8530 C   0  0  0  0  0  2  0  0  0  0  0  0
  -29.8760  -12.4440   17.6840 C   0  0  0  0  0  2  0  0  0  0  0  0
  -28.4400  -12.2470   18.2100 C   0  0  0  0  0  2  0  0  0  0  0  0
  -28.0780  -13.2770   19.3110 C   0  0  0  0  0  3  0  0  0  0  0  0
  -29.1870  -13.3820   20.3810 C   0  0  0  0  0  2  0  0  0  0  0  0
  -30.4240  -13.7770   19.6900 N   0  0  0  0  0  0  0  0  0  0  0  0
  -32.0420  -15.2220   19.0630 O   0  0  0  0  0  0  0  0  0  0  0  0
  -30.0420  -16.1410   19.9050 N   0  0  0  0  0  0  0  0  0  0  0  0
  -29.3030  -15.6530   20.3860 H   0  0  0  0  0  0  0  0  0  0  0  0
  -25.7870  -13.9320   20.2480 C   0  0  0  0  0  0  0  0  0  0  0  0
  -24.7230  -13.1890   20.6780 C   0  0  0  0  0  0  0  0  0  0  0  0
  -25.1210  -11.8210   20.5650 C   0  0  0  0  0  0  0  0  0  0  0  0
  -26.7680  -13.0190   19.8960 N   0  0  0  0  0  0  0  0  0  0  0  0
  -26.3780  -11.7420   20.1460 N   0  0  0  0  0  0  0  0  0  0  0  0
  -24.3560  -10.5850   20.7720 C   0  0  0  0  0  0  0  0  0  0  0  0
  -24.6600   -9.6950   21.8270 C   0  0  0  0  0  3  0  0  0  0  0  0
  -23.8970   -8.5230   22.0170 C   0  0  0  0  0  3  0  0  0  0  0  0
  -22.8170   -8.2310   21.1500 C   0  0  0  0  0  0  0  0  0  0  0  0
  -22.5330   -9.1090   20.0880 C   0  0  0  0  0  3  0  0  0  0  0  0
  -23.2970  -10.2720   19.8970 C   0  0  0  0  0  3  0  0  0  0  0  0
  -22.0370   -7.1030   21.2420 O   0  0  0  0  0  0  0  0  0  0  0  0
  -21.6430   -6.5970   22.4560 C   0  0  0  0  0  0  0  0  0  0  0  0
  -20.8870   -7.3620   23.3720 C   0  0  0  0  0  3  0  0  0  0  0  0
  -20.4440   -6.7810   24.5760 C   0  0  0  0  0  3  0  0  0  0  0  0
  -20.7480   -5.4370   24.8650 C   0  0  0  0  0  0  0  0  0  0  0  0
  -21.4990   -4.6750   23.9530 C   0  0  0  0  0  3  0  0  0  0  0  0
  -21.9430   -5.2530   22.7510 C   0  0  0  0  0  0  0  0  0  0  0  0
  -22.6470   -4.5060   21.8660 F   0  0  0  0  0  0  0  0  0  0  0  0
  -20.3160   -4.8760   26.0180 F   0  0  0  0  0  0  0  0  0  0  0  0
  -23.3750  -13.7140   21.0790 C   0  0  0  0  0  0  0  0  0  0  0  0
  -22.7090  -13.0410   22.0110 N   0  0  0  0  0  0  0  0  0  0  0  0
  -22.9260  -14.7560   20.6010 O   0  0  0  0  0  0  0  0  0  0  0  0
  -23.0890  -12.1970   22.4150 H   0  0  0  0  0  0  0  0  0  0  0  0
  -21.8080  -13.3710   22.3250 H   0  0  0  0  0  0  0  0  0  0  0  0
  -25.9990  -15.3000   20.1010 N   0  0  0  0  0  0  0  0  0  0  0  0
  -25.2660  -15.9770   20.2780 H   0  0  0  0  0  0  0  0  0  0  0  0
  -26.8120  -15.7050   19.6580 H   0  0  0  0  0  0  0  0  0  0  0  0
  -28.7850  -23.3270   19.9160 C   0  0  0  0  0  2  0  0  0  0  0  0
  -28.9660  -24.8690   19.2220 C   0  0  0  0  0  2  0  0  0  0  0  0
  -28.7140  -26.3130   19.7790 O   0  0  0  0  0  0  0  0  0  0  0  0
  -24.6210  -31.5050   22.9320 C   0  0  0  0  0  0  0  0  0  0  0  0
  -27.5580  -27.1730   19.6770 C   0  0  0  0  0  0  0  0  0  0  0  0
  -23.5270  -30.1130   21.2110 C   0  0  0  0  0  3  0  0  0  0  0  0
  -25.0930  -28.7290   19.7050 C   0  0  0  0  0  0  0  0  0  0  0  0
  -26.0490  -30.5870   21.0650 C   0  0  0  0  0  2  0  0  0  0  0  0
  -26.2280  -29.2410   20.3420 C   0  0  0  0  0  0  0  0  0  0  0  0
  -27.4530  -28.4780   20.3120 C   0  0  0  0  0  3  0  0  0  0  0  0
  -26.3940  -26.7600   18.9950 C   0  0  0  0  0  3  0  0  0  0  0  0
  -25.1890  -27.5060   19.0130 C   0  0  0  0  0  3  0  0  0  0  0  0
  -23.7970  -29.5210   19.7990 C   0  0  0  0  0  2  0  0  0  0  0  0
  -24.7510  -30.7550   21.7930 N   0  0  0  0  0  0  0  0  0  0  0  0
  -23.5190  -31.6770   23.4710 O   0  0  0  0  0  0  0  0  0  0  0  0
  -22.9250  -29.0120   22.1200 C   0  0  0  0  0  0  0  0  0  0  0  0
  -21.6120  -28.7550   21.9840 N   0  0  0  0  0  0  0  0  0  0  0  0
  -23.6420  -28.3890   22.9080 O   0  0  0  0  0  0  0  0  0  0  0  0
  -21.0890  -29.3100   21.3220 H   0  0  0  0  0  0  0  0  0  0  0  0
  -18.3210  -27.3170   22.4530 C   0  0  0  0  0  0  0  0  0  0  0  0
  -20.8630  -27.7200   22.7010 C   0  0  0  0  0  3  0  0  0  0  0  0
  -21.0440  -26.3390   22.0290 C   0  0  0  0  0  2  0  0  0  0  0  0
  -19.9460  -26.0180   21.0110 C   0  0  0  0  0  2  0  0  0  0  0  0
  -18.5680  -26.0330   21.6810 C   0  0  0  0  0  2  0  0  0  0  0  0
  -19.3990  -28.1170   22.9200 C   0  0  0  0  0  0  0  0  0  0  0  0
  -19.1120  -29.3170   23.6050 C   0  0  0  0  0  3  0  0  0  0  0  0
  -17.7830  -29.7220   23.8260 C   0  0  0  0  0  3  0  0  0  0  0  0
  -16.7190  -28.9190   23.3740 C   0  0  0  0  0  3  0  0  0  0  0  0
  -16.9910  -27.7200   22.6940 C   0  0  0  0  0  3  0  0  0  0  0  0
  -25.8490  -32.1990   23.6000 C   0  0  0  0  0  3  0  0  0  0  0  0
  -26.4260  -31.3920   24.8300 C   0  0  1  0  0  0  0  0  0  0  0  0
  -25.3530  -30.9960   25.8730 C   0  0  0  0  0  1  0  0  0  0  0  0
  -27.1220  -30.0960   24.3580 C   0  0  0  0  0  1  0  0  0  0  0  0
  -27.5060  -32.2340   25.5480 C   0  0  0  0  0  1  0  0  0  0  0  0
  -25.4310  -33.5440   24.0220 N   0  0  0  0  0  0  0  0  0  0  0  0
  -25.6820  -34.6710   23.3420 C   0  0  0  0  0  0  0  0  0  0  0  0
  -26.3540  -34.6900   22.3080 O   0  0  0  0  0  0  0  0  0  0  0  0
  -24.8300  -33.6000   24.8310 H   0  0  0  0  0  0  0  0  0  0  0  0
  -23.8280  -36.3570   23.1090 C   0  0  0  0  0  1  0  0  0  0  0  0
  -25.0950  -35.9860   23.8970 C   0  0  0  0  0  3  0  0  0  0  0  0
  -27.1520  -36.9710   24.8080 C   0  0  0  0  0  1  0  0  0  0  0  0
  -26.0480  -37.1170   23.8630 N   0  0  0  0  0  0  0  0  0  0  0  0
  -25.5750  -37.9950   24.0590 H   0  0  0  0  0  0  0  0  0  0  0  0
  1 49  1  0
  1  2  1  0
  3  1  1  0
  4  8  1  0
  4 10  2  0
  5  7  1  0
  5  6  1  0
  8 19  1  0
  8  6  1  0
  9  1  1  0
  9  4  1  0
  9  7  1  0
 11 17  1  0
 11 19  1  0
 12 17  1  0
 13 14  1  0
 13 12  1  0
 15 14  1  0
 15 24  1  0
 15 16  1  0
 17 16  1  0
 18 11  2  0
 19 20  1  0
 21 22  2  0
 22 41  1  0
 23 22  1  0
 23 26  1  0
 24 25  1  0
 24 21  1  0
 25 23  2  0
 26 27  1  0
 27 28  2  0
 29 32  1  0
 29 28  1  0
 30 29  2  0
 31 30  1  0
 31 26  2  0
 32 33  1  0
 33 38  2  0
 33 34  1  0
 34 35  2  0
 35 36  1  0
 36 40  1  0
 37 36  2  0
 38 37  1  0
 39 38  1  0
 41 42  1  0
 42 45  1  0
 42 44  1  0
 43 41  2  0
 46 21  1  0
 46 47  1  0
 48 46  1  0
 50 51  1  0
 50 49  1  0
 52 63  2  0
 53 51  1  0
 53 58  1  0
 54 62  1  0
 54 64  1  0
 55 61  1  0
 55 57  1  0
 56 62  1  0
 57 56  1  0
 58 57  2  0
 59 60  1  0
 59 53  2  0
 60 55  2  0
 61 54  1  0
 62 52  1  0
 64 66  2  0
 65 64  1  0
 67 65  1  0
 68 77  2  0
 68 73  1  0
 69 65  1  0
 69 73  1  0
 70 69  1  0
 71 72  1  0
 71 70  1  0
 72 68  1  0
 73 74  2  0
 74 75  1  0
 76 75  2  0
 77 76  1  0
 78 52  1  0
 78 83  1  0
 78 79  1  0
 79 82  1  1
 79 80  1  0
 81 79  1  0
 83 86  1  0
 84 88  1  0
 84 83  1  0
 85 84  2  0
 88 87  1  0
 90 88  1  0
 90 91  1  0
 90 89  1  0
M  ISO  4  11 100  19 100  50 101  51 101
M  END
>  <TORSDO>  (26) 
F 19

>  <SCORE>  (26) 
-12.121

>  <name>  (26) 
25

>  <ligand_id>  (26) 
25

>  <original_smiles>  (26) 
[H]c1c([H])c([H])c2c(c1[H])C([H])([H])C([H])([H])C([H])([H])C2([H])N([H])C(=O)C1([H])N(C(=O)C([H])(N([H])C(=O)C([H])(N([H])C([H])([H])[H])C([H])([H])[H])C(C([H])([H])[H])(C([H])([H])[H])C([H])([H])[H])C([H])([H])c2c([H])c(OC([H])([H])C([H])([H])[N+]([H])([H])C3([H])C(=O)C([H])(N([H])C(=O)N4C([H])([H])C([H])([H])C([H])([H])C([H])(n5nc(-c6c([H])c([H])c(Oc7c([H])c([H])c(F)c([H])c7F)c([H])c6[H])c(C(=O)N([H])[H])c5N([H])[H])C4([H])[H])C([H])([H])C([H])([H])C3([H])[H])c([H])c([H])c2C1([H])[H]

>  <smiles>  (26) 
[H]c1c([H])c([H])c2c(c1[H])C([H])([H])C([H])([H])C([H])([H])C2([H])N([H])C(=O)C1([H])N(C(=O)C([H])(N([H])C(=O)C([H])(N([H])C([H])([H])[H])C([H])([H])[H])C(C([H])([H])[H])(C([H])([H])[H])C([H])([H])[H])C([H])([H])c2c([H])c(OC([H])([H])C([H])([H])[N+]([H])([H])C3([H])C(=O)C([H])(N([H])C(=O)N4C([H])([H])C([H])([H])C([H])([H])C([H])(n5nc(-c6c([H])c([H])c(Oc7c([H])c([H])c(F)c([H])c7F)c([H])c6[H])c(C(=O)N([H])[H])c5N([H])[H])C4([H])[H])C([H])([H])C([H])([H])C3([H])[H])c([H])c([H])c2C1([H])[H]

$$$$
26:0:0
     RDKit          3D

 91 99  0  0  1  0  0  0  0  0999 V2000
  -30.8480  -15.0470   19.6280 C   0  0  0  0  0  0  0  0  0  0  0  0
  -30.9640  -12.5480   19.1000 C   0  0  0  0  0  2  0  0  0  0  0  0
  -29.9790  -12.1620   17.9640 C   0  0  0  0  0  2  0  0  0  0  0  0
  -28.5480  -11.9230   18.4930 C   0  0  0  0  0  2  0  0  0  0  0  0
  -28.1280  -12.9900   19.5360 C   0  0  0  0  0  3  0  0  0  0  0  0
  -29.2450  -13.1970   20.5890 C   0  0  0  0  0  2  0  0  0  0  0  0
  -30.4000  -13.7250   19.8390 N   0  0  0  0  0  0  0  0  0  0  0  0
  -32.0000  -15.1380   19.1800 O   0  0  0  0  0  0  0  0  0  0  0  0
  -29.3200  -19.0400   19.2070 C   0  0  0  0  0  0  0  0  0  0  0  0
  -30.1930  -17.6250   18.9250 C   0  0  0  0  0  2  0  0  0  0  0  0
  -27.9000  -17.4520   20.5120 C   0  0  0  0  0  2  0  0  0  0  0  0
  -28.8850  -16.2820   20.6340 C   0  0  0  0  0  2  0  0  0  0  0  0
  -28.5650  -18.8290   20.5310 C   0  0  0  0  0  3  0  0  0  0  0  0
  -29.2840  -20.1920   18.4620 N   0  0  0  0  0  0  0  0  0  0  0  0
  -29.9900  -16.2210   19.6590 N   0  0  0  0  0  0  0  0  0  0  0  0
  -25.8440  -13.5940   20.5290 C   0  0  0  0  0  0  0  0  0  0  0  0
  -24.7990  -12.8250   20.9630 C   0  0  0  0  0  0  0  0  0  0  0  0
  -25.2130  -11.4700   20.7920 C   0  0  0  0  0  0  0  0  0  0  0  0
  -26.8320  -12.7060   20.1380 N   0  0  0  0  0  0  0  0  0  0  0  0
  -26.4650  -11.4180   20.3510 N   0  0  0  0  0  0  0  0  0  0  0  0
  -24.4660  -10.2180   20.9650 C   0  0  0  0  0  0  0  0  0  0  0  0
  -24.9000   -9.2220   21.8650 C   0  0  0  0  0  3  0  0  0  0  0  0
  -24.1560   -8.0350   22.0300 C   0  0  0  0  0  3  0  0  0  0  0  0
  -22.9640   -7.8360   21.2940 C   0  0  0  0  0  0  0  0  0  0  0  0
  -22.5490   -8.8220   20.3800 C   0  0  0  0  0  3  0  0  0  0  0  0
  -23.2940  -10.0010   20.2140 C   0  0  0  0  0  3  0  0  0  0  0  0
  -22.1910   -6.7040   21.3690 O   0  0  0  0  0  0  0  0  0  0  0  0
  -21.9850   -6.0510   22.5580 C   0  0  0  0  0  0  0  0  0  0  0  0
  -21.3760   -6.6870   23.6620 C   0  0  0  0  0  3  0  0  0  0  0  0
  -21.1160   -5.9560   24.8380 C   0  0  0  0  0  3  0  0  0  0  0  0
  -21.4610   -4.5920   24.9120 C   0  0  0  0  0  0  0  0  0  0  0  0
  -22.0660   -3.9590   23.8130 C   0  0  0  0  0  3  0  0  0  0  0  0
  -22.3230   -4.6860   22.6370 C   0  0  0  0  0  0  0  0  0  0  0  0
  -22.8830   -4.0640   21.5710 F   0  0  0  0  0  0  0  0  0  0  0  0
  -21.2080   -3.8880   26.0390 F   0  0  0  0  0  0  0  0  0  0  0  0
  -23.4560  -13.3220   21.4110 C   0  0  0  0  0  0  0  0  0  0  0  0
  -22.8080  -12.5950   22.3130 N   0  0  0  0  0  0  0  0  0  0  0  0
  -22.9950  -14.3840   20.9970 O   0  0  0  0  0  0  0  0  0  0  0  0
  -23.2020  -11.7350   22.6660 H   0  0  0  0  0  0  0  0  0  0  0  0
  -21.9100  -12.9050   22.6580 H   0  0  0  0  0  0  0  0  0  0  0  0
  -26.0110  -14.9690   20.4070 N   0  0  0  0  0  0  0  0  0  0  0  0
  -25.2330  -15.5990   20.5720 H   0  0  0  0  0  0  0  0  0  0  0  0
  -26.7720  -15.4040   19.9050 H   0  0  0  0  0  0  0  0  0  0  0  0
  -27.5580  -19.8480   20.8630 N   0  0  0  0  0  4  0  0  0  0  0  0
  -26.7730  -19.7910   20.2380 H   0  0  0  0  0  0  0  0  0  0  0  0
  -27.9730  -20.7590   20.7960 H   0  0  0  0  0  0  0  0  0  0  0  0
  -27.2310  -19.7210   21.8040 H   0  0  0  0  0  0  0  0  0  0  0  0
  -28.4690  -21.5430   18.6710 C   0  0  0  0  0  3  0  0  0  0  0  0
  -28.5290  -22.9080   17.6730 C   0  0  0  0  0  3  0  0  0  0  0  0
  -27.5450  -24.2770   17.8700 C   0  0  0  0  0  2  0  0  0  0  0  0
  -27.7910  -25.7720   17.4790 O   0  0  0  0  0  0  0  0  0  0  0  0
  -25.6530  -30.2030   22.9990 C   0  0  0  0  0  0  0  0  0  0  0  0
  -26.9760  -26.8500   17.9930 C   0  0  0  0  0  0  0  0  0  0  0  0
  -24.1100  -29.9090   21.0990 C   0  0  0  0  0  3  0  0  0  0  0  0
  -25.1090  -28.8560   18.9780 C   0  0  0  0  0  0  0  0  0  0  0  0
  -26.6500  -29.7190   20.7340 C   0  0  0  0  0  2  0  0  0  0  0  0
  -26.3790  -28.7580   19.5620 C   0  0  0  0  0  0  0  0  0  0  0  0
  -27.3160  -27.7780   19.0600 C   0  0  0  0  0  3  0  0  0  0  0  0
  -25.7050  -27.0660   17.4160 C   0  0  0  0  0  3  0  0  0  0  0  0
  -24.7880  -28.0270   17.8940 C   0  0  0  0  0  3  0  0  0  0  0  0
  -24.1250  -29.8650   19.5480 C   0  0  0  0  0  2  0  0  0  0  0  0
  -25.4970  -29.9370   21.6660 N   0  0  0  0  0  0  0  0  0  0  0  0
  -24.6800  -30.4350   23.7320 O   0  0  0  0  0  0  0  0  0  0  0  0
  -23.2510  -28.7360   21.6400 C   0  0  0  0  0  0  0  0  0  0  0  0
  -21.9150  -28.8780   21.5870 N   0  0  0  0  0  0  0  0  0  0  0  0
  -23.7910  -27.7160   22.0760 O   0  0  0  0  0  0  0  0  0  0  0  0
  -21.5440  -29.7470   21.2300 H   0  0  0  0  0  0  0  0  0  0  0  0
  -18.3660  -28.2100   21.8940 C   0  0  0  0  0  0  0  0  0  0  0  0
  -20.9280  -27.8720   21.9980 C   0  0  0  0  0  3  0  0  0  0  0  0
  -20.7280  -26.8080   20.8960 C   0  0  0  0  0  2  0  0  0  0  0  0
  -19.5690  -27.1320   19.9470 C   0  0  0  0  0  2  0  0  0  0  0  0
  -18.2550  -27.2480   20.7240 C   0  0  0  0  0  2  0  0  0  0  0  0
  -19.6230  -28.5150   22.4820 C   0  0  0  0  0  0  0  0  0  0  0  0
  -19.6720  -29.4380   23.5480 C   0  0  0  0  0  3  0  0  0  0  0  0
  -18.4990  -30.0510   24.0260 C   0  0  0  0  0  3  0  0  0  0  0  0
  -17.2560  -29.7360   23.4500 C   0  0  0  0  0  3  0  0  0  0  0  0
  -17.1920  -28.8150   22.3900 C   0  0  0  0  0  3  0  0  0  0  0  0
  -27.0630  -30.2480   23.6620 C   0  0  0  0  0  3  0  0  0  0  0  0
  -27.4860  -28.8740   24.3160 C   0  0  1  0  0  0  0  0  0  0  0  0
  -26.4270  -28.2950   25.2830 C   0  0  0  0  0  1  0  0  0  0  0  0
  -27.7610  -27.8090   23.2320 C   0  0  0  0  0  1  0  0  0  0  0  0
  -28.8070  -29.0540   25.1010 C   0  0  0  0  0  1  0  0  0  0  0  0
  -27.0500  -31.3150   24.6750 N   0  0  0  0  0  0  0  0  0  0  0  0
  -27.6050  -32.5250   24.5200 C   0  0  0  0  0  0  0  0  0  0  0  0
  -28.2470  -32.8400   23.5140 O   0  0  0  0  0  0  0  0  0  0  0  0
  -26.4940  -31.1460   25.5010 H   0  0  0  0  0  0  0  0  0  0  0  0
  -26.3270  -34.5580   25.2740 C   0  0  0  0  0  1  0  0  0  0  0  0
  -27.4190  -33.5470   25.6590 C   0  0  0  0  0  3  0  0  0  0  0  0
  -29.6600  -33.4230   26.6540 C   0  0  0  0  0  1  0  0  0  0  0  0
  -28.6620  -34.2710   26.0100 N   0  0  0  0  0  0  0  0  0  0  0  0
  -28.4630  -35.0530   26.6270 H   0  0  0  0  0  0  0  0  0  0  0  0
  1 15  1  0
  1  7  1  0
  2  7  1  0
  3  4  1  0
  3  2  1  0
  5  4  1  0
  5 19  1  0
  5  6  1  0
  7  6  1  0
  8  1  2  0
  9 13  1  0
 10  9  1  0
 10 15  1  0
 11 13  1  0
 11 12  1  0
 13 44  1  0
 14 48  1  0
 14  9  2  0
 15 12  1  0
 16 17  2  0
 17 36  1  0
 18 17  1  0
 18 21  1  0
 19 20  1  0
 19 16  1  0
 20 18  2  0
 21 22  1  0
 22 23  2  0
 24 27  1  0
 24 23  1  0
 25 24  2  0
 26 25  1  0
 26 21  2  0
 27 28  1  0
 28 33  2  0
 28 29  1  0
 29 30  2  0
 30 31  1  0
 31 35  1  0
 32 31  2  0
 33 32  1  0
 34 33  1  0
 36 37  1  0
 37 40  1  0
 37 39  1  0
 38 36  2  0
 41 16  1  0
 41 42  1  0
 43 41  1  0
 44 47  1  0
 45 44  1  0
 46 44  1  0
 49 50  1  0
 49 48  2  0
 51 50  1  0
 51 53  1  0
 52 63  2  0
 53 58  1  0
 54 64  1  0
 54 62  1  0
 55 61  1  0
 55 57  1  0
 56 62  1  0
 57 56  1  0
 58 57  2  0
 59 60  1  0
 59 53  2  0
 60 55  2  0
 61 54  1  0
 62 52  1  0
 64 66  2  0
 65 64  1  0
 67 65  1  0
 68 77  2  0
 68 73  1  0
 69 65  1  0
 69 73  1  0
 70 69  1  0
 71 72  1  0
 71 70  1  0
 72 68  1  0
 73 74  2  0
 74 75  1  0
 76 75  2  0
 77 76  1  0
 78 52  1  0
 78 79  1  0
 78 83  1  0
 79 82  1  1
 79 80  1  0
 81 79  1  0
 83 86  1  0
 84 83  1  0
 84 88  1  0
 85 84  2  0
 88 87  1  0
 88 90  1  0
 90 91  1  0
 90 89  1  0
M  ISO  4   1 100  15 100  50 101  51 101
M  END
>  <TORSDO>  (27) 
F 19

>  <SCORE>  (27) 
-11.280

>  <name>  (27) 
26

>  <ligand_id>  (27) 
26

>  <original_smiles>  (27) 
[H]c1c([H])c([H])c2c(c1[H])C([H])([H])C([H])([H])C([H])([H])C2([H])N([H])C(=O)C1([H])N(C(=O)C([H])(N([H])C(=O)C([H])(N([H])C([H])([H])[H])C([H])([H])[H])C(C([H])([H])[H])(C([H])([H])[H])C([H])([H])[H])C([H])([H])c2c([H])c(OC([H])([H])C([H])([H])C([H])([H])N=C3C([H])([H])N(C(=O)N4C([H])([H])C([H])([H])C([H])([H])C([H])(n5nc(-c6c([H])c([H])c(Oc7c([H])c([H])c(F)c([H])c7F)c([H])c6[H])c(C(=O)N([H])[H])c5N([H])[H])C4([H])[H])C([H])([H])C([H])([H])C3([H])[N+]([H])([H])[H])c([H])c([H])c2C1([H])[H]

>  <smiles>  (27) 
[H]c1c([H])c([H])c2c(c1[H])C([H])([H])C([H])([H])C([H])([H])C2([H])N([H])C(=O)C1([H])N(C(=O)C([H])(N([H])C(=O)C([H])(N([H])C([H])([H])[H])C([H])([H])[H])C(C([H])([H])[H])(C([H])([H])[H])C([H])([H])[H])C([H])([H])c2c([H])c(OC([H])([H])C([H])([H])C([H])([H])N=C3C([H])([H])N(C(=O)N4C([H])([H])C([H])([H])C([H])([H])C([H])(n5nc(-c6c([H])c([H])c(Oc7c([H])c([H])c(F)c([H])c7F)c([H])c6[H])c(C(=O)N([H])[H])c5N([H])[H])C4([H])[H])C([H])([H])C([H])([H])C3([H])[N+]([H])([H])[H])c([H])c([H])c2C1([H])[H]

$$$$
27:0:0
     RDKit          3D

 93101  0  0  1  0  0  0  0  0999 V2000
  -30.4390  -23.4230   21.5230 C   0  0  0  0  0  2  0  0  0  0  0  0
  -30.0300  -21.9170   21.3750 C   0  0  0  0  0  2  0  0  0  0  0  0
  -28.7200  -23.0550   19.4970 C   0  0  0  0  0  2  0  0  0  0  0  0
  -29.3480  -24.5600   21.5270 C   0  0  0  0  0  3  0  0  0  0  0  0
  -28.3670  -24.6060   20.3110 C   0  0  0  0  0  3  0  0  0  0  0  0
  -29.1100  -21.6230   20.2450 N   0  0  1  0  0  4  0  0  0  0  0  0
  -28.2490  -21.4570   20.7470 H   0  0  0  0  0  0  0  0  0  0  0  0
  -28.3520  -26.2150   19.8960 O   0  0  0  0  0  0  0  0  0  0  0  0
  -24.6300  -31.9800   23.1480 C   0  0  0  0  0  0  0  0  0  0  0  0
  -27.2830  -27.2530   19.9800 C   0  0  0  0  0  0  0  0  0  0  0  0
  -23.4620  -30.6150   21.4660 C   0  0  0  0  0  3  0  0  0  0  0  0
  -24.9400  -29.0800   19.9990 C   0  0  0  0  0  0  0  0  0  0  0  0
  -26.0230  -30.8850   21.3200 C   0  0  0  0  0  2  0  0  0  0  0  0
  -26.1220  -29.4950   20.6240 C   0  0  0  0  0  0  0  0  0  0  0  0
  -27.2910  -28.6080   20.5820 C   0  0  0  0  0  3  0  0  0  0  0  0
  -26.0630  -26.9850   19.3230 C   0  0  0  0  0  3  0  0  0  0  0  0
  -24.9340  -27.8460   19.3290 C   0  0  0  0  0  3  0  0  0  0  0  0
  -23.7040  -29.9770   20.0700 C   0  0  0  0  0  2  0  0  0  0  0  0
  -24.7260  -31.1860   22.0320 N   0  0  0  0  0  0  0  0  0  0  0  0
  -23.5360  -32.2290   23.6800 O   0  0  0  0  0  0  0  0  0  0  0  0
  -22.7910  -29.5740   22.3990 C   0  0  0  0  0  0  0  0  0  0  0  0
  -21.4590  -29.4060   22.2910 N   0  0  0  0  0  0  0  0  0  0  0  0
  -23.4740  -28.9170   23.1880 O   0  0  0  0  0  0  0  0  0  0  0  0
  -20.9600  -29.9880   21.6330 H   0  0  0  0  0  0  0  0  0  0  0  0
  -18.0770  -28.2510   22.9180 C   0  0  0  0  0  0  0  0  0  0  0  0
  -20.6560  -28.4300   23.0340 C   0  0  0  0  0  3  0  0  0  0  0  0
  -20.6760  -27.0480   22.3380 C   0  0  0  0  0  2  0  0  0  0  0  0
  -19.5030  -26.8400   21.3750 C   0  0  0  0  0  2  0  0  0  0  0  0
  -18.1690  -26.9630   22.1180 C   0  0  0  0  0  2  0  0  0  0  0  0
  -19.2430  -28.9490   23.3340 C   0  0  0  0  0  0  0  0  0  0  0  0
  -19.0980  -30.1570   24.0480 C   0  0  0  0  0  3  0  0  0  0  0  0
  -17.8220  -30.6690   24.3470 C   0  0  0  0  0  3  0  0  0  0  0  0
  -16.6720  -29.9700   23.9420 C   0  0  0  0  0  3  0  0  0  0  0  0
  -16.8000  -28.7620   23.2340 C   0  0  0  0  0  3  0  0  0  0  0  0
  -25.8880  -32.6290   23.8020 C   0  0  0  0  0  3  0  0  0  0  0  0
  -26.3950  -31.8460   25.0760 C   0  0  1  0  0  0  0  0  0  0  0  0
  -25.2890  -31.5690   26.1200 C   0  0  0  0  0  1  0  0  0  0  0  0
  -27.0130  -30.4850   24.6780 C   0  0  0  0  0  1  0  0  0  0  0  0
  -27.5180  -32.6510   25.7720 C   0  0  0  0  0  1  0  0  0  0  0  0
  -25.5470  -34.0160   24.1630 N   0  0  0  0  0  0  0  0  0  0  0  0
  -25.8220  -35.0950   23.4170 C   0  0  0  0  0  0  0  0  0  0  0  0
  -26.4520  -35.0270   22.3580 O   0  0  0  0  0  0  0  0  0  0  0  0
  -24.9800  -34.1390   24.9900 H   0  0  0  0  0  0  0  0  0  0  0  0
  -24.0300  -36.8500   23.1850 C   0  0  0  0  0  1  0  0  0  0  0  0
  -25.3220  -36.4640   23.9220 C   0  0  0  0  0  3  0  0  0  0  0  0
  -27.4610  -37.4130   24.6720 C   0  0  0  0  0  1  0  0  0  0  0  0
  -26.3190  -37.5480   23.7720 N   0  0  0  0  0  0  0  0  0  0  0  0
  -25.8920  -38.4560   23.9350 H   0  0  0  0  0  0  0  0  0  0  0  0
  -28.7060  -24.8840   22.9050 C   0  0  0  0  0  2  0  0  0  0  0  0
  -27.8490  -23.8280   23.4820 N   0  0  0  0  0  4  0  0  0  0  0  0
  -28.3700  -22.9990   23.7000 H   0  0  0  0  0  0  0  0  0  0  0  0
  -27.0630  -23.5980   22.8990 H   0  0  0  0  0  0  0  0  0  0  0  0
  -27.4730  -24.1640   24.3520 H   0  0  0  0  0  0  0  0  0  0  0  0
  -29.2850  -20.0750   19.6070 C   0  0  0  0  0  2  0  0  0  0  0  0
  -29.9890  -18.5570   20.3010 C   0  0  0  0  0  2  0  0  0  0  0  0
  -30.6030  -15.6530   19.8900 C   0  0  0  0  0  0  0  0  0  0  0  0
  -30.5600  -13.2080   18.9970 C   0  0  0  0  0  2  0  0  0  0  0  0
  -29.5800  -12.9750   17.8200 C   0  0  0  0  0  2  0  0  0  0  0  0
  -28.1570  -12.6960   18.3360 C   0  0  0  0  0  2  0  0  0  0  0  0
  -27.7530  -13.6640   19.4760 C   0  0  0  0  0  3  0  0  0  0  0  0
  -28.8560  -13.8290   20.5410 C   0  0  0  0  0  2  0  0  0  0  0  0
  -30.0400  -14.3470   19.8360 N   0  0  0  0  0  0  0  0  0  0  0  0
  -31.8260  -15.6570   19.6850 O   0  0  0  0  0  0  0  0  0  0  0  0
  -29.8190  -16.9160   19.9710 N   0  0  0  0  0  0  0  0  0  0  0  0
  -28.8400  -16.6750   19.9530 H   0  0  0  0  0  0  0  0  0  0  0  0
  -25.4310  -14.2150   20.3700 C   0  0  0  0  0  0  0  0  0  0  0  0
  -24.3870  -13.4350   20.7790 C   0  0  0  0  0  0  0  0  0  0  0  0
  -24.8460  -12.0850   20.6960 C   0  0  0  0  0  0  0  0  0  0  0  0
  -26.4550  -13.3420   20.0530 N   0  0  0  0  0  0  0  0  0  0  0  0
  -26.1200  -12.0520   20.3180 N   0  0  0  0  0  0  0  0  0  0  0  0
  -24.1240  -10.8210   20.8970 C   0  0  0  0  0  0  0  0  0  0  0  0
  -24.5440   -9.8720   21.8540 C   0  0  0  0  0  3  0  0  0  0  0  0
  -23.8190   -8.6760   22.0440 C   0  0  0  0  0  3  0  0  0  0  0  0
  -22.6590   -8.4190   21.2740 C   0  0  0  0  0  0  0  0  0  0  0  0
  -22.2580   -9.3560   20.3050 C   0  0  0  0  0  3  0  0  0  0  0  0
  -22.9850  -10.5440   20.1140 C   0  0  0  0  0  3  0  0  0  0  0  0
  -21.9070   -7.2730   21.3700 O   0  0  0  0  0  0  0  0  0  0  0  0
  -21.7880   -6.5880   22.5530 C   0  0  0  0  0  0  0  0  0  0  0  0
  -21.1770   -7.1640   23.6880 C   0  0  0  0  0  3  0  0  0  0  0  0
  -21.0130   -6.4000   24.8610 C   0  0  0  0  0  3  0  0  0  0  0  0
  -21.4480   -5.0630   24.8990 C   0  0  0  0  0  0  0  0  0  0  0  0
  -22.0500   -4.4860   23.7670 C   0  0  0  0  0  3  0  0  0  0  0  0
  -22.2170   -5.2460   22.5960 C   0  0  0  0  0  0  0  0  0  0  0  0
  -22.7790   -4.6800   21.5010 F   0  0  0  0  0  0  0  0  0  0  0  0
  -21.2830   -4.3260   26.0230 F   0  0  0  0  0  0  0  0  0  0  0  0
  -23.0070  -13.9110   21.1250 C   0  0  0  0  0  0  0  0  0  0  0  0
  -22.3200  -13.2040   22.0140 N   0  0  0  0  0  0  0  0  0  0  0  0
  -22.5500  -14.9470   20.6430 O   0  0  0  0  0  0  0  0  0  0  0  0
  -22.7040  -12.3650   22.4240 H   0  0  0  0  0  0  0  0  0  0  0  0
  -21.3950  -13.5040   22.2890 H   0  0  0  0  0  0  0  0  0  0  0  0
  -25.5860  -15.5900   20.2100 N   0  0  0  0  0  0  0  0  0  0  0  0
  -24.8210  -16.2370   20.3680 H   0  0  0  0  0  0  0  0  0  0  0  0
  -26.3990  -16.0320   19.8040 H   0  0  0  0  0  0  0  0  0  0  0  0
  1  4  1  0
  2  1  1  0
  3  6  1  0
  3  5  1  0
  4 49  1  0
  5  8  1  0
  5  4  1  0
  6  7  1  1
  6  2  1  0
  8 10  1  0
  9 20  2  0
 10 15  1  0
 11 19  1  0
 11 21  1  0
 12 18  1  0
 12 14  1  0
 13 19  1  0
 14 13  1  0
 15 14  2  0
 16 17  1  0
 16 10  2  0
 17 12  2  0
 18 11  1  0
 19  9  1  0
 21 23  2  0
 22 21  1  0
 24 22  1  0
 25 34  2  0
 25 30  1  0
 26 22  1  0
 26 30  1  0
 27 26  1  0
 28 29  1  0
 28 27  1  0
 29 25  1  0
 30 31  2  0
 31 32  1  0
 33 32  2  0
 34 33  1  0
 35  9  1  0
 35 40  1  0
 35 36  1  0
 36 39  1  1
 36 37  1  0
 38 36  1  0
 40 43  1  0
 41 45  1  0
 41 40  1  0
 42 41  2  0
 45 44  1  0
 47 45  1  0
 47 48  1  0
 47 46  1  0
 49 50  1  0
 50 51  1  0
 50 53  1  0
 52 50  1  0
 54  6  1  0
 54 55  1  0
 56 64  1  0
 57 62  1  0
 58 59  1  0
 58 57  1  0
 60 59  1  0
 60 69  1  0
 60 61  1  0
 62 56  1  0
 62 61  1  0
 63 56  2  0
 64 55  1  0
 65 64  1  0
 66 67  2  0
 67 86  1  0
 68 67  1  0
 68 71  1  0
 69 70  1  0
 69 66  1  0
 70 68  2  0
 71 72  1  0
 72 73  2  0
 74 77  1  0
 74 73  1  0
 75 74  2  0
 76 75  1  0
 76 71  2  0
 77 78  1  0
 78 83  2  0
 78 79  1  0
 79 80  2  0
 80 81  1  0
 81 85  1  0
 82 81  2  0
 83 82  1  0
 84 83  1  0
 86 87  1  0
 87 90  1  0
 87 89  1  0
 88 86  2  0
 91 92  1  0
 91 66  1  0
 93 91  1  0
M  ISO  4   5 101   8 101  56 100  64 100
M  END
>  <TORSDO>  (28) 
F 20

>  <SCORE>  (28) 
-13.986

>  <name>  (28) 
27

>  <ligand_id>  (28) 
27

>  <original_smiles>  (28) 
[H]c1c([H])c([H])c2c(c1[H])C([H])([H])C([H])([H])C([H])([H])C2([H])N([H])C(=O)C1([H])N(C(=O)C([H])(N([H])C(=O)C([H])(N([H])C([H])([H])[H])C([H])([H])[H])C(C([H])([H])[H])(C([H])([H])[H])C([H])([H])[H])C([H])([H])c2c([H])c(OC3([H])C([H])(C([H])([H])[N+]([H])([H])[H])C([H])([H])C([H])([H])[N+]([H])(C([H])([H])C([H])([H])N([H])C(=O)N4C([H])([H])C([H])([H])C([H])([H])C([H])(n5nc(-c6c([H])c([H])c(Oc7c([H])c([H])c(F)c([H])c7F)c([H])c6[H])c(C(=O)N([H])[H])c5N([H])[H])C4([H])[H])C3([H])[H])c([H])c([H])c2C1([H])[H]

>  <smiles>  (28) 
[H]c1c([H])c([H])c2c(c1[H])C([H])([H])C([H])([H])C([H])([H])C2([H])N([H])C(=O)C1([H])N(C(=O)C([H])(N([H])C(=O)C([H])(N([H])C([H])([H])[H])C([H])([H])[H])C(C([H])([H])[H])(C([H])([H])[H])C([H])([H])[H])C([H])([H])c2c([H])c(OC3([H])C([H])(C([H])([H])[N+]([H])([H])[H])C([H])([H])C([H])([H])[N+]([H])(C([H])([H])C([H])([H])N([H])C(=O)N4C([H])([H])C([H])([H])C([H])([H])C([H])(n5nc(-c6c([H])c([H])c(Oc7c([H])c([H])c(F)c([H])c7F)c([H])c6[H])c(C(=O)N([H])[H])c5N([H])[H])C4([H])[H])C3([H])[H])c([H])c([H])c2C1([H])[H]

$$$$
28:0:0
     RDKit          3D

 91 99  0  0  1  0  0  0  0  0999 V2000
  -29.1860  -20.4660   21.8910 C   0  0  0  0  0  2  0  0  0  0  0  0
  -30.1850  -19.3620   21.7880 N   0  0  0  0  0  4  0  0  0  0  0  0
  -30.7660  -19.5770   20.9960 H   0  0  0  0  0  0  0  0  0  0  0  0
  -30.7800  -19.3540   22.6020 H   0  0  0  0  0  0  0  0  0  0  0  0
  -29.6480  -17.9880   21.5460 C   0  0  0  0  0  2  0  0  0  0  0  0
  -30.7980  -14.6380   20.1970 C   0  0  0  0  0  0  0  0  0  0  0  0
  -30.4840  -12.4430   19.1210 C   0  0  0  0  0  2  0  0  0  0  0  0
  -29.5230  -12.5590   17.9180 C   0  0  0  0  0  2  0  0  0  0  0  0
  -28.0410  -12.4980   18.3490 C   0  0  0  0  0  2  0  0  0  0  0  0
  -27.7210  -13.3320   19.6220 C   0  0  0  0  0  3  0  0  0  0  0  0
  -28.8010  -13.1630   20.7130 C   0  0  0  0  0  2  0  0  0  0  0  0
  -30.0990  -13.4700   20.1020 N   0  0  0  0  0  0  0  0  0  0  0  0
  -32.0020  -14.6950   19.9330 O   0  0  0  0  0  0  0  0  0  0  0  0
  -30.2100  -17.5170   18.5580 C   0  0  0  0  0  2  0  0  0  0  0  0
  -31.2930  -17.7210   19.5990 C   0  0  0  0  0  2  0  0  0  0  0  0
  -29.4460  -16.2700   19.0500 C   0  0  0  0  0  2  0  0  0  0  0  0
  -30.6920  -17.0460   20.8420 C   0  0  0  0  0  3  0  0  0  0  0  0
  -30.0740  -15.7980   20.3070 N   0  0  0  0  0  0  0  0  0  0  0  0
  -25.3400  -13.9380   20.3590 C   0  0  0  0  0  0  0  0  0  0  0  0
  -24.2800  -13.1680   20.7490 C   0  0  0  0  0  0  0  0  0  0  0  0
  -24.7480  -11.8180   20.7350 C   0  0  0  0  0  0  0  0  0  0  0  0
  -26.3840  -13.0570   20.1300 N   0  0  0  0  0  0  0  0  0  0  0  0
  -26.0340  -11.7790   20.4170 N   0  0  0  0  0  0  0  0  0  0  0  0
  -24.0330  -10.5560   20.9510 C   0  0  0  0  0  0  0  0  0  0  0  0
  -24.4690   -9.6190   21.9130 C   0  0  0  0  0  3  0  0  0  0  0  0
  -23.7560   -8.4180   22.1160 C   0  0  0  0  0  3  0  0  0  0  0  0
  -22.5940   -8.1460   21.3550 C   0  0  0  0  0  0  0  0  0  0  0  0
  -22.1770   -9.0720   20.3830 C   0  0  0  0  0  3  0  0  0  0  0  0
  -22.8920  -10.2650   20.1800 C   0  0  0  0  0  3  0  0  0  0  0  0
  -21.8540   -6.9940   21.4660 O   0  0  0  0  0  0  0  0  0  0  0  0
  -21.7860   -6.2910   22.6450 C   0  0  0  0  0  0  0  0  0  0  0  0
  -21.3100   -6.8810   23.8350 C   0  0  0  0  0  3  0  0  0  0  0  0
  -21.1920   -6.1050   25.0060 C   0  0  0  0  0  3  0  0  0  0  0  0
  -21.5360   -4.7390   24.9860 C   0  0  0  0  0  0  0  0  0  0  0  0
  -22.0040   -4.1500   23.7980 C   0  0  0  0  0  3  0  0  0  0  0  0
  -22.1260   -4.9240   22.6300 C   0  0  0  0  0  0  0  0  0  0  0  0
  -22.5590   -4.3450   21.4840 F   0  0  0  0  0  0  0  0  0  0  0  0
  -21.4120   -3.9920   26.1060 F   0  0  0  0  0  0  0  0  0  0  0  0
  -22.8830  -13.6450   21.0260 C   0  0  0  0  0  0  0  0  0  0  0  0
  -22.1670  -12.9530   21.9040 N   0  0  0  0  0  0  0  0  0  0  0  0
  -22.4370  -14.6640   20.5000 O   0  0  0  0  0  0  0  0  0  0  0  0
  -22.5450  -12.1280   22.3470 H   0  0  0  0  0  0  0  0  0  0  0  0
  -21.2280  -13.2480   22.1280 H   0  0  0  0  0  0  0  0  0  0  0  0
  -25.4990  -15.3070   20.1560 N   0  0  0  0  0  0  0  0  0  0  0  0
  -24.7310  -15.9610   20.2520 H   0  0  0  0  0  0  0  0  0  0  0  0
  -26.3520  -15.7350   19.8230 H   0  0  0  0  0  0  0  0  0  0  0  0
  -29.7880  -21.8680   21.5550 C   0  0  0  0  0  2  0  0  0  0  0  0
  -28.7470  -23.0250   21.5010 C   0  0  0  0  0  2  0  0  0  0  0  0
  -29.2330  -24.3640   20.8590 C   0  0  0  0  0  2  0  0  0  0  0  0
  -28.1750  -25.4930   20.9680 C   0  0  0  0  0  2  0  0  0  0  0  0
  -28.4580  -26.7230   20.2540 O   0  0  0  0  0  0  0  0  0  0  0  0
  -24.6240  -31.9240   23.2360 C   0  0  0  0  0  0  0  0  0  0  0  0
  -27.3400  -27.5270   20.1550 C   0  0  0  0  0  0  0  0  0  0  0  0
  -23.4530  -30.5270   21.5640 C   0  0  0  0  0  3  0  0  0  0  0  0
  -24.9410  -29.0280   20.1330 C   0  0  0  0  0  0  0  0  0  0  0  0
  -25.9760  -30.9170   21.3960 C   0  0  0  0  0  2  0  0  0  0  0  0
  -26.0880  -29.5520   20.7450 C   0  0  0  0  0  0  0  0  0  0  0  0
  -27.2930  -28.8090   20.7540 C   0  0  0  0  0  3  0  0  0  0  0  0
  -26.1880  -27.0410   19.4970 C   0  0  0  0  0  3  0  0  0  0  0  0
  -24.9890  -27.7750   19.4990 C   0  0  0  0  0  3  0  0  0  0  0  0
  -23.6850  -29.8680   20.1780 C   0  0  0  0  0  2  0  0  0  0  0  0
  -24.7030  -31.1380   22.1260 N   0  0  0  0  0  0  0  0  0  0  0  0
  -23.5320  -32.1780   23.7660 O   0  0  0  0  0  0  0  0  0  0  0  0
  -22.8010  -29.4890   22.5050 C   0  0  0  0  0  0  0  0  0  0  0  0
  -21.4830  -29.2830   22.3520 N   0  0  0  0  0  0  0  0  0  0  0  0
  -23.4790  -28.8710   23.3310 O   0  0  0  0  0  0  0  0  0  0  0  0
  -20.9970  -29.8350   21.6600 H   0  0  0  0  0  0  0  0  0  0  0  0
  -18.1240  -28.0120   22.7570 C   0  0  0  0  0  0  0  0  0  0  0  0
  -20.6670  -28.3250   23.0980 C   0  0  0  0  0  3  0  0  0  0  0  0
  -20.8160  -26.8980   22.5220 C   0  0  0  0  0  2  0  0  0  0  0  0
  -19.7490  -26.5540   21.4780 C   0  0  0  0  0  2  0  0  0  0  0  0
  -18.3460  -26.6690   22.0820 C   0  0  0  0  0  2  0  0  0  0  0  0
  -19.2130  -28.7970   23.2180 C   0  0  0  0  0  0  0  0  0  0  0  0
  -18.9510  -30.0550   23.8020 C   0  0  0  0  0  3  0  0  0  0  0  0
  -17.6310  -30.5280   23.9320 C   0  0  0  0  0  3  0  0  0  0  0  0
  -16.5550  -29.7390   23.4890 C   0  0  0  0  0  3  0  0  0  0  0  0
  -16.8020  -28.4840   22.9070 C   0  0  0  0  0  3  0  0  0  0  0  0
  -25.8940  -32.5640   23.8790 C   0  0  0  0  0  3  0  0  0  0  0  0
  -26.3900  -31.7990   25.1660 C   0  0  1  0  0  0  0  0  0  0  0  0
  -25.2780  -31.5470   26.2120 C   0  0  0  0  0  1  0  0  0  0  0  0
  -26.9930  -30.4270   24.7850 C   0  0  0  0  0  1  0  0  0  0  0  0
  -27.5200  -32.6010   25.8540 C   0  0  0  0  0  1  0  0  0  0  0  0
  -25.5750  -33.9630   24.1960 N   0  0  0  0  0  0  0  0  0  0  0  0
  -25.9210  -35.0120   23.4390 C   0  0  0  0  0  0  0  0  0  0  0  0
  -26.6150  -34.9040   22.4250 O   0  0  0  0  0  0  0  0  0  0  0  0
  -24.9650  -34.1210   24.9860 H   0  0  0  0  0  0  0  0  0  0  0  0
  -24.2020  -36.7990   23.0210 C   0  0  0  0  0  1  0  0  0  0  0  0
  -25.4180  -36.4020   23.8740 C   0  0  0  0  0  3  0  0  0  0  0  0
  -27.5230  -37.2910   24.7700 C   0  0  0  0  0  1  0  0  0  0  0  0
  -26.4520  -37.4550   23.7910 N   0  0  0  0  0  0  0  0  0  0  0  0
  -26.0410  -38.3750   23.9200 H   0  0  0  0  0  0  0  0  0  0  0  0
  2  1  1  0
  2  4  1  0
  3  2  1  0
  5  2  1  0
  6 18  1  0
  7 12  1  0
  8  9  1  0
  8  7  1  0
 10  9  1  0
 10 22  1  0
 10 11  1  0
 12  6  1  0
 12 11  1  0
 13  6  2  0
 14 16  1  0
 14 15  1  0
 15 17  1  0
 16 18  1  0
 17  5  1  0
 18 17  1  0
 19 20  2  0
 20 39  1  0
 21 20  1  0
 21 24  1  0
 22 19  1  0
 22 23  1  0
 23 21  2  0
 24 25  1  0
 25 26  2  0
 27 30  1  0
 27 26  1  0
 28 27  2  0
 29 28  1  0
 29 24  2  0
 30 31  1  0
 31 32  1  0
 32 33  2  0
 34 33  1  0
 34 38  1  0
 35 34  2  0
 36 31  2  0
 36 35  1  0
 37 36  1  0
 39 40  1  0
 40 43  1  0
 40 42  1  0
 41 39  2  0
 44 45  1  0
 44 19  1  0
 46 44  1  0
 47  1  1  0
 48 47  1  0
 49 50  1  0
 49 48  1  0
 51 50  1  0
 52 63  2  0
 53 51  1  0
 53 58  1  0
 54 62  1  0
 54 64  1  0
 55 61  1  0
 55 57  1  0
 56 62  1  0
 57 58  2  0
 57 56  1  0
 59 60  1  0
 59 53  2  0
 60 55  2  0
 61 54  1  0
 62 52  1  0
 64 66  2  0
 65 64  1  0
 67 65  1  0
 68 77  2  0
 68 73  1  0
 69 65  1  0
 69 73  1  0
 70 69  1  0
 71 72  1  0
 71 70  1  0
 72 68  1  0
 73 74  2  0
 74 75  1  0
 76 75  2  0
 77 76  1  0
 78 52  1  0
 78 83  1  0
 78 79  1  0
 79 82  1  1
 79 80  1  0
 81 79  1  0
 83 86  1  0
 84 88  1  0
 84 83  1  0
 85 84  2  0
 88 87  1  0
 90 88  1  0
 90 91  1  0
 90 89  1  0
M  ISO  4   6 100  18 100  50 101  51 101
M  END
>  <TORSDO>  (29) 
F 22

>  <SCORE>  (29) 
-12.345

>  <name>  (29) 
28

>  <ligand_id>  (29) 
28

>  <original_smiles>  (29) 
[H]c1c([H])c([H])c2c(c1[H])C([H])([H])C([H])([H])C([H])([H])C2([H])N([H])C(=O)C1([H])N(C(=O)C([H])(N([H])C(=O)C([H])(N([H])C([H])([H])[H])C([H])([H])[H])C(C([H])([H])[H])(C([H])([H])[H])C([H])([H])[H])C([H])([H])c2c([H])c(OC([H])([H])C([H])([H])C([H])([H])C([H])([H])C([H])([H])[N+]([H])([H])C([H])([H])C3([H])N(C(=O)N4C([H])([H])C([H])([H])C([H])([H])C([H])(n5nc(-c6c([H])c([H])c(Oc7c([H])c([H])c(F)c([H])c7F)c([H])c6[H])c(C(=O)N([H])[H])c5N([H])[H])C4([H])[H])C([H])([H])C([H])([H])C3([H])[H])c([H])c([H])c2C1([H])[H]

>  <smiles>  (29) 
[H]c1c([H])c([H])c2c(c1[H])C([H])([H])C([H])([H])C([H])([H])C2([H])N([H])C(=O)C1([H])N(C(=O)C([H])(N([H])C(=O)C([H])(N([H])C([H])([H])[H])C([H])([H])[H])C(C([H])([H])[H])(C([H])([H])[H])C([H])([H])[H])C([H])([H])c2c([H])c(OC([H])([H])C([H])([H])C([H])([H])C([H])([H])C([H])([H])[N+]([H])([H])C([H])([H])C3([H])N(C(=O)N4C([H])([H])C([H])([H])C([H])([H])C([H])(n5nc(-c6c([H])c([H])c(Oc7c([H])c([H])c(F)c([H])c7F)c([H])c6[H])c(C(=O)N([H])[H])c5N([H])[H])C4([H])[H])C([H])([H])C([H])([H])C3([H])[H])c([H])c([H])c2C1([H])[H]

$$$$
29:0:0
     RDKit          3D

 94103  0  0  1  0  0  0  0  0999 V2000
  -29.3660  -20.3420   20.4650 N   0  0  1  0  0  4  0  0  0  0  0  0
  -28.9460  -20.2340   21.3760 H   0  0  0  0  0  0  0  0  0  0  0  0
  -30.5890  -14.9880   20.1190 C   0  0  0  0  0  0  0  0  0  0  0  0
  -30.4280  -12.6170   19.2450 C   0  0  0  0  0  2  0  0  0  0  0  0
  -29.4960  -12.5750   18.0130 C   0  0  0  0  0  2  0  0  0  0  0  0
  -28.0250  -12.4130   18.4520 C   0  0  0  0  0  2  0  0  0  0  0  0
  -27.6440  -13.3510   19.6300 C   0  0  0  0  0  3  0  0  0  0  0  0
  -28.7070  -13.3630   20.7440 C   0  0  0  0  0  2  0  0  0  0  0  0
  -29.9680  -13.7420   20.1030 N   0  0  0  0  0  0  0  0  0  0  0  0
  -31.8100  -15.0010   19.9260 O   0  0  0  0  0  0  0  0  0  0  0  0
  -29.9130  -18.3930   18.6490 C   0  0  0  0  0  2  0  0  0  0  0  0
  -29.8030  -16.8170   18.5910 C   0  0  0  0  0  2  0  0  0  0  0  0
  -29.7330  -17.4880   20.7880 C   0  0  0  0  0  2  0  0  0  0  0  0
  -29.2380  -18.8230   19.9500 C   0  0  0  0  0  3  0  0  0  0  0  0
  -29.8300  -16.1930   19.9430 N   0  0  0  0  0  0  0  0  0  0  0  0
  -25.2860  -13.9830   20.3860 C   0  0  0  0  0  0  0  0  0  0  0  0
  -24.2080  -13.2330   20.7690 C   0  0  0  0  0  0  0  0  0  0  0  0
  -24.6460  -11.8730   20.7470 C   0  0  0  0  0  0  0  0  0  0  0  0
  -26.3080  -13.0810   20.1450 N   0  0  0  0  0  0  0  0  0  0  0  0
  -25.9330  -11.8060   20.4260 N   0  0  0  0  0  0  0  0  0  0  0  0
  -23.8960  -10.6270   20.9510 C   0  0  0  0  0  0  0  0  0  0  0  0
  -24.3030   -9.6660   21.9010 C   0  0  0  0  0  3  0  0  0  0  0  0
  -23.5540   -8.4850   22.0940 C   0  0  0  0  0  3  0  0  0  0  0  0
  -22.3800   -8.2580   21.3370 C   0  0  0  0  0  0  0  0  0  0  0  0
  -21.9910   -9.2070   20.3770 C   0  0  0  0  0  3  0  0  0  0  0  0
  -22.7400  -10.3800   20.1830 C   0  0  0  0  0  3  0  0  0  0  0  0
  -21.6020   -7.1300   21.4390 O   0  0  0  0  0  0  0  0  0  0  0  0
  -21.5260   -6.4110   22.6040 C   0  0  0  0  0  0  0  0  0  0  0  0
  -21.0920   -6.9940   23.8150 C   0  0  0  0  0  3  0  0  0  0  0  0
  -20.9640   -6.1990   24.9730 C   0  0  0  0  0  3  0  0  0  0  0  0
  -21.2580   -4.8250   24.9190 C   0  0  0  0  0  0  0  0  0  0  0  0
  -21.6850   -4.2410   23.7130 C   0  0  0  0  0  3  0  0  0  0  0  0
  -21.8160   -5.0320   22.5590 C   0  0  0  0  0  0  0  0  0  0  0  0
  -22.2070   -4.4610   21.3950 F   0  0  0  0  0  0  0  0  0  0  0  0
  -21.1280   -4.0600   26.0280 F   0  0  0  0  0  0  0  0  0  0  0  0
  -22.8250  -13.7420   21.0420 C   0  0  0  0  0  0  0  0  0  0  0  0
  -22.0910  -13.0880   21.9360 N   0  0  0  0  0  0  0  0  0  0  0  0
  -22.4010  -14.7610   20.4970 O   0  0  0  0  0  0  0  0  0  0  0  0
  -22.4440  -12.2660   22.4030 H   0  0  0  0  0  0  0  0  0  0  0  0
  -21.1610  -13.4150   22.1540 H   0  0  0  0  0  0  0  0  0  0  0  0
  -25.4760  -15.3490   20.1960 N   0  0  0  0  0  0  0  0  0  0  0  0
  -24.7220  -16.0170   20.3150 H   0  0  0  0  0  0  0  0  0  0  0  0
  -26.3350  -15.7690   19.8610 H   0  0  0  0  0  0  0  0  0  0  0  0
  -30.7400  -20.6970   20.8950 C   0  0  0  0  0  2  0  0  0  0  0  0
  -31.4590  -21.1940   25.2640 C   0  0  0  0  0  2  0  0  0  0  0  0
  -30.0150  -21.0110   24.7780 C   0  0  0  0  0  2  0  0  0  0  0  0
  -32.2860  -22.0150   24.2640 C   0  0  0  0  0  2  0  0  0  0  0  0
  -29.9770  -20.4030   23.3690 C   0  0  0  0  0  2  0  0  0  0  0  0
  -32.2170  -21.4280   22.8420 C   0  0  0  0  0  2  0  0  0  0  0  0
  -30.7650  -21.2580   22.3440 C   0  0  0  0  0  3  0  0  0  0  0  0
  -28.5110  -21.5840   19.9240 C   0  0  0  0  0  2  0  0  0  0  0  0
  -28.7650  -23.2270   20.3330 C   0  0  0  0  0  3  0  0  0  0  0  0
  -27.8030  -24.5710   19.9100 C   0  0  0  0  0  3  0  0  0  0  0  0
  -28.0790  -26.1110   20.0810 O   0  0  0  0  0  0  0  0  0  0  0  0
  -24.5520  -31.8530   23.1250 C   0  0  0  0  0  0  0  0  0  0  0  0
  -27.0380  -27.1200   20.0190 C   0  0  0  0  0  0  0  0  0  0  0  0
  -23.3110  -30.4550   21.5210 C   0  0  0  0  0  3  0  0  0  0  0  0
  -24.7200  -28.8860   20.0490 C   0  0  0  0  0  0  0  0  0  0  0  0
  -25.8620  -30.7170   21.2880 C   0  0  0  0  0  2  0  0  0  0  0  0
  -25.9180  -29.3260   20.6290 C   0  0  0  0  0  0  0  0  0  0  0  0
  -27.0770  -28.4580   20.5940 C   0  0  0  0  0  3  0  0  0  0  0  0
  -25.8150  -26.7940   19.3920 C   0  0  0  0  0  3  0  0  0  0  0  0
  -24.6850  -27.6380   19.4110 C   0  0  0  0  0  3  0  0  0  0  0  0
  -23.4940  -29.7820   20.1350 C   0  0  0  0  0  2  0  0  0  0  0  0
  -24.5970  -31.0320   22.0300 N   0  0  0  0  0  0  0  0  0  0  0  0
  -23.4790  -32.1360   23.6800 O   0  0  0  0  0  0  0  0  0  0  0  0
  -22.6600  -29.4450   22.5010 C   0  0  0  0  0  0  0  0  0  0  0  0
  -21.3340  -29.2460   22.3880 N   0  0  0  0  0  0  0  0  0  0  0  0
  -23.3510  -28.8420   23.3250 O   0  0  0  0  0  0  0  0  0  0  0  0
  -20.8330  -29.7890   21.6990 H   0  0  0  0  0  0  0  0  0  0  0  0
  -17.9900  -27.9430   22.8960 C   0  0  0  0  0  0  0  0  0  0  0  0
  -20.5350  -28.3020   23.1770 C   0  0  0  0  0  3  0  0  0  0  0  0
  -20.6900  -26.8590   22.6430 C   0  0  0  0  0  2  0  0  0  0  0  0
  -19.6090  -26.4710   21.6280 C   0  0  0  0  0  2  0  0  0  0  0  0
  -18.2180  -26.5850   22.2550 C   0  0  0  0  0  2  0  0  0  0  0  0
  -19.0770  -28.7570   23.3120 C   0  0  0  0  0  0  0  0  0  0  0  0
  -18.8060  -30.0250   23.8680 C   0  0  0  0  0  3  0  0  0  0  0  0
  -17.4840  -30.4820   24.0130 C   0  0  0  0  0  3  0  0  0  0  0  0
  -16.4100  -29.6680   23.6130 C   0  0  0  0  0  3  0  0  0  0  0  0
  -16.6650  -28.4000   23.0600 C   0  0  0  0  0  3  0  0  0  0  0  0
  -25.8440  -32.4910   23.7200 C   0  0  0  0  0  3  0  0  0  0  0  0
  -25.5340  -33.8860   24.0750 N   0  0  0  0  0  0  0  0  0  0  0  0
  -25.8540  -34.9540   23.3340 C   0  0  0  0  0  0  0  0  0  0  0  0
  -26.5090  -34.8720   22.2910 O   0  0  0  0  0  0  0  0  0  0  0  0
  -24.9530  -34.0260   24.8870 H   0  0  0  0  0  0  0  0  0  0  0  0
  -24.1240  -36.7580   23.0400 C   0  0  0  0  0  1  0  0  0  0  0  0
  -25.3730  -36.3340   23.8270 C   0  0  0  0  0  3  0  0  0  0  0  0
  -27.5150  -37.2040   24.6520 C   0  0  0  0  0  1  0  0  0  0  0  0
  -26.4030  -37.3890   23.7240 N   0  0  0  0  0  0  0  0  0  0  0  0
  -25.9990  -38.3060   23.8910 H   0  0  0  0  0  0  0  0  0  0  0  0
  -26.4000  -31.7140   24.9780 C   0  0  1  0  0  0  0  0  0  0  0  0
  -25.3390  -31.4660   26.0760 C   0  0  0  0  0  1  0  0  0  0  0  0
  -26.9750  -30.3390   24.5680 C   0  0  0  0  0  1  0  0  0  0  0  0
  -27.5660  -32.5100   25.6110 C   0  0  0  0  0  1  0  0  0  0  0  0
  1 44  1  0
  1  2  1  1
  4  9  1  0
  5  6  1  0
  5  4  1  0
  7  6  1  0
  7 19  1  0
  7  8  1  0
  9  3  1  0
  9  8  1  0
 10  3  2  0
 11 14  1  0
 12 11  1  0
 12 15  1  0
 14  1  1  0
 14 13  1  0
 15  3  1  0
 15 13  1  0
 16 17  2  0
 17 36  1  0
 18 17  1  0
 18 21  1  0
 19 16  1  0
 19 20  1  0
 20 18  2  0
 21 22  1  0
 22 23  2  0
 24 27  1  0
 24 23  1  0
 25 24  2  0
 26 25  1  0
 26 21  2  0
 27 28  1  0
 28 29  1  0
 29 30  2  0
 31 30  1  0
 31 35  1  0
 32 31  2  0
 33 28  2  0
 33 32  1  0
 34 33  1  0
 36 37  1  0
 37 40  1  0
 37 39  1  0
 38 36  2  0
 41 42  1  0
 41 16  1  0
 43 41  1  0
 44 50  1  0
 46 45  1  0
 47 45  1  0
 48 46  1  0
 49 47  1  0
 50 49  1  0
 50 48  1  0
 51 52  1  0
 51  1  1  0
 53 54  1  0
 53 52  2  0
 55 66  2  0
 56 54  1  0
 56 61  1  0
 57 65  1  0
 57 67  1  0
 58 64  1  0
 58 60  1  0
 59 65  1  0
 60 59  1  0
 61 60  2  0
 62 63  1  0
 62 56  2  0
 63 58  2  0
 64 57  1  0
 65 55  1  0
 67 69  2  0
 68 67  1  0
 70 68  1  0
 71 80  2  0
 71 76  1  0
 72 68  1  0
 72 76  1  0
 73 72  1  0
 74 75  1  0
 74 73  1  0
 75 71  1  0
 76 77  2  0
 77 78  1  0
 79 78  2  0
 80 79  1  0
 81 55  1  0
 81 82  1  0
 81 91  1  0
 82 85  1  0
 83 87  1  0
 83 82  1  0
 84 83  2  0
 87 86  1  0
 89 87  1  0
 89 90  1  0
 89 88  1  0
 91 94  1  1
 91 92  1  0
 93 91  1  0
M  ISO  4   3 100  15 100  53 101  54 101
M  END
>  <TORSDO>  (30) 
F 21

>  <SCORE>  (30) 
-12.262

>  <name>  (30) 
29

>  <ligand_id>  (30) 
29

>  <original_smiles>  (30) 
[H]c1c([H])c([H])c2c(c1[H])C([H])([H])C([H])([H])C([H])([H])C2([H])N([H])C(=O)C1([H])N(C(=O)C([H])(N([H])C(=O)C([H])(N([H])C([H])([H])[H])C([H])([H])[H])C(C([H])([H])[H])(C([H])([H])[H])C([H])([H])[H])C([H])([H])c2c([H])c(OC([H])([H])C([H])([H])C([H])([H])[N+]([H])(C([H])([H])C3([H])C([H])([H])C([H])([H])C([H])([H])C([H])([H])C3([H])[H])C3([H])C([H])([H])N(C(=O)N4C([H])([H])C([H])([H])C([H])([H])C([H])(n5nc(-c6c([H])c([H])c(Oc7c([H])c([H])c(F)c([H])c7F)c([H])c6[H])c(C(=O)N([H])[H])c5N([H])[H])C4([H])[H])C([H])([H])C3([H])[H])c([H])c([H])c2C1([H])[H]

>  <smiles>  (30) 
[H]c1c([H])c([H])c2c(c1[H])C([H])([H])C([H])([H])C([H])([H])C2([H])N([H])C(=O)C1([H])N(C(=O)C([H])(N([H])C(=O)C([H])(N([H])C([H])([H])[H])C([H])([H])[H])C(C([H])([H])[H])(C([H])([H])[H])C([H])([H])[H])C([H])([H])c2c([H])c(OC([H])([H])C([H])([H])C([H])([H])[N+]([H])(C([H])([H])C3([H])C([H])([H])C([H])([H])C([H])([H])C([H])([H])C3([H])[H])C3([H])C([H])([H])N(C(=O)N4C([H])([H])C([H])([H])C([H])([H])C([H])(n5nc(-c6c([H])c([H])c(Oc7c([H])c([H])c(F)c([H])c7F)c([H])c6[H])c(C(=O)N([H])[H])c5N([H])[H])C4([H])[H])C([H])([H])C3([H])[H])c([H])c([H])c2C1([H])[H]

$$$$
30:0:0
     RDKit          3D

 96106  0  0  1  0  0  0  0  0999 V2000
  -30.9720  -25.8200   21.4660 C   0  0  0  0  0  2  0  0  0  0  0  0
  -30.6980  -23.4780   22.3660 C   0  0  0  0  0  2  0  0  0  0  0  0
  -29.6700  -26.1190   22.2390 C   0  0  0  0  0  2  0  0  0  0  0  0
  -29.1930  -23.6930   22.7250 C   0  0  0  0  0  2  0  0  0  0  0  0
  -30.4850  -23.8900   19.8140 C   0  0  0  0  0  2  0  0  0  0  0  0
  -31.1640  -24.3210   21.1460 C   0  0  0  0  0  3  0  0  0  0  0  0
  -28.6080  -25.0000   22.0950 C   0  0  0  0  0  3  0  0  0  0  0  0
  -28.0620  -24.8730   20.6080 C   0  0  0  0  0  3  0  0  0  0  0  0
  -29.0910  -23.5120   20.1000 N   0  0  1  0  0  4  0  0  0  0  0  0
  -29.3420  -23.2110   21.0330 H   0  0  0  0  0  0  0  0  0  0  0  0
  -28.2140  -26.2600   19.9910 O   0  0  0  0  0  0  0  0  0  0  0  0
  -24.5340  -31.8400   23.1870 C   0  0  0  0  0  0  0  0  0  0  0  0
  -27.1270  -27.2070   20.0590 C   0  0  0  0  0  0  0  0  0  0  0  0
  -23.3220  -30.4570   21.5450 C   0  0  0  0  0  3  0  0  0  0  0  0
  -24.7660  -28.9050   20.0900 C   0  0  0  0  0  0  0  0  0  0  0  0
  -25.8710  -30.7510   21.3440 C   0  0  0  0  0  2  0  0  0  0  0  0
  -25.9530  -29.3670   20.6780 C   0  0  0  0  0  0  0  0  0  0  0  0
  -27.1340  -28.5390   20.6350 C   0  0  0  0  0  3  0  0  0  0  0  0
  -25.9110  -26.8340   19.4490 C   0  0  0  0  0  3  0  0  0  0  0  0
  -24.7580  -27.6490   19.4630 C   0  0  0  0  0  3  0  0  0  0  0  0
  -23.5300  -29.7900   20.1600 C   0  0  0  0  0  2  0  0  0  0  0  0
  -24.5980  -31.0380   22.0810 N   0  0  0  0  0  0  0  0  0  0  0  0
  -23.4540  -32.1080   23.7350 O   0  0  0  0  0  0  0  0  0  0  0  0
  -22.6650  -29.4340   22.5050 C   0  0  0  0  0  0  0  0  0  0  0  0
  -21.3370  -29.2490   22.3910 N   0  0  0  0  0  0  0  0  0  0  0  0
  -23.3520  -28.8040   23.3140 O   0  0  0  0  0  0  0  0  0  0  0  0
  -20.8390  -29.8100   21.7150 H   0  0  0  0  0  0  0  0  0  0  0  0
  -17.9750  -28.0110   22.9130 C   0  0  0  0  0  0  0  0  0  0  0  0
  -20.5330  -28.2970   23.1610 C   0  0  0  0  0  3  0  0  0  0  0  0
  -20.6430  -26.8720   22.5690 C   0  0  0  0  0  2  0  0  0  0  0  0
  -19.5360  -26.5480   21.5620 C   0  0  0  0  0  2  0  0  0  0  0  0
  -18.1580  -26.6710   22.2200 C   0  0  0  0  0  2  0  0  0  0  0  0
  -19.0870  -28.7800   23.3400 C   0  0  0  0  0  0  0  0  0  0  0  0
  -18.8590  -30.0330   23.9500 C   0  0  0  0  0  3  0  0  0  0  0  0
  -17.5490  -30.5170   24.1330 C   0  0  0  0  0  3  0  0  0  0  0  0
  -16.4500  -29.7440   23.7210 C   0  0  0  0  0  3  0  0  0  0  0  0
  -16.6640  -28.4910   23.1170 C   0  0  0  0  0  3  0  0  0  0  0  0
  -25.8160  -32.4770   23.8090 C   0  0  0  0  0  3  0  0  0  0  0  0
  -25.4980  -33.8700   24.1570 N   0  0  0  0  0  0  0  0  0  0  0  0
  -25.8150  -34.9370   23.4090 C   0  0  0  0  0  0  0  0  0  0  0  0
  -26.4710  -34.8500   22.3670 O   0  0  0  0  0  0  0  0  0  0  0  0
  -24.9100  -34.0100   24.9640 H   0  0  0  0  0  0  0  0  0  0  0  0
  -24.0730  -36.7290   23.1050 C   0  0  0  0  0  1  0  0  0  0  0  0
  -25.3300  -36.3180   23.8910 C   0  0  0  0  0  3  0  0  0  0  0  0
  -27.4750  -37.2060   24.6940 C   0  0  0  0  0  1  0  0  0  0  0  0
  -26.3550  -37.3800   23.7720 N   0  0  0  0  0  0  0  0  0  0  0  0
  -25.9490  -38.2960   23.9360 H   0  0  0  0  0  0  0  0  0  0  0  0
  -26.3420  -31.6980   25.0770 C   0  0  1  0  0  0  0  0  0  0  0  0
  -25.2560  -31.4480   26.1510 C   0  0  0  0  0  1  0  0  0  0  0  0
  -26.9240  -30.3240   24.6740 C   0  0  0  0  0  1  0  0  0  0  0  0
  -27.4940  -32.4910   25.7350 C   0  0  0  0  0  1  0  0  0  0  0  0
  -28.6110  -22.0380   19.7310 C   0  0  0  0  0  2  0  0  0  0  0  0
  -31.2740  -19.3150   18.2660 C   0  0  0  0  0  2  0  0  0  0  0  0
  -30.2270  -20.4500   18.3170 C   0  0  0  0  0  2  0  0  0  0  0  0
  -30.6640  -17.9160   18.5060 C   0  0  0  0  0  2  0  0  0  0  0  0
  -29.1120  -19.0900   20.1390 C   0  0  0  0  0  2  0  0  0  0  0  0
  -29.6010  -20.6490   19.7250 C   0  0  0  0  0  3  0  0  0  0  0  0
  -30.1220  -17.7580   19.9380 C   0  0  0  0  0  3  0  0  0  0  0  0
  -30.4880  -15.0310   20.0930 C   0  0  0  0  0  0  0  0  0  0  0  0
  -30.3270  -12.6640   19.2190 C   0  0  0  0  0  2  0  0  0  0  0  0
  -29.3730  -12.6070   18.0050 C   0  0  0  0  0  2  0  0  0  0  0  0
  -27.9180  -12.3990   18.4660 C   0  0  0  0  0  2  0  0  0  0  0  0
  -27.5330  -13.3410   19.6380 C   0  0  0  0  0  3  0  0  0  0  0  0
  -28.6140  -13.3870   20.7380 C   0  0  0  0  0  2  0  0  0  0  0  0
  -29.8730  -13.7780   20.0950 N   0  0  0  0  0  0  0  0  0  0  0  0
  -31.6840  -15.0610   19.7910 O   0  0  0  0  0  0  0  0  0  0  0  0
  -29.7400  -16.2400   20.2020 N   0  0  0  0  0  0  0  0  0  0  0  0
  -28.7760  -16.0950   20.4620 H   0  0  0  0  0  0  0  0  0  0  0  0
  -25.1890  -13.9210   20.4760 C   0  0  0  0  0  0  0  0  0  0  0  0
  -24.1300  -13.1510   20.8670 C   0  0  0  0  0  0  0  0  0  0  0  0
  -24.5760  -11.7970   20.7870 C   0  0  0  0  0  0  0  0  0  0  0  0
  -26.2110  -13.0390   20.1750 N   0  0  0  0  0  0  0  0  0  0  0  0
  -25.8540  -11.7520   20.4300 N   0  0  0  0  0  0  0  0  0  0  0  0
  -23.8370  -10.5390   20.9790 C   0  0  0  0  0  0  0  0  0  0  0  0
  -24.2600   -9.5710   21.9150 C   0  0  0  0  0  3  0  0  0  0  0  0
  -23.5290   -8.3760   22.0930 C   0  0  0  0  0  3  0  0  0  0  0  0
  -22.3590   -8.1430   21.3320 C   0  0  0  0  0  0  0  0  0  0  0  0
  -21.9540   -9.1000   20.3860 C   0  0  0  0  0  3  0  0  0  0  0  0
  -22.6840  -10.2850   20.2080 C   0  0  0  0  0  3  0  0  0  0  0  0
  -21.5910   -7.0050   21.4270 O   0  0  0  0  0  0  0  0  0  0  0  0
  -21.5050   -6.2870   22.5920 C   0  0  0  0  0  0  0  0  0  0  0  0
  -21.0290   -6.8630   23.7890 C   0  0  0  0  0  3  0  0  0  0  0  0
  -20.8890   -6.0680   24.9460 C   0  0  0  0  0  3  0  0  0  0  0  0
  -21.2160   -4.6990   24.9040 C   0  0  0  0  0  0  0  0  0  0  0  0
  -21.6840   -4.1220   23.7100 C   0  0  0  0  0  3  0  0  0  0  0  0
  -21.8260   -4.9140   22.5580 C   0  0  0  0  0  0  0  0  0  0  0  0
  -22.2540   -4.3460   21.4050 F   0  0  0  0  0  0  0  0  0  0  0  0
  -21.0750   -3.9350   26.0120 F   0  0  0  0  0  0  0  0  0  0  0  0
  -22.7480  -13.6360   21.1930 C   0  0  0  0  0  0  0  0  0  0  0  0
  -22.0300  -12.9290   22.0600 N   0  0  0  0  0  0  0  0  0  0  0  0
  -22.3110  -14.6800   20.7130 O   0  0  0  0  0  0  0  0  0  0  0  0
  -22.3910  -12.0880   22.4810 H   0  0  0  0  0  0  0  0  0  0  0  0
  -21.1000  -13.2350   22.3050 H   0  0  0  0  0  0  0  0  0  0  0  0
  -25.3650  -15.2910   20.3120 N   0  0  0  0  0  0  0  0  0  0  0  0
  -24.6190  -15.9620   20.4570 H   0  0  0  0  0  0  0  0  0  0  0  0
  -26.1970  -15.7080   19.9140 H   0  0  0  0  0  0  0  0  0  0  0  0
  1  3  1  0
  2  4  1  0
  5  9  1  0
  6  5  1  0
  6  1  1  0
  6  2  1  0
  7  3  1  0
  7  4  1  0
  8 11  1  0
  8  7  1  0
  9  8  1  0
  9 10  1  1
 11 13  1  0
 12 23  2  0
 13 18  1  0
 14 22  1  0
 14 24  1  0
 15 21  1  0
 15 17  1  0
 16 22  1  0
 17 16  1  0
 18 17  2  0
 19 20  1  0
 19 13  2  0
 20 15  2  0
 21 14  1  0
 22 12  1  0
 24 26  2  0
 25 24  1  0
 27 25  1  0
 28 37  2  0
 28 33  1  0
 29 25  1  0
 29 33  1  0
 30 29  1  0
 31 32  1  0
 31 30  1  0
 32 28  1  0
 33 34  2  0
 34 35  1  0
 36 35  2  0
 37 36  1  0
 38 12  1  0
 38 39  1  0
 38 48  1  0
 39 42  1  0
 40 44  1  0
 40 39  1  0
 41 40  2  0
 44 43  1  0
 46 44  1  0
 46 47  1  0
 46 45  1  0
 48 51  1  1
 48 49  1  0
 50 48  1  0
 52  9  1  0
 53 54  1  0
 53 55  1  0
 54 57  1  0
 55 58  1  0
 57 52  1  0
 57 56  1  0
 58 56  1  0
 58 67  1  0
 59 65  1  0
 59 67  1  0
 60 65  1  0
 61 62  1  0
 61 60  1  0
 63 62  1  0
 63 72  1  0
 63 64  1  0
 65 64  1  0
 66 59  2  0
 67 68  1  0
 69 70  2  0
 70 89  1  0
 71 70  1  0
 71 74  1  0
 72 73  1  0
 72 69  1  0
 73 71  2  0
 74 75  1  0
 75 76  2  0
 77 80  1  0
 77 76  1  0
 78 77  2  0
 79 78  1  0
 79 74  2  0
 80 81  1  0
 81 82  1  0
 82 83  2  0
 84 83  1  0
 84 88  1  0
 85 84  2  0
 86 81  2  0
 86 85  1  0
 87 86  1  0
 89 90  1  0
 90 93  1  0
 90 92  1  0
 91 89  2  0
 94 95  1  0
 94 69  1  0
 96 94  1  0
M  ISO  4   8 101  11 101  59 100  67 100
M  END
>  <TORSDO>  (31) 
F 18

>  <SCORE>  (31) 
-14.930

>  <name>  (31) 
30

>  <ligand_id>  (31) 
30

>  <original_smiles>  (31) 
[H]c1c([H])c([H])c2c(c1[H])C([H])([H])C([H])([H])C([H])([H])C2([H])N([H])C(=O)C1([H])N(C(=O)C([H])(N([H])C(=O)C([H])(N([H])C([H])([H])[H])C([H])([H])[H])C(C([H])([H])[H])(C([H])([H])[H])C([H])([H])[H])C([H])([H])c2c([H])c(OC3([H])C4([H])C([H])([H])C([H])([H])C([H])(C([H])([H])C4([H])[H])C([H])([H])[N+]3([H])C([H])([H])C3([H])C([H])([H])C([H])([H])C([H])([H])C([H])(N([H])C(=O)N4C([H])([H])C([H])([H])C([H])([H])C([H])(n5nc(-c6c([H])c([H])c(Oc7c([H])c([H])c(F)c([H])c7F)c([H])c6[H])c(C(=O)N([H])[H])c5N([H])[H])C4([H])[H])C3([H])[H])c([H])c([H])c2C1([H])[H]

>  <smiles>  (31) 
[H]c1c([H])c([H])c2c(c1[H])C([H])([H])C([H])([H])C([H])([H])C2([H])N([H])C(=O)C1([H])N(C(=O)C([H])(N([H])C(=O)C([H])(N([H])C([H])([H])[H])C([H])([H])[H])C(C([H])([H])[H])(C([H])([H])[H])C([H])([H])[H])C([H])([H])c2c([H])c(OC3([H])C4([H])C([H])([H])C([H])([H])C([H])(C([H])([H])C4([H])[H])C([H])([H])[N+]3([H])C([H])([H])C3([H])C([H])([H])C([H])([H])C([H])([H])C([H])(N([H])C(=O)N4C([H])([H])C([H])([H])C([H])([H])C([H])(n5nc(-c6c([H])c([H])c(Oc7c([H])c([H])c(F)c([H])c7F)c([H])c6[H])c(C(=O)N([H])[H])c5N([H])[H])C4([H])[H])C3([H])[H])c([H])c([H])c2C1([H])[H]

$$$$
31:0:0
     RDKit          3D

 87 94  0  0  1  0  0  0  0  0999 V2000
  -29.1140  -21.1920   20.0000 C   0  0  0  0  0  2  0  0  0  0  0  0
  -29.0870  -19.5370   20.6790 C   0  0  0  0  0  2  0  0  0  0  0  0
  -30.4580  -15.2480   20.2630 C   0  0  0  0  0  0  0  0  0  0  0  0
  -30.4110  -12.8190   19.3790 C   0  0  0  0  0  2  0  0  0  0  0  0
  -29.4880  -12.6430   18.1470 C   0  0  0  0  0  2  0  0  0  0  0  0
  -28.0370  -12.3800   18.5850 C   0  0  0  0  0  2  0  0  0  0  0  0
  -27.5940  -13.3320   19.7250 C   0  0  0  0  0  3  0  0  0  0  0  0
  -28.6450  -13.4560   20.8510 C   0  0  0  0  0  2  0  0  0  0  0  0
  -29.8840  -13.9480   20.2300 N   0  0  0  0  0  0  0  0  0  0  0  0
  -31.6620  -15.2730   19.9480 O   0  0  0  0  0  0  0  0  0  0  0  0
  -29.9440  -18.1030   20.2280 C   0  0  0  0  0  0  0  0  0  0  0  0
  -29.6670  -16.6560   20.4710 N   0  0  0  0  0  0  0  0  0  0  0  0
  -31.0880  -18.3960   19.5780 N   0  0  0  0  0  4  0  0  0  0  0  0
  -28.7270  -16.5780   20.8230 H   0  0  0  0  0  0  0  0  0  0  0  0
  -31.3540  -19.3560   19.4040 H   0  0  0  0  0  0  0  0  0  0  0  0
  -31.7350  -17.6780   19.2770 H   0  0  0  0  0  0  0  0  0  0  0  0
  -25.2180  -13.8810   20.4730 C   0  0  0  0  0  0  0  0  0  0  0  0
  -24.1630  -13.0990   20.8480 C   0  0  0  0  0  0  0  0  0  0  0  0
  -24.6380  -11.7510   20.8220 C   0  0  0  0  0  0  0  0  0  0  0  0
  -26.2670  -13.0110   20.2330 N   0  0  0  0  0  0  0  0  0  0  0  0
  -25.9300  -11.7250   20.5110 N   0  0  0  0  0  0  0  0  0  0  0  0
  -23.9200  -10.4850   21.0160 C   0  0  0  0  0  0  0  0  0  0  0  0
  -24.3550   -9.5230   21.9540 C   0  0  0  0  0  3  0  0  0  0  0  0
  -23.6330   -8.3240   22.1370 C   0  0  0  0  0  3  0  0  0  0  0  0
  -22.4610   -8.0790   21.3830 C   0  0  0  0  0  0  0  0  0  0  0  0
  -22.0440   -9.0290   20.4340 C   0  0  0  0  0  3  0  0  0  0  0  0
  -22.7670  -10.2200   20.2490 C   0  0  0  0  0  3  0  0  0  0  0  0
  -21.7100   -6.9310   21.4750 O   0  0  0  0  0  0  0  0  0  0  0  0
  -21.6650   -6.1920   22.6300 C   0  0  0  0  0  0  0  0  0  0  0  0
  -21.2360   -6.7480   23.8540 C   0  0  0  0  0  3  0  0  0  0  0  0
  -21.1390   -5.9350   25.0010 C   0  0  0  0  0  3  0  0  0  0  0  0
  -21.4600   -4.5670   24.9240 C   0  0  0  0  0  0  0  0  0  0  0  0
  -21.8820   -4.0100   23.7040 C   0  0  0  0  0  3  0  0  0  0  0  0
  -21.9810   -4.8200   22.5600 C   0  0  0  0  0  0  0  0  0  0  0  0
  -22.3680   -4.2730   21.3820 F   0  0  0  0  0  0  0  0  0  0  0  0
  -21.3590   -3.7840   26.0250 F   0  0  0  0  0  0  0  0  0  0  0  0
  -22.7620  -13.5690   21.1130 C   0  0  0  0  0  0  0  0  0  0  0  0
  -22.0350  -12.8730   21.9790 N   0  0  0  0  0  0  0  0  0  0  0  0
  -22.3230  -14.5900   20.5860 O   0  0  0  0  0  0  0  0  0  0  0  0
  -22.4050  -12.0460   22.4270 H   0  0  0  0  0  0  0  0  0  0  0  0
  -21.0960  -13.1710   22.1990 H   0  0  0  0  0  0  0  0  0  0  0  0
  -25.3670  -15.2520   20.2840 N   0  0  0  0  0  0  0  0  0  0  0  0
  -24.5750  -15.8810   20.3620 H   0  0  0  0  0  0  0  0  0  0  0  0
  -26.1640  -15.6800   19.8330 H   0  0  0  0  0  0  0  0  0  0  0  0
  -28.6420  -22.7980   20.6400 C   0  0  0  0  0  2  0  0  0  0  0  0
  -28.1950  -24.3590   19.8890 C   0  0  0  0  0  2  0  0  0  0  0  0
  -28.2130  -25.9330   20.3440 O   0  0  0  0  0  0  0  0  0  0  0  0
  -24.6250  -31.8590   23.2150 C   0  0  0  0  0  0  0  0  0  0  0  0
  -27.1880  -26.9980   20.2190 C   0  0  0  0  0  0  0  0  0  0  0  0
  -23.4310  -30.4560   21.5820 C   0  0  0  0  0  3  0  0  0  0  0  0
  -24.8800  -28.8520   20.1610 C   0  0  0  0  0  0  0  0  0  0  0  0
  -25.9940  -30.6760   21.4330 C   0  0  0  0  0  2  0  0  0  0  0  0
  -26.0620  -29.2680   20.7830 C   0  0  0  0  0  0  0  0  0  0  0  0
  -27.2080  -28.3590   20.7910 C   0  0  0  0  0  3  0  0  0  0  0  0
  -25.9780  -26.7290   19.5390 C   0  0  0  0  0  3  0  0  0  0  0  0
  -24.8590  -27.6030   19.5200 C   0  0  0  0  0  3  0  0  0  0  0  0
  -23.6590  -29.7680   20.2070 C   0  0  0  0  0  2  0  0  0  0  0  0
  -24.7040  -31.0260   22.1290 N   0  0  0  0  0  0  0  0  0  0  0  0
  -23.5370  -32.1520   23.7360 O   0  0  0  0  0  0  0  0  0  0  0  0
  -22.7390  -29.4630   22.5520 C   0  0  0  0  0  0  0  0  0  0  0  0
  -21.4090  -29.3030   22.4310 N   0  0  0  0  0  0  0  0  0  0  0  0
  -23.4060  -28.8370   23.3810 O   0  0  0  0  0  0  0  0  0  0  0  0
  -20.9250  -29.8580   21.7390 H   0  0  0  0  0  0  0  0  0  0  0  0
  -18.0220  -28.1090   22.9500 C   0  0  0  0  0  0  0  0  0  0  0  0
  -20.5830  -28.3690   23.2060 C   0  0  0  0  0  3  0  0  0  0  0  0
  -20.6790  -26.9350   22.6350 C   0  0  0  0  0  2  0  0  0  0  0  0
  -19.5740  -26.6130   21.6240 C   0  0  0  0  0  2  0  0  0  0  0  0
  -18.1940  -26.7590   22.2730 C   0  0  0  0  0  2  0  0  0  0  0  0
  -19.1440  -28.8720   23.3730 C   0  0  0  0  0  0  0  0  0  0  0  0
  -18.9260  -30.1320   23.9700 C   0  0  0  0  0  3  0  0  0  0  0  0
  -17.6220  -30.6320   24.1440 C   0  0  0  0  0  3  0  0  0  0  0  0
  -16.5160  -29.8680   23.7350 C   0  0  0  0  0  3  0  0  0  0  0  0
  -16.7160  -28.6080   23.1440 C   0  0  0  0  0  3  0  0  0  0  0  0
  -25.8980  -32.5020   23.8460 C   0  0  0  0  0  3  0  0  0  0  0  0
  -26.4020  -31.7430   25.1360 C   0  0  1  0  0  0  0  0  0  0  0  0
  -25.3000  -31.5230   26.1990 C   0  0  0  0  0  1  0  0  0  0  0  0
  -26.9820  -30.3590   24.7710 C   0  0  0  0  0  1  0  0  0  0  0  0
  -27.5500  -32.5420   25.7970 C   0  0  0  0  0  1  0  0  0  0  0  0
  -25.5810  -33.9030   24.1730 N   0  0  0  0  0  0  0  0  0  0  0  0
  -25.9140  -34.9610   23.4220 C   0  0  0  0  0  0  0  0  0  0  0  0
  -26.5840  -34.8610   22.3900 O   0  0  0  0  0  0  0  0  0  0  0  0
  -24.9850  -34.0550   24.9740 H   0  0  0  0  0  0  0  0  0  0  0  0
  -24.1880  -36.7630   23.0840 C   0  0  0  0  0  1  0  0  0  0  0  0
  -25.4320  -36.3510   23.8860 C   0  0  0  0  0  3  0  0  0  0  0  0
  -27.5720  -37.2340   24.7100 C   0  0  0  0  0  1  0  0  0  0  0  0
  -26.4660  -37.4040   23.7710 N   0  0  0  0  0  0  0  0  0  0  0  0
  -26.0620  -38.3250   23.9210 H   0  0  0  0  0  0  0  0  0  0  0  0
  1 45  1  0
  1  2  1  0
  3 12  1  0
  4  9  1  0
  5  6  1  0
  5  4  1  0
  7  6  1  0
  7 20  1  0
  7  8  1  0
  9  3  1  0
  9  8  1  0
 10  3  2  0
 11 12  1  0
 11  2  1  0
 12 14  1  0
 13 11  2  0
 15 13  1  0
 16 13  1  0
 17 18  2  0
 18 37  1  0
 19 18  1  0
 19 22  1  0
 20 17  1  0
 20 21  1  0
 21 19  2  0
 22 23  1  0
 23 24  2  0
 25 28  1  0
 25 24  1  0
 26 25  2  0
 27 26  1  0
 27 22  2  0
 28 29  1  0
 29 30  1  0
 30 31  2  0
 32 31  1  0
 32 36  1  0
 33 32  2  0
 34 29  2  0
 34 33  1  0
 35 34  1  0
 37 38  1  0
 38 41  1  0
 38 40  1  0
 39 37  2  0
 42 43  1  0
 42 17  1  0
 44 42  1  0
 46 47  1  0
 46 45  1  0
 48 59  2  0
 49 47  1  0
 49 54  1  0
 50 58  1  0
 50 60  1  0
 51 57  1  0
 51 53  1  0
 52 58  1  0
 53 54  2  0
 53 52  1  0
 55 49  2  0
 56 55  1  0
 56 51  2  0
 57 50  1  0
 58 48  1  0
 60 62  2  0
 61 60  1  0
 63 61  1  0
 64 73  2  0
 64 69  1  0
 65 61  1  0
 65 69  1  0
 66 65  1  0
 67 68  1  0
 67 66  1  0
 68 64  1  0
 69 70  2  0
 70 71  1  0
 72 71  2  0
 73 72  1  0
 74 48  1  0
 74 79  1  0
 74 75  1  0
 75 78  1  1
 75 76  1  0
 77 75  1  0
 79 82  1  0
 80 84  1  0
 80 79  1  0
 81 80  2  0
 84 83  1  0
 86 84  1  0
 86 87  1  0
 86 85  1  0
M  ISO  4   3 100  12 100  46 101  47 101
M  END
>  <TORSDO>  (32) 
F 19

>  <SCORE>  (32) 
-15.847

>  <name>  (32) 
31

>  <ligand_id>  (32) 
31

>  <original_smiles>  (32) 
[H]c1c([H])c([H])c2c(c1[H])C([H])([H])C([H])([H])C([H])([H])C2([H])N([H])C(=O)C1([H])N(C(=O)C([H])(N([H])C(=O)C([H])(N([H])C([H])([H])[H])C([H])([H])[H])C(C([H])([H])[H])(C([H])([H])[H])C([H])([H])[H])C([H])([H])c2c([H])c(OC([H])([H])C([H])([H])C([H])([H])C([H])([H])C(N([H])C(=O)N3C([H])([H])C([H])([H])C([H])([H])C([H])(n4nc(-c5c([H])c([H])c(Oc6c([H])c([H])c(F)c([H])c6F)c([H])c5[H])c(C(=O)N([H])[H])c4N([H])[H])C3([H])[H])=[N+]([H])[H])c([H])c([H])c2C1([H])[H]

>  <smiles>  (32) 
[H]c1c([H])c([H])c2c(c1[H])C([H])([H])C([H])([H])C([H])([H])C2([H])N([H])C(=O)C1([H])N(C(=O)C([H])(N([H])C(=O)C([H])(N([H])C([H])([H])[H])C([H])([H])[H])C(C([H])([H])[H])(C([H])([H])[H])C([H])([H])[H])C([H])([H])c2c([H])c(OC([H])([H])C([H])([H])C([H])([H])C([H])([H])C(N([H])C(=O)N3C([H])([H])C([H])([H])C([H])([H])C([H])(n4nc(-c5c([H])c([H])c(Oc6c([H])c([H])c(F)c([H])c6F)c([H])c5[H])c(C(=O)N([H])[H])c4N([H])[H])C3([H])[H])=[N+]([H])[H])c([H])c([H])c2C1([H])[H]

$$$$
32:0:0
     RDKit          3D

 90 98  0  0  1  0  0  0  0  0999 V2000
  -30.2870  -19.6230   22.1270 C   0  0  0  0  0  2  0  0  0  0  0  0
  -30.1300  -18.0890   21.8420 C   0  0  0  0  0  2  0  0  0  0  0  0
  -29.7890  -18.5710   19.3870 C   0  0  0  0  0  2  0  0  0  0  0  0
  -29.1800  -20.5790   21.5620 C   0  0  0  0  0  2  0  0  0  0  0  0
  -30.2150  -20.1330   19.3540 C   0  0  0  0  0  2  0  0  0  0  0  0
  -30.4770  -17.5640   20.4200 C   0  0  0  0  0  3  0  0  0  0  0  0
  -29.4250  -21.1360   20.1940 N   0  0  2  0  0  4  0  0  0  0  0  0
  -28.5120  -21.1610   19.7660 H   0  0  0  0  0  0  0  0  0  0  0  0
  -30.8870  -14.9360   19.9930 C   0  0  0  0  0  0  0  0  0  0  0  0
  -30.6160  -12.6780   18.9320 C   0  0  0  0  0  2  0  0  0  0  0  0
  -29.6000  -12.7610   17.7710 C   0  0  0  0  0  2  0  0  0  0  0  0
  -28.1610  -12.5830   18.2920 C   0  0  0  0  0  2  0  0  0  0  0  0
  -27.8640  -13.4600   19.5370 C   0  0  0  0  0  3  0  0  0  0  0  0
  -28.9900  -13.3490   20.5900 C   0  0  0  0  0  2  0  0  0  0  0  0
  -30.2470  -13.7160   19.9240 N   0  0  0  0  0  0  0  0  0  0  0  0
  -32.0540  -15.0380   19.6060 O   0  0  0  0  0  0  0  0  0  0  0  0
  -30.1330  -16.0620   20.3100 N   0  0  0  0  0  0  0  0  0  0  0  0
  -29.1810  -15.8350   20.5540 H   0  0  0  0  0  0  0  0  0  0  0  0
  -25.5340  -14.0550   20.4330 C   0  0  0  0  0  0  0  0  0  0  0  0
  -24.4820  -13.2830   20.8420 C   0  0  0  0  0  0  0  0  0  0  0  0
  -24.9250  -11.9270   20.7410 C   0  0  0  0  0  0  0  0  0  0  0  0
  -26.5500  -13.1730   20.1050 N   0  0  0  0  0  0  0  0  0  0  0  0
  -26.1940  -11.8850   20.3550 N   0  0  0  0  0  0  0  0  0  0  0  0
  -24.1950  -10.6680   20.9350 C   0  0  0  0  0  0  0  0  0  0  0  0
  -24.6260   -9.6980   21.8670 C   0  0  0  0  0  3  0  0  0  0  0  0
  -23.8960   -8.5050   22.0480 C   0  0  0  0  0  3  0  0  0  0  0  0
  -22.7180   -8.2720   21.2990 C   0  0  0  0  0  0  0  0  0  0  0  0
  -22.3040   -9.2300   20.3560 C   0  0  0  0  0  3  0  0  0  0  0  0
  -23.0360  -10.4150   20.1720 C   0  0  0  0  0  3  0  0  0  0  0  0
  -21.9590   -7.1310   21.3900 O   0  0  0  0  0  0  0  0  0  0  0  0
  -21.8580   -6.4250   22.5620 C   0  0  0  0  0  0  0  0  0  0  0  0
  -21.3260   -7.0030   23.7370 C   0  0  0  0  0  3  0  0  0  0  0  0
  -21.1790   -6.2210   24.9000 C   0  0  0  0  0  3  0  0  0  0  0  0
  -21.5500   -4.8620   24.8890 C   0  0  0  0  0  0  0  0  0  0  0  0
  -22.0720   -4.2850   23.7200 C   0  0  0  0  0  3  0  0  0  0  0  0
  -22.2230   -5.0640   22.5580 C   0  0  0  0  0  0  0  0  0  0  0  0
  -22.7070   -4.4960   21.4270 F   0  0  0  0  0  0  0  0  0  0  0  0
  -21.4000   -4.1100   26.0040 F   0  0  0  0  0  0  0  0  0  0  0  0
  -23.1100  -13.7660   21.2130 C   0  0  0  0  0  0  0  0  0  0  0  0
  -22.4340  -13.0620   22.1130 N   0  0  0  0  0  0  0  0  0  0  0  0
  -22.6480  -14.8040   20.7380 O   0  0  0  0  0  0  0  0  0  0  0  0
  -22.8190  -12.2190   22.5140 H   0  0  0  0  0  0  0  0  0  0  0  0
  -21.5180  -13.3680   22.4080 H   0  0  0  0  0  0  0  0  0  0  0  0
  -25.7030  -15.4300   20.2870 N   0  0  0  0  0  0  0  0  0  0  0  0
  -24.9430  -16.0820   20.4520 H   0  0  0  0  0  0  0  0  0  0  0  0
  -26.5250  -15.8730   19.8970 H   0  0  0  0  0  0  0  0  0  0  0  0
  -29.8710  -22.6270   20.1890 C   0  0  0  0  0  2  0  0  0  0  0  0
  -28.8000  -23.8250   19.8950 C   0  0  0  0  0  2  0  0  0  0  0  0
  -28.8480  -25.2480   20.6860 C   0  0  0  0  0  2  0  0  0  0  0  0
  -28.8060  -26.6140   20.0690 O   0  0  0  0  0  0  0  0  0  0  0  0
  -24.7220  -31.7390   23.2420 C   0  0  0  0  0  0  0  0  0  0  0  0
  -27.6390  -27.4030   20.1190 C   0  0  0  0  0  0  0  0  0  0  0  0
  -23.6380  -30.3610   21.5030 C   0  0  0  0  0  3  0  0  0  0  0  0
  -25.2060  -28.9250   20.0780 C   0  0  0  0  0  0  0  0  0  0  0  0
  -26.1660  -30.7970   21.4190 C   0  0  0  0  0  2  0  0  0  0  0  0
  -26.3330  -29.4440   20.7270 C   0  0  0  0  0  0  0  0  0  0  0  0
  -27.5560  -28.6990   20.7310 C   0  0  0  0  0  3  0  0  0  0  0  0
  -26.4800  -26.9280   19.4740 C   0  0  0  0  0  3  0  0  0  0  0  0
  -25.2810  -27.6720   19.4480 C   0  0  0  0  0  3  0  0  0  0  0  0
  -23.9290  -29.7460   20.1080 C   0  0  0  0  0  2  0  0  0  0  0  0
  -24.8590  -30.9800   22.1150 N   0  0  0  0  0  0  0  0  0  0  0  0
  -23.6080  -31.9440   23.7470 O   0  0  0  0  0  0  0  0  0  0  0  0
  -22.9860  -29.2820   22.3990 C   0  0  0  0  0  0  0  0  0  0  0  0
  -21.6740  -29.0520   22.2180 N   0  0  0  0  0  0  0  0  0  0  0  0
  -23.6620  -28.6530   23.2190 O   0  0  0  0  0  0  0  0  0  0  0  0
  -21.1850  -29.6060   21.5290 H   0  0  0  0  0  0  0  0  0  0  0  0
  -18.3350  -27.7130   22.5770 C   0  0  0  0  0  0  0  0  0  0  0  0
  -20.8740  -28.0480   22.9220 C   0  0  0  0  0  3  0  0  0  0  0  0
  -21.0460  -26.6530   22.2770 C   0  0  0  0  0  2  0  0  0  0  0  0
  -19.9790  -26.3420   21.2230 C   0  0  0  0  0  2  0  0  0  0  0  0
  -18.5770  -26.4080   21.8360 C   0  0  0  0  0  2  0  0  0  0  0  0
  -19.4140  -28.4910   23.0720 C   0  0  0  0  0  0  0  0  0  0  0  0
  -19.1350  -29.7140   23.7200 C   0  0  0  0  0  3  0  0  0  0  0  0
  -17.8090  -30.1550   23.8860 C   0  0  0  0  0  3  0  0  0  0  0  0
  -16.7430  -29.3720   23.4090 C   0  0  0  0  0  3  0  0  0  0  0  0
  -17.0060  -28.1540   22.7560 C   0  0  0  0  0  3  0  0  0  0  0  0
  -25.9510  -32.4030   23.9370 C   0  0  0  0  0  3  0  0  0  0  0  0
  -26.4200  -31.6380   25.2340 C   0  0  1  0  0  0  0  0  0  0  0  0
  -25.2740  -31.3500   26.2320 C   0  0  0  0  0  1  0  0  0  0  0  0
  -27.0770  -30.2890   24.8650 C   0  0  0  0  0  1  0  0  0  0  0  0
  -27.5000  -32.4660   25.9720 C   0  0  0  0  0  1  0  0  0  0  0  0
  -25.5800  -33.7870   24.2630 N   0  0  0  0  0  0  0  0  0  0  0  0
  -25.9090  -34.8590   23.5290 C   0  0  0  0  0  0  0  0  0  0  0  0
  -26.6200  -34.7890   22.5230 O   0  0  0  0  0  0  0  0  0  0  0  0
  -24.9540  -33.9170   25.0420 H   0  0  0  0  0  0  0  0  0  0  0  0
  -24.1400  -36.6030   23.1330 C   0  0  0  0  0  1  0  0  0  0  0  0
  -25.3600  -36.2240   23.9860 C   0  0  0  0  0  3  0  0  0  0  0  0
  -27.4180  -37.1710   24.9250 C   0  0  0  0  0  1  0  0  0  0  0  0
  -26.3590  -37.3120   23.9300 N   0  0  0  0  0  0  0  0  0  0  0  0
  -25.9130  -38.2140   24.0730 H   0  0  0  0  0  0  0  0  0  0  0  0
  2  1  1  0
  3  6  1  0
  4  1  1  0
  5  3  1  0
  5  7  1  0
  6 17  1  0
  6  2  1  0
  7  4  1  0
  7  8  1  6
  9 17  1  0
 10 15  1  0
 11 12  1  0
 11 10  1  0
 13 12  1  0
 13 22  1  0
 13 14  1  0
 15  9  1  0
 15 14  1  0
 16  9  2  0
 17 18  1  0
 19 20  2  0
 20 39  1  0
 21 20  1  0
 21 24  1  0
 22 23  1  0
 22 19  1  0
 23 21  2  0
 24 25  1  0
 25 26  2  0
 27 30  1  0
 27 26  1  0
 28 27  2  0
 29 28  1  0
 29 24  2  0
 30 31  1  0
 31 32  1  0
 32 33  2  0
 34 33  1  0
 34 38  1  0
 35 34  2  0
 36 31  2  0
 36 35  1  0
 37 36  1  0
 39 40  1  0
 40 43  1  0
 40 42  1  0
 41 39  2  0
 44 19  1  0
 44 45  1  0
 46 44  1  0
 47  7  1  0
 48 47  1  0
 48 49  1  0
 50 52  1  0
 50 49  1  0
 51 62  2  0
 52 57  1  0
 53 61  1  0
 53 63  1  0
 54 60  1  0
 54 56  1  0
 55 61  1  0
 56 57  2  0
 56 55  1  0
 58 52  2  0
 59 58  1  0
 59 54  2  0
 60 53  1  0
 61 51  1  0
 63 65  2  0
 64 63  1  0
 66 64  1  0
 67 76  2  0
 67 72  1  0
 68 64  1  0
 68 72  1  0
 69 68  1  0
 70 71  1  0
 70 69  1  0
 71 67  1  0
 72 73  2  0
 73 74  1  0
 75 74  2  0
 76 75  1  0
 77 51  1  0
 77 82  1  0
 77 78  1  0
 78 81  1  1
 78 79  1  0
 80 78  1  0
 82 85  1  0
 83 87  1  0
 83 82  1  0
 84 83  2  0
 87 86  1  0
 89 87  1  0
 89 90  1  0
 89 88  1  0
M  ISO  4   9 100  17 100  49 101  50 101
M  END
>  <TORSDO>  (33) 
F 19

>  <SCORE>  (33) 
-12.821

>  <name>  (33) 
32

>  <ligand_id>  (33) 
32

>  <original_smiles>  (33) 
[H]c1c([H])c([H])c2c(c1[H])C([H])([H])C([H])([H])C([H])([H])C2([H])N([H])C(=O)C1([H])N(C(=O)C([H])(N([H])C(=O)C([H])(N([H])C([H])([H])[H])C([H])([H])[H])C(C([H])([H])[H])(C([H])([H])[H])C([H])([H])[H])C([H])([H])c2c([H])c(OC([H])([H])C([H])([H])C([H])([H])[N+]3([H])C([H])([H])C([H])([H])C([H])([H])C([H])(N([H])C(=O)N4C([H])([H])C([H])([H])C([H])([H])C([H])(n5nc(-c6c([H])c([H])c(Oc7c([H])c([H])c(F)c([H])c7F)c([H])c6[H])c(C(=O)N([H])[H])c5N([H])[H])C4([H])[H])C([H])([H])C3([H])[H])c([H])c([H])c2C1([H])[H]

>  <smiles>  (33) 
[H]c1c([H])c([H])c2c(c1[H])C([H])([H])C([H])([H])C([H])([H])C2([H])N([H])C(=O)C1([H])N(C(=O)C([H])(N([H])C(=O)C([H])(N([H])C([H])([H])[H])C([H])([H])[H])C(C([H])([H])[H])(C([H])([H])[H])C([H])([H])[H])C([H])([H])c2c([H])c(OC([H])([H])C([H])([H])C([H])([H])[N+]3([H])C([H])([H])C([H])([H])C([H])([H])C([H])(N([H])C(=O)N4C([H])([H])C([H])([H])C([H])([H])C([H])(n5nc(-c6c([H])c([H])c(Oc7c([H])c([H])c(F)c([H])c7F)c([H])c6[H])c(C(=O)N([H])[H])c5N([H])[H])C4([H])[H])C([H])([H])C3([H])[H])c([H])c([H])c2C1([H])[H]

$$$$
33:0:0
     RDKit          3D

 97105  0  0  1  0  0  0  0  0999 V2000
  -30.5440  -14.8820   18.9920 C   0  0  0  0  0  0  0  0  0  0  0  0
  -29.9690  -12.7080   17.9190 C   0  0  0  0  0  2  0  0  0  0  0  0
  -28.7760  -12.8570   16.9510 C   0  0  0  0  0  2  0  0  0  0  0  0
  -27.4550  -12.6510   17.7070 C   0  0  0  0  0  2  0  0  0  0  0  0
  -27.3810  -13.4780   19.0160 C   0  0  0  0  0  3  0  0  0  0  0  0
  -28.6750  -13.3620   19.8620 C   0  0  0  0  0  2  0  0  0  0  0  0
  -29.8200  -13.7080   19.0060 N   0  0  0  0  0  0  0  0  0  0  0  0
  -31.4430  -15.0380   18.1640 O   0  0  0  0  0  0  0  0  0  0  0  0
  -31.8090  -18.3290   21.8300 C   0  0  0  0  0  2  0  0  0  0  0  0
  -31.4800  -18.9130   20.4530 C   0  0  0  0  0  2  0  0  0  0  0  0
  -31.1820  -16.9510   22.0790 C   0  0  0  0  0  2  0  0  0  0  0  0
  -29.8310  -17.2430   19.3520 C   0  0  0  0  0  2  0  0  0  0  0  0
  -30.0000  -18.6900   20.0800 C   0  0  0  0  0  3  0  0  0  0  0  0
  -31.4490  -15.9580   20.9250 C   0  0  0  0  0  3  0  0  0  0  0  0
  -30.3310  -15.8880   19.9210 N   0  0  0  0  0  0  0  0  0  0  0  0
  -25.2740  -13.9910   20.3920 C   0  0  0  0  0  0  0  0  0  0  0  0
  -24.2950  -13.1880   20.9110 C   0  0  0  0  0  0  0  0  0  0  0  0
  -24.6680  -11.8480   20.5830 C   0  0  0  0  0  0  0  0  0  0  0  0
  -26.1840  -13.1410   19.7850 N   0  0  0  0  0  0  0  0  0  0  0  0
  -25.8400  -11.8380   19.9590 N   0  0  0  0  0  0  0  0  0  0  0  0
  -23.9480  -10.5810   20.7770 C   0  0  0  0  0  0  0  0  0  0  0  0
  -24.4730   -9.5470   21.5820 C   0  0  0  0  0  3  0  0  0  0  0  0
  -23.7530   -8.3470   21.7690 C   0  0  0  0  0  3  0  0  0  0  0  0
  -22.4890   -8.1770   21.1580 C   0  0  0  0  0  0  0  0  0  0  0  0
  -21.9810   -9.1990   20.3360 C   0  0  0  0  0  3  0  0  0  0  0  0
  -22.7030  -10.3890   20.1470 C   0  0  0  0  0  3  0  0  0  0  0  0
  -21.7310   -7.0360   21.2660 O   0  0  0  0  0  0  0  0  0  0  0  0
  -21.7120   -6.2880   22.4160 C   0  0  0  0  0  0  0  0  0  0  0  0
  -21.1900   -6.7960   23.6270 C   0  0  0  0  0  3  0  0  0  0  0  0
  -21.1280   -5.9710   24.7680 C   0  0  0  0  0  3  0  0  0  0  0  0
  -21.5750   -4.6380   24.6990 C   0  0  0  0  0  0  0  0  0  0  0  0
  -22.0870   -4.1280   23.4940 C   0  0  0  0  0  3  0  0  0  0  0  0
  -22.1530   -4.9510   22.3550 C   0  0  0  0  0  0  0  0  0  0  0  0
  -22.6300   -4.4480   21.1910 F   0  0  0  0  0  0  0  0  0  0  0  0
  -21.5070   -3.8420   25.7920 F   0  0  0  0  0  0  0  0  0  0  0  0
  -23.0330  -13.6410   21.5870 C   0  0  0  0  0  0  0  0  0  0  0  0
  -22.5110  -12.8420   22.5110 N   0  0  0  0  0  0  0  0  0  0  0  0
  -22.5280  -14.7340   21.3340 O   0  0  0  0  0  0  0  0  0  0  0  0
  -22.9360  -11.9560   22.7370 H   0  0  0  0  0  0  0  0  0  0  0  0
  -21.6690  -13.1180   22.9970 H   0  0  0  0  0  0  0  0  0  0  0  0
  -25.4580  -15.3710   20.3630 N   0  0  0  0  0  0  0  0  0  0  0  0
  -24.7820  -16.0190   20.7550 H   0  0  0  0  0  0  0  0  0  0  0  0
  -26.2280  -15.8340   19.8960 H   0  0  0  0  0  0  0  0  0  0  0  0
  -29.4010  -19.9150   19.3670 N   0  0  0  0  0  4  0  0  0  0  0  0
  -28.4000  -19.8100   19.4210 H   0  0  0  0  0  0  0  0  0  0  0  0
  -29.6420  -19.8730   18.3900 H   0  0  0  0  0  0  0  0  0  0  0  0
  -29.7290  -21.3350   19.8650 C   0  0  0  0  0  3  0  0  0  0  0  0
  -28.8120  -22.5690   19.3810 C   0  0  0  0  0  3  0  0  0  0  0  0
  -29.1750  -24.0810   19.8220 C   0  0  0  0  0  3  0  0  0  0  0  0
  -28.1350  -25.2590   19.4910 C   0  0  0  0  0  3  0  0  0  0  0  0
  -28.4160  -26.6850   19.8340 O   0  0  0  0  0  0  0  0  0  0  0  0
  -24.8520  -31.6280   23.7200 C   0  0  0  0  0  0  0  0  0  0  0  0
  -27.3420  -27.5990   19.9010 C   0  0  0  0  0  0  0  0  0  0  0  0
  -23.6290  -30.6160   21.8310 C   0  0  0  0  0  3  0  0  0  0  0  0
  -25.0480  -29.3040   20.1560 C   0  0  0  0  0  0  0  0  0  0  0  0
  -26.1830  -30.8520   21.7420 C   0  0  0  0  0  2  0  0  0  0  0  0
  -26.2230  -29.6150   20.8510 C   0  0  0  0  0  0  0  0  0  0  0  0
  -27.3710  -28.7750   20.7200 C   0  0  0  0  0  3  0  0  0  0  0  0
  -26.1500  -27.3620   19.1790 C   0  0  0  0  0  3  0  0  0  0  0  0
  -25.0150  -28.1840   19.3110 C   0  0  0  0  0  3  0  0  0  0  0  0
  -23.8430  -30.2010   20.3520 C   0  0  0  0  0  2  0  0  0  0  0  0
  -24.9080  -31.0360   22.4910 N   0  0  0  0  0  0  0  0  0  0  0  0
  -23.7700  -31.8470   24.2850 O   0  0  0  0  0  0  0  0  0  0  0  0
  -22.9080  -29.4650   22.5730 C   0  0  0  0  0  0  0  0  0  0  0  0
  -21.5770  -29.3720   22.4040 N   0  0  0  0  0  0  0  0  0  0  0  0
  -23.5450  -28.6660   23.2640 O   0  0  0  0  0  0  0  0  0  0  0  0
  -21.1230  -30.0730   21.8350 H   0  0  0  0  0  0  0  0  0  0  0  0
  -18.1460  -28.2600   22.6460 C   0  0  0  0  0  0  0  0  0  0  0  0
  -20.7090  -28.3410   22.9750 C   0  0  0  0  0  3  0  0  0  0  0  0
  -20.7550  -27.0430   22.1330 C   0  0  0  0  0  2  0  0  0  0  0  0
  -19.6530  -26.9740   21.0710 C   0  0  0  0  0  2  0  0  0  0  0  0
  -18.2700  -27.0590   21.7230 C   0  0  0  0  0  2  0  0  0  0  0  0
  -19.2920  -28.8700   23.2210 C   0  0  0  0  0  0  0  0  0  0  0  0
  -19.1220  -30.0040   24.0460 C   0  0  0  0  0  3  0  0  0  0  0  0
  -17.8390  -30.5230   24.3010 C   0  0  0  0  0  3  0  0  0  0  0  0
  -16.7080  -29.9050   23.7440 C   0  0  0  0  0  3  0  0  0  0  0  0
  -16.8610  -28.7760   22.9190 C   0  0  0  0  0  3  0  0  0  0  0  0
  -26.1460  -32.0780   24.4660 C   0  0  0  0  0  3  0  0  0  0  0  0
  -25.9360  -33.4580   24.9290 N   0  0  0  0  0  0  0  0  0  0  0  0
  -26.4440  -34.5460   24.3340 C   0  0  0  0  0  0  0  0  0  0  0  0
  -27.2030  -34.4830   23.3640 O   0  0  0  0  0  0  0  0  0  0  0  0
  -25.2800  -33.5880   25.6840 H   0  0  0  0  0  0  0  0  0  0  0  0
  -24.9670  -36.5580   24.0170 C   0  0  0  0  0  1  0  0  0  0  0  0
  -26.0440  -35.9180   24.9070 C   0  0  0  0  0  3  0  0  0  0  0  0
  -28.1120  -36.4690   26.1110 C   0  0  0  0  0  1  0  0  0  0  0  0
  -27.1840  -36.8500   25.0500 N   0  0  0  0  0  0  0  0  0  0  0  0
  -26.8560  -37.7920   25.2430 H   0  0  0  0  0  0  0  0  0  0  0  0
  -26.5220  -31.1420   25.6820 C   0  0  1  0  0  0  0  0  0  0  0  0
  -25.3530  -30.9130   26.6680 C   0  0  0  0  0  1  0  0  0  0  0  0
  -27.0000  -29.7600   25.1790 C   0  0  0  0  0  1  0  0  0  0  0  0
  -27.7000  -31.7580   26.4740 C   0  0  0  0  0  1  0  0  0  0  0  0
  -31.8980  -14.6000   21.5670 C   0  0  0  0  0  2  0  0  0  0  0  0
  -33.4360  -14.4230   21.5350 C   0  0  0  0  0  2  0  0  0  0  0  0
  -33.8710  -13.0990   22.0100 N   0  0  0  0  0  4  0  0  0  0  0  0
  -33.6610  -12.9830   22.9860 H   0  0  0  0  0  0  0  0  0  0  0  0
  -34.8670  -13.0180   21.8950 H   0  0  0  0  0  0  0  0  0  0  0  0
  -33.4340  -12.3610   21.4840 H   0  0  0  0  0  0  0  0  0  0  0  0
  1  7  1  0
  1 15  1  0
  2  7  1  0
  3  4  1  0
  3  2  1  0
  5  4  1  0
  5 19  1  0
  5  6  1  0
  7  6  1  0
  8  1  2  0
  9 11  1  0
 10  9  1  0
 12 15  1  0
 12 13  1  0
 13 44  1  0
 13 10  1  0
 14 92  1  0
 14 11  1  0
 15 14  1  0
 16 17  2  0
 17 36  1  0
 18 21  1  0
 18 17  1  0
 19 20  1  0
 19 16  1  0
 20 18  2  0
 21 22  1  0
 22 23  2  0
 24 27  1  0
 24 23  1  0
 25 24  2  0
 26 25  1  0
 26 21  2  0
 27 28  1  0
 28 29  1  0
 29 30  2  0
 31 30  1  0
 31 35  1  0
 32 31  2  0
 33 28  2  0
 33 32  1  0
 34 33  1  0
 36 37  1  0
 37 39  1  0
 37 40  1  0
 38 36  2  0
 41 16  1  0
 41 42  1  0
 43 41  1  0
 44 45  1  0
 44 47  1  0
 46 44  1  0
 48 49  1  0
 48 47  2  0
 50 49  2  0
 50 51  1  0
 51 53  1  0
 52 63  2  0
 53 58  1  0
 54 62  1  0
 54 64  1  0
 55 61  1  0
 55 57  1  0
 56 62  1  0
 57 56  1  0
 58 57  2  0
 59 60  1  0
 59 53  2  0
 60 55  2  0
 61 54  1  0
 62 52  1  0
 64 66  2  0
 65 64  1  0
 67 65  1  0
 68 77  2  0
 68 73  1  0
 69 65  1  0
 69 73  1  0
 70 69  1  0
 71 72  1  0
 71 70  1  0
 72 68  1  0
 73 74  2  0
 74 75  1  0
 76 75  2  0
 77 76  1  0
 78 52  1  0
 78 79  1  0
 78 88  1  0
 79 82  1  0
 80 84  1  0
 80 79  1  0
 81 80  2  0
 84 83  1  0
 84 86  1  0
 86 87  1  0
 86 85  1  0
 88 91  1  1
 88 89  1  0
 90 88  1  0
 93 92  1  0
 93 94  1  0
 94 95  1  0
 96 94  1  0
 97 94  1  0
M  ISO  4   1 100  15 100  50 101  51 101
M  END
>  <TORSDO>  (34) 
F 23

>  <SCORE>  (34) 
-7.100

>  <name>  (34) 
33

>  <ligand_id>  (34) 
33

>  <original_smiles>  (34) 
[H]c1c([H])c([H])c2c(c1[H])C([H])([H])C([H])([H])C([H])([H])C2([H])N([H])C(=O)C1([H])N(C(=O)C([H])(N([H])C(=O)C([H])(N([H])C([H])([H])[H])C([H])([H])[H])C(C([H])([H])[H])(C([H])([H])[H])C([H])([H])[H])C([H])([H])c2c([H])c(OC([H])([H])C([H])([H])C([H])([H])C([H])([H])[N+]([H])([H])C3([H])C([H])([H])N(C(=O)N4C([H])([H])C([H])([H])C([H])([H])C([H])(n5nc(-c6c([H])c([H])c(Oc7c([H])c([H])c(F)c([H])c7F)c([H])c6[H])c(C(=O)N([H])[H])c5N([H])[H])C4([H])[H])C([H])(C([H])([H])C([H])([H])[N+]([H])([H])[H])C([H])([H])C([H])([H])C3([H])[H])c([H])c([H])c2C1([H])[H]

>  <smiles>  (34) 
[H]c1c([H])c([H])c2c(c1[H])C([H])([H])C([H])([H])C([H])([H])C2([H])N([H])C(=O)C1([H])N(C(=O)C([H])(N([H])C(=O)C([H])(N([H])C([H])([H])[H])C([H])([H])[H])C(C([H])([H])[H])(C([H])([H])[H])C([H])([H])[H])C([H])([H])c2c([H])c(OC([H])([H])C([H])([H])C([H])([H])C([H])([H])[N+]([H])([H])C3([H])C([H])([H])N(C(=O)N4C([H])([H])C([H])([H])C([H])([H])C([H])(n5nc(-c6c([H])c([H])c(Oc7c([H])c([H])c(F)c([H])c7F)c([H])c6[H])c(C(=O)N([H])[H])c5N([H])[H])C4([H])[H])C([H])(C([H])([H])C([H])([H])[N+]([H])([H])[H])C([H])([H])C([H])([H])C3([H])[H])c([H])c([H])c2C1([H])[H]

$$$$
34:0:0
     RDKit          3D

 95103  0  0  1  0  0  0  0  0999 V2000
  -28.6920  -22.7170   21.7990 C   0  0  0  0  0  2  0  0  0  0  0  0
  -29.7930  -22.0500   22.6470 C   0  0  0  0  0  2  0  0  0  0  0  0
  -30.1750  -22.0690   19.8180 C   0  0  0  0  0  2  0  0  0  0  0  0
  -29.8160  -20.5730   20.0290 C   0  0  0  0  0  2  0  0  0  0  0  0
  -29.0990  -23.0450   20.3450 C   0  0  0  0  0  3  0  0  0  0  0  0
  -29.8520  -20.4970   22.5710 C   0  0  0  0  0  3  0  0  0  0  0  0
  -30.3670  -19.9430   21.2690 N   0  0  1  0  0  4  0  0  0  0  0  0
  -31.3560  -20.1420   21.2680 H   0  0  0  0  0  0  0  0  0  0  0  0
  -29.4600  -24.5500   20.1660 C   0  0  0  0  0  2  0  0  0  0  0  0
  -28.2140  -25.4050   19.8320 C   0  0  0  0  0  2  0  0  0  0  0  0
  -28.3930  -26.8240   19.9880 O   0  0  0  0  0  0  0  0  0  0  0  0
  -24.6860  -31.8820   23.3840 C   0  0  0  0  0  0  0  0  0  0  0  0
  -27.2340  -27.5850   20.0110 C   0  0  0  0  0  0  0  0  0  0  0  0
  -23.4420  -30.5930   21.6820 C   0  0  0  0  0  3  0  0  0  0  0  0
  -24.8570  -29.1280   20.1510 C   0  0  0  0  0  0  0  0  0  0  0  0
  -25.9700  -30.9270   21.4760 C   0  0  0  0  0  2  0  0  0  0  0  0
  -26.0310  -29.5950   20.7540 C   0  0  0  0  0  0  0  0  0  0  0  0
  -27.2210  -28.8300   20.6840 C   0  0  0  0  0  3  0  0  0  0  0  0
  -26.0400  -27.1490   19.3870 C   0  0  0  0  0  3  0  0  0  0  0  0
  -24.8590  -27.9050   19.4640 C   0  0  0  0  0  3  0  0  0  0  0  0
  -23.6260  -29.9940   20.2620 C   0  0  0  0  0  2  0  0  0  0  0  0
  -24.7180  -31.1450   22.2400 N   0  0  0  0  0  0  0  0  0  0  0  0
  -23.6150  -32.1390   23.9510 O   0  0  0  0  0  0  0  0  0  0  0  0
  -22.7930  -29.5230   22.5900 C   0  0  0  0  0  0  0  0  0  0  0  0
  -21.4800  -29.3080   22.4110 N   0  0  0  0  0  0  0  0  0  0  0  0
  -23.4680  -28.8930   23.4080 O   0  0  0  0  0  0  0  0  0  0  0  0
  -20.9960  -29.8670   21.7210 H   0  0  0  0  0  0  0  0  0  0  0  0
  -18.1450  -27.9450   22.7030 C   0  0  0  0  0  0  0  0  0  0  0  0
  -20.6660  -28.3280   23.1300 C   0  0  0  0  0  3  0  0  0  0  0  0
  -20.8720  -26.9060   22.5560 C   0  0  0  0  0  2  0  0  0  0  0  0
  -19.8520  -26.5370   21.4740 C   0  0  0  0  0  2  0  0  0  0  0  0
  -18.4300  -26.6110   22.0340 C   0  0  0  0  0  2  0  0  0  0  0  0
  -19.1970  -28.7590   23.2030 C   0  0  0  0  0  0  0  0  0  0  0  0
  -18.8810  -30.0060   23.7830 C   0  0  0  0  0  3  0  0  0  0  0  0
  -17.5460  -30.4420   23.8690 C   0  0  0  0  0  3  0  0  0  0  0  0
  -16.5070  -29.6290   23.3820 C   0  0  0  0  0  3  0  0  0  0  0  0
  -16.8090  -28.3810   22.8070 C   0  0  0  0  0  3  0  0  0  0  0  0
  -25.9870  -32.4610   24.0190 C   0  0  0  0  0  3  0  0  0  0  0  0
  -25.7160  -33.8560   24.3850 N   0  0  0  0  0  0  0  0  0  0  0  0
  -26.0950  -34.9190   23.6620 C   0  0  0  0  0  0  0  0  0  0  0  0
  -26.7790  -34.8240   22.6390 O   0  0  0  0  0  0  0  0  0  0  0  0
  -25.1110  -34.0030   25.1800 H   0  0  0  0  0  0  0  0  0  0  0  0
  -24.4300  -36.7720   23.3200 C   0  0  0  0  0  1  0  0  0  0  0  0
  -25.6390  -36.3070   24.1490 C   0  0  0  0  0  3  0  0  0  0  0  0
  -27.7800  -37.0980   25.0560 C   0  0  0  0  0  1  0  0  0  0  0  0
  -26.7070  -37.3290   24.0930 N   0  0  0  0  0  0  0  0  0  0  0  0
  -26.3270  -38.2570   24.2610 H   0  0  0  0  0  0  0  0  0  0  0  0
  -26.4830  -31.6400   25.2710 C   0  0  1  0  0  0  0  0  0  0  0  0
  -25.3780  -31.3820   26.3240 C   0  0  0  0  0  1  0  0  0  0  0  0
  -27.0510  -30.2690   24.8370 C   0  0  0  0  0  1  0  0  0  0  0  0
  -27.6440  -32.3930   25.9650 C   0  0  0  0  0  1  0  0  0  0  0  0
  -30.6910  -19.9820   23.7830 C   0  0  0  0  0  2  0  0  0  0  0  0
  -30.8430  -18.3100   25.7250 C   0  0  0  0  0  1  0  0  0  0  0  0
  -29.9540  -18.9370   24.6440 C   0  0  0  0  0  2  0  0  0  0  0  0
  -30.2340  -18.4470   21.2040 C   0  0  0  0  0  2  0  0  0  0  0  0
  -31.4210  -17.7300   20.5150 C   0  0  0  0  0  2  0  0  0  0  0  0
  -31.7540  -16.3260   21.0840 C   0  0  0  0  0  2  0  0  0  0  0  0
  -31.2450  -14.2850   19.7470 C   0  0  0  0  0  0  0  0  0  0  0  0
  -30.8070  -12.0370   18.8250 C   0  0  0  0  0  2  0  0  0  0  0  0
  -29.7890  -12.0770   17.6700 C   0  0  0  0  0  2  0  0  0  0  0  0
  -28.3470  -12.0070   18.2040 C   0  0  0  0  0  2  0  0  0  0  0  0
  -28.0880  -13.0150   19.3560 C   0  0  0  0  0  3  0  0  0  0  0  0
  -29.2090  -12.9410   20.4200 C   0  0  0  0  0  2  0  0  0  0  0  0
  -30.5030  -13.1440   19.7450 N   0  0  0  0  0  0  0  0  0  0  0  0
  -32.2340  -14.4420   19.0270 O   0  0  0  0  0  0  0  0  0  0  0  0
  -30.8850  -15.2250   20.6360 N   0  0  0  0  0  0  0  0  0  0  0  0
  -30.0570  -15.0310   21.1830 H   0  0  0  0  0  0  0  0  0  0  0  0
  -25.8130  -13.7650   20.2990 C   0  0  0  0  0  0  0  0  0  0  0  0
  -24.7240  -13.0580   20.7330 C   0  0  0  0  0  0  0  0  0  0  0  0
  -25.0740  -11.6790   20.6100 C   0  0  0  0  0  0  0  0  0  0  0  0
  -26.7640  -12.8200   19.9440 N   0  0  0  0  0  0  0  0  0  0  0  0
  -26.3250  -11.5570   20.1840 N   0  0  0  0  0  0  0  0  0  0  0  0
  -24.2720  -10.4680   20.8160 C   0  0  0  0  0  0  0  0  0  0  0  0
  -24.6550   -9.4760   21.7460 C   0  0  0  0  0  3  0  0  0  0  0  0
  -23.8560   -8.3290   21.9400 C   0  0  0  0  0  3  0  0  0  0  0  0
  -22.6590   -8.1640   21.2050 C   0  0  0  0  0  0  0  0  0  0  0  0
  -22.2930   -9.1430   20.2630 C   0  0  0  0  0  3  0  0  0  0  0  0
  -23.0920  -10.2810   20.0670 C   0  0  0  0  0  3  0  0  0  0  0  0
  -21.8330   -7.0720   21.3100 O   0  0  0  0  0  0  0  0  0  0  0  0
  -21.6910   -6.3860   22.4910 C   0  0  0  0  0  0  0  0  0  0  0  0
  -21.2330   -7.0190   23.6670 C   0  0  0  0  0  3  0  0  0  0  0  0
  -21.0340   -6.2620   24.8400 C   0  0  0  0  0  3  0  0  0  0  0  0
  -21.2820   -4.8770   24.8360 C   0  0  0  0  0  0  0  0  0  0  0  0
  -21.7330   -4.2450   23.6630 C   0  0  0  0  0  3  0  0  0  0  0  0
  -21.9330   -4.9990   22.4930 C   0  0  0  0  0  0  0  0  0  0  0  0
  -22.3470   -4.3800   21.3600 F   0  0  0  0  0  0  0  0  0  0  0  0
  -21.0840   -4.1500   25.9600 F   0  0  0  0  0  0  0  0  0  0  0  0
  -23.3980  -13.6250   21.1500 C   0  0  0  0  0  0  0  0  0  0  0  0
  -22.7080  -12.9590   22.0680 N   0  0  0  0  0  0  0  0  0  0  0  0
  -22.9900  -14.6950   20.6990 O   0  0  0  0  0  0  0  0  0  0  0  0
  -23.0540  -12.0940   22.4550 H   0  0  0  0  0  0  0  0  0  0  0  0
  -21.8180  -13.3170   22.3870 H   0  0  0  0  0  0  0  0  0  0  0  0
  -26.0660  -15.1260   20.1620 N   0  0  0  0  0  0  0  0  0  0  0  0
  -25.3620  -15.8260   20.3690 H   0  0  0  0  0  0  0  0  0  0  0  0
  -26.9130  -15.5190   19.7700 H   0  0  0  0  0  0  0  0  0  0  0  0
  1  2  1  0
  3  4  1  0
  3  5  1  0
  4  7  1  0
  5  9  1  0
  5  1  1  0
  6  2  1  0
  6 52  1  0
  7  6  1  0
  7  8  1  1
 10 11  1  0
 10  9  1  0
 11 13  1  0
 12 23  2  0
 13 18  1  0
 14 22  1  0
 14 24  1  0
 15 21  1  0
 15 17  1  0
 16 22  1  0
 17 16  1  0
 18 17  2  0
 19 20  1  0
 19 13  2  0
 20 15  2  0
 21 14  1  0
 22 12  1  0
 24 26  2  0
 25 24  1  0
 27 25  1  0
 28 37  2  0
 28 33  1  0
 29 25  1  0
 29 33  1  0
 30 29  1  0
 31 32  1  0
 31 30  1  0
 32 28  1  0
 33 34  2  0
 34 35  1  0
 36 35  2  0
 37 36  1  0
 38 12  1  0
 38 39  1  0
 38 48  1  0
 39 42  1  0
 40 44  1  0
 40 39  1  0
 41 40  2  0
 44 43  1  0
 46 44  1  0
 46 47  1  0
 46 45  1  0
 48 51  1  1
 48 49  1  0
 50 48  1  0
 52 54  1  0
 54 53  1  0
 55  7  1  0
 56 57  1  0
 56 55  1  0
 58 66  1  0
 59 64  1  0
 60 61  1  0
 60 59  1  0
 62 61  1  0
 62 71  1  0
 62 63  1  0
 64 58  1  0
 64 63  1  0
 65 58  2  0
 66 57  1  0
 66 67  1  0
 68 69  2  0
 69 88  1  0
 70 69  1  0
 70 73  1  0
 71 72  1  0
 71 68  1  0
 72 70  2  0
 73 74  1  0
 74 75  2  0
 76 79  1  0
 76 75  1  0
 77 76  2  0
 78 77  1  0
 78 73  2  0
 79 80  1  0
 80 85  2  0
 80 81  1  0
 81 82  2  0
 83 82  1  0
 83 87  1  0
 84 83  2  0
 85 84  1  0
 86 85  1  0
 88 89  1  0
 89 92  1  0
 89 91  1  0
 90 88  2  0
 93 68  1  0
 93 94  1  0
 95 93  1  0
M  ISO  4  10 101  11 101  58 100  66 100
M  END
>  <TORSDO>  (35) 
F 23

>  <SCORE>  (35) 
-7.589

>  <name>  (35) 
34

>  <ligand_id>  (35) 
34

>  <original_smiles>  (35) 
[H]c1c([H])c([H])c2c(c1[H])C([H])([H])C([H])([H])C([H])([H])C2([H])N([H])C(=O)C1([H])N(C(=O)C([H])(N([H])C(=O)C([H])(N([H])C([H])([H])[H])C([H])([H])[H])C(C([H])([H])[H])(C([H])([H])[H])C([H])([H])[H])C([H])([H])c2c([H])c(OC([H])([H])C([H])([H])C3([H])C([H])([H])C([H])([H])C([H])(C([H])([H])C([H])([H])C([H])([H])[H])[N+]([H])(C([H])([H])C([H])([H])C([H])([H])N([H])C(=O)N4C([H])([H])C([H])([H])C([H])([H])C([H])(n5nc(-c6c([H])c([H])c(Oc7c([H])c([H])c(F)c([H])c7F)c([H])c6[H])c(C(=O)N([H])[H])c5N([H])[H])C4([H])[H])C([H])([H])C3([H])[H])c([H])c([H])c2C1([H])[H]

>  <smiles>  (35) 
[H]c1c([H])c([H])c2c(c1[H])C([H])([H])C([H])([H])C([H])([H])C2([H])N([H])C(=O)C1([H])N(C(=O)C([H])(N([H])C(=O)C([H])(N([H])C([H])([H])[H])C([H])([H])[H])C(C([H])([H])[H])(C([H])([H])[H])C([H])([H])[H])C([H])([H])c2c([H])c(OC([H])([H])C([H])([H])C3([H])C([H])([H])C([H])([H])C([H])(C([H])([H])C([H])([H])C([H])([H])[H])[N+]([H])(C([H])([H])C([H])([H])C([H])([H])N([H])C(=O)N4C([H])([H])C([H])([H])C([H])([H])C([H])(n5nc(-c6c([H])c([H])c(Oc7c([H])c([H])c(F)c([H])c7F)c([H])c6[H])c(C(=O)N([H])[H])c5N([H])[H])C4([H])[H])C([H])([H])C3([H])[H])c([H])c([H])c2C1([H])[H]

$$$$
35:0:0
     RDKit          3D

 94103  0  0  1  0  0  0  0  0999 V2000
  -28.9330  -22.5680   21.6350 C   0  0  0  0  0  2  0  0  0  0  0  0
  -31.2510  -23.2900   20.9270 C   0  0  0  0  0  2  0  0  0  0  0  0
  -28.4090  -23.9900   21.3430 C   0  0  0  0  0  2  0  0  0  0  0  0
  -30.7080  -24.7020   20.6100 C   0  0  0  0  0  2  0  0  0  0  0  0
  -30.1730  -22.1900   20.7860 C   0  0  0  0  0  3  0  0  0  0  0  0
  -29.5130  -25.0520   21.5160 C   0  0  0  0  0  3  0  0  0  0  0  0
  -30.7320  -20.7890   21.1700 C   0  0  0  0  0  2  0  0  0  0  0  0
  -29.9450  -19.6810   20.5770 N   0  0  0  0  0  4  0  0  0  0  0  0
  -28.9790  -19.9660   20.5940 H   0  0  0  0  0  0  0  0  0  0  0  0
  -30.2040  -19.5790   19.6090 H   0  0  0  0  0  0  0  0  0  0  0  0
  -30.6730  -14.4920   20.1940 C   0  0  0  0  0  0  0  0  0  0  0  0
  -30.2620  -12.4020   18.9290 C   0  0  0  0  0  2  0  0  0  0  0  0
  -29.2600  -12.6410   17.7800 C   0  0  0  0  0  2  0  0  0  0  0  0
  -27.8110  -12.4780   18.2770 C   0  0  0  0  0  2  0  0  0  0  0  0
  -27.5460  -13.2720   19.5800 C   0  0  0  0  0  3  0  0  0  0  0  0
  -28.6540  -12.9810   20.6260 C   0  0  0  0  0  2  0  0  0  0  0  0
  -29.9460  -13.3440   20.0240 N   0  0  0  0  0  0  0  0  0  0  0  0
  -31.7170  -14.6740   19.5570 O   0  0  0  0  0  0  0  0  0  0  0  0
  -31.3900  -17.6620   21.1600 C   0  0  0  0  0  2  0  0  0  0  0  0
  -28.9330  -17.4140   20.7110 C   0  0  0  0  0  2  0  0  0  0  0  0
  -31.3540  -16.2450   21.7950 C   0  0  0  0  0  2  0  0  0  0  0  0
  -29.0000  -16.0190   21.3650 C   0  0  0  0  0  2  0  0  0  0  0  0
  -30.0140  -18.3620   21.2640 C   0  0  0  0  0  3  0  0  0  0  0  0
  -30.3230  -15.3900   21.1680 N   0  0  0  0  0  0  0  0  0  0  0  0
  -25.1860  -13.8990   20.3980 C   0  0  0  0  0  0  0  0  0  0  0  0
  -24.1290  -13.1300   20.8060 C   0  0  0  0  0  0  0  0  0  0  0  0
  -24.5790  -11.7760   20.7370 C   0  0  0  0  0  0  0  0  0  0  0  0
  -26.2130  -13.0110   20.1130 N   0  0  0  0  0  0  0  0  0  0  0  0
  -25.8520  -11.7300   20.3710 N   0  0  0  0  0  0  0  0  0  0  0  0
  -23.8550  -10.5150   20.9410 C   0  0  0  0  0  0  0  0  0  0  0  0
  -24.3110   -9.5430   21.8580 C   0  0  0  0  0  3  0  0  0  0  0  0
  -23.5880   -8.3450   22.0490 C   0  0  0  0  0  3  0  0  0  0  0  0
  -22.3960   -8.1130   21.3230 C   0  0  0  0  0  0  0  0  0  0  0  0
  -21.9590   -9.0750   20.3960 C   0  0  0  0  0  3  0  0  0  0  0  0
  -22.6820  -10.2640   20.2020 C   0  0  0  0  0  3  0  0  0  0  0  0
  -21.6420   -6.9700   21.4260 O   0  0  0  0  0  0  0  0  0  0  0  0
  -21.6080   -6.2310   22.5820 C   0  0  0  0  0  0  0  0  0  0  0  0
  -21.2140   -6.7950   23.8140 C   0  0  0  0  0  3  0  0  0  0  0  0
  -21.1270   -5.9830   24.9640 C   0  0  0  0  0  3  0  0  0  0  0  0
  -21.4230   -4.6110   24.8810 C   0  0  0  0  0  0  0  0  0  0  0  0
  -21.8120   -4.0460   23.6530 C   0  0  0  0  0  3  0  0  0  0  0  0
  -21.9010   -4.8550   22.5050 C   0  0  0  0  0  0  0  0  0  0  0  0
  -22.2550   -4.3030   21.3200 F   0  0  0  0  0  0  0  0  0  0  0  0
  -21.3320   -3.8290   25.9820 F   0  0  0  0  0  0  0  0  0  0  0  0
  -22.7490  -13.6110   21.1480 C   0  0  0  0  0  0  0  0  0  0  0  0
  -22.0550  -12.9060   22.0340 N   0  0  0  0  0  0  0  0  0  0  0  0
  -22.2950  -14.6480   20.6640 O   0  0  0  0  0  0  0  0  0  0  0  0
  -22.4370  -12.0670   22.4460 H   0  0  0  0  0  0  0  0  0  0  0  0
  -21.1310  -13.2090   22.3050 H   0  0  0  0  0  0  0  0  0  0  0  0
  -25.3510  -15.2700   20.2260 N   0  0  0  0  0  0  0  0  0  0  0  0
  -24.5880  -15.9230   20.3660 H   0  0  0  0  0  0  0  0  0  0  0  0
  -26.1760  -15.7030   19.8340 H   0  0  0  0  0  0  0  0  0  0  0  0
  -29.0010  -26.5060   21.3540 C   0  0  0  0  0  2  0  0  0  0  0  0
  -28.3690  -26.7190   20.0900 O   0  0  0  0  0  0  0  0  0  0  0  0
  -24.5890  -31.8920   23.2460 C   0  0  0  0  0  0  0  0  0  0  0  0
  -27.2300  -27.4930   20.1240 C   0  0  0  0  0  0  0  0  0  0  0  0
  -23.3730  -30.5000   21.6000 C   0  0  0  0  0  3  0  0  0  0  0  0
  -24.8240  -28.9750   20.1550 C   0  0  0  0  0  0  0  0  0  0  0  0
  -25.8930  -30.8700   21.3880 C   0  0  0  0  0  2  0  0  0  0  0  0
  -25.9800  -29.5030   20.7460 C   0  0  0  0  0  0  0  0  0  0  0  0
  -27.1850  -28.7670   20.7370 C   0  0  0  0  0  3  0  0  0  0  0  0
  -26.0660  -26.9830   19.5170 C   0  0  0  0  0  3  0  0  0  0  0  0
  -24.8610  -27.7110   19.5390 C   0  0  0  0  0  3  0  0  0  0  0  0
  -23.5750  -29.8270   20.2150 C   0  0  0  0  0  2  0  0  0  0  0  0
  -24.6360  -31.1020   22.1370 N   0  0  0  0  0  0  0  0  0  0  0  0
  -23.5120  -32.1600   23.7970 O   0  0  0  0  0  0  0  0  0  0  0  0
  -22.7300  -29.4730   22.5590 C   0  0  0  0  0  0  0  0  0  0  0  0
  -21.4050  -29.2910   22.4380 N   0  0  0  0  0  0  0  0  0  0  0  0
  -23.4190  -28.8420   23.3640 O   0  0  0  0  0  0  0  0  0  0  0  0
  -20.9100  -29.8530   21.7590 H   0  0  0  0  0  0  0  0  0  0  0  0
  -18.0350  -28.0900   22.9390 C   0  0  0  0  0  0  0  0  0  0  0  0
  -20.5930  -28.3490   23.2060 C   0  0  0  0  0  3  0  0  0  0  0  0
  -20.6960  -26.9200   22.6200 C   0  0  0  0  0  2  0  0  0  0  0  0
  -19.5910  -26.6030   21.6080 C   0  0  0  0  0  2  0  0  0  0  0  0
  -18.2110  -26.7440   22.2560 C   0  0  0  0  0  2  0  0  0  0  0  0
  -19.1540  -28.8500   23.3710 C   0  0  0  0  0  0  0  0  0  0  0  0
  -18.9370  -30.1110   23.9680 C   0  0  0  0  0  3  0  0  0  0  0  0
  -17.6320  -30.6110   24.1390 C   0  0  0  0  0  3  0  0  0  0  0  0
  -16.5270  -29.8470   23.7250 C   0  0  0  0  0  3  0  0  0  0  0  0
  -16.7300  -28.5880   23.1310 C   0  0  0  0  0  3  0  0  0  0  0  0
  -25.8810  -32.5180   23.8620 C   0  0  0  0  0  3  0  0  0  0  0  0
  -26.4110  -31.7340   25.1250 C   0  0  1  0  0  0  0  0  0  0  0  0
  -25.3280  -31.4840   26.2000 C   0  0  0  0  0  1  0  0  0  0  0  0
  -26.9910  -30.3620   24.7100 C   0  0  0  0  0  1  0  0  0  0  0  0
  -27.5660  -32.5230   25.7850 C   0  0  0  0  0  1  0  0  0  0  0  0
  -25.5750  -33.9130   24.2050 N   0  0  0  0  0  0  0  0  0  0  0  0
  -25.9010  -34.9700   23.4490 C   0  0  0  0  0  0  0  0  0  0  0  0
  -26.5610  -34.8730   22.4100 O   0  0  0  0  0  0  0  0  0  0  0  0
  -24.9900  -34.0630   25.0130 H   0  0  0  0  0  0  0  0  0  0  0  0
  -24.1660  -36.7600   23.1220 C   0  0  0  0  0  1  0  0  0  0  0  0
  -25.4160  -36.3550   23.9180 C   0  0  0  0  0  3  0  0  0  0  0  0
  -27.5610  -37.2360   24.7270 C   0  0  0  0  0  1  0  0  0  0  0  0
  -26.4460  -37.4100   23.7990 N   0  0  0  0  0  0  0  0  0  0  0  0
  -26.0400  -38.3290   23.9620 H   0  0  0  0  0  0  0  0  0  0  0  0
  3  6  1  0
  3  1  1  0
  4  2  1  0
  4  6  1  0
  5  2  1  0
  5  7  1  0
  5  1  1  0
  6 53  1  0
  8  9  1  0
  8  7  1  0
 10  8  1  0
 11 24  1  0
 12 17  1  0
 13 14  1  0
 13 12  1  0
 15 14  1  0
 15 28  1  0
 15 16  1  0
 17 11  1  0
 17 16  1  0
 18 11  2  0
 19 23  1  0
 19 21  1  0
 20 23  1  0
 20 22  1  0
 23  8  1  0
 24 22  1  0
 24 21  1  0
 25 26  2  0
 26 45  1  0
 27 26  1  0
 27 30  1  0
 28 29  1  0
 28 25  1  0
 29 27  2  0
 30 31  1  0
 31 32  2  0
 33 36  1  0
 33 32  1  0
 34 33  2  0
 35 34  1  0
 35 30  2  0
 36 37  1  0
 37 38  1  0
 38 39  2  0
 40 39  1  0
 40 44  1  0
 41 40  2  0
 42 37  2  0
 42 41  1  0
 43 42  1  0
 45 46  1  0
 46 49  1  0
 46 48  1  0
 47 45  2  0
 50 51  1  0
 50 25  1  0
 52 50  1  0
 54 56  1  0
 54 53  1  0
 55 66  2  0
 56 61  1  0
 57 65  1  0
 57 67  1  0
 58 64  1  0
 58 60  1  0
 59 65  1  0
 60 59  1  0
 61 60  2  0
 62 63  1  0
 62 56  2  0
 63 58  2  0
 64 57  1  0
 65 55  1  0
 67 69  2  0
 68 67  1  0
 70 68  1  0
 71 80  2  0
 71 76  1  0
 72 68  1  0
 72 76  1  0
 73 72  1  0
 74 75  1  0
 74 73  1  0
 75 71  1  0
 76 77  2  0
 77 78  1  0
 79 78  2  0
 80 79  1  0
 81 55  1  0
 81 86  1  0
 81 82  1  0
 82 85  1  1
 82 83  1  0
 84 82  1  0
 86 89  1  0
 87 91  1  0
 87 86  1  0
 88 87  2  0
 91 90  1  0
 93 91  1  0
 93 94  1  0
 93 92  1  0
M  ISO  4  11 100  24 100  53 101  54 101
M  END
>  <TORSDO>  (36) 
F 19

>  <SCORE>  (36) 
-13.965

>  <name>  (36) 
35

>  <ligand_id>  (36) 
35

>  <original_smiles>  (36) 
[H]c1c([H])c([H])c2c(c1[H])C([H])([H])C([H])([H])C([H])([H])C2([H])N([H])C(=O)C1([H])N(C(=O)C([H])(N([H])C(=O)C([H])(N([H])C([H])([H])[H])C([H])([H])[H])C(C([H])([H])[H])(C([H])([H])[H])C([H])([H])[H])C([H])([H])c2c([H])c(OC([H])([H])C3([H])C([H])([H])C([H])([H])C([H])(C([H])([H])[N+]([H])([H])C4([H])C([H])([H])C([H])([H])N(C(=O)N5C([H])([H])C([H])([H])C([H])([H])C([H])(n6nc(-c7c([H])c([H])c(Oc8c([H])c([H])c(F)c([H])c8F)c([H])c7[H])c(C(=O)N([H])[H])c6N([H])[H])C5([H])[H])C([H])([H])C4([H])[H])C([H])([H])C3([H])[H])c([H])c([H])c2C1([H])[H]

>  <smiles>  (36) 
[H]c1c([H])c([H])c2c(c1[H])C([H])([H])C([H])([H])C([H])([H])C2([H])N([H])C(=O)C1([H])N(C(=O)C([H])(N([H])C(=O)C([H])(N([H])C([H])([H])[H])C([H])([H])[H])C(C([H])([H])[H])(C([H])([H])[H])C([H])([H])[H])C([H])([H])c2c([H])c(OC([H])([H])C3([H])C([H])([H])C([H])([H])C([H])(C([H])([H])[N+]([H])([H])C4([H])C([H])([H])C([H])([H])N(C(=O)N5C([H])([H])C([H])([H])C([H])([H])C([H])(n6nc(-c7c([H])c([H])c(Oc8c([H])c([H])c(F)c([H])c8F)c([H])c7[H])c(C(=O)N([H])[H])c6N([H])[H])C5([H])[H])C([H])([H])C4([H])[H])C([H])([H])C3([H])[H])c([H])c([H])c2C1([H])[H]

$$$$
36:0:0
     RDKit          3D

 88 96  0  0  1  0  0  0  0  0999 V2000
  -28.6120  -21.6890   20.3880 C   0  0  0  0  0  2  0  0  0  0  0  0
  -29.6490  -20.4830   20.2940 N   0  0  0  0  0  4  0  0  0  0  0  0
  -30.0660  -20.5330   19.3780 H   0  0  0  0  0  0  0  0  0  0  0  0
  -30.3850  -20.7200   20.9400 H   0  0  0  0  0  0  0  0  0  0  0  0
  -30.5480  -15.0480   20.2710 C   0  0  0  0  0  0  0  0  0  0  0  0
  -30.3740  -12.6970   19.3220 C   0  0  0  0  0  2  0  0  0  0  0  0
  -29.4260  -12.6140   18.1060 C   0  0  0  0  0  2  0  0  0  0  0  0
  -27.9800  -12.3640   18.5710 C   0  0  0  0  0  2  0  0  0  0  0  0
  -27.5680  -13.2980   19.7340 C   0  0  0  0  0  3  0  0  0  0  0  0
  -28.6440  -13.3870   20.8400 C   0  0  0  0  0  2  0  0  0  0  0  0
  -29.8940  -13.8120   20.1920 N   0  0  0  0  0  0  0  0  0  0  0  0
  -31.7700  -15.0210   20.0870 O   0  0  0  0  0  0  0  0  0  0  0  0
  -28.3490  -18.2100   19.6660 C   0  0  0  0  0  2  0  0  0  0  0  0
  -28.5190  -16.6590   19.9180 C   0  0  0  0  0  2  0  0  0  0  0  0
  -30.4650  -17.7520   20.5440 C   0  0  0  0  0  2  0  0  0  0  0  0
  -29.3330  -18.9440   20.5810 C   0  0  0  0  0  3  0  0  0  0  0  0
  -29.8820  -16.3230   20.3800 N   0  0  0  0  0  0  0  0  0  0  0  0
  -25.2000  -13.8710   20.5110 C   0  0  0  0  0  0  0  0  0  0  0  0
  -24.1450  -13.0920   20.8870 C   0  0  0  0  0  0  0  0  0  0  0  0
  -24.6130  -11.7430   20.8420 C   0  0  0  0  0  0  0  0  0  0  0  0
  -26.2440  -12.9960   20.2570 N   0  0  0  0  0  0  0  0  0  0  0  0
  -25.9020  -11.7120   20.5230 N   0  0  0  0  0  0  0  0  0  0  0  0
  -23.8940  -10.4790   21.0250 C   0  0  0  0  0  0  0  0  0  0  0  0
  -24.3200   -9.5160   21.9660 C   0  0  0  0  0  3  0  0  0  0  0  0
  -23.5980   -8.3160   22.1370 C   0  0  0  0  0  3  0  0  0  0  0  0
  -22.4370   -8.0700   21.3670 C   0  0  0  0  0  0  0  0  0  0  0  0
  -22.0310   -9.0210   20.4150 C   0  0  0  0  0  3  0  0  0  0  0  0
  -22.7530  -10.2130   20.2410 C   0  0  0  0  0  3  0  0  0  0  0  0
  -21.6890   -6.9210   21.4470 O   0  0  0  0  0  0  0  0  0  0  0  0
  -21.6050   -6.1990   22.6110 C   0  0  0  0  0  0  0  0  0  0  0  0
  -21.1140   -6.7670   23.8070 C   0  0  0  0  0  3  0  0  0  0  0  0
  -20.9790   -5.9700   24.9610 C   0  0  0  0  0  3  0  0  0  0  0  0
  -21.3240   -4.6060   24.9200 C   0  0  0  0  0  0  0  0  0  0  0  0
  -21.8090   -4.0380   23.7290 C   0  0  0  0  0  3  0  0  0  0  0  0
  -21.9460   -4.8310   22.5760 C   0  0  0  0  0  0  0  0  0  0  0  0
  -22.3930   -4.2740   21.4250 F   0  0  0  0  0  0  0  0  0  0  0  0
  -21.1870   -3.8370   26.0250 F   0  0  0  0  0  0  0  0  0  0  0  0
  -22.7490  -13.5640   21.1700 C   0  0  0  0  0  0  0  0  0  0  0  0
  -22.0300  -12.8600   22.0370 N   0  0  0  0  0  0  0  0  0  0  0  0
  -22.3060  -14.5920   20.6590 O   0  0  0  0  0  0  0  0  0  0  0  0
  -22.4020  -12.0290   22.4710 H   0  0  0  0  0  0  0  0  0  0  0  0
  -21.0930  -13.1590   22.2710 H   0  0  0  0  0  0  0  0  0  0  0  0
  -25.3470  -15.2430   20.3310 N   0  0  0  0  0  0  0  0  0  0  0  0
  -24.5640  -15.8790   20.4380 H   0  0  0  0  0  0  0  0  0  0  0  0
  -26.1700  -15.6850   19.9470 H   0  0  0  0  0  0  0  0  0  0  0  0
  -29.0320  -23.3370   20.2920 C   0  0  0  0  0  3  0  0  0  0  0  0
  -27.9540  -24.6450   20.2310 C   0  0  0  0  0  3  0  0  0  0  0  0
  -28.2370  -26.1870   20.2540 O   0  0  0  0  0  0  0  0  0  0  0  0
  -24.6210  -31.8990   23.2420 C   0  0  0  0  0  0  0  0  0  0  0  0
  -27.1770  -27.1720   20.2040 C   0  0  0  0  0  0  0  0  0  0  0  0
  -23.4110  -30.5070   21.6090 C   0  0  0  0  0  3  0  0  0  0  0  0
  -24.8500  -28.9270   20.1800 C   0  0  0  0  0  0  0  0  0  0  0  0
  -25.9650  -30.7640   21.4330 C   0  0  0  0  0  2  0  0  0  0  0  0
  -26.0340  -29.3710   20.7810 C   0  0  0  0  0  0  0  0  0  0  0  0
  -27.1990  -28.5120   20.7720 C   0  0  0  0  0  3  0  0  0  0  0  0
  -25.9620  -26.8320   19.5670 C   0  0  0  0  0  3  0  0  0  0  0  0
  -24.8280  -27.6710   19.5570 C   0  0  0  0  0  3  0  0  0  0  0  0
  -23.6250  -29.8270   20.2300 C   0  0  0  0  0  2  0  0  0  0  0  0
  -24.6860  -31.0780   22.1500 N   0  0  0  0  0  0  0  0  0  0  0  0
  -23.5370  -32.1860   23.7740 O   0  0  0  0  0  0  0  0  0  0  0  0
  -22.7320  -29.5010   22.5730 C   0  0  0  0  0  0  0  0  0  0  0  0
  -21.4030  -29.3330   22.4480 N   0  0  0  0  0  0  0  0  0  0  0  0
  -23.4030  -28.8750   23.3970 O   0  0  0  0  0  0  0  0  0  0  0  0
  -20.9180  -29.8870   21.7570 H   0  0  0  0  0  0  0  0  0  0  0  0
  -18.0200  -28.1410   22.9630 C   0  0  0  0  0  0  0  0  0  0  0  0
  -20.5800  -28.3980   23.2220 C   0  0  0  0  0  3  0  0  0  0  0  0
  -20.6770  -26.9650   22.6490 C   0  0  0  0  0  2  0  0  0  0  0  0
  -19.5720  -26.6430   21.6390 C   0  0  0  0  0  2  0  0  0  0  0  0
  -18.1940  -26.7900   22.2890 C   0  0  0  0  0  2  0  0  0  0  0  0
  -19.1410  -28.9020   23.3870 C   0  0  0  0  0  0  0  0  0  0  0  0
  -18.9240  -30.1650   23.9800 C   0  0  0  0  0  3  0  0  0  0  0  0
  -17.6210  -30.6650   24.1530 C   0  0  0  0  0  3  0  0  0  0  0  0
  -16.5140  -29.9020   23.7440 C   0  0  0  0  0  3  0  0  0  0  0  0
  -16.7150  -28.6400   23.1550 C   0  0  0  0  0  3  0  0  0  0  0  0
  -25.9020  -32.5320   23.8640 C   0  0  0  0  0  3  0  0  0  0  0  0
  -26.4180  -31.7590   25.1400 C   0  0  1  0  0  0  0  0  0  0  0  0
  -25.3250  -31.5230   26.2100 C   0  0  0  0  0  1  0  0  0  0  0  0
  -26.9990  -30.3810   24.7510 C   0  0  0  0  0  1  0  0  0  0  0  0
  -27.5700  -32.5510   25.8010 C   0  0  0  0  0  1  0  0  0  0  0  0
  -25.5920  -33.9290   24.2040 N   0  0  0  0  0  0  0  0  0  0  0  0
  -25.9030  -34.9880   23.4440 C   0  0  0  0  0  0  0  0  0  0  0  0
  -26.5460  -34.8900   22.3950 O   0  0  0  0  0  0  0  0  0  0  0  0
  -25.0180  -34.0790   25.0200 H   0  0  0  0  0  0  0  0  0  0  0  0
  -24.1540  -36.7750   23.1540 C   0  0  0  0  0  1  0  0  0  0  0  0
  -25.4260  -36.3740   23.9200 C   0  0  0  0  0  3  0  0  0  0  0  0
  -27.5810  -37.2750   24.6780 C   0  0  0  0  0  1  0  0  0  0  0  0
  -26.4480  -37.4340   23.7700 N   0  0  0  0  0  0  0  0  0  0  0  0
  -26.0420  -38.3520   23.9290 H   0  0  0  0  0  0  0  0  0  0  0  0
  2  1  1  0
  2  4  1  0
  3  2  1  0
  5 17  1  0
  6 11  1  0
  7  8  1  0
  7  6  1  0
  9  8  1  0
  9 21  1  0
  9 10  1  0
 11  5  1  0
 11 10  1  0
 12  5  2  0
 13 14  1  0
 13 16  1  0
 14 17  1  0
 15 16  1  0
 16  2  1  0
 17 15  1  0
 18 19  2  0
 19 38  1  0
 20 19  1  0
 20 23  1  0
 21 18  1  0
 21 22  1  0
 22 20  2  0
 23 24  1  0
 24 25  2  0
 26 29  1  0
 26 25  1  0
 27 26  2  0
 28 27  1  0
 28 23  2  0
 29 30  1  0
 30 31  1  0
 31 32  2  0
 33 32  1  0
 33 37  1  0
 34 33  2  0
 35 30  2  0
 35 34  1  0
 36 35  1  0
 38 39  1  0
 39 42  1  0
 39 41  1  0
 40 38  2  0
 43 44  1  0
 43 18  1  0
 45 43  1  0
 46  1  1  0
 47 48  1  0
 47 46  2  0
 49 60  2  0
 50 48  1  0
 50 55  1  0
 51 59  1  0
 51 61  1  0
 52 58  1  0
 52 54  1  0
 53 59  1  0
 54 53  1  0
 55 54  2  0
 56 50  2  0
 57 56  1  0
 57 52  2  0
 58 51  1  0
 59 49  1  0
 61 63  2  0
 62 61  1  0
 64 62  1  0
 65 74  2  0
 65 70  1  0
 66 62  1  0
 66 70  1  0
 67 66  1  0
 68 69  1  0
 68 67  1  0
 69 65  1  0
 70 71  2  0
 71 72  1  0
 73 72  2  0
 74 73  1  0
 75 49  1  0
 75 80  1  0
 75 76  1  0
 76 79  1  1
 76 77  1  0
 78 76  1  0
 80 83  1  0
 81 85  1  0
 81 80  1  0
 82 81  2  0
 85 84  1  0
 87 85  1  0
 87 88  1  0
 87 86  1  0
M  ISO  4   5 100  17 100  47 101  48 101
M  END
>  <TORSDO>  (37) 
F 19

>  <SCORE>  (37) 
-15.412

>  <name>  (37) 
36

>  <ligand_id>  (37) 
36

>  <original_smiles>  (37) 
[H]c1c([H])c([H])c2c(c1[H])C([H])([H])C([H])([H])C([H])([H])C2([H])N([H])C(=O)C1([H])N(C(=O)C([H])(N([H])C(=O)C([H])(N([H])C([H])([H])[H])C([H])([H])[H])C(C([H])([H])[H])(C([H])([H])[H])C([H])([H])[H])C([H])([H])c2c([H])c(OC([H])([H])C([H])([H])C([H])([H])[N+]([H])([H])C3([H])C([H])([H])N(C(=O)N4C([H])([H])C([H])([H])C([H])([H])C([H])(n5nc(-c6c([H])c([H])c(Oc7c([H])c([H])c(F)c([H])c7F)c([H])c6[H])c(C(=O)N([H])[H])c5N([H])[H])C4([H])[H])C([H])([H])C3([H])[H])c([H])c([H])c2C1([H])[H]

>  <smiles>  (37) 
[H]c1c([H])c([H])c2c(c1[H])C([H])([H])C([H])([H])C([H])([H])C2([H])N([H])C(=O)C1([H])N(C(=O)C([H])(N([H])C(=O)C([H])(N([H])C([H])([H])[H])C([H])([H])[H])C(C([H])([H])[H])(C([H])([H])[H])C([H])([H])[H])C([H])([H])c2c([H])c(OC([H])([H])C([H])([H])C([H])([H])[N+]([H])([H])C3([H])C([H])([H])N(C(=O)N4C([H])([H])C([H])([H])C([H])([H])C([H])(n5nc(-c6c([H])c([H])c(Oc7c([H])c([H])c(F)c([H])c7F)c([H])c6[H])c(C(=O)N([H])[H])c5N([H])[H])C4([H])[H])C([H])([H])C3([H])[H])c([H])c([H])c2C1([H])[H]

$$$$
37:0:0
     RDKit          3D

 95104  0  0  1  0  0  0  0  0999 V2000
  -29.4250  -18.4020   21.6280 C   0  0  0  0  0  2  0  0  0  0  0  0
  -30.6420  -18.2470   19.4920 C   0  0  0  0  0  2  0  0  0  0  0  0
  -29.7270  -19.9810   21.6370 C   0  0  0  0  0  2  0  0  0  0  0  0
  -29.8570  -19.6300   19.2150 C   0  0  0  0  0  3  0  0  0  0  0  0
  -30.4420  -17.4830   20.8580 C   0  0  0  0  0  3  0  0  0  0  0  0
  -29.8790  -20.6890   20.3040 N   0  0  1  0  0  4  0  0  0  0  0  0
  -30.8280  -21.0280   20.2990 H   0  0  0  0  0  0  0  0  0  0  0  0
  -30.9060  -14.8220   20.5890 C   0  0  0  0  0  0  0  0  0  0  0  0
  -30.7380  -12.5460   19.5360 C   0  0  0  0  0  2  0  0  0  0  0  0
  -29.8100  -12.6110   18.3020 C   0  0  0  0  0  2  0  0  0  0  0  0
  -28.3380  -12.4210   18.7150 C   0  0  0  0  0  2  0  0  0  0  0  0
  -27.9450  -13.2960   19.9350 C   0  0  0  0  0  3  0  0  0  0  0  0
  -28.9920  -13.2070   21.0660 C   0  0  0  0  0  2  0  0  0  0  0  0
  -30.2860  -13.5900   20.4910 N   0  0  0  0  0  0  0  0  0  0  0  0
  -32.1000  -14.9210   20.2940 O   0  0  0  0  0  0  0  0  0  0  0  0
  -30.1220  -15.9600   20.8150 N   0  0  0  0  0  0  0  0  0  0  0  0
  -29.1550  -15.7330   20.9930 H   0  0  0  0  0  0  0  0  0  0  0  0
  -25.5570  -13.8770   20.6650 C   0  0  0  0  0  0  0  0  0  0  0  0
  -24.4830  -13.0990   21.0010 C   0  0  0  0  0  0  0  0  0  0  0  0
  -24.9370  -11.7470   20.9310 C   0  0  0  0  0  0  0  0  0  0  0  0
  -26.5960  -12.9990   20.4080 N   0  0  0  0  0  0  0  0  0  0  0  0
  -26.2310  -11.7100   20.6330 N   0  0  0  0  0  0  0  0  0  0  0  0
  -24.2000  -10.4840   21.0720 C   0  0  0  0  0  0  0  0  0  0  0  0
  -24.6110   -9.4860   21.9820 C   0  0  0  0  0  3  0  0  0  0  0  0
  -23.8730   -8.2890   22.1140 C   0  0  0  0  0  3  0  0  0  0  0  0
  -22.7110   -8.0830   21.3340 C   0  0  0  0  0  0  0  0  0  0  0  0
  -22.3180   -9.0690   20.4140 C   0  0  0  0  0  3  0  0  0  0  0  0
  -23.0570  -10.2570   20.2800 C   0  0  0  0  0  3  0  0  0  0  0  0
  -21.9470   -6.9420   21.3770 O   0  0  0  0  0  0  0  0  0  0  0  0
  -21.8540   -6.1780   22.5140 C   0  0  0  0  0  0  0  0  0  0  0  0
  -21.3780   -6.7110   23.7310 C   0  0  0  0  0  3  0  0  0  0  0  0
  -21.2340   -5.8750   24.8560 C   0  0  0  0  0  3  0  0  0  0  0  0
  -21.5550   -4.5080   24.7650 C   0  0  0  0  0  0  0  0  0  0  0  0
  -22.0250   -3.9750   23.5510 C   0  0  0  0  0  3  0  0  0  0  0  0
  -22.1710   -4.8080   22.4280 C   0  0  0  0  0  0  0  0  0  0  0  0
  -22.6040   -4.2850   21.2550 F   0  0  0  0  0  0  0  0  0  0  0  0
  -21.4100   -3.7020   25.8430 F   0  0  0  0  0  0  0  0  0  0  0  0
  -23.0870  -13.5780   21.2720 C   0  0  0  0  0  0  0  0  0  0  0  0
  -22.3480  -12.8670   22.1170 N   0  0  0  0  0  0  0  0  0  0  0  0
  -22.6580  -14.6160   20.7700 O   0  0  0  0  0  0  0  0  0  0  0  0
  -22.7090  -12.0270   22.5450 H   0  0  0  0  0  0  0  0  0  0  0  0
  -21.4100  -13.1670   22.3410 H   0  0  0  0  0  0  0  0  0  0  0  0
  -25.7310  -15.2510   20.5310 N   0  0  0  0  0  0  0  0  0  0  0  0
  -24.9610  -15.9010   20.6430 H   0  0  0  0  0  0  0  0  0  0  0  0
  -26.5700  -15.6920   20.1770 H   0  0  0  0  0  0  0  0  0  0  0  0
  -31.1030  -21.3570   15.4140 C   0  0  0  0  0  3  0  0  0  0  0  0
  -32.0140  -21.2860   16.4850 C   0  0  0  0  0  3  0  0  0  0  0  0
  -29.7950  -20.8620   15.5700 C   0  0  0  0  0  3  0  0  0  0  0  0
  -31.6160  -20.7220   17.7140 C   0  0  0  0  0  3  0  0  0  0  0  0
  -29.3960  -20.2980   16.7970 C   0  0  0  0  0  3  0  0  0  0  0  0
  -30.3010  -20.2270   17.8800 C   0  0  0  0  0  0  0  0  0  0  0  0
  -29.0010  -21.9730   20.0590 C   0  0  0  0  0  2  0  0  0  0  0  0
  -29.5200  -23.5190   20.3180 C   0  0  0  0  0  3  0  0  0  0  0  0
  -28.5280  -24.7940   19.9790 C   0  0  0  0  0  3  0  0  0  0  0  0
  -28.7700  -26.2720   20.2840 O   0  0  0  0  0  0  0  0  0  0  0  0
  -24.8060  -31.6440   23.2720 C   0  0  0  0  0  0  0  0  0  0  0  0
  -27.6860  -27.1980   20.1880 C   0  0  0  0  0  0  0  0  0  0  0  0
  -23.7500  -30.3240   21.4770 C   0  0  0  0  0  3  0  0  0  0  0  0
  -25.3250  -28.8610   20.0810 C   0  0  0  0  0  0  0  0  0  0  0  0
  -26.2990  -30.6530   21.5060 C   0  0  0  0  0  2  0  0  0  0  0  0
  -26.4470  -29.3050   20.7920 C   0  0  0  0  0  0  0  0  0  0  0  0
  -27.6310  -28.4890   20.8320 C   0  0  0  0  0  3  0  0  0  0  0  0
  -26.5380  -26.8420   19.4450 C   0  0  0  0  0  3  0  0  0  0  0  0
  -25.3790  -27.6400   19.3950 C   0  0  0  0  0  3  0  0  0  0  0  0
  -24.0780  -29.7280   20.0830 C   0  0  0  0  0  2  0  0  0  0  0  0
  -24.9680  -30.8910   22.1440 N   0  0  0  0  0  0  0  0  0  0  0  0
  -23.6810  -31.8840   23.7340 O   0  0  0  0  0  0  0  0  0  0  0  0
  -23.0260  -29.2530   22.3300 C   0  0  0  0  0  0  0  0  0  0  0  0
  -21.7000  -29.1300   22.1570 N   0  0  0  0  0  0  0  0  0  0  0  0
  -23.6620  -28.5390   23.1110 O   0  0  0  0  0  0  0  0  0  0  0  0
  -21.2460  -29.7570   21.5080 H   0  0  0  0  0  0  0  0  0  0  0  0
  -18.2620  -28.0640   22.5560 C   0  0  0  0  0  0  0  0  0  0  0  0
  -20.8330  -28.1540   22.8250 C   0  0  0  0  0  3  0  0  0  0  0  0
  -20.8540  -26.7950   22.0890 C   0  0  0  0  0  2  0  0  0  0  0  0
  -19.7310  -26.6500   21.0570 C   0  0  0  0  0  2  0  0  0  0  0  0
  -18.3620  -26.7930   21.7280 C   0  0  0  0  0  2  0  0  0  0  0  0
  -19.4220  -28.7110   23.0570 C   0  0  0  0  0  0  0  0  0  0  0  0
  -19.2740  -29.9070   23.7930 C   0  0  0  0  0  3  0  0  0  0  0  0
  -17.9990  -30.4540   24.0300 C   0  0  0  0  0  3  0  0  0  0  0  0
  -16.8530  -29.8010   23.5450 C   0  0  0  0  0  3  0  0  0  0  0  0
  -16.9850  -28.6060   22.8130 C   0  0  0  0  0  3  0  0  0  0  0  0
  -26.0260  -32.2600   24.0220 C   0  0  0  0  0  3  0  0  0  0  0  0
  -26.4190  -31.4630   25.3260 C   0  0  1  0  0  0  0  0  0  0  0  0
  -25.2320  -31.2200   26.2890 C   0  0  0  0  0  1  0  0  0  0  0  0
  -27.0210  -30.0850   24.9660 C   0  0  0  0  0  1  0  0  0  0  0  0
  -27.5130  -32.2330   26.1010 C   0  0  0  0  0  1  0  0  0  0  0  0
  -25.6910  -33.6530   24.3510 N   0  0  0  0  0  0  0  0  0  0  0  0
  -26.0650  -34.7200   23.6330 C   0  0  0  0  0  0  0  0  0  0  0  0
  -26.7970  -34.6330   22.6420 O   0  0  0  0  0  0  0  0  0  0  0  0
  -25.0490  -33.7930   25.1180 H   0  0  0  0  0  0  0  0  0  0  0  0
  -24.3440  -36.5070   23.2180 C   0  0  0  0  0  1  0  0  0  0  0  0
  -25.5490  -36.1000   24.0810 C   0  0  0  0  0  3  0  0  0  0  0  0
  -27.6320  -36.9950   25.0240 C   0  0  0  0  0  1  0  0  0  0  0  0
  -26.5790  -37.1620   24.0260 N   0  0  0  0  0  0  0  0  0  0  0  0
  -26.1590  -38.0780   24.1580 H   0  0  0  0  0  0  0  0  0  0  0  0
  1  3  1  0
  2  5  1  0
  4 51  1  0
  4  2  1  0
  4  6  1  0
  5 16  1  0
  5  1  1  0
  6  3  1  0
  6  7  1  1
  8 16  1  0
  9 14  1  0
 10 11  1  0
 10  9  1  0
 12 11  1  0
 12 21  1  0
 12 13  1  0
 14  8  1  0
 14 13  1  0
 15  8  2  0
 16 17  1  0
 18 19  2  0
 19 38  1  0
 20 19  1  0
 20 23  1  0
 21 22  1  0
 21 18  1  0
 22 20  2  0
 23 24  1  0
 24 25  2  0
 26 29  1  0
 26 25  1  0
 27 26  2  0
 28 27  1  0
 28 23  2  0
 29 30  1  0
 30 31  1  0
 31 32  2  0
 33 32  1  0
 33 37  1  0
 34 33  2  0
 35 30  2  0
 35 34  1  0
 36 35  1  0
 38 39  1  0
 39 42  1  0
 39 41  1  0
 40 38  2  0
 43 44  1  0
 43 18  1  0
 45 43  1  0
 46 48  2  0
 46 47  1  0
 47 49  2  0
 48 50  1  0
 49 51  1  0
 50 51  2  0
 52  6  1  0
 52 53  1  0
 54 55  1  0
 54 53  2  0
 56 67  2  0
 57 55  1  0
 57 62  1  0
 58 66  1  0
 58 68  1  0
 59 65  1  0
 59 61  1  0
 60 66  1  0
 61 62  2  0
 61 60  1  0
 63 57  2  0
 64 63  1  0
 64 59  2  0
 65 58  1  0
 66 56  1  0
 68 70  2  0
 69 68  1  0
 71 69  1  0
 72 81  2  0
 72 77  1  0
 73 69  1  0
 73 77  1  0
 74 73  1  0
 75 76  1  0
 75 74  1  0
 76 72  1  0
 77 78  2  0
 78 79  1  0
 80 79  2  0
 81 80  1  0
 82 56  1  0
 82 87  1  0
 82 83  1  0
 83 86  1  1
 83 84  1  0
 85 83  1  0
 87 90  1  0
 88 92  1  0
 88 87  1  0
 89 88  2  0
 92 91  1  0
 94 92  1  0
 94 95  1  0
 94 93  1  0
M  ISO  4   8 100  16 100  54 101  55 101
M  END
>  <TORSDO>  (38) 
F 20

>  <SCORE>  (38) 
-12.405

>  <name>  (38) 
37

>  <ligand_id>  (38) 
37

>  <original_smiles>  (38) 
[H]c1c([H])c([H])c(C2([H])C([H])([H])C([H])(N([H])C(=O)N3C([H])([H])C([H])([H])C([H])([H])C([H])(n4nc(-c5c([H])c([H])c(Oc6c([H])c([H])c(F)c([H])c6F)c([H])c5[H])c(C(=O)N([H])[H])c4N([H])[H])C3([H])[H])C([H])([H])C([H])([H])[N+]2([H])C([H])([H])C([H])([H])C([H])([H])Oc2c([H])c([H])c3c(c2[H])C([H])([H])N(C(=O)C([H])(N([H])C(=O)C([H])(N([H])C([H])([H])[H])C([H])([H])[H])C(C([H])([H])[H])(C([H])([H])[H])C([H])([H])[H])C([H])(C(=O)N([H])C2([H])c4c([H])c([H])c([H])c([H])c4C([H])([H])C([H])([H])C2([H])[H])C3([H])[H])c([H])c1[H]

>  <smiles>  (38) 
[H]c1c([H])c([H])c(C2([H])C([H])([H])C([H])(N([H])C(=O)N3C([H])([H])C([H])([H])C([H])([H])C([H])(n4nc(-c5c([H])c([H])c(Oc6c([H])c([H])c(F)c([H])c6F)c([H])c5[H])c(C(=O)N([H])[H])c4N([H])[H])C3([H])[H])C([H])([H])C([H])([H])[N+]2([H])C([H])([H])C([H])([H])C([H])([H])Oc2c([H])c([H])c3c(c2[H])C([H])([H])N(C(=O)C([H])(N([H])C(=O)C([H])(N([H])C([H])([H])[H])C([H])([H])[H])C(C([H])([H])[H])(C([H])([H])[H])C([H])([H])[H])C([H])(C(=O)N([H])C2([H])c4c([H])c([H])c([H])c([H])c4C([H])([H])C([H])([H])C2([H])[H])C3([H])[H])c([H])c1[H]

$$$$
38:0:0
     RDKit          3D

 90 98  0  0  1  0  0  0  0  0999 V2000
  -27.1120  -20.5560   20.3710 C   0  0  0  0  0  2  0  0  0  0  0  0
  -27.4010  -22.0720   20.4550 C   0  0  0  0  0  2  0  0  0  0  0  0
  -28.0990  -19.8040   19.4520 C   0  0  0  0  0  2  0  0  0  0  0  0
  -29.7850  -21.2290   20.6150 C   0  0  0  0  0  2  0  0  0  0  0  0
  -28.8600  -22.4390   20.0920 C   0  0  0  0  0  3  0  0  0  0  0  0
  -29.4930  -19.8630   19.9740 N   0  0  1  0  0  4  0  0  0  0  0  0
  -30.0770  -19.8480   19.1520 H   0  0  0  0  0  0  0  0  0  0  0  0
  -29.1870  -23.9700   20.4810 C   0  0  0  0  0  3  0  0  0  0  0  0
  -28.2560  -25.1070   19.8440 C   0  0  0  0  0  3  0  0  0  0  0  0
  -28.3960  -26.5390   20.2200 O   0  0  0  0  0  0  0  0  0  0  0  0
  -24.6200  -31.9060   23.2380 C   0  0  0  0  0  0  0  0  0  0  0  0
  -27.2720  -27.3900   20.1440 C   0  0  0  0  0  0  0  0  0  0  0  0
  -23.4290  -30.5190   21.5780 C   0  0  0  0  0  3  0  0  0  0  0  0
  -24.8950  -28.9950   20.1360 C   0  0  0  0  0  0  0  0  0  0  0  0
  -25.9660  -30.8470   21.4110 C   0  0  0  0  0  2  0  0  0  0  0  0
  -26.0540  -29.4740   20.7570 C   0  0  0  0  0  0  0  0  0  0  0  0
  -27.2420  -28.6810   20.7620 C   0  0  0  0  0  3  0  0  0  0  0  0
  -26.0950  -26.9830   19.4720 C   0  0  0  0  0  3  0  0  0  0  0  0
  -24.9190  -27.7570   19.4770 C   0  0  0  0  0  3  0  0  0  0  0  0
  -23.6490  -29.8570   20.1920 C   0  0  0  0  0  2  0  0  0  0  0  0
  -24.6910  -31.1080   22.1330 N   0  0  0  0  0  0  0  0  0  0  0  0
  -23.5310  -32.1740   23.7690 O   0  0  0  0  0  0  0  0  0  0  0  0
  -22.7680  -29.4900   22.5240 C   0  0  0  0  0  0  0  0  0  0  0  0
  -21.4450  -29.3040   22.3810 N   0  0  0  0  0  0  0  0  0  0  0  0
  -23.4430  -28.8600   23.3420 O   0  0  0  0  0  0  0  0  0  0  0  0
  -20.9600  -29.8670   21.6970 H   0  0  0  0  0  0  0  0  0  0  0  0
  -18.0730  -28.0680   22.8200 C   0  0  0  0  0  0  0  0  0  0  0  0
  -20.6250  -28.3490   23.1270 C   0  0  0  0  0  3  0  0  0  0  0  0
  -20.7510  -26.9290   22.5240 C   0  0  0  0  0  2  0  0  0  0  0  0
  -19.6610  -26.6130   21.4960 C   0  0  0  0  0  2  0  0  0  0  0  0
  -18.2750  -26.7260   22.1350 C   0  0  0  0  0  2  0  0  0  0  0  0
  -19.1790  -28.8380   23.2700 C   0  0  0  0  0  0  0  0  0  0  0  0
  -18.9410  -30.0940   23.8670 C   0  0  0  0  0  3  0  0  0  0  0  0
  -17.6290  -30.5840   24.0190 C   0  0  0  0  0  3  0  0  0  0  0  0
  -16.5380  -29.8130   23.5810 C   0  0  0  0  0  3  0  0  0  0  0  0
  -16.7610  -28.5570   22.9900 C   0  0  0  0  0  3  0  0  0  0  0  0
  -25.8970  -32.5380   23.8720 C   0  0  0  0  0  3  0  0  0  0  0  0
  -26.3920  -31.7700   25.1580 C   0  0  1  0  0  0  0  0  0  0  0  0
  -25.2850  -31.5370   26.2110 C   0  0  0  0  0  1  0  0  0  0  0  0
  -26.9770  -30.3900   24.7780 C   0  0  0  0  0  1  0  0  0  0  0  0
  -27.5350  -32.5620   25.8350 C   0  0  0  0  0  1  0  0  0  0  0  0
  -25.5840  -33.9390   24.1950 N   0  0  0  0  0  0  0  0  0  0  0  0
  -25.9210  -34.9890   23.4340 C   0  0  0  0  0  0  0  0  0  0  0  0
  -26.5980  -34.8810   22.4070 O   0  0  0  0  0  0  0  0  0  0  0  0
  -24.9860  -34.0980   24.9930 H   0  0  0  0  0  0  0  0  0  0  0  0
  -24.1960  -36.7820   23.0600 C   0  0  0  0  0  1  0  0  0  0  0  0
  -25.4320  -36.3800   23.8810 C   0  0  0  0  0  3  0  0  0  0  0  0
  -27.5610  -37.2700   24.7240 C   0  0  0  0  0  1  0  0  0  0  0  0
  -26.4670  -37.4320   23.7690 N   0  0  0  0  0  0  0  0  0  0  0  0
  -26.0590  -38.3530   23.9080 H   0  0  0  0  0  0  0  0  0  0  0  0
  -29.8710  -18.5760   20.7160 C   0  0  0  0  0  2  0  0  0  0  0  0
  -30.1720  -17.2860   19.8090 C   0  0  0  0  0  2  0  0  0  0  0  0
  -30.7810  -14.7740   20.0990 C   0  0  0  0  0  0  0  0  0  0  0  0
  -30.4850  -12.5420   19.0570 C   0  0  0  0  0  2  0  0  0  0  0  0
  -29.5210  -12.7060   17.8630 C   0  0  0  0  0  2  0  0  0  0  0  0
  -28.0580  -12.5650   18.3270 C   0  0  0  0  0  2  0  0  0  0  0  0
  -27.7440  -13.4010   19.5980 C   0  0  0  0  0  3  0  0  0  0  0  0
  -28.8380  -13.2450   20.6800 C   0  0  0  0  0  2  0  0  0  0  0  0
  -30.1310  -13.5670   20.0600 N   0  0  0  0  0  0  0  0  0  0  0  0
  -31.9280  -14.8910   19.6650 O   0  0  0  0  0  0  0  0  0  0  0  0
  -30.0340  -15.8900   20.3920 N   0  0  0  0  0  0  0  0  0  0  0  0
  -29.1300  -15.6790   20.7860 H   0  0  0  0  0  0  0  0  0  0  0  0
  -25.3740  -13.9900   20.3920 C   0  0  0  0  0  0  0  0  0  0  0  0
  -24.3160  -13.2180   20.7840 C   0  0  0  0  0  0  0  0  0  0  0  0
  -24.7740  -11.8650   20.7300 C   0  0  0  0  0  0  0  0  0  0  0  0
  -26.4110  -13.1110   20.1210 N   0  0  0  0  0  0  0  0  0  0  0  0
  -26.0560  -11.8260   20.3850 N   0  0  0  0  0  0  0  0  0  0  0  0
  -24.0470  -10.6070   20.9420 C   0  0  0  0  0  0  0  0  0  0  0  0
  -24.4850   -9.6490   21.8810 C   0  0  0  0  0  3  0  0  0  0  0  0
  -23.7590   -8.4560   22.0800 C   0  0  0  0  0  3  0  0  0  0  0  0
  -22.5780   -8.2120   21.3380 C   0  0  0  0  0  0  0  0  0  0  0  0
  -22.1580   -9.1600   20.3890 C   0  0  0  0  0  3  0  0  0  0  0  0
  -22.8860  -10.3440   20.1890 C   0  0  0  0  0  3  0  0  0  0  0  0
  -21.8230   -7.0680   21.4450 O   0  0  0  0  0  0  0  0  0  0  0  0
  -21.7670   -6.3480   22.6110 C   0  0  0  0  0  0  0  0  0  0  0  0
  -21.3170   -6.9230   23.8190 C   0  0  0  0  0  3  0  0  0  0  0  0
  -21.2060   -6.1290   24.9790 C   0  0  0  0  0  3  0  0  0  0  0  0
  -21.5360   -4.7610   24.9290 C   0  0  0  0  0  0  0  0  0  0  0  0
  -21.9760   -4.1860   23.7240 C   0  0  0  0  0  3  0  0  0  0  0  0
  -22.0870   -4.9760   22.5660 C   0  0  0  0  0  0  0  0  0  0  0  0
  -22.4910   -4.4110   21.4020 F   0  0  0  0  0  0  0  0  0  0  0  0
  -21.4230   -3.9940   26.0380 F   0  0  0  0  0  0  0  0  0  0  0  0
  -22.9290  -13.7010   21.0970 C   0  0  0  0  0  0  0  0  0  0  0  0
  -22.2200  -13.0090   21.9800 N   0  0  0  0  0  0  0  0  0  0  0  0
  -22.4830  -14.7290   20.5880 O   0  0  0  0  0  0  0  0  0  0  0  0
  -22.5920  -12.1760   22.4110 H   0  0  0  0  0  0  0  0  0  0  0  0
  -21.2900  -13.3190   22.2280 H   0  0  0  0  0  0  0  0  0  0  0  0
  -25.5330  -15.3620   20.2210 N   0  0  0  0  0  0  0  0  0  0  0  0
  -24.7600  -16.0040   20.3710 H   0  0  0  0  0  0  0  0  0  0  0  0
  -26.3670  -15.8150   19.8740 H   0  0  0  0  0  0  0  0  0  0  0  0
  1  2  1  0
  3  6  1  0
  3  1  1  0
  5  2  1  0
  5  8  1  0
  5  4  1  0
  6  4  1  0
  6 51  1  0
  6  7  1  6
  9 10  1  0
  9  8  2  0
 11 22  2  0
 12 10  1  0
 12 17  1  0
 13 21  1  0
 13 23  1  0
 14 20  1  0
 14 16  1  0
 15 21  1  0
 16 17  2  0
 16 15  1  0
 18 19  1  0
 18 12  2  0
 19 14  2  0
 20 13  1  0
 21 11  1  0
 23 25  2  0
 24 23  1  0
 26 24  1  0
 27 36  2  0
 27 32  1  0
 28 24  1  0
 28 32  1  0
 29 28  1  0
 30 31  1  0
 30 29  1  0
 31 27  1  0
 32 33  2  0
 33 34  1  0
 35 34  2  0
 36 35  1  0
 37 11  1  0
 37 42  1  0
 37 38  1  0
 38 41  1  1
 38 39  1  0
 40 38  1  0
 42 45  1  0
 43 47  1  0
 43 42  1  0
 44 43  2  0
 47 46  1  0
 49 47  1  0
 49 50  1  0
 49 48  1  0
 52 61  1  0
 52 51  1  0
 53 61  1  0
 54 59  1  0
 55 56  1  0
 55 54  1  0
 57 56  1  0
 57 66  1  0
 57 58  1  0
 59 53  1  0
 59 58  1  0
 60 53  2  0
 61 62  1  0
 63 64  2  0
 64 83  1  0
 65 64  1  0
 65 68  1  0
 66 67  1  0
 66 63  1  0
 67 65  2  0
 68 69  1  0
 69 70  2  0
 71 74  1  0
 71 70  1  0
 72 71  2  0
 73 72  1  0
 73 68  2  0
 74 75  1  0
 75 76  1  0
 76 77  2  0
 78 77  1  0
 78 82  1  0
 79 78  2  0
 80 75  2  0
 80 79  1  0
 81 80  1  0
 83 84  1  0
 84 87  1  0
 84 86  1  0
 85 83  2  0
 88 89  1  0
 88 63  1  0
 90 88  1  0
M  ISO  4   9 101  10 101  53 100  61 100
M  END
>  <TORSDO>  (39) 
F 20

>  <SCORE>  (39) 
-12.959

>  <name>  (39) 
38

>  <ligand_id>  (39) 
38

>  <original_smiles>  (39) 
[H]c1c([H])c([H])c2c(c1[H])C([H])([H])C([H])([H])C([H])([H])C2([H])N([H])C(=O)C1([H])N(C(=O)C([H])(N([H])C(=O)C([H])(N([H])C([H])([H])[H])C([H])([H])[H])C(C([H])([H])[H])(C([H])([H])[H])C([H])([H])[H])C([H])([H])c2c([H])c(OC([H])([H])C([H])([H])C3([H])C([H])([H])C([H])([H])C([H])([H])[N+]([H])(C([H])([H])C([H])([H])N([H])C(=O)N4C([H])([H])C([H])([H])C([H])([H])C([H])(n5nc(-c6c([H])c([H])c(Oc7c([H])c([H])c(F)c([H])c7F)c([H])c6[H])c(C(=O)N([H])[H])c5N([H])[H])C4([H])[H])C3([H])[H])c([H])c([H])c2C1([H])[H]

>  <smiles>  (39) 
[H]c1c([H])c([H])c2c(c1[H])C([H])([H])C([H])([H])C([H])([H])C2([H])N([H])C(=O)C1([H])N(C(=O)C([H])(N([H])C(=O)C([H])(N([H])C([H])([H])[H])C([H])([H])[H])C(C([H])([H])[H])(C([H])([H])[H])C([H])([H])[H])C([H])([H])c2c([H])c(OC([H])([H])C([H])([H])C3([H])C([H])([H])C([H])([H])C([H])([H])[N+]([H])(C([H])([H])C([H])([H])N([H])C(=O)N4C([H])([H])C([H])([H])C([H])([H])C([H])(n5nc(-c6c([H])c([H])c(Oc7c([H])c([H])c(F)c([H])c7F)c([H])c6[H])c(C(=O)N([H])[H])c5N([H])[H])C4([H])[H])C3([H])[H])c([H])c([H])c2C1([H])[H]

$$$$
39:0:0
     RDKit          3D

 89 98  0  0  1  0  0  0  0  0999 V2000
  -27.6140  -20.8160   18.9790 C   0  0  0  0  0  3  0  0  0  0  0  0
  -28.1940  -19.5360   19.3390 C   0  0  0  0  0  3  0  0  0  0  0  0
  -29.4830  -20.6660   21.0110 C   0  0  0  0  0  3  0  0  0  0  0  0
  -27.9660  -22.0480   19.6200 C   0  0  0  0  0  0  0  0  0  0  0  0
  -28.8810  -21.9780   20.6530 C   0  0  0  0  0  0  0  0  0  0  0  0
  -29.1890  -19.3620   20.3570 C   0  0  0  0  0  0  0  0  0  0  0  0
  -27.4880  -23.5290   19.3310 C   0  0  0  0  0  2  0  0  0  0  0  0
  -29.0570  -23.4860   21.1740 C   0  0  0  0  0  2  0  0  0  0  0  0
  -27.9670  -24.5230   20.4980 C   0  0  0  0  0  3  0  0  0  0  0  0
  -28.1800  -26.1030   20.3540 O   0  0  0  0  0  0  0  0  0  0  0  0
  -24.5790  -31.9090   23.2920 C   0  0  0  0  0  0  0  0  0  0  0  0
  -27.1340  -27.1170   20.3060 C   0  0  0  0  0  0  0  0  0  0  0  0
  -23.3850  -30.5160   21.6500 C   0  0  0  0  0  3  0  0  0  0  0  0
  -24.8300  -28.9170   20.2430 C   0  0  0  0  0  0  0  0  0  0  0  0
  -25.9450  -30.7520   21.5000 C   0  0  0  0  0  2  0  0  0  0  0  0
  -26.0130  -29.3490   20.8590 C   0  0  0  0  0  0  0  0  0  0  0  0
  -27.1670  -28.4690   20.8650 C   0  0  0  0  0  3  0  0  0  0  0  0
  -25.9280  -26.8010   19.6500 C   0  0  0  0  0  3  0  0  0  0  0  0
  -24.8060  -27.6610   19.6190 C   0  0  0  0  0  3  0  0  0  0  0  0
  -23.6170  -29.8350   20.2750 C   0  0  0  0  0  2  0  0  0  0  0  0
  -24.6570  -31.0840   22.2020 N   0  0  0  0  0  0  0  0  0  0  0  0
  -23.4900  -32.1950   23.8130 O   0  0  0  0  0  0  0  0  0  0  0  0
  -22.6950  -29.5180   22.6120 C   0  0  0  0  0  0  0  0  0  0  0  0
  -21.3700  -29.3390   22.4740 N   0  0  0  0  0  0  0  0  0  0  0  0
  -23.3590  -28.9040   23.4520 O   0  0  0  0  0  0  0  0  0  0  0  0
  -20.8830  -29.8840   21.7770 H   0  0  0  0  0  0  0  0  0  0  0  0
  -17.9910  -28.1220   22.9560 C   0  0  0  0  0  0  0  0  0  0  0  0
  -20.5480  -28.4030   23.2470 C   0  0  0  0  0  3  0  0  0  0  0  0
  -20.6660  -26.9670   22.6880 C   0  0  0  0  0  2  0  0  0  0  0  0
  -19.5770  -26.6280   21.6650 C   0  0  0  0  0  2  0  0  0  0  0  0
  -18.1860  -26.7710   22.2910 C   0  0  0  0  0  2  0  0  0  0  0  0
  -19.1020  -28.8960   23.3930 C   0  0  0  0  0  0  0  0  0  0  0  0
  -18.8650  -30.1610   23.9740 C   0  0  0  0  0  3  0  0  0  0  0  0
  -17.5560  -30.6530   24.1250 C   0  0  0  0  0  3  0  0  0  0  0  0
  -16.4600  -29.8780   23.7010 C   0  0  0  0  0  3  0  0  0  0  0  0
  -16.6810  -28.6150   23.1240 C   0  0  0  0  0  3  0  0  0  0  0  0
  -25.8530  -32.5470   23.9230 C   0  0  0  0  0  3  0  0  0  0  0  0
  -25.5500  -33.9560   24.2260 N   0  0  0  0  0  0  0  0  0  0  0  0
  -25.8920  -34.9970   23.4540 C   0  0  0  0  0  0  0  0  0  0  0  0
  -26.5550  -34.8700   22.4220 O   0  0  0  0  0  0  0  0  0  0  0  0
  -24.9710  -34.1310   25.0330 H   0  0  0  0  0  0  0  0  0  0  0  0
  -24.1770  -36.7990   23.0780 C   0  0  0  0  0  1  0  0  0  0  0  0
  -25.4190  -36.3980   23.8900 C   0  0  0  0  0  3  0  0  0  0  0  0
  -27.5580  -37.2880   24.7070 C   0  0  0  0  0  1  0  0  0  0  0  0
  -26.4620  -37.4410   23.7540 N   0  0  0  0  0  0  0  0  0  0  0  0
  -26.0600  -38.3670   23.8790 H   0  0  0  0  0  0  0  0  0  0  0  0
  -26.3370  -31.8030   25.2280 C   0  0  1  0  0  0  0  0  0  0  0  0
  -25.2220  -31.6030   26.2790 C   0  0  0  0  0  1  0  0  0  0  0  0
  -26.9130  -30.4130   24.8810 C   0  0  0  0  0  1  0  0  0  0  0  0
  -27.4860  -32.5970   25.8940 C   0  0  0  0  0  1  0  0  0  0  0  0
  -30.0030  -17.9040   20.6570 C   0  0  0  0  0  2  0  0  0  0  0  0
  -30.4290  -15.1410   20.3140 C   0  0  0  0  0  0  0  0  0  0  0  0
  -30.3760  -12.7660   19.3520 C   0  0  0  0  0  2  0  0  0  0  0  0
  -29.4290  -12.6420   18.1350 C   0  0  0  0  0  2  0  0  0  0  0  0
  -27.9800  -12.3980   18.5940 C   0  0  0  0  0  2  0  0  0  0  0  0
  -27.5660  -13.3270   19.7650 C   0  0  0  0  0  3  0  0  0  0  0  0
  -28.6290  -13.3810   20.8760 C   0  0  0  0  0  2  0  0  0  0  0  0
  -29.8610  -13.8580   20.2370 N   0  0  0  0  0  0  0  0  0  0  0  0
  -31.6420  -15.1940   20.0820 O   0  0  0  0  0  0  0  0  0  0  0  0
  -29.6380  -16.3470   20.4550 N   0  0  0  0  0  0  0  0  0  0  0  0
  -28.6500  -16.1620   20.5360 H   0  0  0  0  0  0  0  0  0  0  0  0
  -25.2040  -13.8770   20.5580 C   0  0  0  0  0  0  0  0  0  0  0  0
  -24.1470  -13.0910   20.9330 C   0  0  0  0  0  0  0  0  0  0  0  0
  -24.6170  -11.7430   20.8700 C   0  0  0  0  0  0  0  0  0  0  0  0
  -26.2420  -13.0080   20.2820 N   0  0  0  0  0  0  0  0  0  0  0  0
  -25.9030  -11.7180   20.5380 N   0  0  0  0  0  0  0  0  0  0  0  0
  -23.8990  -10.4750   21.0460 C   0  0  0  0  0  0  0  0  0  0  0  0
  -24.3380   -9.5040   21.9720 C   0  0  0  0  0  3  0  0  0  0  0  0
  -23.6190   -8.3010   22.1400 C   0  0  0  0  0  3  0  0  0  0  0  0
  -22.4490   -8.0610   21.3820 C   0  0  0  0  0  0  0  0  0  0  0  0
  -22.0290   -9.0220   20.4460 C   0  0  0  0  0  3  0  0  0  0  0  0
  -22.7460  -10.2170   20.2770 C   0  0  0  0  0  3  0  0  0  0  0  0
  -21.7010   -6.9110   21.4590 O   0  0  0  0  0  0  0  0  0  0  0  0
  -21.6310   -6.1750   22.6140 C   0  0  0  0  0  0  0  0  0  0  0  0
  -21.1270   -6.7180   23.8160 C   0  0  0  0  0  3  0  0  0  0  0  0
  -21.0120   -5.9060   24.9620 C   0  0  0  0  0  3  0  0  0  0  0  0
  -21.3850   -4.5500   24.9040 C   0  0  0  0  0  0  0  0  0  0  0  0
  -21.8820   -4.0050   23.7060 C   0  0  0  0  0  3  0  0  0  0  0  0
  -22.0000   -4.8150   22.5630 C   0  0  0  0  0  0  0  0  0  0  0  0
  -22.4590   -4.2810   21.4060 F   0  0  0  0  0  0  0  0  0  0  0  0
  -21.2670   -3.7670   26.0020 F   0  0  0  0  0  0  0  0  0  0  0  0
  -22.7540  -13.5590   21.2280 C   0  0  0  0  0  0  0  0  0  0  0  0
  -22.0420  -12.8440   22.0920 N   0  0  0  0  0  0  0  0  0  0  0  0
  -22.3070  -14.5920   20.7330 O   0  0  0  0  0  0  0  0  0  0  0  0
  -22.4180  -12.0050   22.5110 H   0  0  0  0  0  0  0  0  0  0  0  0
  -21.1080  -13.1370   22.3370 H   0  0  0  0  0  0  0  0  0  0  0  0
  -25.3550  -15.2520   20.4000 N   0  0  0  0  0  0  0  0  0  0  0  0
  -24.5810  -15.8970   20.5210 H   0  0  0  0  0  0  0  0  0  0  0  0
  -26.1730  -15.6930   19.9970 H   0  0  0  0  0  0  0  0  0  0  0  0
  1  2  2  0
  1  4  1  0
  2  6  1  0
  4  5  2  0
  5  3  1  0
  5  8  1  0
  6 51  1  0
  6  3  2  0
  7  4  1  0
  7  9  1  0
  9 10  1  0
  9  8  1  0
 11 22  2  0
 12 10  1  0
 12 17  1  0
 13 21  1  0
 13 23  1  0
 14 20  1  0
 14 16  1  0
 15 21  1  0
 16 17  2  0
 16 15  1  0
 18 12  2  0
 19 18  1  0
 19 14  2  0
 20 13  1  0
 21 11  1  0
 23 25  2  0
 24 23  1  0
 26 24  1  0
 27 36  2  0
 27 32  1  0
 28 24  1  0
 28 32  1  0
 29 28  1  0
 30 31  1  0
 30 29  1  0
 31 27  1  0
 32 33  2  0
 33 34  1  0
 35 34  2  0
 36 35  1  0
 37 11  1  0
 37 38  1  0
 37 47  1  0
 38 41  1  0
 39 43  1  0
 39 38  1  0
 40 39  2  0
 43 42  1  0
 45 46  1  0
 45 43  1  0
 45 44  1  0
 47 50  1  1
 47 48  1  0
 49 47  1  0
 52 60  1  0
 53 58  1  0
 54 55  1  0
 54 53  1  0
 56 55  1  0
 56 65  1  0
 56 57  1  0
 58 52  1  0
 58 57  1  0
 59 52  2  0
 60 61  1  0
 60 51  1  0
 62 63  2  0
 63 82  1  0
 64 63  1  0
 64 67  1  0
 65 66  1  0
 65 62  1  0
 66 64  2  0
 67 68  1  0
 68 69  2  0
 70 73  1  0
 70 69  1  0
 71 70  2  0
 72 71  1  0
 72 67  2  0
 73 74  1  0
 74 75  1  0
 75 76  2  0
 77 76  1  0
 77 81  1  0
 78 77  2  0
 79 74  2  0
 79 78  1  0
 80 79  1  0
 82 83  1  0
 83 86  1  0
 83 85  1  0
 84 82  2  0
 87 88  1  0
 87 62  1  0
 89 87  1  0
M  ISO  4   9 101  10 101  52 100  60 100
M  END
>  <TORSDO>  (40) 
F 17

>  <SCORE>  (40) 
-15.823

>  <name>  (40) 
39

>  <ligand_id>  (40) 
39

>  <original_smiles>  (40) 
[H]c1c([H])c([H])c2c(c1[H])C([H])([H])C([H])([H])C([H])([H])C2([H])N([H])C(=O)C1([H])N(C(=O)C([H])(N([H])C(=O)C([H])(N([H])C([H])([H])[H])C([H])([H])[H])C(C([H])([H])[H])(C([H])([H])[H])C([H])([H])[H])C([H])([H])c2c([H])c(OC3([H])C([H])([H])c4c([H])c([H])c(C([H])([H])N([H])C(=O)N5C([H])([H])C([H])([H])C([H])([H])C([H])(n6nc(-c7c([H])c([H])c(Oc8c([H])c([H])c(F)c([H])c8F)c([H])c7[H])c(C(=O)N([H])[H])c6N([H])[H])C5([H])[H])c([H])c4C3([H])[H])c([H])c([H])c2C1([H])[H]

>  <smiles>  (40) 
[H]c1c([H])c([H])c2c(c1[H])C([H])([H])C([H])([H])C([H])([H])C2([H])N([H])C(=O)C1([H])N(C(=O)C([H])(N([H])C(=O)C([H])(N([H])C([H])([H])[H])C([H])([H])[H])C(C([H])([H])[H])(C([H])([H])[H])C([H])([H])[H])C([H])([H])c2c([H])c(OC3([H])C([H])([H])c4c([H])c([H])c(C([H])([H])N([H])C(=O)N5C([H])([H])C([H])([H])C([H])([H])C([H])(n6nc(-c7c([H])c([H])c(Oc8c([H])c([H])c(F)c([H])c8F)c([H])c7[H])c(C(=O)N([H])[H])c6N([H])[H])C5([H])[H])c([H])c4C3([H])[H])c([H])c([H])c2C1([H])[H]

$$$$
40:0:0
     RDKit          3D

 95104  0  0  1  0  0  0  0  0999 V2000
  -25.9140  -17.3160   17.7660 C   0  0  0  0  0  2  0  0  0  0  0  0
  -26.8290  -18.5950   18.0880 C   0  0  0  0  0  2  0  0  0  0  0  0
  -26.8020  -18.1020   20.4730 C   0  0  0  0  0  2  0  0  0  0  0  0
  -26.2720  -15.8070   18.2010 C   0  0  0  0  0  2  0  0  0  0  0  0
  -25.7780  -16.7740   20.4230 C   0  0  0  0  0  2  0  0  0  0  0  0
  -26.7400  -19.3690   19.4800 C   0  0  0  0  0  3  0  0  0  0  0  0
  -26.2400  -15.4800   19.6690 N   0  0  1  0  0  4  0  0  0  0  0  0
  -27.2160  -15.6180   19.8940 H   0  0  0  0  0  0  0  0  0  0  0  0
  -27.7920  -20.5940   19.5670 N   0  0  0  0  0  4  0  0  0  0  0  0
  -27.7820  -20.9540   18.6240 H   0  0  0  0  0  0  0  0  0  0  0  0
  -28.7090  -20.1880   19.6760 H   0  0  0  0  0  0  0  0  0  0  0  0
  -27.7790  -21.9380   20.4420 C   0  0  0  0  0  2  0  0  0  0  0  0
  -28.5930  -23.3970   20.0150 C   0  0  0  0  0  3  0  0  0  0  0  0
  -28.7550  -24.8290   20.9480 C   0  0  0  0  0  3  0  0  0  0  0  0
  -29.2600  -26.3080   20.6360 O   0  0  0  0  0  0  0  0  0  0  0  0
  -25.2340  -31.8060   23.6790 C   0  0  0  0  0  0  0  0  0  0  0  0
  -28.3080  -27.3800   20.6170 C   0  0  0  0  0  0  0  0  0  0  0  0
  -24.3030  -30.3910   21.9080 C   0  0  0  0  0  3  0  0  0  0  0  0
  -25.9630  -29.0320   20.5240 C   0  0  0  0  0  0  0  0  0  0  0  0
  -26.8460  -30.8330   21.9880 C   0  0  0  0  0  2  0  0  0  0  0  0
  -27.0620  -29.4830   21.2680 C   0  0  0  0  0  0  0  0  0  0  0  0
  -28.2580  -28.6630   21.3140 C   0  0  0  0  0  3  0  0  0  0  0  0
  -27.2120  -27.0820   19.8070 C   0  0  0  0  0  3  0  0  0  0  0  0
  -26.0510  -27.8500   19.7910 C   0  0  0  0  0  3  0  0  0  0  0  0
  -24.6860  -29.8370   20.5180 C   0  0  0  0  0  2  0  0  0  0  0  0
  -25.4790  -31.0340   22.5780 N   0  0  0  0  0  0  0  0  0  0  0  0
  -24.0840  -31.9760   24.1100 O   0  0  0  0  0  0  0  0  0  0  0  0
  -23.6490  -29.2710   22.7550 C   0  0  0  0  0  0  0  0  0  0  0  0
  -22.3830  -28.9320   22.4500 N   0  0  0  0  0  0  0  0  0  0  0  0
  -24.2820  -28.7160   23.6580 O   0  0  0  0  0  0  0  0  0  0  0  0
  -21.9210  -29.4430   21.7090 H   0  0  0  0  0  0  0  0  0  0  0  0
  -19.1570  -27.2780   22.4690 C   0  0  0  0  0  0  0  0  0  0  0  0
  -21.5930  -27.8840   23.1010 C   0  0  0  0  0  3  0  0  0  0  0  0
  -21.9700  -26.4840   22.5630 C   0  0  0  0  0  2  0  0  0  0  0  0
  -21.0800  -26.0220   21.4050 C   0  0  0  0  0  2  0  0  0  0  0  0
  -19.6120  -25.9710   21.8400 C   0  0  0  0  0  2  0  0  0  0  0  0
  -20.0890  -28.1810   23.0490 C   0  0  0  0  0  0  0  0  0  0  0  0
  -19.6150  -29.3950   23.5920 C   0  0  0  0  0  3  0  0  0  0  0  0
  -18.2430  -29.7110   23.5670 C   0  0  0  0  0  3  0  0  0  0  0  0
  -17.3250  -28.8070   23.0080 C   0  0  0  0  0  3  0  0  0  0  0  0
  -17.7820  -27.5920   22.4640 C   0  0  0  0  0  3  0  0  0  0  0  0
  -26.3870  -32.5290   24.4370 C   0  0  0  0  0  3  0  0  0  0  0  0
  -25.9500  -33.9100   24.7040 N   0  0  0  0  0  0  0  0  0  0  0  0
  -26.2970  -34.9800   23.9750 C   0  0  0  0  0  0  0  0  0  0  0  0
  -27.0880  -34.9120   23.0320 O   0  0  0  0  0  0  0  0  0  0  0  0
  -25.2600  -34.0320   25.4300 H   0  0  0  0  0  0  0  0  0  0  0  0
  -24.5230  -36.6660   23.3890 C   0  0  0  0  0  1  0  0  0  0  0  0
  -25.6750  -36.3390   24.3530 C   0  0  0  0  0  3  0  0  0  0  0  0
  -27.6250  -37.3610   25.4420 C   0  0  0  0  0  1  0  0  0  0  0  0
  -26.6480  -37.4530   24.3590 N   0  0  0  0  0  0  0  0  0  0  0  0
  -26.1730  -38.3490   24.4370 H   0  0  0  0  0  0  0  0  0  0  0  0
  -26.7790  -31.8130   25.7870 C   0  0  1  0  0  0  0  0  0  0  0  0
  -25.5720  -31.5160   26.7090 C   0  0  0  0  0  1  0  0  0  0  0  0
  -27.5020  -30.4760   25.5150 C   0  0  0  0  0  1  0  0  0  0  0  0
  -27.7790  -32.6930   26.5740 C   0  0  0  0  0  1  0  0  0  0  0  0
  -26.2110  -13.8900   20.2080 C   0  0  0  0  0  2  0  0  0  0  0  0
  -29.1550  -13.0710   22.2630 C   0  0  0  0  0  2  0  0  0  0  0  0
  -31.8830  -13.6030   20.8560 C   0  0  0  0  0  0  0  0  0  0  0  0
  -32.6270  -11.6340   19.3410 C   0  0  0  0  0  2  0  0  0  0  0  0
  -31.5610  -11.2480   18.2110 C   0  0  0  0  0  2  0  0  0  0  0  0
  -30.0340  -11.2240   18.5830 C   0  0  0  0  0  2  0  0  0  0  0  0
  -29.9330  -12.2670   19.6270 C   0  0  0  0  0  3  0  0  0  0  0  0
  -30.8700  -11.6030   20.7140 C   0  0  0  0  0  2  0  0  0  0  0  0
  -32.0230  -12.3140   20.5070 N   0  0  0  0  0  0  0  0  0  0  0  0
  -32.7590  -14.3270   20.2820 O   0  0  0  0  0  0  0  0  0  0  0  0
  -30.6690  -13.8460   21.7510 N   0  0  0  0  0  0  0  0  0  0  0  0
  -30.6790  -14.8180   22.0300 H   0  0  0  0  0  0  0  0  0  0  0  0
  -27.9630  -13.7380   21.4240 C   0  0  2  0  0  0  0  0  0  0  0  0
  -26.6730  -12.9250   21.8600 C   0  0  2  0  0  0  0  0  0  0  0  0
  -26.6570  -11.5040   21.1780 C   0  0  0  0  0  0  0  0  0  0  0  0
  -28.7260  -12.5730   20.2020 N   0  0  0  0  0  0  0  0  0  0  0  0
  -27.7730  -11.3190   20.2600 N   0  0  0  0  0  0  0  0  0  0  0  0
  -25.6230  -10.3680   21.2310 C   0  0  0  0  0  0  0  0  0  0  0  0
  -25.7270   -9.2870   22.1510 C   0  0  0  0  0  3  0  0  0  0  0  0
  -24.7630   -8.2370   22.2110 C   0  0  0  0  0  3  0  0  0  0  0  0
  -23.6460   -8.2260   21.3380 C   0  0  0  0  0  0  0  0  0  0  0  0
  -23.5470   -9.2780   20.4030 C   0  0  0  0  0  3  0  0  0  0  0  0
  -24.5130  -10.3170   20.3490 C   0  0  0  0  0  3  0  0  0  0  0  0
  -22.6840   -7.2300   21.2940 O   0  0  0  0  0  0  0  0  0  0  0  0
  -22.1510   -6.6500   22.4260 C   0  0  0  0  0  0  0  0  0  0  0  0
  -21.4590   -7.4070   23.3980 C   0  0  0  0  0  3  0  0  0  0  0  0
  -20.8670   -6.7710   24.5080 C   0  0  0  0  0  3  0  0  0  0  0  0
  -20.9560   -5.3750   24.6550 C   0  0  0  0  0  0  0  0  0  0  0  0
  -21.6330   -4.6120   23.6870 C   0  0  0  0  0  3  0  0  0  0  0  0
  -22.2210   -5.2470   22.5760 C   0  0  0  0  0  0  0  0  0  0  0  0
  -22.8430   -4.4940   21.6380 F   0  0  0  0  0  0  0  0  0  0  0  0
  -20.3990   -4.7660   25.7270 F   0  0  0  0  0  0  0  0  0  0  0  0
  -25.3070  -13.5130   22.2020 C   0  0  0  0  0  0  0  0  0  0  0  0
  -24.4260  -12.7610   22.8520 N   0  0  0  0  0  0  0  0  0  0  0  0
  -24.9560  -14.6050   21.7580 O   0  0  0  0  0  0  0  0  0  0  0  0
  -24.6640  -11.8450   23.2000 H   0  0  0  0  0  0  0  0  0  0  0  0
  -23.5240  -13.1530   23.0890 H   0  0  0  0  0  0  0  0  0  0  0  0
  -28.5460  -14.8960   21.7630 N   0  0  0  0  0  0  0  0  0  0  0  0
  -28.2220  -15.3500   22.6110 H   0  0  0  0  0  0  0  0  0  0  0  0
  -29.5560  -14.9610   21.6980 H   0  0  0  0  0  0  0  0  0  0  0  0
  1  2  1  0
  1  4  1  0
  2  6  1  0
  4  7  1  0
  5  3  1  0
  6  9  1  0
  6  3  1  0
  7  8  1  1
  7 56  1  0
  7  5  1  0
  9 11  1  0
  9 12  1  0
 10  9  1  0
 13 12  1  0
 13 14  2  0
 15 14  1  0
 16 27  2  0
 17 15  1  0
 17 22  1  0
 18 26  1  0
 18 28  1  0
 19 21  1  0
 20 26  1  0
 21 22  2  0
 21 20  1  0
 23 17  2  0
 24 23  1  0
 24 19  2  0
 25 19  1  0
 25 18  1  0
 26 16  1  0
 28 30  2  0
 29 28  1  0
 31 29  1  0
 32 37  1  0
 33 29  1  0
 34 33  1  0
 35 36  1  0
 35 34  1  0
 36 32  1  0
 37 33  1  0
 37 38  2  0
 39 38  1  0
 40 39  2  0
 41 32  2  0
 41 40  1  0
 42 16  1  0
 42 43  1  0
 42 52  1  0
 43 46  1  0
 44 48  1  0
 44 43  1  0
 45 44  2  0
 48 47  1  0
 48 50  1  0
 50 51  1  0
 50 49  1  0
 52 55  1  1
 52 53  1  0
 54 52  1  0
 58 66  1  0
 59 64  1  0
 60 61  1  0
 60 59  1  0
 62 61  1  0
 62 71  1  0
 62 63  1  0
 64 63  1  0
 64 58  1  0
 65 58  2  0
 66 67  1  0
 66 57  1  0
 68 93  1  6
 68 69  1  0
 68 57  1  0
 69 56  1  6
 69 88  1  0
 70 73  1  0
 70 69  1  0
 71 72  1  0
 71 68  1  0
 72 70  2  0
 73 74  1  0
 74 75  2  0
 76 75  1  0
 77 76  2  0
 78 77  1  0
 78 73  2  0
 79 76  1  0
 79 80  1  0
 80 85  2  0
 80 81  1  0
 81 82  2  0
 82 83  1  0
 83 87  1  0
 84 83  2  0
 85 84  1  0
 86 85  1  0
 88 89  1  0
 89 92  1  0
 89 91  1  0
 90 88  2  0
 93 94  1  0
 95 93  1  0
M  ISO  4  14 101  15 101  58 100  66 100
M  END
>  <TORSDO>  (41) 
F 22

>  <SCORE>  (41) 
2.204

>  <name>  (41) 
40

>  <ligand_id>  (41) 
40

>  <original_smiles>  (41) 
[H]c1c([H])c([H])c2c(c1[H])C([H])([H])C([H])([H])C([H])([H])C2([H])N([H])C(=O)C1([H])N(C(=O)C([H])(N([H])C(=O)C([H])(N([H])C([H])([H])[H])C([H])([H])[H])C(C([H])([H])[H])(C([H])([H])[H])C([H])([H])[H])C([H])([H])c2c([H])c(OC([H])([H])C([H])([H])C([H])([H])[N+]([H])([H])C3([H])C([H])([H])C([H])([H])C([H])([H])[N+]([H])(C([H])([H])C([H])([H])N([H])C(=O)N4C([H])([H])C([H])([H])C([H])([H])C([H])(n5nc(-c6c([H])c([H])c(Oc7c([H])c([H])c(F)c([H])c7F)c([H])c6[H])c(C(=O)N([H])[H])c5N([H])[H])C4([H])[H])C([H])([H])C3([H])[H])c([H])c([H])c2C1([H])[H]

>  <smiles>  (41) 
[H]c1c([H])c([H])c2c(c1[H])C([H])([H])C([H])([H])C([H])([H])C2([H])N([H])C(=O)C1([H])N(C(=O)C([H])(N([H])C(=O)C([H])(N([H])C([H])([H])[H])C([H])([H])[H])C(C([H])([H])[H])(C([H])([H])[H])C([H])([H])[H])C([H])([H])c2c([H])c(OC([H])([H])C([H])([H])C([H])([H])[N+]([H])([H])C3([H])C([H])([H])C([H])([H])C([H])([H])[N+]([H])(C([H])([H])C([H])([H])N([H])C(=O)N4C([H])([H])C([H])([H])C([H])([H])C([H])(n5nc(-c6c([H])c([H])c(Oc7c([H])c([H])c(F)c([H])c7F)c([H])c6[H])c(C(=O)N([H])[H])c5N([H])[H])C4([H])[H])C([H])([H])C3([H])[H])c([H])c([H])c2C1([H])[H]

$$$$
41:0:0
     RDKit          3D

 94104  0  0  1  0  0  0  0  0999 V2000
  -28.0120  -24.0000   23.7220 C   0  0  0  0  0  2  0  0  0  0  0  0
  -28.0750  -24.5260   22.2930 C   0  0  0  0  0  2  0  0  0  0  0  0
  -29.1370  -23.0470   23.3230 C   0  0  0  0  0  2  0  0  0  0  0  0
  -29.8660  -23.3210   20.8120 C   0  0  0  0  0  2  0  0  0  0  0  0
  -27.6750  -22.1420   21.3660 C   0  0  0  0  0  2  0  0  0  0  0  0
  -29.4580  -22.8050   19.4140 C   0  0  0  0  0  3  0  0  0  0  0  0
  -29.3800  -20.9130   19.9070 C   0  0  0  0  0  3  0  0  0  0  0  0
  -28.7140  -23.1880   21.8450 C   0  0  2  0  0  0  0  0  0  0  0  0
  -28.2730  -20.8770   20.9000 N   0  0  0  0  0  4  0  0  0  0  0  0
  -27.5280  -20.3180   20.5180 H   0  0  0  0  0  0  0  0  0  0  0  0
  -28.6060  -20.3900   21.7120 H   0  0  0  0  0  0  0  0  0  0  0  0
  -31.0030  -16.1810   19.7120 C   0  0  0  0  0  0  0  0  0  0  0  0
  -31.0210  -13.6100   19.0470 C   0  0  0  0  0  2  0  0  0  0  0  0
  -30.1050  -13.1160   17.8990 C   0  0  0  0  0  2  0  0  0  0  0  0
  -28.6930  -12.8120   18.4220 C   0  0  0  0  0  2  0  0  0  0  0  0
  -28.2120  -13.8830   19.4260 C   0  0  0  0  0  3  0  0  0  0  0  0
  -29.2760  -14.2840   20.4730 C   0  0  0  0  0  2  0  0  0  0  0  0
  -30.4090  -14.8500   19.6990 N   0  0  0  0  0  0  0  0  0  0  0  0
  -32.2350  -16.0170   19.5960 O   0  0  0  0  0  0  0  0  0  0  0  0
  -29.2520  -18.1580   17.2600 C   0  0  0  0  0  2  0  0  0  0  0  0
  -28.4610  -18.8140   18.3890 C   0  0  0  0  0  2  0  0  0  0  0  0
  -30.6190  -17.7520   17.8340 C   0  0  0  0  0  2  0  0  0  0  0  0
  -29.4560  -19.0080   19.5340 C   0  0  0  0  0  3  0  0  0  0  0  0
  -30.4360  -17.5720   19.2740 N   0  0  0  0  0  0  0  0  0  0  0  0
  -25.9240  -14.4750   20.3520 C   0  0  0  0  0  0  0  0  0  0  0  0
  -24.8580  -13.7250   20.7560 C   0  0  0  0  0  0  0  0  0  0  0  0
  -25.2740  -12.3600   20.6540 C   0  0  0  0  0  0  0  0  0  0  0  0
  -26.9180  -13.5760   20.0140 N   0  0  0  0  0  0  0  0  0  0  0  0
  -26.5460  -12.2930   20.2640 N   0  0  0  0  0  0  0  0  0  0  0  0
  -24.5090  -11.1200   20.8430 C   0  0  0  0  0  0  0  0  0  0  0  0
  -24.9020  -10.1430   21.7840 C   0  0  0  0  0  3  0  0  0  0  0  0
  -24.1350   -8.9730   21.9650 C   0  0  0  0  0  3  0  0  0  0  0  0
  -22.9590   -8.7700   21.2070 C   0  0  0  0  0  0  0  0  0  0  0  0
  -22.5790   -9.7350   20.2590 C   0  0  0  0  0  3  0  0  0  0  0  0
  -23.3460  -10.8980   20.0750 C   0  0  0  0  0  3  0  0  0  0  0  0
  -22.1670   -7.6500   21.2990 O   0  0  0  0  0  0  0  0  0  0  0  0
  -21.9590   -7.0080   22.4930 C   0  0  0  0  0  0  0  0  0  0  0  0
  -21.4390   -7.6840   23.6180 C   0  0  0  0  0  3  0  0  0  0  0  0
  -21.1750   -6.9710   24.8060 C   0  0  0  0  0  3  0  0  0  0  0  0
  -21.4190   -5.5880   24.8670 C   0  0  0  0  0  0  0  0  0  0  0  0
  -21.9310   -4.9120   23.7440 C   0  0  0  0  0  3  0  0  0  0  0  0
  -22.1970   -5.6200   22.5610 C   0  0  0  0  0  0  0  0  0  0  0  0
  -22.6710   -4.9610   21.4750 F   0  0  0  0  0  0  0  0  0  0  0  0
  -21.1590   -4.9020   26.0040 F   0  0  0  0  0  0  0  0  0  0  0  0
  -23.4950  -14.2470   21.1050 C   0  0  0  0  0  0  0  0  0  0  0  0
  -22.8000  -13.5870   22.0220 N   0  0  0  0  0  0  0  0  0  0  0  0
  -23.0600  -15.2810   20.5990 O   0  0  0  0  0  0  0  0  0  0  0  0
  -23.1650  -12.7550   22.4570 H   0  0  0  0  0  0  0  0  0  0  0  0
  -21.8870  -13.9230   22.2940 H   0  0  0  0  0  0  0  0  0  0  0  0
  -26.1320  -15.8440   20.2170 N   0  0  0  0  0  0  0  0  0  0  0  0
  -25.4020  -16.5210   20.4110 H   0  0  0  0  0  0  0  0  0  0  0  0
  -26.9720  -16.2570   19.8350 H   0  0  0  0  0  0  0  0  0  0  0  0
  -28.4610  -24.3990   18.9930 C   0  0  0  0  0  2  0  0  0  0  0  0
  -28.5360  -26.1090   19.3050 O   0  0  0  0  0  0  0  0  0  0  0  0
  -24.5920  -31.5480   23.0960 C   0  0  0  0  0  0  0  0  0  0  0  0
  -27.4610  -27.2000   19.4210 C   0  0  0  0  0  0  0  0  0  0  0  0
  -23.4790  -30.2560   21.3250 C   0  0  0  0  0  3  0  0  0  0  0  0
  -25.0190  -28.9600   19.6730 C   0  0  0  0  0  0  0  0  0  0  0  0
  -26.0220  -30.6820   21.1530 C   0  0  0  0  0  2  0  0  0  0  0  0
  -26.1950  -29.3610   20.3170 C   0  0  0  0  0  0  0  0  0  0  0  0
  -27.4010  -28.5080   20.1630 C   0  0  0  0  0  3  0  0  0  0  0  0
  -26.2340  -26.9950   18.7510 C   0  0  0  0  0  3  0  0  0  0  0  0
  -25.0700  -27.8080   18.8680 C   0  0  0  0  0  3  0  0  0  0  0  0
  -23.7310  -29.7720   19.8680 C   0  0  0  0  0  2  0  0  0  0  0  0
  -24.7220  -30.8540   21.9160 N   0  0  0  0  0  0  0  0  0  0  0  0
  -23.4950  -31.6740   23.6680 O   0  0  0  0  0  0  0  0  0  0  0  0
  -22.9020  -29.0950   22.1780 C   0  0  0  0  0  0  0  0  0  0  0  0
  -21.6120  -28.7590   21.9930 N   0  0  0  0  0  0  0  0  0  0  0  0
  -23.6270  -28.4990   22.9810 O   0  0  0  0  0  0  0  0  0  0  0  0
  -21.0680  -29.3010   21.3350 H   0  0  0  0  0  0  0  0  0  0  0  0
  -18.4440  -26.9990   22.2380 C   0  0  0  0  0  0  0  0  0  0  0  0
  -20.9160  -27.6440   22.6500 C   0  0  0  0  0  3  0  0  0  0  0  0
  -21.2690  -26.2950   21.9790 C   0  0  0  0  0  2  0  0  0  0  0  0
  -20.2750  -25.8870   20.8890 C   0  0  0  0  0  2  0  0  0  0  0  0
  -18.8630  -25.7570   21.4700 C   0  0  0  0  0  2  0  0  0  0  0  0
  -19.4070  -27.8930   22.7790 C   0  0  0  0  0  0  0  0  0  0  0  0
  -18.9630  -29.0450   23.4600 C   0  0  0  0  0  3  0  0  0  0  0  0
  -17.5860  -29.3110   23.6060 C   0  0  0  0  0  3  0  0  0  0  0  0
  -16.6400  -28.4170   23.0790 C   0  0  0  0  0  3  0  0  0  0  0  0
  -17.0680  -27.2620   22.4000 C   0  0  0  0  0  3  0  0  0  0  0  0
  -25.8150  -32.2310   23.7810 C   0  0  0  0  0  3  0  0  0  0  0  0
  -25.4370  -33.6190   24.1100 N   0  0  0  0  0  0  0  0  0  0  0  0
  -25.7390  -34.6970   23.3740 C   0  0  0  0  0  0  0  0  0  0  0  0
  -26.4260  -34.6320   22.3530 O   0  0  0  0  0  0  0  0  0  0  0  0
  -24.8200  -33.7400   24.8990 H   0  0  0  0  0  0  0  0  0  0  0  0
  -23.9390  -36.4330   23.0480 C   0  0  0  0  0  1  0  0  0  0  0  0
  -25.2000  -36.0640   23.8470 C   0  0  0  0  0  3  0  0  0  0  0  0
  -27.2930  -37.0470   24.6790 C   0  0  0  0  0  1  0  0  0  0  0  0
  -26.1870  -37.1620   23.7340 N   0  0  0  0  0  0  0  0  0  0  0  0
  -25.7410  -38.0650   23.8760 H   0  0  0  0  0  0  0  0  0  0  0  0
  -26.2900  -31.4790   25.0860 C   0  0  1  0  0  0  0  0  0  0  0  0
  -25.1520  -31.2120   26.0990 C   0  0  0  0  0  1  0  0  0  0  0  0
  -26.9340  -30.1170   24.7360 C   0  0  0  0  0  1  0  0  0  0  0  0
  -27.3800  -32.3110   25.7980 C   0  0  0  0  0  1  0  0  0  0  0  0
  2  1  1  0
  3  1  1  0
  8  4  1  6
  5  8  1  0
  6 53  1  0
  6  7  1  0
  6  4  1  0
  7 23  1  0
  7  9  1  0
  8  2  1  0
  8  3  1  0
  9  5  1  0
  9 11  1  0
 10  9  1  0
 13 18  1  0
 14 15  1  0
 14 13  1  0
 16 15  1  0
 16 28  1  0
 16 17  1  0
 18 12  1  0
 18 17  1  0
 19 12  2  0
 20 22  1  0
 20 21  1  0
 22 24  1  0
 23 21  1  0
 24 23  1  0
 24 12  1  0
 25 26  2  0
 26 45  1  0
 27 26  1  0
 27 30  1  0
 28 29  1  0
 28 25  1  0
 29 27  2  0
 30 31  1  0
 31 32  2  0
 33 36  1  0
 33 32  1  0
 34 33  2  0
 35 34  1  0
 35 30  2  0
 36 37  1  0
 37 42  2  0
 37 38  1  0
 38 39  2  0
 39 40  1  0
 40 44  1  0
 41 40  2  0
 42 41  1  0
 43 42  1  0
 45 46  1  0
 46 49  1  0
 46 48  1  0
 47 45  2  0
 50 25  1  0
 50 51  1  0
 52 50  1  0
 53 54  1  0
 54 56  1  0
 55 66  2  0
 56 61  1  0
 57 65  1  0
 57 67  1  0
 58 64  1  0
 58 60  1  0
 59 65  1  0
 60 59  1  0
 61 60  2  0
 62 63  1  0
 62 56  2  0
 63 58  2  0
 64 57  1  0
 65 55  1  0
 67 69  2  0
 68 67  1  0
 70 68  1  0
 71 80  2  0
 71 76  1  0
 72 68  1  0
 72 76  1  0
 73 72  1  0
 74 75  1  0
 74 73  1  0
 75 71  1  0
 76 77  2  0
 77 78  1  0
 79 78  2  0
 80 79  1  0
 81 55  1  0
 81 82  1  0
 81 91  1  0
 82 85  1  0
 83 87  1  0
 83 82  1  0
 84 83  2  0
 87 86  1  0
 89 87  1  0
 89 90  1  0
 89 88  1  0
 91 94  1  1
 91 92  1  0
 93 91  1  0
M  ISO  4  12 100  24 100  53 101  54 101
M  END
>  <TORSDO>  (42) 
F 17

>  <SCORE>  (42) 
-12.178

>  <name>  (42) 
41

>  <ligand_id>  (42) 
41

>  <original_smiles>  (42) 
[H]c1c([H])c([H])c2c(c1[H])C([H])([H])C([H])([H])C([H])([H])C2([H])N([H])C(=O)C1([H])N(C(=O)C([H])(N([H])C(=O)C([H])(N([H])C([H])([H])[H])C([H])([H])[H])C(C([H])([H])[H])(C([H])([H])[H])C([H])([H])[H])C([H])([H])c2c([H])c(OC([H])([H])C3([H])C([H])([H])C4(C([H])([H])C([H])([H])C4([H])[H])C([H])([H])[N+]([H])([H])C3([H])C3([H])N(C(=O)N4C([H])([H])C([H])([H])C([H])([H])C([H])(n5nc(-c6c([H])c([H])c(Oc7c([H])c([H])c(F)c([H])c7F)c([H])c6[H])c(C(=O)N([H])[H])c5N([H])[H])C4([H])[H])C([H])([H])C([H])([H])C3([H])[H])c([H])c([H])c2C1([H])[H]

>  <smiles>  (42) 
[H]c1c([H])c([H])c2c(c1[H])C([H])([H])C([H])([H])C([H])([H])C2([H])N([H])C(=O)C1([H])N(C(=O)C([H])(N([H])C(=O)C([H])(N([H])C([H])([H])[H])C([H])([H])[H])C(C([H])([H])[H])(C([H])([H])[H])C([H])([H])[H])C([H])([H])c2c([H])c(OC([H])([H])C3([H])C([H])([H])C4(C([H])([H])C([H])([H])C4([H])[H])C([H])([H])[N+]([H])([H])C3([H])C3([H])N(C(=O)N4C([H])([H])C([H])([H])C([H])([H])C([H])(n5nc(-c6c([H])c([H])c(Oc7c([H])c([H])c(F)c([H])c7F)c([H])c6[H])c(C(=O)N([H])[H])c5N([H])[H])C4([H])[H])C([H])([H])C([H])([H])C3([H])[H])c([H])c([H])c2C1([H])[H]

$$$$
42:0:0
     RDKit          3D

 96104  0  0  1  0  0  0  0  0999 V2000
  -31.2940  -14.4150   19.6320 C   0  0  0  0  0  0  0  0  0  0  0  0
  -31.0190  -11.9410   19.2810 C   0  0  0  0  0  2  0  0  0  0  0  0
  -30.1610  -11.6250   18.0390 C   0  0  0  0  0  2  0  0  0  0  0  0
  -28.6710  -11.5850   18.4250 C   0  0  0  0  0  2  0  0  0  0  0  0
  -28.2430  -12.7970   19.2950 C   0  0  0  0  0  3  0  0  0  0  0  0
  -29.2430  -13.0840   20.4340 C   0  0  0  0  0  2  0  0  0  0  0  0
  -30.5590  -13.2530   19.8120 N   0  0  0  0  0  0  0  0  0  0  0  0
  -32.5130  -14.2750   19.4850 O   0  0  0  0  0  0  0  0  0  0  0  0
  -30.8760  -17.6850   17.4820 C   0  0  0  0  0  2  0  0  0  0  0  0
  -31.5370  -16.4470   18.2120 C   0  0  0  0  0  2  0  0  0  0  0  0
  -29.9890  -16.6340   20.0170 C   0  0  0  0  0  2  0  0  0  0  0  0
  -29.4430  -18.0420   19.4030 C   0  0  0  0  0  3  0  0  0  0  0  0
  -30.3520  -18.8510   18.3790 C   0  0  0  0  0  3  0  0  0  0  0  0
  -30.7170  -15.6290   19.1690 N   0  0  0  0  0  0  0  0  0  0  0  0
  -25.9050  -13.6380   19.9130 C   0  0  0  0  0  0  0  0  0  0  0  0
  -24.7700  -12.9910   20.3110 C   0  0  0  0  0  0  0  0  0  0  0  0
  -25.1160  -11.6080   20.4110 C   0  0  0  0  0  0  0  0  0  0  0  0
  -26.8750  -12.6590   19.7820 N   0  0  0  0  0  0  0  0  0  0  0  0
  -26.4070  -11.4370   20.1470 N   0  0  0  0  0  0  0  0  0  0  0  0
  -24.2760  -10.4320   20.6820 C   0  0  0  0  0  0  0  0  0  0  0  0
  -24.6490   -9.4650   21.6410 C   0  0  0  0  0  3  0  0  0  0  0  0
  -23.8170   -8.3530   21.8980 C   0  0  0  0  0  3  0  0  0  0  0  0
  -22.5960   -8.2020   21.1990 C   0  0  0  0  0  0  0  0  0  0  0  0
  -22.2390   -9.1580   20.2300 C   0  0  0  0  0  3  0  0  0  0  0  0
  -23.0710  -10.2600   19.9720 C   0  0  0  0  0  3  0  0  0  0  0  0
  -21.7370   -7.1440   21.3630 O   0  0  0  0  0  0  0  0  0  0  0  0
  -21.7010   -6.4210   22.5300 C   0  0  0  0  0  0  0  0  0  0  0  0
  -21.4340   -7.0300   23.7760 C   0  0  0  0  0  3  0  0  0  0  0  0
  -21.3390   -6.2390   24.9390 C   0  0  0  0  0  3  0  0  0  0  0  0
  -21.5000   -4.8430   24.8570 C   0  0  0  0  0  0  0  0  0  0  0  0
  -21.7600   -4.2350   23.6160 C   0  0  0  0  0  3  0  0  0  0  0  0
  -21.8570   -5.0220   22.4560 C   0  0  0  0  0  0  0  0  0  0  0  0
  -22.0890   -4.4300   21.2600 F   0  0  0  0  0  0  0  0  0  0  0  0
  -21.3990   -4.0820   25.9720 F   0  0  0  0  0  0  0  0  0  0  0  0
  -23.4120  -13.6050   20.4910 C   0  0  0  0  0  0  0  0  0  0  0  0
  -22.6240  -13.0860   21.4240 N   0  0  0  0  0  0  0  0  0  0  0  0
  -23.0660  -14.5900   19.8370 O   0  0  0  0  0  0  0  0  0  0  0  0
  -22.9200  -12.2940   21.9780 H   0  0  0  0  0  0  0  0  0  0  0  0
  -21.7090  -13.4820   21.5880 H   0  0  0  0  0  0  0  0  0  0  0  0
  -26.1940  -14.9710   19.6260 N   0  0  0  0  0  0  0  0  0  0  0  0
  -25.4700  -15.6810   19.6030 H   0  0  0  0  0  0  0  0  0  0  0  0
  -27.0790  -15.2940   19.2600 H   0  0  0  0  0  0  0  0  0  0  0  0
  -29.7150  -20.0110   17.5320 N   0  0  0  0  0  4  0  0  0  0  0  0
  -29.0410  -19.6080   16.9010 H   0  0  0  0  0  0  0  0  0  0  0  0
  -30.4720  -20.3190   16.9450 H   0  0  0  0  0  0  0  0  0  0  0  0
  -29.1180  -21.3370   18.0950 C   0  0  0  0  0  2  0  0  0  0  0  0
  -28.4290  -22.4580   17.0840 C   0  0  0  0  0  3  0  0  0  0  0  0
  -27.8040  -23.8810   17.6260 C   0  0  0  0  0  3  0  0  0  0  0  0
  -27.4570  -25.0990   16.7820 O   0  0  0  0  0  0  0  0  0  0  0  0
  -25.4170  -29.7200   22.0690 C   0  0  0  0  0  0  0  0  0  0  0  0
  -26.6000  -26.1180   17.2750 C   0  0  0  0  0  0  0  0  0  0  0  0
  -23.7870  -29.2660   20.2700 C   0  0  0  0  0  3  0  0  0  0  0  0
  -24.7070  -28.0890   18.1880 C   0  0  0  0  0  0  0  0  0  0  0  0
  -26.3050  -29.1420   19.7870 C   0  0  0  0  0  2  0  0  0  0  0  0
  -26.0090  -28.0920   18.7090 C   0  0  0  0  0  0  0  0  0  0  0  0
  -26.9640  -27.1320   18.2340 C   0  0  0  0  0  3  0  0  0  0  0  0
  -25.2900  -26.1890   16.7610 C   0  0  0  0  0  3  0  0  0  0  0  0
  -24.3580  -27.1520   17.2010 C   0  0  0  0  0  3  0  0  0  0  0  0
  -23.7190  -29.1070   18.7260 C   0  0  0  0  0  2  0  0  0  0  0  0
  -25.1990  -29.3690   20.7660 N   0  0  0  0  0  0  0  0  0  0  0  0
  -24.4750  -29.9790   22.8330 O   0  0  0  0  0  0  0  0  0  0  0  0
  -22.9880  -28.1150   20.9280 C   0  0  0  0  0  0  0  0  0  0  0  0
  -21.6520  -28.2530   20.9720 N   0  0  0  0  0  0  0  0  0  0  0  0
  -23.5670  -27.1160   21.3620 O   0  0  0  0  0  0  0  0  0  0  0  0
  -21.2520  -29.1070   20.6090 H   0  0  0  0  0  0  0  0  0  0  0  0
  -18.1400  -27.6100   21.5830 C   0  0  0  0  0  0  0  0  0  0  0  0
  -20.7020  -27.2710   21.4990 C   0  0  0  0  0  3  0  0  0  0  0  0
  -20.4170  -26.1590   20.4640 C   0  0  0  0  0  2  0  0  0  0  0  0
  -19.1870  -26.4460   19.5970 C   0  0  0  0  0  2  0  0  0  0  0  0
  -17.9360  -26.6000   20.4670 C   0  0  0  0  0  2  0  0  0  0  0  0
  -19.4380  -27.9400   22.0550 C   0  0  0  0  0  0  0  0  0  0  0  0
  -19.5720  -28.9110   23.0710 C   0  0  0  0  0  3  0  0  0  0  0  0
  -18.4380  -29.5480   23.6140 C   0  0  0  0  0  3  0  0  0  0  0  0
  -17.1550  -29.2090   23.1500 C   0  0  0  0  0  3  0  0  0  0  0  0
  -17.0080  -28.2400   22.1410 C   0  0  0  0  0  3  0  0  0  0  0  0
  -26.8570  -29.8300   22.6560 C   0  0  0  0  0  3  0  0  0  0  0  0
  -26.8020  -30.7470   23.8030 N   0  0  0  0  0  0  0  0  0  0  0  0
  -27.3270  -31.9800   23.8180 C   0  0  0  0  0  0  0  0  0  0  0  0
  -27.9770  -32.4410   22.8760 O   0  0  0  0  0  0  0  0  0  0  0  0
  -26.2470  -30.4520   24.5920 H   0  0  0  0  0  0  0  0  0  0  0  0
  -26.0350  -33.9120   24.7830 C   0  0  0  0  0  1  0  0  0  0  0  0
  -27.0950  -32.8380   25.0780 C   0  0  0  0  0  3  0  0  0  0  0  0
  -29.2810  -32.5370   26.1550 C   0  0  0  0  0  1  0  0  0  0  0  0
  -28.3260  -33.4820   25.5850 N   0  0  0  0  0  0  0  0  0  0  0  0
  -28.1040  -34.1720   26.2960 H   0  0  0  0  0  0  0  0  0  0  0  0
  -27.4540  -28.4350   23.0970 C   0  0  1  0  0  0  0  0  0  0  0  0
  -26.5220  -27.6270   24.0300 C   0  0  0  0  0  1  0  0  0  0  0  0
  -27.7640  -27.5580   21.8610 C   0  0  0  0  0  1  0  0  0  0  0  0
  -28.7960  -28.6490   23.8360 C   0  0  0  0  0  1  0  0  0  0  0  0
  -29.0640  -18.9630   20.5880 C   0  0  0  0  0  2  0  0  0  0  0  0
  -28.2150  -18.2960   21.6850 C   0  0  0  0  0  2  0  0  0  0  0  0
  -27.1370  -17.3560   21.1090 C   0  0  0  0  0  2  0  0  0  0  0  0
  -26.4390  -16.5920   22.1540 N   0  0  0  0  0  4  0  0  0  0  0  0
  -27.0740  -15.9920   22.6500 H   0  0  0  0  0  0  0  0  0  0  0  0
  -25.7250  -16.0190   21.7400 H   0  0  0  0  0  0  0  0  0  0  0  0
  -25.9980  -17.2120   22.8100 H   0  0  0  0  0  0  0  0  0  0  0  0
  1  7  1  0
  2  7  1  0
  3  4  1  0
  3  2  1  0
  5  4  1  0
  5 18  1  0
  5  6  1  0
  7  6  1  0
  8  1  2  0
  9 10  1  0
  9 13  1  0
 10 14  1  0
 12 11  1  0
 12 90  1  0
 13 43  1  0
 13 12  1  0
 14  1  1  0
 14 11  1  0
 15 16  2  0
 16 17  1  0
 16 35  1  0
 17 20  1  0
 18 15  1  0
 18 19  1  0
 19 17  2  0
 20 21  1  0
 21 22  2  0
 23 26  1  0
 23 22  1  0
 24 23  2  0
 25 24  1  0
 25 20  2  0
 26 27  1  0
 27 28  1  0
 28 29  2  0
 30 29  1  0
 30 34  1  0
 31 30  2  0
 32 27  2  0
 32 31  1  0
 33 32  1  0
 35 36  1  0
 36 39  1  0
 36 38  1  0
 37 35  2  0
 40 15  1  0
 41 40  1  0
 42 40  1  0
 43 46  1  0
 44 43  1  0
 45 43  1  0
 47 48  2  0
 47 46  1  0
 49 51  1  0
 49 48  1  0
 50 61  2  0
 51 56  1  0
 52 60  1  0
 52 62  1  0
 53 55  1  0
 53 59  1  0
 54 60  1  0
 55 54  1  0
 56 55  2  0
 57 58  1  0
 57 51  2  0
 58 53  2  0
 59 52  1  0
 60 50  1  0
 62 63  1  0
 62 64  2  0
 65 63  1  0
 66 71  2  0
 66 75  1  0
 67 63  1  0
 67 71  1  0
 68 67  1  0
 69 68  1  0
 69 70  1  0
 70 66  1  0
 71 72  1  0
 72 73  2  0
 74 73  1  0
 75 74  2  0
 76 50  1  0
 76 86  1  0
 76 77  1  0
 77 78  1  0
 77 80  1  0
 78 82  1  0
 79 78  2  0
 82 81  1  0
 82 84  1  0
 84 83  1  0
 84 85  1  0
 86 89  1  1
 86 87  1  0
 88 86  1  0
 90 91  1  0
 92 91  1  0
 92 93  1  0
 93 94  1  0
 93 96  1  0
 95 93  1  0
M  ISO  4   1 100  14 100  48 101  49 101
M  END
>  <TORSDO>  (43) 
F 23

>  <SCORE>  (43) 
-2.317

>  <name>  (43) 
42

>  <ligand_id>  (43) 
42

>  <original_smiles>  (43) 
[H]c1c([H])c([H])c2c(c1[H])C([H])([H])C([H])([H])C([H])([H])C2([H])N([H])C(=O)C1([H])N(C(=O)C([H])(N([H])C(=O)C([H])(N([H])C([H])([H])[H])C([H])([H])[H])C(C([H])([H])[H])(C([H])([H])[H])C([H])([H])[H])C([H])([H])c2c([H])c(OC([H])([H])C([H])([H])C([H])([H])[N+]([H])([H])C3([H])C([H])([H])C([H])([H])N(C(=O)N4C([H])([H])C([H])([H])C([H])([H])C([H])(n5nc(-c6c([H])c([H])c(Oc7c([H])c([H])c(F)c([H])c7F)c([H])c6[H])c(C(=O)N([H])[H])c5N([H])[H])C4([H])[H])C([H])([H])C3([H])C([H])([H])C([H])([H])C([H])([H])[N+]([H])([H])[H])c([H])c([H])c2C1([H])[H]

>  <smiles>  (43) 
[H]c1c([H])c([H])c2c(c1[H])C([H])([H])C([H])([H])C([H])([H])C2([H])N([H])C(=O)C1([H])N(C(=O)C([H])(N([H])C(=O)C([H])(N([H])C([H])([H])[H])C([H])([H])[H])C(C([H])([H])[H])(C([H])([H])[H])C([H])([H])[H])C([H])([H])c2c([H])c(OC([H])([H])C([H])([H])C([H])([H])[N+]([H])([H])C3([H])C([H])([H])C([H])([H])N(C(=O)N4C([H])([H])C([H])([H])C([H])([H])C([H])(n5nc(-c6c([H])c([H])c(Oc7c([H])c([H])c(F)c([H])c7F)c([H])c6[H])c(C(=O)N([H])[H])c5N([H])[H])C4([H])[H])C([H])([H])C3([H])C([H])([H])C([H])([H])C([H])([H])[N+]([H])([H])[H])c([H])c([H])c2C1([H])[H]

$$$$
43:0:0
     RDKit          3D

100108  0  0  1  0  0  0  0  0999 V2000
  -29.5790  -22.9250   21.2580 C   0  0  0  0  0  2  0  0  0  0  0  0
  -28.2710  -23.1160   19.1480 C   0  0  0  0  0  2  0  0  0  0  0  0
  -30.1310  -21.5390   20.7690 C   0  0  0  0  0  2  0  0  0  0  0  0
  -29.1450  -23.9390   20.1490 C   0  0  0  0  0  3  0  0  0  0  0  0
  -28.8560  -21.7290   18.6690 C   0  0  0  0  0  3  0  0  0  0  0  0
  -29.1840  -20.8490   19.8420 N   0  0  1  0  0  4  0  0  0  0  0  0
  -28.3180  -20.8960   20.3600 H   0  0  0  0  0  0  0  0  0  0  0  0
  -28.3990  -25.2220   20.7500 C   0  0  0  0  0  2  0  0  0  0  0  0
  -28.6520  -26.5830   20.2510 O   0  0  0  0  0  0  0  0  0  0  0  0
  -24.7350  -31.8130   23.2810 C   0  0  0  0  0  0  0  0  0  0  0  0
  -27.5370  -27.4190   20.2040 C   0  0  0  0  0  0  0  0  0  0  0  0
  -23.6140  -30.4400   21.5600 C   0  0  0  0  0  3  0  0  0  0  0  0
  -25.1440  -28.9610   20.1450 C   0  0  0  0  0  0  0  0  0  0  0  0
  -26.1480  -30.8230   21.4690 C   0  0  0  0  0  2  0  0  0  0  0  0
  -26.2790  -29.4650   20.7930 C   0  0  0  0  0  0  0  0  0  0  0  0
  -27.4840  -28.7070   20.8140 C   0  0  0  0  0  3  0  0  0  0  0  0
  -26.3890  -26.9590   19.5300 C   0  0  0  0  0  3  0  0  0  0  0  0
  -25.2000  -27.7130   19.5010 C   0  0  0  0  0  3  0  0  0  0  0  0
  -23.8880  -29.8060   20.1700 C   0  0  0  0  0  2  0  0  0  0  0  0
  -24.8490  -31.0410   22.1620 N   0  0  0  0  0  0  0  0  0  0  0  0
  -23.6290  -32.0530   23.7870 O   0  0  0  0  0  0  0  0  0  0  0  0
  -22.9410  -29.3850   22.4710 C   0  0  0  0  0  0  0  0  0  0  0  0
  -21.6160  -29.2220   22.3300 N   0  0  0  0  0  0  0  0  0  0  0  0
  -23.6120  -28.7170   23.2630 O   0  0  0  0  0  0  0  0  0  0  0  0
  -21.1360  -29.8160   21.6680 H   0  0  0  0  0  0  0  0  0  0  0  0
  -18.2180  -28.0660   22.7920 C   0  0  0  0  0  0  0  0  0  0  0  0
  -20.7850  -28.2560   23.0510 C   0  0  0  0  0  3  0  0  0  0  0  0
  -20.8500  -26.8590   22.3900 C   0  0  0  0  0  2  0  0  0  0  0  0
  -19.7320  -26.6200   21.3710 C   0  0  0  0  0  2  0  0  0  0  0  0
  -18.3590  -26.7550   22.0350 C   0  0  0  0  0  2  0  0  0  0  0  0
  -19.3570  -28.7780   23.2550 C   0  0  0  0  0  0  0  0  0  0  0  0
  -19.1710  -30.0070   23.9240 C   0  0  0  0  0  3  0  0  0  0  0  0
  -17.8780  -30.5240   24.1320 C   0  0  0  0  0  3  0  0  0  0  0  0
  -16.7540  -29.8080   23.6860 C   0  0  0  0  0  3  0  0  0  0  0  0
  -16.9250  -28.5810   23.0210 C   0  0  0  0  0  3  0  0  0  0  0  0
  -25.9850  -32.4510   23.9660 C   0  0  0  0  0  3  0  0  0  0  0  0
  -26.4920  -31.6360   25.2180 C   0  0  1  0  0  0  0  0  0  0  0  0
  -25.3760  -31.3030   26.2360 C   0  0  0  0  0  1  0  0  0  0  0  0
  -27.1400  -30.3050   24.7750 C   0  0  0  0  0  1  0  0  0  0  0  0
  -27.5920  -32.4380   25.9540 C   0  0  0  0  0  1  0  0  0  0  0  0
  -25.6280  -33.8250   24.3480 N   0  0  0  0  0  0  0  0  0  0  0  0
  -25.9330  -34.9170   23.6350 C   0  0  0  0  0  0  0  0  0  0  0  0
  -26.6110  -34.8760   22.6050 O   0  0  0  0  0  0  0  0  0  0  0  0
  -25.0300  -33.9300   25.1540 H   0  0  0  0  0  0  0  0  0  0  0  0
  -24.1390  -36.6600   23.3550 C   0  0  0  0  0  1  0  0  0  0  0  0
  -25.3990  -36.2690   24.1450 C   0  0  0  0  0  3  0  0  0  0  0  0
  -27.5100  -37.1960   24.9890 C   0  0  0  0  0  1  0  0  0  0  0  0
  -26.3930  -37.3620   24.0620 N   0  0  0  0  0  0  0  0  0  0  0  0
  -25.9570  -38.2600   24.2500 H   0  0  0  0  0  0  0  0  0  0  0  0
  -30.0460  -21.9030   17.6900 C   0  0  0  0  0  2  0  0  0  0  0  0
  -29.6670  -22.5990   16.5120 O   0  0  0  0  0  0  0  0  0  0  0  0
  -29.0580  -22.0570   16.0200 H   0  0  0  0  0  0  0  0  0  0  0  0
  -29.2770  -19.3250   19.6490 C   0  0  0  0  0  3  0  0  0  0  0  0
  -28.3650  -18.6020   20.6790 C   0  0  0  0  0  2  0  0  0  0  0  0
  -26.8550  -18.8750   20.5200 C   0  0  0  0  0  2  0  0  0  0  0  0
  -26.2420  -18.2280   19.2560 C   0  0  0  0  0  2  0  0  0  0  0  0
  -24.8000  -18.4980   19.1320 N   0  0  0  0  0  4  0  0  0  0  0  0
  -24.2970  -18.1290   19.9200 H   0  0  0  0  0  0  0  0  0  0  0  0
  -24.4420  -18.0570   18.3020 H   0  0  0  0  0  0  0  0  0  0  0  0
  -24.6190  -19.4840   19.0630 H   0  0  0  0  0  0  0  0  0  0  0  0
  -30.7180  -18.6630   19.5410 C   0  0  0  0  0  2  0  0  0  0  0  0
  -31.2420  -17.5370   20.5450 C   0  0  0  0  0  2  0  0  0  0  0  0
  -31.3870  -14.9880   20.5530 C   0  0  0  0  0  0  0  0  0  0  0  0
  -31.2030  -12.6070   19.8920 C   0  0  0  0  0  2  0  0  0  0  0  0
  -30.3790  -12.5020   18.5920 C   0  0  0  0  0  2  0  0  0  0  0  0
  -28.8750  -12.4070   18.9130 C   0  0  0  0  0  2  0  0  0  0  0  0
  -28.4090  -13.4810   19.9330 C   0  0  0  0  0  3  0  0  0  0  0  0
  -29.3650  -13.5760   21.1420 C   0  0  0  0  0  2  0  0  0  0  0  0
  -30.7180  -13.7980   20.6180 N   0  0  0  0  0  0  0  0  0  0  0  0
  -32.5920  -15.0230   20.2980 O   0  0  0  0  0  0  0  0  0  0  0  0
  -30.6580  -16.1490   20.5860 N   0  0  0  0  0  0  0  0  0  0  0  0
  -29.6640  -16.0540   20.7260 H   0  0  0  0  0  0  0  0  0  0  0  0
  -26.0220  -14.1930   20.5550 C   0  0  0  0  0  0  0  0  0  0  0  0
  -24.8960  -13.4720   20.8450 C   0  0  0  0  0  0  0  0  0  0  0  0
  -25.2830  -12.0970   20.7960 C   0  0  0  0  0  0  0  0  0  0  0  0
  -27.0260  -13.2610   20.3470 N   0  0  0  0  0  0  0  0  0  0  0  0
  -26.5850  -11.9950   20.5540 N   0  0  0  0  0  0  0  0  0  0  0  0
  -24.4790  -10.8730   20.9060 C   0  0  0  0  0  0  0  0  0  0  0  0
  -24.7740   -9.8780   21.8640 C   0  0  0  0  0  3  0  0  0  0  0  0
  -23.9730   -8.7200   21.9640 C   0  0  0  0  0  3  0  0  0  0  0  0
  -22.8610   -8.5480   21.1040 C   0  0  0  0  0  0  0  0  0  0  0  0
  -22.5870   -9.5310   20.1360 C   0  0  0  0  0  3  0  0  0  0  0  0
  -23.3880  -10.6790   20.0340 C   0  0  0  0  0  3  0  0  0  0  0  0
  -22.0440   -7.4440   21.1120 O   0  0  0  0  0  0  0  0  0  0  0  0
  -21.7710   -6.7590   22.2680 C   0  0  0  0  0  0  0  0  0  0  0  0
  -21.2080   -7.3950   23.3970 C   0  0  0  0  0  3  0  0  0  0  0  0
  -20.8800   -6.6410   24.5400 C   0  0  0  0  0  3  0  0  0  0  0  0
  -21.1040   -5.2500   24.5550 C   0  0  0  0  0  0  0  0  0  0  0  0
  -21.6580   -4.6140   23.4300 C   0  0  0  0  0  3  0  0  0  0  0  0
  -21.9880   -5.3670   22.2890 C   0  0  0  0  0  0  0  0  0  0  0  0
  -22.5020   -4.7460   21.2000 F   0  0  0  0  0  0  0  0  0  0  0  0
  -20.7800   -4.5220   25.6490 F   0  0  0  0  0  0  0  0  0  0  0  0
  -23.5160  -14.0200   21.0570 C   0  0  0  0  0  0  0  0  0  0  0  0
  -22.7110  -13.3550   21.8790 N   0  0  0  0  0  0  0  0  0  0  0  0
  -23.1610  -15.0750   20.5310 O   0  0  0  0  0  0  0  0  0  0  0  0
  -23.0070  -12.4980   22.3220 H   0  0  0  0  0  0  0  0  0  0  0  0
  -21.7810  -13.7060   22.0650 H   0  0  0  0  0  0  0  0  0  0  0  0
  -26.2690  -15.5570   20.4230 N   0  0  0  0  0  0  0  0  0  0  0  0
  -25.4830  -16.1880   20.3310 H   0  0  0  0  0  0  0  0  0  0  0  0
  -27.0970  -15.8940   19.9490 H   0  0  0  0  0  0  0  0  0  0  0  0
  2  4  1  0
  3  1  1  0
  4  8  1  0
  4  1  1  0
  5 50  1  0
  5  2  1  0
  5  6  1  0
  6  7  1  1
  6  3  1  0
  9  8  1  0
 10 21  2  0
 11  9  1  0
 11 16  1  0
 12 20  1  0
 12 22  1  0
 13 19  1  0
 13 15  1  0
 14 20  1  0
 15 16  2  0
 15 14  1  0
 17 11  2  0
 18 17  1  0
 18 13  2  0
 19 12  1  0
 20 10  1  0
 22 24  2  0
 23 22  1  0
 25 23  1  0
 26 35  2  0
 26 31  1  0
 27 23  1  0
 27 31  1  0
 28 27  1  0
 29 30  1  0
 29 28  1  0
 30 26  1  0
 31 32  2  0
 32 33  1  0
 34 33  2  0
 35 34  1  0
 36 10  1  0
 36 41  1  0
 36 37  1  0
 37 40  1  1
 37 38  1  0
 39 37  1  0
 41 44  1  0
 42 46  1  0
 42 41  1  0
 43 42  2  0
 46 45  1  0
 48 46  1  0
 48 49  1  0
 48 47  1  0
 51 50  1  0
 52 51  1  0
 53 61  1  0
 53  6  1  0
 53 54  1  0
 55 54  1  0
 56 55  1  0
 57 56  1  0
 57 58  1  0
 59 57  1  0
 60 57  1  0
 61 62  1  0
 62 71  1  0
 63 71  1  0
 63 69  1  0
 64 69  1  0
 65 66  1  0
 65 64  1  0
 67 66  1  0
 67 76  1  0
 67 68  1  0
 69 68  1  0
 70 63  2  0
 71 72  1  0
 73 74  2  0
 74 93  1  0
 75 74  1  0
 75 78  1  0
 76 77  1  0
 76 73  1  0
 77 75  2  0
 78 79  1  0
 79 80  2  0
 81 84  1  0
 81 80  1  0
 82 81  2  0
 83 82  1  0
 83 78  2  0
 84 85  1  0
 85 90  2  0
 85 86  1  0
 86 87  2  0
 87 88  1  0
 88 92  1  0
 89 88  2  0
 90 89  1  0
 91 90  1  0
 93 94  1  0
 94 97  1  0
 94 96  1  0
 95 93  2  0
 98 73  1  0
 99 98  1  0
100 98  1  0
M  ISO  4   8 101   9 101  63 100  71 100
M  END
>  <TORSDO>  (44) 
F 26

>  <SCORE>  (44) 
-10.205

>  <name>  (44) 
43

>  <ligand_id>  (44) 
43

>  <original_smiles>  (44) 
[H]OC([H])([H])C1([H])C([H])([H])C([H])(C([H])([H])Oc2c([H])c([H])c3c(c2[H])C([H])([H])N(C(=O)C([H])(N([H])C(=O)C([H])(N([H])C([H])([H])[H])C([H])([H])[H])C(C([H])([H])[H])(C([H])([H])[H])C([H])([H])[H])C([H])(C(=O)N([H])C2([H])c4c([H])c([H])c([H])c([H])c4C([H])([H])C([H])([H])C2([H])[H])C3([H])[H])C([H])([H])C([H])([H])[N+]1([H])C([H])(C([H])([H])C([H])([H])N([H])C(=O)N1C([H])([H])C([H])([H])C([H])([H])C([H])(n2nc(-c3c([H])c([H])c(Oc4c([H])c([H])c(F)c([H])c4F)c([H])c3[H])c(C(=O)N([H])[H])c2N([H])[H])C1([H])[H])C([H])([H])C([H])([H])C([H])([H])[N+]([H])([H])[H]

>  <smiles>  (44) 
[H]OC([H])([H])C1([H])C([H])([H])C([H])(C([H])([H])Oc2c([H])c([H])c3c(c2[H])C([H])([H])N(C(=O)C([H])(N([H])C(=O)C([H])(N([H])C([H])([H])[H])C([H])([H])[H])C(C([H])([H])[H])(C([H])([H])[H])C([H])([H])[H])C([H])(C(=O)N([H])C2([H])c4c([H])c([H])c([H])c([H])c4C([H])([H])C([H])([H])C2([H])[H])C3([H])[H])C([H])([H])C([H])([H])[N+]1([H])C([H])(C([H])([H])C([H])([H])N([H])C(=O)N1C([H])([H])C([H])([H])C([H])([H])C([H])(n2nc(-c3c([H])c([H])c(Oc4c([H])c([H])c(F)c([H])c4F)c([H])c3[H])c(C(=O)N([H])[H])c2N([H])[H])C1([H])[H])C([H])([H])C([H])([H])C([H])([H])[N+]([H])([H])[H]

$$$$
44:0:0
     RDKit          3D

 89 93  0  0  1  0  0  0  0  0999 V2000
  -30.3170  -20.2670   21.3660 C   0  0  0  0  0  2  0  0  0  0  0  0
  -29.8540  -21.5910   22.1690 C   0  0  0  0  0  2  0  0  0  0  0  0
  -28.5290  -21.3910   19.8870 C   0  0  0  0  0 15  0  0  0  0  0  0
  -29.2020  -19.5740   20.5190 C   0  0  0  0  0  1  0  0  0  0  0  0
  -29.6080  -23.0450   21.4840 C   0  0  0  0  0  3  0  0  0  0  0  0
  -28.3110  -23.2880   20.6090 C   0  0  0  0  0  1  0  0  0  0  0  0
  -30.0930  -16.1860   20.1650 C   0  0  0  0  0  0  0  0  0  0  0  0
  -30.3060  -13.5570   19.3080 C   0  0  0  0  0  2  0  0  0  0  0  0
  -29.4350  -12.9360   18.1640 C   0  0  0  0  0  2  0  0  0  0  0  0
  -28.0670  -12.4730   18.6810 C   0  0  0  0  0  2  0  0  0  0  0  0
  -27.5150  -13.4850   19.7040 C   0  0  0  0  0  3  0  0  0  0  0  0
  -28.5500  -13.9720   20.7570 C   0  0  0  0  0  2  0  0  0  0  0  0
  -29.6110  -14.7530   20.0340 N   0  0  0  0  0  0  0  0  0  0  0  0
  -31.3390  -16.0460   20.0800 O   0  0  0  0  0  0  0  0  0  0  0  0
  -29.3340  -17.6640   20.2070 N   0  0  0  0  0  2  0  0  0  0  0  0
  -28.3710  -17.3830   20.0730 H   0  0  0  0  0  0  0  0  0  0  0  0
  -25.1830  -13.9490   20.5640 C   0  0  0  0  0  0  0  0  0  0  0  0
  -24.1440  -13.1490   20.9440 C   0  0  0  0  0  0  0  0  0  0  0  0
  -24.6270  -11.8060   20.8700 C   0  0  0  0  0  0  0  0  0  0  0  0
  -26.2310  -13.0980   20.2720 N   0  0  0  0  0  0  0  0  0  0  0  0
  -25.9130  -11.7970   20.5180 N   0  0  0  0  0  0  0  0  0  0  0  0
  -23.9130  -10.5340   21.0540 C   0  0  0  0  0  0  0  0  0  0  0  0
  -24.3620   -9.5570   21.9700 C   0  0  0  0  0  3  0  0  0  0  0  0
  -23.6410   -8.3570   22.1480 C   0  0  0  0  0  3  0  0  0  0  0  0
  -22.4560   -8.1220   21.4110 C   0  0  0  0  0  0  0  0  0  0  0  0
  -22.0240   -9.0870   20.4840 C   0  0  0  0  0  3  0  0  0  0  0  0
  -22.7460  -10.2800   20.3040 C   0  0  0  0  0  3  0  0  0  0  0  0
  -21.7070   -6.9740   21.4990 O   0  0  0  0  0  0  0  0  0  0  0  0
  -21.6670   -6.2250   22.6470 C   0  0  0  0  0  0  0  0  0  0  0  0
  -21.2270   -6.7660   23.8740 C   0  0  0  0  0  3  0  0  0  0  0  0
  -21.1360   -5.9450   25.0150 C   0  0  0  0  0  3  0  0  0  0  0  0
  -21.4760   -4.5810   24.9300 C   0  0  0  0  0  0  0  0  0  0  0  0
  -21.9070   -4.0370   23.7070 C   0  0  0  0  0  3  0  0  0  0  0  0
  -22.0000   -4.8570   22.5690 C   0  0  0  0  0  0  0  0  0  0  0  0
  -22.3970   -4.3240   21.3880 F   0  0  0  0  0  0  0  0  0  0  0  0
  -21.3810   -3.7880   26.0230 F   0  0  0  0  0  0  0  0  0  0  0  0
  -22.7500  -13.6090   21.2530 C   0  0  0  0  0  0  0  0  0  0  0  0
  -22.0490  -12.8950   22.1260 N   0  0  0  0  0  0  0  0  0  0  0  0
  -22.2950  -14.6390   20.7600 O   0  0  0  0  0  0  0  0  0  0  0  0
  -22.4320  -12.0620   22.5480 H   0  0  0  0  0  0  0  0  0  0  0  0
  -21.1130  -13.1860   22.3750 H   0  0  0  0  0  0  0  0  0  0  0  0
  -25.3190  -15.3250   20.4060 N   0  0  0  0  0  0  0  0  0  0  0  0
  -24.5440  -15.9630   20.5480 H   0  0  0  0  0  0  0  0  0  0  0  0
  -26.1470  -15.7800   20.0470 H   0  0  0  0  0  0  0  0  0  0  0  0
  -29.6690  -24.1120   22.5040 N   0  0  0  0  0  4  0  0  0  0  0  0
  -28.9580  -23.9970   23.2050 H   0  0  0  0  0  0  0  0  0  0  0  0
  -29.5120  -24.9990   22.0510 H   0  0  0  0  0  0  0  0  0  0  0  0
  -30.5680  -24.1440   22.9540 H   0  0  0  0  0  0  0  0  0  0  0  0
  -28.2030  -25.1970   20.3640 O   0  0  0  0  0  1  0  0  0  0  0  0
  -24.6910  -31.8930   23.2330 C   0  0  0  0  0  0  0  0  0  0  0  0
  -27.2300  -26.5170   20.3880 C   0  0  0  0  0  0  0  0  0  0  0  0
  -23.5280  -30.4630   21.6120 C   0  0  0  0  0  3  0  0  0  0  0  0
  -24.9880  -28.7320   20.2650 C   0  0  0  0  0  0  0  0  0  0  0  0
  -26.1210  -30.5210   21.5430 C   0  0  0  0  0  2  0  0  0  0  0  0
  -26.1870  -29.0450   20.9160 C   0  0  0  0  0  0  0  0  0  0  0  0
  -27.2790  -27.9790   20.9280 C   0  0  0  0  0  3  0  0  0  0  0  0
  -25.9890  -26.4890   19.6750 C   0  0  0  0  0  3  0  0  0  0  0  0
  -24.9450  -27.4830   19.6180 C   0  0  0  0  0  3  0  0  0  0  0  0
  -23.7960  -29.7210   20.2670 C   0  0  0  0  0  2  0  0  0  0  0  0
  -24.8080  -31.0010   22.1810 N   0  0  0  0  0  0  0  0  0  0  0  0
  -23.5880  -32.2120   23.7130 O   0  0  0  0  0  0  0  0  0  0  0  0
  -22.7760  -29.5260   22.5980 C   0  0  0  0  0  0  0  0  0  0  0  0
  -21.4420  -29.3830   22.4620 N   0  0  0  0  0  0  0  0  0  0  0  0
  -23.4120  -28.9210   23.4630 O   0  0  0  0  0  0  0  0  0  0  0  0
  -20.9760  -29.9210   21.7450 H   0  0  0  0  0  0  0  0  0  0  0  0
  -18.0450  -28.1740   22.9660 C   0  0  0  0  0  0  0  0  0  0  0  0
  -20.6040  -28.4620   23.2430 C   0  0  0  0  0  3  0  0  0  0  0  0
  -20.7130  -27.0170   22.6990 C   0  0  0  0  0  2  0  0  0  0  0  0
  -19.6230  -26.6730   21.6790 C   0  0  0  0  0  2  0  0  0  0  0  0
  -18.2350  -26.8190   22.3060 C   0  0  0  0  0  2  0  0  0  0  0  0
  -19.1560  -28.9520   23.3910 C   0  0  0  0  0  0  0  0  0  0  0  0
  -18.9200  -30.2160   23.9740 C   0  0  0  0  0  3  0  0  0  0  0  0
  -17.6080  -30.7040   24.1320 C   0  0  0  0  0  3  0  0  0  0  0  0
  -16.5130  -29.9250   23.7200 C   0  0  0  0  0  3  0  0  0  0  0  0
  -16.7320  -28.6610   23.1430 C   0  0  0  0  0  3  0  0  0  0  0  0
  -25.9350  -32.5680   23.8870 C   0  0  0  0  0  3  0  0  0  0  0  0
  -26.4130  -31.8340   25.2030 C   0  0  1  0  0  0  0  0  0  0  0  0
  -25.2890  -31.6220   26.2450 C   0  0  0  0  0  1  0  0  0  0  0  0
  -27.0130  -30.4480   24.8820 C   0  0  0  0  0  1  0  0  0  0  0  0
  -27.5410  -32.6500   25.8780 C   0  0  0  0  0  1  0  0  0  0  0  0
  -25.5960  -33.9730   24.2050 N   0  0  0  0  0  0  0  0  0  0  0  0
  -25.9140  -35.0380   23.4570 C   0  0  0  0  0  0  0  0  0  0  0  0
  -26.5720  -34.9440   22.4190 O   0  0  0  0  0  0  0  0  0  0  0  0
  -25.0050  -34.1180   25.0100 H   0  0  0  0  0  0  0  0  0  0  0  0
  -24.1570  -36.8270   23.1660 C   0  0  0  0  0  1  0  0  0  0  0  0
  -25.4310  -36.4290   23.9300 C   0  0  0  0  0  3  0  0  0  0  0  0
  -27.5790  -37.3560   24.6850 C   0  0  0  0  0  1  0  0  0  0  0  0
  -26.4470  -37.4940   23.7720 N   0  0  0  0  0  0  0  0  0  0  0  0
  -26.0350  -38.4120   23.9150 H   0  0  0  0  0  0  0  0  0  0  0  0
  1  2  1  0
  4  1  1  0
  5  6  1  0
  5  2  1  0
  5 45  1  0
  7 15  1  0
  8 13  1  0
  9 10  1  0
  9  8  1  0
 11 10  1  0
 11 20  1  0
 11 12  1  0
 13  7  1  0
 13 12  1  0
 14  7  2  0
 16 15  1  0
 17 18  2  0
 18 37  1  0
 19 18  1  0
 19 22  1  0
 20 21  1  0
 20 17  1  0
 21 19  2  0
 22 23  1  0
 23 24  2  0
 25 28  1  0
 25 24  1  0
 26 25  2  0
 27 26  1  0
 27 22  2  0
 28 29  1  0
 29 30  1  0
 30 31  2  0
 32 31  1  0
 32 36  1  0
 33 32  2  0
 34 29  2  0
 34 33  1  0
 35 34  1  0
 37 38  1  0
 38 41  1  0
 38 40  1  0
 39 37  2  0
 42 43  1  0
 42 17  1  0
 44 42  1  0
 45 48  1  0
 45 46  1  0
 47 45  1  0
 49 51  1  0
 50 61  2  0
 51 56  1  0
 52 60  1  0
 52 62  1  0
 53 59  1  0
 53 55  1  0
 54 60  1  0
 55 56  2  0
 55 54  1  0
 57 51  2  0
 58 57  1  0
 58 53  2  0
 59 52  1  0
 60 50  1  0
 62 64  2  0
 63 62  1  0
 65 63  1  0
 66 75  2  0
 66 71  1  0
 67 63  1  0
 67 71  1  0
 68 67  1  0
 69 70  1  0
 69 68  1  0
 70 66  1  0
 71 72  2  0
 72 73  1  0
 74 73  2  0
 75 74  1  0
 76 50  1  0
 76 81  1  0
 76 77  1  0
 77 80  1  1
 77 78  1  0
 79 77  1  0
 81 84  1  0
 82 86  1  0
 82 81  1  0
 83 82  2  0
 86 85  1  0
 88 89  1  0
 88 86  1  0
 88 87  1  0
M  ISO  4   6 101   7 100  15 100  49 101
M  END
>  <TORSDO>  (45) 
F 17

>  <SCORE>  (45) 
-16.380

>  <name>  (45) 
44

>  <ligand_id>  (45) 
44

>  <original_smiles>  (45) 
[H]c1c([H])c([H])c2c(c1[H])C([H])([H])C([H])([H])C([H])([H])C2([H])N([H])C(=O)C1([H])N(C(=O)C([H])(N([H])C(=O)C([H])(N([H])C([H])([H])[H])C([H])([H])[H])C(C([H])([H])[H])(C([H])([H])[H])C([H])([H])[H])C([H])([H])c2c([H])c(OC3([H])C([H])([H])C([H])(N([H])C(=O)N4C([H])([H])C([H])([H])C([H])([H])C([H])(n5nc(-c6c([H])c([H])c(Oc7c([H])c([H])c(F)c([H])c7F)c([H])c6[H])c(C(=O)N([H])[H])c5N([H])[H])C4([H])[H])C([H])([H])C([H])([H])C3([H])[N+]([H])([H])[H])c([H])c([H])c2C1([H])[H]

>  <smiles>  (45) 
[H]c1c([H])c([H])c2c(c1[H])C([H])([H])C([H])([H])C([H])([H])C2([H])N([H])C(=O)C1([H])N(C(=O)C([H])(N([H])C(=O)C([H])(N([H])C([H])([H])[H])C([H])([H])[H])C(C([H])([H])[H])(C([H])([H])[H])C([H])([H])[H])C([H])([H])c2c([H])c(OC3([H])C([H])([H])C([H])(N([H])C(=O)N4C([H])([H])C([H])([H])C([H])([H])C([H])(n5nc(-c6c([H])c([H])c(Oc7c([H])c([H])c(F)c([H])c7F)c([H])c6[H])c(C(=O)N([H])[H])c5N([H])[H])C4([H])[H])C([H])([H])C([H])([H])C3([H])[N+]([H])([H])[H])c([H])c([H])c2C1([H])[H]

$$$$
45:0:0
     RDKit          3D

 89 97  0  0  1  0  0  0  0  0999 V2000
  -29.1700  -22.0110   20.5030 N   0  0  0  0  0  4  0  0  0  0  0  0
  -29.3920  -22.0110   21.4890 H   0  0  0  0  0  0  0  0  0  0  0  0
  -28.1960  -21.7500   20.4430 H   0  0  0  0  0  0  0  0  0  0  0  0
  -29.9770  -20.8060   19.8530 C   0  0  0  0  0  2  0  0  0  0  0  0
  -30.1160  -19.2540   20.5320 C   0  0  0  0  0  2  0  0  0  0  0  0
  -30.5280  -15.0770   20.1360 C   0  0  0  0  0  0  0  0  0  0  0  0
  -30.3960  -12.7270   19.1340 C   0  0  0  0  0  2  0  0  0  0  0  0
  -29.4230  -12.6820   17.9280 C   0  0  0  0  0  2  0  0  0  0  0  0
  -27.9650  -12.4690   18.3920 C   0  0  0  0  0  2  0  0  0  0  0  0
  -27.5990  -13.3370   19.6220 C   0  0  0  0  0  3  0  0  0  0  0  0
  -28.7060  -13.2650   20.7050 C   0  0  0  0  0  2  0  0  0  0  0  0
  -29.9290  -13.7980   20.0750 N   0  0  0  0  0  0  0  0  0  0  0  0
  -31.7080  -15.1110   19.7520 O   0  0  0  0  0  0  0  0  0  0  0  0
  -27.7050  -17.5690   20.2590 C   0  0  0  0  0  2  0  0  0  0  0  0
  -28.5800  -17.9110   19.0670 C   0  0  0  0  0  2  0  0  0  0  0  0
  -28.5010  -16.4730   21.0070 C   0  0  0  0  0  2  0  0  0  0  0  0
  -29.9600  -17.7840   19.6990 C   0  0  0  0  0  3  0  0  0  0  0  0
  -29.8140  -16.3290   20.3400 N   0  0  0  0  0  0  0  0  0  0  0  0
  -25.2130  -13.8900   20.3910 C   0  0  0  0  0  0  0  0  0  0  0  0
  -24.1690  -13.1150   20.7940 C   0  0  0  0  0  0  0  0  0  0  0  0
  -24.6490  -11.7710   20.7600 C   0  0  0  0  0  0  0  0  0  0  0  0
  -26.2700  -13.0290   20.1440 N   0  0  0  0  0  0  0  0  0  0  0  0
  -25.9350  -11.7450   20.4230 N   0  0  0  0  0  0  0  0  0  0  0  0
  -23.9380  -10.5080   20.9700 C   0  0  0  0  0  0  0  0  0  0  0  0
  -24.3900   -9.5500   21.9020 C   0  0  0  0  0  3  0  0  0  0  0  0
  -23.6730   -8.3520   22.0980 C   0  0  0  0  0  3  0  0  0  0  0  0
  -22.4880   -8.1040   21.3630 C   0  0  0  0  0  0  0  0  0  0  0  0
  -22.0560   -9.0520   20.4200 C   0  0  0  0  0  3  0  0  0  0  0  0
  -22.7740  -10.2410   20.2200 C   0  0  0  0  0  3  0  0  0  0  0  0
  -21.7410   -6.9570   21.4710 O   0  0  0  0  0  0  0  0  0  0  0  0
  -21.7100   -6.2260   22.6300 C   0  0  0  0  0  0  0  0  0  0  0  0
  -21.2970   -6.7920   23.8570 C   0  0  0  0  0  3  0  0  0  0  0  0
  -21.2170   -5.9870   25.0110 C   0  0  0  0  0  3  0  0  0  0  0  0
  -21.5380   -4.6180   24.9390 C   0  0  0  0  0  0  0  0  0  0  0  0
  -21.9440   -4.0520   23.7170 C   0  0  0  0  0  3  0  0  0  0  0  0
  -22.0270   -4.8550   22.5660 C   0  0  0  0  0  0  0  0  0  0  0  0
  -22.3990   -4.3030   21.3850 F   0  0  0  0  0  0  0  0  0  0  0  0
  -21.4510   -3.8420   26.0440 F   0  0  0  0  0  0  0  0  0  0  0  0
  -22.7750  -13.5870   21.0930 C   0  0  0  0  0  0  0  0  0  0  0  0
  -22.0740  -12.8940   21.9810 N   0  0  0  0  0  0  0  0  0  0  0  0
  -22.3200  -14.6090   20.5790 O   0  0  0  0  0  0  0  0  0  0  0  0
  -22.4510  -12.0660   22.4180 H   0  0  0  0  0  0  0  0  0  0  0  0
  -21.1400  -13.1930   22.2250 H   0  0  0  0  0  0  0  0  0  0  0  0
  -25.3280  -15.2540   20.1890 N   0  0  0  0  0  0  0  0  0  0  0  0
  -24.5380  -15.8810   20.3010 H   0  0  0  0  0  0  0  0  0  0  0  0
  -26.1470  -15.6990   19.8000 H   0  0  0  0  0  0  0  0  0  0  0  0
  -29.2840  -23.5220   20.0080 C   0  0  0  0  0  3  0  0  0  0  0  0
  -28.2220  -24.7440   20.4910 C   0  0  0  0  0  3  0  0  0  0  0  0
  -28.3720  -26.2810   20.2650 O   0  0  0  0  0  0  0  0  0  0  0  0
  -24.5900  -31.8810   23.2340 C   0  0  0  0  0  0  0  0  0  0  0  0
  -27.2610  -27.2030   20.2420 C   0  0  0  0  0  0  0  0  0  0  0  0
  -23.4150  -30.4700   21.5880 C   0  0  0  0  0  3  0  0  0  0  0  0
  -24.8910  -28.8980   20.1910 C   0  0  0  0  0  0  0  0  0  0  0  0
  -25.9640  -30.7660   21.4400 C   0  0  0  0  0  2  0  0  0  0  0  0
  -26.0600  -29.3710   20.7990 C   0  0  0  0  0  0  0  0  0  0  0  0
  -27.2450  -28.5410   20.8020 C   0  0  0  0  0  3  0  0  0  0  0  0
  -26.0600  -26.8230   19.6000 C   0  0  0  0  0  3  0  0  0  0  0  0
  -24.9020  -27.6350   19.5770 C   0  0  0  0  0  3  0  0  0  0  0  0
  -23.6540  -29.7820   20.2180 C   0  0  0  0  0  2  0  0  0  0  0  0
  -24.6750  -31.0600   22.1450 N   0  0  0  0  0  0  0  0  0  0  0  0
  -23.4960  -32.1580   23.7530 O   0  0  0  0  0  0  0  0  0  0  0  0
  -22.7330  -29.4640   22.5490 C   0  0  0  0  0  0  0  0  0  0  0  0
  -21.4060  -29.2870   22.4120 N   0  0  0  0  0  0  0  0  0  0  0  0
  -23.4020  -28.8440   23.3790 O   0  0  0  0  0  0  0  0  0  0  0  0
  -20.9210  -29.8420   21.7200 H   0  0  0  0  0  0  0  0  0  0  0  0
  -18.0320  -28.0590   22.8850 C   0  0  0  0  0  0  0  0  0  0  0  0
  -20.5850  -28.3470   23.1790 C   0  0  0  0  0  3  0  0  0  0  0  0
  -20.7050  -26.9110   22.6150 C   0  0  0  0  0  2  0  0  0  0  0  0
  -19.6180  -26.5720   21.5890 C   0  0  0  0  0  2  0  0  0  0  0  0
  -18.2270  -26.7100   22.2160 C   0  0  0  0  0  2  0  0  0  0  0  0
  -19.1390  -28.8350   23.3230 C   0  0  0  0  0  0  0  0  0  0  0  0
  -18.9010  -30.0980   23.9080 C   0  0  0  0  0  3  0  0  0  0  0  0
  -17.5900  -30.5870   24.0600 C   0  0  0  0  0  3  0  0  0  0  0  0
  -16.4970  -29.8100   23.6380 C   0  0  0  0  0  3  0  0  0  0  0  0
  -16.7190  -28.5480   23.0570 C   0  0  0  0  0  3  0  0  0  0  0  0
  -25.8580  -32.5290   23.8710 C   0  0  0  0  0  3  0  0  0  0  0  0
  -26.3550  -31.7730   25.1650 C   0  0  1  0  0  0  0  0  0  0  0  0
  -25.2470  -31.5460   26.2190 C   0  0  0  0  0  1  0  0  0  0  0  0
  -26.9470  -30.3940   24.7990 C   0  0  0  0  0  1  0  0  0  0  0  0
  -27.4960  -32.5770   25.8340 C   0  0  0  0  0  1  0  0  0  0  0  0
  -25.5360  -33.9280   24.1870 N   0  0  0  0  0  0  0  0  0  0  0  0
  -25.8760  -34.9800   23.4310 C   0  0  0  0  0  0  0  0  0  0  0  0
  -26.5600  -34.8750   22.4090 O   0  0  0  0  0  0  0  0  0  0  0  0
  -24.9360  -34.0850   24.9830 H   0  0  0  0  0  0  0  0  0  0  0  0
  -24.1510  -36.7730   23.0500 C   0  0  0  0  0  1  0  0  0  0  0  0
  -25.3820  -36.3710   23.8780 C   0  0  0  0  0  3  0  0  0  0  0  0
  -27.5040  -37.2620   24.7340 C   0  0  0  0  0  1  0  0  0  0  0  0
  -26.4140  -37.4250   23.7740 N   0  0  0  0  0  0  0  0  0  0  0  0
  -26.0060  -38.3450   23.9130 H   0  0  0  0  0  0  0  0  0  0  0  0
  1  2  1  0
  3  1  1  0
  4  1  1  0
  4  5  1  0
  6 18  1  0
  7 12  1  0
  8  9  1  0
  8  7  1  0
 10  9  1  0
 10 22  1  0
 10 11  1  0
 12  6  1  0
 12 11  1  0
 13  6  2  0
 14 16  1  0
 15 17  1  0
 15 14  1  0
 17 18  1  0
 17  5  1  0
 18 16  1  0
 19 20  2  0
 20 39  1  0
 21 20  1  0
 21 24  1  0
 22 19  1  0
 22 23  1  0
 23 21  2  0
 24 25  1  0
 25 26  2  0
 27 30  1  0
 27 26  1  0
 28 27  2  0
 29 28  1  0
 29 24  2  0
 30 31  1  0
 31 32  1  0
 32 33  2  0
 34 33  1  0
 34 38  1  0
 35 34  2  0
 36 31  2  0
 36 35  1  0
 37 36  1  0
 39 40  1  0
 40 43  1  0
 40 42  1  0
 41 39  2  0
 44 45  1  0
 44 19  1  0
 46 44  1  0
 47 48  2  0
 47  1  1  0
 49 48  1  0
 50 61  2  0
 51 49  1  0
 51 56  1  0
 52 60  1  0
 52 62  1  0
 53 59  1  0
 53 55  1  0
 54 60  1  0
 55 56  2  0
 55 54  1  0
 57 51  2  0
 58 57  1  0
 58 53  2  0
 59 52  1  0
 60 50  1  0
 62 64  2  0
 63 62  1  0
 65 63  1  0
 66 75  2  0
 66 71  1  0
 67 63  1  0
 67 71  1  0
 68 67  1  0
 69 70  1  0
 69 68  1  0
 70 66  1  0
 71 72  2  0
 72 73  1  0
 74 73  2  0
 75 74  1  0
 76 50  1  0
 76 81  1  0
 76 77  1  0
 77 80  1  1
 77 78  1  0
 79 77  1  0
 81 84  1  0
 82 86  1  0
 82 81  1  0
 83 82  2  0
 86 85  1  0
 88 86  1  0
 88 89  1  0
 88 87  1  0
M  ISO  4   6 100  18 100  48 101  49 101
M  END
>  <TORSDO>  (46) 
F 20

>  <SCORE>  (46) 
-14.644

>  <name>  (46) 
45

>  <ligand_id>  (46) 
45

>  <original_smiles>  (46) 
[H]c1c([H])c([H])c2c(c1[H])C([H])([H])C([H])([H])C([H])([H])C2([H])N([H])C(=O)C1([H])N(C(=O)C([H])(N([H])C(=O)C([H])(N([H])C([H])([H])[H])C([H])([H])[H])C(C([H])([H])[H])(C([H])([H])[H])C([H])([H])[H])C([H])([H])c2c([H])c(OC([H])([H])C([H])([H])[N+]([H])([H])C([H])([H])C([H])([H])C3([H])N(C(=O)N4C([H])([H])C([H])([H])C([H])([H])C([H])(n5nc(-c6c([H])c([H])c(Oc7c([H])c([H])c(F)c([H])c7F)c([H])c6[H])c(C(=O)N([H])[H])c5N([H])[H])C4([H])[H])C([H])([H])C([H])([H])C3([H])[H])c([H])c([H])c2C1([H])[H]

>  <smiles>  (46) 
[H]c1c([H])c([H])c2c(c1[H])C([H])([H])C([H])([H])C([H])([H])C2([H])N([H])C(=O)C1([H])N(C(=O)C([H])(N([H])C(=O)C([H])(N([H])C([H])([H])[H])C([H])([H])[H])C(C([H])([H])[H])(C([H])([H])[H])C([H])([H])[H])C([H])([H])c2c([H])c(OC([H])([H])C([H])([H])[N+]([H])([H])C([H])([H])C([H])([H])C3([H])N(C(=O)N4C([H])([H])C([H])([H])C([H])([H])C([H])(n5nc(-c6c([H])c([H])c(Oc7c([H])c([H])c(F)c([H])c7F)c([H])c6[H])c(C(=O)N([H])[H])c5N([H])[H])C4([H])[H])C([H])([H])C([H])([H])C3([H])[H])c([H])c([H])c2C1([H])[H]

$$$$
46:0:0
     RDKit          3D

 96104  0  0  1  0  0  0  0  0999 V2000
  -29.3490  -24.3410   21.6860 C   0  0  0  0  0  2  0  0  0  0  0  0
  -30.2550  -21.8990   21.3360 C   0  0  0  0  0  2  0  0  0  0  0  0
  -30.4300  -23.4540   19.4360 C   0  0  0  0  0  2  0  0  0  0  0  0
  -30.3520  -23.2350   22.1500 C   0  0  0  0  0  3  0  0  0  0  0  0
  -29.4380  -24.7460   20.1770 C   0  0  0  0  0  3  0  0  0  0  0  0
  -30.9360  -22.0120   20.0390 N   0  0  0  0  0  0  0  0  0  0  0  0
  -30.2440  -22.9810   23.6030 N   0  0  0  0  0  4  0  0  0  0  0  0
  -29.4240  -22.4470   23.8200 H   0  0  0  0  0  0  0  0  0  0  0  0
  -30.2100  -23.8380   24.1250 H   0  0  0  0  0  0  0  0  0  0  0  0
  -31.0450  -22.4670   23.9320 H   0  0  0  0  0  0  0  0  0  0  0  0
  -29.3670  -26.4020   20.1690 O   0  0  0  0  0  0  0  0  0  0  0  0
  -25.0550  -31.5440   23.6810 C   0  0  0  0  0  0  0  0  0  0  0  0
  -28.2250  -27.3550   20.2680 C   0  0  0  0  0  0  0  0  0  0  0  0
  -24.1030  -30.3230   21.7640 C   0  0  0  0  0  3  0  0  0  0  0  0
  -25.7830  -29.0420   20.2720 C   0  0  0  0  0  0  0  0  0  0  0  0
  -26.6470  -30.7410   21.8690 C   0  0  0  0  0  2  0  0  0  0  0  0
  -26.8830  -29.4460   21.0400 C   0  0  0  0  0  0  0  0  0  0  0  0
  -28.1020  -28.6310   21.0060 C   0  0  0  0  0  3  0  0  0  0  0  0
  -27.0820  -27.0930   19.4780 C   0  0  0  0  0  3  0  0  0  0  0  0
  -25.9080  -27.8940   19.4700 C   0  0  0  0  0  3  0  0  0  0  0  0
  -24.4940  -29.8600   20.3320 C   0  0  0  0  0  2  0  0  0  0  0  0
  -25.2840  -30.8890   22.4970 N   0  0  0  0  0  0  0  0  0  0  0  0
  -23.9100  -31.6820   24.1450 O   0  0  0  0  0  0  0  0  0  0  0  0
  -23.4190  -29.1540   22.5200 C   0  0  0  0  0  0  0  0  0  0  0  0
  -22.1090  -28.9440   22.2910 N   0  0  0  0  0  0  0  0  0  0  0  0
  -24.0750  -28.4400   23.2840 O   0  0  0  0  0  0  0  0  0  0  0  0
  -21.6290  -29.5800   21.6710 H   0  0  0  0  0  0  0  0  0  0  0  0
  -18.7810  -27.5040   22.4090 C   0  0  0  0  0  0  0  0  0  0  0  0
  -21.3060  -27.8510   22.8520 C   0  0  0  0  0  3  0  0  0  0  0  0
  -21.5150  -26.5400   22.0590 C   0  0  0  0  0  2  0  0  0  0  0  0
  -20.4810  -26.3360   20.9460 C   0  0  0  0  0  2  0  0  0  0  0  0
  -19.0650  -26.2980   21.5290 C   0  0  0  0  0  2  0  0  0  0  0  0
  -19.8310  -28.2420   23.0170 C   0  0  0  0  0  0  0  0  0  0  0  0
  -19.5080  -29.3710   23.8030 C   0  0  0  0  0  3  0  0  0  0  0  0
  -18.1690  -29.7650   23.9810 C   0  0  0  0  0  3  0  0  0  0  0  0
  -17.1330  -29.0250   23.3850 C   0  0  0  0  0  3  0  0  0  0  0  0
  -17.4400  -27.8930   22.6070 C   0  0  0  0  0  3  0  0  0  0  0  0
  -26.2200  -32.1720   24.5080 C   0  0  0  0  0  3  0  0  0  0  0  0
  -25.8160  -33.5320   24.9070 N   0  0  0  0  0  0  0  0  0  0  0  0
  -26.2890  -34.6630   24.3640 C   0  0  0  0  0  0  0  0  0  0  0  0
  -27.1690  -34.6680   23.5000 O   0  0  0  0  0  0  0  0  0  0  0  0
  -25.0540  -33.6010   25.5640 H   0  0  0  0  0  0  0  0  0  0  0  0
  -24.6220  -36.4850   23.8690 C   0  0  0  0  0  1  0  0  0  0  0  0
  -25.6950  -35.9990   24.8560 C   0  0  0  0  0  3  0  0  0  0  0  0
  -27.6280  -36.7940   26.1470 C   0  0  0  0  0  1  0  0  0  0  0  0
  -26.7080  -37.0610   25.0450 N   0  0  0  0  0  0  0  0  0  0  0  0
  -26.2610  -37.9580   25.2150 H   0  0  0  0  0  0  0  0  0  0  0  0
  -26.6010  -31.3220   25.7840 C   0  0  1  0  0  0  0  0  0  0  0  0
  -25.3920  -30.9820   26.6890 C   0  0  0  0  0  1  0  0  0  0  0  0
  -27.2710  -29.9870   25.3830 C   0  0  0  0  0  1  0  0  0  0  0  0
  -27.6350  -32.0950   26.6390 C   0  0  0  0  0  1  0  0  0  0  0  0
  -31.2940  -20.5570   19.3450 C   0  0  0  0  0  2  0  0  0  0  0  0
  -32.6940  -19.4040   19.4700 C   0  0  0  0  0  2  0  0  0  0  0  0
  -33.9290  -16.7470   19.0560 C   0  0  0  0  0  0  0  0  0  0  0  0
  -34.5260  -14.4750   17.8970 C   0  0  0  0  0  2  0  0  0  0  0  0
  -33.5160  -14.0480   16.7940 C   0  0  0  0  0  2  0  0  0  0  0  0
  -32.2870  -13.3230   17.3790 C   0  0  0  0  0  2  0  0  0  0  0  0
  -31.7880  -14.0100   18.6720 C   0  0  0  0  0  3  0  0  0  0  0  0
  -32.9540  -14.3180   19.6380 C   0  0  0  0  0  2  0  0  0  0  0  0
  -33.8070  -15.3130   18.9370 N   0  0  0  0  0  0  0  0  0  0  0  0
  -35.0070  -17.1420   18.5810 O   0  0  0  0  0  0  0  0  0  0  0  0
  -32.8620  -17.7210   19.4960 N   0  0  0  0  0  0  0  0  0  0  0  0
  -29.3740  -13.6890   19.4340 C   0  0  0  0  0  0  0  0  0  0  0  0
  -28.7340  -12.6490   20.0490 C   0  0  0  0  0  0  0  0  0  0  0  0
  -29.7270  -11.6490   20.2750 C   0  0  0  0  0  0  0  0  0  0  0  0
  -30.6960  -13.2960   19.3150 N   0  0  0  0  0  0  0  0  0  0  0  0
  -30.9200  -12.0850   19.8860 N   0  0  0  0  0  0  0  0  0  0  0  0
  -29.5970  -10.2770   20.7820 C   0  0  0  0  0  0  0  0  0  0  0  0
  -30.6620   -9.6280   21.4430 C   0  0  0  0  0  3  0  0  0  0  0  0
  -30.5010   -8.3130   21.9360 C   0  0  0  0  0  3  0  0  0  0  0  0
  -29.2670   -7.6430   21.7750 C   0  0  0  0  0  0  0  0  0  0  0  0
  -28.2180   -8.2860   21.0930 C   0  0  0  0  0  3  0  0  0  0  0  0
  -28.3810   -9.5890   20.5970 C   0  0  0  0  0  3  0  0  0  0  0  0
  -29.0260   -6.3610   22.2080 O   0  0  0  0  0  0  0  0  0  0  0  0
  -29.9420   -5.6700   22.9570 C   0  0  0  0  0  0  0  0  0  0  0  0
  -30.9130   -6.3330   23.7450 C   0  0  0  0  0  3  0  0  0  0  0  0
  -31.7910   -5.5840   24.5560 C   0  0  0  0  0  3  0  0  0  0  0  0
  -31.6900   -4.1800   24.5930 C   0  0  0  0  0  0  0  0  0  0  0  0
  -30.7240   -3.5210   23.8160 C   0  0  0  0  0  3  0  0  0  0  0  0
  -29.8490   -4.2640   23.0050 C   0  0  0  0  0  0  0  0  0  0  0  0
  -28.9030   -3.6260   22.2730 F   0  0  0  0  0  0  0  0  0  0  0  0
  -32.5300   -3.4630   25.3790 F   0  0  0  0  0  0  0  0  0  0  0  0
  -27.2580  -12.5480   20.3020 C   0  0  0  0  0  0  0  0  0  0  0  0
  -26.8600  -11.8000   21.3250 N   0  0  0  0  0  0  0  0  0  0  0  0
  -26.4520  -13.1720   19.6160 O   0  0  0  0  0  0  0  0  0  0  0  0
  -27.5310  -11.3180   21.9040 H   0  0  0  0  0  0  0  0  0  0  0  0
  -25.8730  -11.7060   21.5310 H   0  0  0  0  0  0  0  0  0  0  0  0
  -28.9310  -14.9160   18.9440 N   0  0  0  0  0  0  0  0  0  0  0  0
  -27.9240  -14.9970   18.8310 H   0  0  0  0  0  0  0  0  0  0  0  0
  -29.4190  -15.3180   18.1500 H   0  0  0  0  0  0  0  0  0  0  0  0
  -32.0420  -17.1320   20.5830 C   0  0  0  0  0  2  0  0  0  0  0  0
  -31.0360  -17.9810   21.3980 C   0  0  0  0  0  2  0  0  0  0  0  0
  -30.5130  -17.2470   22.5620 N   0  0  0  0  0  4  0  0  0  0  0  0
  -29.9770  -16.4480   22.2670 H   0  0  0  0  0  0  0  0  0  0  0  0
  -29.9160  -17.8470   23.1070 H   0  0  0  0  0  0  0  0  0  0  0  0
  -31.2630  -16.9360   23.1550 H   0  0  0  0  0  0  0  0  0  0  0  0
  1  4  1  0
  2  4  1  0
  3  6  1  0
  3  5  1  0
  4  7  1  0
  5 11  1  0
  5  1  1  0
  6  2  1  0
  7  8  1  0
  7 10  1  0
  7  9  1  0
 11 13  1  0
 12 23  2  0
 13 18  1  0
 14 22  1  0
 14 24  1  0
 15 21  1  0
 15 17  1  0
 16 22  1  0
 17 16  1  0
 18 17  2  0
 19 13  2  0
 20 19  1  0
 20 15  2  0
 21 14  1  0
 22 12  1  0
 24 26  2  0
 25 24  1  0
 27 25  1  0
 28 37  2  0
 28 33  1  0
 29 25  1  0
 29 33  1  0
 30 29  1  0
 31 32  1  0
 31 30  1  0
 32 28  1  0
 33 34  2  0
 34 35  1  0
 36 35  2  0
 37 36  1  0
 38 12  1  0
 38 39  1  0
 38 48  1  0
 39 42  1  0
 40 44  1  0
 40 39  1  0
 41 40  2  0
 44 43  1  0
 44 46  1  0
 46 47  1  0
 46 45  1  0
 48 51  1  1
 48 49  1  0
 50 48  1  0
 52 53  1  0
 52  6  1  0
 53 62  1  0
 54 62  1  0
 55 60  1  0
 56 57  1  0
 56 55  1  0
 58 57  1  0
 58 66  1  0
 58 59  1  0
 60 54  1  0
 60 59  1  0
 61 54  2  0
 62 91  1  0
 63 64  2  0
 64 65  1  0
 64 83  1  0
 65 68  1  0
 66 63  1  0
 66 67  1  0
 67 65  2  0
 68 69  1  0
 69 70  2  0
 71 70  1  0
 71 74  1  0
 72 71  2  0
 73 68  2  0
 73 72  1  0
 74 75  1  0
 75 80  2  0
 75 76  1  0
 76 77  2  0
 77 78  1  0
 78 82  1  0
 79 78  2  0
 80 79  1  0
 81 80  1  0
 83 84  1  0
 84 87  1  0
 84 86  1  0
 85 83  2  0
 88 63  1  0
 89 88  1  0
 90 88  1  0
 91 92  1  0
 92 93  1  0
 93 95  1  0
 93 96  1  0
 94 93  1  0
M  ISO  4   5 101  11 101  54 100  62 100
M  END
>  <TORSDO>  (47) 
F 22

>  <SCORE>  (47) 
-9.527

>  <name>  (47) 
46

>  <ligand_id>  (47) 
46

>  <original_smiles>  (47) 
[H]c1c([H])c([H])c2c(c1[H])C([H])([H])C([H])([H])C([H])([H])C2([H])N([H])C(=O)C1([H])N(C(=O)C([H])(N([H])C(=O)C([H])(N([H])C([H])([H])[H])C([H])([H])[H])C(C([H])([H])[H])(C([H])([H])[H])C([H])([H])[H])C([H])([H])c2c([H])c(OC3([H])C([H])([H])N(C([H])([H])C([H])([H])N(C(=O)N4C([H])([H])C([H])([H])C([H])([H])C([H])(n5nc(-c6c([H])c([H])c(Oc7c([H])c([H])c(F)c([H])c7F)c([H])c6[H])c(C(=O)N([H])[H])c5N([H])[H])C4([H])[H])C([H])([H])C([H])([H])[N+]([H])([H])[H])C([H])([H])C([H])([N+]([H])([H])[H])C3([H])[H])c([H])c([H])c2C1([H])[H]

>  <smiles>  (47) 
[H]c1c([H])c([H])c2c(c1[H])C([H])([H])C([H])([H])C([H])([H])C2([H])N([H])C(=O)C1([H])N(C(=O)C([H])(N([H])C(=O)C([H])(N([H])C([H])([H])[H])C([H])([H])[H])C(C([H])([H])[H])(C([H])([H])[H])C([H])([H])[H])C([H])([H])c2c([H])c(OC3([H])C([H])([H])N(C([H])([H])C([H])([H])N(C(=O)N4C([H])([H])C([H])([H])C([H])([H])C([H])(n5nc(-c6c([H])c([H])c(Oc7c([H])c([H])c(F)c([H])c7F)c([H])c6[H])c(C(=O)N([H])[H])c5N([H])[H])C4([H])[H])C([H])([H])C([H])([H])[N+]([H])([H])[H])C([H])([H])C([H])([N+]([H])([H])[H])C3([H])[H])c([H])c([H])c2C1([H])[H]

$$$$
47:0:0
     RDKit          3D

 89 97  0  0  1  0  0  0  0  0999 V2000
  -29.5570  -23.4270   22.8510 C   0  0  0  0  0  2  0  0  0  0  0  0
  -30.7710  -22.7000   22.2260 C   0  0  0  0  0  2  0  0  0  0  0  0
  -29.0740  -24.6260   22.0090 C   0  0  0  0  0  2  0  0  0  0  0  0
  -30.4950  -21.4160   21.3990 C   0  0  0  0  0  2  0  0  0  0  0  0
  -28.7160  -22.7430   20.0390 C   0  0  0  0  0  2  0  0  0  0  0  0
  -28.2320  -24.3420   20.7420 C   0  0  0  0  0  3  0  0  0  0  0  0
  -29.1480  -21.2950   20.7710 N   0  0  1  0  0  4  0  0  0  0  0  0
  -28.5210  -21.2660   21.5610 H   0  0  0  0  0  0  0  0  0  0  0  0
  -28.2150  -25.9050   20.2000 O   0  0  0  0  0  0  0  0  0  0  0  0
  -24.5990  -31.8640   23.1780 C   0  0  0  0  0  0  0  0  0  0  0  0
  -27.1590  -26.9550   20.2440 C   0  0  0  0  0  0  0  0  0  0  0  0
  -23.4100  -30.4570   21.5470 C   0  0  0  0  0  3  0  0  0  0  0  0
  -24.8570  -28.8290   20.1580 C   0  0  0  0  0  0  0  0  0  0  0  0
  -25.9750  -30.6640   21.4020 C   0  0  0  0  0  2  0  0  0  0  0  0
  -26.0440  -29.2440   20.7750 C   0  0  0  0  0  0  0  0  0  0  0  0
  -27.1920  -28.3310   20.7870 C   0  0  0  0  0  3  0  0  0  0  0  0
  -25.9380  -26.6800   19.5890 C   0  0  0  0  0  3  0  0  0  0  0  0
  -24.8260  -27.5640   19.5480 C   0  0  0  0  0  3  0  0  0  0  0  0
  -23.6400  -29.7570   20.1800 C   0  0  0  0  0  2  0  0  0  0  0  0
  -24.6850  -31.0220   22.0970 N   0  0  0  0  0  0  0  0  0  0  0  0
  -23.5080  -32.1580   23.6930 O   0  0  0  0  0  0  0  0  0  0  0  0
  -22.7110  -29.4730   22.5190 C   0  0  0  0  0  0  0  0  0  0  0  0
  -21.3800  -29.3240   22.4010 N   0  0  0  0  0  0  0  0  0  0  0  0
  -23.3750  -28.8440   23.3470 O   0  0  0  0  0  0  0  0  0  0  0  0
  -20.8980  -29.8780   21.7060 H   0  0  0  0  0  0  0  0  0  0  0  0
  -17.9880  -28.1560   22.9340 C   0  0  0  0  0  0  0  0  0  0  0  0
  -20.5520  -28.3960   23.1780 C   0  0  0  0  0  3  0  0  0  0  0  0
  -20.6350  -26.9620   22.6030 C   0  0  0  0  0  2  0  0  0  0  0  0
  -19.5220  -26.6500   21.5990 C   0  0  0  0  0  2  0  0  0  0  0  0
  -18.1460  -26.8060   22.2540 C   0  0  0  0  0  2  0  0  0  0  0  0
  -19.1170  -28.9090   23.3550 C   0  0  0  0  0  0  0  0  0  0  0  0
  -18.9120  -30.1700   23.9560 C   0  0  0  0  0  3  0  0  0  0  0  0
  -17.6140  -30.6780   24.1410 C   0  0  0  0  0  3  0  0  0  0  0  0
  -16.4990  -29.9240   23.7330 C   0  0  0  0  0  3  0  0  0  0  0  0
  -16.6880  -28.6650   23.1350 C   0  0  0  0  0  3  0  0  0  0  0  0
  -25.8660  -32.5100   23.8130 C   0  0  0  0  0  3  0  0  0  0  0  0
  -25.5440  -33.9110   24.1410 N   0  0  0  0  0  0  0  0  0  0  0  0
  -25.8870  -34.9720   23.3990 C   0  0  0  0  0  0  0  0  0  0  0  0
  -26.5680  -34.8760   22.3750 O   0  0  0  0  0  0  0  0  0  0  0  0
  -24.9320  -34.0560   24.9310 H   0  0  0  0  0  0  0  0  0  0  0  0
  -24.1710  -36.7840   23.0470 C   0  0  0  0  0  1  0  0  0  0  0  0
  -25.4030  -36.3620   23.8650 C   0  0  0  0  0  3  0  0  0  0  0  0
  -27.5340  -37.2400   24.7200 C   0  0  0  0  0  1  0  0  0  0  0  0
  -26.4410  -37.4130   23.7670 N   0  0  0  0  0  0  0  0  0  0  0  0
  -26.0360  -38.3340   23.9090 H   0  0  0  0  0  0  0  0  0  0  0  0
  -26.3680  -31.7480   25.1020 C   0  0  1  0  0  0  0  0  0  0  0  0
  -25.2690  -31.5170   26.1670 C   0  0  0  0  0  1  0  0  0  0  0  0
  -26.9510  -30.3670   24.7310 C   0  0  0  0  0  1  0  0  0  0  0  0
  -27.5140  -32.5480   25.7630 C   0  0  0  0  0  1  0  0  0  0  0  0
  -28.9910  -19.7220   20.1970 C   0  0  0  0  0  3  0  0  0  0  0  0
  -29.8550  -18.1990   20.6710 C   0  0  0  0  0  3  0  0  0  0  0  0
  -30.3580  -15.2910   20.2870 C   0  0  0  0  0  0  0  0  0  0  0  0
  -30.3370  -12.8550   19.3650 C   0  0  0  0  0  2  0  0  0  0  0  0
  -29.4090  -12.6330   18.1460 C   0  0  0  0  0  2  0  0  0  0  0  0
  -27.9650  -12.3530   18.6000 C   0  0  0  0  0  2  0  0  0  0  0  0
  -27.5150  -13.3160   19.7290 C   0  0  0  0  0  3  0  0  0  0  0  0
  -28.5690  -13.4760   20.8430 C   0  0  0  0  0  2  0  0  0  0  0  0
  -29.7860  -13.9890   20.1960 N   0  0  0  0  0  0  0  0  0  0  0  0
  -31.5820  -15.2910   20.0930 O   0  0  0  0  0  0  0  0  0  0  0  0
  -29.5950  -16.5610   20.3940 N   0  0  0  0  0  0  0  0  0  0  0  0
  -28.6040  -16.3600   20.4090 H   0  0  0  0  0  0  0  0  0  0  0  0
  -25.1490  -13.8600   20.5110 C   0  0  0  0  0  0  0  0  0  0  0  0
  -24.0950  -13.0770   20.8870 C   0  0  0  0  0  0  0  0  0  0  0  0
  -24.5670  -11.7290   20.8480 C   0  0  0  0  0  0  0  0  0  0  0  0
  -26.1930  -12.9910   20.2520 N   0  0  0  0  0  0  0  0  0  0  0  0
  -25.8570  -11.7020   20.5250 N   0  0  0  0  0  0  0  0  0  0  0  0
  -23.8510  -10.4610   21.0400 C   0  0  0  0  0  0  0  0  0  0  0  0
  -24.2860   -9.4930   21.9710 C   0  0  0  0  0  3  0  0  0  0  0  0
  -23.5620   -8.2930   22.1470 C   0  0  0  0  0  3  0  0  0  0  0  0
  -22.3880   -8.0530   21.3940 C   0  0  0  0  0  0  0  0  0  0  0  0
  -21.9750   -9.0080   20.4480 C   0  0  0  0  0  3  0  0  0  0  0  0
  -22.7010  -10.1980   20.2680 C   0  0  0  0  0  3  0  0  0  0  0  0
  -21.6380   -6.9060   21.4840 O   0  0  0  0  0  0  0  0  0  0  0  0
  -21.5880   -6.1650   22.6370 C   0  0  0  0  0  0  0  0  0  0  0  0
  -21.1450   -6.7140   23.8600 C   0  0  0  0  0  3  0  0  0  0  0  0
  -21.0400   -5.8980   25.0020 C   0  0  0  0  0  3  0  0  0  0  0  0
  -21.3750   -4.5310   24.9250 C   0  0  0  0  0  0  0  0  0  0  0  0
  -21.8120   -3.9810   23.7090 C   0  0  0  0  0  3  0  0  0  0  0  0
  -21.9160   -4.7940   22.5680 C   0  0  0  0  0  0  0  0  0  0  0  0
  -22.3190   -4.2520   21.3920 F   0  0  0  0  0  0  0  0  0  0  0  0
  -21.2640   -3.7450   26.0220 F   0  0  0  0  0  0  0  0  0  0  0  0
  -22.6970  -13.5480   21.1630 C   0  0  0  0  0  0  0  0  0  0  0  0
  -21.9680  -12.8430   22.0220 N   0  0  0  0  0  0  0  0  0  0  0  0
  -22.2590  -14.5780   20.6530 O   0  0  0  0  0  0  0  0  0  0  0  0
  -22.3250  -12.0090   22.4620 H   0  0  0  0  0  0  0  0  0  0  0  0
  -21.0330  -13.1550   22.2510 H   0  0  0  0  0  0  0  0  0  0  0  0
  -25.3080  -15.2310   20.3300 N   0  0  0  0  0  0  0  0  0  0  0  0
  -24.5460  -15.8930   20.4380 H   0  0  0  0  0  0  0  0  0  0  0  0
  -26.1440  -15.6530   19.9500 H   0  0  0  0  0  0  0  0  0  0  0  0
  2  1  1  0
  3  1  1  0
  4  2  1  0
  5  6  1  0
  5  7  1  0
  6  9  1  0
  6  3  1  0
  7  4  1  0
  7  8  1  1
  9 11  1  0
 10 21  2  0
 11 16  1  0
 12 20  1  0
 12 22  1  0
 13 19  1  0
 13 15  1  0
 14 20  1  0
 15 16  2  0
 15 14  1  0
 17 11  2  0
 18 17  1  0
 18 13  2  0
 19 12  1  0
 20 10  1  0
 22 24  2  0
 23 22  1  0
 25 23  1  0
 26 35  2  0
 26 31  1  0
 27 23  1  0
 27 31  1  0
 28 27  1  0
 29 30  1  0
 29 28  1  0
 30 26  1  0
 31 32  2  0
 32 33  1  0
 34 33  2  0
 35 34  1  0
 36 10  1  0
 36 37  1  0
 36 46  1  0
 37 40  1  0
 38 42  1  0
 38 37  1  0
 39 38  2  0
 42 41  1  0
 44 42  1  0
 44 45  1  0
 44 43  1  0
 46 49  1  1
 46 47  1  0
 48 46  1  0
 50 51  2  0
 50  7  1  0
 52 60  1  0
 53 58  1  0
 54 55  1  0
 54 53  1  0
 56 55  1  0
 56 65  1  0
 56 57  1  0
 58 52  1  0
 58 57  1  0
 59 52  2  0
 60 61  1  0
 60 51  1  0
 62 63  2  0
 63 82  1  0
 64 63  1  0
 64 67  1  0
 65 62  1  0
 65 66  1  0
 66 64  2  0
 67 68  1  0
 68 69  2  0
 70 73  1  0
 70 69  1  0
 71 70  2  0
 72 71  1  0
 72 67  2  0
 73 74  1  0
 74 75  1  0
 75 76  2  0
 77 76  1  0
 77 81  1  0
 78 77  2  0
 79 74  2  0
 79 78  1  0
 80 79  1  0
 82 83  1  0
 83 86  1  0
 83 85  1  0
 84 82  2  0
 87 88  1  0
 87 62  1  0
 89 87  1  0
M  ISO  4   6 101   9 101  52 100  60 100
M  END
>  <TORSDO>  (48) 
F 18

>  <SCORE>  (48) 
-16.701

>  <name>  (48) 
47

>  <ligand_id>  (48) 
47

>  <original_smiles>  (48) 
[H]c1c([H])c([H])c2c(c1[H])C([H])([H])C([H])([H])C([H])([H])C2([H])N([H])C(=O)C1([H])N(C(=O)C([H])(N([H])C(=O)C([H])(N([H])C([H])([H])[H])C([H])([H])[H])C(C([H])([H])[H])(C([H])([H])[H])C([H])([H])[H])C([H])([H])c2c([H])c(OC3([H])C([H])([H])C([H])([H])C([H])([H])C([H])([H])[N+]([H])(C([H])([H])C([H])([H])N([H])C(=O)N4C([H])([H])C([H])([H])C([H])([H])C([H])(n5nc(-c6c([H])c([H])c(Oc7c([H])c([H])c(F)c([H])c7F)c([H])c6[H])c(C(=O)N([H])[H])c5N([H])[H])C4([H])[H])C3([H])[H])c([H])c([H])c2C1([H])[H]

>  <smiles>  (48) 
[H]c1c([H])c([H])c2c(c1[H])C([H])([H])C([H])([H])C([H])([H])C2([H])N([H])C(=O)C1([H])N(C(=O)C([H])(N([H])C(=O)C([H])(N([H])C([H])([H])[H])C([H])([H])[H])C(C([H])([H])[H])(C([H])([H])[H])C([H])([H])[H])C([H])([H])c2c([H])c(OC3([H])C([H])([H])C([H])([H])C([H])([H])C([H])([H])[N+]([H])(C([H])([H])C([H])([H])N([H])C(=O)N4C([H])([H])C([H])([H])C([H])([H])C([H])(n5nc(-c6c([H])c([H])c(Oc7c([H])c([H])c(F)c([H])c7F)c([H])c6[H])c(C(=O)N([H])[H])c5N([H])[H])C4([H])[H])C3([H])[H])c([H])c([H])c2C1([H])[H]

$$$$
48:0:0
     RDKit          3D

 88 97  0  0  1  0  0  0  0  0999 V2000
  -30.4330  -21.7010   20.2360 C   0  0  0  0  0  2  0  0  0  0  0  0
  -29.3560  -20.8170   20.7980 C   0  0  0  0  0  3  0  0  0  0  0  0
  -29.0410  -22.2550   20.0880 C   0  0  0  0  0  3  0  0  0  0  0  0
  -30.7020  -14.7960   20.3090 C   0  0  0  0  0  0  0  0  0  0  0  0
  -30.3680  -12.5300   19.3160 C   0  0  0  0  0  2  0  0  0  0  0  0
  -29.4400  -12.5710   18.0880 C   0  0  0  0  0  2  0  0  0  0  0  0
  -27.9790  -12.3920   18.5310 C   0  0  0  0  0  2  0  0  0  0  0  0
  -27.6050  -13.2990   19.7340 C   0  0  0  0  0  3  0  0  0  0  0  0
  -28.6750  -13.2830   20.8500 C   0  0  0  0  0  2  0  0  0  0  0  0
  -29.9510  -13.6370   20.2200 N   0  0  0  0  0  0  0  0  0  0  0  0
  -31.9010  -14.6890   20.0350 O   0  0  0  0  0  0  0  0  0  0  0  0
  -30.8500  -18.6640   20.8440 C   0  0  0  0  0  2  0  0  0  0  0  0
  -28.5140  -18.1870   20.7360 C   0  0  0  0  0  2  0  0  0  0  0  0
  -31.1990  -17.2190   20.3510 C   0  0  0  0  0  2  0  0  0  0  0  0
  -28.8100  -16.6550   20.3370 C   0  0  0  0  0  2  0  0  0  0  0  0
  -29.5420  -19.2890   20.2980 C   0  0  0  0  0  3  0  0  0  0  0  0
  -30.1990  -16.1070   20.4930 N   0  0  0  0  0  0  0  0  0  0  0  0
  -25.2220  -13.8710   20.4740 C   0  0  0  0  0  0  0  0  0  0  0  0
  -24.1640  -13.0910   20.8500 C   0  0  0  0  0  0  0  0  0  0  0  0
  -24.6380  -11.7430   20.8270 C   0  0  0  0  0  0  0  0  0  0  0  0
  -26.2720  -13.0000   20.2410 N   0  0  0  0  0  0  0  0  0  0  0  0
  -25.9290  -11.7150   20.5180 N   0  0  0  0  0  0  0  0  0  0  0  0
  -23.9200  -10.4770   21.0220 C   0  0  0  0  0  0  0  0  0  0  0  0
  -24.3640   -9.5110   21.9520 C   0  0  0  0  0  3  0  0  0  0  0  0
  -23.6450   -8.3110   22.1360 C   0  0  0  0  0  3  0  0  0  0  0  0
  -22.4660   -8.0680   21.3900 C   0  0  0  0  0  0  0  0  0  0  0  0
  -22.0420   -9.0210   20.4500 C   0  0  0  0  0  3  0  0  0  0  0  0
  -22.7620  -10.2130   20.2630 C   0  0  0  0  0  3  0  0  0  0  0  0
  -21.7170   -6.9200   21.4860 O   0  0  0  0  0  0  0  0  0  0  0  0
  -21.6830   -6.1740   22.6370 C   0  0  0  0  0  0  0  0  0  0  0  0
  -21.2720   -6.7260   23.8700 C   0  0  0  0  0  3  0  0  0  0  0  0
  -21.1860   -5.9070   25.0130 C   0  0  0  0  0  3  0  0  0  0  0  0
  -21.5020   -4.5390   24.9260 C   0  0  0  0  0  0  0  0  0  0  0  0
  -21.9080   -3.9860   23.6990 C   0  0  0  0  0  3  0  0  0  0  0  0
  -21.9950   -4.8020   22.5560 C   0  0  0  0  0  0  0  0  0  0  0  0
  -22.3670   -4.2620   21.3710 F   0  0  0  0  0  0  0  0  0  0  0  0
  -21.4130   -3.7500   26.0230 F   0  0  0  0  0  0  0  0  0  0  0  0
  -22.7640  -13.5600   21.1170 C   0  0  0  0  0  0  0  0  0  0  0  0
  -22.0410  -12.8640   21.9870 N   0  0  0  0  0  0  0  0  0  0  0  0
  -22.3210  -14.5810   20.5910 O   0  0  0  0  0  0  0  0  0  0  0  0
  -22.4140  -12.0400   22.4340 H   0  0  0  0  0  0  0  0  0  0  0  0
  -21.1010  -13.1610   22.2090 H   0  0  0  0  0  0  0  0  0  0  0  0
  -25.3730  -15.2420   20.2850 N   0  0  0  0  0  0  0  0  0  0  0  0
  -24.5980  -15.8880   20.3920 H   0  0  0  0  0  0  0  0  0  0  0  0
  -26.2150  -15.6860   19.9450 H   0  0  0  0  0  0  0  0  0  0  0  0
  -28.9400  -23.7520   20.6900 C   0  0  0  0  0  3  0  0  0  0  0  0
  -28.1020  -24.9200   19.9470 C   0  0  0  0  0  3  0  0  0  0  0  0
  -28.2930  -26.3850   20.2710 O   0  0  0  0  0  0  0  0  0  0  0  0
  -24.6400  -31.9040   23.2510 C   0  0  0  0  0  0  0  0  0  0  0  0
  -27.2090  -27.2940   20.1820 C   0  0  0  0  0  0  0  0  0  0  0  0
  -23.4270  -30.5140   21.6150 C   0  0  0  0  0  3  0  0  0  0  0  0
  -24.8660  -28.9630   20.1720 C   0  0  0  0  0  0  0  0  0  0  0  0
  -25.9720  -30.8080   21.4290 C   0  0  0  0  0  2  0  0  0  0  0  0
  -26.0420  -29.4280   20.7760 C   0  0  0  0  0  0  0  0  0  0  0  0
  -27.2140  -28.6040   20.7740 C   0  0  0  0  0  3  0  0  0  0  0  0
  -26.0170  -26.9140   19.5230 C   0  0  0  0  0  3  0  0  0  0  0  0
  -24.8600  -27.7150   19.5330 C   0  0  0  0  0  3  0  0  0  0  0  0
  -23.6350  -29.8460   20.2310 C   0  0  0  0  0  2  0  0  0  0  0  0
  -24.7000  -31.0940   22.1540 N   0  0  0  0  0  0  0  0  0  0  0  0
  -23.5590  -32.1850   23.7890 O   0  0  0  0  0  0  0  0  0  0  0  0
  -22.7650  -29.4970   22.5750 C   0  0  0  0  0  0  0  0  0  0  0  0
  -21.4370  -29.3220   22.4530 N   0  0  0  0  0  0  0  0  0  0  0  0
  -23.4440  -28.8680   23.3910 O   0  0  0  0  0  0  0  0  0  0  0  0
  -20.9480  -29.8800   21.7690 H   0  0  0  0  0  0  0  0  0  0  0  0
  -18.0600  -28.1230   22.9620 C   0  0  0  0  0  0  0  0  0  0  0  0
  -20.6190  -28.3850   23.2260 C   0  0  0  0  0  3  0  0  0  0  0  0
  -20.7210  -26.9520   22.6540 C   0  0  0  0  0  2  0  0  0  0  0  0
  -19.6170  -26.6270   21.6410 C   0  0  0  0  0  2  0  0  0  0  0  0
  -18.2370  -26.7730   22.2870 C   0  0  0  0  0  2  0  0  0  0  0  0
  -19.1790  -28.8860   23.3880 C   0  0  0  0  0  0  0  0  0  0  0  0
  -18.9600  -30.1490   23.9800 C   0  0  0  0  0  3  0  0  0  0  0  0
  -17.6540  -30.6500   24.1470 C   0  0  0  0  0  3  0  0  0  0  0  0
  -16.5510  -29.8830   23.7360 C   0  0  0  0  0  3  0  0  0  0  0  0
  -16.7540  -28.6210   23.1500 C   0  0  0  0  0  3  0  0  0  0  0  0
  -25.9260  -32.5350   23.8700 C   0  0  0  0  0  3  0  0  0  0  0  0
  -25.6200  -33.9330   24.2020 N   0  0  0  0  0  0  0  0  0  0  0  0
  -25.9410  -34.9870   23.4380 C   0  0  0  0  0  0  0  0  0  0  0  0
  -26.5950  -34.8830   22.3970 O   0  0  0  0  0  0  0  0  0  0  0  0
  -25.0370  -34.0880   25.0110 H   0  0  0  0  0  0  0  0  0  0  0  0
  -24.2040  -36.7780   23.1160 C   0  0  0  0  0  1  0  0  0  0  0  0
  -25.4610  -36.3760   23.9030 C   0  0  0  0  0  3  0  0  0  0  0  0
  -27.6100  -37.2660   24.6920 C   0  0  0  0  0  1  0  0  0  0  0  0
  -26.4900  -37.4310   23.7680 N   0  0  0  0  0  0  0  0  0  0  0  0
  -26.0860  -38.3500   23.9200 H   0  0  0  0  0  0  0  0  0  0  0  0
  -26.4440  -31.7630   25.1450 C   0  0  1  0  0  0  0  0  0  0  0  0
  -25.3530  -31.5300   26.2170 C   0  0  0  0  0  1  0  0  0  0  0  0
  -27.0220  -30.3830   24.7560 C   0  0  0  0  0  1  0  0  0  0  0  0
  -27.5990  -32.5550   25.8030 C   0  0  0  0  0  1  0  0  0  0  0  0
  2  1  1  0
  3  1  1  0
  3 46  1  0
  3  2  1  0
  4 17  1  0
  5 10  1  0
  6  7  1  0
  6  5  1  0
  8  7  1  0
  8 21  1  0
  8  9  1  0
 10  4  1  0
 10  9  1  0
 11  4  2  0
 14 17  1  0
 14 12  1  0
 15 17  1  0
 15 13  1  0
 16 13  1  0
 16  2  1  0
 16 12  1  0
 18 19  2  0
 19 38  1  0
 20 19  1  0
 20 23  1  0
 21 18  1  0
 21 22  1  0
 22 20  2  0
 23 24  1  0
 24 25  2  0
 26 29  1  0
 26 25  1  0
 27 26  2  0
 28 27  1  0
 28 23  2  0
 29 30  1  0
 30 31  1  0
 31 32  2  0
 33 32  1  0
 33 37  1  0
 34 33  2  0
 35 30  2  0
 35 34  1  0
 36 35  1  0
 38 39  1  0
 39 42  1  0
 39 41  1  0
 40 38  2  0
 43 44  1  0
 43 18  1  0
 45 43  1  0
 47 48  1  0
 47 46  2  0
 49 60  2  0
 50 48  1  0
 50 55  1  0
 51 59  1  0
 51 61  1  0
 52 58  1  0
 52 54  1  0
 53 59  1  0
 54 53  1  0
 55 54  2  0
 56 57  1  0
 56 50  2  0
 57 52  2  0
 58 51  1  0
 59 49  1  0
 61 63  2  0
 62 61  1  0
 64 62  1  0
 65 74  2  0
 65 70  1  0
 66 62  1  0
 66 70  1  0
 67 66  1  0
 68 69  1  0
 68 67  1  0
 69 65  1  0
 70 71  2  0
 71 72  1  0
 73 72  2  0
 74 73  1  0
 75 49  1  0
 75 76  1  0
 75 85  1  0
 76 79  1  0
 77 81  1  0
 77 76  1  0
 78 77  2  0
 81 80  1  0
 83 81  1  0
 83 84  1  0
 83 82  1  0
 85 88  1  1
 85 86  1  0
 87 85  1  0
M  ISO  4   4 100  17 100  47 101  48 101
M  END
>  <TORSDO>  (49) 
F 18

>  <SCORE>  (49) 
-14.601

>  <name>  (49) 
48

>  <ligand_id>  (49) 
48

>  <original_smiles>  (49) 
[H]c1c([H])c([H])c2c(c1[H])C([H])([H])C([H])([H])C([H])([H])C2([H])N([H])C(=O)C1([H])N(C(=O)C([H])(N([H])C(=O)C([H])(N([H])C([H])([H])[H])C([H])([H])[H])C(C([H])([H])[H])(C([H])([H])[H])C([H])([H])[H])C([H])([H])c2c([H])c(OC([H])([H])C([H])([H])C3([H])C([H])([H])C3([H])C3([H])C([H])([H])C([H])([H])N(C(=O)N4C([H])([H])C([H])([H])C([H])([H])C([H])(n5nc(-c6c([H])c([H])c(Oc7c([H])c([H])c(F)c([H])c7F)c([H])c6[H])c(C(=O)N([H])[H])c5N([H])[H])C4([H])[H])C([H])([H])C3([H])[H])c([H])c([H])c2C1([H])[H]

>  <smiles>  (49) 
[H]c1c([H])c([H])c2c(c1[H])C([H])([H])C([H])([H])C([H])([H])C2([H])N([H])C(=O)C1([H])N(C(=O)C([H])(N([H])C(=O)C([H])(N([H])C([H])([H])[H])C([H])([H])[H])C(C([H])([H])[H])(C([H])([H])[H])C([H])([H])[H])C([H])([H])c2c([H])c(OC([H])([H])C([H])([H])C3([H])C([H])([H])C3([H])C3([H])C([H])([H])C([H])([H])N(C(=O)N4C([H])([H])C([H])([H])C([H])([H])C([H])(n5nc(-c6c([H])c([H])c(Oc7c([H])c([H])c(F)c([H])c7F)c([H])c6[H])c(C(=O)N([H])[H])c5N([H])[H])C4([H])[H])C([H])([H])C3([H])[H])c([H])c([H])c2C1([H])[H]

$$$$
49:0:0
     RDKit          3D

 92101  0  0  1  0  0  0  0  0999 V2000
  -29.7140  -22.9740   19.7420 C   0  0  0  0  0  2  0  0  0  0  0  0
  -27.4920  -22.8530   20.8830 C   0  0  0  0  0  2  0  0  0  0  0  0
  -29.7160  -24.5220   19.9760 C   0  0  0  0  0  2  0  0  0  0  0  0
  -27.5310  -24.3890   21.1270 C   0  0  0  0  0  2  0  0  0  0  0  0
  -28.8820  -22.1580   20.7760 C   0  0  0  0  0  3  0  0  0  0  0  0
  -28.2980  -25.1520   20.0190 C   0  0  0  0  0  3  0  0  0  0  0  0
  -28.3580  -26.6000   20.2300 O   0  0  0  0  0  0  0  0  0  0  0  0
  -24.6070  -31.8850   23.2770 C   0  0  0  0  0  0  0  0  0  0  0  0
  -27.1990  -27.3760   20.1850 C   0  0  0  0  0  0  0  0  0  0  0  0
  -23.3870  -30.5000   21.6330 C   0  0  0  0  0  3  0  0  0  0  0  0
  -24.8240  -28.9540   20.1960 C   0  0  0  0  0  0  0  0  0  0  0  0
  -25.9210  -30.8220   21.4360 C   0  0  0  0  0  2  0  0  0  0  0  0
  -25.9920  -29.4510   20.7850 C   0  0  0  0  0  0  0  0  0  0  0  0
  -27.1800  -28.6730   20.7720 C   0  0  0  0  0  3  0  0  0  0  0  0
  -26.0070  -26.9150   19.5770 C   0  0  0  0  0  3  0  0  0  0  0  0
  -24.8310  -27.6890   19.5860 C   0  0  0  0  0  3  0  0  0  0  0  0
  -23.5900  -29.8260   20.2500 C   0  0  0  0  0  2  0  0  0  0  0  0
  -24.6570  -31.0850   22.1730 N   0  0  0  0  0  0  0  0  0  0  0  0
  -23.5280  -32.1640   23.8190 O   0  0  0  0  0  0  0  0  0  0  0  0
  -22.7260  -29.4820   22.5920 C   0  0  0  0  0  0  0  0  0  0  0  0
  -21.4010  -29.3000   22.4580 N   0  0  0  0  0  0  0  0  0  0  0  0
  -23.4040  -28.8570   23.4130 O   0  0  0  0  0  0  0  0  0  0  0  0
  -20.9160  -29.8570   21.7680 H   0  0  0  0  0  0  0  0  0  0  0  0
  -18.0260  -28.0960   22.9300 C   0  0  0  0  0  0  0  0  0  0  0  0
  -20.5800  -28.3640   23.2250 C   0  0  0  0  0  3  0  0  0  0  0  0
  -20.6930  -26.9300   22.6560 C   0  0  0  0  0  2  0  0  0  0  0  0
  -19.6030  -26.5990   21.6330 C   0  0  0  0  0  2  0  0  0  0  0  0
  -18.2130  -26.7430   22.2620 C   0  0  0  0  0  2  0  0  0  0  0  0
  -19.1380  -28.8630   23.3670 C   0  0  0  0  0  0  0  0  0  0  0  0
  -18.9080  -30.1290   23.9490 C   0  0  0  0  0  3  0  0  0  0  0  0
  -17.6010  -30.6270   24.0990 C   0  0  0  0  0  3  0  0  0  0  0  0
  -16.5040  -29.8560   23.6790 C   0  0  0  0  0  3  0  0  0  0  0  0
  -16.7170  -28.5930   23.1000 C   0  0  0  0  0  3  0  0  0  0  0  0
  -25.8980  -32.5050   23.8960 C   0  0  0  0  0  3  0  0  0  0  0  0
  -25.6030  -33.9080   24.2200 N   0  0  0  0  0  0  0  0  0  0  0  0
  -25.9320  -34.9520   23.4480 C   0  0  0  0  0  0  0  0  0  0  0  0
  -26.5850  -34.8360   22.4070 O   0  0  0  0  0  0  0  0  0  0  0  0
  -25.0220  -34.0740   25.0290 H   0  0  0  0  0  0  0  0  0  0  0  0
  -24.2060  -36.7510   23.1120 C   0  0  0  0  0  1  0  0  0  0  0  0
  -25.4620  -36.3470   23.9010 C   0  0  0  0  0  3  0  0  0  0  0  0
  -27.6180  -37.2290   24.6800 C   0  0  0  0  0  1  0  0  0  0  0  0
  -26.4970  -37.3950   23.7570 N   0  0  0  0  0  0  0  0  0  0  0  0
  -26.0980  -38.3180   23.9030 H   0  0  0  0  0  0  0  0  0  0  0  0
  -26.4050  -31.7330   25.1750 C   0  0  1  0  0  0  0  0  0  0  0  0
  -25.3100  -31.5110   26.2440 C   0  0  0  0  0  1  0  0  0  0  0  0
  -26.9730  -30.3480   24.7880 C   0  0  0  0  0  1  0  0  0  0  0  0
  -27.5650  -32.5170   25.8350 C   0  0  0  0  0  1  0  0  0  0  0  0
  -28.7040  -20.6220   20.4210 C   0  0  0  0  0  2  0  0  0  0  0  0
  -29.7410  -19.6330   20.8930 N   0  0  0  0  0  4  0  0  0  0  0  0
  -30.6290  -19.8470   20.4680 H   0  0  0  0  0  0  0  0  0  0  0  0
  -29.8460  -19.7530   21.8870 H   0  0  0  0  0  0  0  0  0  0  0  0
  -30.6220  -14.6340   20.4840 C   0  0  0  0  0  0  0  0  0  0  0  0
  -30.3980  -12.3870   19.4630 C   0  0  0  0  0  2  0  0  0  0  0  0
  -29.4820  -12.4780   18.2250 C   0  0  0  0  0  2  0  0  0  0  0  0
  -28.0050  -12.3010   18.6300 C   0  0  0  0  0  2  0  0  0  0  0  0
  -27.6060  -13.1890   19.8350 C   0  0  0  0  0  3  0  0  0  0  0  0
  -28.6470  -13.1270   20.9760 C   0  0  0  0  0  2  0  0  0  0  0  0
  -29.9630  -13.4370   20.4020 N   0  0  0  0  0  0  0  0  0  0  0  0
  -31.8350  -14.7180   20.2720 O   0  0  0  0  0  0  0  0  0  0  0  0
  -29.4070  -17.7720   19.1760 C   0  0  0  0  0  2  0  0  0  0  0  0
  -29.2230  -16.2540   19.2860 C   0  0  0  0  0  2  0  0  0  0  0  0
  -30.2370  -17.0340   21.2530 C   0  0  0  0  0  2  0  0  0  0  0  0
  -29.3800  -18.1890   20.6330 C   0  0  0  0  0  3  0  0  0  0  0  0
  -29.8550  -15.7760   20.5380 N   0  0  0  0  0  0  0  0  0  0  0  0
  -25.2050  -13.8180   20.4940 C   0  0  0  0  0  0  0  0  0  0  0  0
  -24.1270  -13.0510   20.8450 C   0  0  0  0  0  0  0  0  0  0  0  0
  -24.5930  -11.7010   20.8510 C   0  0  0  0  0  0  0  0  0  0  0  0
  -26.2520  -12.9290   20.3010 N   0  0  0  0  0  0  0  0  0  0  0  0
  -25.8890  -11.6540   20.5800 N   0  0  0  0  0  0  0  0  0  0  0  0
  -23.8670  -10.4400   21.0390 C   0  0  0  0  0  0  0  0  0  0  0  0
  -24.2890   -9.4840   21.9890 C   0  0  0  0  0  3  0  0  0  0  0  0
  -23.5650   -8.2850   22.1630 C   0  0  0  0  0  3  0  0  0  0  0  0
  -22.4090   -8.0360   21.3870 C   0  0  0  0  0  0  0  0  0  0  0  0
  -22.0080   -8.9810   20.4270 C   0  0  0  0  0  3  0  0  0  0  0  0
  -22.7320  -10.1710   20.2500 C   0  0  0  0  0  3  0  0  0  0  0  0
  -21.6580   -6.8890   21.4720 O   0  0  0  0  0  0  0  0  0  0  0  0
  -21.5950   -6.1550   22.6290 C   0  0  0  0  0  0  0  0  0  0  0  0
  -21.1400   -6.7140   23.8430 C   0  0  0  0  0  3  0  0  0  0  0  0
  -21.0270   -5.9050   24.9920 C   0  0  0  0  0  3  0  0  0  0  0  0
  -21.3570   -4.5380   24.9260 C   0  0  0  0  0  0  0  0  0  0  0  0
  -21.8040   -3.9790   23.7160 C   0  0  0  0  0  3  0  0  0  0  0  0
  -21.9200   -4.7850   22.5710 C   0  0  0  0  0  0  0  0  0  0  0  0
  -22.3320   -4.2370   21.4020 F   0  0  0  0  0  0  0  0  0  0  0  0
  -21.2380   -3.7590   26.0260 F   0  0  0  0  0  0  0  0  0  0  0  0
  -22.7220  -13.5300   21.0690 C   0  0  0  0  0  0  0  0  0  0  0  0
  -21.9710  -12.8450   21.9250 N   0  0  0  0  0  0  0  0  0  0  0  0
  -22.2980  -14.5460   20.5210 O   0  0  0  0  0  0  0  0  0  0  0  0
  -22.3270  -12.0240   22.3910 H   0  0  0  0  0  0  0  0  0  0  0  0
  -21.0260  -13.1460   22.1160 H   0  0  0  0  0  0  0  0  0  0  0  0
  -25.3740  -15.1860   20.3000 N   0  0  0  0  0  0  0  0  0  0  0  0
  -24.6050  -15.8420   20.3830 H   0  0  0  0  0  0  0  0  0  0  0  0
  -26.2390  -15.6220   20.0100 H   0  0  0  0  0  0  0  0  0  0  0  0
  1  3  1  0
  1  5  1  0
  2  4  1  0
  3  6  1  0
  5 48  1  0
  5  2  1  0
  6  7  1  0
  6  4  1  0
  8 19  2  0
  9  7  1  0
  9 14  1  0
 10 18  1  0
 10 20  1  0
 11 17  1  0
 11 13  1  0
 12 18  1  0
 13 12  1  0
 14 13  2  0
 15 16  1  0
 15  9  2  0
 16 11  2  0
 17 10  1  0
 18  8  1  0
 20 22  2  0
 21 20  1  0
 23 21  1  0
 24 33  2  0
 24 29  1  0
 25 21  1  0
 25 29  1  0
 26 25  1  0
 27 28  1  0
 27 26  1  0
 28 24  1  0
 29 30  2  0
 30 31  1  0
 32 31  2  0
 33 32  1  0
 34  8  1  0
 34 35  1  0
 34 44  1  0
 35 38  1  0
 36 40  1  0
 36 35  1  0
 37 36  2  0
 40 39  1  0
 42 40  1  0
 42 43  1  0
 42 41  1  0
 44 47  1  1
 44 45  1  0
 46 44  1  0
 48 49  1  0
 49 51  1  0
 50 49  1  0
 52 64  1  0
 53 58  1  0
 54 55  1  0
 54 53  1  0
 56 55  1  0
 56 68  1  0
 56 57  1  0
 58 52  1  0
 58 57  1  0
 59 52  2  0
 60 61  1  0
 60 63  1  0
 61 64  1  0
 63 49  1  0
 63 62  1  0
 64 62  1  0
 65 66  2  0
 66 67  1  0
 66 85  1  0
 67 70  1  0
 68 65  1  0
 68 69  1  0
 69 67  2  0
 70 71  1  0
 71 72  2  0
 73 76  1  0
 73 72  1  0
 74 73  2  0
 75 74  1  0
 75 70  2  0
 76 77  1  0
 77 78  1  0
 78 79  2  0
 80 79  1  0
 80 84  1  0
 81 80  2  0
 82 77  2  0
 82 81  1  0
 83 82  1  0
 85 86  1  0
 86 89  1  0
 86 88  1  0
 87 85  2  0
 90 91  1  0
 90 65  1  0
 92 90  1  0
M  ISO  4   6 101   7 101  52 100  64 100
M  END
>  <TORSDO>  (50) 
F 18

>  <SCORE>  (50) 
-14.854

>  <name>  (50) 
49

>  <ligand_id>  (50) 
49

>  <original_smiles>  (50) 
[H]c1c([H])c([H])c2c(c1[H])C([H])([H])C([H])([H])C([H])([H])C2([H])N([H])C(=O)C1([H])N(C(=O)C([H])(N([H])C(=O)C([H])(N([H])C([H])([H])[H])C([H])([H])[H])C(C([H])([H])[H])(C([H])([H])[H])C([H])([H])[H])C([H])([H])c2c([H])c(OC3([H])C([H])([H])C([H])([H])C([H])(C([H])([H])[N+]([H])([H])C4([H])C([H])([H])N(C(=O)N5C([H])([H])C([H])([H])C([H])([H])C([H])(n6nc(-c7c([H])c([H])c(Oc8c([H])c([H])c(F)c([H])c8F)c([H])c7[H])c(C(=O)N([H])[H])c6N([H])[H])C5([H])[H])C([H])([H])C4([H])[H])C([H])([H])C3([H])[H])c([H])c([H])c2C1([H])[H]

>  <smiles>  (50) 
[H]c1c([H])c([H])c2c(c1[H])C([H])([H])C([H])([H])C([H])([H])C2([H])N([H])C(=O)C1([H])N(C(=O)C([H])(N([H])C(=O)C([H])(N([H])C([H])([H])[H])C([H])([H])[H])C(C([H])([H])[H])(C([H])([H])[H])C([H])([H])[H])C([H])([H])c2c([H])c(OC3([H])C([H])([H])C([H])([H])C([H])(C([H])([H])[N+]([H])([H])C4([H])C([H])([H])N(C(=O)N5C([H])([H])C([H])([H])C([H])([H])C([H])(n6nc(-c7c([H])c([H])c(Oc8c([H])c([H])c(F)c([H])c8F)c([H])c7[H])c(C(=O)N([H])[H])c6N([H])[H])C5([H])[H])C([H])([H])C4([H])[H])C([H])([H])C3([H])[H])c([H])c([H])c2C1([H])[H]

$$$$
50:0:0
     RDKit          3D

 89 97  0  0  1  0  0  0  0  0999 V2000
  -27.9390  -22.1530   17.9580 C   0  0  0  0  0  2  0  0  0  0  0  0
  -27.4360  -23.3510   18.7540 C   0  0  0  0  0  2  0  0  0  0  0  0
  -29.3140  -21.8860   18.5590 C   0  0  0  0  0  2  0  0  0  0  0  0
  -28.0800  -23.2220   20.1470 C   0  0  0  0  0  3  0  0  0  0  0  0
  -29.1390  -22.0220   20.0220 N   0  0  1  0  0  4  0  0  0  0  0  0
  -30.0210  -22.3740   20.3660 H   0  0  0  0  0  0  0  0  0  0  0  0
  -28.3650  -24.7780   20.7620 C   0  0  0  0  0  2  0  0  0  0  0  0
  -28.2950  -26.2120   20.1450 O   0  0  0  0  0  0  0  0  0  0  0  0
  -24.6110  -31.8600   23.2070 C   0  0  0  0  0  0  0  0  0  0  0  0
  -27.1920  -27.1360   20.2090 C   0  0  0  0  0  0  0  0  0  0  0  0
  -23.4080  -30.4510   21.5790 C   0  0  0  0  0  3  0  0  0  0  0  0
  -24.8540  -28.8640   20.1680 C   0  0  0  0  0  0  0  0  0  0  0  0
  -25.9580  -30.7270   21.4000 C   0  0  0  0  0  2  0  0  0  0  0  0
  -26.0350  -29.3270   20.7640 C   0  0  0  0  0  0  0  0  0  0  0  0
  -27.2070  -28.4820   20.7590 C   0  0  0  0  0  3  0  0  0  0  0  0
  -25.9830  -26.7630   19.5890 C   0  0  0  0  0  3  0  0  0  0  0  0
  -24.8390  -27.5940   19.5660 C   0  0  0  0  0  3  0  0  0  0  0  0
  -23.6260  -29.7620   20.2060 C   0  0  0  0  0  2  0  0  0  0  0  0
  -24.6800  -31.0350   22.1170 N   0  0  0  0  0  0  0  0  0  0  0  0
  -23.5260  -32.1430   23.7380 O   0  0  0  0  0  0  0  0  0  0  0  0
  -22.7350  -29.4490   22.5500 C   0  0  0  0  0  0  0  0  0  0  0  0
  -21.4070  -29.2770   22.4320 N   0  0  0  0  0  0  0  0  0  0  0  0
  -23.4120  -28.8250   23.3720 O   0  0  0  0  0  0  0  0  0  0  0  0
  -20.9180  -29.8290   21.7420 H   0  0  0  0  0  0  0  0  0  0  0  0
  -18.0300  -28.0780   22.9540 C   0  0  0  0  0  0  0  0  0  0  0  0
  -20.5900  -28.3440   23.2100 C   0  0  0  0  0  3  0  0  0  0  0  0
  -20.6910  -26.9100   22.6420 C   0  0  0  0  0  2  0  0  0  0  0  0
  -19.5850  -26.5820   21.6330 C   0  0  0  0  0  2  0  0  0  0  0  0
  -18.2060  -26.7270   22.2820 C   0  0  0  0  0  2  0  0  0  0  0  0
  -19.1490  -28.8440   23.3760 C   0  0  0  0  0  0  0  0  0  0  0  0
  -18.9300  -30.1060   23.9670 C   0  0  0  0  0  3  0  0  0  0  0  0
  -17.6250  -30.6040   24.1390 C   0  0  0  0  0  3  0  0  0  0  0  0
  -16.5200  -29.8360   23.7330 C   0  0  0  0  0  3  0  0  0  0  0  0
  -16.7240  -28.5750   23.1460 C   0  0  0  0  0  3  0  0  0  0  0  0
  -25.8890  -32.5010   23.8260 C   0  0  0  0  0  3  0  0  0  0  0  0
  -26.4100  -31.7340   25.1050 C   0  0  1  0  0  0  0  0  0  0  0  0
  -25.3190  -31.5000   26.1770 C   0  0  0  0  0  1  0  0  0  0  0  0
  -26.9920  -30.3550   24.7200 C   0  0  0  0  0  1  0  0  0  0  0  0
  -27.5630  -32.5310   25.7610 C   0  0  0  0  0  1  0  0  0  0  0  0
  -25.5730  -33.8990   24.1610 N   0  0  0  0  0  0  0  0  0  0  0  0
  -25.9040  -34.9580   23.4100 C   0  0  0  0  0  0  0  0  0  0  0  0
  -26.5740  -34.8610   22.3790 O   0  0  0  0  0  0  0  0  0  0  0  0
  -24.9770  -34.0470   24.9620 H   0  0  0  0  0  0  0  0  0  0  0  0
  -24.1740  -36.7540   23.0660 C   0  0  0  0  0  1  0  0  0  0  0  0
  -25.4150  -36.3440   23.8770 C   0  0  0  0  0  3  0  0  0  0  0  0
  -27.5490  -37.2260   24.7150 C   0  0  0  0  0  1  0  0  0  0  0  0
  -26.4480  -37.3990   23.7710 N   0  0  0  0  0  0  0  0  0  0  0  0
  -26.0410  -38.3180   23.9240 H   0  0  0  0  0  0  0  0  0  0  0  0
  -28.9940  -20.5820   20.7140 C   0  0  0  0  0  2  0  0  0  0  0  0
  -29.4890  -19.0790   20.0540 C   0  0  0  0  0  2  0  0  0  0  0  0
  -29.8920  -17.6610   20.8990 C   0  0  0  0  0  2  0  0  0  0  0  0
  -30.4970  -14.9740   20.3540 C   0  0  0  0  0  0  0  0  0  0  0  0
  -30.3910  -12.6290   19.3740 C   0  0  0  0  0  2  0  0  0  0  0  0
  -29.4520  -12.5830   18.1470 C   0  0  0  0  0  2  0  0  0  0  0  0
  -27.9880  -12.3730   18.5800 C   0  0  0  0  0  2  0  0  0  0  0  0
  -27.5820  -13.2920   19.7620 C   0  0  0  0  0  3  0  0  0  0  0  0
  -28.6410  -13.2920   20.8830 C   0  0  0  0  0  2  0  0  0  0  0  0
  -29.9040  -13.7160   20.2670 N   0  0  0  0  0  0  0  0  0  0  0  0
  -31.7130  -15.0440   20.1490 O   0  0  0  0  0  0  0  0  0  0  0  0
  -29.6880  -16.1440   20.4680 N   0  0  0  0  0  0  0  0  0  0  0  0
  -28.7110  -15.8920   20.4550 H   0  0  0  0  0  0  0  0  0  0  0  0
  -25.2010  -13.8720   20.4980 C   0  0  0  0  0  0  0  0  0  0  0  0
  -24.1370  -13.0970   20.8680 C   0  0  0  0  0  0  0  0  0  0  0  0
  -24.6040  -11.7470   20.8440 C   0  0  0  0  0  0  0  0  0  0  0  0
  -26.2450  -12.9940   20.2620 N   0  0  0  0  0  0  0  0  0  0  0  0
  -25.8950  -11.7110   20.5380 N   0  0  0  0  0  0  0  0  0  0  0  0
  -23.8770  -10.4850   21.0360 C   0  0  0  0  0  0  0  0  0  0  0  0
  -24.3100   -9.5160   21.9690 C   0  0  0  0  0  3  0  0  0  0  0  0
  -23.5820   -8.3210   22.1500 C   0  0  0  0  0  3  0  0  0  0  0  0
  -22.4060   -8.0850   21.3980 C   0  0  0  0  0  0  0  0  0  0  0  0
  -21.9930   -9.0410   20.4540 C   0  0  0  0  0  3  0  0  0  0  0  0
  -22.7210  -10.2280   20.2710 C   0  0  0  0  0  3  0  0  0  0  0  0
  -21.6500   -6.9420   21.4890 O   0  0  0  0  0  0  0  0  0  0  0  0
  -21.6090   -6.1960   22.6390 C   0  0  0  0  0  0  0  0  0  0  0  0
  -21.2000   -6.7480   23.8720 C   0  0  0  0  0  3  0  0  0  0  0  0
  -21.1050   -5.9290   25.0150 C   0  0  0  0  0  3  0  0  0  0  0  0
  -21.4080   -4.5570   24.9250 C   0  0  0  0  0  0  0  0  0  0  0  0
  -21.8080   -4.0030   23.6970 C   0  0  0  0  0  3  0  0  0  0  0  0
  -21.9050   -4.8190   22.5570 C   0  0  0  0  0  0  0  0  0  0  0  0
  -22.2710   -4.2760   21.3710 F   0  0  0  0  0  0  0  0  0  0  0  0
  -21.3090   -3.7680   26.0200 F   0  0  0  0  0  0  0  0  0  0  0  0
  -22.7380  -13.5730   21.1290 C   0  0  0  0  0  0  0  0  0  0  0  0
  -22.0060  -12.8820   21.9950 N   0  0  0  0  0  0  0  0  0  0  0  0
  -22.3030  -14.5950   20.6000 O   0  0  0  0  0  0  0  0  0  0  0  0
  -22.3710  -12.0560   22.4440 H   0  0  0  0  0  0  0  0  0  0  0  0
  -21.0680  -13.1850   22.2130 H   0  0  0  0  0  0  0  0  0  0  0  0
  -25.3580  -15.2430   20.3130 N   0  0  0  0  0  0  0  0  0  0  0  0
  -24.5810  -15.8860   20.4120 H   0  0  0  0  0  0  0  0  0  0  0  0
  -26.1890  -15.6840   19.9400 H   0  0  0  0  0  0  0  0  0  0  0  0
  1  3  1  0
  1  2  1  0
  2  4  1  0
  3  5  1  0
  4  7  1  0
  5  4  1  0
  5  6  1  1
  5 49  1  0
  8 10  1  0
  8  7  1  0
  9 20  2  0
 10 15  1  0
 11 19  1  0
 11 21  1  0
 12 18  1  0
 12 14  1  0
 13 19  1  0
 14 13  1  0
 15 14  2  0
 16 10  2  0
 17 16  1  0
 17 12  2  0
 18 11  1  0
 19  9  1  0
 21 23  2  0
 22 21  1  0
 24 22  1  0
 25 34  2  0
 25 30  1  0
 26 22  1  0
 26 30  1  0
 27 26  1  0
 28 29  1  0
 28 27  1  0
 29 25  1  0
 30 31  2  0
 31 32  1  0
 33 32  2  0
 34 33  1  0
 35  9  1  0
 35 40  1  0
 35 36  1  0
 36 39  1  1
 36 37  1  0
 38 36  1  0
 40 43  1  0
 41 45  1  0
 41 40  1  0
 42 41  2  0
 45 44  1  0
 47 45  1  0
 47 48  1  0
 47 46  1  0
 50 49  1  0
 50 51  1  0
 52 60  1  0
 53 58  1  0
 54 55  1  0
 54 53  1  0
 56 55  1  0
 56 65  1  0
 56 57  1  0
 58 52  1  0
 58 57  1  0
 59 52  2  0
 60 51  1  0
 61 60  1  0
 62 63  2  0
 63 82  1  0
 64 63  1  0
 64 67  1  0
 65 62  1  0
 65 66  1  0
 66 64  2  0
 67 68  1  0
 68 69  2  0
 70 73  1  0
 70 69  1  0
 71 70  2  0
 72 71  1  0
 72 67  2  0
 73 74  1  0
 74 75  1  0
 75 76  2  0
 77 76  1  0
 77 81  1  0
 78 77  2  0
 79 74  2  0
 79 78  1  0
 80 79  1  0
 82 83  1  0
 83 86  1  0
 83 85  1  0
 84 82  2  0
 87 88  1  0
 87 62  1  0
 89 87  1  0
M  ISO  4   7 101   8 101  52 100  60 100
M  END
>  <TORSDO>  (51) 
F 20

>  <SCORE>  (51) 
-15.598

>  <name>  (51) 
50

>  <ligand_id>  (51) 
50

>  <original_smiles>  (51) 
[H]c1c([H])c([H])c2c(c1[H])C([H])([H])C([H])([H])C([H])([H])C2([H])N([H])C(=O)C1([H])N(C(=O)C([H])(N([H])C(=O)C([H])(N([H])C([H])([H])[H])C([H])([H])[H])C(C([H])([H])[H])(C([H])([H])[H])C([H])([H])[H])C([H])([H])c2c([H])c(OC([H])([H])C3([H])C([H])([H])C([H])([H])C([H])([H])[N+]3([H])C([H])([H])C([H])([H])C([H])([H])N([H])C(=O)N3C([H])([H])C([H])([H])C([H])([H])C([H])(n4nc(-c5c([H])c([H])c(Oc6c([H])c([H])c(F)c([H])c6F)c([H])c5[H])c(C(=O)N([H])[H])c4N([H])[H])C3([H])[H])c([H])c([H])c2C1([H])[H]

>  <smiles>  (51) 
[H]c1c([H])c([H])c2c(c1[H])C([H])([H])C([H])([H])C([H])([H])C2([H])N([H])C(=O)C1([H])N(C(=O)C([H])(N([H])C(=O)C([H])(N([H])C([H])([H])[H])C([H])([H])[H])C(C([H])([H])[H])(C([H])([H])[H])C([H])([H])[H])C([H])([H])c2c([H])c(OC([H])([H])C3([H])C([H])([H])C([H])([H])C([H])([H])[N+]3([H])C([H])([H])C([H])([H])C([H])([H])N([H])C(=O)N3C([H])([H])C([H])([H])C([H])([H])C([H])(n4nc(-c5c([H])c([H])c(Oc6c([H])c([H])c(F)c([H])c6F)c([H])c5[H])c(C(=O)N([H])[H])c4N([H])[H])C3([H])[H])c([H])c([H])c2C1([H])[H]

$$$$
51:0:0
     RDKit          3D

 88 96  0  0  1  0  0  0  0  0999 V2000
  -29.6130  -23.6450   20.7190 C   0  0  0  0  0  2  0  0  0  0  0  0
  -27.5520  -23.3290   19.5740 C   0  0  0  0  0  2  0  0  0  0  0  0
  -29.9250  -22.0930   20.1820 C   0  0  0  0  0  2  0  0  0  0  0  0
  -27.5820  -21.7360   20.0540 C   0  0  0  0  0  2  0  0  0  0  0  0
  -28.2300  -24.4680   20.4710 C   0  0  0  0  0  3  0  0  0  0  0  0
  -28.8900  -20.9880   20.4030 N   0  0  1  0  0  4  0  0  0  0  0  0
  -28.8480  -20.8940   21.4070 H   0  0  0  0  0  0  0  0  0  0  0  0
  -28.2800  -26.0680   20.2310 O   0  0  0  0  0  0  0  0  0  0  0  0
  -24.6310  -31.8830   23.2350 C   0  0  0  0  0  0  0  0  0  0  0  0
  -27.2040  -27.0650   20.2410 C   0  0  0  0  0  0  0  0  0  0  0  0
  -23.4340  -30.4780   21.6050 C   0  0  0  0  0  3  0  0  0  0  0  0
  -24.8800  -28.8720   20.1960 C   0  0  0  0  0  0  0  0  0  0  0  0
  -25.9930  -30.7170   21.4410 C   0  0  0  0  0  2  0  0  0  0  0  0
  -26.0660  -29.3090   20.8000 C   0  0  0  0  0  0  0  0  0  0  0  0
  -27.2250  -28.4270   20.7930 C   0  0  0  0  0  3  0  0  0  0  0  0
  -25.9840  -26.7480   19.6070 C   0  0  0  0  0  3  0  0  0  0  0  0
  -24.8580  -27.6090   19.5810 C   0  0  0  0  0  3  0  0  0  0  0  0
  -23.6590  -29.7840   20.2330 C   0  0  0  0  0  2  0  0  0  0  0  0
  -24.7070  -31.0510   22.1490 N   0  0  0  0  0  0  0  0  0  0  0  0
  -23.5430  -32.1710   23.7600 O   0  0  0  0  0  0  0  0  0  0  0  0
  -22.7470  -29.4830   22.5760 C   0  0  0  0  0  0  0  0  0  0  0  0
  -21.4180  -29.3150   22.4510 N   0  0  0  0  0  0  0  0  0  0  0  0
  -23.4160  -28.8630   23.4050 O   0  0  0  0  0  0  0  0  0  0  0  0
  -20.9330  -29.8690   21.7570 H   0  0  0  0  0  0  0  0  0  0  0  0
  -18.0390  -28.1050   22.9580 C   0  0  0  0  0  0  0  0  0  0  0  0
  -20.5960  -28.3810   23.2270 C   0  0  0  0  0  3  0  0  0  0  0  0
  -20.7030  -26.9450   22.6640 C   0  0  0  0  0  2  0  0  0  0  0  0
  -19.6050  -26.6110   21.6480 C   0  0  0  0  0  2  0  0  0  0  0  0
  -18.2210  -26.7530   22.2890 C   0  0  0  0  0  2  0  0  0  0  0  0
  -19.1520  -28.8760   23.3840 C   0  0  0  0  0  0  0  0  0  0  0  0
  -18.9260  -30.1390   23.9720 C   0  0  0  0  0  3  0  0  0  0  0  0
  -17.6180  -30.6320   24.1370 C   0  0  0  0  0  3  0  0  0  0  0  0
  -16.5190  -29.8610   23.7260 C   0  0  0  0  0  3  0  0  0  0  0  0
  -16.7290  -28.5990   23.1420 C   0  0  0  0  0  3  0  0  0  0  0  0
  -25.9050  -32.5250   23.8630 C   0  0  0  0  0  3  0  0  0  0  0  0
  -25.5860  -33.9230   24.2010 N   0  0  0  0  0  0  0  0  0  0  0  0
  -25.8990  -34.9850   23.4480 C   0  0  0  0  0  0  0  0  0  0  0  0
  -26.5520  -34.8920   22.4060 O   0  0  0  0  0  0  0  0  0  0  0  0
  -25.0020  -34.0680   25.0120 H   0  0  0  0  0  0  0  0  0  0  0  0
  -24.1490  -36.7720   23.1480 C   0  0  0  0  0  1  0  0  0  0  0  0
  -25.4130  -36.3690   23.9240 C   0  0  0  0  0  3  0  0  0  0  0  0
  -27.5620  -37.2720   24.7030 C   0  0  0  0  0  1  0  0  0  0  0  0
  -26.4340  -37.4330   23.7880 N   0  0  0  0  0  0  0  0  0  0  0  0
  -26.0230  -38.3470   23.9510 H   0  0  0  0  0  0  0  0  0  0  0  0
  -26.4190  -31.7590   25.1440 C   0  0  1  0  0  0  0  0  0  0  0  0
  -25.3240  -31.5230   26.2120 C   0  0  0  0  0  1  0  0  0  0  0  0
  -27.0050  -30.3810   24.7630 C   0  0  0  0  0  1  0  0  0  0  0  0
  -27.5670  -32.5560   25.8070 C   0  0  0  0  0  1  0  0  0  0  0  0
  -29.0300  -19.4190   19.9030 C   0  0  0  0  0  2  0  0  0  0  0  0
  -29.9050  -18.0430   20.5650 C   0  0  0  0  0  2  0  0  0  0  0  0
  -30.4470  -15.1970   20.2710 C   0  0  0  0  0  0  0  0  0  0  0  0
  -30.3850  -12.7840   19.3720 C   0  0  0  0  0  2  0  0  0  0  0  0
  -29.4490  -12.6180   18.1500 C   0  0  0  0  0  2  0  0  0  0  0  0
  -27.9980  -12.3720   18.6040 C   0  0  0  0  0  2  0  0  0  0  0  0
  -27.5660  -13.3360   19.7380 C   0  0  0  0  0  3  0  0  0  0  0  0
  -28.6260  -13.4450   20.8540 C   0  0  0  0  0  2  0  0  0  0  0  0
  -29.8640  -13.9130   20.2100 N   0  0  0  0  0  0  0  0  0  0  0  0
  -31.6700  -15.2160   20.0840 O   0  0  0  0  0  0  0  0  0  0  0  0
  -29.6680  -16.4320   20.3350 N   0  0  0  0  0  0  0  0  0  0  0  0
  -28.6830  -16.2090   20.3480 H   0  0  0  0  0  0  0  0  0  0  0  0
  -25.1970  -13.9070   20.4970 C   0  0  0  0  0  0  0  0  0  0  0  0
  -24.1340  -13.1330   20.8720 C   0  0  0  0  0  0  0  0  0  0  0  0
  -24.5990  -11.7820   20.8430 C   0  0  0  0  0  0  0  0  0  0  0  0
  -26.2380  -13.0290   20.2530 N   0  0  0  0  0  0  0  0  0  0  0  0
  -25.8900  -11.7450   20.5290 N   0  0  0  0  0  0  0  0  0  0  0  0
  -23.8710  -10.5210   21.0330 C   0  0  0  0  0  0  0  0  0  0  0  0
  -24.3000   -9.5510   21.9640 C   0  0  0  0  0  3  0  0  0  0  0  0
  -23.5700   -8.3570   22.1450 C   0  0  0  0  0  3  0  0  0  0  0  0
  -22.3940   -8.1230   21.3920 C   0  0  0  0  0  0  0  0  0  0  0  0
  -21.9840   -9.0820   20.4480 C   0  0  0  0  0  3  0  0  0  0  0  0
  -22.7150  -10.2670   20.2660 C   0  0  0  0  0  3  0  0  0  0  0  0
  -21.6350   -6.9820   21.4810 O   0  0  0  0  0  0  0  0  0  0  0  0
  -21.5890   -6.2370   22.6320 C   0  0  0  0  0  0  0  0  0  0  0  0
  -21.1640   -6.7880   23.8600 C   0  0  0  0  0  3  0  0  0  0  0  0
  -21.0650   -5.9700   25.0030 C   0  0  0  0  0  3  0  0  0  0  0  0
  -21.3800   -4.6010   24.9190 C   0  0  0  0  0  0  0  0  0  0  0  0
  -21.7990   -4.0490   23.6960 C   0  0  0  0  0  3  0  0  0  0  0  0
  -21.8990   -4.8640   22.5540 C   0  0  0  0  0  0  0  0  0  0  0  0
  -22.2820   -4.3220   21.3730 F   0  0  0  0  0  0  0  0  0  0  0  0
  -21.2790   -3.8120   26.0140 F   0  0  0  0  0  0  0  0  0  0  0  0
  -22.7380  -13.6120   21.1400 C   0  0  0  0  0  0  0  0  0  0  0  0
  -22.0090  -12.9210   22.0090 N   0  0  0  0  0  0  0  0  0  0  0  0
  -22.3020  -14.6360   20.6140 O   0  0  0  0  0  0  0  0  0  0  0  0
  -22.3740  -12.0920   22.4550 H   0  0  0  0  0  0  0  0  0  0  0  0
  -21.0720  -13.2250   22.2340 H   0  0  0  0  0  0  0  0  0  0  0  0
  -25.3560  -15.2770   20.3120 N   0  0  0  0  0  0  0  0  0  0  0  0
  -24.5760  -15.9200   20.4030 H   0  0  0  0  0  0  0  0  0  0  0  0
  -26.1790  -15.7100   19.9120 H   0  0  0  0  0  0  0  0  0  0  0  0
  2  4  1  0
  2  5  1  0
  3  6  1  0
  3  1  1  0
  4  6  1  0
  5  8  1  0
  5  1  1  0
  6  7  1  1
  8 10  1  0
  9 20  2  0
 10 15  1  0
 11 19  1  0
 11 21  1  0
 12 18  1  0
 12 14  1  0
 13 19  1  0
 14 13  1  0
 15 14  2  0
 16 10  2  0
 17 16  1  0
 17 12  2  0
 18 11  1  0
 19  9  1  0
 21 23  2  0
 22 21  1  0
 24 22  1  0
 25 34  2  0
 25 30  1  0
 26 22  1  0
 26 30  1  0
 27 26  1  0
 28 29  1  0
 28 27  1  0
 29 25  1  0
 30 31  2  0
 31 32  1  0
 33 32  2  0
 34 33  1  0
 35  9  1  0
 35 36  1  0
 35 45  1  0
 36 39  1  0
 37 41  1  0
 37 36  1  0
 38 37  2  0
 41 40  1  0
 43 41  1  0
 43 44  1  0
 43 42  1  0
 45 48  1  1
 45 46  1  0
 47 45  1  0
 49  6  1  0
 49 50  1  0
 51 59  1  0
 52 57  1  0
 53 54  1  0
 53 52  1  0
 55 54  1  0
 55 64  1  0
 55 56  1  0
 57 51  1  0
 57 56  1  0
 58 51  2  0
 59 60  1  0
 59 50  1  0
 61 62  2  0
 62 81  1  0
 63 62  1  0
 63 66  1  0
 64 61  1  0
 64 65  1  0
 65 63  2  0
 66 67  1  0
 67 68  2  0
 69 72  1  0
 69 68  1  0
 70 69  2  0
 71 70  1  0
 71 66  2  0
 72 73  1  0
 73 74  1  0
 74 75  2  0
 76 75  1  0
 76 80  1  0
 77 76  2  0
 78 73  2  0
 78 77  1  0
 79 78  1  0
 81 82  1  0
 82 85  1  0
 82 84  1  0
 83 81  2  0
 86 87  1  0
 86 61  1  0
 88 86  1  0
M  ISO  4   5 101   8 101  51 100  59 100
M  END
>  <TORSDO>  (52) 
F 18

>  <SCORE>  (52) 
-15.252

>  <name>  (52) 
51

>  <ligand_id>  (52) 
51

>  <original_smiles>  (52) 
[H]c1c([H])c([H])c2c(c1[H])C([H])([H])C([H])([H])C([H])([H])C2([H])N([H])C(=O)C1([H])N(C(=O)C([H])(N([H])C(=O)C([H])(N([H])C([H])([H])[H])C([H])([H])[H])C(C([H])([H])[H])(C([H])([H])[H])C([H])([H])[H])C([H])([H])c2c([H])c(OC3([H])C([H])([H])C([H])([H])[N+]([H])(C([H])([H])C([H])([H])N([H])C(=O)N4C([H])([H])C([H])([H])C([H])([H])C([H])(n5nc(-c6c([H])c([H])c(Oc7c([H])c([H])c(F)c([H])c7F)c([H])c6[H])c(C(=O)N([H])[H])c5N([H])[H])C4([H])[H])C([H])([H])C3([H])[H])c([H])c([H])c2C1([H])[H]

>  <smiles>  (52) 
[H]c1c([H])c([H])c2c(c1[H])C([H])([H])C([H])([H])C([H])([H])C2([H])N([H])C(=O)C1([H])N(C(=O)C([H])(N([H])C(=O)C([H])(N([H])C([H])([H])[H])C([H])([H])[H])C(C([H])([H])[H])(C([H])([H])[H])C([H])([H])[H])C([H])([H])c2c([H])c(OC3([H])C([H])([H])C([H])([H])[N+]([H])(C([H])([H])C([H])([H])N([H])C(=O)N4C([H])([H])C([H])([H])C([H])([H])C([H])(n5nc(-c6c([H])c([H])c(Oc7c([H])c([H])c(F)c([H])c7F)c([H])c6[H])c(C(=O)N([H])[H])c5N([H])[H])C4([H])[H])C([H])([H])C3([H])[H])c([H])c([H])c2C1([H])[H]

$$$$
52:0:0
     RDKit          3D

 99107  0  0  1  0  0  0  0  0999 V2000
  -29.1750  -21.2260   19.7420 N   0  0  1  0  0  4  0  0  0  0  0  0
  -28.9260  -21.1220   20.7140 H   0  0  0  0  0  0  0  0  0  0  0  0
  -25.9540  -19.9090   17.8560 C   0  0  0  0  0  2  0  0  0  0  0  0
  -24.9310  -20.8020   18.5760 C   0  0  0  0  0  2  0  0  0  0  0  0
  -27.2840  -19.8230   18.6240 C   0  0  0  0  0  2  0  0  0  0  0  0
  -26.8000  -22.1190   19.6350 C   0  0  0  0  0  2  0  0  0  0  0  0
  -25.4870  -22.2190   18.8140 C   0  0  0  0  0  3  0  0  0  0  0  0
  -27.8760  -21.2160   18.9730 C   0  0  0  0  0  3  0  0  0  0  0  0
  -25.5960  -22.9990   17.4770 C   0  0  0  0  0  2  0  0  0  0  0  0
  -25.8790  -24.5110   17.5880 C   0  0  0  0  0  2  0  0  0  0  0  0
  -25.8200  -25.1640   16.2680 N   0  0  0  0  0  4  0  0  0  0  0  0
  -26.3830  -24.6690   15.5980 H   0  0  0  0  0  0  0  0  0  0  0  0
  -26.1530  -26.1120   16.3300 H   0  0  0  0  0  0  0  0  0  0  0  0
  -24.8740  -25.1850   15.9340 H   0  0  0  0  0  0  0  0  0  0  0  0
  -30.1120  -20.0170   19.4550 C   0  0  0  0  0  2  0  0  0  0  0  0
  -30.5940  -18.9490   20.5810 C   0  0  0  0  0  2  0  0  0  0  0  0
  -29.7740  -17.7370   21.2640 C   0  0  0  0  0  2  0  0  0  0  0  0
  -30.5190  -15.3060   20.4730 C   0  0  0  0  0  0  0  0  0  0  0  0
  -30.4900  -13.0740   19.3500 C   0  0  0  0  0  2  0  0  0  0  0  0
  -29.5720  -13.1520   18.1110 C   0  0  0  0  0  2  0  0  0  0  0  0
  -28.0980  -12.9030   18.4930 C   0  0  0  0  0  2  0  0  0  0  0  0
  -27.6560  -13.7150   19.7400 C   0  0  0  0  0  3  0  0  0  0  0  0
  -28.6920  -13.6080   20.8790 C   0  0  0  0  0  2  0  0  0  0  0  0
  -29.9790  -14.0530   20.3300 N   0  0  0  0  0  0  0  0  0  0  0  0
  -31.7150  -15.5140   20.2460 O   0  0  0  0  0  0  0  0  0  0  0  0
  -29.6270  -16.3390   20.6800 N   0  0  0  0  0  0  0  0  0  0  0  0
  -28.6730  -16.0110   20.6710 H   0  0  0  0  0  0  0  0  0  0  0  0
  -25.2140  -14.1740   20.3810 C   0  0  0  0  0  0  0  0  0  0  0  0
  -24.1790  -13.3380   20.7080 C   0  0  0  0  0  0  0  0  0  0  0  0
  -24.7180  -12.0150   20.6840 C   0  0  0  0  0  0  0  0  0  0  0  0
  -26.3120  -13.3540   20.1790 N   0  0  0  0  0  0  0  0  0  0  0  0
  -26.0180  -12.0510   20.4230 N   0  0  0  0  0  0  0  0  0  0  0  0
  -24.0550  -10.7130   20.8360 C   0  0  0  0  0  0  0  0  0  0  0  0
  -24.5440   -9.7400   21.7360 C   0  0  0  0  0  3  0  0  0  0  0  0
  -23.8810   -8.5020   21.8790 C   0  0  0  0  0  3  0  0  0  0  0  0
  -22.7150   -8.2290   21.1230 C   0  0  0  0  0  0  0  0  0  0  0  0
  -22.2470   -9.1930   20.2130 C   0  0  0  0  0  3  0  0  0  0  0  0
  -22.9120  -10.4220   20.0660 C   0  0  0  0  0  3  0  0  0  0  0  0
  -22.0220   -7.0440   21.1770 O   0  0  0  0  0  0  0  0  0  0  0  0
  -22.0370   -6.2520   22.2970 C   0  0  0  0  0  0  0  0  0  0  0  0
  -21.6520   -6.7450   23.5630 C   0  0  0  0  0  3  0  0  0  0  0  0
  -21.6160   -5.8780   24.6740 C   0  0  0  0  0  3  0  0  0  0  0  0
  -21.9540   -4.5200   24.5190 C   0  0  0  0  0  0  0  0  0  0  0  0
  -22.3330   -4.0270   23.2590 C   0  0  0  0  0  3  0  0  0  0  0  0
  -22.3700   -4.8910   22.1500 C   0  0  0  0  0  0  0  0  0  0  0  0
  -22.7140   -4.4070   20.9320 F   0  0  0  0  0  0  0  0  0  0  0  0
  -21.9120   -3.6850   25.5840 F   0  0  0  0  0  0  0  0  0  0  0  0
  -22.7490  -13.7340   20.9340 C   0  0  0  0  0  0  0  0  0  0  0  0
  -22.0470  -13.0140   21.8040 N   0  0  0  0  0  0  0  0  0  0  0  0
  -22.2600  -14.7150   20.3760 O   0  0  0  0  0  0  0  0  0  0  0  0
  -22.4590  -12.2230   22.2750 H   0  0  0  0  0  0  0  0  0  0  0  0
  -21.0850  -13.2550   22.0000 H   0  0  0  0  0  0  0  0  0  0  0  0
  -25.3050  -15.5530   20.2140 N   0  0  0  0  0  0  0  0  0  0  0  0
  -24.4900  -16.1520   20.2830 H   0  0  0  0  0  0  0  0  0  0  0  0
  -26.1180  -16.0350   19.8570 H   0  0  0  0  0  0  0  0  0  0  0  0
  -29.8430  -22.6280   19.6600 C   0  0  0  0  0  2  0  0  0  0  0  0
  -29.0740  -23.9820   20.1650 C   0  0  0  0  0  2  0  0  0  0  0  0
  -29.4340  -25.4140   19.4980 C   0  0  0  0  0  2  0  0  0  0  0  0
  -29.1400  -26.7320   20.1650 O   0  0  0  0  0  0  0  0  0  0  0  0
  -24.5540  -31.4960   23.1520 C   0  0  0  0  0  0  0  0  0  0  0  0
  -27.9180  -27.4370   20.0590 C   0  0  0  0  0  0  0  0  0  0  0  0
  -23.6520  -30.0600   21.3590 C   0  0  0  0  0  3  0  0  0  0  0  0
  -25.3760  -28.7790   19.9690 C   0  0  0  0  0  0  0  0  0  0  0  0
  -26.1450  -30.6820   21.3870 C   0  0  0  0  0  2  0  0  0  0  0  0
  -26.4350  -29.3600   20.6740 C   0  0  0  0  0  0  0  0  0  0  0  0
  -27.7060  -28.7040   20.7040 C   0  0  0  0  0  3  0  0  0  0  0  0
  -26.8160  -26.9070   19.3520 C   0  0  0  0  0  3  0  0  0  0  0  0
  -25.5710  -27.5610   19.2980 C   0  0  0  0  0  3  0  0  0  0  0  0
  -24.0440  -29.5030   19.9660 C   0  0  0  0  0  2  0  0  0  0  0  0
  -24.7950  -30.7660   22.0220 N   0  0  0  0  0  0  0  0  0  0  0  0
  -23.4120  -31.6030   23.6150 O   0  0  0  0  0  0  0  0  0  0  0  0
  -23.0610  -28.9120   22.2170 C   0  0  0  0  0  0  0  0  0  0  0  0
  -21.7740  -28.5930   21.9980 N   0  0  0  0  0  0  0  0  0  0  0  0
  -23.7650  -28.3140   23.0350 O   0  0  0  0  0  0  0  0  0  0  0  0
  -21.2610  -29.1380   21.3190 H   0  0  0  0  0  0  0  0  0  0  0  0
  -18.5350  -26.9860   22.2120 C   0  0  0  0  0  0  0  0  0  0  0  0
  -21.0280  -27.5190   22.6580 C   0  0  0  0  0  3  0  0  0  0  0  0
  -21.3290  -26.1500   22.0060 C   0  0  0  0  0  2  0  0  0  0  0  0
  -20.3320  -25.7690   20.9090 C   0  0  0  0  0  2  0  0  0  0  0  0
  -18.9060  -25.7140   21.4690 C   0  0  0  0  0  2  0  0  0  0  0  0
  -19.5310  -27.8410   22.7550 C   0  0  0  0  0  0  0  0  0  0  0  0
  -19.1340  -29.0300   23.4050 C   0  0  0  0  0  3  0  0  0  0  0  0
  -17.7720  -29.3650   23.5210 C   0  0  0  0  0  3  0  0  0  0  0  0
  -16.7890  -28.5090   22.9950 C   0  0  0  0  0  3  0  0  0  0  0  0
  -17.1710  -27.3230   22.3460 C   0  0  0  0  0  3  0  0  0  0  0  0
  -25.7000  -32.2450   23.8970 C   0  0  0  0  0  3  0  0  0  0  0  0
  -26.0240  -31.6280   25.3130 C   0  0  1  0  0  0  0  0  0  0  0  0
  -24.7830  -31.4620   26.2210 C   0  0  0  0  0  1  0  0  0  0  0  0
  -26.6930  -30.2420   25.1650 C   0  0  0  0  0  1  0  0  0  0  0  0
  -27.0360  -32.5340   26.0530 C   0  0  0  0  0  1  0  0  0  0  0  0
  -25.2960  -33.6520   24.0310 N   0  0  0  0  0  0  0  0  0  0  0  0
  -25.7630  -34.6580   23.2820 C   0  0  0  0  0  0  0  0  0  0  0  0
  -26.6460  -34.5070   22.4350 O   0  0  0  0  0  0  0  0  0  0  0  0
  -24.5440  -33.8430   24.6760 H   0  0  0  0  0  0  0  0  0  0  0  0
  -24.1550  -36.3750   22.3870 C   0  0  0  0  0  1  0  0  0  0  0  0
  -25.1550  -36.0590   23.5090 C   0  0  0  0  0  3  0  0  0  0  0  0
  -27.0120  -37.0520   24.7720 C   0  0  0  0  0  1  0  0  0  0  0  0
  -26.1670  -37.1350   23.5850 N   0  0  0  0  0  0  0  0  0  0  0  0
  -25.7210  -38.0490   23.5750 H   0  0  0  0  0  0  0  0  0  0  0  0
  1  2  1  1
  3  4  1  0
  3  5  1  0
  4  7  1  0
  5  8  1  0
  7  9  1  0
  7  6  1  0
  8  6  1  0
  8  1  1  0
  9 10  1  0
 11 13  1  0
 11 10  1  0
 12 11  1  0
 14 11  1  0
 15  1  1  0
 15 16  1  0
 16 17  1  0
 18 26  1  0
 19 24  1  0
 20 21  1  0
 20 19  1  0
 22 21  1  0
 22 31  1  0
 22 23  1  0
 24 18  1  0
 24 23  1  0
 25 18  2  0
 26 17  1  0
 27 26  1  0
 28 29  2  0
 29 48  1  0
 30 29  1  0
 30 33  1  0
 31 28  1  0
 31 32  1  0
 32 30  2  0
 33 34  1  0
 34 35  2  0
 36 39  1  0
 36 35  1  0
 37 36  2  0
 38 37  1  0
 38 33  2  0
 39 40  1  0
 40 41  1  0
 41 42  2  0
 43 42  1  0
 43 47  1  0
 44 43  2  0
 45 40  2  0
 45 44  1  0
 46 45  1  0
 48 49  1  0
 49 52  1  0
 49 51  1  0
 50 48  2  0
 53 54  1  0
 53 28  1  0
 55 53  1  0
 56  1  1  0
 56 57  1  0
 58 57  1  0
 58 59  1  0
 60 71  2  0
 61 59  1  0
 61 66  1  0
 62 70  1  0
 62 72  1  0
 63 65  1  0
 64 70  1  0
 65 66  2  0
 65 64  1  0
 67 61  2  0
 68 67  1  0
 68 63  2  0
 69 63  1  0
 69 62  1  0
 70 60  1  0
 72 74  2  0
 73 72  1  0
 75 73  1  0
 76 85  2  0
 76 81  1  0
 77 73  1  0
 77 81  1  0
 78 77  1  0
 79 80  1  0
 79 78  1  0
 80 76  1  0
 81 82  2  0
 82 83  1  0
 84 83  2  0
 85 84  1  0
 86 60  1  0
 86 91  1  0
 86 87  1  0
 87 90  1  1
 87 88  1  0
 89 87  1  0
 91 94  1  0
 92 96  1  0
 92 91  1  0
 93 92  2  0
 96 95  1  0
 96 98  1  0
 98 97  1  0
 99 98  1  0
M  ISO  4  18 100  26 100  58 101  59 101
M  END
>  <TORSDO>  (53) 
F 26

>  <SCORE>  (53) 
-10.144

>  <name>  (53) 
52

>  <ligand_id>  (53) 
52

>  <original_smiles>  (53) 
[H]c1c([H])c([H])c2c(c1[H])C([H])([H])C([H])([H])C([H])([H])C2([H])N([H])C(=O)C1([H])N(C(=O)C([H])(N([H])C(=O)C([H])(N([H])C([H])([H])[H])C([H])([H])[H])C(C([H])([H])[H])(C([H])([H])[H])C([H])([H])[H])C([H])([H])c2c([H])c(OC([H])([H])C([H])([H])C([H])([H])[N+]([H])(C([H])([H])C([H])([H])C([H])([H])N([H])C(=O)N3C([H])([H])C([H])([H])C([H])([H])C([H])(n4nc(-c5c([H])c([H])c(Oc6c([H])c([H])c(F)c([H])c6F)c([H])c5[H])c(C(=O)N([H])[H])c4N([H])[H])C3([H])[H])C3([H])C([H])([H])C([H])([H])C([H])([H])C([H])(C([H])([H])C([H])([H])[N+]([H])([H])[H])C3([H])[H])c([H])c([H])c2C1([H])[H]

>  <smiles>  (53) 
[H]c1c([H])c([H])c2c(c1[H])C([H])([H])C([H])([H])C([H])([H])C2([H])N([H])C(=O)C1([H])N(C(=O)C([H])(N([H])C(=O)C([H])(N([H])C([H])([H])[H])C([H])([H])[H])C(C([H])([H])[H])(C([H])([H])[H])C([H])([H])[H])C([H])([H])c2c([H])c(OC([H])([H])C([H])([H])C([H])([H])[N+]([H])(C([H])([H])C([H])([H])C([H])([H])N([H])C(=O)N3C([H])([H])C([H])([H])C([H])([H])C([H])(n4nc(-c5c([H])c([H])c(Oc6c([H])c([H])c(F)c([H])c6F)c([H])c5[H])c(C(=O)N([H])[H])c4N([H])[H])C3([H])[H])C3([H])C([H])([H])C([H])([H])C([H])([H])C([H])(C([H])([H])C([H])([H])[N+]([H])([H])[H])C3([H])[H])c([H])c([H])c2C1([H])[H]

$$$$
53:0:0
     RDKit          3D

 92100  0  0  1  0  0  0  0  0999 V2000
  -29.8690  -21.7650   20.8470 N   0  0  0  0  0  4  0  0  0  0  0  0
  -30.8230  -21.9960   21.0720 H   0  0  0  0  0  0  0  0  0  0  0  0
  -29.3430  -21.8240   21.7050 H   0  0  0  0  0  0  0  0  0  0  0  0
  -27.8800  -18.5010   20.0220 C   0  0  0  0  0  2  0  0  0  0  0  0
  -28.8130  -17.3100   19.7470 C   0  0  0  0  0  2  0  0  0  0  0  0
  -30.8380  -17.9160   21.1440 C   0  0  0  0  0  2  0  0  0  0  0  0
  -28.4310  -19.9350   19.8570 C   0  0  0  0  0  2  0  0  0  0  0  0
  -30.4120  -19.3810   21.5100 C   0  0  0  0  0  2  0  0  0  0  0  0
  -29.6480  -16.9450   20.9880 C   0  0  0  0  0  3  0  0  0  0  0  0
  -29.8430  -20.3250   20.3930 C   0  0  0  0  0  3  0  0  0  0  0  0
  -30.6350  -14.5610   20.4870 C   0  0  0  0  0  0  0  0  0  0  0  0
  -30.4140  -12.3870   19.3190 C   0  0  0  0  0  2  0  0  0  0  0  0
  -29.4540  -12.5820   18.1240 C   0  0  0  0  0  2  0  0  0  0  0  0
  -27.9800  -12.4280   18.5550 C   0  0  0  0  0  2  0  0  0  0  0  0
  -27.6440  -13.2460   19.8290 C   0  0  0  0  0  3  0  0  0  0  0  0
  -28.7060  -12.9940   20.9260 C   0  0  0  0  0  2  0  0  0  0  0  0
  -30.0300  -13.3420   20.3710 N   0  0  0  0  0  0  0  0  0  0  0  0
  -31.7170  -14.8310   19.9550 O   0  0  0  0  0  0  0  0  0  0  0  0
  -29.8680  -15.4810   21.1120 N   0  0  0  0  0  0  0  0  0  0  0  0
  -29.1080  -15.0260   21.5960 H   0  0  0  0  0  0  0  0  0  0  0  0
  -25.2460  -13.8670   20.5440 C   0  0  0  0  0  0  0  0  0  0  0  0
  -24.1750  -13.0980   20.9100 C   0  0  0  0  0  0  0  0  0  0  0  0
  -24.6280  -11.7440   20.8660 C   0  0  0  0  0  0  0  0  0  0  0  0
  -26.2870  -12.9800   20.3040 N   0  0  0  0  0  0  0  0  0  0  0  0
  -25.9160  -11.6990   20.5520 N   0  0  0  0  0  0  0  0  0  0  0  0
  -23.8950  -10.4840   21.0480 C   0  0  0  0  0  0  0  0  0  0  0  0
  -24.3160   -9.5150   21.9840 C   0  0  0  0  0  3  0  0  0  0  0  0
  -23.5860   -8.3190   22.1530 C   0  0  0  0  0  3  0  0  0  0  0  0
  -22.4220   -8.0830   21.3840 C   0  0  0  0  0  0  0  0  0  0  0  0
  -22.0200   -9.0420   20.4370 C   0  0  0  0  0  3  0  0  0  0  0  0
  -22.7500  -10.2300   20.2660 C   0  0  0  0  0  3  0  0  0  0  0  0
  -21.6650   -6.9400   21.4620 O   0  0  0  0  0  0  0  0  0  0  0  0
  -21.5850   -6.2070   22.6190 C   0  0  0  0  0  0  0  0  0  0  0  0
  -21.0920   -6.7630   23.8200 C   0  0  0  0  0  3  0  0  0  0  0  0
  -20.9620   -5.9550   24.9680 C   0  0  0  0  0  3  0  0  0  0  0  0
  -21.3150   -4.5930   24.9140 C   0  0  0  0  0  0  0  0  0  0  0  0
  -21.8000   -4.0370   23.7170 C   0  0  0  0  0  3  0  0  0  0  0  0
  -21.9320   -4.8420   22.5730 C   0  0  0  0  0  0  0  0  0  0  0  0
  -22.3810   -4.2970   21.4170 F   0  0  0  0  0  0  0  0  0  0  0  0
  -21.1820   -3.8140   26.0130 F   0  0  0  0  0  0  0  0  0  0  0  0
  -22.7810  -13.5810   21.1930 C   0  0  0  0  0  0  0  0  0  0  0  0
  -22.0480  -12.8760   22.0480 N   0  0  0  0  0  0  0  0  0  0  0  0
  -22.3480  -14.6180   20.6910 O   0  0  0  0  0  0  0  0  0  0  0  0
  -22.4090  -12.0380   22.4810 H   0  0  0  0  0  0  0  0  0  0  0  0
  -21.1140  -13.1830   22.2800 H   0  0  0  0  0  0  0  0  0  0  0  0
  -25.4170  -15.2380   20.3770 N   0  0  0  0  0  0  0  0  0  0  0  0
  -24.6510  -15.8920   20.4890 H   0  0  0  0  0  0  0  0  0  0  0  0
  -26.2670  -15.6760   20.0440 H   0  0  0  0  0  0  0  0  0  0  0  0
  -29.3450  -22.8280   19.9220 C   0  0  0  0  0  2  0  0  0  0  0  0
  -29.3620  -24.2890   20.5010 C   0  0  0  0  0  2  0  0  0  0  0  0
  -28.3450  -25.2520   19.8090 C   0  0  0  0  0  2  0  0  0  0  0  0
  -28.3930  -26.6450   20.2290 O   0  0  0  0  0  0  0  0  0  0  0  0
  -24.5740  -31.8960   23.2370 C   0  0  0  0  0  0  0  0  0  0  0  0
  -27.2270  -27.4070   20.1730 C   0  0  0  0  0  0  0  0  0  0  0  0
  -23.3750  -30.4880   21.5970 C   0  0  0  0  0  3  0  0  0  0  0  0
  -24.8340  -28.9510   20.1740 C   0  0  0  0  0  0  0  0  0  0  0  0
  -25.9060  -30.8350   21.4120 C   0  0  0  0  0  2  0  0  0  0  0  0
  -25.9930  -29.4610   20.7700 C   0  0  0  0  0  0  0  0  0  0  0  0
  -27.1880  -28.6960   20.7700 C   0  0  0  0  0  3  0  0  0  0  0  0
  -26.0450  -26.9380   19.5480 C   0  0  0  0  0  3  0  0  0  0  0  0
  -24.8570  -27.6910   19.5590 C   0  0  0  0  0  3  0  0  0  0  0  0
  -23.5890  -29.8090   20.2190 C   0  0  0  0  0  2  0  0  0  0  0  0
  -24.6370  -31.0890   22.1390 N   0  0  0  0  0  0  0  0  0  0  0  0
  -23.4900  -32.1690   23.7720 O   0  0  0  0  0  0  0  0  0  0  0  0
  -22.7210  -29.4680   22.5590 C   0  0  0  0  0  0  0  0  0  0  0  0
  -21.3940  -29.2880   22.4350 N   0  0  0  0  0  0  0  0  0  0  0  0
  -23.4030  -28.8430   23.3760 O   0  0  0  0  0  0  0  0  0  0  0  0
  -20.9060  -29.8440   21.7480 H   0  0  0  0  0  0  0  0  0  0  0  0
  -18.0160  -28.1120   22.9520 C   0  0  0  0  0  0  0  0  0  0  0  0
  -20.5770  -28.3530   23.2080 C   0  0  0  0  0  3  0  0  0  0  0  0
  -20.6660  -26.9230   22.6250 C   0  0  0  0  0  2  0  0  0  0  0  0
  -19.5550  -26.6130   21.6160 C   0  0  0  0  0  2  0  0  0  0  0  0
  -18.1790  -26.7640   22.2700 C   0  0  0  0  0  2  0  0  0  0  0  0
  -19.1420  -28.8640   23.3770 C   0  0  0  0  0  0  0  0  0  0  0  0
  -18.9350  -30.1270   23.9740 C   0  0  0  0  0  3  0  0  0  0  0  0
  -17.6350  -30.6370   24.1510 C   0  0  0  0  0  3  0  0  0  0  0  0
  -16.5220  -29.8800   23.7410 C   0  0  0  0  0  3  0  0  0  0  0  0
  -16.7150  -28.6190   23.1470 C   0  0  0  0  0  3  0  0  0  0  0  0
  -25.8570  -32.5310   23.8570 C   0  0  0  0  0  3  0  0  0  0  0  0
  -26.3680  -31.7730   25.1430 C   0  0  1  0  0  0  0  0  0  0  0  0
  -25.2700  -31.5480   26.2080 C   0  0  0  0  0  1  0  0  0  0  0  0
  -26.9530  -30.3910   24.7680 C   0  0  0  0  0  1  0  0  0  0  0  0
  -27.5150  -32.5750   25.8010 C   0  0  0  0  0  1  0  0  0  0  0  0
  -25.5500  -33.9330   24.1690 N   0  0  0  0  0  0  0  0  0  0  0  0
  -25.8930  -34.9760   23.4010 C   0  0  0  0  0  0  0  0  0  0  0  0
  -26.5700  -34.8590   22.3760 O   0  0  0  0  0  0  0  0  0  0  0  0
  -24.9510  -34.0990   24.9640 H   0  0  0  0  0  0  0  0  0  0  0  0
  -24.1830  -36.7760   23.0010 C   0  0  0  0  0  1  0  0  0  0  0  0
  -25.4060  -36.3710   23.8390 C   0  0  0  0  0  3  0  0  0  0  0  0
  -27.5260  -37.2500   24.7090 C   0  0  0  0  0  1  0  0  0  0  0  0
  -26.4470  -37.4160   23.7390 N   0  0  0  0  0  0  0  0  0  0  0  0
  -26.0440  -38.3400   23.8690 H   0  0  0  0  0  0  0  0  0  0  0  0
  1  2  1  0
  1  3  1  0
  5  4  1  0
  5  9  1  0
  6  8  1  0
  7  4  1  0
  7 10  1  0
  9 19  1  0
  9  6  1  0
 10  1  1  0
 10  8  1  0
 11 19  1  0
 12 17  1  0
 13 14  1  0
 13 12  1  0
 15 14  1  0
 15 24  1  0
 15 16  1  0
 17 11  1  0
 17 16  1  0
 18 11  2  0
 19 20  1  0
 21 22  2  0
 22 41  1  0
 23 22  1  0
 23 26  1  0
 24 21  1  0
 24 25  1  0
 25 23  2  0
 26 27  1  0
 27 28  2  0
 29 32  1  0
 29 28  1  0
 30 29  2  0
 31 30  1  0
 31 26  2  0
 32 33  1  0
 33 34  1  0
 34 35  2  0
 36 35  1  0
 36 40  1  0
 37 36  2  0
 38 33  2  0
 38 37  1  0
 39 38  1  0
 41 42  1  0
 42 45  1  0
 42 44  1  0
 43 41  2  0
 46 47  1  0
 46 21  1  0
 48 46  1  0
 49 50  1  0
 49  1  1  0
 51 52  1  0
 51 50  1  0
 53 64  2  0
 54 52  1  0
 54 59  1  0
 55 63  1  0
 55 65  1  0
 56 62  1  0
 56 58  1  0
 57 63  1  0
 58 59  2  0
 58 57  1  0
 60 61  1  0
 60 54  2  0
 61 56  2  0
 62 55  1  0
 63 53  1  0
 65 67  2  0
 66 65  1  0
 68 66  1  0
 69 78  2  0
 69 74  1  0
 70 66  1  0
 70 74  1  0
 71 70  1  0
 72 73  1  0
 72 71  1  0
 73 69  1  0
 74 75  2  0
 75 76  1  0
 77 76  2  0
 78 77  1  0
 79 53  1  0
 79 84  1  0
 79 80  1  0
 80 83  1  1
 80 81  1  0
 82 80  1  0
 84 87  1  0
 85 89  1  0
 85 84  1  0
 86 85  2  0
 89 88  1  0
 91 89  1  0
 91 92  1  0
 91 90  1  0
M  ISO  4  11 100  19 100  51 101  52 101
M  END
>  <TORSDO>  (54) 
F 20

>  <SCORE>  (54) 
-14.097

>  <name>  (54) 
53

>  <ligand_id>  (54) 
53

>  <original_smiles>  (54) 
[H]c1c([H])c([H])c2c(c1[H])C([H])([H])C([H])([H])C([H])([H])C2([H])N([H])C(=O)C1([H])N(C(=O)C([H])(N([H])C(=O)C([H])(N([H])C([H])([H])[H])C([H])([H])[H])C(C([H])([H])[H])(C([H])([H])[H])C([H])([H])[H])C([H])([H])c2c([H])c(OC([H])([H])C([H])([H])C([H])([H])[N+]([H])([H])C3([H])C([H])([H])C([H])([H])C([H])([H])C([H])(N([H])C(=O)N4C([H])([H])C([H])([H])C([H])([H])C([H])(n5nc(-c6c([H])c([H])c(Oc7c([H])c([H])c(F)c([H])c7F)c([H])c6[H])c(C(=O)N([H])[H])c5N([H])[H])C4([H])[H])C([H])([H])C3([H])[H])c([H])c([H])c2C1([H])[H]

>  <smiles>  (54) 
[H]c1c([H])c([H])c2c(c1[H])C([H])([H])C([H])([H])C([H])([H])C2([H])N([H])C(=O)C1([H])N(C(=O)C([H])(N([H])C(=O)C([H])(N([H])C([H])([H])[H])C([H])([H])[H])C(C([H])([H])[H])(C([H])([H])[H])C([H])([H])[H])C([H])([H])c2c([H])c(OC([H])([H])C([H])([H])C([H])([H])[N+]([H])([H])C3([H])C([H])([H])C([H])([H])C([H])([H])C([H])(N([H])C(=O)N4C([H])([H])C([H])([H])C([H])([H])C([H])(n5nc(-c6c([H])c([H])c(Oc7c([H])c([H])c(F)c([H])c7F)c([H])c6[H])c(C(=O)N([H])[H])c5N([H])[H])C4([H])[H])C([H])([H])C3([H])[H])c([H])c([H])c2C1([H])[H]

$$$$
54:0:0
     RDKit          3D

102111  0  0  1  0  0  0  0  0999 V2000
  -25.7760  -21.0710   19.2160 C   0  0  0  0  0  3  0  0  0  0  0  0
  -25.5540  -21.6970   20.3810 C   0  0  0  0  0  3  0  0  0  0  0  0
  -27.1460  -20.9230   18.5810 C   0  0  0  0  0  2  0  0  0  0  0  0
  -26.6730  -22.3010   21.2010 C   0  0  0  0  0  2  0  0  0  0  0  0
  -28.3230  -21.5380   19.3960 C   0  0  0  0  0  3  0  0  0  0  0  0
  -27.8800  -22.7040   20.3280 C   0  0  0  0  0  3  0  0  0  0  0  0
  -27.5590  -23.9180   19.5450 N   0  0  0  0  0  4  0  0  0  0  0  0
  -26.9810  -24.5050   20.1240 H   0  0  0  0  0  0  0  0  0  0  0  0
  -27.0090  -23.6420   18.7470 H   0  0  0  0  0  0  0  0  0  0  0  0
  -28.7350  -24.7170   19.1150 C   0  0  0  0  0  2  0  0  0  0  0  0
  -28.4190  -26.2150   19.0000 C   0  0  0  0  0  2  0  0  0  0  0  0
  -27.2450  -26.5460   18.0550 C   0  0  0  0  0  2  0  0  0  0  0  0
  -26.7850  -27.8750   18.2940 O   0  0  0  0  0  0  0  0  0  0  0  0
  -27.5930  -31.7300   24.1930 C   0  0  0  0  0  0  0  0  0  0  0  0
  -26.2950  -28.1480   19.5500 C   0  0  0  0  0  0  0  0  0  0  0  0
  -25.9390  -29.8940   24.3340 C   0  0  0  0  0  3  0  0  0  0  0  0
  -25.3280  -28.7850   22.1220 C   0  0  0  0  0  0  0  0  0  0  0  0
  -26.4550  -31.0190   22.0940 C   0  0  0  0  0  2  0  0  0  0  0  0
  -26.1220  -29.7040   21.4250 C   0  0  0  0  0  0  0  0  0  0  0  0
  -26.5970  -29.3950   20.1350 C   0  0  0  0  0  3  0  0  0  0  0  0
  -25.5060  -27.2210   20.2710 C   0  0  0  0  0  3  0  0  0  0  0  0
  -25.0220  -27.5380   21.5540 C   0  0  0  0  0  3  0  0  0  0  0  0
  -24.8370  -29.2030   23.4880 C   0  0  0  0  0  2  0  0  0  0  0  0
  -26.7200  -30.9050   23.5470 N   0  0  0  0  0  0  0  0  0  0  0  0
  -27.7190  -31.6930   25.4250 O   0  0  0  0  0  0  0  0  0  0  0  0
  -26.8200  -28.8000   24.9780 C   0  0  0  0  0  0  0  0  0  0  0  0
  -26.4840  -28.4190   26.2200 N   0  0  0  0  0  0  0  0  0  0  0  0
  -27.7550  -28.2910   24.3520 O   0  0  0  0  0  0  0  0  0  0  0  0
  -25.7020  -28.8790   26.6660 H   0  0  0  0  0  0  0  0  0  0  0  0
  -26.6360  -26.9160   29.4990 C   0  0  0  0  0  0  0  0  0  0  0  0
  -27.1450  -27.3790   27.0090 C   0  0  0  0  0  3  0  0  0  0  0  0
  -26.5210  -25.9930   26.7290 C   0  0  0  0  0  2  0  0  0  0  0  0
  -25.4000  -25.6250   27.7060 C   0  0  0  0  0  2  0  0  0  0  0  0
  -25.9260  -25.6210   29.1430 C   0  0  0  0  0  2  0  0  0  0  0  0
  -27.1940  -27.7510   28.4950 C   0  0  0  0  0  0  0  0  0  0  0  0
  -27.8060  -28.9670   28.8730 C   0  0  0  0  0  3  0  0  0  0  0  0
  -27.8720  -29.3480   30.2270 C   0  0  0  0  0  3  0  0  0  0  0  0
  -27.3380  -28.5070   31.2200 C   0  0  0  0  0  3  0  0  0  0  0  0
  -26.7230  -27.2950   30.8570 C   0  0  0  0  0  3  0  0  0  0  0  0
  -28.4550  -32.7760   23.4170 C   0  0  0  0  0  3  0  0  0  0  0  0
  -29.9610  -32.3400   23.2440 C   0  0  1  0  0  0  0  0  0  0  0  0
  -30.6350  -31.8990   24.5630 C   0  0  0  0  0  1  0  0  0  0  0  0
  -30.0760  -31.1650   22.2450 C   0  0  0  0  0  1  0  0  0  0  0  0
  -30.7850  -33.5080   22.6540 C   0  0  0  0  0  1  0  0  0  0  0  0
  -28.3610  -34.0510   24.1410 N   0  0  0  0  0  0  0  0  0  0  0  0
  -27.5640  -35.0700   23.7880 C   0  0  0  0  0  0  0  0  0  0  0  0
  -26.8800  -35.0590   22.7620 O   0  0  0  0  0  0  0  0  0  0  0  0
  -28.8560  -34.1110   25.0180 H   0  0  0  0  0  0  0  0  0  0  0  0
  -26.2540  -36.2380   25.5860 C   0  0  0  0  0  1  0  0  0  0  0  0
  -27.5220  -36.2960   24.7200 C   0  0  0  0  0  3  0  0  0  0  0  0
  -28.8660  -37.8440   23.3710 C   0  0  0  0  0  1  0  0  0  0  0  0
  -27.5730  -37.5850   23.9990 N   0  0  0  0  0  0  0  0  0  0  0  0
  -27.3740  -38.3550   24.6310 H   0  0  0  0  0  0  0  0  0  0  0  0
  -29.1950  -20.4820   20.1350 C   0  0  0  0  0  2  0  0  0  0  0  0
  -31.5120  -19.5750   19.5860 C   0  0  0  0  0  3  0  0  0  0  0  0
  -30.6820  -20.6240   19.7920 C   0  0  0  0  0  0  0  0  0  0  0  0
  -32.0130  -24.6850   19.2710 C   0  0  0  0  0  3  0  0  0  0  0  0
  -32.0720  -23.7780   18.1950 C   0  0  0  0  0  3  0  0  0  0  0  0
  -31.5540  -24.2520   20.5280 C   0  0  0  0  0  3  0  0  0  0  0  0
  -31.6590  -22.4440   18.3750 C   0  0  0  0  0  3  0  0  0  0  0  0
  -31.1400  -22.9180   20.7060 C   0  0  0  0  0  3  0  0  0  0  0  0
  -31.1780  -22.0040   19.6270 C   0  0  0  0  0  0  0  0  0  0  0  0
  -31.1470  -18.1040   19.7130 C   0  0  0  0  0  2  0  0  0  0  0  0
  -32.3590  -17.1920   20.0130 C   0  0  0  0  0  2  0  0  0  0  0  0
  -32.3150  -14.7390   19.3410 C   0  0  0  0  0  0  0  0  0  0  0  0
  -31.8680  -12.3320   18.9720 C   0  0  0  0  0  2  0  0  0  0  0  0
  -30.8480  -12.0790   17.8460 C   0  0  0  0  0  2  0  0  0  0  0  0
  -29.4020  -12.1830   18.3690 C   0  0  0  0  0  2  0  0  0  0  0  0
  -29.1620  -13.4780   19.1890 C   0  0  0  0  0  3  0  0  0  0  0  0
  -30.2580  -13.6250   20.2640 C   0  0  0  0  0  2  0  0  0  0  0  0
  -31.5750  -13.6290   19.5960 N   0  0  0  0  0  0  0  0  0  0  0  0
  -33.2650  -14.7660   18.5500 O   0  0  0  0  0  0  0  0  0  0  0  0
  -31.9420  -15.7940   20.0810 N   0  0  0  0  0  0  0  0  0  0  0  0
  -31.2240  -15.5870   20.7590 H   0  0  0  0  0  0  0  0  0  0  0  0
  -27.0760  -14.5810   20.2190 C   0  0  0  0  0  0  0  0  0  0  0  0
  -25.8790  -14.0610   20.6390 C   0  0  0  0  0  0  0  0  0  0  0  0
  -25.9680  -12.6500   20.4280 C   0  0  0  0  0  0  0  0  0  0  0  0
  -27.8280  -13.4990   19.7850 N   0  0  0  0  0  0  0  0  0  0  0  0
  -27.1680  -12.3270   19.9650 N   0  0  0  0  0  0  0  0  0  0  0  0
  -24.9590  -11.5960   20.5880 C   0  0  0  0  0  0  0  0  0  0  0  0
  -25.2190  -10.4300   21.3420 C   0  0  0  0  0  3  0  0  0  0  0  0
  -24.2260   -9.4380   21.4900 C   0  0  0  0  0  3  0  0  0  0  0  0
  -22.9570   -9.6070   20.8860 C   0  0  0  0  0  0  0  0  0  0  0  0
  -22.7110  -10.7590   20.1170 C   0  0  0  0  0  3  0  0  0  0  0  0
  -23.7030  -11.7420   19.9660 C   0  0  0  0  0  3  0  0  0  0  0  0
  -21.9400   -8.6860   20.9590 O   0  0  0  0  0  0  0  0  0  0  0  0
  -21.8300   -7.8170   22.0150 C   0  0  0  0  0  0  0  0  0  0  0  0
  -21.7090   -8.2720   23.3460 C   0  0  0  0  0  3  0  0  0  0  0  0
  -21.5280   -7.3460   24.3930 C   0  0  0  0  0  3  0  0  0  0  0  0
  -21.4560   -5.9680   24.1120 C   0  0  0  0  0  0  0  0  0  0  0  0
  -21.5710   -5.5150   22.7850 C   0  0  0  0  0  3  0  0  0  0  0  0
  -21.7550   -6.4380   21.7410 C   0  0  0  0  0  0  0  0  0  0  0  0
  -21.8440   -5.9970   20.4640 F   0  0  0  0  0  0  0  0  0  0  0  0
  -21.2750   -5.0770   25.1150 F   0  0  0  0  0  0  0  0  0  0  0  0
  -24.6840  -14.8360   21.1140 C   0  0  0  0  0  0  0  0  0  0  0  0
  -23.8880  -14.2550   22.0070 N   0  0  0  0  0  0  0  0  0  0  0  0
  -24.4720  -15.9850   20.7310 O   0  0  0  0  0  0  0  0  0  0  0  0
  -24.0710  -13.3220   22.3430 H   0  0  0  0  0  0  0  0  0  0  0  0
  -23.0840  -14.7530   22.3580 H   0  0  0  0  0  0  0  0  0  0  0  0
  -27.5800  -15.8750   20.1530 N   0  0  0  0  0  0  0  0  0  0  0  0
  -27.0310  -16.6900   20.4110 H   0  0  0  0  0  0  0  0  0  0  0  0
  -28.4960  -16.1130   19.7940 H   0  0  0  0  0  0  0  0  0  0  0  0
  1  2  2  0
  2  4  1  0
  3  1  1  0
  3  5  1  0
  5 54  1  0
  5  6  1  0
  6  7  1  0
  6  4  1  0
  7  8  1  0
  9  7  1  0
 10  7  1  0
 11 10  1  0
 12 13  1  0
 12 11  1  0
 13 15  1  0
 14 25  2  0
 15 20  2  0
 15 21  1  0
 16 26  1  0
 17 23  1  0
 18 24  1  0
 19 18  1  0
 19 17  2  0
 20 19  1  0
 21 22  2  0
 22 17  1  0
 23 16  1  0
 24 14  1  0
 24 16  1  0
 26 27  1  0
 27 29  1  0
 28 26  2  0
 30 39  1  0
 31 27  1  0
 31 35  1  0
 32 31  1  0
 32 33  1  0
 33 34  1  0
 34 30  1  0
 35 36  1  0
 35 30  2  0
 36 37  2  0
 37 38  1  0
 39 38  2  0
 40 45  1  0
 40 14  1  0
 41 40  1  0
 41 42  1  1
 43 41  1  0
 44 41  1  0
 45 48  1  0
 46 45  1  0
 46 50  1  0
 47 46  2  0
 50 49  1  0
 51 52  1  0
 52 53  1  0
 52 50  1  0
 55 63  1  0
 55 56  2  0
 56 54  1  0
 57 59  1  0
 58 60  1  0
 58 57  2  0
 59 61  2  0
 60 62  2  0
 62 56  1  0
 62 61  1  0
 63 64  1  0
 64 73  1  0
 65 71  1  0
 65 73  1  0
 66 71  1  0
 67 68  1  0
 67 66  1  0
 69 68  1  0
 69 78  1  0
 69 70  1  0
 71 70  1  0
 72 65  2  0
 73 74  1  0
 75 76  2  0
 76 95  1  0
 77 80  1  0
 77 76  1  0
 78 79  1  0
 78 75  1  0
 79 77  2  0
 80 81  1  0
 81 82  2  0
 83 86  1  0
 83 82  1  0
 84 83  2  0
 85 84  1  0
 85 80  2  0
 86 87  1  0
 87 88  1  0
 88 89  2  0
 90 89  1  0
 90 94  1  0
 91 90  2  0
 92 87  2  0
 92 91  1  0
 93 92  1  0
 95 96  1  0
 96 98  1  0
 96 99  1  0
 97 95  2  0
100 75  1  0
100101  1  0
102100  1  0
M  ISO  4  12 101  13 101  65 100  73 100
M  END
>  <TORSDO>  (55) 
F 25

>  <SCORE>  (55) 
-4.682

>  <name>  (55) 
54

>  <ligand_id>  (55) 
54

>  <original_smiles>  (55) 
[H]C(=C(c1c([H])c([H])c([H])c([H])c1[H])C([H])([H])C1([H])C([H])([H])C([H])=C([H])C([H])([H])C1([H])[N+]([H])([H])C([H])([H])C([H])([H])C([H])([H])Oc1c([H])c([H])c2c(c1[H])C([H])([H])N(C(=O)C([H])(N([H])C(=O)C([H])(N([H])C([H])([H])[H])C([H])([H])[H])C(C([H])([H])[H])(C([H])([H])[H])C([H])([H])[H])C([H])(C(=O)N([H])C1([H])c3c([H])c([H])c([H])c([H])c3C([H])([H])C([H])([H])C1([H])[H])C2([H])[H])C([H])([H])C([H])([H])N([H])C(=O)N1C([H])([H])C([H])([H])C([H])([H])C([H])(n2nc(-c3c([H])c([H])c(Oc4c([H])c([H])c(F)c([H])c4F)c([H])c3[H])c(C(=O)N([H])[H])c2N([H])[H])C1([H])[H]

>  <smiles>  (55) 
[H]C(=C(c1c([H])c([H])c([H])c([H])c1[H])C([H])([H])C1([H])C([H])([H])C([H])=C([H])C([H])([H])C1([H])[N+]([H])([H])C([H])([H])C([H])([H])C([H])([H])Oc1c([H])c([H])c2c(c1[H])C([H])([H])N(C(=O)C([H])(N([H])C(=O)C([H])(N([H])C([H])([H])[H])C([H])([H])[H])C(C([H])([H])[H])(C([H])([H])[H])C([H])([H])[H])C([H])(C(=O)N([H])C1([H])c3c([H])c([H])c([H])c([H])c3C([H])([H])C([H])([H])C1([H])[H])C2([H])[H])C([H])([H])C([H])([H])N([H])C(=O)N1C([H])([H])C([H])([H])C([H])([H])C([H])(n2nc(-c3c([H])c([H])c(Oc4c([H])c([H])c(F)c([H])c4F)c([H])c3[H])c(C(=O)N([H])[H])c2N([H])[H])C1([H])[H]

$$$$
55:0:0
     RDKit          3D

 93101  0  0  1  0  0  0  0  0999 V2000
  -29.2760  -20.1680   20.3570 N   0  0  0  0  0  4  0  0  0  0  0  0
  -28.2980  -19.9510   20.2460 H   0  0  0  0  0  0  0  0  0  0  0  0
  -29.4340  -20.2910   21.3420 H   0  0  0  0  0  0  0  0  0  0  0  0
  -30.0860  -18.8340   19.9610 C   0  0  0  0  0  2  0  0  0  0  0  0
  -30.8310  -14.8680   19.4550 C   0  0  0  0  0  0  0  0  0  0  0  0
  -30.4240  -12.6140   18.3510 C   0  0  0  0  0  2  0  0  0  0  0  0
  -29.2940  -12.6910   17.3020 C   0  0  0  0  0  2  0  0  0  0  0  0
  -27.9310  -12.4590   17.9750 C   0  0  0  0  0  2  0  0  0  0  0  0
  -27.7650  -13.2970   19.2730 C   0  0  0  0  0  3  0  0  0  0  0  0
  -29.0040  -13.2000   20.1930 C   0  0  0  0  0  2  0  0  0  0  0  0
  -30.1680  -13.6390   19.4140 N   0  0  0  0  0  0  0  0  0  0  0  0
  -31.8530  -14.9590   18.7650 O   0  0  0  0  0  0  0  0  0  0  0  0
  -30.9230  -16.9920   22.5110 C   0  0  0  0  0  2  0  0  0  0  0  0
  -31.4170  -15.9260   21.5270 C   0  0  0  0  0  2  0  0  0  0  0  0
  -29.5140  -17.3320   22.0350 C   0  0  0  0  0  3  0  0  0  0  0  0
  -29.6480  -17.2630   20.4860 C   0  0  0  0  0  3  0  0  0  0  0  0
  -30.5140  -15.9240   20.3590 N   0  0  0  0  0  0  0  0  0  0  0  0
  -25.6100  -13.8320   20.5490 C   0  0  0  0  0  0  0  0  0  0  0  0
  -24.5970  -13.0430   21.0230 C   0  0  0  0  0  0  0  0  0  0  0  0
  -24.9680  -11.6970   20.7210 C   0  0  0  0  0  0  0  0  0  0  0  0
  -26.5310  -12.9680   19.9820 N   0  0  0  0  0  0  0  0  0  0  0  0
  -26.1660  -11.6690   20.1450 N   0  0  0  0  0  0  0  0  0  0  0  0
  -24.2250  -10.4410   20.8930 C   0  0  0  0  0  0  0  0  0  0  0  0
  -24.7110   -9.4000   21.7110 C   0  0  0  0  0  3  0  0  0  0  0  0
  -23.9660   -8.2100   21.8790 C   0  0  0  0  0  3  0  0  0  0  0  0
  -22.7190   -8.0590   21.2290 C   0  0  0  0  0  0  0  0  0  0  0  0
  -22.2480   -9.0910   20.3980 C   0  0  0  0  0  3  0  0  0  0  0  0
  -22.9930  -10.2720   20.2290 C   0  0  0  0  0  3  0  0  0  0  0  0
  -21.9390   -6.9320   21.3100 O   0  0  0  0  0  0  0  0  0  0  0  0
  -21.8950   -6.1660   22.4470 C   0  0  0  0  0  0  0  0  0  0  0  0
  -21.5240   -6.7110   23.6970 C   0  0  0  0  0  3  0  0  0  0  0  0
  -21.4270   -5.8750   24.8280 C   0  0  0  0  0  3  0  0  0  0  0  0
  -21.6890   -4.4970   24.7110 C   0  0  0  0  0  0  0  0  0  0  0  0
  -22.0510   -3.9520   23.4670 C   0  0  0  0  0  3  0  0  0  0  0  0
  -22.1530   -4.7850   22.3370 C   0  0  0  0  0  0  0  0  0  0  0  0
  -22.4820   -4.2500   21.1370 F   0  0  0  0  0  0  0  0  0  0  0  0
  -21.5850   -3.6920   25.7940 F   0  0  0  0  0  0  0  0  0  0  0  0
  -23.3080  -13.5220   21.6260 C   0  0  0  0  0  0  0  0  0  0  0  0
  -22.7380  -12.7600   22.5510 N   0  0  0  0  0  0  0  0  0  0  0  0
  -22.8170  -14.6030   21.3060 O   0  0  0  0  0  0  0  0  0  0  0  0
  -23.1550  -11.8860   22.8370 H   0  0  0  0  0  0  0  0  0  0  0  0
  -21.8730  -13.0620   22.9780 H   0  0  0  0  0  0  0  0  0  0  0  0
  -25.8140  -15.2110   20.5380 N   0  0  0  0  0  0  0  0  0  0  0  0
  -25.0310  -15.8080   20.7850 H   0  0  0  0  0  0  0  0  0  0  0  0
  -26.4260  -15.6450   19.8600 H   0  0  0  0  0  0  0  0  0  0  0  0
  -28.5280  -16.3920   22.6180 N   0  0  0  0  0  4  0  0  0  0  0  0
  -28.6000  -16.4230   23.6230 H   0  0  0  0  0  0  0  0  0  0  0  0
  -28.6730  -15.4410   22.3300 H   0  0  0  0  0  0  0  0  0  0  0  0
  -27.5860  -16.6500   22.3860 H   0  0  0  0  0  0  0  0  0  0  0  0
  -29.4420  -21.6330   19.7290 C   0  0  0  0  0  3  0  0  0  0  0  0
  -28.7490  -23.0780   20.3560 C   0  0  0  0  0  3  0  0  0  0  0  0
  -28.5540  -24.5830   19.5650 C   0  0  0  0  0  2  0  0  0  0  0  0
  -28.3980  -26.0510   20.1200 O   0  0  0  0  0  0  0  0  0  0  0  0
  -24.6860  -31.7090   22.9960 C   0  0  0  0  0  0  0  0  0  0  0  0
  -27.3060  -26.9950   19.9810 C   0  0  0  0  0  0  0  0  0  0  0  0
  -23.4890  -30.2860   21.3780 C   0  0  0  0  0  3  0  0  0  0  0  0
  -24.9450  -28.7140   19.9380 C   0  0  0  0  0  0  0  0  0  0  0  0
  -26.0390  -30.5740   21.1900 C   0  0  0  0  0  2  0  0  0  0  0  0
  -26.1200  -29.1810   20.5400 C   0  0  0  0  0  0  0  0  0  0  0  0
  -27.2970  -28.3400   20.5410 C   0  0  0  0  0  3  0  0  0  0  0  0
  -26.1070  -26.6280   19.3320 C   0  0  0  0  0  3  0  0  0  0  0  0
  -24.9520  -27.4510   19.3180 C   0  0  0  0  0  3  0  0  0  0  0  0
  -23.7020  -29.5980   20.0000 C   0  0  0  0  0  2  0  0  0  0  0  0
  -24.7590  -30.8800   21.9090 N   0  0  0  0  0  0  0  0  0  0  0  0
  -23.6020  -31.9850   23.5320 O   0  0  0  0  0  0  0  0  0  0  0  0
  -22.8270  -29.2830   22.3580 C   0  0  0  0  0  0  0  0  0  0  0  0
  -21.5000  -29.0940   22.2470 N   0  0  0  0  0  0  0  0  0  0  0  0
  -23.5150  -28.6720   23.1800 O   0  0  0  0  0  0  0  0  0  0  0  0
  -21.0000  -29.6360   21.5560 H   0  0  0  0  0  0  0  0  0  0  0  0
  -18.1390  -27.8550   22.7910 C   0  0  0  0  0  0  0  0  0  0  0  0
  -20.6980  -28.1530   23.0320 C   0  0  0  0  0  3  0  0  0  0  0  0
  -20.8130  -26.7200   22.4630 C   0  0  0  0  0  2  0  0  0  0  0  0
  -19.7060  -26.3750   21.4610 C   0  0  0  0  0  2  0  0  0  0  0  0
  -18.3270  -26.5070   22.1180 C   0  0  0  0  0  2  0  0  0  0  0  0
  -19.2520  -28.6370   23.2020 C   0  0  0  0  0  0  0  0  0  0  0  0
  -19.0210  -29.8970   23.7960 C   0  0  0  0  0  3  0  0  0  0  0  0
  -17.7090  -30.3780   23.9780 C   0  0  0  0  0  3  0  0  0  0  0  0
  -16.6130  -29.5970   23.5780 C   0  0  0  0  0  3  0  0  0  0  0  0
  -16.8280  -28.3360   22.9900 C   0  0  0  0  0  3  0  0  0  0  0  0
  -25.9640  -32.3640   23.6090 C   0  0  0  0  0  3  0  0  0  0  0  0
  -25.5980  -33.7200   24.0550 N   0  0  0  0  0  0  0  0  0  0  0  0
  -25.8260  -34.8420   23.3620 C   0  0  0  0  0  0  0  0  0  0  0  0
  -26.4300  -34.8540   22.2870 O   0  0  0  0  0  0  0  0  0  0  0  0
  -25.0590  -33.7830   24.9080 H   0  0  0  0  0  0  0  0  0  0  0  0
  -23.9870  -36.5610   23.2580 C   0  0  0  0  0  1  0  0  0  0  0  0
  -25.3010  -36.1690   23.9530 C   0  0  0  0  0  3  0  0  0  0  0  0
  -27.4390  -37.1150   24.7070 C   0  0  0  0  0  1  0  0  0  0  0  0
  -26.2690  -37.2840   23.8490 N   0  0  0  0  0  0  0  0  0  0  0  0
  -25.8250  -38.1680   24.0840 H   0  0  0  0  0  0  0  0  0  0  0  0
  -26.5660  -31.5370   24.8120 C   0  0  1  0  0  0  0  0  0  0  0  0
  -25.5230  -31.1520   25.8890 C   0  0  0  0  0  1  0  0  0  0  0  0
  -27.2230  -30.2340   24.3110 C   0  0  0  0  0  1  0  0  0  0  0  0
  -27.6840  -32.3560   25.4990 C   0  0  0  0  0  1  0  0  0  0  0  0
  1  3  1  0
  2  1  1  0
  4  1  1  0
  5 17  1  0
  6 11  1  0
  7  8  1  0
  7  6  1  0
  9  8  1  0
  9 21  1  0
  9 10  1  0
 11  5  1  0
 11 10  1  0
 12  5  2  0
 14 13  1  0
 15 13  1  0
 15 46  1  0
 16  4  1  0
 16 15  1  0
 17 16  1  0
 17 14  1  0
 18 19  2  0
 19 38  1  0
 20 23  1  0
 20 19  1  0
 21 22  1  0
 21 18  1  0
 22 20  2  0
 23 24  1  0
 24 25  2  0
 26 29  1  0
 26 25  1  0
 27 26  2  0
 28 27  1  0
 28 23  2  0
 29 30  1  0
 30 31  1  0
 31 32  2  0
 33 32  1  0
 33 37  1  0
 34 33  2  0
 35 30  2  0
 35 34  1  0
 36 35  1  0
 38 39  1  0
 39 41  1  0
 39 42  1  0
 40 38  2  0
 43 18  1  0
 43 44  1  0
 45 43  1  0
 46 47  1  0
 48 46  1  0
 49 46  1  0
 50 51  2  0
 50  1  1  0
 52 53  1  0
 52 51  1  0
 54 65  2  0
 55 53  1  0
 55 60  1  0
 56 64  1  0
 56 66  1  0
 57 63  1  0
 57 59  1  0
 58 64  1  0
 59 60  2  0
 59 58  1  0
 61 55  2  0
 62 61  1  0
 62 57  2  0
 63 56  1  0
 64 54  1  0
 66 68  2  0
 67 66  1  0
 69 67  1  0
 70 79  2  0
 70 75  1  0
 71 67  1  0
 71 75  1  0
 72 71  1  0
 73 74  1  0
 73 72  1  0
 74 70  1  0
 75 76  2  0
 76 77  1  0
 78 77  2  0
 79 78  1  0
 80 54  1  0
 80 81  1  0
 80 90  1  0
 81 84  1  0
 82 86  1  0
 82 81  1  0
 83 82  2  0
 86 85  1  0
 88 86  1  0
 88 89  1  0
 88 87  1  0
 90 93  1  1
 90 91  1  0
 92 90  1  0
M  ISO  4   5 100  17 100  52 101  53 101
M  END
>  <TORSDO>  (56) 
F 21

>  <SCORE>  (56) 
-9.106

>  <name>  (56) 
55

>  <ligand_id>  (56) 
55

>  <original_smiles>  (56) 
[H]c1c([H])c([H])c2c(c1[H])C([H])([H])C([H])([H])C([H])([H])C2([H])N([H])C(=O)C1([H])N(C(=O)C([H])(N([H])C(=O)C([H])(N([H])C([H])([H])[H])C([H])([H])[H])C(C([H])([H])[H])(C([H])([H])[H])C([H])([H])[H])C([H])([H])c2c([H])c(OC([H])([H])C([H])([H])C([H])([H])[N+]([H])([H])C([H])([H])C3([H])N(C(=O)N4C([H])([H])C([H])([H])C([H])([H])C([H])(n5nc(-c6c([H])c([H])c(Oc7c([H])c([H])c(F)c([H])c7F)c([H])c6[H])c(C(=O)N([H])[H])c5N([H])[H])C4([H])[H])C([H])([H])C([H])([H])C3([H])[N+]([H])([H])[H])c([H])c([H])c2C1([H])[H]

>  <smiles>  (56) 
[H]c1c([H])c([H])c2c(c1[H])C([H])([H])C([H])([H])C([H])([H])C2([H])N([H])C(=O)C1([H])N(C(=O)C([H])(N([H])C(=O)C([H])(N([H])C([H])([H])[H])C([H])([H])[H])C(C([H])([H])[H])(C([H])([H])[H])C([H])([H])[H])C([H])([H])c2c([H])c(OC([H])([H])C([H])([H])C([H])([H])[N+]([H])([H])C([H])([H])C3([H])N(C(=O)N4C([H])([H])C([H])([H])C([H])([H])C([H])(n5nc(-c6c([H])c([H])c(Oc7c([H])c([H])c(F)c([H])c7F)c([H])c6[H])c(C(=O)N([H])[H])c5N([H])[H])C4([H])[H])C([H])([H])C([H])([H])C3([H])[N+]([H])([H])[H])c([H])c([H])c2C1([H])[H]

$$$$
56:0:0
     RDKit          3D

 94102  0  0  1  0  0  0  0  0999 V2000
  -29.4680  -24.6790   20.7920 C   0  0  0  0  0  2  0  0  0  0  0  0
  -28.6120  -24.9360   18.4380 C   0  0  0  0  0  2  0  0  0  0  0  0
  -30.1160  -23.4090   20.1890 C   0  0  0  0  0  2  0  0  0  0  0  0
  -28.6260  -23.3980   18.2050 C   0  0  0  0  0  2  0  0  0  0  0  0
  -28.3710  -25.3190   19.9120 C   0  0  0  0  0  3  0  0  0  0  0  0
  -29.1830  -22.6120   19.3480 N   0  0  1  0  0  4  0  0  0  0  0  0
  -28.3850  -22.3860   19.9250 H   0  0  0  0  0  0  0  0  0  0  0  0
  -28.3810  -26.7450   20.1450 O   0  0  0  0  0  0  0  0  0  0  0  0
  -24.5930  -31.9320   23.2830 C   0  0  0  0  0  0  0  0  0  0  0  0
  -27.1910  -27.4600   20.1650 C   0  0  0  0  0  0  0  0  0  0  0  0
  -23.3690  -30.5380   21.6470 C   0  0  0  0  0  3  0  0  0  0  0  0
  -24.8030  -28.9900   20.2090 C   0  0  0  0  0  0  0  0  0  0  0  0
  -25.8940  -30.8790   21.4290 C   0  0  0  0  0  2  0  0  0  0  0  0
  -25.9700  -29.5040   20.7910 C   0  0  0  0  0  0  0  0  0  0  0  0
  -27.1620  -28.7420   20.7660 C   0  0  0  0  0  3  0  0  0  0  0  0
  -26.0020  -26.9640   19.5840 C   0  0  0  0  0  3  0  0  0  0  0  0
  -24.8150  -27.7210   19.6050 C   0  0  0  0  0  3  0  0  0  0  0  0
  -23.5650  -29.8600   20.2640 C   0  0  0  0  0  2  0  0  0  0  0  0
  -24.6380  -31.1330   22.1800 N   0  0  0  0  0  0  0  0  0  0  0  0
  -23.5160  -32.2110   23.8290 O   0  0  0  0  0  0  0  0  0  0  0  0
  -22.7190  -29.5180   22.6120 C   0  0  0  0  0  0  0  0  0  0  0  0
  -21.3940  -29.3370   22.4850 N   0  0  0  0  0  0  0  0  0  0  0  0
  -23.4020  -28.8910   23.4240 O   0  0  0  0  0  0  0  0  0  0  0  0
  -20.8990  -29.8990   21.8060 H   0  0  0  0  0  0  0  0  0  0  0  0
  -18.0240  -28.1200   22.9680 C   0  0  0  0  0  0  0  0  0  0  0  0
  -20.5790  -28.3980   23.2590 C   0  0  0  0  0  3  0  0  0  0  0  0
  -20.6980  -26.9650   22.6960 C   0  0  0  0  0  2  0  0  0  0  0  0
  -19.6060  -26.6240   21.6780 C   0  0  0  0  0  2  0  0  0  0  0  0
  -18.2160  -26.7670   22.3050 C   0  0  0  0  0  2  0  0  0  0  0  0
  -19.1350  -28.8930   23.4000 C   0  0  0  0  0  0  0  0  0  0  0  0
  -18.9030  -30.1620   23.9740 C   0  0  0  0  0  3  0  0  0  0  0  0
  -17.5930  -30.6540   24.1290 C   0  0  0  0  0  3  0  0  0  0  0  0
  -16.4970  -29.8810   23.7110 C   0  0  0  0  0  3  0  0  0  0  0  0
  -16.7140  -28.6160   23.1340 C   0  0  0  0  0  3  0  0  0  0  0  0
  -25.8840  -32.5560   23.8960 C   0  0  0  0  0  3  0  0  0  0  0  0
  -25.5870  -33.9550   24.2330 N   0  0  0  0  0  0  0  0  0  0  0  0
  -25.9090  -35.0040   23.4660 C   0  0  0  0  0  0  0  0  0  0  0  0
  -26.5550  -34.8950   22.4200 O   0  0  0  0  0  0  0  0  0  0  0  0
  -25.0120  -34.1140   25.0450 H   0  0  0  0  0  0  0  0  0  0  0  0
  -24.1650  -36.7950   23.1550 C   0  0  0  0  0  1  0  0  0  0  0  0
  -25.4310  -36.3950   23.9270 C   0  0  0  0  0  3  0  0  0  0  0  0
  -27.5880  -37.2830   24.6840 C   0  0  0  0  0  1  0  0  0  0  0  0
  -26.4570  -37.4480   23.7770 N   0  0  0  0  0  0  0  0  0  0  0  0
  -26.0550  -38.3680   23.9340 H   0  0  0  0  0  0  0  0  0  0  0  0
  -26.4040  -31.7810   25.1680 C   0  0  1  0  0  0  0  0  0  0  0  0
  -25.3160  -31.5490   26.2440 C   0  0  0  0  0  1  0  0  0  0  0  0
  -26.9830  -30.4040   24.7670 C   0  0  0  0  0  1  0  0  0  0  0  0
  -27.5660  -32.5690   25.8200 C   0  0  0  0  0  1  0  0  0  0  0  0
  -29.7630  -21.2960   18.9520 C   0  0  0  0  0  2  0  0  0  0  0  0
  -29.5060  -20.2150   20.0270 C   0  0  0  0  0  2  0  0  0  0  0  0
  -30.5000  -19.0380   19.9500 C   0  0  0  0  0  2  0  0  0  0  0  0
  -30.3570  -18.0900   21.0840 N   0  0  0  0  0  4  0  0  0  0  0  0
  -29.5850  -17.4650   20.9100 H   0  0  0  0  0  0  0  0  0  0  0  0
  -30.1450  -18.6000   21.9280 H   0  0  0  0  0  0  0  0  0  0  0  0
  -31.5750  -17.2950   21.3480 C   0  0  0  0  0  2  0  0  0  0  0  0
  -31.3000  -15.9690   22.0870 C   0  0  0  0  0  2  0  0  0  0  0  0
  -30.7440  -14.3580   20.2610 C   0  0  0  0  0  0  0  0  0  0  0  0
  -30.2910  -12.3350   18.9210 C   0  0  0  0  0  2  0  0  0  0  0  0
  -29.2930  -12.5780   17.7760 C   0  0  0  0  0  2  0  0  0  0  0  0
  -27.8430  -12.4420   18.2740 C   0  0  0  0  0  2  0  0  0  0  0  0
  -27.5780  -13.2620   19.5640 C   0  0  0  0  0  3  0  0  0  0  0  0
  -28.6650  -12.9740   20.6200 C   0  0  0  0  0  2  0  0  0  0  0  0
  -29.9830  -13.2610   20.0210 N   0  0  0  0  0  0  0  0  0  0  0  0
  -31.7160  -14.6780   19.5730 O   0  0  0  0  0  0  0  0  0  0  0  0
  -30.4240  -15.0330   21.3740 N   0  0  0  0  0  0  0  0  0  0  0  0
  -29.6330  -14.6660   21.8840 H   0  0  0  0  0  0  0  0  0  0  0  0
  -25.2080  -13.8980   20.3580 C   0  0  0  0  0  0  0  0  0  0  0  0
  -24.1480  -13.1370   20.7670 C   0  0  0  0  0  0  0  0  0  0  0  0
  -24.5950  -11.7800   20.7220 C   0  0  0  0  0  0  0  0  0  0  0  0
  -26.2360  -13.0060   20.0890 N   0  0  0  0  0  0  0  0  0  0  0  0
  -25.8730  -11.7280   20.3660 N   0  0  0  0  0  0  0  0  0  0  0  0
  -23.8640  -10.5250   20.9420 C   0  0  0  0  0  0  0  0  0  0  0  0
  -24.3270   -9.5550   21.8590 C   0  0  0  0  0  3  0  0  0  0  0  0
  -23.5990   -8.3640   22.0670 C   0  0  0  0  0  3  0  0  0  0  0  0
  -22.3970   -8.1340   21.3560 C   0  0  0  0  0  0  0  0  0  0  0  0
  -21.9520   -9.0930   20.4280 C   0  0  0  0  0  3  0  0  0  0  0  0
  -22.6800  -10.2770   20.2200 C   0  0  0  0  0  3  0  0  0  0  0  0
  -21.6380   -6.9950   21.4740 O   0  0  0  0  0  0  0  0  0  0  0  0
  -21.6310   -6.2480   22.6260 C   0  0  0  0  0  0  0  0  0  0  0  0
  -21.2850   -6.8080   23.8750 C   0  0  0  0  0  3  0  0  0  0  0  0
  -21.2220   -5.9900   25.0200 C   0  0  0  0  0  3  0  0  0  0  0  0
  -21.5020   -4.6130   24.9190 C   0  0  0  0  0  0  0  0  0  0  0  0
  -21.8420   -4.0520   23.6750 C   0  0  0  0  0  3  0  0  0  0  0  0
  -21.9050   -4.8680   22.5310 C   0  0  0  0  0  0  0  0  0  0  0  0
  -22.2130   -4.3210   21.3310 F   0  0  0  0  0  0  0  0  0  0  0  0
  -21.4370   -3.8250   26.0160 F   0  0  0  0  0  0  0  0  0  0  0  0
  -22.7660  -13.6270   21.0920 C   0  0  0  0  0  0  0  0  0  0  0  0
  -22.0630  -12.9390   21.9830 N   0  0  0  0  0  0  0  0  0  0  0  0
  -22.3190  -14.6560   20.5870 O   0  0  0  0  0  0  0  0  0  0  0  0
  -22.4380  -12.1080   22.4150 H   0  0  0  0  0  0  0  0  0  0  0  0
  -21.1370  -13.2470   22.2390 H   0  0  0  0  0  0  0  0  0  0  0  0
  -25.3800  -15.2670   20.1690 N   0  0  0  0  0  0  0  0  0  0  0  0
  -24.6240  -15.9270   20.3040 H   0  0  0  0  0  0  0  0  0  0  0  0
  -26.2160  -15.6910   19.7860 H   0  0  0  0  0  0  0  0  0  0  0  0
  2  5  1  0
  3  1  1  0
  4  2  1  0
  4  6  1  0
  5  8  1  0
  5  1  1  0
  6  7  1  1
  6  3  1  0
  8 10  1  0
  9 20  2  0
 10 15  1  0
 11 19  1  0
 11 21  1  0
 12 18  1  0
 12 14  1  0
 13 19  1  0
 14 13  1  0
 15 14  2  0
 16 17  1  0
 16 10  2  0
 17 12  2  0
 18 11  1  0
 19  9  1  0
 21 23  2  0
 22 21  1  0
 24 22  1  0
 25 34  2  0
 25 30  1  0
 26 22  1  0
 26 30  1  0
 27 26  1  0
 28 29  1  0
 28 27  1  0
 29 25  1  0
 30 31  2  0
 31 32  1  0
 33 32  2  0
 34 33  1  0
 35  9  1  0
 35 36  1  0
 35 45  1  0
 36 39  1  0
 37 41  1  0
 37 36  1  0
 38 37  2  0
 41 40  1  0
 43 41  1  0
 43 44  1  0
 43 42  1  0
 45 48  1  1
 45 46  1  0
 47 45  1  0
 49  6  1  0
 49 50  1  0
 51 50  1  0
 51 52  1  0
 52 55  1  0
 52 54  1  0
 53 52  1  0
 55 56  1  0
 57 65  1  0
 58 63  1  0
 59 60  1  0
 59 58  1  0
 61 60  1  0
 61 70  1  0
 61 62  1  0
 63 57  1  0
 63 62  1  0
 64 57  2  0
 65 66  1  0
 65 56  1  0
 67 68  2  0
 68 87  1  0
 69 68  1  0
 69 72  1  0
 70 67  1  0
 70 71  1  0
 71 69  2  0
 72 73  1  0
 73 74  2  0
 75 78  1  0
 75 74  1  0
 76 75  2  0
 77 76  1  0
 77 72  2  0
 78 79  1  0
 79 80  1  0
 80 81  2  0
 82 81  1  0
 82 86  1  0
 83 82  2  0
 84 79  2  0
 84 83  1  0
 85 84  1  0
 87 88  1  0
 88 91  1  0
 88 90  1  0
 89 87  2  0
 92 93  1  0
 92 67  1  0
 94 92  1  0
M  ISO  4   5 101   8 101  57 100  65 100
M  END
>  <TORSDO>  (57) 
F 22

>  <SCORE>  (57) 
-12.690

>  <name>  (57) 
56

>  <ligand_id>  (57) 
56

>  <original_smiles>  (57) 
[H]c1c([H])c([H])c2c(c1[H])C([H])([H])C([H])([H])C([H])([H])C2([H])N([H])C(=O)C1([H])N(C(=O)C([H])(N([H])C(=O)C([H])(N([H])C([H])([H])[H])C([H])([H])[H])C(C([H])([H])[H])(C([H])([H])[H])C([H])([H])[H])C([H])([H])c2c([H])c(OC3([H])C([H])([H])C([H])([H])[N+]([H])(C([H])([H])C([H])([H])C([H])([H])[N+]([H])([H])C([H])([H])C([H])([H])N([H])C(=O)N4C([H])([H])C([H])([H])C([H])([H])C([H])(n5nc(-c6c([H])c([H])c(Oc7c([H])c([H])c(F)c([H])c7F)c([H])c6[H])c(C(=O)N([H])[H])c5N([H])[H])C4([H])[H])C([H])([H])C3([H])[H])c([H])c([H])c2C1([H])[H]

>  <smiles>  (57) 
[H]c1c([H])c([H])c2c(c1[H])C([H])([H])C([H])([H])C([H])([H])C2([H])N([H])C(=O)C1([H])N(C(=O)C([H])(N([H])C(=O)C([H])(N([H])C([H])([H])[H])C([H])([H])[H])C(C([H])([H])[H])(C([H])([H])[H])C([H])([H])[H])C([H])([H])c2c([H])c(OC3([H])C([H])([H])C([H])([H])[N+]([H])(C([H])([H])C([H])([H])C([H])([H])[N+]([H])([H])C([H])([H])C([H])([H])N([H])C(=O)N4C([H])([H])C([H])([H])C([H])([H])C([H])(n5nc(-c6c([H])c([H])c(Oc7c([H])c([H])c(F)c([H])c7F)c([H])c6[H])c(C(=O)N([H])[H])c5N([H])[H])C4([H])[H])C([H])([H])C3([H])[H])c([H])c([H])c2C1([H])[H]

$$$$
57:0:0
     RDKit          3D

 92100  0  0  1  0  0  0  0  0999 V2000
  -31.0510  -20.7160   21.3000 C   0  0  0  0  0  0  0  0  0  0  0  0
  -32.0570  -20.6350   22.4550 C   0  0  0  0  0  2  0  0  0  0  0  0
  -31.9380  -21.7850   23.4630 C   0  0  0  0  0  2  0  0  0  0  0  0
  -31.6300  -23.0890   22.7360 C   0  0  0  0  0  2  0  0  0  0  0  0
  -30.3350  -22.9320   21.9150 C   0  0  0  0  0  3  0  0  0  0  0  0
  -30.3550  -21.7610   21.0270 N   0  0  0  0  0  0  0  0  0  0  0  0
  -30.9790  -19.4710   20.4040 C   0  0  0  0  0  2  0  0  0  0  0  0
  -31.0730  -18.1240   21.1640 C   0  0  0  0  0  2  0  0  0  0  0  0
  -30.6080  -16.8820   20.3710 C   0  0  0  0  0  2  0  0  0  0  0  0
  -30.8820  -15.5860   21.1670 C   0  0  0  0  0  2  0  0  0  0  0  0
  -30.5960  -13.5320   19.7630 C   0  0  0  0  0  0  0  0  0  0  0  0
  -30.0930  -11.4290   18.5670 C   0  0  0  0  0  2  0  0  0  0  0  0
  -29.0090  -11.6510   17.4950 C   0  0  0  0  0  2  0  0  0  0  0  0
  -27.6000  -11.5190   18.1050 C   0  0  0  0  0  2  0  0  0  0  0  0
  -27.4300  -12.3540   19.4010 C   0  0  0  0  0  3  0  0  0  0  0  0
  -28.6050  -12.1000   20.3690 C   0  0  0  0  0  2  0  0  0  0  0  0
  -29.8600  -12.3940   19.6520 N   0  0  0  0  0  0  0  0  0  0  0  0
  -31.5900  -13.7640   19.0720 O   0  0  0  0  0  0  0  0  0  0  0  0
  -30.1610  -14.4080   20.6810 N   0  0  0  0  0  0  0  0  0  0  0  0
  -29.3190  -14.1490   21.1740 H   0  0  0  0  0  0  0  0  0  0  0  0
  -25.1460  -12.9870   20.4100 C   0  0  0  0  0  0  0  0  0  0  0  0
  -24.1190  -12.2240   20.8960 C   0  0  0  0  0  0  0  0  0  0  0  0
  -24.5490  -10.8670   20.7870 C   0  0  0  0  0  0  0  0  0  0  0  0
  -26.1410  -12.0950   20.0380 N   0  0  0  0  0  0  0  0  0  0  0  0
  -25.7900  -10.8140   20.3210 N   0  0  0  0  0  0  0  0  0  0  0  0
  -23.8330   -9.6110   21.0460 C   0  0  0  0  0  0  0  0  0  0  0  0
  -24.2910   -8.6820   22.0050 C   0  0  0  0  0  3  0  0  0  0  0  0
  -23.5730   -7.4920   22.2490 C   0  0  0  0  0  3  0  0  0  0  0  0
  -22.3810   -7.2230   21.5350 C   0  0  0  0  0  0  0  0  0  0  0  0
  -21.9410   -8.1410   20.5650 C   0  0  0  0  0  3  0  0  0  0  0  0
  -22.6610   -9.3220   20.3190 C   0  0  0  0  0  3  0  0  0  0  0  0
  -21.6330   -6.0800   21.6860 O   0  0  0  0  0  0  0  0  0  0  0  0
  -21.5420   -5.4330   22.8920 C   0  0  0  0  0  0  0  0  0  0  0  0
  -20.9950   -6.0590   24.0330 C   0  0  0  0  0  3  0  0  0  0  0  0
  -20.8570   -5.3340   25.2340 C   0  0  0  0  0  3  0  0  0  0  0  0
  -21.2550   -3.9850   25.2940 C   0  0  0  0  0  0  0  0  0  0  0  0
  -21.7950   -3.3590   24.1560 C   0  0  0  0  0  3  0  0  0  0  0  0
  -21.9360   -4.0810   22.9570 C   0  0  0  0  0  0  0  0  0  0  0  0
  -22.4360   -3.4680   21.8580 F   0  0  0  0  0  0  0  0  0  0  0  0
  -21.1160   -3.2870   26.4450 F   0  0  0  0  0  0  0  0  0  0  0  0
  -22.7740  -12.7160   21.3500 C   0  0  0  0  0  0  0  0  0  0  0  0
  -22.1470  -12.0150   22.2890 N   0  0  0  0  0  0  0  0  0  0  0  0
  -22.2920  -13.7570   20.9050 O   0  0  0  0  0  0  0  0  0  0  0  0
  -22.5530  -11.1750   22.6720 H   0  0  0  0  0  0  0  0  0  0  0  0
  -21.2500  -12.3270   22.6330 H   0  0  0  0  0  0  0  0  0  0  0  0
  -25.3110  -14.3580   20.2370 N   0  0  0  0  0  0  0  0  0  0  0  0
  -24.5790  -15.0260   20.4550 H   0  0  0  0  0  0  0  0  0  0  0  0
  -26.1300  -14.7880   19.8240 H   0  0  0  0  0  0  0  0  0  0  0  0
  -30.0800  -24.2350   21.1220 C   0  0  0  0  0  2  0  0  0  0  0  0
  -28.6410  -24.4480   20.6220 C   0  0  0  0  0  2  0  0  0  0  0  0
  -28.3510  -25.9160   20.2500 C   0  0  0  0  0  2  0  0  0  0  0  0
  -27.2060  -25.9300   19.4040 O   0  0  0  0  0  0  0  0  0  0  0  0
  -24.3230  -31.3750   23.0740 C   0  0  0  0  0  0  0  0  0  0  0  0
  -26.1950  -26.8380   19.6150 C   0  0  0  0  0  0  0  0  0  0  0  0
  -22.8380  -30.2060   21.4750 C   0  0  0  0  0  3  0  0  0  0  0  0
  -23.9910  -28.5860   19.8810 C   0  0  0  0  0  0  0  0  0  0  0  0
  -25.3640  -30.2900   21.0890 C   0  0  0  0  0  2  0  0  0  0  0  0
  -25.2420  -28.9490   20.3980 C   0  0  0  0  0  0  0  0  0  0  0  0
  -26.3500  -28.0820   20.2690 C   0  0  0  0  0  3  0  0  0  0  0  0
  -24.9330  -26.4900   19.0930 C   0  0  0  0  0  3  0  0  0  0  0  0
  -23.8290  -27.3520   19.2290 C   0  0  0  0  0  3  0  0  0  0  0  0
  -22.8620  -29.5760   20.0570 C   0  0  0  0  0  2  0  0  0  0  0  0
  -24.1980  -30.6330   21.9370 N   0  0  0  0  0  0  0  0  0  0  0  0
  -23.3260  -31.7420   23.7110 O   0  0  0  0  0  0  0  0  0  0  0  0
  -22.1440  -29.2190   22.4410 C   0  0  0  0  0  0  0  0  0  0  0  0
  -20.8060  -29.1460   22.3620 N   0  0  0  0  0  0  0  0  0  0  0  0
  -22.8060  -28.5240   23.2160 O   0  0  0  0  0  0  0  0  0  0  0  0
  -20.3380  -29.7550   21.7050 H   0  0  0  0  0  0  0  0  0  0  0  0
  -17.3720  -28.1750   22.9210 C   0  0  0  0  0  0  0  0  0  0  0  0
  -19.9450  -28.2610   23.1450 C   0  0  0  0  0  3  0  0  0  0  0  0
  -19.9420  -26.8290   22.5640 C   0  0  0  0  0  2  0  0  0  0  0  0
  -18.8020  -26.5840   21.5700 C   0  0  0  0  0  2  0  0  0  0  0  0
  -17.4460  -26.8170   22.2400 C   0  0  0  0  0  2  0  0  0  0  0  0
  -18.5460  -28.8580   23.3320 C   0  0  0  0  0  0  0  0  0  0  0  0
  -18.4230  -30.1330   23.9280 C   0  0  0  0  0  3  0  0  0  0  0  0
  -17.1580  -30.7190   24.1180 C   0  0  0  0  0  3  0  0  0  0  0  0
  -15.9980  -30.0310   23.7230 C   0  0  0  0  0  3  0  0  0  0  0  0
  -16.1060  -28.7600   23.1310 C   0  0  0  0  0  3  0  0  0  0  0  0
  -25.7190  -31.8190   23.6130 C   0  0  0  0  0  3  0  0  0  0  0  0
  -25.5930  -33.2070   24.0750 N   0  0  0  0  0  0  0  0  0  0  0  0
  -26.0190  -34.2760   23.3920 C   0  0  0  0  0  0  0  0  0  0  0  0
  -26.6330  -34.1900   22.3240 O   0  0  0  0  0  0  0  0  0  0  0  0
  -25.0530  -33.3560   24.9150 H   0  0  0  0  0  0  0  0  0  0  0  0
  -24.5110  -36.2840   23.2620 C   0  0  0  0  0  1  0  0  0  0  0  0
  -25.7170  -35.6650   23.9870 C   0  0  0  0  0  3  0  0  0  0  0  0
  -27.9610  -36.2190   24.8160 C   0  0  0  0  0  1  0  0  0  0  0  0
  -26.8660  -36.5940   23.9240 N   0  0  0  0  0  0  0  0  0  0  0  0
  -26.5780  -37.5400   24.1580 H   0  0  0  0  0  0  0  0  0  0  0  0
  -26.2650  -30.8900   24.7650 C   0  0  1  0  0  0  0  0  0  0  0  0
  -25.2570  -30.6690   25.9160 C   0  0  0  0  0  1  0  0  0  0  0  0
  -26.6550  -29.5010   24.2060 C   0  0  0  0  0  1  0  0  0  0  0  0
  -27.5520  -31.5030   25.3650 C   0  0  0  0  0  1  0  0  0  0  0  0
  1  2  1  0
  2  3  1  0
  4  3  1  0
  5 49  1  0
  5  4  1  0
  6  1  2  0
  6  5  1  0
  7  8  1  0
  7  1  1  0
  9  8  1  0
  9 10  1  0
 11 19  1  0
 12 17  1  0
 13 14  1  0
 13 12  1  0
 15 14  1  0
 15 24  1  0
 15 16  1  0
 17 11  1  0
 17 16  1  0
 18 11  2  0
 19 10  1  0
 19 20  1  0
 21 22  2  0
 22 41  1  0
 23 22  1  0
 23 26  1  0
 24 25  1  0
 24 21  1  0
 25 23  2  0
 26 27  1  0
 27 28  2  0
 29 32  1  0
 29 28  1  0
 30 29  2  0
 31 30  1  0
 31 26  2  0
 32 33  1  0
 33 38  2  0
 33 34  1  0
 34 35  2  0
 35 36  1  0
 36 40  1  0
 37 36  2  0
 38 37  1  0
 39 38  1  0
 41 42  1  0
 42 45  1  0
 42 44  1  0
 43 41  2  0
 46 21  1  0
 46 47  1  0
 48 46  1  0
 50 49  1  0
 51 50  1  0
 52 54  1  0
 52 51  1  0
 53 64  2  0
 54 59  1  0
 55 63  1  0
 55 65  1  0
 56 62  1  0
 56 58  1  0
 57 63  1  0
 58 57  1  0
 59 58  2  0
 60 61  1  0
 60 54  2  0
 61 56  2  0
 62 55  1  0
 63 53  1  0
 65 67  2  0
 66 65  1  0
 68 66  1  0
 69 78  2  0
 69 74  1  0
 70 66  1  0
 70 74  1  0
 71 70  1  0
 72 73  1  0
 72 71  1  0
 73 69  1  0
 74 75  2  0
 75 76  1  0
 77 76  2  0
 78 77  1  0
 79 53  1  0
 79 80  1  0
 79 89  1  0
 80 83  1  0
 81 85  1  0
 81 80  1  0
 82 81  2  0
 85 84  1  0
 87 85  1  0
 87 88  1  0
 87 86  1  0
 89 92  1  1
 89 90  1  0
 91 89  1  0
M  ISO  4  11 100  19 100  51 101  52 101
M  END
>  <TORSDO>  (58) 
F 23

>  <SCORE>  (58) 
-7.794

>  <name>  (58) 
57

>  <ligand_id>  (58) 
57

>  <original_smiles>  (58) 
[H]c1c([H])c([H])c2c(c1[H])C([H])([H])C([H])([H])C([H])([H])C2([H])N([H])C(=O)C1([H])N(C(=O)C([H])(N([H])C(=O)C([H])(N([H])C([H])([H])[H])C([H])([H])[H])C(C([H])([H])[H])(C([H])([H])[H])C([H])([H])[H])C([H])([H])c2c([H])c(OC([H])([H])C([H])([H])C([H])([H])C3([H])N=C(C([H])([H])C([H])([H])C([H])([H])C([H])([H])N([H])C(=O)N4C([H])([H])C([H])([H])C([H])([H])C([H])(n5nc(-c6c([H])c([H])c(Oc7c([H])c([H])c(F)c([H])c7F)c([H])c6[H])c(C(=O)N([H])[H])c5N([H])[H])C4([H])[H])C([H])([H])C([H])([H])C3([H])[H])c([H])c([H])c2C1([H])[H]

>  <smiles>  (58) 
[H]c1c([H])c([H])c2c(c1[H])C([H])([H])C([H])([H])C([H])([H])C2([H])N([H])C(=O)C1([H])N(C(=O)C([H])(N([H])C(=O)C([H])(N([H])C([H])([H])[H])C([H])([H])[H])C(C([H])([H])[H])(C([H])([H])[H])C([H])([H])[H])C([H])([H])c2c([H])c(OC([H])([H])C([H])([H])C([H])([H])C3([H])N=C(C([H])([H])C([H])([H])C([H])([H])C([H])([H])N([H])C(=O)N4C([H])([H])C([H])([H])C([H])([H])C([H])(n5nc(-c6c([H])c([H])c(Oc7c([H])c([H])c(F)c([H])c7F)c([H])c6[H])c(C(=O)N([H])[H])c5N([H])[H])C4([H])[H])C([H])([H])C([H])([H])C3([H])[H])c([H])c([H])c2C1([H])[H]

$$$$
58:0:0
     RDKit          3D

 99108  0  0  1  0  0  0  0  0999 V2000
  -30.5620  -24.2400   22.9800 C   0  0  0  0  0  2  0  0  0  0  0  0
  -31.0960  -22.8030   20.9830 C   0  0  0  0  0  2  0  0  0  0  0  0
  -30.6540  -25.4770   22.0720 C   0  0  0  0  0  2  0  0  0  0  0  0
  -31.1620  -24.0740   20.1190 C   0  0  0  0  0  2  0  0  0  0  0  0
  -31.4540  -23.0970   22.4580 C   0  0  0  0  0  3  0  0  0  0  0  0
  -30.2850  -25.1360   20.6710 N   0  0  2  0  0  4  0  0  0  0  0  0
  -29.3510  -24.7480   20.6990 H   0  0  0  0  0  0  0  0  0  0  0  0
  -30.0200  -20.4550   25.0450 C   0  0  0  0  0  2  0  0  0  0  0  0
  -30.0190  -21.4870   23.8980 C   0  0  0  0  0  2  0  0  0  0  0  0
  -32.1780  -20.6750   22.6920 C   0  0  0  0  0  2  0  0  0  0  0  0
  -30.0220  -18.9770   24.5960 C   0  0  0  0  0  2  0  0  0  0  0  0
  -32.2150  -19.3620   23.4870 C   0  0  0  0  0  2  0  0  0  0  0  0
  -31.4380  -21.8470   23.3790 C   0  0  0  0  0  3  0  0  0  0  0  0
  -30.8860  -18.7050   23.4190 N   0  0  1  0  0  4  0  0  0  0  0  0
  -30.4130  -19.1460   22.6460 H   0  0  0  0  0  0  0  0  0  0  0  0
  -30.9360  -17.2670   23.0560 C   0  0  0  0  0  2  0  0  0  0  0  0
  -31.2470  -17.0580   21.5570 C   0  0  0  0  0  2  0  0  0  0  0  0
  -31.7920  -15.6610   21.2310 C   0  0  0  0  0  2  0  0  0  0  0  0
  -30.6650  -14.2480   19.5200 C   0  0  0  0  0  0  0  0  0  0  0  0
  -30.1560  -12.1070   18.4250 C   0  0  0  0  0  2  0  0  0  0  0  0
  -29.0270  -12.1680   17.3850 C   0  0  0  0  0  2  0  0  0  0  0  0
  -27.6610  -11.9790   18.0650 C   0  0  0  0  0  2  0  0  0  0  0  0
  -27.4680  -12.9310   19.2720 C   0  0  0  0  0  3  0  0  0  0  0  0
  -28.6830  -12.8780   20.2250 C   0  0  0  0  0  2  0  0  0  0  0  0
  -29.9150  -13.1250   19.4530 N   0  0  0  0  0  0  0  0  0  0  0  0
  -31.3970  -14.6470   18.6070 O   0  0  0  0  0  0  0  0  0  0  0  0
  -30.7520  -14.7490   20.7580 N   0  0  0  0  0  0  0  0  0  0  0  0
  -30.1800  -14.2930   21.4540 H   0  0  0  0  0  0  0  0  0  0  0  0
  -25.2850  -13.5230   20.5060 C   0  0  0  0  0  0  0  0  0  0  0  0
  -24.2660  -12.7430   20.9870 C   0  0  0  0  0  0  0  0  0  0  0  0
  -24.6380  -11.3930   20.7080 C   0  0  0  0  0  0  0  0  0  0  0  0
  -26.2180  -12.6450   19.9750 N   0  0  0  0  0  0  0  0  0  0  0  0
  -25.8400  -11.3510   20.1490 N   0  0  0  0  0  0  0  0  0  0  0  0
  -23.8940  -10.1400   20.8900 C   0  0  0  0  0  0  0  0  0  0  0  0
  -24.3860   -9.1020   21.7130 C   0  0  0  0  0  3  0  0  0  0  0  0
  -23.6440   -7.9130   21.8870 C   0  0  0  0  0  3  0  0  0  0  0  0
  -22.3960   -7.7540   21.2400 C   0  0  0  0  0  0  0  0  0  0  0  0
  -21.9210   -8.7810   20.4040 C   0  0  0  0  0  3  0  0  0  0  0  0
  -22.6630   -9.9610   20.2270 C   0  0  0  0  0  3  0  0  0  0  0  0
  -21.6190   -6.6250   21.3290 O   0  0  0  0  0  0  0  0  0  0  0  0
  -21.5770   -5.8700   22.4730 C   0  0  0  0  0  0  0  0  0  0  0  0
  -21.1760   -6.4140   23.7120 C   0  0  0  0  0  3  0  0  0  0  0  0
  -21.0800   -5.5850   24.8480 C   0  0  0  0  0  3  0  0  0  0  0  0
  -21.3750   -4.2130   24.7460 C   0  0  0  0  0  0  0  0  0  0  0  0
  -21.7700   -3.6670   23.5100 C   0  0  0  0  0  3  0  0  0  0  0  0
  -21.8670   -4.4940   22.3770 C   0  0  0  0  0  0  0  0  0  0  0  0
  -22.2270   -3.9580   21.1860 F   0  0  0  0  0  0  0  0  0  0  0  0
  -21.2770   -3.4140   25.8340 F   0  0  0  0  0  0  0  0  0  0  0  0
  -22.9760  -13.2250   21.5860 C   0  0  0  0  0  0  0  0  0  0  0  0
  -22.4220  -12.4760   22.5330 N   0  0  0  0  0  0  0  0  0  0  0  0
  -22.4770  -14.2990   21.2500 O   0  0  0  0  0  0  0  0  0  0  0  0
  -22.8420  -11.6040   22.8210 H   0  0  0  0  0  0  0  0  0  0  0  0
  -21.5650  -12.7760   22.9750 H   0  0  0  0  0  0  0  0  0  0  0  0
  -25.4880  -14.8980   20.4590 N   0  0  0  0  0  0  0  0  0  0  0  0
  -24.7930  -15.5610   20.7870 H   0  0  0  0  0  0  0  0  0  0  0  0
  -26.2890  -15.3440   20.0290 H   0  0  0  0  0  0  0  0  0  0  0  0
  -30.1740  -26.3120   19.7710 C   0  0  0  0  0  2  0  0  0  0  0  0
  -29.1250  -27.3040   20.2830 C   0  0  0  0  0  2  0  0  0  0  0  0
  -27.8470  -26.6850   20.1340 O   0  0  0  0  0  0  0  0  0  0  0  0
  -24.3130  -31.9710   23.3950 C   0  0  0  0  0  0  0  0  0  0  0  0
  -26.7250  -27.4760   20.2450 C   0  0  0  0  0  0  0  0  0  0  0  0
  -22.9930  -30.5870   21.8180 C   0  0  0  0  0  3  0  0  0  0  0  0
  -24.3430  -28.9940   20.3570 C   0  0  0  0  0  0  0  0  0  0  0  0
  -25.5070  -30.8920   21.5000 C   0  0  0  0  0  2  0  0  0  0  0  0
  -25.5320  -29.5130   20.8810 C   0  0  0  0  0  0  0  0  0  0  0  0
  -26.7210  -28.7660   20.8280 C   0  0  0  0  0  3  0  0  0  0  0  0
  -25.5160  -26.9540   19.7400 C   0  0  0  0  0  3  0  0  0  0  0  0
  -24.3260  -27.7080   19.7860 C   0  0  0  0  0  3  0  0  0  0  0  0
  -23.1220  -29.8790   20.4420 C   0  0  0  0  0  2  0  0  0  0  0  0
  -24.2910  -31.1640   22.2970 N   0  0  0  0  0  0  0  0  0  0  0  0
  -23.2660  -32.2790   23.9810 O   0  0  0  0  0  0  0  0  0  0  0  0
  -22.3580  -29.5970   22.8190 C   0  0  0  0  0  0  0  0  0  0  0  0
  -21.0570  -29.3230   22.6400 N   0  0  0  0  0  0  0  0  0  0  0  0
  -23.0350  -29.0750   23.7090 O   0  0  0  0  0  0  0  0  0  0  0  0
  -20.5720  -29.7980   21.8910 H   0  0  0  0  0  0  0  0  0  0  0  0
  -17.7930  -27.8050   22.9180 C   0  0  0  0  0  0  0  0  0  0  0  0
  -20.2570  -28.3900   23.4320 C   0  0  0  0  0  3  0  0  0  0  0  0
  -20.5770  -26.9240   23.0580 C   0  0  0  0  0  2  0  0  0  0  0  0
  -19.6470  -26.3600   21.9790 C   0  0  0  0  0  2  0  0  0  0  0  0
  -18.1890  -26.4170   22.4440 C   0  0  0  0  0  2  0  0  0  0  0  0
  -18.7650  -28.7370   23.3660 C   0  0  0  0  0  0  0  0  0  0  0  0
  -18.3490  -30.0270   23.7610 C   0  0  0  0  0  3  0  0  0  0  0  0
  -16.9900  -30.3890   23.7170 C   0  0  0  0  0  3  0  0  0  0  0  0
  -16.0290  -29.4580   23.2890 C   0  0  0  0  0  3  0  0  0  0  0  0
  -16.4300  -28.1690   22.8940 C   0  0  0  0  0  3  0  0  0  0  0  0
  -25.6450  -32.5660   23.9520 C   0  0  0  0  0  3  0  0  0  0  0  0
  -25.4030  -33.9800   24.2610 N   0  0  0  0  0  0  0  0  0  0  0  0
  -25.8490  -35.0050   23.5220 C   0  0  0  0  0  0  0  0  0  0  0  0
  -26.5770  -34.8560   22.5370 O   0  0  0  0  0  0  0  0  0  0  0  0
  -24.7690  -34.1760   25.0200 H   0  0  0  0  0  0  0  0  0  0  0  0
  -24.2690  -36.9000   23.0370 C   0  0  0  0  0  1  0  0  0  0  0  0
  -25.4170  -36.4230   23.9430 C   0  0  0  0  0  3  0  0  0  0  0  0
  -27.5420  -37.1620   24.9250 C   0  0  0  0  0  1  0  0  0  0  0  0
  -26.5200  -37.4080   23.9110 N   0  0  0  0  0  0  0  0  0  0  0  0
  -26.1640  -38.3510   24.0420 H   0  0  0  0  0  0  0  0  0  0  0  0
  -26.1880  -31.8000   25.2210 C   0  0  1  0  0  0  0  0  0  0  0  0
  -25.1160  -31.5700   26.3130 C   0  0  0  0  0  1  0  0  0  0  0  0
  -26.7580  -30.4190   24.8200 C   0  0  0  0  0  1  0  0  0  0  0  0
  -27.3530  -32.5950   25.8560 C   0  0  0  0  0  1  0  0  0  0  0  0
  3  1  1  0
  4  6  1  0
  4  2  1  0
  5  2  1  0
  5  1  1  0
  5 13  1  0
  6  7  1  1
  6  3  1  0
  9  8  1  0
 10 12  1  0
 11  8  1  0
 13 10  1  0
 13  9  1  0
 14 12  1  0
 14 11  1  0
 14 15  1  6
 16 14  1  0
 17 16  1  0
 18 17  1  0
 19 27  1  0
 20 25  1  0
 21 22  1  0
 21 20  1  0
 23 22  1  0
 23 32  1  0
 23 24  1  0
 25 19  1  0
 25 24  1  0
 26 19  2  0
 27 18  1  0
 27 28  1  0
 29 30  2  0
 30 49  1  0
 31 34  1  0
 31 30  1  0
 32 33  1  0
 32 29  1  0
 33 31  2  0
 34 35  1  0
 35 36  2  0
 37 40  1  0
 37 36  1  0
 38 37  2  0
 39 38  1  0
 39 34  2  0
 40 41  1  0
 41 42  1  0
 42 43  2  0
 44 43  1  0
 44 48  1  0
 45 44  2  0
 46 41  2  0
 46 45  1  0
 47 46  1  0
 49 50  1  0
 50 52  1  0
 50 53  1  0
 51 49  2  0
 54 29  1  0
 54 55  1  0
 56 54  1  0
 57 58  1  0
 57  6  1  0
 59 61  1  0
 59 58  1  0
 60 71  2  0
 61 66  1  0
 62 70  1  0
 62 72  1  0
 63 69  1  0
 63 65  1  0
 64 70  1  0
 65 64  1  0
 66 65  2  0
 67 68  1  0
 67 61  2  0
 68 63  2  0
 69 62  1  0
 70 60  1  0
 72 74  2  0
 73 72  1  0
 75 73  1  0
 76 81  1  0
 77 73  1  0
 78 77  1  0
 79 80  1  0
 79 78  1  0
 80 76  1  0
 81 77  1  0
 81 82  2  0
 83 82  1  0
 84 83  2  0
 85 76  2  0
 85 84  1  0
 86 60  1  0
 86 87  1  0
 86 96  1  0
 87 90  1  0
 88 92  1  0
 88 87  1  0
 89 88  2  0
 92 91  1  0
 94 92  1  0
 94 95  1  0
 94 93  1  0
 96 99  1  1
 96 97  1  0
 98 96  1  0
M  ISO  4  19 100  27 100  58 101  59 101
M  END
>  <TORSDO>  (59) 
F 22

>  <SCORE>  (59) 
-6.401

>  <name>  (59) 
58

>  <ligand_id>  (59) 
58

>  <original_smiles>  (59) 
[H]c1c([H])c([H])c2c(c1[H])C([H])([H])C([H])([H])C([H])([H])C2([H])N([H])C(=O)C1([H])N(C(=O)C([H])(N([H])C(=O)C([H])(N([H])C([H])([H])[H])C([H])([H])[H])C(C([H])([H])[H])(C([H])([H])[H])C([H])([H])[H])C([H])([H])c2c([H])c(OC([H])([H])C([H])([H])[N+]3([H])C([H])([H])C([H])([H])C([H])(C4([H])C([H])([H])C([H])([H])C([H])([H])[N+]([H])(C([H])([H])C([H])([H])C([H])([H])N([H])C(=O)N5C([H])([H])C([H])([H])C([H])([H])C([H])(n6nc(-c7c([H])c([H])c(Oc8c([H])c([H])c(F)c([H])c8F)c([H])c7[H])c(C(=O)N([H])[H])c6N([H])[H])C5([H])[H])C([H])([H])C4([H])[H])C([H])([H])C3([H])[H])c([H])c([H])c2C1([H])[H]

>  <smiles>  (59) 
[H]c1c([H])c([H])c2c(c1[H])C([H])([H])C([H])([H])C([H])([H])C2([H])N([H])C(=O)C1([H])N(C(=O)C([H])(N([H])C(=O)C([H])(N([H])C([H])([H])[H])C([H])([H])[H])C(C([H])([H])[H])(C([H])([H])[H])C([H])([H])[H])C([H])([H])c2c([H])c(OC([H])([H])C([H])([H])[N+]3([H])C([H])([H])C([H])([H])C([H])(C4([H])C([H])([H])C([H])([H])C([H])([H])[N+]([H])(C([H])([H])C([H])([H])C([H])([H])N([H])C(=O)N5C([H])([H])C([H])([H])C([H])([H])C([H])(n6nc(-c7c([H])c([H])c(Oc8c([H])c([H])c(F)c([H])c8F)c([H])c7[H])c(C(=O)N([H])[H])c6N([H])[H])C5([H])[H])C([H])([H])C4([H])[H])C([H])([H])C3([H])[H])c([H])c([H])c2C1([H])[H]

$$$$
59:0:0
     RDKit          3D

 89 97  0  0  1  0  0  0  0  0999 V2000
  -29.8330  -21.1080   19.9660 C   0  0  0  0  0  3  0  0  0  0  0  0
  -29.3860  -18.5020   20.1710 C   0  0  0  0  0  0  0  0  0  0  0  0
  -31.2200  -17.8670   21.5660 C   0  0  0  0  0  2  0  0  0  0  0  0
  -30.9860  -19.4080   21.5450 C   0  0  0  0  0  2  0  0  0  0  0  0
  -29.9060  -17.3120   21.0400 C   0  0  0  0  0  3  0  0  0  0  0  0
  -29.9150  -19.7050   20.5760 N   0  0  0  0  0  0  0  0  0  0  0  0
  -28.5860  -18.3420   19.2450 O   0  0  0  0  0  0  0  0  0  0  0  0
  -30.5650  -14.7620   20.3700 C   0  0  0  0  0  0  0  0  0  0  0  0
  -30.3770  -12.5020   19.2990 C   0  0  0  0  0  2  0  0  0  0  0  0
  -29.4220  -12.5810   18.0830 C   0  0  0  0  0  2  0  0  0  0  0  0
  -27.9600  -12.3850   18.5260 C   0  0  0  0  0  2  0  0  0  0  0  0
  -27.5940  -13.2640   19.7490 C   0  0  0  0  0  3  0  0  0  0  0  0
  -28.6590  -13.1710   20.8650 C   0  0  0  0  0  2  0  0  0  0  0  0
  -29.9550  -13.5330   20.2720 N   0  0  0  0  0  0  0  0  0  0  0  0
  -31.7300  -14.9190   19.9900 O   0  0  0  0  0  0  0  0  0  0  0  0
  -29.7630  -15.8110   20.7670 N   0  0  0  0  0  0  0  0  0  0  0  0
  -28.8310  -15.4870   20.9710 H   0  0  0  0  0  0  0  0  0  0  0  0
  -25.2160  -13.8510   20.5030 C   0  0  0  0  0  0  0  0  0  0  0  0
  -24.1560  -13.0760   20.8810 C   0  0  0  0  0  0  0  0  0  0  0  0
  -24.6210  -11.7250   20.8470 C   0  0  0  0  0  0  0  0  0  0  0  0
  -26.2570  -12.9730   20.2520 N   0  0  0  0  0  0  0  0  0  0  0  0
  -25.9070  -11.6870   20.5230 N   0  0  0  0  0  0  0  0  0  0  0  0
  -23.9010  -10.4600   21.0440 C   0  0  0  0  0  0  0  0  0  0  0  0
  -24.3420   -9.4930   21.9750 C   0  0  0  0  0  3  0  0  0  0  0  0
  -23.6210   -8.2950   22.1570 C   0  0  0  0  0  3  0  0  0  0  0  0
  -22.4430   -8.0550   21.4070 C   0  0  0  0  0  0  0  0  0  0  0  0
  -22.0220   -9.0110   20.4650 C   0  0  0  0  0  3  0  0  0  0  0  0
  -22.7460  -10.2020   20.2820 C   0  0  0  0  0  3  0  0  0  0  0  0
  -21.6930   -6.9090   21.4940 O   0  0  0  0  0  0  0  0  0  0  0  0
  -21.6530   -6.1630   22.6450 C   0  0  0  0  0  0  0  0  0  0  0  0
  -21.2220   -6.7070   23.8740 C   0  0  0  0  0  3  0  0  0  0  0  0
  -21.1330   -5.8880   25.0160 C   0  0  0  0  0  3  0  0  0  0  0  0
  -21.4670   -4.5220   24.9290 C   0  0  0  0  0  0  0  0  0  0  0  0
  -21.8900   -3.9750   23.7060 C   0  0  0  0  0  3  0  0  0  0  0  0
  -21.9820   -4.7930   22.5670 C   0  0  0  0  0  0  0  0  0  0  0  0
  -22.3720   -4.2600   21.3840 F   0  0  0  0  0  0  0  0  0  0  0  0
  -21.3750   -3.7300   26.0230 F   0  0  0  0  0  0  0  0  0  0  0  0
  -22.7590  -13.5520   21.1620 C   0  0  0  0  0  0  0  0  0  0  0  0
  -22.0360  -12.8530   22.0270 N   0  0  0  0  0  0  0  0  0  0  0  0
  -22.3170  -14.5790   20.6490 O   0  0  0  0  0  0  0  0  0  0  0  0
  -22.4050  -12.0200   22.4580 H   0  0  0  0  0  0  0  0  0  0  0  0
  -21.1040  -13.1610   22.2640 H   0  0  0  0  0  0  0  0  0  0  0  0
  -25.3770  -15.2240   20.3270 N   0  0  0  0  0  0  0  0  0  0  0  0
  -24.6020  -15.8690   20.4350 H   0  0  0  0  0  0  0  0  0  0  0  0
  -26.2070  -15.6620   19.9440 H   0  0  0  0  0  0  0  0  0  0  0  0
  -28.9270  -22.2940   20.5920 C   0  0  0  0  0  3  0  0  0  0  0  0
  -29.1630  -23.8150   20.0870 C   0  0  0  0  0  3  0  0  0  0  0  0
  -28.1210  -24.9700   20.5030 C   0  0  0  0  0  3  0  0  0  0  0  0
  -28.3460  -26.4270   20.2170 O   0  0  0  0  0  0  0  0  0  0  0  0
  -24.6020  -31.8980   23.2300 C   0  0  0  0  0  0  0  0  0  0  0  0
  -27.2310  -27.2940   20.1990 C   0  0  0  0  0  0  0  0  0  0  0  0
  -23.4060  -30.4890   21.5920 C   0  0  0  0  0  3  0  0  0  0  0  0
  -24.8620  -28.9230   20.1850 C   0  0  0  0  0  0  0  0  0  0  0  0
  -25.9480  -30.7980   21.4220 C   0  0  0  0  0  2  0  0  0  0  0  0
  -26.0320  -29.4110   20.7840 C   0  0  0  0  0  0  0  0  0  0  0  0
  -27.2180  -28.6070   20.7800 C   0  0  0  0  0  3  0  0  0  0  0  0
  -26.0390  -26.8810   19.5610 C   0  0  0  0  0  3  0  0  0  0  0  0
  -24.8690  -27.6640   19.5670 C   0  0  0  0  0  3  0  0  0  0  0  0
  -23.6250  -29.7960   20.2220 C   0  0  0  0  0  2  0  0  0  0  0  0
  -24.6710  -31.0810   22.1380 N   0  0  0  0  0  0  0  0  0  0  0  0
  -23.5150  -32.1780   23.7560 O   0  0  0  0  0  0  0  0  0  0  0  0
  -22.7340  -29.4820   22.5580 C   0  0  0  0  0  0  0  0  0  0  0  0
  -21.4080  -29.3070   22.4290 N   0  0  0  0  0  0  0  0  0  0  0  0
  -23.4080  -28.8590   23.3820 O   0  0  0  0  0  0  0  0  0  0  0  0
  -20.9240  -29.8610   21.7370 H   0  0  0  0  0  0  0  0  0  0  0  0
  -18.0260  -28.1240   22.9470 C   0  0  0  0  0  0  0  0  0  0  0  0
  -20.5860  -28.3740   23.2030 C   0  0  0  0  0  3  0  0  0  0  0  0
  -20.6770  -26.9390   22.6320 C   0  0  0  0  0  2  0  0  0  0  0  0
  -19.5710  -26.6190   21.6220 C   0  0  0  0  0  2  0  0  0  0  0  0
  -18.1930  -26.7720   22.2710 C   0  0  0  0  0  2  0  0  0  0  0  0
  -19.1500  -28.8820   23.3700 C   0  0  0  0  0  0  0  0  0  0  0  0
  -18.9390  -30.1440   23.9670 C   0  0  0  0  0  3  0  0  0  0  0  0
  -17.6370  -30.6530   24.1340 C   0  0  0  0  0  3  0  0  0  0  0  0
  -16.5270  -29.8930   23.7260 C   0  0  0  0  0  3  0  0  0  0  0  0
  -16.7230  -28.6280   23.1410 C   0  0  0  0  0  3  0  0  0  0  0  0
  -25.8810  -32.5360   23.8570 C   0  0  0  0  0  3  0  0  0  0  0  0
  -26.3900  -31.7750   25.1430 C   0  0  1  0  0  0  0  0  0  0  0  0
  -25.2940  -31.5450   26.2090 C   0  0  0  0  0  1  0  0  0  0  0  0
  -26.9750  -30.3950   24.7650 C   0  0  0  0  0  1  0  0  0  0  0  0
  -27.5410  -32.5720   25.8030 C   0  0  0  0  0  1  0  0  0  0  0  0
  -25.5700  -33.9360   24.1790 N   0  0  0  0  0  0  0  0  0  0  0  0
  -25.9030  -34.9850   23.4140 C   0  0  0  0  0  0  0  0  0  0  0  0
  -26.5760  -34.8740   22.3850 O   0  0  0  0  0  0  0  0  0  0  0  0
  -24.9800  -34.0990   24.9820 H   0  0  0  0  0  0  0  0  0  0  0  0
  -24.1850  -36.7820   23.0340 C   0  0  0  0  0  1  0  0  0  0  0  0
  -25.4150  -36.3760   23.8620 C   0  0  0  0  0  3  0  0  0  0  0  0
  -27.5430  -37.2580   24.7140 C   0  0  0  0  0  1  0  0  0  0  0  0
  -26.4530  -37.4260   23.7560 N   0  0  0  0  0  0  0  0  0  0  0  0
  -26.0480  -38.3480   23.8950 H   0  0  0  0  0  0  0  0  0  0  0  0
  1  6  1  0
  1 46  2  0
  2  6  1  0
  2  5  1  0
  4  3  1  0
  5 16  1  0
  5  3  1  0
  6  4  1  0
  7  2  2  0
  8 16  1  0
  9 14  1  0
 10 11  1  0
 10  9  1  0
 12 11  1  0
 12 21  1  0
 12 13  1  0
 14  8  1  0
 14 13  1  0
 15  8  2  0
 16 17  1  0
 18 19  2  0
 19 38  1  0
 20 19  1  0
 20 23  1  0
 21 18  1  0
 21 22  1  0
 22 20  2  0
 23 24  1  0
 24 25  2  0
 26 29  1  0
 26 25  1  0
 27 26  2  0
 28 27  1  0
 28 23  2  0
 29 30  1  0
 30 31  1  0
 31 32  2  0
 33 32  1  0
 33 37  1  0
 34 33  2  0
 35 30  2  0
 35 34  1  0
 36 35  1  0
 38 39  1  0
 39 42  1  0
 39 41  1  0
 40 38  2  0
 43 44  1  0
 43 18  1  0
 45 43  1  0
 47 48  2  0
 47 46  1  0
 49 48  1  0
 50 61  2  0
 51 49  1  0
 51 56  1  0
 52 60  1  0
 52 62  1  0
 53 59  1  0
 53 55  1  0
 54 60  1  0
 55 54  1  0
 56 55  2  0
 57 58  1  0
 57 51  2  0
 58 53  2  0
 59 52  1  0
 60 50  1  0
 62 64  2  0
 63 62  1  0
 65 63  1  0
 66 75  2  0
 66 71  1  0
 67 63  1  0
 67 71  1  0
 68 67  1  0
 69 70  1  0
 69 68  1  0
 70 66  1  0
 71 72  2  0
 72 73  1  0
 74 73  2  0
 75 74  1  0
 76 50  1  0
 76 81  1  0
 76 77  1  0
 77 80  1  1
 77 78  1  0
 79 77  1  0
 81 84  1  0
 82 86  1  0
 82 81  1  0
 83 82  2  0
 86 85  1  0
 88 86  1  0
 88 89  1  0
 88 87  1  0
M  ISO  4   8 100  16 100  48 101  49 101
M  END
>  <TORSDO>  (60) 
F 20

>  <SCORE>  (60) 
-13.987

>  <name>  (60) 
59

>  <ligand_id>  (60) 
59

>  <original_smiles>  (60) 
[H]c1c([H])c([H])c2c(c1[H])C([H])([H])C([H])([H])C([H])([H])C2([H])N([H])C(=O)C1([H])N(C(=O)C([H])(N([H])C(=O)C([H])(N([H])C([H])([H])[H])C([H])([H])[H])C(C([H])([H])[H])(C([H])([H])[H])C([H])([H])[H])C([H])([H])c2c([H])c(OC([H])([H])C([H])([H])C([H])([H])C([H])([H])N3C(=O)C([H])(N([H])C(=O)N4C([H])([H])C([H])([H])C([H])([H])C([H])(n5nc(-c6c([H])c([H])c(Oc7c([H])c([H])c(F)c([H])c7F)c([H])c6[H])c(C(=O)N([H])[H])c5N([H])[H])C4([H])[H])C([H])([H])C3([H])[H])c([H])c([H])c2C1([H])[H]

>  <smiles>  (60) 
[H]c1c([H])c([H])c2c(c1[H])C([H])([H])C([H])([H])C([H])([H])C2([H])N([H])C(=O)C1([H])N(C(=O)C([H])(N([H])C(=O)C([H])(N([H])C([H])([H])[H])C([H])([H])[H])C(C([H])([H])[H])(C([H])([H])[H])C([H])([H])[H])C([H])([H])c2c([H])c(OC([H])([H])C([H])([H])C([H])([H])C([H])([H])N3C(=O)C([H])(N([H])C(=O)N4C([H])([H])C([H])([H])C([H])([H])C([H])(n5nc(-c6c([H])c([H])c(Oc7c([H])c([H])c(F)c([H])c7F)c([H])c6[H])c(C(=O)N([H])[H])c5N([H])[H])C4([H])[H])C([H])([H])C3([H])[H])c([H])c([H])c2C1([H])[H]

$$$$
60:0:0
     RDKit          3D

 91100  0  0  1  0  0  0  0  0999 V2000
  -28.6030  -21.1430   19.8960 C   0  0  0  0  0  0  0  0  0  0  0  0
  -29.0210  -22.4250   20.2320 N   0  0  0  0  0  0  0  0  0  0  0  0
  -27.5180  -21.0050   19.3330 O   0  0  0  0  0  0  0  0  0  0  0  0
  -29.8970  -22.4720   20.7360 H   0  0  0  0  0  0  0  0  0  0  0  0
  -30.7540  -14.8710   19.9470 C   0  0  0  0  0  0  0  0  0  0  0  0
  -30.4640  -12.5970   18.9490 C   0  0  0  0  0  2  0  0  0  0  0  0
  -29.4550  -12.6540   17.7840 C   0  0  0  0  0  2  0  0  0  0  0  0
  -28.0170  -12.4740   18.3110 C   0  0  0  0  0  2  0  0  0  0  0  0
  -27.7120  -13.3650   19.5450 C   0  0  0  0  0  3  0  0  0  0  0  0
  -28.8400  -13.3200   20.5950 C   0  0  0  0  0  2  0  0  0  0  0  0
  -30.0770  -13.6720   19.8930 N   0  0  0  0  0  0  0  0  0  0  0  0
  -31.9700  -14.8560   19.7290 O   0  0  0  0  0  0  0  0  0  0  0  0
  -29.7270  -19.3450   21.5640 C   0  0  0  0  0  2  0  0  0  0  0  0
  -30.2800  -17.8860   21.4660 C   0  0  0  0  0  2  0  0  0  0  0  0
  -29.6580  -18.0210   18.1360 C   0  0  0  0  0  2  0  0  0  0  0  0
  -30.4320  -16.6960   18.3300 C   0  0  0  0  0  2  0  0  0  0  0  0
  -29.4980  -19.8130   20.1130 C   0  0  0  0  0  3  0  0  0  0  0  0
  -29.0420  -18.4030   19.4800 C   0  0  0  0  0  3  0  0  0  0  0  0
  -29.4230  -17.1720   20.4000 C   0  0  0  0  0  3  0  0  0  0  0  0
  -30.0590  -16.0430   19.6000 N   0  0  0  0  0  0  0  0  0  0  0  0
  -25.3880  -13.9320   20.4610 C   0  0  0  0  0  0  0  0  0  0  0  0
  -24.3450  -13.1470   20.8720 C   0  0  0  0  0  0  0  0  0  0  0  0
  -24.8010  -11.7970   20.7700 C   0  0  0  0  0  0  0  0  0  0  0  0
  -26.4090  -13.0590   20.1250 N   0  0  0  0  0  0  0  0  0  0  0  0
  -26.0700  -11.7680   20.3780 N   0  0  0  0  0  0  0  0  0  0  0  0
  -24.0830  -10.5300   20.9620 C   0  0  0  0  0  0  0  0  0  0  0  0
  -24.5350   -9.5560   21.8800 C   0  0  0  0  0  3  0  0  0  0  0  0
  -23.8160   -8.3570   22.0640 C   0  0  0  0  0  3  0  0  0  0  0  0
  -22.6310   -8.1190   21.3270 C   0  0  0  0  0  0  0  0  0  0  0  0
  -22.1970   -9.0810   20.3980 C   0  0  0  0  0  3  0  0  0  0  0  0
  -22.9180  -10.2740   20.2120 C   0  0  0  0  0  3  0  0  0  0  0  0
  -21.8810   -6.9720   21.4210 O   0  0  0  0  0  0  0  0  0  0  0  0
  -21.8030   -6.2550   22.5890 C   0  0  0  0  0  0  0  0  0  0  0  0
  -21.3010   -6.8220   23.7790 C   0  0  0  0  0  3  0  0  0  0  0  0
  -21.1720   -6.0300   24.9380 C   0  0  0  0  0  3  0  0  0  0  0  0
  -21.5390   -4.6720   24.9060 C   0  0  0  0  0  0  0  0  0  0  0  0
  -22.0360   -4.1020   23.7200 C   0  0  0  0  0  3  0  0  0  0  0  0
  -22.1660   -4.8920   22.5640 C   0  0  0  0  0  0  0  0  0  0  0  0
  -22.6230   -4.3350   21.4170 F   0  0  0  0  0  0  0  0  0  0  0  0
  -21.4100   -3.9080   26.0150 F   0  0  0  0  0  0  0  0  0  0  0  0
  -22.9690  -13.6180   21.2420 C   0  0  0  0  0  0  0  0  0  0  0  0
  -22.2920  -12.8950   22.1270 N   0  0  0  0  0  0  0  0  0  0  0  0
  -22.5040  -14.6600   20.7820 O   0  0  0  0  0  0  0  0  0  0  0  0
  -22.6810  -12.0520   22.5190 H   0  0  0  0  0  0  0  0  0  0  0  0
  -21.3700  -13.1900   22.4180 H   0  0  0  0  0  0  0  0  0  0  0  0
  -25.5470  -15.3060   20.3170 N   0  0  0  0  0  0  0  0  0  0  0  0
  -24.7930  -15.9590   20.5000 H   0  0  0  0  0  0  0  0  0  0  0  0
  -26.3720  -15.7510   19.9380 H   0  0  0  0  0  0  0  0  0  0  0  0
  -28.4820  -23.7860   19.7520 C   0  0  0  0  0  2  0  0  0  0  0  0
  -28.3710  -25.0590   20.7520 C   0  0  0  0  0  2  0  0  0  0  0  0
  -28.4730  -26.4940   20.3010 O   0  0  0  0  0  0  0  0  0  0  0  0
  -24.5970  -31.8990   23.2410 C   0  0  0  0  0  0  0  0  0  0  0  0
  -27.3440  -27.3370   20.2810 C   0  0  0  0  0  0  0  0  0  0  0  0
  -23.4560  -30.4860   21.5670 C   0  0  0  0  0  3  0  0  0  0  0  0
  -24.9650  -28.9410   20.1900 C   0  0  0  0  0  0  0  0  0  0  0  0
  -25.9970  -30.8300   21.4540 C   0  0  0  0  0  2  0  0  0  0  0  0
  -26.1120  -29.4460   20.8140 C   0  0  0  0  0  0  0  0  0  0  0  0
  -27.3080  -28.6600   20.8400 C   0  0  0  0  0  3  0  0  0  0  0  0
  -26.1740  -26.8890   19.6370 C   0  0  0  0  0  3  0  0  0  0  0  0
  -25.0010  -27.6720   19.5890 C   0  0  0  0  0  3  0  0  0  0  0  0
  -23.7190  -29.8080   20.1960 C   0  0  0  0  0  2  0  0  0  0  0  0
  -24.7010  -31.0910   22.1440 N   0  0  0  0  0  0  0  0  0  0  0  0
  -23.4960  -32.1600   23.7480 O   0  0  0  0  0  0  0  0  0  0  0  0
  -22.7790  -29.4630   22.5100 C   0  0  0  0  0  0  0  0  0  0  0  0
  -21.4550  -29.2840   22.3630 N   0  0  0  0  0  0  0  0  0  0  0  0
  -23.4470  -28.8300   23.3340 O   0  0  0  0  0  0  0  0  0  0  0  0
  -20.9730  -29.8480   21.6780 H   0  0  0  0  0  0  0  0  0  0  0  0
  -18.0670  -28.1080   22.8350 C   0  0  0  0  0  0  0  0  0  0  0  0
  -20.6260  -28.3390   23.1150 C   0  0  0  0  0  3  0  0  0  0  0  0
  -20.7170  -26.9180   22.5130 C   0  0  0  0  0  2  0  0  0  0  0  0
  -19.6150  -26.6250   21.4900 C   0  0  0  0  0  2  0  0  0  0  0  0
  -18.2340  -26.7710   22.1330 C   0  0  0  0  0  2  0  0  0  0  0  0
  -19.1910  -28.8510   23.2820 C   0  0  0  0  0  0  0  0  0  0  0  0
  -18.9820  -30.1060   23.8960 C   0  0  0  0  0  3  0  0  0  0  0  0
  -17.6820  -30.6140   24.0710 C   0  0  0  0  0  3  0  0  0  0  0  0
  -16.5710  -29.8660   23.6390 C   0  0  0  0  0  3  0  0  0  0  0  0
  -16.7660  -28.6160   23.0260 C   0  0  0  0  0  3  0  0  0  0  0  0
  -25.8530  -32.5520   23.9000 C   0  0  0  0  0  3  0  0  0  0  0  0
  -25.5230  -33.9520   24.1980 N   0  0  0  0  0  0  0  0  0  0  0  0
  -25.8680  -34.9980   23.4340 C   0  0  0  0  0  0  0  0  0  0  0  0
  -26.5670  -34.8860   22.4240 O   0  0  0  0  0  0  0  0  0  0  0  0
  -24.9140  -34.1120   24.9880 H   0  0  0  0  0  0  0  0  0  0  0  0
  -24.1430  -36.7760   23.0020 C   0  0  0  0  0  1  0  0  0  0  0  0
  -25.3570  -36.3890   23.8600 C   0  0  0  0  0  3  0  0  0  0  0  0
  -27.4520  -37.2990   24.7600 C   0  0  0  0  0  1  0  0  0  0  0  0
  -26.3870  -37.4470   23.7720 N   0  0  0  0  0  0  0  0  0  0  0  0
  -25.9690  -38.3660   23.8910 H   0  0  0  0  0  0  0  0  0  0  0  0
  -26.3260  -31.8040   25.2060 C   0  0  1  0  0  0  0  0  0  0  0  0
  -25.1960  -31.5750   26.2360 C   0  0  0  0  0  1  0  0  0  0  0  0
  -26.9350  -30.4250   24.8600 C   0  0  0  0  0  1  0  0  0  0  0  0
  -27.4400  -32.6190   25.9030 C   0  0  0  0  0  1  0  0  0  0  0  0
  1  2  1  0
  2  4  1  0
  3  1  2  0
  6 11  1  0
  7  8  1  0
  7  6  1  0
  9  8  1  0
  9 24  1  0
  9 10  1  0
 11  5  1  0
 11 10  1  0
 12  5  2  0
 14 13  1  0
 15 16  1  0
 16 20  1  0
 17  1  1  0
 17 13  1  0
 18 15  1  0
 18 17  1  0
 18 19  1  0
 19 14  1  0
 20  5  1  0
 20 19  1  0
 21 22  2  0
 22 41  1  0
 23 22  1  0
 23 26  1  0
 24 25  1  0
 24 21  1  0
 25 23  2  0
 26 27  1  0
 27 28  2  0
 29 32  1  0
 29 28  1  0
 30 29  2  0
 31 30  1  0
 31 26  2  0
 32 33  1  0
 33 34  1  0
 34 35  2  0
 36 35  1  0
 36 40  1  0
 37 36  2  0
 38 33  2  0
 38 37  1  0
 39 38  1  0
 41 42  1  0
 42 45  1  0
 42 44  1  0
 43 41  2  0
 46 21  1  0
 46 47  1  0
 48 46  1  0
 49  2  1  0
 49 50  1  0
 51 50  1  0
 52 63  2  0
 53 51  1  0
 53 58  1  0
 54 62  1  0
 54 64  1  0
 55 61  1  0
 55 57  1  0
 56 62  1  0
 57 58  2  0
 57 56  1  0
 59 53  2  0
 60 59  1  0
 60 55  2  0
 61 54  1  0
 62 52  1  0
 64 66  2  0
 65 64  1  0
 67 65  1  0
 68 77  2  0
 68 73  1  0
 69 65  1  0
 69 73  1  0
 70 69  1  0
 71 72  1  0
 71 70  1  0
 72 68  1  0
 73 74  2  0
 74 75  1  0
 76 75  2  0
 77 76  1  0
 78 52  1  0
 78 79  1  0
 78 88  1  0
 79 82  1  0
 80 84  1  0
 80 79  1  0
 81 80  2  0
 84 83  1  0
 86 84  1  0
 86 87  1  0
 86 85  1  0
 88 91  1  1
 88 89  1  0
 90 88  1  0
M  ISO  4   5 100  20 100  50 101  51 101
M  END
>  <TORSDO>  (61) 
F 18

>  <SCORE>  (61) 
-14.036

>  <name>  (61) 
60

>  <ligand_id>  (61) 
60

>  <original_smiles>  (61) 
[H]c1c([H])c([H])c2c(c1[H])C([H])([H])C([H])([H])C([H])([H])C2([H])N([H])C(=O)C1([H])N(C(=O)C([H])(N([H])C(=O)C([H])(N([H])C([H])([H])[H])C([H])([H])[H])C(C([H])([H])[H])(C([H])([H])[H])C([H])([H])[H])C([H])([H])c2c([H])c(OC([H])([H])C([H])([H])N([H])C(=O)C3([H])C([H])([H])C([H])([H])C4([H])N(C(=O)N5C([H])([H])C([H])([H])C([H])([H])C([H])(n6nc(-c7c([H])c([H])c(Oc8c([H])c([H])c(F)c([H])c8F)c([H])c7[H])c(C(=O)N([H])[H])c6N([H])[H])C5([H])[H])C([H])([H])C([H])([H])C34[H])c([H])c([H])c2C1([H])[H]

>  <smiles>  (61) 
[H]c1c([H])c([H])c2c(c1[H])C([H])([H])C([H])([H])C([H])([H])C2([H])N([H])C(=O)C1([H])N(C(=O)C([H])(N([H])C(=O)C([H])(N([H])C([H])([H])[H])C([H])([H])[H])C(C([H])([H])[H])(C([H])([H])[H])C([H])([H])[H])C([H])([H])c2c([H])c(OC([H])([H])C([H])([H])N([H])C(=O)C3([H])C([H])([H])C([H])([H])C4([H])N(C(=O)N5C([H])([H])C([H])([H])C([H])([H])C([H])(n6nc(-c7c([H])c([H])c(Oc8c([H])c([H])c(F)c([H])c8F)c([H])c7[H])c(C(=O)N([H])[H])c6N([H])[H])C5([H])[H])C([H])([H])C([H])([H])C34[H])c([H])c([H])c2C1([H])[H]

$$$$
61:0:0
     RDKit          3D

 89 97  0  0  1  0  0  0  0  0999 V2000
  -30.7750  -20.0530   17.9810 C   0  0  0  0  0  2  0  0  0  0  0  0
  -29.3170  -19.6640   17.6590 C   0  0  0  0  0  2  0  0  0  0  0  0
  -30.9220  -20.7770   19.3400 C   0  0  0  0  0  2  0  0  0  0  0  0
  -28.5940  -18.9010   18.8040 C   0  0  0  0  0  2  0  0  0  0  0  0
  -29.7110  -20.5860   20.2870 C   0  0  0  0  0  3  0  0  0  0  0  0
  -29.2250  -19.0890   20.1440 N   0  0  2  0  0  4  0  0  0  0  0  0
  -28.4760  -19.0010   20.8160 H   0  0  0  0  0  0  0  0  0  0  0  0
  -28.6500  -21.8840   20.1230 C   0  0  0  0  0  2  0  0  0  0  0  0
  -29.0390  -23.5020   20.3160 C   0  0  0  0  0  3  0  0  0  0  0  0
  -27.9850  -24.7660   20.0550 C   0  0  0  0  0  3  0  0  0  0  0  0
  -28.2590  -26.2720   20.2630 O   0  0  0  0  0  0  0  0  0  0  0  0
  -24.6350  -31.9110   23.2780 C   0  0  0  0  0  0  0  0  0  0  0  0
  -27.1900  -27.2320   20.2130 C   0  0  0  0  0  0  0  0  0  0  0  0
  -23.4220  -30.5210   21.6450 C   0  0  0  0  0  3  0  0  0  0  0  0
  -24.8580  -28.9530   20.2080 C   0  0  0  0  0  0  0  0  0  0  0  0
  -25.9730  -30.7910   21.4630 C   0  0  0  0  0  2  0  0  0  0  0  0
  -26.0410  -29.4060   20.8050 C   0  0  0  0  0  0  0  0  0  0  0  0
  -27.2100  -28.5610   20.7880 C   0  0  0  0  0  3  0  0  0  0  0  0
  -25.9760  -26.8710   19.5860 C   0  0  0  0  0  3  0  0  0  0  0  0
  -24.8360  -27.6970   19.5870 C   0  0  0  0  0  3  0  0  0  0  0  0
  -23.6310  -29.8470   20.2640 C   0  0  0  0  0  2  0  0  0  0  0  0
  -24.6960  -31.0950   22.1820 N   0  0  0  0  0  0  0  0  0  0  0  0
  -23.5530  -32.1960   23.8120 O   0  0  0  0  0  0  0  0  0  0  0  0
  -22.7490  -29.5110   22.6080 C   0  0  0  0  0  0  0  0  0  0  0  0
  -21.4250  -29.3240   22.4710 N   0  0  0  0  0  0  0  0  0  0  0  0
  -23.4220  -28.8990   23.4430 O   0  0  0  0  0  0  0  0  0  0  0  0
  -20.9390  -29.8670   21.7720 H   0  0  0  0  0  0  0  0  0  0  0  0
  -18.0530  -28.0880   22.9450 C   0  0  0  0  0  0  0  0  0  0  0  0
  -20.6060  -28.3860   23.2430 C   0  0  0  0  0  3  0  0  0  0  0  0
  -20.7330  -26.9480   22.6880 C   0  0  0  0  0  2  0  0  0  0  0  0
  -19.6480  -26.5980   21.6640 C   0  0  0  0  0  2  0  0  0  0  0  0
  -18.2560  -26.7330   22.2870 C   0  0  0  0  0  2  0  0  0  0  0  0
  -19.1570  -28.8710   23.3790 C   0  0  0  0  0  0  0  0  0  0  0  0
  -18.9120  -30.1370   23.9540 C   0  0  0  0  0  3  0  0  0  0  0  0
  -17.5980  -30.6200   24.0980 C   0  0  0  0  0  3  0  0  0  0  0  0
  -16.5100  -29.8350   23.6800 C   0  0  0  0  0  3  0  0  0  0  0  0
  -16.7380  -28.5720   23.1080 C   0  0  0  0  0  3  0  0  0  0  0  0
  -25.9180  -32.5420   23.8980 C   0  0  0  0  0  3  0  0  0  0  0  0
  -25.6170  -33.9490   24.2100 N   0  0  0  0  0  0  0  0  0  0  0  0
  -25.9440  -34.9910   23.4350 C   0  0  0  0  0  0  0  0  0  0  0  0
  -26.6000  -34.8710   22.3950 O   0  0  0  0  0  0  0  0  0  0  0  0
  -25.0320  -34.1150   25.0160 H   0  0  0  0  0  0  0  0  0  0  0  0
  -24.2190  -36.7920   23.0870 C   0  0  0  0  0  1  0  0  0  0  0  0
  -25.4720  -36.3890   23.8820 C   0  0  0  0  0  3  0  0  0  0  0  0
  -27.6200  -37.2800   24.6740 C   0  0  0  0  0  1  0  0  0  0  0  0
  -26.5080  -37.4350   23.7380 N   0  0  0  0  0  0  0  0  0  0  0  0
  -26.1080  -38.3600   23.8720 H   0  0  0  0  0  0  0  0  0  0  0  0
  -26.4180  -31.7870   25.1910 C   0  0  1  0  0  0  0  0  0  0  0  0
  -25.3140  -31.5750   26.2540 C   0  0  0  0  0  1  0  0  0  0  0  0
  -26.9930  -30.3980   24.8280 C   0  0  0  0  0  1  0  0  0  0  0  0
  -27.5690  -32.5830   25.8480 C   0  0  0  0  0  1  0  0  0  0  0  0
  -30.1860  -17.8710   20.4690 C   0  0  0  0  0  2  0  0  0  0  0  0
  -29.6460  -16.3050   20.6800 C   0  0  0  0  0  2  0  0  0  0  0  0
  -30.5150  -14.9390   20.3810 C   0  0  0  0  0  0  0  0  0  0  0  0
  -30.3900  -12.6330   19.3600 C   0  0  0  0  0  2  0  0  0  0  0  0
  -29.4360  -12.6850   18.1420 C   0  0  0  0  0  2  0  0  0  0  0  0
  -27.9710  -12.4810   18.5790 C   0  0  0  0  0  2  0  0  0  0  0  0
  -27.5930  -13.3520   19.8040 C   0  0  0  0  0  3  0  0  0  0  0  0
  -28.6630  -13.2800   20.9140 C   0  0  0  0  0  2  0  0  0  0  0  0
  -29.9470  -13.6750   20.3230 N   0  0  0  0  0  0  0  0  0  0  0  0
  -31.7000  -15.0450   20.0490 O   0  0  0  0  0  0  0  0  0  0  0  0
  -25.2140  -13.9240   20.5660 C   0  0  0  0  0  0  0  0  0  0  0  0
  -24.1550  -13.1430   20.9360 C   0  0  0  0  0  0  0  0  0  0  0  0
  -24.6220  -11.7940   20.8890 C   0  0  0  0  0  0  0  0  0  0  0  0
  -26.2580  -13.0500   20.3090 N   0  0  0  0  0  0  0  0  0  0  0  0
  -25.9110  -11.7630   20.5700 N   0  0  0  0  0  0  0  0  0  0  0  0
  -23.9010  -10.5270   21.0710 C   0  0  0  0  0  0  0  0  0  0  0  0
  -24.3360   -9.5570   21.9990 C   0  0  0  0  0  3  0  0  0  0  0  0
  -23.6150   -8.3560   22.1700 C   0  0  0  0  0  3  0  0  0  0  0  0
  -22.4420   -8.1180   21.4130 C   0  0  0  0  0  0  0  0  0  0  0  0
  -22.0270   -9.0780   20.4740 C   0  0  0  0  0  3  0  0  0  0  0  0
  -22.7490  -10.2700   20.3010 C   0  0  0  0  0  3  0  0  0  0  0  0
  -21.6930   -6.9690   21.4940 O   0  0  0  0  0  0  0  0  0  0  0  0
  -21.6380   -6.2230   22.6440 C   0  0  0  0  0  0  0  0  0  0  0  0
  -21.1690   -6.7650   23.8620 C   0  0  0  0  0  3  0  0  0  0  0  0
  -21.0640   -5.9450   25.0030 C   0  0  0  0  0  3  0  0  0  0  0  0
  -21.4170   -4.5840   24.9280 C   0  0  0  0  0  0  0  0  0  0  0  0
  -21.8770   -4.0410   23.7150 C   0  0  0  0  0  3  0  0  0  0  0  0
  -21.9850   -4.8590   22.5760 C   0  0  0  0  0  0  0  0  0  0  0  0
  -22.4090   -4.3260   21.4050 F   0  0  0  0  0  0  0  0  0  0  0  0
  -21.3090   -3.7940   26.0210 F   0  0  0  0  0  0  0  0  0  0  0  0
  -22.7560  -13.6130   21.2190 C   0  0  0  0  0  0  0  0  0  0  0  0
  -22.0320  -12.9040   22.0760 N   0  0  0  0  0  0  0  0  0  0  0  0
  -22.3160  -14.6450   20.7130 O   0  0  0  0  0  0  0  0  0  0  0  0
  -22.4010  -12.0690   22.5070 H   0  0  0  0  0  0  0  0  0  0  0  0
  -21.0940  -13.2020   22.3070 H   0  0  0  0  0  0  0  0  0  0  0  0
  -25.3730  -15.2970   20.4020 N   0  0  0  0  0  0  0  0  0  0  0  0
  -24.6010  -15.9440   20.5230 H   0  0  0  0  0  0  0  0  0  0  0  0
  -26.2120  -15.7430   20.0570 H   0  0  0  0  0  0  0  0  0  0  0  0
  1  3  1  0
  2  1  1  0
  2  4  1  0
  3  5  1  0
  4  6  1  0
  5  8  1  0
  6  5  1  0
  6 52  1  0
  6  7  1  1
  8  9  1  0
 10 11  1  0
 10  9  2  0
 12 23  2  0
 13 11  1  0
 13 18  1  0
 14 22  1  0
 14 24  1  0
 15 21  1  0
 15 17  1  0
 16 22  1  0
 17 16  1  0
 18 17  2  0
 19 20  1  0
 19 13  2  0
 20 15  2  0
 21 14  1  0
 22 12  1  0
 24 26  2  0
 25 24  1  0
 27 25  1  0
 28 37  2  0
 28 33  1  0
 29 25  1  0
 29 33  1  0
 30 29  1  0
 31 32  1  0
 31 30  1  0
 32 28  1  0
 33 34  2  0
 34 35  1  0
 36 35  2  0
 37 36  1  0
 38 12  1  0
 38 39  1  0
 38 48  1  0
 39 42  1  0
 40 44  1  0
 40 39  1  0
 41 40  2  0
 44 43  1  0
 46 47  1  0
 46 44  1  0
 46 45  1  0
 48 51  1  1
 48 49  1  0
 50 48  1  0
 52 53  1  0
 54 53  1  0
 55 60  1  0
 56 57  1  0
 56 55  1  0
 58 57  1  0
 58 65  1  0
 58 59  1  0
 60 54  1  0
 60 59  1  0
 61 54  2  0
 62 63  2  0
 63 82  1  0
 64 63  1  0
 64 67  1  0
 65 62  1  0
 65 66  1  0
 66 64  2  0
 67 68  1  0
 68 69  2  0
 70 73  1  0
 70 69  1  0
 71 70  2  0
 72 71  1  0
 72 67  2  0
 73 74  1  0
 74 75  1  0
 75 76  2  0
 77 76  1  0
 77 81  1  0
 78 77  2  0
 79 74  2  0
 79 78  1  0
 80 79  1  0
 82 83  1  0
 83 86  1  0
 83 85  1  0
 84 82  2  0
 87 88  1  0
 87 62  1  0
 89 87  1  0
M  ISO  4  10 101  11 101  53 100  54 100
M  END
>  <TORSDO>  (62) 
F 21

>  <SCORE>  (62) 
-13.450

>  <name>  (62) 
61

>  <ligand_id>  (62) 
61

>  <original_smiles>  (62) 
[H]c1c([H])c([H])c2c(c1[H])C([H])([H])C([H])([H])C([H])([H])C2([H])N([H])C(=O)C1([H])N(C(=O)C([H])(N([H])C(=O)C([H])(N([H])C([H])([H])[H])C([H])([H])[H])C(C([H])([H])[H])(C([H])([H])[H])C([H])([H])[H])C([H])([H])c2c([H])c(OC([H])([H])C([H])([H])C([H])([H])C3([H])C([H])([H])C([H])([H])C([H])([H])C([H])([H])[N+]3([H])C([H])([H])C([H])([H])C(=O)N3C([H])([H])C([H])([H])C([H])([H])C([H])(n4nc(-c5c([H])c([H])c(Oc6c([H])c([H])c(F)c([H])c6F)c([H])c5[H])c(C(=O)N([H])[H])c4N([H])[H])C3([H])[H])c([H])c([H])c2C1([H])[H]

>  <smiles>  (62) 
[H]c1c([H])c([H])c2c(c1[H])C([H])([H])C([H])([H])C([H])([H])C2([H])N([H])C(=O)C1([H])N(C(=O)C([H])(N([H])C(=O)C([H])(N([H])C([H])([H])[H])C([H])([H])[H])C(C([H])([H])[H])(C([H])([H])[H])C([H])([H])[H])C([H])([H])c2c([H])c(OC([H])([H])C([H])([H])C([H])([H])C3([H])C([H])([H])C([H])([H])C([H])([H])C([H])([H])[N+]3([H])C([H])([H])C([H])([H])C(=O)N3C([H])([H])C([H])([H])C([H])([H])C([H])(n4nc(-c5c([H])c([H])c(Oc6c([H])c([H])c(F)c([H])c6F)c([H])c5[H])c(C(=O)N([H])[H])c4N([H])[H])C3([H])[H])c([H])c([H])c2C1([H])[H]

$$$$
62:0:0
     RDKit          3D

 96105  0  0  1  0  0  0  0  0999 V2000
  -31.5540  -22.4580   18.1220 C   0  0  0  0  0  2  0  0  0  0  0  0
  -31.5030  -23.7820   18.8970 C   0  0  0  0  0  2  0  0  0  0  0  0
  -30.1460  -21.8200   18.0030 C   0  0  0  0  0  2  0  0  0  0  0  0
  -30.7480  -23.6420   20.2420 C   0  0  0  0  0  2  0  0  0  0  0  0
  -29.3740  -21.7150   19.3500 C   0  0  0  0  0  3  0  0  0  0  0  0
  -29.3860  -23.0690   20.0640 N   0  0  2  0  0  4  0  0  0  0  0  0
  -29.1160  -22.8130   21.0050 H   0  0  0  0  0  0  0  0  0  0  0  0
  -29.9110  -20.4980   20.2380 C   0  0  0  0  0  2  0  0  0  0  0  0
  -30.2130  -17.9520   20.2440 C   0  0  0  0  0  0  0  0  0  0  0  0
  -29.5470  -19.0870   19.8680 N   0  0  0  0  0  0  0  0  0  0  0  0
  -31.4080  -17.9750   20.5360 O   0  0  0  0  0  0  0  0  0  0  0  0
  -28.5750  -18.9400   19.6350 H   0  0  0  0  0  0  0  0  0  0  0  0
  -30.7060  -14.4580   20.2320 C   0  0  0  0  0  0  0  0  0  0  0  0
  -30.4040  -12.3640   18.9110 C   0  0  0  0  0  2  0  0  0  0  0  0
  -29.4160  -12.5870   17.7460 C   0  0  0  0  0  2  0  0  0  0  0  0
  -27.9520  -12.4060   18.1960 C   0  0  0  0  0  2  0  0  0  0  0  0
  -27.6540  -13.1560   19.5220 C   0  0  0  0  0  3  0  0  0  0  0  0
  -28.7410  -12.8690   20.5770 C   0  0  0  0  0  2  0  0  0  0  0  0
  -30.0430  -13.2720   20.0240 N   0  0  0  0  0  0  0  0  0  0  0  0
  -31.7420  -14.7250   19.6180 O   0  0  0  0  0  0  0  0  0  0  0  0
  -29.1880  -16.6320   22.8700 C   0  0  0  0  0  2  0  0  0  0  0  0
  -28.3930  -16.9290   21.5990 C   0  0  0  0  0  2  0  0  0  0  0  0
  -30.0060  -15.3910   22.4640 C   0  0  0  0  0  2  0  0  0  0  0  0
  -29.3780  -16.6260   20.4530 C   0  0  0  0  0  3  0  0  0  0  0  0
  -30.0710  -15.4090   20.9860 N   0  0  0  0  0  0  0  0  0  0  0  0
  -25.2980  -13.7260   20.3820 C   0  0  0  0  0  0  0  0  0  0  0  0
  -24.2330  -12.9400   20.7330 C   0  0  0  0  0  0  0  0  0  0  0  0
  -24.6660  -11.5920   20.5650 C   0  0  0  0  0  0  0  0  0  0  0  0
  -26.3170  -12.8540   20.0350 N   0  0  0  0  0  0  0  0  0  0  0  0
  -25.9410  -11.5570   20.1980 N   0  0  0  0  0  0  0  0  0  0  0  0
  -23.9170  -10.3300   20.6850 C   0  0  0  0  0  0  0  0  0  0  0  0
  -24.4080   -9.2590   21.4650 C   0  0  0  0  0  3  0  0  0  0  0  0
  -23.6760   -8.0580   21.5690 C   0  0  0  0  0  3  0  0  0  0  0  0
  -22.4340   -7.9210   20.9060 C   0  0  0  0  0  0  0  0  0  0  0  0
  -21.9610   -8.9790   20.1110 C   0  0  0  0  0  3  0  0  0  0  0  0
  -22.6980  -10.1720   20.0010 C   0  0  0  0  0  3  0  0  0  0  0  0
  -21.6710   -6.7770   20.9340 O   0  0  0  0  0  0  0  0  0  0  0  0
  -21.7430   -5.8890   21.9770 C   0  0  0  0  0  0  0  0  0  0  0  0
  -21.5330   -6.2850   23.3140 C   0  0  0  0  0  3  0  0  0  0  0  0
  -21.5550   -5.3270   24.3470 C   0  0  0  0  0  3  0  0  0  0  0  0
  -21.7790   -3.9710   24.0420 C   0  0  0  0  0  0  0  0  0  0  0  0
  -21.9790   -3.5690   22.7110 C   0  0  0  0  0  3  0  0  0  0  0  0
  -21.9600   -4.5270   21.6780 C   0  0  0  0  0  0  0  0  0  0  0  0
  -22.1390   -4.1320   20.3960 F   0  0  0  0  0  0  0  0  0  0  0  0
  -21.7880   -3.0480   25.0310 F   0  0  0  0  0  0  0  0  0  0  0  0
  -22.8580  -13.4130   21.0980 C   0  0  0  0  0  0  0  0  0  0  0  0
  -22.1460  -12.6520   21.9210 N   0  0  0  0  0  0  0  0  0  0  0  0
  -22.4180  -14.4860   20.6850 O   0  0  0  0  0  0  0  0  0  0  0  0
  -22.5190  -11.7910   22.3010 H   0  0  0  0  0  0  0  0  0  0  0  0
  -21.2230  -12.9540   22.1900 H   0  0  0  0  0  0  0  0  0  0  0  0
  -25.4820  -15.1020   20.2980 N   0  0  0  0  0  0  0  0  0  0  0  0
  -24.7330  -15.7630   20.4640 H   0  0  0  0  0  0  0  0  0  0  0  0
  -26.2820  -15.5210   19.8410 H   0  0  0  0  0  0  0  0  0  0  0  0
  -28.2840  -24.0770   19.7520 C   0  0  0  0  0  2  0  0  0  0  0  0
  -28.6330  -25.5500   19.2800 C   0  0  0  0  0  2  0  0  0  0  0  0
  -28.4310  -26.6100   20.2410 O   0  0  0  0  0  0  0  0  0  0  0  0
  -24.7390  -31.8160   23.4090 C   0  0  0  0  0  0  0  0  0  0  0  0
  -27.2760  -27.3770   20.2140 C   0  0  0  0  0  0  0  0  0  0  0  0
  -23.5040  -30.4940   21.7200 C   0  0  0  0  0  3  0  0  0  0  0  0
  -24.9270  -28.9690   20.2500 C   0  0  0  0  0  0  0  0  0  0  0  0
  -26.0370  -30.7950   21.5400 C   0  0  0  0  0  2  0  0  0  0  0  0
  -26.0930  -29.4350   20.8680 C   0  0  0  0  0  0  0  0  0  0  0  0
  -27.2670  -28.6440   20.8520 C   0  0  0  0  0  3  0  0  0  0  0  0
  -26.0880  -26.9290   19.5960 C   0  0  0  0  0  3  0  0  0  0  0  0
  -24.9230  -27.7200   19.6050 C   0  0  0  0  0  3  0  0  0  0  0  0
  -23.6980  -29.8470   20.3220 C   0  0  0  0  0  2  0  0  0  0  0  0
  -24.7790  -31.0500   22.2820 N   0  0  0  0  0  0  0  0  0  0  0  0
  -23.6630  -32.1000   23.9510 O   0  0  0  0  0  0  0  0  0  0  0  0
  -22.8250  -29.4650   22.6510 C   0  0  0  0  0  0  0  0  0  0  0  0
  -21.4950  -29.3220   22.5200 N   0  0  0  0  0  0  0  0  0  0  0  0
  -23.4920  -28.7990   23.4480 O   0  0  0  0  0  0  0  0  0  0  0  0
  -21.0220  -29.9080   21.8460 H   0  0  0  0  0  0  0  0  0  0  0  0
  -18.0930  -28.1990   22.9730 C   0  0  0  0  0  0  0  0  0  0  0  0
  -20.6550  -28.3860   23.2630 C   0  0  0  0  0  3  0  0  0  0  0  0
  -20.7250  -26.9680   22.6510 C   0  0  0  0  0  2  0  0  0  0  0  0
  -19.6200  -26.6990   21.6240 C   0  0  0  0  0  2  0  0  0  0  0  0
  -18.2390  -26.8630   22.2640 C   0  0  0  0  0  2  0  0  0  0  0  0
  -19.2270  -28.9200   23.4280 C   0  0  0  0  0  0  0  0  0  0  0  0
  -19.0360  -30.1740   24.0500 C   0  0  0  0  0  3  0  0  0  0  0  0
  -17.7420  -30.7030   24.2210 C   0  0  0  0  0  3  0  0  0  0  0  0
  -16.6230  -29.9760   23.7810 C   0  0  0  0  0  3  0  0  0  0  0  0
  -16.7980  -28.7250   23.1630 C   0  0  0  0  0  3  0  0  0  0  0  0
  -26.0380  -32.3980   24.0530 C   0  0  0  0  0  3  0  0  0  0  0  0
  -26.5630  -31.5490   25.2750 C   0  0  1  0  0  0  0  0  0  0  0  0
  -25.4840  -31.2640   26.3460 C   0  0  0  0  0  1  0  0  0  0  0  0
  -27.1200  -30.1880   24.7960 C   0  0  0  0  0  1  0  0  0  0  0  0
  -27.7340  -32.2910   25.9650 C   0  0  0  0  0  1  0  0  0  0  0  0
  -25.7470  -33.7770   24.4640 N   0  0  0  0  0  0  0  0  0  0  0  0
  -26.0850  -34.8680   23.7610 C   0  0  0  0  0  0  0  0  0  0  0  0
  -26.7430  -34.8140   22.7170 O   0  0  0  0  0  0  0  0  0  0  0  0
  -25.1660  -33.8970   25.2810 H   0  0  0  0  0  0  0  0  0  0  0  0
  -24.3660  -36.6880   23.5300 C   0  0  0  0  0  1  0  0  0  0  0  0
  -25.6170  -36.2320   24.2970 C   0  0  0  0  0  3  0  0  0  0  0  0
  -27.7780  -37.0490   25.1290 C   0  0  0  0  0  1  0  0  0  0  0  0
  -26.6560  -37.2810   24.2230 N   0  0  0  0  0  0  0  0  0  0  0  0
  -26.2610  -38.1930   24.4360 H   0  0  0  0  0  0  0  0  0  0  0  0
  1  2  1  0
  2  4  1  0
  3  1  1  0
  3  5  1  0
  5  6  1  0
  5  8  1  0
  6  4  1  0
  6  7  1  1
  9 11  2  0
 10  8  1  0
 10  9  1  0
 12 10  1  0
 13 25  1  0
 14 19  1  0
 15 16  1  0
 15 14  1  0
 17 16  1  0
 17 29  1  0
 17 18  1  0
 19 13  1  0
 19 18  1  0
 20 13  2  0
 22 21  1  0
 23 21  1  0
 24  9  1  0
 24 25  1  0
 24 22  1  0
 25 23  1  0
 26 27  2  0
 27 46  1  0
 28 31  1  0
 28 27  1  0
 29 30  1  0
 29 26  1  0
 30 28  2  0
 31 32  1  0
 32 33  2  0
 34 37  1  0
 34 33  1  0
 35 34  2  0
 36 35  1  0
 36 31  2  0
 37 38  1  0
 38 39  1  0
 39 40  2  0
 41 40  1  0
 41 45  1  0
 42 41  2  0
 43 38  2  0
 43 42  1  0
 44 43  1  0
 46 47  1  0
 47 50  1  0
 47 49  1  0
 48 46  2  0
 51 26  1  0
 51 52  1  0
 53 51  1  0
 54  6  1  0
 55 54  1  0
 55 56  1  0
 57 68  2  0
 58 56  1  0
 58 63  1  0
 59 67  1  0
 59 69  1  0
 60 66  1  0
 60 62  1  0
 61 67  1  0
 62 61  1  0
 63 62  2  0
 64 65  1  0
 64 58  2  0
 65 60  2  0
 66 59  1  0
 67 57  1  0
 69 71  2  0
 70 69  1  0
 72 70  1  0
 73 82  2  0
 73 78  1  0
 74 70  1  0
 74 78  1  0
 75 74  1  0
 76 77  1  0
 76 75  1  0
 77 73  1  0
 78 79  2  0
 79 80  1  0
 81 80  2  0
 82 81  1  0
 83 57  1  0
 83 88  1  0
 83 84  1  0
 84 87  1  1
 84 85  1  0
 86 84  1  0
 88 91  1  0
 89 93  1  0
 89 88  1  0
 90 89  2  0
 93 92  1  0
 95 93  1  0
 95 96  1  0
 95 94  1  0
M  ISO  4  13 100  25 100  55 101  56 101
M  END
>  <TORSDO>  (63) 
F 20

>  <SCORE>  (63) 
-7.486

>  <name>  (63) 
62

>  <ligand_id>  (63) 
62

>  <original_smiles>  (63) 
[H]c1c([H])c([H])c2c(c1[H])C([H])([H])C([H])([H])C([H])([H])C2([H])N([H])C(=O)C1([H])N(C(=O)C([H])(N([H])C(=O)C([H])(N([H])C([H])([H])[H])C([H])([H])[H])C(C([H])([H])[H])(C([H])([H])[H])C([H])([H])[H])C([H])([H])c2c([H])c(OC([H])([H])C([H])([H])[N+]3([H])C([H])([H])C([H])([H])C([H])([H])C([H])([H])C3([H])C([H])([H])N([H])C(=O)C3([H])N(C(=O)N4C([H])([H])C([H])([H])C([H])([H])C([H])(n5nc(-c6c([H])c([H])c(Oc7c([H])c([H])c(F)c([H])c7F)c([H])c6[H])c(C(=O)N([H])[H])c5N([H])[H])C4([H])[H])C([H])([H])C([H])([H])C3([H])[H])c([H])c([H])c2C1([H])[H]

>  <smiles>  (63) 
[H]c1c([H])c([H])c2c(c1[H])C([H])([H])C([H])([H])C([H])([H])C2([H])N([H])C(=O)C1([H])N(C(=O)C([H])(N([H])C(=O)C([H])(N([H])C([H])([H])[H])C([H])([H])[H])C(C([H])([H])[H])(C([H])([H])[H])C([H])([H])[H])C([H])([H])c2c([H])c(OC([H])([H])C([H])([H])[N+]3([H])C([H])([H])C([H])([H])C([H])([H])C([H])([H])C3([H])C([H])([H])N([H])C(=O)C3([H])N(C(=O)N4C([H])([H])C([H])([H])C([H])([H])C([H])(n5nc(-c6c([H])c([H])c(Oc7c([H])c([H])c(F)c([H])c7F)c([H])c6[H])c(C(=O)N([H])[H])c5N([H])[H])C4([H])[H])C([H])([H])C([H])([H])C3([H])[H])c([H])c([H])c2C1([H])[H]

$$$$
63:0:0
     RDKit          3D

 98107  0  0  1  0  0  0  0  0999 V2000
  -29.6280  -22.7830   21.6650 C   0  0  0  0  0  2  0  0  0  0  0  0
  -29.8720  -22.6440   19.1970 C   0  0  0  0  0  2  0  0  0  0  0  0
  -30.2790  -24.1810   21.6380 C   0  0  0  0  0  2  0  0  0  0  0  0
  -30.5890  -24.0010   19.1840 C   0  0  0  0  0  2  0  0  0  0  0  0
  -30.1530  -21.9010   20.5200 C   0  0  0  0  0  3  0  0  0  0  0  0
  -30.1210  -24.8390   20.3130 N   0  0  2  0  0  4  0  0  0  0  0  0
  -29.1260  -24.9550   20.1600 H   0  0  0  0  0  0  0  0  0  0  0  0
  -29.5470  -20.4800   20.5390 C   0  0  0  0  0  2  0  0  0  0  0  0
  -31.2550  -19.5680   18.8550 C   0  0  0  0  0  2  0  0  0  0  0  0
  -29.8200  -17.9880   20.3240 C   0  0  0  0  0  2  0  0  0  0  0  0
  -32.4130  -18.6080   18.5500 C   0  0  0  0  0  2  0  0  0  0  0  0
  -30.9230  -16.5550   18.4990 C   0  0  0  0  0  2  0  0  0  0  0  0
  -30.5480  -19.3460   20.2130 C   0  0  0  0  0  3  0  0  0  0  0  0
  -30.7080  -16.7660   20.0320 C   0  0  0  0  0  3  0  0  0  0  0  0
  -31.9810  -17.3710   17.8710 N   0  0  0  0  0  4  0  0  0  0  0  0
  -32.7970  -16.7870   17.7850 H   0  0  0  0  0  0  0  0  0  0  0  0
  -31.6950  -17.5880   16.9290 H   0  0  0  0  0  0  0  0  0  0  0  0
  -30.8090  -14.4220   20.6670 C   0  0  0  0  0  0  0  0  0  0  0  0
  -30.4620  -12.2770   19.5750 C   0  0  0  0  0  2  0  0  0  0  0  0
  -29.5860  -12.5100   18.3290 C   0  0  0  0  0  2  0  0  0  0  0  0
  -28.0950  -12.4050   18.6970 C   0  0  0  0  0  2  0  0  0  0  0  0
  -27.7130  -13.2680   19.9300 C   0  0  0  0  0  3  0  0  0  0  0  0
  -28.7210  -13.0810   21.0890 C   0  0  0  0  0  2  0  0  0  0  0  0
  -30.0750  -13.2910   20.5610 N   0  0  0  0  0  0  0  0  0  0  0  0
  -32.0150  -14.4730   20.4290 O   0  0  0  0  0  0  0  0  0  0  0  0
  -30.1010  -15.5550   20.6060 N   0  0  0  0  0  0  0  0  0  0  0  0
  -29.1000  -15.5010   20.7030 H   0  0  0  0  0  0  0  0  0  0  0  0
  -25.2880  -13.8940   20.5260 C   0  0  0  0  0  0  0  0  0  0  0  0
  -24.2030  -13.1280   20.8610 C   0  0  0  0  0  0  0  0  0  0  0  0
  -24.6640  -11.7760   20.8790 C   0  0  0  0  0  0  0  0  0  0  0  0
  -26.3410  -13.0070   20.3600 N   0  0  0  0  0  0  0  0  0  0  0  0
  -25.9670  -11.7310   20.6320 N   0  0  0  0  0  0  0  0  0  0  0  0
  -23.9290  -10.5180   21.0600 C   0  0  0  0  0  0  0  0  0  0  0  0
  -24.3280   -9.5610   22.0200 C   0  0  0  0  0  3  0  0  0  0  0  0
  -23.5940   -8.3670   22.1880 C   0  0  0  0  0  3  0  0  0  0  0  0
  -22.4480   -8.1220   21.3950 C   0  0  0  0  0  0  0  0  0  0  0  0
  -22.0700   -9.0660   20.4250 C   0  0  0  0  0  3  0  0  0  0  0  0
  -22.8040  -10.2510   20.2550 C   0  0  0  0  0  3  0  0  0  0  0  0
  -21.6860   -6.9810   21.4730 O   0  0  0  0  0  0  0  0  0  0  0  0
  -21.6030   -6.2480   22.6280 C   0  0  0  0  0  0  0  0  0  0  0  0
  -21.1440   -6.8140   23.8390 C   0  0  0  0  0  3  0  0  0  0  0  0
  -21.0090   -6.0060   24.9860 C   0  0  0  0  0  3  0  0  0  0  0  0
  -21.3220   -4.6350   24.9230 C   0  0  0  0  0  0  0  0  0  0  0  0
  -21.7720   -4.0690   23.7180 C   0  0  0  0  0  3  0  0  0  0  0  0
  -21.9110   -4.8740   22.5730 C   0  0  0  0  0  0  0  0  0  0  0  0
  -22.3250   -4.3200   21.4090 F   0  0  0  0  0  0  0  0  0  0  0  0
  -21.1850   -3.8580   26.0230 F   0  0  0  0  0  0  0  0  0  0  0  0
  -22.7950  -13.6100   21.0600 C   0  0  0  0  0  0  0  0  0  0  0  0
  -22.0270  -12.9300   21.9030 N   0  0  0  0  0  0  0  0  0  0  0  0
  -22.3840  -14.6260   20.5010 O   0  0  0  0  0  0  0  0  0  0  0  0
  -22.3680  -12.1050   22.3730 H   0  0  0  0  0  0  0  0  0  0  0  0
  -21.0820  -13.2400   22.0840 H   0  0  0  0  0  0  0  0  0  0  0  0
  -25.4580  -15.2600   20.3290 N   0  0  0  0  0  0  0  0  0  0  0  0
  -24.6810  -15.9090   20.3910 H   0  0  0  0  0  0  0  0  0  0  0  0
  -26.3150  -15.7010   20.0230 H   0  0  0  0  0  0  0  0  0  0  0  0
  -30.6380  -26.2290   20.2670 C   0  0  0  0  0  2  0  0  0  0  0  0
  -29.5500  -27.1960   20.7340 C   0  0  0  0  0  2  0  0  0  0  0  0
  -28.3710  -26.7570   20.0670 O   0  0  0  0  0  0  0  0  0  0  0  0
  -24.5690  -31.9130   23.2330 C   0  0  0  0  0  0  0  0  0  0  0  0
  -27.2300  -27.5130   20.1590 C   0  0  0  0  0  0  0  0  0  0  0  0
  -23.3570  -30.5050   21.5960 C   0  0  0  0  0  3  0  0  0  0  0  0
  -24.8120  -28.9670   20.1750 C   0  0  0  0  0  0  0  0  0  0  0  0
  -25.8740  -30.8810   21.3880 C   0  0  0  0  0  2  0  0  0  0  0  0
  -25.9610  -29.5080   20.7640 C   0  0  0  0  0  0  0  0  0  0  0  0
  -27.1690  -28.7870   20.7680 C   0  0  0  0  0  3  0  0  0  0  0  0
  -26.0640  -26.9730   19.5790 C   0  0  0  0  0  3  0  0  0  0  0  0
  -24.8540  -27.6920   19.5840 C   0  0  0  0  0  3  0  0  0  0  0  0
  -23.5640  -29.8190   20.2170 C   0  0  0  0  0  2  0  0  0  0  0  0
  -24.6180  -31.1130   22.1310 N   0  0  0  0  0  0  0  0  0  0  0  0
  -23.4920  -32.1840   23.7780 O   0  0  0  0  0  0  0  0  0  0  0  0
  -22.7160  -29.4820   22.5600 C   0  0  0  0  0  0  0  0  0  0  0  0
  -21.3910  -29.3030   22.4390 N   0  0  0  0  0  0  0  0  0  0  0  0
  -23.4040  -28.8560   23.3700 O   0  0  0  0  0  0  0  0  0  0  0  0
  -20.8980  -29.8600   21.7560 H   0  0  0  0  0  0  0  0  0  0  0  0
  -18.0140  -28.1320   22.9560 C   0  0  0  0  0  0  0  0  0  0  0  0
  -20.5750  -28.3700   23.2140 C   0  0  0  0  0  3  0  0  0  0  0  0
  -20.6650  -26.9390   22.6340 C   0  0  0  0  0  2  0  0  0  0  0  0
  -19.5540  -26.6260   21.6260 C   0  0  0  0  0  2  0  0  0  0  0  0
  -18.1770  -26.7810   22.2790 C   0  0  0  0  0  2  0  0  0  0  0  0
  -19.1420  -28.8840   23.3810 C   0  0  0  0  0  0  0  0  0  0  0  0
  -18.9380  -30.1490   23.9720 C   0  0  0  0  0  3  0  0  0  0  0  0
  -17.6380  -30.6630   24.1460 C   0  0  0  0  0  3  0  0  0  0  0  0
  -16.5250  -29.9060   23.7380 C   0  0  0  0  0  3  0  0  0  0  0  0
  -16.7150  -28.6440   23.1490 C   0  0  0  0  0  3  0  0  0  0  0  0
  -25.8610  -32.5430   23.8470 C   0  0  0  0  0  3  0  0  0  0  0  0
  -26.3880  -31.7710   25.1170 C   0  0  1  0  0  0  0  0  0  0  0  0
  -25.3030  -31.5300   26.1930 C   0  0  0  0  0  1  0  0  0  0  0  0
  -26.9680  -30.3940   24.7170 C   0  0  0  0  0  1  0  0  0  0  0  0
  -27.5420  -32.5640   25.7740 C   0  0  0  0  0  1  0  0  0  0  0  0
  -25.5570  -33.9420   24.1750 N   0  0  0  0  0  0  0  0  0  0  0  0
  -25.8980  -34.9920   23.4150 C   0  0  0  0  0  0  0  0  0  0  0  0
  -26.5730  -34.8850   22.3870 O   0  0  0  0  0  0  0  0  0  0  0  0
  -24.9610  -34.1010   24.9740 H   0  0  0  0  0  0  0  0  0  0  0  0
  -24.1830  -36.7880   23.0330 C   0  0  0  0  0  1  0  0  0  0  0  0
  -25.4090  -36.3810   23.8650 C   0  0  0  0  0  3  0  0  0  0  0  0
  -27.5370  -37.2500   24.7280 C   0  0  0  0  0  1  0  0  0  0  0  0
  -26.4470  -37.4320   23.7720 N   0  0  0  0  0  0  0  0  0  0  0  0
  -26.0440  -38.3520   23.9240 H   0  0  0  0  0  0  0  0  0  0  0  0
  2  5  1  0
  3  1  1  0
  4  2  1  0
  4  6  1  0
  5  8  1  0
  5  1  1  0
  6  3  1  0
  6  7  1  6
  9 13  1  0
 11  9  1  0
 12 14  1  0
 13 10  1  0
 13  8  1  0
 14 10  1  0
 14 26  1  0
 15 12  1  0
 15 11  1  0
 16 15  1  0
 17 15  1  0
 19 24  1  0
 20 21  1  0
 20 19  1  0
 22 21  1  0
 22 31  1  0
 22 23  1  0
 24 18  1  0
 24 23  1  0
 25 18  2  0
 26 18  1  0
 26 27  1  0
 28 29  2  0
 29 30  1  0
 29 48  1  0
 30 33  1  0
 31 28  1  0
 31 32  1  0
 32 30  2  0
 33 34  1  0
 34 35  2  0
 36 39  1  0
 36 35  1  0
 37 36  2  0
 38 37  1  0
 38 33  2  0
 39 40  1  0
 40 41  1  0
 41 42  2  0
 43 42  1  0
 43 47  1  0
 44 43  2  0
 45 40  2  0
 45 44  1  0
 46 45  1  0
 48 49  1  0
 49 52  1  0
 49 51  1  0
 50 48  2  0
 53 54  1  0
 53 28  1  0
 55 53  1  0
 56  6  1  0
 56 57  1  0
 58 60  1  0
 58 57  1  0
 59 70  2  0
 60 65  1  0
 61 69  1  0
 61 71  1  0
 62 68  1  0
 62 64  1  0
 63 69  1  0
 64 65  2  0
 64 63  1  0
 66 67  1  0
 66 60  2  0
 67 62  2  0
 68 61  1  0
 69 59  1  0
 71 73  2  0
 72 71  1  0
 74 72  1  0
 75 84  2  0
 75 80  1  0
 76 72  1  0
 76 80  1  0
 77 76  1  0
 78 79  1  0
 78 77  1  0
 79 75  1  0
 80 81  2  0
 81 82  1  0
 83 82  2  0
 84 83  1  0
 85 59  1  0
 85 90  1  0
 85 86  1  0
 86 89  1  1
 86 87  1  0
 88 86  1  0
 90 93  1  0
 91 95  1  0
 91 90  1  0
 92 91  2  0
 95 94  1  0
 97 95  1  0
 97 98  1  0
 97 96  1  0
M  ISO  4  18 100  26 100  57 101  58 101
M  END
>  <TORSDO>  (64) 
F 20

>  <SCORE>  (64) 
-13.979

>  <name>  (64) 
63

>  <ligand_id>  (64) 
63

>  <original_smiles>  (64) 
[H]c1c([H])c([H])c2c(c1[H])C([H])([H])C([H])([H])C([H])([H])C2([H])N([H])C(=O)C1([H])N(C(=O)C([H])(N([H])C(=O)C([H])(N([H])C([H])([H])[H])C([H])([H])[H])C(C([H])([H])[H])(C([H])([H])[H])C([H])([H])[H])C([H])([H])c2c([H])c(OC([H])([H])C([H])([H])[N+]3([H])C([H])([H])C([H])([H])C([H])(C([H])([H])C4([H])C([H])([H])C([H])(N([H])C(=O)N5C([H])([H])C([H])([H])C([H])([H])C([H])(n6nc(-c7c([H])c([H])c(Oc8c([H])c([H])c(F)c([H])c8F)c([H])c7[H])c(C(=O)N([H])[H])c6N([H])[H])C5([H])[H])C([H])([H])[N+]([H])([H])C([H])([H])C4([H])[H])C([H])([H])C3([H])[H])c([H])c([H])c2C1([H])[H]

>  <smiles>  (64) 
[H]c1c([H])c([H])c2c(c1[H])C([H])([H])C([H])([H])C([H])([H])C2([H])N([H])C(=O)C1([H])N(C(=O)C([H])(N([H])C(=O)C([H])(N([H])C([H])([H])[H])C([H])([H])[H])C(C([H])([H])[H])(C([H])([H])[H])C([H])([H])[H])C([H])([H])c2c([H])c(OC([H])([H])C([H])([H])[N+]3([H])C([H])([H])C([H])([H])C([H])(C([H])([H])C4([H])C([H])([H])C([H])(N([H])C(=O)N5C([H])([H])C([H])([H])C([H])([H])C([H])(n6nc(-c7c([H])c([H])c(Oc8c([H])c([H])c(F)c([H])c8F)c([H])c7[H])c(C(=O)N([H])[H])c6N([H])[H])C5([H])[H])C([H])([H])[N+]([H])([H])C([H])([H])C4([H])[H])C([H])([H])C3([H])[H])c([H])c([H])c2C1([H])[H]

$$$$
64:0:0
     RDKit          3D

 97106  0  0  1  0  0  0  0  0999 V2000
  -30.9660  -21.4800   19.0670 C   0  0  0  0  0  2  0  0  0  0  0  0
  -31.3550  -23.9580   19.4210 C   0  0  0  0  0  2  0  0  0  0  0  0
  -29.4050  -23.1930   18.0200 C   0  0  0  0  0  2  0  0  0  0  0  0
  -30.6790  -25.3140   19.6540 C   0  0  0  0  0  2  0  0  0  0  0  0
  -28.7030  -24.5360   18.2330 C   0  0  0  0  0  2  0  0  0  0  0  0
  -30.3020  -22.8510   19.2290 C   0  0  0  0  0  3  0  0  0  0  0  0
  -29.7030  -25.6760   18.5160 C   0  0  0  0  0  3  0  0  0  0  0  0
  -28.9600  -26.9770   18.8310 C   0  0  0  0  0  2  0  0  0  0  0  0
  -28.2270  -26.7690   20.0310 O   0  0  0  0  0  0  0  0  0  0  0  0
  -24.5110  -31.8670   23.2500 C   0  0  0  0  0  0  0  0  0  0  0  0
  -27.0610  -27.4740   20.0870 C   0  0  0  0  0  0  0  0  0  0  0  0
  -23.2570  -30.4840   21.6220 C   0  0  0  0  0  3  0  0  0  0  0  0
  -24.6700  -28.9430   20.1650 C   0  0  0  0  0  0  0  0  0  0  0  0
  -25.7740  -30.8390   21.3710 C   0  0  0  0  0  2  0  0  0  0  0  0
  -25.8370  -29.4720   20.7310 C   0  0  0  0  0  0  0  0  0  0  0  0
  -27.0370  -28.7380   20.7000 C   0  0  0  0  0  3  0  0  0  0  0  0
  -25.8840  -26.9330   19.5310 C   0  0  0  0  0  3  0  0  0  0  0  0
  -24.6840  -27.6690   19.5670 C   0  0  0  0  0  3  0  0  0  0  0  0
  -23.4310  -29.8060   20.2360 C   0  0  0  0  0  2  0  0  0  0  0  0
  -24.5340  -31.0770   22.1400 N   0  0  0  0  0  0  0  0  0  0  0  0
  -23.4450  -32.1450   23.8150 O   0  0  0  0  0  0  0  0  0  0  0  0
  -22.6200  -29.4640   22.5900 C   0  0  0  0  0  0  0  0  0  0  0  0
  -21.2960  -29.2750   22.4700 N   0  0  0  0  0  0  0  0  0  0  0  0
  -23.3110  -28.8430   23.4020 O   0  0  0  0  0  0  0  0  0  0  0  0
  -20.7990  -29.8290   21.7860 H   0  0  0  0  0  0  0  0  0  0  0  0
  -17.9370  -28.0450   22.9550 C   0  0  0  0  0  0  0  0  0  0  0  0
  -20.4880  -28.3370   23.2460 C   0  0  0  0  0  3  0  0  0  0  0  0
  -20.6140  -26.9010   22.6890 C   0  0  0  0  0  2  0  0  0  0  0  0
  -19.5240  -26.5500   21.6700 C   0  0  0  0  0  2  0  0  0  0  0  0
  -18.1340  -26.6880   22.3000 C   0  0  0  0  0  2  0  0  0  0  0  0
  -19.0420  -28.8250   23.3840 C   0  0  0  0  0  0  0  0  0  0  0  0
  -18.8050  -30.0940   23.9570 C   0  0  0  0  0  3  0  0  0  0  0  0
  -17.4940  -30.5830   24.1010 C   0  0  0  0  0  3  0  0  0  0  0  0
  -16.4010  -29.8010   23.6890 C   0  0  0  0  0  3  0  0  0  0  0  0
  -16.6230  -28.5330   23.1220 C   0  0  0  0  0  3  0  0  0  0  0  0
  -25.8180  -32.4790   23.8470 C   0  0  0  0  0  3  0  0  0  0  0  0
  -26.3510  -31.6990   25.1090 C   0  0  1  0  0  0  0  0  0  0  0  0
  -25.2760  -31.4670   26.1970 C   0  0  0  0  0  1  0  0  0  0  0  0
  -26.9100  -30.3160   24.6990 C   0  0  0  0  0  1  0  0  0  0  0  0
  -27.5210  -32.4780   25.7530 C   0  0  0  0  0  1  0  0  0  0  0  0
  -25.5340  -33.8810   24.1800 N   0  0  0  0  0  0  0  0  0  0  0  0
  -25.8760  -34.9280   23.4170 C   0  0  0  0  0  0  0  0  0  0  0  0
  -26.5360  -34.8130   22.3800 O   0  0  0  0  0  0  0  0  0  0  0  0
  -24.9430  -34.0450   24.9830 H   0  0  0  0  0  0  0  0  0  0  0  0
  -24.1790  -36.7500   23.0650 C   0  0  0  0  0  1  0  0  0  0  0  0
  -25.4130  -36.3240   23.8760 C   0  0  0  0  0  3  0  0  0  0  0  0
  -27.5590  -37.1660   24.7160 C   0  0  0  0  0  1  0  0  0  0  0  0
  -26.4630  -37.3590   23.7690 N   0  0  0  0  0  0  0  0  0  0  0  0
  -26.0740  -38.2850   23.9220 H   0  0  0  0  0  0  0  0  0  0  0  0
  -29.9890  -20.3800   19.2130 N   0  0  0  0  0  4  0  0  0  0  0  0
  -29.7220  -20.3310   20.1850 H   0  0  0  0  0  0  0  0  0  0  0  0
  -29.1610  -20.5810   18.6780 H   0  0  0  0  0  0  0  0  0  0  0  0
  -32.0260  -16.9240   17.3690 C   0  0  0  0  0  2  0  0  0  0  0  0
  -31.3670  -18.0400   16.5480 C   0  0  0  0  0  2  0  0  0  0  0  0
  -31.0680  -16.0850   18.2240 C   0  0  0  0  0  2  0  0  0  0  0  0
  -30.2950  -18.8700   17.2730 C   0  0  0  0  0  2  0  0  0  0  0  0
  -29.9100  -17.9280   19.6260 C   0  0  0  0  0  2  0  0  0  0  0  0
  -30.7870  -16.6640   19.6380 C   0  0  0  0  0  3  0  0  0  0  0  0
  -30.5270  -19.0740   18.7910 C   0  0  0  0  0  3  0  0  0  0  0  0
  -30.9320  -14.5690   20.9150 C   0  0  0  0  0  0  0  0  0  0  0  0
  -30.6930  -12.3420   19.9850 C   0  0  0  0  0  2  0  0  0  0  0  0
  -29.8820  -12.4730   18.6790 C   0  0  0  0  0  2  0  0  0  0  0  0
  -28.3700  -12.3960   18.9640 C   0  0  0  0  0  2  0  0  0  0  0  0
  -27.9140  -13.3150   20.1310 C   0  0  0  0  0  3  0  0  0  0  0  0
  -28.8620  -13.2080   21.3490 C   0  0  0  0  0  2  0  0  0  0  0  0
  -30.2410  -13.4080   20.8840 N   0  0  0  0  0  0  0  0  0  0  0  0
  -32.1590  -14.6370   20.8580 O   0  0  0  0  0  0  0  0  0  0  0  0
  -30.2090  -15.6200   20.4990 N   0  0  0  0  0  0  0  0  0  0  0  0
  -29.2090  -15.4990   20.4860 H   0  0  0  0  0  0  0  0  0  0  0  0
  -25.4650  -13.9460   20.5990 C   0  0  0  0  0  0  0  0  0  0  0  0
  -24.3640  -13.1840   20.8870 C   0  0  0  0  0  0  0  0  0  0  0  0
  -24.8230  -11.8320   20.9440 C   0  0  0  0  0  0  0  0  0  0  0  0
  -26.5250  -13.0570   20.4970 N   0  0  0  0  0  0  0  0  0  0  0  0
  -26.1380  -11.7850   20.7670 N   0  0  0  0  0  0  0  0  0  0  0  0
  -24.0810  -10.5760   21.1010 C   0  0  0  0  0  0  0  0  0  0  0  0
  -24.4460   -9.6180   22.0730 C   0  0  0  0  0  3  0  0  0  0  0  0
  -23.7050   -8.4260   22.2150 C   0  0  0  0  0  3  0  0  0  0  0  0
  -22.5860   -8.1820   21.3850 C   0  0  0  0  0  0  0  0  0  0  0  0
  -22.2410   -9.1280   20.4040 C   0  0  0  0  0  3  0  0  0  0  0  0
  -22.9810  -10.3120   20.2590 C   0  0  0  0  0  3  0  0  0  0  0  0
  -21.8220   -7.0400   21.4360 O   0  0  0  0  0  0  0  0  0  0  0  0
  -21.7110   -6.2980   22.5840 C   0  0  0  0  0  0  0  0  0  0  0  0
  -21.2220   -6.8550   23.7860 C   0  0  0  0  0  3  0  0  0  0  0  0
  -21.0600   -6.0390   24.9250 C   0  0  0  0  0  3  0  0  0  0  0  0
  -21.3770   -4.6700   24.8610 C   0  0  0  0  0  0  0  0  0  0  0  0
  -21.8590   -4.1130   23.6630 C   0  0  0  0  0  3  0  0  0  0  0  0
  -22.0230   -4.9250   22.5280 C   0  0  0  0  0  0  0  0  0  0  0  0
  -22.4680   -4.3800   21.3690 F   0  0  0  0  0  0  0  0  0  0  0  0
  -21.2140   -3.8840   25.9510 F   0  0  0  0  0  0  0  0  0  0  0  0
  -22.9490  -13.6690   21.0040 C   0  0  0  0  0  0  0  0  0  0  0  0
  -22.1410  -13.0100   21.8270 N   0  0  0  0  0  0  0  0  0  0  0  0
  -22.5630  -14.6690   20.3980 O   0  0  0  0  0  0  0  0  0  0  0  0
  -22.4630  -12.2010   22.3380 H   0  0  0  0  0  0  0  0  0  0  0  0
  -21.1870  -13.3170   21.9470 H   0  0  0  0  0  0  0  0  0  0  0  0
  -25.6490  -15.3100   20.3950 N   0  0  0  0  0  0  0  0  0  0  0  0
  -24.8730  -15.9640   20.4050 H   0  0  0  0  0  0  0  0  0  0  0  0
  -26.5260  -15.7430   20.1340 H   0  0  0  0  0  0  0  0  0  0  0  0
  1 50  1  0
  2  4  1  0
  3  5  1  0
  3  6  1  0
  5  7  1  0
  6  1  1  0
  6  2  1  0
  7  8  1  0
  7  4  1  0
  8  9  1  0
  9 11  1  0
 10 21  2  0
 11 16  1  0
 12 20  1  0
 12 22  1  0
 13 19  1  0
 13 15  1  0
 14 20  1  0
 15 14  1  0
 16 15  2  0
 17 18  1  0
 17 11  2  0
 18 13  2  0
 19 12  1  0
 20 10  1  0
 22 24  2  0
 23 22  1  0
 25 23  1  0
 26 35  2  0
 26 31  1  0
 27 23  1  0
 27 31  1  0
 28 27  1  0
 29 30  1  0
 29 28  1  0
 30 26  1  0
 31 32  2  0
 32 33  1  0
 34 33  2  0
 35 34  1  0
 36 10  1  0
 36 41  1  0
 36 37  1  0
 37 40  1  1
 37 38  1  0
 39 37  1  0
 41 44  1  0
 42 46  1  0
 42 41  1  0
 43 42  2  0
 46 45  1  0
 48 46  1  0
 48 49  1  0
 48 47  1  0
 50 51  1  0
 52 50  1  0
 53 55  1  0
 54 56  1  0
 54 53  1  0
 55 58  1  0
 56 59  1  0
 57 58  1  0
 58 68  1  0
 59 50  1  0
 59 57  1  0
 61 66  1  0
 62 63  1  0
 62 61  1  0
 64 63  1  0
 64 73  1  0
 64 65  1  0
 66 60  1  0
 66 65  1  0
 67 60  2  0
 68 60  1  0
 69 68  1  0
 70 71  2  0
 71 72  1  0
 71 90  1  0
 72 75  1  0
 73 70  1  0
 73 74  1  0
 74 72  2  0
 75 76  1  0
 76 77  2  0
 78 81  1  0
 78 77  1  0
 79 78  2  0
 80 79  1  0
 80 75  2  0
 81 82  1  0
 82 83  1  0
 83 84  2  0
 85 84  1  0
 85 89  1  0
 86 85  2  0
 87 82  2  0
 87 86  1  0
 88 87  1  0
 90 91  1  0
 91 94  1  0
 91 93  1  0
 92 90  2  0
 95 96  1  0
 95 70  1  0
 97 95  1  0
M  ISO  4   8 101   9 101  60 100  68 100
M  END
>  <TORSDO>  (65) 
F 20

>  <SCORE>  (65) 
-13.420

>  <name>  (65) 
64

>  <ligand_id>  (65) 
64

>  <original_smiles>  (65) 
[H]c1c([H])c([H])c2c(c1[H])C([H])([H])C([H])([H])C([H])([H])C2([H])N([H])C(=O)C1([H])N(C(=O)C([H])(N([H])C(=O)C([H])(N([H])C([H])([H])[H])C([H])([H])[H])C(C([H])([H])[H])(C([H])([H])[H])C([H])([H])[H])C([H])([H])c2c([H])c(OC([H])([H])C3([H])C([H])([H])C([H])([H])C([H])(C([H])([H])[N+]([H])([H])C4([H])C([H])([H])C([H])([H])C([H])([H])C([H])([H])C([H])(N([H])C(=O)N5C([H])([H])C([H])([H])C([H])([H])C([H])(n6nc(-c7c([H])c([H])c(Oc8c([H])c([H])c(F)c([H])c8F)c([H])c7[H])c(C(=O)N([H])[H])c6N([H])[H])C5([H])[H])C4([H])[H])C([H])([H])C3([H])[H])c([H])c([H])c2C1([H])[H]

>  <smiles>  (65) 
[H]c1c([H])c([H])c2c(c1[H])C([H])([H])C([H])([H])C([H])([H])C2([H])N([H])C(=O)C1([H])N(C(=O)C([H])(N([H])C(=O)C([H])(N([H])C([H])([H])[H])C([H])([H])[H])C(C([H])([H])[H])(C([H])([H])[H])C([H])([H])[H])C([H])([H])c2c([H])c(OC([H])([H])C3([H])C([H])([H])C([H])([H])C([H])(C([H])([H])[N+]([H])([H])C4([H])C([H])([H])C([H])([H])C([H])([H])C([H])([H])C([H])(N([H])C(=O)N5C([H])([H])C([H])([H])C([H])([H])C([H])(n6nc(-c7c([H])c([H])c(Oc8c([H])c([H])c(F)c([H])c8F)c([H])c7[H])c(C(=O)N([H])[H])c6N([H])[H])C5([H])[H])C4([H])[H])C([H])([H])C3([H])[H])c([H])c([H])c2C1([H])[H]

$$$$
65:0:0
     RDKit          3D

 97 96  0  0  1  0  0  0  0  0999 V2000
  -18.9090  -28.7750   21.9100 C   0  0  0  0  0  1  0  0  0  0  0  0
  -20.3580  -28.7760   20.6170 C   0  0  0  0  0  3  0  0  0  0  0  0
  -20.5920  -25.1650   21.4580 C   0  0  0  0  0  1  0  0  0  0  0  0
  -19.1000  -25.6650   22.6330 C   0  0  0  0  0  2  0  0  0  0  0  0
  -21.4010  -26.5710   20.3200 C   0  0  0  0  0 15  0  0  0  0  0  0
  -17.9960  -24.6460   22.6550 N   0  0  0  0  0  4  0  0  0  0  0  0
  -17.1790  -25.0400   22.2200 H   0  0  0  0  0  0  0  0  0  0  0  0
  -17.7630  -24.4390   23.6110 H   0  0  0  0  0  0  0  0  0  0  0  0
  -18.2610  -23.8050   22.1780 H   0  0  0  0  0  0  0  0  0  0  0  0
  -22.9480  -25.6030   18.9880 N   0  0  0  0  0  2  0  0  0  0  0  0
  -22.4950  -24.7360   18.7510 H   0  0  0  0  0  0  0  0  0  0  0  0
  -23.5790  -25.3600   19.7320 H   0  0  0  0  0  0  0  0  0  0  0  0
  -24.4360  -25.7020   17.4850 C   0  0  0  0  0 15  0  0  0  0  0  0
  -26.5130  -25.0450   16.4270 C   0  0  0  0  0  3  0  0  0  0  0  0
  -28.2110  -25.0210   14.7040 C   0  0  0  0  0 15  0  0  0  0  0  0
  -31.6480  -24.6150   12.8120 C   0  0  0  0  0  0  0  0  0  0  0  0
  -33.4170  -24.5860   10.4700 C   0  0  0  0  0  2  0  0  0  0  0  0
  -33.0890  -25.1870    9.0320 C   0  0  0  0  0  2  0  0  0  0  0  0
  -31.9790  -24.3920    8.3390 C   0  0  0  0  0  2  0  0  0  0  0  0
  -31.0440  -23.9040    9.4500 C   0  0  0  0  0  3  0  0  0  0  0  0
  -31.7100  -23.1110   10.5680 C   0  0  0  0  0  2  0  0  0  0  0  0
  -32.1580  -24.1870   11.4120 N   0  0  0  0  0  0  0  0  0  0  0  0
  -32.8540  -24.9910   13.1110 O   0  0  0  0  0  0  0  0  0  0  0  0
  -30.1710  -24.6520   13.8850 N   0  0  0  0  0  2  0  0  0  0  0  0
  -30.7000  -24.8020   14.7360 H   0  0  0  0  0  0  0  0  0  0  0  0
  -28.6770  -23.2800    9.6770 C   0  0  0  0  0  0  0  0  0  0  0  0
  -27.9010  -22.4020    8.9980 C   0  0  0  0  0  0  0  0  0  0  0  0
  -28.7560  -21.7720    8.0390 C   0  0  0  0  0  0  0  0  0  0  0  0
  -29.9100  -23.1710    9.0770 N   0  0  0  0  0  0  0  0  0  0  0  0
  -30.0000  -22.1990    8.1530 N   0  0  0  0  0  0  0  0  0  0  0  0
  -28.4470  -20.8510    6.9590 C   0  0  0  0  0  0  0  0  0  0  0  0
  -29.1390  -19.6320    6.8060 C   0  0  0  0  0  3  0  0  0  0  0  0
  -28.8000  -18.7570    5.7550 C   0  0  0  0  0  3  0  0  0  0  0  0
  -27.7630  -19.1030    4.8560 C   0  0  0  0  0  0  0  0  0  0  0  0
  -27.1000  -20.3330    5.0020 C   0  0  0  0  0  3  0  0  0  0  0  0
  -27.4410  -21.2060    6.0430 C   0  0  0  0  0  3  0  0  0  0  0  0
  -27.3750  -18.3250    3.7940 O   0  0  0  0  0  0  0  0  0  0  0  0
  -27.5550  -16.9670    3.8020 C   0  0  0  0  0  0  0  0  0  0  0  0
  -27.0240  -16.1490    4.8220 C   0  0  0  0  0  3  0  0  0  0  0  0
  -27.1730  -14.7490    4.7500 C   0  0  0  0  0  3  0  0  0  0  0  0
  -27.8430  -14.1690    3.6550 C   0  0  0  0  0  0  0  0  0  0  0  0
  -28.3670  -14.9840    2.6360 C   0  0  0  0  0  3  0  0  0  0  0  0
  -28.2220  -16.3790    2.7090 C   0  0  0  0  0  0  0  0  0  0  0  0
  -28.7110  -17.1590    1.7150 F   0  0  0  0  0  0  0  0  0  0  0  0
  -27.9780  -12.8250    3.5800 F   0  0  0  0  0  0  0  0  0  0  0  0
  -26.4250  -22.2550    9.1650 C   0  0  0  0  0  0  0  0  0  0  0  0
  -25.9010  -21.0630    8.9230 N   0  0  0  0  0  0  0  0  0  0  0  0
  -25.7350  -23.1930    9.5600 O   0  0  0  0  0  0  0  0  0  0  0  0
  -26.4700  -20.2880    8.6220 H   0  0  0  0  0  0  0  0  0  0  0  0
  -24.9090  -20.9230    9.0460 H   0  0  0  0  0  0  0  0  0  0  0  0
  -28.4360  -24.1690   10.7260 N   0  0  0  0  0  0  0  0  0  0  0  0
  -27.5020  -24.2810   11.1050 H   0  0  0  0  0  0  0  0  0  0  0  0
  -29.0950  -24.8400   11.1010 H   0  0  0  0  0  0  0  0  0  0  0  0
  -21.9210  -29.0950   20.1060 C   0  0  0  0  0  0  0  0  0  0  0  0
  -23.4260  -29.7150   19.2170 C   0  0  0  0  0  3  0  0  0  0  0  0
  -24.8140  -29.2650   18.1790 C   0  0  0  0  0  2  0  0  0  0  0  0
  -26.3470  -28.7180   18.3940 O   0  0  0  0  0  0  0  0  0  0  0  0
  -28.7110  -22.8300   19.5320 C   0  0  0  0  0  0  0  0  0  0  0  0
  -26.8470  -28.5040   19.6410 C   0  0  0  0  0  3  0  0  0  0  0  0
  -26.4280  -23.6510   19.7300 C   0  0  0  0  0  3  0  0  0  0  0  0
  -26.1140  -26.0720   20.5770 C   0  0  0  0  0  3  0  0  0  0  0  0
  -28.3740  -25.0930   20.5120 C   0  0  0  0  0  2  0  0  0  0  0  0
  -27.4590  -26.2730   20.2940 C   0  0  0  0  0  0  0  0  0  0  0  0
  -27.8700  -27.5350   19.8120 C   0  0  0  0  0  3  0  0  0  0  0  0
  -25.7190  -28.4650   20.4200 C   0  0  0  0  0  3  0  0  0  0  0  0
  -25.2850  -27.1880   20.7770 C   0  0  0  0  0  3  0  0  0  0  0  0
  -25.6140  -24.6470   20.6300 C   0  0  0  0  0  2  0  0  0  0  0  0
  -27.8800  -23.8130   19.9590 N   0  0  0  0  0  0  0  0  0  0  0  0
  -28.2760  -21.7720   19.0520 O   0  0  0  0  0  0  0  0  0  0  0  0
  -26.2460  -23.8120   18.2040 C   0  0  0  0  0  3  0  0  0  0  0  0
  -25.1070  -23.5320   17.6520 N   0  0  0  0  0  0  0  0  0  0  0  0
  -27.1500  -24.1640   17.4580 O   0  0  0  0  0  0  0  0  0  0  0  0
  -24.3380  -23.1390   18.1720 H   0  0  0  0  0  0  0  0  0  0  0  0
  -21.4310  -25.1010   16.1770 C   0  0  0  0  0  2  0  0  0  0  0  0
  -24.8280  -24.1260   16.3540 C   0  0  0  0  0  3  0  0  0  0  0  0
  -25.6460  -25.9680   15.9080 C   0  0  0  0  0  1  0  0  0  0  0  0
  -23.6640  -27.8310   16.3330 C   0  0  0  0  0 15  0  0  0  0  0  0
  -21.6970  -26.9580   16.2360 C   0  0  0  0  0  1  0  0  0  0  0  0
  -23.1530  -23.7170   16.3790 C   0  0  0  0  0  3  0  0  0  0  0  0
  -22.7200  -22.2100   16.8580 C   0  0  0  0  0  3  0  0  0  0  0  0
  -21.2260  -21.8120   17.1190 C   0  0  0  0  0  3  0  0  0  0  0  0
  -19.9960  -22.7550   16.9850 C   0  0  0  0  0  3  0  0  0  0  0  0
  -20.0090  -24.2990   16.5430 C   0  0  0  0  0  2  0  0  0  0  0  0
  -30.2410  -23.0010   19.6530 C   0  0  0  0  0  3  0  0  0  0  0  0
  -30.6990  -21.9290   20.5370 N   0  0  0  0  0  0  0  0  0  0  0  0
  -31.1510  -22.1280   21.7800 C   0  0  0  0  0  0  0  0  0  0  0  0
  -31.3100  -23.2510   22.2640 O   0  0  0  0  0  0  0  0  0  0  0  0
  -30.5370  -20.9800   20.2280 H   0  0  0  0  0  0  0  0  0  0  0  0
  -30.4420  -20.6980   23.7230 C   0  0  0  0  0  1  0  0  0  0  0  0
  -31.4900  -20.8780   22.6130 C   0  0  0  0  0  3  0  0  0  0  0  0
  -33.9080  -20.8610   22.2020 C   0  0  0  0  0  1  0  0  0  0  0  0
  -32.8450  -20.9190   23.2020 N   0  0  0  0  0  0  0  0  0  0  0  0
  -32.9790  -20.1520   23.8550 H   0  0  0  0  0  0  0  0  0  0  0  0
  -30.9830  -22.9540   18.2660 C   0  0  1  0  0  0  0  0  0  0  0  0
  -30.6000  -21.7360   17.3910 C   0  0  0  0  0  1  0  0  0  0  0  0
  -30.7190  -24.2320   17.4330 C   0  0  0  0  0  1  0  0  0  0  0  0
  -32.5070  -22.9140   18.5180 C   0  0  0  0  0  1  0  0  0  0  0  0
  2  1  1  0
  3  4  1  0
  4  6  1  0
  6  8  1  0
  7  6  1  0
  9  6  1  0
 10 12  1  0
 11 10  1  0
 14 76  1  0
 14 72  1  0
 16 23  2  0
 16 24  1  0
 17 22  1  0
 18 17  1  0
 19 18  1  0
 20 19  1  0
 20 21  1  0
 21 22  1  0
 22 16  1  0
 24 25  1  0
 26 51  1  0
 27 46  1  0
 27 26  2  0
 28 30  2  0
 28 27  1  0
 29 20  1  0
 29 26  1  0
 30 29  1  0
 31 28  1  0
 32 31  1  0
 33 32  2  0
 34 35  2  0
 34 33  1  0
 35 36  1  0
 36 31  2  0
 37 38  1  0
 37 34  1  0
 38 39  1  0
 40 39  2  0
 41 40  1  0
 42 43  1  0
 42 41  2  0
 43 38  2  0
 44 43  1  0
 45 41  1  0
 46 48  2  0
 47 50  1  0
 47 46  1  0
 49 47  1  0
 51 53  1  0
 51 52  1  0
 54  2  2  0
 55 54  2  0
 56 57  1  0
 56 55  1  0
 58 68  1  0
 59 57  1  0
 59 64  1  0
 59 65  1  0
 60 68  1  0
 60 67  1  0
 61 67  1  0
 61 66  1  0
 63 62  1  0
 63 61  1  0
 64 63  2  0
 65 66  2  0
 68 62  1  0
 69 58  2  0
 70 72  1  0
 70 60  1  0
 71 73  1  0
 71 70  1  0
 74 78  1  0
 74 83  1  0
 75 79  1  0
 75 14  1  0
 75 71  1  0
 79 80  2  0
 80 81  1  0
 82 81  2  0
 83 82  1  0
 84 58  1  0
 84 85  1  0
 85 86  1  0
 86 87  2  0
 86 90  1  0
 88 85  1  0
 90 92  1  0
 90 89  1  0
 91 92  1  0
 92 93  1  0
 94 97  1  1
 94 84  1  0
 95 94  1  0
 96 94  1  0
M  ISO  4  16 100  24 100  56 101  57 101
M  END
>  <TORSDO>  (66) 
F 24

>  <SCORE>  (66) 
-0.135

>  <name>  (66) 
65

>  <ligand_id>  (66) 
65

>  <original_smiles>  (66) 
[H]c1c([H])c([H])c2c(c1[H])C([H])([H])C([H])([H])C([H])([H])C2([H])N([H])C(=O)C1([H])N(C(=O)C([H])(N([H])C(=O)C([H])(N([H])C([H])([H])[H])C([H])([H])[H])C(C([H])([H])[H])(C([H])([H])[H])C([H])([H])[H])C([H])([H])c2c([H])c(OC([H])([H])C([H])([H])C([H])([H])C3([N+]([H])([H])C([H])([H])C([H])([H])C([H])([H])N([H])C(=O)N4C([H])([H])C([H])([H])C([H])([H])C([H])(n5nc(-c6c([H])c([H])c(Oc7c([H])c([H])c(F)c([H])c7F)c([H])c6[H])c(C(=O)N([H])[H])c5N([H])[H])C4([H])[H])C([H])([H])C([H])([H])C([H])([N+]([H])([H])[H])C3([H])[H])c([H])c([H])c2C1([H])[H]

>  <smiles>  (66) 
[H]c1c([H])c([H])c2c(c1[H])C([H])([H])C([H])([H])C([H])([H])C2([H])N([H])C(=O)C1([H])N(C(=O)C([H])(N([H])C(=O)C([H])(N([H])C([H])([H])[H])C([H])([H])[H])C(C([H])([H])[H])(C([H])([H])[H])C([H])([H])[H])C([H])([H])c2c([H])c(OC([H])([H])C([H])([H])C([H])([H])C3([N+]([H])([H])C([H])([H])C([H])([H])C([H])([H])N([H])C(=O)N4C([H])([H])C([H])([H])C([H])([H])C([H])(n5nc(-c6c([H])c([H])c(Oc7c([H])c([H])c(F)c([H])c7F)c([H])c6[H])c(C(=O)N([H])[H])c5N([H])[H])C4([H])[H])C([H])([H])C([H])([H])C([H])([N+]([H])([H])[H])C3([H])[H])c([H])c([H])c2C1([H])[H]

$$$$
66:0:0
     RDKit          3D

100109  0  0  1  0  0  0  0  0999 V2000
  -32.2390  -18.9800   21.3520 C   0  0  0  0  0  3  0  0  0  0  0  0
  -31.9060  -17.6110   21.2450 C   0  0  0  0  0  3  0  0  0  0  0  0
  -30.1220  -19.5610   20.3610 C   0  0  0  0  0  3  0  0  0  0  0  0
  -29.7930  -18.1910   20.1780 C   0  0  0  0  0  0  0  0  0  0  0  0
  -31.3410  -19.9750   20.9190 C   0  0  0  0  0  0  0  0  0  0  0  0
  -30.6870  -17.1710   20.6550 C   0  0  0  0  0  0  0  0  0  0  0  0
  -31.0440  -14.7140   20.0540 C   0  0  0  0  0  0  0  0  0  0  0  0
  -30.6570  -12.5530   18.9240 C   0  0  0  0  0  2  0  0  0  0  0  0
  -29.6620  -12.7760   17.7670 C   0  0  0  0  0  2  0  0  0  0  0  0
  -28.2100  -12.6520   18.2690 C   0  0  0  0  0  2  0  0  0  0  0  0
  -27.9480  -13.4830   19.5530 C   0  0  0  0  0  3  0  0  0  0  0  0
  -29.0560  -13.2540   20.6060 C   0  0  0  0  0  2  0  0  0  0  0  0
  -30.3510  -13.5440   19.9680 N   0  0  0  0  0  0  0  0  0  0  0  0
  -32.1610  -14.8380   19.5470 O   0  0  0  0  0  0  0  0  0  0  0  0
  -30.3500  -15.7640   20.5700 N   0  0  0  0  0  0  0  0  0  0  0  0
  -29.4240  -15.5010   20.8650 H   0  0  0  0  0  0  0  0  0  0  0  0
  -25.6150  -14.1190   20.4170 C   0  0  0  0  0  0  0  0  0  0  0  0
  -24.5490  -13.3730   20.8350 C   0  0  0  0  0  0  0  0  0  0  0  0
  -24.9670  -12.0130   20.7300 C   0  0  0  0  0  0  0  0  0  0  0  0
  -26.6190  -13.2220   20.0990 N   0  0  0  0  0  0  0  0  0  0  0  0
  -26.2360  -11.9440   20.3440 N   0  0  0  0  0  0  0  0  0  0  0  0
  -24.2140  -10.7700   20.9160 C   0  0  0  0  0  0  0  0  0  0  0  0
  -24.6140   -9.8010   21.8620 C   0  0  0  0  0  3  0  0  0  0  0  0
  -23.8630   -8.6210   22.0380 C   0  0  0  0  0  3  0  0  0  0  0  0
  -22.6970   -8.4010   21.2650 C   0  0  0  0  0  0  0  0  0  0  0  0
  -22.3160   -9.3580   20.3080 C   0  0  0  0  0  3  0  0  0  0  0  0
  -23.0700  -10.5300   20.1300 C   0  0  0  0  0  3  0  0  0  0  0  0
  -21.9210   -7.2700   21.3480 O   0  0  0  0  0  0  0  0  0  0  0  0
  -21.7660   -6.5910   22.5290 C   0  0  0  0  0  0  0  0  0  0  0  0
  -21.1950   -7.1970   23.6680 C   0  0  0  0  0  3  0  0  0  0  0  0
  -20.9900   -6.4420   24.8410 C   0  0  0  0  0  3  0  0  0  0  0  0
  -21.3460   -5.0800   24.8720 C   0  0  0  0  0  0  0  0  0  0  0  0
  -21.9110   -4.4740   23.7370 C   0  0  0  0  0  3  0  0  0  0  0  0
  -22.1180   -5.2260   22.5670 C   0  0  0  0  0  0  0  0  0  0  0  0
  -22.6420   -4.6300   21.4690 F   0  0  0  0  0  0  0  0  0  0  0  0
  -21.1420   -4.3520   25.9960 F   0  0  0  0  0  0  0  0  0  0  0  0
  -23.1860  -13.8890   21.1990 C   0  0  0  0  0  0  0  0  0  0  0  0
  -22.4890  -13.2010   22.0970 N   0  0  0  0  0  0  0  0  0  0  0  0
  -22.7520  -14.9380   20.7230 O   0  0  0  0  0  0  0  0  0  0  0  0
  -22.8530  -12.3520   22.5050 H   0  0  0  0  0  0  0  0  0  0  0  0
  -21.5760  -13.5270   22.3820 H   0  0  0  0  0  0  0  0  0  0  0  0
  -25.8050  -15.4800   20.2420 N   0  0  0  0  0  0  0  0  0  0  0  0
  -24.9480  -16.0220   20.2410 H   0  0  0  0  0  0  0  0  0  0  0  0
  -26.4140  -15.7460   19.4800 H   0  0  0  0  0  0  0  0  0  0  0  0
  -27.0250  -18.7370   17.4260 C   0  0  0  0  0  2  0  0  0  0  0  0
  -25.9510  -19.1220   18.4510 C   0  0  0  0  0  2  0  0  0  0  0  0
  -28.4160  -18.6660   18.0780 C   0  0  0  0  0  2  0  0  0  0  0  0
  -26.0050  -18.2000   19.6790 C   0  0  0  0  0  2  0  0  0  0  0  0
  -28.4700  -17.9100   19.4480 C   0  0  0  0  0  3  0  0  0  0  0  0
  -27.3320  -18.2710   20.3280 N   0  0  0  0  0  4  0  0  0  0  0  0
  -27.3300  -17.6560   21.1260 H   0  0  0  0  0  0  0  0  0  0  0  0
  -27.4620  -19.2040   20.6780 H   0  0  0  0  0  0  0  0  0  0  0  0
  -31.6440  -21.4660   21.1160 C   0  0  0  0  0  2  0  0  0  0  0  0
  -30.9080  -22.3840   20.2060 N   0  0  0  0  0  4  0  0  0  0  0  0
  -30.5090  -21.8540   19.4490 H   0  0  0  0  0  0  0  0  0  0  0  0
  -31.6070  -22.9840   19.8020 H   0  0  0  0  0  0  0  0  0  0  0  0
  -29.8730  -23.2560   20.8370 C   0  0  0  0  0  2  0  0  0  0  0  0
  -29.7350  -24.6430   20.1460 C   0  0  0  0  0  2  0  0  0  0  0  0
  -28.6590  -25.5690   20.7670 C   0  0  0  0  0  2  0  0  0  0  0  0
  -28.6930  -26.8730   20.1650 O   0  0  0  0  0  0  0  0  0  0  0  0
  -24.6200  -31.8150   23.2790 C   0  0  0  0  0  0  0  0  0  0  0  0
  -27.4980  -27.5590   20.1690 C   0  0  0  0  0  0  0  0  0  0  0  0
  -23.5050  -30.4250   21.5620 C   0  0  0  0  0  3  0  0  0  0  0  0
  -25.0520  -28.9750   20.1380 C   0  0  0  0  0  0  0  0  0  0  0  0
  -26.0200  -30.8760   21.4420 C   0  0  0  0  0  2  0  0  0  0  0  0
  -26.1720  -29.5260   20.7740 C   0  0  0  0  0  0  0  0  0  0  0  0
  -27.3990  -28.8250   20.7870 C   0  0  0  0  0  3  0  0  0  0  0  0
  -26.3650  -27.0180   19.5260 C   0  0  0  0  0  3  0  0  0  0  0  0
  -25.1430  -27.7200   19.5100 C   0  0  0  0  0  3  0  0  0  0  0  0
  -23.7750  -29.7880   20.1710 C   0  0  0  0  0  2  0  0  0  0  0  0
  -24.7320  -31.0520   22.1550 N   0  0  0  0  0  0  0  0  0  0  0  0
  -23.5170  -32.0360   23.7980 O   0  0  0  0  0  0  0  0  0  0  0  0
  -22.8630  -29.3560   22.4760 C   0  0  0  0  0  0  0  0  0  0  0  0
  -21.5460  -29.1470   22.3160 N   0  0  0  0  0  0  0  0  0  0  0  0
  -23.5470  -28.7190   23.2810 O   0  0  0  0  0  0  0  0  0  0  0  0
  -21.0550  -29.7160   21.6400 H   0  0  0  0  0  0  0  0  0  0  0  0
  -18.1950  -27.8500   22.6940 C   0  0  0  0  0  0  0  0  0  0  0  0
  -20.7390  -28.1630   23.0340 C   0  0  0  0  0  3  0  0  0  0  0  0
  -20.8920  -26.7550   22.4140 C   0  0  0  0  0  2  0  0  0  0  0  0
  -19.8230  -26.4410   21.3620 C   0  0  0  0  0  2  0  0  0  0  0  0
  -18.4230  -26.5300   21.9770 C   0  0  0  0  0  2  0  0  0  0  0  0
  -19.2850  -28.6250   23.1750 C   0  0  0  0  0  0  0  0  0  0  0  0
  -19.0210  -29.8630   23.8020 C   0  0  0  0  0  3  0  0  0  0  0  0
  -17.7020  -30.3260   23.9520 C   0  0  0  0  0  3  0  0  0  0  0  0
  -16.6260  -29.5490   23.4880 C   0  0  0  0  0  3  0  0  0  0  0  0
  -16.8750  -28.3130   22.8650 C   0  0  0  0  0  3  0  0  0  0  0  0
  -25.8700  -32.4660   23.9530 C   0  0  0  0  0  3  0  0  0  0  0  0
  -25.5360  -33.8670   24.2400 N   0  0  0  0  0  0  0  0  0  0  0  0
  -25.9100  -34.9080   23.4840 C   0  0  0  0  0  0  0  0  0  0  0  0
  -26.6440  -34.7910   22.4980 O   0  0  0  0  0  0  0  0  0  0  0  0
  -24.8930  -34.0330   25.0000 H   0  0  0  0  0  0  0  0  0  0  0  0
  -24.2190  -36.6970   22.9710 C   0  0  0  0  0  1  0  0  0  0  0  0
  -25.3890  -36.3000   23.8860 C   0  0  0  0  0  3  0  0  0  0  0  0
  -27.4390  -37.2040   24.8900 C   0  0  0  0  0  1  0  0  0  0  0  0
  -26.4280  -37.3520   23.8460 N   0  0  0  0  0  0  0  0  0  0  0  0
  -26.0110  -38.2740   23.9380 H   0  0  0  0  0  0  0  0  0  0  0  0
  -26.3290  -31.7200   25.2660 C   0  0  1  0  0  0  0  0  0  0  0  0
  -25.1920  -31.5170   26.2930 C   0  0  0  0  0  1  0  0  0  0  0  0
  -26.9140  -30.3300   24.9250 C   0  0  0  0  0  1  0  0  0  0  0  0
  -27.4590  -32.5190   25.9550 C   0  0  0  0  0  1  0  0  0  0  0  0
  2  1  1  0
  3  5  1  0
  4  3  2  0
  4  6  1  0
  5 53  1  0
  5  1  2  0
  6  2  2  0
  7 15  1  0
  8 13  1  0
  9 10  1  0
  9  8  1  0
 11 10  1  0
 11 20  1  0
 11 12  1  0
 13  7  1  0
 13 12  1  0
 14  7  2  0
 15  6  1  0
 15 16  1  0
 17 18  2  0
 18 37  1  0
 19 18  1  0
 19 22  1  0
 20 21  1  0
 20 17  1  0
 21 19  2  0
 22 23  1  0
 23 24  2  0
 25 28  1  0
 25 24  1  0
 26 25  2  0
 27 26  1  0
 27 22  2  0
 28 29  1  0
 29 34  2  0
 29 30  1  0
 30 31  2  0
 31 32  1  0
 32 36  1  0
 33 32  2  0
 34 33  1  0
 35 34  1  0
 37 38  1  0
 38 41  1  0
 38 40  1  0
 39 37  2  0
 42 17  1  0
 43 42  1  0
 44 42  1  0
 45 47  1  0
 45 46  1  0
 46 48  1  0
 47 49  1  0
 48 50  1  0
 49  4  1  0
 49 50  1  0
 50 52  1  0
 50 51  1  0
 54 57  1  0
 54 53  1  0
 55 54  1  0
 56 54  1  0
 58 59  1  0
 58 57  1  0
 60 62  1  0
 60 59  1  0
 61 72  2  0
 62 67  1  0
 63 71  1  0
 63 73  1  0
 64 70  1  0
 64 66  1  0
 65 71  1  0
 66 67  2  0
 66 65  1  0
 68 62  2  0
 69 68  1  0
 69 64  2  0
 70 63  1  0
 71 61  1  0
 73 75  2  0
 74 73  1  0
 76 74  1  0
 77 86  2  0
 77 82  1  0
 78 74  1  0
 78 82  1  0
 79 78  1  0
 80 81  1  0
 80 79  1  0
 81 77  1  0
 82 83  2  0
 83 84  1  0
 85 84  2  0
 86 85  1  0
 87 61  1  0
 87 88  1  0
 87 97  1  0
 88 91  1  0
 89 93  1  0
 89 88  1  0
 90 89  2  0
 93 92  1  0
 95 93  1  0
 95 96  1  0
 95 94  1  0
 97100  1  1
 97 98  1  0
 99 97  1  0
M  ISO  4   7 100  15 100  59 101  60 101
M  END
>  <TORSDO>  (67) 
F 22

>  <SCORE>  (67) 
-12.021

>  <name>  (67) 
66

>  <ligand_id>  (67) 
66

>  <original_smiles>  (67) 
[H]c1c([H])c([H])c2c(c1[H])C([H])([H])C([H])([H])C([H])([H])C2([H])N([H])C(=O)C1([H])N(C(=O)C([H])(N([H])C(=O)C([H])(N([H])C([H])([H])[H])C([H])([H])[H])C(C([H])([H])[H])(C([H])([H])[H])C([H])([H])[H])C([H])([H])c2c([H])c(OC([H])([H])C([H])([H])C([H])([H])[N+]([H])([H])C([H])([H])c3c([H])c([H])c(N([H])C(=O)N4C([H])([H])C([H])([H])C([H])([H])C([H])(n5nc(-c6c([H])c([H])c(Oc7c([H])c([H])c(F)c([H])c7F)c([H])c6[H])c(C(=O)N([H])[H])c5N([H])[H])C4([H])[H])c(C4([H])C([H])([H])C([H])([H])C([H])([H])C([H])([H])[N+]4([H])[H])c3[H])c([H])c([H])c2C1([H])[H]

>  <smiles>  (67) 
[H]c1c([H])c([H])c2c(c1[H])C([H])([H])C([H])([H])C([H])([H])C2([H])N([H])C(=O)C1([H])N(C(=O)C([H])(N([H])C(=O)C([H])(N([H])C([H])([H])[H])C([H])([H])[H])C(C([H])([H])[H])(C([H])([H])[H])C([H])([H])[H])C([H])([H])c2c([H])c(OC([H])([H])C([H])([H])C([H])([H])[N+]([H])([H])C([H])([H])c3c([H])c([H])c(N([H])C(=O)N4C([H])([H])C([H])([H])C([H])([H])C([H])(n5nc(-c6c([H])c([H])c(Oc7c([H])c([H])c(F)c([H])c7F)c([H])c6[H])c(C(=O)N([H])[H])c5N([H])[H])C4([H])[H])c(C4([H])C([H])([H])C([H])([H])C([H])([H])C([H])([H])[N+]4([H])[H])c3[H])c([H])c([H])c2C1([H])[H]

$$$$
67:0:0
     RDKit          3D

 84 91  0  0  1  0  0  0  0  0999 V2000
  -30.2630  -15.8890   20.2800 C   0  0  0  0  0  0  0  0  0  0  0  0
  -30.3890  -13.2780   19.5260 C   0  0  0  0  0  2  0  0  0  0  0  0
  -29.5590  -12.7170   18.3310 C   0  0  0  0  0  2  0  0  0  0  0  0
  -28.1470  -12.3240   18.7790 C   0  0  0  0  0  2  0  0  0  0  0  0
  -27.5760  -13.3710   19.7580 C   0  0  0  0  0  3  0  0  0  0  0  0
  -28.5630  -13.8310   20.8650 C   0  0  0  0  0  2  0  0  0  0  0  0
  -29.7040  -14.5080   20.1850 N   0  0  0  0  0  0  0  0  0  0  0  0
  -31.4990  -15.7020   20.1790 O   0  0  0  0  0  0  0  0  0  0  0  0
  -29.9140  -20.4900   19.5710 C   0  0  0  0  0  2  0  0  0  0  0  0
  -27.9800  -20.0390   20.3860 C   0  0  0  0  0  2  0  0  0  0  0  0
  -30.4550  -18.8200   19.9620 C   0  0  0  0  0  2  0  0  0  0  0  0
  -28.4760  -18.3370   20.7330 C   0  0  0  0  0  2  0  0  0  0  0  0
  -28.7980  -21.5780   20.3200 C   0  0  0  0  0  2  0  0  0  0  0  0
  -29.6870  -17.4100   20.1940 N   0  0  0  0  0  0  0  0  0  0  0  0
  -25.2020  -13.8870   20.4670 C   0  0  0  0  0  0  0  0  0  0  0  0
  -24.1390  -13.1060   20.8180 C   0  0  0  0  0  0  0  0  0  0  0  0
  -24.6170  -11.7590   20.8210 C   0  0  0  0  0  0  0  0  0  0  0  0
  -26.2570  -13.0210   20.2650 N   0  0  0  0  0  0  0  0  0  0  0  0
  -25.9200  -11.7330   20.5440 N   0  0  0  0  0  0  0  0  0  0  0  0
  -23.8890  -10.4960   21.0120 C   0  0  0  0  0  0  0  0  0  0  0  0
  -24.3040   -9.5380   21.9630 C   0  0  0  0  0  3  0  0  0  0  0  0
  -23.5710   -8.3450   22.1450 C   0  0  0  0  0  3  0  0  0  0  0  0
  -22.4080   -8.1020   21.3770 C   0  0  0  0  0  0  0  0  0  0  0  0
  -22.0110   -9.0490   20.4160 C   0  0  0  0  0  3  0  0  0  0  0  0
  -22.7460  -10.2330   20.2330 C   0  0  0  0  0  3  0  0  0  0  0  0
  -21.6480   -6.9600   21.4670 O   0  0  0  0  0  0  0  0  0  0  0  0
  -21.5890   -6.2240   22.6240 C   0  0  0  0  0  0  0  0  0  0  0  0
  -21.1770   -6.7920   23.8490 C   0  0  0  0  0  3  0  0  0  0  0  0
  -21.0630   -5.9840   24.9970 C   0  0  0  0  0  3  0  0  0  0  0  0
  -21.3520   -4.6090   24.9220 C   0  0  0  0  0  0  0  0  0  0  0  0
  -21.7570   -4.0390   23.7020 C   0  0  0  0  0  3  0  0  0  0  0  0
  -21.8720   -4.8450   22.5560 C   0  0  0  0  0  0  0  0  0  0  0  0
  -22.2420   -4.2860   21.3780 F   0  0  0  0  0  0  0  0  0  0  0  0
  -21.2370   -3.8300   26.0230 F   0  0  0  0  0  0  0  0  0  0  0  0
  -22.7320  -13.5800   21.0340 C   0  0  0  0  0  0  0  0  0  0  0  0
  -21.9850  -12.9050   21.8980 N   0  0  0  0  0  0  0  0  0  0  0  0
  -22.3060  -14.5890   20.4710 O   0  0  0  0  0  0  0  0  0  0  0  0
  -22.3430  -12.0910   22.3760 H   0  0  0  0  0  0  0  0  0  0  0  0
  -21.0390  -13.2070   22.0880 H   0  0  0  0  0  0  0  0  0  0  0  0
  -25.3580  -15.2560   20.2690 N   0  0  0  0  0  0  0  0  0  0  0  0
  -24.5830  -15.9060   20.3480 H   0  0  0  0  0  0  0  0  0  0  0  0
  -26.2130  -15.6940   19.9520 H   0  0  0  0  0  0  0  0  0  0  0  0
  -28.0840  -23.4630   19.9180 C   0  0  0  0  0  1  0  0  0  0  0  0
  -28.1950  -25.2910   20.1280 O   0  0  0  0  0  0  0  0  0  0  0  0
  -24.7220  -31.7780   23.0420 C   0  0  0  0  0  0  0  0  0  0  0  0
  -27.2410  -26.5740   20.0620 C   0  0  0  0  0  0  0  0  0  0  0  0
  -23.5360  -30.3700   21.4150 C   0  0  0  0  0  3  0  0  0  0  0  0
  -24.9830  -28.6970   20.0050 C   0  0  0  0  0  0  0  0  0  0  0  0
  -26.1200  -30.4770   21.2980 C   0  0  0  0  0  2  0  0  0  0  0  0
  -26.1830  -29.0280   20.6440 C   0  0  0  0  0  0  0  0  0  0  0  0
  -27.2880  -27.9990   20.6360 C   0  0  0  0  0  3  0  0  0  0  0  0
  -26.0050  -26.4930   19.3610 C   0  0  0  0  0  3  0  0  0  0  0  0
  -24.9420  -27.4570   19.3390 C   0  0  0  0  0  3  0  0  0  0  0  0
  -23.7790  -29.6610   20.0490 C   0  0  0  0  0  2  0  0  0  0  0  0
  -24.8180  -30.9120   21.9700 N   0  0  0  0  0  0  0  0  0  0  0  0
  -23.6270  -32.0800   23.5500 O   0  0  0  0  0  0  0  0  0  0  0  0
  -22.8130  -29.4050   22.3960 C   0  0  0  0  0  0  0  0  0  0  0  0
  -21.4760  -29.2740   22.2960 N   0  0  0  0  0  0  0  0  0  0  0  0
  -23.4720  -28.7680   23.2220 O   0  0  0  0  0  0  0  0  0  0  0  0
  -20.9920  -29.8360   21.6100 H   0  0  0  0  0  0  0  0  0  0  0  0
  -18.0800  -28.1080   22.8820 C   0  0  0  0  0  0  0  0  0  0  0  0
  -20.6510  -28.3420   23.0770 C   0  0  0  0  0  3  0  0  0  0  0  0
  -20.7150  -26.9140   22.4860 C   0  0  0  0  0  2  0  0  0  0  0  0
  -19.5850  -26.6200   21.4950 C   0  0  0  0  0  2  0  0  0  0  0  0
  -18.2230  -26.7700   22.1770 C   0  0  0  0  0  2  0  0  0  0  0  0
  -19.2190  -28.8530   23.2900 C   0  0  0  0  0  0  0  0  0  0  0  0
  -19.0260  -30.1030   23.9180 C   0  0  0  0  0  3  0  0  0  0  0  0
  -17.7310  -30.6090   24.1360 C   0  0  0  0  0  3  0  0  0  0  0  0
  -16.6080  -29.8620   23.7390 C   0  0  0  0  0  3  0  0  0  0  0  0
  -16.7840  -28.6120   23.1180 C   0  0  0  0  0  3  0  0  0  0  0  0
  -25.9790  -32.4410   23.6830 C   0  0  0  0  0  3  0  0  0  0  0  0
  -25.6320  -33.8270   24.0630 N   0  0  0  0  0  0  0  0  0  0  0  0
  -25.9330  -34.9240   23.3550 C   0  0  0  0  0  0  0  0  0  0  0  0
  -26.5860  -34.8790   22.3100 O   0  0  0  0  0  0  0  0  0  0  0  0
  -25.0460  -33.9330   24.8790 H   0  0  0  0  0  0  0  0  0  0  0  0
  -24.1640  -36.7090   23.1370 C   0  0  0  0  0  1  0  0  0  0  0  0
  -25.4380  -36.2880   23.8870 C   0  0  0  0  0  3  0  0  0  0  0  0
  -27.5830  -37.1860   24.6840 C   0  0  0  0  0  1  0  0  0  0  0  0
  -26.4470  -37.3670   23.7840 N   0  0  0  0  0  0  0  0  0  0  0  0
  -26.0280  -38.2720   23.9810 H   0  0  0  0  0  0  0  0  0  0  0  0
  -26.5090  -31.6630   24.9510 C   0  0  1  0  0  0  0  0  0  0  0  0
  -25.4240  -31.4030   26.0240 C   0  0  0  0  0  1  0  0  0  0  0  0
  -27.1050  -30.2940   24.5550 C   0  0  0  0  0  1  0  0  0  0  0  0
  -27.6560  -32.4610   25.6140 C   0  0  0  0  0  1  0  0  0  0  0  0
  2  7  1  0
  3  4  1  0
  3  2  1  0
  5  4  1  0
  5 18  1  0
  5  6  1  0
  7  1  1  0
  7  6  1  0
  8  1  2  0
  9 11  1  0
  9 13  1  0
 10 12  1  0
 11 14  1  0
 13 10  1  0
 14  1  1  0
 14 12  1  0
 15 16  2  0
 16 17  1  0
 16 35  1  0
 17 20  1  0
 18 15  1  0
 18 19  1  0
 19 17  2  0
 20 21  1  0
 21 22  2  0
 23 26  1  0
 23 22  1  0
 24 23  2  0
 25 24  1  0
 25 20  2  0
 26 27  1  0
 27 28  1  0
 28 29  2  0
 30 29  1  0
 30 34  1  0
 31 30  2  0
 32 27  2  0
 32 31  1  0
 33 32  1  0
 35 36  1  0
 36 39  1  0
 36 38  1  0
 37 35  2  0
 40 41  1  0
 40 15  1  0
 42 40  1  0
 43 44  1  0
 45 56  2  0
 46 44  1  0
 46 51  1  0
 47 55  1  0
 47 57  1  0
 48 54  1  0
 48 50  1  0
 49 55  1  0
 50 49  1  0
 51 50  2  0
 52 46  2  0
 53 52  1  0
 53 48  2  0
 54 47  1  0
 55 45  1  0
 57 59  2  0
 58 57  1  0
 60 58  1  0
 61 70  2  0
 61 66  1  0
 62 58  1  0
 62 66  1  0
 63 62  1  0
 64 65  1  0
 64 63  1  0
 65 61  1  0
 66 67  2  0
 67 68  1  0
 69 68  2  0
 70 69  1  0
 71 45  1  0
 71 72  1  0
 71 81  1  0
 72 75  1  0
 73 77  1  0
 73 72  1  0
 74 73  2  0
 77 76  1  0
 79 77  1  0
 79 80  1  0
 79 78  1  0
 81 84  1  1
 81 82  1  0
 83 81  1  0
M  ISO  4   1 100  14 100  43 101  44 101
M  END
>  <TORSDO>  (68) 
F 16

>  <SCORE>  (68) 
-15.898

>  <name>  (68) 
67

>  <ligand_id>  (68) 
67

>  <original_smiles>  (68) 
[H]c1c([H])c([H])c2c(c1[H])C([H])([H])C([H])([H])C([H])([H])C2([H])N([H])C(=O)C1([H])N(C(=O)C([H])(N([H])C(=O)C([H])(N([H])C([H])([H])[H])C([H])([H])[H])C(C([H])([H])[H])(C([H])([H])[H])C([H])([H])[H])C([H])([H])c2c([H])c(OC([H])([H])C3([H])C([H])([H])C([H])([H])N(C(=O)N4C([H])([H])C([H])([H])C([H])([H])C([H])(n5nc(-c6c([H])c([H])c(Oc7c([H])c([H])c(F)c([H])c7F)c([H])c6[H])c(C(=O)N([H])[H])c5N([H])[H])C4([H])[H])C([H])([H])C3([H])[H])c([H])c([H])c2C1([H])[H]

>  <smiles>  (68) 
[H]c1c([H])c([H])c2c(c1[H])C([H])([H])C([H])([H])C([H])([H])C2([H])N([H])C(=O)C1([H])N(C(=O)C([H])(N([H])C(=O)C([H])(N([H])C([H])([H])[H])C([H])([H])[H])C(C([H])([H])[H])(C([H])([H])[H])C([H])([H])[H])C([H])([H])c2c([H])c(OC([H])([H])C3([H])C([H])([H])C([H])([H])N(C(=O)N4C([H])([H])C([H])([H])C([H])([H])C([H])(n5nc(-c6c([H])c([H])c(Oc7c([H])c([H])c(F)c([H])c7F)c([H])c6[H])c(C(=O)N([H])[H])c5N([H])[H])C4([H])[H])C([H])([H])C3([H])[H])c([H])c([H])c2C1([H])[H]

$$$$
68:0:0
     RDKit          3D

 93102  0  0  1  0  0  0  0  0999 V2000
  -28.3450  -23.6060   22.2200 C   0  0  0  0  0  2  0  0  0  0  0  0
  -28.5180  -25.1090   21.9100 C   0  0  0  0  0  2  0  0  0  0  0  0
  -30.0810  -22.1260   19.0750 C   0  0  0  0  0  2  0  0  0  0  0  0
  -29.3160  -24.5480   19.5890 C   0  0  0  0  0  2  0  0  0  0  0  0
  -29.8290  -20.6280   19.3740 C   0  0  0  0  0  2  0  0  0  0  0  0
  -29.0380  -21.2020   21.6370 C   0  0  0  0  0  2  0  0  0  0  0  0
  -29.2810  -22.7130   21.3750 C   0  0  0  0  0  3  0  0  0  0  0  0
  -29.1240  -23.0330   19.8720 C   0  0  0  0  0  3  0  0  0  0  0  0
  -28.3150  -25.3890   20.4110 C   0  0  0  0  0  3  0  0  0  0  0  0
  -29.9300  -20.3210   20.8280 N   0  0  1  0  0  4  0  0  0  0  0  0
  -30.8710  -20.5540   21.1110 H   0  0  0  0  0  0  0  0  0  0  0  0
  -28.4390  -26.8040   20.1460 O   0  0  0  0  0  0  0  0  0  0  0  0
  -24.5730  -31.9370   23.2500 C   0  0  0  0  0  0  0  0  0  0  0  0
  -27.2670  -27.5390   20.1400 C   0  0  0  0  0  0  0  0  0  0  0  0
  -23.3870  -30.5390   21.5920 C   0  0  0  0  0  3  0  0  0  0  0  0
  -24.8600  -29.0340   20.1560 C   0  0  0  0  0  0  0  0  0  0  0  0
  -25.9110  -30.9220   21.4070 C   0  0  0  0  0  2  0  0  0  0  0  0
  -26.0120  -29.5580   20.7540 C   0  0  0  0  0  0  0  0  0  0  0  0
  -27.2190  -28.8180   20.7430 C   0  0  0  0  0  3  0  0  0  0  0  0
  -26.0990  -27.0470   19.5110 C   0  0  0  0  0  3  0  0  0  0  0  0
  -24.8980  -27.7780   19.5300 C   0  0  0  0  0  3  0  0  0  0  0  0
  -23.6070  -29.8780   20.2060 C   0  0  0  0  0  2  0  0  0  0  0  0
  -24.6420  -31.1470   22.1410 N   0  0  0  0  0  0  0  0  0  0  0  0
  -23.4870  -32.1930   23.7880 O   0  0  0  0  0  0  0  0  0  0  0  0
  -22.7440  -29.5000   22.5390 C   0  0  0  0  0  0  0  0  0  0  0  0
  -21.4260  -29.2870   22.3890 N   0  0  0  0  0  0  0  0  0  0  0  0
  -23.4290  -28.8890   23.3640 O   0  0  0  0  0  0  0  0  0  0  0  0
  -20.9350  -29.8350   21.6970 H   0  0  0  0  0  0  0  0  0  0  0  0
  -18.0730  -28.0120   22.8240 C   0  0  0  0  0  0  0  0  0  0  0  0
  -20.6190  -28.3310   23.1450 C   0  0  0  0  0  3  0  0  0  0  0  0
  -20.7650  -26.9020   22.5720 C   0  0  0  0  0  2  0  0  0  0  0  0
  -19.6910  -26.5530   21.5360 C   0  0  0  0  0  2  0  0  0  0  0  0
  -18.2950  -26.6670   22.1530 C   0  0  0  0  0  2  0  0  0  0  0  0
  -19.1650  -28.8000   23.2740 C   0  0  0  0  0  0  0  0  0  0  0  0
  -18.9050  -30.0600   23.8580 C   0  0  0  0  0  3  0  0  0  0  0  0
  -17.5860  -30.5310   23.9970 C   0  0  0  0  0  3  0  0  0  0  0  0
  -16.5080  -29.7390   23.5630 C   0  0  0  0  0  3  0  0  0  0  0  0
  -16.7520  -28.4830   22.9820 C   0  0  0  0  0  3  0  0  0  0  0  0
  -25.8510  -32.5750   23.8790 C   0  0  0  0  0  3  0  0  0  0  0  0
  -26.3630  -31.8080   25.1590 C   0  0  1  0  0  0  0  0  0  0  0  0
  -25.2620  -31.5580   26.2160 C   0  0  0  0  0  1  0  0  0  0  0  0
  -26.9640  -30.4380   24.7700 C   0  0  0  0  0  1  0  0  0  0  0  0
  -27.5000  -32.6140   25.8320 C   0  0  0  0  0  1  0  0  0  0  0  0
  -25.5330  -33.9720   24.2020 N   0  0  0  0  0  0  0  0  0  0  0  0
  -25.8730  -35.0240   23.4430 C   0  0  0  0  0  0  0  0  0  0  0  0
  -26.5580  -34.9200   22.4210 O   0  0  0  0  0  0  0  0  0  0  0  0
  -24.9270  -34.1270   24.9930 H   0  0  0  0  0  0  0  0  0  0  0  0
  -24.1540  -36.8160   23.0460 C   0  0  0  0  0  1  0  0  0  0  0  0
  -25.3730  -36.4110   23.8900 C   0  0  0  0  0  3  0  0  0  0  0  0
  -27.4810  -37.2980   24.7830 C   0  0  0  0  0  1  0  0  0  0  0  0
  -26.4090  -37.4650   23.8050 N   0  0  0  0  0  0  0  0  0  0  0  0
  -25.9980  -38.3850   23.9380 H   0  0  0  0  0  0  0  0  0  0  0  0
  -29.7430  -18.8720   21.1580 C   0  0  0  0  0  2  0  0  0  0  0  0
  -30.8960  -17.9490   20.6740 C   0  0  0  0  0  2  0  0  0  0  0  0
  -31.0960  -16.6470   21.5030 C   0  0  0  0  0  2  0  0  0  0  0  0
  -30.9090  -14.5330   20.1730 C   0  0  0  0  0  0  0  0  0  0  0  0
  -30.5280  -12.3980   18.9900 C   0  0  0  0  0  2  0  0  0  0  0  0
  -29.5380  -12.5880   17.8250 C   0  0  0  0  0  2  0  0  0  0  0  0
  -28.0850  -12.4450   18.3170 C   0  0  0  0  0  2  0  0  0  0  0  0
  -27.7960  -13.2950   19.5820 C   0  0  0  0  0  3  0  0  0  0  0  0
  -28.8920  -13.0860   20.6500 C   0  0  0  0  0  2  0  0  0  0  0  0
  -30.1960  -13.3830   20.0320 N   0  0  0  0  0  0  0  0  0  0  0  0
  -31.9600  -14.7500   19.5650 O   0  0  0  0  0  0  0  0  0  0  0  0
  -30.3920  -15.4530   21.0090 N   0  0  0  0  0  0  0  0  0  0  0  0
  -29.5180  -15.2110   21.4520 H   0  0  0  0  0  0  0  0  0  0  0  0
  -25.4340  -13.9090   20.4000 C   0  0  0  0  0  0  0  0  0  0  0  0
  -24.3770  -13.1400   20.8040 C   0  0  0  0  0  0  0  0  0  0  0  0
  -24.8260  -11.7860   20.7340 C   0  0  0  0  0  0  0  0  0  0  0  0
  -26.4620  -13.0240   20.1140 N   0  0  0  0  0  0  0  0  0  0  0  0
  -26.1010  -11.7410   20.3700 N   0  0  0  0  0  0  0  0  0  0  0  0
  -24.0990  -10.5250   20.9370 C   0  0  0  0  0  0  0  0  0  0  0  0
  -24.5240   -9.5730   21.8900 C   0  0  0  0  0  3  0  0  0  0  0  0
  -23.7980   -8.3780   22.0800 C   0  0  0  0  0  3  0  0  0  0  0  0
  -22.6330   -8.1260   21.3160 C   0  0  0  0  0  0  0  0  0  0  0  0
  -22.2270   -9.0670   20.3540 C   0  0  0  0  0  3  0  0  0  0  0  0
  -22.9540  -10.2540   20.1620 C   0  0  0  0  0  3  0  0  0  0  0  0
  -21.8790   -6.9820   21.4150 O   0  0  0  0  0  0  0  0  0  0  0  0
  -21.7680   -6.2910   22.5950 C   0  0  0  0  0  0  0  0  0  0  0  0
  -21.2350   -6.8870   23.7590 C   0  0  0  0  0  3  0  0  0  0  0  0
  -21.0750   -6.1210   24.9310 C   0  0  0  0  0  3  0  0  0  0  0  0
  -21.4370   -4.7610   24.9400 C   0  0  0  0  0  0  0  0  0  0  0  0
  -21.9630   -4.1660   23.7810 C   0  0  0  0  0  3  0  0  0  0  0  0
  -22.1250   -4.9280   22.6100 C   0  0  0  0  0  0  0  0  0  0  0  0
  -22.6130   -4.3440   21.4900 F   0  0  0  0  0  0  0  0  0  0  0  0
  -21.2760   -4.0230   26.0630 F   0  0  0  0  0  0  0  0  0  0  0  0
  -22.9970  -13.6230   21.1440 C   0  0  0  0  0  0  0  0  0  0  0  0
  -22.3010  -12.9180   22.0300 N   0  0  0  0  0  0  0  0  0  0  0  0
  -22.5450  -14.6600   20.6610 O   0  0  0  0  0  0  0  0  0  0  0  0
  -22.6800  -12.0780   22.4420 H   0  0  0  0  0  0  0  0  0  0  0  0
  -21.3770  -13.2220   22.3000 H   0  0  0  0  0  0  0  0  0  0  0  0
  -25.6030  -15.2810   20.2360 N   0  0  0  0  0  0  0  0  0  0  0  0
  -24.8480  -15.9420   20.3830 H   0  0  0  0  0  0  0  0  0  0  0  0
  -26.4450  -15.7160   19.8780 H   0  0  0  0  0  0  0  0  0  0  0  0
  2  1  1  0
  3  5  1  0
  4  8  1  0
  4  9  1  0
  5 10  1  0
  7  6  1  0
  7  1  1  0
  8  3  1  0
  8  7  1  0
  9 12  1  0
  9  2  1  0
 10 11  1  1
 10 53  1  0
 10  6  1  0
 13 24  2  0
 14 12  1  0
 14 19  1  0
 15 23  1  0
 15 25  1  0
 16 22  1  0
 16 18  1  0
 17 23  1  0
 18 17  1  0
 19 18  2  0
 20 21  1  0
 20 14  2  0
 21 16  2  0
 22 15  1  0
 23 13  1  0
 25 27  2  0
 26 25  1  0
 28 26  1  0
 29 38  2  0
 29 34  1  0
 30 26  1  0
 30 34  1  0
 31 30  1  0
 32 33  1  0
 32 31  1  0
 33 29  1  0
 34 35  2  0
 35 36  1  0
 37 36  2  0
 38 37  1  0
 39 13  1  0
 39 44  1  0
 39 40  1  0
 40 43  1  1
 40 41  1  0
 42 40  1  0
 44 47  1  0
 45 49  1  0
 45 44  1  0
 46 45  2  0
 49 48  1  0
 51 49  1  0
 51 52  1  0
 51 50  1  0
 54 53  1  0
 54 55  1  0
 56 64  1  0
 57 62  1  0
 58 59  1  0
 58 57  1  0
 60 59  1  0
 60 69  1  0
 60 61  1  0
 62 56  1  0
 62 61  1  0
 63 56  2  0
 64 65  1  0
 64 55  1  0
 66 67  2  0
 67 86  1  0
 68 67  1  0
 68 71  1  0
 69 70  1  0
 69 66  1  0
 70 68  2  0
 71 72  1  0
 72 73  2  0
 74 77  1  0
 74 73  1  0
 75 74  2  0
 76 75  1  0
 76 71  2  0
 77 78  1  0
 78 83  2  0
 78 79  1  0
 79 80  2  0
 80 81  1  0
 81 85  1  0
 82 81  2  0
 83 82  1  0
 84 83  1  0
 86 87  1  0
 87 90  1  0
 87 89  1  0
 88 86  2  0
 91 92  1  0
 91 66  1  0
 93 91  1  0
M  ISO  4   9 101  12 101  56 100  64 100
M  END
>  <TORSDO>  (69) 
F 19

>  <SCORE>  (69) 
-14.008

>  <name>  (69) 
68

>  <ligand_id>  (69) 
68

>  <original_smiles>  (69) 
[H]c1c([H])c([H])c2c(c1[H])C([H])([H])C([H])([H])C([H])([H])C2([H])N([H])C(=O)C1([H])N(C(=O)C([H])(N([H])C(=O)C([H])(N([H])C([H])([H])[H])C([H])([H])[H])C(C([H])([H])[H])(C([H])([H])[H])C([H])([H])[H])C([H])([H])c2c([H])c(OC3([H])C([H])([H])C([H])([H])C4([H])C([H])(C3([H])[H])C([H])([H])C([H])([H])[N+]([H])(C([H])([H])C([H])([H])C([H])([H])N([H])C(=O)N3C([H])([H])C([H])([H])C([H])([H])C([H])(n5nc(-c6c([H])c([H])c(Oc7c([H])c([H])c(F)c([H])c7F)c([H])c6[H])c(C(=O)N([H])[H])c5N([H])[H])C3([H])[H])C4([H])[H])c([H])c([H])c2C1([H])[H]

>  <smiles>  (69) 
[H]c1c([H])c([H])c2c(c1[H])C([H])([H])C([H])([H])C([H])([H])C2([H])N([H])C(=O)C1([H])N(C(=O)C([H])(N([H])C(=O)C([H])(N([H])C([H])([H])[H])C([H])([H])[H])C(C([H])([H])[H])(C([H])([H])[H])C([H])([H])[H])C([H])([H])c2c([H])c(OC3([H])C([H])([H])C([H])([H])C4([H])C([H])(C3([H])[H])C([H])([H])C([H])([H])[N+]([H])(C([H])([H])C([H])([H])C([H])([H])N([H])C(=O)N3C([H])([H])C([H])([H])C([H])([H])C([H])(n5nc(-c6c([H])c([H])c(Oc7c([H])c([H])c(F)c([H])c7F)c([H])c6[H])c(C(=O)N([H])[H])c5N([H])[H])C3([H])[H])C4([H])[H])c([H])c([H])c2C1([H])[H]

$$$$
69:0:0
     RDKit          3D

 83 90  0  0  1  0  0  0  0  0999 V2000
  -27.8830  -23.7490   20.1660 C   0  0  0  0  0  2  0  0  0  0  0  0
  -28.7220  -20.5860   20.2020 C   0  0  0  0  0  3  0  0  0  0  0  0
  -28.8640  -22.1390   20.2490 C   0  0  0  0  0  3  0  0  0  0  0  0
  -29.7000  -18.9710   20.2360 C   0  0  0  0  0  2  0  0  0  0  0  0
  -30.2480  -15.7930   20.1510 C   0  0  0  0  0  0  0  0  0  0  0  0
  -30.3560  -13.2440   19.3060 C   0  0  0  0  0  2  0  0  0  0  0  0
  -29.4480  -12.8150   18.1180 C   0  0  0  0  0  2  0  0  0  0  0  0
  -28.0430  -12.4340   18.6060 C   0  0  0  0  0  2  0  0  0  0  0  0
  -27.5410  -13.4230   19.6810 C   0  0  0  0  0  3  0  0  0  0  0  0
  -28.5910  -13.7610   20.7660 C   0  0  0  0  0  2  0  0  0  0  0  0
  -29.7300  -14.4170   20.0790 N   0  0  0  0  0  0  0  0  0  0  0  0
  -31.4780  -15.7230   19.9640 O   0  0  0  0  0  0  0  0  0  0  0  0
  -29.4960  -17.1770   20.2400 N   0  0  0  0  0  0  0  0  0  0  0  0
  -28.5120  -16.9640   20.3340 H   0  0  0  0  0  0  0  0  0  0  0  0
  -25.1970  -13.9140   20.5200 C   0  0  0  0  0  0  0  0  0  0  0  0
  -24.1560  -13.1170   20.8970 C   0  0  0  0  0  0  0  0  0  0  0  0
  -24.6390  -11.7740   20.8290 C   0  0  0  0  0  0  0  0  0  0  0  0
  -26.2430  -13.0590   20.2310 N   0  0  0  0  0  0  0  0  0  0  0  0
  -25.9230  -11.7630   20.4840 N   0  0  0  0  0  0  0  0  0  0  0  0
  -23.9260  -10.5000   21.0110 C   0  0  0  0  0  0  0  0  0  0  0  0
  -24.3660   -9.5330   21.9400 C   0  0  0  0  0  3  0  0  0  0  0  0
  -23.6480   -8.3290   22.1130 C   0  0  0  0  0  3  0  0  0  0  0  0
  -22.4780   -8.0840   21.3570 C   0  0  0  0  0  0  0  0  0  0  0  0
  -22.0570   -9.0410   20.4170 C   0  0  0  0  0  3  0  0  0  0  0  0
  -22.7750  -10.2360   20.2420 C   0  0  0  0  0  3  0  0  0  0  0  0
  -21.7320   -6.9330   21.4400 O   0  0  0  0  0  0  0  0  0  0  0  0
  -21.6610   -6.2020   22.6000 C   0  0  0  0  0  0  0  0  0  0  0  0
  -21.1590   -6.7540   23.7980 C   0  0  0  0  0  3  0  0  0  0  0  0
  -21.0390   -5.9490   24.9480 C   0  0  0  0  0  3  0  0  0  0  0  0
  -21.4100   -4.5930   24.9010 C   0  0  0  0  0  0  0  0  0  0  0  0
  -21.9060   -4.0390   23.7060 C   0  0  0  0  0  3  0  0  0  0  0  0
  -22.0270   -4.8420   22.5590 C   0  0  0  0  0  0  0  0  0  0  0  0
  -22.4850   -4.2980   21.4050 F   0  0  0  0  0  0  0  0  0  0  0  0
  -21.2890   -3.8160   26.0040 F   0  0  0  0  0  0  0  0  0  0  0  0
  -22.7600  -13.5750   21.2020 C   0  0  0  0  0  0  0  0  0  0  0  0
  -22.0590  -12.8630   22.0770 N   0  0  0  0  0  0  0  0  0  0  0  0
  -22.3020  -14.6020   20.7010 O   0  0  0  0  0  0  0  0  0  0  0  0
  -22.4440  -12.0340   22.5030 H   0  0  0  0  0  0  0  0  0  0  0  0
  -21.1230  -13.1530   22.3240 H   0  0  0  0  0  0  0  0  0  0  0  0
  -25.3380  -15.2900   20.3620 N   0  0  0  0  0  0  0  0  0  0  0  0
  -24.5620  -15.9300   20.5000 H   0  0  0  0  0  0  0  0  0  0  0  0
  -26.1630  -15.7430   19.9910 H   0  0  0  0  0  0  0  0  0  0  0  0
  -28.1220  -25.5110   20.3080 O   0  0  0  0  0  0  0  0  0  0  0  0
  -24.6570  -31.8780   23.2340 C   0  0  0  0  0  0  0  0  0  0  0  0
  -27.1650  -26.7530   20.2550 C   0  0  0  0  0  0  0  0  0  0  0  0
  -23.4660  -30.4830   21.5990 C   0  0  0  0  0  3  0  0  0  0  0  0
  -24.9080  -28.8200   20.1920 C   0  0  0  0  0  0  0  0  0  0  0  0
  -26.0480  -30.6040   21.4830 C   0  0  0  0  0  2  0  0  0  0  0  0
  -26.1060  -29.1650   20.8280 C   0  0  0  0  0  0  0  0  0  0  0  0
  -27.2180  -28.1620   20.8250 C   0  0  0  0  0  3  0  0  0  0  0  0
  -25.9320  -26.6290   19.5620 C   0  0  0  0  0  3  0  0  0  0  0  0
  -24.8630  -27.5790   19.5330 C   0  0  0  0  0  3  0  0  0  0  0  0
  -23.7070  -29.7810   20.2310 C   0  0  0  0  0  2  0  0  0  0  0  0
  -24.7490  -31.0220   22.1580 N   0  0  0  0  0  0  0  0  0  0  0  0
  -23.5640  -32.1850   23.7420 O   0  0  0  0  0  0  0  0  0  0  0  0
  -22.7420  -29.5120   22.5720 C   0  0  0  0  0  0  0  0  0  0  0  0
  -21.4090  -29.3610   22.4430 N   0  0  0  0  0  0  0  0  0  0  0  0
  -23.3920  -28.8920   23.4160 O   0  0  0  0  0  0  0  0  0  0  0  0
  -20.9330  -29.9110   21.7410 H   0  0  0  0  0  0  0  0  0  0  0  0
  -18.0170  -28.1520   22.9470 C   0  0  0  0  0  0  0  0  0  0  0  0
  -20.5770  -28.4290   23.2160 C   0  0  0  0  0  3  0  0  0  0  0  0
  -20.6820  -26.9930   22.6510 C   0  0  0  0  0  2  0  0  0  0  0  0
  -19.5850  -26.6630   21.6340 C   0  0  0  0  0  2  0  0  0  0  0  0
  -18.2020  -26.8040   22.2720 C   0  0  0  0  0  2  0  0  0  0  0  0
  -19.1320  -28.9220   23.3760 C   0  0  0  0  0  0  0  0  0  0  0  0
  -18.9030  -30.1800   23.9730 C   0  0  0  0  0  3  0  0  0  0  0  0
  -17.5940  -30.6700   24.1430 C   0  0  0  0  0  3  0  0  0  0  0  0
  -16.4950  -29.9000   23.7260 C   0  0  0  0  0  3  0  0  0  0  0  0
  -16.7080  -28.6420   23.1360 C   0  0  0  0  0  3  0  0  0  0  0  0
  -25.9200  -32.5270   23.8780 C   0  0  0  0  0  3  0  0  0  0  0  0
  -25.6010  -33.9310   24.2090 N   0  0  0  0  0  0  0  0  0  0  0  0
  -25.9100  -34.9930   23.4540 C   0  0  0  0  0  0  0  0  0  0  0  0
  -26.5490  -34.8960   22.4030 O   0  0  0  0  0  0  0  0  0  0  0  0
  -25.0270  -34.0780   25.0270 H   0  0  0  0  0  0  0  0  0  0  0  0
  -24.1580  -36.7860   23.1900 C   0  0  0  0  0  1  0  0  0  0  0  0
  -25.4410  -36.3830   23.9360 C   0  0  0  0  0  3  0  0  0  0  0  0
  -27.6040  -37.2940   24.6640 C   0  0  0  0  0  1  0  0  0  0  0  0
  -26.4600  -37.4430   23.7680 N   0  0  0  0  0  0  0  0  0  0  0  0
  -26.0530  -38.3620   23.9240 H   0  0  0  0  0  0  0  0  0  0  0  0
  -26.4080  -31.7710   25.1760 C   0  0  1  0  0  0  0  0  0  0  0  0
  -25.2960  -31.5570   26.2310 C   0  0  0  0  0  1  0  0  0  0  0  0
  -26.9900  -30.3840   24.8270 C   0  0  0  0  0  1  0  0  0  0  0  0
  -27.5530  -32.5680   25.8460 C   0  0  0  0  0  1  0  0  0  0  0  0
  1  3  1  0
  1 43  1  0
  2  4  1  0
  2  3  2  0
  4 13  1  0
  5 13  1  0
  6 11  1  0
  7  8  1  0
  7  6  1  0
  9  8  1  0
  9 18  1  0
  9 10  1  0
 11  5  1  0
 11 10  1  0
 12  5  2  0
 13 14  1  0
 15 16  2  0
 16 35  1  0
 17 16  1  0
 17 20  1  0
 18 19  1  0
 18 15  1  0
 19 17  2  0
 20 21  1  0
 21 22  2  0
 23 26  1  0
 23 22  1  0
 24 23  2  0
 25 24  1  0
 25 20  2  0
 26 27  1  0
 27 28  1  0
 28 29  2  0
 30 29  1  0
 30 34  1  0
 31 30  2  0
 32 27  2  0
 32 31  1  0
 33 32  1  0
 35 36  1  0
 36 39  1  0
 36 38  1  0
 37 35  2  0
 40 41  1  0
 40 15  1  0
 42 40  1  0
 44 55  2  0
 45 43  1  0
 45 50  1  0
 46 54  1  0
 46 56  1  0
 47 53  1  0
 47 49  1  0
 48 54  1  0
 49 48  1  0
 50 49  2  0
 51 45  2  0
 52 51  1  0
 52 47  2  0
 53 46  1  0
 54 44  1  0
 56 58  2  0
 57 56  1  0
 59 57  1  0
 60 69  2  0
 60 65  1  0
 61 57  1  0
 61 65  1  0
 62 61  1  0
 63 64  1  0
 63 62  1  0
 64 60  1  0
 65 66  2  0
 66 67  1  0
 68 67  2  0
 69 68  1  0
 70 44  1  0
 70 71  1  0
 70 80  1  0
 71 74  1  0
 72 76  1  0
 72 71  1  0
 73 72  2  0
 76 75  1  0
 78 79  1  0
 78 76  1  0
 78 77  1  0
 80 83  1  1
 80 81  1  0
 82 80  1  0
M  ISO  4   1 101   5 100  13 100  43 101
M  END
>  <TORSDO>  (70) 
F 18

>  <SCORE>  (70) 
-16.279

>  <name>  (70) 
69

>  <ligand_id>  (70) 
69

>  <original_smiles>  (70) 
[H]C(=C([H])C([H])([H])N([H])C(=O)N1C([H])([H])C([H])([H])C([H])([H])C([H])(n2nc(-c3c([H])c([H])c(Oc4c([H])c([H])c(F)c([H])c4F)c([H])c3[H])c(C(=O)N([H])[H])c2N([H])[H])C1([H])[H])C([H])([H])Oc1c([H])c([H])c2c(c1[H])C([H])([H])N(C(=O)C([H])(N([H])C(=O)C([H])(N([H])C([H])([H])[H])C([H])([H])[H])C(C([H])([H])[H])(C([H])([H])[H])C([H])([H])[H])C([H])(C(=O)N([H])C1([H])c3c([H])c([H])c([H])c([H])c3C([H])([H])C([H])([H])C1([H])[H])C2([H])[H]

>  <smiles>  (70) 
[H]C(=C([H])C([H])([H])N([H])C(=O)N1C([H])([H])C([H])([H])C([H])([H])C([H])(n2nc(-c3c([H])c([H])c(Oc4c([H])c([H])c(F)c([H])c4F)c([H])c3[H])c(C(=O)N([H])[H])c2N([H])[H])C1([H])[H])C([H])([H])Oc1c([H])c([H])c2c(c1[H])C([H])([H])N(C(=O)C([H])(N([H])C(=O)C([H])(N([H])C([H])([H])[H])C([H])([H])[H])C(C([H])([H])[H])(C([H])([H])[H])C([H])([H])[H])C([H])(C(=O)N([H])C1([H])c3c([H])c([H])c([H])c([H])c3C([H])([H])C([H])([H])C1([H])[H])C2([H])[H]

$$$$
70:0:0
     RDKit          3D

 93101  0  0  1  0  0  0  0  0999 V2000
  -28.7630  -21.0970   20.0650 N   0  0  1  0  0  4  0  0  0  0  0  0
  -28.2790  -21.0730   20.9510 H   0  0  0  0  0  0  0  0  0  0  0  0
  -26.0300  -19.6220   16.9110 C   0  0  0  0  0  2  0  0  0  0  0  0
  -27.0340  -20.7340   16.5710 C   0  0  0  0  0  2  0  0  0  0  0  0
  -25.5020  -19.7790   18.3480 C   0  0  0  0  0  2  0  0  0  0  0  0
  -28.2100  -20.7340   17.5670 C   0  0  0  0  0  2  0  0  0  0  0  0
  -26.6330  -19.8750   19.3960 C   0  0  0  0  0  2  0  0  0  0  0  0
  -27.6970  -20.9300   19.0170 C   0  0  0  0  0  3  0  0  0  0  0  0
  -29.7940  -19.9510   20.1650 C   0  0  0  0  0  2  0  0  0  0  0  0
  -29.3370  -18.4370   20.4820 C   0  0  0  0  0  3  0  0  0  0  0  0
  -30.4560  -17.2910   20.5310 C   0  0  0  0  0  3  0  0  0  0  0  0
  -30.8190  -14.7370   20.7090 C   0  0  0  0  0  0  0  0  0  0  0  0
  -30.6440  -12.4690   19.7230 C   0  0  0  0  0  2  0  0  0  0  0  0
  -29.7770  -12.5740   18.4510 C   0  0  0  0  0  2  0  0  0  0  0  0
  -28.2820  -12.4280   18.8000 C   0  0  0  0  0  2  0  0  0  0  0  0
  -27.8560  -13.3280   19.9900 C   0  0  0  0  0  3  0  0  0  0  0  0
  -28.8480  -13.2080   21.1670 C   0  0  0  0  0  2  0  0  0  0  0  0
  -30.1840  -13.5240   20.6480 N   0  0  0  0  0  0  0  0  0  0  0  0
  -32.0190  -14.8370   20.4430 O   0  0  0  0  0  0  0  0  0  0  0  0
  -30.0360  -15.8650   20.8180 N   0  0  0  0  0  0  0  0  0  0  0  0
  -29.0510  -15.7030   20.9700 H   0  0  0  0  0  0  0  0  0  0  0  0
  -25.4350  -13.9550   20.5680 C   0  0  0  0  0  0  0  0  0  0  0  0
  -24.3450  -13.1970   20.8920 C   0  0  0  0  0  0  0  0  0  0  0  0
  -24.7970  -11.8420   20.9110 C   0  0  0  0  0  0  0  0  0  0  0  0
  -26.4840  -13.0640   20.4060 N   0  0  0  0  0  0  0  0  0  0  0  0
  -26.1020  -11.7890   20.6760 N   0  0  0  0  0  0  0  0  0  0  0  0
  -24.0500  -10.5880   21.0830 C   0  0  0  0  0  0  0  0  0  0  0  0
  -24.4430   -9.6200   22.0330 C   0  0  0  0  0  3  0  0  0  0  0  0
  -23.7010   -8.4300   22.1920 C   0  0  0  0  0  3  0  0  0  0  0  0
  -22.5500   -8.2020   21.4000 C   0  0  0  0  0  0  0  0  0  0  0  0
  -22.1760   -9.1580   20.4410 C   0  0  0  0  0  3  0  0  0  0  0  0
  -22.9180  -10.3390   20.2800 C   0  0  0  0  0  3  0  0  0  0  0  0
  -21.7820   -7.0650   21.4700 O   0  0  0  0  0  0  0  0  0  0  0  0
  -21.7080   -6.3140   22.6150 C   0  0  0  0  0  0  0  0  0  0  0  0
  -21.2940   -6.8690   23.8450 C   0  0  0  0  0  3  0  0  0  0  0  0
  -21.1660   -6.0470   24.9820 C   0  0  0  0  0  3  0  0  0  0  0  0
  -21.4430   -4.6700   24.8900 C   0  0  0  0  0  0  0  0  0  0  0  0
  -21.8500   -4.1130   23.6650 C   0  0  0  0  0  3  0  0  0  0  0  0
  -21.9810   -4.9330   22.5300 C   0  0  0  0  0  0  0  0  0  0  0  0
  -22.3540   -4.3900   21.3460 F   0  0  0  0  0  0  0  0  0  0  0  0
  -21.3120   -3.8780   25.9800 F   0  0  0  0  0  0  0  0  0  0  0  0
  -22.9380  -13.6880   21.0770 C   0  0  0  0  0  0  0  0  0  0  0  0
  -22.1620  -13.0240   21.9270 N   0  0  0  0  0  0  0  0  0  0  0  0
  -22.5350  -14.6980   20.5010 O   0  0  0  0  0  0  0  0  0  0  0  0
  -22.4980  -12.2050   22.4130 H   0  0  0  0  0  0  0  0  0  0  0  0
  -21.2160  -13.3370   22.0950 H   0  0  0  0  0  0  0  0  0  0  0  0
  -25.6170  -15.3220   20.3710 N   0  0  0  0  0  0  0  0  0  0  0  0
  -24.8410  -15.9720   20.4030 H   0  0  0  0  0  0  0  0  0  0  0  0
  -26.4740  -15.7430   20.0400 H   0  0  0  0  0  0  0  0  0  0  0  0
  -29.3550  -22.5160   19.9950 C   0  0  0  0  0  2  0  0  0  0  0  0
  -28.5100  -23.7810   20.5480 C   0  0  0  0  0  2  0  0  0  0  0  0
  -28.7330  -25.2050   19.8420 C   0  0  0  0  0  2  0  0  0  0  0  0
  -28.5060  -26.4920   20.5560 O   0  0  0  0  0  0  0  0  0  0  0  0
  -24.6340  -31.9290   23.2840 C   0  0  0  0  0  0  0  0  0  0  0  0
  -27.3590  -27.2960   20.4230 C   0  0  0  0  0  0  0  0  0  0  0  0
  -23.4860  -30.4910   21.6360 C   0  0  0  0  0  3  0  0  0  0  0  0
  -24.9890  -28.9080   20.2940 C   0  0  0  0  0  0  0  0  0  0  0  0
  -26.0280  -30.8060   21.5340 C   0  0  0  0  0  2  0  0  0  0  0  0
  -26.1320  -29.4110   20.9240 C   0  0  0  0  0  0  0  0  0  0  0  0
  -27.3130  -28.6130   20.9880 C   0  0  0  0  0  3  0  0  0  0  0  0
  -26.1890  -26.8440   19.7740 C   0  0  0  0  0  3  0  0  0  0  0  0
  -25.0190  -27.6300   19.7140 C   0  0  0  0  0  3  0  0  0  0  0  0
  -23.7490  -29.7810   20.2810 C   0  0  0  0  0  2  0  0  0  0  0  0
  -24.7320  -31.0930   22.2090 N   0  0  0  0  0  0  0  0  0  0  0  0
  -23.5330  -32.2210   23.7730 O   0  0  0  0  0  0  0  0  0  0  0  0
  -22.7910  -29.4960   22.5940 C   0  0  0  0  0  0  0  0  0  0  0  0
  -21.4630  -29.3440   22.4510 N   0  0  0  0  0  0  0  0  0  0  0  0
  -23.4450  -28.8620   23.4270 O   0  0  0  0  0  0  0  0  0  0  0  0
  -20.9930  -29.9070   21.7560 H   0  0  0  0  0  0  0  0  0  0  0  0
  -18.0500  -28.2640   22.9450 C   0  0  0  0  0  0  0  0  0  0  0  0
  -20.6150  -28.4310   23.2170 C   0  0  0  0  0  3  0  0  0  0  0  0
  -20.6680  -27.0000   22.6320 C   0  0  0  0  0  2  0  0  0  0  0  0
  -19.5550  -26.7260   21.6150 C   0  0  0  0  0  2  0  0  0  0  0  0
  -18.1790  -26.9140   22.2600 C   0  0  0  0  0  2  0  0  0  0  0  0
  -19.1940  -28.9850   23.3790 C   0  0  0  0  0  0  0  0  0  0  0  0
  -19.0180  -30.2550   23.9730 C   0  0  0  0  0  3  0  0  0  0  0  0
  -17.7310  -30.7990   24.1420 C   0  0  0  0  0  3  0  0  0  0  0  0
  -16.6010  -30.0740   23.7250 C   0  0  0  0  0  3  0  0  0  0  0  0
  -16.7620  -28.8090   23.1320 C   0  0  0  0  0  3  0  0  0  0  0  0
  -25.8960  -32.5730   23.9350 C   0  0  0  0  0  3  0  0  0  0  0  0
  -25.5780  -33.9790   24.2240 N   0  0  0  0  0  0  0  0  0  0  0  0
  -25.9440  -35.0130   23.4550 C   0  0  0  0  0  0  0  0  0  0  0  0
  -26.6500  -34.8850   22.4520 O   0  0  0  0  0  0  0  0  0  0  0  0
  -24.9490  -34.1550   24.9920 H   0  0  0  0  0  0  0  0  0  0  0  0
  -24.2300  -36.8050   23.0100 C   0  0  0  0  0  1  0  0  0  0  0  0
  -25.4440  -36.4120   23.8660 C   0  0  0  0  0  3  0  0  0  0  0  0
  -27.5540  -37.3130   24.7420 C   0  0  0  0  0  1  0  0  0  0  0  0
  -26.4800  -37.4620   23.7640 N   0  0  0  0  0  0  0  0  0  0  0  0
  -26.0680  -38.3830   23.8860 H   0  0  0  0  0  0  0  0  0  0  0  0
  -26.3700  -31.8280   25.2440 C   0  0  1  0  0  0  0  0  0  0  0  0
  -25.2410  -31.6150   26.2800 C   0  0  0  0  0  1  0  0  0  0  0  0
  -26.9610  -30.4390   24.9040 C   0  0  0  0  0  1  0  0  0  0  0  0
  -27.4950  -32.6390   25.9300 C   0  0  0  0  0  1  0  0  0  0  0  0
  1  9  1  0
  1  2  1  1
  3  5  1  0
  4  3  1  0
  4  6  1  0
  5  7  1  0
  6  8  1  0
  8  7  1  0
  8  1  1  0
  9 10  1  0
 10 11  2  0
 11 20  1  0
 12 20  1  0
 13 18  1  0
 14 15  1  0
 14 13  1  0
 16 15  1  0
 16 25  1  0
 16 17  1  0
 18 12  1  0
 18 17  1  0
 19 12  2  0
 20 21  1  0
 22 23  2  0
 23 24  1  0
 23 42  1  0
 24 27  1  0
 25 22  1  0
 25 26  1  0
 26 24  2  0
 27 28  1  0
 28 29  2  0
 30 33  1  0
 30 29  1  0
 31 30  2  0
 32 31  1  0
 32 27  2  0
 33 34  1  0
 34 35  1  0
 35 36  2  0
 37 36  1  0
 37 41  1  0
 38 37  2  0
 39 34  2  0
 39 38  1  0
 40 39  1  0
 42 43  1  0
 43 46  1  0
 43 45  1  0
 44 42  2  0
 47 48  1  0
 47 22  1  0
 49 47  1  0
 50  1  1  0
 50 51  1  0
 52 51  1  0
 52 53  1  0
 54 65  2  0
 55 53  1  0
 55 60  1  0
 56 64  1  0
 56 66  1  0
 57 59  1  0
 58 64  1  0
 59 60  2  0
 59 58  1  0
 61 55  2  0
 62 61  1  0
 62 57  2  0
 63 57  1  0
 63 56  1  0
 64 54  1  0
 66 68  2  0
 67 66  1  0
 69 67  1  0
 70 79  2  0
 70 75  1  0
 71 67  1  0
 71 75  1  0
 72 71  1  0
 73 74  1  0
 73 72  1  0
 74 70  1  0
 75 76  2  0
 76 77  1  0
 78 77  2  0
 79 78  1  0
 80 54  1  0
 80 81  1  0
 80 90  1  0
 81 84  1  0
 82 86  1  0
 82 81  1  0
 83 82  2  0
 86 85  1  0
 88 86  1  0
 88 89  1  0
 88 87  1  0
 90 93  1  1
 90 91  1  0
 92 90  1  0
M  ISO  4  12 100  20 100  52 101  53 101
M  END
>  <TORSDO>  (71) 
F 23

>  <SCORE>  (71) 
-10.860

>  <name>  (71) 
70

>  <ligand_id>  (71) 
70

>  <original_smiles>  (71) 
[H]c1c([H])c([H])c2c(c1[H])C([H])([H])C([H])([H])C([H])([H])C2([H])N([H])C(=O)C1([H])N(C(=O)C([H])(N([H])C(=O)C([H])(N([H])C([H])([H])[H])C([H])([H])[H])C(C([H])([H])[H])(C([H])([H])[H])C([H])([H])[H])C([H])([H])c2c([H])c(OC([H])([H])C([H])([H])C([H])([H])[N+]([H])(C([H])([H])C([H])([H])C([H])([H])N([H])C(=O)N3C([H])([H])C([H])([H])C([H])([H])C([H])(n4nc(-c5c([H])c([H])c(Oc6c([H])c([H])c(F)c([H])c6F)c([H])c5[H])c(C(=O)N([H])[H])c4N([H])[H])C3([H])[H])C3([H])C([H])([H])C([H])([H])C([H])([H])C([H])([H])C3([H])[H])c([H])c([H])c2C1([H])[H]

>  <smiles>  (71) 
[H]c1c([H])c([H])c2c(c1[H])C([H])([H])C([H])([H])C([H])([H])C2([H])N([H])C(=O)C1([H])N(C(=O)C([H])(N([H])C(=O)C([H])(N([H])C([H])([H])[H])C([H])([H])[H])C(C([H])([H])[H])(C([H])([H])[H])C([H])([H])[H])C([H])([H])c2c([H])c(OC([H])([H])C([H])([H])C([H])([H])[N+]([H])(C([H])([H])C([H])([H])C([H])([H])N([H])C(=O)N3C([H])([H])C([H])([H])C([H])([H])C([H])(n4nc(-c5c([H])c([H])c(Oc6c([H])c([H])c(F)c([H])c6F)c([H])c5[H])c(C(=O)N([H])[H])c4N([H])[H])C3([H])[H])C3([H])C([H])([H])C([H])([H])C([H])([H])C([H])([H])C3([H])[H])c([H])c([H])c2C1([H])[H]

$$$$
71:0:0
     RDKit          3D

 93103  0  0  1  0  0  0  0  0999 V2000
  -31.4780  -23.4200   19.6100 C   0  0  0  0  0  2  0  0  0  0  0  0
  -30.5140  -22.6070   18.7450 C   0  0  0  0  0  2  0  0  0  0  0  0
  -30.6020  -24.2080   20.5910 C   0  0  0  0  0  2  0  0  0  0  0  0
  -29.3250  -22.2630   19.6610 C   0  0  0  0  0  3  0  0  0  0  0  0
  -29.1570  -23.6900   20.4330 C   0  0  0  0  0  3  0  0  0  0  0  0
  -30.7800  -14.6750   20.0000 C   0  0  0  0  0  0  0  0  0  0  0  0
  -30.4950  -12.4330   18.9250 C   0  0  0  0  0  2  0  0  0  0  0  0
  -29.4730  -12.5400   17.7710 C   0  0  0  0  0  2  0  0  0  0  0  0
  -28.0340  -12.3630   18.2960 C   0  0  0  0  0  2  0  0  0  0  0  0
  -27.7530  -13.2110   19.5680 C   0  0  0  0  0  3  0  0  0  0  0  0
  -28.8880  -13.0420   20.6010 C   0  0  0  0  0  2  0  0  0  0  0  0
  -30.1290  -13.4560   19.9350 N   0  0  0  0  0  0  0  0  0  0  0  0
  -31.9270  -14.7490   19.5430 O   0  0  0  0  0  0  0  0  0  0  0  0
  -29.6440  -20.9250   20.5050 C   0  0  0  0  0  0  0  0  0  0  0  0
  -29.4880  -17.6850   18.5080 C   0  0  0  0  0  2  0  0  0  0  0  0
  -29.0600  -17.6970   21.5430 C   0  0  0  0  0  2  0  0  0  0  0  0
  -29.4450  -19.2370   18.5780 C   0  0  0  0  0  2  0  0  0  0  0  0
  -29.3070  -16.1640   21.4540 C   0  0  0  0  0  2  0  0  0  0  0  0
  -30.1280  -18.3670   20.6770 C   0  0  0  0  0  3  0  0  0  0  0  0
  -30.4010  -17.2230   19.6540 C   0  0  0  0  0  3  0  0  0  0  0  0
  -29.6880  -19.6340   19.9730 N   0  0  0  0  0  0  0  0  0  0  0  0
  -30.0580  -15.8570   20.2210 N   0  0  0  0  0  0  0  0  0  0  0  0
  -29.8750  -21.0760   21.7060 O   0  0  0  0  0  0  0  0  0  0  0  0
  -25.4250  -13.7950   20.4720 C   0  0  0  0  0  0  0  0  0  0  0  0
  -24.3780  -13.0180   20.8840 C   0  0  0  0  0  0  0  0  0  0  0  0
  -24.8220  -11.6650   20.7700 C   0  0  0  0  0  0  0  0  0  0  0  0
  -26.4420  -12.9170   20.1350 N   0  0  0  0  0  0  0  0  0  0  0  0
  -26.0880  -11.6270   20.3740 N   0  0  0  0  0  0  0  0  0  0  0  0
  -24.0950  -10.4030   20.9620 C   0  0  0  0  0  0  0  0  0  0  0  0
  -24.5290   -9.4350   21.8940 C   0  0  0  0  0  3  0  0  0  0  0  0
  -23.8030   -8.2380   22.0730 C   0  0  0  0  0  3  0  0  0  0  0  0
  -22.6280   -8.0000   21.3200 C   0  0  0  0  0  0  0  0  0  0  0  0
  -22.2140   -8.9580   20.3780 C   0  0  0  0  0  3  0  0  0  0  0  0
  -22.9400  -10.1460   20.1960 C   0  0  0  0  0  3  0  0  0  0  0  0
  -21.8720   -6.8560   21.4100 O   0  0  0  0  0  0  0  0  0  0  0  0
  -21.7610   -6.1590   22.5860 C   0  0  0  0  0  0  0  0  0  0  0  0
  -21.2570   -6.7560   23.7620 C   0  0  0  0  0  3  0  0  0  0  0  0
  -21.0920   -5.9830   24.9290 C   0  0  0  0  0  3  0  0  0  0  0  0
  -21.4220   -4.6140   24.9200 C   0  0  0  0  0  0  0  0  0  0  0  0
  -21.9180   -4.0170   23.7490 C   0  0  0  0  0  3  0  0  0  0  0  0
  -22.0840   -4.7870   22.5840 C   0  0  0  0  0  0  0  0  0  0  0  0
  -22.5430   -4.2000   21.4520 F   0  0  0  0  0  0  0  0  0  0  0  0
  -21.2550   -3.8700   26.0390 F   0  0  0  0  0  0  0  0  0  0  0  0
  -23.0080  -13.4980   21.2650 C   0  0  0  0  0  0  0  0  0  0  0  0
  -22.3320  -12.7840   22.1580 N   0  0  0  0  0  0  0  0  0  0  0  0
  -22.5470  -14.5430   20.8070 O   0  0  0  0  0  0  0  0  0  0  0  0
  -22.7190  -11.9390   22.5540 H   0  0  0  0  0  0  0  0  0  0  0  0
  -21.4160  -13.0870   22.4530 H   0  0  0  0  0  0  0  0  0  0  0  0
  -25.5910  -15.1710   20.3350 N   0  0  0  0  0  0  0  0  0  0  0  0
  -24.8380  -15.8240   20.5190 H   0  0  0  0  0  0  0  0  0  0  0  0
  -26.4230  -15.6170   19.9690 H   0  0  0  0  0  0  0  0  0  0  0  0
  -28.2230  -24.8450   19.7910 C   0  0  0  0  0  2  0  0  0  0  0  0
  -28.3480  -26.2920   20.1810 O   0  0  0  0  0  0  0  0  0  0  0  0
  -24.6110  -31.7840   23.0900 C   0  0  0  0  0  0  0  0  0  0  0  0
  -27.2450  -27.1730   20.0830 C   0  0  0  0  0  0  0  0  0  0  0  0
  -23.4240  -30.3750   21.4490 C   0  0  0  0  0  3  0  0  0  0  0  0
  -24.8880  -28.8170   20.0420 C   0  0  0  0  0  0  0  0  0  0  0  0
  -25.9700  -30.6820   21.2920 C   0  0  0  0  0  2  0  0  0  0  0  0
  -26.0540  -29.2960   20.6520 C   0  0  0  0  0  0  0  0  0  0  0  0
  -27.2310  -28.4840   20.6670 C   0  0  0  0  0  3  0  0  0  0  0  0
  -26.0590  -26.7710   19.4250 C   0  0  0  0  0  3  0  0  0  0  0  0
  -24.8950  -27.5610   19.4200 C   0  0  0  0  0  3  0  0  0  0  0  0
  -23.6530  -29.6950   20.0740 C   0  0  0  0  0  2  0  0  0  0  0  0
  -24.6870  -30.9650   21.9990 N   0  0  0  0  0  0  0  0  0  0  0  0
  -23.5230  -32.0660   23.6120 O   0  0  0  0  0  0  0  0  0  0  0  0
  -22.7530  -29.3640   22.4090 C   0  0  0  0  0  0  0  0  0  0  0  0
  -21.4210  -29.2160   22.2980 N   0  0  0  0  0  0  0  0  0  0  0  0
  -23.4280  -28.7170   23.2130 O   0  0  0  0  0  0  0  0  0  0  0  0
  -20.9360  -29.7890   21.6210 H   0  0  0  0  0  0  0  0  0  0  0  0
  -18.0210  -28.1110   22.8590 C   0  0  0  0  0  0  0  0  0  0  0  0
  -20.5920  -28.2910   23.0720 C   0  0  0  0  0  3  0  0  0  0  0  0
  -20.6370  -26.8660   22.4710 C   0  0  0  0  0  2  0  0  0  0  0  0
  -19.5030  -26.5940   21.4790 C   0  0  0  0  0  2  0  0  0  0  0  0
  -18.1420  -26.7690   22.1580 C   0  0  0  0  0  2  0  0  0  0  0  0
  -19.1720  -28.8320   23.2750 C   0  0  0  0  0  0  0  0  0  0  0  0
  -19.0040  -30.0900   23.8950 C   0  0  0  0  0  3  0  0  0  0  0  0
  -17.7200  -30.6260   24.1000 C   0  0  0  0  0  3  0  0  0  0  0  0
  -16.5840  -29.9010   23.7000 C   0  0  0  0  0  3  0  0  0  0  0  0
  -16.7350  -28.6440   23.0850 C   0  0  0  0  0  3  0  0  0  0  0  0
  -25.8870  -32.4220   23.7200 C   0  0  0  0  0  3  0  0  0  0  0  0
  -25.5550  -33.8060   24.0870 N   0  0  0  0  0  0  0  0  0  0  0  0
  -25.8650  -34.8840   23.3540 C   0  0  0  0  0  0  0  0  0  0  0  0
  -26.5270  -34.8190   22.3150 O   0  0  0  0  0  0  0  0  0  0  0  0
  -24.9610  -33.9310   24.8930 H   0  0  0  0  0  0  0  0  0  0  0  0
  -24.1070  -36.6610   23.0590 C   0  0  0  0  0  1  0  0  0  0  0  0
  -25.3600  -36.2520   23.8520 C   0  0  0  0  0  3  0  0  0  0  0  0
  -27.4850  -37.1500   24.6950 C   0  0  0  0  0  1  0  0  0  0  0  0
  -26.3760  -37.3240   23.7610 N   0  0  0  0  0  0  0  0  0  0  0  0
  -25.9570  -38.2340   23.9320 H   0  0  0  0  0  0  0  0  0  0  0  0
  -26.4220  -31.6290   24.9760 C   0  0  1  0  0  0  0  0  0  0  0  0
  -25.3370  -31.3510   26.0420 C   0  0  0  0  0  1  0  0  0  0  0  0
  -27.0250  -30.2700   24.5510 C   0  0  0  0  0  1  0  0  0  0  0  0
  -27.5650  -32.4270   25.6490 C   0  0  0  0  0  1  0  0  0  0  0  0
  1  3  1  0
  2  1  1  0
  2  4  1  0
  4  5  1  0
  4 14  1  0
  5 52  1  0
  5  3  1  0
  6 22  1  0
  7 12  1  0
  8  9  1  0
  8  7  1  0
 10  9  1  0
 10 27  1  0
 10 11  1  0
 12  6  1  0
 12 11  1  0
 13  6  2  0
 14 23  2  0
 15 17  1  0
 17 21  1  0
 18 16  1  0
 19 16  1  0
 20 15  1  0
 20 22  1  0
 20 19  1  0
 21 14  1  0
 21 19  1  0
 22 18  1  0
 24 25  2  0
 25 44  1  0
 26 25  1  0
 26 29  1  0
 27 28  1  0
 27 24  1  0
 28 26  2  0
 29 30  1  0
 30 31  2  0
 32 35  1  0
 32 31  1  0
 33 32  2  0
 34 33  1  0
 34 29  2  0
 35 36  1  0
 36 37  1  0
 37 38  2  0
 39 38  1  0
 39 43  1  0
 40 39  2  0
 41 36  2  0
 41 40  1  0
 42 41  1  0
 44 45  1  0
 45 48  1  0
 45 47  1  0
 46 44  2  0
 49 24  1  0
 49 50  1  0
 51 49  1  0
 52 53  1  0
 54 65  2  0
 55 53  1  0
 55 60  1  0
 56 64  1  0
 56 66  1  0
 57 63  1  0
 57 59  1  0
 58 64  1  0
 59 60  2  0
 59 58  1  0
 61 55  2  0
 62 61  1  0
 62 57  2  0
 63 56  1  0
 64 54  1  0
 66 68  2  0
 67 66  1  0
 69 67  1  0
 70 79  2  0
 70 75  1  0
 71 67  1  0
 71 75  1  0
 72 71  1  0
 73 74  1  0
 73 72  1  0
 74 70  1  0
 75 76  2  0
 76 77  1  0
 78 77  2  0
 79 78  1  0
 80 54  1  0
 80 81  1  0
 80 90  1  0
 81 84  1  0
 82 86  1  0
 82 81  1  0
 83 82  2  0
 86 85  1  0
 88 86  1  0
 88 89  1  0
 88 87  1  0
 90 93  1  1
 90 91  1  0
 92 90  1  0
M  ISO  4   6 100  22 100  52 101  53 101
M  END
>  <TORSDO>  (72) 
F 17

>  <SCORE>  (72) 
-14.219

>  <name>  (72) 
71

>  <ligand_id>  (72) 
71

>  <original_smiles>  (72) 
[H]c1c([H])c([H])c2c(c1[H])C([H])([H])C([H])([H])C([H])([H])C2([H])N([H])C(=O)C1([H])N(C(=O)C([H])(N([H])C(=O)C([H])(N([H])C([H])([H])[H])C([H])([H])[H])C(C([H])([H])[H])(C([H])([H])[H])C([H])([H])[H])C([H])([H])c2c([H])c(OC([H])([H])C3([H])C([H])([H])C([H])([H])C([H])([H])C3([H])C(=O)N3C([H])([H])C([H])([H])C4([H])N(C(=O)N5C([H])([H])C([H])([H])C([H])([H])C([H])(n6nc(-c7c([H])c([H])c(Oc8c([H])c([H])c(F)c([H])c8F)c([H])c7[H])c(C(=O)N([H])[H])c6N([H])[H])C5([H])[H])C([H])([H])C([H])([H])C34[H])c([H])c([H])c2C1([H])[H]

>  <smiles>  (72) 
[H]c1c([H])c([H])c2c(c1[H])C([H])([H])C([H])([H])C([H])([H])C2([H])N([H])C(=O)C1([H])N(C(=O)C([H])(N([H])C(=O)C([H])(N([H])C([H])([H])[H])C([H])([H])[H])C(C([H])([H])[H])(C([H])([H])[H])C([H])([H])[H])C([H])([H])c2c([H])c(OC([H])([H])C3([H])C([H])([H])C([H])([H])C([H])([H])C3([H])C(=O)N3C([H])([H])C([H])([H])C4([H])N(C(=O)N5C([H])([H])C([H])([H])C([H])([H])C([H])(n6nc(-c7c([H])c([H])c(Oc8c([H])c([H])c(F)c([H])c8F)c([H])c7[H])c(C(=O)N([H])[H])c6N([H])[H])C5([H])[H])C([H])([H])C([H])([H])C34[H])c([H])c([H])c2C1([H])[H]

$$$$
72:0:0
     RDKit          3D

105104  0  0  1  0  0  0  0  0999 V2000
  -28.8940  -16.7210   20.9110 C   0  0  0  0  0  2  0  0  0  0  0  0
  -30.1490  -14.0060   21.4370 C   0  0  0  0  0  2  0  0  0  0  0  0
  -30.1510  -12.5710   20.6910 C   0  0  0  0  0  2  0  0  0  0  0  0
  -28.7810  -11.8990   20.7330 C   0  0  0  0  0  2  0  0  0  0  0  0
  -27.7880  -13.0590   20.7310 C   0  0  0  0  0  3  0  0  0  0  0  0
  -27.9710  -14.1540   21.8070 C   0  0  0  0  0  2  0  0  0  0  0  0
  -28.9390  -15.1230   21.2180 N   0  0  0  0  0  0  0  0  0  0  0  0
  -30.1370  -16.7160   21.3070 O   0  0  0  0  0  1  0  0  0  0  0  0
  -27.9760  -18.1970   20.0420 N   0  0  0  0  0  1  0  0  0  0  0  0
  -25.4440  -13.5810   20.2210 C   0  0  0  0  0  0  0  0  0  0  0  0
  -24.2910  -12.8820   20.3380 C   0  0  0  0  0  0  0  0  0  0  0  0
  -24.6460  -11.6080   20.8860 C   0  0  0  0  0  0  0  0  0  0  0  0
  -26.4180  -12.7250   20.6710 N   0  0  0  0  0  0  0  0  0  0  0  0
  -25.9460  -11.5520   21.1470 N   0  0  0  0  0  0  0  0  0  0  0  0
  -23.8260  -10.4170   21.0980 C   0  0  0  0  0  0  0  0  0  0  0  0
  -23.7810   -9.7600   22.3450 C   0  0  0  0  0  3  0  0  0  0  0  0
  -22.9560   -8.6280   22.5210 C   0  0  0  0  0  3  0  0  0  0  0  0
  -22.1660   -8.1510   21.4490 C   0  0  0  0  0  0  0  0  0  0  0  0
  -22.2330   -8.8000   20.2030 C   0  0  0  0  0  3  0  0  0  0  0  0
  -23.0590   -9.9210   20.0260 C   0  0  0  0  0  3  0  0  0  0  0  0
  -21.3560   -7.0470   21.5200 O   0  0  0  0  0  0  0  0  0  0  0  0
  -20.8120   -6.6350   22.7080 C   0  0  0  0  0  0  0  0  0  0  0  0
  -20.0320   -7.4970   23.5090 C   0  0  0  0  0  3  0  0  0  0  0  0
  -19.4320   -7.0100   24.6850 C   0  0  0  0  0  3  0  0  0  0  0  0
  -19.6060   -5.6660   25.0630 C   0  0  0  0  0  0  0  0  0  0  0  0
  -20.3800   -4.8050   24.2650 C   0  0  0  0  0  3  0  0  0  0  0  0
  -20.9790   -5.2880   23.0870 C   0  0  0  0  0  0  0  0  0  0  0  0
  -21.7070   -4.4510   22.3110 F   0  0  0  0  0  0  0  0  0  0  0  0
  -19.0220   -5.1940   26.1900 F   0  0  0  0  0  0  0  0  0  0  0  0
  -22.9580  -13.3530   19.8540 C   0  0  0  0  0  0  0  0  0  0  0  0
  -21.8840  -12.9130   20.4960 N   0  0  0  0  0  0  0  0  0  0  0  0
  -22.8720  -14.1610   18.9290 O   0  0  0  0  0  0  0  0  0  0  0  0
  -21.9600  -12.2670   21.2660 H   0  0  0  0  0  0  0  0  0  0  0  0
  -20.9710  -13.2370   20.2170 H   0  0  0  0  0  0  0  0  0  0  0  0
  -25.7590  -14.8580   19.7600 N   0  0  0  0  0  0  0  0  0  0  0  0
  -25.0600  -15.4330   19.3080 H   0  0  0  0  0  0  0  0  0  0  0  0
  -26.7060  -15.1520   19.5660 H   0  0  0  0  0  0  0  0  0  0  0  0
  -28.9880  -18.4970   19.0150 C   0  0  0  0  0  2  0  0  0  0  0  0
  -29.6770  -19.8850   19.1580 C   0  0  0  0  0  2  0  0  0  0  0  0
  -29.1250  -21.0950   18.3420 C   0  0  0  0  0  2  0  0  0  0  0  0
  -29.7170  -21.2710   16.9380 C   0  0  0  0  0  2  0  0  0  0  0  0
  -30.1930  -19.9550   16.4280 N   0  0  0  0  0  4  0  0  0  0  0  0
  -29.5010  -19.5270   15.8300 H   0  0  0  0  0  0  0  0  0  0  0  0
  -30.2030  -19.4040   17.2770 H   0  0  0  0  0  0  0  0  0  0  0  0
  -31.5440  -19.7940   15.8160 C   0  0  0  0  0  2  0  0  0  0  0  0
  -32.4090  -21.0760   15.6760 C   0  0  0  0  0  2  0  0  0  0  0  0
  -32.2570  -21.5880   14.2310 C   0  0  0  0  0  2  0  0  0  0  0  0
  -32.1610  -23.0900   13.9360 C   0  0  0  0  0  2  0  0  0  0  0  0
  -31.4440  -23.3510   12.7140 O   0  0  0  0  0  0  0  0  0  0  0  0
  -31.2400  -24.4150    5.7650 C   0  0  0  0  0  0  0  0  0  0  0  0
  -31.9070  -22.9090   11.4960 C   0  0  0  0  0  0  0  0  0  0  0  0
  -32.0600  -22.1830    6.7780 C   0  0  0  0  0  3  0  0  0  0  0  0
  -32.8870  -22.1630    8.9860 C   0  0  0  0  0  0  0  0  0  0  0  0
  -32.2930  -24.3830    7.9990 C   0  0  0  0  0  2  0  0  0  0  0  0
  -32.4020  -23.4610    9.1860 C   0  0  0  0  0  0  0  0  0  0  0  0
  -31.9280  -23.8470   10.4460 C   0  0  0  0  0  3  0  0  0  0  0  0
  -32.2630  -21.5670   11.2160 C   0  0  0  0  0  3  0  0  0  0  0  0
  -32.7900  -21.1950    9.9820 C   0  0  0  0  0  3  0  0  0  0  0  0
  -33.2780  -21.8130    7.5950 C   0  0  0  0  0  2  0  0  0  0  0  0
  -31.7780  -23.6830    6.8060 N   0  0  0  0  0  0  0  0  0  0  0  0
  -31.0000  -23.9060    4.6590 O   0  0  0  0  0  0  0  0  0  0  0  0
  -30.8770  -21.1410    7.2460 C   0  0  0  0  0  0  0  0  0  0  0  0
  -30.8740  -19.7170    7.9000 N   0  0  0  0  0  2  0  0  0  0  0  0
  -29.8900  -21.6500    6.7360 O   0  0  0  0  0  0  0  0  0  0  0  0
  -31.6130  -19.6300    8.6020 H   0  0  0  0  0  0  0  0  0  0  0  0
  -30.4300  -16.7850    4.0950 C   0  0  2  0  0  0  0  0  0  0  0  0
  -29.9610  -17.8550    7.5280 C   0  0  0  0  0  1  0  0  0  0  0  0
  -31.4540  -17.8740    8.0520 C   0  0  0  0  0  2  0  0  0  0  0  0
  -32.5370  -17.9670    6.8030 C   0  0  0  0  0  1  0  0  0  0  0  0
  -31.8780  -17.3270    4.4760 C   0  0  0  0  0  1  0  0  0  0  0  0
  -29.3350  -17.3250    5.0460 C   0  0  0  0  0  2  0  0  0  0  0  0
  -29.3480  -18.3370    3.7560 C   0  0  0  0  0  3  0  0  0  0  0  0
  -30.0010  -18.3950    2.3680 C   0  0  0  0  0  2  0  0  0  0  0  0
  -30.6110  -17.2180    1.8370 C   0  0  0  0  0  2  0  0  0  0  0  0
  -30.5180  -16.2070    2.7970 C   0  0  0  0  0  2  0  0  0  0  0  0
  -30.8740  -25.9390    5.9310 C   0  0  0  0  0  3  0  0  0  0  0  0
  -31.1650  -26.6590    4.6720 N   0  0  0  0  0  0  0  0  0  0  0  0
  -32.2320  -27.4400    4.4640 C   0  0  0  0  0  0  0  0  0  0  0  0
  -33.0850  -27.6570    5.3240 O   0  0  0  0  0  0  0  0  0  0  0  0
  -30.5530  -26.4710    3.8940 H   0  0  0  0  0  0  0  0  0  0  0  0
  -33.3610  -27.2300    2.2190 C   0  0  0  0  0  1  0  0  0  0  0  0
  -32.3970  -28.0770    3.0630 C   0  0  0  0  0  3  0  0  0  0  0  0
  -31.8920  -30.4120    3.6370 C   0  0  0  0  0  1  0  0  0  0  0  0
  -32.8740  -29.4760    3.0980 N   0  0  0  0  0  0  0  0  0  0  0  0
  -33.1310  -29.7930    2.1660 H   0  0  0  0  0  0  0  0  0  0  0  0
  -29.3620  -26.1640    6.3400 C   0  0  1  0  0  0  0  0  0  0  0  0
  -28.3590  -25.4640    5.3940 C   0  0  0  0  0  1  0  0  0  0  0  0
  -29.0910  -25.6490    7.7730 C   0  0  0  0  0  1  0  0  0  0  0  0
  -29.0280  -27.6750    6.3490 C   0  0  0  0  0  1  0  0  0  0  0  0
  -26.5160  -19.7650   19.1940 C   0  0  0  0  0 15  0  0  0  0  0  0
  -25.4920  -22.0580   18.4670 C   0  0  0  0  0 15  0  0  0  0  0  0
  -24.2190  -23.8940   17.1290 C   0  0  0  0  0 15  0  0  0  0  0  0
  -22.9100  -26.0710   16.4340 C   0  0  0  0  0 15  0  0  0  0  0  0
  -20.6790  -26.8860   11.1580 C   0  0  0  0  0  3  0  0  0  0  0  0
  -18.9600  -24.3230   12.4540 C   0  0  0  0  0  2  0  0  0  0  0  0
  -21.5930  -27.4640   12.7930 C   0  0  0  0  0  3  0  0  0  0  0  0
  -19.6750  -24.6420   14.1790 C   0  0  0  0  0  1  0  0  0  0  0  0
  -19.4630  -25.4150   10.9980 C   0  0  0  0  0  3  0  0  0  0  0  0
  -21.4880  -26.6060   14.3800 N   0  0  0  0  0  2  0  0  0  0  0  0
  -22.2050  -25.9920   13.9890 H   0  0  0  0  0  0  0  0  0  0  0  0
  -19.7340  -24.5190    9.7430 C   0  0  0  0  0  2  0  0  0  0  0  0
  -18.7920  -23.3830    9.5740 N   0  0  0  0  0  4  0  0  0  0  0  0
  -18.8360  -22.7250   10.3300 H   0  0  0  0  0  0  0  0  0  0  0  0
  -19.0440  -22.8660    8.7430 H   0  0  0  0  0  0  0  0  0  0  0  0
  -17.8380  -23.6730    9.4460 H   0  0  0  0  0  0  0  0  0  0  0  0
  1  7  1  0
  1  8  1  0
  3  4  1  0
  3  2  1  0
  5 13  1  0
  5  4  1  0
  5  6  1  0
  7  2  1  0
  7  6  1  0
 10 11  2  0
 10 13  1  0
 11 12  1  0
 12 15  1  0
 12 14  2  0
 13 14  1  0
 15 16  1  0
 16 17  2  0
 18 21  1  0
 18 17  1  0
 19 18  2  0
 20 19  1  0
 20 15  2  0
 21 22  1  0
 22 27  2  0
 22 23  1  0
 23 24  2  0
 24 25  1  0
 25 29  1  0
 26 25  2  0
 27 26  1  0
 28 27  1  0
 30 11  1  0
 30 31  1  0
 31 33  1  0
 32 30  2  0
 34 31  1  0
 35 10  1  0
 36 35  1  0
 37 35  1  0
 38 39  1  0
 38  9  1  0
 40 39  1  0
 41 40  1  0
 42 41  1  0
 42 44  1  0
 43 42  1  0
 45 42  1  0
 46 45  1  0
 47 46  1  0
 48 47  1  0
 49 48  1  0
 50 60  1  0
 51 49  1  0
 52 60  1  0
 52 62  1  0
 52 59  1  0
 53 55  2  0
 53 58  1  0
 54 55  1  0
 55 56  1  0
 56 51  2  0
 57 51  1  0
 58 57  2  0
 59 53  1  0
 60 54  1  0
 61 50  2  0
 62 63  1  0
 63 65  1  0
 64 62  2  0
 66 70  1  1
 66 71  1  0
 67 68  1  0
 69 68  1  0
 72 73  1  0
 72 66  1  0
 72 71  1  0
 74 73  1  0
 74 75  1  0
 75 66  1  0
 76 50  1  0
 76 86  1  0
 77 76  1  0
 78 77  1  0
 78 79  2  0
 80 77  1  0
 82 81  1  0
 82 84  1  0
 82 78  1  0
 84 83  1  0
 85 84  1  0
 86 89  1  1
 86 88  1  0
 87 86  1  0
 94 96  2  0
 95 97  1  0
 96 99  1  0
 98101  1  0
 98 94  1  0
 98 95  1  0
100 99  1  0
102101  1  0
102103  1  0
104102  1  0
105102  1  0
M  ISO  4   1 100   9 100  48 101  49 101
M  END
>  <TORSDO>  (73) 
F 31

>  <SCORE>  (73) 
-2.107

>  <name>  (73) 
72

>  <ligand_id>  (73) 
72

>  <original_smiles>  (73) 
[H]c1c([H])c([H])c2c(c1[H])C([H])([H])C([H])([H])C([H])([H])C2([H])N([H])C(=O)C1([H])N(C(=O)C([H])(N([H])C(=O)C([H])(N([H])C([H])([H])[H])C([H])([H])[H])C(C([H])([H])[H])(C([H])([H])[H])C([H])([H])[H])C([H])([H])c2c([H])c(OC([H])([H])C([H])([H])C([H])([H])C([H])([H])[N+]([H])([H])C([H])([H])C([H])([H])C([H])([H])C([H])([H])N(C(=O)N3C([H])([H])C([H])([H])C([H])([H])C([H])(n4nc(-c5c([H])c([H])c(Oc6c([H])c([H])c(F)c([H])c6F)c([H])c5[H])c(C(=O)N([H])[H])c4N([H])[H])C3([H])[H])C([H])([H])C([H])([H])C([H])([H])C([H])([H])[N+]3([H])C([H])([H])C([H])([H])C([H])(C([H])([H])[N+]([H])([H])[H])C([H])([H])C3([H])[H])c([H])c([H])c2C1([H])[H]

>  <smiles>  (73) 
[H]c1c([H])c([H])c2c(c1[H])C([H])([H])C([H])([H])C([H])([H])C2([H])N([H])C(=O)C1([H])N(C(=O)C([H])(N([H])C(=O)C([H])(N([H])C([H])([H])[H])C([H])([H])[H])C(C([H])([H])[H])(C([H])([H])[H])C([H])([H])[H])C([H])([H])c2c([H])c(OC([H])([H])C([H])([H])C([H])([H])C([H])([H])[N+]([H])([H])C([H])([H])C([H])([H])C([H])([H])C([H])([H])N(C(=O)N3C([H])([H])C([H])([H])C([H])([H])C([H])(n4nc(-c5c([H])c([H])c(Oc6c([H])c([H])c(F)c([H])c6F)c([H])c5[H])c(C(=O)N([H])[H])c4N([H])[H])C3([H])[H])C([H])([H])C([H])([H])C([H])([H])C([H])([H])[N+]3([H])C([H])([H])C([H])([H])C([H])(C([H])([H])[N+]([H])([H])[H])C([H])([H])C3([H])[H])c([H])c([H])c2C1([H])[H]

$$$$
73:0:0
     RDKit          3D

100109  0  0  1  0  0  0  0  0999 V2000
  -28.8150  -23.3380   16.9450 C   0  0  0  0  0  2  0  0  0  0  0  0
  -27.9070  -22.8470   18.1070 C   0  0  0  0  0  2  0  0  0  0  0  0
  -31.3250  -23.5560   19.6660 C   0  0  0  0  0  2  0  0  0  0  0  0
  -29.8970  -25.3750   18.7330 C   0  0  0  0  0  2  0  0  0  0  0  0
  -30.7470  -22.1810   20.0190 C   0  0  0  0  0  2  0  0  0  0  0  0
  -30.3400  -23.3040   17.2050 C   0  0  0  0  0  3  0  0  0  0  0  0
  -30.8400  -24.2280   18.3600 C   0  0  0  0  0  3  0  0  0  0  0  0
  -28.3440  -23.2430   19.5580 C   0  0  0  0  0  3  0  0  0  0  0  0
  -28.6050  -24.9560   19.4630 C   0  0  0  0  0  3  0  0  0  0  0  0
  -29.2660  -22.0470   20.1470 N   0  0  1  0  0  4  0  0  0  0  0  0
  -29.1130  -22.1310   21.1430 H   0  0  0  0  0  0  0  0  0  0  0  0
  -31.0690  -23.6940   15.9370 C   0  0  0  0  0  0  0  0  0  0  0  0
  -32.0240  -22.8840   15.4610 N   0  0  0  0  0  0  0  0  0  0  0  0
  -30.7910  -24.8430   15.2980 N   0  0  0  0  0  4  0  0  0  0  0  0
  -32.2480  -22.0210   15.9390 H   0  0  0  0  0  0  0  0  0  0  0  0
  -32.5580  -23.0760   14.6260 H   0  0  0  0  0  0  0  0  0  0  0  0
  -30.0740  -25.4710   15.6350 H   0  0  0  0  0  0  0  0  0  0  0  0
  -31.2740  -25.1310   14.4600 H   0  0  0  0  0  0  0  0  0  0  0  0
  -28.2960  -26.2150   20.3110 O   0  0  0  0  0  0  0  0  0  0  0  0
  -24.6490  -31.8720   23.2460 C   0  0  0  0  0  0  0  0  0  0  0  0
  -27.2320  -27.1800   20.1680 C   0  0  0  0  0  0  0  0  0  0  0  0
  -23.4440  -30.4750   21.6100 C   0  0  0  0  0  3  0  0  0  0  0  0
  -24.8870  -28.9060   20.1680 C   0  0  0  0  0  0  0  0  0  0  0  0
  -25.9950  -30.7460   21.4340 C   0  0  0  0  0  2  0  0  0  0  0  0
  -26.0650  -29.3560   20.7760 C   0  0  0  0  0  0  0  0  0  0  0  0
  -27.2300  -28.5020   20.7700 C   0  0  0  0  0  3  0  0  0  0  0  0
  -26.0220  -26.8260   19.5270 C   0  0  0  0  0  3  0  0  0  0  0  0
  -24.8780  -27.6550   19.5330 C   0  0  0  0  0  3  0  0  0  0  0  0
  -23.6560  -29.7990   20.2280 C   0  0  0  0  0  2  0  0  0  0  0  0
  -24.7170  -31.0540   22.1510 N   0  0  0  0  0  0  0  0  0  0  0  0
  -23.5660  -32.1530   23.7810 O   0  0  0  0  0  0  0  0  0  0  0  0
  -22.7720  -29.4650   22.5750 C   0  0  0  0  0  0  0  0  0  0  0  0
  -21.4440  -29.2920   22.4520 N   0  0  0  0  0  0  0  0  0  0  0  0
  -23.4480  -28.8440   23.4000 O   0  0  0  0  0  0  0  0  0  0  0  0
  -20.9560  -29.8470   21.7640 H   0  0  0  0  0  0  0  0  0  0  0  0
  -18.0690  -28.0730   22.9530 C   0  0  0  0  0  0  0  0  0  0  0  0
  -20.6260  -28.3530   23.2250 C   0  0  0  0  0  3  0  0  0  0  0  0
  -20.7380  -26.9180   22.6580 C   0  0  0  0  0  2  0  0  0  0  0  0
  -19.6410  -26.5840   21.6430 C   0  0  0  0  0  2  0  0  0  0  0  0
  -18.2560  -26.7220   22.2830 C   0  0  0  0  0  2  0  0  0  0  0  0
  -19.1820  -28.8460   23.3820 C   0  0  0  0  0  0  0  0  0  0  0  0
  -18.9520  -30.1080   23.9700 C   0  0  0  0  0  3  0  0  0  0  0  0
  -17.6420  -30.5990   24.1330 C   0  0  0  0  0  3  0  0  0  0  0  0
  -16.5460  -29.8240   23.7210 C   0  0  0  0  0  3  0  0  0  0  0  0
  -16.7590  -28.5630   23.1370 C   0  0  0  0  0  3  0  0  0  0  0  0
  -25.9300  -32.5080   23.8680 C   0  0  0  0  0  3  0  0  0  0  0  0
  -26.4420  -31.7450   25.1530 C   0  0  1  0  0  0  0  0  0  0  0  0
  -25.3460  -31.5220   26.2210 C   0  0  0  0  0  1  0  0  0  0  0  0
  -27.0180  -30.3610   24.7760 C   0  0  0  0  0  1  0  0  0  0  0  0
  -27.5950  -32.5390   25.8090 C   0  0  0  0  0  1  0  0  0  0  0  0
  -25.6210  -33.9080   24.1940 N   0  0  0  0  0  0  0  0  0  0  0  0
  -25.9590  -34.9630   23.4370 C   0  0  0  0  0  0  0  0  0  0  0  0
  -26.6290  -34.8570   22.4070 O   0  0  0  0  0  0  0  0  0  0  0  0
  -25.0260  -34.0660   24.9930 H   0  0  0  0  0  0  0  0  0  0  0  0
  -24.2400  -36.7690   23.0850 C   0  0  0  0  0  1  0  0  0  0  0  0
  -25.4780  -36.3550   23.8960 C   0  0  0  0  0  3  0  0  0  0  0  0
  -27.6150  -37.2310   24.7310 C   0  0  0  0  0  1  0  0  0  0  0  0
  -26.5150  -37.4040   23.7860 N   0  0  0  0  0  0  0  0  0  0  0  0
  -26.1130  -38.3260   23.9350 H   0  0  0  0  0  0  0  0  0  0  0  0
  -28.9420  -20.5040   19.8280 C   0  0  0  0  0  2  0  0  0  0  0  0
  -29.5420  -19.1320   20.6390 C   0  0  0  0  0  2  0  0  0  0  0  0
  -29.9220  -17.6390   19.9260 C   0  0  0  0  0  2  0  0  0  0  0  0
  -30.5450  -14.9820   20.3560 C   0  0  0  0  0  0  0  0  0  0  0  0
  -30.4140  -12.6290   19.4340 C   0  0  0  0  0  2  0  0  0  0  0  0
  -29.4960  -12.6090   18.1890 C   0  0  0  0  0  2  0  0  0  0  0  0
  -28.0240  -12.4190   18.5960 C   0  0  0  0  0  2  0  0  0  0  0  0
  -27.6140  -13.3270   19.7880 C   0  0  0  0  0  3  0  0  0  0  0  0
  -28.6600  -13.3160   20.9270 C   0  0  0  0  0  2  0  0  0  0  0  0
  -29.9440  -13.7210   20.3360 N   0  0  0  0  0  0  0  0  0  0  0  0
  -31.7350  -15.0420   20.0270 O   0  0  0  0  0  0  0  0  0  0  0  0
  -29.7800  -16.1720   20.5220 N   0  0  0  0  0  0  0  0  0  0  0  0
  -28.8490  -15.9760   20.8620 H   0  0  0  0  0  0  0  0  0  0  0  0
  -25.2190  -13.9060   20.4800 C   0  0  0  0  0  0  0  0  0  0  0  0
  -24.1520  -13.1320   20.8410 C   0  0  0  0  0  0  0  0  0  0  0  0
  -24.6190  -11.7820   20.8320 C   0  0  0  0  0  0  0  0  0  0  0  0
  -26.2690  -13.0300   20.2670 N   0  0  0  0  0  0  0  0  0  0  0  0
  -25.9150  -11.7470   20.5410 N   0  0  0  0  0  0  0  0  0  0  0  0
  -23.8890  -10.5210   21.0210 C   0  0  0  0  0  0  0  0  0  0  0  0
  -24.3070   -9.5600   21.9690 C   0  0  0  0  0  3  0  0  0  0  0  0
  -23.5740   -8.3660   22.1460 C   0  0  0  0  0  3  0  0  0  0  0  0
  -22.4120   -8.1240   21.3750 C   0  0  0  0  0  0  0  0  0  0  0  0
  -22.0160   -9.0720   20.4160 C   0  0  0  0  0  3  0  0  0  0  0  0
  -22.7490  -10.2580   20.2380 C   0  0  0  0  0  3  0  0  0  0  0  0
  -21.6550   -6.9800   21.4590 O   0  0  0  0  0  0  0  0  0  0  0  0
  -21.5850   -6.2480   22.6180 C   0  0  0  0  0  0  0  0  0  0  0  0
  -21.1360   -6.8120   23.8310 C   0  0  0  0  0  3  0  0  0  0  0  0
  -21.0130   -6.0070   24.9810 C   0  0  0  0  0  3  0  0  0  0  0  0
  -21.3310   -4.6360   24.9190 C   0  0  0  0  0  0  0  0  0  0  0  0
  -21.7750   -4.0710   23.7090 C   0  0  0  0  0  3  0  0  0  0  0  0
  -21.8980   -4.8750   22.5620 C   0  0  0  0  0  0  0  0  0  0  0  0
  -22.3050   -4.3210   21.3940 F   0  0  0  0  0  0  0  0  0  0  0  0
  -21.2080   -3.8590   26.0190 F   0  0  0  0  0  0  0  0  0  0  0  0
  -22.7500  -13.6100   21.0860 C   0  0  0  0  0  0  0  0  0  0  0  0
  -22.0070  -12.9220   21.9450 N   0  0  0  0  0  0  0  0  0  0  0  0
  -22.3230  -14.6320   20.5520 O   0  0  0  0  0  0  0  0  0  0  0  0
  -22.3660  -12.0950   22.3990 H   0  0  0  0  0  0  0  0  0  0  0  0
  -21.0650  -13.2250   22.1480 H   0  0  0  0  0  0  0  0  0  0  0  0
  -25.3840  -15.2760   20.2920 N   0  0  0  0  0  0  0  0  0  0  0  0
  -24.6110  -15.9290   20.3850 H   0  0  0  0  0  0  0  0  0  0  0  0
  -26.2280  -15.7080   19.9400 H   0  0  0  0  0  0  0  0  0  0  0  0
  1  6  1  0
  1  2  1  0
  3  5  1  0
  4  9  1  0
  5 10  1  0
  6 12  1  0
  6  7  1  0
  7  4  1  0
  7  3  1  0
  8  2  1  0
  8 10  1  0
  9  8  1  0
  9 19  1  0
 10 11  1  1
 13 12  1  0
 13 15  1  0
 14 17  1  0
 14 12  2  0
 16 13  1  0
 18 14  1  0
 20 31  2  0
 21 19  1  0
 21 26  1  0
 22 30  1  0
 22 32  1  0
 23 29  1  0
 23 25  1  0
 24 30  1  0
 25 24  1  0
 26 25  2  0
 27 28  1  0
 27 21  2  0
 28 23  2  0
 29 22  1  0
 30 20  1  0
 32 34  2  0
 33 32  1  0
 35 33  1  0
 36 45  2  0
 36 41  1  0
 37 33  1  0
 37 41  1  0
 38 37  1  0
 39 40  1  0
 39 38  1  0
 40 36  1  0
 41 42  2  0
 42 43  1  0
 44 43  2  0
 45 44  1  0
 46 20  1  0
 46 51  1  0
 46 47  1  0
 47 50  1  1
 47 48  1  0
 49 47  1  0
 51 54  1  0
 52 56  1  0
 52 51  1  0
 53 52  2  0
 56 55  1  0
 58 56  1  0
 58 59  1  0
 58 57  1  0
 60 10  1  0
 60 61  1  0
 62 71  1  0
 62 61  1  0
 63 71  1  0
 64 69  1  0
 65 66  1  0
 65 64  1  0
 67 66  1  0
 67 76  1  0
 67 68  1  0
 69 63  1  0
 69 68  1  0
 70 63  2  0
 71 72  1  0
 73 74  2  0
 74 93  1  0
 75 74  1  0
 75 78  1  0
 76 73  1  0
 76 77  1  0
 77 75  2  0
 78 79  1  0
 79 80  2  0
 81 84  1  0
 81 80  1  0
 82 81  2  0
 83 82  1  0
 83 78  2  0
 84 85  1  0
 85 86  1  0
 86 87  2  0
 88 87  1  0
 88 92  1  0
 89 88  2  0
 90 85  2  0
 90 89  1  0
 91 90  1  0
 93 94  1  0
 94 97  1  0
 94 96  1  0
 95 93  2  0
 98 99  1  0
 98 73  1  0
100 98  1  0
M  ISO  4   9 101  19 101  63 100  71 100
M  END
>  <TORSDO>  (74) 
F 20

>  <SCORE>  (74) 
-14.774

>  <name>  (74) 
73

>  <ligand_id>  (74) 
73

>  <original_smiles>  (74) 
[H]c1c([H])c([H])c2c(c1[H])C([H])([H])C([H])([H])C([H])([H])C2([H])N([H])C(=O)C1([H])N(C(=O)C([H])(N([H])C(=O)C([H])(N([H])C([H])([H])[H])C([H])([H])[H])C(C([H])([H])[H])(C([H])([H])[H])C([H])([H])[H])C([H])([H])c2c([H])c(OC3([H])C([H])([H])C4([H])C([H])([H])C([H])([H])[N+]([H])(C([H])([H])C([H])([H])C([H])([H])N([H])C(=O)N5C([H])([H])C([H])([H])C([H])([H])C([H])(n6nc(-c7c([H])c([H])c(Oc8c([H])c([H])c(F)c([H])c8F)c([H])c7[H])c(C(=O)N([H])[H])c6N([H])[H])C5([H])[H])C3([H])C([H])([H])C([H])([H])C4([H])C(N([H])[H])=[N+]([H])[H])c([H])c([H])c2C1([H])[H]

>  <smiles>  (74) 
[H]c1c([H])c([H])c2c(c1[H])C([H])([H])C([H])([H])C([H])([H])C2([H])N([H])C(=O)C1([H])N(C(=O)C([H])(N([H])C(=O)C([H])(N([H])C([H])([H])[H])C([H])([H])[H])C(C([H])([H])[H])(C([H])([H])[H])C([H])([H])[H])C([H])([H])c2c([H])c(OC3([H])C([H])([H])C4([H])C([H])([H])C([H])([H])[N+]([H])(C([H])([H])C([H])([H])C([H])([H])N([H])C(=O)N5C([H])([H])C([H])([H])C([H])([H])C([H])(n6nc(-c7c([H])c([H])c(Oc8c([H])c([H])c(F)c([H])c8F)c([H])c7[H])c(C(=O)N([H])[H])c6N([H])[H])C5([H])[H])C3([H])C([H])([H])C([H])([H])C4([H])C(N([H])[H])=[N+]([H])[H])c([H])c([H])c2C1([H])[H]

$$$$
74:0:0
     RDKit          3D

 86 93  0  0  1  0  0  0  0  0999 V2000
  -28.4110  -20.2750   20.0330 C   0  0  0  0  0  0  0  0  0  0  0  0
  -30.2800  -21.4740   20.6390 C   0  0  0  0  0  2  0  0  0  0  0  0
  -30.5240  -19.8670   20.9800 C   0  0  0  0  0  2  0  0  0  0  0  0
  -28.7610  -21.9570   20.4860 C   0  0  0  0  0  2  0  0  0  0  0  0
  -29.5970  -18.8890   20.1500 C   0  0  0  0  0  3  0  0  0  0  0  0
  -27.2760  -20.0430   19.6120 O   0  0  0  0  0  0  0  0  0  0  0  0
  -30.2670  -15.7260   20.2480 C   0  0  0  0  0  0  0  0  0  0  0  0
  -30.3560  -13.1680   19.4430 C   0  0  0  0  0  2  0  0  0  0  0  0
  -29.4580  -12.7610   18.2370 C   0  0  0  0  0  2  0  0  0  0  0  0
  -28.0380  -12.4060   18.7040 C   0  0  0  0  0  2  0  0  0  0  0  0
  -27.5380  -13.4060   19.7700 C   0  0  0  0  0  3  0  0  0  0  0  0
  -28.5760  -13.7260   20.8730 C   0  0  0  0  0  2  0  0  0  0  0  0
  -29.7430  -14.3530   20.2090 N   0  0  0  0  0  0  0  0  0  0  0  0
  -31.4900  -15.6550   20.0110 O   0  0  0  0  0  0  0  0  0  0  0  0
  -29.5240  -17.1030   20.3800 N   0  0  0  0  0  0  0  0  0  0  0  0
  -28.5660  -16.8770   20.6020 H   0  0  0  0  0  0  0  0  0  0  0  0
  -25.1880  -13.9330   20.5710 C   0  0  0  0  0  0  0  0  0  0  0  0
  -24.1320  -13.1520   20.9400 C   0  0  0  0  0  0  0  0  0  0  0  0
  -24.5970  -11.8020   20.8820 C   0  0  0  0  0  0  0  0  0  0  0  0
  -26.2270  -13.0630   20.3010 N   0  0  0  0  0  0  0  0  0  0  0  0
  -25.8850  -11.7720   20.5550 N   0  0  0  0  0  0  0  0  0  0  0  0
  -23.8650  -10.5390   21.0620 C   0  0  0  0  0  0  0  0  0  0  0  0
  -24.2930   -9.5610   21.9850 C   0  0  0  0  0  3  0  0  0  0  0  0
  -23.5570   -8.3670   22.1560 C   0  0  0  0  0  3  0  0  0  0  0  0
  -22.3790   -8.1450   21.4040 C   0  0  0  0  0  0  0  0  0  0  0  0
  -21.9710   -9.1120   20.4690 C   0  0  0  0  0  3  0  0  0  0  0  0
  -22.7070  -10.2960   20.2970 C   0  0  0  0  0  3  0  0  0  0  0  0
  -21.6160   -7.0050   21.4840 O   0  0  0  0  0  0  0  0  0  0  0  0
  -21.5540   -6.2600   22.6350 C   0  0  0  0  0  0  0  0  0  0  0  0
  -21.0950   -6.8070   23.8520 C   0  0  0  0  0  3  0  0  0  0  0  0
  -20.9800   -5.9890   24.9930 C   0  0  0  0  0  3  0  0  0  0  0  0
  -21.3140   -4.6240   24.9180 C   0  0  0  0  0  0  0  0  0  0  0  0
  -21.7660   -4.0750   23.7050 C   0  0  0  0  0  3  0  0  0  0  0  0
  -21.8820   -4.8910   22.5660 C   0  0  0  0  0  0  0  0  0  0  0  0
  -22.2970   -4.3520   21.3940 F   0  0  0  0  0  0  0  0  0  0  0  0
  -21.1980   -3.8350   26.0130 F   0  0  0  0  0  0  0  0  0  0  0  0
  -22.7390  -13.6310   21.2250 C   0  0  0  0  0  0  0  0  0  0  0  0
  -22.0160  -12.9300   22.0900 N   0  0  0  0  0  0  0  0  0  0  0  0
  -22.3030  -14.6630   20.7160 O   0  0  0  0  0  0  0  0  0  0  0  0
  -22.3830  -12.0960   22.5230 H   0  0  0  0  0  0  0  0  0  0  0  0
  -21.0810  -13.2330   22.3250 H   0  0  0  0  0  0  0  0  0  0  0  0
  -25.3490  -15.3060   20.4070 N   0  0  0  0  0  0  0  0  0  0  0  0
  -24.5780  -15.9550   20.5250 H   0  0  0  0  0  0  0  0  0  0  0  0
  -26.1810  -15.7450   20.0350 H   0  0  0  0  0  0  0  0  0  0  0  0
  -28.1310  -23.7630   19.9910 C   0  0  0  0  0  1  0  0  0  0  0  0
  -28.1800  -25.5040   20.3650 O   0  0  0  0  0  0  0  0  0  0  0  0
  -24.6260  -31.8210   23.2080 C   0  0  0  0  0  0  0  0  0  0  0  0
  -27.2100  -26.7270   20.2540 C   0  0  0  0  0  0  0  0  0  0  0  0
  -23.4620  -30.4130   21.5630 C   0  0  0  0  0  3  0  0  0  0  0  0
  -24.9330  -28.7650   20.1660 C   0  0  0  0  0  0  0  0  0  0  0  0
  -26.0420  -30.5600   21.4710 C   0  0  0  0  0  2  0  0  0  0  0  0
  -26.1190  -29.1230   20.8160 C   0  0  0  0  0  0  0  0  0  0  0  0
  -27.2380  -28.1320   20.8300 C   0  0  0  0  0  3  0  0  0  0  0  0
  -25.9920  -26.5870   19.5400 C   0  0  0  0  0  3  0  0  0  0  0  0
  -24.9100  -27.5230   19.5040 C   0  0  0  0  0  3  0  0  0  0  0  0
  -23.7200  -29.7120   20.1960 C   0  0  0  0  0  2  0  0  0  0  0  0
  -24.7340  -30.9650   22.1330 N   0  0  0  0  0  0  0  0  0  0  0  0
  -23.5260  -32.1180   23.7060 O   0  0  0  0  0  0  0  0  0  0  0  0
  -22.7390  -29.4370   22.5310 C   0  0  0  0  0  0  0  0  0  0  0  0
  -21.4060  -29.2850   22.4010 N   0  0  0  0  0  0  0  0  0  0  0  0
  -23.3900  -28.8140   23.3730 O   0  0  0  0  0  0  0  0  0  0  0  0
  -20.9310  -29.8390   21.7010 H   0  0  0  0  0  0  0  0  0  0  0  0
  -18.0120  -28.0910   22.9170 C   0  0  0  0  0  0  0  0  0  0  0  0
  -20.5760  -28.3490   23.1690 C   0  0  0  0  0  3  0  0  0  0  0  0
  -20.6670  -26.9190   22.5870 C   0  0  0  0  0  2  0  0  0  0  0  0
  -19.5600  -26.6090   21.5740 C   0  0  0  0  0  2  0  0  0  0  0  0
  -18.1810  -26.7500   22.2240 C   0  0  0  0  0  2  0  0  0  0  0  0
  -19.1350  -28.8500   23.3460 C   0  0  0  0  0  0  0  0  0  0  0  0
  -18.9180  -30.1020   23.9600 C   0  0  0  0  0  3  0  0  0  0  0  0
  -17.6150  -30.5990   24.1460 C   0  0  0  0  0  3  0  0  0  0  0  0
  -16.5070  -29.8400   23.7280 C   0  0  0  0  0  3  0  0  0  0  0  0
  -16.7070  -28.5880   23.1210 C   0  0  0  0  0  3  0  0  0  0  0  0
  -25.8780  -32.4810   23.8610 C   0  0  0  0  0  3  0  0  0  0  0  0
  -25.5500  -33.8870   24.1710 N   0  0  0  0  0  0  0  0  0  0  0  0
  -25.8910  -34.9450   23.4230 C   0  0  0  0  0  0  0  0  0  0  0  0
  -26.5710  -34.8400   22.3990 O   0  0  0  0  0  0  0  0  0  0  0  0
  -24.9460  -34.0410   24.9650 H   0  0  0  0  0  0  0  0  0  0  0  0
  -24.1660  -36.7490   23.0670 C   0  0  0  0  0  1  0  0  0  0  0  0
  -25.4060  -36.3390   23.8780 C   0  0  0  0  0  3  0  0  0  0  0  0
  -27.5360  -37.2350   24.7140 C   0  0  0  0  0  1  0  0  0  0  0  0
  -26.4400  -37.3920   23.7620 N   0  0  0  0  0  0  0  0  0  0  0  0
  -26.0320  -38.3130   23.8970 H   0  0  0  0  0  0  0  0  0  0  0  0
  -26.3520  -31.7430   25.1740 C   0  0  1  0  0  0  0  0  0  0  0  0
  -25.2260  -31.5340   26.2150 C   0  0  0  0  0  1  0  0  0  0  0  0
  -26.9450  -30.3540   24.8480 C   0  0  0  0  0  1  0  0  0  0  0  0
  -27.4840  -32.5520   25.8520 C   0  0  0  0  0  1  0  0  0  0  0  0
  1  5  1  0
  1  4  1  0
  2  3  1  0
  4  2  1  0
  5 15  1  0
  5  3  1  0
  6  1  2  0
  7 15  1  0
  8 13  1  0
  9 10  1  0
  9  8  1  0
 11 10  1  0
 11 20  1  0
 11 12  1  0
 13  7  1  0
 13 12  1  0
 14  7  2  0
 15 16  1  0
 17 18  2  0
 18 37  1  0
 19 18  1  0
 19 22  1  0
 20 21  1  0
 20 17  1  0
 21 19  2  0
 22 23  1  0
 23 24  2  0
 25 28  1  0
 25 24  1  0
 26 25  2  0
 27 26  1  0
 27 22  2  0
 28 29  1  0
 29 30  1  0
 30 31  2  0
 32 31  1  0
 32 36  1  0
 33 32  2  0
 34 29  2  0
 34 33  1  0
 35 34  1  0
 37 38  1  0
 38 41  1  0
 38 40  1  0
 39 37  2  0
 42 43  1  0
 42 17  1  0
 44 42  1  0
 45 46  1  0
 47 58  2  0
 48 46  1  0
 48 53  1  0
 49 57  1  0
 49 59  1  0
 50 56  1  0
 50 52  1  0
 51 57  1  0
 52 53  2  0
 52 51  1  0
 54 48  2  0
 55 54  1  0
 55 50  2  0
 56 49  1  0
 57 47  1  0
 59 61  2  0
 60 59  1  0
 62 60  1  0
 63 72  2  0
 63 68  1  0
 64 60  1  0
 64 68  1  0
 65 64  1  0
 66 67  1  0
 66 65  1  0
 67 63  1  0
 68 69  2  0
 69 70  1  0
 71 70  2  0
 72 71  1  0
 73 47  1  0
 73 74  1  0
 73 83  1  0
 74 77  1  0
 75 79  1  0
 75 74  1  0
 76 75  2  0
 79 78  1  0
 81 79  1  0
 81 82  1  0
 81 80  1  0
 83 86  1  1
 83 84  1  0
 85 83  1  0
M  ISO  4   7 100  15 100  45 101  46 101
M  END
>  <TORSDO>  (75) 
F 17

>  <SCORE>  (75) 
-16.324

>  <name>  (75) 
74

>  <ligand_id>  (75) 
74

>  <original_smiles>  (75) 
[H]c1c([H])c([H])c2c(c1[H])C([H])([H])C([H])([H])C([H])([H])C2([H])N([H])C(=O)C1([H])N(C(=O)C([H])(N([H])C(=O)C([H])(N([H])C([H])([H])[H])C([H])([H])[H])C(C([H])([H])[H])(C([H])([H])[H])C([H])([H])[H])C([H])([H])c2c([H])c(OC([H])([H])C3([H])C(=O)C([H])(N([H])C(=O)N4C([H])([H])C([H])([H])C([H])([H])C([H])(n5nc(-c6c([H])c([H])c(Oc7c([H])c([H])c(F)c([H])c7F)c([H])c6[H])c(C(=O)N([H])[H])c5N([H])[H])C4([H])[H])C([H])([H])C3([H])[H])c([H])c([H])c2C1([H])[H]

>  <smiles>  (75) 
[H]c1c([H])c([H])c2c(c1[H])C([H])([H])C([H])([H])C([H])([H])C2([H])N([H])C(=O)C1([H])N(C(=O)C([H])(N([H])C(=O)C([H])(N([H])C([H])([H])[H])C([H])([H])[H])C(C([H])([H])[H])(C([H])([H])[H])C([H])([H])[H])C([H])([H])c2c([H])c(OC([H])([H])C3([H])C(=O)C([H])(N([H])C(=O)N4C([H])([H])C([H])([H])C([H])([H])C([H])(n5nc(-c6c([H])c([H])c(Oc7c([H])c([H])c(F)c([H])c7F)c([H])c6[H])c(C(=O)N([H])[H])c5N([H])[H])C4([H])[H])C([H])([H])C3([H])[H])c([H])c([H])c2C1([H])[H]

$$$$
75:0:0
     RDKit          3D

 97105  0  0  1  0  0  0  0  0999 V2000
  -27.6170  -23.7810   19.6100 C   0  0  0  0  0  2  0  0  0  0  0  0
  -27.8580  -22.2930   20.1930 C   0  0  0  0  0  2  0  0  0  0  0  0
  -30.0500  -22.9490   20.8960 C   0  0  0  0  0  2  0  0  0  0  0  0
  -29.8290  -24.4360   20.3430 C   0  0  0  0  0  3  0  0  0  0  0  0
  -28.3510  -24.9920   20.3250 C   0  0  0  0  0  3  0  0  0  0  0  0
  -29.2880  -21.8080   20.2540 N   0  0  1  0  0  4  0  0  0  0  0  0
  -29.6200  -21.7340   19.3030 H   0  0  0  0  0  0  0  0  0  0  0  0
  -30.7490  -25.3800   21.1330 C   0  0  0  0  0  0  0  0  0  0  0  0
  -30.4520  -25.7620   22.2690 O   0  0  0  0  0  0  0  0  0  0  0  0
  -32.0700  -25.7890   20.4710 C   0  0  0  0  0  2  0  0  0  0  0  0
  -32.7610  -26.9810   21.1670 C   0  0  0  0  0  2  0  0  0  0  0  0
  -34.0460  -27.3390   20.5370 N   0  0  0  0  0  4  0  0  0  0  0  0
  -34.7080  -26.5880   20.6100 H   0  0  0  0  0  0  0  0  0  0  0  0
  -34.4390  -28.1400   21.0000 H   0  0  0  0  0  0  0  0  0  0  0  0
  -33.9270  -27.5730   19.5680 H   0  0  0  0  0  0  0  0  0  0  0  0
  -28.2960  -26.4320   19.7940 O   0  0  0  0  0  0  0  0  0  0  0  0
  -24.6210  -31.8720   23.0450 C   0  0  0  0  0  0  0  0  0  0  0  0
  -27.1680  -27.2960   19.8710 C   0  0  0  0  0  0  0  0  0  0  0  0
  -23.3840  -30.4910   21.4170 C   0  0  0  0  0  3  0  0  0  0  0  0
  -24.8060  -28.9540   19.9360 C   0  0  0  0  0  0  0  0  0  0  0  0
  -25.9230  -30.8060   21.1760 C   0  0  0  0  0  2  0  0  0  0  0  0
  -25.9930  -29.4270   20.5090 C   0  0  0  0  0  0  0  0  0  0  0  0
  -27.1760  -28.6140   20.4570 C   0  0  0  0  0  3  0  0  0  0  0  0
  -25.9560  -26.8980   19.2730 C   0  0  0  0  0  3  0  0  0  0  0  0
  -24.7950  -27.6990   19.3060 C   0  0  0  0  0  3  0  0  0  0  0  0
  -23.5700  -29.8320   20.0240 C   0  0  0  0  0  2  0  0  0  0  0  0
  -24.6640  -31.0770   21.9350 N   0  0  0  0  0  0  0  0  0  0  0  0
  -23.5490  -32.1350   23.6120 O   0  0  0  0  0  0  0  0  0  0  0  0
  -22.7500  -29.4600   22.3820 C   0  0  0  0  0  0  0  0  0  0  0  0
  -21.4230  -29.2680   22.2810 N   0  0  0  0  0  0  0  0  0  0  0  0
  -23.4520  -28.8340   23.1800 O   0  0  0  0  0  0  0  0  0  0  0  0
  -20.9140  -29.8260   21.6110 H   0  0  0  0  0  0  0  0  0  0  0  0
  -18.0810  -27.9770   22.8000 C   0  0  0  0  0  0  0  0  0  0  0  0
  -20.6320  -28.3100   23.0570 C   0  0  0  0  0  3  0  0  0  0  0  0
  -20.7710  -26.8790   22.4840 C   0  0  0  0  0  2  0  0  0  0  0  0
  -19.6740  -26.5240   21.4750 C   0  0  0  0  0  2  0  0  0  0  0  0
  -18.2900  -26.6320   22.1240 C   0  0  0  0  0  2  0  0  0  0  0  0
  -19.1790  -28.7720   23.2230 C   0  0  0  0  0  0  0  0  0  0  0  0
  -18.9270  -30.0270   23.8160 C   0  0  0  0  0  3  0  0  0  0  0  0
  -17.6100  -30.4920   23.9900 C   0  0  0  0  0  3  0  0  0  0  0  0
  -16.5250  -29.6950   23.5820 C   0  0  0  0  0  3  0  0  0  0  0  0
  -16.7610  -28.4390   22.9930 C   0  0  0  0  0  3  0  0  0  0  0  0
  -25.9120  -32.5060   23.6450 C   0  0  0  0  0  3  0  0  0  0  0  0
  -26.4850  -31.7030   24.8790 C   0  0  1  0  0  0  0  0  0  0  0  0
  -25.4340  -31.4180   25.9770 C   0  0  0  0  0  1  0  0  0  0  0  0
  -27.0710  -30.3460   24.4240 C   0  0  0  0  0  1  0  0  0  0  0  0
  -27.6500  -32.4930   25.5210 C   0  0  0  0  0  1  0  0  0  0  0  0
  -25.5920  -33.8870   24.0380 N   0  0  0  0  0  0  0  0  0  0  0  0
  -25.9040  -34.9760   23.3240 C   0  0  0  0  0  0  0  0  0  0  0  0
  -26.5610  -34.9250   22.2800 O   0  0  0  0  0  0  0  0  0  0  0  0
  -25.0090  -34.0020   24.8540 H   0  0  0  0  0  0  0  0  0  0  0  0
  -24.1590  -36.7710   23.0690 C   0  0  0  0  0  1  0  0  0  0  0  0
  -25.4100  -36.3390   23.8490 C   0  0  0  0  0  3  0  0  0  0  0  0
  -27.5460  -37.2000   24.7000 C   0  0  0  0  0  1  0  0  0  0  0  0
  -26.4320  -37.4040   23.7760 N   0  0  0  0  0  0  0  0  0  0  0  0
  -26.0200  -38.3120   23.9730 H   0  0  0  0  0  0  0  0  0  0  0  0
  -29.6180  -20.4270   20.9400 C   0  0  0  0  0  2  0  0  0  0  0  0
  -29.4490  -18.9180   20.2860 C   0  0  0  0  0  3  0  0  0  0  0  0
  -30.2560  -17.6320   20.9540 C   0  0  0  0  0  3  0  0  0  0  0  0
  -30.7210  -14.9900   20.6370 C   0  0  0  0  0  0  0  0  0  0  0  0
  -30.6500  -12.6380   19.7440 C   0  0  0  0  0  2  0  0  0  0  0  0
  -29.7780  -12.5830   18.4690 C   0  0  0  0  0  2  0  0  0  0  0  0
  -28.2920  -12.3920   18.8310 C   0  0  0  0  0  2  0  0  0  0  0  0
  -27.8260  -13.3470   19.9630 C   0  0  0  0  0  3  0  0  0  0  0  0
  -28.8220  -13.3690   21.1410 C   0  0  0  0  0  2  0  0  0  0  0  0
  -30.1300  -13.7410   20.5890 N   0  0  0  0  0  0  0  0  0  0  0  0
  -31.9340  -15.0850   20.4280 O   0  0  0  0  0  0  0  0  0  0  0  0
  -29.9120  -16.1330   20.7270 N   0  0  0  0  0  0  0  0  0  0  0  0
  -28.9290  -15.9170   20.7900 H   0  0  0  0  0  0  0  0  0  0  0  0
  -25.4110  -13.9370   20.5780 C   0  0  0  0  0  0  0  0  0  0  0  0
  -24.3300  -13.1640   20.9030 C   0  0  0  0  0  0  0  0  0  0  0  0
  -24.7960  -11.8130   20.9060 C   0  0  0  0  0  0  0  0  0  0  0  0
  -26.4650  -13.0570   20.3960 N   0  0  0  0  0  0  0  0  0  0  0  0
  -26.1010  -11.7760   20.6590 N   0  0  0  0  0  0  0  0  0  0  0  0
  -24.0630  -10.5510   21.0690 C   0  0  0  0  0  0  0  0  0  0  0  0
  -24.4620   -9.5810   22.0140 C   0  0  0  0  0  3  0  0  0  0  0  0
  -23.7290   -8.3850   22.1660 C   0  0  0  0  0  3  0  0  0  0  0  0
  -22.5810   -8.1510   21.3710 C   0  0  0  0  0  0  0  0  0  0  0  0
  -22.2010   -9.1090   20.4170 C   0  0  0  0  0  3  0  0  0  0  0  0
  -22.9360  -10.2970   20.2630 C   0  0  0  0  0  3  0  0  0  0  0  0
  -21.8210   -7.0070   21.4320 O   0  0  0  0  0  0  0  0  0  0  0  0
  -21.7390   -6.2570   22.5780 C   0  0  0  0  0  0  0  0  0  0  0  0
  -21.2950   -6.8090   23.7990 C   0  0  0  0  0  3  0  0  0  0  0  0
  -21.1600   -5.9860   24.9360 C   0  0  0  0  0  3  0  0  0  0  0  0
  -21.4600   -4.6140   24.8520 C   0  0  0  0  0  0  0  0  0  0  0  0
  -21.8980   -4.0620   23.6350 C   0  0  0  0  0  3  0  0  0  0  0  0
  -22.0340   -4.8810   22.5010 C   0  0  0  0  0  0  0  0  0  0  0  0
  -22.4360   -4.3400   21.3250 F   0  0  0  0  0  0  0  0  0  0  0  0
  -21.3230   -3.8210   25.9410 F   0  0  0  0  0  0  0  0  0  0  0  0
  -22.9210  -13.6420   21.1010 C   0  0  0  0  0  0  0  0  0  0  0  0
  -22.1560  -12.9570   21.9450 N   0  0  0  0  0  0  0  0  0  0  0  0
  -22.5060  -14.6570   20.5440 O   0  0  0  0  0  0  0  0  0  0  0  0
  -22.5040  -12.1360   22.4180 H   0  0  0  0  0  0  0  0  0  0  0  0
  -21.2080  -13.2600   22.1230 H   0  0  0  0  0  0  0  0  0  0  0  0
  -25.5800  -15.3060   20.3950 N   0  0  0  0  0  0  0  0  0  0  0  0
  -24.8020  -15.9550   20.4530 H   0  0  0  0  0  0  0  0  0  0  0  0
  -26.4310  -15.7420   20.0620 H   0  0  0  0  0  0  0  0  0  0  0  0
  1  2  1  0
  1  5  1  0
  2  6  1  0
  4  3  1  0
  4  8  1  0
  5 16  1  0
  5  4  1  0
  6  3  1  0
  6 57  1  0
  6  7  1  6
  8  9  2  0
 10  8  1  0
 10 11  1  0
 12 13  1  0
 12 14  1  0
 12 11  1  0
 15 12  1  0
 16 18  1  0
 17 28  2  0
 18 23  1  0
 19 27  1  0
 19 29  1  0
 20 26  1  0
 20 22  1  0
 21 27  1  0
 22 21  1  0
 23 22  2  0
 24 25  1  0
 24 18  2  0
 25 20  2  0
 26 19  1  0
 27 17  1  0
 29 31  2  0
 30 29  1  0
 32 30  1  0
 33 42  2  0
 33 38  1  0
 34 30  1  0
 34 38  1  0
 35 34  1  0
 36 37  1  0
 36 35  1  0
 37 33  1  0
 38 39  2  0
 39 40  1  0
 41 40  2  0
 42 41  1  0
 43 17  1  0
 43 48  1  0
 43 44  1  0
 44 47  1  1
 44 45  1  0
 46 44  1  0
 48 51  1  0
 49 53  1  0
 49 48  1  0
 50 49  2  0
 53 52  1  0
 55 53  1  0
 55 56  1  0
 55 54  1  0
 58 57  1  0
 58 59  2  0
 60 68  1  0
 61 66  1  0
 62 63  1  0
 62 61  1  0
 64 63  1  0
 64 73  1  0
 64 65  1  0
 66 60  1  0
 66 65  1  0
 67 60  2  0
 68 69  1  0
 68 59  1  0
 70 71  2  0
 71 72  1  0
 71 90  1  0
 72 75  1  0
 73 70  1  0
 73 74  1  0
 74 72  2  0
 75 76  1  0
 76 77  2  0
 78 81  1  0
 78 77  1  0
 79 78  2  0
 80 79  1  0
 80 75  2  0
 81 82  1  0
 82 83  1  0
 83 84  2  0
 85 84  1  0
 85 89  1  0
 86 85  2  0
 87 82  2  0
 87 86  1  0
 88 87  1  0
 90 91  1  0
 91 94  1  0
 91 93  1  0
 92 90  2  0
 95 96  1  0
 95 70  1  0
 97 95  1  0
M  ISO  4   5 101  16 101  60 100  68 100
M  END
>  <TORSDO>  (76) 
F 23

>  <SCORE>  (76) 
-12.903

>  <name>  (76) 
75

>  <ligand_id>  (76) 
75

>  <original_smiles>  (76) 
[H]c1c([H])c([H])c2c(c1[H])C([H])([H])C([H])([H])C([H])([H])C2([H])N([H])C(=O)C1([H])N(C(=O)C([H])(N([H])C(=O)C([H])(N([H])C([H])([H])[H])C([H])([H])[H])C(C([H])([H])[H])(C([H])([H])[H])C([H])([H])[H])C([H])([H])c2c([H])c(OC3([H])C([H])([H])C([H])([H])[N+]([H])(C([H])([H])C([H])([H])C([H])([H])N([H])C(=O)N4C([H])([H])C([H])([H])C([H])([H])C([H])(n5nc(-c6c([H])c([H])c(Oc7c([H])c([H])c(F)c([H])c7F)c([H])c6[H])c(C(=O)N([H])[H])c5N([H])[H])C4([H])[H])C([H])([H])C3([H])C(=O)C([H])([H])C([H])([H])[N+]([H])([H])[H])c([H])c([H])c2C1([H])[H]

>  <smiles>  (76) 
[H]c1c([H])c([H])c2c(c1[H])C([H])([H])C([H])([H])C([H])([H])C2([H])N([H])C(=O)C1([H])N(C(=O)C([H])(N([H])C(=O)C([H])(N([H])C([H])([H])[H])C([H])([H])[H])C(C([H])([H])[H])(C([H])([H])[H])C([H])([H])[H])C([H])([H])c2c([H])c(OC3([H])C([H])([H])C([H])([H])[N+]([H])(C([H])([H])C([H])([H])C([H])([H])N([H])C(=O)N4C([H])([H])C([H])([H])C([H])([H])C([H])(n5nc(-c6c([H])c([H])c(Oc7c([H])c([H])c(F)c([H])c7F)c([H])c6[H])c(C(=O)N([H])[H])c5N([H])[H])C4([H])[H])C([H])([H])C3([H])C(=O)C([H])([H])C([H])([H])[N+]([H])([H])[H])c([H])c([H])c2C1([H])[H]

$$$$
76:0:0
     RDKit          3D

103110  0  0  1  0  0  0  0  0999 V2000
  -28.9830  -17.8760   20.3540 C   0  0  0  0  0  3  0  0  0  0  0  0
  -28.6290  -19.1350   19.6240 N   0  0  0  0  0  4  0  0  0  0  0  0
  -29.2910  -19.2480   18.8700 H   0  0  0  0  0  0  0  0  0  0  0  0
  -27.7190  -19.0410   19.1970 H   0  0  0  0  0  0  0  0  0  0  0  0
  -28.6710  -20.3910   20.4350 C   0  0  0  0  0  2  0  0  0  0  0  0
  -28.5830  -21.7060   19.6010 C   0  0  0  0  0  2  0  0  0  0  0  0
  -28.6150  -22.9970   20.4690 C   0  0  0  0  0  2  0  0  0  0  0  0
  -28.6590  -24.3470   19.6950 C   0  0  0  0  0  2  0  0  0  0  0  0
  -28.5840  -25.5810   20.6340 C   0  0  0  0  0  2  0  0  0  0  0  0
  -28.6190  -26.8600   19.9690 O   0  0  0  0  0  0  0  0  0  0  0  0
  -24.5780  -31.7890   23.1750 C   0  0  0  0  0  0  0  0  0  0  0  0
  -27.4310  -27.5550   19.9910 C   0  0  0  0  0  0  0  0  0  0  0  0
  -23.4370  -30.3540   21.5150 C   0  0  0  0  0  3  0  0  0  0  0  0
  -24.9630  -28.9330   20.0400 C   0  0  0  0  0  0  0  0  0  0  0  0
  -25.9380  -30.8570   21.3040 C   0  0  0  0  0  2  0  0  0  0  0  0
  -26.0960  -29.5070   20.6320 C   0  0  0  0  0  0  0  0  0  0  0  0
  -27.3350  -28.8290   20.5990 C   0  0  0  0  0  3  0  0  0  0  0  0
  -26.2860  -26.9930   19.3920 C   0  0  0  0  0  3  0  0  0  0  0  0
  -25.0520  -27.6770   19.4140 C   0  0  0  0  0  3  0  0  0  0  0  0
  -23.6700  -29.7150   20.1210 C   0  0  0  0  0  2  0  0  0  0  0  0
  -24.6700  -31.0130   22.0580 N   0  0  0  0  0  0  0  0  0  0  0  0
  -23.4860  -31.9960   23.7250 O   0  0  0  0  0  0  0  0  0  0  0  0
  -22.8510  -29.2820   22.4610 C   0  0  0  0  0  0  0  0  0  0  0  0
  -21.5510  -28.9840   22.2950 N   0  0  0  0  0  0  0  0  0  0  0  0
  -23.5640  -28.7150   23.2940 O   0  0  0  0  0  0  0  0  0  0  0  0
  -21.0370  -29.4940   21.5920 H   0  0  0  0  0  0  0  0  0  0  0  0
  -18.2890  -27.4800   22.6670 C   0  0  0  0  0  0  0  0  0  0  0  0
  -20.7970  -27.9780   23.0430 C   0  0  0  0  0  3  0  0  0  0  0  0
  -21.0600  -26.5630   22.4830 C   0  0  0  0  0  2  0  0  0  0  0  0
  -20.0350  -26.1300   21.4300 C   0  0  0  0  0  2  0  0  0  0  0  0
  -18.6200  -26.1480   22.0150 C   0  0  0  0  0  2  0  0  0  0  0  0
  -19.3120  -28.3460   23.1320 C   0  0  0  0  0  0  0  0  0  0  0  0
  -18.9540  -29.5880   23.7000 C   0  0  0  0  0  3  0  0  0  0  0  0
  -17.6040  -29.9650   23.8110 C   0  0  0  0  0  3  0  0  0  0  0  0
  -16.5920  -29.0970   23.3620 C   0  0  0  0  0  3  0  0  0  0  0  0
  -16.9350  -27.8560   22.7950 C   0  0  0  0  0  3  0  0  0  0  0  0
  -25.8310  -32.4780   23.8010 C   0  0  0  0  0  3  0  0  0  0  0  0
  -25.4590  -33.8600   24.1320 N   0  0  0  0  0  0  0  0  0  0  0  0
  -25.7520  -34.9260   23.3760 C   0  0  0  0  0  0  0  0  0  0  0  0
  -26.4360  -34.8530   22.3500 O   0  0  0  0  0  0  0  0  0  0  0  0
  -24.8460  -33.9910   24.9240 H   0  0  0  0  0  0  0  0  0  0  0  0
  -23.9460  -36.6410   23.0160 C   0  0  0  0  0  1  0  0  0  0  0  0
  -25.2010  -36.2890   23.8320 C   0  0  0  0  0  3  0  0  0  0  0  0
  -27.2900  -37.2640   24.6710 C   0  0  0  0  0  1  0  0  0  0  0  0
  -26.1850  -37.3890   23.7250 N   0  0  0  0  0  0  0  0  0  0  0  0
  -25.7360  -38.2880   23.8800 H   0  0  0  0  0  0  0  0  0  0  0  0
  -26.3840  -31.7270   25.0750 C   0  0  1  0  0  0  0  0  0  0  0  0
  -25.2980  -31.4070   26.1270 C   0  0  0  0  0  1  0  0  0  0  0  0
  -27.0590  -30.3950   24.6740 C   0  0  0  0  0  1  0  0  0  0  0  0
  -27.4770  -32.5850   25.7560 C   0  0  0  0  0  1  0  0  0  0  0  0
  -29.6960  -16.8500   19.4010 C   0  0  0  0  0  2  0  0  0  0  0  0
  -30.8390  -14.7320   19.1650 C   0  0  0  0  0  0  0  0  0  0  0  0
  -30.3300  -12.5750   18.0810 C   0  0  0  0  0  2  0  0  0  0  0  0
  -29.2400  -12.7550   17.0070 C   0  0  0  0  0  2  0  0  0  0  0  0
  -27.8470  -12.5920   17.6400 C   0  0  0  0  0  2  0  0  0  0  0  0
  -27.6700  -13.4340   18.9310 C   0  0  0  0  0  3  0  0  0  0  0  0
  -28.8780  -13.2870   19.8880 C   0  0  0  0  0  2  0  0  0  0  0  0
  -30.1070  -13.5810   19.1370 N   0  0  0  0  0  0  0  0  0  0  0  0
  -31.8090  -14.8890   18.4190 O   0  0  0  0  0  0  0  0  0  0  0  0
  -30.4810  -15.7370   20.0130 N   0  0  0  0  0  0  0  0  0  0  0  0
  -25.3800  -13.9840   19.9620 C   0  0  0  0  0  0  0  0  0  0  0  0
  -24.3930  -13.1910   20.4790 C   0  0  0  0  0  0  0  0  0  0  0  0
  -24.8790  -11.8510   20.3920 C   0  0  0  0  0  0  0  0  0  0  0  0
  -26.4060  -13.1280   19.5950 N   0  0  0  0  0  0  0  0  0  0  0  0
  -26.1170  -11.8400   19.9140 N   0  0  0  0  0  0  0  0  0  0  0  0
  -24.2160  -10.5740   20.6890 C   0  0  0  0  0  0  0  0  0  0  0  0
  -24.6980   -9.7110   21.6990 C   0  0  0  0  0  3  0  0  0  0  0  0
  -24.0350   -8.4970   21.9780 C   0  0  0  0  0  3  0  0  0  0  0  0
  -22.8770   -8.1360   21.2500 C   0  0  0  0  0  0  0  0  0  0  0  0
  -22.4140   -8.9880   20.2320 C   0  0  0  0  0  3  0  0  0  0  0  0
  -23.0780  -10.1940   19.9510 C   0  0  0  0  0  3  0  0  0  0  0  0
  -22.1820   -6.9660   21.4350 O   0  0  0  0  0  0  0  0  0  0  0  0
  -22.0060   -6.4210   22.6810 C   0  0  0  0  0  0  0  0  0  0  0  0
  -21.3900   -7.1420   23.7280 C   0  0  0  0  0  3  0  0  0  0  0  0
  -21.1680   -6.5230   24.9740 C   0  0  0  0  0  3  0  0  0  0  0  0
  -21.5490   -5.1820   25.1720 C   0  0  0  0  0  0  0  0  0  0  0  0
  -22.1580   -4.4610   24.1290 C   0  0  0  0  0  3  0  0  0  0  0  0
  -22.3820   -5.0790   22.8870 C   0  0  0  0  0  0  0  0  0  0  0  0
  -22.9490   -4.3730   21.8780 F   0  0  0  0  0  0  0  0  0  0  0  0
  -21.3280   -4.5830   26.3660 F   0  0  0  0  0  0  0  0  0  0  0  0
  -23.0340  -13.6390   20.9340 C   0  0  0  0  0  0  0  0  0  0  0  0
  -22.4590  -12.9490   21.9130 N   0  0  0  0  0  0  0  0  0  0  0  0
  -22.4960  -14.6360   20.4540 O   0  0  0  0  0  0  0  0  0  0  0  0
  -22.9100  -12.1420   22.3160 H   0  0  0  0  0  0  0  0  0  0  0  0
  -21.5550  -13.2330   22.2620 H   0  0  0  0  0  0  0  0  0  0  0  0
  -25.4910  -15.3550   19.7580 N   0  0  0  0  0  0  0  0  0  0  0  0
  -24.6880  -15.9620   19.8890 H   0  0  0  0  0  0  0  0  0  0  0  0
  -26.1820  -15.7490   19.1340 H   0  0  0  0  0  0  0  0  0  0  0  0
  -31.5500  -16.1960   20.9340 C   0  0  0  0  0  2  0  0  0  0  0  0
  -32.1590  -17.5900   20.5950 C   0  0  0  0  0  2  0  0  0  0  0  0
  -32.7810  -18.2990   21.8100 C   0  0  0  0  0  2  0  0  0  0  0  0
  -33.3540  -19.6980   21.4910 C   0  0  0  0  0  2  0  0  0  0  0  0
  -32.3250  -20.7010   21.1580 N   0  0  0  0  0  4  0  0  0  0  0  0
  -31.8500  -20.4800   20.3020 H   0  0  0  0  0  0  0  0  0  0  0  0
  -32.7650  -21.5980   21.0330 H   0  0  0  0  0  0  0  0  0  0  0  0
  -31.6530  -20.7960   21.8980 H   0  0  0  0  0  0  0  0  0  0  0  0
  -27.7320  -17.2660   21.0570 C   0  0  0  0  0  2  0  0  0  0  0  0
  -28.0220  -16.2830   22.2190 C   0  0  0  0  0  2  0  0  0  0  0  0
  -27.6890  -14.8100   21.9080 C   0  0  0  0  0  2  0  0  0  0  0  0
  -26.2360  -14.5580   21.8760 N   0  0  0  0  0  4  0  0  0  0  0  0
  -25.8350  -14.7350   22.7790 H   0  0  0  0  0  0  0  0  0  0  0  0
  -26.0630  -13.5940   21.6500 H   0  0  0  0  0  0  0  0  0  0  0  0
  -25.7740  -15.1330   21.1960 H   0  0  0  0  0  0  0  0  0  0  0  0
  1 51  1  0
  1 97  1  0
  2  1  1  0
  2  5  1  0
  3  2  1  0
  4  2  1  0
  6  5  1  0
  6  7  1  0
  8  7  1  0
  8  9  1  0
 10 12  1  0
 10  9  1  0
 11 22  2  0
 12 17  1  0
 13 21  1  0
 13 23  1  0
 14 20  1  0
 14 16  1  0
 15 21  1  0
 16 15  1  0
 17 16  2  0
 18 19  1  0
 18 12  2  0
 19 14  2  0
 20 13  1  0
 21 11  1  0
 23 25  2  0
 24 23  1  0
 26 24  1  0
 27 36  2  0
 27 32  1  0
 28 24  1  0
 28 32  1  0
 29 28  1  0
 30 31  1  0
 30 29  1  0
 31 27  1  0
 32 33  2  0
 33 34  1  0
 35 34  2  0
 36 35  1  0
 37 11  1  0
 37 38  1  0
 37 47  1  0
 38 41  1  0
 39 43  1  0
 39 38  1  0
 40 39  2  0
 43 42  1  0
 45 43  1  0
 45 46  1  0
 45 44  1  0
 47 50  1  1
 47 48  1  0
 49 47  1  0
 51 60  1  0
 52 60  1  0
 53 58  1  0
 54 55  1  0
 54 53  1  0
 56 55  1  0
 56 64  1  0
 56 57  1  0
 58 52  1  0
 58 57  1  0
 59 52  2  0
 60 89  1  0
 61 62  2  0
 62 81  1  0
 63 62  1  0
 63 66  1  0
 64 65  1  0
 64 61  1  0
 65 63  2  0
 66 67  1  0
 67 68  2  0
 69 72  1  0
 69 68  1  0
 70 69  2  0
 71 70  1  0
 71 66  2  0
 72 73  1  0
 73 78  2  0
 73 74  1  0
 74 75  2  0
 75 76  1  0
 76 80  1  0
 77 76  2  0
 78 77  1  0
 79 78  1  0
 81 82  1  0
 82 85  1  0
 82 84  1  0
 83 81  2  0
 86 87  1  0
 86 61  1  0
 88 86  1  0
 90 89  1  0
 90 91  1  0
 92 91  1  0
 93 92  1  0
 93 96  1  0
 94 93  1  0
 95 93  1  0
 97 98  1  0
 99 98  1  0
100 99  1  0
100101  1  0
102100  1  0
103100  1  0
M  ISO  4   9 101  10 101  52 100  60 100
M  END
>  <TORSDO>  (77) 
F 32

>  <SCORE>  (77) 
-3.204

>  <name>  (77) 
76

>  <ligand_id>  (77) 
76

>  <original_smiles>  (77) 
[H]c1c([H])c([H])c2c(c1[H])C([H])([H])C([H])([H])C([H])([H])C2([H])N([H])C(=O)C1([H])N(C(=O)C([H])(N([H])C(=O)C([H])(N([H])C([H])([H])[H])C([H])([H])[H])C(C([H])([H])[H])(C([H])([H])[H])C([H])([H])[H])C([H])([H])c2c([H])c(OC([H])([H])C([H])([H])C([H])([H])C([H])([H])C([H])([H])[N+]([H])([H])C([H])(C([H])([H])N(C(=O)N3C([H])([H])C([H])([H])C([H])([H])C([H])(n4nc(-c5c([H])c([H])c(Oc6c([H])c([H])c(F)c([H])c6F)c([H])c5[H])c(C(=O)N([H])[H])c4N([H])[H])C3([H])[H])C([H])([H])C([H])([H])C([H])([H])C([H])([H])[N+]([H])([H])[H])C([H])([H])C([H])([H])C([H])([H])[N+]([H])([H])[H])c([H])c([H])c2C1([H])[H]

>  <smiles>  (77) 
[H]c1c([H])c([H])c2c(c1[H])C([H])([H])C([H])([H])C([H])([H])C2([H])N([H])C(=O)C1([H])N(C(=O)C([H])(N([H])C(=O)C([H])(N([H])C([H])([H])[H])C([H])([H])[H])C(C([H])([H])[H])(C([H])([H])[H])C([H])([H])[H])C([H])([H])c2c([H])c(OC([H])([H])C([H])([H])C([H])([H])C([H])([H])C([H])([H])[N+]([H])([H])C([H])(C([H])([H])N(C(=O)N3C([H])([H])C([H])([H])C([H])([H])C([H])(n4nc(-c5c([H])c([H])c(Oc6c([H])c([H])c(F)c([H])c6F)c([H])c5[H])c(C(=O)N([H])[H])c4N([H])[H])C3([H])[H])C([H])([H])C([H])([H])C([H])([H])C([H])([H])[N+]([H])([H])[H])C([H])([H])C([H])([H])C([H])([H])[N+]([H])([H])[H])c([H])c([H])c2C1([H])[H]

$$$$
77:0:0
     RDKit          3D

 97105  0  0  1  0  0  0  0  0999 V2000
  -35.2520  -22.4280   18.3060 C   0  0  0  0  0  2  0  0  0  0  0  0
  -34.8990  -22.7660   19.7530 C   0  0  0  0  0  2  0  0  0  0  0  0
  -34.3660  -21.2180   18.0160 C   0  0  0  0  0  2  0  0  0  0  0  0
  -33.4060  -22.4020   19.8850 C   0  0  0  0  0  3  0  0  0  0  0  0
  -33.1310  -21.4200   18.8090 N   0  0  2  0  0  4  0  0  0  0  0  0
  -32.4880  -21.9490   18.2270 H   0  0  0  0  0  0  0  0  0  0  0  0
  -32.4850  -23.6170   19.6650 C   0  0  0  0  0  0  0  0  0  0  0  0
  -32.5050  -24.6100   20.5650 N   0  0  0  0  0  0  0  0  0  0  0  0
  -31.7530  -23.6490   18.6690 O   0  0  0  0  0  0  0  0  0  0  0  0
  -33.1400  -24.5150   21.3500 H   0  0  0  0  0  0  0  0  0  0  0  0
  -31.7350  -25.8560   20.4600 C   0  0  0  0  0  2  0  0  0  0  0  0
  -30.3150  -25.7260   21.0510 C   0  0  0  0  0  2  0  0  0  0  0  0
  -29.4420  -26.9950   20.9050 C   0  0  0  0  0  2  0  0  0  0  0  0
  -28.3710  -26.7310   20.0000 O   0  0  0  0  0  0  0  0  0  0  0  0
  -24.6030  -31.9010   23.2150 C   0  0  0  0  0  0  0  0  0  0  0  0
  -27.2320  -27.5090   20.0790 C   0  0  0  0  0  0  0  0  0  0  0  0
  -23.3740  -30.5040   21.5840 C   0  0  0  0  0  3  0  0  0  0  0  0
  -24.8150  -28.9750   20.1340 C   0  0  0  0  0  0  0  0  0  0  0  0
  -25.8880  -30.8840   21.3410 C   0  0  0  0  0  2  0  0  0  0  0  0
  -25.9730  -29.5120   20.7050 C   0  0  0  0  0  0  0  0  0  0  0  0
  -27.1830  -28.7850   20.6860 C   0  0  0  0  0  3  0  0  0  0  0  0
  -26.0580  -26.9850   19.4970 C   0  0  0  0  0  3  0  0  0  0  0  0
  -24.8470  -27.7050   19.5320 C   0  0  0  0  0  3  0  0  0  0  0  0
  -23.5650  -29.8240   20.2010 C   0  0  0  0  0  2  0  0  0  0  0  0
  -24.6420  -31.1090   22.1060 N   0  0  0  0  0  0  0  0  0  0  0  0
  -23.5330  -32.1690   23.7730 O   0  0  0  0  0  0  0  0  0  0  0  0
  -22.7380  -29.4790   22.5510 C   0  0  0  0  0  0  0  0  0  0  0  0
  -21.4120  -29.2930   22.4380 N   0  0  0  0  0  0  0  0  0  0  0  0
  -23.4300  -28.8550   23.3590 O   0  0  0  0  0  0  0  0  0  0  0  0
  -20.9140  -29.8480   21.7580 H   0  0  0  0  0  0  0  0  0  0  0  0
  -18.0520  -28.0790   22.9610 C   0  0  0  0  0  0  0  0  0  0  0  0
  -20.6100  -28.3500   23.2160 C   0  0  0  0  0  3  0  0  0  0  0  0
  -20.7160  -26.9210   22.6390 C   0  0  0  0  0  2  0  0  0  0  0  0
  -19.6100  -26.5930   21.6300 C   0  0  0  0  0  2  0  0  0  0  0  0
  -18.2310  -26.7310   22.2830 C   0  0  0  0  0  2  0  0  0  0  0  0
  -19.1700  -28.8470   23.3830 C   0  0  0  0  0  0  0  0  0  0  0  0
  -18.9520  -30.1090   23.9750 C   0  0  0  0  0  3  0  0  0  0  0  0
  -17.6470  -30.6060   24.1490 C   0  0  0  0  0  3  0  0  0  0  0  0
  -16.5420  -29.8360   23.7410 C   0  0  0  0  0  3  0  0  0  0  0  0
  -16.7460  -28.5740   23.1540 C   0  0  0  0  0  3  0  0  0  0  0  0
  -25.9000  -32.5290   23.8170 C   0  0  0  0  0  3  0  0  0  0  0  0
  -26.4460  -31.7420   25.0710 C   0  0  1  0  0  0  0  0  0  0  0  0
  -25.3780  -31.4940   26.1610 C   0  0  0  0  0  1  0  0  0  0  0  0
  -27.0200  -30.3710   24.6470 C   0  0  0  0  0  1  0  0  0  0  0  0
  -27.6120  -32.5290   25.7150 C   0  0  0  0  0  1  0  0  0  0  0  0
  -25.5970  -33.9230   24.1650 N   0  0  0  0  0  0  0  0  0  0  0  0
  -25.9220  -34.9800   23.4100 C   0  0  0  0  0  0  0  0  0  0  0  0
  -26.5810  -34.8850   22.3710 O   0  0  0  0  0  0  0  0  0  0  0  0
  -25.0120  -34.0700   24.9740 H   0  0  0  0  0  0  0  0  0  0  0  0
  -24.1960  -36.7770   23.0780 C   0  0  0  0  0  1  0  0  0  0  0  0
  -25.4400  -36.3660   23.8830 C   0  0  0  0  0  3  0  0  0  0  0  0
  -27.5840  -37.2320   24.7070 C   0  0  0  0  0  1  0  0  0  0  0  0
  -26.4750  -37.4180   23.7750 N   0  0  0  0  0  0  0  0  0  0  0  0
  -26.0740  -38.3370   23.9390 H   0  0  0  0  0  0  0  0  0  0  0  0
  -32.4510  -20.1580   19.1970 C   0  0  0  0  0  2  0  0  0  0  0  0
  -31.0630  -20.3690   19.8450 C   0  0  0  0  0  2  0  0  0  0  0  0
  -30.1220  -19.1560   19.6970 C   0  0  0  0  0  2  0  0  0  0  0  0
  -30.5360  -17.8910   20.4760 C   0  0  0  0  0  2  0  0  0  0  0  0
  -29.6160  -16.7170   20.0960 C   0  0  0  0  0  2  0  0  0  0  0  0
  -30.6210  -14.4850   20.4110 C   0  0  0  0  0  0  0  0  0  0  0  0
  -30.3500  -12.3300   19.2790 C   0  0  0  0  0  2  0  0  0  0  0  0
  -29.4010  -12.5700   18.0810 C   0  0  0  0  0  2  0  0  0  0  0  0
  -27.9230  -12.4470   18.5110 C   0  0  0  0  0  2  0  0  0  0  0  0
  -27.5990  -13.2580   19.7960 C   0  0  0  0  0  3  0  0  0  0  0  0
  -28.6570  -12.9890   20.8960 C   0  0  0  0  0  2  0  0  0  0  0  0
  -29.9890  -13.2870   20.3330 N   0  0  0  0  0  0  0  0  0  0  0  0
  -31.7260  -14.7160   19.9090 O   0  0  0  0  0  0  0  0  0  0  0  0
  -29.8310  -15.4780   20.8460 N   0  0  0  0  0  0  0  0  0  0  0  0
  -29.0210  -15.1550   21.3560 H   0  0  0  0  0  0  0  0  0  0  0  0
  -25.1940  -13.8650   20.4990 C   0  0  0  0  0  0  0  0  0  0  0  0
  -24.1270  -13.0920   20.8750 C   0  0  0  0  0  0  0  0  0  0  0  0
  -24.5940  -11.7410   20.8530 C   0  0  0  0  0  0  0  0  0  0  0  0
  -26.2420  -12.9860   20.2740 N   0  0  0  0  0  0  0  0  0  0  0  0
  -25.8840  -11.7040   20.5410 N   0  0  0  0  0  0  0  0  0  0  0  0
  -23.8740  -10.4760   21.0500 C   0  0  0  0  0  0  0  0  0  0  0  0
  -24.3240   -9.5060   21.9730 C   0  0  0  0  0  3  0  0  0  0  0  0
  -23.6050   -8.3060   22.1570 C   0  0  0  0  0  3  0  0  0  0  0  0
  -22.4220   -8.0670   21.4180 C   0  0  0  0  0  0  0  0  0  0  0  0
  -21.9920   -9.0250   20.4820 C   0  0  0  0  0  3  0  0  0  0  0  0
  -22.7130  -10.2150   20.2970 C   0  0  0  0  0  3  0  0  0  0  0  0
  -21.6680   -6.9210   21.5120 O   0  0  0  0  0  0  0  0  0  0  0  0
  -21.6480   -6.1670   22.6580 C   0  0  0  0  0  0  0  0  0  0  0  0
  -21.2610   -6.7100   23.9020 C   0  0  0  0  0  3  0  0  0  0  0  0
  -21.1890   -5.8820   25.0400 C   0  0  0  0  0  3  0  0  0  0  0  0
  -21.4930   -4.5120   24.9370 C   0  0  0  0  0  0  0  0  0  0  0  0
  -21.8750   -3.9690   23.6970 C   0  0  0  0  0  3  0  0  0  0  0  0
  -21.9500   -4.7940   22.5620 C   0  0  0  0  0  0  0  0  0  0  0  0
  -22.2970   -4.2610   21.3670 F   0  0  0  0  0  0  0  0  0  0  0  0
  -21.4190   -3.7160   26.0300 F   0  0  0  0  0  0  0  0  0  0  0  0
  -22.7280  -13.5640   21.1490 C   0  0  0  0  0  0  0  0  0  0  0  0
  -22.0070  -12.8710   22.0230 N   0  0  0  0  0  0  0  0  0  0  0  0
  -22.2820  -14.5840   20.6240 O   0  0  0  0  0  0  0  0  0  0  0  0
  -22.3860  -12.0520   22.4720 H   0  0  0  0  0  0  0  0  0  0  0  0
  -21.0680  -13.1630   22.2550 H   0  0  0  0  0  0  0  0  0  0  0  0
  -25.3560  -15.2340   20.3090 N   0  0  0  0  0  0  0  0  0  0  0  0
  -24.5890  -15.8910   20.3990 H   0  0  0  0  0  0  0  0  0  0  0  0
  -26.1990  -15.6540   19.9430 H   0  0  0  0  0  0  0  0  0  0  0  0
  1  2  1  0
  2  4  1  0
  3  1  1  0
  3  5  1  0
  4  7  1  0
  5 55  1  0
  5  4  1  0
  5  6  1  6
  7  8  1  0
  8 10  1  0
  9  7  2  0
 11  8  1  0
 11 12  1  0
 13 12  1  0
 14 16  1  0
 14 13  1  0
 15 26  2  0
 16 21  1  0
 17 25  1  0
 17 27  1  0
 18 24  1  0
 18 20  1  0
 19 25  1  0
 20 19  1  0
 21 20  2  0
 22 23  1  0
 22 16  2  0
 23 18  2  0
 24 17  1  0
 25 15  1  0
 27 29  2  0
 28 27  1  0
 30 28  1  0
 31 40  2  0
 31 36  1  0
 32 28  1  0
 32 36  1  0
 33 32  1  0
 34 35  1  0
 34 33  1  0
 35 31  1  0
 36 37  2  0
 37 38  1  0
 39 38  2  0
 40 39  1  0
 41 15  1  0
 41 46  1  0
 41 42  1  0
 42 45  1  1
 42 43  1  0
 44 42  1  0
 46 49  1  0
 47 51  1  0
 47 46  1  0
 48 47  2  0
 51 50  1  0
 53 51  1  0
 53 54  1  0
 53 52  1  0
 55 56  1  0
 57 56  1  0
 57 58  1  0
 59 58  1  0
 59 68  1  0
 60 68  1  0
 61 66  1  0
 62 63  1  0
 62 61  1  0
 64 63  1  0
 64 73  1  0
 64 65  1  0
 66 60  1  0
 66 65  1  0
 67 60  2  0
 68 69  1  0
 70 71  2  0
 71 90  1  0
 72 71  1  0
 72 75  1  0
 73 70  1  0
 73 74  1  0
 74 72  2  0
 75 76  1  0
 76 77  2  0
 78 81  1  0
 78 77  1  0
 79 78  2  0
 80 79  1  0
 80 75  2  0
 81 82  1  0
 82 83  1  0
 83 84  2  0
 85 84  1  0
 85 89  1  0
 86 85  2  0
 87 82  2  0
 87 86  1  0
 88 87  1  0
 90 91  1  0
 91 94  1  0
 91 93  1  0
 92 90  2  0
 95 96  1  0
 95 70  1  0
 97 95  1  0
M  ISO  4  13 101  14 101  60 100  68 100
M  END
>  <TORSDO>  (78) 
F 25

>  <SCORE>  (78) 
-12.184

>  <name>  (78) 
77

>  <ligand_id>  (78) 
77

>  <original_smiles>  (78) 
[H]c1c([H])c([H])c2c(c1[H])C([H])([H])C([H])([H])C([H])([H])C2([H])N([H])C(=O)C1([H])N(C(=O)C([H])(N([H])C(=O)C([H])(N([H])C([H])([H])[H])C([H])([H])[H])C(C([H])([H])[H])(C([H])([H])[H])C([H])([H])[H])C([H])([H])c2c([H])c(OC([H])([H])C([H])([H])C([H])([H])N([H])C(=O)C3([H])C([H])([H])C([H])([H])C([H])([H])[N+]3([H])C([H])([H])C([H])([H])C([H])([H])C([H])([H])C([H])([H])N([H])C(=O)N3C([H])([H])C([H])([H])C([H])([H])C([H])(n4nc(-c5c([H])c([H])c(Oc6c([H])c([H])c(F)c([H])c6F)c([H])c5[H])c(C(=O)N([H])[H])c4N([H])[H])C3([H])[H])c([H])c([H])c2C1([H])[H]

>  <smiles>  (78) 
[H]c1c([H])c([H])c2c(c1[H])C([H])([H])C([H])([H])C([H])([H])C2([H])N([H])C(=O)C1([H])N(C(=O)C([H])(N([H])C(=O)C([H])(N([H])C([H])([H])[H])C([H])([H])[H])C(C([H])([H])[H])(C([H])([H])[H])C([H])([H])[H])C([H])([H])c2c([H])c(OC([H])([H])C([H])([H])C([H])([H])N([H])C(=O)C3([H])C([H])([H])C([H])([H])C([H])([H])[N+]3([H])C([H])([H])C([H])([H])C([H])([H])C([H])([H])C([H])([H])N([H])C(=O)N3C([H])([H])C([H])([H])C([H])([H])C([H])(n4nc(-c5c([H])c([H])c(Oc6c([H])c([H])c(F)c([H])c6F)c([H])c5[H])c(C(=O)N([H])[H])c4N([H])[H])C3([H])[H])c([H])c([H])c2C1([H])[H]

$$$$
78:0:0
     RDKit          3D

 98107  0  0  1  0  0  0  0  0999 V2000
  -32.1010  -13.7320   20.7780 C   0  0  0  0  0  0  0  0  0  0  0  0
  -31.7030  -11.3200   21.1990 C   0  0  0  0  0  2  0  0  0  0  0  0
  -31.0010  -10.6530   20.0020 C   0  0  0  0  0  2  0  0  0  0  0  0
  -29.4700  -10.7390   20.1640 C   0  0  0  0  0  2  0  0  0  0  0  0
  -28.9940  -12.1750   20.4880 C   0  0  0  0  0  3  0  0  0  0  0  0
  -29.8520  -12.8430   21.5980 C   0  0  0  0  0  2  0  0  0  0  0  0
  -31.2720  -12.7290   21.2260 N   0  0  0  0  0  0  0  0  0  0  0  0
  -33.3240  -13.5990   20.8490 O   0  0  0  0  0  0  0  0  0  0  0  0
  -32.0830  -15.9990   19.8000 C   0  0  0  0  0  0  0  0  0  0  0  0
  -30.7790  -15.5760   17.9140 C   0  0  0  0  0  2  0  0  0  0  0  0
  -30.5780  -14.5170   18.9790 C   0  0  0  0  0  2  0  0  0  0  0  0
  -31.3080  -16.7850   18.6850 C   0  0  1  0  0  0  0  0  0  0  0  0
  -31.5570  -14.7580   20.0330 N   0  0  0  0  0  0  0  0  0  0  0  0
  -33.0280  -16.5180   20.4020 O   0  0  0  0  0  0  0  0  0  0  0  0
  -26.7260  -13.3690   20.6440 C   0  0  0  0  0  0  0  0  0  0  0  0
  -25.4700  -12.8960   20.9010 C   0  0  0  0  0  0  0  0  0  0  0  0
  -25.6240  -11.4990   21.1590 C   0  0  0  0  0  0  0  0  0  0  0  0
  -27.5680  -12.2710   20.7510 N   0  0  0  0  0  0  0  0  0  0  0  0
  -26.9030  -11.1550   21.1300 N   0  0  0  0  0  0  0  0  0  0  0  0
  -24.6230  -10.4530   21.3750 C   0  0  0  0  0  0  0  0  0  0  0  0
  -24.7960   -9.4640   22.3680 C   0  0  0  0  0  3  0  0  0  0  0  0
  -23.8140   -8.4720   22.5660 C   0  0  0  0  0  3  0  0  0  0  0  0
  -22.6440   -8.4640   21.7710 C   0  0  0  0  0  0  0  0  0  0  0  0
  -22.4890   -9.4360   20.7680 C   0  0  0  0  0  3  0  0  0  0  0  0
  -23.4710  -10.4200   20.5670 C   0  0  0  0  0  3  0  0  0  0  0  0
  -21.6450   -7.5280   21.8800 O   0  0  0  0  0  0  0  0  0  0  0  0
  -21.6020   -6.6420   22.9240 C   0  0  0  0  0  0  0  0  0  0  0  0
  -21.2750   -7.0510   24.2350 C   0  0  0  0  0  3  0  0  0  0  0  0
  -21.1750   -6.0960   25.2660 C   0  0  0  0  0  3  0  0  0  0  0  0
  -21.3880   -4.7330   24.9880 C   0  0  0  0  0  0  0  0  0  0  0  0
  -21.7070   -4.3230   23.6810 C   0  0  0  0  0  3  0  0  0  0  0  0
  -21.8110   -5.2750   22.6520 C   0  0  0  0  0  0  0  0  0  0  0  0
  -22.0980   -4.8710   21.3910 F   0  0  0  0  0  0  0  0  0  0  0  0
  -21.2810   -3.8150   25.9770 F   0  0  0  0  0  0  0  0  0  0  0  0
  -24.1860  -13.6680   20.8030 C   0  0  0  0  0  0  0  0  0  0  0  0
  -23.1930  -13.3170   21.6130 N   0  0  0  0  0  0  0  0  0  0  0  0
  -24.0690  -14.6200   20.0330 O   0  0  0  0  0  0  0  0  0  0  0  0
  -23.2950  -12.5530   22.2650 H   0  0  0  0  0  0  0  0  0  0  0  0
  -22.3230  -13.8300   21.5870 H   0  0  0  0  0  0  0  0  0  0  0  0
  -27.2060  -14.6290   20.2940 N   0  0  0  0  0  0  0  0  0  0  0  0
  -26.5880  -15.4220   20.1670 H   0  0  0  0  0  0  0  0  0  0  0  0
  -28.1650  -14.8290   20.0470 H   0  0  0  0  0  0  0  0  0  0  0  0
  -30.1580  -17.5880   19.3920 C   0  0  0  0  0  2  0  0  0  0  0  0
  -27.6890  -20.9670   17.8810 C   0  0  0  0  0  2  0  0  0  0  0  0
  -27.0640  -19.9050   18.7970 C   0  0  0  0  0  2  0  0  0  0  0  0
  -28.7020  -20.3400   16.9090 C   0  0  0  0  0  2  0  0  0  0  0  0
  -28.1530  -19.1100   19.5330 C   0  0  0  0  0  2  0  0  0  0  0  0
  -29.7790  -19.5240   17.6530 C   0  0  0  0  0  2  0  0  0  0  0  0
  -29.1550  -18.4440   18.5640 C   0  0  0  0  0  3  0  0  0  0  0  0
  -32.1600  -17.6540   17.6710 C   0  0  0  0  0  3  0  0  0  0  0  0
  -32.6480  -19.0900   18.0500 C   0  0  0  0  0  3  0  0  0  0  0  0
  -33.2940  -19.9090   16.8830 C   0  0  0  0  0  2  0  0  0  0  0  0
  -32.3410  -20.2800   15.7950 N   0  0  0  0  0  4  0  0  0  0  0  0
  -31.5590  -20.7520   16.2220 H   0  0  0  0  0  0  0  0  0  0  0  0
  -31.9950  -19.4290   15.3770 H   0  0  0  0  0  0  0  0  0  0  0  0
  -32.8820  -21.1680   14.7130 C   0  0  0  0  0  2  0  0  0  0  0  0
  -31.7690  -21.9030   13.9090 C   0  0  0  0  0  2  0  0  0  0  0  0
  -32.2000  -23.1370   13.2830 O   0  0  0  0  0  0  0  0  0  0  0  0
  -32.3470  -29.2920   16.9150 C   0  0  0  0  0  0  0  0  0  0  0  0
  -31.5190  -24.2890   13.6430 C   0  0  0  0  0  0  0  0  0  0  0  0
  -30.1290  -28.5720   16.0930 C   0  0  0  0  0  3  0  0  0  0  0  0
  -30.1400  -26.6510   14.4140 C   0  0  0  0  0  0  0  0  0  0  0  0
  -32.2650  -27.8870   14.8550 C   0  0  0  0  0  2  0  0  0  0  0  0
  -31.5400  -26.6280   14.4140 C   0  0  0  0  0  0  0  0  0  0  0  0
  -32.2330  -25.4570   14.0170 C   0  0  0  0  0  3  0  0  0  0  0  0
  -30.1030  -24.3480   13.6370 C   0  0  0  0  0  3  0  0  0  0  0  0
  -29.4180  -25.5150   14.0210 C   0  0  0  0  0  3  0  0  0  0  0  0
  -29.4630  -27.9340   14.8450 C   0  0  0  0  0  2  0  0  0  0  0  0
  -31.6240  -28.5880   15.9970 N   0  0  0  0  0  0  0  0  0  0  0  0
  -31.7870  -29.9500   17.8040 O   0  0  0  0  0  0  0  0  0  0  0  0
  -29.6060  -27.8530   17.3580 C   0  0  0  0  0  0  0  0  0  0  0  0
  -28.2780  -27.6550   17.4300 N   0  0  0  0  0  0  0  0  0  0  0  0
  -30.3860  -27.4630   18.2300 O   0  0  0  0  0  0  0  0  0  0  0  0
  -27.7050  -28.0110   16.6780 H   0  0  0  0  0  0  0  0  0  0  0  0
  -25.1100  -26.1870   18.3590 C   0  0  0  0  0  0  0  0  0  0  0  0
  -27.5700  -26.9660   18.5090 C   0  0  0  0  0  3  0  0  0  0  0  0
  -27.9360  -25.4650   18.5470 C   0  0  0  0  0  2  0  0  0  0  0  0
  -26.9730  -24.5890   17.7400 C   0  0  0  0  0  2  0  0  0  0  0  0
  -25.5430  -24.7330   18.2710 C   0  0  0  0  0  2  0  0  0  0  0  0
  -26.0620  -27.2360   18.4560 C   0  0  0  0  0  0  0  0  0  0  0  0
  -25.6060  -28.5720   18.4990 C   0  0  0  0  0  3  0  0  0  0  0  0
  -24.2310  -28.8660   18.4490 C   0  0  0  0  0  3  0  0  0  0  0  0
  -23.2930  -27.8230   18.3710 C   0  0  0  0  0  3  0  0  0  0  0  0
  -23.7320  -26.4880   18.3300 C   0  0  0  0  0  3  0  0  0  0  0  0
  -33.9060  -29.3250   16.8780 C   0  0  0  0  0  3  0  0  0  0  0  0
  -34.3240  -30.7160   17.0910 N   0  0  0  0  0  0  0  0  0  0  0  0
  -34.8090  -31.5180   16.1340 C   0  0  0  0  0  0  0  0  0  0  0  0
  -35.0170  -31.1340   14.9790 O   0  0  0  0  0  0  0  0  0  0  0  0
  -34.1240  -31.1160   17.9940 H   0  0  0  0  0  0  0  0  0  0  0  0
  -34.0760  -33.9090   15.8610 C   0  0  0  0  0  1  0  0  0  0  0  0
  -35.1100  -32.9790   16.5160 C   0  0  0  0  0  3  0  0  0  0  0  0
  -37.5220  -32.7560   16.9260 C   0  0  0  0  0  1  0  0  0  0  0  0
  -36.4740  -33.4140   16.1480 N   0  0  0  0  0  0  0  0  0  0  0  0
  -36.5780  -34.4190   16.2640 H   0  0  0  0  0  0  0  0  0  0  0  0
  -34.5760  -28.3730   17.9450 C   0  0  1  0  0  0  0  0  0  0  0  0
  -34.1120  -28.6450   19.3950 C   0  0  0  0  0  1  0  0  0  0  0  0
  -34.2740  -26.8910   17.6210 C   0  0  0  0  0  1  0  0  0  0  0  0
  -36.1130  -28.5300   17.8920 C   0  0  0  0  0  1  0  0  0  0  0  0
  1  8  2  0
  1  7  1  0
  2  7  1  0
  3  4  1  0
  3  2  1  0
  5  4  1  0
  5 18  1  0
  5  6  1  0
  7  6  1  0
  9 13  1  0
  9 14  2  0
 10 12  1  0
 10 11  1  0
 11 13  1  0
 12 50  1  0
 12 43  1  1
 12  9  1  0
 13  1  1  0
 15 18  1  0
 15 16  2  0
 16 17  1  0
 17 20  1  0
 18 19  1  0
 19 17  2  0
 20 21  1  0
 21 22  2  0
 23 26  1  0
 23 22  1  0
 24 23  2  0
 25 24  1  0
 25 20  2  0
 26 27  1  0
 27 28  1  0
 28 29  2  0
 30 29  1  0
 30 34  1  0
 31 30  2  0
 32 27  2  0
 32 31  1  0
 33 32  1  0
 35 16  1  0
 35 36  1  0
 36 38  1  0
 37 35  2  0
 39 36  1  0
 40 15  1  0
 41 40  1  0
 42 40  1  0
 44 45  1  0
 45 47  1  0
 46 48  1  0
 46 44  1  0
 48 49  1  0
 49 43  1  0
 49 47  1  0
 50 51  2  0
 52 51  1  0
 53 54  1  0
 53 52  1  0
 55 53  1  0
 56 53  1  0
 57 56  1  0
 58 60  1  0
 58 57  1  0
 59 70  2  0
 60 65  1  0
 61 71  1  0
 62 68  1  0
 63 69  1  0
 64 62  1  0
 64 63  1  0
 65 64  2  0
 66 60  2  0
 66 67  1  0
 67 62  2  0
 68 61  1  0
 69 61  1  0
 69 59  1  0
 71 72  1  0
 71 73  2  0
 74 72  1  0
 75 80  1  0
 76 72  1  0
 76 77  1  0
 78 79  1  0
 78 77  1  0
 79 75  1  0
 80 81  2  0
 80 76  1  0
 82 81  1  0
 83 82  2  0
 84 75  2  0
 84 83  1  0
 85 59  1  0
 85 86  1  0
 85 95  1  0
 86 89  1  0
 87 91  1  0
 87 86  1  0
 88 87  2  0
 91 90  1  0
 93 94  1  0
 93 91  1  0
 93 92  1  0
 95 96  1  1
 97 95  1  0
 98 95  1  0
M  ISO  4   1 100  13 100  57 101  58 101
M  END
>  <TORSDO>  (79) 
F 23

>  <SCORE>  (79) 
-7.338

>  <name>  (79) 
78

>  <ligand_id>  (79) 
78

>  <original_smiles>  (79) 
[H]c1c([H])c([H])c2c(c1[H])C([H])([H])C([H])([H])C([H])([H])C2([H])N([H])C(=O)C1([H])N(C(=O)C([H])(N([H])C(=O)C([H])(N([H])C([H])([H])[H])C([H])([H])[H])C(C([H])([H])[H])(C([H])([H])[H])C([H])([H])[H])C([H])([H])c2c([H])c(OC([H])([H])C([H])([H])[N+]([H])([H])C([H])([H])C([H])([H])C([H])([H])C3(C([H])([H])C4([H])C([H])([H])C([H])([H])C([H])([H])C([H])([H])C4([H])[H])C(=O)N(C(=O)N4C([H])([H])C([H])([H])C([H])([H])C([H])(n5nc(-c6c([H])c([H])c(Oc7c([H])c([H])c(F)c([H])c7F)c([H])c6[H])c(C(=O)N([H])[H])c5N([H])[H])C4([H])[H])C([H])([H])C3([H])[H])c([H])c([H])c2C1([H])[H]

>  <smiles>  (79) 
[H]c1c([H])c([H])c2c(c1[H])C([H])([H])C([H])([H])C([H])([H])C2([H])N([H])C(=O)C1([H])N(C(=O)C([H])(N([H])C(=O)C([H])(N([H])C([H])([H])[H])C([H])([H])[H])C(C([H])([H])[H])(C([H])([H])[H])C([H])([H])[H])C([H])([H])c2c([H])c(OC([H])([H])C([H])([H])[N+]([H])([H])C([H])([H])C([H])([H])C([H])([H])C3(C([H])([H])C4([H])C([H])([H])C([H])([H])C([H])([H])C([H])([H])C4([H])[H])C(=O)N(C(=O)N4C([H])([H])C([H])([H])C([H])([H])C([H])(n5nc(-c6c([H])c([H])c(Oc7c([H])c([H])c(F)c([H])c7F)c([H])c6[H])c(C(=O)N([H])[H])c5N([H])[H])C4([H])[H])C([H])([H])C3([H])[H])c([H])c([H])c2C1([H])[H]

$$$$
79:0:0
     RDKit          3D

 91 99  0  0  1  0  0  0  0  0999 V2000
  -28.6780  -22.7520   20.5610 N   0  0  0  0  0  4  0  0  0  0  0  0
  -28.0320  -22.6890   21.3340 H   0  0  0  0  0  0  0  0  0  0  0  0
  -28.1450  -22.5730   19.7230 H   0  0  0  0  0  0  0  0  0  0  0  0
  -29.6570  -21.6280   20.7050 C   0  0  0  0  0  2  0  0  0  0  0  0
  -28.9530  -20.2560   21.0110 C   0  0  0  0  0  2  0  0  0  0  0  0
  -30.6690  -14.5800   20.0790 C   0  0  0  0  0  0  0  0  0  0  0  0
  -30.2430  -12.4390   18.9040 C   0  0  0  0  0  2  0  0  0  0  0  0
  -29.2230  -12.6280   17.7640 C   0  0  0  0  0  2  0  0  0  0  0  0
  -27.7910  -12.4390   18.2940 C   0  0  0  0  0  2  0  0  0  0  0  0
  -27.5230  -13.2760   19.5700 C   0  0  0  0  0  3  0  0  0  0  0  0
  -28.6580  -13.1230   20.6120 C   0  0  0  0  0  2  0  0  0  0  0  0
  -29.9370  -13.4310   19.9540 N   0  0  0  0  0  0  0  0  0  0  0  0
  -31.7600  -14.7100   19.5150 O   0  0  0  0  0  0  0  0  0  0  0  0
  -31.6920  -17.5870   21.3120 C   0  0  0  0  0  2  0  0  0  0  0  0
  -31.0520  -16.2630   21.8120 C   0  0  0  0  0  2  0  0  0  0  0  0
  -30.8620  -18.8640   21.5840 C   0  0  0  0  0  2  0  0  0  0  0  0
  -29.2170  -16.5470   20.1750 C   0  0  0  0  0  2  0  0  0  0  0  0
  -28.8080  -17.8400   20.9460 C   0  0  0  0  0  2  0  0  0  0  0  0
  -30.1670  -15.6110   20.8250 N   0  0  0  0  0  0  0  0  0  0  0  0
  -29.6910  -19.0000   20.7110 N   0  0  0  0  0  0  0  0  0  0  0  0
  -25.2010  -13.8710   20.4960 C   0  0  0  0  0  0  0  0  0  0  0  0
  -24.1590  -13.0910   20.9160 C   0  0  0  0  0  0  0  0  0  0  0  0
  -24.6050  -11.7390   20.7970 C   0  0  0  0  0  0  0  0  0  0  0  0
  -26.2140  -12.9910   20.1470 N   0  0  0  0  0  0  0  0  0  0  0  0
  -25.8670  -11.7040   20.3900 N   0  0  0  0  0  0  0  0  0  0  0  0
  -23.8860  -10.4750   20.9900 C   0  0  0  0  0  0  0  0  0  0  0  0
  -24.3450   -9.4960   21.8980 C   0  0  0  0  0  3  0  0  0  0  0  0
  -23.6260   -8.2940   22.0800 C   0  0  0  0  0  3  0  0  0  0  0  0
  -22.4350   -8.0650   21.3500 C   0  0  0  0  0  0  0  0  0  0  0  0
  -21.9960   -9.0330   20.4290 C   0  0  0  0  0  3  0  0  0  0  0  0
  -22.7150  -10.2250   20.2470 C   0  0  0  0  0  3  0  0  0  0  0  0
  -21.6840   -6.9170   21.4430 O   0  0  0  0  0  0  0  0  0  0  0  0
  -21.6230   -6.1900   22.6040 C   0  0  0  0  0  0  0  0  0  0  0  0
  -21.1840   -6.7610   23.8180 C   0  0  0  0  0  3  0  0  0  0  0  0
  -21.0700   -5.9590   24.9720 C   0  0  0  0  0  3  0  0  0  0  0  0
  -21.3840   -4.5890   24.9110 C   0  0  0  0  0  0  0  0  0  0  0  0
  -21.8150   -4.0170   23.7010 C   0  0  0  0  0  3  0  0  0  0  0  0
  -21.9320   -4.8160   22.5500 C   0  0  0  0  0  0  0  0  0  0  0  0
  -22.3280   -4.2570   21.3810 F   0  0  0  0  0  0  0  0  0  0  0  0
  -21.2660   -3.8160   26.0160 F   0  0  0  0  0  0  0  0  0  0  0  0
  -22.7890  -13.5640   21.3100 C   0  0  0  0  0  0  0  0  0  0  0  0
  -22.1240  -12.8390   22.2030 N   0  0  0  0  0  0  0  0  0  0  0  0
  -22.3200  -14.6090   20.8630 O   0  0  0  0  0  0  0  0  0  0  0  0
  -22.5160  -11.9900   22.5830 H   0  0  0  0  0  0  0  0  0  0  0  0
  -21.2080  -13.1350   22.5090 H   0  0  0  0  0  0  0  0  0  0  0  0
  -25.3630  -15.2470   20.3590 N   0  0  0  0  0  0  0  0  0  0  0  0
  -24.6110  -15.9010   20.5450 H   0  0  0  0  0  0  0  0  0  0  0  0
  -26.1810  -15.6890   19.9620 H   0  0  0  0  0  0  0  0  0  0  0  0
  -29.1950  -24.1670   20.5040 C   0  0  0  0  0  2  0  0  0  0  0  0
  -28.0810  -25.1760   20.0690 C   0  0  0  0  0  2  0  0  0  0  0  0
  -28.3270  -26.6120   20.1810 O   0  0  0  0  0  0  0  0  0  0  0  0
  -24.5790  -31.8870   23.2510 C   0  0  0  0  0  0  0  0  0  0  0  0
  -27.1910  -27.4190   20.1300 C   0  0  0  0  0  0  0  0  0  0  0  0
  -23.3660  -30.5020   21.6050 C   0  0  0  0  0  3  0  0  0  0  0  0
  -24.8110  -28.9800   20.1550 C   0  0  0  0  0  0  0  0  0  0  0  0
  -25.8980  -30.8460   21.4020 C   0  0  0  0  0  2  0  0  0  0  0  0
  -25.9780  -29.4790   20.7440 C   0  0  0  0  0  0  0  0  0  0  0  0
  -27.1730  -28.7100   20.7260 C   0  0  0  0  0  3  0  0  0  0  0  0
  -26.0000  -26.9660   19.5090 C   0  0  0  0  0  3  0  0  0  0  0  0
  -24.8190  -27.7250   19.5300 C   0  0  0  0  0  3  0  0  0  0  0  0
  -23.5690  -29.8410   20.2170 C   0  0  0  0  0  2  0  0  0  0  0  0
  -24.6330  -31.0930   22.1440 N   0  0  0  0  0  0  0  0  0  0  0  0
  -23.5000  -32.1570   23.7950 O   0  0  0  0  0  0  0  0  0  0  0  0
  -22.7150  -29.4720   22.5590 C   0  0  0  0  0  0  0  0  0  0  0  0
  -21.3900  -29.2900   22.4350 N   0  0  0  0  0  0  0  0  0  0  0  0
  -23.4010  -28.8410   23.3680 O   0  0  0  0  0  0  0  0  0  0  0  0
  -20.8980  -29.8540   21.7550 H   0  0  0  0  0  0  0  0  0  0  0  0
  -18.0170  -28.0910   22.9390 C   0  0  0  0  0  0  0  0  0  0  0  0
  -20.5760  -28.3470   23.2020 C   0  0  0  0  0  3  0  0  0  0  0  0
  -20.6760  -26.9210   22.6140 C   0  0  0  0  0  2  0  0  0  0  0  0
  -19.5690  -26.6060   21.6010 C   0  0  0  0  0  2  0  0  0  0  0  0
  -18.1900  -26.7470   22.2520 C   0  0  0  0  0  2  0  0  0  0  0  0
  -19.1380  -28.8500   23.3710 C   0  0  0  0  0  0  0  0  0  0  0  0
  -18.9230  -30.1080   23.9740 C   0  0  0  0  0  3  0  0  0  0  0  0
  -17.6200  -30.6100   24.1480 C   0  0  0  0  0  3  0  0  0  0  0  0
  -16.5130  -29.8490   23.7330 C   0  0  0  0  0  3  0  0  0  0  0  0
  -16.7120  -28.5910   23.1350 C   0  0  0  0  0  3  0  0  0  0  0  0
  -25.8680  -32.5130   23.8690 C   0  0  0  0  0  3  0  0  0  0  0  0
  -26.3890  -31.7350   25.1390 C   0  0  1  0  0  0  0  0  0  0  0  0
  -25.2990  -31.4890   26.2110 C   0  0  0  0  0  1  0  0  0  0  0  0
  -26.9690  -30.3580   24.7380 C   0  0  0  0  0  1  0  0  0  0  0  0
  -27.5430  -32.5240   25.8000 C   0  0  0  0  0  1  0  0  0  0  0  0
  -25.5630  -33.9110   24.2040 N   0  0  0  0  0  0  0  0  0  0  0  0
  -25.8760  -34.9630   23.4350 C   0  0  0  0  0  0  0  0  0  0  0  0
  -26.5230  -34.8590   22.3900 O   0  0  0  0  0  0  0  0  0  0  0  0
  -24.9840  -34.0650   25.0160 H   0  0  0  0  0  0  0  0  0  0  0  0
  -24.1220  -36.7410   23.1330 C   0  0  0  0  0  1  0  0  0  0  0  0
  -25.3960  -36.3510   23.9010 C   0  0  0  0  0  3  0  0  0  0  0  0
  -27.5520  -37.2550   24.6490 C   0  0  0  0  0  1  0  0  0  0  0  0
  -26.4160  -37.4090   23.7450 N   0  0  0  0  0  0  0  0  0  0  0  0
  -26.0080  -38.3280   23.9010 H   0  0  0  0  0  0  0  0  0  0  0  0
  1  4  1  0
  1  2  1  0
  3  1  1  0
  4  5  1  0
  6 19  1  0
  7 12  1  0
  8  9  1  0
  8  7  1  0
 10  9  1  0
 10 24  1  0
 10 11  1  0
 12  6  1  0
 12 11  1  0
 13  6  2  0
 14 16  1  0
 14 15  1  0
 17 19  1  0
 17 18  1  0
 19 15  1  0
 20 18  1  0
 20  5  1  0
 20 16  1  0
 21 22  2  0
 22 41  1  0
 23 22  1  0
 23 26  1  0
 24 25  1  0
 24 21  1  0
 25 23  2  0
 26 27  1  0
 27 28  2  0
 29 32  1  0
 29 28  1  0
 30 29  2  0
 31 30  1  0
 31 26  2  0
 32 33  1  0
 33 34  1  0
 34 35  2  0
 36 35  1  0
 36 40  1  0
 37 36  2  0
 38 33  2  0
 38 37  1  0
 39 38  1  0
 41 42  1  0
 42 45  1  0
 42 44  1  0
 43 41  2  0
 46 21  1  0
 46 47  1  0
 48 46  1  0
 49  1  1  0
 50 51  1  0
 50 49  1  0
 52 63  2  0
 53 51  1  0
 53 58  1  0
 54 62  1  0
 54 64  1  0
 55 61  1  0
 55 57  1  0
 56 62  1  0
 57 56  1  0
 58 57  2  0
 59 60  1  0
 59 53  2  0
 60 55  2  0
 61 54  1  0
 62 52  1  0
 64 66  2  0
 65 64  1  0
 67 65  1  0
 68 77  2  0
 68 73  1  0
 69 65  1  0
 69 73  1  0
 70 69  1  0
 71 72  1  0
 71 70  1  0
 72 68  1  0
 73 74  2  0
 74 75  1  0
 76 75  2  0
 77 76  1  0
 78 52  1  0
 78 83  1  0
 78 79  1  0
 79 82  1  1
 79 80  1  0
 81 79  1  0
 83 86  1  0
 84 88  1  0
 84 83  1  0
 85 84  2  0
 88 87  1  0
 90 91  1  0
 90 88  1  0
 90 89  1  0
M  ISO  4   6 100  19 100  50 101  51 101
M  END
>  <TORSDO>  (80) 
F 20

>  <SCORE>  (80) 
-13.560

>  <name>  (80) 
79

>  <ligand_id>  (80) 
79

>  <original_smiles>  (80) 
[H]c1c([H])c([H])c2c(c1[H])C([H])([H])C([H])([H])C([H])([H])C2([H])N([H])C(=O)C1([H])N(C(=O)C([H])(N([H])C(=O)C([H])(N([H])C([H])([H])[H])C([H])([H])[H])C(C([H])([H])[H])(C([H])([H])[H])C([H])([H])[H])C([H])([H])c2c([H])c(OC([H])([H])C([H])([H])[N+]([H])([H])C([H])([H])C([H])([H])N3C([H])([H])C([H])([H])N(C(=O)N4C([H])([H])C([H])([H])C([H])([H])C([H])(n5nc(-c6c([H])c([H])c(Oc7c([H])c([H])c(F)c([H])c7F)c([H])c6[H])c(C(=O)N([H])[H])c5N([H])[H])C4([H])[H])C([H])([H])C([H])([H])C3([H])[H])c([H])c([H])c2C1([H])[H]

>  <smiles>  (80) 
[H]c1c([H])c([H])c2c(c1[H])C([H])([H])C([H])([H])C([H])([H])C2([H])N([H])C(=O)C1([H])N(C(=O)C([H])(N([H])C(=O)C([H])(N([H])C([H])([H])[H])C([H])([H])[H])C(C([H])([H])[H])(C([H])([H])[H])C([H])([H])[H])C([H])([H])c2c([H])c(OC([H])([H])C([H])([H])[N+]([H])([H])C([H])([H])C([H])([H])N3C([H])([H])C([H])([H])N(C(=O)N4C([H])([H])C([H])([H])C([H])([H])C([H])(n5nc(-c6c([H])c([H])c(Oc7c([H])c([H])c(F)c([H])c7F)c([H])c6[H])c(C(=O)N([H])[H])c5N([H])[H])C4([H])[H])C([H])([H])C([H])([H])C3([H])[H])c([H])c([H])c2C1([H])[H]

$$$$
80:0:0
     RDKit          3D

 92100  0  0  1  0  0  0  0  0999 V2000
  -29.6090  -21.5280   20.2030 N   0  0  0  0  0  4  0  0  0  0  0  0
  -29.4210  -21.4810   19.2170 H   0  0  0  0  0  0  0  0  0  0  0  0
  -30.6060  -21.6780   20.2980 H   0  0  0  0  0  0  0  0  0  0  0  0
  -30.7880  -19.4980   21.0010 C   0  0  0  0  0  0  0  0  0  0  0  0
  -30.8250  -18.0040   21.4280 C   0  0  0  0  0  2  0  0  0  0  0  0
  -28.5600  -19.1980   19.9040 C   0  0  0  0  0  2  0  0  0  0  0  0
  -28.5420  -17.7160   20.3970 C   0  0  0  0  0  2  0  0  0  0  0  0
  -29.4000  -20.1580   20.7990 C   0  0  0  0  0  3  0  0  0  0  0  0
  -29.9640  -17.0920   20.5030 C   0  0  0  0  0  3  0  0  0  0  0  0
  -31.8420  -20.1220   20.8360 O   0  0  0  0  0  0  0  0  0  0  0  0
  -30.6610  -14.6140   20.4190 C   0  0  0  0  0  0  0  0  0  0  0  0
  -30.4250  -12.4200   19.2940 C   0  0  0  0  0  2  0  0  0  0  0  0
  -29.4880  -12.6140   18.0820 C   0  0  0  0  0  2  0  0  0  0  0  0
  -28.0100  -12.4610   18.4970 C   0  0  0  0  0  2  0  0  0  0  0  0
  -27.6610  -13.2810   19.7690 C   0  0  0  0  0  3  0  0  0  0  0  0
  -28.7150  -13.0640   20.8800 C   0  0  0  0  0  2  0  0  0  0  0  0
  -30.0350  -13.4010   20.3240 N   0  0  0  0  0  0  0  0  0  0  0  0
  -31.7800  -14.8130   19.9370 O   0  0  0  0  0  0  0  0  0  0  0  0
  -29.8950  -15.6420   20.8820 N   0  0  0  0  0  0  0  0  0  0  0  0
  -29.0420  -15.3460   21.3360 H   0  0  0  0  0  0  0  0  0  0  0  0
  -25.2590  -13.8820   20.4660 C   0  0  0  0  0  0  0  0  0  0  0  0
  -24.1930  -13.1080   20.8370 C   0  0  0  0  0  0  0  0  0  0  0  0
  -24.6540  -11.7560   20.8070 C   0  0  0  0  0  0  0  0  0  0  0  0
  -26.3070  -13.0010   20.2400 N   0  0  0  0  0  0  0  0  0  0  0  0
  -25.9460  -11.7170   20.4990 N   0  0  0  0  0  0  0  0  0  0  0  0
  -23.9290  -10.4940   21.0020 C   0  0  0  0  0  0  0  0  0  0  0  0
  -24.3550   -9.5390   21.9500 C   0  0  0  0  0  3  0  0  0  0  0  0
  -23.6310   -8.3410   22.1310 C   0  0  0  0  0  3  0  0  0  0  0  0
  -22.4680   -8.0890   21.3650 C   0  0  0  0  0  0  0  0  0  0  0  0
  -22.0610   -9.0350   20.4080 C   0  0  0  0  0  3  0  0  0  0  0  0
  -22.7840  -10.2250   20.2250 C   0  0  0  0  0  3  0  0  0  0  0  0
  -21.7180   -6.9420   21.4540 O   0  0  0  0  0  0  0  0  0  0  0  0
  -21.6520   -6.2110   22.6120 C   0  0  0  0  0  0  0  0  0  0  0  0
  -21.1840   -6.7730   23.8210 C   0  0  0  0  0  3  0  0  0  0  0  0
  -21.0670   -5.9660   24.9710 C   0  0  0  0  0  3  0  0  0  0  0  0
  -21.4100   -4.6020   24.9150 C   0  0  0  0  0  0  0  0  0  0  0  0
  -21.8700   -4.0410   23.7110 C   0  0  0  0  0  3  0  0  0  0  0  0
  -21.9880   -4.8440   22.5620 C   0  0  0  0  0  0  0  0  0  0  0  0
  -22.4120   -4.2920   21.3990 F   0  0  0  0  0  0  0  0  0  0  0  0
  -21.2910   -3.8260   26.0180 F   0  0  0  0  0  0  0  0  0  0  0  0
  -22.7940  -13.5840   21.1070 C   0  0  0  0  0  0  0  0  0  0  0  0
  -22.0640  -12.8860   21.9690 N   0  0  0  0  0  0  0  0  0  0  0  0
  -22.3540  -14.6100   20.5850 O   0  0  0  0  0  0  0  0  0  0  0  0
  -22.4310  -12.0580   22.4150 H   0  0  0  0  0  0  0  0  0  0  0  0
  -21.1240  -13.1820   22.1860 H   0  0  0  0  0  0  0  0  0  0  0  0
  -25.4240  -15.2520   20.2870 N   0  0  0  0  0  0  0  0  0  0  0  0
  -24.6580  -15.9070   20.3990 H   0  0  0  0  0  0  0  0  0  0  0  0
  -26.2720  -15.6890   19.9470 H   0  0  0  0  0  0  0  0  0  0  0  0
  -28.8780  -22.6930   20.8170 C   0  0  0  0  0  2  0  0  0  0  0  0
  -29.0170  -24.0850   20.0760 C   0  0  0  0  0  2  0  0  0  0  0  0
  -28.2460  -25.2790   20.7560 C   0  0  0  0  0  2  0  0  0  0  0  0
  -28.3910  -26.6110   20.1690 O   0  0  0  0  0  0  0  0  0  0  0  0
  -24.6510  -31.9220   23.2450 C   0  0  0  0  0  0  0  0  0  0  0  0
  -27.2530  -27.4110   20.1740 C   0  0  0  0  0  0  0  0  0  0  0  0
  -23.4360  -30.5190   21.6150 C   0  0  0  0  0  3  0  0  0  0  0  0
  -24.8760  -28.9710   20.1860 C   0  0  0  0  0  0  0  0  0  0  0  0
  -25.9670  -30.8580   21.4040 C   0  0  0  0  0  2  0  0  0  0  0  0
  -26.0460  -29.4800   20.7640 C   0  0  0  0  0  0  0  0  0  0  0  0
  -27.2410  -28.7110   20.7470 C   0  0  0  0  0  3  0  0  0  0  0  0
  -26.0650  -26.9350   19.5760 C   0  0  0  0  0  3  0  0  0  0  0  0
  -24.8850  -27.7000   19.5870 C   0  0  0  0  0  3  0  0  0  0  0  0
  -23.6410  -29.8420   20.2360 C   0  0  0  0  0  2  0  0  0  0  0  0
  -24.7040  -31.1160   22.1460 N   0  0  0  0  0  0  0  0  0  0  0  0
  -23.5730  -32.1990   23.7890 O   0  0  0  0  0  0  0  0  0  0  0  0
  -22.7830  -29.5020   22.5810 C   0  0  0  0  0  0  0  0  0  0  0  0
  -21.4610  -29.3070   22.4490 N   0  0  0  0  0  0  0  0  0  0  0  0
  -23.4640  -28.8930   23.4100 O   0  0  0  0  0  0  0  0  0  0  0  0
  -20.9710  -29.8460   21.7470 H   0  0  0  0  0  0  0  0  0  0  0  0
  -18.0950  -28.0690   22.9240 C   0  0  0  0  0  0  0  0  0  0  0  0
  -20.6450  -28.3710   23.2250 C   0  0  0  0  0  3  0  0  0  0  0  0
  -20.7760  -26.9310   22.6750 C   0  0  0  0  0  2  0  0  0  0  0  0
  -19.6910  -26.5770   21.6540 C   0  0  0  0  0  2  0  0  0  0  0  0
  -18.2990  -26.7110   22.2760 C   0  0  0  0  0  2  0  0  0  0  0  0
  -19.1950  -28.8550   23.3560 C   0  0  0  0  0  0  0  0  0  0  0  0
  -18.9490  -30.1260   23.9210 C   0  0  0  0  0  3  0  0  0  0  0  0
  -17.6330  -30.6080   24.0630 C   0  0  0  0  0  3  0  0  0  0  0  0
  -16.5480  -29.8190   23.6450 C   0  0  0  0  0  3  0  0  0  0  0  0
  -16.7780  -28.5520   23.0810 C   0  0  0  0  0  3  0  0  0  0  0  0
  -25.9390  -32.5530   23.8570 C   0  0  0  0  0  3  0  0  0  0  0  0
  -26.4790  -31.7680   25.1140 C   0  0  1  0  0  0  0  0  0  0  0  0
  -25.4020  -31.5090   26.1950 C   0  0  0  0  0  1  0  0  0  0  0  0
  -27.0620  -30.3990   24.6920 C   0  0  0  0  0  1  0  0  0  0  0  0
  -27.6370  -32.5580   25.7680 C   0  0  0  0  0  1  0  0  0  0  0  0
  -25.6270  -33.9460   24.2090 N   0  0  0  0  0  0  0  0  0  0  0  0
  -25.9220  -35.0080   23.4460 C   0  0  0  0  0  0  0  0  0  0  0  0
  -26.5570  -34.9190   22.3920 O   0  0  0  0  0  0  0  0  0  0  0  0
  -25.0540  -34.0870   25.0280 H   0  0  0  0  0  0  0  0  0  0  0  0
  -24.1550  -36.7770   23.1720 C   0  0  0  0  0  1  0  0  0  0  0  0
  -25.4350  -36.3870   23.9290 C   0  0  0  0  0  3  0  0  0  0  0  0
  -27.5890  -37.3000   24.6740 C   0  0  0  0  0  1  0  0  0  0  0  0
  -26.4460  -37.4560   23.7760 N   0  0  0  0  0  0  0  0  0  0  0  0
  -26.0350  -38.3690   23.9440 H   0  0  0  0  0  0  0  0  0  0  0  0
  1  3  1  0
  1 49  1  0
  2  1  1  0
  4  5  1  0
  6  7  1  0
  6  8  1  0
  7  9  1  0
  8  1  1  0
  8  4  1  0
  9 19  1  0
  9  5  1  0
 10  4  2  0
 11 19  1  0
 12 17  1  0
 13 14  1  0
 13 12  1  0
 15 14  1  0
 15 24  1  0
 15 16  1  0
 17 11  1  0
 17 16  1  0
 18 11  2  0
 19 20  1  0
 21 22  2  0
 22 41  1  0
 23 22  1  0
 23 26  1  0
 24 21  1  0
 24 25  1  0
 25 23  2  0
 26 27  1  0
 27 28  2  0
 29 32  1  0
 29 28  1  0
 30 29  2  0
 31 30  1  0
 31 26  2  0
 32 33  1  0
 33 34  1  0
 34 35  2  0
 36 35  1  0
 36 40  1  0
 37 36  2  0
 38 33  2  0
 38 37  1  0
 39 38  1  0
 41 42  1  0
 42 45  1  0
 42 44  1  0
 43 41  2  0
 46 47  1  0
 46 21  1  0
 48 46  1  0
 50 51  1  0
 50 49  1  0
 52 54  1  0
 52 51  1  0
 53 64  2  0
 54 59  1  0
 55 63  1  0
 55 65  1  0
 56 62  1  0
 56 58  1  0
 57 63  1  0
 58 57  1  0
 59 58  2  0
 60 61  1  0
 60 54  2  0
 61 56  2  0
 62 55  1  0
 63 53  1  0
 65 67  2  0
 66 65  1  0
 68 66  1  0
 69 78  2  0
 69 74  1  0
 70 66  1  0
 70 74  1  0
 71 70  1  0
 72 73  1  0
 72 71  1  0
 73 69  1  0
 74 75  2  0
 75 76  1  0
 77 76  2  0
 78 77  1  0
 79 53  1  0
 79 84  1  0
 79 80  1  0
 80 83  1  1
 80 81  1  0
 82 80  1  0
 84 87  1  0
 85 89  1  0
 85 84  1  0
 86 85  2  0
 89 88  1  0
 91 89  1  0
 91 92  1  0
 91 90  1  0
M  ISO  4  11 100  19 100  51 101  52 101
M  END
>  <TORSDO>  (81) 
F 20

>  <SCORE>  (81) 
-14.128

>  <name>  (81) 
80

>  <ligand_id>  (81) 
80

>  <original_smiles>  (81) 
[H]c1c([H])c([H])c2c(c1[H])C([H])([H])C([H])([H])C([H])([H])C2([H])N([H])C(=O)C1([H])N(C(=O)C([H])(N([H])C(=O)C([H])(N([H])C([H])([H])[H])C([H])([H])[H])C(C([H])([H])[H])(C([H])([H])[H])C([H])([H])[H])C([H])([H])c2c([H])c(OC([H])([H])C([H])([H])C([H])([H])[N+]([H])([H])C3([H])C(=O)C([H])([H])C([H])(N([H])C(=O)N4C([H])([H])C([H])([H])C([H])([H])C([H])(n5nc(-c6c([H])c([H])c(Oc7c([H])c([H])c(F)c([H])c7F)c([H])c6[H])c(C(=O)N([H])[H])c5N([H])[H])C4([H])[H])C([H])([H])C3([H])[H])c([H])c([H])c2C1([H])[H]

>  <smiles>  (81) 
[H]c1c([H])c([H])c2c(c1[H])C([H])([H])C([H])([H])C([H])([H])C2([H])N([H])C(=O)C1([H])N(C(=O)C([H])(N([H])C(=O)C([H])(N([H])C([H])([H])[H])C([H])([H])[H])C(C([H])([H])[H])(C([H])([H])[H])C([H])([H])[H])C([H])([H])c2c([H])c(OC([H])([H])C([H])([H])C([H])([H])[N+]([H])([H])C3([H])C(=O)C([H])([H])C([H])(N([H])C(=O)N4C([H])([H])C([H])([H])C([H])([H])C([H])(n5nc(-c6c([H])c([H])c(Oc7c([H])c([H])c(F)c([H])c7F)c([H])c6[H])c(C(=O)N([H])[H])c5N([H])[H])C4([H])[H])C([H])([H])C3([H])[H])c([H])c([H])c2C1([H])[H]

$$$$
81:0:0
     RDKit          3D

 97106  0  0  1  0  0  0  0  0999 V2000
  -30.5600  -21.3750   23.8480 C   0  0  0  0  0  2  0  0  0  0  0  0
  -30.0140  -19.9780   23.5900 C   0  0  0  0  0  2  0  0  0  0  0  0
  -30.0880  -22.3190   22.7480 C   0  0  0  0  0  2  0  0  0  0  0  0
  -30.2020  -17.9500   22.1060 C   0  0  0  0  0  2  0  0  0  0  0  0
  -30.6640  -18.1410   19.6760 C   0  0  0  0  0  2  0  0  0  0  0  0
  -30.5900  -19.4450   22.2770 C   0  0  0  0  0  3  0  0  0  0  0  0
  -30.2290  -20.3370   21.0330 C   0  0  0  0  0  3  0  0  0  0  0  0
  -30.4730  -21.9090   21.2960 C   0  0  0  0  0  3  0  0  0  0  0  0
  -31.0220  -19.6680   19.8410 C   0  0  0  0  0  3  0  0  0  0  0  0
  -30.9440  -17.2810   20.9360 C   0  0  0  0  0  3  0  0  0  0  0  0
  -31.2550  -14.8150   20.2840 C   0  0  0  0  0  0  0  0  0  0  0  0
  -30.9330  -12.6530   19.1190 C   0  0  0  0  0  2  0  0  0  0  0  0
  -29.9640  -12.8640   17.9360 C   0  0  0  0  0  2  0  0  0  0  0  0
  -28.4970  -12.7330   18.3960 C   0  0  0  0  0  2  0  0  0  0  0  0
  -28.1950  -13.5620   19.6740 C   0  0  0  0  0  3  0  0  0  0  0  0
  -29.2710  -13.3230   20.7550 C   0  0  0  0  0  2  0  0  0  0  0  0
  -30.5810  -13.6340   20.1610 N   0  0  0  0  0  0  0  0  0  0  0  0
  -32.3860  -14.9790   19.8180 O   0  0  0  0  0  0  0  0  0  0  0  0
  -30.5460  -15.8520   20.7980 N   0  0  0  0  0  0  0  0  0  0  0  0
  -29.6230  -15.6120   21.1300 H   0  0  0  0  0  0  0  0  0  0  0  0
  -25.8340  -14.2010   20.4740 C   0  0  0  0  0  0  0  0  0  0  0  0
  -24.7550  -13.4430   20.8390 C   0  0  0  0  0  0  0  0  0  0  0  0
  -25.1760  -12.0820   20.7390 C   0  0  0  0  0  0  0  0  0  0  0  0
  -26.8480  -13.3020   20.1760 N   0  0  0  0  0  0  0  0  0  0  0  0
  -26.4570  -12.0200   20.3940 N   0  0  0  0  0  0  0  0  0  0  0  0
  -24.4180  -10.8330   20.8950 C   0  0  0  0  0  0  0  0  0  0  0  0
  -24.7740   -9.8700   21.8650 C   0  0  0  0  0  3  0  0  0  0  0  0
  -24.0200   -8.6860   22.0080 C   0  0  0  0  0  3  0  0  0  0  0  0
  -22.8950   -8.4560   21.1800 C   0  0  0  0  0  0  0  0  0  0  0  0
  -22.5600   -9.4060   20.2010 C   0  0  0  0  0  3  0  0  0  0  0  0
  -23.3150  -10.5830   20.0560 C   0  0  0  0  0  3  0  0  0  0  0  0
  -22.1190   -7.3230   21.2310 O   0  0  0  0  0  0  0  0  0  0  0  0
  -21.8500   -6.6880   22.4160 C   0  0  0  0  0  0  0  0  0  0  0  0
  -21.1880   -7.3400   23.4780 C   0  0  0  0  0  3  0  0  0  0  0  0
  -20.8700   -6.6290   24.6520 C   0  0  0  0  0  3  0  0  0  0  0  0
  -21.2020   -5.2650   24.7630 C   0  0  0  0  0  0  0  0  0  0  0  0
  -21.8560   -4.6130   23.7030 C   0  0  0  0  0  3  0  0  0  0  0  0
  -22.1760   -5.3200   22.5320 C   0  0  0  0  0  0  0  0  0  0  0  0
  -22.7880   -4.6810   21.5060 F   0  0  0  0  0  0  0  0  0  0  0  0
  -20.8890   -4.5790   25.8870 F   0  0  0  0  0  0  0  0  0  0  0  0
  -23.3790  -13.9470   21.1670 C   0  0  0  0  0  0  0  0  0  0  0  0
  -22.6630  -13.2500   22.0440 N   0  0  0  0  0  0  0  0  0  0  0  0
  -22.9490  -14.9930   20.6830 O   0  0  0  0  0  0  0  0  0  0  0  0
  -23.0240  -12.4030   22.4600 H   0  0  0  0  0  0  0  0  0  0  0  0
  -21.7410  -13.5690   22.3050 H   0  0  0  0  0  0  0  0  0  0  0  0
  -26.0340  -15.5720   20.3500 N   0  0  0  0  0  0  0  0  0  0  0  0
  -25.2900  -16.2410   20.5080 H   0  0  0  0  0  0  0  0  0  0  0  0
  -26.8840  -16.0010   20.0060 H   0  0  0  0  0  0  0  0  0  0  0  0
  -29.6960  -22.9370   20.3700 C   0  0  0  0  0  2  0  0  0  0  0  0
  -29.9550  -24.4820   20.5940 C   0  0  0  0  0  2  0  0  0  0  0  0
  -28.8560  -25.4150   19.9900 C   0  0  0  0  0  2  0  0  0  0  0  0
  -28.9240  -26.8350   20.3200 O   0  0  0  0  0  0  0  0  0  0  0  0
  -24.6580  -31.7770   23.2690 C   0  0  0  0  0  0  0  0  0  0  0  0
  -27.7320  -27.5560   20.2260 C   0  0  0  0  0  0  0  0  0  0  0  0
  -23.6280  -30.3360   21.5460 C   0  0  0  0  0  3  0  0  0  0  0  0
  -25.2470  -28.9450   20.1470 C   0  0  0  0  0  0  0  0  0  0  0  0
  -26.1350  -30.8600   21.4770 C   0  0  0  0  0  2  0  0  0  0  0  0
  -26.3440  -29.5140   20.8060 C   0  0  0  0  0  0  0  0  0  0  0  0
  -27.5890  -28.8290   20.8410 C   0  0  0  0  0  3  0  0  0  0  0  0
  -26.6140  -27.0320   19.5330 C   0  0  0  0  0  3  0  0  0  0  0  0
  -25.3810  -27.7070   19.5020 C   0  0  0  0  0  3  0  0  0  0  0  0
  -23.9450  -29.7150   20.1600 C   0  0  0  0  0  2  0  0  0  0  0  0
  -24.8220  -31.0070   22.1540 N   0  0  0  0  0  0  0  0  0  0  0  0
  -23.5370  -31.9590   23.7650 O   0  0  0  0  0  0  0  0  0  0  0  0
  -23.0100  -29.2480   22.4550 C   0  0  0  0  0  0  0  0  0  0  0  0
  -21.7070  -28.9800   22.2720 N   0  0  0  0  0  0  0  0  0  0  0  0
  -23.7020  -28.6480   23.2820 O   0  0  0  0  0  0  0  0  0  0  0  0
  -21.2070  -29.5190   21.5770 H   0  0  0  0  0  0  0  0  0  0  0  0
  -18.3930  -27.5820   22.6420 C   0  0  0  0  0  0  0  0  0  0  0  0
  -20.9260  -27.9720   22.9890 C   0  0  0  0  0  3  0  0  0  0  0  0
  -21.1220  -26.5710   22.3680 C   0  0  0  0  0  2  0  0  0  0  0  0
  -20.0670  -26.2260   21.3120 C   0  0  0  0  0  2  0  0  0  0  0  0
  -18.6610  -26.2720   21.9200 C   0  0  0  0  0  2  0  0  0  0  0  0
  -19.4560  -28.3880   23.1280 C   0  0  0  0  0  0  0  0  0  0  0  0
  -19.1530  -29.6130   23.7590 C   0  0  0  0  0  3  0  0  0  0  0  0
  -17.8180  -30.0350   23.9100 C   0  0  0  0  0  3  0  0  0  0  0  0
  -16.7690  -29.2270   23.4390 C   0  0  0  0  0  3  0  0  0  0  0  0
  -17.0570  -28.0020   22.8100 C   0  0  0  0  0  3  0  0  0  0  0  0
  -25.8670  -32.4840   23.9570 C   0  0  0  0  0  3  0  0  0  0  0  0
  -25.4800  -33.8800   24.2050 N   0  0  0  0  0  0  0  0  0  0  0  0
  -25.8020  -34.9120   23.4140 C   0  0  0  0  0  0  0  0  0  0  0  0
  -26.5290  -34.7950   22.4240 O   0  0  0  0  0  0  0  0  0  0  0  0
  -24.8370  -34.0410   24.9660 H   0  0  0  0  0  0  0  0  0  0  0  0
  -24.0010  -36.5930   22.9070 C   0  0  0  0  0  1  0  0  0  0  0  0
  -25.2290  -36.2950   23.7810 C   0  0  0  0  0  3  0  0  0  0  0  0
  -27.2770  -37.3350   24.6470 C   0  0  0  0  0  1  0  0  0  0  0  0
  -26.2100  -37.3920   23.6510 N   0  0  0  0  0  0  0  0  0  0  0  0
  -25.7530  -38.2950   23.7300 H   0  0  0  0  0  0  0  0  0  0  0  0
  -26.3150  -31.7840   25.2990 C   0  0  1  0  0  0  0  0  0  0  0  0
  -25.1520  -31.5340   26.2870 C   0  0  0  0  0  1  0  0  0  0  0  0
  -26.9890  -30.4230   25.0080 C   0  0  0  0  0  1  0  0  0  0  0  0
  -27.3740  -32.6560   26.0140 C   0  0  0  0  0  1  0  0  0  0  0  0
  -30.8980  -20.4210   18.4950 C   0  0  0  0  0  2  0  0  0  0  0  0
  -31.7170  -19.8430   17.4140 N   0  0  0  0  0  4  0  0  0  0  0  0
  -32.6810  -19.7780   17.6870 H   0  0  0  0  0  0  0  0  0  0  0  0
  -31.6670  -20.4340   16.6020 H   0  0  0  0  0  0  0  0  0  0  0  0
  -31.3850  -18.9320   17.1540 H   0  0  0  0  0  0  0  0  0  0  0  0
  2  1  1  0
  3  1  1  0
  5  9  1  0
  5 10  1  0
  6  4  1  0
  6  2  1  0
  7  8  1  0
  7  6  1  0
  8  3  1  0
  9  7  1  0
 10  4  1  0
 11 19  1  0
 12 17  1  0
 13 14  1  0
 13 12  1  0
 14 15  1  0
 15 24  1  0
 15 16  1  0
 17 11  1  0
 17 16  1  0
 18 11  2  0
 19 10  1  0
 19 20  1  0
 21 22  2  0
 22 41  1  0
 23 22  1  0
 23 26  1  0
 24 25  1  0
 24 21  1  0
 25 23  2  0
 26 27  1  0
 27 28  2  0
 29 32  1  0
 29 28  1  0
 30 29  2  0
 31 30  1  0
 31 26  2  0
 32 33  1  0
 33 38  2  0
 33 34  1  0
 34 35  2  0
 35 36  1  0
 36 40  1  0
 37 36  2  0
 38 37  1  0
 39 38  1  0
 41 42  1  0
 42 45  1  0
 42 44  1  0
 43 41  2  0
 46 21  1  0
 46 47  1  0
 48 46  1  0
 49 50  1  0
 49  8  1  0
 51 52  1  0
 51 50  1  0
 53 64  2  0
 53 79  1  0
 54 52  1  0
 54 59  1  0
 55 63  1  0
 55 65  1  0
 56 62  1  0
 56 58  1  0
 57 63  1  0
 58 59  2  0
 58 57  1  0
 60 54  2  0
 61 60  1  0
 61 56  2  0
 62 55  1  0
 63 53  1  0
 65 67  2  0
 66 65  1  0
 66 70  1  0
 68 66  1  0
 69 78  2  0
 69 74  1  0
 70 74  1  0
 71 70  1  0
 72 73  1  0
 72 71  1  0
 73 69  1  0
 74 75  2  0
 75 76  1  0
 77 76  2  0
 78 77  1  0
 79 80  1  0
 79 89  1  0
 80 83  1  0
 81 85  1  0
 81 80  1  0
 82 81  2  0
 84 85  1  0
 87 88  1  0
 87 85  1  0
 87 86  1  0
 89 92  1  1
 89 90  1  0
 91 89  1  0
 93  9  1  0
 94 95  1  0
 94 93  1  0
 96 94  1  0
 97 94  1  0
M  ISO  4  11 100  19 100  51 101  52 101
M  END
>  <TORSDO>  (82) 
F 21

>  <SCORE>  (82) 
-11.791

>  <name>  (82) 
81

>  <ligand_id>  (82) 
81

>  <original_smiles>  (82) 
[H]c1c([H])c([H])c2c(c1[H])C([H])([H])C([H])([H])C([H])([H])C2([H])N([H])C(=O)C1([H])N(C(=O)C([H])(N([H])C(=O)C([H])(N([H])C([H])([H])[H])C([H])([H])[H])C(C([H])([H])[H])(C([H])([H])[H])C([H])([H])[H])C([H])([H])c2c([H])c(OC([H])([H])C([H])([H])C([H])([H])C3([H])C([H])([H])C([H])([H])C([H])([H])C4([H])C([H])([H])C([H])(N([H])C(=O)N5C([H])([H])C([H])([H])C([H])([H])C([H])(n6nc(-c7c([H])c([H])c(Oc8c([H])c([H])c(F)c([H])c8F)c([H])c7[H])c(C(=O)N([H])[H])c6N([H])[H])C5([H])[H])C([H])([H])C([H])(C([H])([H])[N+]([H])([H])[H])C34[H])c([H])c([H])c2C1([H])[H]

>  <smiles>  (82) 
[H]c1c([H])c([H])c2c(c1[H])C([H])([H])C([H])([H])C([H])([H])C2([H])N([H])C(=O)C1([H])N(C(=O)C([H])(N([H])C(=O)C([H])(N([H])C([H])([H])[H])C([H])([H])[H])C(C([H])([H])[H])(C([H])([H])[H])C([H])([H])[H])C([H])([H])c2c([H])c(OC([H])([H])C([H])([H])C([H])([H])C3([H])C([H])([H])C([H])([H])C([H])([H])C4([H])C([H])([H])C([H])(N([H])C(=O)N5C([H])([H])C([H])([H])C([H])([H])C([H])(n6nc(-c7c([H])c([H])c(Oc8c([H])c([H])c(F)c([H])c8F)c([H])c7[H])c(C(=O)N([H])[H])c6N([H])[H])C5([H])[H])C([H])([H])C([H])(C([H])([H])[N+]([H])([H])[H])C34[H])c([H])c([H])c2C1([H])[H]

$$$$
82:0:0
     RDKit          3D

 89 98  0  0  1  0  0  0  0  0999 V2000
  -29.9840  -17.6320   20.0740 C   0  0  0  0  0  0  0  0  0  0  0  0
  -30.2490  -18.1270   21.5070 C   0  0  0  0  0  3  0  0  0  0  0  0
  -29.7570  -18.9570   19.0930 C   0  0  0  0  0  2  0  0  0  0  0  0
  -29.9730  -19.6630   21.7760 C   0  0  0  0  0  2  0  0  0  0  0  0
  -28.0460  -21.5360   21.6110 C   0  0  0  0  0  2  0  0  0  0  0  0
  -28.5810  -22.9380   21.1950 C   0  0  0  0  0  2  0  0  0  0  0  0
  -29.4240  -21.9620   19.1040 C   0  0  0  0  0  2  0  0  0  0  0  0
  -28.9970  -20.3800   19.5450 C   0  0  0  0  0  3  0  0  0  0  0  0
  -28.7310  -20.2580   21.0430 C   0  0  0  0  0  3  0  0  0  0  0  0
  -28.5950  -23.3080   19.6760 C   0  0  0  0  0  3  0  0  0  0  0  0
  -29.9330  -16.3230   19.7040 N   0  0  0  0  0  2  0  0  0  0  0  0
  -30.7070  -15.1330   20.1560 C   0  0  0  0  0  0  0  0  0  0  0  0
  -30.6350  -12.7060   19.4470 C   0  0  0  0  0  2  0  0  0  0  0  0
  -29.7300  -12.5550   18.2010 C   0  0  0  0  0  2  0  0  0  0  0  0
  -28.2580  -12.3620   18.6170 C   0  0  0  0  0  2  0  0  0  0  0  0
  -27.8150  -13.3660   19.7140 C   0  0  0  0  0  3  0  0  0  0  0  0
  -28.8480  -13.4960   20.8440 C   0  0  0  0  0  2  0  0  0  0  0  0
  -30.1280  -13.8660   20.2360 N   0  0  0  0  0  0  0  0  0  0  0  0
  -31.9380  -15.1420   20.1220 O   0  0  0  0  0  0  0  0  0  0  0  0
  -25.4630  -13.9610   20.5190 C   0  0  0  0  0  0  0  0  0  0  0  0
  -24.3870  -13.1960   20.8770 C   0  0  0  0  0  0  0  0  0  0  0  0
  -24.8270  -11.8380   20.8050 C   0  0  0  0  0  0  0  0  0  0  0  0
  -26.4830  -13.0720   20.2310 N   0  0  0  0  0  0  0  0  0  0  0  0
  -26.1130  -11.7870   20.4760 N   0  0  0  0  0  0  0  0  0  0  0  0
  -24.0800  -10.5830   20.9710 C   0  0  0  0  0  0  0  0  0  0  0  0
  -24.4920   -9.5880   21.8860 C   0  0  0  0  0  3  0  0  0  0  0  0
  -23.7420   -8.4010   22.0390 C   0  0  0  0  0  3  0  0  0  0  0  0
  -22.5650   -8.2020   21.2790 C   0  0  0  0  0  0  0  0  0  0  0  0
  -22.1730   -9.1850   20.3530 C   0  0  0  0  0  3  0  0  0  0  0  0
  -22.9220  -10.3630   20.1970 C   0  0  0  0  0  3  0  0  0  0  0  0
  -21.7880   -7.0720   21.3430 O   0  0  0  0  0  0  0  0  0  0  0  0
  -21.7170   -6.3100   22.4820 C   0  0  0  0  0  0  0  0  0  0  0  0
  -21.2880   -6.8490   23.7140 C   0  0  0  0  0  3  0  0  0  0  0  0
  -21.1650   -6.0130   24.8430 C   0  0  0  0  0  3  0  0  0  0  0  0
  -21.4650   -4.6410   24.7390 C   0  0  0  0  0  0  0  0  0  0  0  0
  -21.8870   -4.1030   23.5110 C   0  0  0  0  0  3  0  0  0  0  0  0
  -22.0100   -4.9350   22.3850 C   0  0  0  0  0  0  0  0  0  0  0  0
  -22.3960   -4.4070   21.1980 F   0  0  0  0  0  0  0  0  0  0  0  0
  -21.3390   -3.8360   25.8200 F   0  0  0  0  0  0  0  0  0  0  0  0
  -23.0000  -13.6900   21.1660 C   0  0  0  0  0  0  0  0  0  0  0  0
  -22.2620  -12.9880   22.0180 N   0  0  0  0  0  0  0  0  0  0  0  0
  -22.5800  -14.7330   20.6670 O   0  0  0  0  0  0  0  0  0  0  0  0
  -22.6170  -12.1490   22.4500 H   0  0  0  0  0  0  0  0  0  0  0  0
  -21.3220  -13.2910   22.2380 H   0  0  0  0  0  0  0  0  0  0  0  0
  -25.6540  -15.3330   20.3890 N   0  0  0  0  0  0  0  0  0  0  0  0
  -24.9150  -16.0050   20.5610 H   0  0  0  0  0  0  0  0  0  0  0  0
  -26.5270  -15.7630   20.1050 H   0  0  0  0  0  0  0  0  0  0  0  0
  -28.9830  -24.9920   19.6420 C   0  0  0  0  0  2  0  0  0  0  0  0
  -28.6210  -26.3060   18.8790 O   0  0  0  0  0  0  0  0  0  0  0  0
  -24.7160  -31.3250   22.7440 C   0  0  0  0  0  0  0  0  0  0  0  0
  -27.4870  -27.1630   19.1230 C   0  0  0  0  0  0  0  0  0  0  0  0
  -23.5460  -30.0230   21.0090 C   0  0  0  0  0  3  0  0  0  0  0  0
  -25.0390  -28.7150   19.3750 C   0  0  0  0  0  0  0  0  0  0  0  0
  -26.0640  -30.5030   20.7720 C   0  0  0  0  0  2  0  0  0  0  0  0
  -26.2110  -29.1910   19.9780 C   0  0  0  0  0  0  0  0  0  0  0  0
  -27.4390  -28.4370   19.8260 C   0  0  0  0  0  3  0  0  0  0  0  0
  -26.2780  -26.7830   18.5090 C   0  0  0  0  0  3  0  0  0  0  0  0
  -25.0820  -27.5260   18.6280 C   0  0  0  0  0  3  0  0  0  0  0  0
  -23.7560  -29.5120   19.5590 C   0  0  0  0  0  2  0  0  0  0  0  0
  -24.7970  -30.6350   21.5640 N   0  0  0  0  0  0  0  0  0  0  0  0
  -23.6380  -31.4620   23.3440 O   0  0  0  0  0  0  0  0  0  0  0  0
  -22.9920  -28.8660   21.8800 C   0  0  0  0  0  0  0  0  0  0  0  0
  -21.6790  -28.5930   21.7730 N   0  0  0  0  0  0  0  0  0  0  0  0
  -23.7440  -28.2220   22.6150 O   0  0  0  0  0  0  0  0  0  0  0  0
  -21.1220  -29.1690   21.1570 H   0  0  0  0  0  0  0  0  0  0  0  0
  -18.4380  -27.0470   22.2450 C   0  0  0  0  0  0  0  0  0  0  0  0
  -20.9710  -27.5140   22.4680 C   0  0  0  0  0  3  0  0  0  0  0  0
  -21.1780  -26.1610   21.7470 C   0  0  0  0  0  2  0  0  0  0  0  0
  -20.0720  -25.8430   20.7350 C   0  0  0  0  0  2  0  0  0  0  0  0
  -18.7070  -25.7950   21.4270 C   0  0  0  0  0  2  0  0  0  0  0  0
  -19.5000  -27.8620   22.7200 C   0  0  0  0  0  0  0  0  0  0  0  0
  -19.1910  -29.0330   23.4470 C   0  0  0  0  0  3  0  0  0  0  0  0
  -17.8540  -29.3920   23.7000 C   0  0  0  0  0  3  0  0  0  0  0  0
  -16.8070  -28.5760   23.2390 C   0  0  0  0  0  3  0  0  0  0  0  0
  -17.1000  -27.4030   22.5190 C   0  0  0  0  0  3  0  0  0  0  0  0
  -25.9710  -31.9920   23.3860 C   0  0  0  0  0  3  0  0  0  0  0  0
  -25.5570  -33.2910   23.9390 N   0  0  0  0  0  0  0  0  0  0  0  0
  -25.7400  -34.4730   23.3380 C   0  0  0  0  0  0  0  0  0  0  0  0
  -26.3460  -34.5900   22.2680 O   0  0  0  0  0  0  0  0  0  0  0  0
  -25.0100  -33.2630   24.7880 H   0  0  0  0  0  0  0  0  0  0  0  0
  -23.8330  -36.1170   23.3570 C   0  0  0  0  0  1  0  0  0  0  0  0
  -25.1610  -35.7250   24.0270 C   0  0  0  0  0  3  0  0  0  0  0  0
  -27.2570  -36.6910   24.8640 C   0  0  0  0  0  1  0  0  0  0  0  0
  -26.0820  -36.8820   24.0180 N   0  0  0  0  0  0  0  0  0  0  0  0
  -25.6050  -37.7250   24.3270 H   0  0  0  0  0  0  0  0  0  0  0  0
  -26.6340  -31.1060   24.5110 C   0  0  1  0  0  0  0  0  0  0  0  0
  -25.6390  -30.6230   25.5920 C   0  0  0  0  0  1  0  0  0  0  0  0
  -27.3050  -29.8540   23.9010 C   0  0  0  0  0  1  0  0  0  0  0  0
  -27.7540  -31.9060   25.2180 C   0  0  0  0  0  1  0  0  0  0  0  0
  1  2  2  0
  2  4  1  0
  3  1  1  0
  6  5  1  0
  7  8  1  0
  7 10  1  0
  8  3  1  0
  8  9  1  0
  9  5  1  0
  9  4  1  0
 10 48  1  0
 10  6  1  0
 11  1  1  0
 11 12  1  0
 12 18  1  0
 13 18  1  0
 14 15  1  0
 14 13  1  0
 16 15  1  0
 16 23  1  0
 16 17  1  0
 18 17  1  0
 19 12  2  0
 20 21  2  0
 21 40  1  0
 22 21  1  0
 22 25  1  0
 23 24  1  0
 23 20  1  0
 24 22  2  0
 25 26  1  0
 26 27  2  0
 28 31  1  0
 28 27  1  0
 29 28  2  0
 30 29  1  0
 30 25  2  0
 31 32  1  0
 32 33  1  0
 33 34  2  0
 35 34  1  0
 35 39  1  0
 36 35  2  0
 37 32  2  0
 37 36  1  0
 38 37  1  0
 40 41  1  0
 41 44  1  0
 41 43  1  0
 42 40  2  0
 45 20  1  0
 45 46  1  0
 47 45  1  0
 49 51  1  0
 49 48  1  0
 50 61  2  0
 51 56  1  0
 52 60  1  0
 52 62  1  0
 53 59  1  0
 53 55  1  0
 54 60  1  0
 55 54  1  0
 56 55  2  0
 57 58  1  0
 57 51  2  0
 58 53  2  0
 59 52  1  0
 60 50  1  0
 62 64  2  0
 63 62  1  0
 65 63  1  0
 66 75  2  0
 66 71  1  0
 67 63  1  0
 67 71  1  0
 68 67  1  0
 69 70  1  0
 69 68  1  0
 70 66  1  0
 71 72  2  0
 72 73  1  0
 74 73  2  0
 75 74  1  0
 76 50  1  0
 76 77  1  0
 76 86  1  0
 77 80  1  0
 78 77  1  0
 78 82  1  0
 79 78  2  0
 82 81  1  0
 84 82  1  0
 84 85  1  0
 84 83  1  0
 86 89  1  1
 86 87  1  0
 88 86  1  0
M  ISO  4  11 100  12 100  48 101  49 101
M  END
>  <TORSDO>  (83) 
F 17

>  <SCORE>  (83) 
-12.783

>  <name>  (83) 
82

>  <ligand_id>  (83) 
82

>  <original_smiles>  (83) 
[H]c1c([H])c([H])c2c(c1[H])C([H])([H])C([H])([H])C([H])([H])C2([H])N([H])C(=O)C1([H])N(C(=O)C([H])(N([H])C(=O)C([H])(N([H])C([H])([H])[H])C([H])([H])[H])C(C([H])([H])[H])(C([H])([H])[H])C([H])([H])[H])C([H])([H])c2c([H])c(OC([H])([H])C3([H])C([H])([H])C([H])([H])C4([H])C([H])([H])C([H])([H])C(=NC(=O)N5C([H])([H])C([H])([H])C([H])([H])C([H])(n6nc(-c7c([H])c([H])c(Oc8c([H])c([H])c(F)c([H])c8F)c([H])c7[H])c(C(=O)N([H])[H])c6N([H])[H])C5([H])[H])C([H])([H])C4([H])C3([H])[H])c([H])c([H])c2C1([H])[H]

>  <smiles>  (83) 
[H]c1c([H])c([H])c2c(c1[H])C([H])([H])C([H])([H])C([H])([H])C2([H])N([H])C(=O)C1([H])N(C(=O)C([H])(N([H])C(=O)C([H])(N([H])C([H])([H])[H])C([H])([H])[H])C(C([H])([H])[H])(C([H])([H])[H])C([H])([H])[H])C([H])([H])c2c([H])c(OC([H])([H])C3([H])C([H])([H])C([H])([H])C4([H])C([H])([H])C([H])([H])C(=NC(=O)N5C([H])([H])C([H])([H])C([H])([H])C([H])(n6nc(-c7c([H])c([H])c(Oc8c([H])c([H])c(F)c([H])c8F)c([H])c7[H])c(C(=O)N([H])[H])c6N([H])[H])C5([H])[H])C([H])([H])C4([H])C3([H])[H])c([H])c([H])c2C1([H])[H]

$$$$
83:0:0
     RDKit          3D

 89 97  0  0  1  0  0  0  0  0999 V2000
  -29.2430  -19.7810   19.9600 C   0  0  0  0  0  0  0  0  0  0  0  0
  -31.5180  -19.4860   22.2710 C   0  0  0  0  0  2  0  0  0  0  0  0
  -30.8730  -20.8750   22.3540 C   0  0  0  0  0  2  0  0  0  0  0  0
  -30.5720  -18.3620   21.8280 C   0  0  0  0  0  2  0  0  0  0  0  0
  -30.6890  -21.5530   20.9890 C   0  0  0  0  0  2  0  0  0  0  0  0
  -30.1810  -18.3250   20.3320 C   0  0  0  0  0  3  0  0  0  0  0  0
  -29.4290  -21.2300   20.3130 N   0  0  0  0  0  0  0  0  0  0  0  0
  -28.2540  -19.5330   19.2690 O   0  0  0  0  0  0  0  0  0  0  0  0
  -30.7180  -15.4030   19.9850 C   0  0  0  0  0  0  0  0  0  0  0  0
  -30.6820  -12.9340   19.1480 C   0  0  0  0  0  2  0  0  0  0  0  0
  -29.7250  -12.6690   17.9590 C   0  0  0  0  0  2  0  0  0  0  0  0
  -28.2930  -12.4030   18.4550 C   0  0  0  0  0  2  0  0  0  0  0  0
  -27.8690  -13.4000   19.5620 C   0  0  0  0  0  3  0  0  0  0  0  0
  -28.9510  -13.5930   20.6440 C   0  0  0  0  0  2  0  0  0  0  0  0
  -30.1460  -14.0970   19.9480 N   0  0  0  0  0  0  0  0  0  0  0  0
  -31.9440  -15.3850   19.8000 O   0  0  0  0  0  0  0  0  0  0  0  0
  -29.9520  -16.6820   20.0390 N   0  0  0  0  0  0  0  0  0  0  0  0
  -28.9650  -16.4820   19.9940 H   0  0  0  0  0  0  0  0  0  0  0  0
  -25.5420  -13.9810   20.4240 C   0  0  0  0  0  0  0  0  0  0  0  0
  -24.4820  -13.2140   20.8190 C   0  0  0  0  0  0  0  0  0  0  0  0
  -24.9260  -11.8580   20.7450 C   0  0  0  0  0  0  0  0  0  0  0  0
  -26.5590  -13.0940   20.1220 N   0  0  0  0  0  0  0  0  0  0  0  0
  -26.2040  -11.8090   20.3850 N   0  0  0  0  0  0  0  0  0  0  0  0
  -24.1840  -10.6040   20.9360 C   0  0  0  0  0  0  0  0  0  0  0  0
  -24.6000   -9.6340   21.8750 C   0  0  0  0  0  3  0  0  0  0  0  0
  -23.8560   -8.4480   22.0570 C   0  0  0  0  0  3  0  0  0  0  0  0
  -22.6820   -8.2230   21.2990 C   0  0  0  0  0  0  0  0  0  0  0  0
  -22.2860   -9.1820   20.3500 C   0  0  0  0  0  3  0  0  0  0  0  0
  -23.0290  -10.3590   20.1670 C   0  0  0  0  0  3  0  0  0  0  0  0
  -21.9110   -7.0890   21.3890 O   0  0  0  0  0  0  0  0  0  0  0  0
  -21.8150   -6.3760   22.5570 C   0  0  0  0  0  0  0  0  0  0  0  0
  -21.3030   -6.9500   23.7400 C   0  0  0  0  0  3  0  0  0  0  0  0
  -21.1550   -6.1620   24.9000 C   0  0  0  0  0  3  0  0  0  0  0  0
  -21.5100   -4.8000   24.8750 C   0  0  0  0  0  0  0  0  0  0  0  0
  -22.0160   -4.2250   23.6960 C   0  0  0  0  0  3  0  0  0  0  0  0
  -22.1640   -5.0110   22.5390 C   0  0  0  0  0  0  0  0  0  0  0  0
  -22.6310   -4.4460   21.3990 F   0  0  0  0  0  0  0  0  0  0  0  0
  -21.3630   -4.0400   25.9850 F   0  0  0  0  0  0  0  0  0  0  0  0
  -23.1040  -13.7090   21.1450 C   0  0  0  0  0  0  0  0  0  0  0  0
  -22.3980  -13.0160   22.0310 N   0  0  0  0  0  0  0  0  0  0  0  0
  -22.6650  -14.7460   20.6490 O   0  0  0  0  0  0  0  0  0  0  0  0
  -22.7680  -12.1780   22.4530 H   0  0  0  0  0  0  0  0  0  0  0  0
  -21.4740  -13.3310   22.2930 H   0  0  0  0  0  0  0  0  0  0  0  0
  -25.7170  -15.3530   20.2650 N   0  0  0  0  0  0  0  0  0  0  0  0
  -24.9590  -16.0100   20.4120 H   0  0  0  0  0  0  0  0  0  0  0  0
  -26.5420  -15.7850   19.8700 H   0  0  0  0  0  0  0  0  0  0  0  0
  -28.7580  -22.7000   19.8240 C   0  0  0  0  0  2  0  0  0  0  0  0
  -28.2990  -24.2590   20.6470 C   0  0  0  0  0  2  0  0  0  0  0  0
  -28.4160  -25.8930   20.3520 O   0  0  0  0  0  0  0  0  0  0  0  0
  -24.6220  -31.8220   23.2170 C   0  0  0  0  0  0  0  0  0  0  0  0
  -27.3650  -26.9570   20.3330 C   0  0  0  0  0  0  0  0  0  0  0  0
  -23.5130  -30.4010   21.5400 C   0  0  0  0  0  3  0  0  0  0  0  0
  -25.0380  -28.8070   20.1890 C   0  0  0  0  0  0  0  0  0  0  0  0
  -26.0810  -30.6500   21.4900 C   0  0  0  0  0  2  0  0  0  0  0  0
  -26.1990  -29.2350   20.8480 C   0  0  0  0  0  0  0  0  0  0  0  0
  -27.3580  -28.3340   20.8860 C   0  0  0  0  0  3  0  0  0  0  0  0
  -26.1690  -26.6790   19.6330 C   0  0  0  0  0  3  0  0  0  0  0  0
  -25.0490  -27.5500   19.5620 C   0  0  0  0  0  3  0  0  0  0  0  0
  -23.8070  -29.7130   20.1790 C   0  0  0  0  0  2  0  0  0  0  0  0
  -24.7580  -30.9850   22.1360 N   0  0  0  0  0  0  0  0  0  0  0  0
  -23.5080  -32.0960   23.6940 O   0  0  0  0  0  0  0  0  0  0  0  0
  -22.7960  -29.4000   22.4840 C   0  0  0  0  0  0  0  0  0  0  0  0
  -21.4700  -29.2320   22.3220 N   0  0  0  0  0  0  0  0  0  0  0  0
  -23.4410  -28.7740   23.3280 O   0  0  0  0  0  0  0  0  0  0  0  0
  -21.0030  -29.7880   21.6200 H   0  0  0  0  0  0  0  0  0  0  0  0
  -18.0800  -28.0060   22.7370 C   0  0  0  0  0  0  0  0  0  0  0  0
  -20.6310  -28.2860   23.0670 C   0  0  0  0  0  3  0  0  0  0  0  0
  -20.7550  -26.8580   22.4890 C   0  0  0  0  0  2  0  0  0  0  0  0
  -19.6820  -26.5340   21.4450 C   0  0  0  0  0  2  0  0  0  0  0  0
  -18.2830  -26.6630   22.0540 C   0  0  0  0  0  2  0  0  0  0  0  0
  -19.1820  -28.7750   23.1970 C   0  0  0  0  0  0  0  0  0  0  0  0
  -18.9360  -30.0290   23.7980 C   0  0  0  0  0  3  0  0  0  0  0  0
  -17.6240  -30.5160   23.9390 C   0  0  0  0  0  3  0  0  0  0  0  0
  -16.5360  -29.7450   23.4920 C   0  0  0  0  0  3  0  0  0  0  0  0
  -16.7650  -28.4920   22.8970 C   0  0  0  0  0  3  0  0  0  0  0  0
  -25.8560  -32.4870   23.8980 C   0  0  0  0  0  3  0  0  0  0  0  0
  -25.5040  -33.8830   24.2120 N   0  0  0  0  0  0  0  0  0  0  0  0
  -25.8370  -34.9460   23.4690 C   0  0  0  0  0  0  0  0  0  0  0  0
  -26.5350  -34.8580   22.4560 O   0  0  0  0  0  0  0  0  0  0  0  0
  -24.8840  -34.0240   24.9960 H   0  0  0  0  0  0  0  0  0  0  0  0
  -24.0850  -36.7150   23.0840 C   0  0  0  0  0  1  0  0  0  0  0  0
  -25.3180  -36.3280   23.9190 C   0  0  0  0  0  3  0  0  0  0  0  0
  -27.4120  -37.2610   24.7990 C   0  0  0  0  0  1  0  0  0  0  0  0
  -26.3330  -37.4010   23.8250 N   0  0  0  0  0  0  0  0  0  0  0  0
  -25.9060  -38.3140   23.9540 H   0  0  0  0  0  0  0  0  0  0  0  0
  -26.3200  -31.7370   25.2070 C   0  0  1  0  0  0  0  0  0  0  0  0
  -25.1770  -31.4880   26.2200 C   0  0  0  0  0  1  0  0  0  0  0  0
  -26.9490  -30.3680   24.8670 C   0  0  0  0  0  1  0  0  0  0  0  0
  -27.4200  -32.5600   25.9200 C   0  0  0  0  0  1  0  0  0  0  0  0
  1  7  1  0
  1  6  1  0
  2  3  1  0
  4  2  1  0
  5  3  1  0
  6 17  1  0
  6  4  1  0
  7  5  1  0
  8  1  2  0
  9 17  1  0
 10 15  1  0
 11 12  1  0
 11 10  1  0
 13 12  1  0
 13 22  1  0
 13 14  1  0
 15  9  1  0
 15 14  1  0
 16  9  2  0
 18 17  1  0
 19 20  2  0
 20 39  1  0
 21 20  1  0
 21 24  1  0
 22 23  1  0
 22 19  1  0
 23 21  2  0
 24 25  1  0
 25 26  2  0
 27 30  1  0
 27 26  1  0
 28 27  2  0
 29 28  1  0
 29 24  2  0
 30 31  1  0
 31 32  1  0
 32 33  2  0
 34 33  1  0
 34 38  1  0
 35 34  2  0
 36 31  2  0
 36 35  1  0
 37 36  1  0
 39 40  1  0
 40 43  1  0
 40 42  1  0
 41 39  2  0
 44 45  1  0
 44 19  1  0
 46 44  1  0
 47  7  1  0
 47 48  1  0
 49 48  1  0
 50 61  2  0
 51 49  1  0
 51 56  1  0
 52 60  1  0
 52 62  1  0
 53 55  1  0
 54 60  1  0
 55 56  2  0
 55 54  1  0
 57 51  2  0
 58 57  1  0
 58 53  2  0
 59 53  1  0
 59 52  1  0
 60 50  1  0
 62 64  2  0
 63 62  1  0
 65 63  1  0
 66 75  2  0
 66 71  1  0
 67 63  1  0
 67 71  1  0
 68 67  1  0
 69 70  1  0
 69 68  1  0
 70 66  1  0
 71 72  2  0
 72 73  1  0
 74 73  2  0
 75 74  1  0
 76 50  1  0
 76 77  1  0
 76 86  1  0
 77 80  1  0
 78 82  1  0
 78 77  1  0
 79 78  2  0
 82 81  1  0
 84 82  1  0
 84 85  1  0
 84 83  1  0
 86 89  1  1
 86 87  1  0
 88 86  1  0
M  ISO  4   9 100  17 100  48 101  49 101
M  END
>  <TORSDO>  (84) 
F 18

>  <SCORE>  (84) 
-16.704

>  <name>  (84) 
83

>  <ligand_id>  (84) 
83

>  <original_smiles>  (84) 
[H]c1c([H])c([H])c2c(c1[H])C([H])([H])C([H])([H])C([H])([H])C2([H])N([H])C(=O)C1([H])N(C(=O)C([H])(N([H])C(=O)C([H])(N([H])C([H])([H])[H])C([H])([H])[H])C(C([H])([H])[H])(C([H])([H])[H])C([H])([H])[H])C([H])([H])c2c([H])c(OC([H])([H])C([H])([H])N3C(=O)C([H])(N([H])C(=O)N4C([H])([H])C([H])([H])C([H])([H])C([H])(n5nc(-c6c([H])c([H])c(Oc7c([H])c([H])c(F)c([H])c7F)c([H])c6[H])c(C(=O)N([H])[H])c5N([H])[H])C4([H])[H])C([H])([H])C([H])([H])C([H])([H])C3([H])[H])c([H])c([H])c2C1([H])[H]

>  <smiles>  (84) 
[H]c1c([H])c([H])c2c(c1[H])C([H])([H])C([H])([H])C([H])([H])C2([H])N([H])C(=O)C1([H])N(C(=O)C([H])(N([H])C(=O)C([H])(N([H])C([H])([H])[H])C([H])([H])[H])C(C([H])([H])[H])(C([H])([H])[H])C([H])([H])[H])C([H])([H])c2c([H])c(OC([H])([H])C([H])([H])N3C(=O)C([H])(N([H])C(=O)N4C([H])([H])C([H])([H])C([H])([H])C([H])(n5nc(-c6c([H])c([H])c(Oc7c([H])c([H])c(F)c([H])c7F)c([H])c6[H])c(C(=O)N([H])[H])c5N([H])[H])C4([H])[H])C([H])([H])C([H])([H])C([H])([H])C3([H])[H])c([H])c([H])c2C1([H])[H]

$$$$
84:0:0
     RDKit          3D

 94102  0  0  1  0  0  0  0  0999 V2000
  -27.7740  -21.0860   18.4230 C   0  0  0  0  0  2  0  0  0  0  0  0
  -28.0180  -21.0080   20.9570 C   0  0  0  0  0  2  0  0  0  0  0  0
  -28.9180  -22.1150   18.5120 C   0  0  0  0  0  2  0  0  0  0  0  0
  -27.8500  -22.5220   20.7400 C   0  0  0  0  0  2  0  0  0  0  0  0
  -27.7060  -20.1900   19.6780 C   0  0  0  0  0  3  0  0  0  0  0  0
  -28.7610  -23.0390   19.6740 N   0  0  2  0  0  4  0  0  0  0  0  0
  -29.6840  -23.0620   20.0890 H   0  0  0  0  0  0  0  0  0  0  0  0
  -28.6620  -18.9950   19.5010 C   0  0  0  0  0  2  0  0  0  0  0  0
  -28.5180  -17.9560   20.5370 N   0  0  0  0  0  4  0  0  0  0  0  0
  -28.4740  -18.3770   21.4500 H   0  0  0  0  0  0  0  0  0  0  0  0
  -27.6580  -17.4530   20.3840 H   0  0  0  0  0  0  0  0  0  0  0  0
  -29.6530  -17.0170   20.5090 C   0  0  0  0  0  2  0  0  0  0  0  0
  -29.4710  -15.8490   21.4930 C   0  0  0  0  0  2  0  0  0  0  0  0
  -30.8650  -14.2430   20.2700 C   0  0  0  0  0  0  0  0  0  0  0  0
  -30.3940  -12.2740   18.8670 C   0  0  0  0  0  2  0  0  0  0  0  0
  -29.3720  -12.5950   17.7590 C   0  0  0  0  0  2  0  0  0  0  0  0
  -27.9250  -12.4610   18.2690 C   0  0  0  0  0  2  0  0  0  0  0  0
  -27.7010  -13.2100   19.6050 C   0  0  0  0  0  3  0  0  0  0  0  0
  -28.8070  -12.8140   20.6130 C   0  0  0  0  0  2  0  0  0  0  0  0
  -30.1120  -13.1460   20.0120 N   0  0  0  0  0  0  0  0  0  0  0  0
  -31.8400  -14.5840   19.5950 O   0  0  0  0  0  0  0  0  0  0  0  0
  -30.5760  -14.8910   21.4020 N   0  0  0  0  0  0  0  0  0  0  0  0
  -31.4100  -15.2550   21.8370 H   0  0  0  0  0  0  0  0  0  0  0  0
  -25.3450  -13.8590   20.4180 C   0  0  0  0  0  0  0  0  0  0  0  0
  -24.2850  -13.0950   20.8390 C   0  0  0  0  0  0  0  0  0  0  0  0
  -24.7270  -11.7380   20.7730 C   0  0  0  0  0  0  0  0  0  0  0  0
  -26.3640  -12.9620   20.1370 N   0  0  0  0  0  0  0  0  0  0  0  0
  -25.9970  -11.6830   20.4010 N   0  0  0  0  0  0  0  0  0  0  0  0
  -23.9970  -10.4810   20.9820 C   0  0  0  0  0  0  0  0  0  0  0  0
  -24.4580   -9.5070   21.8960 C   0  0  0  0  0  3  0  0  0  0  0  0
  -23.7330   -8.3120   22.0940 C   0  0  0  0  0  3  0  0  0  0  0  0
  -22.5350   -8.0810   21.3760 C   0  0  0  0  0  0  0  0  0  0  0  0
  -22.0950   -9.0440   20.4490 C   0  0  0  0  0  3  0  0  0  0  0  0
  -22.8190  -10.2310   20.2490 C   0  0  0  0  0  3  0  0  0  0  0  0
  -21.7760   -6.9410   21.4860 O   0  0  0  0  0  0  0  0  0  0  0  0
  -21.7420   -6.2100   22.6470 C   0  0  0  0  0  0  0  0  0  0  0  0
  -21.3530   -6.7830   23.8790 C   0  0  0  0  0  3  0  0  0  0  0  0
  -21.2650   -5.9770   25.0330 C   0  0  0  0  0  3  0  0  0  0  0  0
  -21.5550   -4.6010   24.9550 C   0  0  0  0  0  0  0  0  0  0  0  0
  -21.9360   -4.0290   23.7290 C   0  0  0  0  0  3  0  0  0  0  0  0
  -22.0260   -4.8320   22.5780 C   0  0  0  0  0  0  0  0  0  0  0  0
  -22.3720   -4.2710   21.3940 F   0  0  0  0  0  0  0  0  0  0  0  0
  -21.4650   -3.8260   26.0610 F   0  0  0  0  0  0  0  0  0  0  0  0
  -22.9080  -13.5830   21.1790 C   0  0  0  0  0  0  0  0  0  0  0  0
  -22.2130  -12.8910   22.0760 N   0  0  0  0  0  0  0  0  0  0  0  0
  -22.4520  -14.6110   20.6810 O   0  0  0  0  0  0  0  0  0  0  0  0
  -22.5940  -12.0580   22.5000 H   0  0  0  0  0  0  0  0  0  0  0  0
  -21.2900  -13.2030   22.3450 H   0  0  0  0  0  0  0  0  0  0  0  0
  -25.5220  -15.2270   20.2310 N   0  0  0  0  0  0  0  0  0  0  0  0
  -24.7160  -15.8390   20.2990 H   0  0  0  0  0  0  0  0  0  0  0  0
  -26.1750  -15.5350   19.5250 H   0  0  0  0  0  0  0  0  0  0  0  0
  -28.4670  -24.4430   19.2640 C   0  0  0  0  0  2  0  0  0  0  0  0
  -28.4320  -25.4260   20.4530 C   0  0  0  0  0  2  0  0  0  0  0  0
  -28.4570  -26.7920   20.0450 O   0  0  0  0  0  0  0  0  0  0  0  0
  -24.6130  -31.8680   23.2100 C   0  0  0  0  0  0  0  0  0  0  0  0
  -27.2620  -27.4690   20.0890 C   0  0  0  0  0  0  0  0  0  0  0  0
  -23.4030  -30.4700   21.5670 C   0  0  0  0  0  3  0  0  0  0  0  0
  -24.8530  -28.9400   20.1400 C   0  0  0  0  0  0  0  0  0  0  0  0
  -25.9280  -30.8430   21.3580 C   0  0  0  0  0  2  0  0  0  0  0  0
  -26.0140  -29.4790   20.7090 C   0  0  0  0  0  0  0  0  0  0  0  0
  -27.2240  -28.7540   20.6700 C   0  0  0  0  0  3  0  0  0  0  0  0
  -26.0790  -26.9300   19.5320 C   0  0  0  0  0  3  0  0  0  0  0  0
  -24.8790  -27.6630   19.5540 C   0  0  0  0  0  3  0  0  0  0  0  0
  -23.6080  -29.7920   20.1880 C   0  0  0  0  0  2  0  0  0  0  0  0
  -24.6670  -31.0760   22.1020 N   0  0  0  0  0  0  0  0  0  0  0  0
  -23.5330  -32.1320   23.7570 O   0  0  0  0  0  0  0  0  0  0  0  0
  -22.7610  -29.4420   22.5280 C   0  0  0  0  0  0  0  0  0  0  0  0
  -21.4360  -29.2600   22.4110 N   0  0  0  0  0  0  0  0  0  0  0  0
  -23.4530  -28.8100   23.3310 O   0  0  0  0  0  0  0  0  0  0  0  0
  -20.9450  -29.8010   21.7120 H   0  0  0  0  0  0  0  0  0  0  0  0
  -18.0650  -28.0830   22.9490 C   0  0  0  0  0  0  0  0  0  0  0  0
  -20.6260  -28.3290   23.1960 C   0  0  0  0  0  3  0  0  0  0  0  0
  -20.7070  -26.8980   22.6230 C   0  0  0  0  0  2  0  0  0  0  0  0
  -19.6100  -26.6170   21.5900 C   0  0  0  0  0  2  0  0  0  0  0  0
  -18.2390  -26.7390   22.2600 C   0  0  0  0  0  2  0  0  0  0  0  0
  -19.1900  -28.8360   23.3730 C   0  0  0  0  0  0  0  0  0  0  0  0
  -18.9870  -30.0980   23.9700 C   0  0  0  0  0  3  0  0  0  0  0  0
  -17.6870  -30.6070   24.1480 C   0  0  0  0  0  3  0  0  0  0  0  0
  -16.5740  -29.8480   23.7470 C   0  0  0  0  0  3  0  0  0  0  0  0
  -16.7630  -28.5860   23.1540 C   0  0  0  0  0  3  0  0  0  0  0  0
  -25.9000  -32.5000   23.8270 C   0  0  0  0  0  3  0  0  0  0  0  0
  -25.5810  -33.8910   24.1760 N   0  0  0  0  0  0  0  0  0  0  0  0
  -25.8950  -34.9530   23.4220 C   0  0  0  0  0  0  0  0  0  0  0  0
  -26.5530  -34.8660   22.3820 O   0  0  0  0  0  0  0  0  0  0  0  0
  -24.9910  -34.0340   24.9810 H   0  0  0  0  0  0  0  0  0  0  0  0
  -24.1390  -36.7260   23.1130 C   0  0  0  0  0  1  0  0  0  0  0  0
  -25.4010  -36.3320   23.8970 C   0  0  0  0  0  3  0  0  0  0  0  0
  -27.5410  -37.2330   24.6930 C   0  0  0  0  0  1  0  0  0  0  0  0
  -26.4190  -37.3970   23.7730 N   0  0  0  0  0  0  0  0  0  0  0  0
  -26.0060  -38.3130   23.9350 H   0  0  0  0  0  0  0  0  0  0  0  0
  -26.4390  -31.7160   25.0850 C   0  0  1  0  0  0  0  0  0  0  0  0
  -25.3660  -31.4510   26.1660 C   0  0  0  0  0  1  0  0  0  0  0  0
  -27.0260  -30.3490   24.6650 C   0  0  0  0  0  1  0  0  0  0  0  0
  -27.5920  -32.5110   25.7440 C   0  0  0  0  0  1  0  0  0  0  0  0
  1  3  1  0
  1  5  1  0
  3  6  1  0
  4  2  1  0
  5  8  1  0
  5  2  1  0
  6  7  1  1
  6  4  1  0
  8  9  1  0
  9 10  1  0
 11  9  1  0
 12  9  1  0
 12 13  1  0
 14 22  1  0
 15 20  1  0
 16 17  1  0
 16 15  1  0
 18 17  1  0
 18 27  1  0
 18 19  1  0
 20 14  1  0
 20 19  1  0
 21 14  2  0
 22 13  1  0
 22 23  1  0
 24 25  2  0
 25 44  1  0
 26 25  1  0
 26 29  1  0
 27 28  1  0
 27 24  1  0
 28 26  2  0
 29 30  1  0
 30 31  2  0
 32 35  1  0
 32 31  1  0
 33 32  2  0
 34 33  1  0
 34 29  2  0
 35 36  1  0
 36 37  1  0
 37 38  2  0
 39 38  1  0
 39 43  1  0
 40 39  2  0
 41 36  2  0
 41 40  1  0
 42 41  1  0
 44 45  1  0
 45 48  1  0
 45 47  1  0
 46 44  2  0
 49 50  1  0
 49 24  1  0
 51 49  1  0
 52  6  1  0
 52 53  1  0
 54 56  1  0
 54 53  1  0
 55 66  2  0
 56 61  1  0
 57 65  1  0
 57 67  1  0
 58 64  1  0
 58 60  1  0
 59 65  1  0
 60 59  1  0
 61 60  2  0
 62 63  1  0
 62 56  2  0
 63 58  2  0
 64 57  1  0
 65 55  1  0
 67 69  2  0
 68 67  1  0
 70 68  1  0
 71 80  2  0
 71 76  1  0
 72 68  1  0
 72 76  1  0
 73 72  1  0
 74 75  1  0
 74 73  1  0
 75 71  1  0
 76 77  2  0
 77 78  1  0
 79 78  2  0
 80 79  1  0
 81 55  1  0
 81 82  1  0
 81 91  1  0
 82 85  1  0
 83 87  1  0
 83 82  1  0
 84 83  2  0
 87 86  1  0
 89 87  1  0
 89 90  1  0
 89 88  1  0
 91 94  1  1
 91 92  1  0
 93 91  1  0
M  ISO  4  14 100  22 100  53 101  54 101
M  END
>  <TORSDO>  (85) 
F 22

>  <SCORE>  (85) 
-12.848

>  <name>  (85) 
84

>  <ligand_id>  (85) 
84

>  <original_smiles>  (85) 
[H]c1c([H])c([H])c2c(c1[H])C([H])([H])C([H])([H])C([H])([H])C2([H])N([H])C(=O)C1([H])N(C(=O)C([H])(N([H])C(=O)C([H])(N([H])C([H])([H])[H])C([H])([H])[H])C(C([H])([H])[H])(C([H])([H])[H])C([H])([H])[H])C([H])([H])c2c([H])c(OC([H])([H])C([H])([H])[N+]3([H])C([H])([H])C([H])([H])C([H])(C([H])([H])[N+]([H])([H])C([H])([H])C([H])([H])N([H])C(=O)N4C([H])([H])C([H])([H])C([H])([H])C([H])(n5nc(-c6c([H])c([H])c(Oc7c([H])c([H])c(F)c([H])c7F)c([H])c6[H])c(C(=O)N([H])[H])c5N([H])[H])C4([H])[H])C([H])([H])C3([H])[H])c([H])c([H])c2C1([H])[H]

>  <smiles>  (85) 
[H]c1c([H])c([H])c2c(c1[H])C([H])([H])C([H])([H])C([H])([H])C2([H])N([H])C(=O)C1([H])N(C(=O)C([H])(N([H])C(=O)C([H])(N([H])C([H])([H])[H])C([H])([H])[H])C(C([H])([H])[H])(C([H])([H])[H])C([H])([H])[H])C([H])([H])c2c([H])c(OC([H])([H])C([H])([H])[N+]3([H])C([H])([H])C([H])([H])C([H])(C([H])([H])[N+]([H])([H])C([H])([H])C([H])([H])N([H])C(=O)N4C([H])([H])C([H])([H])C([H])([H])C([H])(n5nc(-c6c([H])c([H])c(Oc7c([H])c([H])c(F)c([H])c7F)c([H])c6[H])c(C(=O)N([H])[H])c5N([H])[H])C4([H])[H])C([H])([H])C3([H])[H])c([H])c([H])c2C1([H])[H]

$$$$
85:0:0
     RDKit          3D

 91100  0  0  1  0  0  0  0  0999 V2000
  -29.5970  -24.2000   19.7490 C   0  0  0  0  0  2  0  0  0  0  0  0
  -27.4840  -24.0600   20.9170 C   0  0  0  0  0  2  0  0  0  0  0  0
  -29.5000  -22.6650   19.3500 C   0  0  0  0  0  2  0  0  0  0  0  0
  -27.3750  -22.5320   20.5230 C   0  0  0  0  0  2  0  0  0  0  0  0
  -28.2330  -24.9480   19.8830 C   0  0  0  0  0  3  0  0  0  0  0  0
  -28.6660  -21.7960   20.2540 N   0  0  1  0  0  4  0  0  0  0  0  0
  -29.1450  -21.7170   21.1400 H   0  0  0  0  0  0  0  0  0  0  0  0
  -28.3340  -26.4100   20.2150 O   0  0  0  0  0  0  0  0  0  0  0  0
  -24.6310  -31.8530   23.2380 C   0  0  0  0  0  0  0  0  0  0  0  0
  -27.2140  -27.2680   20.1650 C   0  0  0  0  0  0  0  0  0  0  0  0
  -23.4210  -30.4640   21.5970 C   0  0  0  0  0  3  0  0  0  0  0  0
  -24.8600  -28.9120   20.1620 C   0  0  0  0  0  0  0  0  0  0  0  0
  -25.9630  -30.7680   21.4110 C   0  0  0  0  0  2  0  0  0  0  0  0
  -26.0340  -29.3890   20.7580 C   0  0  0  0  0  0  0  0  0  0  0  0
  -27.2140  -28.5800   20.7460 C   0  0  0  0  0  3  0  0  0  0  0  0
  -26.0120  -26.8510   19.5490 C   0  0  0  0  0  3  0  0  0  0  0  0
  -24.8530  -27.6520   19.5480 C   0  0  0  0  0  3  0  0  0  0  0  0
  -23.6290  -29.7950   20.2140 C   0  0  0  0  0  2  0  0  0  0  0  0
  -24.6910  -31.0470   22.1380 N   0  0  0  0  0  0  0  0  0  0  0  0
  -23.5490  -32.1330   23.7750 O   0  0  0  0  0  0  0  0  0  0  0  0
  -22.7550  -29.4470   22.5550 C   0  0  0  0  0  0  0  0  0  0  0  0
  -21.4270  -29.2770   22.4320 N   0  0  0  0  0  0  0  0  0  0  0  0
  -23.4330  -28.8140   23.3680 O   0  0  0  0  0  0  0  0  0  0  0  0
  -20.9390  -29.8400   21.7500 H   0  0  0  0  0  0  0  0  0  0  0  0
  -18.0450  -28.0990   22.9420 C   0  0  0  0  0  0  0  0  0  0  0  0
  -20.6060  -28.3410   23.2020 C   0  0  0  0  0  3  0  0  0  0  0  0
  -20.6970  -26.9120   22.6190 C   0  0  0  0  0  2  0  0  0  0  0  0
  -19.5880  -26.6000   21.6080 C   0  0  0  0  0  2  0  0  0  0  0  0
  -18.2100  -26.7510   22.2580 C   0  0  0  0  0  2  0  0  0  0  0  0
  -19.1700  -28.8520   23.3700 C   0  0  0  0  0  0  0  0  0  0  0  0
  -18.9610  -30.1130   23.9700 C   0  0  0  0  0  3  0  0  0  0  0  0
  -17.6600  -30.6210   24.1440 C   0  0  0  0  0  3  0  0  0  0  0  0
  -16.5490  -29.8650   23.7320 C   0  0  0  0  0  3  0  0  0  0  0  0
  -16.7420  -28.6050   23.1360 C   0  0  0  0  0  3  0  0  0  0  0  0
  -25.9150  -32.4810   23.8610 C   0  0  0  0  0  3  0  0  0  0  0  0
  -25.6130  -33.8820   24.1880 N   0  0  0  0  0  0  0  0  0  0  0  0
  -25.9350  -34.9310   23.4200 C   0  0  0  0  0  0  0  0  0  0  0  0
  -26.5890  -34.8210   22.3790 O   0  0  0  0  0  0  0  0  0  0  0  0
  -25.0310  -34.0410   24.9980 H   0  0  0  0  0  0  0  0  0  0  0  0
  -24.1950  -36.7190   23.0980 C   0  0  0  0  0  1  0  0  0  0  0  0
  -25.4580  -36.3230   23.8800 C   0  0  0  0  0  3  0  0  0  0  0  0
  -27.6120  -37.2190   24.6470 C   0  0  0  0  0  1  0  0  0  0  0  0
  -26.4850  -37.3760   23.7300 N   0  0  0  0  0  0  0  0  0  0  0  0
  -26.0820  -38.2970   23.8780 H   0  0  0  0  0  0  0  0  0  0  0  0
  -26.4260  -31.7100   25.1410 C   0  0  1  0  0  0  0  0  0  0  0  0
  -25.3290  -31.4830   26.2080 C   0  0  0  0  0  1  0  0  0  0  0  0
  -27.0010  -30.3280   24.7560 C   0  0  0  0  0  1  0  0  0  0  0  0
  -27.5800  -32.5000   25.8030 C   0  0  0  0  0  1  0  0  0  0  0  0
  -28.4070  -20.3580   19.7500 C   0  0  0  0  0  2  0  0  0  0  0  0
  -30.7250  -14.7140   20.0430 C   0  0  0  0  0  0  0  0  0  0  0  0
  -30.4250  -12.4410   19.0670 C   0  0  0  0  0  2  0  0  0  0  0  0
  -29.4460  -12.5070   17.8780 C   0  0  0  0  0  2  0  0  0  0  0  0
  -27.9950  -12.3480   18.3720 C   0  0  0  0  0  2  0  0  0  0  0  0
  -27.6720  -13.2540   19.5910 C   0  0  0  0  0  3  0  0  0  0  0  0
  -28.7750  -13.1980   20.6680 C   0  0  0  0  0  2  0  0  0  0  0  0
  -30.0400  -13.5220   20.0030 N   0  0  0  0  0  0  0  0  0  0  0  0
  -31.9170  -14.7240   19.7170 O   0  0  0  0  0  0  0  0  0  0  0  0
  -29.5080  -18.1660   18.7640 C   0  0  0  0  0  2  0  0  0  0  0  0
  -28.9770  -18.0780   21.1130 C   0  0  0  0  0  2  0  0  0  0  0  0
  -30.3990  -16.8830   18.9380 C   0  0  0  0  0  2  0  0  0  0  0  0
  -29.8220  -16.7350   21.2490 C   0  0  0  0  0  2  0  0  0  0  0  0
  -29.4090  -19.1040   20.0040 C   0  0  0  0  0  3  0  0  0  0  0  0
  -30.0190  -15.9200   20.0150 N   0  0  0  0  0  0  0  0  0  0  0  0
  -25.3290  -13.8490   20.4430 C   0  0  0  0  0  0  0  0  0  0  0  0
  -24.2740  -13.0760   20.8460 C   0  0  0  0  0  0  0  0  0  0  0  0
  -24.7240  -11.7220   20.7710 C   0  0  0  0  0  0  0  0  0  0  0  0
  -26.3520  -12.9660   20.1430 N   0  0  0  0  0  0  0  0  0  0  0  0
  -25.9990  -11.6810   20.4040 N   0  0  0  0  0  0  0  0  0  0  0  0
  -23.9950  -10.4620   20.9710 C   0  0  0  0  0  0  0  0  0  0  0  0
  -24.4370   -9.4910   21.8960 C   0  0  0  0  0  3  0  0  0  0  0  0
  -23.7080   -8.2980   22.0850 C   0  0  0  0  0  3  0  0  0  0  0  0
  -22.5220   -8.0660   21.3480 C   0  0  0  0  0  0  0  0  0  0  0  0
  -22.0990   -9.0260   20.4120 C   0  0  0  0  0  3  0  0  0  0  0  0
  -22.8290  -10.2110   20.2210 C   0  0  0  0  0  3  0  0  0  0  0  0
  -21.7630   -6.9250   21.4460 O   0  0  0  0  0  0  0  0  0  0  0  0
  -21.6970   -6.2030   22.6110 C   0  0  0  0  0  0  0  0  0  0  0  0
  -21.2590   -6.7820   23.8220 C   0  0  0  0  0  3  0  0  0  0  0  0
  -21.1390   -5.9860   24.9790 C   0  0  0  0  0  3  0  0  0  0  0  0
  -21.4460   -4.6140   24.9260 C   0  0  0  0  0  0  0  0  0  0  0  0
  -21.8770   -4.0350   23.7190 C   0  0  0  0  0  3  0  0  0  0  0  0
  -21.9980   -4.8280   22.5650 C   0  0  0  0  0  0  0  0  0  0  0  0
  -22.3940   -4.2600   21.4000 F   0  0  0  0  0  0  0  0  0  0  0  0
  -21.3240   -3.8480   26.0360 F   0  0  0  0  0  0  0  0  0  0  0  0
  -22.8950  -13.5600   21.1860 C   0  0  0  0  0  0  0  0  0  0  0  0
  -22.2020  -12.8580   22.0750 N   0  0  0  0  0  0  0  0  0  0  0  0
  -22.4420  -14.5950   20.6990 O   0  0  0  0  0  0  0  0  0  0  0  0
  -22.5820  -12.0200   22.4910 H   0  0  0  0  0  0  0  0  0  0  0  0
  -21.2780  -13.1640   22.3460 H   0  0  0  0  0  0  0  0  0  0  0  0
  -25.5000  -15.2210   20.2840 N   0  0  0  0  0  0  0  0  0  0  0  0
  -24.7510  -15.8840   20.4480 H   0  0  0  0  0  0  0  0  0  0  0  0
  -26.3510  -15.6560   19.9490 H   0  0  0  0  0  0  0  0  0  0  0  0
  1  5  1  0
  3  1  1  0
  3  6  1  0
  4  2  1  0
  5  8  1  0
  5  2  1  0
  6  4  1  0
  6  7  1  1
  9 20  2  0
 10  8  1  0
 10 15  1  0
 11 19  1  0
 11 21  1  0
 12 18  1  0
 12 14  1  0
 13 19  1  0
 14 13  1  0
 15 14  2  0
 16 10  2  0
 17 16  1  0
 17 12  2  0
 18 11  1  0
 19  9  1  0
 21 23  2  0
 22 21  1  0
 24 22  1  0
 25 34  2  0
 25 30  1  0
 26 22  1  0
 26 30  1  0
 27 26  1  0
 28 29  1  0
 28 27  1  0
 29 25  1  0
 30 31  2  0
 31 32  1  0
 33 32  2  0
 34 33  1  0
 35  9  1  0
 35 36  1  0
 35 45  1  0
 36 39  1  0
 37 41  1  0
 37 36  1  0
 38 37  2  0
 41 40  1  0
 43 44  1  0
 43 41  1  0
 43 42  1  0
 45 48  1  1
 45 46  1  0
 47 45  1  0
 49  6  1  0
 51 56  1  0
 52 53  1  0
 52 51  1  0
 54 53  1  0
 54 67  1  0
 54 55  1  0
 56 50  1  0
 56 55  1  0
 57 50  2  0
 58 60  1  0
 58 62  1  0
 59 61  1  0
 60 63  1  0
 62 49  1  0
 62 59  1  0
 63 50  1  0
 63 61  1  0
 64 65  2  0
 65 84  1  0
 66 65  1  0
 66 69  1  0
 67 68  1  0
 67 64  1  0
 68 66  2  0
 69 70  1  0
 70 71  2  0
 72 75  1  0
 72 71  1  0
 73 72  2  0
 74 73  1  0
 74 69  2  0
 75 76  1  0
 76 77  1  0
 77 78  2  0
 79 78  1  0
 79 83  1  0
 80 79  2  0
 81 76  2  0
 81 80  1  0
 82 81  1  0
 84 85  1  0
 85 88  1  0
 85 87  1  0
 86 84  2  0
 89 64  1  0
 89 90  1  0
 91 89  1  0
M  ISO  4   5 101   8 101  50 100  63 100
M  END
>  <TORSDO>  (86) 
F 17

>  <SCORE>  (86) 
-14.856

>  <name>  (86) 
85

>  <ligand_id>  (86) 
85

>  <original_smiles>  (86) 
[H]c1c([H])c([H])c2c(c1[H])C([H])([H])C([H])([H])C([H])([H])C2([H])N([H])C(=O)C1([H])N(C(=O)C([H])(N([H])C(=O)C([H])(N([H])C([H])([H])[H])C([H])([H])[H])C(C([H])([H])[H])(C([H])([H])[H])C([H])([H])[H])C([H])([H])c2c([H])c(OC3([H])C([H])([H])C([H])([H])[N+]([H])(C([H])([H])C4([H])C([H])([H])C([H])([H])N(C(=O)N5C([H])([H])C([H])([H])C([H])([H])C([H])(n6nc(-c7c([H])c([H])c(Oc8c([H])c([H])c(F)c([H])c8F)c([H])c7[H])c(C(=O)N([H])[H])c6N([H])[H])C5([H])[H])C([H])([H])C4([H])[H])C([H])([H])C3([H])[H])c([H])c([H])c2C1([H])[H]

>  <smiles>  (86) 
[H]c1c([H])c([H])c2c(c1[H])C([H])([H])C([H])([H])C([H])([H])C2([H])N([H])C(=O)C1([H])N(C(=O)C([H])(N([H])C(=O)C([H])(N([H])C([H])([H])[H])C([H])([H])[H])C(C([H])([H])[H])(C([H])([H])[H])C([H])([H])[H])C([H])([H])c2c([H])c(OC3([H])C([H])([H])C([H])([H])[N+]([H])(C([H])([H])C4([H])C([H])([H])C([H])([H])N(C(=O)N5C([H])([H])C([H])([H])C([H])([H])C([H])(n6nc(-c7c([H])c([H])c(Oc8c([H])c([H])c(F)c([H])c8F)c([H])c7[H])c(C(=O)N([H])[H])c6N([H])[H])C5([H])[H])C([H])([H])C4([H])[H])C([H])([H])C3([H])[H])c([H])c([H])c2C1([H])[H]

$$$$
86:0:0
     RDKit          3D

 90 98  0  0  1  0  0  0  0  0999 V2000
  -28.0080  -22.7050   19.4330 C   0  0  0  0  0  2  0  0  0  0  0  0
  -30.0050  -23.5320   20.6220 C   0  0  0  0  0  2  0  0  0  0  0  0
  -28.1660  -21.3080   20.1400 C   0  0  0  0  0  2  0  0  0  0  0  0
  -30.1230  -22.1340   21.3090 C   0  0  0  0  0  2  0  0  0  0  0  0
  -28.5590  -23.9310   20.2290 C   0  0  0  0  0  3  0  0  0  0  0  0
  -29.5800  -20.9930   20.5010 N   0  0  1  0  0  4  0  0  0  0  0  0
  -30.1090  -20.9690   19.6420 H   0  0  0  0  0  0  0  0  0  0  0  0
  -28.4830  -25.3040   19.4300 C   0  0  0  0  0  2  0  0  0  0  0  0
  -28.3640  -26.5730   20.1660 O   0  0  0  0  0  0  0  0  0  0  0  0
  -24.5990  -31.8750   23.2360 C   0  0  0  0  0  0  0  0  0  0  0  0
  -27.2010  -27.3510   20.1370 C   0  0  0  0  0  0  0  0  0  0  0  0
  -23.3840  -30.4830   21.5990 C   0  0  0  0  0  3  0  0  0  0  0  0
  -24.8230  -28.9380   20.1620 C   0  0  0  0  0  0  0  0  0  0  0  0
  -25.9200  -30.8100   21.3950 C   0  0  0  0  0  2  0  0  0  0  0  0
  -25.9930  -29.4340   20.7480 C   0  0  0  0  0  0  0  0  0  0  0  0
  -27.1830  -28.6510   20.7290 C   0  0  0  0  0  3  0  0  0  0  0  0
  -25.9950  -26.8890   19.5600 C   0  0  0  0  0  3  0  0  0  0  0  0
  -24.8230  -27.6690   19.5640 C   0  0  0  0  0  3  0  0  0  0  0  0
  -23.5870  -29.8110   20.2150 C   0  0  0  0  0  2  0  0  0  0  0  0
  -24.6540  -31.0730   22.1340 N   0  0  0  0  0  0  0  0  0  0  0  0
  -23.5200  -32.1520   23.7780 O   0  0  0  0  0  0  0  0  0  0  0  0
  -22.7300  -29.4630   22.5600 C   0  0  0  0  0  0  0  0  0  0  0  0
  -21.4040  -29.2830   22.4390 N   0  0  0  0  0  0  0  0  0  0  0  0
  -23.4140  -28.8360   23.3740 O   0  0  0  0  0  0  0  0  0  0  0  0
  -20.9110  -29.8450   21.7590 H   0  0  0  0  0  0  0  0  0  0  0  0
  -18.0300  -28.0820   22.9400 C   0  0  0  0  0  0  0  0  0  0  0  0
  -20.5880  -28.3440   23.2110 C   0  0  0  0  0  3  0  0  0  0  0  0
  -20.6920  -26.9130   22.6360 C   0  0  0  0  0  2  0  0  0  0  0  0
  -19.5910  -26.5860   21.6230 C   0  0  0  0  0  2  0  0  0  0  0  0
  -18.2090  -26.7320   22.2660 C   0  0  0  0  0  2  0  0  0  0  0  0
  -19.1470  -28.8450   23.3690 C   0  0  0  0  0  0  0  0  0  0  0  0
  -18.9270  -30.1100   23.9590 C   0  0  0  0  0  3  0  0  0  0  0  0
  -17.6220  -30.6090   24.1220 C   0  0  0  0  0  3  0  0  0  0  0  0
  -16.5180  -29.8420   23.7090 C   0  0  0  0  0  3  0  0  0  0  0  0
  -16.7240  -28.5800   23.1240 C   0  0  0  0  0  3  0  0  0  0  0  0
  -25.8880  -32.5050   23.8530 C   0  0  0  0  0  3  0  0  0  0  0  0
  -26.4090  -31.7310   25.1270 C   0  0  1  0  0  0  0  0  0  0  0  0
  -25.3220  -31.4940   26.2010 C   0  0  0  0  0  1  0  0  0  0  0  0
  -26.9870  -30.3530   24.7260 C   0  0  0  0  0  1  0  0  0  0  0  0
  -27.5640  -32.5220   25.7850 C   0  0  0  0  0  1  0  0  0  0  0  0
  -25.5830  -33.9030   24.1880 N   0  0  0  0  0  0  0  0  0  0  0  0
  -25.9110  -34.9560   23.4280 C   0  0  0  0  0  0  0  0  0  0  0  0
  -26.5740  -34.8540   22.3920 O   0  0  0  0  0  0  0  0  0  0  0  0
  -24.9970  -34.0600   24.9960 H   0  0  0  0  0  0  0  0  0  0  0  0
  -24.1820  -36.7500   23.0890 C   0  0  0  0  0  1  0  0  0  0  0  0
  -25.4270  -36.3430   23.8920 C   0  0  0  0  0  3  0  0  0  0  0  0
  -27.5670  -37.2230   24.7120 C   0  0  0  0  0  1  0  0  0  0  0  0
  -26.4590  -37.3960   23.7750 N   0  0  0  0  0  0  0  0  0  0  0  0
  -26.0540  -38.3160   23.9280 H   0  0  0  0  0  0  0  0  0  0  0  0
  -29.8240  -19.6570   21.1900 C   0  0  0  0  0  2  0  0  0  0  0  0
  -29.6160  -18.2910   20.4120 C   0  0  0  0  0  2  0  0  0  0  0  0
  -30.3180  -17.0500   21.1120 C   0  0  0  0  0  2  0  0  0  0  0  0
  -30.6640  -14.6040   20.3370 C   0  0  0  0  0  0  0  0  0  0  0  0
  -30.4170  -12.3940   19.2320 C   0  0  0  0  0  2  0  0  0  0  0  0
  -29.4670  -12.5390   18.0230 C   0  0  0  0  0  2  0  0  0  0  0  0
  -27.9940  -12.3970   18.4590 C   0  0  0  0  0  2  0  0  0  0  0  0
  -27.6520  -13.2660   19.7000 C   0  0  0  0  0  3  0  0  0  0  0  0
  -28.7080  -13.0790   20.8090 C   0  0  0  0  0  2  0  0  0  0  0  0
  -30.0180  -13.4050   20.2270 N   0  0  0  0  0  0  0  0  0  0  0  0
  -31.8290  -14.7540   19.9610 O   0  0  0  0  0  0  0  0  0  0  0  0
  -29.8990  -15.6620   20.7340 N   0  0  0  0  0  0  0  0  0  0  0  0
  -28.9420  -15.4230   20.9440 H   0  0  0  0  0  0  0  0  0  0  0  0
  -25.2650  -13.8990   20.4100 C   0  0  0  0  0  0  0  0  0  0  0  0
  -24.1910  -13.1410   20.7900 C   0  0  0  0  0  0  0  0  0  0  0  0
  -24.6400  -11.7850   20.7730 C   0  0  0  0  0  0  0  0  0  0  0  0
  -26.3010  -13.0060   20.1870 N   0  0  0  0  0  0  0  0  0  0  0  0
  -25.9300  -11.7300   20.4650 N   0  0  0  0  0  0  0  0  0  0  0  0
  -23.9030  -10.5320   20.9760 C   0  0  0  0  0  0  0  0  0  0  0  0
  -24.3320   -9.5670   21.9140 C   0  0  0  0  0  3  0  0  0  0  0  0
  -23.5960   -8.3770   22.1050 C   0  0  0  0  0  3  0  0  0  0  0  0
  -22.4180   -8.1440   21.3570 C   0  0  0  0  0  0  0  0  0  0  0  0
  -22.0090   -9.0970   20.4080 C   0  0  0  0  0  3  0  0  0  0  0  0
  -22.7440  -10.2780   20.2160 C   0  0  0  0  0  3  0  0  0  0  0  0
  -21.6540   -7.0070   21.4550 O   0  0  0  0  0  0  0  0  0  0  0  0
  -21.6060   -6.2710   22.6120 C   0  0  0  0  0  0  0  0  0  0  0  0
  -21.2010   -6.8380   23.8400 C   0  0  0  0  0  3  0  0  0  0  0  0
  -21.0990   -6.0290   24.9890 C   0  0  0  0  0  3  0  0  0  0  0  0
  -21.3930   -4.6530   24.9120 C   0  0  0  0  0  0  0  0  0  0  0  0
  -21.7910   -4.0860   23.6880 C   0  0  0  0  0  3  0  0  0  0  0  0
  -21.8950   -4.8930   22.5420 C   0  0  0  0  0  0  0  0  0  0  0  0
  -22.2580   -4.3380   21.3600 F   0  0  0  0  0  0  0  0  0  0  0  0
  -21.2880   -3.8750   26.0130 F   0  0  0  0  0  0  0  0  0  0  0  0
  -22.7990  -13.6330   21.0580 C   0  0  0  0  0  0  0  0  0  0  0  0
  -22.0670  -12.9510   21.9310 N   0  0  0  0  0  0  0  0  0  0  0  0
  -22.3690  -14.6580   20.5290 O   0  0  0  0  0  0  0  0  0  0  0  0
  -22.4270  -12.1200   22.3760 H   0  0  0  0  0  0  0  0  0  0  0  0
  -21.1320  -13.2600   22.1570 H   0  0  0  0  0  0  0  0  0  0  0  0
  -25.4430  -15.2660   20.2150 N   0  0  0  0  0  0  0  0  0  0  0  0
  -24.6780  -15.9280   20.3010 H   0  0  0  0  0  0  0  0  0  0  0  0
  -26.2860  -15.6860   19.8430 H   0  0  0  0  0  0  0  0  0  0  0  0
  1  3  1  0
  1  5  1  0
  2  4  1  0
  3  6  1  0
  5  8  1  0
  5  2  1  0
  6 50  1  0
  6  4  1  0
  6  7  1  6
  8  9  1  0
 10 21  2  0
 11  9  1  0
 11 16  1  0
 12 20  1  0
 12 22  1  0
 13 19  1  0
 13 15  1  0
 14 20  1  0
 15 14  1  0
 16 15  2  0
 17 18  1  0
 17 11  2  0
 18 13  2  0
 19 12  1  0
 20 10  1  0
 22 24  2  0
 23 22  1  0
 25 23  1  0
 26 35  2  0
 26 31  1  0
 27 23  1  0
 27 31  1  0
 28 27  1  0
 29 30  1  0
 29 28  1  0
 30 26  1  0
 31 32  2  0
 32 33  1  0
 34 33  2  0
 35 34  1  0
 36 10  1  0
 36 41  1  0
 36 37  1  0
 37 40  1  1
 37 38  1  0
 39 37  1  0
 41 44  1  0
 42 46  1  0
 42 41  1  0
 43 42  2  0
 46 45  1  0
 48 46  1  0
 48 49  1  0
 48 47  1  0
 51 52  1  0
 51 50  1  0
 53 61  1  0
 54 59  1  0
 55 56  1  0
 55 54  1  0
 57 56  1  0
 57 66  1  0
 57 58  1  0
 59 53  1  0
 59 58  1  0
 60 53  2  0
 61 62  1  0
 61 52  1  0
 63 64  2  0
 64 83  1  0
 65 64  1  0
 65 68  1  0
 66 63  1  0
 66 67  1  0
 67 65  2  0
 68 69  1  0
 69 70  2  0
 71 74  1  0
 71 70  1  0
 72 71  2  0
 73 72  1  0
 73 68  2  0
 74 75  1  0
 75 76  1  0
 76 77  2  0
 78 77  1  0
 78 82  1  0
 79 78  2  0
 80 75  2  0
 80 79  1  0
 81 80  1  0
 83 84  1  0
 84 87  1  0
 84 86  1  0
 85 83  2  0
 88 89  1  0
 88 63  1  0
 90 88  1  0
M  ISO  4   8 101   9 101  53 100  61 100
M  END
>  <TORSDO>  (87) 
F 20

>  <SCORE>  (87) 
-13.713

>  <name>  (87) 
86

>  <ligand_id>  (87) 
86

>  <original_smiles>  (87) 
[H]c1c([H])c([H])c2c(c1[H])C([H])([H])C([H])([H])C([H])([H])C2([H])N([H])C(=O)C1([H])N(C(=O)C([H])(N([H])C(=O)C([H])(N([H])C([H])([H])[H])C([H])([H])[H])C(C([H])([H])[H])(C([H])([H])[H])C([H])([H])[H])C([H])([H])c2c([H])c(OC([H])([H])C3([H])C([H])([H])C([H])([H])[N+]([H])(C([H])([H])C([H])([H])C([H])([H])N([H])C(=O)N4C([H])([H])C([H])([H])C([H])([H])C([H])(n5nc(-c6c([H])c([H])c(Oc7c([H])c([H])c(F)c([H])c7F)c([H])c6[H])c(C(=O)N([H])[H])c5N([H])[H])C4([H])[H])C([H])([H])C3([H])[H])c([H])c([H])c2C1([H])[H]

>  <smiles>  (87) 
[H]c1c([H])c([H])c2c(c1[H])C([H])([H])C([H])([H])C([H])([H])C2([H])N([H])C(=O)C1([H])N(C(=O)C([H])(N([H])C(=O)C([H])(N([H])C([H])([H])[H])C([H])([H])[H])C(C([H])([H])[H])(C([H])([H])[H])C([H])([H])[H])C([H])([H])c2c([H])c(OC([H])([H])C3([H])C([H])([H])C([H])([H])[N+]([H])(C([H])([H])C([H])([H])C([H])([H])N([H])C(=O)N4C([H])([H])C([H])([H])C([H])([H])C([H])(n5nc(-c6c([H])c([H])c(Oc7c([H])c([H])c(F)c([H])c7F)c([H])c6[H])c(C(=O)N([H])[H])c5N([H])[H])C4([H])[H])C([H])([H])C3([H])[H])c([H])c([H])c2C1([H])[H]

$$$$
87:0:0
     RDKit          3D

 89 97  0  0  1  0  0  0  0  0999 V2000
  -27.6430  -23.7590   19.1630 C   0  0  0  0  0  3  0  0  0  0  0  0
  -28.6160  -24.0560   21.4350 C   0  0  0  0  0  2  0  0  0  0  0  0
  -27.6600  -22.2040   19.6140 C   0  0  0  0  0  2  0  0  0  0  0  0
  -29.4170  -22.6810   21.2900 C   0  0  0  0  0  2  0  0  0  0  0  0
  -28.3810  -24.8210   20.0930 C   0  0  0  0  0  0  0  0  0  0  0  0
  -28.9100  -21.6510   20.2810 N   0  0  1  0  0  4  0  0  0  0  0  0
  -29.6130  -21.6540   19.5540 H   0  0  0  0  0  0  0  0  0  0  0  0
  -28.2900  -26.3610   20.1110 O   0  0  0  0  0  0  0  0  0  0  0  0
  -24.6100  -31.8810   23.2010 C   0  0  0  0  0  0  0  0  0  0  0  0
  -27.1620  -27.2220   20.1320 C   0  0  0  0  0  0  0  0  0  0  0  0
  -23.4000  -30.4840   21.5750 C   0  0  0  0  0  3  0  0  0  0  0  0
  -24.8270  -28.9180   20.1400 C   0  0  0  0  0  0  0  0  0  0  0  0
  -25.9430  -30.7750   21.3750 C   0  0  0  0  0  2  0  0  0  0  0  0
  -26.0090  -29.3870   20.7230 C   0  0  0  0  0  0  0  0  0  0  0  0
  -27.1780  -28.5490   20.7010 C   0  0  0  0  0  3  0  0  0  0  0  0
  -25.9500  -26.8330   19.5320 C   0  0  0  0  0  3  0  0  0  0  0  0
  -24.8030  -27.6540   19.5370 C   0  0  0  0  0  3  0  0  0  0  0  0
  -23.6060  -29.8180   20.1890 C   0  0  0  0  0  2  0  0  0  0  0  0
  -24.6710  -31.0630   22.1070 N   0  0  0  0  0  0  0  0  0  0  0  0
  -23.5300  -32.1570   23.7430 O   0  0  0  0  0  0  0  0  0  0  0  0
  -22.7380  -29.4630   22.5330 C   0  0  0  0  0  0  0  0  0  0  0  0
  -21.4100  -29.2880   22.4120 N   0  0  0  0  0  0  0  0  0  0  0  0
  -23.4150  -28.8360   23.3510 O   0  0  0  0  0  0  0  0  0  0  0  0
  -20.9140  -29.8580   21.7390 H   0  0  0  0  0  0  0  0  0  0  0  0
  -18.0300  -28.0950   22.9270 C   0  0  0  0  0  0  0  0  0  0  0  0
  -20.5960  -28.3490   23.1860 C   0  0  0  0  0  3  0  0  0  0  0  0
  -20.6910  -26.9190   22.6080 C   0  0  0  0  0  2  0  0  0  0  0  0
  -19.5840  -26.6030   21.5980 C   0  0  0  0  0  2  0  0  0  0  0  0
  -18.2040  -26.7450   22.2490 C   0  0  0  0  0  2  0  0  0  0  0  0
  -19.1550  -28.8520   23.3530 C   0  0  0  0  0  0  0  0  0  0  0  0
  -18.9410  -30.1120   23.9480 C   0  0  0  0  0  3  0  0  0  0  0  0
  -17.6400  -30.6170   24.1260 C   0  0  0  0  0  3  0  0  0  0  0  0
  -16.5310  -29.8530   23.7240 C   0  0  0  0  0  3  0  0  0  0  0  0
  -16.7270  -28.5960   23.1240 C   0  0  0  0  0  3  0  0  0  0  0  0
  -25.8920  -32.5140   23.8200 C   0  0  0  0  0  3  0  0  0  0  0  0
  -26.4170  -31.7370   25.0900 C   0  0  1  0  0  0  0  0  0  0  0  0
  -25.3340  -31.4910   26.1660 C   0  0  0  0  0  1  0  0  0  0  0  0
  -27.0030  -30.3670   24.6780 C   0  0  0  0  0  1  0  0  0  0  0  0
  -27.5690  -32.5310   25.7490 C   0  0  0  0  0  1  0  0  0  0  0  0
  -25.5830  -33.9100   24.1680 N   0  0  0  0  0  0  0  0  0  0  0  0
  -25.9000  -34.9710   23.4150 C   0  0  0  0  0  0  0  0  0  0  0  0
  -26.5550  -34.8800   22.3730 O   0  0  0  0  0  0  0  0  0  0  0  0
  -25.0120  -34.0560   24.9870 H   0  0  0  0  0  0  0  0  0  0  0  0
  -24.1600  -36.7570   23.0960 C   0  0  0  0  0  1  0  0  0  0  0  0
  -25.4110  -36.3540   23.8920 C   0  0  0  0  0  3  0  0  0  0  0  0
  -27.5490  -37.2380   24.7020 C   0  0  0  0  0  1  0  0  0  0  0  0
  -26.4380  -37.4130   23.7720 N   0  0  0  0  0  0  0  0  0  0  0  0
  -26.0310  -38.3290   23.9400 H   0  0  0  0  0  0  0  0  0  0  0  0
  -28.8930  -20.1800   20.8370 C   0  0  0  0  0  2  0  0  0  0  0  0
  -29.1820  -18.7940   19.9730 C   0  0  0  0  0  2  0  0  0  0  0  0
  -29.9090  -17.5000   20.7160 C   0  0  0  0  0  2  0  0  0  0  0  0
  -30.5150  -14.8790   20.3200 C   0  0  0  0  0  0  0  0  0  0  0  0
  -30.4070  -12.5540   19.3620 C   0  0  0  0  0  2  0  0  0  0  0  0
  -29.4590  -12.5320   18.1410 C   0  0  0  0  0  2  0  0  0  0  0  0
  -27.9940  -12.3440   18.5860 C   0  0  0  0  0  2  0  0  0  0  0  0
  -27.6040  -13.2800   19.7570 C   0  0  0  0  0  3  0  0  0  0  0  0
  -28.6580  -13.2530   20.8780 C   0  0  0  0  0  2  0  0  0  0  0  0
  -29.9350  -13.6280   20.2660 N   0  0  0  0  0  0  0  0  0  0  0  0
  -31.7310  -14.9840   20.1250 O   0  0  0  0  0  0  0  0  0  0  0  0
  -29.6720  -16.0010   20.3910 N   0  0  0  0  0  0  0  0  0  0  0  0
  -28.6970  -15.7410   20.4060 H   0  0  0  0  0  0  0  0  0  0  0  0
  -25.2270  -13.8890   20.4850 C   0  0  0  0  0  0  0  0  0  0  0  0
  -24.1560  -13.1190   20.8580 C   0  0  0  0  0  0  0  0  0  0  0  0
  -24.6190  -11.7660   20.8420 C   0  0  0  0  0  0  0  0  0  0  0  0
  -26.2660  -13.0020   20.2590 N   0  0  0  0  0  0  0  0  0  0  0  0
  -25.9090  -11.7240   20.5390 N   0  0  0  0  0  0  0  0  0  0  0  0
  -23.8870  -10.5080   21.0360 C   0  0  0  0  0  0  0  0  0  0  0  0
  -24.3210   -9.5420   21.9710 C   0  0  0  0  0  3  0  0  0  0  0  0
  -23.5920   -8.3460   22.1530 C   0  0  0  0  0  3  0  0  0  0  0  0
  -22.4160   -8.1100   21.4000 C   0  0  0  0  0  0  0  0  0  0  0  0
  -22.0050   -9.0650   20.4540 C   0  0  0  0  0  3  0  0  0  0  0  0
  -22.7330  -10.2510   20.2720 C   0  0  0  0  0  3  0  0  0  0  0  0
  -21.6600   -6.9670   21.4920 O   0  0  0  0  0  0  0  0  0  0  0  0
  -21.6210   -6.2210   22.6430 C   0  0  0  0  0  0  0  0  0  0  0  0
  -21.2170   -6.7740   23.8770 C   0  0  0  0  0  3  0  0  0  0  0  0
  -21.1260   -5.9550   25.0200 C   0  0  0  0  0  3  0  0  0  0  0  0
  -21.4290   -4.5840   24.9300 C   0  0  0  0  0  0  0  0  0  0  0  0
  -21.8250   -4.0290   23.7000 C   0  0  0  0  0  3  0  0  0  0  0  0
  -21.9190   -4.8470   22.5590 C   0  0  0  0  0  0  0  0  0  0  0  0
  -22.2830   -4.3040   21.3720 F   0  0  0  0  0  0  0  0  0  0  0  0
  -21.3340   -3.7940   26.0240 F   0  0  0  0  0  0  0  0  0  0  0  0
  -22.7610  -13.6010   21.1170 C   0  0  0  0  0  0  0  0  0  0  0  0
  -22.0280  -12.9110   21.9850 N   0  0  0  0  0  0  0  0  0  0  0  0
  -22.3260  -14.6230   20.5860 O   0  0  0  0  0  0  0  0  0  0  0  0
  -22.3900  -12.0760   22.4250 H   0  0  0  0  0  0  0  0  0  0  0  0
  -21.0930  -13.2170   22.2130 H   0  0  0  0  0  0  0  0  0  0  0  0
  -25.3990  -15.2560   20.2930 N   0  0  0  0  0  0  0  0  0  0  0  0
  -24.6310  -15.9160   20.3670 H   0  0  0  0  0  0  0  0  0  0  0  0
  -26.2330  -15.6700   19.8980 H   0  0  0  0  0  0  0  0  0  0  0  0
  1  3  1  0
  1  5  2  0
  3  6  1  0
  4  2  1  0
  5  8  1  0
  5  2  1  0
  6 49  1  0
  6  4  1  0
  6  7  1  6
  8 10  1  0
  9 20  2  0
 10 15  1  0
 11 19  1  0
 11 21  1  0
 12 18  1  0
 12 14  1  0
 13 19  1  0
 14 13  1  0
 15 14  2  0
 16 17  1  0
 16 10  2  0
 17 12  2  0
 18 11  1  0
 19  9  1  0
 21 23  2  0
 22 21  1  0
 24 22  1  0
 25 34  2  0
 25 30  1  0
 26 22  1  0
 26 30  1  0
 27 26  1  0
 28 29  1  0
 28 27  1  0
 29 25  1  0
 30 31  2  0
 31 32  1  0
 33 32  2  0
 34 33  1  0
 35  9  1  0
 35 40  1  0
 35 36  1  0
 36 39  1  1
 36 37  1  0
 38 36  1  0
 40 43  1  0
 41 45  1  0
 41 40  1  0
 42 41  2  0
 45 44  1  0
 47 45  1  0
 47 48  1  0
 47 46  1  0
 50 51  1  0
 50 49  1  0
 52 60  1  0
 53 58  1  0
 54 55  1  0
 54 53  1  0
 56 55  1  0
 56 65  1  0
 56 57  1  0
 58 52  1  0
 58 57  1  0
 59 52  2  0
 60 61  1  0
 60 51  1  0
 62 63  2  0
 63 82  1  0
 64 63  1  0
 64 67  1  0
 65 62  1  0
 65 66  1  0
 66 64  2  0
 67 68  1  0
 68 69  2  0
 70 73  1  0
 70 69  1  0
 71 70  2  0
 72 71  1  0
 72 67  2  0
 73 74  1  0
 74 75  1  0
 75 76  2  0
 77 76  1  0
 77 81  1  0
 78 77  2  0
 79 74  2  0
 79 78  1  0
 80 79  1  0
 82 83  1  0
 83 86  1  0
 83 85  1  0
 84 82  2  0
 87 88  1  0
 87 62  1  0
 89 87  1  0
M  ISO  4   5 101   8 101  52 100  60 100
M  END
>  <TORSDO>  (88) 
F 19

>  <SCORE>  (88) 
-14.091

>  <name>  (88) 
87

>  <ligand_id>  (88) 
87

>  <original_smiles>  (88) 
[H]c1c([H])c([H])c2c(c1[H])C([H])([H])C([H])([H])C([H])([H])C2([H])N([H])C(=O)C1([H])N(C(=O)C([H])(N([H])C(=O)C([H])(N([H])C([H])([H])[H])C([H])([H])[H])C(C([H])([H])[H])(C([H])([H])[H])C([H])([H])[H])C([H])([H])c2c([H])c(OC3([H])C([H])([H])C([H])([H])[N+]([H])(C([H])([H])C([H])([H])C([H])([H])N([H])C(=O)N4C([H])([H])C([H])([H])C([H])([H])C([H])(n5nc(-c6c([H])c([H])c(Oc7c([H])c([H])c(F)c([H])c7F)c([H])c6[H])c(C(=O)N([H])[H])c5N([H])[H])C4([H])[H])C([H])([H])C3([H])[H])c([H])c([H])c2C1([H])[H]

>  <smiles>  (88) 
[H]c1c([H])c([H])c2c(c1[H])C([H])([H])C([H])([H])C([H])([H])C2([H])N([H])C(=O)C1([H])N(C(=O)C([H])(N([H])C(=O)C([H])(N([H])C([H])([H])[H])C([H])([H])[H])C(C([H])([H])[H])(C([H])([H])[H])C([H])([H])[H])C([H])([H])c2c([H])c(OC3([H])C([H])([H])C([H])([H])[N+]([H])(C([H])([H])C([H])([H])C([H])([H])N([H])C(=O)N4C([H])([H])C([H])([H])C([H])([H])C([H])(n5nc(-c6c([H])c([H])c(Oc7c([H])c([H])c(F)c([H])c7F)c([H])c6[H])c(C(=O)N([H])[H])c5N([H])[H])C4([H])[H])C([H])([H])C3([H])[H])c([H])c([H])c2C1([H])[H]

$$$$
88:0:0
     RDKit          3D

 95100  0  0  1  0  0  0  0  0999 V2000
  -29.7890  -19.5520   19.1980 C   0  0  0  0  0  2  0  0  0  0  0  0
  -27.8590  -18.3220   20.3150 C   0  0  0  0  0  2  0  0  0  0  0  0
  -30.6660  -18.9150   20.3130 C   0  0  0  0  0  2  0  0  0  0  0  0
  -29.8510  -16.7960   21.2710 C   0  0  0  0  0  2  0  0  0  0  0  0
  -28.4320  -20.0700   19.7260 C   0  0  0  0  0  2  0  0  0  0  0  0
  -28.4410  -16.4930   20.6790 C   0  0  0  0  0  2  0  0  0  0  0  0
  -30.8110  -17.4290   20.3270 N   0  0  0  0  0  0  0  0  0  0  0  0
  -28.5460  -22.0040   20.1650 C   0  0  0  0  0 15  0  0  0  0  0  0
  -28.0330  -23.8480   19.6560 C   0  0  0  0  0  1  0  0  0  0  0  0
  -28.3330  -25.6020   19.9000 O   0  0  0  0  0  0  0  0  0  0  0  0
  -24.7510  -31.5670   23.1110 C   0  0  0  0  0  0  0  0  0  0  0  0
  -27.4790  -26.8890   19.7860 C   0  0  0  0  0  0  0  0  0  0  0  0
  -23.6610  -30.1860   21.3990 C   0  0  0  0  0  3  0  0  0  0  0  0
  -25.1960  -28.8370   19.7990 C   0  0  0  0  0  0  0  0  0  0  0  0
  -26.2050  -30.5830   21.2380 C   0  0  0  0  0  2  0  0  0  0  0  0
  -26.3610  -29.2090   20.4770 C   0  0  0  0  0  0  0  0  0  0  0  0
  -27.5050  -28.2560   20.4450 C   0  0  0  0  0  3  0  0  0  0  0  0
  -26.3380  -26.7970   18.9730 C   0  0  0  0  0  3  0  0  0  0  0  0
  -25.2320  -27.6810   19.0050 C   0  0  0  0  0  3  0  0  0  0  0  0
  -23.9180  -29.6660   19.9570 C   0  0  0  0  0  2  0  0  0  0  0  0
  -24.8950  -30.8140   21.9680 N   0  0  0  0  0  0  0  0  0  0  0  0
  -23.6480  -31.7020   23.6710 O   0  0  0  0  0  0  0  0  0  0  0  0
  -23.1080  -29.0420   22.2950 C   0  0  0  0  0  0  0  0  0  0  0  0
  -21.8330  -28.6550   22.1040 N   0  0  0  0  0  0  0  0  0  0  0  0
  -23.8340  -28.5130   23.1380 O   0  0  0  0  0  0  0  0  0  0  0  0
  -21.2860  -29.1440   21.4100 H   0  0  0  0  0  0  0  0  0  0  0  0
  -18.7340  -26.7780   22.3550 C   0  0  0  0  0  0  0  0  0  0  0  0
  -21.1600  -27.5560   22.8080 C   0  0  0  0  0  3  0  0  0  0  0  0
  -21.5930  -26.1840   22.2410 C   0  0  0  0  0  2  0  0  0  0  0  0
  -20.6570  -25.6620   21.1450 C   0  0  0  0  0  2  0  0  0  0  0  0
  -19.2310  -25.5080   21.6850 C   0  0  0  0  0  2  0  0  0  0  0  0
  -19.6390  -27.7450   22.8690 C   0  0  0  0  0  0  0  0  0  0  0  0
  -19.1210  -28.9180   23.4580 C   0  0  0  0  0  3  0  0  0  0  0  0
  -17.7310  -29.1330   23.5370 C   0  0  0  0  0  3  0  0  0  0  0  0
  -16.8400  -28.1670   23.0370 C   0  0  0  0  0  3  0  0  0  0  0  0
  -17.3430  -26.9910   22.4520 C   0  0  0  0  0  3  0  0  0  0  0  0
  -25.9540  -32.3080   23.7640 C   0  0  0  0  0  3  0  0  0  0  0  0
  -25.5200  -33.6790   24.1020 N   0  0  0  0  0  0  0  0  0  0  0  0
  -25.7370  -34.7670   23.3500 C   0  0  0  0  0  0  0  0  0  0  0  0
  -26.3860  -34.7300   22.3020 O   0  0  0  0  0  0  0  0  0  0  0  0
  -24.9340  -33.7750   24.9180 H   0  0  0  0  0  0  0  0  0  0  0  0
  -23.8160  -36.3860   23.1150 C   0  0  0  0  0  1  0  0  0  0  0  0
  -25.1470  -36.1090   23.8360 C   0  0  0  0  0  3  0  0  0  0  0  0
  -27.2290  -37.2230   24.5160 C   0  0  0  0  0  1  0  0  0  0  0  0
  -26.0580  -37.2590   23.6450 N   0  0  0  0  0  0  0  0  0  0  0  0
  -25.5700  -38.1360   23.8070 H   0  0  0  0  0  0  0  0  0  0  0  0
  -26.4930  -31.5860   25.0620 C   0  0  1  0  0  0  0  0  0  0  0  0
  -25.3910  -31.2710   26.1030 C   0  0  0  0  0  1  0  0  0  0  0  0
  -27.1950  -30.2560   24.7110 C   0  0  0  0  0  1  0  0  0  0  0  0
  -27.5580  -32.4720   25.7510 C   0  0  0  0  0  1  0  0  0  0  0  0
  -28.3710  -14.5300   20.2270 C   0  0  0  0  0  2  0  0  0  0  0  0
  -31.4060  -14.3720   19.2660 C   0  0  0  0  0  0  0  0  0  0  0  0
  -32.4380  -12.0400   18.7850 C   0  0  0  0  0  2  0  0  0  0  0  0
  -31.5030  -11.2490   17.7770 C   0  0  0  0  0  2  0  0  0  0  0  0
  -30.0160  -11.0590   18.1880 C   0  0  0  0  0  2  0  0  0  0  0  0
  -29.7040  -12.3720   18.7620 C   0  0  0  0  0  3  0  0  0  0  0  0
  -30.6350  -12.4350   20.0670 C   0  0  0  0  0  2  0  0  0  0  0  0
  -31.6950  -13.0800   19.5330 N   0  0  0  0  0  0  0  0  0  0  0  0
  -32.3620  -14.9080   18.6350 O   0  0  0  0  0  0  0  0  0  0  0  0
  -30.0360  -14.8760   19.7160 N   0  0  0  0  0  0  0  0  0  0  0  0
  -30.0370  -15.8640   19.4690 H   0  0  0  0  0  0  0  0  0  0  0  0
  -27.0690  -13.9950   19.2450 C   0  0  0  0  0  3  0  0  0  0  0  0
  -26.1440  -13.5260   20.6430 C   0  0  0  0  0  3  0  0  0  0  0  0
  -26.6910  -11.9900   21.3070 C   0  0  0  0  0  3  0  0  0  0  0  0
  -28.4570  -12.6120   19.1500 N   0  0  0  0  0  2  0  0  0  0  0  0
  -28.0800  -11.5700   20.5660 N   0  0  0  0  0  2  0  0  0  0  0  0
  -25.7510  -10.6530   21.3060 C   0  0  0  0  0  0  0  0  0  0  0  0
  -25.7700   -9.7240   22.3880 C   0  0  0  0  0  3  0  0  0  0  0  0
  -24.9060   -8.5900   22.5170 C   0  0  0  0  0  3  0  0  0  0  0  0
  -23.9480   -8.2510   21.5360 C   0  0  0  0  0  0  0  0  0  0  0  0
  -23.9940   -9.0390   20.3630 C   0  0  0  0  0  3  0  0  0  0  0  0
  -24.8750  -10.1740   20.2460 C   0  0  0  0  0  3  0  0  0  0  0  0
  -23.0430   -7.1910   21.6590 O   0  0  0  0  0  0  0  0  0  0  0  0
  -22.3220   -6.9490   22.8230 C   0  0  0  0  0  0  0  0  0  0  0  0
  -21.5390   -7.9550   23.4400 C   0  0  0  0  0  3  0  0  0  0  0  0
  -20.8000   -7.6810   24.6120 C   0  0  0  0  0  3  0  0  0  0  0  0
  -20.8210   -6.3920   25.1780 C   0  0  0  0  0  0  0  0  0  0  0  0
  -21.5680   -5.3740   24.5610 C   0  0  0  0  0  3  0  0  0  0  0  0
  -22.3050   -5.6490   23.3880 C   0  0  0  0  0  0  0  0  0  0  0  0
  -23.0000   -4.6420   22.8070 F   0  0  0  0  0  0  0  0  0  0  0  0
  -20.1200   -6.1310   26.3090 F   0  0  0  0  0  0  0  0  0  0  0  0
  -24.6820  -13.8060   20.7540 C   0  0  0  0  0  0  0  0  0  0  0  0
  -23.9710  -13.1800   21.6940 N   0  0  0  0  0  0  0  0  0  0  0  0
  -24.1570  -14.5850   19.9760 O   0  0  0  0  0  0  0  0  0  0  0  0
  -24.3950  -12.5250   22.3330 H   0  0  0  0  0  0  0  0  0  0  0  0
  -22.9830  -13.3780   21.7790 H   0  0  0  0  0  0  0  0  0  0  0  0
  -27.1320  -15.1450   18.5680 N   0  0  0  0  0  0  0  0  0  0  0  0
  -26.4670  -15.8980   18.7030 H   0  0  0  0  0  0  0  0  0  0  0  0
  -27.8850  -15.3690   17.9300 H   0  0  0  0  0  0  0  0  0  0  0  0
  -32.2220  -17.2230   20.7400 C   0  0  0  0  0  2  0  0  0  0  0  0
  -33.1360  -16.3190   19.8760 C   0  0  0  0  0  2  0  0  0  0  0  0
  -33.5320  -16.9640   18.6170 N   0  0  0  0  0  4  0  0  0  0  0  0
  -33.9480  -17.8670   18.7910 H   0  0  0  0  0  0  0  0  0  0  0  0
  -32.7140  -17.0760   18.0450 H   0  0  0  0  0  0  0  0  0  0  0  0
  -34.1880  -16.3850   18.1250 H   0  0  0  0  0  0  0  0  0  0  0  0
  1  5  1  0
  1  3  1  0
  2  6  1  0
  3  7  1  0
  5  2  1  0
  6  4  1  0
  7 90  1  0
  7  4  1  0
  9 10  1  0
 11 22  2  0
 12 10  1  0
 12 17  1  0
 13 21  1  0
 13 23  1  0
 14 20  1  0
 14 16  1  0
 15 21  1  0
 16 15  1  0
 17 16  2  0
 18 19  1  0
 18 12  2  0
 19 14  2  0
 20 13  1  0
 21 11  1  0
 23 25  2  0
 24 23  1  0
 26 24  1  0
 27 36  2  0
 27 32  1  0
 28 24  1  0
 28 32  1  0
 29 28  1  0
 30 31  1  0
 30 29  1  0
 31 27  1  0
 32 33  2  0
 33 34  1  0
 35 34  2  0
 36 35  1  0
 37 11  1  0
 37 38  1  0
 37 47  1  0
 38 41  1  0
 39 43  1  0
 39 38  1  0
 40 39  2  0
 43 42  1  0
 45 46  1  0
 45 43  1  0
 45 44  1  0
 47 50  1  1
 47 48  1  0
 49 47  1  0
 52 58  1  0
 52 60  1  0
 53 58  1  0
 54 55  1  0
 54 53  1  0
 56 55  1  0
 56 65  1  0
 56 57  1  0
 58 57  1  0
 59 52  2  0
 60 51  1  0
 61 60  1  0
 62 87  1  0
 62 51  1  0
 62 63  1  0
 63 82  1  0
 63 64  1  0
 64 67  1  0
 65 66  1  0
 66 64  1  0
 67 68  1  0
 68 69  2  0
 70 73  1  0
 70 69  1  0
 71 70  2  0
 72 71  1  0
 72 67  2  0
 73 74  1  0
 74 79  2  0
 74 75  1  0
 75 76  2  0
 76 77  1  0
 77 81  1  0
 78 77  2  0
 79 78  1  0
 80 79  1  0
 82 83  1  0
 83 86  1  0
 83 85  1  0
 84 82  2  0
 87 88  1  0
 89 87  1  0
 91 90  1  0
 92 93  1  0
 92 91  1  0
 94 92  1  0
 95 92  1  0
M  ISO  4   9 101  10 101  52 100  60 100
M  END
>  <TORSDO>  (89) 
F 22

>  <SCORE>  (89) 
-9.705

>  <name>  (89) 
88

>  <ligand_id>  (89) 
88

>  <original_smiles>  (89) 
[H]c1c([H])c([H])c2c(c1[H])C([H])([H])C([H])([H])C([H])([H])C2([H])N([H])C(=O)C1([H])N(C(=O)C([H])(N([H])C(=O)C([H])(N([H])C([H])([H])[H])C([H])([H])[H])C(C([H])([H])[H])(C([H])([H])[H])C([H])([H])[H])C([H])([H])c2c([H])c(OC([H])([H])C([H])([H])C3([H])C([H])([H])C([H])([H])N(C([H])([H])C([H])([H])[N+]([H])([H])[H])C([H])([H])C([H])(C([H])([H])N([H])C(=O)N4C([H])([H])C([H])([H])C([H])([H])C([H])(n5nc(-c6c([H])c([H])c(Oc7c([H])c([H])c(F)c([H])c7F)c([H])c6[H])c(C(=O)N([H])[H])c5N([H])[H])C4([H])[H])C3([H])[H])c([H])c([H])c2C1([H])[H]

>  <smiles>  (89) 
[H]c1c([H])c([H])c2c(c1[H])C([H])([H])C([H])([H])C([H])([H])C2([H])N([H])C(=O)C1([H])N(C(=O)C([H])(N([H])C(=O)C([H])(N([H])C([H])([H])[H])C([H])([H])[H])C(C([H])([H])[H])(C([H])([H])[H])C([H])([H])[H])C([H])([H])c2c([H])c(OC([H])([H])C([H])([H])C3([H])C([H])([H])C([H])([H])N(C([H])([H])C([H])([H])[N+]([H])([H])[H])C([H])([H])C([H])(C([H])([H])N([H])C(=O)N4C([H])([H])C([H])([H])C([H])([H])C([H])(n5nc(-c6c([H])c([H])c(Oc7c([H])c([H])c(F)c([H])c7F)c([H])c6[H])c(C(=O)N([H])[H])c5N([H])[H])C4([H])[H])C3([H])[H])c([H])c([H])c2C1([H])[H]

$$$$
89:0:0
     RDKit          3D

 88 96  0  0  1  0  0  0  0  0999 V2000
  -30.2120  -20.5900   22.2360 C   0  0  0  0  0  2  0  0  0  0  0  0
  -29.0440  -19.6670   21.7860 C   0  0  0  0  0  2  0  0  0  0  0  0
  -30.6130  -21.4320   21.0000 C   0  0  0  0  0  2  0  0  0  0  0  0
  -29.0840  -19.7430   20.2620 C   0  0  0  0  0  3  0  0  0  0  0  0
  -29.3950  -21.3780   20.1880 N   0  0  2  0  0  4  0  0  0  0  0  0
  -28.8380  -21.2830   21.0240 H   0  0  0  0  0  0  0  0  0  0  0  0
  -30.1060  -18.3100   19.8690 C   0  0  0  0  0  2  0  0  0  0  0  0
  -30.6740  -15.4390   20.0140 C   0  0  0  0  0  0  0  0  0  0  0  0
  -30.6470  -13.0330   19.0820 C   0  0  0  0  0  2  0  0  0  0  0  0
  -29.6680  -12.7940   17.9040 C   0  0  0  0  0  2  0  0  0  0  0  0
  -28.2340  -12.5470   18.4000 C   0  0  0  0  0  2  0  0  0  0  0  0
  -27.8350  -13.4930   19.5590 C   0  0  0  0  0  3  0  0  0  0  0  0
  -28.9320  -13.6120   20.6440 C   0  0  0  0  0  2  0  0  0  0  0  0
  -30.1220  -14.1350   19.9600 N   0  0  0  0  0  0  0  0  0  0  0  0
  -31.8840  -15.4730   19.7470 O   0  0  0  0  0  0  0  0  0  0  0  0
  -29.8920  -16.6830   20.1470 N   0  0  0  0  0  0  0  0  0  0  0  0
  -28.9360  -16.4630   20.3880 H   0  0  0  0  0  0  0  0  0  0  0  0
  -25.4850  -14.0470   20.3830 C   0  0  0  0  0  0  0  0  0  0  0  0
  -24.4310  -13.2640   20.7690 C   0  0  0  0  0  0  0  0  0  0  0  0
  -24.8950  -11.9170   20.7080 C   0  0  0  0  0  0  0  0  0  0  0  0
  -26.5200  -13.1720   20.1040 N   0  0  0  0  0  0  0  0  0  0  0  0
  -26.1810  -11.8840   20.3690 N   0  0  0  0  0  0  0  0  0  0  0  0
  -24.1710  -10.6540   20.9030 C   0  0  0  0  0  0  0  0  0  0  0  0
  -24.5760   -9.7150   21.8780 C   0  0  0  0  0  3  0  0  0  0  0  0
  -23.8520   -8.5190   22.0640 C   0  0  0  0  0  3  0  0  0  0  0  0
  -22.7100   -8.2500   21.2720 C   0  0  0  0  0  0  0  0  0  0  0  0
  -22.3250   -9.1770   20.2850 C   0  0  0  0  0  3  0  0  0  0  0  0
  -23.0490  -10.3660   20.0980 C   0  0  0  0  0  3  0  0  0  0  0  0
  -21.9630   -7.1010   21.3590 O   0  0  0  0  0  0  0  0  0  0  0  0
  -21.8040   -6.4340   22.5500 C   0  0  0  0  0  0  0  0  0  0  0  0
  -21.2310   -7.0560   23.6790 C   0  0  0  0  0  3  0  0  0  0  0  0
  -21.0230   -6.3140   24.8600 C   0  0  0  0  0  3  0  0  0  0  0  0
  -21.3780   -4.9530   24.9100 C   0  0  0  0  0  0  0  0  0  0  0  0
  -21.9420   -4.3310   23.7820 C   0  0  0  0  0  3  0  0  0  0  0  0
  -22.1510   -5.0690   22.6040 C   0  0  0  0  0  0  0  0  0  0  0  0
  -22.6750   -4.4590   21.5140 F   0  0  0  0  0  0  0  0  0  0  0  0
  -21.1710   -4.2380   26.0410 F   0  0  0  0  0  0  0  0  0  0  0  0
  -23.0430  -13.7440   21.0670 C   0  0  0  0  0  0  0  0  0  0  0  0
  -22.3330  -13.0520   21.9490 N   0  0  0  0  0  0  0  0  0  0  0  0
  -22.5960  -14.7670   20.5520 O   0  0  0  0  0  0  0  0  0  0  0  0
  -22.7140  -12.2280   22.3870 H   0  0  0  0  0  0  0  0  0  0  0  0
  -21.4010  -13.3620   22.1870 H   0  0  0  0  0  0  0  0  0  0  0  0
  -25.6310  -15.4210   20.2250 N   0  0  0  0  0  0  0  0  0  0  0  0
  -24.8510  -16.0460   20.4000 H   0  0  0  0  0  0  0  0  0  0  0  0
  -26.4250  -15.8880   19.8070 H   0  0  0  0  0  0  0  0  0  0  0  0
  -28.4740  -22.7890   20.2930 C   0  0  0  0  0  2  0  0  0  0  0  0
  -28.6730  -24.4880   19.7110 C   0  0  0  0  0  2  0  0  0  0  0  0
  -28.4630  -26.0480   20.2510 O   0  0  0  0  0  0  0  0  0  0  0  0
  -24.6800  -31.8690   23.1500 C   0  0  0  0  0  0  0  0  0  0  0  0
  -27.4140  -27.1020   20.1130 C   0  0  0  0  0  0  0  0  0  0  0  0
  -23.5420  -30.4600   21.4800 C   0  0  0  0  0  3  0  0  0  0  0  0
  -25.0580  -28.9160   20.0440 C   0  0  0  0  0  0  0  0  0  0  0  0
  -26.1010  -30.7420   21.3740 C   0  0  0  0  0  2  0  0  0  0  0  0
  -26.2170  -29.3460   20.6950 C   0  0  0  0  0  0  0  0  0  0  0  0
  -27.3790  -28.4530   20.7200 C   0  0  0  0  0  3  0  0  0  0  0  0
  -26.2230  -26.8230   19.4070 C   0  0  0  0  0  3  0  0  0  0  0  0
  -25.0840  -27.6740   19.3840 C   0  0  0  0  0  3  0  0  0  0  0  0
  -23.8050  -29.8010   20.0950 C   0  0  0  0  0  2  0  0  0  0  0  0
  -24.7930  -31.0520   22.0550 N   0  0  0  0  0  0  0  0  0  0  0  0
  -23.5790  -32.1220   23.6680 O   0  0  0  0  0  0  0  0  0  0  0  0
  -22.8710  -29.4300   22.4240 C   0  0  0  0  0  0  0  0  0  0  0  0
  -21.5440  -29.2460   22.3050 N   0  0  0  0  0  0  0  0  0  0  0  0
  -23.5540  -28.7970   23.2330 O   0  0  0  0  0  0  0  0  0  0  0  0
  -21.0410  -29.8120   21.6340 H   0  0  0  0  0  0  0  0  0  0  0  0
  -18.1850  -27.9950   22.8340 C   0  0  0  0  0  0  0  0  0  0  0  0
  -20.7460  -28.2760   23.0610 C   0  0  0  0  0  3  0  0  0  0  0  0
  -20.8490  -26.8630   22.4420 C   0  0  0  0  0  2  0  0  0  0  0  0
  -19.7350  -26.5620   21.4350 C   0  0  0  0  0  2  0  0  0  0  0  0
  -18.3630  -26.6710   22.1070 C   0  0  0  0  0  2  0  0  0  0  0  0
  -19.3040  -28.7560   23.2670 C   0  0  0  0  0  0  0  0  0  0  0  0
  -19.0810  -29.9930   23.9090 C   0  0  0  0  0  3  0  0  0  0  0  0
  -17.7760  -30.4700   24.1210 C   0  0  0  0  0  3  0  0  0  0  0  0
  -16.6720  -29.7060   23.7040 C   0  0  0  0  0  3  0  0  0  0  0  0
  -16.8780  -28.4710   23.0650 C   0  0  0  0  0  3  0  0  0  0  0  0
  -25.9310  -32.5400   23.7960 C   0  0  0  0  0  3  0  0  0  0  0  0
  -26.4400  -31.7860   25.0880 C   0  0  1  0  0  0  0  0  0  0  0  0
  -25.3280  -31.5190   26.1270 C   0  0  0  0  0  1  0  0  0  0  0  0
  -27.0780  -30.4250   24.7290 C   0  0  0  0  0  1  0  0  0  0  0  0
  -27.5460  -32.6160   25.7780 C   0  0  0  0  0  1  0  0  0  0  0  0
  -25.5760  -33.9300   24.1290 N   0  0  0  0  0  0  0  0  0  0  0  0
  -25.8790  -35.0010   23.3850 C   0  0  0  0  0  0  0  0  0  0  0  0
  -26.5510  -34.9270   22.3530 O   0  0  0  0  0  0  0  0  0  0  0  0
  -24.9760  -34.0590   24.9300 H   0  0  0  0  0  0  0  0  0  0  0  0
  -24.0960  -36.7500   23.0610 C   0  0  0  0  0  1  0  0  0  0  0  0
  -25.3540  -36.3720   23.8580 C   0  0  0  0  0  3  0  0  0  0  0  0
  -27.4580  -37.3260   24.6890 C   0  0  0  0  0  1  0  0  0  0  0  0
  -26.3520  -37.4590   23.7450 N   0  0  0  0  0  0  0  0  0  0  0  0
  -25.9140  -38.3640   23.8970 H   0  0  0  0  0  0  0  0  0  0  0  0
  2  1  1  0
  3  1  1  0
  4  7  1  0
  4  2  1  0
  5  4  1  0
  5 46  1  0
  5  3  1  0
  5  6  1  6
  7 16  1  0
  8 16  1  0
  9 14  1  0
 10 11  1  0
 10  9  1  0
 12 11  1  0
 12 21  1  0
 12 13  1  0
 14  8  1  0
 14 13  1  0
 15  8  2  0
 16 17  1  0
 18 19  2  0
 19 38  1  0
 20 19  1  0
 20 23  1  0
 21 22  1  0
 21 18  1  0
 22 20  2  0
 23 24  1  0
 24 25  2  0
 26 29  1  0
 26 25  1  0
 27 26  2  0
 28 27  1  0
 28 23  2  0
 29 30  1  0
 30 35  2  0
 30 31  1  0
 31 32  2  0
 32 33  1  0
 33 37  1  0
 34 33  2  0
 35 34  1  0
 36 35  1  0
 38 39  1  0
 39 42  1  0
 39 41  1  0
 40 38  2  0
 43 18  1  0
 43 44  1  0
 45 43  1  0
 47 48  1  0
 47 46  1  0
 49 60  2  0
 50 48  1  0
 50 55  1  0
 51 59  1  0
 51 61  1  0
 52 58  1  0
 52 54  1  0
 53 59  1  0
 54 55  2  0
 54 53  1  0
 56 50  2  0
 57 56  1  0
 57 52  2  0
 58 51  1  0
 59 49  1  0
 61 63  2  0
 62 61  1  0
 64 62  1  0
 65 74  2  0
 65 70  1  0
 66 62  1  0
 66 70  1  0
 67 66  1  0
 68 69  1  0
 68 67  1  0
 69 65  1  0
 70 71  2  0
 71 72  1  0
 73 72  2  0
 74 73  1  0
 75 49  1  0
 75 80  1  0
 75 76  1  0
 76 79  1  1
 76 77  1  0
 78 76  1  0
 80 83  1  0
 81 85  1  0
 81 80  1  0
 82 81  2  0
 85 84  1  0
 87 85  1  0
 87 88  1  0
 87 86  1  0
M  ISO  4   8 100  16 100  47 101  48 101
M  END
>  <TORSDO>  (90) 
F 19

>  <SCORE>  (90) 
-14.834

>  <name>  (90) 
89

>  <ligand_id>  (90) 
89

>  <original_smiles>  (90) 
[H]c1c([H])c([H])c2c(c1[H])C([H])([H])C([H])([H])C([H])([H])C2([H])N([H])C(=O)C1([H])N(C(=O)C([H])(N([H])C(=O)C([H])(N([H])C([H])([H])[H])C([H])([H])[H])C(C([H])([H])[H])(C([H])([H])[H])C([H])([H])[H])C([H])([H])c2c([H])c(OC([H])([H])C([H])([H])[N+]3([H])C([H])([H])C([H])([H])C([H])([H])C3([H])C([H])([H])N([H])C(=O)N3C([H])([H])C([H])([H])C([H])([H])C([H])(n4nc(-c5c([H])c([H])c(Oc6c([H])c([H])c(F)c([H])c6F)c([H])c5[H])c(C(=O)N([H])[H])c4N([H])[H])C3([H])[H])c([H])c([H])c2C1([H])[H]

>  <smiles>  (90) 
[H]c1c([H])c([H])c2c(c1[H])C([H])([H])C([H])([H])C([H])([H])C2([H])N([H])C(=O)C1([H])N(C(=O)C([H])(N([H])C(=O)C([H])(N([H])C([H])([H])[H])C([H])([H])[H])C(C([H])([H])[H])(C([H])([H])[H])C([H])([H])[H])C([H])([H])c2c([H])c(OC([H])([H])C([H])([H])[N+]3([H])C([H])([H])C([H])([H])C([H])([H])C3([H])C([H])([H])N([H])C(=O)N3C([H])([H])C([H])([H])C([H])([H])C([H])(n4nc(-c5c([H])c([H])c(Oc6c([H])c([H])c(F)c([H])c6F)c([H])c5[H])c(C(=O)N([H])[H])c4N([H])[H])C3([H])[H])c([H])c([H])c2C1([H])[H]

$$$$
90:0:0
     RDKit          3D

 96105  0  0  1  0  0  0  0  0999 V2000
  -30.0460  -22.6550   21.0530 C   0  0  0  0  0  2  0  0  0  0  0  0
  -27.7030  -23.5050   21.6250 C   0  0  0  0  0  2  0  0  0  0  0  0
  -29.9950  -24.9150   19.8010 C   0  0  0  0  0  2  0  0  0  0  0  0
  -30.4470  -24.1580   21.0640 C   0  0  0  0  0  3  0  0  0  0  0  0
  -28.3370  -24.9210   21.5770 C   0  0  0  0  0  3  0  0  0  0  0  0
  -28.5210  -22.4490   20.8290 C   0  0  0  0  0  3  0  0  0  0  0  0
  -28.5750  -25.4230   20.1340 C   0  0  0  0  0  3  0  0  0  0  0  0
  -29.6980  -24.8330   22.1320 N   0  0  0  0  0  4  0  0  0  0  0  0
  -30.0720  -25.7650   22.2550 H   0  0  0  0  0  0  0  0  0  0  0  0
  -29.7500  -24.3520   23.0180 H   0  0  0  0  0  0  0  0  0  0  0  0
  -28.0590  -21.0750   21.1570 N   0  0  0  0  0  4  0  0  0  0  0  0
  -27.0590  -21.0720   21.0290 H   0  0  0  0  0  0  0  0  0  0  0  0
  -28.2200  -20.8590   22.1290 H   0  0  0  0  0  0  0  0  0  0  0  0
  -28.5620  -19.9650   20.3140 C   0  0  0  0  0  2  0  0  0  0  0  0
  -29.6670  -19.1350   21.0090 C   0  0  0  0  0  2  0  0  0  0  0  0
  -29.6750  -17.6650   20.5410 C   0  0  0  0  0  2  0  0  0  0  0  0
  -30.6980  -16.7710   21.2710 C   0  0  0  0  0  2  0  0  0  0  0  0
  -30.9100  -14.4400   20.3510 C   0  0  0  0  0  0  0  0  0  0  0  0
  -30.5560  -12.2840   19.2050 C   0  0  0  0  0  2  0  0  0  0  0  0
  -29.6060  -12.4770   18.0050 C   0  0  0  0  0  2  0  0  0  0  0  0
  -28.1320  -12.3820   18.4440 C   0  0  0  0  0  2  0  0  0  0  0  0
  -27.8190  -13.2570   19.6870 C   0  0  0  0  0  3  0  0  0  0  0  0
  -28.8700  -13.0220   20.7950 C   0  0  0  0  0  2  0  0  0  0  0  0
  -30.2070  -13.2840   20.2270 N   0  0  0  0  0  0  0  0  0  0  0  0
  -31.9670  -14.6640   19.7540 O   0  0  0  0  0  0  0  0  0  0  0  0
  -30.3290  -15.3620   21.1290 N   0  0  0  0  0  0  0  0  0  0  0  0
  -29.4890  -15.0630   21.6020 H   0  0  0  0  0  0  0  0  0  0  0  0
  -25.4440  -13.9400   20.4160 C   0  0  0  0  0  0  0  0  0  0  0  0
  -24.3530  -13.2000   20.7910 C   0  0  0  0  0  0  0  0  0  0  0  0
  -24.7700  -11.8340   20.7470 C   0  0  0  0  0  0  0  0  0  0  0  0
  -26.4590  -13.0260   20.1740 N   0  0  0  0  0  0  0  0  0  0  0  0
  -26.0550  -11.7540   20.4260 N   0  0  0  0  0  0  0  0  0  0  0  0
  -24.0040  -10.5970   20.9350 C   0  0  0  0  0  0  0  0  0  0  0  0
  -24.3940   -9.6250   21.8830 C   0  0  0  0  0  3  0  0  0  0  0  0
  -23.6310   -8.4510   22.0610 C   0  0  0  0  0  3  0  0  0  0  0  0
  -22.4640   -8.2400   21.2910 C   0  0  0  0  0  0  0  0  0  0  0  0
  -22.0900   -9.2000   20.3330 C   0  0  0  0  0  3  0  0  0  0  0  0
  -22.8530  -10.3660   20.1540 C   0  0  0  0  0  3  0  0  0  0  0  0
  -21.6750   -7.1180   21.3780 O   0  0  0  0  0  0  0  0  0  0  0  0
  -21.5740   -6.3970   22.5410 C   0  0  0  0  0  0  0  0  0  0  0  0
  -21.1160   -6.9810   23.7420 C   0  0  0  0  0  3  0  0  0  0  0  0
  -20.9610   -6.1870   24.8970 C   0  0  0  0  0  3  0  0  0  0  0  0
  -21.2530   -4.8110   24.8510 C   0  0  0  0  0  0  0  0  0  0  0  0
  -21.7030   -4.2260   23.6540 C   0  0  0  0  0  3  0  0  0  0  0  0
  -21.8590   -5.0160   22.5020 C   0  0  0  0  0  0  0  0  0  0  0  0
  -22.2720   -4.4440   21.3460 F   0  0  0  0  0  0  0  0  0  0  0  0
  -21.0980   -4.0480   25.9580 F   0  0  0  0  0  0  0  0  0  0  0  0
  -22.9750  -13.7210   21.0810 C   0  0  0  0  0  0  0  0  0  0  0  0
  -22.2350  -13.0460   21.9530 N   0  0  0  0  0  0  0  0  0  0  0  0
  -22.5650  -14.7650   20.5730 O   0  0  0  0  0  0  0  0  0  0  0  0
  -22.5780  -12.2030   22.3890 H   0  0  0  0  0  0  0  0  0  0  0  0
  -21.3120  -13.3790   22.1900 H   0  0  0  0  0  0  0  0  0  0  0  0
  -25.6500  -15.3050   20.2450 N   0  0  0  0  0  0  0  0  0  0  0  0
  -24.8950  -15.9770   20.3370 H   0  0  0  0  0  0  0  0  0  0  0  0
  -26.5120  -15.7180   19.9130 H   0  0  0  0  0  0  0  0  0  0  0  0
  -28.5600  -26.8550   20.1280 O   0  0  0  0  0  0  0  0  0  0  0  0
  -24.6190  -31.8940   23.2390 C   0  0  0  0  0  0  0  0  0  0  0  0
  -27.3460  -27.5110   20.1490 C   0  0  0  0  0  0  0  0  0  0  0  0
  -23.4420  -30.4880   21.5790 C   0  0  0  0  0  3  0  0  0  0  0  0
  -24.9230  -28.9740   20.1650 C   0  0  0  0  0  0  0  0  0  0  0  0
  -25.9650  -30.8770   21.4060 C   0  0  0  0  0  2  0  0  0  0  0  0
  -26.0700  -29.5120   20.7600 C   0  0  0  0  0  0  0  0  0  0  0  0
  -27.2830  -28.7890   20.7470 C   0  0  0  0  0  3  0  0  0  0  0  0
  -26.1770  -26.9820   19.5530 C   0  0  0  0  0  3  0  0  0  0  0  0
  -24.9700  -27.7060   19.5630 C   0  0  0  0  0  3  0  0  0  0  0  0
  -23.6690  -29.8170   20.2000 C   0  0  0  0  0  2  0  0  0  0  0  0
  -24.6930  -31.1020   22.1330 N   0  0  0  0  0  0  0  0  0  0  0  0
  -23.5300  -32.1510   23.7700 O   0  0  0  0  0  0  0  0  0  0  0  0
  -22.7940  -29.4550   22.5270 C   0  0  0  0  0  0  0  0  0  0  0  0
  -21.4700  -29.2700   22.3950 N   0  0  0  0  0  0  0  0  0  0  0  0
  -23.4790  -28.8210   23.3350 O   0  0  0  0  0  0  0  0  0  0  0  0
  -20.9800  -29.8330   21.7140 H   0  0  0  0  0  0  0  0  0  0  0  0
  -18.0940  -28.0850   22.8900 C   0  0  0  0  0  0  0  0  0  0  0  0
  -20.6540  -28.3220   23.1530 C   0  0  0  0  0  3  0  0  0  0  0  0
  -20.7450  -26.9020   22.5500 C   0  0  0  0  0  2  0  0  0  0  0  0
  -19.6350  -26.6040   21.5370 C   0  0  0  0  0  2  0  0  0  0  0  0
  -18.2590  -26.7470   22.1920 C   0  0  0  0  0  2  0  0  0  0  0  0
  -19.2190  -28.8320   23.3290 C   0  0  0  0  0  0  0  0  0  0  0  0
  -19.0120  -30.0860   23.9420 C   0  0  0  0  0  3  0  0  0  0  0  0
  -17.7120  -30.5940   24.1230 C   0  0  0  0  0  3  0  0  0  0  0  0
  -16.6010  -29.8420   23.7020 C   0  0  0  0  0  3  0  0  0  0  0  0
  -16.7920  -28.5900   23.0920 C   0  0  0  0  0  3  0  0  0  0  0  0
  -25.8930  -32.5340   23.8740 C   0  0  0  0  0  3  0  0  0  0  0  0
  -25.5710  -33.9300   24.1950 N   0  0  0  0  0  0  0  0  0  0  0  0
  -25.9150  -34.9820   23.4400 C   0  0  0  0  0  0  0  0  0  0  0  0
  -26.6060  -34.8790   22.4220 O   0  0  0  0  0  0  0  0  0  0  0  0
  -24.9590  -34.0830   24.9830 H   0  0  0  0  0  0  0  0  0  0  0  0
  -24.1880  -36.7660   23.0390 C   0  0  0  0  0  1  0  0  0  0  0  0
  -25.4100  -36.3690   23.8820 C   0  0  0  0  0  3  0  0  0  0  0  0
  -27.5190  -37.2620   24.7670 C   0  0  0  0  0  1  0  0  0  0  0  0
  -26.4410  -37.4250   23.7940 N   0  0  0  0  0  0  0  0  0  0  0  0
  -26.0290  -38.3440   23.9290 H   0  0  0  0  0  0  0  0  0  0  0  0
  -26.4000  -31.7670   25.1570 C   0  0  1  0  0  0  0  0  0  0  0  0
  -25.2950  -31.5190   26.2090 C   0  0  0  0  0  1  0  0  0  0  0  0
  -27.0020  -30.3950   24.7710 C   0  0  0  0  0  1  0  0  0  0  0  0
  -27.5340  -32.5730   25.8340 C   0  0  0  0  0  1  0  0  0  0  0  0
  1  4  1  0
  3  7  1  0
  4  3  1  0
  4  8  1  0
  5  2  1  0
  5  8  1  0
  6  1  1  0
  6 11  1  0
  6  2  1  0
  7 56  1  0
  7  5  1  0
  8  9  1  0
  8 10  1  0
 11 13  1  0
 12 11  1  0
 14 15  1  0
 14 11  1  0
 16 15  1  0
 16 17  1  0
 18 26  1  0
 19 24  1  0
 20 21  1  0
 20 19  1  0
 22 21  1  0
 22 31  1  0
 22 23  1  0
 24 18  1  0
 24 23  1  0
 25 18  2  0
 26 17  1  0
 26 27  1  0
 28 29  2  0
 29 48  1  0
 30 29  1  0
 30 33  1  0
 31 28  1  0
 31 32  1  0
 32 30  2  0
 33 34  1  0
 34 35  2  0
 36 39  1  0
 36 35  1  0
 37 36  2  0
 38 37  1  0
 38 33  2  0
 39 40  1  0
 40 41  1  0
 41 42  2  0
 43 42  1  0
 43 47  1  0
 44 43  2  0
 45 40  2  0
 45 44  1  0
 46 45  1  0
 48 49  1  0
 49 52  1  0
 49 51  1  0
 50 48  2  0
 53 54  1  0
 53 28  1  0
 55 53  1  0
 56 58  1  0
 57 68  2  0
 58 63  1  0
 59 67  1  0
 59 69  1  0
 60 66  1  0
 60 62  1  0
 61 67  1  0
 62 61  1  0
 63 62  2  0
 64 65  1  0
 64 58  2  0
 65 60  2  0
 66 59  1  0
 67 57  1  0
 69 71  2  0
 70 69  1  0
 72 70  1  0
 73 82  2  0
 73 78  1  0
 74 70  1  0
 74 78  1  0
 75 74  1  0
 76 77  1  0
 76 75  1  0
 77 73  1  0
 78 79  2  0
 79 80  1  0
 81 80  2  0
 82 81  1  0
 83 57  1  0
 83 84  1  0
 83 93  1  0
 84 87  1  0
 85 89  1  0
 85 84  1  0
 86 85  2  0
 89 88  1  0
 91 89  1  0
 91 92  1  0
 91 90  1  0
 93 96  1  1
 93 94  1  0
 95 93  1  0
M  ISO  4   7 101  18 100  26 100  56 101
M  END
>  <TORSDO>  (91) 
F 21

>  <SCORE>  (91) 
-13.784

>  <name>  (91) 
90

>  <ligand_id>  (91) 
90

>  <original_smiles>  (91) 
[H]c1c([H])c([H])c2c(c1[H])C([H])([H])C([H])([H])C([H])([H])C2([H])N([H])C(=O)C1([H])N(C(=O)C([H])(N([H])C(=O)C([H])(N([H])C([H])([H])[H])C([H])([H])[H])C(C([H])([H])[H])(C([H])([H])[H])C([H])([H])[H])C([H])([H])c2c([H])c(OC3([H])C([H])([H])C4([H])C([H])([H])C([H])([N+]([H])([H])C([H])([H])C([H])([H])C([H])([H])C([H])([H])N([H])C(=O)N5C([H])([H])C([H])([H])C([H])([H])C([H])(n6nc(-c7c([H])c([H])c(Oc8c([H])c([H])c(F)c([H])c8F)c([H])c7[H])c(C(=O)N([H])[H])c6N([H])[H])C5([H])[H])C([H])([H])C3([H])[N+]4([H])[H])c([H])c([H])c2C1([H])[H]

>  <smiles>  (91) 
[H]c1c([H])c([H])c2c(c1[H])C([H])([H])C([H])([H])C([H])([H])C2([H])N([H])C(=O)C1([H])N(C(=O)C([H])(N([H])C(=O)C([H])(N([H])C([H])([H])[H])C([H])([H])[H])C(C([H])([H])[H])(C([H])([H])[H])C([H])([H])[H])C([H])([H])c2c([H])c(OC3([H])C([H])([H])C4([H])C([H])([H])C([H])([N+]([H])([H])C([H])([H])C([H])([H])C([H])([H])C([H])([H])N([H])C(=O)N5C([H])([H])C([H])([H])C([H])([H])C([H])(n6nc(-c7c([H])c([H])c(Oc8c([H])c([H])c(F)c([H])c8F)c([H])c7[H])c(C(=O)N([H])[H])c6N([H])[H])C5([H])[H])C([H])([H])C3([H])[N+]4([H])[H])c([H])c([H])c2C1([H])[H]

$$$$
91:0:0
     RDKit          3D

 95103  0  0  1  0  0  0  0  0999 V2000
  -30.8990  -19.8230   22.4100 C   0  0  0  0  0  2  0  0  0  0  0  0
  -30.3530  -18.4250   21.9950 C   0  0  0  0  0  2  0  0  0  0  0  0
  -30.9300  -18.8870   19.5570 C   0  0  0  0  0  2  0  0  0  0  0  0
  -30.2180  -21.1030   21.8040 C   0  0  0  0  0  2  0  0  0  0  0  0
  -31.4000  -20.4170   19.7030 C   0  0  0  0  0  2  0  0  0  0  0  0
  -31.0250  -17.7940   20.7390 C   0  0  0  0  0  3  0  0  0  0  0  0
  -30.4130  -21.3840   20.3500 N   0  0  2  0  0  4  0  0  0  0  0  0
  -29.5370  -21.1280   19.9200 H   0  0  0  0  0  0  0  0  0  0  0  0
  -31.1240  -15.1130   20.4640 C   0  0  0  0  0  0  0  0  0  0  0  0
  -30.9200  -12.8560   19.3650 C   0  0  0  0  0  2  0  0  0  0  0  0
  -29.9370  -12.8360   18.1740 C   0  0  0  0  0  2  0  0  0  0  0  0
  -28.4760  -12.6070   18.6270 C   0  0  0  0  0  2  0  0  0  0  0  0
  -28.1010  -13.4130   19.8890 C   0  0  0  0  0  3  0  0  0  0  0  0
  -29.2190  -13.4110   20.9650 C   0  0  0  0  0  2  0  0  0  0  0  0
  -30.4500  -13.8990   20.3130 N   0  0  0  0  0  0  0  0  0  0  0  0
  -32.3540  -15.0970   20.3700 O   0  0  0  0  0  0  0  0  0  0  0  0
  -30.4600  -16.3720   20.4560 N   0  0  0  0  0  0  0  0  0  0  0  0
  -25.7180  -13.9890   20.6460 C   0  0  0  0  0  0  0  0  0  0  0  0
  -24.6620  -13.1960   20.9940 C   0  0  0  0  0  0  0  0  0  0  0  0
  -25.1500  -11.8530   20.9320 C   0  0  0  0  0  0  0  0  0  0  0  0
  -26.7770  -13.1220   20.4080 N   0  0  0  0  0  0  0  0  0  0  0  0
  -26.4410  -11.8370   20.6400 N   0  0  0  0  0  0  0  0  0  0  0  0
  -24.4520  -10.5760   21.0770 C   0  0  0  0  0  0  0  0  0  0  0  0
  -24.8190   -9.6550   22.0810 C   0  0  0  0  0  3  0  0  0  0  0  0
  -24.1240   -8.4350   22.2160 C   0  0  0  0  0  3  0  0  0  0  0  0
  -23.0520   -8.1290   21.3440 C   0  0  0  0  0  0  0  0  0  0  0  0
  -22.7100   -9.0410   20.3280 C   0  0  0  0  0  3  0  0  0  0  0  0
  -23.4040  -10.2520   20.1920 C   0  0  0  0  0  3  0  0  0  0  0  0
  -22.3380   -6.9580   21.3860 O   0  0  0  0  0  0  0  0  0  0  0  0
  -22.0580   -6.3290   22.5730 C   0  0  0  0  0  0  0  0  0  0  0  0
  -21.2720   -6.9420   23.5740 C   0  0  0  0  0  3  0  0  0  0  0  0
  -20.9460   -6.2320   24.7460 C   0  0  0  0  0  3  0  0  0  0  0  0
  -21.3970   -4.9100   24.9200 C   0  0  0  0  0  0  0  0  0  0  0  0
  -22.1780   -4.2970   23.9250 C   0  0  0  0  0  3  0  0  0  0  0  0
  -22.5040   -5.0040   22.7540 C   0  0  0  0  0  0  0  0  0  0  0  0
  -23.2370   -4.3990   21.7870 F   0  0  0  0  0  0  0  0  0  0  0  0
  -21.0760   -4.2270   26.0420 F   0  0  0  0  0  0  0  0  0  0  0  0
  -23.2570  -13.6410   21.2750 C   0  0  0  0  0  0  0  0  0  0  0  0
  -22.5470  -12.9400   22.1510 N   0  0  0  0  0  0  0  0  0  0  0  0
  -22.7970  -14.6590   20.7540 O   0  0  0  0  0  0  0  0  0  0  0  0
  -22.9300  -12.1250   22.6080 H   0  0  0  0  0  0  0  0  0  0  0  0
  -21.6010  -13.2190   22.3630 H   0  0  0  0  0  0  0  0  0  0  0  0
  -25.8660  -15.3690   20.4780 N   0  0  0  0  0  0  0  0  0  0  0  0
  -24.9880  -15.8290   20.6960 H   0  0  0  0  0  0  0  0  0  0  0  0
  -26.5630  -15.7130   21.1280 H   0  0  0  0  0  0  0  0  0  0  0  0
  -29.0450  -16.5400   20.0890 C   0  0  0  0  0  2  0  0  0  0  0  0
  -28.7810  -16.7670   18.5700 C   0  0  0  0  0  2  0  0  0  0  0  0
  -27.3490  -17.0360   18.3190 N   0  0  0  0  0  4  0  0  0  0  0  0
  -26.7600  -16.4550   18.9050 H   0  0  0  0  0  0  0  0  0  0  0  0
  -27.1130  -16.8750   17.3540 H   0  0  0  0  0  0  0  0  0  0  0  0
  -27.1220  -17.9920   18.5300 H   0  0  0  0  0  0  0  0  0  0  0  0
  -30.5560  -22.8840   19.9760 C   0  0  0  0  0  2  0  0  0  0  0  0
  -29.6430  -24.0460   20.6670 C   0  0  0  0  0  2  0  0  0  0  0  0
  -29.3080  -25.4080   19.8410 C   0  0  0  0  0  2  0  0  0  0  0  0
  -29.0010  -26.7200   20.5040 O   0  0  0  0  0  0  0  0  0  0  0  0
  -24.7780  -31.9020   23.2880 C   0  0  0  0  0  0  0  0  0  0  0  0
  -27.8080  -27.4740   20.3620 C   0  0  0  0  0  0  0  0  0  0  0  0
  -23.7330  -30.4440   21.5890 C   0  0  0  0  0  3  0  0  0  0  0  0
  -25.3390  -28.9610   20.2390 C   0  0  0  0  0  0  0  0  0  0  0  0
  -26.2540  -30.8950   21.5210 C   0  0  0  0  0  2  0  0  0  0  0  0
  -26.4440  -29.5120   20.8980 C   0  0  0  0  0  0  0  0  0  0  0  0
  -27.6690  -28.7730   20.9590 C   0  0  0  0  0  3  0  0  0  0  0  0
  -26.6700  -26.9840   19.6770 C   0  0  0  0  0  3  0  0  0  0  0  0
  -25.4570  -27.7050   19.6220 C   0  0  0  0  0  3  0  0  0  0  0  0
  -24.0480  -29.7610   20.2280 C   0  0  0  0  0  2  0  0  0  0  0  0
  -24.9380  -31.0980   22.1940 N   0  0  0  0  0  0  0  0  0  0  0  0
  -23.6550  -32.1220   23.7670 O   0  0  0  0  0  0  0  0  0  0  0  0
  -23.0670  -29.4050   22.5220 C   0  0  0  0  0  0  0  0  0  0  0  0
  -21.7530  -29.1900   22.3460 N   0  0  0  0  0  0  0  0  0  0  0  0
  -23.7350  -28.7890   23.3580 O   0  0  0  0  0  0  0  0  0  0  0  0
  -21.2720  -29.7450   21.6510 H   0  0  0  0  0  0  0  0  0  0  0  0
  -18.3880  -27.9230   22.7600 C   0  0  0  0  0  0  0  0  0  0  0  0
  -20.9380  -28.2130   23.0710 C   0  0  0  0  0  3  0  0  0  0  0  0
  -21.0710  -26.8050   22.4460 C   0  0  0  0  0  2  0  0  0  0  0  0
  -19.9860  -26.5000   21.4080 C   0  0  0  0  0  2  0  0  0  0  0  0
  -18.5950  -26.6010   22.0380 C   0  0  0  0  0  2  0  0  0  0  0  0
  -19.4900  -28.6870   23.2300 C   0  0  0  0  0  0  0  0  0  0  0  0
  -19.2430  -29.9240   23.8640 C   0  0  0  0  0  3  0  0  0  0  0  0
  -17.9290  -30.4010   24.0270 C   0  0  0  0  0  3  0  0  0  0  0  0
  -16.8420  -29.6350   23.5700 C   0  0  0  0  0  3  0  0  0  0  0  0
  -17.0720  -28.3960   22.9460 C   0  0  0  0  0  3  0  0  0  0  0  0
  -25.9920  -32.5950   23.9830 C   0  0  0  0  0  3  0  0  0  0  0  0
  -25.6180  -33.9930   24.2480 N   0  0  0  0  0  0  0  0  0  0  0  0
  -25.9680  -35.0340   23.4800 C   0  0  0  0  0  0  0  0  0  0  0  0
  -26.7050  -34.9190   22.4970 O   0  0  0  0  0  0  0  0  0  0  0  0
  -24.9700  -34.1530   25.0050 H   0  0  0  0  0  0  0  0  0  0  0  0
  -24.2130  -36.7580   22.9510 C   0  0  0  0  0  1  0  0  0  0  0  0
  -25.4090  -36.4190   23.8570 C   0  0  0  0  0  3  0  0  0  0  0  0
  -27.4530  -37.4030   24.8000 C   0  0  0  0  0  1  0  0  0  0  0  0
  -26.4140  -37.5040   23.7780 N   0  0  0  0  0  0  0  0  0  0  0  0
  -25.9680  -38.4140   23.8650 H   0  0  0  0  0  0  0  0  0  0  0  0
  -26.4330  -31.8750   25.3160 C   0  0  1  0  0  0  0  0  0  0  0  0
  -25.2700  -31.6170   26.3030 C   0  0  0  0  0  1  0  0  0  0  0  0
  -27.0920  -30.5130   24.9960 C   0  0  0  0  0  1  0  0  0  0  0  0
  -27.5020  -32.7250   26.0430 C   0  0  0  0  0  1  0  0  0  0  0  0
  2  1  1  0
  3  5  1  0
  3  6  1  0
  4  1  1  0
  5  7  1  0
  6 17  1  0
  6  2  1  0
  7  4  1  0
  7  8  1  6
 10 15  1  0
 11 12  1  0
 11 10  1  0
 13 12  1  0
 13 21  1  0
 13 14  1  0
 15  9  1  0
 15 14  1  0
 16  9  2  0
 17  9  1  0
 18 19  2  0
 19 38  1  0
 20 19  1  0
 20 23  1  0
 21 22  1  0
 21 18  1  0
 22 20  2  0
 23 24  1  0
 24 25  2  0
 26 29  1  0
 26 25  1  0
 27 26  2  0
 28 27  1  0
 28 23  2  0
 29 30  1  0
 30 35  2  0
 30 31  1  0
 31 32  2  0
 32 33  1  0
 33 37  1  0
 34 33  2  0
 35 34  1  0
 36 35  1  0
 38 39  1  0
 39 42  1  0
 39 41  1  0
 40 38  2  0
 43 18  1  0
 43 44  1  0
 43 45  1  0
 46 17  1  0
 47 46  1  0
 48 51  1  0
 48 47  1  0
 48 49  1  0
 50 48  1  0
 52  7  1  0
 52 53  1  0
 54 55  1  0
 54 53  1  0
 56 67  2  0
 57 55  1  0
 57 62  1  0
 58 66  1  0
 58 68  1  0
 59 61  1  0
 60 66  1  0
 61 62  2  0
 61 60  1  0
 63 57  2  0
 64 63  1  0
 64 59  2  0
 65 59  1  0
 65 58  1  0
 66 56  1  0
 68 70  2  0
 69 68  1  0
 71 69  1  0
 72 81  2  0
 72 77  1  0
 73 69  1  0
 73 77  1  0
 74 73  1  0
 75 76  1  0
 75 74  1  0
 76 72  1  0
 77 78  2  0
 78 79  1  0
 80 79  2  0
 81 80  1  0
 82 56  1  0
 82 83  1  0
 82 92  1  0
 83 86  1  0
 84 88  1  0
 84 83  1  0
 85 84  2  0
 88 87  1  0
 90 88  1  0
 90 91  1  0
 90 89  1  0
 92 95  1  1
 92 93  1  0
 94 92  1  0
M  ISO  4   9 100  17 100  54 101  55 101
M  END
>  <TORSDO>  (92) 
F 22

>  <SCORE>  (92) 
-11.902

>  <name>  (92) 
91

>  <ligand_id>  (92) 
91

>  <original_smiles>  (92) 
[H]c1c([H])c([H])c2c(c1[H])C([H])([H])C([H])([H])C([H])([H])C2([H])N([H])C(=O)C1([H])N(C(=O)C([H])(N([H])C(=O)C([H])(N([H])C([H])([H])[H])C([H])([H])[H])C(C([H])([H])[H])(C([H])([H])[H])C([H])([H])[H])C([H])([H])c2c([H])c(OC([H])([H])C([H])([H])C([H])([H])[N+]3([H])C([H])([H])C([H])([H])C([H])([H])C([H])(N(C(=O)N4C([H])([H])C([H])([H])C([H])([H])C([H])(n5nc(-c6c([H])c([H])c(Oc7c([H])c([H])c(F)c([H])c7F)c([H])c6[H])c(C(=O)N([H])[H])c5N([H])[H])C4([H])[H])C([H])([H])C([H])([H])[N+]([H])([H])[H])C([H])([H])C3([H])[H])c([H])c([H])c2C1([H])[H]

>  <smiles>  (92) 
[H]c1c([H])c([H])c2c(c1[H])C([H])([H])C([H])([H])C([H])([H])C2([H])N([H])C(=O)C1([H])N(C(=O)C([H])(N([H])C(=O)C([H])(N([H])C([H])([H])[H])C([H])([H])[H])C(C([H])([H])[H])(C([H])([H])[H])C([H])([H])[H])C([H])([H])c2c([H])c(OC([H])([H])C([H])([H])C([H])([H])[N+]3([H])C([H])([H])C([H])([H])C([H])([H])C([H])(N(C(=O)N4C([H])([H])C([H])([H])C([H])([H])C([H])(n5nc(-c6c([H])c([H])c(Oc7c([H])c([H])c(F)c([H])c7F)c([H])c6[H])c(C(=O)N([H])[H])c5N([H])[H])C4([H])[H])C([H])([H])C([H])([H])[N+]([H])([H])[H])C([H])([H])C3([H])[H])c([H])c([H])c2C1([H])[H]

$$$$
92:0:0
     RDKit          3D

 94102  0  0  1  0  0  0  0  0999 V2000
  -30.4800  -20.9030   18.6840 C   0  0  0  0  0  2  0  0  0  0  0  0
  -31.7410  -20.5730   19.4690 C   0  0  0  0  0  2  0  0  0  0  0  0
  -29.3700  -20.6480   19.6890 C   0  0  0  0  0  3  0  0  0  0  0  0
  -29.9590  -19.2410   20.4080 C   0  0  0  0  0  3  0  0  0  0  0  0
  -31.4210  -19.3640   20.2360 N   0  0  0  0  0  0  0  0  0  0  0  0
  -28.9860  -22.0910   20.4730 C   0  0  0  0  0  3  0  0  0  0  0  0
  -28.7720  -23.6090   19.7720 C   0  0  0  0  0  3  0  0  0  0  0  0
  -28.1970  -24.9620   20.5800 C   0  0  0  0  0  2  0  0  0  0  0  0
  -28.3690  -26.4580   20.2290 O   0  0  0  0  0  0  0  0  0  0  0  0
  -24.6570  -32.0470   23.3260 C   0  0  0  0  0  0  0  0  0  0  0  0
  -27.2750  -27.3870   20.2620 C   0  0  0  0  0  0  0  0  0  0  0  0
  -23.4630  -30.6330   21.6990 C   0  0  0  0  0  3  0  0  0  0  0  0
  -24.9180  -29.0730   20.2690 C   0  0  0  0  0  0  0  0  0  0  0  0
  -26.0120  -30.9340   21.5130 C   0  0  0  0  0  2  0  0  0  0  0  0
  -26.0960  -29.5440   20.8630 C   0  0  0  0  0  0  0  0  0  0  0  0
  -27.2780  -28.7170   20.8380 C   0  0  0  0  0  3  0  0  0  0  0  0
  -26.0680  -27.0060   19.6420 C   0  0  0  0  0  3  0  0  0  0  0  0
  -24.9150  -27.8150   19.6450 C   0  0  0  0  0  3  0  0  0  0  0  0
  -23.6830  -29.9560   20.3210 C   0  0  0  0  0  2  0  0  0  0  0  0
  -24.7310  -31.2280   22.2340 N   0  0  0  0  0  0  0  0  0  0  0  0
  -23.5700  -32.3180   23.8620 O   0  0  0  0  0  0  0  0  0  0  0  0
  -22.8060  -29.6170   22.6670 C   0  0  0  0  0  0  0  0  0  0  0  0
  -21.4920  -29.3790   22.5050 N   0  0  0  0  0  0  0  0  0  0  0  0
  -23.4810  -29.0480   23.5290 O   0  0  0  0  0  0  0  0  0  0  0  0
  -21.0050  -29.8940   21.7860 H   0  0  0  0  0  0  0  0  0  0  0  0
  -18.1780  -27.9730   22.8800 C   0  0  0  0  0  0  0  0  0  0  0  0
  -20.6930  -28.4230   23.2750 C   0  0  0  0  0  3  0  0  0  0  0  0
  -20.9230  -26.9760   22.7800 C   0  0  0  0  0  2  0  0  0  0  0  0
  -19.9050  -26.5320   21.7240 C   0  0  0  0  0  2  0  0  0  0  0  0
  -18.4830  -26.6100   22.2830 C   0  0  0  0  0  2  0  0  0  0  0  0
  -19.2140  -28.8310   23.3320 C   0  0  0  0  0  0  0  0  0  0  0  0
  -18.8760  -30.0990   23.8480 C   0  0  0  0  0  3  0  0  0  0  0  0
  -17.5310  -30.5110   23.9250 C   0  0  0  0  0  3  0  0  0  0  0  0
  -16.5080  -29.6510   23.4880 C   0  0  0  0  0  3  0  0  0  0  0  0
  -16.8300  -28.3870   22.9690 C   0  0  0  0  0  3  0  0  0  0  0  0
  -25.9290  -32.7010   23.9450 C   0  0  0  0  0  3  0  0  0  0  0  0
  -26.4490  -31.9500   25.2350 C   0  0  1  0  0  0  0  0  0  0  0  0
  -25.3510  -31.6920   26.2930 C   0  0  0  0  0  1  0  0  0  0  0  0
  -27.0710  -30.5840   24.8620 C   0  0  0  0  0  1  0  0  0  0  0  0
  -27.5680  -32.7790   25.9060 C   0  0  0  0  0  1  0  0  0  0  0  0
  -25.6040  -34.1000   24.2640 N   0  0  0  0  0  0  0  0  0  0  0  0
  -25.9180  -35.1530   23.4970 C   0  0  0  0  0  0  0  0  0  0  0  0
  -26.5790  -35.0490   22.4590 O   0  0  0  0  0  0  0  0  0  0  0  0
  -25.0130  -34.2510   25.0680 H   0  0  0  0  0  0  0  0  0  0  0  0
  -24.1630  -36.9280   23.1600 C   0  0  0  0  0  1  0  0  0  0  0  0
  -25.4220  -36.5400   23.9510 C   0  0  0  0  0  3  0  0  0  0  0  0
  -27.5570  -37.4670   24.7360 C   0  0  0  0  0  1  0  0  0  0  0  0
  -26.4400  -37.6040   23.8080 N   0  0  0  0  0  0  0  0  0  0  0  0
  -26.0230  -38.5200   23.9470 H   0  0  0  0  0  0  0  0  0  0  0  0
  -29.6880  -17.7160   19.7690 C   0  0  0  0  0  2  0  0  0  0  0  0
  -30.6350  -15.1740   20.1560 C   0  0  0  0  0  0  0  0  0  0  0  0
  -30.5410  -12.8270   19.2440 C   0  0  0  0  0  2  0  0  0  0  0  0
  -29.5800  -12.7970   18.0300 C   0  0  0  0  0  2  0  0  0  0  0  0
  -28.1320  -12.5490   18.4950 C   0  0  0  0  0  2  0  0  0  0  0  0
  -27.7320  -13.4620   19.6850 C   0  0  0  0  0  3  0  0  0  0  0  0
  -28.8150  -13.4830   20.7930 C   0  0  0  0  0  2  0  0  0  0  0  0
  -30.0780  -13.8970   20.1720 N   0  0  0  0  0  0  0  0  0  0  0  0
  -31.7790  -15.2980   19.7130 O   0  0  0  0  0  0  0  0  0  0  0  0
  -29.8580  -16.3100   20.4630 N   0  0  0  0  0  0  0  0  0  0  0  0
  -29.0450  -16.0630   21.0040 H   0  0  0  0  0  0  0  0  0  0  0  0
  -25.3610  -13.9780   20.5190 C   0  0  0  0  0  0  0  0  0  0  0  0
  -24.3180  -13.1750   20.8990 C   0  0  0  0  0  0  0  0  0  0  0  0
  -24.7990  -11.8330   20.7990 C   0  0  0  0  0  0  0  0  0  0  0  0
  -26.4100  -13.1260   20.2140 N   0  0  0  0  0  0  0  0  0  0  0  0
  -26.0800  -11.8290   20.4430 N   0  0  0  0  0  0  0  0  0  0  0  0
  -24.0970  -10.5530   20.9610 C   0  0  0  0  0  0  0  0  0  0  0  0
  -24.5260   -9.5820   21.8940 C   0  0  0  0  0  3  0  0  0  0  0  0
  -23.8150   -8.3720   22.0430 C   0  0  0  0  0  3  0  0  0  0  0  0
  -22.6600   -8.1230   21.2610 C   0  0  0  0  0  0  0  0  0  0  0  0
  -22.2530   -9.0830   20.3190 C   0  0  0  0  0  3  0  0  0  0  0  0
  -22.9650  -10.2830   20.1640 C   0  0  0  0  0  3  0  0  0  0  0  0
  -21.9230   -6.9650   21.3210 O   0  0  0  0  0  0  0  0  0  0  0  0
  -21.8060   -6.2430   22.4820 C   0  0  0  0  0  0  0  0  0  0  0  0
  -21.2430   -6.7980   23.6510 C   0  0  0  0  0  3  0  0  0  0  0  0
  -21.0740   -6.0010   24.7990 C   0  0  0  0  0  3  0  0  0  0  0  0
  -21.4620   -4.6480   24.7830 C   0  0  0  0  0  0  0  0  0  0  0  0
  -22.0220   -4.0930   23.6200 C   0  0  0  0  0  3  0  0  0  0  0  0
  -22.1890   -4.8850   22.4700 C   0  0  0  0  0  0  0  0  0  0  0  0
  -22.7050   -4.3360   21.3450 F   0  0  0  0  0  0  0  0  0  0  0  0
  -21.3000   -3.8790   25.8890 F   0  0  0  0  0  0  0  0  0  0  0  0
  -22.9230  -13.6210   21.2330 C   0  0  0  0  0  0  0  0  0  0  0  0
  -22.2220  -12.8840   22.0860 N   0  0  0  0  0  0  0  0  0  0  0  0
  -22.4580  -14.6630   20.7720 O   0  0  0  0  0  0  0  0  0  0  0  0
  -22.6050  -12.0450   22.4940 H   0  0  0  0  0  0  0  0  0  0  0  0
  -21.2930  -13.1790   22.3520 H   0  0  0  0  0  0  0  0  0  0  0  0
  -25.4930  -15.3570   20.3860 N   0  0  0  0  0  0  0  0  0  0  0  0
  -24.7170  -15.9940   20.5420 H   0  0  0  0  0  0  0  0  0  0  0  0
  -26.3150  -15.8260   20.0320 H   0  0  0  0  0  0  0  0  0  0  0  0
  -32.2140  -19.2620   21.4680 C   0  0  0  0  0  2  0  0  0  0  0  0
  -33.7080  -19.0590   21.1370 C   0  0  0  0  0  2  0  0  0  0  0  0
  -33.8590  -18.0820   20.0490 N   0  0  0  0  0  4  0  0  0  0  0  0
  -33.7340  -17.1380   20.3720 H   0  0  0  0  0  0  0  0  0  0  0  0
  -34.7710  -18.1600   19.6330 H   0  0  0  0  0  0  0  0  0  0  0  0
  -33.1610  -18.2700   19.3480 H   0  0  0  0  0  0  0  0  0  0  0  0
  1  2  1  0
  1  3  1  0
  2  5  1  0
  3  4  1  0
  3  6  1  0
  4 50  1  0
  5  4  1  0
  5 89  1  0
  7  6  2  0
  7  8  1  0
  9 11  1  0
  9  8  1  0
 10 21  2  0
 11 16  1  0
 12 20  1  0
 12 22  1  0
 13 19  1  0
 13 15  1  0
 14 20  1  0
 15 14  1  0
 16 15  2  0
 17 18  1  0
 17 11  2  0
 18 13  2  0
 19 12  1  0
 20 10  1  0
 22 24  2  0
 23 22  1  0
 25 23  1  0
 26 35  2  0
 26 31  1  0
 27 23  1  0
 27 31  1  0
 28 27  1  0
 29 30  1  0
 29 28  1  0
 30 26  1  0
 31 32  2  0
 32 33  1  0
 34 33  2  0
 35 34  1  0
 36 10  1  0
 36 41  1  0
 36 37  1  0
 37 40  1  1
 37 38  1  0
 39 37  1  0
 41 44  1  0
 42 46  1  0
 42 41  1  0
 43 42  2  0
 46 45  1  0
 48 49  1  0
 48 46  1  0
 48 47  1  0
 50 59  1  0
 51 57  1  0
 51 59  1  0
 52 57  1  0
 53 54  1  0
 53 52  1  0
 55 54  1  0
 55 64  1  0
 55 56  1  0
 57 56  1  0
 58 51  2  0
 59 60  1  0
 61 62  2  0
 62 81  1  0
 63 62  1  0
 63 66  1  0
 64 65  1  0
 64 61  1  0
 65 63  2  0
 66 67  1  0
 67 68  2  0
 69 72  1  0
 69 68  1  0
 70 69  2  0
 71 70  1  0
 71 66  2  0
 72 73  1  0
 73 74  1  0
 74 75  2  0
 76 75  1  0
 76 80  1  0
 77 76  2  0
 78 73  2  0
 78 77  1  0
 79 78  1  0
 81 82  1  0
 82 85  1  0
 82 84  1  0
 83 81  2  0
 86 61  1  0
 86 87  1  0
 88 86  1  0
 90 89  1  0
 91 92  1  0
 91 90  1  0
 93 91  1  0
 94 91  1  0
M  ISO  4   8 101   9 101  51 100  59 100
M  END
>  <TORSDO>  (93) 
F 23

>  <SCORE>  (93) 
-12.713

>  <name>  (93) 
92

>  <ligand_id>  (93) 
92

>  <original_smiles>  (93) 
[H]c1c([H])c([H])c2c(c1[H])C([H])([H])C([H])([H])C([H])([H])C2([H])N([H])C(=O)C1([H])N(C(=O)C([H])(N([H])C(=O)C([H])(N([H])C([H])([H])[H])C([H])([H])[H])C(C([H])([H])[H])(C([H])([H])[H])C([H])([H])[H])C([H])([H])c2c([H])c(OC([H])([H])C([H])([H])C([H])([H])C3([H])C([H])([H])C([H])([H])N(C([H])([H])C([H])([H])[N+]([H])([H])[H])C3([H])C([H])([H])N([H])C(=O)N3C([H])([H])C([H])([H])C([H])([H])C([H])(n4nc(-c5c([H])c([H])c(Oc6c([H])c([H])c(F)c([H])c6F)c([H])c5[H])c(C(=O)N([H])[H])c4N([H])[H])C3([H])[H])c([H])c([H])c2C1([H])[H]

>  <smiles>  (93) 
[H]c1c([H])c([H])c2c(c1[H])C([H])([H])C([H])([H])C([H])([H])C2([H])N([H])C(=O)C1([H])N(C(=O)C([H])(N([H])C(=O)C([H])(N([H])C([H])([H])[H])C([H])([H])[H])C(C([H])([H])[H])(C([H])([H])[H])C([H])([H])[H])C([H])([H])c2c([H])c(OC([H])([H])C([H])([H])C([H])([H])C3([H])C([H])([H])C([H])([H])N(C([H])([H])C([H])([H])[N+]([H])([H])[H])C3([H])C([H])([H])N([H])C(=O)N3C([H])([H])C([H])([H])C([H])([H])C([H])(n4nc(-c5c([H])c([H])c(Oc6c([H])c([H])c(F)c([H])c6F)c([H])c5[H])c(C(=O)N([H])[H])c4N([H])[H])C3([H])[H])c([H])c([H])c2C1([H])[H]

$$$$
93:0:0
     RDKit          3D

 88 96  0  0  1  0  0  0  0  0999 V2000
  -29.6130  -23.6450   20.7190 C   0  0  0  0  0  2  0  0  0  0  0  0
  -27.5520  -23.3290   19.5740 C   0  0  0  0  0  2  0  0  0  0  0  0
  -29.9250  -22.0930   20.1820 C   0  0  0  0  0  2  0  0  0  0  0  0
  -27.5820  -21.7360   20.0540 C   0  0  0  0  0  2  0  0  0  0  0  0
  -28.2300  -24.4680   20.4710 C   0  0  0  0  0  3  0  0  0  0  0  0
  -28.8900  -20.9880   20.4030 N   0  0  1  0  0  4  0  0  0  0  0  0
  -28.8480  -20.8940   21.4070 H   0  0  0  0  0  0  0  0  0  0  0  0
  -28.2800  -26.0680   20.2310 O   0  0  0  0  0  0  0  0  0  0  0  0
  -24.6310  -31.8830   23.2350 C   0  0  0  0  0  0  0  0  0  0  0  0
  -27.2040  -27.0650   20.2410 C   0  0  0  0  0  0  0  0  0  0  0  0
  -23.4340  -30.4780   21.6050 C   0  0  0  0  0  3  0  0  0  0  0  0
  -24.8800  -28.8720   20.1960 C   0  0  0  0  0  0  0  0  0  0  0  0
  -25.9930  -30.7170   21.4410 C   0  0  0  0  0  2  0  0  0  0  0  0
  -26.0660  -29.3090   20.8000 C   0  0  0  0  0  0  0  0  0  0  0  0
  -27.2250  -28.4270   20.7930 C   0  0  0  0  0  3  0  0  0  0  0  0
  -25.9840  -26.7480   19.6070 C   0  0  0  0  0  3  0  0  0  0  0  0
  -24.8580  -27.6090   19.5810 C   0  0  0  0  0  3  0  0  0  0  0  0
  -23.6590  -29.7840   20.2330 C   0  0  0  0  0  2  0  0  0  0  0  0
  -24.7070  -31.0510   22.1490 N   0  0  0  0  0  0  0  0  0  0  0  0
  -23.5430  -32.1710   23.7600 O   0  0  0  0  0  0  0  0  0  0  0  0
  -22.7470  -29.4830   22.5760 C   0  0  0  0  0  0  0  0  0  0  0  0
  -21.4180  -29.3150   22.4510 N   0  0  0  0  0  0  0  0  0  0  0  0
  -23.4160  -28.8630   23.4050 O   0  0  0  0  0  0  0  0  0  0  0  0
  -20.9330  -29.8690   21.7570 H   0  0  0  0  0  0  0  0  0  0  0  0
  -18.0390  -28.1050   22.9580 C   0  0  0  0  0  0  0  0  0  0  0  0
  -20.5960  -28.3810   23.2270 C   0  0  0  0  0  3  0  0  0  0  0  0
  -20.7030  -26.9450   22.6640 C   0  0  0  0  0  2  0  0  0  0  0  0
  -19.6050  -26.6110   21.6480 C   0  0  0  0  0  2  0  0  0  0  0  0
  -18.2210  -26.7530   22.2890 C   0  0  0  0  0  2  0  0  0  0  0  0
  -19.1520  -28.8760   23.3840 C   0  0  0  0  0  0  0  0  0  0  0  0
  -18.9260  -30.1390   23.9720 C   0  0  0  0  0  3  0  0  0  0  0  0
  -17.6180  -30.6320   24.1370 C   0  0  0  0  0  3  0  0  0  0  0  0
  -16.5190  -29.8610   23.7260 C   0  0  0  0  0  3  0  0  0  0  0  0
  -16.7290  -28.5990   23.1420 C   0  0  0  0  0  3  0  0  0  0  0  0
  -25.9050  -32.5250   23.8630 C   0  0  0  0  0  3  0  0  0  0  0  0
  -25.5860  -33.9230   24.2010 N   0  0  0  0  0  0  0  0  0  0  0  0
  -25.8990  -34.9850   23.4480 C   0  0  0  0  0  0  0  0  0  0  0  0
  -26.5520  -34.8920   22.4060 O   0  0  0  0  0  0  0  0  0  0  0  0
  -25.0020  -34.0680   25.0120 H   0  0  0  0  0  0  0  0  0  0  0  0
  -24.1490  -36.7720   23.1480 C   0  0  0  0  0  1  0  0  0  0  0  0
  -25.4130  -36.3690   23.9240 C   0  0  0  0  0  3  0  0  0  0  0  0
  -27.5620  -37.2720   24.7030 C   0  0  0  0  0  1  0  0  0  0  0  0
  -26.4340  -37.4330   23.7880 N   0  0  0  0  0  0  0  0  0  0  0  0
  -26.0230  -38.3470   23.9510 H   0  0  0  0  0  0  0  0  0  0  0  0
  -26.4190  -31.7590   25.1440 C   0  0  1  0  0  0  0  0  0  0  0  0
  -25.3240  -31.5230   26.2120 C   0  0  0  0  0  1  0  0  0  0  0  0
  -27.0050  -30.3810   24.7630 C   0  0  0  0  0  1  0  0  0  0  0  0
  -27.5670  -32.5560   25.8070 C   0  0  0  0  0  1  0  0  0  0  0  0
  -29.0300  -19.4190   19.9030 C   0  0  0  0  0  2  0  0  0  0  0  0
  -29.9050  -18.0430   20.5650 C   0  0  0  0  0  2  0  0  0  0  0  0
  -30.4470  -15.1970   20.2710 C   0  0  0  0  0  0  0  0  0  0  0  0
  -30.3850  -12.7840   19.3720 C   0  0  0  0  0  2  0  0  0  0  0  0
  -29.4490  -12.6180   18.1500 C   0  0  0  0  0  2  0  0  0  0  0  0
  -27.9980  -12.3720   18.6040 C   0  0  0  0  0  2  0  0  0  0  0  0
  -27.5660  -13.3360   19.7380 C   0  0  0  0  0  3  0  0  0  0  0  0
  -28.6260  -13.4450   20.8540 C   0  0  0  0  0  2  0  0  0  0  0  0
  -29.8640  -13.9130   20.2100 N   0  0  0  0  0  0  0  0  0  0  0  0
  -31.6700  -15.2160   20.0840 O   0  0  0  0  0  0  0  0  0  0  0  0
  -29.6680  -16.4320   20.3350 N   0  0  0  0  0  0  0  0  0  0  0  0
  -28.6830  -16.2090   20.3480 H   0  0  0  0  0  0  0  0  0  0  0  0
  -25.1970  -13.9070   20.4970 C   0  0  0  0  0  0  0  0  0  0  0  0
  -24.1340  -13.1330   20.8720 C   0  0  0  0  0  0  0  0  0  0  0  0
  -24.5990  -11.7820   20.8430 C   0  0  0  0  0  0  0  0  0  0  0  0
  -26.2380  -13.0290   20.2530 N   0  0  0  0  0  0  0  0  0  0  0  0
  -25.8900  -11.7450   20.5290 N   0  0  0  0  0  0  0  0  0  0  0  0
  -23.8710  -10.5210   21.0330 C   0  0  0  0  0  0  0  0  0  0  0  0
  -24.3000   -9.5510   21.9640 C   0  0  0  0  0  3  0  0  0  0  0  0
  -23.5700   -8.3570   22.1450 C   0  0  0  0  0  3  0  0  0  0  0  0
  -22.3940   -8.1230   21.3920 C   0  0  0  0  0  0  0  0  0  0  0  0
  -21.9840   -9.0820   20.4480 C   0  0  0  0  0  3  0  0  0  0  0  0
  -22.7150  -10.2670   20.2660 C   0  0  0  0  0  3  0  0  0  0  0  0
  -21.6350   -6.9820   21.4810 O   0  0  0  0  0  0  0  0  0  0  0  0
  -21.5890   -6.2370   22.6320 C   0  0  0  0  0  0  0  0  0  0  0  0
  -21.1640   -6.7880   23.8600 C   0  0  0  0  0  3  0  0  0  0  0  0
  -21.0650   -5.9700   25.0030 C   0  0  0  0  0  3  0  0  0  0  0  0
  -21.3800   -4.6010   24.9190 C   0  0  0  0  0  0  0  0  0  0  0  0
  -21.7990   -4.0490   23.6960 C   0  0  0  0  0  3  0  0  0  0  0  0
  -21.8990   -4.8640   22.5540 C   0  0  0  0  0  0  0  0  0  0  0  0
  -22.2820   -4.3220   21.3730 F   0  0  0  0  0  0  0  0  0  0  0  0
  -21.2790   -3.8120   26.0140 F   0  0  0  0  0  0  0  0  0  0  0  0
  -22.7380  -13.6120   21.1400 C   0  0  0  0  0  0  0  0  0  0  0  0
  -22.0090  -12.9210   22.0090 N   0  0  0  0  0  0  0  0  0  0  0  0
  -22.3020  -14.6360   20.6140 O   0  0  0  0  0  0  0  0  0  0  0  0
  -22.3740  -12.0920   22.4550 H   0  0  0  0  0  0  0  0  0  0  0  0
  -21.0720  -13.2250   22.2340 H   0  0  0  0  0  0  0  0  0  0  0  0
  -25.3560  -15.2770   20.3120 N   0  0  0  0  0  0  0  0  0  0  0  0
  -24.5760  -15.9200   20.4030 H   0  0  0  0  0  0  0  0  0  0  0  0
  -26.1790  -15.7100   19.9120 H   0  0  0  0  0  0  0  0  0  0  0  0
  2  4  1  0
  2  5  1  0
  3  6  1  0
  3  1  1  0
  4  6  1  0
  5  8  1  0
  5  1  1  0
  6  7  1  1
  8 10  1  0
  9 20  2  0
 10 15  1  0
 11 19  1  0
 11 21  1  0
 12 18  1  0
 12 14  1  0
 13 19  1  0
 14 13  1  0
 15 14  2  0
 16 10  2  0
 17 16  1  0
 17 12  2  0
 18 11  1  0
 19  9  1  0
 21 23  2  0
 22 21  1  0
 24 22  1  0
 25 34  2  0
 25 30  1  0
 26 22  1  0
 26 30  1  0
 27 26  1  0
 28 29  1  0
 28 27  1  0
 29 25  1  0
 30 31  2  0
 31 32  1  0
 33 32  2  0
 34 33  1  0
 35  9  1  0
 35 36  1  0
 35 45  1  0
 36 39  1  0
 37 41  1  0
 37 36  1  0
 38 37  2  0
 41 40  1  0
 43 41  1  0
 43 44  1  0
 43 42  1  0
 45 48  1  1
 45 46  1  0
 47 45  1  0
 49  6  1  0
 49 50  1  0
 51 59  1  0
 52 57  1  0
 53 54  1  0
 53 52  1  0
 55 54  1  0
 55 64  1  0
 55 56  1  0
 57 51  1  0
 57 56  1  0
 58 51  2  0
 59 60  1  0
 59 50  1  0
 61 62  2  0
 62 81  1  0
 63 62  1  0
 63 66  1  0
 64 61  1  0
 64 65  1  0
 65 63  2  0
 66 67  1  0
 67 68  2  0
 69 72  1  0
 69 68  1  0
 70 69  2  0
 71 70  1  0
 71 66  2  0
 72 73  1  0
 73 74  1  0
 74 75  2  0
 76 75  1  0
 76 80  1  0
 77 76  2  0
 78 73  2  0
 78 77  1  0
 79 78  1  0
 81 82  1  0
 82 85  1  0
 82 84  1  0
 83 81  2  0
 86 87  1  0
 86 61  1  0
 88 86  1  0
M  ISO  4   5 101   8 101  51 100  59 100
M  END
>  <TORSDO>  (94) 
F 18

>  <SCORE>  (94) 
-15.252

>  <name>  (94) 
93

>  <ligand_id>  (94) 
93

>  <original_smiles>  (94) 
[H]c1c([H])c([H])c2c(c1[H])C([H])([H])C([H])([H])C([H])([H])C2([H])N([H])C(=O)C1([H])N(C(=O)C([H])(N([H])C(=O)C([H])(N([H])C([H])([H])[H])C([H])([H])[H])C(C([H])([H])[H])(C([H])([H])[H])C([H])([H])[H])C([H])([H])c2c([H])c(OC3([H])C([H])([H])C([H])([H])[N+]([H])(C([H])([H])C([H])([H])N([H])C(=O)N4C([H])([H])C([H])([H])C([H])([H])C([H])(n5nc(-c6c([H])c([H])c(Oc7c([H])c([H])c(F)c([H])c7F)c([H])c6[H])c(C(=O)N([H])[H])c5N([H])[H])C4([H])[H])C([H])([H])C3([H])[H])c([H])c([H])c2C1([H])[H]

>  <smiles>  (94) 
[H]c1c([H])c([H])c2c(c1[H])C([H])([H])C([H])([H])C([H])([H])C2([H])N([H])C(=O)C1([H])N(C(=O)C([H])(N([H])C(=O)C([H])(N([H])C([H])([H])[H])C([H])([H])[H])C(C([H])([H])[H])(C([H])([H])[H])C([H])([H])[H])C([H])([H])c2c([H])c(OC3([H])C([H])([H])C([H])([H])[N+]([H])(C([H])([H])C([H])([H])N([H])C(=O)N4C([H])([H])C([H])([H])C([H])([H])C([H])(n5nc(-c6c([H])c([H])c(Oc7c([H])c([H])c(F)c([H])c7F)c([H])c6[H])c(C(=O)N([H])[H])c5N([H])[H])C4([H])[H])C([H])([H])C3([H])[H])c([H])c([H])c2C1([H])[H]

$$$$
94:0:0
     RDKit          3D

 96105  0  0  1  0  0  0  0  0999 V2000
  -32.1060  -14.5170   20.0980 C   0  0  0  0  0  0  0  0  0  0  0  0
  -31.7010  -11.9760   20.1590 C   0  0  0  0  0  2  0  0  0  0  0  0
  -30.8930  -11.4660   18.9410 C   0  0  0  0  0  2  0  0  0  0  0  0
  -29.3820  -11.5810   19.2070 C   0  0  0  0  0  2  0  0  0  0  0  0
  -29.0100  -12.9570   19.8110 C   0  0  0  0  0  3  0  0  0  0  0  0
  -29.9400  -13.3610   20.9720 C   0  0  0  0  0  2  0  0  0  0  0  0
  -31.3110  -13.4020   20.4500 N   0  0  0  0  0  0  0  0  0  0  0  0
  -33.2840  -14.2350   19.8380 O   0  0  0  0  0  0  0  0  0  0  0  0
  -29.1260  -17.6790   19.9460 C   0  0  0  0  0  2  0  0  0  0  0  0
  -29.7150  -18.5100   18.8040 C   0  0  0  0  0  2  0  0  0  0  0  0
  -29.6360  -18.0860   21.3310 C   0  0  0  0  0  2  0  0  0  0  0  0
  -31.8700  -17.0090   18.7800 C   0  0  0  0  0  2  0  0  0  0  0  0
  -31.8080  -16.6390   21.2520 C   0  0  0  0  0  2  0  0  0  0  0  0
  -31.2610  -18.6500   18.6840 C   0  0  0  0  0  3  0  0  0  0  0  0
  -30.5170  -17.0330   22.0350 C   0  0  0  0  0  3  0  0  0  0  0  0
  -31.6390  -15.9030   19.9660 N   0  0  0  0  0  0  0  0  0  0  0  0
  -30.8660  -21.4430   17.9710 C   0  0  0  0  0  2  0  0  0  0  0  0
  -32.6430  -20.4970   16.6780 C   0  0  0  0  0  2  0  0  0  0  0  0
  -31.4160  -22.8850   17.4000 C   0  0  0  0  0  2  0  0  0  0  0  0
  -32.5110  -21.7560   15.5940 C   0  0  0  0  0  2  0  0  0  0  0  0
  -31.3810  -19.9710   17.5080 C   0  0  0  0  0  3  0  0  0  0  0  0
  -31.6750  -23.1260   15.8530 C   0  0  0  0  0  3  0  0  0  0  0  0
  -32.1870  -24.5390   15.2860 O   0  0  0  0  0  0  0  0  0  0  0  0
  -34.7150  -30.5970   18.7920 C   0  0  0  0  0  0  0  0  0  0  0  0
  -31.9640  -25.8830   15.8260 C   0  0  0  0  0  0  0  0  0  0  0  0
  -32.2850  -30.1850   18.8240 C   0  0  0  0  0  3  0  0  0  0  0  0
  -31.3980  -28.4550   17.1310 C   0  0  0  0  0  0  0  0  0  0  0  0
  -33.6930  -29.3670   16.8300 C   0  0  0  0  0  2  0  0  0  0  0  0
  -32.6770  -28.2250   16.6070 C   0  0  0  0  0  0  0  0  0  0  0  0
  -32.9470  -26.9620   15.9400 C   0  0  0  0  0  3  0  0  0  0  0  0
  -30.6890  -26.2410   16.3180 C   0  0  0  0  0  3  0  0  0  0  0  0
  -30.4090  -27.4740   16.9570 C   0  0  0  0  0  3  0  0  0  0  0  0
  -31.1350  -29.7600   17.8730 C   0  0  0  0  0  2  0  0  0  0  0  0
  -33.6250  -30.0520   18.1660 N   0  0  0  0  0  0  0  0  0  0  0  0
  -34.6110  -31.1960   19.8750 O   0  0  0  0  0  0  0  0  0  0  0  0
  -32.1770  -29.3890   20.1500 C   0  0  0  0  0  0  0  0  0  0  0  0
  -30.9810  -29.3730   20.7670 N   0  0  0  0  0  0  0  0  0  0  0  0
  -33.1560  -28.7830   20.5920 O   0  0  0  0  0  0  0  0  0  0  0  0
  -30.2290  -29.9070   20.3550 H   0  0  0  0  0  0  0  0  0  0  0  0
  -28.2570  -28.1080   22.8010 C   0  0  0  0  0  0  0  0  0  0  0  0
  -30.6570  -28.6350   21.9930 C   0  0  0  0  0  3  0  0  0  0  0  0
  -30.8080  -27.1090   21.7820 C   0  0  0  0  0  2  0  0  0  0  0  0
  -29.4980  -26.4270   21.3750 C   0  0  0  0  0  2  0  0  0  0  0  0
  -28.4250  -26.6410   22.4450 C   0  0  0  0  0  2  0  0  0  0  0  0
  -29.2990  -29.0470   22.5730 C   0  0  0  0  0  0  0  0  0  0  0  0
  -29.0770  -30.4040   22.8910 C   0  0  0  0  0  3  0  0  0  0  0  0
  -27.8460  -30.8270   23.4270 C   0  0  0  0  0  3  0  0  0  0  0  0
  -26.8230  -29.8900   23.6620 C   0  0  0  0  0  3  0  0  0  0  0  0
  -27.0320  -28.5350   23.3530 C   0  0  0  0  0  3  0  0  0  0  0  0
  -36.1430  -30.5070   18.1730 C   0  0  0  0  0  3  0  0  0  0  0  0
  -36.9180  -29.1930   18.5820 C   0  0  1  0  0  0  0  0  0  0  0  0
  -36.8820  -28.8930   20.1010 C   0  0  0  0  0  1  0  0  0  0  0  0
  -36.3400  -27.9600   17.8490 C   0  0  0  0  0  1  0  0  0  0  0  0
  -38.3990  -29.3050   18.1500 C   0  0  0  0  0  1  0  0  0  0  0  0
  -36.8930  -31.6980   18.6060 N   0  0  0  0  0  0  0  0  0  0  0  0
  -37.2090  -32.7350   17.8170 C   0  0  0  0  0  0  0  0  0  0  0  0
  -36.9440  -32.7610   16.6130 O   0  0  0  0  0  0  0  0  0  0  0  0
  -37.0860  -31.7680   19.5950 H   0  0  0  0  0  0  0  0  0  0  0  0
  -36.9520  -35.0990   18.6560 C   0  0  0  0  0  1  0  0  0  0  0  0
  -37.9350  -33.9320   18.4660 C   0  0  0  0  0  3  0  0  0  0  0  0
  -40.2110  -33.4400   17.6820 C   0  0  0  0  0  1  0  0  0  0  0  0
  -39.1090  -34.3980   17.6960 N   0  0  0  0  0  0  0  0  0  0  0  0
  -39.4570  -35.2760   18.0700 H   0  0  0  0  0  0  0  0  0  0  0  0
  -26.7730  -14.1440   20.1450 C   0  0  0  0  0  0  0  0  0  0  0  0
  -25.5330  -13.6990   20.5080 C   0  0  0  0  0  0  0  0  0  0  0  0
  -25.6750  -12.3010   20.7580 C   0  0  0  0  0  0  0  0  0  0  0  0
  -27.6020  -13.0380   20.1820 N   0  0  0  0  0  0  0  0  0  0  0  0
  -26.9450  -11.9310   20.6160 N   0  0  0  0  0  0  0  0  0  0  0  0
  -24.6610  -11.2830   21.0560 C   0  0  0  0  0  0  0  0  0  0  0  0
  -24.8960  -10.2550   21.9950 C   0  0  0  0  0  3  0  0  0  0  0  0
  -23.8940   -9.3020   22.2770 C   0  0  0  0  0  3  0  0  0  0  0  0
  -22.6420   -9.3710   21.6220 C   0  0  0  0  0  0  0  0  0  0  0  0
  -22.4220  -10.3840   20.6710 C   0  0  0  0  0  3  0  0  0  0  0  0
  -23.4210  -11.3290   20.3860 C   0  0  0  0  0  3  0  0  0  0  0  0
  -21.6200   -8.4740   21.8140 O   0  0  0  0  0  0  0  0  0  0  0  0
  -21.6730   -7.5260   22.8040 C   0  0  0  0  0  0  0  0  0  0  0  0
  -21.5510   -7.8650   24.1690 C   0  0  0  0  0  3  0  0  0  0  0  0
  -21.5410   -6.8510   25.1490 C   0  0  0  0  0  3  0  0  0  0  0  0
  -21.6480   -5.5010   24.7660 C   0  0  0  0  0  0  0  0  0  0  0  0
  -21.7650   -5.1610   23.4070 C   0  0  0  0  0  3  0  0  0  0  0  0
  -21.7770   -6.1700   22.4300 C   0  0  0  0  0  0  0  0  0  0  0  0
  -21.8680   -5.8350   21.1200 F   0  0  0  0  0  0  0  0  0  0  0  0
  -21.6310   -4.5270   25.7060 F   0  0  0  0  0  0  0  0  0  0  0  0
  -24.2690  -14.5100   20.5220 C   0  0  0  0  0  0  0  0  0  0  0  0
  -23.3340  -14.1720   21.4000 N   0  0  0  0  0  0  0  0  0  0  0  0
  -24.1310  -15.4890   19.7880 O   0  0  0  0  0  0  0  0  0  0  0  0
  -23.4570  -13.3810   22.0170 H   0  0  0  0  0  0  0  0  0  0  0  0
  -22.4810  -14.7080   21.4550 H   0  0  0  0  0  0  0  0  0  0  0  0
  -27.2510  -15.3870   19.7550 N   0  0  0  0  0  0  0  0  0  0  0  0
  -26.6480  -16.1990   19.7000 H   0  0  0  0  0  0  0  0  0  0  0  0
  -28.2080  -15.5820   19.4940 H   0  0  0  0  0  0  0  0  0  0  0  0
  -30.8700  -17.5500   23.4540 C   0  0  0  0  0  2  0  0  0  0  0  0
  -29.6760  -17.7720   24.2920 N   0  0  0  0  0  4  0  0  0  0  0  0
  -29.0210  -18.3850   23.8400 H   0  0  0  0  0  0  0  0  0  0  0  0
  -29.9390  -18.1950   25.1640 H   0  0  0  0  0  0  0  0  0  0  0  0
  -29.2170  -16.9020   24.4970 H   0  0  0  0  0  0  0  0  0  0  0  0
  1  7  1  0
  2  7  1  0
  3  4  1  0
  3  2  1  0
  5  4  1  0
  5 67  1  0
  5  6  1  0
  7  6  1  0
  8  1  2  0
  9 11  1  0
 10  9  1  0
 11 15  1  0
 12 16  1  0
 13 15  1  0
 14 12  1  0
 14 10  1  0
 15 92  1  0
 16  1  1  0
 16 13  1  0
 19 17  1  0
 20 22  1  0
 20 18  1  0
 21 18  1  0
 21 17  1  0
 21 14  1  0
 22 23  1  0
 22 19  1  0
 23 25  1  0
 24 35  2  0
 25 30  2  0
 25 31  1  0
 26 36  1  0
 27 33  1  0
 28 34  1  0
 29 28  1  0
 29 27  2  0
 30 29  1  0
 31 32  2  0
 32 27  1  0
 33 26  1  0
 34 24  1  0
 34 26  1  0
 36 38  2  0
 36 37  1  0
 39 37  1  0
 40 49  1  0
 41 37  1  0
 41 45  1  0
 42 41  1  0
 43 42  1  0
 43 44  1  0
 44 40  1  0
 45 40  2  0
 45 46  1  0
 46 47  2  0
 47 48  1  0
 49 48  2  0
 50 51  1  0
 50 55  1  0
 50 24  1  0
 51 52  1  1
 53 51  1  0
 54 51  1  0
 55 58  1  0
 56 60  1  0
 56 55  1  0
 57 56  2  0
 60 59  1  0
 61 62  1  0
 62 63  1  0
 62 60  1  0
 64 67  1  0
 64 65  2  0
 65 84  1  0
 65 66  1  0
 66 69  1  0
 67 68  1  0
 68 66  2  0
 69 70  1  0
 70 71  2  0
 72 75  1  0
 72 71  1  0
 73 72  2  0
 74 73  1  0
 74 69  2  0
 75 76  1  0
 76 77  1  0
 77 78  2  0
 79 78  1  0
 79 83  1  0
 80 79  2  0
 81 76  2  0
 81 80  1  0
 82 81  1  0
 84 85  1  0
 85 88  1  0
 85 87  1  0
 86 84  2  0
 89 64  1  0
 90 89  1  0
 91 89  1  0
 92 93  1  0
 93 96  1  0
 93 95  1  0
 94 93  1  0
M  ISO  4   1 100  16 100  22 101  23 101
M  END
>  <TORSDO>  (95) 
F 18

>  <SCORE>  (95) 
-4.294

>  <name>  (95) 
94

>  <ligand_id>  (95) 
94

>  <original_smiles>  (95) 
[H]c1c([H])c([H])c2c(c1[H])C([H])([H])C([H])([H])C([H])([H])C2([H])N([H])C(=O)C1([H])N(C(=O)C([H])(N([H])C(=O)C([H])(N([H])C([H])([H])[H])C([H])([H])[H])C(C([H])([H])[H])(C([H])([H])[H])C([H])([H])[H])C([H])([H])c2c([H])c(OC3([H])C([H])([H])C([H])([H])C([H])(C4([H])C([H])([H])N(C(=O)N5C([H])([H])C([H])([H])C([H])([H])C([H])(n6nc(-c7c([H])c([H])c(Oc8c([H])c([H])c(F)c([H])c8F)c([H])c7[H])c(C(=O)N([H])[H])c6N([H])[H])C5([H])[H])C([H])([H])C([H])(C([H])([H])[N+]([H])([H])[H])C([H])([H])C([H])([H])C4([H])[H])C([H])([H])C3([H])[H])c([H])c([H])c2C1([H])[H]

>  <smiles>  (95) 
[H]c1c([H])c([H])c2c(c1[H])C([H])([H])C([H])([H])C([H])([H])C2([H])N([H])C(=O)C1([H])N(C(=O)C([H])(N([H])C(=O)C([H])(N([H])C([H])([H])[H])C([H])([H])[H])C(C([H])([H])[H])(C([H])([H])[H])C([H])([H])[H])C([H])([H])c2c([H])c(OC3([H])C([H])([H])C([H])([H])C([H])(C4([H])C([H])([H])N(C(=O)N5C([H])([H])C([H])([H])C([H])([H])C([H])(n6nc(-c7c([H])c([H])c(Oc8c([H])c([H])c(F)c([H])c8F)c([H])c7[H])c(C(=O)N([H])[H])c6N([H])[H])C5([H])[H])C([H])([H])C([H])(C([H])([H])[N+]([H])([H])[H])C([H])([H])C([H])([H])C4([H])[H])C([H])([H])C3([H])[H])c([H])c([H])c2C1([H])[H]

$$$$
95:0:0
     RDKit          3D

 98107  0  0  1  0  0  0  0  0999 V2000
  -24.7010  -20.0450   24.3020 C   0  0  0  0  0  2  0  0  0  0  0  0
  -25.4450  -21.3090   23.8230 C   0  0  0  0  0  2  0  0  0  0  0  0
  -25.6760  -18.9260   24.6810 C   0  0  0  0  0  2  0  0  0  0  0  0
  -26.6420  -19.6090   22.3900 C   0  0  0  0  0  2  0  0  0  0  0  0
  -26.7350  -21.0170   23.0010 C   0  0  0  0  0  3  0  0  0  0  0  0
  -26.5530  -18.5030   23.4750 C   0  0  0  0  0  3  0  0  0  0  0  0
  -26.9020  -23.5160   22.4890 C   0  0  0  0  0  2  0  0  0  0  0  0
  -28.3990  -21.9510   21.2380 C   0  0  0  0  0  2  0  0  0  0  0  0
  -27.0590  -24.5670   21.3970 C   0  0  0  0  0  2  0  0  0  0  0  0
  -28.6000  -23.0090   20.1400 C   0  0  0  0  0  2  0  0  0  0  0  0
  -27.0120  -22.0890   21.9210 C   0  0  0  0  0  3  0  0  0  0  0  0
  -28.4130  -24.4430   20.6780 C   0  0  0  0  0  3  0  0  0  0  0  0
  -28.5940  -25.4970   19.5640 C   0  0  0  0  0  2  0  0  0  0  0  0
  -28.4700  -26.8260   20.0690 O   0  0  0  0  0  0  0  0  0  0  0  0
  -24.6080  -31.8680   23.2130 C   0  0  0  0  0  0  0  0  0  0  0  0
  -27.2550  -27.4830   20.0630 C   0  0  0  0  0  0  0  0  0  0  0  0
  -23.3960  -30.4880   21.5580 C   0  0  0  0  0  3  0  0  0  0  0  0
  -24.8440  -28.9620   20.1180 C   0  0  0  0  0  0  0  0  0  0  0  0
  -25.9200  -30.8460   21.3600 C   0  0  0  0  0  2  0  0  0  0  0  0
  -26.0000  -29.4830   20.7110 C   0  0  0  0  0  0  0  0  0  0  0  0
  -27.2020  -28.7470   20.6890 C   0  0  0  0  0  3  0  0  0  0  0  0
  -26.0750  -26.9740   19.4670 C   0  0  0  0  0  3  0  0  0  0  0  0
  -24.8750  -27.7060   19.4940 C   0  0  0  0  0  3  0  0  0  0  0  0
  -23.5960  -29.8100   20.1760 C   0  0  0  0  0  2  0  0  0  0  0  0
  -24.6610  -31.0790   22.1030 N   0  0  0  0  0  0  0  0  0  0  0  0
  -23.5290  -32.1400   23.7560 O   0  0  0  0  0  0  0  0  0  0  0  0
  -22.7370  -29.4650   22.5090 C   0  0  0  0  0  0  0  0  0  0  0  0
  -21.4110  -29.2980   22.3800 N   0  0  0  0  0  0  0  0  0  0  0  0
  -23.4160  -28.8200   23.3120 O   0  0  0  0  0  0  0  0  0  0  0  0
  -20.9290  -29.8660   21.6960 H   0  0  0  0  0  0  0  0  0  0  0  0
  -18.0240  -28.1330   22.8510 C   0  0  0  0  0  0  0  0  0  0  0  0
  -20.5830  -28.3600   23.1370 C   0  0  0  0  0  3  0  0  0  0  0  0
  -20.6740  -26.9350   22.5450 C   0  0  0  0  0  2  0  0  0  0  0  0
  -19.5720  -26.6370   21.5240 C   0  0  0  0  0  2  0  0  0  0  0  0
  -18.1890  -26.7880   22.1640 C   0  0  0  0  0  2  0  0  0  0  0  0
  -19.1490  -28.8780   23.2940 C   0  0  0  0  0  0  0  0  0  0  0  0
  -18.9420  -30.1390   23.8970 C   0  0  0  0  0  3  0  0  0  0  0  0
  -17.6430  -30.6570   24.0530 C   0  0  0  0  0  3  0  0  0  0  0  0
  -16.5310  -29.9080   23.6300 C   0  0  0  0  0  3  0  0  0  0  0  0
  -16.7230  -28.6470   23.0370 C   0  0  0  0  0  3  0  0  0  0  0  0
  -25.8980  -32.4830   23.8380 C   0  0  0  0  0  3  0  0  0  0  0  0
  -25.5810  -33.8620   24.2300 N   0  0  0  0  0  0  0  0  0  0  0  0
  -25.9010  -34.9480   23.5140 C   0  0  0  0  0  0  0  0  0  0  0  0
  -26.5610  -34.8920   22.4740 O   0  0  0  0  0  0  0  0  0  0  0  0
  -24.9860  -33.9770   25.0370 H   0  0  0  0  0  0  0  0  0  0  0  0
  -24.1480  -36.7320   23.2640 C   0  0  0  0  0  1  0  0  0  0  0  0
  -25.4090  -36.3120   24.0350 C   0  0  0  0  0  3  0  0  0  0  0  0
  -27.5580  -37.1810   24.8450 C   0  0  0  0  0  1  0  0  0  0  0  0
  -26.4280  -37.3800   23.9410 N   0  0  0  0  0  0  0  0  0  0  0  0
  -26.0190  -38.2880   24.1440 H   0  0  0  0  0  0  0  0  0  0  0  0
  -26.4410  -31.6620   25.0690 C   0  0  1  0  0  0  0  0  0  0  0  0
  -25.3690  -31.3760   26.1460 C   0  0  0  0  0  1  0  0  0  0  0  0
  -27.0210  -30.3050   24.6030 C   0  0  0  0  0  1  0  0  0  0  0  0
  -27.6040  -32.4300   25.7380 C   0  0  0  0  0  1  0  0  0  0  0  0
  -27.8940  -18.0530   23.9180 N   0  0  0  0  0  4  0  0  0  0  0  0
  -28.4490  -18.8550   24.1680 H   0  0  0  0  0  0  0  0  0  0  0  0
  -27.7780  -17.5090   24.7590 H   0  0  0  0  0  0  0  0  0  0  0  0
  -28.6080  -17.2180   22.9240 C   0  0  0  0  0  2  0  0  0  0  0  0
  -30.0720  -16.9150   23.2950 C   0  0  0  0  0  2  0  0  0  0  0  0
  -30.8620  -16.3520   22.1020 C   0  0  0  0  0  2  0  0  0  0  0  0
  -30.7720  -14.3330   20.6560 C   0  0  0  0  0  0  0  0  0  0  0  0
  -30.4240  -12.2730   19.3520 C   0  0  0  0  0  2  0  0  0  0  0  0
  -29.4780  -12.5250   18.1660 C   0  0  0  0  0  2  0  0  0  0  0  0
  -28.0040  -12.3890   18.5980 C   0  0  0  0  0  2  0  0  0  0  0  0
  -27.6780  -13.1870   19.8870 C   0  0  0  0  0  3  0  0  0  0  0  0
  -28.7270  -12.8820   20.9810 C   0  0  0  0  0  2  0  0  0  0  0  0
  -30.0620  -13.1970   20.4350 N   0  0  0  0  0  0  0  0  0  0  0  0
  -31.7780  -14.6550   20.0210 O   0  0  0  0  0  0  0  0  0  0  0  0
  -30.3020  -15.0830   21.6530 N   0  0  0  0  0  0  0  0  0  0  0  0
  -29.4780  -14.7210   22.1050 H   0  0  0  0  0  0  0  0  0  0  0  0
  -25.2690  -13.8070   20.5640 C   0  0  0  0  0  0  0  0  0  0  0  0
  -24.1910  -13.0430   20.9170 C   0  0  0  0  0  0  0  0  0  0  0  0
  -24.6390  -11.6860   20.8750 C   0  0  0  0  0  0  0  0  0  0  0  0
  -26.3120  -12.9210   20.3410 N   0  0  0  0  0  0  0  0  0  0  0  0
  -25.9320  -11.6390   20.5780 N   0  0  0  0  0  0  0  0  0  0  0  0
  -23.8990  -10.4300   21.0430 C   0  0  0  0  0  0  0  0  0  0  0  0
  -24.3580   -9.4170   21.9140 C   0  0  0  0  0  3  0  0  0  0  0  0
  -23.6280   -8.2170   22.0680 C   0  0  0  0  0  3  0  0  0  0  0  0
  -22.4220   -8.0270   21.3550 C   0  0  0  0  0  0  0  0  0  0  0  0
  -21.9820   -9.0290   20.4750 C   0  0  0  0  0  3  0  0  0  0  0  0
  -22.7090  -10.2180   20.3180 C   0  0  0  0  0  3  0  0  0  0  0  0
  -21.6600   -6.8850   21.4230 O   0  0  0  0  0  0  0  0  0  0  0  0
  -21.6830   -6.0710   22.5250 C   0  0  0  0  0  0  0  0  0  0  0  0
  -21.4020   -6.5630   23.8200 C   0  0  0  0  0  3  0  0  0  0  0  0
  -21.3690   -5.6790   24.9170 C   0  0  0  0  0  3  0  0  0  0  0  0
  -21.6040   -4.3050   24.7230 C   0  0  0  0  0  0  0  0  0  0  0  0
  -21.8800   -3.8150   23.4350 C   0  0  0  0  0  3  0  0  0  0  0  0
  -21.9170   -4.6940   22.3400 C   0  0  0  0  0  0  0  0  0  0  0  0
  -22.1650   -4.2140   21.0990 F   0  0  0  0  0  0  0  0  0  0  0  0
  -21.5650   -3.4530   25.7740 F   0  0  0  0  0  0  0  0  0  0  0  0
  -22.7970  -13.5300   21.1840 C   0  0  0  0  0  0  0  0  0  0  0  0
  -22.0580  -12.8370   22.0410 N   0  0  0  0  0  0  0  0  0  0  0  0
  -22.3700  -14.5620   20.6690 O   0  0  0  0  0  0  0  0  0  0  0  0
  -22.4150  -12.0080   22.4940 H   0  0  0  0  0  0  0  0  0  0  0  0
  -21.1230  -13.1550   22.2570 H   0  0  0  0  0  0  0  0  0  0  0  0
  -25.4480  -15.1760   20.4060 N   0  0  0  0  0  0  0  0  0  0  0  0
  -24.6790  -15.8310   20.4860 H   0  0  0  0  0  0  0  0  0  0  0  0
  -26.2760  -15.5850   19.9910 H   0  0  0  0  0  0  0  0  0  0  0  0
  1  3  1  0
  2  1  1  0
  4  6  1  0
  5  4  1  0
  5  2  1  0
  6 55  1  0
  6  3  1  0
  9  7  1  0
 10 12  1  0
 10  8  1  0
 11  8  1  0
 11  7  1  0
 11  5  1  0
 12 13  1  0
 12  9  1  0
 13 14  1  0
 15 26  2  0
 16 14  1  0
 16 21  1  0
 17 25  1  0
 17 27  1  0
 18 24  1  0
 18 20  1  0
 19 25  1  0
 20 19  1  0
 21 20  2  0
 22 23  1  0
 22 16  2  0
 23 18  2  0
 24 17  1  0
 25 15  1  0
 27 29  2  0
 28 27  1  0
 30 28  1  0
 31 40  2  0
 31 36  1  0
 32 28  1  0
 32 36  1  0
 33 32  1  0
 34 35  1  0
 34 33  1  0
 35 31  1  0
 36 37  2  0
 37 38  1  0
 39 38  2  0
 40 39  1  0
 41 15  1  0
 41 42  1  0
 41 51  1  0
 42 45  1  0
 43 47  1  0
 43 42  1  0
 44 43  2  0
 47 46  1  0
 49 47  1  0
 49 50  1  0
 49 48  1  0
 51 54  1  1
 51 52  1  0
 53 51  1  0
 55 56  1  0
 55 57  1  0
 58 59  1  0
 58 55  1  0
 60 59  1  0
 61 69  1  0
 62 67  1  0
 63 64  1  0
 63 62  1  0
 65 64  1  0
 65 74  1  0
 65 66  1  0
 67 61  1  0
 67 66  1  0
 68 61  2  0
 69 60  1  0
 69 70  1  0
 71 72  2  0
 72 91  1  0
 73 72  1  0
 73 76  1  0
 74 71  1  0
 74 75  1  0
 75 73  2  0
 76 77  1  0
 77 78  2  0
 79 82  1  0
 79 78  1  0
 80 79  2  0
 81 80  1  0
 81 76  2  0
 82 83  1  0
 83 84  1  0
 84 85  2  0
 86 85  1  0
 86 90  1  0
 87 86  2  0
 88 83  2  0
 88 87  1  0
 89 88  1  0
 91 92  1  0
 92 95  1  0
 92 94  1  0
 93 91  2  0
 96 97  1  0
 96 71  1  0
 98 96  1  0
M  ISO  4  13 101  14 101  61 100  69 100
M  END
>  <TORSDO>  (96) 
F 22

>  <SCORE>  (96) 
54.857

>  <name>  (96) 
95

>  <ligand_id>  (96) 
95

>  <original_smiles>  (96) 
[H]c1c([H])c([H])c2c(c1[H])C([H])([H])C([H])([H])C([H])([H])C2([H])N([H])C(=O)C1([H])N(C(=O)C([H])(N([H])C(=O)C([H])(N([H])C([H])([H])[H])C([H])([H])[H])C(C([H])([H])[H])(C([H])([H])[H])C([H])([H])[H])C([H])([H])c2c([H])c(OC([H])([H])C3([H])C([H])([H])C([H])([H])C([H])(C4([H])C([H])([H])C([H])([H])C([H])([H])C([H])([N+]([H])([H])C([H])([H])C([H])([H])C([H])([H])N([H])C(=O)N5C([H])([H])C([H])([H])C([H])([H])C([H])(n6nc(-c7c([H])c([H])c(Oc8c([H])c([H])c(F)c([H])c8F)c([H])c7[H])c(C(=O)N([H])[H])c6N([H])[H])C5([H])[H])C4([H])[H])C([H])([H])C3([H])[H])c([H])c([H])c2C1([H])[H]

>  <smiles>  (96) 
[H]c1c([H])c([H])c2c(c1[H])C([H])([H])C([H])([H])C([H])([H])C2([H])N([H])C(=O)C1([H])N(C(=O)C([H])(N([H])C(=O)C([H])(N([H])C([H])([H])[H])C([H])([H])[H])C(C([H])([H])[H])(C([H])([H])[H])C([H])([H])[H])C([H])([H])c2c([H])c(OC([H])([H])C3([H])C([H])([H])C([H])([H])C([H])(C4([H])C([H])([H])C([H])([H])C([H])([H])C([H])([N+]([H])([H])C([H])([H])C([H])([H])C([H])([H])N([H])C(=O)N5C([H])([H])C([H])([H])C([H])([H])C([H])(n6nc(-c7c([H])c([H])c(Oc8c([H])c([H])c(F)c([H])c8F)c([H])c7[H])c(C(=O)N([H])[H])c6N([H])[H])C5([H])[H])C4([H])[H])C([H])([H])C3([H])[H])c([H])c([H])c2C1([H])[H]

$$$$
96:0:0
     RDKit          3D

 92101  0  0  1  0  0  0  0  0999 V2000
  -28.1830  -23.0430   21.7960 C   0  0  0  0  0  2  0  0  0  0  0  0
  -29.3610  -22.8650   19.4790 C   0  0  0  0  0  2  0  0  0  0  0  0
  -28.4290  -24.5900   21.7130 C   0  0  0  0  0  2  0  0  0  0  0  0
  -29.5080  -24.4280   19.5490 C   0  0  0  0  0  2  0  0  0  0  0  0
  -28.8380  -22.0880   20.7330 C   0  0  0  0  0  3  0  0  0  0  0  0
  -28.3540  -25.1600   20.2810 C   0  0  0  0  0  3  0  0  0  0  0  0
  -28.4560  -26.6400   20.2310 O   0  0  0  0  0  0  0  0  0  0  0  0
  -24.6090  -31.9240   23.2580 C   0  0  0  0  0  0  0  0  0  0  0  0
  -27.3030  -27.4380   20.1870 C   0  0  0  0  0  0  0  0  0  0  0  0
  -23.4340  -30.5290   21.5930 C   0  0  0  0  0  3  0  0  0  0  0  0
  -24.9140  -29.0140   20.1630 C   0  0  0  0  0  0  0  0  0  0  0  0
  -25.9700  -30.8850   21.4330 C   0  0  0  0  0  2  0  0  0  0  0  0
  -26.0700  -29.5130   20.7740 C   0  0  0  0  0  0  0  0  0  0  0  0
  -27.2650  -28.7370   20.7750 C   0  0  0  0  0  3  0  0  0  0  0  0
  -26.1270  -26.9930   19.5380 C   0  0  0  0  0  3  0  0  0  0  0  0
  -24.9460  -27.7590   19.5320 C   0  0  0  0  0  3  0  0  0  0  0  0
  -23.6670  -29.8700   20.2060 C   0  0  0  0  0  2  0  0  0  0  0  0
  -24.6880  -31.1300   22.1510 N   0  0  0  0  0  0  0  0  0  0  0  0
  -23.5190  -32.1820   23.7870 O   0  0  0  0  0  0  0  0  0  0  0  0
  -22.7780  -29.4950   22.5370 C   0  0  0  0  0  0  0  0  0  0  0  0
  -21.4610  -29.2820   22.3750 N   0  0  0  0  0  0  0  0  0  0  0  0
  -23.4510  -28.8910   23.3770 O   0  0  0  0  0  0  0  0  0  0  0  0
  -20.9790  -29.8200   21.6700 H   0  0  0  0  0  0  0  0  0  0  0  0
  -18.1170  -27.9520   22.7460 C   0  0  0  0  0  0  0  0  0  0  0  0
  -20.6470  -28.3240   23.1260 C   0  0  0  0  0  3  0  0  0  0  0  0
  -20.8380  -26.8900   22.5830 C   0  0  0  0  0  2  0  0  0  0  0  0
  -19.7980  -26.5010   21.5280 C   0  0  0  0  0  2  0  0  0  0  0  0
  -18.3820  -26.6000   22.1070 C   0  0  0  0  0  2  0  0  0  0  0  0
  -19.1820  -28.7670   23.2130 C   0  0  0  0  0  0  0  0  0  0  0  0
  -18.8870  -30.0300   23.7710 C   0  0  0  0  0  3  0  0  0  0  0  0
  -17.5570  -30.4780   23.8720 C   0  0  0  0  0  3  0  0  0  0  0  0
  -16.5040  -29.6590   23.4260 C   0  0  0  0  0  3  0  0  0  0  0  0
  -16.7860  -28.4010   22.8660 C   0  0  0  0  0  3  0  0  0  0  0  0
  -25.8820  -32.5650   23.8940 C   0  0  0  0  0  3  0  0  0  0  0  0
  -25.5480  -33.9550   24.2350 N   0  0  0  0  0  0  0  0  0  0  0  0
  -25.8940  -35.0240   23.5050 C   0  0  0  0  0  0  0  0  0  0  0  0
  -26.5920  -34.9450   22.4920 O   0  0  0  0  0  0  0  0  0  0  0  0
  -24.9190  -34.0900   25.0130 H   0  0  0  0  0  0  0  0  0  0  0  0
  -24.1680  -36.8180   23.1340 C   0  0  0  0  0  1  0  0  0  0  0  0
  -25.3830  -36.3980   23.9770 C   0  0  0  0  0  3  0  0  0  0  0  0
  -27.4820  -37.2720   24.9040 C   0  0  0  0  0  1  0  0  0  0  0  0
  -26.4130  -37.4590   23.9280 N   0  0  0  0  0  0  0  0  0  0  0  0
  -25.9950  -38.3710   24.0890 H   0  0  0  0  0  0  0  0  0  0  0  0
  -26.3990  -31.7890   25.1670 C   0  0  1  0  0  0  0  0  0  0  0  0
  -25.2970  -31.5210   26.2170 C   0  0  0  0  0  1  0  0  0  0  0  0
  -27.0150  -30.4280   24.7700 C   0  0  0  0  0  1  0  0  0  0  0  0
  -27.5210  -32.6010   25.8520 C   0  0  0  0  0  1  0  0  0  0  0  0
  -29.7520  -20.9370   21.3520 C   0  0  0  0  0  2  0  0  0  0  0  0
  -30.0850  -18.5170   20.8300 C   0  0  0  0  0  0  0  0  0  0  0  0
  -29.4470  -18.0250   22.1220 C   0  0  0  0  0  1  0  0  0  0  0  0
  -30.1030  -19.7750   20.4700 N   0  0  0  0  0  0  0  0  0  0  0  0
  -30.8240  -14.8140   19.8820 C   0  0  0  0  0  0  0  0  0  0  0  0
  -30.4820  -12.5480   18.9250 C   0  0  0  0  0  2  0  0  0  0  0  0
  -29.4720  -12.5970   17.7610 C   0  0  0  0  0  2  0  0  0  0  0  0
  -28.0290  -12.4610   18.2930 C   0  0  0  0  0  2  0  0  0  0  0  0
  -27.7300  -13.3480   19.5330 C   0  0  0  0  0  3  0  0  0  0  0  0
  -28.8750  -13.3140   20.5680 C   0  0  0  0  0  2  0  0  0  0  0  0
  -30.1260  -13.6300   19.8640 N   0  0  0  0  0  0  0  0  0  0  0  0
  -32.0370  -14.8150   19.6670 O   0  0  0  0  0  0  0  0  0  0  0  0
  -29.7400  -17.4060   17.8720 C   0  0  0  0  0  2  0  0  0  0  0  0
  -31.0450  -17.7950   18.5460 C   0  0  0  0  0  2  0  0  0  0  0  0
  -29.2030  -16.2590   18.7400 C   0  0  0  0  0  2  0  0  0  0  0  0
  -30.8160  -17.3670   20.0070 C   0  0  0  0  0  3  0  0  0  0  0  0
  -30.1330  -16.0210   19.8620 N   0  0  0  0  0  0  0  0  0  0  0  0
  -25.4130  -13.9390   20.4520 C   0  0  0  0  0  0  0  0  0  0  0  0
  -24.3710  -13.1610   20.8700 C   0  0  0  0  0  0  0  0  0  0  0  0
  -24.8260  -11.8090   20.7690 C   0  0  0  0  0  0  0  0  0  0  0  0
  -26.4320  -13.0590   20.1230 N   0  0  0  0  0  0  0  0  0  0  0  0
  -26.0920  -11.7740   20.3790 N   0  0  0  0  0  0  0  0  0  0  0  0
  -24.1100  -10.5440   20.9670 C   0  0  0  0  0  0  0  0  0  0  0  0
  -24.5640   -9.5800   21.8930 C   0  0  0  0  0  3  0  0  0  0  0  0
  -23.8500   -8.3780   22.0780 C   0  0  0  0  0  3  0  0  0  0  0  0
  -22.6710   -8.1320   21.3370 C   0  0  0  0  0  0  0  0  0  0  0  0
  -22.2390   -9.0840   20.3970 C   0  0  0  0  0  3  0  0  0  0  0  0
  -22.9520  -10.2790   20.2090 C   0  0  0  0  0  3  0  0  0  0  0  0
  -21.9260   -6.9810   21.4340 O   0  0  0  0  0  0  0  0  0  0  0  0
  -21.8350   -6.2820   22.6100 C   0  0  0  0  0  0  0  0  0  0  0  0
  -21.3410   -6.8740   23.7930 C   0  0  0  0  0  3  0  0  0  0  0  0
  -21.1990   -6.0980   24.9620 C   0  0  0  0  0  3  0  0  0  0  0  0
  -21.5420   -4.7330   24.9470 C   0  0  0  0  0  0  0  0  0  0  0  0
  -22.0310   -4.1420   23.7690 C   0  0  0  0  0  3  0  0  0  0  0  0
  -22.1740   -4.9130   22.6040 C   0  0  0  0  0  0  0  0  0  0  0  0
  -22.6250   -4.3340   21.4650 F   0  0  0  0  0  0  0  0  0  0  0  0
  -21.3990   -3.9850   26.0670 F   0  0  0  0  0  0  0  0  0  0  0  0
  -22.9960  -13.6320   21.2440 C   0  0  0  0  0  0  0  0  0  0  0  0
  -22.3250  -12.9120   22.1360 N   0  0  0  0  0  0  0  0  0  0  0  0
  -22.5310  -14.6730   20.7810 O   0  0  0  0  0  0  0  0  0  0  0  0
  -22.7180  -12.0700   22.5280 H   0  0  0  0  0  0  0  0  0  0  0  0
  -21.4080  -13.2080   22.4340 H   0  0  0  0  0  0  0  0  0  0  0  0
  -25.5710  -15.3150   20.3090 N   0  0  0  0  0  0  0  0  0  0  0  0
  -24.8160  -15.9700   20.4800 H   0  0  0  0  0  0  0  0  0  0  0  0
  -26.4160  -15.7640   19.9770 H   0  0  0  0  0  0  0  0  0  0  0  0
  2  4  1  0
  2  5  1  0
  3  1  1  0
  4  6  1  0
  5 48  1  0
  5  1  1  0
  6  7  1  0
  6  3  1  0
  8 19  2  0
  9  7  1  0
  9 14  1  0
 10 18  1  0
 10 20  1  0
 11 17  1  0
 11 13  1  0
 12 18  1  0
 13 14  2  0
 13 12  1  0
 15  9  2  0
 16 15  1  0
 16 11  2  0
 17 10  1  0
 18  8  1  0
 20 22  2  0
 21 20  1  0
 23 21  1  0
 24 33  2  0
 24 29  1  0
 25 21  1  0
 25 29  1  0
 26 25  1  0
 27 28  1  0
 27 26  1  0
 28 24  1  0
 29 30  2  0
 30 31  1  0
 32 31  2  0
 33 32  1  0
 34  8  1  0
 34 35  1  0
 34 44  1  0
 35 38  1  0
 36 40  1  0
 36 35  1  0
 37 36  2  0
 40 39  1  0
 42 40  1  0
 42 43  1  0
 42 41  1  0
 44 47  1  1
 44 45  1  0
 46 44  1  0
 49 50  1  0
 51 49  2  0
 51 48  1  0
 53 58  1  0
 54 55  1  0
 54 53  1  0
 56 55  1  0
 56 68  1  0
 56 57  1  0
 58 52  1  0
 58 57  1  0
 59 52  2  0
 60 61  1  0
 60 62  1  0
 61 63  1  0
 62 64  1  0
 63 49  1  0
 64 52  1  0
 64 63  1  0
 65 66  2  0
 66 85  1  0
 67 66  1  0
 67 70  1  0
 68 69  1  0
 68 65  1  0
 69 67  2  0
 70 71  1  0
 71 72  2  0
 73 76  1  0
 73 72  1  0
 74 73  2  0
 75 74  1  0
 75 70  2  0
 76 77  1  0
 77 78  1  0
 78 79  2  0
 80 79  1  0
 80 84  1  0
 81 80  2  0
 82 77  2  0
 82 81  1  0
 83 82  1  0
 85 86  1  0
 86 89  1  0
 86 88  1  0
 87 85  2  0
 90 65  1  0
 90 91  1  0
 92 90  1  0
M  ISO  4   6 101   7 101  52 100  64 100
M  END
>  <TORSDO>  (97) 
F 18

>  <SCORE>  (97) 
-12.954

>  <name>  (97) 
96

>  <ligand_id>  (97) 
96

>  <original_smiles>  (97) 
[H]c1c([H])c([H])c2c(c1[H])C([H])([H])C([H])([H])C([H])([H])C2([H])N([H])C(=O)C1([H])N(C(=O)C([H])(N([H])C(=O)C([H])(N([H])C([H])([H])[H])C([H])([H])[H])C(C([H])([H])[H])(C([H])([H])[H])C([H])([H])[H])C([H])([H])c2c([H])c(OC3([H])C([H])([H])C([H])([H])C([H])(C([H])([H])N=C(C([H])([H])[H])C4([H])N(C(=O)N5C([H])([H])C([H])([H])C([H])([H])C([H])(n6nc(-c7c([H])c([H])c(Oc8c([H])c([H])c(F)c([H])c8F)c([H])c7[H])c(C(=O)N([H])[H])c6N([H])[H])C5([H])[H])C([H])([H])C([H])([H])C4([H])[H])C([H])([H])C3([H])[H])c([H])c([H])c2C1([H])[H]

>  <smiles>  (97) 
[H]c1c([H])c([H])c2c(c1[H])C([H])([H])C([H])([H])C([H])([H])C2([H])N([H])C(=O)C1([H])N(C(=O)C([H])(N([H])C(=O)C([H])(N([H])C([H])([H])[H])C([H])([H])[H])C(C([H])([H])[H])(C([H])([H])[H])C([H])([H])[H])C([H])([H])c2c([H])c(OC3([H])C([H])([H])C([H])([H])C([H])(C([H])([H])N=C(C([H])([H])[H])C4([H])N(C(=O)N5C([H])([H])C([H])([H])C([H])([H])C([H])(n6nc(-c7c([H])c([H])c(Oc8c([H])c([H])c(F)c([H])c8F)c([H])c7[H])c(C(=O)N([H])[H])c6N([H])[H])C5([H])[H])C([H])([H])C([H])([H])C4([H])[H])C([H])([H])C3([H])[H])c([H])c([H])c2C1([H])[H]

$$$$
97:0:0
     RDKit          3D

 97105  0  0  1  0  0  0  0  0999 V2000
  -30.5720  -21.4010   20.4310 C   0  0  0  0  0  2  0  0  0  0  0  0
  -28.2140  -20.8710   19.9960 C   0  0  0  0  0  2  0  0  0  0  0  0
  -30.8380  -19.8770   20.8810 C   0  0  0  0  0  2  0  0  0  0  0  0
  -28.5020  -19.3580   20.4860 C   0  0  0  0  0  2  0  0  0  0  0  0
  -29.1240  -22.0410   20.5670 C   0  0  0  0  0  3  0  0  0  0  0  0
  -29.9100  -18.8860   20.2350 N   0  0  2  0  0  4  0  0  0  0  0  0
  -29.9200  -19.4860   19.4290 H   0  0  0  0  0  0  0  0  0  0  0  0
  -30.8220  -16.2550   19.3890 C   0  0  0  0  0  0  0  0  0  0  0  0
  -30.3690  -17.6230   19.3380 C   0  0  0  0  0  0  0  0  0  0  0  0
  -31.0830  -15.1220   20.4230 C   0  0  0  0  0  0  0  0  0  0  0  0
  -30.8480  -12.7340   19.6010 C   0  0  0  0  0  2  0  0  0  0  0  0
  -29.9250  -12.5370   18.3710 C   0  0  0  0  0  2  0  0  0  0  0  0
  -28.4560  -12.4170   18.7970 C   0  0  0  0  0  2  0  0  0  0  0  0
  -28.0360  -13.4580   19.8630 C   0  0  0  0  0  3  0  0  0  0  0  0
  -29.0830  -13.5830   20.9910 C   0  0  0  0  0  2  0  0  0  0  0  0
  -30.3670  -13.9220   20.3500 N   0  0  0  0  0  0  0  0  0  0  0  0
  -32.2640  -15.0000   20.7510 O   0  0  0  0  0  0  0  0  0  0  0  0
  -25.6440  -14.0990   20.5310 C   0  0  0  0  0  0  0  0  0  0  0  0
  -24.5490  -13.3490   20.8650 C   0  0  0  0  0  0  0  0  0  0  0  0
  -24.9890  -11.9900   20.8780 C   0  0  0  0  0  0  0  0  0  0  0  0
  -26.6810  -13.2000   20.3530 N   0  0  0  0  0  0  0  0  0  0  0  0
  -26.2930  -11.9280   20.6360 N   0  0  0  0  0  0  0  0  0  0  0  0
  -24.2300  -10.7390   21.0470 C   0  0  0  0  0  0  0  0  0  0  0  0
  -24.5960   -9.7790   22.0150 C   0  0  0  0  0  3  0  0  0  0  0  0
  -23.8420   -8.5970   22.1730 C   0  0  0  0  0  3  0  0  0  0  0  0
  -22.7030   -8.3680   21.3650 C   0  0  0  0  0  0  0  0  0  0  0  0
  -22.3560   -9.3170   20.3870 C   0  0  0  0  0  3  0  0  0  0  0  0
  -23.1130  -10.4900   20.2260 C   0  0  0  0  0  3  0  0  0  0  0  0
  -21.9230   -7.2390   21.4350 O   0  0  0  0  0  0  0  0  0  0  0  0
  -21.7950   -6.5200   22.5980 C   0  0  0  0  0  0  0  0  0  0  0  0
  -21.3160   -7.1070   23.7890 C   0  0  0  0  0  3  0  0  0  0  0  0
  -21.1390   -6.3170   24.9420 C   0  0  0  0  0  3  0  0  0  0  0  0
  -21.4280   -4.9400   24.9030 C   0  0  0  0  0  0  0  0  0  0  0  0
  -21.8980   -4.3510   23.7160 C   0  0  0  0  0  3  0  0  0  0  0  0
  -22.0770   -5.1400   22.5650 C   0  0  0  0  0  0  0  0  0  0  0  0
  -22.5110   -4.5620   21.4200 F   0  0  0  0  0  0  0  0  0  0  0  0
  -21.2480   -4.1790   26.0080 F   0  0  0  0  0  0  0  0  0  0  0  0
  -23.1460  -13.8510   21.0530 C   0  0  0  0  0  0  0  0  0  0  0  0
  -22.3650  -13.1900   21.9010 N   0  0  0  0  0  0  0  0  0  0  0  0
  -22.7500  -14.8660   20.4810 O   0  0  0  0  0  0  0  0  0  0  0  0
  -22.6920  -12.3680   22.3880 H   0  0  0  0  0  0  0  0  0  0  0  0
  -21.4230  -13.5120   22.0680 H   0  0  0  0  0  0  0  0  0  0  0  0
  -25.8500  -15.4610   20.3280 N   0  0  0  0  0  0  0  0  0  0  0  0
  -25.1020  -16.1450   20.3700 H   0  0  0  0  0  0  0  0  0  0  0  0
  -26.7260  -15.8510   20.0080 H   0  0  0  0  0  0  0  0  0  0  0  0
  -32.9890  -16.3090   17.9500 C   0  0  0  0  0  1  0  0  0  0  0  0
  -31.5290  -15.8050   18.0770 C   0  0  0  0  0  2  0  0  0  0  0  0
  -30.2970  -18.3570   17.9610 C   0  0  0  0  0  2  0  0  0  0  0  0
  -28.9750  -18.1780   17.1800 C   0  0  0  0  0  2  0  0  0  0  0  0
  -29.0390  -18.8860   15.8040 C   0  0  0  0  0  2  0  0  0  0  0  0
  -27.7510  -18.9030   15.0930 N   0  0  0  0  0  4  0  0  0  0  0  0
  -27.4290  -17.9740   14.8860 H   0  0  0  0  0  0  0  0  0  0  0  0
  -27.8610  -19.3850   14.2180 H   0  0  0  0  0  0  0  0  0  0  0  0
  -27.0480  -19.3860   15.6230 H   0  0  0  0  0  0  0  0  0  0  0  0
  -28.9840  -23.5920   19.9420 C   0  0  0  0  0  3  0  0  0  0  0  0
  -28.1020  -24.8570   20.5480 C   0  0  0  0  0  3  0  0  0  0  0  0
  -28.2900  -26.3280   20.1630 O   0  0  0  0  0  0  0  0  0  0  0  0
  -24.5850  -31.8660   23.2080 C   0  0  0  0  0  0  0  0  0  0  0  0
  -27.1920  -27.2380   20.1600 C   0  0  0  0  0  0  0  0  0  0  0  0
  -23.3860  -30.4690   21.5680 C   0  0  0  0  0  3  0  0  0  0  0  0
  -24.8350  -28.9070   20.1390 C   0  0  0  0  0  0  0  0  0  0  0  0
  -25.9290  -30.7650   21.3870 C   0  0  0  0  0  2  0  0  0  0  0  0
  -26.0110  -29.3810   20.7380 C   0  0  0  0  0  0  0  0  0  0  0  0
  -27.1930  -28.5620   20.7310 C   0  0  0  0  0  3  0  0  0  0  0  0
  -25.9940  -26.8450   19.5220 C   0  0  0  0  0  3  0  0  0  0  0  0
  -24.8370  -27.6480   19.5180 C   0  0  0  0  0  3  0  0  0  0  0  0
  -23.6020  -29.7940   20.1870 C   0  0  0  0  0  2  0  0  0  0  0  0
  -24.6530  -31.0550   22.1080 N   0  0  0  0  0  0  0  0  0  0  0  0
  -23.5020  -32.1450   23.7420 O   0  0  0  0  0  0  0  0  0  0  0  0
  -22.7200  -29.4540   22.5300 C   0  0  0  0  0  0  0  0  0  0  0  0
  -21.3920  -29.2820   22.4130 N   0  0  0  0  0  0  0  0  0  0  0  0
  -23.3990  -28.8260   23.3480 O   0  0  0  0  0  0  0  0  0  0  0  0
  -20.9040  -29.8310   21.7170 H   0  0  0  0  0  0  0  0  0  0  0  0
  -18.0140  -28.0940   22.9260 C   0  0  0  0  0  0  0  0  0  0  0  0
  -20.5750  -28.3430   23.1840 C   0  0  0  0  0  3  0  0  0  0  0  0
  -20.6750  -26.9170   22.5980 C   0  0  0  0  0  2  0  0  0  0  0  0
  -19.5630  -26.6050   21.5920 C   0  0  0  0  0  2  0  0  0  0  0  0
  -18.1840  -26.7480   22.2430 C   0  0  0  0  0  2  0  0  0  0  0  0
  -19.1370  -28.8510   23.3520 C   0  0  0  0  0  0  0  0  0  0  0  0
  -18.9220  -30.1130   23.9500 C   0  0  0  0  0  3  0  0  0  0  0  0
  -17.6200  -30.6100   24.1390 C   0  0  0  0  0  3  0  0  0  0  0  0
  -16.5120  -29.8500   23.7290 C   0  0  0  0  0  3  0  0  0  0  0  0
  -16.7110  -28.5950   23.1240 C   0  0  0  0  0  3  0  0  0  0  0  0
  -25.8650  -32.5030   23.8300 C   0  0  0  0  0  3  0  0  0  0  0  0
  -26.3750  -31.7380   25.1130 C   0  0  1  0  0  0  0  0  0  0  0  0
  -25.2790  -31.5110   26.1800 C   0  0  0  0  0  1  0  0  0  0  0  0
  -26.9620  -30.3560   24.7330 C   0  0  0  0  0  1  0  0  0  0  0  0
  -27.5240  -32.5340   25.7740 C   0  0  0  0  0  1  0  0  0  0  0  0
  -25.5510  -33.9020   24.1580 N   0  0  0  0  0  0  0  0  0  0  0  0
  -25.9000  -34.9580   23.4080 C   0  0  0  0  0  0  0  0  0  0  0  0
  -26.5850  -34.8560   22.3880 O   0  0  0  0  0  0  0  0  0  0  0  0
  -24.9460  -34.0540   24.9510 H   0  0  0  0  0  0  0  0  0  0  0  0
  -24.1870  -36.7630   23.0310 C   0  0  0  0  0  1  0  0  0  0  0  0
  -25.4090  -36.3450   23.8640 C   0  0  0  0  0  3  0  0  0  0  0  0
  -27.5310  -37.2170   24.7420 C   0  0  0  0  0  1  0  0  0  0  0  0
  -26.4480  -37.3940   23.7770 N   0  0  0  0  0  0  0  0  0  0  0  0
  -26.0420  -38.3130   23.9260 H   0  0  0  0  0  0  0  0  0  0  0  0
  1  5  1  0
  1  3  1  0
  2  4  1  0
  2  5  1  0
  5 55  1  0
  6  4  1  0
  6  3  1  0
  6  7  1  6
  8 10  1  0
  9  8  2  0
  9  6  1  0
 10 17  2  0
 11 16  1  0
 12 13  1  0
 12 11  1  0
 14 13  1  0
 14 21  1  0
 14 15  1  0
 16 10  1  0
 16 15  1  0
 18 19  2  0
 19 20  1  0
 19 38  1  0
 20 23  1  0
 21 18  1  0
 21 22  1  0
 22 20  2  0
 23 24  1  0
 24 25  2  0
 26 29  1  0
 26 25  1  0
 27 26  2  0
 28 27  1  0
 28 23  2  0
 29 30  1  0
 30 31  1  0
 31 32  2  0
 33 32  1  0
 33 37  1  0
 34 33  2  0
 35 30  2  0
 35 34  1  0
 36 35  1  0
 38 39  1  0
 39 42  1  0
 39 41  1  0
 40 38  2  0
 43 44  1  0
 43 18  1  0
 45 43  1  0
 46 47  1  0
 47  8  1  0
 48  9  1  0
 49 48  1  0
 50 49  1  0
 51 54  1  0
 51 50  1  0
 52 51  1  0
 53 51  1  0
 55 56  2  0
 57 56  1  0
 58 69  2  0
 59 57  1  0
 59 64  1  0
 60 68  1  0
 60 70  1  0
 61 67  1  0
 61 63  1  0
 62 68  1  0
 63 62  1  0
 64 63  2  0
 65 59  2  0
 66 65  1  0
 66 61  2  0
 67 60  1  0
 68 58  1  0
 70 72  2  0
 71 70  1  0
 73 71  1  0
 74 83  2  0
 74 79  1  0
 75 71  1  0
 75 79  1  0
 76 75  1  0
 77 78  1  0
 77 76  1  0
 78 74  1  0
 79 80  2  0
 80 81  1  0
 82 81  2  0
 83 82  1  0
 84 58  1  0
 84 89  1  0
 84 85  1  0
 85 88  1  1
 85 86  1  0
 87 85  1  0
 89 92  1  0
 90 94  1  0
 90 89  1  0
 91 90  2  0
 94 93  1  0
 96 94  1  0
 96 97  1  0
 96 95  1  0
M  ISO  4   8 100  10 100  56 101  57 101
M  END
>  <TORSDO>  (98) 
F 24

>  <SCORE>  (98) 
-12.470

>  <name>  (98) 
97

>  <ligand_id>  (98) 
97

>  <original_smiles>  (98) 
[H]c1c([H])c([H])c2c(c1[H])C([H])([H])C([H])([H])C([H])([H])C2([H])N([H])C(=O)C1([H])N(C(=O)C([H])(N([H])C(=O)C([H])(N([H])C([H])([H])[H])C([H])([H])[H])C(C([H])([H])[H])(C([H])([H])[H])C([H])([H])[H])C([H])([H])c2c([H])c(OC([H])([H])C([H])([H])C3([H])C([H])([H])C([H])([H])[N+]([H])(C(=C(C(=O)N4C([H])([H])C([H])([H])C([H])([H])C([H])(n5nc(-c6c([H])c([H])c(Oc7c([H])c([H])c(F)c([H])c7F)c([H])c6[H])c(C(=O)N([H])[H])c5N([H])[H])C4([H])[H])C([H])([H])C([H])([H])[H])C([H])([H])C([H])([H])C([H])([H])[N+]([H])([H])[H])C([H])([H])C3([H])[H])c([H])c([H])c2C1([H])[H]

>  <smiles>  (98) 
[H]c1c([H])c([H])c2c(c1[H])C([H])([H])C([H])([H])C([H])([H])C2([H])N([H])C(=O)C1([H])N(C(=O)C([H])(N([H])C(=O)C([H])(N([H])C([H])([H])[H])C([H])([H])[H])C(C([H])([H])[H])(C([H])([H])[H])C([H])([H])[H])C([H])([H])c2c([H])c(OC([H])([H])C([H])([H])C3([H])C([H])([H])C([H])([H])[N+]([H])(C(=C(C(=O)N4C([H])([H])C([H])([H])C([H])([H])C([H])(n5nc(-c6c([H])c([H])c(Oc7c([H])c([H])c(F)c([H])c7F)c([H])c6[H])c(C(=O)N([H])[H])c5N([H])[H])C4([H])[H])C([H])([H])C([H])([H])[H])C([H])([H])C([H])([H])C([H])([H])[N+]([H])([H])[H])C([H])([H])C3([H])[H])c([H])c([H])c2C1([H])[H]

$$$$
