0:0:0
     RDKit          3D

 90 98  0  0  1  0  0  0  0  0999 V2000
  -29.9440  -21.1250   20.1090 C   0  0  0  0  0  3  0  0  0  0  0  0
  -29.5640  -19.7650   19.5170 N   0  0  0  0  0  4  0  0  0  0  0  0
  -28.7160  -19.4790   19.9780 H   0  0  0  0  0  0  0  0  0  0  0  0
  -29.3370  -19.9020   18.5450 H   0  0  0  0  0  0  0  0  0  0  0  0
  -30.5350  -18.5790   19.5990 C   0  0  0  0  0  2  0  0  0  0  0  0
  -31.2360  -14.8360   19.7680 C   0  0  0  0  0  0  0  0  0  0  0  0
  -30.9840  -12.4900   18.9280 C   0  0  0  0  0  2  0  0  0  0  0  0
  -29.9650  -12.4240   17.7680 C   0  0  0  0  0  2  0  0  0  0  0  0
  -28.5300  -12.2610   18.3050 C   0  0  0  0  0  2  0  0  0  0  0  0
  -28.2110  -13.2490   19.4560 C   0  0  0  0  0  3  0  0  0  0  0  0
  -29.3390  -13.2760   20.5080 C   0  0  0  0  0  2  0  0  0  0  0  0
  -30.6040  -13.6090   19.8260 N   0  0  0  0  0  0  0  0  0  0  0  0
  -32.2800  -14.9670   19.1220 O   0  0  0  0  0  0  0  0  0  0  0  0
  -29.3480  -16.9730   22.0790 C   0  0  0  0  0  2  0  0  0  0  0  0
  -28.7040  -17.1820   20.7110 C   0  0  0  0  0  2  0  0  0  0  0  0
  -30.5870  -16.1100   21.7930 C   0  0  0  0  0  2  0  0  0  0  0  0
  -29.8690  -17.1100   19.7210 C   0  0  0  0  0  3  0  0  0  0  0  0
  -30.6360  -15.9480   20.3370 N   0  0  0  0  0  0  0  0  0  0  0  0
  -25.9210  -13.8650   20.4590 C   0  0  0  0  0  0  0  0  0  0  0  0
  -24.8780  -13.1030   20.9040 C   0  0  0  0  0  0  0  0  0  0  0  0
  -25.2820  -11.7450   20.7310 C   0  0  0  0  0  0  0  0  0  0  0  0
  -26.9080  -12.9750   20.0620 N   0  0  0  0  0  0  0  0  0  0  0  0
  -26.5310  -11.6880   20.2830 N   0  0  0  0  0  0  0  0  0  0  0  0
  -24.5260  -10.4990   20.9070 C   0  0  0  0  0  0  0  0  0  0  0  0
  -24.9020   -9.5360   21.8680 C   0  0  0  0  0  3  0  0  0  0  0  0
  -24.1460   -8.3550   22.0320 C   0  0  0  0  0  3  0  0  0  0  0  0
  -22.9980   -8.1310   21.2350 C   0  0  0  0  0  0  0  0  0  0  0  0
  -22.6420   -9.0810   20.2630 C   0  0  0  0  0  3  0  0  0  0  0  0
  -23.3980  -10.2540   20.0970 C   0  0  0  0  0  3  0  0  0  0  0  0
  -22.2190   -7.0020   21.3060 O   0  0  0  0  0  0  0  0  0  0  0  0
  -21.9620   -6.3800   22.5020 C   0  0  0  0  0  0  0  0  0  0  0  0
  -21.3660   -7.0640   23.5840 C   0  0  0  0  0  3  0  0  0  0  0  0
  -21.0560   -6.3690   24.7700 C   0  0  0  0  0  3  0  0  0  0  0  0
  -21.3310   -4.9920   24.8730 C   0  0  0  0  0  0  0  0  0  0  0  0
  -21.9200   -4.3090   23.7940 C   0  0  0  0  0  3  0  0  0  0  0  0
  -22.2310   -5.0010   22.6100 C   0  0  0  0  0  0  0  0  0  0  0  0
  -22.7790   -4.3340   21.5660 F   0  0  0  0  0  0  0  0  0  0  0  0
  -21.0270   -4.3220   26.0090 F   0  0  0  0  0  0  0  0  0  0  0  0
  -23.5380  -13.6090   21.3560 C   0  0  0  0  0  0  0  0  0  0  0  0
  -22.8960  -12.9040   22.2800 N   0  0  0  0  0  0  0  0  0  0  0  0
  -23.0740  -14.6650   20.9270 O   0  0  0  0  0  0  0  0  0  0  0  0
  -23.2840  -12.0510   22.6530 H   0  0  0  0  0  0  0  0  0  0  0  0
  -22.0000  -13.2240   22.6210 H   0  0  0  0  0  0  0  0  0  0  0  0
  -26.0880  -15.2370   20.3290 N   0  0  0  0  0  0  0  0  0  0  0  0
  -25.3320  -15.8820   20.5320 H   0  0  0  0  0  0  0  0  0  0  0  0
  -26.8670  -15.6750   19.8570 H   0  0  0  0  0  0  0  0  0  0  0  0
  -28.9180  -22.3520   19.8830 C   0  0  0  0  0  3  0  0  0  0  0  0
  -29.2640  -23.8480   20.3830 C   0  0  0  0  0  3  0  0  0  0  0  0
  -28.2240  -25.0170   20.0300 C   0  0  0  0  0  3  0  0  0  0  0  0
  -28.4250  -26.4390   20.4420 O   0  0  0  0  0  0  0  0  0  0  0  0
  -24.7060  -31.8830   23.4380 C   0  0  0  0  0  0  0  0  0  0  0  0
  -27.3230  -27.3190   20.3710 C   0  0  0  0  0  0  0  0  0  0  0  0
  -23.5140  -30.5110   21.7690 C   0  0  0  0  0  3  0  0  0  0  0  0
  -24.9710  -28.9670   20.3440 C   0  0  0  0  0  0  0  0  0  0  0  0
  -26.0610  -30.8070   21.6240 C   0  0  0  0  0  2  0  0  0  0  0  0
  -26.1380  -29.4340   20.9630 C   0  0  0  0  0  0  0  0  0  0  0  0
  -27.3150  -28.6230   20.9670 C   0  0  0  0  0  3  0  0  0  0  0  0
  -26.1320  -26.9190   19.7190 C   0  0  0  0  0  3  0  0  0  0  0  0
  -24.9730  -27.7170   19.7110 C   0  0  0  0  0  3  0  0  0  0  0  0
  -23.7400  -29.8500   20.3850 C   0  0  0  0  0  2  0  0  0  0  0  0
  -24.7790  -31.0850   22.3340 N   0  0  0  0  0  0  0  0  0  0  0  0
  -23.6170  -32.1650   23.9610 O   0  0  0  0  0  0  0  0  0  0  0  0
  -22.8300  -29.4900   22.7110 C   0  0  0  0  0  0  0  0  0  0  0  0
  -21.5160  -29.2830   22.5270 N   0  0  0  0  0  0  0  0  0  0  0  0
  -23.4850  -28.8880   23.5670 O   0  0  0  0  0  0  0  0  0  0  0  0
  -21.0460  -29.8210   21.8110 H   0  0  0  0  0  0  0  0  0  0  0  0
  -18.1460  -28.0160   22.8850 C   0  0  0  0  0  0  0  0  0  0  0  0
  -20.6820  -28.3360   23.2710 C   0  0  0  0  0  3  0  0  0  0  0  0
  -20.8420  -26.9010   22.7200 C   0  0  0  0  0  2  0  0  0  0  0  0
  -19.7970  -26.5400   21.6610 C   0  0  0  0  0  2  0  0  0  0  0  0
  -18.3830  -26.6640   22.2370 C   0  0  0  0  0  2  0  0  0  0  0  0
  -19.2260  -28.8090   23.3570 C   0  0  0  0  0  0  0  0  0  0  0  0
  -18.9530  -30.0730   23.9220 C   0  0  0  0  0  3  0  0  0  0  0  0
  -17.6310  -30.5470   24.0200 C   0  0  0  0  0  3  0  0  0  0  0  0
  -16.5640  -29.7530   23.5670 C   0  0  0  0  0  3  0  0  0  0  0  0
  -16.8220  -28.4890   23.0050 C   0  0  0  0  0  3  0  0  0  0  0  0
  -25.9850  -32.5000   24.0830 C   0  0  0  0  0  3  0  0  0  0  0  0
  -25.7170  -33.9250   24.3240 N   0  0  0  0  0  0  0  0  0  0  0  0
  -26.0990  -34.9200   23.5130 C   0  0  0  0  0  0  0  0  0  0  0  0
  -26.7820  -34.7350   22.5020 O   0  0  0  0  0  0  0  0  0  0  0  0
  -25.1150  -34.1460   25.1030 H   0  0  0  0  0  0  0  0  0  0  0  0
  -24.4350  -36.7450   23.0300 C   0  0  0  0  0  1  0  0  0  0  0  0
  -25.6530  -36.3500   23.8810 C   0  0  0  0  0  3  0  0  0  0  0  0
  -27.8000  -37.2200   24.6930 C   0  0  0  0  0  1  0  0  0  0  0  0
  -26.7200  -37.3600   23.7200 N   0  0  0  0  0  0  0  0  0  0  0  0
  -26.3420  -38.3000   23.7990 H   0  0  0  0  0  0  0  0  0  0  0  0
  -26.4130  -31.7820   25.4220 C   0  0  1  0  0  0  0  0  0  0  0  0
  -25.2600  -31.6290   26.4400 C   0  0  0  0  0  1  0  0  0  0  0  0
  -26.9760  -30.3710   25.1300 C   0  0  0  0  0  1  0  0  0  0  0  0
  -27.5490  -32.5800   26.1040 C   0  0  0  0  0  1  0  0  0  0  0  0
  2  5  1  0
  2  3  1  0
  2  1  1  0
  4  2  1  0
  6 12  1  0
  6 18  1  0
  7 12  1  0
  8  9  1  0
  8  7  1  0
 10  9  1  0
 10 22  1  0
 10 11  1  0
 12 11  1  0
 13  6  2  0
 15 14  1  0
 16 14  1  0
 17  5  1  0
 17 18  1  0
 17 15  1  0
 18 16  1  0
 19 20  2  0
 20 39  1  0
 21 20  1  0
 21 24  1  0
 22 23  1  0
 22 19  1  0
 23 21  2  0
 24 25  1  0
 25 26  2  0
 27 30  1  0
 27 26  1  0
 28 27  2  0
 29 28  1  0
 29 24  2  0
 30 31  1  0
 31 36  2  0
 31 32  1  0
 32 33  2  0
 33 34  1  0
 34 38  1  0
 35 34  2  0
 36 35  1  0
 37 36  1  0
 39 40  1  0
 40 43  1  0
 40 42  1  0
 41 39  2  0
 44 19  1  0
 44 45  1  0
 46 44  1  0
 47  1  2  0
 47 48  1  0
 49 48  2  0
 49 50  1  0
 51 62  2  0
 52 50  1  0
 52 57  1  0
 53 61  1  0
 53 63  1  0
 54 60  1  0
 54 56  1  0
 55 61  1  0
 56 57  2  0
 56 55  1  0
 58 52  2  0
 59 58  1  0
 59 54  2  0
 60 53  1  0
 61 51  1  0
 63 65  2  0
 64 63  1  0
 66 64  1  0
 67 76  2  0
 67 72  1  0
 68 64  1  0
 68 72  1  0
 69 68  1  0
 70 71  1  0
 70 69  1  0
 71 67  1  0
 72 73  2  0
 73 74  1  0
 75 74  2  0
 76 75  1  0
 77 51  1  0
 77 78  1  0
 77 87  1  0
 78 81  1  0
 79 83  1  0
 79 78  1  0
 80 79  2  0
 83 82  1  0
 85 86  1  0
 85 83  1  0
 85 84  1  0
 87 90  1  1
 87 88  1  0
 89 87  1  0
M  ISO  4   6 100  18 100  49 101  50 101
M  END
>  <TORSDO>  (1) 
F 21

>  <SCORE>  (1) 
-11.520

>  <name>  (1) 
0

>  <ligand_id>  (1) 
0

>  <original_smiles>  (1) 
[H]c1c([H])c([H])c2c(c1[H])C([H])([H])C([H])([H])C([H])([H])C2([H])N([H])C(=O)C1([H])N(C(=O)C([H])(N([H])C(=O)C([H])(N([H])C([H])([H])[H])C([H])([H])[H])C(C([H])([H])[H])(C([H])([H])[H])C([H])([H])[H])C([H])([H])c2c([H])c(OC([H])([H])C([H])([H])C([H])([H])C([H])([H])[N+]([H])([H])C([H])([H])C3([H])N(C(=O)N4C([H])([H])C([H])([H])C([H])([H])C([H])(n5nc(-c6c([H])c([H])c(Oc7c([H])c([H])c(F)c([H])c7F)c([H])c6[H])c(C(=O)N([H])[H])c5N([H])[H])C4([H])[H])C([H])([H])C([H])([H])C3([H])[H])c([H])c([H])c2C1([H])[H]

>  <smiles>  (1) 
[H]c1c([H])c([H])c2c(c1[H])C([H])([H])C([H])([H])C([H])([H])C2([H])N([H])C(=O)C1([H])N(C(=O)C([H])(N([H])C(=O)C([H])(N([H])C([H])([H])[H])C([H])([H])[H])C(C([H])([H])[H])(C([H])([H])[H])C([H])([H])[H])C([H])([H])c2c([H])c(OC([H])([H])C([H])([H])C([H])([H])C([H])([H])[N+]([H])([H])C([H])([H])C3([H])N(C(=O)N4C([H])([H])C([H])([H])C([H])([H])C([H])(n5nc(-c6c([H])c([H])c(Oc7c([H])c([H])c(F)c([H])c7F)c([H])c6[H])c(C(=O)N([H])[H])c5N([H])[H])C4([H])[H])C([H])([H])C([H])([H])C3([H])[H])c([H])c([H])c2C1([H])[H]

$$$$
1:0:0
     RDKit          3D

 95104  0  0  1  0  0  0  0  0999 V2000
  -29.9000  -19.6480   19.4800 C   0  0  0  0  0  0  0  0  0  0  0  0
  -31.0860  -23.1520   19.5560 C   0  0  0  0  0  2  0  0  0  0  0  0
  -30.3840  -23.0680   20.8990 C   0  0  0  0  0  2  0  0  0  0  0  0
  -30.6210  -21.9030   18.7730 C   0  0  0  0  0  3  0  0  0  0  0  0
  -29.0460  -22.4970   20.4710 C   0  0  0  0  0  3  0  0  0  0  0  0
  -29.6280  -21.1550   19.6100 N   0  0  0  0  0  0  0  0  0  0  0  0
  -30.4230  -19.3100   18.4110 O   0  0  0  0  0  0  0  0  0  0  0  0
  -30.6290  -15.2750   19.5440 C   0  0  0  0  0  0  0  0  0  0  0  0
  -30.3950  -12.8990   18.4630 C   0  0  0  0  0  2  0  0  0  0  0  0
  -29.2930  -12.8140   17.3710 C   0  0  0  0  0  2  0  0  0  0  0  0
  -27.9220  -12.5090   17.9970 C   0  0  0  0  0  2  0  0  0  0  0  0
  -27.6790  -13.3710   19.2570 C   0  0  0  0  0  3  0  0  0  0  0  0
  -28.8850  -13.3900   20.2160 C   0  0  0  0  0  2  0  0  0  0  0  0
  -30.0340  -13.9650   19.4830 N   0  0  0  0  0  0  0  0  0  0  0  0
  -31.6920  -15.3210   18.9080 O   0  0  0  0  0  0  0  0  0  0  0  0
  -29.7400  -17.2890   22.5820 C   0  0  0  0  0  2  0  0  0  0  0  0
  -29.9630  -18.5490   21.7980 C   0  0  0  0  0  2  0  0  0  0  0  0
  -30.3000  -16.1670   21.7140 C   0  0  0  0  0  2  0  0  0  0  0  0
  -29.6930  -18.1560   20.3460 C   0  0  0  0  0  3  0  0  0  0  0  0
  -30.1030  -16.4780   20.2770 N   0  0  0  0  0  0  0  0  0  0  0  0
  -25.4960  -13.9050   20.4620 C   0  0  0  0  0  0  0  0  0  0  0  0
  -24.4720  -13.1230   20.9160 C   0  0  0  0  0  0  0  0  0  0  0  0
  -24.8600  -11.7730   20.6560 C   0  0  0  0  0  0  0  0  0  0  0  0
  -26.4370  -13.0350   19.9420 N   0  0  0  0  0  0  0  0  0  0  0  0
  -26.0770  -11.7360   20.1240 N   0  0  0  0  0  0  0  0  0  0  0  0
  -24.1110  -10.5190   20.8270 C   0  0  0  0  0  0  0  0  0  0  0  0
  -24.5810   -9.4860   21.6690 C   0  0  0  0  0  3  0  0  0  0  0  0
  -23.8320   -8.3010   21.8340 C   0  0  0  0  0  3  0  0  0  0  0  0
  -22.6010   -8.1390   21.1560 C   0  0  0  0  0  0  0  0  0  0  0  0
  -22.1480   -9.1610   20.3020 C   0  0  0  0  0  3  0  0  0  0  0  0
  -22.8970  -10.3370   20.1360 C   0  0  0  0  0  3  0  0  0  0  0  0
  -21.8190   -7.0110   21.2330 O   0  0  0  0  0  0  0  0  0  0  0  0
  -21.7450   -6.2640   22.3810 C   0  0  0  0  0  0  0  0  0  0  0  0
  -21.3150   -6.8210   23.6050 C   0  0  0  0  0  3  0  0  0  0  0  0
  -21.1860   -6.0010   24.7440 C   0  0  0  0  0  3  0  0  0  0  0  0
  -21.4770   -4.6280   24.6610 C   0  0  0  0  0  0  0  0  0  0  0  0
  -21.9020   -4.0700   23.4420 C   0  0  0  0  0  3  0  0  0  0  0  0
  -22.0330   -4.8870   22.3050 C   0  0  0  0  0  0  0  0  0  0  0  0
  -22.4210   -4.3390   21.1280 F   0  0  0  0  0  0  0  0  0  0  0  0
  -21.3460   -3.8390   25.7540 F   0  0  0  0  0  0  0  0  0  0  0  0
  -23.1650  -13.6090   21.4680 C   0  0  0  0  0  0  0  0  0  0  0  0
  -22.5660  -12.8550   22.3830 N   0  0  0  0  0  0  0  0  0  0  0  0
  -22.6900  -14.6920   21.1270 O   0  0  0  0  0  0  0  0  0  0  0  0
  -22.9670  -11.9780   22.6790 H   0  0  0  0  0  0  0  0  0  0  0  0
  -21.6960  -13.1620   22.7940 H   0  0  0  0  0  0  0  0  0  0  0  0
  -25.6980  -15.2820   20.4200 N   0  0  0  0  0  0  0  0  0  0  0  0
  -24.9990  -15.9410   20.7440 H   0  0  0  0  0  0  0  0  0  0  0  0
  -26.5140  -15.7300   20.0240 H   0  0  0  0  0  0  0  0  0  0  0  0
  -30.0910  -22.1830   17.3400 C   0  0  0  0  0  2  0  0  0  0  0  0
  -31.1040  -22.8080   16.4700 N   0  0  0  0  0  4  0  0  0  0  0  0
  -31.3650  -23.7190   16.8000 H   0  0  0  0  0  0  0  0  0  0  0  0
  -30.7350  -22.9100   15.5410 H   0  0  0  0  0  0  0  0  0  0  0  0
  -31.9270  -22.2340   16.4150 H   0  0  0  0  0  0  0  0  0  0  0  0
  -28.1570  -24.0350   19.9860 C   0  0  0  0  0  2  0  0  0  0  0  0
  -28.2360  -25.6550   20.3920 O   0  0  0  0  0  0  0  0  0  0  0  0
  -24.7070  -31.7670   23.1600 C   0  0  0  0  0  0  0  0  0  0  0  0
  -27.2290  -26.7650   20.2690 C   0  0  0  0  0  0  0  0  0  0  0  0
  -23.4990  -30.3250   21.5740 C   0  0  0  0  0  3  0  0  0  0  0  0
  -24.9320  -28.6680   20.1860 C   0  0  0  0  0  0  0  0  0  0  0  0
  -26.0650  -30.5150   21.4050 C   0  0  0  0  0  2  0  0  0  0  0  0
  -26.1260  -29.0820   20.7880 C   0  0  0  0  0  0  0  0  0  0  0  0
  -27.2630  -28.1510   20.8050 C   0  0  0  0  0  3  0  0  0  0  0  0
  -26.0060  -26.5110   19.6050 C   0  0  0  0  0  3  0  0  0  0  0  0
  -24.8990  -27.4030   19.5720 C   0  0  0  0  0  3  0  0  0  0  0  0
  -23.7160  -29.5960   20.2180 C   0  0  0  0  0  2  0  0  0  0  0  0
  -24.7790  -30.8990   22.0980 N   0  0  0  0  0  0  0  0  0  0  0  0
  -23.6230  -32.0770   23.6790 O   0  0  0  0  0  0  0  0  0  0  0  0
  -22.8060  -29.3640   22.5760 C   0  0  0  0  0  0  0  0  0  0  0  0
  -21.4760  -29.1930   22.4610 N   0  0  0  0  0  0  0  0  0  0  0  0
  -23.4740  -28.7720   23.4280 O   0  0  0  0  0  0  0  0  0  0  0  0
  -20.9890  -29.7210   21.7500 H   0  0  0  0  0  0  0  0  0  0  0  0
  -18.1020  -27.9660   22.9990 C   0  0  0  0  0  0  0  0  0  0  0  0
  -20.6570  -28.2800   23.2660 C   0  0  0  0  0  3  0  0  0  0  0  0
  -20.7810  -26.8260   22.7560 C   0  0  0  0  0  2  0  0  0  0  0  0
  -19.6900  -26.4440   21.7480 C   0  0  0  0  0  2  0  0  0  0  0  0
  -18.3020  -26.5940   22.3780 C   0  0  0  0  0  2  0  0  0  0  0  0
  -19.2080  -28.7630   23.4010 C   0  0  0  0  0  0  0  0  0  0  0  0
  -18.9630  -30.0430   23.9470 C   0  0  0  0  0  3  0  0  0  0  0  0
  -17.6490  -30.5270   24.0900 C   0  0  0  0  0  3  0  0  0  0  0  0
  -16.5600  -29.7290   23.7020 C   0  0  0  0  0  3  0  0  0  0  0  0
  -16.7870  -28.4490   23.1630 C   0  0  0  0  0  3  0  0  0  0  0  0
  -25.9830  -32.4280   23.7650 C   0  0  0  0  0  3  0  0  0  0  0  0
  -26.5110  -31.6860   25.0560 C   0  0  1  0  0  0  0  0  0  0  0  0
  -25.4260  -31.4630   26.1360 C   0  0  0  0  0  1  0  0  0  0  0  0
  -27.1010  -30.3040   24.6980 C   0  0  0  0  0  1  0  0  0  0  0  0
  -27.6620  -32.5000   25.6940 C   0  0  0  0  0  1  0  0  0  0  0  0
  -25.6620  -33.8300   24.0870 N   0  0  0  0  0  0  0  0  0  0  0  0
  -25.9610  -34.8840   23.3140 C   0  0  0  0  0  0  0  0  0  0  0  0
  -26.5980  -34.7770   22.2620 O   0  0  0  0  0  0  0  0  0  0  0  0
  -25.0900  -33.9850   24.9030 H   0  0  0  0  0  0  0  0  0  0  0  0
  -24.1980  -36.6600   23.0250 C   0  0  0  0  0  1  0  0  0  0  0  0
  -25.4820  -36.2750   23.7790 C   0  0  0  0  0  3  0  0  0  0  0  0
  -27.6420  -37.2000   24.4970 C   0  0  0  0  0  1  0  0  0  0  0  0
  -26.4950  -37.3380   23.6020 N   0  0  0  0  0  0  0  0  0  0  0  0
  -26.0870  -38.2570   23.7500 H   0  0  0  0  0  0  0  0  0  0  0  0
  1  6  1  0
  2  3  1  0
  4 49  1  0
  4  2  1  0
  4  6  1  0
  5 54  1  0
  5  3  1  0
  6  5  1  0
  7  1  2  0
  8 20  1  0
  9 14  1  0
 10 11  1  0
 10  9  1  0
 12 11  1  0
 12 24  1  0
 12 13  1  0
 14  8  1  0
 14 13  1  0
 15  8  2  0
 17 16  1  0
 18 16  1  0
 19  1  1  0
 19 17  1  0
 20 19  1  0
 20 18  1  0
 21 22  2  0
 22 41  1  0
 23 26  1  0
 23 22  1  0
 24 25  1  0
 24 21  1  0
 25 23  2  0
 26 27  1  0
 27 28  2  0
 29 32  1  0
 29 28  1  0
 30 29  2  0
 31 30  1  0
 31 26  2  0
 32 33  1  0
 33 34  1  0
 34 35  2  0
 36 35  1  0
 36 40  1  0
 37 36  2  0
 38 33  2  0
 38 37  1  0
 39 38  1  0
 41 42  1  0
 42 44  1  0
 42 45  1  0
 43 41  2  0
 46 21  1  0
 46 47  1  0
 48 46  1  0
 50 51  1  0
 50 49  1  0
 52 50  1  0
 53 50  1  0
 54 55  1  0
 56 67  2  0
 57 55  1  0
 57 62  1  0
 58 66  1  0
 58 68  1  0
 59 65  1  0
 59 61  1  0
 60 66  1  0
 61 62  2  0
 61 60  1  0
 63 57  2  0
 64 63  1  0
 64 59  2  0
 65 58  1  0
 66 56  1  0
 68 70  2  0
 69 68  1  0
 71 69  1  0
 72 81  2  0
 72 77  1  0
 73 69  1  0
 73 77  1  0
 74 73  1  0
 75 76  1  0
 75 74  1  0
 76 72  1  0
 77 78  2  0
 78 79  1  0
 80 79  2  0
 81 80  1  0
 82 56  1  0
 82 87  1  0
 82 83  1  0
 83 86  1  1
 83 84  1  0
 85 83  1  0
 87 90  1  0
 88 92  1  0
 88 87  1  0
 89 88  2  0
 92 91  1  0
 94 95  1  0
 94 92  1  0
 94 93  1  0
M  ISO  4   8 100  20 100  54 101  55 101
M  END
>  <TORSDO>  (2) 
F 19

>  <SCORE>  (2) 
-12.943

>  <name>  (2) 
1

>  <ligand_id>  (2) 
1

>  <original_smiles>  (2) 
[H]c1c([H])c([H])c2c(c1[H])C([H])([H])C([H])([H])C([H])([H])C2([H])N([H])C(=O)C1([H])N(C(=O)C([H])(N([H])C(=O)C([H])(N([H])C([H])([H])[H])C([H])([H])[H])C(C([H])([H])[H])(C([H])([H])[H])C([H])([H])[H])C([H])([H])c2c([H])c(OC([H])([H])C3([H])N(C(=O)C4([H])N(C(=O)N5C([H])([H])C([H])([H])C([H])([H])C([H])(n6nc(-c7c([H])c([H])c(Oc8c([H])c([H])c(F)c([H])c8F)c([H])c7[H])c(C(=O)N([H])[H])c6N([H])[H])C5([H])[H])C([H])([H])C([H])([H])C4([H])[H])C([H])(C([H])([H])[N+]([H])([H])[H])C([H])([H])C3([H])[H])c([H])c([H])c2C1([H])[H]

>  <smiles>  (2) 
[H]c1c([H])c([H])c2c(c1[H])C([H])([H])C([H])([H])C([H])([H])C2([H])N([H])C(=O)C1([H])N(C(=O)C([H])(N([H])C(=O)C([H])(N([H])C([H])([H])[H])C([H])([H])[H])C(C([H])([H])[H])(C([H])([H])[H])C([H])([H])[H])C([H])([H])c2c([H])c(OC([H])([H])C3([H])N(C(=O)C4([H])N(C(=O)N5C([H])([H])C([H])([H])C([H])([H])C([H])(n6nc(-c7c([H])c([H])c(Oc8c([H])c([H])c(F)c([H])c8F)c([H])c7[H])c(C(=O)N([H])[H])c6N([H])[H])C5([H])[H])C([H])([H])C([H])([H])C4([H])[H])C([H])(C([H])([H])[N+]([H])([H])[H])C([H])([H])C3([H])[H])c([H])c([H])c2C1([H])[H]

$$$$
2:0:0
     RDKit          3D

 98106  0  0  1  0  0  0  0  0999 V2000
  -30.7980  -14.7230   20.5400 C   0  0  0  0  0  0  0  0  0  0  0  0
  -30.4680  -12.5460   19.3710 C   0  0  0  0  0  2  0  0  0  0  0  0
  -29.5440  -12.7000   18.1430 C   0  0  0  0  0  2  0  0  0  0  0  0
  -28.0560  -12.6430   18.5530 C   0  0  0  0  0  2  0  0  0  0  0  0
  -27.7120  -13.4450   19.8410 C   0  0  0  0  0  3  0  0  0  0  0  0
  -28.7670  -13.2440   20.9500 C   0  0  0  0  0  2  0  0  0  0  0  0
  -30.0770  -13.5630   20.3680 N   0  0  0  0  0  0  0  0  0  0  0  0
  -32.0280  -14.7120   20.4340 O   0  0  0  0  0  0  0  0  0  0  0  0
  -28.9050  -17.4250   18.7910 C   0  0  0  0  0  2  0  0  0  0  0  0
  -29.8370  -16.2360   19.0080 C   0  0  0  0  0  2  0  0  0  0  0  0
  -30.6100  -17.2450   21.0760 C   0  0  0  0  0  2  0  0  0  0  0  0
  -29.8240  -18.6480   20.7920 C   0  0  0  0  0  3  0  0  0  0  0  0
  -29.5610  -18.7260   19.2580 C   0  0  0  0  0  3  0  0  0  0  0  0
  -30.1320  -15.9450   20.4220 N   0  0  0  0  0  0  0  0  0  0  0  0
  -25.3100  -14.0540   20.4980 C   0  0  0  0  0  0  0  0  0  0  0  0
  -24.2280  -13.2850   20.8330 C   0  0  0  0  0  0  0  0  0  0  0  0
  -24.6880  -11.9340   20.8290 C   0  0  0  0  0  0  0  0  0  0  0  0
  -26.3580  -13.1680   20.3030 N   0  0  0  0  0  0  0  0  0  0  0  0
  -25.9880  -11.8890   20.5670 N   0  0  0  0  0  0  0  0  0  0  0  0
  -23.9510  -10.6730   20.9970 C   0  0  0  0  0  0  0  0  0  0  0  0
  -24.3670   -9.6960   21.9270 C   0  0  0  0  0  3  0  0  0  0  0  0
  -23.6320   -8.5020   22.0850 C   0  0  0  0  0  3  0  0  0  0  0  0
  -22.4680   -8.2770   21.3140 C   0  0  0  0  0  0  0  0  0  0  0  0
  -22.0710   -9.2440   20.3720 C   0  0  0  0  0  3  0  0  0  0  0  0
  -22.8070  -10.4300   20.2110 C   0  0  0  0  0  3  0  0  0  0  0  0
  -21.7070   -7.1350   21.3820 O   0  0  0  0  0  0  0  0  0  0  0  0
  -21.6660   -6.3640   22.5170 C   0  0  0  0  0  0  0  0  0  0  0  0
  -21.2880   -6.9000   23.7660 C   0  0  0  0  0  3  0  0  0  0  0  0
  -21.1910   -6.0590   24.8930 C   0  0  0  0  0  3  0  0  0  0  0  0
  -21.4610   -4.6840   24.7700 C   0  0  0  0  0  0  0  0  0  0  0  0
  -21.8310   -4.1470   23.5250 C   0  0  0  0  0  3  0  0  0  0  0  0
  -21.9300   -4.9840   22.4010 C   0  0  0  0  0  0  0  0  0  0  0  0
  -22.2690   -4.4590   21.1980 F   0  0  0  0  0  0  0  0  0  0  0  0
  -21.3600   -3.8730   25.8500 F   0  0  0  0  0  0  0  0  0  0  0  0
  -22.8240  -13.7700   21.0520 C   0  0  0  0  0  0  0  0  0  0  0  0
  -22.0690  -13.0890   21.9060 N   0  0  0  0  0  0  0  0  0  0  0  0
  -22.4070  -14.7870   20.5010 O   0  0  0  0  0  0  0  0  0  0  0  0
  -22.4160  -12.2660   22.3760 H   0  0  0  0  0  0  0  0  0  0  0  0
  -21.1240  -13.3950   22.0920 H   0  0  0  0  0  0  0  0  0  0  0  0
  -25.4870  -15.4230   20.3230 N   0  0  0  0  0  0  0  0  0  0  0  0
  -24.7250  -16.0840   20.4330 H   0  0  0  0  0  0  0  0  0  0  0  0
  -26.3640  -15.8610   20.0780 H   0  0  0  0  0  0  0  0  0  0  0  0
  -28.7270  -19.8630   18.7900 N   0  0  0  0  0  4  0  0  0  0  0  0
  -28.1870  -20.2740   19.5300 H   0  0  0  0  0  0  0  0  0  0  0  0
  -28.0540  -19.4740   18.1470 H   0  0  0  0  0  0  0  0  0  0  0  0
  -29.4710  -20.8870   18.0170 C   0  0  0  0  0  2  0  0  0  0  0  0
  -28.5510  -21.9680   17.4110 C   0  0  0  0  0  2  0  0  0  0  0  0
  -29.2230  -22.6560   16.3200 N   0  0  0  0  0  0  0  0  0  0  0  0
  -30.0510  -23.1350   16.6660 H   0  0  0  0  0  0  0  0  0  0  0  0
  -28.6310  -23.4080   15.9740 H   0  0  0  0  0  0  0  0  0  0  0  0
  -30.5750  -19.9770   21.3340 C   0  0  0  0  0  2  0  0  0  0  0  0
  -29.8110  -21.2560   21.7030 N   0  0  0  0  0  4  0  0  0  0  0  0
  -30.3000  -21.5810   22.5230 H   0  0  0  0  0  0  0  0  0  0  0  0
  -28.8840  -21.0440   22.0350 H   0  0  0  0  0  0  0  0  0  0  0  0
  -29.7840  -22.4790   20.7860 C   0  0  0  0  0  2  0  0  0  0  0  0
  -29.4830  -23.9230   21.4310 C   0  0  0  0  0  3  0  0  0  0  0  0
  -28.7930  -25.0320   20.5070 C   0  0  0  0  0  3  0  0  0  0  0  0
  -28.7260  -26.4510   20.9500 O   0  0  0  0  0  0  0  0  0  0  0  0
  -24.6490  -31.8830   23.3800 C   0  0  0  0  0  0  0  0  0  0  0  0
  -27.5820  -27.2470   20.7430 C   0  0  0  0  0  0  0  0  0  0  0  0
  -23.5970  -30.3760   21.7310 C   0  0  0  0  0  3  0  0  0  0  0  0
  -25.1820  -28.7990   20.4870 C   0  0  0  0  0  0  0  0  0  0  0  0
  -26.1360  -30.7470   21.7170 C   0  0  0  0  0  2  0  0  0  0  0  0
  -26.2900  -29.3420   21.1470 C   0  0  0  0  0  0  0  0  0  0  0  0
  -27.4870  -28.5760   21.2720 C   0  0  0  0  0  3  0  0  0  0  0  0
  -26.4540  -26.7710   20.0320 C   0  0  0  0  0  3  0  0  0  0  0  0
  -25.2660  -27.5190   19.9220 C   0  0  0  0  0  3  0  0  0  0  0  0
  -23.9230  -29.6390   20.4060 C   0  0  0  0  0  2  0  0  0  0  0  0
  -24.8080  -31.0240   22.3330 N   0  0  0  0  0  0  0  0  0  0  0  0
  -23.5240  -32.1600   23.8210 O   0  0  0  0  0  0  0  0  0  0  0  0
  -22.8880  -29.3910   22.6910 C   0  0  0  0  0  0  0  0  0  0  0  0
  -21.5690  -29.2130   22.5100 N   0  0  0  0  0  0  0  0  0  0  0  0
  -23.5270  -28.7870   23.5580 O   0  0  0  0  0  0  0  0  0  0  0  0
  -21.1130  -29.7550   21.7890 H   0  0  0  0  0  0  0  0  0  0  0  0
  -18.1560  -28.0890   22.9290 C   0  0  0  0  0  0  0  0  0  0  0  0
  -20.7100  -28.3020   23.2690 C   0  0  0  0  0  3  0  0  0  0  0  0
  -20.8000  -26.8600   22.7170 C   0  0  0  0  0  2  0  0  0  0  0  0
  -19.7220  -26.5440   21.6750 C   0  0  0  0  0  2  0  0  0  0  0  0
  -18.3250  -26.7260   22.2780 C   0  0  0  0  0  2  0  0  0  0  0  0
  -19.2770  -28.8350   23.3800 C   0  0  0  0  0  0  0  0  0  0  0  0
  -19.0670  -30.1110   23.9460 C   0  0  0  0  0  3  0  0  0  0  0  0
  -17.7680  -30.6400   24.0670 C   0  0  0  0  0  3  0  0  0  0  0  0
  -16.6610  -29.8900   23.6340 C   0  0  0  0  0  3  0  0  0  0  0  0
  -16.8560  -28.6160   23.0710 C   0  0  0  0  0  3  0  0  0  0  0  0
  -25.8700  -32.5760   24.0610 C   0  0  0  0  0  3  0  0  0  0  0  0
  -25.5070  -33.9800   24.2970 N   0  0  0  0  0  0  0  0  0  0  0  0
  -25.8680  -35.0030   23.5110 C   0  0  0  0  0  0  0  0  0  0  0  0
  -26.6080  -34.8650   22.5330 O   0  0  0  0  0  0  0  0  0  0  0  0
  -24.8510  -34.1590   25.0430 H   0  0  0  0  0  0  0  0  0  0  0  0
  -24.1260  -36.7320   22.9610 C   0  0  0  0  0  1  0  0  0  0  0  0
  -25.3230  -36.3990   23.8670 C   0  0  0  0  0  3  0  0  0  0  0  0
  -27.3830  -37.3750   24.7810 C   0  0  0  0  0  1  0  0  0  0  0  0
  -26.3370  -37.4710   23.7660 N   0  0  0  0  0  0  0  0  0  0  0  0
  -25.9030  -38.3870   23.8440 H   0  0  0  0  0  0  0  0  0  0  0  0
  -26.3060  -31.8810   25.4090 C   0  0  1  0  0  0  0  0  0  0  0  0
  -25.1410  -31.6670   26.4030 C   0  0  0  0  0  1  0  0  0  0  0  0
  -26.9490  -30.5010   25.1310 C   0  0  0  0  0  1  0  0  0  0  0  0
  -27.3830  -32.7380   26.1140 C   0  0  0  0  0  1  0  0  0  0  0  0
  2  7  1  0
  3  4  1  0
  3  2  1  0
  5  4  1  0
  5 18  1  0
  5  6  1  0
  7  1  1  0
  7  6  1  0
  8  1  2  0
  9 10  1  0
  9 13  1  0
 10 14  1  0
 12 11  1  0
 12 51  1  0
 13 43  1  0
 13 12  1  0
 14  1  1  0
 14 11  1  0
 15 16  2  0
 16 35  1  0
 17 16  1  0
 17 20  1  0
 18 15  1  0
 18 19  1  0
 19 17  2  0
 20 21  1  0
 21 22  2  0
 23 26  1  0
 23 22  1  0
 24 23  2  0
 25 24  1  0
 25 20  2  0
 26 27  1  0
 27 28  1  0
 28 29  2  0
 30 29  1  0
 30 34  1  0
 31 30  2  0
 32 27  2  0
 32 31  1  0
 33 32  1  0
 35 36  1  0
 36 39  1  0
 36 38  1  0
 37 35  2  0
 40 41  1  0
 40 15  1  0
 42 40  1  0
 43 44  1  0
 45 43  1  0
 46 43  1  0
 47 46  1  0
 48 49  1  0
 48 47  1  0
 50 48  1  0
 51 52  1  0
 52 54  1  0
 52 53  1  0
 55 56  1  0
 55 52  1  0
 57 58  1  0
 57 56  2  0
 59 70  2  0
 60 58  1  0
 60 65  1  0
 61 69  1  0
 61 71  1  0
 62 64  1  0
 63 69  1  0
 64 65  2  0
 64 63  1  0
 66 60  2  0
 67 66  1  0
 67 62  2  0
 68 62  1  0
 68 61  1  0
 69 59  1  0
 71 73  2  0
 72 71  1  0
 74 72  1  0
 75 84  2  0
 75 80  1  0
 76 72  1  0
 76 80  1  0
 77 76  1  0
 78 79  1  0
 78 77  1  0
 79 75  1  0
 80 81  2  0
 81 82  1  0
 83 82  2  0
 84 83  1  0
 85 59  1  0
 85 86  1  0
 85 95  1  0
 86 89  1  0
 87 91  1  0
 87 86  1  0
 88 87  2  0
 91 90  1  0
 93 94  1  0
 93 91  1  0
 93 92  1  0
 95 98  1  1
 95 96  1  0
 97 95  1  0
M  ISO  4   1 100  14 100  57 101  58 101
M  END
>  <TORSDO>  (3) 
F 24

>  <SCORE>  (3) 
-12.672

>  <name>  (3) 
2

>  <ligand_id>  (3) 
2

>  <original_smiles>  (3) 
[H]c1c([H])c([H])c2c(c1[H])C([H])([H])C([H])([H])C([H])([H])C2([H])N([H])C(=O)C1([H])N(C(=O)C([H])(N([H])C(=O)C([H])(N([H])C([H])([H])[H])C([H])([H])[H])C(C([H])([H])[H])(C([H])([H])[H])C([H])([H])[H])C([H])([H])c2c([H])c(OC([H])([H])C([H])([H])C([H])([H])[N+]([H])([H])C([H])([H])C3([H])C([H])([H])N(C(=O)N4C([H])([H])C([H])([H])C([H])([H])C([H])(n5nc(-c6c([H])c([H])c(Oc7c([H])c([H])c(F)c([H])c7F)c([H])c6[H])c(C(=O)N([H])[H])c5N([H])[H])C4([H])[H])C([H])([H])C([H])([H])C3([H])[N+]([H])([H])C([H])([H])C([H])([H])N([H])[H])c([H])c([H])c2C1([H])[H]

>  <smiles>  (3) 
[H]c1c([H])c([H])c2c(c1[H])C([H])([H])C([H])([H])C([H])([H])C2([H])N([H])C(=O)C1([H])N(C(=O)C([H])(N([H])C(=O)C([H])(N([H])C([H])([H])[H])C([H])([H])[H])C(C([H])([H])[H])(C([H])([H])[H])C([H])([H])[H])C([H])([H])c2c([H])c(OC([H])([H])C([H])([H])C([H])([H])[N+]([H])([H])C([H])([H])C3([H])C([H])([H])N(C(=O)N4C([H])([H])C([H])([H])C([H])([H])C([H])(n5nc(-c6c([H])c([H])c(Oc7c([H])c([H])c(F)c([H])c7F)c([H])c6[H])c(C(=O)N([H])[H])c5N([H])[H])C4([H])[H])C([H])([H])C([H])([H])C3([H])[N+]([H])([H])C([H])([H])C([H])([H])N([H])[H])c([H])c([H])c2C1([H])[H]

$$$$
3:0:0
     RDKit          3D

 92100  0  0  1  0  0  0  0  0999 V2000
  -29.5840  -19.7910   19.6010 C   0  0  0  0  0  0  0  0  0  0  0  0
  -29.5020  -21.1340   20.2530 N   0  0  0  0  0  0  0  0  0  0  0  0
  -29.1220  -19.7550   18.4610 O   0  0  0  0  0  0  0  0  0  0  0  0
  -29.7680  -21.0780   21.2270 H   0  0  0  0  0  0  0  0  0  0  0  0
  -30.5920  -15.3210   19.5530 C   0  0  0  0  0  0  0  0  0  0  0  0
  -30.4250  -12.9310   18.5140 C   0  0  0  0  0  2  0  0  0  0  0  0
  -29.3530  -12.7710   17.4030 C   0  0  0  0  0  2  0  0  0  0  0  0
  -27.9740  -12.4600   18.0090 C   0  0  0  0  0  2  0  0  0  0  0  0
  -27.6760  -13.3640   19.2290 C   0  0  0  0  0  3  0  0  0  0  0  0
  -28.8570  -13.4220   20.2150 C   0  0  0  0  0  2  0  0  0  0  0  0
  -29.9950  -14.0170   19.4810 N   0  0  0  0  0  0  0  0  0  0  0  0
  -31.7390  -15.3210   19.0840 O   0  0  0  0  0  0  0  0  0  0  0  0
  -29.4890  -17.7110   22.1510 C   0  0  0  0  0  2  0  0  0  0  0  0
  -29.2860  -16.4360   21.3080 C   0  0  0  0  0  2  0  0  0  0  0  0
  -30.3230  -18.2530   20.0910 C   0  0  0  0  0  3  0  0  0  0  0  0
  -30.7290  -18.3640   21.5580 C   0  0  0  0  0  3  0  0  0  0  0  0
  -29.9430  -16.6100   19.9870 N   0  0  0  0  0  0  0  0  0  0  0  0
  -25.4320  -13.9030   20.3110 C   0  0  0  0  0  0  0  0  0  0  0  0
  -24.4180  -13.1200   20.7750 C   0  0  0  0  0  0  0  0  0  0  0  0
  -24.8590  -11.7680   20.6200 C   0  0  0  0  0  0  0  0  0  0  0  0
  -26.4210  -13.0340   19.8860 N   0  0  0  0  0  0  0  0  0  0  0  0
  -26.1000  -11.7390   20.1430 N   0  0  0  0  0  0  0  0  0  0  0  0
  -24.1460  -10.5060   20.8430 C   0  0  0  0  0  0  0  0  0  0  0  0
  -24.5970   -9.5560   21.7870 C   0  0  0  0  0  3  0  0  0  0  0  0
  -23.8800   -8.3590   21.9960 C   0  0  0  0  0  3  0  0  0  0  0  0
  -22.7000   -8.0980   21.2600 C   0  0  0  0  0  0  0  0  0  0  0  0
  -22.2690   -9.0340   20.3040 C   0  0  0  0  0  3  0  0  0  0  0  0
  -22.9870  -10.2240   20.0920 C   0  0  0  0  0  3  0  0  0  0  0  0
  -21.9530   -6.9510   21.3780 O   0  0  0  0  0  0  0  0  0  0  0  0
  -21.8010   -6.3120   22.5830 C   0  0  0  0  0  0  0  0  0  0  0  0
  -21.2260   -6.9560   23.7000 C   0  0  0  0  0  3  0  0  0  0  0  0
  -21.0230   -6.2410   24.8970 C   0  0  0  0  0  3  0  0  0  0  0  0
  -21.3870   -4.8840   24.9770 C   0  0  0  0  0  0  0  0  0  0  0  0
  -21.9550   -4.2400   23.8640 C   0  0  0  0  0  3  0  0  0  0  0  0
  -22.1600   -4.9520   22.6690 C   0  0  0  0  0  0  0  0  0  0  0  0
  -22.6880   -4.3200   21.5930 F   0  0  0  0  0  0  0  0  0  0  0  0
  -21.1850   -4.1940   26.1250 F   0  0  0  0  0  0  0  0  0  0  0  0
  -23.0720  -13.5940   21.2400 C   0  0  0  0  0  0  0  0  0  0  0  0
  -22.4580  -12.8790   22.1760 N   0  0  0  0  0  0  0  0  0  0  0  0
  -22.5780  -14.6340   20.8050 O   0  0  0  0  0  0  0  0  0  0  0  0
  -22.8730  -12.0400   22.5520 H   0  0  0  0  0  0  0  0  0  0  0  0
  -21.5580  -13.1780   22.5210 H   0  0  0  0  0  0  0  0  0  0  0  0
  -25.5860  -15.2820   20.1830 N   0  0  0  0  0  0  0  0  0  0  0  0
  -24.8370  -15.9240   20.4160 H   0  0  0  0  0  0  0  0  0  0  0  0
  -26.3830  -15.7390   19.7600 H   0  0  0  0  0  0  0  0  0  0  0  0
  -31.9790  -17.6290   21.8740 N   0  0  0  0  0  4  0  0  0  0  0  0
  -31.9310  -16.6670   21.5890 H   0  0  0  0  0  0  0  0  0  0  0  0
  -32.1780  -17.6600   22.8570 H   0  0  0  0  0  0  0  0  0  0  0  0
  -32.7620  -18.0460   21.3990 H   0  0  0  0  0  0  0  0  0  0  0  0
  -29.3690  -22.7590   19.8220 C   0  0  0  0  0  2  0  0  0  0  0  0
  -28.3880  -24.1870   20.3490 C   0  0  0  0  0  2  0  0  0  0  0  0
  -28.5670  -25.8340   20.2810 O   0  0  0  0  0  0  0  0  0  0  0  0
  -24.7940  -31.7810   23.0910 C   0  0  0  0  0  0  0  0  0  0  0  0
  -27.5160  -26.8940   20.2240 C   0  0  0  0  0  0  0  0  0  0  0  0
  -23.6640  -30.3360   21.4490 C   0  0  0  0  0  3  0  0  0  0  0  0
  -25.1790  -28.7330   20.0910 C   0  0  0  0  0  0  0  0  0  0  0  0
  -26.2310  -30.5910   21.3620 C   0  0  0  0  0  2  0  0  0  0  0  0
  -26.3450  -29.1700   20.7330 C   0  0  0  0  0  0  0  0  0  0  0  0
  -27.5070  -28.2730   20.7710 C   0  0  0  0  0  3  0  0  0  0  0  0
  -26.3130  -26.6070   19.5390 C   0  0  0  0  0  3  0  0  0  0  0  0
  -25.1880  -27.4710   19.4760 C   0  0  0  0  0  3  0  0  0  0  0  0
  -23.9400  -29.6330   20.0930 C   0  0  0  0  0  2  0  0  0  0  0  0
  -24.9150  -30.9300   22.0210 N   0  0  0  0  0  0  0  0  0  0  0  0
  -23.6870  -32.0640   23.5800 O   0  0  0  0  0  0  0  0  0  0  0  0
  -22.9650  -29.3460   22.4150 C   0  0  0  0  0  0  0  0  0  0  0  0
  -21.6390  -29.1690   22.2710 N   0  0  0  0  0  0  0  0  0  0  0  0
  -23.6240  -28.7370   23.2620 O   0  0  0  0  0  0  0  0  0  0  0  0
  -21.1650  -29.7070   21.5600 H   0  0  0  0  0  0  0  0  0  0  0  0
  -18.2580  -27.9410   22.7490 C   0  0  0  0  0  0  0  0  0  0  0  0
  -20.8140  -28.2310   23.0390 C   0  0  0  0  0  3  0  0  0  0  0  0
  -20.9330  -26.7960   22.4720 C   0  0  0  0  0  2  0  0  0  0  0  0
  -19.8430  -26.4580   21.4490 C   0  0  0  0  0  2  0  0  0  0  0  0
  -18.4530  -26.5910   22.0770 C   0  0  0  0  0  2  0  0  0  0  0  0
  -19.3680  -28.7160   23.1850 C   0  0  0  0  0  0  0  0  0  0  0  0
  -19.1310  -29.9760   23.7770 C   0  0  0  0  0  3  0  0  0  0  0  0
  -17.8190  -30.4630   23.9340 C   0  0  0  0  0  3  0  0  0  0  0  0
  -16.7250  -29.6870   23.5140 C   0  0  0  0  0  3  0  0  0  0  0  0
  -16.9450  -28.4270   22.9270 C   0  0  0  0  0  3  0  0  0  0  0  0
  -26.0380  -32.4550   23.7450 C   0  0  0  0  0  3  0  0  0  0  0  0
  -26.5610  -31.6840   25.0200 C   0  0  1  0  0  0  0  0  0  0  0  0
  -25.4580  -31.3840   26.0650 C   0  0  0  0  0  1  0  0  0  0  0  0
  -27.2100  -30.3360   24.6280 C   0  0  0  0  0  1  0  0  0  0  0  0
  -27.6690  -32.5130   25.7130 C   0  0  0  0  0  1  0  0  0  0  0  0
  -25.6710  -33.8360   24.1050 N   0  0  0  0  0  0  0  0  0  0  0  0
  -25.9620  -34.9240   23.3780 C   0  0  0  0  0  0  0  0  0  0  0  0
  -26.6310  -34.8700   22.3420 O   0  0  0  0  0  0  0  0  0  0  0  0
  -25.0700  -33.9460   24.9090 H   0  0  0  0  0  0  0  0  0  0  0  0
  -24.1630  -36.6630   23.0880 C   0  0  0  0  0  1  0  0  0  0  0  0
  -25.4290  -36.2840   23.8750 C   0  0  0  0  0  3  0  0  0  0  0  0
  -27.5310  -37.2370   24.7090 C   0  0  0  0  0  1  0  0  0  0  0  0
  -26.4200  -37.3770   23.7730 N   0  0  0  0  0  0  0  0  0  0  0  0
  -25.9810  -38.2800   23.9370 H   0  0  0  0  0  0  0  0  0  0  0  0
  1  2  1  0
  2  4  1  0
  3  1  2  0
  5 17  1  0
  6 11  1  0
  7  8  1  0
  7  6  1  0
  9  8  1  0
  9 21  1  0
  9 10  1  0
 11  5  1  0
 11 10  1  0
 12  5  2  0
 14 13  1  0
 15  1  1  0
 15 16  1  0
 16 46  1  0
 16 13  1  0
 17 15  1  0
 17 14  1  0
 18 19  2  0
 19 38  1  0
 20 19  1  0
 20 23  1  0
 21 22  1  0
 21 18  1  0
 22 20  2  0
 23 24  1  0
 24 25  2  0
 26 29  1  0
 26 25  1  0
 27 26  2  0
 28 27  1  0
 28 23  2  0
 29 30  1  0
 30 35  2  0
 30 31  1  0
 31 32  2  0
 32 33  1  0
 33 37  1  0
 34 33  2  0
 35 34  1  0
 36 35  1  0
 38 39  1  0
 39 42  1  0
 39 41  1  0
 40 38  2  0
 43 18  1  0
 43 44  1  0
 45 43  1  0
 46 48  1  0
 47 46  1  0
 49 46  1  0
 50  2  1  0
 50 51  1  0
 52 51  1  0
 53 64  2  0
 54 52  1  0
 54 59  1  0
 55 63  1  0
 55 65  1  0
 56 62  1  0
 56 58  1  0
 57 63  1  0
 58 59  2  0
 58 57  1  0
 60 54  2  0
 61 60  1  0
 61 56  2  0
 62 55  1  0
 63 53  1  0
 65 67  2  0
 66 65  1  0
 68 66  1  0
 69 78  2  0
 69 74  1  0
 70 66  1  0
 70 74  1  0
 71 70  1  0
 72 73  1  0
 72 71  1  0
 73 69  1  0
 74 75  2  0
 75 76  1  0
 77 76  2  0
 78 77  1  0
 79 53  1  0
 79 84  1  0
 79 80  1  0
 80 83  1  1
 80 81  1  0
 82 80  1  0
 84 87  1  0
 85 89  1  0
 85 84  1  0
 86 85  2  0
 89 88  1  0
 91 89  1  0
 91 92  1  0
 91 90  1  0
M  ISO  4   5 100  17 100  51 101  52 101
M  END
>  <TORSDO>  (4) 
F 19

>  <SCORE>  (4) 
-13.619

>  <name>  (4) 
3

>  <ligand_id>  (4) 
3

>  <original_smiles>  (4) 
[H]c1c([H])c([H])c2c(c1[H])C([H])([H])C([H])([H])C([H])([H])C2([H])N([H])C(=O)C1([H])N(C(=O)C([H])(N([H])C(=O)C([H])(N([H])C([H])([H])[H])C([H])([H])[H])C(C([H])([H])[H])(C([H])([H])[H])C([H])([H])[H])C([H])([H])c2c([H])c(OC([H])([H])C([H])([H])N([H])C(=O)C3([H])N(C(=O)N4C([H])([H])C([H])([H])C([H])([H])C([H])(n5nc(-c6c([H])c([H])c(Oc7c([H])c([H])c(F)c([H])c7F)c([H])c6[H])c(C(=O)N([H])[H])c5N([H])[H])C4([H])[H])C([H])([H])C([H])([H])C3([H])[N+]([H])([H])[H])c([H])c([H])c2C1([H])[H]

>  <smiles>  (4) 
[H]c1c([H])c([H])c2c(c1[H])C([H])([H])C([H])([H])C([H])([H])C2([H])N([H])C(=O)C1([H])N(C(=O)C([H])(N([H])C(=O)C([H])(N([H])C([H])([H])[H])C([H])([H])[H])C(C([H])([H])[H])(C([H])([H])[H])C([H])([H])[H])C([H])([H])c2c([H])c(OC([H])([H])C([H])([H])N([H])C(=O)C3([H])N(C(=O)N4C([H])([H])C([H])([H])C([H])([H])C([H])(n5nc(-c6c([H])c([H])c(Oc7c([H])c([H])c(F)c([H])c7F)c([H])c6[H])c(C(=O)N([H])[H])c5N([H])[H])C4([H])[H])C([H])([H])C([H])([H])C3([H])[N+]([H])([H])[H])c([H])c([H])c2C1([H])[H]

$$$$
4:0:0
     RDKit          3D

102111  0  0  1  0  0  0  0  0999 V2000
  -29.4340  -17.2690   20.5050 C   0  0  0  0  0  3  0  0  0  0  0  0
  -30.2180  -20.7350   20.0050 C   0  0  0  0  0  2  0  0  0  0  0  0
  -26.9320  -20.8570   18.2630 C   0  0  0  0  0  2  0  0  0  0  0  0
  -30.5600  -19.3170   19.4920 C   0  0  0  0  0  2  0  0  0  0  0  0
  -28.2680  -18.7900   18.9160 C   0  0  0  0  0  2  0  0  0  0  0  0
  -27.1410  -22.3390   18.5570 C   0  0  0  0  0  2  0  0  0  0  0  0
  -27.7010  -20.1400   19.3800 C   0  0  0  0  0  3  0  0  0  0  0  0
  -28.7270  -21.1830   19.8970 C   0  0  0  0  0  3  0  0  0  0  0  0
  -29.4360  -18.3890   19.7180 N   0  0  0  0  0  0  0  0  0  0  0  0
  -28.2750  -16.6060   20.7280 N   0  0  0  0  0  0  0  0  0  0  0  0
  -28.4950  -22.4480   19.1420 N   0  0  2  0  0  4  0  0  0  0  0  0
  -28.2050  -15.8170   21.3570 H   0  0  0  0  0  0  0  0  0  0  0  0
  -27.4050  -16.9090   20.3120 H   0  0  0  0  0  0  0  0  0  0  0  0
  -29.1270  -22.4630   18.3560 H   0  0  0  0  0  0  0  0  0  0  0  0
  -28.6890  -23.7050   19.9200 C   0  0  0  0  0  2  0  0  0  0  0  0
  -29.8180  -24.6010   19.3660 C   0  0  0  0  0  2  0  0  0  0  0  0
  -30.1320  -25.8140   20.2850 C   0  0  0  0  0  2  0  0  0  0  0  0
  -29.7840  -27.2130   20.1710 O   0  0  0  0  0  0  0  0  0  0  0  0
  -25.1500  -31.0400   23.9550 C   0  0  0  0  0  0  0  0  0  0  0  0
  -28.4870  -27.6880   20.2600 C   0  0  0  0  0  0  0  0  0  0  0  0
  -24.2020  -29.8420   22.0090 C   0  0  0  0  0  3  0  0  0  0  0  0
  -25.9000  -28.8050   20.4170 C   0  0  0  0  0  0  0  0  0  0  0  0
  -26.6560  -30.5640   22.0310 C   0  0  0  0  0  2  0  0  0  0  0  0
  -26.9490  -29.3640   21.1550 C   0  0  0  0  0  0  0  0  0  0  0  0
  -28.2450  -28.8150   21.0730 C   0  0  0  0  0  3  0  0  0  0  0  0
  -27.4190  -27.1260   19.5300 C   0  0  0  0  0  3  0  0  0  0  0  0
  -26.1280  -27.6830   19.6040 C   0  0  0  0  0  3  0  0  0  0  0  0
  -24.5480  -29.4690   20.5410 C   0  0  0  0  0  2  0  0  0  0  0  0
  -25.3490  -30.4880   22.7250 N   0  0  0  0  0  0  0  0  0  0  0  0
  -24.0250  -31.0590   24.4710 O   0  0  0  0  0  0  0  0  0  0  0  0
  -23.6670  -28.5810   22.7200 C   0  0  0  0  0  0  0  0  0  0  0  0
  -22.4610  -28.1410   22.3240 N   0  0  0  0  0  0  0  0  0  0  0  0
  -24.3380  -28.0050   23.5810 O   0  0  0  0  0  0  0  0  0  0  0  0
  -21.9790  -28.6670   21.6100 H   0  0  0  0  0  0  0  0  0  0  0  0
  -19.5890  -26.0120   21.8160 C   0  0  0  0  0  0  0  0  0  0  0  0
  -21.7740  -26.9520   22.8250 C   0  0  0  0  0  3  0  0  0  0  0  0
  -22.4500  -25.6610   22.3090 C   0  0  0  0  0  2  0  0  0  0  0  0
  -21.8260  -25.1290   21.0160 C   0  0  0  0  0  2  0  0  0  0  0  0
  -20.3390  -24.8280   21.2250 C   0  0  0  0  0  2  0  0  0  0  0  0
  -20.2670  -27.0190   22.5520 C   0  0  0  0  0  0  0  0  0  0  0  0
  -19.5310  -28.1170   23.0490 C   0  0  0  0  0  3  0  0  0  0  0  0
  -18.1460  -28.2170   22.8220 C   0  0  0  0  0  3  0  0  0  0  0  0
  -17.4760  -27.2090   22.1080 C   0  0  0  0  0  3  0  0  0  0  0  0
  -18.1970  -26.1080   21.6110 C   0  0  0  0  0  3  0  0  0  0  0  0
  -26.3180  -31.6970   24.7590 C   0  0  0  0  0  3  0  0  0  0  0  0
  -26.0000  -33.1200   24.9200 N   0  0  0  0  0  0  0  0  0  0  0  0
  -26.5950  -34.1120   24.2460 C   0  0  0  0  0  0  0  0  0  0  0  0
  -27.5310  -33.9240   23.4640 O   0  0  0  0  0  0  0  0  0  0  0  0
  -25.2080  -33.3440   25.5060 H   0  0  0  0  0  0  0  0  0  0  0  0
  -25.2170  -35.9740   23.2680 C   0  0  0  0  0  1  0  0  0  0  0  0
  -26.0660  -35.5410   24.4750 C   0  0  0  0  0  3  0  0  0  0  0  0
  -27.8540  -36.3190   25.9660 C   0  0  0  0  0  1  0  0  0  0  0  0
  -27.1360  -36.5350   24.7120 N   0  0  0  0  0  0  0  0  0  0  0  0
  -26.7570  -37.4780   24.7190 H   0  0  0  0  0  0  0  0  0  0  0  0
  -26.5690  -31.0160   26.1600 C   0  0  1  0  0  0  0  0  0  0  0  0
  -25.2990  -30.9070   27.0340 C   0  0  0  0  0  1  0  0  0  0  0  0
  -27.1440  -29.5920   25.9820 C   0  0  0  0  0  1  0  0  0  0  0  0
  -27.6280  -31.8180   26.9530 C   0  0  0  0  0  1  0  0  0  0  0  0
  -30.6840  -16.6770   21.1360 C   0  0  0  0  0  3  0  0  0  0  0  0
  -31.1190  -14.3530   20.2320 C   0  0  0  0  0  0  0  0  0  0  0  0
  -30.7440  -12.2360   19.0190 C   0  0  0  0  0  2  0  0  0  0  0  0
  -29.7770  -12.4660   17.8420 C   0  0  0  0  0  2  0  0  0  0  0  0
  -28.3050  -12.3820   18.2960 C   0  0  0  0  0  2  0  0  0  0  0  0
  -28.0220  -13.2350   19.5590 C   0  0  0  0  0  3  0  0  0  0  0  0
  -29.0790  -12.9340   20.6460 C   0  0  0  0  0  2  0  0  0  0  0  0
  -30.4180  -13.2000   20.0760 N   0  0  0  0  0  0  0  0  0  0  0  0
  -32.1750  -14.6100   19.6450 O   0  0  0  0  0  0  0  0  0  0  0  0
  -30.5010  -15.2350   21.0180 N   0  0  0  0  0  0  0  0  0  0  0  0
  -29.6440  -14.8930   21.4210 H   0  0  0  0  0  0  0  0  0  0  0  0
  -25.6620  -13.9520   20.3050 C   0  0  0  0  0  0  0  0  0  0  0  0
  -24.5660  -13.2270   20.6900 C   0  0  0  0  0  0  0  0  0  0  0  0
  -24.9630  -11.8560   20.6370 C   0  0  0  0  0  0  0  0  0  0  0  0
  -26.6630  -13.0250   20.0520 N   0  0  0  0  0  0  0  0  0  0  0  0
  -26.2430  -11.7610   20.3050 N   0  0  0  0  0  0  0  0  0  0  0  0
  -24.1840  -10.6270   20.8300 C   0  0  0  0  0  0  0  0  0  0  0  0
  -24.6140   -9.6130   21.7140 C   0  0  0  0  0  3  0  0  0  0  0  0
  -23.8410   -8.4460   21.8960 C   0  0  0  0  0  3  0  0  0  0  0  0
  -22.6230   -8.2860   21.1950 C   0  0  0  0  0  0  0  0  0  0  0  0
  -22.2110   -9.2870   20.2990 C   0  0  0  0  0  3  0  0  0  0  0  0
  -22.9840  -10.4460   20.1150 C   0  0  0  0  0  3  0  0  0  0  0  0
  -21.8200   -7.1740   21.2890 O   0  0  0  0  0  0  0  0  0  0  0  0
  -21.7980   -6.3970   22.4180 C   0  0  0  0  0  0  0  0  0  0  0  0
  -21.4840   -6.9320   23.6860 C   0  0  0  0  0  3  0  0  0  0  0  0
  -21.4040   -6.0840   24.8080 C   0  0  0  0  0  3  0  0  0  0  0  0
  -21.6280   -4.7010   24.6640 C   0  0  0  0  0  0  0  0  0  0  0  0
  -21.9390   -4.1660   23.4010 C   0  0  0  0  0  3  0  0  0  0  0  0
  -22.0180   -5.0110   22.2810 C   0  0  0  0  0  0  0  0  0  0  0  0
  -22.2950   -4.4880   21.0620 F   0  0  0  0  0  0  0  0  0  0  0  0
  -21.5440   -3.8830   25.7390 F   0  0  0  0  0  0  0  0  0  0  0  0
  -23.1970  -13.7650   20.9890 C   0  0  0  0  0  0  0  0  0  0  0  0
  -22.4840  -13.1400   21.9200 N   0  0  0  0  0  0  0  0  0  0  0  0
  -22.7690  -14.7730   20.4290 O   0  0  0  0  0  0  0  0  0  0  0  0
  -22.8420  -12.3240   22.3940 H   0  0  0  0  0  0  0  0  0  0  0  0
  -21.5660  -13.4870   22.1650 H   0  0  0  0  0  0  0  0  0  0  0  0
  -25.8880  -15.3130   20.1300 N   0  0  0  0  0  0  0  0  0  0  0  0
  -25.1230  -15.9760   20.1790 H   0  0  0  0  0  0  0  0  0  0  0  0
  -26.7040  -15.6730   19.6520 H   0  0  0  0  0  0  0  0  0  0  0  0
  -30.8420  -17.0840   22.6250 C   0  0  0  0  0  2  0  0  0  0  0  0
  -30.9800  -18.5350   22.8590 N   0  0  0  0  0  4  0  0  0  0  0  0
  -31.7740  -18.9200   22.3770 H   0  0  0  0  0  0  0  0  0  0  0  0
  -31.1360  -18.6830   23.8420 H   0  0  0  0  0  0  0  0  0  0  0  0
  -30.1480  -19.0410   22.6160 H   0  0  0  0  0  0  0  0  0  0  0  0
  1 10  1  0
  1 59  1  0
  3  6  1  0
  4  9  1  0
  4  2  1  0
  5  7  1  0
  5  9  1  0
  6 11  1  0
  7  3  1  0
  7  8  1  0
  8  2  1  0
  9  1  1  0
 10 12  1  0
 11  8  1  0
 11 15  1  0
 13 10  1  0
 11 14  1  6
 16 15  1  0
 16 17  1  0
 18 20  1  0
 18 17  1  0
 19 30  2  0
 20 25  1  0
 21 31  1  0
 21 29  1  0
 22 28  1  0
 22 24  1  0
 23 29  1  0
 24 23  1  0
 25 24  2  0
 26 27  1  0
 26 20  2  0
 27 22  2  0
 28 21  1  0
 29 19  1  0
 31 33  2  0
 32 31  1  0
 34 32  1  0
 35 40  1  0
 36 32  1  0
 37 36  1  0
 38 39  1  0
 38 37  1  0
 39 35  1  0
 40 36  1  0
 40 41  2  0
 42 41  1  0
 43 42  2  0
 44 35  2  0
 44 43  1  0
 45 19  1  0
 45 46  1  0
 45 55  1  0
 46 49  1  0
 47 51  1  0
 47 46  1  0
 48 47  2  0
 51 50  1  0
 51 53  1  0
 53 54  1  0
 53 52  1  0
 55 58  1  1
 55 56  1  0
 57 55  1  0
 59 98  1  0
 60 68  1  0
 61 66  1  0
 62 63  1  0
 62 61  1  0
 64 63  1  0
 64 73  1  0
 64 65  1  0
 66 60  1  0
 66 65  1  0
 67 60  2  0
 68 59  1  0
 68 69  1  0
 70 71  2  0
 71 90  1  0
 72 71  1  0
 72 75  1  0
 73 74  1  0
 73 70  1  0
 74 72  2  0
 75 76  1  0
 76 77  2  0
 78 81  1  0
 78 77  1  0
 79 78  2  0
 80 79  1  0
 80 75  2  0
 81 82  1  0
 82 83  1  0
 83 84  2  0
 85 84  1  0
 85 89  1  0
 86 85  2  0
 87 82  2  0
 87 86  1  0
 88 87  1  0
 90 91  1  0
 91 94  1  0
 91 93  1  0
 92 90  2  0
 95 96  1  0
 95 70  1  0
 97 95  1  0
 98 99  1  0
 99101  1  0
100 99  1  0
102 99  1  0
M  ISO  4  17 101  18 101  60 100  68 100
M  END
>  <TORSDO>  (5) 
F 22

>  <SCORE>  (5) 
-11.425

>  <name>  (5) 
4

>  <ligand_id>  (5) 
4

>  <original_smiles>  (5) 
[H]c1c([H])c([H])c2c(c1[H])C([H])([H])C([H])([H])C([H])([H])C2([H])N([H])C(=O)C1([H])N(C(=O)C([H])(N([H])C(=O)C([H])(N([H])C([H])([H])[H])C([H])([H])[H])C(C([H])([H])[H])(C([H])([H])[H])C([H])([H])[H])C([H])([H])c2c([H])c(OC([H])([H])C([H])([H])C([H])([H])[N+]3([H])C([H])([H])C([H])([H])C4([H])C([H])([H])N(C(=[N+]([H])[H])C([H])(N([H])C(=O)N5C([H])([H])C([H])([H])C([H])([H])C([H])(n6nc(-c7c([H])c([H])c(Oc8c([H])c([H])c(F)c([H])c8F)c([H])c7[H])c(C(=O)N([H])[H])c6N([H])[H])C5([H])[H])C([H])([H])[N+]([H])([H])[H])C([H])([H])C([H])([H])C43[H])c([H])c([H])c2C1([H])[H]

>  <smiles>  (5) 
[H]c1c([H])c([H])c2c(c1[H])C([H])([H])C([H])([H])C([H])([H])C2([H])N([H])C(=O)C1([H])N(C(=O)C([H])(N([H])C(=O)C([H])(N([H])C([H])([H])[H])C([H])([H])[H])C(C([H])([H])[H])(C([H])([H])[H])C([H])([H])[H])C([H])([H])c2c([H])c(OC([H])([H])C([H])([H])C([H])([H])[N+]3([H])C([H])([H])C([H])([H])C4([H])C([H])([H])N(C(=[N+]([H])[H])C([H])(N([H])C(=O)N5C([H])([H])C([H])([H])C([H])([H])C([H])(n6nc(-c7c([H])c([H])c(Oc8c([H])c([H])c(F)c([H])c8F)c([H])c7[H])c(C(=O)N([H])[H])c6N([H])[H])C5([H])[H])C([H])([H])[N+]([H])([H])[H])C([H])([H])C([H])([H])C43[H])c([H])c([H])c2C1([H])[H]

$$$$
5:0:0
     RDKit          3D

 92100  0  0  1  0  0  0  0  0999 V2000
  -29.3930  -21.0200   19.4840 C   0  0  0  0  0  3  0  0  0  0  0  0
  -30.4430  -24.1880   18.0740 C   0  0  0  0  0  2  0  0  0  0  0  0
  -29.7640  -25.4020   18.7250 C   0  0  0  0  0  2  0  0  0  0  0  0
  -29.5080  -22.9790   17.9660 C   0  0  0  0  0  2  0  0  0  0  0  0
  -28.6750  -23.5710   20.2330 C   0  0  0  0  0  2  0  0  0  0  0  0
  -28.4930  -25.0590   19.5300 C   0  0  0  0  0  3  0  0  0  0  0  0
  -29.1830  -22.4240   19.3120 N   0  0  0  0  0  0  0  0  0  0  0  0
  -29.9490  -20.3000   18.4890 N   0  0  0  0  0  0  0  0  0  0  0  0
  -30.0870  -19.3050   18.5900 H   0  0  0  0  0  0  0  0  0  0  0  0
  -30.2590  -20.7230   17.6260 H   0  0  0  0  0  0  0  0  0  0  0  0
  -28.3020  -26.3670   20.2660 O   0  0  0  0  0  0  0  0  0  0  0  0
  -24.6170  -31.8680   23.2330 C   0  0  0  0  0  0  0  0  0  0  0  0
  -27.1900  -27.2420   20.1580 C   0  0  0  0  0  0  0  0  0  0  0  0
  -23.3990  -30.4690   21.6050 C   0  0  0  0  0  3  0  0  0  0  0  0
  -24.8340  -28.9050   20.1640 C   0  0  0  0  0  0  0  0  0  0  0  0
  -25.9420  -30.7620   21.4080 C   0  0  0  0  0  2  0  0  0  0  0  0
  -26.0110  -29.3780   20.7590 C   0  0  0  0  0  0  0  0  0  0  0  0
  -27.1830  -28.5550   20.7490 C   0  0  0  0  0  3  0  0  0  0  0  0
  -25.9840  -26.8370   19.5420 C   0  0  0  0  0  3  0  0  0  0  0  0
  -24.8270  -27.6440   19.5470 C   0  0  0  0  0  3  0  0  0  0  0  0
  -23.6020  -29.7880   20.2240 C   0  0  0  0  0  2  0  0  0  0  0  0
  -24.6730  -31.0530   22.1380 N   0  0  0  0  0  0  0  0  0  0  0  0
  -23.5380  -32.1510   23.7740 O   0  0  0  0  0  0  0  0  0  0  0  0
  -22.7390  -29.4580   22.5750 C   0  0  0  0  0  0  0  0  0  0  0  0
  -21.4110  -29.2820   22.4570 N   0  0  0  0  0  0  0  0  0  0  0  0
  -23.4200  -28.8370   23.3930 O   0  0  0  0  0  0  0  0  0  0  0  0
  -20.9190  -29.8370   21.7700 H   0  0  0  0  0  0  0  0  0  0  0  0
  -18.0390  -28.0670   22.9680 C   0  0  0  0  0  0  0  0  0  0  0  0
  -20.5960  -28.3470   23.2360 C   0  0  0  0  0  3  0  0  0  0  0  0
  -20.7080  -26.9110   22.6770 C   0  0  0  0  0  2  0  0  0  0  0  0
  -19.6090  -26.5700   21.6640 C   0  0  0  0  0  2  0  0  0  0  0  0
  -18.2250  -26.7120   22.3050 C   0  0  0  0  0  2  0  0  0  0  0  0
  -19.1530  -28.8420   23.3910 C   0  0  0  0  0  0  0  0  0  0  0  0
  -18.9240  -30.1080   23.9720 C   0  0  0  0  0  3  0  0  0  0  0  0
  -17.6150  -30.6010   24.1320 C   0  0  0  0  0  3  0  0  0  0  0  0
  -16.5170  -29.8250   23.7240 C   0  0  0  0  0  3  0  0  0  0  0  0
  -16.7300  -28.5590   23.1480 C   0  0  0  0  0  3  0  0  0  0  0  0
  -25.9040  -32.5010   23.8460 C   0  0  0  0  0  3  0  0  0  0  0  0
  -26.4340  -31.7280   25.1170 C   0  0  1  0  0  0  0  0  0  0  0  0
  -25.3530  -31.4910   26.1970 C   0  0  0  0  0  1  0  0  0  0  0  0
  -27.0120  -30.3510   24.7190 C   0  0  0  0  0  1  0  0  0  0  0  0
  -27.5940  -32.5200   25.7660 C   0  0  0  0  0  1  0  0  0  0  0  0
  -25.5960  -33.8980   24.1850 N   0  0  0  0  0  0  0  0  0  0  0  0
  -25.9180  -34.9560   23.4280 C   0  0  0  0  0  0  0  0  0  0  0  0
  -26.5730  -34.8580   22.3870 O   0  0  0  0  0  0  0  0  0  0  0  0
  -25.0140  -34.0490   24.9960 H   0  0  0  0  0  0  0  0  0  0  0  0
  -24.1790  -36.7480   23.1150 C   0  0  0  0  0  1  0  0  0  0  0  0
  -25.4370  -36.3430   23.9000 C   0  0  0  0  0  3  0  0  0  0  0  0
  -27.5870  -37.2280   24.6900 C   0  0  0  0  0  1  0  0  0  0  0  0
  -26.4650  -37.3980   23.7700 N   0  0  0  0  0  0  0  0  0  0  0  0
  -26.0600  -38.3180   23.9300 H   0  0  0  0  0  0  0  0  0  0  0  0
  -29.0480  -20.0850   20.6860 C   0  0  0  0  0  2  0  0  0  0  0  0
  -29.8110  -18.6340   20.8950 C   0  0  0  0  0  2  0  0  0  0  0  0
  -29.6900  -17.2940   19.9800 C   0  0  0  0  0  2  0  0  0  0  0  0
  -30.5310  -14.7710   20.3390 C   0  0  0  0  0  0  0  0  0  0  0  0
  -30.3610  -12.4790   19.3590 C   0  0  0  0  0  2  0  0  0  0  0  0
  -29.4200  -12.5530   18.1350 C   0  0  0  0  0  2  0  0  0  0  0  0
  -27.9480  -12.3870   18.5630 C   0  0  0  0  0  2  0  0  0  0  0  0
  -27.5790  -13.2680   19.7850 C   0  0  0  0  0  3  0  0  0  0  0  0
  -28.6390  -13.1700   20.9070 C   0  0  0  0  0  2  0  0  0  0  0  0
  -29.9370  -13.5270   20.3180 N   0  0  0  0  0  0  0  0  0  0  0  0
  -31.6930  -14.9030   19.9420 O   0  0  0  0  0  0  0  0  0  0  0  0
  -29.7200  -15.8740   20.5860 N   0  0  0  0  0  0  0  0  0  0  0  0
  -28.8380  -15.6000   20.9950 H   0  0  0  0  0  0  0  0  0  0  0  0
  -25.1920  -13.8670   20.5050 C   0  0  0  0  0  0  0  0  0  0  0  0
  -24.1240  -13.0980   20.8780 C   0  0  0  0  0  0  0  0  0  0  0  0
  -24.5840  -11.7460   20.8560 C   0  0  0  0  0  0  0  0  0  0  0  0
  -26.2340  -12.9840   20.2750 N   0  0  0  0  0  0  0  0  0  0  0  0
  -25.8750  -11.7030   20.5470 N   0  0  0  0  0  0  0  0  0  0  0  0
  -23.8530  -10.4870   21.0520 C   0  0  0  0  0  0  0  0  0  0  0  0
  -24.2990   -9.5110   21.9710 C   0  0  0  0  0  3  0  0  0  0  0  0
  -23.5690   -8.3170   22.1550 C   0  0  0  0  0  3  0  0  0  0  0  0
  -22.3800   -8.0910   21.4200 C   0  0  0  0  0  0  0  0  0  0  0  0
  -21.9540   -9.0560   20.4900 C   0  0  0  0  0  3  0  0  0  0  0  0
  -22.6840  -10.2420   20.3050 C   0  0  0  0  0  3  0  0  0  0  0  0
  -21.6190   -6.9520   21.5170 O   0  0  0  0  0  0  0  0  0  0  0  0
  -21.6060   -6.1890   22.6570 C   0  0  0  0  0  0  0  0  0  0  0  0
  -21.2450   -6.7290   23.9110 C   0  0  0  0  0  3  0  0  0  0  0  0
  -21.1770   -5.8940   25.0440 C   0  0  0  0  0  3  0  0  0  0  0  0
  -21.4590   -4.5200   24.9250 C   0  0  0  0  0  0  0  0  0  0  0  0
  -21.8120   -3.9800   23.6750 C   0  0  0  0  0  3  0  0  0  0  0  0
  -21.8810   -4.8120   22.5450 C   0  0  0  0  0  0  0  0  0  0  0  0
  -22.2020   -4.2820   21.3390 F   0  0  0  0  0  0  0  0  0  0  0  0
  -21.3870   -3.7150   26.0100 F   0  0  0  0  0  0  0  0  0  0  0  0
  -22.7280  -13.5820   21.1470 C   0  0  0  0  0  0  0  0  0  0  0  0
  -22.0020  -12.8920   22.0200 N   0  0  0  0  0  0  0  0  0  0  0  0
  -22.2930  -14.6050   20.6210 O   0  0  0  0  0  0  0  0  0  0  0  0
  -22.3690  -12.0660   22.4690 H   0  0  0  0  0  0  0  0  0  0  0  0
  -21.0640  -13.1970   22.2430 H   0  0  0  0  0  0  0  0  0  0  0  0
  -25.3590  -15.2360   20.3190 N   0  0  0  0  0  0  0  0  0  0  0  0
  -24.5920  -15.8920   20.4180 H   0  0  0  0  0  0  0  0  0  0  0  0
  -26.2010  -15.6690   19.9610 H   0  0  0  0  0  0  0  0  0  0  0  0
  1 52  1  0
  2  3  1  0
  3  6  1  0
  4  2  1  0
  4  7  1  0
  6  5  1  0
  6 11  1  0
  7  1  1  0
  7  5  1  0
  8  9  1  0
  8  1  1  0
 10  8  1  0
 12 23  2  0
 13 11  1  0
 13 18  1  0
 14 22  1  0
 14 24  1  0
 15 21  1  0
 15 17  1  0
 16 22  1  0
 17 16  1  0
 18 17  2  0
 19 20  1  0
 19 13  2  0
 20 15  2  0
 21 14  1  0
 22 12  1  0
 24 26  2  0
 25 24  1  0
 27 25  1  0
 28 37  2  0
 28 33  1  0
 29 25  1  0
 29 33  1  0
 30 29  1  0
 31 32  1  0
 31 30  1  0
 32 28  1  0
 33 34  2  0
 34 35  1  0
 36 35  2  0
 37 36  1  0
 38 12  1  0
 38 43  1  0
 38 39  1  0
 39 42  1  1
 39 40  1  0
 41 39  1  0
 43 46  1  0
 44 48  1  0
 44 43  1  0
 45 44  2  0
 48 47  1  0
 50 48  1  0
 50 51  1  0
 50 49  1  0
 52 53  1  0
 54 63  1  0
 54 53  1  0
 55 63  1  0
 56 61  1  0
 57 58  1  0
 57 56  1  0
 59 58  1  0
 59 68  1  0
 59 60  1  0
 61 55  1  0
 61 60  1  0
 62 55  2  0
 63 64  1  0
 65 66  2  0
 66 85  1  0
 67 66  1  0
 67 70  1  0
 68 65  1  0
 68 69  1  0
 69 67  2  0
 70 71  1  0
 71 72  2  0
 73 76  1  0
 73 72  1  0
 74 73  2  0
 75 74  1  0
 75 70  2  0
 76 77  1  0
 77 78  1  0
 78 79  2  0
 80 79  1  0
 80 84  1  0
 81 80  2  0
 82 77  2  0
 82 81  1  0
 83 82  1  0
 85 86  1  0
 86 89  1  0
 86 88  1  0
 87 85  2  0
 90 91  1  0
 90 65  1  0
 92 90  1  0
M  ISO  4   6 101  11 101  55 100  63 100
M  END
>  <TORSDO>  (6) 
F 19

>  <SCORE>  (6) 
-14.009

>  <name>  (6) 
5

>  <ligand_id>  (6) 
5

>  <original_smiles>  (6) 
[H]c1c([H])c([H])c2c(c1[H])C([H])([H])C([H])([H])C([H])([H])C2([H])N([H])C(=O)C1([H])N(C(=O)C([H])(N([H])C(=O)C([H])(N([H])C([H])([H])[H])C([H])([H])[H])C(C([H])([H])[H])(C([H])([H])[H])C([H])([H])[H])C([H])([H])c2c([H])c(OC3([H])C([H])([H])N(C(=[N+]([H])[H])C([H])([H])C([H])([H])C([H])([H])N([H])C(=O)N4C([H])([H])C([H])([H])C([H])([H])C([H])(n5nc(-c6c([H])c([H])c(Oc7c([H])c([H])c(F)c([H])c7F)c([H])c6[H])c(C(=O)N([H])[H])c5N([H])[H])C4([H])[H])C([H])([H])C([H])([H])C3([H])[H])c([H])c([H])c2C1([H])[H]

>  <smiles>  (6) 
[H]c1c([H])c([H])c2c(c1[H])C([H])([H])C([H])([H])C([H])([H])C2([H])N([H])C(=O)C1([H])N(C(=O)C([H])(N([H])C(=O)C([H])(N([H])C([H])([H])[H])C([H])([H])[H])C(C([H])([H])[H])(C([H])([H])[H])C([H])([H])[H])C([H])([H])c2c([H])c(OC3([H])C([H])([H])N(C(=[N+]([H])[H])C([H])([H])C([H])([H])C([H])([H])N([H])C(=O)N4C([H])([H])C([H])([H])C([H])([H])C([H])(n5nc(-c6c([H])c([H])c(Oc7c([H])c([H])c(F)c([H])c7F)c([H])c6[H])c(C(=O)N([H])[H])c5N([H])[H])C4([H])[H])C([H])([H])C([H])([H])C3([H])[H])c([H])c([H])c2C1([H])[H]

$$$$
7:0:0
     RDKit          3D

100108  0  0  1  0  0  0  0  0999 V2000
  -29.4220  -19.5400   20.2930 N   0  0  1  0  0  4  0  0  0  0  0  0
  -30.3710  -19.8520   20.1430 H   0  0  0  0  0  0  0  0  0  0  0  0
  -27.5240  -18.2610   17.1280 C   0  0  0  0  0  2  0  0  0  0  0  0
  -28.4870  -18.8170   16.0520 C   0  0  0  0  0  2  0  0  0  0  0  0
  -28.2010  -18.1100   18.5040 C   0  0  0  0  0  2  0  0  0  0  0  0
  -29.2250  -20.1130   16.4740 C   0  0  0  0  0  3  0  0  0  0  0  0
  -28.8790  -19.4380   18.8970 C   0  0  0  0  0  3  0  0  0  0  0  0
  -29.9140  -19.8790   17.8410 C   0  0  0  0  0  3  0  0  0  0  0  0
  -30.5620  -21.0610   18.3090 O   0  0  0  0  0  0  0  0  0  0  0  0
  -29.9150  -21.7470   18.4440 H   0  0  0  0  0  0  0  0  0  0  0  0
  -30.2270  -20.5420   15.3710 C   0  0  0  0  0  2  0  0  0  0  0  0
  -30.9490  -21.7860   15.7010 N   0  0  0  0  0  4  0  0  0  0  0  0
  -31.6390  -21.9910   15.0030 H   0  0  0  0  0  0  0  0  0  0  0  0
  -31.4170  -21.6670   16.5870 H   0  0  0  0  0  0  0  0  0  0  0  0
  -30.3210  -22.5670   15.7670 H   0  0  0  0  0  0  0  0  0  0  0  0
  -28.7330  -20.7190   21.0100 C   0  0  0  0  0  3  0  0  0  0  0  0
  -29.0300  -22.2100   20.4420 C   0  0  0  0  0  3  0  0  0  0  0  0
  -28.4520  -23.5510   21.1200 C   0  0  0  0  0  2  0  0  0  0  0  0
  -28.0230  -24.7440   20.1430 C   0  0  0  0  0  2  0  0  0  0  0  0
  -28.2050  -26.1730   20.5140 O   0  0  0  0  0  0  0  0  0  0  0  0
  -24.5770  -31.7280   23.2770 C   0  0  0  0  0  0  0  0  0  0  0  0
  -27.1320  -27.0670   20.3470 C   0  0  0  0  0  0  0  0  0  0  0  0
  -23.3730  -30.3500   21.6170 C   0  0  0  0  0  3  0  0  0  0  0  0
  -24.8170  -28.7510   20.2330 C   0  0  0  0  0  0  0  0  0  0  0  0
  -25.9240  -30.5940   21.5000 C   0  0  0  0  0  2  0  0  0  0  0  0
  -25.9780  -29.2080   20.8690 C   0  0  0  0  0  0  0  0  0  0  0  0
  -27.1360  -28.3780   20.9170 C   0  0  0  0  0  3  0  0  0  0  0  0
  -25.9690  -26.6860   19.6350 C   0  0  0  0  0  3  0  0  0  0  0  0
  -24.8170  -27.4970   19.6010 C   0  0  0  0  0  3  0  0  0  0  0  0
  -23.6010  -29.6570   20.2440 C   0  0  0  0  0  2  0  0  0  0  0  0
  -24.6400  -30.9100   22.1860 N   0  0  0  0  0  0  0  0  0  0  0  0
  -23.4900  -32.0400   23.7810 O   0  0  0  0  0  0  0  0  0  0  0  0
  -22.6610  -29.3580   22.5680 C   0  0  0  0  0  0  0  0  0  0  0  0
  -21.3370  -29.2100   22.4030 N   0  0  0  0  0  0  0  0  0  0  0  0
  -23.3020  -28.7260   23.4130 O   0  0  0  0  0  0  0  0  0  0  0  0
  -20.8860  -29.7780   21.7010 H   0  0  0  0  0  0  0  0  0  0  0  0
  -17.9140  -28.1200   22.8290 C   0  0  0  0  0  0  0  0  0  0  0  0
  -20.4720  -28.2990   23.1550 C   0  0  0  0  0  3  0  0  0  0  0  0
  -20.5420  -26.8640   22.5820 C   0  0  0  0  0  2  0  0  0  0  0  0
  -19.4490  -26.5670   21.5490 C   0  0  0  0  0  2  0  0  0  0  0  0
  -18.0630  -26.7580   22.1700 C   0  0  0  0  0  2  0  0  0  0  0  0
  -19.0480  -28.8480   23.2780 C   0  0  0  0  0  0  0  0  0  0  0  0
  -18.8570  -30.1210   23.8560 C   0  0  0  0  0  3  0  0  0  0  0  0
  -17.5660  -30.6670   23.9920 C   0  0  0  0  0  3  0  0  0  0  0  0
  -16.4490  -29.9370   23.5560 C   0  0  0  0  0  3  0  0  0  0  0  0
  -16.6220  -28.6620   22.9850 C   0  0  0  0  0  3  0  0  0  0  0  0
  -25.8640  -32.3260   23.9220 C   0  0  0  0  0  3  0  0  0  0  0  0
  -26.3240  -31.5500   25.2170 C   0  0  1  0  0  0  0  0  0  0  0  0
  -25.1940  -31.3420   26.2520 C   0  0  0  0  0  1  0  0  0  0  0  0
  -26.8870  -30.1580   24.8480 C   0  0  0  0  0  1  0  0  0  0  0  0
  -27.4710  -32.3220   25.9070 C   0  0  0  0  0  1  0  0  0  0  0  0
  -25.5900  -33.7350   24.2380 N   0  0  0  0  0  0  0  0  0  0  0  0
  -25.9730  -34.7730   23.4810 C   0  0  0  0  0  0  0  0  0  0  0  0
  -26.6660  -34.6440   22.4690 O   0  0  0  0  0  0  0  0  0  0  0  0
  -24.9800  -33.9100   25.0220 H   0  0  0  0  0  0  0  0  0  0  0  0
  -24.3150  -36.6170   23.0600 C   0  0  0  0  0  1  0  0  0  0  0  0
  -25.5140  -36.1780   23.9160 C   0  0  0  0  0  3  0  0  0  0  0  0
  -27.6420  -37.0030   24.8210 C   0  0  0  0  0  1  0  0  0  0  0  0
  -26.5830  -37.1980   23.8340 N   0  0  0  0  0  0  0  0  0  0  0  0
  -26.2030  -38.1320   23.9560 H   0  0  0  0  0  0  0  0  0  0  0  0
  -29.5660  -18.1950   21.0410 C   0  0  0  0  0  3  0  0  0  0  0  0
  -30.2870  -16.9570   20.2920 C   0  0  0  0  0  3  0  0  0  0  0  0
  -31.1740  -14.5120   20.6660 C   0  0  0  0  0  0  0  0  0  0  0  0
  -30.9860  -12.2170   19.7150 C   0  0  0  0  0  2  0  0  0  0  0  0
  -30.1090  -12.3070   18.4420 C   0  0  0  0  0  2  0  0  0  0  0  0
  -28.6210  -12.1830   18.8080 C   0  0  0  0  0  2  0  0  0  0  0  0
  -28.2190  -13.1230   19.9750 C   0  0  0  0  0  3  0  0  0  0  0  0
  -29.2030  -13.0060   21.1590 C   0  0  0  0  0  2  0  0  0  0  0  0
  -30.5500  -13.2870   20.6400 N   0  0  0  0  0  0  0  0  0  0  0  0
  -32.3300  -14.6410   20.2540 O   0  0  0  0  0  0  0  0  0  0  0  0
  -30.3820  -15.5990   20.9660 N   0  0  0  0  0  0  0  0  0  0  0  0
  -29.5290  -15.3320   21.4370 H   0  0  0  0  0  0  0  0  0  0  0  0
  -25.8360  -13.8530   20.5930 C   0  0  0  0  0  0  0  0  0  0  0  0
  -24.7080  -13.1410   20.9060 C   0  0  0  0  0  0  0  0  0  0  0  0
  -25.0920  -11.7660   20.8840 C   0  0  0  0  0  0  0  0  0  0  0  0
  -26.8360  -12.9150   20.3920 N   0  0  0  0  0  0  0  0  0  0  0  0
  -26.3900  -11.6520   20.6250 N   0  0  0  0  0  0  0  0  0  0  0  0
  -24.2900  -10.5430   21.0380 C   0  0  0  0  0  0  0  0  0  0  0  0
  -24.6400   -9.5450   21.9740 C   0  0  0  0  0  3  0  0  0  0  0  0
  -23.8450   -8.3890   22.1170 C   0  0  0  0  0  3  0  0  0  0  0  0
  -22.6870   -8.2220   21.3180 C   0  0  0  0  0  0  0  0  0  0  0  0
  -22.3530   -9.2090   20.3740 C   0  0  0  0  0  3  0  0  0  0  0  0
  -23.1500  -10.3590   20.2320 C   0  0  0  0  0  3  0  0  0  0  0  0
  -21.8660   -7.1210   21.3710 O   0  0  0  0  0  0  0  0  0  0  0  0
  -21.7410   -6.3720   22.5120 C   0  0  0  0  0  0  0  0  0  0  0  0
  -21.2780   -6.9310   23.7260 C   0  0  0  0  0  3  0  0  0  0  0  0
  -21.0930   -6.1110   24.8540 C   0  0  0  0  0  3  0  0  0  0  0  0
  -21.3600   -4.7310   24.7740 C   0  0  0  0  0  0  0  0  0  0  0  0
  -21.8180   -4.1710   23.5690 C   0  0  0  0  0  3  0  0  0  0  0  0
  -22.0060   -4.9890   22.4420 C   0  0  0  0  0  0  0  0  0  0  0  0
  -22.4270   -4.4420   21.2770 F   0  0  0  0  0  0  0  0  0  0  0  0
  -21.1770   -3.9400   25.8580 F   0  0  0  0  0  0  0  0  0  0  0  0
  -23.3300  -13.6970   21.1210 C   0  0  0  0  0  0  0  0  0  0  0  0
  -22.5370  -13.0620   21.9790 N   0  0  0  0  0  0  0  0  0  0  0  0
  -22.9630  -14.7300   20.5670 O   0  0  0  0  0  0  0  0  0  0  0  0
  -22.8450  -12.2260   22.4490 H   0  0  0  0  0  0  0  0  0  0  0  0
  -21.6130  -13.4220   22.1660 H   0  0  0  0  0  0  0  0  0  0  0  0
  -26.0910  -15.2110   20.4430 N   0  0  0  0  0  0  0  0  0  0  0  0
  -25.3630  -15.9080   20.5230 H   0  0  0  0  0  0  0  0  0  0  0  0
  -26.9850  -15.5830   20.1520 H   0  0  0  0  0  0  0  0  0  0  0  0
  1 16  1  0
  1 61  1  0
  1  2  1  6
  3  5  1  0
  4  6  1  0
  4  3  1  0
  5  7  1  0
  6 11  1  0
  6  8  1  0
  7  1  1  0
  8  9  1  0
  8  7  1  0
  9 10  1  0
 11 12  1  0
 12 15  1  0
 12 14  1  0
 13 12  1  0
 17 16  2  0
 17 18  1  0
 19 20  1  0
 19 18  1  0
 21 32  2  0
 22 20  1  0
 22 27  1  0
 23 31  1  0
 23 33  1  0
 24 30  1  0
 24 26  1  0
 25 31  1  0
 26 27  2  0
 26 25  1  0
 28 22  2  0
 29 28  1  0
 29 24  2  0
 30 23  1  0
 31 21  1  0
 33 35  2  0
 34 33  1  0
 36 34  1  0
 37 46  2  0
 37 42  1  0
 38 34  1  0
 38 42  1  0
 39 38  1  0
 40 41  1  0
 40 39  1  0
 41 37  1  0
 42 43  2  0
 43 44  1  0
 45 44  2  0
 46 45  1  0
 47 21  1  0
 47 52  1  0
 47 48  1  0
 48 51  1  1
 48 49  1  0
 50 48  1  0
 52 55  1  0
 53 57  1  0
 53 52  1  0
 54 53  2  0
 57 56  1  0
 59 57  1  0
 59 60  1  0
 59 58  1  0
 62 71  1  0
 62 61  2  0
 63 71  1  0
 64 69  1  0
 65 66  1  0
 65 64  1  0
 67 66  1  0
 67 76  1  0
 67 68  1  0
 69 63  1  0
 69 68  1  0
 70 63  2  0
 71 72  1  0
 73 74  2  0
 74 93  1  0
 75 74  1  0
 75 78  1  0
 76 73  1  0
 76 77  1  0
 77 75  2  0
 78 79  1  0
 79 80  2  0
 81 84  1  0
 81 80  1  0
 82 81  2  0
 83 82  1  0
 83 78  2  0
 84 85  1  0
 85 86  1  0
 86 87  2  0
 88 87  1  0
 88 92  1  0
 89 88  2  0
 90 85  2  0
 90 89  1  0
 91 90  1  0
 93 94  1  0
 94 97  1  0
 94 96  1  0
 95 93  2  0
 98 99  1  0
 98 73  1  0
100 98  1  0
M  ISO  4  19 101  20 101  63 100  71 100
M  END
>  <TORSDO>  (7) 
F 26

>  <SCORE>  (7) 
-11.696

>  <name>  (7) 
7

>  <ligand_id>  (7) 
7

>  <original_smiles>  (7) 
[H]OC1([H])C([H])(C([H])([H])[N+]([H])([H])[H])C([H])([H])C([H])([H])C([H])([H])C1([H])[N+]([H])(C([H])([H])C([H])([H])N([H])C(=O)N1C([H])([H])C([H])([H])C([H])([H])C([H])(n2nc(-c3c([H])c([H])c(Oc4c([H])c([H])c(F)c([H])c4F)c([H])c3[H])c(C(=O)N([H])[H])c2N([H])[H])C1([H])[H])C([H])([H])C([H])([H])C([H])([H])C([H])([H])Oc1c([H])c([H])c2c(c1[H])C([H])([H])N(C(=O)C([H])(N([H])C(=O)C([H])(N([H])C([H])([H])[H])C([H])([H])[H])C(C([H])([H])[H])(C([H])([H])[H])C([H])([H])[H])C([H])(C(=O)N([H])C1([H])c3c([H])c([H])c([H])c([H])c3C([H])([H])C([H])([H])C1([H])[H])C2([H])[H]

>  <smiles>  (7) 
[H]OC1([H])C([H])(C([H])([H])[N+]([H])([H])[H])C([H])([H])C([H])([H])C([H])([H])C1([H])[N+]([H])(C([H])([H])C([H])([H])N([H])C(=O)N1C([H])([H])C([H])([H])C([H])([H])C([H])(n2nc(-c3c([H])c([H])c(Oc4c([H])c([H])c(F)c([H])c4F)c([H])c3[H])c(C(=O)N([H])[H])c2N([H])[H])C1([H])[H])C([H])([H])C([H])([H])C([H])([H])C([H])([H])Oc1c([H])c([H])c2c(c1[H])C([H])([H])N(C(=O)C([H])(N([H])C(=O)C([H])(N([H])C([H])([H])[H])C([H])([H])[H])C(C([H])([H])[H])(C([H])([H])[H])C([H])([H])[H])C([H])(C(=O)N([H])C1([H])c3c([H])c([H])c([H])c([H])c3C([H])([H])C([H])([H])C1([H])[H])C2([H])[H]

$$$$
8:0:0
     RDKit          3D

101108  0  0  1  0  0  0  0  0999 V2000
  -29.7420  -18.1310   20.6950 N   0  0  1  0  0  4  0  0  0  0  0  0
  -30.4740  -18.3810   20.0470 H   0  0  0  0  0  0  0  0  0  0  0  0
  -28.4240  -18.2910   19.9940 C   0  0  0  0  0  2  0  0  0  0  0  0
  -28.5090  -18.8430   18.5510 C   0  0  0  0  0  2  0  0  0  0  0  0
  -29.9100  -18.7390   17.9970 C   0  0  0  0  0  0  0  0  0  0  0  0
  -30.4280  -17.5330   17.7160 N   0  0  0  0  0  4  0  0  0  0  0  0
  -30.6330  -19.8480   17.7680 N   0  0  0  0  0  0  0  0  0  0  0  0
  -29.8790  -16.6900   17.8260 H   0  0  0  0  0  0  0  0  0  0  0  0
  -31.3450  -17.3940   17.3150 H   0  0  0  0  0  0  0  0  0  0  0  0
  -30.2580  -20.7730   17.9270 H   0  0  0  0  0  0  0  0  0  0  0  0
  -31.5050  -19.8320   17.2590 H   0  0  0  0  0  0  0  0  0  0  0  0
  -29.9020  -19.0180   21.8930 C   0  0  0  0  0  2  0  0  0  0  0  0
  -29.3170  -20.4560   21.7780 C   0  0  0  0  0  2  0  0  0  0  0  0
  -30.0710  -21.4610   20.8760 C   0  0  0  0  0  2  0  0  0  0  0  0
  -29.2310  -22.7430   20.6670 C   0  0  0  0  0  2  0  0  0  0  0  0
  -29.9650  -23.8670   20.0400 N   0  0  0  0  0  4  0  0  0  0  0  0
  -29.2690  -24.5420   19.7600 H   0  0  0  0  0  0  0  0  0  0  0  0
  -30.4220  -23.5640   19.1920 H   0  0  0  0  0  0  0  0  0  0  0  0
  -30.9330  -24.5760   20.9130 C   0  0  0  0  0  2  0  0  0  0  0  0
  -30.5000  -26.0330   21.1990 C   0  0  0  0  0  2  0  0  0  0  0  0
  -29.9130  -26.5910   20.0240 O   0  0  0  0  0  0  0  0  0  0  0  0
  -25.1780  -30.2600   23.9430 C   0  0  0  0  0  0  0  0  0  0  0  0
  -28.6660  -27.1530   20.1610 C   0  0  0  0  0  0  0  0  0  0  0  0
  -24.3050  -29.1640   21.9030 C   0  0  0  0  0  3  0  0  0  0  0  0
  -26.0670  -28.2460   20.3030 C   0  0  0  0  0  0  0  0  0  0  0  0
  -26.7490  -29.9050   22.0440 C   0  0  0  0  0  2  0  0  0  0  0  0
  -27.0850  -28.7580   21.1170 C   0  0  0  0  0  0  0  0  0  0  0  0
  -28.3880  -28.2160   21.0560 C   0  0  0  0  0  3  0  0  0  0  0  0
  -27.6360  -26.6600   19.3380 C   0  0  0  0  0  3  0  0  0  0  0  0
  -26.3350  -27.1910   19.4120 C   0  0  0  0  0  3  0  0  0  0  0  0
  -24.7020  -28.8860   20.4280 C   0  0  0  0  0  2  0  0  0  0  0  0
  -25.4220  -29.7780   22.6920 N   0  0  0  0  0  0  0  0  0  0  0  0
  -24.0380  -30.2380   24.4250 O   0  0  0  0  0  0  0  0  0  0  0  0
  -23.7650  -27.8560   22.5250 C   0  0  0  0  0  0  0  0  0  0  0  0
  -22.5490  -27.4580   22.1190 N   0  0  0  0  0  0  0  0  0  0  0  0
  -24.4440  -27.2110   23.3280 O   0  0  0  0  0  0  0  0  0  0  0  0
  -22.0510  -28.0480   21.4670 H   0  0  0  0  0  0  0  0  0  0  0  0
  -19.5860  -25.4650   21.5820 C   0  0  0  0  0  0  0  0  0  0  0  0
  -21.8600  -26.2380   22.5340 C   0  0  0  0  0  3  0  0  0  0  0  0
  -22.4590  -24.9940   21.8380 C   0  0  0  0  0  2  0  0  0  0  0  0
  -21.7330  -24.6190   20.5430 C   0  0  0  0  0  2  0  0  0  0  0  0
  -20.2530  -24.3340   20.8180 C   0  0  0  0  0  2  0  0  0  0  0  0
  -20.3410  -26.3680   22.3740 C   0  0  0  0  0  0  0  0  0  0  0  0
  -19.6760  -27.4270   23.0320 C   0  0  0  0  0  3  0  0  0  0  0  0
  -18.2840  -27.5870   22.9100 C   0  0  0  0  0  3  0  0  0  0  0  0
  -17.5380  -26.6810   22.1380 C   0  0  0  0  0  3  0  0  0  0  0  0
  -18.1870  -25.6210   21.4790 C   0  0  0  0  0  3  0  0  0  0  0  0
  -26.3130  -30.8810   24.8170 C   0  0  0  0  0  3  0  0  0  0  0  0
  -26.0810  -32.3280   24.8790 N   0  0  0  0  0  0  0  0  0  0  0  0
  -26.8410  -33.2470   24.2660 C   0  0  0  0  0  0  0  0  0  0  0  0
  -27.8640  -32.9600   23.6410 O   0  0  0  0  0  0  0  0  0  0  0  0
  -25.2290  -32.6320   25.3290 H   0  0  0  0  0  0  0  0  0  0  0  0
  -25.8590  -35.1840   22.9980 C   0  0  0  0  0  1  0  0  0  0  0  0
  -26.3910  -34.7180   24.3630 C   0  0  0  0  0  3  0  0  0  0  0  0
  -27.8340  -35.4320   26.2170 C   0  0  0  0  0  1  0  0  0  0  0  0
  -27.4600  -35.6320   24.8180 N   0  0  0  0  0  0  0  0  0  0  0  0
  -27.1790  -36.6010   24.6990 H   0  0  0  0  0  0  0  0  0  0  0  0
  -26.3900  -30.2630   26.2670 C   0  0  1  0  0  0  0  0  0  0  0  0
  -25.0480  -30.3130   27.0330 C   0  0  0  0  0  1  0  0  0  0  0  0
  -26.8490  -28.7870   26.2080 C   0  0  0  0  0  1  0  0  0  0  0  0
  -27.4460  -31.0220   27.1040 C   0  0  0  0  0  1  0  0  0  0  0  0
  -29.9610  -16.6850   21.0030 C   0  0  0  0  0  2  0  0  0  0  0  0
  -31.4050  -16.1280   20.9060 C   0  0  0  0  0  2  0  0  0  0  0  0
  -31.8130  -13.7440   20.1370 C   0  0  0  0  0  0  0  0  0  0  0  0
  -31.2420  -11.6170   19.0150 C   0  0  0  0  0  2  0  0  0  0  0  0
  -30.2890  -11.8820   17.8290 C   0  0  0  0  0  2  0  0  0  0  0  0
  -28.8170  -11.9860   18.2800 C   0  0  0  0  0  2  0  0  0  0  0  0
  -28.6380  -12.9180   19.5060 C   0  0  0  0  0  3  0  0  0  0  0  0
  -29.6540  -12.5350   20.6040 C   0  0  0  0  0  2  0  0  0  0  0  0
  -31.0150  -12.6490   20.0350 N   0  0  0  0  0  0  0  0  0  0  0  0
  -32.8610  -13.9020   19.5010 O   0  0  0  0  0  0  0  0  0  0  0  0
  -31.2920  -14.6740   20.9470 N   0  0  0  0  0  0  0  0  0  0  0  0
  -30.5040  -14.3210   21.4660 H   0  0  0  0  0  0  0  0  0  0  0  0
  -26.4010  -13.9410   20.2790 C   0  0  0  0  0  0  0  0  0  0  0  0
  -25.2170  -13.3700   20.6600 C   0  0  0  0  0  0  0  0  0  0  0  0
  -25.4220  -11.9600   20.5860 C   0  0  0  0  0  0  0  0  0  0  0  0
  -27.2640  -12.8910   20.0040 N   0  0  0  0  0  0  0  0  0  0  0  0
  -26.6750  -11.6920   20.2410 N   0  0  0  0  0  0  0  0  0  0  0  0
  -24.4840  -10.8460   20.7690 C   0  0  0  0  0  0  0  0  0  0  0  0
  -24.8100   -9.7400   21.5830 C   0  0  0  0  0  3  0  0  0  0  0  0
  -23.8910   -8.6830   21.7550 C   0  0  0  0  0  3  0  0  0  0  0  0
  -22.6300   -8.7310   21.1140 C   0  0  0  0  0  0  0  0  0  0  0  0
  -22.3200   -9.8240   20.2860 C   0  0  0  0  0  3  0  0  0  0  0  0
  -23.2390  -10.8710   20.1110 C   0  0  0  0  0  3  0  0  0  0  0  0
  -21.6800   -7.7420   21.2030 O   0  0  0  0  0  0  0  0  0  0  0  0
  -21.5680   -6.9520   22.3170 C   0  0  0  0  0  0  0  0  0  0  0  0
  -21.3210   -7.4940   23.5960 C   0  0  0  0  0  3  0  0  0  0  0  0
  -21.1440   -6.6390   24.7020 C   0  0  0  0  0  3  0  0  0  0  0  0
  -21.2060   -5.2420   24.5290 C   0  0  0  0  0  0  0  0  0  0  0  0
  -21.4500   -4.7000   23.2540 C   0  0  0  0  0  3  0  0  0  0  0  0
  -21.6260   -5.5530   22.1520 C   0  0  0  0  0  0  0  0  0  0  0  0
  -21.8410   -5.0250   20.9210 F   0  0  0  0  0  0  0  0  0  0  0  0
  -21.0270   -4.4190   25.5890 F   0  0  0  0  0  0  0  0  0  0  0  0
  -23.9390  -14.0890   20.9890 C   0  0  0  0  0  0  0  0  0  0  0  0
  -23.1540  -13.5530   21.9180 N   0  0  0  0  0  0  0  0  0  0  0  0
  -23.6550  -15.1630   20.4600 O   0  0  0  0  0  0  0  0  0  0  0  0
  -23.3940  -12.6840   22.3740 H   0  0  0  0  0  0  0  0  0  0  0  0
  -22.2960  -14.0200   22.1760 H   0  0  0  0  0  0  0  0  0  0  0  0
  -26.8160  -15.2590   20.1200 N   0  0  0  0  0  0  0  0  0  0  0  0
  -26.1670  -16.0260   20.2070 H   0  0  0  0  0  0  0  0  0  0  0  0
  -27.6760  -15.5160   19.6550 H   0  0  0  0  0  0  0  0  0  0  0  0
  1 62  1  0
  1 12  1  0
  1  2  1  6
  3  1  1  0
  4  3  1  0
  5  4  1  0
  6  8  1  0
  6  5  2  0
  7 10  1  0
  7  5  1  0
  9  6  1  0
 11  7  1  0
 13 12  1  0
 14 13  1  0
 15 14  1  0
 16 15  1  0
 16 19  1  0
 17 16  1  0
 18 16  1  0
 19 20  1  0
 21 23  1  0
 21 20  1  0
 22 33  2  0
 23 28  1  0
 24 34  1  0
 24 32  1  0
 25 31  1  0
 25 27  1  0
 26 32  1  0
 27 26  1  0
 28 27  2  0
 29 30  1  0
 29 23  2  0
 30 25  2  0
 31 24  1  0
 32 22  1  0
 34 36  2  0
 35 34  1  0
 37 35  1  0
 38 43  1  0
 39 35  1  0
 40 39  1  0
 41 42  1  0
 41 40  1  0
 42 38  1  0
 43 39  1  0
 43 44  2  0
 45 44  1  0
 46 45  2  0
 47 38  2  0
 47 46  1  0
 48 22  1  0
 48 49  1  0
 48 58  1  0
 49 52  1  0
 50 54  1  0
 50 49  1  0
 51 50  2  0
 54 53  1  0
 54 56  1  0
 56 55  1  0
 57 56  1  0
 58 59  1  1
 58 61  1  0
 60 58  1  0
 63 72  1  0
 63 62  1  0
 64 72  1  0
 65 70  1  0
 66 67  1  0
 66 65  1  0
 68 67  1  0
 68 77  1  0
 68 69  1  0
 70 64  1  0
 70 69  1  0
 71 64  2  0
 72 73  1  0
 74 75  2  0
 75 94  1  0
 76 75  1  0
 76 79  1  0
 77 78  1  0
 77 74  1  0
 78 76  2  0
 79 80  1  0
 80 81  2  0
 82 85  1  0
 82 81  1  0
 83 82  2  0
 84 83  1  0
 84 79  2  0
 85 86  1  0
 86 87  1  0
 87 88  2  0
 89 88  1  0
 89 93  1  0
 90 89  2  0
 91 86  2  0
 91 90  1  0
 92 91  1  0
 94 95  1  0
 95 98  1  0
 95 97  1  0
 96 94  2  0
 99100  1  0
 99 74  1  0
101 99  1  0
M  ISO  4  20 101  21 101  64 100  72 100
M  END
>  <TORSDO>  (8) 
F 28

>  <SCORE>  (8) 
-8.766

>  <name>  (8) 
8

>  <ligand_id>  (8) 
8

>  <original_smiles>  (8) 
[H]c1c([H])c([H])c2c(c1[H])C([H])([H])C([H])([H])C([H])([H])C2([H])N([H])C(=O)C1([H])N(C(=O)C([H])(N([H])C(=O)C([H])(N([H])C([H])([H])[H])C([H])([H])[H])C(C([H])([H])[H])(C([H])([H])[H])C([H])([H])[H])C([H])([H])c2c([H])c(OC([H])([H])C([H])([H])[N+]([H])([H])C([H])([H])C([H])([H])C([H])([H])C([H])([H])[N+]([H])(C([H])([H])C([H])([H])C(N([H])[H])=[N+]([H])[H])C([H])([H])C([H])([H])N([H])C(=O)N3C([H])([H])C([H])([H])C([H])([H])C([H])(n4nc(-c5c([H])c([H])c(Oc6c([H])c([H])c(F)c([H])c6F)c([H])c5[H])c(C(=O)N([H])[H])c4N([H])[H])C3([H])[H])c([H])c([H])c2C1([H])[H]

>  <smiles>  (8) 
[H]c1c([H])c([H])c2c(c1[H])C([H])([H])C([H])([H])C([H])([H])C2([H])N([H])C(=O)C1([H])N(C(=O)C([H])(N([H])C(=O)C([H])(N([H])C([H])([H])[H])C([H])([H])[H])C(C([H])([H])[H])(C([H])([H])[H])C([H])([H])[H])C([H])([H])c2c([H])c(OC([H])([H])C([H])([H])[N+]([H])([H])C([H])([H])C([H])([H])C([H])([H])C([H])([H])[N+]([H])(C([H])([H])C([H])([H])C(N([H])[H])=[N+]([H])[H])C([H])([H])C([H])([H])N([H])C(=O)N3C([H])([H])C([H])([H])C([H])([H])C([H])(n4nc(-c5c([H])c([H])c(Oc6c([H])c([H])c(F)c([H])c6F)c([H])c5[H])c(C(=O)N([H])[H])c4N([H])[H])C3([H])[H])c([H])c([H])c2C1([H])[H]

$$$$
9:0:0
     RDKit          3D

 96105  0  0  1  0  0  0  0  0999 V2000
  -28.6600  -19.7570   20.1570 C   0  0  0  0  0  3  0  0  0  0  0  0
  -28.8690  -21.1440   20.2220 C   0  0  0  0  0  3  0  0  0  0  0  0
  -30.6360  -20.8000   21.8700 C   0  0  0  0  0  3  0  0  0  0  0  0
  -29.4520  -18.8830   20.9300 C   0  0  0  0  0  0  0  0  0  0  0  0
  -30.4330  -19.4080   21.8100 C   0  0  0  0  0  0  0  0  0  0  0  0
  -29.8730  -21.6670   21.0650 C   0  0  0  0  0  0  0  0  0  0  0  0
  -29.2610  -17.3860   20.7820 C   0  0  0  0  0  2  0  0  0  0  0  0
  -31.3230  -18.5040   22.6590 C   0  0  0  0  0  2  0  0  0  0  0  0
  -30.9400  -17.0150   22.6090 C   0  0  0  0  0  2  0  0  0  0  0  0
  -30.5200  -16.6120   21.1930 C   0  0  0  0  0  3  0  0  0  0  0  0
  -30.8250  -14.3400   20.2250 C   0  0  0  0  0  0  0  0  0  0  0  0
  -30.4360  -12.2660   18.9610 C   0  0  0  0  0  2  0  0  0  0  0  0
  -29.4540  -12.5450   17.8060 C   0  0  0  0  0  2  0  0  0  0  0  0
  -27.9910  -12.4290   18.2820 C   0  0  0  0  0  2  0  0  0  0  0  0
  -27.7260  -13.2290   19.5860 C   0  0  0  0  0  3  0  0  0  0  0  0
  -28.8030  -12.9030   20.6430 C   0  0  0  0  0  2  0  0  0  0  0  0
  -30.1250  -13.1920   20.0550 N   0  0  0  0  0  0  0  0  0  0  0  0
  -31.8480  -14.6240   19.5910 O   0  0  0  0  0  0  0  0  0  0  0  0
  -30.2640  -15.1830   21.0980 N   0  0  0  0  0  0  0  0  0  0  0  0
  -29.4440  -14.8340   21.5720 H   0  0  0  0  0  0  0  0  0  0  0  0
  -25.3590  -13.8870   20.3590 C   0  0  0  0  0  0  0  0  0  0  0  0
  -24.2880  -13.1350   20.7640 C   0  0  0  0  0  0  0  0  0  0  0  0
  -24.7230  -11.7750   20.7170 C   0  0  0  0  0  0  0  0  0  0  0  0
  -26.3790  -12.9870   20.0990 N   0  0  0  0  0  0  0  0  0  0  0  0
  -26.0000  -11.7110   20.3660 N   0  0  0  0  0  0  0  0  0  0  0  0
  -23.9830  -10.5250   20.9330 C   0  0  0  0  0  0  0  0  0  0  0  0
  -24.4300   -9.5540   21.8550 C   0  0  0  0  0  3  0  0  0  0  0  0
  -23.6930   -8.3660   22.0560 C   0  0  0  0  0  3  0  0  0  0  0  0
  -22.4960   -8.1440   21.3360 C   0  0  0  0  0  0  0  0  0  0  0  0
  -22.0690   -9.1040   20.4020 C   0  0  0  0  0  3  0  0  0  0  0  0
  -22.8050  -10.2830   20.1990 C   0  0  0  0  0  3  0  0  0  0  0  0
  -21.7270   -7.0110   21.4470 O   0  0  0  0  0  0  0  0  0  0  0  0
  -21.6900   -6.2790   22.6070 C   0  0  0  0  0  0  0  0  0  0  0  0
  -21.3090   -6.8530   23.8400 C   0  0  0  0  0  3  0  0  0  0  0  0
  -21.2190   -6.0470   24.9920 C   0  0  0  0  0  3  0  0  0  0  0  0
  -21.4960   -4.6690   24.9130 C   0  0  0  0  0  0  0  0  0  0  0  0
  -21.8700   -4.0960   23.6850 C   0  0  0  0  0  3  0  0  0  0  0  0
  -21.9630   -4.8990   22.5350 C   0  0  0  0  0  0  0  0  0  0  0  0
  -22.3030   -4.3370   21.3490 F   0  0  0  0  0  0  0  0  0  0  0  0
  -21.4020   -3.8930   26.0180 F   0  0  0  0  0  0  0  0  0  0  0  0
  -22.9100  -13.6360   21.0830 C   0  0  0  0  0  0  0  0  0  0  0  0
  -22.2020  -12.9530   21.9750 N   0  0  0  0  0  0  0  0  0  0  0  0
  -22.4700  -14.6690   20.5780 O   0  0  0  0  0  0  0  0  0  0  0  0
  -22.5700  -12.1180   22.4060 H   0  0  0  0  0  0  0  0  0  0  0  0
  -21.2780  -13.2710   22.2320 H   0  0  0  0  0  0  0  0  0  0  0  0
  -25.5440  -15.2550   20.1770 N   0  0  0  0  0  0  0  0  0  0  0  0
  -24.7950  -15.9250   20.3090 H   0  0  0  0  0  0  0  0  0  0  0  0
  -26.3950  -15.6750   19.8250 H   0  0  0  0  0  0  0  0  0  0  0  0
  -30.1520  -23.1560   21.0750 C   0  0  0  0  0  2  0  0  0  0  0  0
  -32.4320  -23.3060   20.1430 C   0  0  0  0  0  1  0  0  0  0  0  0
  -30.9880  -23.5360   19.9070 N   0  0  2  0  0  4  0  0  0  0  0  0
  -30.7340  -22.9130   19.1570 H   0  0  0  0  0  0  0  0  0  0  0  0
  -30.6970  -24.9090   19.4270 C   0  0  0  0  0  2  0  0  0  0  0  0
  -29.4180  -24.9720   18.5620 C   0  0  0  0  0  2  0  0  0  0  0  0
  -28.8220  -26.3810   18.5000 C   0  0  0  0  0  2  0  0  0  0  0  0
  -28.3710  -26.7380   19.8060 O   0  0  0  0  0  0  0  0  0  0  0  0
  -24.5320  -31.7320   23.0940 C   0  0  0  0  0  0  0  0  0  0  0  0
  -27.1780  -27.4080   19.8710 C   0  0  0  0  0  0  0  0  0  0  0  0
  -23.3110  -30.3530   21.4370 C   0  0  0  0  0  3  0  0  0  0  0  0
  -24.7580  -28.8490   19.9720 C   0  0  0  0  0  0  0  0  0  0  0  0
  -25.8280  -30.7370   21.2180 C   0  0  0  0  0  2  0  0  0  0  0  0
  -25.9130  -29.3780   20.5590 C   0  0  0  0  0  0  0  0  0  0  0  0
  -27.1240  -28.6560   20.5230 C   0  0  0  0  0  3  0  0  0  0  0  0
  -26.0030  -26.8690   19.3050 C   0  0  0  0  0  3  0  0  0  0  0  0
  -24.7920  -27.5860   19.3520 C   0  0  0  0  0  3  0  0  0  0  0  0
  -23.5070  -29.6930   20.0450 C   0  0  0  0  0  2  0  0  0  0  0  0
  -24.5750  -30.9550   21.9750 N   0  0  0  0  0  0  0  0  0  0  0  0
  -23.4560  -31.9900   23.6510 O   0  0  0  0  0  0  0  0  0  0  0  0
  -22.6790  -29.3120   22.3880 C   0  0  0  0  0  0  0  0  0  0  0  0
  -21.3570  -29.1150   22.2660 N   0  0  0  0  0  0  0  0  0  0  0  0
  -23.3760  -28.6840   23.1910 O   0  0  0  0  0  0  0  0  0  0  0  0
  -20.8560  -29.6790   21.5930 H   0  0  0  0  0  0  0  0  0  0  0  0
  -18.0040  -27.8620   22.7410 C   0  0  0  0  0  0  0  0  0  0  0  0
  -20.5560  -28.1570   23.0250 C   0  0  0  0  0  3  0  0  0  0  0  0
  -20.6820  -26.7330   22.4340 C   0  0  0  0  0  2  0  0  0  0  0  0
  -19.5880  -26.4020   21.4140 C   0  0  0  0  0  2  0  0  0  0  0  0
  -18.2030  -26.5210   22.0550 C   0  0  0  0  0  2  0  0  0  0  0  0
  -19.1090  -28.6360   23.1840 C   0  0  0  0  0  0  0  0  0  0  0  0
  -18.8690  -29.8910   23.7840 C   0  0  0  0  0  3  0  0  0  0  0  0
  -17.5570  -30.3720   23.9450 C   0  0  0  0  0  3  0  0  0  0  0  0
  -16.4650  -29.5930   23.5230 C   0  0  0  0  0  3  0  0  0  0  0  0
  -16.6900  -28.3390   22.9270 C   0  0  0  0  0  3  0  0  0  0  0  0
  -25.8240  -32.3560   23.7100 C   0  0  0  0  0  3  0  0  0  0  0  0
  -25.5080  -33.7410   24.0870 N   0  0  0  0  0  0  0  0  0  0  0  0
  -25.8140  -34.8180   23.3520 C   0  0  0  0  0  0  0  0  0  0  0  0
  -26.4680  -34.7510   22.3060 O   0  0  0  0  0  0  0  0  0  0  0  0
  -24.9250  -33.8670   24.9020 H   0  0  0  0  0  0  0  0  0  0  0  0
  -24.0560  -36.5960   23.0790 C   0  0  0  0  0  1  0  0  0  0  0  0
  -25.3190  -36.1870   23.8550 C   0  0  0  0  0  3  0  0  0  0  0  0
  -27.4620  -37.0740   24.6640 C   0  0  0  0  0  1  0  0  0  0  0  0
  -26.3370  -37.2560   23.7500 N   0  0  0  0  0  0  0  0  0  0  0  0
  -25.9230  -38.1660   23.9360 H   0  0  0  0  0  0  0  0  0  0  0  0
  -26.3760  -31.5490   24.9490 C   0  0  1  0  0  0  0  0  0  0  0  0
  -25.3110  -31.2660   26.0330 C   0  0  0  0  0  1  0  0  0  0  0  0
  -26.9620  -30.1880   24.5000 C   0  0  0  0  0  1  0  0  0  0  0  0
  -27.5350  -32.3320   25.6120 C   0  0  0  0  0  1  0  0  0  0  0  0
  1  2  2  0
  1  4  1  0
  2  6  1  0
  4  5  2  0
  5  3  1  0
  5  8  1  0
  6 49  1  0
  6  3  2  0
  7  4  1  0
  7 10  1  0
  9  8  1  0
 10 19  1  0
 10  9  1  0
 11 19  1  0
 12 17  1  0
 13 14  1  0
 13 12  1  0
 15 14  1  0
 15 24  1  0
 15 16  1  0
 17 11  1  0
 17 16  1  0
 18 11  2  0
 19 20  1  0
 21 22  2  0
 22 41  1  0
 23 22  1  0
 23 26  1  0
 24 21  1  0
 24 25  1  0
 25 23  2  0
 26 27  1  0
 27 28  2  0
 29 32  1  0
 29 28  1  0
 30 29  2  0
 31 30  1  0
 31 26  2  0
 32 33  1  0
 33 34  1  0
 34 35  2  0
 36 35  1  0
 36 40  1  0
 37 36  2  0
 38 33  2  0
 38 37  1  0
 39 38  1  0
 41 42  1  0
 42 45  1  0
 42 44  1  0
 43 41  2  0
 46 47  1  0
 46 21  1  0
 48 46  1  0
 51 50  1  0
 51 49  1  0
 51 52  1  6
 53 51  1  0
 54 53  1  0
 55 54  1  0
 55 56  1  0
 56 58  1  0
 57 68  2  0
 58 63  1  0
 59 67  1  0
 59 69  1  0
 60 66  1  0
 60 62  1  0
 61 67  1  0
 62 61  1  0
 63 62  2  0
 64 65  1  0
 64 58  2  0
 65 60  2  0
 66 59  1  0
 67 57  1  0
 69 71  2  0
 70 69  1  0
 72 70  1  0
 73 82  2  0
 73 78  1  0
 74 70  1  0
 74 78  1  0
 75 74  1  0
 76 77  1  0
 76 75  1  0
 77 73  1  0
 78 79  2  0
 79 80  1  0
 81 80  2  0
 82 81  1  0
 83 57  1  0
 83 84  1  0
 83 93  1  0
 84 87  1  0
 85 89  1  0
 85 84  1  0
 86 85  2  0
 89 88  1  0
 91 89  1  0
 91 92  1  0
 91 90  1  0
 93 96  1  1
 93 94  1  0
 95 93  1  0
M  ISO  4  11 100  19 100  55 101  56 101
M  END
>  <TORSDO>  (9) 
F 21

>  <SCORE>  (9) 
-13.086

>  <name>  (9) 
9

>  <ligand_id>  (9) 
9

>  <original_smiles>  (9) 
[H]c1c([H])c([H])c2c(c1[H])C([H])([H])C([H])([H])C([H])([H])C2([H])N([H])C(=O)C1([H])N(C(=O)C([H])(N([H])C(=O)C([H])(N([H])C([H])([H])[H])C([H])([H])[H])C(C([H])([H])[H])(C([H])([H])[H])C([H])([H])[H])C([H])([H])c2c([H])c(OC([H])([H])C([H])([H])C([H])([H])[N+]([H])(C([H])([H])[H])C([H])([H])c3c([H])c([H])c4c(c3[H])C([H])([H])C([H])([H])C([H])(N([H])C(=O)N3C([H])([H])C([H])([H])C([H])([H])C([H])(n5nc(-c6c([H])c([H])c(Oc7c([H])c([H])c(F)c([H])c7F)c([H])c6[H])c(C(=O)N([H])[H])c5N([H])[H])C3([H])[H])C4([H])[H])c([H])c([H])c2C1([H])[H]

>  <smiles>  (9) 
[H]c1c([H])c([H])c2c(c1[H])C([H])([H])C([H])([H])C([H])([H])C2([H])N([H])C(=O)C1([H])N(C(=O)C([H])(N([H])C(=O)C([H])(N([H])C([H])([H])[H])C([H])([H])[H])C(C([H])([H])[H])(C([H])([H])[H])C([H])([H])[H])C([H])([H])c2c([H])c(OC([H])([H])C([H])([H])C([H])([H])[N+]([H])(C([H])([H])[H])C([H])([H])c3c([H])c([H])c4c(c3[H])C([H])([H])C([H])([H])C([H])(N([H])C(=O)N3C([H])([H])C([H])([H])C([H])([H])C([H])(n5nc(-c6c([H])c([H])c(Oc7c([H])c([H])c(F)c([H])c7F)c([H])c6[H])c(C(=O)N([H])[H])c5N([H])[H])C3([H])[H])C4([H])[H])c([H])c([H])c2C1([H])[H]

$$$$
10:0:0
     RDKit          3D

 89 97  0  0  1  0  0  0  0  0999 V2000
  -30.6680  -20.6330   21.3170 C   0  0  0  0  0  0  0  0  0  0  0  0
  -31.6450  -19.4520   21.5050 C   0  0  0  0  0  2  0  0  0  0  0  0
  -31.0010  -18.0660   21.6970 C   0  0  0  0  0  2  0  0  0  0  0  0
  -29.0930  -18.9780   20.3210 C   0  0  0  0  0  2  0  0  0  0  0  0
  -30.1580  -17.6940   20.4770 C   0  0  0  0  0  3  0  0  0  0  0  0
  -29.5170  -20.4720   20.6110 N   0  0  0  0  0  0  0  0  0  0  0  0
  -31.0170  -21.7180   21.7860 O   0  0  0  0  0  0  0  0  0  0  0  0
  -30.5270  -14.9740   20.3320 C   0  0  0  0  0  0  0  0  0  0  0  0
  -30.3780  -12.6390   19.3630 C   0  0  0  0  0  2  0  0  0  0  0  0
  -29.4260  -12.6060   18.1470 C   0  0  0  0  0  2  0  0  0  0  0  0
  -27.9720  -12.3870   18.6040 C   0  0  0  0  0  2  0  0  0  0  0  0
  -27.5810  -13.3080   19.7900 C   0  0  0  0  0  3  0  0  0  0  0  0
  -28.6530  -13.3160   20.9010 C   0  0  0  0  0  2  0  0  0  0  0  0
  -29.9170  -13.7230   20.2750 N   0  0  0  0  0  0  0  0  0  0  0  0
  -31.7220  -15.0350   20.0280 O   0  0  0  0  0  0  0  0  0  0  0  0
  -29.7710  -16.1630   20.5290 N   0  0  0  0  0  0  0  0  0  0  0  0
  -28.7930  -15.9880   20.7100 H   0  0  0  0  0  0  0  0  0  0  0  0
  -25.2100  -13.8720   20.5720 C   0  0  0  0  0  0  0  0  0  0  0  0
  -24.1550  -13.0880   20.9500 C   0  0  0  0  0  0  0  0  0  0  0  0
  -24.6240  -11.7400   20.8990 C   0  0  0  0  0  0  0  0  0  0  0  0
  -26.2530  -13.0000   20.3060 N   0  0  0  0  0  0  0  0  0  0  0  0
  -25.9110  -11.7130   20.5700 N   0  0  0  0  0  0  0  0  0  0  0  0
  -23.9070  -10.4730   21.0850 C   0  0  0  0  0  0  0  0  0  0  0  0
  -24.3560   -9.4940   21.9970 C   0  0  0  0  0  3  0  0  0  0  0  0
  -23.6370   -8.2920   22.1710 C   0  0  0  0  0  3  0  0  0  0  0  0
  -22.4510   -8.0620   21.4340 C   0  0  0  0  0  0  0  0  0  0  0  0
  -22.0200   -9.0300   20.5090 C   0  0  0  0  0  3  0  0  0  0  0  0
  -22.7400  -10.2230   20.3340 C   0  0  0  0  0  3  0  0  0  0  0  0
  -21.6990   -6.9150   21.5210 O   0  0  0  0  0  0  0  0  0  0  0  0
  -21.6740   -6.1560   22.6630 C   0  0  0  0  0  0  0  0  0  0  0  0
  -21.2560   -6.6870   23.9030 C   0  0  0  0  0  3  0  0  0  0  0  0
  -21.1820   -5.8530   25.0370 C   0  0  0  0  0  3  0  0  0  0  0  0
  -21.5110   -4.4890   24.9310 C   0  0  0  0  0  0  0  0  0  0  0  0
  -21.9200   -3.9570   23.6950 C   0  0  0  0  0  3  0  0  0  0  0  0
  -21.9990   -4.7890   22.5650 C   0  0  0  0  0  0  0  0  0  0  0  0
  -22.3740   -4.2660   21.3720 F   0  0  0  0  0  0  0  0  0  0  0  0
  -21.4310   -3.6860   26.0170 F   0  0  0  0  0  0  0  0  0  0  0  0
  -22.7600  -13.5570   21.2420 C   0  0  0  0  0  0  0  0  0  0  0  0
  -22.0440  -12.8490   22.1090 N   0  0  0  0  0  0  0  0  0  0  0  0
  -22.3130  -14.5880   20.7390 O   0  0  0  0  0  0  0  0  0  0  0  0
  -22.4200  -12.0160   22.5370 H   0  0  0  0  0  0  0  0  0  0  0  0
  -21.1080  -13.1420   22.3480 H   0  0  0  0  0  0  0  0  0  0  0  0
  -25.3670  -15.2450   20.4030 N   0  0  0  0  0  0  0  0  0  0  0  0
  -24.5960  -15.8930   20.5260 H   0  0  0  0  0  0  0  0  0  0  0  0
  -26.1980  -15.6880   20.0350 H   0  0  0  0  0  0  0  0  0  0  0  0
  -28.6380  -21.7420   20.2180 C   0  0  0  0  0  2  0  0  0  0  0  0
  -28.9560  -23.3780   20.5460 C   0  0  0  0  0  3  0  0  0  0  0  0
  -27.9810  -24.6850   20.1170 C   0  0  0  0  0  3  0  0  0  0  0  0
  -28.2410  -26.2050   20.3330 O   0  0  0  0  0  0  0  0  0  0  0  0
  -24.6270  -31.9120   23.2430 C   0  0  0  0  0  0  0  0  0  0  0  0
  -27.1890  -27.1870   20.2390 C   0  0  0  0  0  0  0  0  0  0  0  0
  -23.4230  -30.5140   21.6080 C   0  0  0  0  0  3  0  0  0  0  0  0
  -24.8650  -28.9330   20.1880 C   0  0  0  0  0  0  0  0  0  0  0  0
  -25.9760  -30.7780   21.4370 C   0  0  0  0  0  2  0  0  0  0  0  0
  -26.0450  -29.3810   20.7960 C   0  0  0  0  0  0  0  0  0  0  0  0
  -27.2080  -28.5240   20.8050 C   0  0  0  0  0  3  0  0  0  0  0  0
  -25.9860  -26.8400   19.5860 C   0  0  0  0  0  3  0  0  0  0  0  0
  -24.8490  -27.6750   19.5660 C   0  0  0  0  0  3  0  0  0  0  0  0
  -23.6400  -29.8300   20.2310 C   0  0  0  0  0  2  0  0  0  0  0  0
  -24.6960  -31.0900   22.1520 N   0  0  0  0  0  0  0  0  0  0  0  0
  -23.5410  -32.2020   23.7680 O   0  0  0  0  0  0  0  0  0  0  0  0
  -22.7390  -29.5150   22.5740 C   0  0  0  0  0  0  0  0  0  0  0  0
  -21.4110  -29.3520   22.4490 N   0  0  0  0  0  0  0  0  0  0  0  0
  -23.4080  -28.8880   23.4010 O   0  0  0  0  0  0  0  0  0  0  0  0
  -20.9290  -29.9070   21.7570 H   0  0  0  0  0  0  0  0  0  0  0  0
  -18.0190  -28.1790   22.9550 C   0  0  0  0  0  0  0  0  0  0  0  0
  -20.5820  -28.4200   23.2200 C   0  0  0  0  0  3  0  0  0  0  0  0
  -20.6710  -26.9880   22.6440 C   0  0  0  0  0  2  0  0  0  0  0  0
  -19.5640  -26.6720   21.6320 C   0  0  0  0  0  2  0  0  0  0  0  0
  -18.1850  -26.8290   22.2780 C   0  0  0  0  0  2  0  0  0  0  0  0
  -19.1450  -28.9330   23.3830 C   0  0  0  0  0  0  0  0  0  0  0  0
  -18.9350  -30.1970   23.9750 C   0  0  0  0  0  3  0  0  0  0  0  0
  -17.6340  -30.7050   24.1480 C   0  0  0  0  0  3  0  0  0  0  0  0
  -16.5240  -29.9470   23.7360 C   0  0  0  0  0  3  0  0  0  0  0  0
  -16.7170  -28.6880   23.1430 C   0  0  0  0  0  3  0  0  0  0  0  0
  -25.9060  -32.5450   23.8700 C   0  0  0  0  0  3  0  0  0  0  0  0
  -26.4120  -31.7760   25.1520 C   0  0  1  0  0  0  0  0  0  0  0  0
  -25.3120  -31.5430   26.2170 C   0  0  0  0  0  1  0  0  0  0  0  0
  -26.9910  -30.3970   24.7660 C   0  0  0  0  0  1  0  0  0  0  0  0
  -27.5670  -32.5640   25.8160 C   0  0  0  0  0  1  0  0  0  0  0  0
  -25.6020  -33.9450   24.2010 N   0  0  0  0  0  0  0  0  0  0  0  0
  -25.9190  -34.9990   23.4370 C   0  0  0  0  0  0  0  0  0  0  0  0
  -26.5680  -34.8940   22.3920 O   0  0  0  0  0  0  0  0  0  0  0  0
  -25.0230  -34.1020   25.0130 H   0  0  0  0  0  0  0  0  0  0  0  0
  -24.1760  -36.7880   23.1360 C   0  0  0  0  0  1  0  0  0  0  0  0
  -25.4440  -36.3880   23.9060 C   0  0  0  0  0  3  0  0  0  0  0  0
  -27.5970  -37.2860   24.6660 C   0  0  0  0  0  1  0  0  0  0  0  0
  -26.4670  -37.4440   23.7560 N   0  0  0  0  0  0  0  0  0  0  0  0
  -26.0620  -38.3620   23.9120 H   0  0  0  0  0  0  0  0  0  0  0  0
  1  2  1  0
  1  7  2  0
  2  3  1  0
  4  5  1  0
  4  6  1  0
  5 16  1  0
  5  3  1  0
  6  1  1  0
  8 16  1  0
  9 14  1  0
 10 11  1  0
 10  9  1  0
 12 11  1  0
 12 21  1  0
 12 13  1  0
 14  8  1  0
 14 13  1  0
 15  8  2  0
 16 17  1  0
 18 19  2  0
 19 38  1  0
 20 19  1  0
 20 23  1  0
 21 22  1  0
 21 18  1  0
 22 20  2  0
 23 24  1  0
 24 25  2  0
 26 29  1  0
 26 25  1  0
 27 26  2  0
 28 27  1  0
 28 23  2  0
 29 30  1  0
 30 31  1  0
 31 32  2  0
 33 32  1  0
 33 37  1  0
 34 33  2  0
 35 30  2  0
 35 34  1  0
 36 35  1  0
 38 39  1  0
 39 42  1  0
 39 41  1  0
 40 38  2  0
 43 44  1  0
 43 18  1  0
 45 43  1  0
 46 47  1  0
 46  6  1  0
 48 49  1  0
 48 47  2  0
 50 61  2  0
 51 49  1  0
 51 56  1  0
 52 60  1  0
 52 62  1  0
 53 59  1  0
 53 55  1  0
 54 60  1  0
 55 56  2  0
 55 54  1  0
 57 51  2  0
 58 57  1  0
 58 53  2  0
 59 52  1  0
 60 50  1  0
 62 64  2  0
 63 62  1  0
 65 63  1  0
 66 75  2  0
 66 71  1  0
 67 63  1  0
 67 71  1  0
 68 67  1  0
 69 70  1  0
 69 68  1  0
 70 66  1  0
 71 72  2  0
 72 73  1  0
 74 73  2  0
 75 74  1  0
 76 50  1  0
 76 81  1  0
 76 77  1  0
 77 80  1  1
 77 78  1  0
 79 77  1  0
 81 84  1  0
 82 86  1  0
 82 81  1  0
 83 82  2  0
 86 85  1  0
 88 86  1  0
 88 89  1  0
 88 87  1  0
M  ISO  4   8 100  16 100  48 101  49 101
M  END
>  <TORSDO>  (10) 
F 19

>  <SCORE>  (10) 
-15.291

>  <name>  (10) 
10

>  <ligand_id>  (10) 
10

>  <original_smiles>  (10) 
[H]c1c([H])c([H])c2c(c1[H])C([H])([H])C([H])([H])C([H])([H])C2([H])N([H])C(=O)C1([H])N(C(=O)C([H])(N([H])C(=O)C([H])(N([H])C([H])([H])[H])C([H])([H])[H])C(C([H])([H])[H])(C([H])([H])[H])C([H])([H])[H])C([H])([H])c2c([H])c(OC([H])([H])C([H])([H])C([H])([H])N3C(=O)C([H])([H])C([H])([H])C([H])(N([H])C(=O)N4C([H])([H])C([H])([H])C([H])([H])C([H])(n5nc(-c6c([H])c([H])c(Oc7c([H])c([H])c(F)c([H])c7F)c([H])c6[H])c(C(=O)N([H])[H])c5N([H])[H])C4([H])[H])C3([H])[H])c([H])c([H])c2C1([H])[H]

>  <smiles>  (10) 
[H]c1c([H])c([H])c2c(c1[H])C([H])([H])C([H])([H])C([H])([H])C2([H])N([H])C(=O)C1([H])N(C(=O)C([H])(N([H])C(=O)C([H])(N([H])C([H])([H])[H])C([H])([H])[H])C(C([H])([H])[H])(C([H])([H])[H])C([H])([H])[H])C([H])([H])c2c([H])c(OC([H])([H])C([H])([H])C([H])([H])N3C(=O)C([H])([H])C([H])([H])C([H])(N([H])C(=O)N4C([H])([H])C([H])([H])C([H])([H])C([H])(n5nc(-c6c([H])c([H])c(Oc7c([H])c([H])c(F)c([H])c7F)c([H])c6[H])c(C(=O)N([H])[H])c5N([H])[H])C4([H])[H])C3([H])[H])c([H])c([H])c2C1([H])[H]

$$$$
11:0:0
     RDKit          3D

 91100  0  0  1  0  0  0  0  0999 V2000
  -29.4630  -19.5530   17.6260 C   0  0  0  0  0  2  0  0  0  0  0  0
  -30.7100  -18.9770   18.3210 C   0  0  0  0  0  2  0  0  0  0  0  0
  -28.5600  -20.1180   18.7450 C   0  0  0  0  0  2  0  0  0  0  0  0
  -30.3150  -18.9000   19.7970 C   0  0  0  0  0  3  0  0  0  0  0  0
  -29.4150  -20.2160   19.9460 N   0  0  1  0  0  4  0  0  0  0  0  0
  -28.8500  -20.0970   20.7710 H   0  0  0  0  0  0  0  0  0  0  0  0
  -30.8790  -14.8130   19.4560 C   0  0  0  0  0  0  0  0  0  0  0  0
  -30.4470  -12.5630   18.3400 C   0  0  0  0  0  2  0  0  0  0  0  0
  -29.3110  -12.6750   17.2960 C   0  0  0  0  0  2  0  0  0  0  0  0
  -27.9360  -12.4760   17.9600 C   0  0  0  0  0  2  0  0  0  0  0  0
  -27.8000  -13.2900   19.2700 C   0  0  0  0  0  3  0  0  0  0  0  0
  -29.0320  -13.1450   20.1820 C   0  0  0  0  0  2  0  0  0  0  0  0
  -30.2110  -13.5800   19.4150 N   0  0  0  0  0  0  0  0  0  0  0  0
  -31.9010  -14.9090   18.7680 O   0  0  0  0  0  0  0  0  0  0  0  0
  -29.4880  -16.6020   22.2760 C   0  0  0  0  0  2  0  0  0  0  0  0
  -28.9680  -17.4310   21.3800 C   0  0  0  0  0  2  0  0  0  0  0  0
  -30.5860  -15.7670   21.6860 C   0  0  0  0  0  2  0  0  0  0  0  0
  -29.6690  -17.3450   20.0480 C   0  0  0  0  0  3  0  0  0  0  0  0
  -30.4160  -15.9280   20.2290 N   0  0  0  0  0  0  0  0  0  0  0  0
  -25.6380  -13.8790   20.5070 C   0  0  0  0  0  0  0  0  0  0  0  0
  -24.6130  -13.1130   20.9880 C   0  0  0  0  0  0  0  0  0  0  0  0
  -24.9780  -11.7560   20.7290 C   0  0  0  0  0  0  0  0  0  0  0  0
  -26.5600  -12.9920   19.9780 N   0  0  0  0  0  0  0  0  0  0  0  0
  -26.1840  -11.7010   20.1740 N   0  0  0  0  0  0  0  0  0  0  0  0
  -24.2180  -10.5130   20.9230 C   0  0  0  0  0  0  0  0  0  0  0  0
  -24.7060   -9.4690   21.7390 C   0  0  0  0  0  3  0  0  0  0  0  0
  -23.9460   -8.2920   21.9250 C   0  0  0  0  0  3  0  0  0  0  0  0
  -22.6860   -8.1540   21.2970 C   0  0  0  0  0  0  0  0  0  0  0  0
  -22.2160   -9.1870   20.4670 C   0  0  0  0  0  3  0  0  0  0  0  0
  -22.9760  -10.3550   20.2780 C   0  0  0  0  0  3  0  0  0  0  0  0
  -21.8910   -7.0380   21.4010 O   0  0  0  0  0  0  0  0  0  0  0  0
  -21.8660   -6.2750   22.5400 C   0  0  0  0  0  0  0  0  0  0  0  0
  -21.5300   -6.8230   23.7980 C   0  0  0  0  0  3  0  0  0  0  0  0
  -21.4480   -5.9880   24.9310 C   0  0  0  0  0  3  0  0  0  0  0  0
  -21.6940   -4.6070   24.8080 C   0  0  0  0  0  0  0  0  0  0  0  0
  -22.0230   -4.0590   23.5560 C   0  0  0  0  0  3  0  0  0  0  0  0
  -22.1050   -4.8900   22.4250 C   0  0  0  0  0  0  0  0  0  0  0  0
  -22.4030   -4.3540   21.2180 F   0  0  0  0  0  0  0  0  0  0  0  0
  -21.6080   -3.8040   25.8940 F   0  0  0  0  0  0  0  0  0  0  0  0
  -23.3240  -13.6170   21.5690 C   0  0  0  0  0  0  0  0  0  0  0  0
  -22.7360  -12.8710   22.4980 N   0  0  0  0  0  0  0  0  0  0  0  0
  -22.8560  -14.7040   21.2350 O   0  0  0  0  0  0  0  0  0  0  0  0
  -23.1300  -11.9880   22.7880 H   0  0  0  0  0  0  0  0  0  0  0  0
  -21.8770  -13.1890   22.9260 H   0  0  0  0  0  0  0  0  0  0  0  0
  -25.8520  -15.2520   20.4510 N   0  0  0  0  0  0  0  0  0  0  0  0
  -25.1640  -15.9140   20.7940 H   0  0  0  0  0  0  0  0  0  0  0  0
  -26.6730  -15.6940   20.0610 H   0  0  0  0  0  0  0  0  0  0  0  0
  -29.9870  -21.7110   20.0290 C   0  0  0  0  0  2  0  0  0  0  0  0
  -29.0700  -23.1020   20.4060 C   0  0  0  0  0  2  0  0  0  0  0  0
  -29.1670  -24.6500   19.7080 C   0  0  0  0  0  2  0  0  0  0  0  0
  -28.9360  -26.0890   20.2770 O   0  0  0  0  0  0  0  0  0  0  0  0
  -24.8620  -31.5420   23.0540 C   0  0  0  0  0  0  0  0  0  0  0  0
  -27.8090  -26.9780   20.1170 C   0  0  0  0  0  0  0  0  0  0  0  0
  -23.7980  -30.0830   21.3730 C   0  0  0  0  0  3  0  0  0  0  0  0
  -25.3830  -28.5860   19.9990 C   0  0  0  0  0  0  0  0  0  0  0  0
  -26.3370  -30.4870   21.3010 C   0  0  0  0  0  2  0  0  0  0  0  0
  -26.5100  -29.1010   20.6520 C   0  0  0  0  0  0  0  0  0  0  0  0
  -27.7170  -28.3090   20.6970 C   0  0  0  0  0  3  0  0  0  0  0  0
  -26.6530  -26.5590   19.4250 C   0  0  0  0  0  3  0  0  0  0  0  0
  -25.4680  -27.3300   19.3730 C   0  0  0  0  0  3  0  0  0  0  0  0
  -24.1060  -29.4150   20.0040 C   0  0  0  0  0  2  0  0  0  0  0  0
  -25.0160  -30.7280   21.9650 N   0  0  0  0  0  0  0  0  0  0  0  0
  -23.7430  -31.7670   23.5430 O   0  0  0  0  0  0  0  0  0  0  0  0
  -23.1400  -29.0430   22.3140 C   0  0  0  0  0  0  0  0  0  0  0  0
  -21.8170  -28.8450   22.1810 N   0  0  0  0  0  0  0  0  0  0  0  0
  -23.8240  -28.4160   23.1280 O   0  0  0  0  0  0  0  0  0  0  0  0
  -21.3210  -29.4070   21.5030 H   0  0  0  0  0  0  0  0  0  0  0  0
  -18.4540  -27.5980   22.6910 C   0  0  0  0  0  0  0  0  0  0  0  0
  -21.0150  -27.8730   22.9280 C   0  0  0  0  0  3  0  0  0  0  0  0
  -21.1190  -26.4630   22.3000 C   0  0  0  0  0  2  0  0  0  0  0  0
  -20.0040  -26.1690   21.2910 C   0  0  0  0  0  2  0  0  0  0  0  0
  -18.6300  -26.2770   21.9610 C   0  0  0  0  0  2  0  0  0  0  0  0
  -19.5720  -28.3540   23.1310 C   0  0  0  0  0  0  0  0  0  0  0  0
  -19.3520  -29.5900   23.7760 C   0  0  0  0  0  3  0  0  0  0  0  0
  -18.0460  -30.0720   23.9830 C   0  0  0  0  0  3  0  0  0  0  0  0
  -16.9420  -29.3120   23.5580 C   0  0  0  0  0  3  0  0  0  0  0  0
  -17.1460  -28.0770   22.9180 C   0  0  0  0  0  3  0  0  0  0  0  0
  -26.0800  -32.2460   23.7270 C   0  0  0  0  0  3  0  0  0  0  0  0
  -26.6060  -31.4870   25.0080 C   0  0  1  0  0  0  0  0  0  0  0  0
  -25.4990  -31.1670   26.0410 C   0  0  0  0  0  1  0  0  0  0  0  0
  -27.2830  -30.1530   24.6170 C   0  0  0  0  0  1  0  0  0  0  0  0
  -27.6870  -32.3380   25.7150 C   0  0  0  0  0  1  0  0  0  0  0  0
  -25.6690  -33.6150   24.0800 N   0  0  0  0  0  0  0  0  0  0  0  0
  -25.9310  -34.7050   23.3460 C   0  0  0  0  0  0  0  0  0  0  0  0
  -26.6100  -34.6700   22.3180 O   0  0  0  0  0  0  0  0  0  0  0  0
  -25.0630  -33.7120   24.8800 H   0  0  0  0  0  0  0  0  0  0  0  0
  -24.0780  -36.3810   23.0350 C   0  0  0  0  0  1  0  0  0  0  0  0
  -25.3490  -36.0500   23.8320 C   0  0  0  0  0  3  0  0  0  0  0  0
  -27.4180  -37.0730   24.6700 C   0  0  0  0  0  1  0  0  0  0  0  0
  -26.3020  -37.1760   23.7320 N   0  0  0  0  0  0  0  0  0  0  0  0
  -25.8320  -38.0620   23.8970 H   0  0  0  0  0  0  0  0  0  0  0  0
  1  2  1  0
  1  3  1  0
  3  5  1  0
  4  2  1  0
  4  5  1  0
  4 18  1  0
  5 48  1  0
  5  6  1  1
  7 19  1  0
  8 13  1  0
  9 10  1  0
  9  8  1  0
 11 10  1  0
 11 23  1  0
 11 12  1  0
 13  7  1  0
 13 12  1  0
 14  7  2  0
 16 15  1  0
 17 15  1  0
 18 19  1  0
 18 16  1  0
 19 17  1  0
 20 21  2  0
 21 40  1  0
 22 25  1  0
 22 21  1  0
 23 24  1  0
 23 20  1  0
 24 22  2  0
 25 26  1  0
 26 27  2  0
 28 31  1  0
 28 27  1  0
 29 28  2  0
 30 29  1  0
 30 25  2  0
 31 32  1  0
 32 33  1  0
 33 34  2  0
 35 34  1  0
 35 39  1  0
 36 35  2  0
 37 32  2  0
 37 36  1  0
 38 37  1  0
 40 41  1  0
 41 43  1  0
 41 44  1  0
 42 40  2  0
 45 20  1  0
 45 46  1  0
 47 45  1  0
 48 49  1  0
 50 51  1  0
 50 49  1  0
 52 63  2  0
 53 51  1  0
 53 58  1  0
 54 62  1  0
 54 64  1  0
 55 61  1  0
 55 57  1  0
 56 62  1  0
 57 58  2  0
 57 56  1  0
 59 53  2  0
 60 59  1  0
 60 55  2  0
 61 54  1  0
 62 52  1  0
 64 66  2  0
 65 64  1  0
 67 65  1  0
 68 77  2  0
 68 73  1  0
 69 65  1  0
 69 73  1  0
 70 69  1  0
 71 72  1  0
 71 70  1  0
 72 68  1  0
 73 74  2  0
 74 75  1  0
 76 75  2  0
 77 76  1  0
 78 52  1  0
 78 83  1  0
 78 79  1  0
 79 82  1  1
 79 80  1  0
 81 79  1  0
 83 86  1  0
 84 88  1  0
 84 83  1  0
 85 84  2  0
 88 87  1  0
 90 88  1  0
 90 91  1  0
 90 89  1  0
M  ISO  4   7 100  19 100  50 101  51 101
M  END
>  <TORSDO>  (11) 
F 19

>  <SCORE>  (11) 
-11.895

>  <name>  (11) 
11

>  <ligand_id>  (11) 
11

>  <original_smiles>  (11) 
[H]C1=C([H])C([H])(C2([H])C([H])([H])C([H])([H])C([H])([H])[N+]2([H])C([H])([H])C([H])([H])C([H])([H])Oc2c([H])c([H])c3c(c2[H])C([H])([H])N(C(=O)C([H])(N([H])C(=O)C([H])(N([H])C([H])([H])[H])C([H])([H])[H])C(C([H])([H])[H])(C([H])([H])[H])C([H])([H])[H])C([H])(C(=O)N([H])C2([H])c4c([H])c([H])c([H])c([H])c4C([H])([H])C([H])([H])C2([H])[H])C3([H])[H])N(C(=O)N2C([H])([H])C([H])([H])C([H])([H])C([H])(n3nc(-c4c([H])c([H])c(Oc5c([H])c([H])c(F)c([H])c5F)c([H])c4[H])c(C(=O)N([H])[H])c3N([H])[H])C2([H])[H])C1([H])[H]

>  <smiles>  (11) 
[H]C1=C([H])C([H])(C2([H])C([H])([H])C([H])([H])C([H])([H])[N+]2([H])C([H])([H])C([H])([H])C([H])([H])Oc2c([H])c([H])c3c(c2[H])C([H])([H])N(C(=O)C([H])(N([H])C(=O)C([H])(N([H])C([H])([H])[H])C([H])([H])[H])C(C([H])([H])[H])(C([H])([H])[H])C([H])([H])[H])C([H])(C(=O)N([H])C2([H])c4c([H])c([H])c([H])c([H])c4C([H])([H])C([H])([H])C2([H])[H])C3([H])[H])N(C(=O)N2C([H])([H])C([H])([H])C([H])([H])C([H])(n3nc(-c4c([H])c([H])c(Oc5c([H])c([H])c(F)c([H])c5F)c([H])c4[H])c(C(=O)N([H])[H])c3N([H])[H])C2([H])[H])C1([H])[H]

$$$$
12:0:0
     RDKit          3D

 90 97  0  0  1  0  0  0  0  0999 V2000
  -29.5390  -21.8770   20.7790 C   0  0  0  0  0  2  0  0  0  0  0  0
  -28.9860  -22.9380   19.9220 N   0  0  0  0  0  0  0  0  0  0  0  0
  -28.0060  -22.7400   19.7320 H   0  0  0  0  0  0  0  0  0  0  0  0
  -29.0760  -24.2850   20.5160 C   0  0  0  0  0  2  0  0  0  0  0  0
  -28.5320  -25.3730   19.5460 C   0  0  0  0  0  2  0  0  0  0  0  0
  -28.4140  -26.6850   20.1510 O   0  0  0  0  0  0  0  0  0  0  0  0
  -24.6120  -31.8920   23.2330 C   0  0  0  0  0  0  0  0  0  0  0  0
  -27.2220  -27.4040   20.1310 C   0  0  0  0  0  0  0  0  0  0  0  0
  -23.3930  -30.4930   21.6020 C   0  0  0  0  0  3  0  0  0  0  0  0
  -24.8320  -28.9530   20.1700 C   0  0  0  0  0  0  0  0  0  0  0  0
  -25.9250  -30.8310   21.3950 C   0  0  0  0  0  2  0  0  0  0  0  0
  -25.9990  -29.4590   20.7520 C   0  0  0  0  0  0  0  0  0  0  0  0
  -27.1920  -28.6920   20.7320 C   0  0  0  0  0  3  0  0  0  0  0  0
  -26.0220  -26.9270   19.5460 C   0  0  0  0  0  3  0  0  0  0  0  0
  -24.8400  -27.6860   19.5680 C   0  0  0  0  0  3  0  0  0  0  0  0
  -23.5930  -29.8170   20.2220 C   0  0  0  0  0  2  0  0  0  0  0  0
  -24.6620  -31.0870   22.1340 N   0  0  0  0  0  0  0  0  0  0  0  0
  -23.5340  -32.1690   23.7760 O   0  0  0  0  0  0  0  0  0  0  0  0
  -22.7460  -29.4710   22.5660 C   0  0  0  0  0  0  0  0  0  0  0  0
  -21.4210  -29.2910   22.4480 N   0  0  0  0  0  0  0  0  0  0  0  0
  -23.4340  -28.8450   23.3770 O   0  0  0  0  0  0  0  0  0  0  0  0
  -20.9260  -29.8490   21.7650 H   0  0  0  0  0  0  0  0  0  0  0  0
  -18.0480  -28.0970   22.9610 C   0  0  0  0  0  0  0  0  0  0  0  0
  -20.6070  -28.3560   23.2240 C   0  0  0  0  0  3  0  0  0  0  0  0
  -20.7080  -26.9220   22.6550 C   0  0  0  0  0  2  0  0  0  0  0  0
  -19.6030  -26.5950   21.6450 C   0  0  0  0  0  2  0  0  0  0  0  0
  -18.2230  -26.7440   22.2920 C   0  0  0  0  0  2  0  0  0  0  0  0
  -19.1670  -28.8610   23.3840 C   0  0  0  0  0  0  0  0  0  0  0  0
  -18.9500  -30.1280   23.9680 C   0  0  0  0  0  3  0  0  0  0  0  0
  -17.6460  -30.6300   24.1340 C   0  0  0  0  0  3  0  0  0  0  0  0
  -16.5400  -29.8630   23.7270 C   0  0  0  0  0  3  0  0  0  0  0  0
  -16.7420  -28.5980   23.1460 C   0  0  0  0  0  3  0  0  0  0  0  0
  -25.9020  -32.5240   23.8410 C   0  0  0  0  0  3  0  0  0  0  0  0
  -26.4360  -31.7460   25.1070 C   0  0  1  0  0  0  0  0  0  0  0  0
  -25.3560  -31.5000   26.1850 C   0  0  0  0  0  1  0  0  0  0  0  0
  -27.0170  -30.3710   24.7010 C   0  0  0  0  0  1  0  0  0  0  0  0
  -27.5930  -32.5380   25.7590 C   0  0  0  0  0  1  0  0  0  0  0  0
  -25.5920  -33.9190   24.1820 N   0  0  0  0  0  0  0  0  0  0  0  0
  -25.9100  -34.9750   23.4220 C   0  0  0  0  0  0  0  0  0  0  0  0
  -26.5650  -34.8790   22.3810 O   0  0  0  0  0  0  0  0  0  0  0  0
  -25.0060  -34.0660   24.9900 H   0  0  0  0  0  0  0  0  0  0  0  0
  -24.1650  -36.7580   23.1040 C   0  0  0  0  0  1  0  0  0  0  0  0
  -25.4220  -36.3590   23.8920 C   0  0  0  0  0  3  0  0  0  0  0  0
  -27.5690  -37.2520   24.6830 C   0  0  0  0  0  1  0  0  0  0  0  0
  -26.4460  -37.4190   23.7640 N   0  0  0  0  0  0  0  0  0  0  0  0
  -26.0390  -38.3360   23.9250 H   0  0  0  0  0  0  0  0  0  0  0  0
  -29.2780  -20.4450   20.2060 C   0  0  0  0  0  2  0  0  0  0  0  0
  -29.9590  -19.3610   20.9710 N   0  0  0  0  0  4  0  0  0  0  0  0
  -30.9530  -19.4810   20.8660 H   0  0  0  0  0  0  0  0  0  0  0  0
  -29.7380  -19.4840   21.9470 H   0  0  0  0  0  0  0  0  0  0  0  0
  -29.5950  -17.9640   20.5850 C   0  0  0  0  0  2  0  0  0  0  0  0
  -30.3920  -16.8790   21.3710 C   0  0  0  0  0  2  0  0  0  0  0  0
  -30.6370  -14.4980   20.5150 C   0  0  0  0  0  0  0  0  0  0  0  0
  -30.3390  -12.3450   19.3390 C   0  0  0  0  0  2  0  0  0  0  0  0
  -29.3830  -12.5410   18.1440 C   0  0  0  0  0  2  0  0  0  0  0  0
  -27.9140  -12.3960   18.5870 C   0  0  0  0  0  2  0  0  0  0  0  0
  -27.5840  -13.2320   19.8520 C   0  0  0  0  0  3  0  0  0  0  0  0
  -28.6470  -13.0070   20.9500 C   0  0  0  0  0  2  0  0  0  0  0  0
  -29.9660  -13.3220   20.3740 N   0  0  0  0  0  0  0  0  0  0  0  0
  -31.7520  -14.6960   20.0290 O   0  0  0  0  0  0  0  0  0  0  0  0
  -29.9470  -15.4910   21.1130 N   0  0  0  0  0  0  0  0  0  0  0  0
  -29.0300  -15.2400   21.4510 H   0  0  0  0  0  0  0  0  0  0  0  0
  -25.1920  -13.8430   20.5770 C   0  0  0  0  0  0  0  0  0  0  0  0
  -24.1240  -13.0710   20.9510 C   0  0  0  0  0  0  0  0  0  0  0  0
  -24.5820  -11.7190   20.9130 C   0  0  0  0  0  0  0  0  0  0  0  0
  -26.2340  -12.9600   20.3380 N   0  0  0  0  0  0  0  0  0  0  0  0
  -25.8700  -11.6770   20.5970 N   0  0  0  0  0  0  0  0  0  0  0  0
  -23.8550  -10.4580   21.1020 C   0  0  0  0  0  0  0  0  0  0  0  0
  -24.3090   -9.4710   22.0050 C   0  0  0  0  0  3  0  0  0  0  0  0
  -23.5820   -8.2740   22.1830 C   0  0  0  0  0  3  0  0  0  0  0  0
  -22.3870   -8.0560   21.4570 C   0  0  0  0  0  0  0  0  0  0  0  0
  -21.9510   -9.0310   20.5430 C   0  0  0  0  0  3  0  0  0  0  0  0
  -22.6780  -10.2190   20.3630 C   0  0  0  0  0  3  0  0  0  0  0  0
  -21.6280   -6.9130   21.5460 O   0  0  0  0  0  0  0  0  0  0  0  0
  -21.6290   -6.1360   22.6770 C   0  0  0  0  0  0  0  0  0  0  0  0
  -21.2830   -6.6610   23.9410 C   0  0  0  0  0  3  0  0  0  0  0  0
  -21.2290   -5.8110   25.0640 C   0  0  0  0  0  3  0  0  0  0  0  0
  -21.5080   -4.4400   24.9250 C   0  0  0  0  0  0  0  0  0  0  0  0
  -21.8470   -3.9130   23.6660 C   0  0  0  0  0  3  0  0  0  0  0  0
  -21.9040   -4.7600   22.5440 C   0  0  0  0  0  0  0  0  0  0  0  0
  -22.2100   -4.2450   21.3290 F   0  0  0  0  0  0  0  0  0  0  0  0
  -21.4480   -3.6210   26.0020 F   0  0  0  0  0  0  0  0  0  0  0  0
  -22.7290  -13.5510   21.2350 C   0  0  0  0  0  0  0  0  0  0  0  0
  -22.0070  -12.8530   22.1040 N   0  0  0  0  0  0  0  0  0  0  0  0
  -22.2890  -14.5790   20.7200 O   0  0  0  0  0  0  0  0  0  0  0  0
  -22.3760  -12.0210   22.5410 H   0  0  0  0  0  0  0  0  0  0  0  0
  -21.0720  -13.1560   22.3370 H   0  0  0  0  0  0  0  0  0  0  0  0
  -25.3580  -15.2130   20.4010 N   0  0  0  0  0  0  0  0  0  0  0  0
  -24.5890  -15.8670   20.5040 H   0  0  0  0  0  0  0  0  0  0  0  0
  -26.1980  -15.6450   20.0380 H   0  0  0  0  0  0  0  0  0  0  0  0
  2  4  1  0
  2  1  1  0
  3  2  1  0
  5  6  1  0
  5  4  1  0
  7 18  2  0
  8  6  1  0
  8 13  1  0
  9 17  1  0
  9 19  1  0
 10 16  1  0
 10 12  1  0
 11 17  1  0
 12 11  1  0
 13 12  2  0
 14 15  1  0
 14  8  2  0
 15 10  2  0
 16  9  1  0
 17  7  1  0
 19 21  2  0
 20 19  1  0
 22 20  1  0
 23 32  2  0
 23 28  1  0
 24 20  1  0
 24 28  1  0
 25 24  1  0
 26 27  1  0
 26 25  1  0
 27 23  1  0
 28 29  2  0
 29 30  1  0
 31 30  2  0
 32 31  1  0
 33  7  1  0
 33 38  1  0
 33 34  1  0
 34 37  1  1
 34 35  1  0
 36 34  1  0
 38 41  1  0
 39 43  1  0
 39 38  1  0
 40 39  2  0
 43 42  1  0
 45 43  1  0
 45 46  1  0
 45 44  1  0
 47  1  1  0
 47 48  1  0
 48 50  1  0
 49 48  1  0
 51 48  1  0
 51 52  1  0
 53 61  1  0
 54 59  1  0
 55 56  1  0
 55 54  1  0
 57 56  1  0
 57 66  1  0
 57 58  1  0
 59 53  1  0
 59 58  1  0
 60 53  2  0
 61 52  1  0
 61 62  1  0
 63 64  2  0
 64 83  1  0
 65 64  1  0
 65 68  1  0
 66 63  1  0
 66 67  1  0
 67 65  2  0
 68 69  1  0
 69 70  2  0
 71 74  1  0
 71 70  1  0
 72 71  2  0
 73 72  1  0
 73 68  2  0
 74 75  1  0
 75 76  1  0
 76 77  2  0
 78 77  1  0
 78 82  1  0
 79 78  2  0
 80 75  2  0
 80 79  1  0
 81 80  1  0
 83 84  1  0
 84 87  1  0
 84 86  1  0
 85 83  2  0
 88 89  1  0
 88 63  1  0
 90 88  1  0
M  ISO  4   5 101   6 101  53 100  61 100
M  END
>  <TORSDO>  (12) 
F 23

>  <SCORE>  (12) 
-12.740

>  <name>  (12) 
12

>  <ligand_id>  (12) 
12

>  <original_smiles>  (12) 
[H]c1c([H])c([H])c2c(c1[H])C([H])([H])C([H])([H])C([H])([H])C2([H])N([H])C(=O)C1([H])N(C(=O)C([H])(N([H])C(=O)C([H])(N([H])C([H])([H])[H])C([H])([H])[H])C(C([H])([H])[H])(C([H])([H])[H])C([H])([H])[H])C([H])([H])c2c([H])c(OC([H])([H])C([H])([H])N([H])C([H])([H])C([H])([H])[N+]([H])([H])C([H])([H])C([H])([H])N([H])C(=O)N3C([H])([H])C([H])([H])C([H])([H])C([H])(n4nc(-c5c([H])c([H])c(Oc6c([H])c([H])c(F)c([H])c6F)c([H])c5[H])c(C(=O)N([H])[H])c4N([H])[H])C3([H])[H])c([H])c([H])c2C1([H])[H]

>  <smiles>  (12) 
[H]c1c([H])c([H])c2c(c1[H])C([H])([H])C([H])([H])C([H])([H])C2([H])N([H])C(=O)C1([H])N(C(=O)C([H])(N([H])C(=O)C([H])(N([H])C([H])([H])[H])C([H])([H])[H])C(C([H])([H])[H])(C([H])([H])[H])C([H])([H])[H])C([H])([H])c2c([H])c(OC([H])([H])C([H])([H])N([H])C([H])([H])C([H])([H])[N+]([H])([H])C([H])([H])C([H])([H])N([H])C(=O)N3C([H])([H])C([H])([H])C([H])([H])C([H])(n4nc(-c5c([H])c([H])c(Oc6c([H])c([H])c(F)c([H])c6F)c([H])c5[H])c(C(=O)N([H])[H])c4N([H])[H])C3([H])[H])c([H])c([H])c2C1([H])[H]

$$$$
13:0:0
     RDKit          3D

 93101  0  0  1  0  0  0  0  0999 V2000
  -28.2560  -22.4360   21.2330 C   0  0  0  0  0  2  0  0  0  0  0  0
  -29.3810  -22.6410   19.0740 C   0  0  0  0  0  2  0  0  0  0  0  0
  -28.8970  -20.9780   21.3780 C   0  0  0  0  0  2  0  0  0  0  0  0
  -30.0030  -21.1810   19.3250 C   0  0  0  0  0  2  0  0  0  0  0  0
  -28.9510  -23.5250   20.3190 C   0  0  0  0  0  3  0  0  0  0  0  0
  -29.1180  -20.2640   20.0980 N   0  0  0  0  0  0  0  0  0  0  0  0
  -28.0140  -24.8670   20.0170 C   0  0  0  0  0  2  0  0  0  0  0  0
  -28.2910  -26.3490   20.2760 O   0  0  0  0  0  0  0  0  0  0  0  0
  -24.6180  -31.9610   23.2360 C   0  0  0  0  0  0  0  0  0  0  0  0
  -27.2130  -27.2920   20.2110 C   0  0  0  0  0  0  0  0  0  0  0  0
  -23.4160  -30.5530   21.6060 C   0  0  0  0  0  3  0  0  0  0  0  0
  -24.8650  -28.9870   20.1830 C   0  0  0  0  0  0  0  0  0  0  0  0
  -25.9630  -30.8370   21.4320 C   0  0  0  0  0  2  0  0  0  0  0  0
  -26.0400  -29.4490   20.7890 C   0  0  0  0  0  0  0  0  0  0  0  0
  -27.2140  -28.6140   20.7960 C   0  0  0  0  0  3  0  0  0  0  0  0
  -26.0120  -26.9230   19.5600 C   0  0  0  0  0  3  0  0  0  0  0  0
  -24.8620  -27.7370   19.5510 C   0  0  0  0  0  3  0  0  0  0  0  0
  -23.6310  -29.8690   20.2300 C   0  0  0  0  0  2  0  0  0  0  0  0
  -24.6860  -31.1390   22.1460 N   0  0  0  0  0  0  0  0  0  0  0  0
  -23.5350  -32.2430   23.7680 O   0  0  0  0  0  0  0  0  0  0  0  0
  -22.7430  -29.5530   22.5770 C   0  0  0  0  0  0  0  0  0  0  0  0
  -21.4130  -29.3750   22.4520 N   0  0  0  0  0  0  0  0  0  0  0  0
  -23.4160  -28.9340   23.4030 O   0  0  0  0  0  0  0  0  0  0  0  0
  -20.9260  -29.9270   21.7590 H   0  0  0  0  0  0  0  0  0  0  0  0
  -18.0350  -28.1860   22.9710 C   0  0  0  0  0  0  0  0  0  0  0  0
  -20.5940  -28.4450   23.2330 C   0  0  0  0  0  3  0  0  0  0  0  0
  -20.6920  -27.0080   22.6670 C   0  0  0  0  0  2  0  0  0  0  0  0
  -19.5890  -26.6790   21.6550 C   0  0  0  0  0  2  0  0  0  0  0  0
  -18.2050  -26.8360   22.2960 C   0  0  0  0  0  2  0  0  0  0  0  0
  -19.1550  -28.9490   23.3950 C   0  0  0  0  0  0  0  0  0  0  0  0
  -18.9380  -30.2140   23.9820 C   0  0  0  0  0  3  0  0  0  0  0  0
  -17.6340  -30.7180   24.1490 C   0  0  0  0  0  3  0  0  0  0  0  0
  -16.5270  -29.9530   23.7430 C   0  0  0  0  0  3  0  0  0  0  0  0
  -16.7290  -28.6890   23.1580 C   0  0  0  0  0  3  0  0  0  0  0  0
  -25.8990  -32.5980   23.8570 C   0  0  0  0  0  3  0  0  0  0  0  0
  -25.5910  -33.9980   24.1850 N   0  0  0  0  0  0  0  0  0  0  0  0
  -25.9150  -35.0530   23.4260 C   0  0  0  0  0  0  0  0  0  0  0  0
  -26.5760  -34.9500   22.3890 O   0  0  0  0  0  0  0  0  0  0  0  0
  -25.0140  -34.1540   25.0000 H   0  0  0  0  0  0  0  0  0  0  0  0
  -24.1800  -36.8410   23.0890 C   0  0  0  0  0  1  0  0  0  0  0  0
  -25.4300  -36.4410   23.8890 C   0  0  0  0  0  3  0  0  0  0  0  0
  -27.5710  -37.3300   24.7000 C   0  0  0  0  0  1  0  0  0  0  0  0
  -26.4600  -37.4950   23.7650 N   0  0  0  0  0  0  0  0  0  0  0  0
  -26.0550  -38.4160   23.9090 H   0  0  0  0  0  0  0  0  0  0  0  0
  -26.4140  -31.8360   25.1390 C   0  0  1  0  0  0  0  0  0  0  0  0
  -25.3210  -31.6070   26.2080 C   0  0  0  0  0  1  0  0  0  0  0  0
  -26.9970  -30.4550   24.7580 C   0  0  0  0  0  1  0  0  0  0  0  0
  -27.5660  -32.6350   25.7940 C   0  0  0  0  0  1  0  0  0  0  0  0
  -29.0720  -18.7110   19.9820 C   0  0  0  0  0  3  0  0  0  0  0  0
  -30.1910  -17.6040   20.4720 C   0  0  0  0  0  2  0  0  0  0  0  0
  -30.6270  -14.9340   20.3180 C   0  0  0  0  0  0  0  0  0  0  0  0
  -30.4630  -12.6200   19.3520 C   0  0  0  0  0  2  0  0  0  0  0  0
  -29.5100  -12.6190   18.1330 C   0  0  0  0  0  2  0  0  0  0  0  0
  -28.0490  -12.4260   18.5840 C   0  0  0  0  0  2  0  0  0  0  0  0
  -27.6660  -13.3460   19.7730 C   0  0  0  0  0  3  0  0  0  0  0  0
  -28.7340  -13.3160   20.8860 C   0  0  0  0  0  2  0  0  0  0  0  0
  -30.0140  -13.6960   20.2710 N   0  0  0  0  0  0  0  0  0  0  0  0
  -31.8220  -15.0270   20.0240 O   0  0  0  0  0  0  0  0  0  0  0  0
  -29.8450  -16.0850   20.4820 N   0  0  0  0  0  0  0  0  0  0  0  0
  -28.8770  -15.8770   20.6710 H   0  0  0  0  0  0  0  0  0  0  0  0
  -25.2840  -13.9280   20.5220 C   0  0  0  0  0  0  0  0  0  0  0  0
  -24.2230  -13.1490   20.9010 C   0  0  0  0  0  0  0  0  0  0  0  0
  -24.6920  -11.8000   20.8630 C   0  0  0  0  0  0  0  0  0  0  0  0
  -26.3290  -13.0510   20.2780 N   0  0  0  0  0  0  0  0  0  0  0  0
  -25.9800  -11.7670   20.5480 N   0  0  0  0  0  0  0  0  0  0  0  0
  -23.9700  -10.5330   21.0510 C   0  0  0  0  0  0  0  0  0  0  0  0
  -24.4110   -9.5630   21.9750 C   0  0  0  0  0  3  0  0  0  0  0  0
  -23.6890   -8.3640   22.1550 C   0  0  0  0  0  3  0  0  0  0  0  0
  -22.5120   -8.1280   21.4040 C   0  0  0  0  0  0  0  0  0  0  0  0
  -22.0910   -9.0860   20.4670 C   0  0  0  0  0  3  0  0  0  0  0  0
  -22.8150  -10.2760   20.2850 C   0  0  0  0  0  3  0  0  0  0  0  0
  -21.7580   -6.9830   21.4950 O   0  0  0  0  0  0  0  0  0  0  0  0
  -21.7160   -6.2370   22.6450 C   0  0  0  0  0  0  0  0  0  0  0  0
  -21.2750   -6.7810   23.8720 C   0  0  0  0  0  3  0  0  0  0  0  0
  -21.1850   -5.9600   25.0140 C   0  0  0  0  0  3  0  0  0  0  0  0
  -21.5180   -4.5960   24.9300 C   0  0  0  0  0  0  0  0  0  0  0  0
  -21.9510   -4.0500   23.7090 C   0  0  0  0  0  3  0  0  0  0  0  0
  -22.0440   -4.8670   22.5690 C   0  0  0  0  0  0  0  0  0  0  0  0
  -22.4410   -4.3300   21.3900 F   0  0  0  0  0  0  0  0  0  0  0  0
  -21.4210   -3.8060   26.0250 F   0  0  0  0  0  0  0  0  0  0  0  0
  -22.8250  -13.6190   21.1750 C   0  0  0  0  0  0  0  0  0  0  0  0
  -22.1070  -12.9220   22.0500 N   0  0  0  0  0  0  0  0  0  0  0  0
  -22.3800  -14.6410   20.6550 O   0  0  0  0  0  0  0  0  0  0  0  0
  -22.4810  -12.0960   22.4890 H   0  0  0  0  0  0  0  0  0  0  0  0
  -21.1700  -13.2160   22.2820 H   0  0  0  0  0  0  0  0  0  0  0  0
  -25.4400  -15.2990   20.3490 N   0  0  0  0  0  0  0  0  0  0  0  0
  -24.6700  -15.9470   20.4770 H   0  0  0  0  0  0  0  0  0  0  0  0
  -26.2820  -15.7370   20.0020 H   0  0  0  0  0  0  0  0  0  0  0  0
  -28.7010  -18.4050   18.5080 C   0  0  0  0  0  2  0  0  0  0  0  0
  -27.4240  -19.0270   18.1200 N   0  0  0  0  0  4  0  0  0  0  0  0
  -26.6470  -18.5750   18.5700 H   0  0  0  0  0  0  0  0  0  0  0  0
  -27.3000  -18.9690   17.1250 H   0  0  0  0  0  0  0  0  0  0  0  0
  -27.4400  -19.9930   18.3950 H   0  0  0  0  0  0  0  0  0  0  0  0
  1  3  1  0
  2  4  1  0
  2  5  1  0
  4  6  1  0
  5  7  1  0
  5  1  1  0
  6  3  1  0
  7  8  1  0
  9 20  2  0
 10  8  1  0
 10 15  1  0
 11 19  1  0
 11 21  1  0
 12 18  1  0
 12 14  1  0
 13 19  1  0
 14 15  2  0
 14 13  1  0
 16 10  2  0
 17 16  1  0
 17 12  2  0
 18 11  1  0
 19  9  1  0
 21 23  2  0
 22 21  1  0
 24 22  1  0
 25 34  2  0
 25 30  1  0
 26 22  1  0
 26 30  1  0
 27 26  1  0
 28 29  1  0
 28 27  1  0
 29 25  1  0
 30 31  2  0
 31 32  1  0
 33 32  2  0
 34 33  1  0
 35  9  1  0
 35 36  1  0
 35 45  1  0
 36 39  1  0
 37 41  1  0
 37 36  1  0
 38 37  2  0
 41 40  1  0
 43 41  1  0
 43 44  1  0
 43 42  1  0
 45 48  1  1
 45 46  1  0
 47 45  1  0
 49 89  1  0
 49  6  1  0
 49 50  1  0
 50 59  1  0
 51 59  1  0
 52 57  1  0
 53 54  1  0
 53 52  1  0
 55 54  1  0
 55 64  1  0
 55 56  1  0
 57 51  1  0
 57 56  1  0
 58 51  2  0
 59 60  1  0
 61 62  2  0
 62 81  1  0
 63 62  1  0
 63 66  1  0
 64 61  1  0
 64 65  1  0
 65 63  2  0
 66 67  1  0
 67 68  2  0
 69 72  1  0
 69 68  1  0
 70 69  2  0
 71 70  1  0
 71 66  2  0
 72 73  1  0
 73 74  1  0
 74 75  2  0
 76 75  1  0
 76 80  1  0
 77 76  2  0
 78 73  2  0
 78 77  1  0
 79 78  1  0
 81 82  1  0
 82 85  1  0
 82 84  1  0
 83 81  2  0
 86 87  1  0
 86 61  1  0
 88 86  1  0
 90 93  1  0
 90 89  1  0
 90 91  1  0
 92 90  1  0
M  ISO  4   7 101   8 101  51 100  59 100
M  END
>  <TORSDO>  (13) 
F 21

>  <SCORE>  (13) 
-13.671

>  <name>  (13) 
13

>  <ligand_id>  (13) 
13

>  <original_smiles>  (13) 
[H]c1c([H])c([H])c2c(c1[H])C([H])([H])C([H])([H])C([H])([H])C2([H])N([H])C(=O)C1([H])N(C(=O)C([H])(N([H])C(=O)C([H])(N([H])C([H])([H])[H])C([H])([H])[H])C(C([H])([H])[H])(C([H])([H])[H])C([H])([H])[H])C([H])([H])c2c([H])c(OC([H])([H])C3([H])C([H])([H])C([H])([H])N(C([H])(C([H])([H])N([H])C(=O)N4C([H])([H])C([H])([H])C([H])([H])C([H])(n5nc(-c6c([H])c([H])c(Oc7c([H])c([H])c(F)c([H])c7F)c([H])c6[H])c(C(=O)N([H])[H])c5N([H])[H])C4([H])[H])C([H])([H])[N+]([H])([H])[H])C([H])([H])C3([H])[H])c([H])c([H])c2C1([H])[H]

>  <smiles>  (13) 
[H]c1c([H])c([H])c2c(c1[H])C([H])([H])C([H])([H])C([H])([H])C2([H])N([H])C(=O)C1([H])N(C(=O)C([H])(N([H])C(=O)C([H])(N([H])C([H])([H])[H])C([H])([H])[H])C(C([H])([H])[H])(C([H])([H])[H])C([H])([H])[H])C([H])([H])c2c([H])c(OC([H])([H])C3([H])C([H])([H])C([H])([H])N(C([H])(C([H])([H])N([H])C(=O)N4C([H])([H])C([H])([H])C([H])([H])C([H])(n5nc(-c6c([H])c([H])c(Oc7c([H])c([H])c(F)c([H])c7F)c([H])c6[H])c(C(=O)N([H])[H])c5N([H])[H])C4([H])[H])C([H])([H])[N+]([H])([H])[H])C([H])([H])C3([H])[H])c([H])c([H])c2C1([H])[H]

$$$$
15:0:0
     RDKit          3D

 98106  0  0  1  0  0  0  0  0999 V2000
  -29.2440  -21.2910   18.4810 C   0  0  0  0  0  3  0  0  0  0  0  0
  -29.9160  -21.0990   22.0590 C   0  0  0  0  0  2  0  0  0  0  0  0
  -29.2410  -22.5390   21.9330 C   0  0  0  0  0  2  0  0  0  0  0  0
  -29.5640  -20.2330   20.8170 C   0  0  0  0  0  3  0  0  0  0  0  0
  -29.3080  -23.0310   20.4590 C   0  0  0  0  0  3  0  0  0  0  0  0
  -29.3690  -21.5180   19.8200 N   0  0  0  0  0  0  0  0  0  0  0  0
  -29.1530  -20.0210   18.0260 N   0  0  0  0  0  0  0  0  0  0  0  0
  -28.7980  -19.8030   17.1040 H   0  0  0  0  0  0  0  0  0  0  0  0
  -29.2100  -19.2440   18.6680 H   0  0  0  0  0  0  0  0  0  0  0  0
  -29.1620  -22.4330   17.4900 C   0  0  0  0  0  2  0  0  0  0  0  0
  -29.7900  -22.1120   16.1140 C   0  0  0  0  0  2  0  0  0  0  0  0
  -31.2290  -21.7890   16.1830 N   0  0  0  0  0  4  0  0  0  0  0  0
  -31.7580  -22.5600   16.5490 H   0  0  0  0  0  0  0  0  0  0  0  0
  -31.5730  -21.6030   15.2560 H   0  0  0  0  0  0  0  0  0  0  0  0
  -31.4030  -20.9740   16.7450 H   0  0  0  0  0  0  0  0  0  0  0  0
  -30.5070  -18.6770   20.6090 C   0  0  0  0  0  2  0  0  0  0  0  0
  -30.8210  -15.7100   20.6110 C   0  0  0  0  0  0  0  0  0  0  0  0
  -30.8210  -13.2670   19.6870 C   0  0  0  0  0  2  0  0  0  0  0  0
  -29.9310  -13.0160   18.4420 C   0  0  0  0  0  2  0  0  0  0  0  0
  -28.4780  -12.7100   18.8490 C   0  0  0  0  0  2  0  0  0  0  0  0
  -27.9810  -13.6600   19.9620 C   0  0  0  0  0  3  0  0  0  0  0  0
  -29.0100  -13.8400   21.1060 C   0  0  0  0  0  2  0  0  0  0  0  0
  -30.2340  -14.4040   20.4930 N   0  0  0  0  0  0  0  0  0  0  0  0
  -32.0590  -15.6550   20.5350 O   0  0  0  0  0  0  0  0  0  0  0  0
  -30.1010  -17.0430   20.5990 N   0  0  0  0  0  0  0  0  0  0  0  0
  -25.6010  -14.2350   20.7010 C   0  0  0  0  0  0  0  0  0  0  0  0
  -24.5180  -13.4600   20.9950 C   0  0  0  0  0  0  0  0  0  0  0  0
  -24.9650  -12.1090   20.8980 C   0  0  0  0  0  0  0  0  0  0  0  0
  -26.6380  -13.3550   20.4320 N   0  0  0  0  0  0  0  0  0  0  0  0
  -26.2640  -12.0650   20.6200 N   0  0  0  0  0  0  0  0  0  0  0  0
  -24.2150  -10.8540   20.9930 C   0  0  0  0  0  0  0  0  0  0  0  0
  -24.5960   -9.8350   21.8910 C   0  0  0  0  0  3  0  0  0  0  0  0
  -23.8430   -8.6440   21.9780 C   0  0  0  0  0  3  0  0  0  0  0  0
  -22.6960   -8.4680   21.1680 C   0  0  0  0  0  0  0  0  0  0  0  0
  -22.3360   -9.4780   20.2590 C   0  0  0  0  0  3  0  0  0  0  0  0
  -23.0890  -10.6600   20.1680 C   0  0  0  0  0  3  0  0  0  0  0  0
  -21.9200   -7.3350   21.1690 O   0  0  0  0  0  0  0  0  0  0  0  0
  -21.7940   -6.5510   22.2860 C   0  0  0  0  0  0  0  0  0  0  0  0
  -21.3250   -7.0710   23.5120 C   0  0  0  0  0  3  0  0  0  0  0  0
  -21.1430   -6.2160   24.6170 C   0  0  0  0  0  3  0  0  0  0  0  0
  -21.4240   -4.8410   24.4980 C   0  0  0  0  0  0  0  0  0  0  0  0
  -21.8890   -4.3210   23.2760 C   0  0  0  0  0  3  0  0  0  0  0  0
  -22.0710   -5.1730   22.1730 C   0  0  0  0  0  0  0  0  0  0  0  0
  -22.4980   -4.6640   20.9930 F   0  0  0  0  0  0  0  0  0  0  0  0
  -21.2440   -4.0170   25.5560 F   0  0  0  0  0  0  0  0  0  0  0  0
  -23.1230  -13.9520   21.2470 C   0  0  0  0  0  0  0  0  0  0  0  0
  -22.3630  -13.2370   22.0680 N   0  0  0  0  0  0  0  0  0  0  0  0
  -22.7170  -15.0030   20.7550 O   0  0  0  0  0  0  0  0  0  0  0  0
  -22.7050  -12.3860   22.4900 H   0  0  0  0  0  0  0  0  0  0  0  0
  -21.4250  -13.5480   22.2810 H   0  0  0  0  0  0  0  0  0  0  0  0
  -25.7610  -15.6110   20.6110 N   0  0  0  0  0  0  0  0  0  0  0  0
  -24.9730  -16.2390   20.7250 H   0  0  0  0  0  0  0  0  0  0  0  0
  -26.5860  -16.0700   20.2530 H   0  0  0  0  0  0  0  0  0  0  0  0
  -28.7240  -17.0500   20.1160 C   0  0  0  0  0  2  0  0  0  0  0  0
  -27.3090  -17.5780   18.0180 C   0  0  0  0  0  1  0  0  0  0  0  0
  -28.6850  -17.2000   18.5770 C   0  0  0  0  0  2  0  0  0  0  0  0
  -28.3220  -24.5020   20.0130 C   0  0  0  0  0  2  0  0  0  0  0  0
  -28.4810  -26.1470   20.1070 O   0  0  0  0  0  0  0  0  0  0  0  0
  -24.6680  -31.9210   23.1450 C   0  0  0  0  0  0  0  0  0  0  0  0
  -27.4200  -27.1990   20.0480 C   0  0  0  0  0  0  0  0  0  0  0  0
  -23.5310  -30.5130   21.4760 C   0  0  0  0  0  3  0  0  0  0  0  0
  -25.0440  -28.9870   20.0290 C   0  0  0  0  0  0  0  0  0  0  0  0
  -26.0890  -30.8210   21.3440 C   0  0  0  0  0  2  0  0  0  0  0  0
  -26.2130  -29.4270   20.6630 C   0  0  0  0  0  0  0  0  0  0  0  0
  -27.3930  -28.5530   20.6470 C   0  0  0  0  0  3  0  0  0  0  0  0
  -26.2120  -26.9090   19.3710 C   0  0  0  0  0  3  0  0  0  0  0  0
  -25.0680  -27.7500   19.3640 C   0  0  0  0  0  3  0  0  0  0  0  0
  -23.7910  -29.8620   20.0890 C   0  0  0  0  0  2  0  0  0  0  0  0
  -24.7830  -31.1120   22.0430 N   0  0  0  0  0  0  0  0  0  0  0  0
  -23.5670  -32.1620   23.6670 O   0  0  0  0  0  0  0  0  0  0  0  0
  -22.8680  -29.4770   22.4210 C   0  0  0  0  0  0  0  0  0  0  0  0
  -21.5460  -29.2630   22.2820 N   0  0  0  0  0  0  0  0  0  0  0  0
  -23.5500  -28.8670   23.2470 O   0  0  0  0  0  0  0  0  0  0  0  0
  -21.0470  -29.8080   21.5930 H   0  0  0  0  0  0  0  0  0  0  0  0
  -18.2160  -27.8900   22.7200 C   0  0  0  0  0  0  0  0  0  0  0  0
  -20.7550  -28.2810   23.0320 C   0  0  0  0  0  3  0  0  0  0  0  0
  -20.9370  -26.8590   22.4500 C   0  0  0  0  0  2  0  0  0  0  0  0
  -19.8700  -26.4910   21.4130 C   0  0  0  0  0  2  0  0  0  0  0  0
  -18.4710  -26.5600   22.0340 C   0  0  0  0  0  2  0  0  0  0  0  0
  -19.2870  -28.7060   23.1740 C   0  0  0  0  0  0  0  0  0  0  0  0
  -18.9920  -29.9470   23.7790 C   0  0  0  0  0  3  0  0  0  0  0  0
  -17.6600  -30.3760   23.9310 C   0  0  0  0  0  3  0  0  0  0  0  0
  -16.6030  -29.5600   23.4910 C   0  0  0  0  0  3  0  0  0  0  0  0
  -16.8820  -28.3180   22.8920 C   0  0  0  0  0  3  0  0  0  0  0  0
  -25.9130  -32.5970   23.7970 C   0  0  0  0  0  3  0  0  0  0  0  0
  -26.4280  -31.8360   25.0810 C   0  0  1  0  0  0  0  0  0  0  0  0
  -25.3250  -31.5710   26.1340 C   0  0  0  0  0  1  0  0  0  0  0  0
  -27.0500  -30.4730   24.7040 C   0  0  0  0  0  1  0  0  0  0  0  0
  -27.5500  -32.6560   25.7600 C   0  0  0  0  0  1  0  0  0  0  0  0
  -25.5480  -33.9820   24.1430 N   0  0  0  0  0  0  0  0  0  0  0  0
  -25.8990  -35.0680   23.4390 C   0  0  0  0  0  0  0  0  0  0  0  0
  -26.6250  -35.0090   22.4440 O   0  0  0  0  0  0  0  0  0  0  0  0
  -24.9070  -34.1000   24.9130 H   0  0  0  0  0  0  0  0  0  0  0  0
  -24.1650  -36.8520   23.0450 C   0  0  0  0  0  1  0  0  0  0  0  0
  -25.3630  -36.4350   23.9130 C   0  0  0  0  0  3  0  0  0  0  0  0
  -27.4330  -37.3240   24.8950 C   0  0  0  0  0  1  0  0  0  0  0  0
  -26.3830  -37.5070   23.8960 N   0  0  0  0  0  0  0  0  0  0  0  0
  -25.9540  -38.4160   24.0490 H   0  0  0  0  0  0  0  0  0  0  0  0
  1 10  1  0
  1  6  1  0
  3  2  1  0
  4 16  1  0
  4  2  1  0
  5 57  1  0
  5  3  1  0
  6  5  1  0
  6  4  1  0
  7  1  1  0
  7  9  1  0
  8  7  1  0
 11 12  1  0
 11 10  1  0
 12 13  1  0
 12 15  1  0
 14 12  1  0
 18 23  1  0
 19 20  1  0
 19 18  1  0
 21 20  1  0
 21 29  1  0
 21 22  1  0
 23 17  1  0
 23 22  1  0
 24 17  2  0
 25 16  1  0
 25 17  1  0
 26 27  2  0
 27 46  1  0
 28 31  1  0
 28 27  1  0
 29 30  1  0
 29 26  1  0
 30 28  2  0
 31 32  1  0
 32 33  2  0
 34 37  1  0
 34 33  1  0
 35 34  2  0
 36 35  1  0
 36 31  2  0
 37 38  1  0
 38 39  1  0
 39 40  2  0
 41 40  1  0
 41 45  1  0
 42 41  2  0
 43 38  2  0
 43 42  1  0
 44 43  1  0
 46 47  1  0
 47 50  1  0
 47 49  1  0
 48 46  2  0
 51 26  1  0
 51 52  1  0
 53 51  1  0
 54 25  1  0
 55 56  1  0
 56 54  1  0
 57 58  1  0
 59 70  2  0
 60 58  1  0
 60 65  1  0
 61 69  1  0
 61 71  1  0
 62 68  1  0
 62 64  1  0
 63 69  1  0
 64 63  1  0
 65 64  2  0
 66 60  2  0
 67 66  1  0
 67 62  2  0
 68 61  1  0
 69 59  1  0
 71 73  2  0
 72 71  1  0
 74 72  1  0
 75 84  2  0
 75 80  1  0
 76 72  1  0
 76 80  1  0
 77 76  1  0
 78 79  1  0
 78 77  1  0
 79 75  1  0
 80 81  2  0
 81 82  1  0
 83 82  2  0
 84 83  1  0
 85 59  1  0
 85 90  1  0
 85 86  1  0
 86 89  1  1
 86 87  1  0
 88 86  1  0
 90 93  1  0
 91 95  1  0
 91 90  1  0
 92 91  2  0
 95 94  1  0
 97 95  1  0
 97 98  1  0
 97 96  1  0
M  ISO  4  17 100  25 100  57 101  58 101
M  END
>  <TORSDO>  (14) 
F 23

>  <SCORE>  (14) 
-13.574

>  <name>  (14) 
15

>  <ligand_id>  (14) 
15

>  <original_smiles>  (14) 
[H]c1c([H])c([H])c2c(c1[H])C([H])([H])C([H])([H])C([H])([H])C2([H])N([H])C(=O)C1([H])N(C(=O)C([H])(N([H])C(=O)C([H])(N([H])C([H])([H])[H])C([H])([H])[H])C(C([H])([H])[H])(C([H])([H])[H])C([H])([H])[H])C([H])([H])c2c([H])c(OC([H])([H])C3([H])N(C(=[N+]([H])[H])C([H])([H])C([H])([H])[N+]([H])([H])[H])C([H])(C([H])([H])N(C(=O)N4C([H])([H])C([H])([H])C([H])([H])C([H])(n5nc(-c6c([H])c([H])c(Oc7c([H])c([H])c(F)c([H])c7F)c([H])c6[H])c(C(=O)N([H])[H])c5N([H])[H])C4([H])[H])C([H])([H])C([H])([H])C([H])([H])[H])C([H])([H])C3([H])[H])c([H])c([H])c2C1([H])[H]

>  <smiles>  (14) 
[H]c1c([H])c([H])c2c(c1[H])C([H])([H])C([H])([H])C([H])([H])C2([H])N([H])C(=O)C1([H])N(C(=O)C([H])(N([H])C(=O)C([H])(N([H])C([H])([H])[H])C([H])([H])[H])C(C([H])([H])[H])(C([H])([H])[H])C([H])([H])[H])C([H])([H])c2c([H])c(OC([H])([H])C3([H])N(C(=[N+]([H])[H])C([H])([H])C([H])([H])[N+]([H])([H])[H])C([H])(C([H])([H])N(C(=O)N4C([H])([H])C([H])([H])C([H])([H])C([H])(n5nc(-c6c([H])c([H])c(Oc7c([H])c([H])c(F)c([H])c7F)c([H])c6[H])c(C(=O)N([H])[H])c5N([H])[H])C4([H])[H])C([H])([H])C([H])([H])C([H])([H])[H])C([H])([H])C3([H])[H])c([H])c([H])c2C1([H])[H]

$$$$
16:0:0
     RDKit          3D

 99108  0  0  1  0  0  0  0  0999 V2000
  -25.2330  -19.6300   19.4620 C   0  0  0  0  0  2  0  0  0  0  0  0
  -24.8870  -19.3560   17.9970 C   0  0  0  0  0  2  0  0  0  0  0  0
  -26.7310  -19.4450   19.7610 C   0  0  0  0  0  2  0  0  0  0  0  0
  -25.6920  -20.2540   17.0340 C   0  0  0  0  0  2  0  0  0  0  0  0
  -27.6990  -19.5320   18.5420 C   0  0  0  0  0  3  0  0  0  0  0  0
  -27.1900  -20.4830   17.4000 C   0  0  0  0  0  3  0  0  0  0  0  0
  -28.1630  -18.1460   17.9860 C   0  0  0  0  0  2  0  0  0  0  0  0
  -28.3430  -17.0980   19.0330 N   0  0  0  0  0  4  0  0  0  0  0  0
  -27.5560  -16.4650   19.0120 H   0  0  0  0  0  0  0  0  0  0  0  0
  -28.3470  -17.5460   19.9360 H   0  0  0  0  0  0  0  0  0  0  0  0
  -29.5780  -16.2810   18.9270 C   0  0  0  0  0  2  0  0  0  0  0  0
  -31.6350  -14.0110   19.4310 C   0  0  0  0  0  0  0  0  0  0  0  0
  -31.2260  -11.5870   19.2260 C   0  0  0  0  0  2  0  0  0  0  0  0
  -30.2740  -11.2440   18.0650 C   0  0  0  0  0  2  0  0  0  0  0  0
  -28.8190  -11.2580   18.5490 C   0  0  0  0  0  2  0  0  0  0  0  0
  -28.4850  -12.5550   19.3260 C   0  0  0  0  0  3  0  0  0  0  0  0
  -29.5510  -12.8590   20.4070 C   0  0  0  0  0  2  0  0  0  0  0  0
  -30.8820  -12.9180   19.7780 N   0  0  0  0  0  0  0  0  0  0  0  0
  -32.5850  -13.8710   18.6500 O   0  0  0  0  0  0  0  0  0  0  0  0
  -32.2530  -17.5260   20.1670 C   0  0  0  0  0  2  0  0  0  0  0  0
  -30.8890  -17.4210   20.8160 C   0  0  0  0  0  2  0  0  0  0  0  0
  -32.7280  -16.0770   20.1650 C   0  0  0  0  0  2  0  0  0  0  0  0
  -30.3300  -16.0890   20.2800 C   0  0  0  0  0  3  0  0  0  0  0  0
  -31.5240  -15.1990   20.1120 N   0  0  0  0  0  0  0  0  0  0  0  0
  -26.2990  -13.5710   20.2140 C   0  0  0  0  0  0  0  0  0  0  0  0
  -25.1360  -12.9930   20.6510 C   0  0  0  0  0  0  0  0  0  0  0  0
  -25.3370  -11.5840   20.5640 C   0  0  0  0  0  0  0  0  0  0  0  0
  -27.1400  -12.5150   19.8910 N   0  0  0  0  0  0  0  0  0  0  0  0
  -26.5700  -11.3140   20.1570 N   0  0  0  0  0  0  0  0  0  0  0  0
  -24.4110  -10.4640   20.7900 C   0  0  0  0  0  0  0  0  0  0  0  0
  -24.6700   -9.4800   21.7670 C   0  0  0  0  0  3  0  0  0  0  0  0
  -23.7590   -8.4210   21.9700 C   0  0  0  0  0  3  0  0  0  0  0  0
  -22.5740   -8.3470   21.1970 C   0  0  0  0  0  0  0  0  0  0  0  0
  -22.3380   -9.3170   20.2090 C   0  0  0  0  0  3  0  0  0  0  0  0
  -23.2480  -10.3670   20.0030 C   0  0  0  0  0  3  0  0  0  0  0  0
  -21.6410   -7.3390   21.3060 O   0  0  0  0  0  0  0  0  0  0  0  0
  -21.4130   -6.7020   22.4990 C   0  0  0  0  0  0  0  0  0  0  0  0
  -20.9790   -7.4000   23.6480 C   0  0  0  0  0  3  0  0  0  0  0  0
  -20.6860   -6.6960   24.8340 C   0  0  0  0  0  3  0  0  0  0  0  0
  -20.8120   -5.2960   24.8710 C   0  0  0  0  0  0  0  0  0  0  0  0
  -21.2390   -4.5950   23.7260 C   0  0  0  0  0  3  0  0  0  0  0  0
  -21.5360   -5.2970   22.5460 C   0  0  0  0  0  0  0  0  0  0  0  0
  -21.9200   -4.6150   21.4410 F   0  0  0  0  0  0  0  0  0  0  0  0
  -20.5230   -4.6190   26.0070 F   0  0  0  0  0  0  0  0  0  0  0  0
  -23.8680  -13.7060   21.0290 C   0  0  0  0  0  0  0  0  0  0  0  0
  -23.1000  -13.1330   21.9500 N   0  0  0  0  0  0  0  0  0  0  0  0
  -23.5830  -14.7970   20.5430 O   0  0  0  0  0  0  0  0  0  0  0  0
  -23.3670  -12.2530   22.3630 H   0  0  0  0  0  0  0  0  0  0  0  0
  -22.2490  -13.5870   22.2470 H   0  0  0  0  0  0  0  0  0  0  0  0
  -26.7070  -14.8910   20.0290 N   0  0  0  0  0  0  0  0  0  0  0  0
  -25.9430  -15.5560   20.0520 H   0  0  0  0  0  0  0  0  0  0  0  0
  -27.2430  -14.9870   19.1720 H   0  0  0  0  0  0  0  0  0  0  0  0
  -27.4600  -22.0020   17.6440 C   0  0  0  0  0  2  0  0  0  0  0  0
  -28.8550  -22.4360   17.3710 N   0  0  0  0  0  4  0  0  0  0  0  0
  -28.9940  -22.4390   16.3740 H   0  0  0  0  0  0  0  0  0  0  0  0
  -29.4990  -21.7650   17.7620 H   0  0  0  0  0  0  0  0  0  0  0  0
  -29.1860  -23.7930   17.8850 C   0  0  0  0  0  2  0  0  0  0  0  0
  -29.2820  -24.8640   16.7730 C   0  0  0  0  0  2  0  0  0  0  0  0
  -29.2810  -26.1790   17.3380 O   0  0  0  0  0  0  0  0  0  0  0  0
  -25.7870  -28.8610   22.9240 C   0  0  0  0  0  0  0  0  0  0  0  0
  -28.0990  -26.7300   17.7900 C   0  0  0  0  0  0  0  0  0  0  0  0
  -24.4330  -28.4800   20.8930 C   0  0  0  0  0  3  0  0  0  0  0  0
  -25.7370  -27.9370   18.7740 C   0  0  0  0  0  0  0  0  0  0  0  0
  -26.9390  -28.9530   20.7140 C   0  0  0  0  0  2  0  0  0  0  0  0
  -26.9470  -28.1130   19.4530 C   0  0  0  0  0  0  0  0  0  0  0  0
  -28.1320  -27.5260   18.9580 C   0  0  0  0  0  3  0  0  0  0  0  0
  -26.8640  -26.5580   17.1260 C   0  0  0  0  0  3  0  0  0  0  0  0
  -25.6900  -27.1610   17.6050 C   0  0  0  0  0  3  0  0  0  0  0  0
  -24.5170  -28.6190   19.3480 C   0  0  0  0  0  2  0  0  0  0  0  0
  -25.7440  -28.7470   21.5650 N   0  0  0  0  0  0  0  0  0  0  0  0
  -24.7560  -28.7880   23.6070 O   0  0  0  0  0  0  0  0  0  0  0  0
  -23.8430  -27.0900   21.2320 C   0  0  0  0  0  0  0  0  0  0  0  0
  -22.5300  -26.9230   21.0030 N   0  0  0  0  0  0  0  0  0  0  0  0
  -24.5640  -26.1840   21.6580 O   0  0  0  0  0  0  0  0  0  0  0  0
  -22.0140  -27.7210   20.6560 H   0  0  0  0  0  0  0  0  0  0  0  0
  -19.2740  -25.4080   20.5830 C   0  0  0  0  0  0  0  0  0  0  0  0
  -21.7660  -25.6910   21.2010 C   0  0  0  0  0  3  0  0  0  0  0  0
  -22.0580  -24.6600   20.0820 C   0  0  0  0  0  2  0  0  0  0  0  0
  -21.0630  -24.7350   18.9220 C   0  0  0  0  0  2  0  0  0  0  0  0
  -19.6310  -24.4970   19.4200 C   0  0  0  0  0  2  0  0  0  0  0  0
  -20.2750  -25.9780   21.4070 C   0  0  0  0  0  0  0  0  0  0  0  0
  -19.8900  -26.8420   22.4560 C   0  0  0  0  0  3  0  0  0  0  0  0
  -18.5330  -27.1330   22.6830 C   0  0  0  0  0  3  0  0  0  0  0  0
  -17.5410  -26.5520   21.8720 C   0  0  0  0  0  3  0  0  0  0  0  0
  -17.9110  -25.6850   20.8290 C   0  0  0  0  0  3  0  0  0  0  0  0
  -27.1290  -29.1100   23.6810 C   0  0  0  0  0  3  0  0  0  0  0  0
  -26.8890  -30.1850   24.6520 N   0  0  0  0  0  0  0  0  0  0  0  0
  -27.2630  -31.4590   24.4850 C   0  0  0  0  0  0  0  0  0  0  0  0
  -27.9240  -31.8420   23.5150 O   0  0  0  0  0  0  0  0  0  0  0  0
  -26.3020  -29.9540   25.4410 H   0  0  0  0  0  0  0  0  0  0  0  0
  -25.6440  -33.2910   25.0750 C   0  0  0  0  0  1  0  0  0  0  0  0
  -26.8480  -32.4750   25.5690 C   0  0  0  0  0  3  0  0  0  0  0  0
  -29.0060  -32.7280   26.7150 C   0  0  0  0  0  1  0  0  0  0  0  0
  -27.9410  -33.3910   25.9670 N   0  0  0  0  0  0  0  0  0  0  0  0
  -27.5820  -34.1540   26.5340 H   0  0  0  0  0  0  0  0  0  0  0  0
  -27.6870  -27.8210   24.3990 C   0  0  1  0  0  0  0  0  0  0  0  0
  -26.6640  -27.1290   25.3290 C   0  0  0  0  0  1  0  0  0  0  0  0
  -28.1580  -26.7790   23.3570 C   0  0  0  0  0  1  0  0  0  0  0  0
  -28.9280  -28.1950   25.2440 C   0  0  0  0  0  1  0  0  0  0  0  0
  1  3  1  0
  2  1  1  0
  4  6  1  0
  4  2  1  0
  5  7  1  0
  5  3  1  0
  6 53  1  0
  6  5  1  0
  7  8  1  0
  8 10  1  0
  9  8  1  0
 11  8  1  0
 12 18  1  0
 12 24  1  0
 13 18  1  0
 14 15  1  0
 14 13  1  0
 16 15  1  0
 16 28  1  0
 16 17  1  0
 18 17  1  0
 19 12  2  0
 20 21  1  0
 22 20  1  0
 23 11  1  0
 23 21  1  0
 24 22  1  0
 24 23  1  0
 25 26  2  0
 26 45  1  0
 27 26  1  0
 27 30  1  0
 28 29  1  0
 28 25  1  0
 29 27  2  0
 30 31  1  0
 31 32  2  0
 33 36  1  0
 33 32  1  0
 34 33  2  0
 35 34  1  0
 35 30  2  0
 36 37  1  0
 37 42  2  0
 37 38  1  0
 38 39  2  0
 39 40  1  0
 40 44  1  0
 41 40  2  0
 42 41  1  0
 43 42  1  0
 45 46  1  0
 46 49  1  0
 46 48  1  0
 47 45  2  0
 50 51  1  0
 50 25  1  0
 52 50  1  0
 54 53  1  0
 54 56  1  0
 54 57  1  0
 55 54  1  0
 58 59  1  0
 58 57  1  0
 59 61  1  0
 60 71  2  0
 61 66  1  0
 62 72  1  0
 62 70  1  0
 63 69  1  0
 63 65  1  0
 64 70  1  0
 65 64  1  0
 66 65  2  0
 67 68  1  0
 67 61  2  0
 68 63  2  0
 69 62  1  0
 70 60  1  0
 72 74  2  0
 73 72  1  0
 75 73  1  0
 76 85  2  0
 76 81  1  0
 77 73  1  0
 77 81  1  0
 78 77  1  0
 79 80  1  0
 79 78  1  0
 80 76  1  0
 81 82  2  0
 82 83  1  0
 84 83  2  0
 85 84  1  0
 86 60  1  0
 86 96  1  0
 86 87  1  0
 87 90  1  0
 88 87  1  0
 88 92  1  0
 89 88  2  0
 92 91  1  0
 92 94  1  0
 94 95  1  0
 94 93  1  0
 96 99  1  1
 96 97  1  0
 98 96  1  0
M  ISO  4  12 100  24 100  58 101  59 101
M  END
>  <TORSDO>  (15) 
F 23

>  <SCORE>  (15) 
-6.293

>  <name>  (15) 
16

>  <ligand_id>  (15) 
16

>  <original_smiles>  (15) 
[H]c1c([H])c([H])c2c(c1[H])C([H])([H])C([H])([H])C([H])([H])C2([H])N([H])C(=O)C1([H])N(C(=O)C([H])(N([H])C(=O)C([H])(N([H])C([H])([H])[H])C([H])([H])[H])C(C([H])([H])[H])(C([H])([H])[H])C([H])([H])[H])C([H])([H])c2c([H])c(OC([H])([H])C([H])([H])[N+]([H])([H])C([H])([H])C3([H])C([H])([H])C([H])([H])C([H])([H])C([H])([H])C3([H])C([H])([H])[N+]([H])([H])C([H])([H])C3([H])N(C(=O)N4C([H])([H])C([H])([H])C([H])([H])C([H])(n5nc(-c6c([H])c([H])c(Oc7c([H])c([H])c(F)c([H])c7F)c([H])c6[H])c(C(=O)N([H])[H])c5N([H])[H])C4([H])[H])C([H])([H])C([H])([H])C3([H])[H])c([H])c([H])c2C1([H])[H]

>  <smiles>  (15) 
[H]c1c([H])c([H])c2c(c1[H])C([H])([H])C([H])([H])C([H])([H])C2([H])N([H])C(=O)C1([H])N(C(=O)C([H])(N([H])C(=O)C([H])(N([H])C([H])([H])[H])C([H])([H])[H])C(C([H])([H])[H])(C([H])([H])[H])C([H])([H])[H])C([H])([H])c2c([H])c(OC([H])([H])C([H])([H])[N+]([H])([H])C([H])([H])C3([H])C([H])([H])C([H])([H])C([H])([H])C([H])([H])C3([H])C([H])([H])[N+]([H])([H])C([H])([H])C3([H])N(C(=O)N4C([H])([H])C([H])([H])C([H])([H])C([H])(n5nc(-c6c([H])c([H])c(Oc7c([H])c([H])c(F)c([H])c7F)c([H])c6[H])c(C(=O)N([H])[H])c5N([H])[H])C4([H])[H])C([H])([H])C([H])([H])C3([H])[H])c([H])c([H])c2C1([H])[H]

$$$$
17:0:0
     RDKit          3D

 95103  0  0  1  0  0  0  0  0999 V2000
  -29.8500  -19.9430   20.2130 C   0  0  0  0  0  2  0  0  0  0  0  0
  -29.6780  -18.1450   22.0940 C   0  0  0  0  0  2  0  0  0  0  0  0
  -31.7100  -17.4100   20.9050 C   0  0  0  0  0  2  0  0  0  0  0  0
  -29.5210  -18.3950   20.5750 C   0  0  0  0  0  3  0  0  0  0  0  0
  -30.5020  -17.2770   19.9610 C   0  0  0  0  0  3  0  0  0  0  0  0
  -31.1230  -17.6230   22.3160 C   0  0  0  0  0  3  0  0  0  0  0  0
  -30.8250  -14.6960   19.6520 C   0  0  0  0  0  0  0  0  0  0  0  0
  -30.5230  -12.4280   18.6690 C   0  0  0  0  0  2  0  0  0  0  0  0
  -29.4870  -12.5220   17.5280 C   0  0  0  0  0  2  0  0  0  0  0  0
  -28.0510  -12.3820   18.0780 C   0  0  0  0  0  2  0  0  0  0  0  0
  -27.7960  -13.2840   19.3150 C   0  0  0  0  0  3  0  0  0  0  0  0
  -28.9330  -13.1580   20.3520 C   0  0  0  0  0  2  0  0  0  0  0  0
  -30.1880  -13.4840   19.6530 N   0  0  0  0  0  0  0  0  0  0  0  0
  -31.9800  -14.8030   19.2230 O   0  0  0  0  0  0  0  0  0  0  0  0
  -30.0750  -15.8150   19.9650 N   0  0  0  0  0  0  0  0  0  0  0  0
  -29.1090  -15.6260   20.1850 H   0  0  0  0  0  0  0  0  0  0  0  0
  -25.4900  -13.9420   20.2350 C   0  0  0  0  0  0  0  0  0  0  0  0
  -24.4330  -13.1940   20.6780 C   0  0  0  0  0  0  0  0  0  0  0  0
  -24.8510  -11.8320   20.5890 C   0  0  0  0  0  0  0  0  0  0  0  0
  -26.4850  -13.0370   19.9030 N   0  0  0  0  0  0  0  0  0  0  0  0
  -26.1080  -11.7620   20.1730 N   0  0  0  0  0  0  0  0  0  0  0  0
  -24.1060  -10.5870   20.8260 C   0  0  0  0  0  0  0  0  0  0  0  0
  -24.5350   -9.6400   21.7840 C   0  0  0  0  0  3  0  0  0  0  0  0
  -23.7910   -8.4610   22.0080 C   0  0  0  0  0  3  0  0  0  0  0  0
  -22.6060   -8.2210   21.2720 C   0  0  0  0  0  0  0  0  0  0  0  0
  -22.1950   -9.1570   20.3070 C   0  0  0  0  0  3  0  0  0  0  0  0
  -22.9390  -10.3270   20.0820 C   0  0  0  0  0  3  0  0  0  0  0  0
  -21.8360   -7.0920   21.4000 O   0  0  0  0  0  0  0  0  0  0  0  0
  -21.7160   -6.4320   22.5980 C   0  0  0  0  0  0  0  0  0  0  0  0
  -21.2400   -7.0800   23.7570 C   0  0  0  0  0  3  0  0  0  0  0  0
  -21.0700   -6.3510   24.9510 C   0  0  0  0  0  3  0  0  0  0  0  0
  -21.3640   -4.9750   24.9850 C   0  0  0  0  0  0  0  0  0  0  0  0
  -21.8330   -4.3270   23.8270 C   0  0  0  0  0  3  0  0  0  0  0  0
  -22.0100   -5.0540   22.6380 C   0  0  0  0  0  0  0  0  0  0  0  0
  -22.4460   -4.4220   21.5220 F   0  0  0  0  0  0  0  0  0  0  0  0
  -21.1900   -4.2750   26.1270 F   0  0  0  0  0  0  0  0  0  0  0  0
  -23.0760  -13.7050   21.0680 C   0  0  0  0  0  0  0  0  0  0  0  0
  -22.4110  -13.0390   22.0010 N   0  0  0  0  0  0  0  0  0  0  0  0
  -22.6200  -14.7390   20.5800 O   0  0  0  0  0  0  0  0  0  0  0  0
  -22.7940  -12.2060   22.4270 H   0  0  0  0  0  0  0  0  0  0  0  0
  -21.5070  -13.3720   22.3040 H   0  0  0  0  0  0  0  0  0  0  0  0
  -25.6750  -15.3140   20.0700 N   0  0  0  0  0  0  0  0  0  0  0  0
  -24.9180  -15.9660   20.2490 H   0  0  0  0  0  0  0  0  0  0  0  0
  -26.4870  -15.7540   19.6620 H   0  0  0  0  0  0  0  0  0  0  0  0
  -31.1740  -16.3890   23.1400 N   0  0  0  0  0  4  0  0  0  0  0  0
  -30.6740  -15.6200   22.7300 H   0  0  0  0  0  0  0  0  0  0  0  0
  -30.7810  -16.5670   24.0490 H   0  0  0  0  0  0  0  0  0  0  0  0
  -32.1260  -16.0920   23.2820 H   0  0  0  0  0  0  0  0  0  0  0  0
  -28.7570  -21.0120   20.3440 N   0  0  0  0  0  4  0  0  0  0  0  0
  -28.4600  -21.0440   21.3080 H   0  0  0  0  0  0  0  0  0  0  0  0
  -27.9650  -20.7070   19.8010 H   0  0  0  0  0  0  0  0  0  0  0  0
  -29.0920  -22.4350   19.8860 C   0  0  0  0  0  3  0  0  0  0  0  0
  -28.1530  -23.6790   20.3220 C   0  0  0  0  0  3  0  0  0  0  0  0
  -28.3550  -25.0750   19.5460 C   0  0  0  0  0  2  0  0  0  0  0  0
  -28.2350  -26.4240   20.1630 O   0  0  0  0  0  0  0  0  0  0  0  0
  -24.5840  -31.8300   23.1990 C   0  0  0  0  0  0  0  0  0  0  0  0
  -27.1030  -27.2530   20.0900 C   0  0  0  0  0  0  0  0  0  0  0  0
  -23.3400  -30.4500   21.5690 C   0  0  0  0  0  3  0  0  0  0  0  0
  -24.7520  -28.8870   20.1140 C   0  0  0  0  0  0  0  0  0  0  0  0
  -25.8740  -30.7490   21.3420 C   0  0  0  0  0  2  0  0  0  0  0  0
  -25.9300  -29.3680   20.6940 C   0  0  0  0  0  0  0  0  0  0  0  0
  -27.1040  -28.5580   20.6760 C   0  0  0  0  0  3  0  0  0  0  0  0
  -25.9030  -26.8210   19.4830 C   0  0  0  0  0  3  0  0  0  0  0  0
  -24.7410  -27.6210   19.5000 C   0  0  0  0  0  3  0  0  0  0  0  0
  -23.5220  -29.7700   20.1820 C   0  0  0  0  0  2  0  0  0  0  0  0
  -24.6200  -31.0280   22.0940 N   0  0  0  0  0  0  0  0  0  0  0  0
  -23.5120  -32.1110   23.7560 O   0  0  0  0  0  0  0  0  0  0  0  0
  -22.6880  -29.4360   22.5380 C   0  0  0  0  0  0  0  0  0  0  0  0
  -21.3620  -29.2510   22.4190 N   0  0  0  0  0  0  0  0  0  0  0  0
  -23.3720  -28.8170   23.3580 O   0  0  0  0  0  0  0  0  0  0  0  0
  -20.8670  -29.7990   21.7280 H   0  0  0  0  0  0  0  0  0  0  0  0
  -18.0010  -28.0170   22.9010 C   0  0  0  0  0  0  0  0  0  0  0  0
  -20.5510  -28.3140   23.1960 C   0  0  0  0  0  3  0  0  0  0  0  0
  -20.6800  -26.8770   22.6420 C   0  0  0  0  0  2  0  0  0  0  0  0
  -19.5950  -26.5270   21.6190 C   0  0  0  0  0  2  0  0  0  0  0  0
  -18.2050  -26.6630   22.2470 C   0  0  0  0  0  2  0  0  0  0  0  0
  -19.1030  -28.8000   23.3330 C   0  0  0  0  0  0  0  0  0  0  0  0
  -18.8620  -30.0680   23.9040 C   0  0  0  0  0  3  0  0  0  0  0  0
  -17.5480  -30.5520   24.0520 C   0  0  0  0  0  3  0  0  0  0  0  0
  -16.4590  -29.7650   23.6370 C   0  0  0  0  0  3  0  0  0  0  0  0
  -16.6870  -28.5010   23.0660 C   0  0  0  0  0  3  0  0  0  0  0  0
  -25.8820  -32.4480   23.8050 C   0  0  0  0  0  3  0  0  0  0  0  0
  -25.5870  -33.8420   24.1580 N   0  0  0  0  0  0  0  0  0  0  0  0
  -25.9210  -34.9040   23.4140 C   0  0  0  0  0  0  0  0  0  0  0  0
  -26.5800  -34.8110   22.3740 O   0  0  0  0  0  0  0  0  0  0  0  0
  -25.0010  -33.9910   24.9670 H   0  0  0  0  0  0  0  0  0  0  0  0
  -24.1960  -36.7110   23.1180 C   0  0  0  0  0  1  0  0  0  0  0  0
  -25.4510  -36.2890   23.9000 C   0  0  0  0  0  3  0  0  0  0  0  0
  -27.6050  -37.1530   24.7020 C   0  0  0  0  0  1  0  0  0  0  0  0
  -26.4850  -37.3400   23.7820 N   0  0  0  0  0  0  0  0  0  0  0  0
  -26.0850  -38.2580   23.9520 H   0  0  0  0  0  0  0  0  0  0  0  0
  -26.4150  -31.6610   25.0630 C   0  0  1  0  0  0  0  0  0  0  0  0
  -25.3390  -31.4180   26.1450 C   0  0  0  0  0  1  0  0  0  0  0  0
  -26.9860  -30.2860   24.6470 C   0  0  0  0  0  1  0  0  0  0  0  0
  -27.5790  -32.4420   25.7180 C   0  0  0  0  0  1  0  0  0  0  0  0
  1 49  1  0
  2  6  1  0
  3  6  1  0
  4  1  1  0
  4  2  1  0
  5 15  1  0
  5  4  1  0
  5  3  1  0
  6 45  1  0
  7 13  1  0
  7 15  1  0
  8 13  1  0
  9 10  1  0
  9  8  1  0
 11 10  1  0
 11 20  1  0
 11 12  1  0
 13 12  1  0
 14  7  2  0
 15 16  1  0
 17 18  2  0
 18 37  1  0
 19 18  1  0
 19 22  1  0
 20 21  1  0
 20 17  1  0
 21 19  2  0
 22 23  1  0
 23 24  2  0
 25 28  1  0
 25 24  1  0
 26 25  2  0
 27 26  1  0
 27 22  2  0
 28 29  1  0
 29 34  2  0
 29 30  1  0
 30 31  2  0
 31 32  1  0
 32 36  1  0
 33 32  2  0
 34 33  1  0
 35 34  1  0
 37 38  1  0
 38 41  1  0
 38 40  1  0
 39 37  2  0
 42 17  1  0
 42 43  1  0
 44 42  1  0
 45 48  1  0
 45 47  1  0
 46 45  1  0
 49 50  1  0
 51 49  1  0
 52 53  2  0
 52 49  1  0
 54 55  1  0
 54 53  1  0
 56 67  2  0
 57 55  1  0
 57 62  1  0
 58 66  1  0
 58 68  1  0
 59 65  1  0
 59 61  1  0
 60 66  1  0
 61 60  1  0
 62 61  2  0
 63 64  1  0
 63 57  2  0
 64 59  2  0
 65 58  1  0
 66 56  1  0
 68 70  2  0
 69 68  1  0
 71 69  1  0
 72 81  2  0
 72 77  1  0
 73 69  1  0
 73 77  1  0
 74 73  1  0
 75 76  1  0
 75 74  1  0
 76 72  1  0
 77 78  2  0
 78 79  1  0
 80 79  2  0
 81 80  1  0
 82 56  1  0
 82 83  1  0
 82 92  1  0
 83 86  1  0
 84 88  1  0
 84 83  1  0
 85 84  2  0
 88 87  1  0
 90 88  1  0
 90 91  1  0
 90 89  1  0
 92 95  1  1
 92 93  1  0
 94 92  1  0
M  ISO  4   7 100  15 100  54 101  55 101
M  END
>  <TORSDO>  (16) 
F 22

>  <SCORE>  (16) 
-11.576

>  <name>  (16) 
17

>  <ligand_id>  (16) 
17

>  <original_smiles>  (16) 
[H]c1c([H])c([H])c2c(c1[H])C([H])([H])C([H])([H])C([H])([H])C2([H])N([H])C(=O)C1([H])N(C(=O)C([H])(N([H])C(=O)C([H])(N([H])C([H])([H])[H])C([H])([H])[H])C(C([H])([H])[H])(C([H])([H])[H])C([H])([H])[H])C([H])([H])c2c([H])c(OC([H])([H])C([H])([H])C([H])([H])[N+]([H])([H])C([H])([H])C3([H])C([H])([H])C([H])([N+]([H])([H])[H])C([H])([H])C3([H])N([H])C(=O)N3C([H])([H])C([H])([H])C([H])([H])C([H])(n4nc(-c5c([H])c([H])c(Oc6c([H])c([H])c(F)c([H])c6F)c([H])c5[H])c(C(=O)N([H])[H])c4N([H])[H])C3([H])[H])c([H])c([H])c2C1([H])[H]

>  <smiles>  (16) 
[H]c1c([H])c([H])c2c(c1[H])C([H])([H])C([H])([H])C([H])([H])C2([H])N([H])C(=O)C1([H])N(C(=O)C([H])(N([H])C(=O)C([H])(N([H])C([H])([H])[H])C([H])([H])[H])C(C([H])([H])[H])(C([H])([H])[H])C([H])([H])[H])C([H])([H])c2c([H])c(OC([H])([H])C([H])([H])C([H])([H])[N+]([H])([H])C([H])([H])C3([H])C([H])([H])C([H])([N+]([H])([H])[H])C([H])([H])C3([H])N([H])C(=O)N3C([H])([H])C([H])([H])C([H])([H])C([H])(n4nc(-c5c([H])c([H])c(Oc6c([H])c([H])c(F)c([H])c6F)c([H])c5[H])c(C(=O)N([H])[H])c4N([H])[H])C3([H])[H])c([H])c([H])c2C1([H])[H]

$$$$
18:0:0
     RDKit          3D

 82 87  0  0  1  0  0  0  0  0999 V2000
  -28.1340  -24.6410   20.2970 O   0  0  0  0  0  1  0  0  0  0  0  0
  -24.7240  -31.7900   23.1730 C   0  0  0  0  0  0  0  0  0  0  0  0
  -27.2340  -26.1490   20.2490 C   0  0  0  0  0  0  0  0  0  0  0  0
  -23.5700  -30.3760   21.5350 C   0  0  0  0  0  3  0  0  0  0  0  0
  -25.0270  -28.5930   20.1710 C   0  0  0  0  0  0  0  0  0  0  0  0
  -26.1700  -30.3240   21.5070 C   0  0  0  0  0  2  0  0  0  0  0  0
  -26.2280  -28.8220   20.8490 C   0  0  0  0  0  0  0  0  0  0  0  0
  -27.2770  -27.6520   20.8400 C   0  0  0  0  0  3  0  0  0  0  0  0
  -25.9950  -26.3030   19.5070 C   0  0  0  0  0  3  0  0  0  0  0  0
  -24.9890  -27.3640   19.4730 C   0  0  0  0  0  3  0  0  0  0  0  0
  -23.8490  -29.6240   20.1890 C   0  0  0  0  0  2  0  0  0  0  0  0
  -24.8540  -30.8800   22.1230 N   0  0  0  0  0  0  0  0  0  0  0  0
  -23.6150  -32.1200   23.6390 O   0  0  0  0  0  0  0  0  0  0  0  0
  -22.7820  -29.4630   22.5180 C   0  0  0  0  0  0  0  0  0  0  0  0
  -21.4430  -29.3510   22.3880 N   0  0  0  0  0  0  0  0  0  0  0  0
  -23.4020  -28.8420   23.3840 O   0  0  0  0  0  0  0  0  0  0  0  0
  -20.9840  -29.9000   21.6750 H   0  0  0  0  0  0  0  0  0  0  0  0
  -18.0300  -28.1670   22.9080 C   0  0  0  0  0  0  0  0  0  0  0  0
  -20.5950  -28.4260   23.1580 C   0  0  0  0  0  3  0  0  0  0  0  0
  -20.6810  -26.9910   22.5840 C   0  0  0  0  0  2  0  0  0  0  0  0
  -19.5790  -26.6820   21.5660 C   0  0  0  0  0  2  0  0  0  0  0  0
  -18.1980  -26.8270   22.2120 C   0  0  0  0  0  2  0  0  0  0  0  0
  -19.1530  -28.9260   23.3360 C   0  0  0  0  0  0  0  0  0  0  0  0
  -18.9350  -30.1750   23.9560 C   0  0  0  0  0  3  0  0  0  0  0  0
  -17.6300  -30.6690   24.1450 C   0  0  0  0  0  3  0  0  0  0  0  0
  -16.5220  -29.9100   23.7270 C   0  0  0  0  0  3  0  0  0  0  0  0
  -16.7230  -28.6600   23.1150 C   0  0  0  0  0  3  0  0  0  0  0  0
  -25.9530  -32.4740   23.8510 C   0  0  0  0  0  3  0  0  0  0  0  0
  -26.4110  -31.7400   25.1740 C   0  0  1  0  0  0  0  0  0  0  0  0
  -25.2730  -31.5360   26.2030 C   0  0  0  0  0  1  0  0  0  0  0  0
  -27.0050  -30.3510   24.8670 C   0  0  0  0  0  1  0  0  0  0  0  0
  -27.5370  -32.5490   25.8610 C   0  0  0  0  0  1  0  0  0  0  0  0
  -25.6100  -33.8810   24.1770 N   0  0  0  0  0  0  0  0  0  0  0  0
  -25.9330  -34.9600   23.4490 C   0  0  0  0  0  0  0  0  0  0  0  0
  -26.5910  -34.8780   22.4110 O   0  0  0  0  0  0  0  0  0  0  0  0
  -25.0160  -34.0160   24.9830 H   0  0  0  0  0  0  0  0  0  0  0  0
  -24.1850  -36.7650   23.1920 C   0  0  0  0  0  1  0  0  0  0  0  0
  -25.4600  -36.3490   23.9430 C   0  0  0  0  0  3  0  0  0  0  0  0
  -27.6150  -37.2610   24.7010 C   0  0  0  0  0  1  0  0  0  0  0  0
  -26.4790  -37.4130   23.7950 N   0  0  0  0  0  0  0  0  0  0  0  0
  -26.0690  -38.3300   23.9520 H   0  0  0  0  0  0  0  0  0  0  0  0
  -28.3690  -21.4090   21.0820 C   0  0  0  0  0  2  0  0  0  0  0  0
  -29.1610  -20.4530   20.1060 C   0  0  0  0  0  1  0  0  0  0  0  0
  -28.2120  -22.5430   20.0200 C   0  0  0  0  0  1  0  0  0  0  0  0
  -29.9150  -16.7290   20.0370 C   0  0  0  0  0  0  0  0  0  0  0  0
  -30.2780  -13.9600   19.2460 C   0  0  0  0  0  2  0  0  0  0  0  0
  -29.4930  -13.1210   18.1510 C   0  0  0  0  0  2  0  0  0  0  0  0
  -28.1860  -12.5360   18.6870 C   0  0  0  0  0  2  0  0  0  0  0  0
  -27.5540  -13.5600   19.6410 C   0  0  0  0  0  3  0  0  0  0  0  0
  -28.5320  -14.2580   20.6600 C   0  0  0  0  0  2  0  0  0  0  0  0
  -29.5050  -15.1920   19.9320 N   0  0  0  0  0  0  0  0  0  0  0  0
  -31.1610  -16.5150   19.8980 O   0  0  0  0  0  0  0  0  0  0  0  0
  -29.1600  -18.3510   20.1340 N   0  0  0  0  0  2  0  0  0  0  0  0
  -28.1810  -18.1050   20.2130 H   0  0  0  0  0  0  0  0  0  0  0  0
  -25.2220  -13.9530   20.5050 C   0  0  0  0  0  0  0  0  0  0  0  0
  -24.1940  -13.1400   20.8820 C   0  0  0  0  0  0  0  0  0  0  0  0
  -24.6920  -11.8020   20.8010 C   0  0  0  0  0  0  0  0  0  0  0  0
  -26.2850  -13.1230   20.2150 N   0  0  0  0  0  0  0  0  0  0  0  0
  -25.9800  -11.8120   20.4450 N   0  0  0  0  0  0  0  0  0  0  0  0
  -23.9810  -10.5240   20.9860 C   0  0  0  0  0  0  0  0  0  0  0  0
  -24.4180   -9.5590   21.9200 C   0  0  0  0  0  3  0  0  0  0  0  0
  -23.6980   -8.3560   22.1020 C   0  0  0  0  0  3  0  0  0  0  0  0
  -22.5240   -8.1090   21.3500 C   0  0  0  0  0  0  0  0  0  0  0  0
  -22.1040   -9.0640   20.4070 C   0  0  0  0  0  3  0  0  0  0  0  0
  -22.8250  -10.2570   20.2240 C   0  0  0  0  0  3  0  0  0  0  0  0
  -21.7770   -6.9590   21.4400 O   0  0  0  0  0  0  0  0  0  0  0  0
  -21.7000   -6.2370   22.6040 C   0  0  0  0  0  0  0  0  0  0  0  0
  -21.1990   -6.8000   23.7980 C   0  0  0  0  0  3  0  0  0  0  0  0
  -21.0740   -6.0030   24.9540 C   0  0  0  0  0  3  0  0  0  0  0  0
  -21.4370   -4.6430   24.9170 C   0  0  0  0  0  0  0  0  0  0  0  0
  -21.9310   -4.0790   23.7260 C   0  0  0  0  0  3  0  0  0  0  0  0
  -22.0580   -4.8740   22.5740 C   0  0  0  0  0  0  0  0  0  0  0  0
  -22.5130   -4.3180   21.4240 F   0  0  0  0  0  0  0  0  0  0  0  0
  -21.3090   -3.8760   26.0250 F   0  0  0  0  0  0  0  0  0  0  0  0
  -22.7990  -13.5900   21.1950 C   0  0  0  0  0  0  0  0  0  0  0  0
  -22.1070  -12.8740   22.0730 N   0  0  0  0  0  0  0  0  0  0  0  0
  -22.3340  -14.6160   20.7000 O   0  0  0  0  0  0  0  0  0  0  0  0
  -22.4990  -12.0450   22.4950 H   0  0  0  0  0  0  0  0  0  0  0  0
  -21.1720  -13.1590   22.3280 H   0  0  0  0  0  0  0  0  0  0  0  0
  -25.3390  -15.3310   20.3430 N   0  0  0  0  0  0  0  0  0  0  0  0
  -24.5550  -15.9600   20.4790 H   0  0  0  0  0  0  0  0  0  0  0  0
  -26.1640  -15.7940   19.9830 H   0  0  0  0  0  0  0  0  0  0  0  0
  2 13  2  0
  3  1  1  0
  3  8  1  0
  4 12  1  0
  4 14  1  0
  5 11  1  0
  5  7  1  0
  6 12  1  0
  7  6  1  0
  8  7  2  0
  9  3  2  0
 10  9  1  0
 10  5  2  0
 11  4  1  0
 12  2  1  0
 14 16  2  0
 15 14  1  0
 17 15  1  0
 18 27  2  0
 18 23  1  0
 19 15  1  0
 19 23  1  0
 20 19  1  0
 21 22  1  0
 21 20  1  0
 22 18  1  0
 23 24  2  0
 24 25  1  0
 26 25  2  0
 27 26  1  0
 28  2  1  0
 28 33  1  0
 28 29  1  0
 29 32  1  1
 29 30  1  0
 31 29  1  0
 33 36  1  0
 34 38  1  0
 34 33  1  0
 35 34  2  0
 38 37  1  0
 40 38  1  0
 40 41  1  0
 40 39  1  0
 43 42  1  0
 44 42  1  0
 45 53  1  0
 46 51  1  0
 47 48  1  0
 47 46  1  0
 49 48  1  0
 49 58  1  0
 49 50  1  0
 51 45  1  0
 51 50  1  0
 52 45  2  0
 53 54  1  0
 55 56  2  0
 56 75  1  0
 57 56  1  0
 57 60  1  0
 58 59  1  0
 58 55  1  0
 59 57  2  0
 60 61  1  0
 61 62  2  0
 63 66  1  0
 63 62  1  0
 64 63  2  0
 65 64  1  0
 65 60  2  0
 66 67  1  0
 67 68  1  0
 68 69  2  0
 70 69  1  0
 70 74  1  0
 71 70  2  0
 72 67  2  0
 72 71  1  0
 73 72  1  0
 75 76  1  0
 76 79  1  0
 76 78  1  0
 77 75  2  0
 80 81  1  0
 80 55  1  0
 82 80  1  0
M  ISO  4   1 101  44 101  45 100  53 100
M  END
>  <TORSDO>  (17) 
F 16

>  <SCORE>  (17) 
-16.321

>  <name>  (17) 
18

>  <ligand_id>  (17) 
18

>  <original_smiles>  (17) 
[H]c1c([H])c([H])c2c(c1[H])C([H])([H])C([H])([H])C([H])([H])C2([H])N([H])C(=O)C1([H])N(C(=O)C([H])(N([H])C(=O)C([H])(N([H])C([H])([H])[H])C([H])([H])[H])C(C([H])([H])[H])(C([H])([H])[H])C([H])([H])[H])C([H])([H])c2c([H])c(OC3([H])C([H])([H])C3([H])N([H])C(=O)N3C([H])([H])C([H])([H])C([H])([H])C([H])(n4nc(-c5c([H])c([H])c(Oc6c([H])c([H])c(F)c([H])c6F)c([H])c5[H])c(C(=O)N([H])[H])c4N([H])[H])C3([H])[H])c([H])c([H])c2C1([H])[H]

>  <smiles>  (17) 
[H]c1c([H])c([H])c2c(c1[H])C([H])([H])C([H])([H])C([H])([H])C2([H])N([H])C(=O)C1([H])N(C(=O)C([H])(N([H])C(=O)C([H])(N([H])C([H])([H])[H])C([H])([H])[H])C(C([H])([H])[H])(C([H])([H])[H])C([H])([H])[H])C([H])([H])c2c([H])c(OC3([H])C([H])([H])C3([H])N([H])C(=O)N3C([H])([H])C([H])([H])C([H])([H])C([H])(n4nc(-c5c([H])c([H])c(Oc6c([H])c([H])c(F)c([H])c6F)c([H])c5[H])c(C(=O)N([H])[H])c4N([H])[H])C3([H])[H])c([H])c([H])c2C1([H])[H]

$$$$
20:0:0
     RDKit          3D

105114  0  0  1  0  0  0  0  0999 V2000
  -26.8830  -21.0380   18.7890 N   0  0  0  0  0  4  0  0  0  0  0  0
  -26.4520  -20.4920   19.5180 H   0  0  0  0  0  0  0  0  0  0  0  0
  -26.7070  -20.5450   17.9240 H   0  0  0  0  0  0  0  0  0  0  0  0
  -28.3520  -21.1130   18.9850 C   0  0  0  0  0  2  0  0  0  0  0  0
  -30.2870  -20.2440   20.4230 C   0  0  0  0  0  2  0  0  0  0  0  0
  -28.9440  -18.6130   19.0730 C   0  0  0  0  0  2  0  0  0  0  0  0
  -30.7350  -19.1170   21.3700 C   0  0  0  0  0  2  0  0  0  0  0  0
  -29.3490  -17.4800   20.0280 C   0  0  0  0  0  2  0  0  0  0  0  0
  -28.8940  -19.9450   19.8350 C   0  0  0  0  0  3  0  0  0  0  0  0
  -30.7260  -17.7090   20.7230 C   0  0  1  0  0  0  0  0  0  0  0  0
  -31.8170  -17.5920   19.7350 N   0  0  0  0  0  4  0  0  0  0  0  0
  -31.5760  -18.0260   18.8620 H   0  0  0  0  0  0  0  0  0  0  0  0
  -32.0000  -16.6070   19.5660 H   0  0  0  0  0  0  0  0  0  0  0  0
  -32.6660  -18.0110   20.0750 H   0  0  0  0  0  0  0  0  0  0  0  0
  -30.9810  -16.6630   21.8500 C   0  0  0  0  0  2  0  0  0  0  0  0
  -31.0350  -14.5340   20.5220 C   0  0  0  0  0  0  0  0  0  0  0  0
  -30.7030  -12.4210   19.3020 C   0  0  0  0  0  2  0  0  0  0  0  0
  -29.7570  -12.5780   18.0970 C   0  0  0  0  0  2  0  0  0  0  0  0
  -28.2840  -12.4410   18.5250 C   0  0  0  0  0  2  0  0  0  0  0  0
  -27.9370  -13.3400   19.7390 C   0  0  0  0  0  3  0  0  0  0  0  0
  -28.9730  -13.1300   20.8660 C   0  0  0  0  0  2  0  0  0  0  0  0
  -30.3230  -13.3990   20.3280 N   0  0  0  0  0  0  0  0  0  0  0  0
  -32.0210  -14.8700   19.8560 O   0  0  0  0  0  0  0  0  0  0  0  0
  -30.5630  -15.3090   21.5020 N   0  0  0  0  0  0  0  0  0  0  0  0
  -29.7610  -14.9500   21.9970 H   0  0  0  0  0  0  0  0  0  0  0  0
  -25.5650  -14.0070   20.4950 C   0  0  0  0  0  0  0  0  0  0  0  0
  -24.4680  -13.2600   20.8260 C   0  0  0  0  0  0  0  0  0  0  0  0
  -24.8720  -11.8930   20.7040 C   0  0  0  0  0  0  0  0  0  0  0  0
  -26.5730  -13.1000   20.2040 N   0  0  0  0  0  0  0  0  0  0  0  0
  -26.1560  -11.8200   20.3810 N   0  0  0  0  0  0  0  0  0  0  0  0
  -24.0960  -10.6540   20.8230 C   0  0  0  0  0  0  0  0  0  0  0  0
  -24.4720   -9.6310   21.7220 C   0  0  0  0  0  3  0  0  0  0  0  0
  -23.7010   -8.4530   21.8300 C   0  0  0  0  0  3  0  0  0  0  0  0
  -22.5400   -8.2910   21.0390 C   0  0  0  0  0  0  0  0  0  0  0  0
  -22.1810   -9.3010   20.1300 C   0  0  0  0  0  3  0  0  0  0  0  0
  -22.9520  -10.4710   20.0200 C   0  0  0  0  0  3  0  0  0  0  0  0
  -21.7440   -7.1700   21.0580 O   0  0  0  0  0  0  0  0  0  0  0  0
  -21.6010   -6.4080   22.1890 C   0  0  0  0  0  0  0  0  0  0  0  0
  -21.1180   -6.9550   23.3990 C   0  0  0  0  0  3  0  0  0  0  0  0
  -20.9210   -6.1210   24.5180 C   0  0  0  0  0  3  0  0  0  0  0  0
  -21.1950   -4.7430   24.4280 C   0  0  0  0  0  0  0  0  0  0  0  0
  -21.6710   -4.1980   23.2220 C   0  0  0  0  0  3  0  0  0  0  0  0
  -21.8700   -5.0280   22.1050 C   0  0  0  0  0  0  0  0  0  0  0  0
  -22.3080   -4.4930   20.9400 F   0  0  0  0  0  0  0  0  0  0  0  0
  -20.9990   -3.9410   25.4990 F   0  0  0  0  0  0  0  0  0  0  0  0
  -23.0940  -13.7730   21.1480 C   0  0  0  0  0  0  0  0  0  0  0  0
  -22.3510  -13.0570   21.9830 N   0  0  0  0  0  0  0  0  0  0  0  0
  -22.6900  -14.8430   20.6940 O   0  0  0  0  0  0  0  0  0  0  0  0
  -22.6880  -12.1880   22.3680 H   0  0  0  0  0  0  0  0  0  0  0  0
  -21.4300  -13.3810   22.2440 H   0  0  0  0  0  0  0  0  0  0  0  0
  -25.7860  -15.3790   20.3990 N   0  0  0  0  0  0  0  0  0  0  0  0
  -25.0480  -16.0560   20.5580 H   0  0  0  0  0  0  0  0  0  0  0  0
  -26.6500  -15.7990   20.0830 H   0  0  0  0  0  0  0  0  0  0  0  0
  -26.2070  -22.3550   18.7180 C   0  0  0  0  0  2  0  0  0  0  0  0
  -27.2080  -23.9840   21.9360 C   0  0  0  0  0  2  0  0  0  0  0  0
  -26.5070  -22.7370   21.3620 C   0  0  0  0  0  2  0  0  0  0  0  0
  -24.9810  -24.2870   19.9050 C   0  0  0  0  0  2  0  0  0  0  0  0
  -28.0620  -24.8140   20.9580 C   0  0  0  0  0  2  0  0  0  0  0  0
  -25.8940  -25.5440   19.9760 C   0  0  0  0  0  2  0  0  0  0  0  0
  -25.6410  -22.8910   20.0730 C   0  0  0  0  0  3  0  0  0  0  0  0
  -27.3370  -25.2480   19.7330 N   0  0  1  0  0  4  0  0  0  0  0  0
  -27.3370  -24.4580   19.1110 H   0  0  0  0  0  0  0  0  0  0  0  0
  -28.0670  -26.3130   18.9880 C   0  0  0  0  0  2  0  0  0  0  0  0
  -27.7350  -26.2960   17.4730 C   0  0  0  0  0  2  0  0  0  0  0  0
  -27.3680  -27.5830   16.9830 O   0  0  0  0  0  0  0  0  0  0  0  0
  -24.5270  -31.0220   22.4660 C   0  0  0  0  0  0  0  0  0  0  0  0
  -26.2120  -28.1220   17.4950 C   0  0  0  0  0  0  0  0  0  0  0  0
  -22.9100  -30.0610   20.8590 C   0  0  0  0  0  3  0  0  0  0  0  0
  -23.8980  -29.2270   18.6630 C   0  0  0  0  0  0  0  0  0  0  0  0
  -25.2440  -30.7720   20.0970 C   0  0  0  0  0  2  0  0  0  0  0  0
  -25.1640  -29.6810   19.0520 C   0  0  0  0  0  0  0  0  0  0  0  0
  -26.3230  -29.1270   18.4760 C   0  0  0  0  0  3  0  0  0  0  0  0
  -24.9270  -27.6890   17.0930 C   0  0  0  0  0  3  0  0  0  0  0  0
  -23.7720  -28.2260   17.6870 C   0  0  0  0  0  3  0  0  0  0  0  0
  -22.7060  -29.8710   19.3320 C   0  0  0  0  0  2  0  0  0  0  0  0
  -24.2640  -30.6130   21.1930 N   0  0  0  0  0  0  0  0  0  0  0  0
  -23.6550  -30.9860   23.3440 O   0  0  0  0  0  0  0  0  0  0  0  0
  -22.6030  -28.7240   21.5690 C   0  0  0  0  0  0  0  0  0  0  0  0
  -21.3150  -28.3460   21.5880 N   0  0  0  0  0  0  0  0  0  0  0  0
  -23.5100  -28.0400   22.0500 O   0  0  0  0  0  0  0  0  0  0  0  0
  -20.6360  -28.9660   21.1680 H   0  0  0  0  0  0  0  0  0  0  0  0
  -18.3360  -26.3390   21.9540 C   0  0  0  0  0  0  0  0  0  0  0  0
  -20.7900  -27.1100   22.1670 C   0  0  0  0  0  3  0  0  0  0  0  0
  -21.1470  -25.8910   21.2870 C   0  0  0  0  0  2  0  0  0  0  0  0
  -20.0570  -25.5380   20.2720 C   0  0  0  0  0  2  0  0  0  0  0  0
  -18.7380  -25.2330   20.9910 C   0  0  0  0  0  2  0  0  0  0  0  0
  -19.3000  -27.2310   22.4930 C   0  0  0  0  0  0  0  0  0  0  0  0
  -18.8750  -28.2600   23.3590 C   0  0  0  0  0  3  0  0  0  0  0  0
  -17.5140  -28.4100   23.6870 C   0  0  0  0  0  3  0  0  0  0  0  0
  -16.5640  -27.5170   23.1620 C   0  0  0  0  0  3  0  0  0  0  0  0
  -16.9750  -26.4790   22.3050 C   0  0  0  0  0  3  0  0  0  0  0  0
  -25.9280  -31.5790   22.8720 C   0  0  0  0  0  3  0  0  0  0  0  0
  -25.7080  -32.7700   23.7030 N   0  0  0  0  0  0  0  0  0  0  0  0
  -25.8790  -34.0290   23.2810 C   0  0  0  0  0  0  0  0  0  0  0  0
  -26.3140  -34.3080   22.1600 O   0  0  0  0  0  0  0  0  0  0  0  0
  -25.2990  -32.6220   24.6130 H   0  0  0  0  0  0  0  0  0  0  0  0
  -24.1540  -35.7620   23.8570 C   0  0  0  0  0  1  0  0  0  0  0  0
  -25.5080  -35.1600   24.2620 C   0  0  0  0  0  3  0  0  0  0  0  0
  -27.7730  -35.7830   24.9680 C   0  0  0  0  0  1  0  0  0  0  0  0
  -26.5300  -36.2270   24.3430 N   0  0  0  0  0  0  0  0  0  0  0  0
  -26.1820  -37.0270   24.8650 H   0  0  0  0  0  0  0  0  0  0  0  0
  -26.8190  -30.5200   23.6310 C   0  0  1  0  0  0  0  0  0  0  0  0
  -26.1030  -29.8430   24.8220 C   0  0  0  0  0  1  0  0  0  0  0  0
  -27.2730  -29.4020   22.6650 C   0  0  0  0  0  1  0  0  0  0  0  0
  -28.1060  -31.2020   24.1540 C   0  0  0  0  0  1  0  0  0  0  0  0
  1  4  1  0
  1  2  1  0
  3  1  1  0
  5  7  1  0
  6  9  1  0
  6  8  1  0
  8 10  1  0
  9  4  1  0
  9  5  1  0
 10  7  1  0
 10 15  1  1
 11 14  1  0
 11 10  1  0
 12 11  1  0
 13 11  1  0
 16 24  1  0
 17 22  1  0
 18 19  1  0
 18 17  1  0
 20 19  1  0
 20 29  1  0
 20 21  1  0
 22 16  1  0
 22 21  1  0
 23 16  2  0
 24 15  1  0
 24 25  1  0
 26 27  2  0
 27 46  1  0
 28 31  1  0
 28 27  1  0
 29 30  1  0
 29 26  1  0
 30 28  2  0
 31 32  1  0
 32 33  2  0
 34 37  1  0
 34 33  1  0
 35 34  2  0
 36 35  1  0
 36 31  2  0
 37 38  1  0
 38 39  1  0
 39 40  2  0
 41 40  1  0
 41 45  1  0
 42 41  2  0
 43 38  2  0
 43 42  1  0
 44 43  1  0
 46 47  1  0
 47 50  1  0
 47 49  1  0
 48 46  2  0
 51 26  1  0
 51 52  1  0
 53 51  1  0
 54  1  1  0
 56 55  1  0
 57 59  1  0
 57 60  1  0
 58 55  1  0
 60 54  1  0
 60 56  1  0
 61 59  1  0
 61 58  1  0
 61 62  1  6
 63 61  1  0
 64 63  1  0
 65 64  1  0
 65 67  1  0
 66 77  2  0
 67 72  1  0
 68 76  1  0
 68 78  1  0
 69 71  1  0
 69 75  1  0
 70 76  1  0
 71 70  1  0
 72 71  2  0
 73 67  2  0
 73 74  1  0
 74 69  2  0
 75 68  1  0
 76 66  1  0
 78 79  1  0
 78 80  2  0
 81 79  1  0
 82 91  2  0
 82 87  1  0
 83 79  1  0
 83 87  1  0
 84 83  1  0
 85 86  1  0
 85 84  1  0
 86 82  1  0
 87 88  2  0
 88 89  1  0
 90 89  2  0
 91 90  1  0
 92 66  1  0
 92102  1  0
 92 93  1  0
 93 96  1  0
 94 93  1  0
 94 98  1  0
 95 94  2  0
 98 97  1  0
 98100  1  0
100101  1  0
100 99  1  0
102105  1  1
102103  1  0
104102  1  0
M  ISO  4  16 100  24 100  64 101  65 101
M  END
>  <TORSDO>  (18) 
F 24

>  <SCORE>  (18) 
-9.005

>  <name>  (18) 
20

>  <ligand_id>  (18) 
20

>  <original_smiles>  (18) 
[H]c1c([H])c([H])c2c(c1[H])C([H])([H])C([H])([H])C([H])([H])C2([H])N([H])C(=O)C1([H])N(C(=O)C([H])(N([H])C(=O)C([H])(N([H])C([H])([H])[H])C([H])([H])[H])C(C([H])([H])[H])(C([H])([H])[H])C([H])([H])[H])C([H])([H])c2c([H])c(OC([H])([H])C([H])([H])[N+]3([H])C([H])([H])C([H])([H])C([H])([H])C([H])(C([H])([H])[N+]([H])([H])C([H])([H])C4([H])C([H])([H])C([H])([H])C(C([H])([H])N([H])C(=O)N5C([H])([H])C([H])([H])C([H])([H])C([H])(n6nc(-c7c([H])c([H])c(Oc8c([H])c([H])c(F)c([H])c8F)c([H])c7[H])c(C(=O)N([H])[H])c6N([H])[H])C5([H])[H])([N+]([H])([H])[H])C([H])([H])C4([H])[H])C([H])([H])C3([H])[H])c([H])c([H])c2C1([H])[H]

>  <smiles>  (18) 
[H]c1c([H])c([H])c2c(c1[H])C([H])([H])C([H])([H])C([H])([H])C2([H])N([H])C(=O)C1([H])N(C(=O)C([H])(N([H])C(=O)C([H])(N([H])C([H])([H])[H])C([H])([H])[H])C(C([H])([H])[H])(C([H])([H])[H])C([H])([H])[H])C([H])([H])c2c([H])c(OC([H])([H])C([H])([H])[N+]3([H])C([H])([H])C([H])([H])C([H])([H])C([H])(C([H])([H])[N+]([H])([H])C([H])([H])C4([H])C([H])([H])C([H])([H])C(C([H])([H])N([H])C(=O)N5C([H])([H])C([H])([H])C([H])([H])C([H])(n6nc(-c7c([H])c([H])c(Oc8c([H])c([H])c(F)c([H])c8F)c([H])c7[H])c(C(=O)N([H])[H])c6N([H])[H])C5([H])[H])([N+]([H])([H])[H])C([H])([H])C4([H])[H])C([H])([H])C3([H])[H])c([H])c([H])c2C1([H])[H]

$$$$
21:0:0
     RDKit          3D

 93102  0  0  1  0  0  0  0  0999 V2000
  -28.8240  -23.1480   19.9320 C   0  0  0  0  0  3  0  0  0  0  0  0
  -28.3510  -21.5060   20.0240 C   0  0  0  0  0  2  0  0  0  0  0  0
  -30.5550  -14.8930   19.9860 C   0  0  0  0  0  0  0  0  0  0  0  0
  -30.2800  -12.5790   18.9860 C   0  0  0  0  0  2  0  0  0  0  0  0
  -29.2760  -12.6180   17.8070 C   0  0  0  0  0  2  0  0  0  0  0  0
  -27.8450  -12.3990   18.3300 C   0  0  0  0  0  2  0  0  0  0  0  0
  -27.5230  -13.3070   19.5450 C   0  0  0  0  0  3  0  0  0  0  0  0
  -28.6410  -13.2860   20.6130 C   0  0  0  0  0  2  0  0  0  0  0  0
  -29.8920  -13.6660   19.9390 N   0  0  0  0  0  0  0  0  0  0  0  0
  -31.7000  -14.9120   19.5130 O   0  0  0  0  0  0  0  0  0  0  0  0
  -31.3340  -19.3990   20.8250 C   0  0  0  0  0  2  0  0  0  0  0  0
  -30.8820  -16.8640   21.4600 C   0  0  0  0  0  2  0  0  0  0  0  0
  -29.2820  -17.2960   19.8750 C   0  0  0  0  0  2  0  0  0  0  0  0
  -30.4690  -18.3760   21.5590 C   0  0  0  0  0  3  0  0  0  0  0  0
  -29.1400  -18.6120   20.8510 C   0  0  0  0  0  3  0  0  0  0  0  0
  -29.3170  -20.2670   20.6010 C   0  0  0  0  0  3  0  0  0  0  0  0
  -30.7230  -20.3800   20.2710 N   0  0  0  0  0  2  0  0  0  0  0  0
  -30.0060  -16.0910   20.5360 N   0  0  0  0  0  0  0  0  0  0  0  0
  -25.2040  -13.8870   20.4570 C   0  0  0  0  0  0  0  0  0  0  0  0
  -24.1580  -13.1100   20.8650 C   0  0  0  0  0  0  0  0  0  0  0  0
  -24.6070  -11.7550   20.7760 C   0  0  0  0  0  0  0  0  0  0  0  0
  -26.2180  -13.0040   20.1220 N   0  0  0  0  0  0  0  0  0  0  0  0
  -25.8680  -11.7180   20.3740 N   0  0  0  0  0  0  0  0  0  0  0  0
  -23.8830  -10.4950   20.9730 C   0  0  0  0  0  0  0  0  0  0  0  0
  -24.3310   -9.5140   21.8860 C   0  0  0  0  0  3  0  0  0  0  0  0
  -23.6000   -8.3220   22.0720 C   0  0  0  0  0  3  0  0  0  0  0  0
  -22.4030   -8.1030   21.3490 C   0  0  0  0  0  0  0  0  0  0  0  0
  -21.9760   -9.0660   20.4190 C   0  0  0  0  0  3  0  0  0  0  0  0
  -22.7090  -10.2510   20.2320 C   0  0  0  0  0  3  0  0  0  0  0  0
  -21.6440   -6.9610   21.4470 O   0  0  0  0  0  0  0  0  0  0  0  0
  -21.5880   -6.2330   22.6090 C   0  0  0  0  0  0  0  0  0  0  0  0
  -21.1550   -6.8010   23.8280 C   0  0  0  0  0  3  0  0  0  0  0  0
  -21.0480   -6.0000   24.9810 C   0  0  0  0  0  3  0  0  0  0  0  0
  -21.3630   -4.6290   24.9180 C   0  0  0  0  0  0  0  0  0  0  0  0
  -21.7870   -4.0580   23.7050 C   0  0  0  0  0  3  0  0  0  0  0  0
  -21.8960   -4.8590   22.5550 C   0  0  0  0  0  0  0  0  0  0  0  0
  -22.2860   -4.2980   21.3850 F   0  0  0  0  0  0  0  0  0  0  0  0
  -21.2500   -3.8580   26.0240 F   0  0  0  0  0  0  0  0  0  0  0  0
  -22.7880  -13.5860   21.2410 C   0  0  0  0  0  0  0  0  0  0  0  0
  -22.1160  -12.8790   22.1420 N   0  0  0  0  0  0  0  0  0  0  0  0
  -22.3310  -14.6300   20.7740 O   0  0  0  0  0  0  0  0  0  0  0  0
  -22.4970  -12.0270   22.5260 H   0  0  0  0  0  0  0  0  0  0  0  0
  -21.1950  -13.1790   22.4380 H   0  0  0  0  0  0  0  0  0  0  0  0
  -25.3760  -15.2600   20.3050 N   0  0  0  0  0  0  0  0  0  0  0  0
  -24.6270  -15.9240   20.4610 H   0  0  0  0  0  0  0  0  0  0  0  0
  -26.2120  -15.6910   19.9340 H   0  0  0  0  0  0  0  0  0  0  0  0
  -29.7130  -23.2760   18.6430 C   0  0  0  0  0  2  0  0  0  0  0  0
  -29.1550  -22.6400   17.4190 N   0  0  0  0  0  4  0  0  0  0  0  0
  -29.0580  -21.6460   17.5520 H   0  0  0  0  0  0  0  0  0  0  0  0
  -29.7730  -22.7630   16.6390 H   0  0  0  0  0  0  0  0  0  0  0  0
  -28.2560  -23.0070   17.1740 H   0  0  0  0  0  0  0  0  0  0  0  0
  -27.8090  -24.5190   20.0620 C   0  0  0  0  0  2  0  0  0  0  0  0
  -28.1800  -26.0530   20.1860 O   0  0  0  0  0  0  0  0  0  0  0  0
  -24.6410  -31.8560   23.2260 C   0  0  0  0  0  0  0  0  0  0  0  0
  -27.1690  -27.0920   20.1570 C   0  0  0  0  0  0  0  0  0  0  0  0
  -23.4370  -30.4650   21.5940 C   0  0  0  0  0  3  0  0  0  0  0  0
  -24.8700  -28.8920   20.1540 C   0  0  0  0  0  0  0  0  0  0  0  0
  -25.9980  -30.7000   21.4330 C   0  0  0  0  0  2  0  0  0  0  0  0
  -26.0610  -29.3100   20.7700 C   0  0  0  0  0  0  0  0  0  0  0  0
  -27.2110  -28.4240   20.7550 C   0  0  0  0  0  3  0  0  0  0  0  0
  -25.9590  -26.8080   19.4860 C   0  0  0  0  0  3  0  0  0  0  0  0
  -24.8390  -27.6610   19.4920 C   0  0  0  0  0  3  0  0  0  0  0  0
  -23.6530  -29.7990   20.2130 C   0  0  0  0  0  2  0  0  0  0  0  0
  -24.7150  -31.0320   22.1370 N   0  0  0  0  0  0  0  0  0  0  0  0
  -23.5560  -32.1430   23.7550 O   0  0  0  0  0  0  0  0  0  0  0  0
  -22.7590  -29.4600   22.5600 C   0  0  0  0  0  0  0  0  0  0  0  0
  -21.4300  -29.2910   22.4350 N   0  0  0  0  0  0  0  0  0  0  0  0
  -23.4290  -28.8350   23.3850 O   0  0  0  0  0  0  0  0  0  0  0  0
  -20.9460  -29.8520   21.7520 H   0  0  0  0  0  0  0  0  0  0  0  0
  -18.0490  -28.0770   22.9560 C   0  0  0  0  0  0  0  0  0  0  0  0
  -20.6100  -28.3530   23.2120 C   0  0  0  0  0  3  0  0  0  0  0  0
  -20.7150  -26.9200   22.6480 C   0  0  0  0  0  2  0  0  0  0  0  0
  -19.6120  -26.5860   21.6360 C   0  0  0  0  0  2  0  0  0  0  0  0
  -18.2320  -26.7250   22.2830 C   0  0  0  0  0  2  0  0  0  0  0  0
  -19.1690  -28.8470   23.3780 C   0  0  0  0  0  0  0  0  0  0  0  0
  -18.9440  -30.1090   23.9710 C   0  0  0  0  0  3  0  0  0  0  0  0
  -17.6350  -30.6020   24.1410 C   0  0  0  0  0  3  0  0  0  0  0  0
  -16.5350  -29.8320   23.7320 C   0  0  0  0  0  3  0  0  0  0  0  0
  -16.7420  -28.5710   23.1450 C   0  0  0  0  0  3  0  0  0  0  0  0
  -25.9140  -32.4970   23.8500 C   0  0  0  0  0  3  0  0  0  0  0  0
  -26.4320  -31.7330   25.1280 C   0  0  1  0  0  0  0  0  0  0  0  0
  -25.3370  -31.4980   26.1980 C   0  0  0  0  0  1  0  0  0  0  0  0
  -27.0190  -30.3510   24.7470 C   0  0  0  0  0  1  0  0  0  0  0  0
  -27.5780  -32.5390   25.7830 C   0  0  0  0  0  1  0  0  0  0  0  0
  -25.5920  -33.8950   24.1800 N   0  0  0  0  0  0  0  0  0  0  0  0
  -25.9100  -34.9570   23.4270 C   0  0  0  0  0  0  0  0  0  0  0  0
  -26.5690  -34.8640   22.3880 O   0  0  0  0  0  0  0  0  0  0  0  0
  -24.9860  -34.0360   24.9730 H   0  0  0  0  0  0  0  0  0  0  0  0
  -24.1610  -36.7530   23.1170 C   0  0  0  0  0  1  0  0  0  0  0  0
  -25.4200  -36.3440   23.8980 C   0  0  0  0  0  3  0  0  0  0  0  0
  -27.5660  -37.2500   24.6830 C   0  0  0  0  0  1  0  0  0  0  0  0
  -26.4430  -37.4050   23.7640 N   0  0  0  0  0  0  0  0  0  0  0  0
  -26.0320  -38.3240   23.9120 H   0  0  0  0  0  0  0  0  0  0  0  0
  1 47  1  0
  1  2  1  0
  1 52  1  0
  3 18  1  0
  4  9  1  0
  5  6  1  0
  5  4  1  0
  7  6  1  0
  7 22  1  0
  7  8  1  0
  9  3  1  0
  9  8  1  0
 10  3  2  0
 12 14  1  0
 13 18  1  0
 14 11  1  0
 15 13  1  0
 15 14  1  0
 16  2  1  0
 16 15  1  0
 17 16  1  0
 17 11  1  0
 18 12  1  0
 19 20  2  0
 20 39  1  0
 21 20  1  0
 21 24  1  0
 22 23  1  0
 22 19  1  0
 23 21  2  0
 24 25  1  0
 25 26  2  0
 27 30  1  0
 27 26  1  0
 28 27  2  0
 29 28  1  0
 29 24  2  0
 30 31  1  0
 31 32  1  0
 32 33  2  0
 34 33  1  0
 34 38  1  0
 35 34  2  0
 36 31  2  0
 36 35  1  0
 37 36  1  0
 39 40  1  0
 40 43  1  0
 40 42  1  0
 41 39  2  0
 44 19  1  0
 44 45  1  0
 46 44  1  0
 48 49  1  0
 48 47  1  0
 50 48  1  0
 51 48  1  0
 52 53  1  0
 54 65  2  0
 55 53  1  0
 55 60  1  0
 56 64  1  0
 56 66  1  0
 57 63  1  0
 57 59  1  0
 58 64  1  0
 59 58  1  0
 60 59  2  0
 61 62  1  0
 61 55  2  0
 62 57  2  0
 63 56  1  0
 64 54  1  0
 66 68  2  0
 67 66  1  0
 69 67  1  0
 70 79  2  0
 70 75  1  0
 71 67  1  0
 71 75  1  0
 72 71  1  0
 73 74  1  0
 73 72  1  0
 74 70  1  0
 75 76  2  0
 76 77  1  0
 78 77  2  0
 79 78  1  0
 80 54  1  0
 80 85  1  0
 80 81  1  0
 81 84  1  1
 81 82  1  0
 83 81  1  0
 85 88  1  0
 86 90  1  0
 86 85  1  0
 87 86  2  0
 90 89  1  0
 92 90  1  0
 92 93  1  0
 92 91  1  0
M  ISO  4   3 100  18 100  52 101  53 101
M  END
>  <TORSDO>  (19) 
F 20

>  <SCORE>  (19) 
-15.447

>  <name>  (19) 
21

>  <ligand_id>  (19) 
21

>  <original_smiles>  (19) 
[H]C1=NC([H])(C([H])([H])C([H])(C([H])([H])Oc2c([H])c([H])c3c(c2[H])C([H])([H])N(C(=O)C([H])(N([H])C(=O)C([H])(N([H])C([H])([H])[H])C([H])([H])[H])C(C([H])([H])[H])(C([H])([H])[H])C([H])([H])[H])C([H])(C(=O)N([H])C2([H])c4c([H])c([H])c([H])c([H])c4C([H])([H])C([H])([H])C2([H])[H])C3([H])[H])C([H])([H])[N+]([H])([H])[H])C2([H])C([H])([H])N(C(=O)N3C([H])([H])C([H])([H])C([H])([H])C([H])(n4nc(-c5c([H])c([H])c(Oc6c([H])c([H])c(F)c([H])c6F)c([H])c5[H])c(C(=O)N([H])[H])c4N([H])[H])C3([H])[H])C([H])([H])C12[H]

>  <smiles>  (19) 
[H]C1=NC([H])(C([H])([H])C([H])(C([H])([H])Oc2c([H])c([H])c3c(c2[H])C([H])([H])N(C(=O)C([H])(N([H])C(=O)C([H])(N([H])C([H])([H])[H])C([H])([H])[H])C(C([H])([H])[H])(C([H])([H])[H])C([H])([H])[H])C([H])(C(=O)N([H])C2([H])c4c([H])c([H])c([H])c([H])c4C([H])([H])C([H])([H])C2([H])[H])C3([H])[H])C([H])([H])[N+]([H])([H])[H])C2([H])C([H])([H])N(C(=O)N3C([H])([H])C([H])([H])C([H])([H])C([H])(n4nc(-c5c([H])c([H])c(Oc6c([H])c([H])c(F)c([H])c6F)c([H])c5[H])c(C(=O)N([H])[H])c4N([H])[H])C3([H])[H])C([H])([H])C12[H]

$$$$
22:0:0
     RDKit          3D

 93102  0  0  1  0  0  0  0  0999 V2000
  -28.8840  -17.7260   20.5670 C   0  0  0  0  0  2  0  0  0  0  0  0
  -28.6530  -19.0850   19.8950 C   0  0  0  0  0  2  0  0  0  0  0  0
  -30.8970  -19.4460   22.4030 C   0  0  0  0  0  2  0  0  0  0  0  0
  -30.5080  -20.9220   22.3510 C   0  0  0  0  0  2  0  0  0  0  0  0
  -30.8930  -19.0220   20.9270 C   0  0  0  0  0  3  0  0  0  0  0  0
  -30.4090  -17.5920   20.6200 C   0  0  0  0  0  3  0  0  0  0  0  0
  -29.8640  -19.9640   20.2670 C   0  0  0  0  0  3  0  0  0  0  0  0
  -29.5140  -21.0070   21.2640 N   0  0  2  0  0  4  0  0  0  0  0  0
  -28.6340  -20.7090   21.6570 H   0  0  0  0  0  0  0  0  0  0  0  0
  -30.9440  -16.4730   21.5430 C   0  0  0  0  0  2  0  0  0  0  0  0
  -30.8390  -14.3640   20.2050 C   0  0  0  0  0  0  0  0  0  0  0  0
  -30.3840  -12.3180   18.9030 C   0  0  0  0  0  2  0  0  0  0  0  0
  -29.3760  -12.6000   17.7730 C   0  0  0  0  0  2  0  0  0  0  0  0
  -27.9280  -12.4700   18.2830 C   0  0  0  0  0  2  0  0  0  0  0  0
  -27.6860  -13.2620   19.5940 C   0  0  0  0  0  3  0  0  0  0  0  0
  -28.7920  -12.9520   20.6290 C   0  0  0  0  0  2  0  0  0  0  0  0
  -30.1010  -13.2410   20.0110 N   0  0  0  0  0  0  0  0  0  0  0  0
  -31.8380  -14.6480   19.5380 O   0  0  0  0  0  0  0  0  0  0  0  0
  -30.3980  -15.1670   21.1810 N   0  0  0  0  0  0  0  0  0  0  0  0
  -29.5910  -14.8460   21.6950 H   0  0  0  0  0  0  0  0  0  0  0  0
  -25.3350  -13.8960   20.4360 C   0  0  0  0  0  0  0  0  0  0  0  0
  -24.2760  -13.1320   20.8490 C   0  0  0  0  0  0  0  0  0  0  0  0
  -24.7120  -11.7740   20.7680 C   0  0  0  0  0  0  0  0  0  0  0  0
  -26.3530  -13.0030   20.1360 N   0  0  0  0  0  0  0  0  0  0  0  0
  -25.9830  -11.7210   20.3880 N   0  0  0  0  0  0  0  0  0  0  0  0
  -23.9790  -10.5190   20.9740 C   0  0  0  0  0  0  0  0  0  0  0  0
  -24.4360   -9.5360   21.8790 C   0  0  0  0  0  3  0  0  0  0  0  0
  -23.7040   -8.3460   22.0730 C   0  0  0  0  0  3  0  0  0  0  0  0
  -22.4980   -8.1300   21.3620 C   0  0  0  0  0  0  0  0  0  0  0  0
  -22.0600   -9.1010   20.4470 C   0  0  0  0  0  3  0  0  0  0  0  0
  -22.7920  -10.2840   20.2510 C   0  0  0  0  0  3  0  0  0  0  0  0
  -21.7340   -6.9930   21.4680 O   0  0  0  0  0  0  0  0  0  0  0  0
  -21.7100   -6.2470   22.6190 C   0  0  0  0  0  0  0  0  0  0  0  0
  -21.3060   -6.7960   23.8550 C   0  0  0  0  0  3  0  0  0  0  0  0
  -21.2290   -5.9760   24.9980 C   0  0  0  0  0  3  0  0  0  0  0  0
  -21.5430   -4.6080   24.9070 C   0  0  0  0  0  0  0  0  0  0  0  0
  -21.9390   -4.0570   23.6750 C   0  0  0  0  0  3  0  0  0  0  0  0
  -22.0180   -4.8740   22.5330 C   0  0  0  0  0  0  0  0  0  0  0  0
  -22.3800   -4.3340   21.3450 F   0  0  0  0  0  0  0  0  0  0  0  0
  -21.4610   -3.8170   26.0030 F   0  0  0  0  0  0  0  0  0  0  0  0
  -22.9030  -13.6240   21.2070 C   0  0  0  0  0  0  0  0  0  0  0  0
  -22.2110  -12.9180   22.0970 N   0  0  0  0  0  0  0  0  0  0  0  0
  -22.4540  -14.6670   20.7350 O   0  0  0  0  0  0  0  0  0  0  0  0
  -22.5870  -12.0740   22.5010 H   0  0  0  0  0  0  0  0  0  0  0  0
  -21.2920  -13.2290   22.3780 H   0  0  0  0  0  0  0  0  0  0  0  0
  -25.5120  -15.2670   20.2760 N   0  0  0  0  0  0  0  0  0  0  0  0
  -24.7630  -15.9310   20.4410 H   0  0  0  0  0  0  0  0  0  0  0  0
  -26.3550  -15.6990   19.9190 H   0  0  0  0  0  0  0  0  0  0  0  0
  -29.3060  -22.3640   20.6990 C   0  0  0  0  0  2  0  0  0  0  0  0
  -28.3530  -23.2130   21.5670 C   0  0  0  0  0  2  0  0  0  0  0  0
  -27.9050  -24.5260   20.8950 C   0  0  0  0  0  2  0  0  0  0  0  0
  -28.7990  -25.7460   21.1930 C   0  0  0  0  0  2  0  0  0  0  0  0
  -28.6560  -26.7920   20.2320 O   0  0  0  0  0  0  0  0  0  0  0  0
  -24.6590  -31.8770   23.2230 C   0  0  0  0  0  0  0  0  0  0  0  0
  -27.4670  -27.4800   20.2530 C   0  0  0  0  0  0  0  0  0  0  0  0
  -23.5240  -30.4480   21.5520 C   0  0  0  0  0  3  0  0  0  0  0  0
  -25.0460  -28.9250   20.1860 C   0  0  0  0  0  0  0  0  0  0  0  0
  -26.0470  -30.8500   21.4310 C   0  0  0  0  0  2  0  0  0  0  0  0
  -26.1740  -29.4760   20.8090 C   0  0  0  0  0  0  0  0  0  0  0  0
  -27.3890  -28.7570   20.8460 C   0  0  0  0  0  3  0  0  0  0  0  0
  -26.3300  -26.9430   19.6150 C   0  0  0  0  0  3  0  0  0  0  0  0
  -25.1160  -27.6540   19.5910 C   0  0  0  0  0  3  0  0  0  0  0  0
  -23.7870  -29.7630   20.1850 C   0  0  0  0  0  2  0  0  0  0  0  0
  -24.7600  -31.0740   22.1280 N   0  0  0  0  0  0  0  0  0  0  0  0
  -23.5580  -32.1350   23.7280 O   0  0  0  0  0  0  0  0  0  0  0  0
  -22.8610  -29.4210   22.4970 C   0  0  0  0  0  0  0  0  0  0  0  0
  -21.5420  -29.2260   22.3350 N   0  0  0  0  0  0  0  0  0  0  0  0
  -23.5290  -28.8010   23.3280 O   0  0  0  0  0  0  0  0  0  0  0  0
  -21.0640  -29.7790   21.6370 H   0  0  0  0  0  0  0  0  0  0  0  0
  -18.1640  -28.0220   22.7600 C   0  0  0  0  0  0  0  0  0  0  0  0
  -20.7140  -28.2830   23.0850 C   0  0  0  0  0  3  0  0  0  0  0  0
  -20.8320  -26.8550   22.5040 C   0  0  0  0  0  2  0  0  0  0  0  0
  -19.7510  -26.5350   21.4670 C   0  0  0  0  0  2  0  0  0  0  0  0
  -18.3570  -26.6750   22.0830 C   0  0  0  0  0  2  0  0  0  0  0  0
  -19.2720  -28.7840   23.2160 C   0  0  0  0  0  0  0  0  0  0  0  0
  -19.0390  -30.0460   23.8050 C   0  0  0  0  0  3  0  0  0  0  0  0
  -17.7300  -30.5440   23.9460 C   0  0  0  0  0  3  0  0  0  0  0  0
  -16.6360  -29.7780   23.5080 C   0  0  0  0  0  3  0  0  0  0  0  0
  -16.8530  -28.5200   22.9200 C   0  0  0  0  0  3  0  0  0  0  0  0
  -25.9160  -32.5290   23.8790 C   0  0  0  0  0  3  0  0  0  0  0  0
  -25.5780  -33.9230   24.1940 N   0  0  0  0  0  0  0  0  0  0  0  0
  -25.9160  -34.9760   23.4380 C   0  0  0  0  0  0  0  0  0  0  0  0
  -26.6170  -34.8780   22.4270 O   0  0  0  0  0  0  0  0  0  0  0  0
  -24.9590  -34.0720   24.9780 H   0  0  0  0  0  0  0  0  0  0  0  0
  -24.1720  -36.7380   23.0200 C   0  0  0  0  0  1  0  0  0  0  0  0
  -25.3920  -36.3570   23.8730 C   0  0  0  0  0  3  0  0  0  0  0  0
  -27.4840  -37.2790   24.7700 C   0  0  0  0  0  1  0  0  0  0  0  0
  -26.4130  -37.4250   23.7890 N   0  0  0  0  0  0  0  0  0  0  0  0
  -25.9880  -38.3400   23.9170 H   0  0  0  0  0  0  0  0  0  0  0  0
  -26.4110  -31.7660   25.1690 C   0  0  1  0  0  0  0  0  0  0  0  0
  -25.2920  -31.5090   26.2050 C   0  0  0  0  0  1  0  0  0  0  0  0
  -27.0290  -30.4000   24.7930 C   0  0  0  0  0  1  0  0  0  0  0  0
  -27.5280  -32.5810   25.8640 C   0  0  0  0  0  1  0  0  0  0  0  0
  1  6  1  0
  2  1  1  0
  4  3  1  0
  5  3  1  0
  6  5  1  0
  6 10  1  0
  7  2  1  0
  7  5  1  0
  7  8  1  0
  8  9  1  1
  8  4  1  0
 11 19  1  0
 12 17  1  0
 13 14  1  0
 13 12  1  0
 15 14  1  0
 15 24  1  0
 15 16  1  0
 17 11  1  0
 17 16  1  0
 18 11  2  0
 19 10  1  0
 19 20  1  0
 21 22  2  0
 22 41  1  0
 23 22  1  0
 23 26  1  0
 24 25  1  0
 24 21  1  0
 25 23  2  0
 26 27  1  0
 27 28  2  0
 29 32  1  0
 29 28  1  0
 30 29  2  0
 31 30  1  0
 31 26  2  0
 32 33  1  0
 33 34  1  0
 34 35  2  0
 36 35  1  0
 36 40  1  0
 37 36  2  0
 38 33  2  0
 38 37  1  0
 39 38  1  0
 41 42  1  0
 42 45  1  0
 42 44  1  0
 43 41  2  0
 46 21  1  0
 46 47  1  0
 48 46  1  0
 49  8  1  0
 49 50  1  0
 51 52  1  0
 51 50  1  0
 53 55  1  0
 53 52  1  0
 54 65  2  0
 55 60  1  0
 56 64  1  0
 56 66  1  0
 57 59  1  0
 58 64  1  0
 59 60  2  0
 59 58  1  0
 61 55  2  0
 62 61  1  0
 62 57  2  0
 63 57  1  0
 63 56  1  0
 64 54  1  0
 66 68  2  0
 67 66  1  0
 69 67  1  0
 70 79  2  0
 70 75  1  0
 71 67  1  0
 71 75  1  0
 72 71  1  0
 73 74  1  0
 73 72  1  0
 74 70  1  0
 75 76  2  0
 76 77  1  0
 78 77  2  0
 79 78  1  0
 80 54  1  0
 80 81  1  0
 80 90  1  0
 81 84  1  0
 82 86  1  0
 82 81  1  0
 83 82  2  0
 86 85  1  0
 88 86  1  0
 88 89  1  0
 88 87  1  0
 90 93  1  1
 90 91  1  0
 92 90  1  0
M  ISO  4  11 100  19 100  52 101  53 101
M  END
>  <TORSDO>  (20) 
F 21

>  <SCORE>  (20) 
-13.761

>  <name>  (20) 
22

>  <ligand_id>  (20) 
22

>  <original_smiles>  (20) 
[H]c1c([H])c([H])c2c(c1[H])C([H])([H])C([H])([H])C([H])([H])C2([H])N([H])C(=O)C1([H])N(C(=O)C([H])(N([H])C(=O)C([H])(N([H])C([H])([H])[H])C([H])([H])[H])C(C([H])([H])[H])(C([H])([H])[H])C([H])([H])[H])C([H])([H])c2c([H])c(OC([H])([H])C([H])([H])C([H])([H])C([H])([H])[N+]3([H])C([H])([H])C([H])([H])C4([H])C([H])(C([H])([H])N([H])C(=O)N5C([H])([H])C([H])([H])C([H])([H])C([H])(n6nc(-c7c([H])c([H])c(Oc8c([H])c([H])c(F)c([H])c8F)c([H])c7[H])c(C(=O)N([H])[H])c6N([H])[H])C5([H])[H])C([H])([H])C([H])([H])C43[H])c([H])c([H])c2C1([H])[H]

>  <smiles>  (20) 
[H]c1c([H])c([H])c2c(c1[H])C([H])([H])C([H])([H])C([H])([H])C2([H])N([H])C(=O)C1([H])N(C(=O)C([H])(N([H])C(=O)C([H])(N([H])C([H])([H])[H])C([H])([H])[H])C(C([H])([H])[H])(C([H])([H])[H])C([H])([H])[H])C([H])([H])c2c([H])c(OC([H])([H])C([H])([H])C([H])([H])C([H])([H])[N+]3([H])C([H])([H])C([H])([H])C4([H])C([H])(C([H])([H])N([H])C(=O)N5C([H])([H])C([H])([H])C([H])([H])C([H])(n6nc(-c7c([H])c([H])c(Oc8c([H])c([H])c(F)c([H])c8F)c([H])c7[H])c(C(=O)N([H])[H])c6N([H])[H])C5([H])[H])C([H])([H])C([H])([H])C43[H])c([H])c([H])c2C1([H])[H]

$$$$
23:0:0
     RDKit          3D

103109  0  0  1  0  0  0  0  0999 V2000
  -20.0180  -29.5410   19.1370 C   0  0  0  0  0  2  0  0  0  0  0  0
  -20.2140  -28.6180   17.9950 C   0  0  0  0  0  2  0  0  0  0  0  0
  -21.9740  -23.3720   21.4210 C   0  0  0  0  0  1  0  0  0  0  0  0
  -20.0840  -28.6310   20.3840 C   0  0  0  0  0  2  0  0  0  0  0  0
  -19.9500  -27.3060   18.7130 C   0  0  0  0  0  2  0  0  0  0  0  0
  -20.5000  -24.6600   21.8090 C   0  0  0  0  0  1  0  0  0  0  0  0
  -23.9110  -24.7090   19.4180 C   0  0  0  0  0  2  0  0  0  0  0  0
  -22.4590  -27.2260   19.3490 C   0  0  0  0  0  2  0  0  0  0  0  0
  -23.6720  -23.4710   20.5300 C   0  0  0  0  0  3  0  0  0  0  0  0
  -24.0910  -26.3810   19.5280 C   0  0  0  0  0  3  0  0  0  0  0  0
  -20.7140  -27.0910   20.1880 C   0  0  0  0  0  3  0  0  0  0  0  0
  -24.6670  -22.0830   19.7760 C   0  0  0  0  0  2  0  0  0  0  0  0
  -26.2930  -21.5740   19.8470 N   0  0  0  0  0  4  0  0  0  0  0  0
  -26.2780  -20.8290   20.5230 H   0  0  0  0  0  0  0  0  0  0  0  0
  -26.7640  -22.3290   20.3170 H   0  0  0  0  0  0  0  0  0  0  0  0
  -27.4290  -21.0820   18.6650 C   0  0  0  0  0  2  0  0  0  0  0  0
  -28.7300  -19.7460   18.5440 C   0  0  0  0  0  3  0  0  0  0  0  0
  -30.5100  -19.6360   17.9720 C   0  0  0  0  0  2  0  0  0  0  0  0
  -32.9030  -17.8970   17.0080 C   0  0  0  0  0  0  0  0  0  0  0  0
  -34.8960  -17.5390   15.3190 C   0  0  0  0  0  2  0  0  0  0  0  0
  -35.2880  -18.9040   14.6710 C   0  0  0  0  0  2  0  0  0  0  0  0
  -34.2640  -19.3360   13.6000 C   0  0  0  0  0  2  0  0  0  0  0  0
  -32.8180  -19.0660   14.0800 C   0  0  0  0  0  3  0  0  0  0  0  0
  -32.6480  -17.6200   14.5490 C   0  0  0  0  0  2  0  0  0  0  0  0
  -33.4410  -17.5660   15.7480 N   0  0  0  0  0  0  0  0  0  0  0  0
  -33.7530  -17.6810   17.9090 O   0  0  0  0  0  0  0  0  0  0  0  0
  -31.5190  -18.5340   17.1190 N   0  0  0  0  0  0  0  0  0  0  0  0
  -31.0930  -18.3730   16.2160 H   0  0  0  0  0  0  0  0  0  0  0  0
  -30.6090  -20.0250   13.3070 C   0  0  0  0  0  0  0  0  0  0  0  0
  -30.0210  -20.0720   12.0800 C   0  0  0  0  0  0  0  0  0  0  0  0
  -30.9080  -19.3900   11.1880 C   0  0  0  0  0  0  0  0  0  0  0  0
  -31.8050  -19.3630   13.1100 N   0  0  0  0  0  0  0  0  0  0  0  0
  -31.9510  -18.9130   11.8460 N   0  0  0  0  0  0  0  0  0  0  0  0
  -30.8610  -19.2240    9.7360 C   0  0  0  0  0  0  0  0  0  0  0  0
  -30.9600  -17.9500    9.1330 C   0  0  0  0  0  3  0  0  0  0  0  0
  -30.8980  -17.8230    7.7300 C   0  0  0  0  0  3  0  0  0  0  0  0
  -30.7330  -18.9720    6.9200 C   0  0  0  0  0  0  0  0  0  0  0  0
  -30.6620  -20.2380    7.5270 C   0  0  0  0  0  3  0  0  0  0  0  0
  -30.7300  -20.3650    8.9230 C   0  0  0  0  0  3  0  0  0  0  0  0
  -30.6830  -18.9460    5.5480 O   0  0  0  0  0  0  0  0  0  0  0  0
  -30.2410  -17.8410    4.8670 C   0  0  0  0  0  0  0  0  0  0  0  0
  -28.9510  -17.3040    5.0730 C   0  0  0  0  0  3  0  0  0  0  0  0
  -28.5110  -16.2120    4.2980 C   0  0  0  0  0  3  0  0  0  0  0  0
  -29.3550  -15.6610    3.3150 C   0  0  0  0  0  0  0  0  0  0  0  0
  -30.6380  -16.1970    3.1050 C   0  0  0  0  0  3  0  0  0  0  0  0
  -31.0780  -17.2880    3.8770 C   0  0  0  0  0  0  0  0  0  0  0  0
  -32.3050  -17.8150    3.6570 F   0  0  0  0  0  0  0  0  0  0  0  0
  -28.9310  -14.6170    2.5650 F   0  0  0  0  0  0  0  0  0  0  0  0
  -28.7600  -20.8010   11.7370 C   0  0  0  0  0  0  0  0  0  0  0  0
  -28.0250  -20.3150   10.7430 N   0  0  0  0  0  0  0  0  0  0  0  0
  -28.3940  -21.7740   12.3930 O   0  0  0  0  0  0  0  0  0  0  0  0
  -28.3300  -19.5100   10.2180 H   0  0  0  0  0  0  0  0  0  0  0  0
  -27.1510  -20.7590   10.5010 H   0  0  0  0  0  0  0  0  0  0  0  0
  -30.2360  -20.5130   14.5620 N   0  0  0  0  0  0  0  0  0  0  0  0
  -29.7030  -21.3650   14.4160 H   0  0  0  0  0  0  0  0  0  0  0  0
  -31.0390  -20.7200   15.1470 H   0  0  0  0  0  0  0  0  0  0  0  0
  -27.9850  -18.4980   18.0140 C   0  0  0  0  0  2  0  0  0  0  0  0
  -27.6370  -18.5700   16.5790 N   0  0  0  0  0  4  0  0  0  0  0  0
  -26.9610  -19.2860   16.3820 H   0  0  0  0  0  0  0  0  0  0  0  0
  -27.2250  -17.6950   16.3020 H   0  0  0  0  0  0  0  0  0  0  0  0
  -28.4500  -18.7310   15.9920 H   0  0  0  0  0  0  0  0  0  0  0  0
  -25.6940  -26.5260   20.3090 C   0  0  0  0  0  2  0  0  0  0  0  0
  -27.1970  -26.9790   20.0000 O   0  0  0  0  0  0  0  0  0  0  0  0
  -24.1690  -31.6930   23.4110 C   0  0  0  0  0  0  0  0  0  0  0  0
  -27.3090  -28.2630   19.6190 C   0  0  0  0  0  3  0  0  0  0  0  0
  -23.3210  -30.5540   21.4420 C   0  0  0  0  0  3  0  0  0  0  0  0
  -25.0120  -29.7280   19.7120 C   0  0  0  0  0  0  0  0  0  0  0  0
  -25.7850  -31.1780   21.5840 C   0  0  0  0  0  2  0  0  0  0  0  0
  -26.0370  -30.0450   20.6080 C   0  0  0  0  0  0  0  0  0  0  0  0
  -27.2240  -29.2850   20.5920 C   0  0  0  0  0  2  0  0  0  0  0  0
  -26.5090  -28.2670   18.4930 C   0  0  0  0  0  3  0  0  0  0  0  0
  -25.2670  -28.8890   18.6140 C   0  0  0  0  0  3  0  0  0  0  0  0
  -23.6900  -30.4110   19.9470 C   0  0  0  0  0  2  0  0  0  0  0  0
  -24.4340  -31.1770   22.1870 N   0  0  0  0  0  0  0  0  0  0  0  0
  -23.0200  -31.7030   23.8770 O   0  0  0  0  0  0  0  0  0  0  0  0
  -22.9630  -29.2310   22.1500 C   0  0  0  0  0  0  0  0  0  0  0  0
  -21.6950  -28.9300   22.2570 N   0  0  0  0  0  0  0  0  0  0  0  0
  -23.8000  -28.5230   22.6980 O   0  0  0  0  0  0  0  0  0  0  0  0
  -21.0220  -29.6000   21.9150 H   0  0  0  0  0  0  0  0  0  0  0  0
  -18.5650  -26.8720   21.3530 C   0  0  0  0  0  0  0  0  0  0  0  0
  -21.1920  -27.6060   22.4580 C   0  0  0  0  0  3  0  0  0  0  0  0
  -22.2560  -26.3520   21.5510 C   0  0  0  0  0  1  0  0  0  0  0  0
  -21.0220  -25.1050   19.9870 C   0  0  0  0  0  1  0  0  0  0  0  0
  -19.0770  -25.5750   20.2120 C   0  0  0  0  0  1  0  0  0  0  0  0
  -19.4750  -27.7010   22.2850 C   0  0  0  0  0  0  0  0  0  0  0  0
  -18.8820  -28.7730   23.0390 C   0  0  0  0  0  3  0  0  0  0  0  0
  -17.5060  -29.0740   23.0330 C   0  0  0  0  0  3  0  0  0  0  0  0
  -16.6480  -28.2720   22.2680 C   0  0  0  0  0  3  0  0  0  0  0  0
  -17.1690  -27.2180   21.4620 C   0  0  0  0  0  3  0  0  0  0  0  0
  -25.3040  -32.3140   24.2610 C   0  0  0  0  0  3  0  0  0  0  0  0
  -24.7920  -33.5890   24.7720 N   0  0  0  0  0  0  0  0  0  0  0  0
  -25.0410  -34.7790   24.2120 C   0  0  0  0  0  0  0  0  0  0  0  0
  -25.8090  -34.9220   23.2570 O   0  0  0  0  0  0  0  0  0  0  0  0
  -24.1250  -33.5420   25.5290 H   0  0  0  0  0  0  0  0  0  0  0  0
  -23.1540  -36.4130   23.9160 C   0  0  0  0  0  1  0  0  0  0  0  0
  -24.3310  -36.0040   24.8150 C   0  0  0  0  0  3  0  0  0  0  0  0
  -26.2370  -36.9300   26.0550 C   0  0  0  0  0  1  0  0  0  0  0  0
  -25.2310  -37.1580   25.0200 N   0  0  0  0  0  0  0  0  0  0  0  0
  -24.6990  -37.9860   25.2750 H   0  0  0  0  0  0  0  0  0  0  0  0
  -25.7750  -31.3770   25.4360 C   0  0  1  0  0  0  0  0  0  0  0  0
  -24.6190  -30.8420   26.3120 C   0  0  0  0  0  1  0  0  0  0  0  0
  -26.5560  -30.1520   24.9000 C   0  0  0  0  0  1  0  0  0  0  0  0
  -26.7530  -32.1540   26.3460 C   0  0  0  0  0  1  0  0  0  0  0  0
  1  4  1  0
  2  5  1  0
  2  1  1  0
  5 11  1  0
  7 10  1  0
  7  9  1  0
  8 11  1  0
  9  3  1  0
 10  8  1  0
 10 62  1  0
 11  4  1  0
 12 13  1  0
 12  9  1  0
 13 15  1  0
 13 14  1  0
 16 13  1  0
 17 18  1  0
 17 16  1  0
 19 27  1  0
 19 26  2  0
 20 25  1  0
 21 20  1  0
 22 23  1  0
 22 21  1  0
 23 32  1  0
 23 24  1  0
 24 25  1  0
 25 19  1  0
 27 18  1  0
 28 27  1  0
 29 54  1  0
 30 29  2  0
 31 33  2  0
 31 30  1  0
 32 29  1  0
 33 32  1  0
 34 31  1  0
 35 34  1  0
 36 35  2  0
 37 38  2  0
 37 36  1  0
 38 39  1  0
 39 34  2  0
 40 37  1  0
 41 42  1  0
 41 40  1  0
 43 42  2  0
 44 43  1  0
 45 44  2  0
 45 46  1  0
 46 41  2  0
 47 46  1  0
 48 44  1  0
 49 30  1  0
 49 51  2  0
 50 49  1  0
 52 50  1  0
 53 50  1  0
 54 56  1  0
 55 54  1  0
 57 17  1  0
 58 57  1  0
 59 58  1  0
 60 58  1  0
 61 58  1  0
 63 62  1  0
 64 75  2  0
 65 63  1  0
 65 70  1  0
 66 76  1  0
 66 74  1  0
 67 73  1  0
 67 69  2  0
 68 74  1  0
 69 68  1  0
 70 69  1  0
 71 72  2  0
 71 65  1  0
 72 67  1  0
 73 66  1  0
 74 64  1  0
 76 77  1  0
 76 78  2  0
 77 81  1  0
 79 77  1  0
 80 89  2  0
 80 85  1  0
 81 82  1  0
 83  6  1  0
 84 80  1  0
 85 81  1  0
 85 86  2  0
 87 86  1  0
 88 87  2  0
 89 88  1  0
 90 64  1  0
 90 91  1  0
 90100  1  0
 91 94  1  0
 92 91  1  0
 92 96  1  0
 93 92  2  0
 96 95  1  0
 96 98  1  0
 98 99  1  0
 98 97  1  0
100101  1  1
100103  1  0
102100  1  0
M  ISO  4  19 100  27 100  62 101  63 101
M  END
>  <TORSDO>  (21) 
F 24

>  <SCORE>  (21) 
4.376

>  <name>  (21) 
23

>  <ligand_id>  (21) 
23

>  <original_smiles>  (21) 
[H]c1c([H])c([H])c2c(c1[H])C([H])([H])C([H])([H])C([H])([H])C2([H])N([H])C(=O)C1([H])N(C(=O)C([H])(N([H])C(=O)C([H])(N([H])C([H])([H])[H])C([H])([H])[H])C(C([H])([H])[H])(C([H])([H])[H])C([H])([H])[H])C([H])([H])c2c([H])c(OC([H])([H])C3([H])C([H])([H])C([H])(C([H])([H])[N+]([H])([H])C([H])([H])C([H])(C([H])([H])N([H])C(=O)N4C([H])([H])C([H])([H])C([H])([H])C([H])(n5nc(-c6c([H])c([H])c(Oc7c([H])c([H])c(F)c([H])c7F)c([H])c6[H])c(C(=O)N([H])[H])c5N([H])[H])C4([H])[H])C([H])([H])[N+]([H])([H])[H])C([H])([H])C([H])([H])C4(C([H])([H])C([H])([H])C([H])([H])C4([H])[H])C3([H])[H])c([H])c([H])c2C1([H])[H]

>  <smiles>  (21) 
[H]c1c([H])c([H])c2c(c1[H])C([H])([H])C([H])([H])C([H])([H])C2([H])N([H])C(=O)C1([H])N(C(=O)C([H])(N([H])C(=O)C([H])(N([H])C([H])([H])[H])C([H])([H])[H])C(C([H])([H])[H])(C([H])([H])[H])C([H])([H])[H])C([H])([H])c2c([H])c(OC([H])([H])C3([H])C([H])([H])C([H])(C([H])([H])[N+]([H])([H])C([H])([H])C([H])(C([H])([H])N([H])C(=O)N4C([H])([H])C([H])([H])C([H])([H])C([H])(n5nc(-c6c([H])c([H])c(Oc7c([H])c([H])c(F)c([H])c7F)c([H])c6[H])c(C(=O)N([H])[H])c5N([H])[H])C4([H])[H])C([H])([H])[N+]([H])([H])[H])C([H])([H])C([H])([H])C4(C([H])([H])C([H])([H])C([H])([H])C4([H])[H])C3([H])[H])c([H])c([H])c2C1([H])[H]

$$$$
24:0:0
     RDKit          3D

 97106  0  0  1  0  0  0  0  0999 V2000
  -29.8190  -20.4540   19.8780 C   0  0  0  0  0  2  0  0  0  0  0  0
  -30.8310  -19.3640   20.0340 N   0  0  0  0  0  4  0  0  0  0  0  0
  -31.4310  -19.4020   19.2260 H   0  0  0  0  0  0  0  0  0  0  0  0
  -31.4080  -19.5640   20.8350 H   0  0  0  0  0  0  0  0  0  0  0  0
  -32.3970  -16.9350   21.2280 C   0  0  0  0  0  2  0  0  0  0  0  0
  -31.7290  -17.3300   22.5670 C   0  0  0  0  0  2  0  0  0  0  0  0
  -29.4710  -17.7450   21.4500 C   0  0  0  0  0  2  0  0  0  0  0  0
  -31.4270  -16.8840   20.0190 C   0  0  0  0  0  3  0  0  0  0  0  0
  -30.2990  -17.9630   20.1450 C   0  0  0  0  0  3  0  0  0  0  0  0
  -30.2220  -17.0400   22.6000 C   0  0  0  0  0  3  0  0  0  0  0  0
  -30.0270  -15.7220   22.5320 F   0  0  0  0  0  0  0  0  0  0  0  0
  -31.4470  -14.4300   19.3660 C   0  0  0  0  0  0  0  0  0  0  0  0
  -30.9920  -12.1470   18.5300 C   0  0  0  0  0  2  0  0  0  0  0  0
  -29.9630  -12.2270   17.3850 C   0  0  0  0  0  2  0  0  0  0  0  0
  -28.5230  -12.1950   17.9400 C   0  0  0  0  0  2  0  0  0  0  0  0
  -28.3110  -13.2050   19.1020 C   0  0  0  0  0  3  0  0  0  0  0  0
  -29.4480  -13.0950   20.1410 C   0  0  0  0  0  2  0  0  0  0  0  0
  -30.7280  -13.2750   19.4370 N   0  0  0  0  0  0  0  0  0  0  0  0
  -32.5100  -14.5160   18.7460 O   0  0  0  0  0  0  0  0  0  0  0  0
  -30.8810  -15.5100   19.9350 N   0  0  0  0  0  0  0  0  0  0  0  0
  -30.0090  -15.3570   20.4240 H   0  0  0  0  0  0  0  0  0  0  0  0
  -26.0790  -14.0210   20.0890 C   0  0  0  0  0  0  0  0  0  0  0  0
  -24.9810  -13.3460   20.5530 C   0  0  0  0  0  0  0  0  0  0  0  0
  -25.2960  -11.9580   20.4380 C   0  0  0  0  0  0  0  0  0  0  0  0
  -26.9950  -13.0480   19.7210 N   0  0  0  0  0  0  0  0  0  0  0  0
  -26.5330  -11.7980   19.9840 N   0  0  0  0  0  0  0  0  0  0  0  0
  -24.4680  -10.7690   20.6830 C   0  0  0  0  0  0  0  0  0  0  0  0
  -24.8450   -9.7900   21.6280 C   0  0  0  0  0  3  0  0  0  0  0  0
  -24.0250   -8.6650   21.8550 C   0  0  0  0  0  3  0  0  0  0  0  0
  -22.8140   -8.5120   21.1380 C   0  0  0  0  0  0  0  0  0  0  0  0
  -22.4570   -9.4780   20.1820 C   0  0  0  0  0  3  0  0  0  0  0  0
  -23.2770  -10.5940   19.9520 C   0  0  0  0  0  3  0  0  0  0  0  0
  -21.9690   -7.4370   21.2700 O   0  0  0  0  0  0  0  0  0  0  0  0
  -21.8010   -6.8000   22.4730 C   0  0  0  0  0  0  0  0  0  0  0  0
  -21.3840   -7.4920   23.6300 C   0  0  0  0  0  3  0  0  0  0  0  0
  -21.1570   -6.7870   24.8290 C   0  0  0  0  0  3  0  0  0  0  0  0
  -21.3360   -5.3910   24.8690 C   0  0  0  0  0  0  0  0  0  0  0  0
  -21.7430   -4.6990   23.7140 C   0  0  0  0  0  3  0  0  0  0  0  0
  -21.9710   -5.4020   22.5190 C   0  0  0  0  0  0  0  0  0  0  0  0
  -22.3440   -4.7270   21.4040 F   0  0  0  0  0  0  0  0  0  0  0  0
  -21.1120   -4.7100   26.0170 F   0  0  0  0  0  0  0  0  0  0  0  0
  -23.6790  -13.9500   20.9870 C   0  0  0  0  0  0  0  0  0  0  0  0
  -22.9960  -13.3180   21.9350 N   0  0  0  0  0  0  0  0  0  0  0  0
  -23.2810  -15.0140   20.5180 O   0  0  0  0  0  0  0  0  0  0  0  0
  -23.3440  -12.4660   22.3480 H   0  0  0  0  0  0  0  0  0  0  0  0
  -22.1130  -13.6970   22.2480 H   0  0  0  0  0  0  0  0  0  0  0  0
  -26.3650  -15.3710   19.9290 N   0  0  0  0  0  0  0  0  0  0  0  0
  -25.7050  -16.0980   20.1760 H   0  0  0  0  0  0  0  0  0  0  0  0
  -27.2200  -15.7260   19.5230 H   0  0  0  0  0  0  0  0  0  0  0  0
  -30.3640  -21.9090   20.0580 C   0  0  0  0  0  2  0  0  0  0  0  0
  -27.4860  -23.7400   21.9830 C   0  0  0  0  0  2  0  0  0  0  0  0
  -28.7660  -22.9200   21.7590 C   0  0  0  0  0  2  0  0  0  0  0  0
  -27.2950  -24.8620   20.9490 C   0  0  0  0  0  2  0  0  0  0  0  0
  -29.5930  -24.4430   19.9090 C   0  0  0  0  0  2  0  0  0  0  0  0
  -29.2440  -22.9670   20.2940 C   0  0  0  0  0  3  0  0  0  0  0  0
  -28.6350  -25.5210   20.5220 C   0  0  0  0  0  3  0  0  0  0  0  0
  -28.5550  -26.6830   19.6520 O   0  0  0  0  0  0  0  0  0  0  0  0
  -24.7360  -31.6260   23.1240 C   0  0  0  0  0  0  0  0  0  0  0  0
  -27.4030  -27.4410   19.7160 C   0  0  0  0  0  0  0  0  0  0  0  0
  -23.5270  -30.2970   21.4260 C   0  0  0  0  0  3  0  0  0  0  0  0
  -24.9830  -28.8920   19.8720 C   0  0  0  0  0  0  0  0  0  0  0  0
  -26.0410  -30.7250   21.2020 C   0  0  0  0  0  2  0  0  0  0  0  0
  -26.1430  -29.3990   20.4760 C   0  0  0  0  0  0  0  0  0  0  0  0
  -27.3580  -28.6790   20.4020 C   0  0  0  0  0  3  0  0  0  0  0  0
  -26.2390  -26.9750   19.0680 C   0  0  0  0  0  3  0  0  0  0  0  0
  -25.0240  -27.6770   19.1680 C   0  0  0  0  0  3  0  0  0  0  0  0
  -23.7200  -29.7130   20.0010 C   0  0  0  0  0  2  0  0  0  0  0  0
  -24.7870  -30.8930   21.9760 N   0  0  0  0  0  0  0  0  0  0  0  0
  -23.6610  -31.8400   23.7040 O   0  0  0  0  0  0  0  0  0  0  0  0
  -22.9220  -29.2030   22.3320 C   0  0  0  0  0  0  0  0  0  0  0  0
  -21.6040  -28.9780   22.2000 N   0  0  0  0  0  0  0  0  0  0  0  0
  -23.6340  -28.5640   23.1130 O   0  0  0  0  0  0  0  0  0  0  0  0
  -21.0910  -29.5450   21.5390 H   0  0  0  0  0  0  0  0  0  0  0  0
  -18.2930  -27.5990   22.6070 C   0  0  0  0  0  0  0  0  0  0  0  0
  -20.8290  -27.9720   22.9220 C   0  0  0  0  0  3  0  0  0  0  0  0
  -21.0100  -26.5700   22.2930 C   0  0  0  0  0  2  0  0  0  0  0  0
  -19.9380  -26.2320   21.2540 C   0  0  0  0  0  2  0  0  0  0  0  0
  -18.5430  -26.2870   21.8830 C   0  0  0  0  0  2  0  0  0  0  0  0
  -19.3660  -28.3980   23.0810 C   0  0  0  0  0  0  0  0  0  0  0  0
  -19.0790  -29.6250   23.7190 C   0  0  0  0  0  3  0  0  0  0  0  0
  -17.7490  -30.0550   23.8900 C   0  0  0  0  0  3  0  0  0  0  0  0
  -16.6890  -29.2530   23.4290 C   0  0  0  0  0  3  0  0  0  0  0  0
  -16.9610  -28.0270   22.7970 C   0  0  0  0  0  3  0  0  0  0  0  0
  -26.0220  -32.2500   23.7530 C   0  0  0  0  0  3  0  0  0  0  0  0
  -26.5750  -31.4260   24.9800 C   0  0  1  0  0  0  0  0  0  0  0  0
  -25.5080  -31.1180   26.0560 C   0  0  0  0  0  1  0  0  0  0  0  0
  -27.1700  -30.0780   24.5100 C   0  0  0  0  0  1  0  0  0  0  0  0
  -27.7260  -32.2070   25.6580 C   0  0  0  0  0  1  0  0  0  0  0  0
  -25.6960  -33.6260   24.1530 N   0  0  0  0  0  0  0  0  0  0  0  0
  -26.0130  -34.7180   23.4440 C   0  0  0  0  0  0  0  0  0  0  0  0
  -26.6830  -34.6730   22.4070 O   0  0  0  0  0  0  0  0  0  0  0  0
  -25.1030  -33.7370   24.9620 H   0  0  0  0  0  0  0  0  0  0  0  0
  -24.2560  -36.4960   23.1820 C   0  0  0  0  0  1  0  0  0  0  0  0
  -25.5090  -36.0760   23.9670 C   0  0  0  0  0  3  0  0  0  0  0  0
  -27.6360  -36.9520   24.8260 C   0  0  0  0  0  1  0  0  0  0  0  0
  -26.5250  -37.1480   23.8970 N   0  0  0  0  0  0  0  0  0  0  0  0
  -26.1070  -38.0540   24.0910 H   0  0  0  0  0  0  0  0  0  0  0  0
  1  2  1  0
  1 50  1  0
  2  4  1  0
  3  2  1  0
  5  6  1  0
  6 10  1  0
  7 10  1  0
  8 20  1  0
  8  9  1  0
  8  5  1  0
  9  2  1  0
  9  7  1  0
 10 11  1  0
 12 18  1  0
 12 20  1  0
 13 18  1  0
 14 15  1  0
 14 13  1  0
 16 15  1  0
 16 25  1  0
 16 17  1  0
 18 17  1  0
 19 12  2  0
 20 21  1  0
 22 23  2  0
 23 42  1  0
 24 23  1  0
 24 27  1  0
 25 26  1  0
 25 22  1  0
 26 24  2  0
 27 28  1  0
 28 29  2  0
 30 33  1  0
 30 29  1  0
 31 30  2  0
 32 31  1  0
 32 27  2  0
 33 34  1  0
 34 39  2  0
 34 35  1  0
 35 36  2  0
 36 37  1  0
 37 41  1  0
 38 37  2  0
 39 38  1  0
 40 39  1  0
 42 43  1  0
 43 46  1  0
 43 45  1  0
 44 42  2  0
 47 22  1  0
 47 48  1  0
 49 47  1  0
 52 51  1  0
 53 51  1  0
 54 55  1  0
 54 56  1  0
 55 50  1  0
 55 52  1  0
 56 57  1  0
 56 53  1  0
 57 59  1  0
 58 69  2  0
 59 64  1  0
 60 68  1  0
 60 70  1  0
 61 67  1  0
 61 63  1  0
 62 68  1  0
 63 62  1  0
 64 63  2  0
 65 66  1  0
 65 59  2  0
 66 61  2  0
 67 60  1  0
 68 58  1  0
 70 72  2  0
 71 70  1  0
 73 71  1  0
 74 83  2  0
 74 79  1  0
 75 71  1  0
 75 79  1  0
 76 75  1  0
 77 78  1  0
 77 76  1  0
 78 74  1  0
 79 80  2  0
 80 81  1  0
 82 81  2  0
 83 82  1  0
 84 58  1  0
 84 89  1  0
 84 85  1  0
 85 88  1  1
 85 86  1  0
 87 85  1  0
 89 92  1  0
 90 94  1  0
 90 89  1  0
 91 90  2  0
 94 93  1  0
 96 94  1  0
 96 97  1  0
 96 95  1  0
M  ISO  4  12 100  20 100  56 101  57 101
M  END
>  <TORSDO>  (22) 
F 20

>  <SCORE>  (22) 
-9.713

>  <name>  (22) 
24

>  <ligand_id>  (22) 
24

>  <original_smiles>  (22) 
[H]c1c([H])c([H])c2c(c1[H])C([H])([H])C([H])([H])C([H])([H])C2([H])N([H])C(=O)C1([H])N(C(=O)C([H])(N([H])C(=O)C([H])(N([H])C([H])([H])[H])C([H])([H])[H])C(C([H])([H])[H])(C([H])([H])[H])C([H])([H])[H])C([H])([H])c2c([H])c(OC3([H])C([H])([H])C([H])([H])C([H])([H])C([H])(C([H])([H])C([H])([H])[N+]([H])([H])C4([H])C([H])([H])C([H])(F)C([H])([H])C([H])([H])C4([H])N([H])C(=O)N4C([H])([H])C([H])([H])C([H])([H])C([H])(n5nc(-c6c([H])c([H])c(Oc7c([H])c([H])c(F)c([H])c7F)c([H])c6[H])c(C(=O)N([H])[H])c5N([H])[H])C4([H])[H])C3([H])[H])c([H])c([H])c2C1([H])[H]

>  <smiles>  (22) 
[H]c1c([H])c([H])c2c(c1[H])C([H])([H])C([H])([H])C([H])([H])C2([H])N([H])C(=O)C1([H])N(C(=O)C([H])(N([H])C(=O)C([H])(N([H])C([H])([H])[H])C([H])([H])[H])C(C([H])([H])[H])(C([H])([H])[H])C([H])([H])[H])C([H])([H])c2c([H])c(OC3([H])C([H])([H])C([H])([H])C([H])([H])C([H])(C([H])([H])C([H])([H])[N+]([H])([H])C4([H])C([H])([H])C([H])(F)C([H])([H])C([H])([H])C4([H])N([H])C(=O)N4C([H])([H])C([H])([H])C([H])([H])C([H])(n5nc(-c6c([H])c([H])c(Oc7c([H])c([H])c(F)c([H])c7F)c([H])c6[H])c(C(=O)N([H])[H])c5N([H])[H])C4([H])[H])C3([H])[H])c([H])c([H])c2C1([H])[H]

$$$$
25:0:0
     RDKit          3D

 92100  0  0  1  0  0  0  0  0999 V2000
  -29.4100  -19.1270   19.8450 C   0  0  0  0  0  0  0  0  0  0  0  0
  -29.6700  -20.5110   20.0820 N   0  0  0  0  0  0  0  0  0  0  0  0
  -28.2860  -18.8450   19.4300 O   0  0  0  0  0  0  0  0  0  0  0  0
  -30.6150  -20.7280   20.3710 H   0  0  0  0  0  0  0  0  0  0  0  0
  -30.7320  -15.1070   19.8540 C   0  0  0  0  0  0  0  0  0  0  0  0
  -30.5930  -12.8070   18.7710 C   0  0  0  0  0  2  0  0  0  0  0  0
  -29.5000  -12.7580   17.6740 C   0  0  0  0  0  2  0  0  0  0  0  0
  -28.0970  -12.5050   18.2670 C   0  0  0  0  0  2  0  0  0  0  0  0
  -27.8380  -13.3360   19.5530 C   0  0  0  0  0  3  0  0  0  0  0  0
  -29.0420  -13.2030   20.5100 C   0  0  0  0  0  2  0  0  0  0  0  0
  -30.1810  -13.8130   19.7990 N   0  0  0  0  0  0  0  0  0  0  0  0
  -31.8630  -15.2170   19.3660 O   0  0  0  0  0  0  0  0  0  0  0  0
  -29.1160  -16.3010   21.3930 C   0  0  0  0  0  2  0  0  0  0  0  0
  -29.9870  -16.5260   22.6520 C   0  0  0  0  0  2  0  0  0  0  0  0
  -31.4160  -18.0590   21.2380 C   0  0  0  0  0  2  0  0  0  0  0  0
  -30.4430  -17.8240   20.0540 C   0  0  0  0  0  3  0  0  0  0  0  0
  -29.9980  -16.3050   20.2150 N   0  0  0  0  0  0  0  0  0  0  0  0
  -30.7780  -17.7820   22.5560 N   0  0  0  0  0  4  0  0  0  0  0  0
  -31.4920  -17.7710   23.2670 H   0  0  0  0  0  0  0  0  0  0  0  0
  -30.1660  -18.5500   22.7880 H   0  0  0  0  0  0  0  0  0  0  0  0
  -25.5660  -13.8480   20.6160 C   0  0  0  0  0  0  0  0  0  0  0  0
  -24.5490  -13.0430   21.0470 C   0  0  0  0  0  0  0  0  0  0  0  0
  -24.9920  -11.7010   20.8410 C   0  0  0  0  0  0  0  0  0  0  0  0
  -26.5680  -12.9960   20.1800 N   0  0  0  0  0  0  0  0  0  0  0  0
  -26.2360  -11.6930   20.3730 N   0  0  0  0  0  0  0  0  0  0  0  0
  -24.2820  -10.4270   21.0090 C   0  0  0  0  0  0  0  0  0  0  0  0
  -24.7350   -9.4460   21.9180 C   0  0  0  0  0  3  0  0  0  0  0  0
  -24.0240   -8.2360   22.0760 C   0  0  0  0  0  3  0  0  0  0  0  0
  -22.8480   -8.0000   21.3280 C   0  0  0  0  0  0  0  0  0  0  0  0
  -22.4140   -8.9710   20.4080 C   0  0  0  0  0  3  0  0  0  0  0  0
  -23.1240  -10.1720   20.2470 C   0  0  0  0  0  3  0  0  0  0  0  0
  -22.1060   -6.8450   21.3980 O   0  0  0  0  0  0  0  0  0  0  0  0
  -21.9430   -6.1660   22.5790 C   0  0  0  0  0  0  0  0  0  0  0  0
  -21.3590   -6.7730   23.7120 C   0  0  0  0  0  3  0  0  0  0  0  0
  -21.1480   -6.0200   24.8850 C   0  0  0  0  0  3  0  0  0  0  0  0
  -21.5100   -4.6600   24.9230 C   0  0  0  0  0  0  0  0  0  0  0  0
  -22.0870   -4.0530   23.7940 C   0  0  0  0  0  3  0  0  0  0  0  0
  -22.3000   -4.8040   22.6250 C   0  0  0  0  0  0  0  0  0  0  0  0
  -22.8370   -4.2090   21.5320 F   0  0  0  0  0  0  0  0  0  0  0  0
  -21.3000   -3.9330   26.0450 F   0  0  0  0  0  0  0  0  0  0  0  0
  -23.2000  -13.4950   21.5290 C   0  0  0  0  0  0  0  0  0  0  0  0
  -22.5920  -12.7430   22.4400 N   0  0  0  0  0  0  0  0  0  0  0  0
  -22.7010  -14.5480   21.1360 O   0  0  0  0  0  0  0  0  0  0  0  0
  -23.0130  -11.8920   22.7800 H   0  0  0  0  0  0  0  0  0  0  0  0
  -21.6930  -13.0250   22.8040 H   0  0  0  0  0  0  0  0  0  0  0  0
  -25.7090  -15.2300   20.5360 N   0  0  0  0  0  0  0  0  0  0  0  0
  -24.9510  -15.8520   20.7910 H   0  0  0  0  0  0  0  0  0  0  0  0
  -26.4880  -15.7070   20.1020 H   0  0  0  0  0  0  0  0  0  0  0  0
  -28.7250  -21.7820   19.9440 C   0  0  0  0  0  2  0  0  0  0  0  0
  -29.1120  -23.4030   20.2550 C   0  0  0  0  0  3  0  0  0  0  0  0
  -28.0660  -24.7180   20.0250 C   0  0  0  0  0  3  0  0  0  0  0  0
  -28.3110  -26.2430   20.2600 O   0  0  0  0  0  0  0  0  0  0  0  0
  -24.6610  -31.9140   23.2560 C   0  0  0  0  0  0  0  0  0  0  0  0
  -27.2460  -27.2190   20.1980 C   0  0  0  0  0  0  0  0  0  0  0  0
  -23.4600  -30.5240   21.6120 C   0  0  0  0  0  3  0  0  0  0  0  0
  -24.9070  -28.9560   20.1790 C   0  0  0  0  0  0  0  0  0  0  0  0
  -26.0130  -30.7930   21.4460 C   0  0  0  0  0  2  0  0  0  0  0  0
  -26.0880  -29.4040   20.7860 C   0  0  0  0  0  0  0  0  0  0  0  0
  -27.2570  -28.5530   20.7750 C   0  0  0  0  0  3  0  0  0  0  0  0
  -26.0370  -26.8710   19.5550 C   0  0  0  0  0  3  0  0  0  0  0  0
  -24.8960  -27.7020   19.5480 C   0  0  0  0  0  3  0  0  0  0  0  0
  -23.6790  -29.8490   20.2310 C   0  0  0  0  0  2  0  0  0  0  0  0
  -24.7310  -31.0990   22.1590 N   0  0  0  0  0  0  0  0  0  0  0  0
  -23.5750  -32.1980   23.7850 O   0  0  0  0  0  0  0  0  0  0  0  0
  -22.7800  -29.5160   22.5720 C   0  0  0  0  0  0  0  0  0  0  0  0
  -21.4540  -29.3330   22.4320 N   0  0  0  0  0  0  0  0  0  0  0  0
  -23.4460  -28.8980   23.4050 O   0  0  0  0  0  0  0  0  0  0  0  0
  -20.9720  -29.8820   21.7340 H   0  0  0  0  0  0  0  0  0  0  0  0
  -18.0740  -28.1210   22.9160 C   0  0  0  0  0  0  0  0  0  0  0  0
  -20.6320  -28.3910   23.1950 C   0  0  0  0  0  3  0  0  0  0  0  0
  -20.7410  -26.9620   22.6170 C   0  0  0  0  0  2  0  0  0  0  0  0
  -19.6450  -26.6370   21.5960 C   0  0  0  0  0  2  0  0  0  0  0  0
  -18.2600  -26.7750   22.2350 C   0  0  0  0  0  2  0  0  0  0  0  0
  -19.1880  -28.8870   23.3510 C   0  0  0  0  0  0  0  0  0  0  0  0
  -18.9610  -30.1450   23.9500 C   0  0  0  0  0  3  0  0  0  0  0  0
  -17.6540  -30.6400   24.1150 C   0  0  0  0  0  3  0  0  0  0  0  0
  -16.5540  -29.8700   23.6960 C   0  0  0  0  0  3  0  0  0  0  0  0
  -16.7650  -28.6130   23.1010 C   0  0  0  0  0  3  0  0  0  0  0  0
  -25.9400  -32.5460   23.8860 C   0  0  0  0  0  3  0  0  0  0  0  0
  -26.4460  -31.7740   25.1680 C   0  0  1  0  0  0  0  0  0  0  0  0
  -25.3440  -31.5310   26.2250 C   0  0  0  0  0  1  0  0  0  0  0  0
  -27.0350  -30.3980   24.7830 C   0  0  0  0  0  1  0  0  0  0  0  0
  -27.5890  -32.5690   25.8410 C   0  0  0  0  0  1  0  0  0  0  0  0
  -25.6310  -33.9450   24.2210 N   0  0  0  0  0  0  0  0  0  0  0  0
  -25.9370  -35.0010   23.4540 C   0  0  0  0  0  0  0  0  0  0  0  0
  -26.5770  -34.8980   22.4040 O   0  0  0  0  0  0  0  0  0  0  0  0
  -25.0620  -34.0980   25.0420 H   0  0  0  0  0  0  0  0  0  0  0  0
  -24.1810  -36.7810   23.1710 C   0  0  0  0  0  1  0  0  0  0  0  0
  -25.4610  -36.3890   23.9270 C   0  0  0  0  0  3  0  0  0  0  0  0
  -27.6200  -37.3010   24.6600 C   0  0  0  0  0  1  0  0  0  0  0  0
  -26.4790  -37.4490   23.7610 N   0  0  0  0  0  0  0  0  0  0  0  0
  -26.0720  -38.3680   23.9140 H   0  0  0  0  0  0  0  0  0  0  0  0
  1  2  1  0
  2  4  1  0
  3  1  2  0
  5 17  1  0
  6 11  1  0
  7  8  1  0
  7  6  1  0
  9  8  1  0
  9 24  1  0
  9 10  1  0
 11  5  1  0
 11 10  1  0
 12  5  2  0
 13 14  1  0
 15 18  1  0
 16  1  1  0
 16 17  1  0
 16 15  1  0
 17 13  1  0
 18 14  1  0
 18 20  1  0
 18 19  1  0
 21 22  2  0
 22 41  1  0
 23 26  1  0
 23 22  1  0
 24 25  1  0
 24 21  1  0
 25 23  2  0
 26 27  1  0
 27 28  2  0
 29 32  1  0
 29 28  1  0
 30 29  2  0
 31 30  1  0
 31 26  2  0
 32 33  1  0
 33 38  2  0
 33 34  1  0
 34 35  2  0
 35 36  1  0
 36 40  1  0
 37 36  2  0
 38 37  1  0
 39 38  1  0
 41 42  1  0
 42 44  1  0
 42 45  1  0
 43 41  2  0
 46 21  1  0
 46 47  1  0
 48 46  1  0
 49  2  1  0
 49 50  1  0
 51 50  2  0
 51 52  1  0
 53 64  2  0
 54 52  1  0
 54 59  1  0
 55 63  1  0
 55 65  1  0
 56 62  1  0
 56 58  1  0
 57 63  1  0
 58 57  1  0
 59 58  2  0
 60 54  2  0
 61 60  1  0
 61 56  2  0
 62 55  1  0
 63 53  1  0
 65 67  2  0
 66 65  1  0
 68 66  1  0
 69 78  2  0
 69 74  1  0
 70 66  1  0
 70 74  1  0
 71 70  1  0
 72 73  1  0
 72 71  1  0
 73 69  1  0
 74 75  2  0
 75 76  1  0
 77 76  2  0
 78 77  1  0
 79 53  1  0
 79 84  1  0
 79 80  1  0
 80 83  1  1
 80 81  1  0
 82 80  1  0
 84 87  1  0
 85 89  1  0
 85 84  1  0
 86 85  2  0
 89 88  1  0
 91 92  1  0
 91 89  1  0
 91 90  1  0
M  ISO  4   5 100  17 100  51 101  52 101
M  END
>  <TORSDO>  (23) 
F 19

>  <SCORE>  (23) 
-13.754

>  <name>  (23) 
25

>  <ligand_id>  (23) 
25

>  <original_smiles>  (23) 
[H]c1c([H])c([H])c2c(c1[H])C([H])([H])C([H])([H])C([H])([H])C2([H])N([H])C(=O)C1([H])N(C(=O)C([H])(N([H])C(=O)C([H])(N([H])C([H])([H])[H])C([H])([H])[H])C(C([H])([H])[H])(C([H])([H])[H])C([H])([H])[H])C([H])([H])c2c([H])c(OC([H])([H])C([H])([H])C([H])([H])N([H])C(=O)C3([H])N(C(=O)N4C([H])([H])C([H])([H])C([H])([H])C([H])(n5nc(-c6c([H])c([H])c(Oc7c([H])c([H])c(F)c([H])c7F)c([H])c6[H])c(C(=O)N([H])[H])c5N([H])[H])C4([H])[H])C([H])([H])C([H])([H])[N+]([H])([H])C3([H])[H])c([H])c([H])c2C1([H])[H]

>  <smiles>  (23) 
[H]c1c([H])c([H])c2c(c1[H])C([H])([H])C([H])([H])C([H])([H])C2([H])N([H])C(=O)C1([H])N(C(=O)C([H])(N([H])C(=O)C([H])(N([H])C([H])([H])[H])C([H])([H])[H])C(C([H])([H])[H])(C([H])([H])[H])C([H])([H])[H])C([H])([H])c2c([H])c(OC([H])([H])C([H])([H])C([H])([H])N([H])C(=O)C3([H])N(C(=O)N4C([H])([H])C([H])([H])C([H])([H])C([H])(n5nc(-c6c([H])c([H])c(Oc7c([H])c([H])c(F)c([H])c7F)c([H])c6[H])c(C(=O)N([H])[H])c5N([H])[H])C4([H])[H])C([H])([H])C([H])([H])[N+]([H])([H])C3([H])[H])c([H])c([H])c2C1([H])[H]

$$$$
26:0:0
     RDKit          3D

 93101  0  0  1  0  0  0  0  0999 V2000
  -29.7830  -21.1710   20.5410 N   0  0  0  0  0  0  0  0  0  0  0  0
  -29.8380  -21.6660   23.0340 C   0  0  0  0  0  2  0  0  0  0  0  0
  -30.9130  -21.5450   24.1200 C   0  0  0  0  0  2  0  0  0  0  0  0
  -31.7720  -20.5780   22.0970 C   0  0  0  0  0  2  0  0  0  0  0  0
  -30.6150  -21.5190   21.7160 C   0  0  0  0  0  3  0  0  0  0  0  0
  -32.0790  -20.8870   23.5050 N   0  0  0  0  0  4  0  0  0  0  0  0
  -32.3320  -20.0540   24.0120 H   0  0  0  0  0  0  0  0  0  0  0  0
  -32.8580  -21.5240   23.5430 H   0  0  0  0  0  0  0  0  0  0  0  0
  -29.2020  -19.7670   20.5850 C   0  0  0  0  0  2  0  0  0  0  0  0
  -30.0110  -18.4610   20.0920 C   0  0  0  0  0  2  0  0  0  0  0  0
  -30.3020  -17.2130   21.0570 C   0  0  0  0  0  2  0  0  0  0  0  0
  -30.6830  -14.7070   20.3910 C   0  0  0  0  0  0  0  0  0  0  0  0
  -30.4380  -12.4770   19.3090 C   0  0  0  0  0  2  0  0  0  0  0  0
  -29.4900  -12.6130   18.0990 C   0  0  0  0  0  2  0  0  0  0  0  0
  -28.0180  -12.4640   18.5350 C   0  0  0  0  0  2  0  0  0  0  0  0
  -27.6670  -13.3170   19.7870 C   0  0  0  0  0  3  0  0  0  0  0  0
  -28.7390  -13.1650   20.8910 C   0  0  0  0  0  2  0  0  0  0  0  0
  -30.0370  -13.5020   20.2910 N   0  0  0  0  0  0  0  0  0  0  0  0
  -31.8670  -14.8290   20.0720 O   0  0  0  0  0  0  0  0  0  0  0  0
  -29.9100  -15.8040   20.6750 N   0  0  0  0  0  0  0  0  0  0  0  0
  -28.9350  -15.5820   20.8070 H   0  0  0  0  0  0  0  0  0  0  0  0
  -25.2760  -13.9180   20.5150 C   0  0  0  0  0  0  0  0  0  0  0  0
  -24.2090  -13.1460   20.8860 C   0  0  0  0  0  0  0  0  0  0  0  0
  -24.6700  -11.7930   20.8520 C   0  0  0  0  0  0  0  0  0  0  0  0
  -26.3210  -13.0360   20.2800 N   0  0  0  0  0  0  0  0  0  0  0  0
  -25.9600  -11.7540   20.5450 N   0  0  0  0  0  0  0  0  0  0  0  0
  -23.9410  -10.5320   21.0430 C   0  0  0  0  0  0  0  0  0  0  0  0
  -24.3740   -9.5630   21.9760 C   0  0  0  0  0  3  0  0  0  0  0  0
  -23.6430   -8.3680   22.1540 C   0  0  0  0  0  3  0  0  0  0  0  0
  -22.4670   -8.1330   21.4030 C   0  0  0  0  0  0  0  0  0  0  0  0
  -22.0570   -9.0920   20.4590 C   0  0  0  0  0  3  0  0  0  0  0  0
  -22.7850  -10.2790   20.2780 C   0  0  0  0  0  3  0  0  0  0  0  0
  -21.7110   -6.9890   21.4900 O   0  0  0  0  0  0  0  0  0  0  0  0
  -21.6630   -6.2440   22.6400 C   0  0  0  0  0  0  0  0  0  0  0  0
  -21.2320   -6.7940   23.8680 C   0  0  0  0  0  3  0  0  0  0  0  0
  -21.1330   -5.9760   25.0100 C   0  0  0  0  0  3  0  0  0  0  0  0
  -21.4510   -4.6080   24.9270 C   0  0  0  0  0  0  0  0  0  0  0  0
  -21.8730   -4.0560   23.7050 C   0  0  0  0  0  3  0  0  0  0  0  0
  -21.9760   -4.8720   22.5650 C   0  0  0  0  0  0  0  0  0  0  0  0
  -22.3620   -4.3300   21.3830 F   0  0  0  0  0  0  0  0  0  0  0  0
  -21.3500   -3.8200   26.0220 F   0  0  0  0  0  0  0  0  0  0  0  0
  -22.8120  -13.6240   21.1570 C   0  0  0  0  0  0  0  0  0  0  0  0
  -22.0840  -12.9310   22.0240 N   0  0  0  0  0  0  0  0  0  0  0  0
  -22.3750  -14.6490   20.6340 O   0  0  0  0  0  0  0  0  0  0  0  0
  -22.4480  -12.1030   22.4710 H   0  0  0  0  0  0  0  0  0  0  0  0
  -21.1450  -13.2340   22.2440 H   0  0  0  0  0  0  0  0  0  0  0  0
  -25.4390  -15.2890   20.3340 N   0  0  0  0  0  0  0  0  0  0  0  0
  -24.6680  -15.9380   20.4520 H   0  0  0  0  0  0  0  0  0  0  0  0
  -26.2780  -15.7340   19.9870 H   0  0  0  0  0  0  0  0  0  0  0  0
  -28.7630  -22.2800   20.3180 C   0  0  0  0  0  2  0  0  0  0  0  0
  -29.1800  -23.8540   20.3440 C   0  0  0  0  0  3  0  0  0  0  0  0
  -28.0570  -24.9720   20.0580 C   0  0  0  0  0  3  0  0  0  0  0  0
  -28.3100  -26.4460   20.2210 O   0  0  0  0  0  0  0  0  0  0  0  0
  -24.6300  -31.9330   23.2500 C   0  0  0  0  0  0  0  0  0  0  0  0
  -27.2110  -27.3360   20.1720 C   0  0  0  0  0  0  0  0  0  0  0  0
  -23.4190  -30.5360   21.6200 C   0  0  0  0  0  3  0  0  0  0  0  0
  -24.8550  -28.9830   20.1840 C   0  0  0  0  0  0  0  0  0  0  0  0
  -25.9620  -30.8400   21.4240 C   0  0  0  0  0  2  0  0  0  0  0  0
  -26.0330  -29.4600   20.7720 C   0  0  0  0  0  0  0  0  0  0  0  0
  -27.2120  -28.6470   20.7580 C   0  0  0  0  0  3  0  0  0  0  0  0
  -26.0040  -26.9300   19.5540 C   0  0  0  0  0  3  0  0  0  0  0  0
  -24.8440  -27.7240   19.5710 C   0  0  0  0  0  3  0  0  0  0  0  0
  -23.6230  -29.8620   20.2390 C   0  0  0  0  0  2  0  0  0  0  0  0
  -24.6920  -31.1210   22.1540 N   0  0  0  0  0  0  0  0  0  0  0  0
  -23.5500  -32.2110   23.7890 O   0  0  0  0  0  0  0  0  0  0  0  0
  -22.7600  -29.5190   22.5850 C   0  0  0  0  0  0  0  0  0  0  0  0
  -21.4390  -29.3140   22.4410 N   0  0  0  0  0  0  0  0  0  0  0  0
  -23.4370  -28.9180   23.4230 O   0  0  0  0  0  0  0  0  0  0  0  0
  -20.9520  -29.8480   21.7350 H   0  0  0  0  0  0  0  0  0  0  0  0
  -18.0860  -28.0250   22.8800 C   0  0  0  0  0  0  0  0  0  0  0  0
  -20.6270  -28.3730   23.2140 C   0  0  0  0  0  3  0  0  0  0  0  0
  -20.7900  -26.9320   22.6820 C   0  0  0  0  0  2  0  0  0  0  0  0
  -19.7300  -26.5460   21.6470 C   0  0  0  0  0  2  0  0  0  0  0  0
  -18.3240  -26.6650   22.2440 C   0  0  0  0  0  2  0  0  0  0  0  0
  -19.1680  -28.8330   23.3200 C   0  0  0  0  0  0  0  0  0  0  0  0
  -18.8940  -30.1020   23.8750 C   0  0  0  0  0  3  0  0  0  0  0  0
  -17.5700  -30.5660   23.9920 C   0  0  0  0  0  3  0  0  0  0  0  0
  -16.5010  -29.7580   23.5680 C   0  0  0  0  0  3  0  0  0  0  0  0
  -16.7600  -28.4880   23.0190 C   0  0  0  0  0  3  0  0  0  0  0  0
  -25.9150  -32.5700   23.8650 C   0  0  0  0  0  3  0  0  0  0  0  0
  -25.6030  -33.9680   24.1950 N   0  0  0  0  0  0  0  0  0  0  0  0
  -25.9260  -35.0220   23.4340 C   0  0  0  0  0  0  0  0  0  0  0  0
  -26.5860  -34.9200   22.3970 O   0  0  0  0  0  0  0  0  0  0  0  0
  -25.0100  -34.1220   24.9980 H   0  0  0  0  0  0  0  0  0  0  0  0
  -24.1860  -36.8120   23.1020 C   0  0  0  0  0  1  0  0  0  0  0  0
  -25.4380  -36.4100   23.8970 C   0  0  0  0  0  3  0  0  0  0  0  0
  -27.5780  -37.3040   24.7040 C   0  0  0  0  0  1  0  0  0  0  0  0
  -26.4650  -37.4670   23.7730 N   0  0  0  0  0  0  0  0  0  0  0  0
  -26.0580  -38.3860   23.9250 H   0  0  0  0  0  0  0  0  0  0  0  0
  -26.4350  -31.8030   25.1420 C   0  0  1  0  0  0  0  0  0  0  0  0
  -25.3450  -31.5680   26.2130 C   0  0  0  0  0  1  0  0  0  0  0  0
  -27.0170  -30.4250   24.7530 C   0  0  0  0  0  1  0  0  0  0  0  0
  -27.5890  -32.6000   25.7950 C   0  0  0  0  0  1  0  0  0  0  0  0
  1  9  1  0
  2  3  1  0
  4  6  1  0
  5  1  1  0
  5  4  1  0
  5  2  1  0
  6  8  1  0
  6  7  1  0
  6  3  1  0
 10  9  1  0
 10 11  1  0
 12 20  1  0
 13 18  1  0
 14 15  1  0
 14 13  1  0
 16 15  1  0
 16 25  1  0
 16 17  1  0
 18 12  1  0
 18 17  1  0
 19 12  2  0
 20 21  1  0
 20 11  1  0
 22 23  2  0
 23 42  1  0
 24 23  1  0
 24 27  1  0
 25 22  1  0
 25 26  1  0
 26 24  2  0
 27 28  1  0
 28 29  2  0
 30 33  1  0
 30 29  1  0
 31 30  2  0
 32 31  1  0
 32 27  2  0
 33 34  1  0
 34 35  1  0
 35 36  2  0
 37 36  1  0
 37 41  1  0
 38 37  2  0
 39 34  2  0
 39 38  1  0
 40 39  1  0
 42 43  1  0
 43 46  1  0
 43 45  1  0
 44 42  2  0
 47 48  1  0
 47 22  1  0
 49 47  1  0
 50 51  1  0
 50  1  1  0
 52 53  1  0
 52 51  2  0
 54 65  2  0
 55 53  1  0
 55 60  1  0
 56 64  1  0
 56 66  1  0
 57 63  1  0
 57 59  1  0
 58 64  1  0
 59 58  1  0
 60 59  2  0
 61 62  1  0
 61 55  2  0
 62 57  2  0
 63 56  1  0
 64 54  1  0
 66 68  2  0
 67 66  1  0
 69 67  1  0
 70 79  2  0
 70 75  1  0
 71 67  1  0
 71 75  1  0
 72 71  1  0
 73 74  1  0
 73 72  1  0
 74 70  1  0
 75 76  2  0
 76 77  1  0
 78 77  2  0
 79 78  1  0
 80 54  1  0
 80 81  1  0
 80 90  1  0
 81 84  1  0
 82 86  1  0
 82 81  1  0
 83 82  2  0
 86 85  1  0
 88 86  1  0
 88 89  1  0
 88 87  1  0
 90 93  1  1
 90 91  1  0
 92 90  1  0
M  ISO  4  12 100  20 100  52 101  53 101
M  END
>  <TORSDO>  (24) 
F 23

>  <SCORE>  (24) 
-13.410

>  <name>  (24) 
26

>  <ligand_id>  (24) 
26

>  <original_smiles>  (24) 
[H]c1c([H])c([H])c2c(c1[H])C([H])([H])C([H])([H])C([H])([H])C2([H])N([H])C(=O)C1([H])N(C(=O)C([H])(N([H])C(=O)C([H])(N([H])C([H])([H])[H])C([H])([H])[H])C(C([H])([H])[H])(C([H])([H])[H])C([H])([H])[H])C([H])([H])c2c([H])c(OC([H])([H])C([H])([H])C([H])([H])N(C([H])([H])C([H])([H])C([H])([H])N([H])C(=O)N3C([H])([H])C([H])([H])C([H])([H])C([H])(n4nc(-c5c([H])c([H])c(Oc6c([H])c([H])c(F)c([H])c6F)c([H])c5[H])c(C(=O)N([H])[H])c4N([H])[H])C3([H])[H])C3([H])C([H])([H])C([H])([H])[N+]([H])([H])C3([H])[H])c([H])c([H])c2C1([H])[H]

>  <smiles>  (24) 
[H]c1c([H])c([H])c2c(c1[H])C([H])([H])C([H])([H])C([H])([H])C2([H])N([H])C(=O)C1([H])N(C(=O)C([H])(N([H])C(=O)C([H])(N([H])C([H])([H])[H])C([H])([H])[H])C(C([H])([H])[H])(C([H])([H])[H])C([H])([H])[H])C([H])([H])c2c([H])c(OC([H])([H])C([H])([H])C([H])([H])N(C([H])([H])C([H])([H])C([H])([H])N([H])C(=O)N3C([H])([H])C([H])([H])C([H])([H])C([H])(n4nc(-c5c([H])c([H])c(Oc6c([H])c([H])c(F)c([H])c6F)c([H])c5[H])c(C(=O)N([H])[H])c4N([H])[H])C3([H])[H])C3([H])C([H])([H])C([H])([H])[N+]([H])([H])C3([H])[H])c([H])c([H])c2C1([H])[H]

$$$$
27:0:0
     RDKit          3D

 89 97  0  0  1  0  0  0  0  0999 V2000
  -29.6630  -20.4290   19.7890 N   0  0  0  0  0  4  0  0  0  0  0  0
  -28.9480  -20.3530   19.0860 H   0  0  0  0  0  0  0  0  0  0  0  0
  -30.5040  -20.6960   19.3030 H   0  0  0  0  0  0  0  0  0  0  0  0
  -30.6800  -14.9500   19.3760 C   0  0  0  0  0  0  0  0  0  0  0  0
  -30.3090  -12.7270   18.1920 C   0  0  0  0  0  2  0  0  0  0  0  0
  -29.1600  -12.8330   17.1580 C   0  0  0  0  0  2  0  0  0  0  0  0
  -27.7880  -12.6010   17.8230 C   0  0  0  0  0  2  0  0  0  0  0  0
  -27.6490  -13.3730   19.1600 C   0  0  0  0  0  3  0  0  0  0  0  0
  -28.8900  -13.1680   20.0490 C   0  0  0  0  0  2  0  0  0  0  0  0
  -30.0430  -13.7000   19.2980 N   0  0  0  0  0  0  0  0  0  0  0  0
  -31.7330  -15.0590   18.7330 O   0  0  0  0  0  0  0  0  0  0  0  0
  -29.4750  -17.2900   22.1540 C   0  0  0  0  0  2  0  0  0  0  0  0
  -29.0050  -18.5980   21.5040 C   0  0  0  0  0  2  0  0  0  0  0  0
  -29.3900  -16.0430   21.2430 C   0  0  0  0  0  2  0  0  0  0  0  0
  -30.0600  -17.6080   19.3750 C   0  0  0  0  0  2  0  0  0  0  0  0
  -29.9400  -18.9690   20.3510 C   0  0  0  0  0  3  0  0  0  0  0  0
  -30.0560  -16.1250   19.9250 N   0  0  0  0  0  0  0  0  0  0  0  0
  -25.4740  -13.9160   20.4000 C   0  0  0  0  0  0  0  0  0  0  0  0
  -24.4670  -13.1260   20.8800 C   0  0  0  0  0  0  0  0  0  0  0  0
  -24.8500  -11.7790   20.5930 C   0  0  0  0  0  0  0  0  0  0  0  0
  -26.4110  -13.0500   19.8600 N   0  0  0  0  0  0  0  0  0  0  0  0
  -26.0540  -11.7520   20.0340 N   0  0  0  0  0  0  0  0  0  0  0  0
  -24.1130  -10.5220   20.7700 C   0  0  0  0  0  0  0  0  0  0  0  0
  -24.6280   -9.4640   21.5500 C   0  0  0  0  0  3  0  0  0  0  0  0
  -23.8900   -8.2720   21.7180 C   0  0  0  0  0  3  0  0  0  0  0  0
  -22.6220   -8.1300   21.1060 C   0  0  0  0  0  0  0  0  0  0  0  0
  -22.1230   -9.1770   20.3100 C   0  0  0  0  0  3  0  0  0  0  0  0
  -22.8620  -10.3600   20.1410 C   0  0  0  0  0  3  0  0  0  0  0  0
  -21.8470   -7.0000   21.1920 O   0  0  0  0  0  0  0  0  0  0  0  0
  -21.8570   -6.2020   22.3090 C   0  0  0  0  0  0  0  0  0  0  0  0
  -21.5370   -6.7080   23.5880 C   0  0  0  0  0  3  0  0  0  0  0  0
  -21.4960   -5.8400   24.6970 C   0  0  0  0  0  3  0  0  0  0  0  0
  -21.7640   -4.4690   24.5280 C   0  0  0  0  0  0  0  0  0  0  0  0
  -22.0750   -3.9620   23.2540 C   0  0  0  0  0  3  0  0  0  0  0  0
  -22.1190   -4.8270   22.1480 C   0  0  0  0  0  0  0  0  0  0  0  0
  -22.4020   -4.3310   20.9190 F   0  0  0  0  0  0  0  0  0  0  0  0
  -21.7130   -3.6320   25.5930 F   0  0  0  0  0  0  0  0  0  0  0  0
  -23.1740  -13.6000   21.4770 C   0  0  0  0  0  0  0  0  0  0  0  0
  -22.6020  -12.8260   22.3910 N   0  0  0  0  0  0  0  0  0  0  0  0
  -22.6870  -14.6860   21.1660 O   0  0  0  0  0  0  0  0  0  0  0  0
  -23.0130  -11.9450   22.6640 H   0  0  0  0  0  0  0  0  0  0  0  0
  -21.7410  -13.1200   22.8310 H   0  0  0  0  0  0  0  0  0  0  0  0
  -25.6590  -15.2940   20.3500 N   0  0  0  0  0  0  0  0  0  0  0  0
  -24.9300  -15.9370   20.6440 H   0  0  0  0  0  0  0  0  0  0  0  0
  -26.4150  -15.7510   19.8570 H   0  0  0  0  0  0  0  0  0  0  0  0
  -29.2720  -21.6640   20.7030 C   0  0  0  0  0  2  0  0  0  0  0  0
  -29.2240  -23.2930   20.2130 C   0  0  0  0  0  2  0  0  0  0  0  0
  -28.1660  -24.6190   20.1520 C   0  0  0  0  0  2  0  0  0  0  0  0
  -28.3840  -26.1280   20.4460 O   0  0  0  0  0  0  0  0  0  0  0  0
  -24.5300  -31.7890   23.1380 C   0  0  0  0  0  0  0  0  0  0  0  0
  -27.3080  -27.0800   20.3060 C   0  0  0  0  0  0  0  0  0  0  0  0
  -23.4180  -30.3400   21.4830 C   0  0  0  0  0  3  0  0  0  0  0  0
  -24.9450  -28.7680   20.1480 C   0  0  0  0  0  0  0  0  0  0  0  0
  -25.9690  -30.6560   21.4040 C   0  0  0  0  0  2  0  0  0  0  0  0
  -26.0940  -29.2530   20.7860 C   0  0  0  0  0  0  0  0  0  0  0  0
  -27.2770  -28.4260   20.8450 C   0  0  0  0  0  3  0  0  0  0  0  0
  -26.1290  -26.6890   19.6300 C   0  0  0  0  0  3  0  0  0  0  0  0
  -24.9760  -27.4970   19.5540 C   0  0  0  0  0  3  0  0  0  0  0  0
  -23.7020  -29.6400   20.1300 C   0  0  0  0  0  2  0  0  0  0  0  0
  -24.6570  -30.9510   22.0640 N   0  0  0  0  0  0  0  0  0  0  0  0
  -23.4200  -32.0630   23.6200 O   0  0  0  0  0  0  0  0  0  0  0  0
  -22.7230  -29.3400   22.4410 C   0  0  0  0  0  0  0  0  0  0  0  0
  -21.3990  -29.1590   22.2810 N   0  0  0  0  0  0  0  0  0  0  0  0
  -23.3750  -28.7270   23.2890 O   0  0  0  0  0  0  0  0  0  0  0  0
  -20.9300  -29.7050   21.5730 H   0  0  0  0  0  0  0  0  0  0  0  0
  -18.0060  -27.9640   22.7170 C   0  0  0  0  0  0  0  0  0  0  0  0
  -20.5590  -28.2280   23.0390 C   0  0  0  0  0  3  0  0  0  0  0  0
  -20.6710  -26.7900   22.4750 C   0  0  0  0  0  2  0  0  0  0  0  0
  -19.5900  -26.4620   21.4400 C   0  0  0  0  0  2  0  0  0  0  0  0
  -18.1960  -26.6110   22.0540 C   0  0  0  0  0  2  0  0  0  0  0  0
  -19.1150  -28.7310   23.1650 C   0  0  0  0  0  0  0  0  0  0  0  0
  -18.8800  -29.9960   23.7460 C   0  0  0  0  0  3  0  0  0  0  0  0
  -17.5720  -30.4940   23.8850 C   0  0  0  0  0  3  0  0  0  0  0  0
  -16.4780  -29.7250   23.4530 C   0  0  0  0  0  3  0  0  0  0  0  0
  -16.6960  -28.4630   22.8730 C   0  0  0  0  0  3  0  0  0  0  0  0
  -25.7710  -32.4590   23.8000 C   0  0  0  0  0  3  0  0  0  0  0  0
  -26.2510  -31.7150   25.1080 C   0  0  1  0  0  0  0  0  0  0  0  0
  -25.1180  -31.4610   26.1310 C   0  0  0  0  0  1  0  0  0  0  0  0
  -26.8860  -30.3500   24.7590 C   0  0  0  0  0  1  0  0  0  0  0  0
  -27.3510  -32.5490   25.8070 C   0  0  0  0  0  1  0  0  0  0  0  0
  -25.4180  -33.8540   24.1050 N   0  0  0  0  0  0  0  0  0  0  0  0
  -25.7470  -34.9090   23.3470 C   0  0  0  0  0  0  0  0  0  0  0  0
  -26.4470  -34.8100   22.3360 O   0  0  0  0  0  0  0  0  0  0  0  0
  -24.7950  -34.0000   24.8860 H   0  0  0  0  0  0  0  0  0  0  0  0
  -23.9890  -36.6630   22.9370 C   0  0  0  0  0  1  0  0  0  0  0  0
  -25.2190  -36.2900   23.7790 C   0  0  0  0  0  3  0  0  0  0  0  0
  -27.3150  -37.2350   24.6490 C   0  0  0  0  0  1  0  0  0  0  0  0
  -26.2300  -37.3660   23.6780 N   0  0  0  0  0  0  0  0  0  0  0  0
  -25.8000  -38.2780   23.8050 H   0  0  0  0  0  0  0  0  0  0  0  0
  1 46  1  0
  2  1  1  0
  3  1  1  0
  4 17  1  0
  5 10  1  0
  6  7  1  0
  6  5  1  0
  8  7  1  0
  8 21  1  0
  8  9  1  0
 10  4  1  0
 10  9  1  0
 11  4  2  0
 13 12  1  0
 14 12  1  0
 15 17  1  0
 15 16  1  0
 16  1  1  0
 16 13  1  0
 17 14  1  0
 18 19  2  0
 19 38  1  0
 20 23  1  0
 20 19  1  0
 21 22  1  0
 21 18  1  0
 22 20  2  0
 23 24  1  0
 24 25  2  0
 26 29  1  0
 26 25  1  0
 27 26  2  0
 28 27  1  0
 28 23  2  0
 29 30  1  0
 30 31  1  0
 31 32  2  0
 33 32  1  0
 33 37  1  0
 34 33  2  0
 35 30  2  0
 35 34  1  0
 36 35  1  0
 38 39  1  0
 39 41  1  0
 39 42  1  0
 40 38  2  0
 43 18  1  0
 43 44  1  0
 45 43  1  0
 47 46  1  0
 48 47  1  0
 48 49  1  0
 50 61  2  0
 51 49  1  0
 51 56  1  0
 52 60  1  0
 52 62  1  0
 53 55  1  0
 54 60  1  0
 55 56  2  0
 55 54  1  0
 57 51  2  0
 58 57  1  0
 58 53  2  0
 59 53  1  0
 59 52  1  0
 60 50  1  0
 62 64  2  0
 63 62  1  0
 65 63  1  0
 66 75  2  0
 66 71  1  0
 67 63  1  0
 67 71  1  0
 68 67  1  0
 69 70  1  0
 69 68  1  0
 70 66  1  0
 71 72  2  0
 72 73  1  0
 74 73  2  0
 75 74  1  0
 76 50  1  0
 76 81  1  0
 76 77  1  0
 77 80  1  1
 77 78  1  0
 79 77  1  0
 81 84  1  0
 82 86  1  0
 82 81  1  0
 83 82  2  0
 86 85  1  0
 88 86  1  0
 88 89  1  0
 88 87  1  0
M  ISO  4   4 100  17 100  48 101  49 101
M  END
>  <TORSDO>  (25) 
F 19

>  <SCORE>  (25) 
-11.262

>  <name>  (25) 
27

>  <ligand_id>  (25) 
27

>  <original_smiles>  (25) 
[H]c1c([H])c([H])c2c(c1[H])C([H])([H])C([H])([H])C([H])([H])C2([H])N([H])C(=O)C1([H])N(C(=O)C([H])(N([H])C(=O)C([H])(N([H])C([H])([H])[H])C([H])([H])[H])C(C([H])([H])[H])(C([H])([H])[H])C([H])([H])[H])C([H])([H])c2c([H])c(OC([H])([H])C([H])([H])C([H])([H])[N+]([H])([H])C3([H])C([H])([H])N(C(=O)N4C([H])([H])C([H])([H])C([H])([H])C([H])(n5nc(-c6c([H])c([H])c(Oc7c([H])c([H])c(F)c([H])c7F)c([H])c6[H])c(C(=O)N([H])[H])c5N([H])[H])C4([H])[H])C([H])([H])C([H])([H])C3([H])[H])c([H])c([H])c2C1([H])[H]

>  <smiles>  (25) 
[H]c1c([H])c([H])c2c(c1[H])C([H])([H])C([H])([H])C([H])([H])C2([H])N([H])C(=O)C1([H])N(C(=O)C([H])(N([H])C(=O)C([H])(N([H])C([H])([H])[H])C([H])([H])[H])C(C([H])([H])[H])(C([H])([H])[H])C([H])([H])[H])C([H])([H])c2c([H])c(OC([H])([H])C([H])([H])C([H])([H])[N+]([H])([H])C3([H])C([H])([H])N(C(=O)N4C([H])([H])C([H])([H])C([H])([H])C([H])(n5nc(-c6c([H])c([H])c(Oc7c([H])c([H])c(F)c([H])c7F)c([H])c6[H])c(C(=O)N([H])[H])c5N([H])[H])C4([H])[H])C([H])([H])C([H])([H])C3([H])[H])c([H])c([H])c2C1([H])[H]

$$$$
28:0:0
     RDKit          3D

 93101  0  0  1  0  0  0  0  0999 V2000
  -29.0140  -23.3120   20.3190 C   0  0  0  0  0  3  0  0  0  0  0  0
  -29.3610  -23.3130   21.7550 N   0  0  0  0  0  4  0  0  0  0  0  0
  -28.5740  -23.0460   22.3210 H   0  0  0  0  0  0  0  0  0  0  0  0
  -29.6470  -24.2350   22.0390 H   0  0  0  0  0  0  0  0  0  0  0  0
  -30.1200  -22.6850   21.9480 H   0  0  0  0  0  0  0  0  0  0  0  0
  -28.6900  -21.7060   19.8410 C   0  0  0  0  0  2  0  0  0  0  0  0
  -29.4040  -19.0290   19.8090 C   0  0  0  0  0  0  0  0  0  0  0  0
  -29.5790  -20.4140   20.1240 N   0  0  0  0  0  0  0  0  0  0  0  0
  -28.3880  -18.7030   19.1920 O   0  0  0  0  0  0  0  0  0  0  0  0
  -30.4570  -20.6010   20.5920 H   0  0  0  0  0  0  0  0  0  0  0  0
  -30.7260  -15.0570   19.9210 C   0  0  0  0  0  0  0  0  0  0  0  0
  -30.5210  -12.7040   18.9500 C   0  0  0  0  0  2  0  0  0  0  0  0
  -29.5110  -12.6510   17.7770 C   0  0  0  0  0  2  0  0  0  0  0  0
  -28.0790  -12.4330   18.2980 C   0  0  0  0  0  2  0  0  0  0  0  0
  -27.7510  -13.3500   19.5030 C   0  0  0  0  0  3  0  0  0  0  0  0
  -28.8740  -13.3440   20.5590 C   0  0  0  0  0  2  0  0  0  0  0  0
  -30.1070  -13.7940   19.8900 N   0  0  0  0  0  0  0  0  0  0  0  0
  -31.8330  -15.1280   19.3740 O   0  0  0  0  0  0  0  0  0  0  0  0
  -30.6610  -17.2640   22.4840 C   0  0  0  0  0  2  0  0  0  0  0  0
  -31.0320  -18.1340   21.5520 C   0  0  0  0  0  2  0  0  0  0  0  0
  -29.8660  -16.1290   21.9000 C   0  0  0  0  0  2  0  0  0  0  0  0
  -30.4500  -17.7970   20.2040 C   0  0  0  0  0  3  0  0  0  0  0  0
  -30.0990  -16.2430   20.4400 N   0  0  0  0  0  0  0  0  0  0  0  0
  -25.4470  -13.9310   20.4520 C   0  0  0  0  0  0  0  0  0  0  0  0
  -24.4000  -13.1570   20.8700 C   0  0  0  0  0  0  0  0  0  0  0  0
  -24.8340  -11.8020   20.7410 C   0  0  0  0  0  0  0  0  0  0  0  0
  -26.4500  -13.0490   20.0880 N   0  0  0  0  0  0  0  0  0  0  0  0
  -26.0950  -11.7580   20.3270 N   0  0  0  0  0  0  0  0  0  0  0  0
  -24.0990  -10.5440   20.9330 C   0  0  0  0  0  0  0  0  0  0  0  0
  -24.5510   -9.5510   21.8300 C   0  0  0  0  0  3  0  0  0  0  0  0
  -23.8150   -8.3600   22.0090 C   0  0  0  0  0  3  0  0  0  0  0  0
  -22.6130   -8.1520   21.2910 C   0  0  0  0  0  0  0  0  0  0  0  0
  -22.1790   -9.1340   20.3820 C   0  0  0  0  0  3  0  0  0  0  0  0
  -22.9160  -10.3160   20.2010 C   0  0  0  0  0  3  0  0  0  0  0  0
  -21.8460   -7.0160   21.3810 O   0  0  0  0  0  0  0  0  0  0  0  0
  -21.7860   -6.2780   22.5360 C   0  0  0  0  0  0  0  0  0  0  0  0
  -21.3620   -6.8410   23.7600 C   0  0  0  0  0  3  0  0  0  0  0  0
  -21.2500   -6.0300   24.9070 C   0  0  0  0  0  3  0  0  0  0  0  0
  -21.5510   -4.6570   24.8300 C   0  0  0  0  0  0  0  0  0  0  0  0
  -21.9670   -4.0930   23.6110 C   0  0  0  0  0  3  0  0  0  0  0  0
  -22.0810   -4.9020   22.4670 C   0  0  0  0  0  0  0  0  0  0  0  0
  -22.4630   -4.3490   21.2910 F   0  0  0  0  0  0  0  0  0  0  0  0
  -21.4350   -3.8760   25.9290 F   0  0  0  0  0  0  0  0  0  0  0  0
  -23.0380  -13.6440   21.2710 C   0  0  0  0  0  0  0  0  0  0  0  0
  -22.3780  -12.9390   22.1830 N   0  0  0  0  0  0  0  0  0  0  0  0
  -22.5710  -14.6850   20.8090 O   0  0  0  0  0  0  0  0  0  0  0  0
  -22.7710  -12.0980   22.5790 H   0  0  0  0  0  0  0  0  0  0  0  0
  -21.4670  -13.2470   22.4930 H   0  0  0  0  0  0  0  0  0  0  0  0
  -25.6250  -15.3060   20.3270 N   0  0  0  0  0  0  0  0  0  0  0  0
  -24.8860  -15.9690   20.5330 H   0  0  0  0  0  0  0  0  0  0  0  0
  -26.4630  -15.7490   19.9680 H   0  0  0  0  0  0  0  0  0  0  0  0
  -27.9970  -24.6440   20.0180 C   0  0  0  0  0  2  0  0  0  0  0  0
  -28.2440  -26.1690   20.3000 O   0  0  0  0  0  0  0  0  0  0  0  0
  -24.5810  -31.8640   23.2550 C   0  0  0  0  0  0  0  0  0  0  0  0
  -27.1870  -27.1560   20.2250 C   0  0  0  0  0  0  0  0  0  0  0  0
  -23.3940  -30.4670   21.6100 C   0  0  0  0  0  3  0  0  0  0  0  0
  -24.8540  -28.9000   20.1870 C   0  0  0  0  0  0  0  0  0  0  0  0
  -25.9480  -30.7400   21.4560 C   0  0  0  0  0  2  0  0  0  0  0  0
  -26.0300  -29.3470   20.8020 C   0  0  0  0  0  0  0  0  0  0  0  0
  -27.1970  -28.4920   20.8040 C   0  0  0  0  0  3  0  0  0  0  0  0
  -25.9840  -26.8160   19.5670 C   0  0  0  0  0  3  0  0  0  0  0  0
  -24.8440  -27.6490   19.5530 C   0  0  0  0  0  3  0  0  0  0  0  0
  -23.6220  -29.7930   20.2310 C   0  0  0  0  0  2  0  0  0  0  0  0
  -24.6610  -31.0450   22.1630 N   0  0  0  0  0  0  0  0  0  0  0  0
  -23.4910  -32.1440   23.7790 O   0  0  0  0  0  0  0  0  0  0  0  0
  -22.7140  -29.4560   22.5680 C   0  0  0  0  0  0  0  0  0  0  0  0
  -21.3860  -29.2870   22.4420 N   0  0  0  0  0  0  0  0  0  0  0  0
  -23.3850  -28.8250   23.3880 O   0  0  0  0  0  0  0  0  0  0  0  0
  -20.8990  -29.8470   21.7560 H   0  0  0  0  0  0  0  0  0  0  0  0
  -18.0010  -28.1010   22.9560 C   0  0  0  0  0  0  0  0  0  0  0  0
  -20.5630  -28.3480   23.2100 C   0  0  0  0  0  3  0  0  0  0  0  0
  -20.6530  -26.9200   22.6220 C   0  0  0  0  0  2  0  0  0  0  0  0
  -19.5430  -26.6120   21.6130 C   0  0  0  0  0  2  0  0  0  0  0  0
  -18.1670  -26.7580   22.2670 C   0  0  0  0  0  2  0  0  0  0  0  0
  -19.1260  -28.8550   23.3860 C   0  0  0  0  0  0  0  0  0  0  0  0
  -18.9150  -30.1120   23.9940 C   0  0  0  0  0  3  0  0  0  0  0  0
  -17.6130  -30.6150   24.1740 C   0  0  0  0  0  3  0  0  0  0  0  0
  -16.5040  -29.8580   23.7600 C   0  0  0  0  0  3  0  0  0  0  0  0
  -16.6980  -28.6030   23.1570 C   0  0  0  0  0  3  0  0  0  0  0  0
  -25.8530  -32.5050   23.8890 C   0  0  0  0  0  3  0  0  0  0  0  0
  -26.3400  -31.7580   25.1920 C   0  0  1  0  0  0  0  0  0  0  0  0
  -25.2260  -31.5500   26.2440 C   0  0  0  0  0  1  0  0  0  0  0  0
  -26.9200  -30.3680   24.8440 C   0  0  0  0  0  1  0  0  0  0  0  0
  -27.4840  -32.5580   25.8580 C   0  0  0  0  0  1  0  0  0  0  0  0
  -25.5440  -33.9120   24.1920 N   0  0  0  0  0  0  0  0  0  0  0  0
  -25.8780  -34.9530   23.4180 C   0  0  0  0  0  0  0  0  0  0  0  0
  -26.5450  -34.8290   22.3870 O   0  0  0  0  0  0  0  0  0  0  0  0
  -24.9510  -34.0820   24.9910 H   0  0  0  0  0  0  0  0  0  0  0  0
  -24.1510  -36.7450   23.0460 C   0  0  0  0  0  1  0  0  0  0  0  0
  -25.3990  -36.3510   23.8540 C   0  0  0  0  0  3  0  0  0  0  0  0
  -27.5410  -37.2490   24.6520 C   0  0  0  0  0  1  0  0  0  0  0  0
  -26.4330  -37.3990   23.7130 N   0  0  0  0  0  0  0  0  0  0  0  0
  -26.0290  -38.3230   23.8430 H   0  0  0  0  0  0  0  0  0  0  0  0
  1  6  1  0
  1  2  1  0
  2  5  1  0
  2  4  1  0
  2  3  1  0
  6  8  1  0
  7  8  1  0
  8 10  1  0
  9  7  2  0
 11 23  1  0
 12 17  1  0
 13 14  1  0
 13 12  1  0
 15 14  1  0
 15 27  1  0
 15 16  1  0
 17 11  1  0
 17 16  1  0
 18 11  2  0
 20 19  1  0
 21 19  1  0
 22  7  1  0
 22 23  1  0
 22 20  1  0
 23 21  1  0
 24 25  2  0
 25 44  1  0
 26 25  1  0
 26 29  1  0
 27 28  1  0
 27 24  1  0
 28 26  2  0
 29 30  1  0
 30 31  2  0
 32 35  1  0
 32 31  1  0
 33 32  2  0
 34 33  1  0
 34 29  2  0
 35 36  1  0
 36 37  1  0
 37 38  2  0
 39 38  1  0
 39 43  1  0
 40 39  2  0
 41 36  2  0
 41 40  1  0
 42 41  1  0
 44 45  1  0
 45 48  1  0
 45 47  1  0
 46 44  2  0
 49 24  1  0
 49 50  1  0
 51 49  1  0
 52 53  1  0
 52  1  1  0
 54 65  2  0
 55 53  1  0
 55 60  1  0
 56 64  1  0
 56 66  1  0
 57 63  1  0
 57 59  1  0
 58 64  1  0
 59 60  2  0
 59 58  1  0
 61 55  2  0
 62 61  1  0
 62 57  2  0
 63 56  1  0
 64 54  1  0
 66 68  2  0
 67 66  1  0
 69 67  1  0
 70 79  2  0
 70 75  1  0
 71 67  1  0
 71 75  1  0
 72 71  1  0
 73 74  1  0
 73 72  1  0
 74 70  1  0
 75 76  2  0
 76 77  1  0
 78 77  2  0
 79 78  1  0
 80 54  1  0
 80 85  1  0
 80 81  1  0
 81 84  1  1
 81 82  1  0
 83 81  1  0
 85 88  1  0
 86 90  1  0
 86 85  1  0
 87 86  2  0
 90 89  1  0
 92 93  1  0
 92 90  1  0
 92 91  1  0
M  ISO  4  11 100  23 100  52 101  53 101
M  END
>  <TORSDO>  (26) 
F 20

>  <SCORE>  (26) 
-15.057

>  <name>  (26) 
28

>  <ligand_id>  (26) 
28

>  <original_smiles>  (26) 
[H]C1=C([H])C([H])(C(=O)N([H])C([H])([H])C([H])(C([H])([H])Oc2c([H])c([H])c3c(c2[H])C([H])([H])N(C(=O)C([H])(N([H])C(=O)C([H])(N([H])C([H])([H])[H])C([H])([H])[H])C(C([H])([H])[H])(C([H])([H])[H])C([H])([H])[H])C([H])(C(=O)N([H])C2([H])c4c([H])c([H])c([H])c([H])c4C([H])([H])C([H])([H])C2([H])[H])C3([H])[H])[N+]([H])([H])[H])N(C(=O)N2C([H])([H])C([H])([H])C([H])([H])C([H])(n3nc(-c4c([H])c([H])c(Oc5c([H])c([H])c(F)c([H])c5F)c([H])c4[H])c(C(=O)N([H])[H])c3N([H])[H])C2([H])[H])C1([H])[H]

>  <smiles>  (26) 
[H]C1=C([H])C([H])(C(=O)N([H])C([H])([H])C([H])(C([H])([H])Oc2c([H])c([H])c3c(c2[H])C([H])([H])N(C(=O)C([H])(N([H])C(=O)C([H])(N([H])C([H])([H])[H])C([H])([H])[H])C(C([H])([H])[H])(C([H])([H])[H])C([H])([H])[H])C([H])(C(=O)N([H])C2([H])c4c([H])c([H])c([H])c([H])c4C([H])([H])C([H])([H])C2([H])[H])C3([H])[H])[N+]([H])([H])[H])N(C(=O)N2C([H])([H])C([H])([H])C([H])([H])C([H])(n3nc(-c4c([H])c([H])c(Oc5c([H])c([H])c(F)c([H])c5F)c([H])c4[H])c(C(=O)N([H])[H])c3N([H])[H])C2([H])[H])C1([H])[H]

$$$$
29:0:0
     RDKit          3D

 94103  0  0  1  0  0  0  0  0999 V2000
  -30.7570  -14.4970   20.4730 C   0  0  0  0  0  0  0  0  0  0  0  0
  -30.4160  -12.3250   19.3900 C   0  0  0  0  0  2  0  0  0  0  0  0
  -29.4940  -12.5110   18.1660 C   0  0  0  0  0  2  0  0  0  0  0  0
  -28.0130  -12.4350   18.5810 C   0  0  0  0  0  2  0  0  0  0  0  0
  -27.6750  -13.3070   19.8200 C   0  0  0  0  0  3  0  0  0  0  0  0
  -28.7140  -13.1200   20.9480 C   0  0  0  0  0  2  0  0  0  0  0  0
  -30.0480  -13.3460   20.3780 N   0  0  0  0  0  0  0  0  0  0  0  0
  -31.9560  -14.5780   20.1880 O   0  0  0  0  0  0  0  0  0  0  0  0
  -28.7640  -16.9570   18.6380 C   0  0  0  0  0  2  0  0  0  0  0  0
  -29.4480  -20.3480   18.1700 C   0  0  0  0  0  2  0  0  0  0  0  0
  -28.2280  -17.9360   19.6870 C   0  0  0  0  0  2  0  0  0  0  0  0
  -30.1980  -19.5690   19.2530 C   0  0  0  0  0  2  0  0  0  0  0  0
  -30.2590  -18.0450   21.2610 C   0  0  0  0  0  2  0  0  0  0  0  0
  -28.5930  -19.9740   21.1440 C   0  0  0  0  0  2  0  0  0  0  0  0
  -30.0470  -16.2220   19.0460 C   0  0  0  0  0  2  0  0  0  0  0  0
  -29.9530  -16.5400   21.5420 C   0  0  0  0  0  2  0  0  0  0  0  0
  -29.2630  -21.8210   18.5210 C   0  0  0  0  0  2  0  0  0  0  0  0
  -27.7180  -21.0030   20.3720 C   0  0  0  0  0  2  0  0  0  0  0  0
  -29.3070  -18.8680   20.3160 C   0  0  2  0  0  0  0  0  0  0  0  0
  -29.9990  -15.6120   20.3850 N   0  0  0  0  0  0  0  0  0  0  0  0
  -28.4890  -22.1260   19.7610 N   0  0  2  0  0  4  0  0  0  0  0  0
  -29.1670  -22.3800   20.4630 H   0  0  0  0  0  0  0  0  0  0  0  0
  -25.2790  -13.9720   20.4880 C   0  0  0  0  0  0  0  0  0  0  0  0
  -24.1930  -13.2210   20.8480 C   0  0  0  0  0  0  0  0  0  0  0  0
  -24.6340  -11.8620   20.8430 C   0  0  0  0  0  0  0  0  0  0  0  0
  -26.3120  -13.0680   20.2860 N   0  0  0  0  0  0  0  0  0  0  0  0
  -25.9260  -11.7960   20.5600 N   0  0  0  0  0  0  0  0  0  0  0  0
  -23.8850  -10.6120   21.0350 C   0  0  0  0  0  0  0  0  0  0  0  0
  -24.2980   -9.6420   21.9740 C   0  0  0  0  0  3  0  0  0  0  0  0
  -23.5520   -8.4570   22.1530 C   0  0  0  0  0  3  0  0  0  0  0  0
  -22.3790   -8.2360   21.3920 C   0  0  0  0  0  0  0  0  0  0  0  0
  -21.9870   -9.1930   20.4410 C   0  0  0  0  0  3  0  0  0  0  0  0
  -22.7340  -10.3700   20.2600 C   0  0  0  0  0  3  0  0  0  0  0  0
  -21.6070   -7.1020   21.4800 O   0  0  0  0  0  0  0  0  0  0  0  0
  -21.5470   -6.3610   22.6320 C   0  0  0  0  0  0  0  0  0  0  0  0
  -21.1450   -6.9250   23.8620 C   0  0  0  0  0  3  0  0  0  0  0  0
  -21.0300   -6.1120   25.0070 C   0  0  0  0  0  3  0  0  0  0  0  0
  -21.3080   -4.7350   24.9240 C   0  0  0  0  0  0  0  0  0  0  0  0
  -21.7050   -4.1700   23.6990 C   0  0  0  0  0  3  0  0  0  0  0  0
  -21.8210   -4.9800   22.5560 C   0  0  0  0  0  0  0  0  0  0  0  0
  -22.1840   -4.4260   21.3740 F   0  0  0  0  0  0  0  0  0  0  0  0
  -21.1910   -3.9510   26.0220 F   0  0  0  0  0  0  0  0  0  0  0  0
  -22.7990  -13.7220   21.0940 C   0  0  0  0  0  0  0  0  0  0  0  0
  -22.0510  -13.0480   21.9600 N   0  0  0  0  0  0  0  0  0  0  0  0
  -22.3820  -14.7450   20.5530 O   0  0  0  0  0  0  0  0  0  0  0  0
  -22.4010  -12.2160   22.4120 H   0  0  0  0  0  0  0  0  0  0  0  0
  -21.1160  -13.3660   22.1740 H   0  0  0  0  0  0  0  0  0  0  0  0
  -25.4730  -15.3360   20.2960 N   0  0  0  0  0  0  0  0  0  0  0  0
  -24.7240  -16.0120   20.3860 H   0  0  0  0  0  0  0  0  0  0  0  0
  -26.3520  -15.7460   20.0110 H   0  0  0  0  0  0  0  0  0  0  0  0
  -27.6390  -23.3290   19.5630 C   0  0  0  0  0  2  0  0  0  0  0  0
  -28.4480  -24.6240   19.3060 C   0  0  0  0  0  2  0  0  0  0  0  0
  -28.5100  -25.5360   20.5400 C   0  0  0  0  0  2  0  0  0  0  0  0
  -28.5470  -26.9070   20.1710 O   0  0  0  0  0  0  0  0  0  0  0  0
  -24.5180  -31.8870   23.1960 C   0  0  0  0  0  0  0  0  0  0  0  0
  -27.3350  -27.5580   20.1550 C   0  0  0  0  0  0  0  0  0  0  0  0
  -23.3810  -30.4680   21.5210 C   0  0  0  0  0  3  0  0  0  0  0  0
  -24.8980  -28.9800   20.1280 C   0  0  0  0  0  0  0  0  0  0  0  0
  -25.8980  -30.9020   21.3740 C   0  0  0  0  0  2  0  0  0  0  0  0
  -26.0310  -29.5410   20.7300 C   0  0  0  0  0  0  0  0  0  0  0  0
  -27.2560  -28.8430   20.7270 C   0  0  0  0  0  3  0  0  0  0  0  0
  -26.1710  -26.9910   19.5800 C   0  0  0  0  0  3  0  0  0  0  0  0
  -24.9610  -27.7020   19.5520 C   0  0  0  0  0  3  0  0  0  0  0  0
  -23.6340  -29.8030   20.1440 C   0  0  0  0  0  2  0  0  0  0  0  0
  -24.6170  -31.0980   22.0910 N   0  0  0  0  0  0  0  0  0  0  0  0
  -23.4190  -32.1330   23.7120 O   0  0  0  0  0  0  0  0  0  0  0  0
  -22.7330  -29.4250   22.4600 C   0  0  0  0  0  0  0  0  0  0  0  0
  -21.4070  -29.2540   22.3350 N   0  0  0  0  0  0  0  0  0  0  0  0
  -23.4190  -28.7740   23.2510 O   0  0  0  0  0  0  0  0  0  0  0  0
  -20.9160  -29.8330   21.6700 H   0  0  0  0  0  0  0  0  0  0  0  0
  -18.0180  -28.1170   22.8650 C   0  0  0  0  0  0  0  0  0  0  0  0
  -20.5870  -28.3060   23.0880 C   0  0  0  0  0  3  0  0  0  0  0  0
  -20.6430  -26.8960   22.4540 C   0  0  0  0  0  2  0  0  0  0  0  0
  -19.5110  -26.6390   21.4540 C   0  0  0  0  0  2  0  0  0  0  0  0
  -18.1480  -26.7910   22.1350 C   0  0  0  0  0  2  0  0  0  0  0  0
  -19.1640  -28.8370   23.2980 C   0  0  0  0  0  0  0  0  0  0  0  0
  -18.9880  -30.0820   23.9390 C   0  0  0  0  0  3  0  0  0  0  0  0
  -17.6990  -30.6070   24.1530 C   0  0  0  0  0  3  0  0  0  0  0  0
  -16.5680  -29.8840   23.7360 C   0  0  0  0  0  3  0  0  0  0  0  0
  -16.7290  -28.6410   23.0980 C   0  0  0  0  0  3  0  0  0  0  0  0
  -25.7770  -32.5410   23.8490 C   0  0  0  0  0  3  0  0  0  0  0  0
  -25.4290  -33.9280   24.1790 N   0  0  0  0  0  0  0  0  0  0  0  0
  -25.7470  -34.9900   23.4240 C   0  0  0  0  0  0  0  0  0  0  0  0
  -26.4360  -34.9050   22.4040 O   0  0  0  0  0  0  0  0  0  0  0  0
  -24.8170  -34.0670   24.9700 H   0  0  0  0  0  0  0  0  0  0  0  0
  -23.9780  -36.7370   23.0490 C   0  0  0  0  0  1  0  0  0  0  0  0
  -25.2190  -36.3640   23.8740 C   0  0  0  0  0  3  0  0  0  0  0  0
  -27.3210  -37.3010   24.7300 C   0  0  0  0  0  1  0  0  0  0  0  0
  -26.2250  -37.4440   23.7750 N   0  0  0  0  0  0  0  0  0  0  0  0
  -25.7930  -38.3520   23.9240 H   0  0  0  0  0  0  0  0  0  0  0  0
  -26.2850  -31.7690   25.1290 C   0  0  1  0  0  0  0  0  0  0  0  0
  -25.1750  -31.4950   26.1710 C   0  0  0  0  0  1  0  0  0  0  0  0
  -26.9070  -30.4080   24.7340 C   0  0  0  0  0  1  0  0  0  0  0  0
  -27.4070  -32.5830   25.8190 C   0  0  0  0  0  1  0  0  0  0  0  0
  2  7  1  0
  3  4  1  0
  3  2  1  0
  5  4  1  0
  5 26  1  0
  5  6  1  0
  7  1  1  0
  7  6  1  0
  8  1  2  0
  9 15  1  0
  9 11  1  0
 10 17  1  0
 10 12  1  0
 19 11  1  6
 13 16  1  0
 15 20  1  0
 17 21  1  0
 18 14  1  0
 19 12  1  0
 19 14  1  0
 19 13  1  0
 20  1  1  0
 20 16  1  0
 21 18  1  0
 21 22  1  1
 23 24  2  0
 24 43  1  0
 25 24  1  0
 25 28  1  0
 26 23  1  0
 26 27  1  0
 27 25  2  0
 28 29  1  0
 29 30  2  0
 31 34  1  0
 31 30  1  0
 32 31  2  0
 33 32  1  0
 33 28  2  0
 34 35  1  0
 35 36  1  0
 36 37  2  0
 38 37  1  0
 38 42  1  0
 39 38  2  0
 40 35  2  0
 40 39  1  0
 41 40  1  0
 43 44  1  0
 44 47  1  0
 44 46  1  0
 45 43  2  0
 48 49  1  0
 48 23  1  0
 50 48  1  0
 51 21  1  0
 52 51  1  0
 52 53  1  0
 54 53  1  0
 55 66  2  0
 56 54  1  0
 56 61  1  0
 57 65  1  0
 57 67  1  0
 58 64  1  0
 58 60  1  0
 59 65  1  0
 60 59  1  0
 61 60  2  0
 62 56  2  0
 63 62  1  0
 63 58  2  0
 64 57  1  0
 65 55  1  0
 67 69  2  0
 68 67  1  0
 70 68  1  0
 71 80  2  0
 71 76  1  0
 72 68  1  0
 72 76  1  0
 73 72  1  0
 74 75  1  0
 74 73  1  0
 75 71  1  0
 76 77  2  0
 77 78  1  0
 79 78  2  0
 80 79  1  0
 81 55  1  0
 81 82  1  0
 81 91  1  0
 82 85  1  0
 83 87  1  0
 83 82  1  0
 84 83  2  0
 87 86  1  0
 89 87  1  0
 89 90  1  0
 89 88  1  0
 91 94  1  1
 91 92  1  0
 93 91  1  0
M  ISO  4   1 100  20 100  53 101  54 101
M  END
>  <TORSDO>  (27) 
F 18

>  <SCORE>  (27) 
-14.386

>  <name>  (27) 
29

>  <ligand_id>  (27) 
29

>  <original_smiles>  (27) 
[H]c1c([H])c([H])c2c(c1[H])C([H])([H])C([H])([H])C([H])([H])C2([H])N([H])C(=O)C1([H])N(C(=O)C([H])(N([H])C(=O)C([H])(N([H])C([H])([H])[H])C([H])([H])[H])C(C([H])([H])[H])(C([H])([H])[H])C([H])([H])[H])C([H])([H])c2c([H])c(OC([H])([H])C([H])([H])C([H])([H])[N+]3([H])C([H])([H])C([H])([H])C([H])([H])C4(C([H])([H])C([H])([H])N(C(=O)N5C([H])([H])C([H])([H])C([H])([H])C([H])(n6nc(-c7c([H])c([H])c(Oc8c([H])c([H])c(F)c([H])c8F)c([H])c7[H])c(C(=O)N([H])[H])c6N([H])[H])C5([H])[H])C([H])([H])C([H])([H])C4([H])[H])C([H])([H])C3([H])[H])c([H])c([H])c2C1([H])[H]

>  <smiles>  (27) 
[H]c1c([H])c([H])c2c(c1[H])C([H])([H])C([H])([H])C([H])([H])C2([H])N([H])C(=O)C1([H])N(C(=O)C([H])(N([H])C(=O)C([H])(N([H])C([H])([H])[H])C([H])([H])[H])C(C([H])([H])[H])(C([H])([H])[H])C([H])([H])[H])C([H])([H])c2c([H])c(OC([H])([H])C([H])([H])C([H])([H])[N+]3([H])C([H])([H])C([H])([H])C([H])([H])C4(C([H])([H])C([H])([H])N(C(=O)N5C([H])([H])C([H])([H])C([H])([H])C([H])(n6nc(-c7c([H])c([H])c(Oc8c([H])c([H])c(F)c([H])c8F)c([H])c7[H])c(C(=O)N([H])[H])c6N([H])[H])C5([H])[H])C([H])([H])C([H])([H])C4([H])[H])C([H])([H])C3([H])[H])c([H])c([H])c2C1([H])[H]

$$$$
30:0:0
     RDKit          3D

 90 99  0  0  1  0  0  0  0  0999 V2000
  -28.9120  -21.0980   19.7800 N   0  0  0  0  0  4  0  0  0  0  0  0
  -27.9490  -20.9320   19.5340 H   0  0  0  0  0  0  0  0  0  0  0  0
  -29.3760  -21.1970   18.8890 H   0  0  0  0  0  0  0  0  0  0  0  0
  -30.4970  -15.3610   19.8500 C   0  0  0  0  0  0  0  0  0  0  0  0
  -30.3730  -12.9180   18.9420 C   0  0  0  0  0  2  0  0  0  0  0  0
  -29.3770  -12.7170   17.7730 C   0  0  0  0  0  2  0  0  0  0  0  0
  -27.9650  -12.4320   18.3100 C   0  0  0  0  0  2  0  0  0  0  0  0
  -27.5960  -13.3740   19.4840 C   0  0  0  0  0  3  0  0  0  0  0  0
  -28.7210  -13.5160   20.5330 C   0  0  0  0  0  2  0  0  0  0  0  0
  -29.8920  -14.0600   19.8200 N   0  0  0  0  0  0  0  0  0  0  0  0
  -31.6750  -15.2930   19.4680 O   0  0  0  0  0  0  0  0  0  0  0  0
  -31.7610  -18.9430   21.1010 C   0  0  0  0  0  2  0  0  0  0  0  0
  -31.6160  -18.5340   19.6350 C   0  0  0  0  0  2  0  0  0  0  0  0
  -30.5980  -19.9090   21.3630 C   0  0  0  0  0  2  0  0  0  0  0  0
  -28.3720  -18.6430   20.9580 C   0  0  0  0  0  2  0  0  0  0  0  0
  -28.8450  -17.1030   21.0470 C   0  0  0  0  0  2  0  0  0  0  0  0
  -30.1150  -18.2410   19.4990 C   0  0  0  0  0  3  0  0  0  0  0  0
  -29.4550  -19.6030   20.3580 C   0  0  1  0  0  0  0  0  0  0  0  0
  -29.8330  -16.7130   20.0070 N   0  0  0  0  0  0  0  0  0  0  0  0
  -25.2940  -13.9060   20.4280 C   0  0  0  0  0  0  0  0  0  0  0  0
  -24.2600  -13.1200   20.8480 C   0  0  0  0  0  0  0  0  0  0  0  0
  -24.7160  -11.7700   20.7350 C   0  0  0  0  0  0  0  0  0  0  0  0
  -26.3110  -13.0370   20.0790 N   0  0  0  0  0  0  0  0  0  0  0  0
  -25.9810  -11.7430   20.3280 N   0  0  0  0  0  0  0  0  0  0  0  0
  -23.9970  -10.5040   20.9360 C   0  0  0  0  0  0  0  0  0  0  0  0
  -24.4580   -9.5250   21.8420 C   0  0  0  0  0  3  0  0  0  0  0  0
  -23.7360   -8.3280   22.0340 C   0  0  0  0  0  3  0  0  0  0  0  0
  -22.5340   -8.1010   21.3190 C   0  0  0  0  0  0  0  0  0  0  0  0
  -22.0930   -9.0680   20.3990 C   0  0  0  0  0  3  0  0  0  0  0  0
  -22.8150  -10.2570   20.2040 C   0  0  0  0  0  3  0  0  0  0  0  0
  -21.7800   -6.9570   21.4230 O   0  0  0  0  0  0  0  0  0  0  0  0
  -21.7260   -6.2320   22.5860 C   0  0  0  0  0  0  0  0  0  0  0  0
  -21.2880   -6.8040   23.8000 C   0  0  0  0  0  3  0  0  0  0  0  0
  -21.1810   -6.0050   24.9570 C   0  0  0  0  0  3  0  0  0  0  0  0
  -21.5020   -4.6360   24.9010 C   0  0  0  0  0  0  0  0  0  0  0  0
  -21.9320   -4.0640   23.6900 C   0  0  0  0  0  3  0  0  0  0  0  0
  -22.0420   -4.8590   22.5360 C   0  0  0  0  0  0  0  0  0  0  0  0
  -22.4360   -4.2970   21.3670 F   0  0  0  0  0  0  0  0  0  0  0  0
  -21.3930   -3.8660   26.0090 F   0  0  0  0  0  0  0  0  0  0  0  0
  -22.8890  -13.5900   21.2340 C   0  0  0  0  0  0  0  0  0  0  0  0
  -22.2260  -12.8710   22.1330 N   0  0  0  0  0  0  0  0  0  0  0  0
  -22.4200  -14.6330   20.7760 O   0  0  0  0  0  0  0  0  0  0  0  0
  -22.6240  -12.0310   22.5260 H   0  0  0  0  0  0  0  0  0  0  0  0
  -21.3080  -13.1640   22.4320 H   0  0  0  0  0  0  0  0  0  0  0  0
  -25.4520  -15.2830   20.2840 N   0  0  0  0  0  0  0  0  0  0  0  0
  -24.7040  -15.9380   20.4780 H   0  0  0  0  0  0  0  0  0  0  0  0
  -26.2710  -15.7240   19.8880 H   0  0  0  0  0  0  0  0  0  0  0  0
  -28.9280  -22.6610   20.4260 C   0  0  0  0  0  3  0  0  0  0  0  0
  -28.1010  -24.2070   19.9190 C   0  0  0  0  0  3  0  0  0  0  0  0
  -28.2140  -25.8260   20.3150 O   0  0  0  0  0  0  0  0  0  0  0  0
  -24.6170  -31.8240   23.2130 C   0  0  0  0  0  0  0  0  0  0  0  0
  -27.2090  -26.9360   20.2080 C   0  0  0  0  0  0  0  0  0  0  0  0
  -23.4460  -30.4400   21.5480 C   0  0  0  0  0  3  0  0  0  0  0  0
  -24.9140  -28.8350   20.1400 C   0  0  0  0  0  0  0  0  0  0  0  0
  -26.0150  -30.6380   21.4480 C   0  0  0  0  0  2  0  0  0  0  0  0
  -26.0930  -29.2310   20.7820 C   0  0  0  0  0  0  0  0  0  0  0  0
  -27.2310  -28.3010   20.7920 C   0  0  0  0  0  3  0  0  0  0  0  0
  -26.0020  -26.7010   19.5100 C   0  0  0  0  0  3  0  0  0  0  0  0
  -24.8950  -27.5920   19.4850 C   0  0  0  0  0  3  0  0  0  0  0  0
  -23.6990  -29.7620   20.1730 C   0  0  0  0  0  2  0  0  0  0  0  0
  -24.7130  -30.9930   22.1250 N   0  0  0  0  0  0  0  0  0  0  0  0
  -23.5200  -32.1160   23.7180 O   0  0  0  0  0  0  0  0  0  0  0  0
  -22.7310  -29.4460   22.4970 C   0  0  0  0  0  0  0  0  0  0  0  0
  -21.4040  -29.2830   22.3450 N   0  0  0  0  0  0  0  0  0  0  0  0
  -23.3770  -28.8190   23.3400 O   0  0  0  0  0  0  0  0  0  0  0  0
  -20.9380  -29.8350   21.6390 H   0  0  0  0  0  0  0  0  0  0  0  0
  -18.0120  -28.0650   22.7700 C   0  0  0  0  0  0  0  0  0  0  0  0
  -20.5640  -28.3430   23.0950 C   0  0  0  0  0  3  0  0  0  0  0  0
  -20.6870  -26.9110   22.5240 C   0  0  0  0  0  2  0  0  0  0  0  0
  -19.6110  -26.5820   21.4850 C   0  0  0  0  0  2  0  0  0  0  0  0
  -18.2140  -26.7180   22.0960 C   0  0  0  0  0  2  0  0  0  0  0  0
  -19.1160  -28.8340   23.2260 C   0  0  0  0  0  0  0  0  0  0  0  0
  -18.8750  -30.0920   23.8190 C   0  0  0  0  0  3  0  0  0  0  0  0
  -17.5620  -30.5800   23.9650 C   0  0  0  0  0  3  0  0  0  0  0  0
  -16.4730  -29.8060   23.5290 C   0  0  0  0  0  3  0  0  0  0  0  0
  -16.6970  -28.5550   22.9310 C   0  0  0  0  0  3  0  0  0  0  0  0
  -25.8790  -32.4630   23.8690 C   0  0  0  0  0  3  0  0  0  0  0  0
  -25.5650  -33.8670   24.1890 N   0  0  0  0  0  0  0  0  0  0  0  0
  -25.9040  -34.9220   23.4360 C   0  0  0  0  0  0  0  0  0  0  0  0
  -26.5770  -34.8130   22.4060 O   0  0  0  0  0  0  0  0  0  0  0  0
  -24.9650  -34.0230   24.9850 H   0  0  0  0  0  0  0  0  0  0  0  0
  -24.1750  -36.7210   23.0950 C   0  0  0  0  0  1  0  0  0  0  0  0
  -25.4250  -36.3160   23.8920 C   0  0  0  0  0  3  0  0  0  0  0  0
  -27.5660  -37.2060   24.7030 C   0  0  0  0  0  1  0  0  0  0  0  0
  -26.4590  -37.3670   23.7650 N   0  0  0  0  0  0  0  0  0  0  0  0
  -26.0530  -38.2880   23.9100 H   0  0  0  0  0  0  0  0  0  0  0  0
  -26.3460  -31.7040   25.1730 C   0  0  1  0  0  0  0  0  0  0  0  0
  -25.2160  -31.4900   26.2070 C   0  0  0  0  0  1  0  0  0  0  0  0
  -26.9270  -30.3140   24.8300 C   0  0  0  0  0  1  0  0  0  0  0  0
  -27.4820  -32.4940   25.8640 C   0  0  0  0  0  1  0  0  0  0  0  0
  1 48  1  0
  2  1  1  0
  3  1  1  0
  4 19  1  0
  5 10  1  0
  6  7  1  0
  6  5  1  0
  8  7  1  0
  8 23  1  0
  8  9  1  0
 10  4  1  0
 10  9  1  0
 11  4  2  0
 12 14  1  0
 13 12  1  0
 15 16  1  0
 17 13  1  0
 17 19  1  0
 17 18  1  0
 18  1  1  6
 18 15  1  0
 18 14  1  0
 19 16  1  0
 20 21  2  0
 21 40  1  0
 22 21  1  0
 22 25  1  0
 23 24  1  0
 23 20  1  0
 24 22  2  0
 25 26  1  0
 26 27  2  0
 28 31  1  0
 28 27  1  0
 29 28  2  0
 30 29  1  0
 30 25  2  0
 31 32  1  0
 32 33  1  0
 33 34  2  0
 35 34  1  0
 35 39  1  0
 36 35  2  0
 37 32  2  0
 37 36  1  0
 38 37  1  0
 40 41  1  0
 41 44  1  0
 41 43  1  0
 42 40  2  0
 45 20  1  0
 45 46  1  0
 47 45  1  0
 49 50  1  0
 49 48  2  0
 51 62  2  0
 52 50  1  0
 52 57  1  0
 53 61  1  0
 53 63  1  0
 54 60  1  0
 54 56  1  0
 55 61  1  0
 56 57  2  0
 56 55  1  0
 58 52  2  0
 59 58  1  0
 59 54  2  0
 60 53  1  0
 61 51  1  0
 63 65  2  0
 64 63  1  0
 66 64  1  0
 67 76  2  0
 67 72  1  0
 68 64  1  0
 68 72  1  0
 69 68  1  0
 70 71  1  0
 70 69  1  0
 71 67  1  0
 72 73  2  0
 73 74  1  0
 75 74  2  0
 76 75  1  0
 77 51  1  0
 77 78  1  0
 77 87  1  0
 78 81  1  0
 79 83  1  0
 79 78  1  0
 80 79  2  0
 83 82  1  0
 85 83  1  0
 85 86  1  0
 85 84  1  0
 87 90  1  1
 87 88  1  0
 89 87  1  0
M  ISO  4   4 100  19 100  49 101  50 101
M  END
>  <TORSDO>  (28) 
F 18

>  <SCORE>  (28) 
-16.150

>  <name>  (28) 
30

>  <ligand_id>  (28) 
30

>  <original_smiles>  (28) 
[H]c1c([H])c([H])c2c(c1[H])C([H])([H])C([H])([H])C([H])([H])C2([H])N([H])C(=O)C1([H])N(C(=O)C([H])(N([H])C(=O)C([H])(N([H])C([H])([H])[H])C([H])([H])[H])C(C([H])([H])[H])(C([H])([H])[H])C([H])([H])[H])C([H])([H])c2c([H])c(OC([H])([H])C([H])([H])[N+]([H])([H])C34C([H])([H])C([H])([H])N(C(=O)N5C([H])([H])C([H])([H])C([H])([H])C([H])(n6nc(-c7c([H])c([H])c(Oc8c([H])c([H])c(F)c([H])c8F)c([H])c7[H])c(C(=O)N([H])[H])c6N([H])[H])C5([H])[H])C3([H])C([H])([H])C([H])([H])C4([H])[H])c([H])c([H])c2C1([H])[H]

>  <smiles>  (28) 
[H]c1c([H])c([H])c2c(c1[H])C([H])([H])C([H])([H])C([H])([H])C2([H])N([H])C(=O)C1([H])N(C(=O)C([H])(N([H])C(=O)C([H])(N([H])C([H])([H])[H])C([H])([H])[H])C(C([H])([H])[H])(C([H])([H])[H])C([H])([H])[H])C([H])([H])c2c([H])c(OC([H])([H])C([H])([H])[N+]([H])([H])C34C([H])([H])C([H])([H])N(C(=O)N5C([H])([H])C([H])([H])C([H])([H])C([H])(n6nc(-c7c([H])c([H])c(Oc8c([H])c([H])c(F)c([H])c8F)c([H])c7[H])c(C(=O)N([H])[H])c6N([H])[H])C5([H])[H])C3([H])C([H])([H])C([H])([H])C4([H])[H])c([H])c([H])c2C1([H])[H]

$$$$
31:0:0
     RDKit          3D

 89 97  0  0  1  0  0  0  0  0999 V2000
  -28.9450  -20.2720   20.4940 N   0  0  0  0  0  4  0  0  0  0  0  0
  -29.2230  -20.4410   21.4460 H   0  0  0  0  0  0  0  0  0  0  0  0
  -27.9740  -19.9990   20.5170 H   0  0  0  0  0  0  0  0  0  0  0  0
  -29.7610  -18.9690   20.0550 C   0  0  0  0  0  2  0  0  0  0  0  0
  -30.5950  -14.9730   19.6890 C   0  0  0  0  0  0  0  0  0  0  0  0
  -30.2310  -12.7170   18.5720 C   0  0  0  0  0  2  0  0  0  0  0  0
  -29.1410  -12.7890   17.4780 C   0  0  0  0  0  2  0  0  0  0  0  0
  -27.7620  -12.5320   18.0990 C   0  0  0  0  0  2  0  0  0  0  0  0
  -27.5290  -13.4080   19.3550 C   0  0  0  0  0  3  0  0  0  0  0  0
  -28.7190  -13.3210   20.3400 C   0  0  0  0  0  2  0  0  0  0  0  0
  -29.9250  -13.7460   19.6170 N   0  0  0  0  0  0  0  0  0  0  0  0
  -31.6620  -15.0470   19.0640 O   0  0  0  0  0  0  0  0  0  0  0  0
  -30.3440  -17.1540   22.7180 C   0  0  0  0  0  2  0  0  0  0  0  0
  -29.0150  -17.4750   22.0560 C   0  0  0  0  0  2  0  0  0  0  0  0
  -30.9380  -16.0610   21.8260 C   0  0  0  0  0  2  0  0  0  0  0  0
  -29.3330  -17.3960   20.5540 C   0  0  0  0  0  3  0  0  0  0  0  0
  -30.2120  -16.0600   20.5390 N   0  0  0  0  0  0  0  0  0  0  0  0
  -25.2730  -13.9900   20.4160 C   0  0  0  0  0  0  0  0  0  0  0  0
  -24.2370  -13.2160   20.8580 C   0  0  0  0  0  0  0  0  0  0  0  0
  -24.6460  -11.8600   20.6720 C   0  0  0  0  0  0  0  0  0  0  0  0
  -26.2510  -13.1080   19.9890 N   0  0  0  0  0  0  0  0  0  0  0  0
  -25.8870  -11.8150   20.2030 N   0  0  0  0  0  0  0  0  0  0  0  0
  -23.9060  -10.6050   20.8590 C   0  0  0  0  0  0  0  0  0  0  0  0
  -24.3720   -9.5940   21.7270 C   0  0  0  0  0  3  0  0  0  0  0  0
  -23.6300   -8.4080   21.9090 C   0  0  0  0  0  3  0  0  0  0  0  0
  -22.4080   -8.2240   21.2190 C   0  0  0  0  0  0  0  0  0  0  0  0
  -21.9600   -9.2240   20.3390 C   0  0  0  0  0  3  0  0  0  0  0  0
  -22.7020  -10.4010   20.1550 C   0  0  0  0  0  3  0  0  0  0  0  0
  -21.6320   -7.0920   21.3110 O   0  0  0  0  0  0  0  0  0  0  0  0
  -21.5740   -6.3540   22.4630 C   0  0  0  0  0  0  0  0  0  0  0  0
  -21.1670   -6.9200   23.6930 C   0  0  0  0  0  3  0  0  0  0  0  0
  -21.0530   -6.1100   24.8390 C   0  0  0  0  0  3  0  0  0  0  0  0
  -21.3360   -4.7330   24.7600 C   0  0  0  0  0  0  0  0  0  0  0  0
  -21.7380   -4.1660   23.5380 C   0  0  0  0  0  3  0  0  0  0  0  0
  -21.8500   -4.9730   22.3930 C   0  0  0  0  0  0  0  0  0  0  0  0
  -22.2160   -4.4180   21.2130 F   0  0  0  0  0  0  0  0  0  0  0  0
  -21.2200   -3.9510   25.8600 F   0  0  0  0  0  0  0  0  0  0  0  0
  -22.9010  -13.7050   21.3420 C   0  0  0  0  0  0  0  0  0  0  0  0
  -22.2830  -12.9720   22.2620 N   0  0  0  0  0  0  0  0  0  0  0  0
  -22.4250  -14.7660   20.9440 O   0  0  0  0  0  0  0  0  0  0  0  0
  -22.6720  -12.0970   22.5770 H   0  0  0  0  0  0  0  0  0  0  0  0
  -21.4100  -13.2910   22.6570 H   0  0  0  0  0  0  0  0  0  0  0  0
  -25.4640  -15.3660   20.3140 N   0  0  0  0  0  0  0  0  0  0  0  0
  -24.7490  -16.0380   20.5760 H   0  0  0  0  0  0  0  0  0  0  0  0
  -26.2770  -15.7950   19.8920 H   0  0  0  0  0  0  0  0  0  0  0  0
  -28.9450  -21.6910   19.7750 C   0  0  0  0  0  2  0  0  0  0  0  0
  -28.6200  -23.1730   20.5460 C   0  0  0  0  0  2  0  0  0  0  0  0
  -28.0390  -24.5950   19.8290 C   0  0  0  0  0  2  0  0  0  0  0  0
  -28.2310  -26.1000   20.2390 O   0  0  0  0  0  0  0  0  0  0  0  0
  -24.7010  -31.8750   23.1720 C   0  0  0  0  0  0  0  0  0  0  0  0
  -27.2060  -27.1130   20.1300 C   0  0  0  0  0  0  0  0  0  0  0  0
  -23.4860  -30.4740   21.5560 C   0  0  0  0  0  3  0  0  0  0  0  0
  -24.9080  -28.9010   20.1150 C   0  0  0  0  0  0  0  0  0  0  0  0
  -26.0400  -30.7250   21.3690 C   0  0  0  0  0  2  0  0  0  0  0  0
  -26.0980  -29.3270   20.7190 C   0  0  0  0  0  0  0  0  0  0  0  0
  -27.2430  -28.4470   20.7180 C   0  0  0  0  0  3  0  0  0  0  0  0
  -26.0010  -26.8150   19.4530 C   0  0  0  0  0  3  0  0  0  0  0  0
  -24.8770  -27.6630   19.4630 C   0  0  0  0  0  3  0  0  0  0  0  0
  -23.6900  -29.8010   20.1740 C   0  0  0  0  0  2  0  0  0  0  0  0
  -24.7640  -31.0470   22.0850 N   0  0  0  0  0  0  0  0  0  0  0  0
  -23.6210  -32.1610   23.7130 O   0  0  0  0  0  0  0  0  0  0  0  0
  -22.8170  -29.4680   22.5300 C   0  0  0  0  0  0  0  0  0  0  0  0
  -21.4890  -29.2930   22.4150 N   0  0  0  0  0  0  0  0  0  0  0  0
  -23.4950  -28.8510   23.3540 O   0  0  0  0  0  0  0  0  0  0  0  0
  -20.9970  -29.8380   21.7200 H   0  0  0  0  0  0  0  0  0  0  0  0
  -18.1100  -28.1030   22.9630 C   0  0  0  0  0  0  0  0  0  0  0  0
  -20.6740  -28.3670   23.2070 C   0  0  0  0  0  3  0  0  0  0  0  0
  -20.7710  -26.9310   22.6390 C   0  0  0  0  0  2  0  0  0  0  0  0
  -19.6570  -26.6040   21.6390 C   0  0  0  0  0  2  0  0  0  0  0  0
  -18.2810  -26.7510   22.2890 C   0  0  0  0  0  2  0  0  0  0  0  0
  -19.2320  -28.8690   23.3780 C   0  0  0  0  0  0  0  0  0  0  0  0
  -19.0110  -30.1370   23.9640 C   0  0  0  0  0  3  0  0  0  0  0  0
  -17.7060  -30.6330   24.1400 C   0  0  0  0  0  3  0  0  0  0  0  0
  -16.6000  -29.8640   23.7400 C   0  0  0  0  0  3  0  0  0  0  0  0
  -16.8050  -28.6020   23.1520 C   0  0  0  0  0  3  0  0  0  0  0  0
  -25.9870  -32.5120   23.7810 C   0  0  0  0  0  3  0  0  0  0  0  0
  -26.5270  -31.7300   25.0400 C   0  0  1  0  0  0  0  0  0  0  0  0
  -25.4520  -31.4670   26.1230 C   0  0  0  0  0  1  0  0  0  0  0  0
  -27.1140  -30.3600   24.6270 C   0  0  0  0  0  1  0  0  0  0  0  0
  -27.6890  -32.5230   25.6840 C   0  0  0  0  0  1  0  0  0  0  0  0
  -25.6690  -33.9060   24.1320 N   0  0  0  0  0  0  0  0  0  0  0  0
  -25.9840  -34.9720   23.3820 C   0  0  0  0  0  0  0  0  0  0  0  0
  -26.6320  -34.8830   22.3360 O   0  0  0  0  0  0  0  0  0  0  0  0
  -25.0730  -34.0450   24.9340 H   0  0  0  0  0  0  0  0  0  0  0  0
  -24.2390  -36.7660   23.0940 C   0  0  0  0  0  1  0  0  0  0  0  0
  -25.5030  -36.3550   23.8660 C   0  0  0  0  0  3  0  0  0  0  0  0
  -27.6560  -37.2470   24.6450 C   0  0  0  0  0  1  0  0  0  0  0  0
  -26.5270  -37.4150   23.7340 N   0  0  0  0  0  0  0  0  0  0  0  0
  -26.1200  -38.3320   23.8990 H   0  0  0  0  0  0  0  0  0  0  0  0
  1  3  1  0
  1  2  1  0
  4  1  1  0
  5 17  1  0
  6 11  1  0
  7  8  1  0
  7  6  1  0
  9  8  1  0
  9 21  1  0
  9 10  1  0
 11  5  1  0
 11 10  1  0
 12  5  2  0
 14 13  1  0
 15 13  1  0
 16  4  1  0
 16 14  1  0
 17 16  1  0
 17 15  1  0
 18 19  2  0
 19 38  1  0
 20 19  1  0
 20 23  1  0
 21 22  1  0
 21 18  1  0
 22 20  2  0
 23 24  1  0
 24 25  2  0
 26 29  1  0
 26 25  1  0
 27 26  2  0
 28 27  1  0
 28 23  2  0
 29 30  1  0
 30 31  1  0
 31 32  2  0
 33 32  1  0
 33 37  1  0
 34 33  2  0
 35 30  2  0
 35 34  1  0
 36 35  1  0
 38 39  1  0
 39 41  1  0
 39 42  1  0
 40 38  2  0
 43 18  1  0
 43 44  1  0
 45 43  1  0
 46  1  1  0
 46 47  1  0
 48 49  1  0
 48 47  1  0
 50 61  2  0
 51 49  1  0
 51 56  1  0
 52 60  1  0
 52 62  1  0
 53 59  1  0
 53 55  1  0
 54 60  1  0
 55 54  1  0
 56 55  2  0
 57 58  1  0
 57 51  2  0
 58 53  2  0
 59 52  1  0
 60 50  1  0
 62 64  2  0
 63 62  1  0
 65 63  1  0
 66 75  2  0
 66 71  1  0
 67 63  1  0
 67 71  1  0
 68 67  1  0
 69 70  1  0
 69 68  1  0
 70 66  1  0
 71 72  2  0
 72 73  1  0
 74 73  2  0
 75 74  1  0
 76 50  1  0
 76 81  1  0
 76 77  1  0
 77 80  1  1
 77 78  1  0
 79 77  1  0
 81 84  1  0
 82 86  1  0
 82 81  1  0
 83 82  2  0
 86 85  1  0
 88 86  1  0
 88 89  1  0
 88 87  1  0
M  ISO  4   5 100  17 100  48 101  49 101
M  END
>  <TORSDO>  (29) 
F 20

>  <SCORE>  (29) 
-12.932

>  <name>  (29) 
31

>  <ligand_id>  (29) 
31

>  <original_smiles>  (29) 
[H]c1c([H])c([H])c2c(c1[H])C([H])([H])C([H])([H])C([H])([H])C2([H])N([H])C(=O)C1([H])N(C(=O)C([H])(N([H])C(=O)C([H])(N([H])C([H])([H])[H])C([H])([H])[H])C(C([H])([H])[H])(C([H])([H])[H])C([H])([H])[H])C([H])([H])c2c([H])c(OC([H])([H])C([H])([H])C([H])([H])[N+]([H])([H])C([H])([H])C3([H])N(C(=O)N4C([H])([H])C([H])([H])C([H])([H])C([H])(n5nc(-c6c([H])c([H])c(Oc7c([H])c([H])c(F)c([H])c7F)c([H])c6[H])c(C(=O)N([H])[H])c5N([H])[H])C4([H])[H])C([H])([H])C([H])([H])C3([H])[H])c([H])c([H])c2C1([H])[H]

>  <smiles>  (29) 
[H]c1c([H])c([H])c2c(c1[H])C([H])([H])C([H])([H])C([H])([H])C2([H])N([H])C(=O)C1([H])N(C(=O)C([H])(N([H])C(=O)C([H])(N([H])C([H])([H])[H])C([H])([H])[H])C(C([H])([H])[H])(C([H])([H])[H])C([H])([H])[H])C([H])([H])c2c([H])c(OC([H])([H])C([H])([H])C([H])([H])[N+]([H])([H])C([H])([H])C3([H])N(C(=O)N4C([H])([H])C([H])([H])C([H])([H])C([H])(n5nc(-c6c([H])c([H])c(Oc7c([H])c([H])c(F)c([H])c7F)c([H])c6[H])c(C(=O)N([H])[H])c5N([H])[H])C4([H])[H])C([H])([H])C([H])([H])C3([H])[H])c([H])c([H])c2C1([H])[H]

$$$$
32:0:0
     RDKit          3D

 91 99  0  0  1  0  0  0  0  0999 V2000
  -28.8980  -21.1080   19.7780 N   0  0  0  0  0  0  0  0  0  0  0  0
  -30.4550  -15.3680   19.8520 C   0  0  0  0  0  0  0  0  0  0  0  0
  -30.3310  -12.9270   18.9410 C   0  0  0  0  0  2  0  0  0  0  0  0
  -29.3360  -12.7200   17.7730 C   0  0  0  0  0  2  0  0  0  0  0  0
  -27.9240  -12.4380   18.3080 C   0  0  0  0  0  2  0  0  0  0  0  0
  -27.5470  -13.3880   19.4710 C   0  0  0  0  0  3  0  0  0  0  0  0
  -28.6700  -13.5400   20.5230 C   0  0  0  0  0  2  0  0  0  0  0  0
  -29.8460  -14.0720   19.8090 N   0  0  0  0  0  0  0  0  0  0  0  0
  -31.6460  -15.3120   19.5040 O   0  0  0  0  0  0  0  0  0  0  0  0
  -28.1210  -18.6060   20.5820 C   0  0  0  0  0  2  0  0  0  0  0  0
  -28.5840  -17.0740   20.7710 C   0  0  0  0  0  2  0  0  0  0  0  0
  -30.1570  -18.2450   19.6000 C   0  0  0  0  0  2  0  0  0  0  0  0
  -29.3050  -19.5810   20.3050 C   0  0  0  0  0  3  0  0  0  0  0  0
  -29.7890  -16.7130   19.9880 N   0  0  0  0  0  0  0  0  0  0  0  0
  -25.2380  -13.9270   20.4070 C   0  0  0  0  0  0  0  0  0  0  0  0
  -24.2020  -13.1440   20.8300 C   0  0  0  0  0  0  0  0  0  0  0  0
  -24.6560  -11.7940   20.7210 C   0  0  0  0  0  0  0  0  0  0  0  0
  -26.2580  -13.0570   20.0660 N   0  0  0  0  0  0  0  0  0  0  0  0
  -25.9240  -11.7650   20.3190 N   0  0  0  0  0  0  0  0  0  0  0  0
  -23.9330  -10.5310   20.9170 C   0  0  0  0  0  0  0  0  0  0  0  0
  -24.3860   -9.5520   21.8290 C   0  0  0  0  0  3  0  0  0  0  0  0
  -23.6570   -8.3580   22.0170 C   0  0  0  0  0  3  0  0  0  0  0  0
  -22.4630   -8.1330   21.2920 C   0  0  0  0  0  0  0  0  0  0  0  0
  -22.0290   -9.1000   20.3690 C   0  0  0  0  0  3  0  0  0  0  0  0
  -22.7570  -10.2870   20.1800 C   0  0  0  0  0  3  0  0  0  0  0  0
  -21.7040   -6.9920   21.3910 O   0  0  0  0  0  0  0  0  0  0  0  0
  -21.6430   -6.2670   22.5550 C   0  0  0  0  0  0  0  0  0  0  0  0
  -21.1720   -6.8300   23.7600 C   0  0  0  0  0  3  0  0  0  0  0  0
  -21.0610   -6.0300   24.9150 C   0  0  0  0  0  3  0  0  0  0  0  0
  -21.4100   -4.6670   24.8650 C   0  0  0  0  0  0  0  0  0  0  0  0
  -21.8730   -4.1030   23.6630 C   0  0  0  0  0  3  0  0  0  0  0  0
  -21.9860   -4.9000   22.5110 C   0  0  0  0  0  0  0  0  0  0  0  0
  -22.4140   -4.3460   21.3510 F   0  0  0  0  0  0  0  0  0  0  0  0
  -21.2960   -3.8970   25.9720 F   0  0  0  0  0  0  0  0  0  0  0  0
  -22.8320  -13.6210   21.2080 C   0  0  0  0  0  0  0  0  0  0  0  0
  -22.1600  -12.9080   22.1030 N   0  0  0  0  0  0  0  0  0  0  0  0
  -22.3690  -14.6660   20.7470 O   0  0  0  0  0  0  0  0  0  0  0  0
  -22.5490  -12.0640   22.4980 H   0  0  0  0  0  0  0  0  0  0  0  0
  -21.2420  -13.2090   22.4000 H   0  0  0  0  0  0  0  0  0  0  0  0
  -25.3830  -15.3000   20.2520 N   0  0  0  0  0  0  0  0  0  0  0  0
  -24.6160  -15.9410   20.4220 H   0  0  0  0  0  0  0  0  0  0  0  0
  -26.1820  -15.7470   19.8230 H   0  0  0  0  0  0  0  0  0  0  0  0
  -28.9680  -21.1650   18.3190 C   0  0  0  0  0  2  0  0  0  0  0  0
  -30.3800  -21.5470   17.8270 C   0  0  0  0  0  2  0  0  0  0  0  0
  -30.4920  -21.4790   16.3610 N   0  0  0  0  0  4  0  0  0  0  0  0
  -30.3190  -20.5470   16.0300 H   0  0  0  0  0  0  0  0  0  0  0  0
  -31.4190  -21.7440   16.0800 H   0  0  0  0  0  0  0  0  0  0  0  0
  -29.8410  -22.1060   15.9250 H   0  0  0  0  0  0  0  0  0  0  0  0
  -28.8780  -22.6530   20.3950 C   0  0  0  0  0  3  0  0  0  0  0  0
  -28.0490  -24.2210   19.9400 C   0  0  0  0  0  3  0  0  0  0  0  0
  -28.1860  -25.8360   20.3270 O   0  0  0  0  0  0  0  0  0  0  0  0
  -24.6250  -31.8510   23.2220 C   0  0  0  0  0  0  0  0  0  0  0  0
  -27.1840  -26.9470   20.2240 C   0  0  0  0  0  0  0  0  0  0  0  0
  -23.4360  -30.4580   21.5770 C   0  0  0  0  0  3  0  0  0  0  0  0
  -24.8900  -28.8460   20.1610 C   0  0  0  0  0  0  0  0  0  0  0  0
  -26.0040  -30.6570   21.4470 C   0  0  0  0  0  2  0  0  0  0  0  0
  -26.0740  -29.2450   20.7910 C   0  0  0  0  0  0  0  0  0  0  0  0
  -27.2130  -28.3160   20.7990 C   0  0  0  0  0  3  0  0  0  0  0  0
  -25.9720  -26.7090   19.5370 C   0  0  0  0  0  3  0  0  0  0  0  0
  -24.8650  -27.5990   19.5120 C   0  0  0  0  0  3  0  0  0  0  0  0
  -23.6730  -29.7720   20.2020 C   0  0  0  0  0  2  0  0  0  0  0  0
  -24.7100  -31.0170   22.1360 N   0  0  0  0  0  0  0  0  0  0  0  0
  -23.5340  -32.1440   23.7370 O   0  0  0  0  0  0  0  0  0  0  0  0
  -22.7320  -29.4660   22.5400 C   0  0  0  0  0  0  0  0  0  0  0  0
  -21.4040  -29.2940   22.3980 N   0  0  0  0  0  0  0  0  0  0  0  0
  -23.3890  -28.8510   23.3830 O   0  0  0  0  0  0  0  0  0  0  0  0
  -20.9270  -29.8420   21.6970 H   0  0  0  0  0  0  0  0  0  0  0  0
  -18.0250  -28.0550   22.8590 C   0  0  0  0  0  0  0  0  0  0  0  0
  -20.5770  -28.3560   23.1650 C   0  0  0  0  0  3  0  0  0  0  0  0
  -20.7040  -26.9190   22.6080 C   0  0  0  0  0  2  0  0  0  0  0  0
  -19.6250  -26.5730   21.5770 C   0  0  0  0  0  2  0  0  0  0  0  0
  -18.2310  -26.7030   22.1960 C   0  0  0  0  0  2  0  0  0  0  0  0
  -19.1270  -28.8370   23.3000 C   0  0  0  0  0  0  0  0  0  0  0  0
  -18.8790  -30.0980   23.8840 C   0  0  0  0  0  3  0  0  0  0  0  0
  -17.5640  -30.5800   24.0280 C   0  0  0  0  0  3  0  0  0  0  0  0
  -16.4780  -29.7970   23.6020 C   0  0  0  0  0  3  0  0  0  0  0  0
  -16.7100  -28.5360   23.0240 C   0  0  0  0  0  3  0  0  0  0  0  0
  -25.8930  -32.4920   23.8620 C   0  0  0  0  0  3  0  0  0  0  0  0
  -25.5850  -33.9010   24.1690 N   0  0  0  0  0  0  0  0  0  0  0  0
  -25.9110  -34.9450   23.3960 C   0  0  0  0  0  0  0  0  0  0  0  0
  -26.5660  -34.8230   22.3560 O   0  0  0  0  0  0  0  0  0  0  0  0
  -25.0030  -34.0680   24.9760 H   0  0  0  0  0  0  0  0  0  0  0  0
  -24.1720  -36.7380   23.0720 C   0  0  0  0  0  1  0  0  0  0  0  0
  -25.4420  -36.3440   23.8430 C   0  0  0  0  0  3  0  0  0  0  0  0
  -27.5990  -37.2570   24.5870 C   0  0  0  0  0  1  0  0  0  0  0  0
  -26.4700  -37.3950   23.6710 N   0  0  0  0  0  0  0  0  0  0  0  0
  -26.0660  -38.3190   23.8030 H   0  0  0  0  0  0  0  0  0  0  0  0
  -26.3700  -31.7460   25.1700 C   0  0  1  0  0  0  0  0  0  0  0  0
  -25.2500  -31.5450   26.2170 C   0  0  0  0  0  1  0  0  0  0  0  0
  -26.9490  -30.3530   24.8340 C   0  0  0  0  0  1  0  0  0  0  0  0
  -27.5140  -32.5440   25.8420 C   0  0  0  0  0  1  0  0  0  0  0  0
  1 49  1  0
  2 14  1  0
  3  8  1  0
  4  5  1  0
  4  3  1  0
  6  5  1  0
  6 18  1  0
  6  7  1  0
  8  2  1  0
  8  7  1  0
  9  2  2  0
 10 11  1  0
 12 14  1  0
 12 13  1  0
 13  1  1  0
 13 10  1  0
 14 11  1  0
 15 16  2  0
 16 35  1  0
 17 16  1  0
 17 20  1  0
 18 19  1  0
 18 15  1  0
 19 17  2  0
 20 21  1  0
 21 22  2  0
 23 26  1  0
 23 22  1  0
 24 23  2  0
 25 24  1  0
 25 20  2  0
 26 27  1  0
 27 28  1  0
 28 29  2  0
 30 29  1  0
 30 34  1  0
 31 30  2  0
 32 27  2  0
 32 31  1  0
 33 32  1  0
 35 36  1  0
 36 39  1  0
 36 38  1  0
 37 35  2  0
 40 15  1  0
 40 41  1  0
 42 40  1  0
 43  1  1  0
 44 43  1  0
 45 44  1  0
 46 45  1  0
 47 45  1  0
 48 45  1  0
 50 51  1  0
 50 49  2  0
 52 63  2  0
 53 51  1  0
 53 58  1  0
 54 62  1  0
 54 64  1  0
 55 61  1  0
 55 57  1  0
 56 62  1  0
 57 58  2  0
 57 56  1  0
 59 53  2  0
 60 59  1  0
 60 55  2  0
 61 54  1  0
 62 52  1  0
 64 66  2  0
 65 64  1  0
 67 65  1  0
 68 77  2  0
 68 73  1  0
 69 65  1  0
 69 73  1  0
 70 69  1  0
 71 72  1  0
 71 70  1  0
 72 68  1  0
 73 74  2  0
 74 75  1  0
 76 75  2  0
 77 76  1  0
 78 52  1  0
 78 79  1  0
 78 88  1  0
 79 82  1  0
 80 84  1  0
 80 79  1  0
 81 80  2  0
 84 83  1  0
 86 87  1  0
 86 84  1  0
 86 85  1  0
 88 91  1  1
 88 89  1  0
 90 88  1  0
M  ISO  4   2 100  14 100  50 101  51 101
M  END
>  <TORSDO>  (30) 
F 21

>  <SCORE>  (30) 
-14.523

>  <name>  (30) 
32

>  <ligand_id>  (30) 
32

>  <original_smiles>  (30) 
[H]c1c([H])c([H])c2c(c1[H])C([H])([H])C([H])([H])C([H])([H])C2([H])N([H])C(=O)C1([H])N(C(=O)C([H])(N([H])C(=O)C([H])(N([H])C([H])([H])[H])C([H])([H])[H])C(C([H])([H])[H])(C([H])([H])[H])C([H])([H])[H])C([H])([H])c2c([H])c(OC([H])([H])C([H])([H])N(C([H])([H])C([H])([H])[N+]([H])([H])[H])C3([H])C([H])([H])N(C(=O)N4C([H])([H])C([H])([H])C([H])([H])C([H])(n5nc(-c6c([H])c([H])c(Oc7c([H])c([H])c(F)c([H])c7F)c([H])c6[H])c(C(=O)N([H])[H])c5N([H])[H])C4([H])[H])C([H])([H])C3([H])[H])c([H])c([H])c2C1([H])[H]

>  <smiles>  (30) 
[H]c1c([H])c([H])c2c(c1[H])C([H])([H])C([H])([H])C([H])([H])C2([H])N([H])C(=O)C1([H])N(C(=O)C([H])(N([H])C(=O)C([H])(N([H])C([H])([H])[H])C([H])([H])[H])C(C([H])([H])[H])(C([H])([H])[H])C([H])([H])[H])C([H])([H])c2c([H])c(OC([H])([H])C([H])([H])N(C([H])([H])C([H])([H])[N+]([H])([H])[H])C3([H])C([H])([H])N(C(=O)N4C([H])([H])C([H])([H])C([H])([H])C([H])(n5nc(-c6c([H])c([H])c(Oc7c([H])c([H])c(F)c([H])c7F)c([H])c6[H])c(C(=O)N([H])[H])c5N([H])[H])C4([H])[H])C([H])([H])C3([H])[H])c([H])c([H])c2C1([H])[H]

$$$$
33:0:0
     RDKit          3D

 95104  0  0  1  0  0  0  0  0999 V2000
  -28.7580  -21.9040   19.0310 C   0  0  0  0  0  2  0  0  0  0  0  0
  -29.3100  -21.8380   21.3630 C   0  0  0  0  0  2  0  0  0  0  0  0
  -27.9830  -23.3730   19.2400 C   0  0  0  0  0  2  0  0  0  0  0  0
  -29.3190  -23.4860   21.2100 C   0  0  0  0  0  2  0  0  0  0  0  0
  -28.8870  -20.8020   20.1930 C   0  0  0  0  0  3  0  0  0  0  0  0
  -28.1140  -24.3310   20.5510 C   0  0  1  0  0  0  0  0  0  0  0  0
  -28.2830  -25.9350   20.4070 O   0  0  0  0  0  0  0  0  0  0  0  0
  -24.5800  -31.7660   23.1600 C   0  0  0  0  0  0  0  0  0  0  0  0
  -27.2430  -26.9660   20.2630 C   0  0  0  0  0  0  0  0  0  0  0  0
  -23.4320  -30.3660   21.4810 C   0  0  0  0  0  3  0  0  0  0  0  0
  -24.9300  -28.7730   20.1090 C   0  0  0  0  0  0  0  0  0  0  0  0
  -25.9900  -30.6070   21.4090 C   0  0  0  0  0  2  0  0  0  0  0  0
  -26.0840  -29.2040   20.7700 C   0  0  0  0  0  0  0  0  0  0  0  0
  -27.2390  -28.3170   20.8260 C   0  0  0  0  0  3  0  0  0  0  0  0
  -26.0780  -26.6750   19.5170 C   0  0  0  0  0  3  0  0  0  0  0  0
  -24.9440  -27.5270   19.4600 C   0  0  0  0  0  3  0  0  0  0  0  0
  -23.7020  -29.6800   20.1120 C   0  0  0  0  0  2  0  0  0  0  0  0
  -24.6840  -30.9420   22.0700 N   0  0  0  0  0  0  0  0  0  0  0  0
  -23.4760  -32.0550   23.6530 O   0  0  0  0  0  0  0  0  0  0  0  0
  -22.7130  -29.3710   22.4270 C   0  0  0  0  0  0  0  0  0  0  0  0
  -21.3840  -29.2300   22.2830 N   0  0  0  0  0  0  0  0  0  0  0  0
  -23.3620  -28.7260   23.2530 O   0  0  0  0  0  0  0  0  0  0  0  0
  -20.9150  -29.8020   21.5940 H   0  0  0  0  0  0  0  0  0  0  0  0
  -17.9660  -28.1300   22.7850 C   0  0  0  0  0  0  0  0  0  0  0  0
  -20.5370  -28.3000   23.0360 C   0  0  0  0  0  3  0  0  0  0  0  0
  -20.5840  -26.8820   22.4200 C   0  0  0  0  0  2  0  0  0  0  0  0
  -19.4640  -26.6280   21.4030 C   0  0  0  0  0  2  0  0  0  0  0  0
  -18.0930  -26.7980   22.0630 C   0  0  0  0  0  2  0  0  0  0  0  0
  -19.1140  -28.8410   23.2280 C   0  0  0  0  0  0  0  0  0  0  0  0
  -18.9410  -30.0910   23.8630 C   0  0  0  0  0  3  0  0  0  0  0  0
  -17.6530  -30.6280   24.0580 C   0  0  0  0  0  3  0  0  0  0  0  0
  -16.5220  -29.9150   23.6250 C   0  0  0  0  0  3  0  0  0  0  0  0
  -16.6790  -28.6670   22.9980 C   0  0  0  0  0  3  0  0  0  0  0  0
  -25.8350  -32.4020   23.8320 C   0  0  0  0  0  3  0  0  0  0  0  0
  -25.5090  -33.7960   24.1750 N   0  0  0  0  0  0  0  0  0  0  0  0
  -25.8270  -34.8640   23.4280 C   0  0  0  0  0  0  0  0  0  0  0  0
  -26.4940  -34.7800   22.3950 O   0  0  0  0  0  0  0  0  0  0  0  0
  -24.9190  -33.9340   24.9820 H   0  0  0  0  0  0  0  0  0  0  0  0
  -24.0720  -36.6370   23.1140 C   0  0  0  0  0  1  0  0  0  0  0  0
  -25.3310  -36.2450   23.9030 C   0  0  0  0  0  3  0  0  0  0  0  0
  -27.4670  -37.1500   24.7100 C   0  0  0  0  0  1  0  0  0  0  0  0
  -26.3510  -37.3110   23.7830 N   0  0  0  0  0  0  0  0  0  0  0  0
  -25.9390  -38.2260   23.9440 H   0  0  0  0  0  0  0  0  0  0  0  0
  -26.3140  -31.6200   25.1180 C   0  0  1  0  0  0  0  0  0  0  0  0
  -25.1860  -31.3580   26.1430 C   0  0  0  0  0  1  0  0  0  0  0  0
  -26.9220  -30.2510   24.7340 C   0  0  0  0  0  1  0  0  0  0  0  0
  -27.4330  -32.4140   25.8320 C   0  0  0  0  0  1  0  0  0  0  0  0
  -29.7420  -19.2670   20.1690 C   0  0  0  0  0  2  0  0  0  0  0  0
  -29.6150  -17.7380   19.3260 C   0  0  0  0  0  2  0  0  0  0  0  0
  -30.4120  -15.0210   19.1750 C   0  0  0  0  0  0  0  0  0  0  0  0
  -29.9750  -12.7380   18.0780 C   0  0  0  0  0  2  0  0  0  0  0  0
  -28.8320  -12.7700   17.0340 C   0  0  0  0  0  2  0  0  0  0  0  0
  -27.4710  -12.5380   17.7060 C   0  0  0  0  0  2  0  0  0  0  0  0
  -27.3130  -13.3850   18.9910 C   0  0  0  0  0  3  0  0  0  0  0  0
  -28.5520  -13.3480   19.9040 C   0  0  0  0  0  2  0  0  0  0  0  0
  -29.7190  -13.7900   19.1220 N   0  0  0  0  0  0  0  0  0  0  0  0
  -31.4600  -15.0570   18.5180 O   0  0  0  0  0  0  0  0  0  0  0  0
  -29.9360  -16.2250   19.8450 N   0  0  0  0  0  0  0  0  0  0  0  0
  -25.1240  -13.9430   20.1840 C   0  0  0  0  0  0  0  0  0  0  0  0
  -24.1400  -13.1610   20.7200 C   0  0  0  0  0  0  0  0  0  0  0  0
  -24.5790  -11.8090   20.5670 C   0  0  0  0  0  0  0  0  0  0  0  0
  -26.0930  -13.0690   19.7240 N   0  0  0  0  0  0  0  0  0  0  0  0
  -25.7910  -11.7790   20.0210 N   0  0  0  0  0  0  0  0  0  0  0  0
  -23.8860  -10.5470   20.8510 C   0  0  0  0  0  0  0  0  0  0  0  0
  -24.3990   -9.6150   21.7790 C   0  0  0  0  0  3  0  0  0  0  0  0
  -23.7030   -8.4150   22.0490 C   0  0  0  0  0  3  0  0  0  0  0  0
  -22.4790   -8.1420   21.3940 C   0  0  0  0  0  0  0  0  0  0  0  0
  -21.9860   -9.0620   20.4510 C   0  0  0  0  0  3  0  0  0  0  0  0
  -22.6830  -10.2510   20.1790 C   0  0  0  0  0  3  0  0  0  0  0  0
  -21.7460   -6.9940   21.5750 O   0  0  0  0  0  0  0  0  0  0  0  0
  -21.7240   -6.3370   22.7780 C   0  0  0  0  0  0  0  0  0  0  0  0
  -21.2950   -6.9680   23.9660 C   0  0  0  0  0  3  0  0  0  0  0  0
  -21.2230   -6.2330   25.1670 C   0  0  0  0  0  3  0  0  0  0  0  0
  -21.5690   -4.8690   25.1810 C   0  0  0  0  0  0  0  0  0  0  0  0
  -21.9900   -4.2370   23.9980 C   0  0  0  0  0  3  0  0  0  0  0  0
  -22.0660   -4.9700   22.7990 C   0  0  0  0  0  0  0  0  0  0  0  0
  -22.4530   -4.3500   21.6580 F   0  0  0  0  0  0  0  0  0  0  0  0
  -21.4910   -4.1610   26.3320 F   0  0  0  0  0  0  0  0  0  0  0  0
  -22.8190  -13.6370   21.2490 C   0  0  0  0  0  0  0  0  0  0  0  0
  -22.2780  -12.9500   22.2490 N   0  0  0  0  0  0  0  0  0  0  0  0
  -22.2830  -14.6540   20.8090 O   0  0  0  0  0  0  0  0  0  0  0  0
  -22.7330  -12.1320   22.6250 H   0  0  0  0  0  0  0  0  0  0  0  0
  -21.3950  -13.2450   22.6410 H   0  0  0  0  0  0  0  0  0  0  0  0
  -25.2700  -15.3170   20.0240 N   0  0  0  0  0  0  0  0  0  0  0  0
  -24.5490  -15.9740   20.3000 H   0  0  0  0  0  0  0  0  0  0  0  0
  -26.0680  -15.7650   19.5880 H   0  0  0  0  0  0  0  0  0  0  0  0
  -30.3060  -16.3420   21.2710 C   0  0  0  0  0  2  0  0  0  0  0  0
  -32.0960  -14.5010   21.9420 C   0  0  0  0  0  2  0  0  0  0  0  0
  -31.6920  -15.2200   23.2090 C   0  0  0  0  0  2  0  0  0  0  0  0
  -30.7150  -15.1030   22.0660 C   0  0  0  0  0  3  0  0  0  0  0  0
  -26.9150  -24.2160   21.5490 C   0  0  0  0  0  2  0  0  0  0  0  0
  -26.3560  -22.8650   21.7580 N   0  0  0  0  0  4  0  0  0  0  0  0
  -25.7000  -22.8890   22.5210 H   0  0  0  0  0  0  0  0  0  0  0  0
  -27.0790  -22.2030   21.9860 H   0  0  0  0  0  0  0  0  0  0  0  0
  -25.8590  -22.5550   20.9410 H   0  0  0  0  0  0  0  0  0  0  0  0
  1  3  1  0
  1  5  1  0
  3  6  1  0
  4  2  1  0
  5 48  1  0
  5  2  1  0
  6  4  1  0
  6 91  1  1
  7  6  1  0
  8 19  2  0
  9  7  1  0
  9 14  1  0
 10 18  1  0
 10 20  1  0
 11 17  1  0
 11 13  1  0
 12 18  1  0
 13 14  2  0
 13 12  1  0
 15  9  2  0
 16 15  1  0
 16 11  2  0
 17 10  1  0
 18  8  1  0
 20 22  2  0
 21 20  1  0
 23 21  1  0
 24 33  2  0
 24 29  1  0
 25 21  1  0
 25 29  1  0
 26 25  1  0
 27 28  1  0
 27 26  1  0
 28 24  1  0
 29 30  2  0
 30 31  1  0
 32 31  2  0
 33 32  1  0
 34  8  1  0
 34 35  1  0
 34 44  1  0
 35 38  1  0
 36 40  1  0
 36 35  1  0
 37 36  2  0
 40 39  1  0
 42 40  1  0
 42 43  1  0
 42 41  1  0
 44 47  1  1
 44 45  1  0
 46 44  1  0
 49 58  1  0
 49 48  1  0
 50 58  1  0
 51 56  1  0
 52 53  1  0
 52 51  1  0
 54 53  1  0
 54 62  1  0
 54 55  1  0
 56 50  1  0
 56 55  1  0
 57 50  2  0
 58 87  1  0
 59 60  2  0
 60 79  1  0
 61 60  1  0
 61 64  1  0
 62 63  1  0
 62 59  1  0
 63 61  2  0
 64 65  1  0
 65 66  2  0
 67 70  1  0
 67 66  1  0
 68 67  2  0
 69 68  1  0
 69 64  2  0
 70 71  1  0
 71 76  2  0
 71 72  1  0
 72 73  2  0
 73 74  1  0
 74 78  1  0
 75 74  2  0
 76 75  1  0
 77 76  1  0
 79 80  1  0
 80 82  1  0
 80 83  1  0
 81 79  2  0
 84 59  1  0
 84 85  1  0
 86 84  1  0
 87 90  1  0
 88 90  1  0
 88 89  1  0
 90 89  1  0
 91 92  1  0
 92 94  1  0
 92 93  1  0
 95 92  1  0
M  ISO  4   6 101   7 101  50 100  58 100
M  END
>  <TORSDO>  (31) 
F 22

>  <SCORE>  (31) 
-8.620

>  <name>  (31) 
33

>  <ligand_id>  (31) 
33

>  <original_smiles>  (31) 
[H]c1c([H])c([H])c2c(c1[H])C([H])([H])C([H])([H])C([H])([H])C2([H])N([H])C(=O)C1([H])N(C(=O)C([H])(N([H])C(=O)C([H])(N([H])C([H])([H])[H])C([H])([H])[H])C(C([H])([H])[H])(C([H])([H])[H])C([H])([H])[H])C([H])([H])c2c([H])c(OC3(C([H])([H])[N+]([H])([H])[H])C([H])([H])C([H])([H])C([H])(C([H])([H])C([H])([H])N(C(=O)N4C([H])([H])C([H])([H])C([H])([H])C([H])(n5nc(-c6c([H])c([H])c(Oc7c([H])c([H])c(F)c([H])c7F)c([H])c6[H])c(C(=O)N([H])[H])c5N([H])[H])C4([H])[H])C([H])([H])C4([H])C([H])([H])C4([H])[H])C([H])([H])C3([H])[H])c([H])c([H])c2C1([H])[H]

>  <smiles>  (31) 
[H]c1c([H])c([H])c2c(c1[H])C([H])([H])C([H])([H])C([H])([H])C2([H])N([H])C(=O)C1([H])N(C(=O)C([H])(N([H])C(=O)C([H])(N([H])C([H])([H])[H])C([H])([H])[H])C(C([H])([H])[H])(C([H])([H])[H])C([H])([H])[H])C([H])([H])c2c([H])c(OC3(C([H])([H])[N+]([H])([H])[H])C([H])([H])C([H])([H])C([H])(C([H])([H])C([H])([H])N(C(=O)N4C([H])([H])C([H])([H])C([H])([H])C([H])(n5nc(-c6c([H])c([H])c(Oc7c([H])c([H])c(F)c([H])c7F)c([H])c6[H])c(C(=O)N([H])[H])c5N([H])[H])C4([H])[H])C([H])([H])C4([H])C([H])([H])C4([H])[H])C([H])([H])C3([H])[H])c([H])c([H])c2C1([H])[H]

$$$$
34:0:0
     RDKit          3D

 96104  0  0  1  0  0  0  0  0999 V2000
  -27.4760  -19.6410   18.8920 C   0  0  0  0  0  2  0  0  0  0  0  0
  -27.8380  -18.2450   19.4590 C   0  0  0  0  0  2  0  0  0  0  0  0
  -29.1030  -19.2130   21.4010 C   0  0  0  0  0  2  0  0  0  0  0  0
  -27.0360  -20.7010   19.9340 C   0  0  0  0  0  2  0  0  0  0  0  0
  -29.3230  -20.7180   20.9980 C   0  0  0  0  0  2  0  0  0  0  0  0
  -29.1840  -18.1850   20.2210 C   0  0  0  0  0  3  0  0  0  0  0  0
  -28.1420  -21.5160   20.5170 N   0  0  1  0  0  4  0  0  0  0  0  0
  -27.7320  -21.8970   21.3580 H   0  0  0  0  0  0  0  0  0  0  0  0
  -29.5840  -16.6990   20.6530 C   0  0  0  0  0  2  0  0  0  0  0  0
  -30.9720  -14.6610   20.0910 C   0  0  0  0  0  0  0  0  0  0  0  0
  -30.6450  -12.4480   19.0680 C   0  0  0  0  0  2  0  0  0  0  0  0
  -29.6830  -12.5730   17.8710 C   0  0  0  0  0  2  0  0  0  0  0  0
  -28.2180  -12.4780   18.3410 C   0  0  0  0  0  2  0  0  0  0  0  0
  -27.8980  -13.3550   19.5820 C   0  0  0  0  0  3  0  0  0  0  0  0
  -28.9820  -13.2190   20.6710 C   0  0  0  0  0  2  0  0  0  0  0  0
  -30.2670  -13.4980   20.0270 N   0  0  0  0  0  0  0  0  0  0  0  0
  -32.1900  -14.6380   19.9350 O   0  0  0  0  0  0  0  0  0  0  0  0
  -30.2980  -15.7900   19.6850 N   0  0  0  0  0  0  0  0  0  0  0  0
  -25.5310  -13.9760   20.3520 C   0  0  0  0  0  0  0  0  0  0  0  0
  -24.4660  -13.2130   20.7400 C   0  0  0  0  0  0  0  0  0  0  0  0
  -24.9140  -11.8560   20.7040 C   0  0  0  0  0  0  0  0  0  0  0  0
  -26.5630  -13.0870   20.1020 N   0  0  0  0  0  0  0  0  0  0  0  0
  -26.1980  -11.8070   20.3720 N   0  0  0  0  0  0  0  0  0  0  0  0
  -24.1790  -10.6010   20.9090 C   0  0  0  0  0  0  0  0  0  0  0  0
  -24.5980   -9.6500   21.8640 C   0  0  0  0  0  3  0  0  0  0  0  0
  -23.8660   -8.4580   22.0550 C   0  0  0  0  0  3  0  0  0  0  0  0
  -22.7030   -8.2060   21.2910 C   0  0  0  0  0  0  0  0  0  0  0  0
  -22.3050   -9.1470   20.3240 C   0  0  0  0  0  3  0  0  0  0  0  0
  -23.0360  -10.3310   20.1310 C   0  0  0  0  0  3  0  0  0  0  0  0
  -21.9480   -7.0630   21.3880 O   0  0  0  0  0  0  0  0  0  0  0  0
  -21.8480   -6.3650   22.5640 C   0  0  0  0  0  0  0  0  0  0  0  0
  -21.3710   -6.9660   23.7490 C   0  0  0  0  0  3  0  0  0  0  0  0
  -21.2180   -6.1950   24.9180 C   0  0  0  0  0  3  0  0  0  0  0  0
  -21.5340   -4.8220   24.9010 C   0  0  0  0  0  0  0  0  0  0  0  0
  -22.0080   -4.2210   23.7200 C   0  0  0  0  0  3  0  0  0  0  0  0
  -22.1610   -4.9900   22.5560 C   0  0  0  0  0  0  0  0  0  0  0  0
  -22.5980   -4.4040   21.4150 F   0  0  0  0  0  0  0  0  0  0  0  0
  -21.3790   -4.0780   26.0190 F   0  0  0  0  0  0  0  0  0  0  0  0
  -23.0770  -13.7000   21.0320 C   0  0  0  0  0  0  0  0  0  0  0  0
  -22.3680  -13.0120   21.9160 N   0  0  0  0  0  0  0  0  0  0  0  0
  -22.6370  -14.7240   20.5120 O   0  0  0  0  0  0  0  0  0  0  0  0
  -22.7400  -12.1770   22.3450 H   0  0  0  0  0  0  0  0  0  0  0  0
  -21.4380  -13.3160   22.1630 H   0  0  0  0  0  0  0  0  0  0  0  0
  -25.7030  -15.3470   20.1730 N   0  0  0  0  0  0  0  0  0  0  0  0
  -24.9400  -16.0060   20.2850 H   0  0  0  0  0  0  0  0  0  0  0  0
  -26.5480  -15.7710   19.8110 H   0  0  0  0  0  0  0  0  0  0  0  0
  -30.6820  -16.3610   18.3600 C   0  0  0  0  0  2  0  0  0  0  0  0
  -32.0630  -17.0700   18.3170 C   0  0  0  0  0  2  0  0  0  0  0  0
  -32.3080  -17.7690   17.0420 N   0  0  0  0  0  4  0  0  0  0  0  0
  -32.2470  -17.1430   16.2580 H   0  0  0  0  0  0  0  0  0  0  0  0
  -33.2370  -18.1540   17.0530 H   0  0  0  0  0  0  0  0  0  0  0  0
  -31.6610  -18.5240   16.9060 H   0  0  0  0  0  0  0  0  0  0  0  0
  -28.5140  -22.7290   19.6930 C   0  0  0  0  0  2  0  0  0  0  0  0
  -28.1480  -24.1400   20.2880 C   0  0  0  0  0  2  0  0  0  0  0  0
  -28.5580  -25.3200   19.3340 C   0  0  0  0  0  2  0  0  0  0  0  0
  -28.4650  -26.6880   19.8130 O   0  0  0  0  0  0  0  0  0  0  0  0
  -24.6210  -31.7380   23.0380 C   0  0  0  0  0  0  0  0  0  0  0  0
  -27.2790  -27.4060   19.7850 C   0  0  0  0  0  0  0  0  0  0  0  0
  -23.4110  -30.3720   21.3680 C   0  0  0  0  0  3  0  0  0  0  0  0
  -24.8650  -28.9010   19.8690 C   0  0  0  0  0  0  0  0  0  0  0  0
  -25.9280  -30.7730   21.1400 C   0  0  0  0  0  2  0  0  0  0  0  0
  -26.0250  -29.4200   20.4560 C   0  0  0  0  0  0  0  0  0  0  0  0
  -27.2320  -28.6820   20.4060 C   0  0  0  0  0  3  0  0  0  0  0  0
  -26.0990  -26.9130   19.1850 C   0  0  0  0  0  3  0  0  0  0  0  0
  -24.8990  -27.6500   19.2280 C   0  0  0  0  0  3  0  0  0  0  0  0
  -23.6090  -29.7400   19.9640 C   0  0  0  0  0  2  0  0  0  0  0  0
  -24.6720  -30.9760   21.9070 N   0  0  0  0  0  0  0  0  0  0  0  0
  -23.5440  -31.9720   23.6060 O   0  0  0  0  0  0  0  0  0  0  0  0
  -22.7930  -29.3110   22.3070 C   0  0  0  0  0  0  0  0  0  0  0  0
  -21.4680  -29.1130   22.1980 N   0  0  0  0  0  0  0  0  0  0  0  0
  -23.4990  -28.6690   23.0890 O   0  0  0  0  0  0  0  0  0  0  0  0
  -20.9560  -29.6830   21.5400 H   0  0  0  0  0  0  0  0  0  0  0  0
  -18.1260  -27.8320   22.7090 C   0  0  0  0  0  0  0  0  0  0  0  0
  -20.6820  -28.1380   22.9540 C   0  0  0  0  0  3  0  0  0  0  0  0
  -20.8070  -26.7270   22.3330 C   0  0  0  0  0  2  0  0  0  0  0  0
  -19.6990  -26.4100   21.3240 C   0  0  0  0  0  2  0  0  0  0  0  0
  -18.3230  -26.5070   21.9910 C   0  0  0  0  0  2  0  0  0  0  0  0
  -19.2350  -28.6050   23.1470 C   0  0  0  0  0  0  0  0  0  0  0  0
  -18.9980  -29.8440   23.7810 C   0  0  0  0  0  3  0  0  0  0  0  0
  -17.6870  -30.3100   23.9820 C   0  0  0  0  0  3  0  0  0  0  0  0
  -16.5930  -29.5370   23.5580 C   0  0  0  0  0  3  0  0  0  0  0  0
  -16.8140  -28.3000   22.9270 C   0  0  0  0  0  3  0  0  0  0  0  0
  -25.9050  -32.3730   23.6570 C   0  0  0  0  0  3  0  0  0  0  0  0
  -26.4640  -31.5660   24.8920 C   0  0  1  0  0  0  0  0  0  0  0  0
  -25.4040  -31.2730   25.9790 C   0  0  0  0  0  1  0  0  0  0  0  0
  -27.0610  -30.2130   24.4380 C   0  0  0  0  0  1  0  0  0  0  0  0
  -27.6180  -32.3550   25.5570 C   0  0  0  0  0  1  0  0  0  0  0  0
  -25.5740  -33.7510   24.0480 N   0  0  0  0  0  0  0  0  0  0  0  0
  -25.8750  -34.8390   23.3270 C   0  0  0  0  0  0  0  0  0  0  0  0
  -26.5320  -34.7900   22.2830 O   0  0  0  0  0  0  0  0  0  0  0  0
  -24.9840  -33.8600   24.8590 H   0  0  0  0  0  0  0  0  0  0  0  0
  -24.1090  -36.6170   23.0670 C   0  0  0  0  0  1  0  0  0  0  0  0
  -25.3660  -36.1980   23.8470 C   0  0  0  0  0  3  0  0  0  0  0  0
  -27.4930  -37.0900   24.6920 C   0  0  0  0  0  1  0  0  0  0  0  0
  -26.3780  -37.2750   23.7670 N   0  0  0  0  0  0  0  0  0  0  0  0
  -25.9550  -38.1790   23.9580 H   0  0  0  0  0  0  0  0  0  0  0  0
  1  2  1  0
  1  4  1  0
  2  6  1  0
  4  7  1  0
  5  3  1  0
  6  9  1  0
  6  3  1  0
  7  5  1  0
  7  8  1  1
 11 16  1  0
 12 13  1  0
 12 11  1  0
 14 13  1  0
 14 22  1  0
 14 15  1  0
 16 10  1  0
 16 15  1  0
 17 10  2  0
 18 10  1  0
 18  9  1  0
 19 20  2  0
 20 39  1  0
 21 20  1  0
 21 24  1  0
 22 19  1  0
 22 23  1  0
 23 21  2  0
 24 25  1  0
 25 26  2  0
 27 30  1  0
 27 26  1  0
 28 27  2  0
 29 28  1  0
 29 24  2  0
 30 31  1  0
 31 32  1  0
 32 33  2  0
 34 33  1  0
 34 38  1  0
 35 34  2  0
 36 31  2  0
 36 35  1  0
 37 36  1  0
 39 40  1  0
 40 43  1  0
 40 42  1  0
 41 39  2  0
 44 45  1  0
 44 19  1  0
 46 44  1  0
 47 18  1  0
 48 47  1  0
 49 51  1  0
 49 48  1  0
 50 49  1  0
 52 49  1  0
 53 54  1  0
 53  7  1  0
 55 56  1  0
 55 54  1  0
 57 68  2  0
 58 56  1  0
 58 63  1  0
 59 67  1  0
 59 69  1  0
 60 66  1  0
 60 62  1  0
 61 67  1  0
 62 61  1  0
 63 62  2  0
 64 65  1  0
 64 58  2  0
 65 60  2  0
 66 59  1  0
 67 57  1  0
 69 71  2  0
 70 69  1  0
 72 70  1  0
 73 82  2  0
 73 78  1  0
 74 70  1  0
 74 78  1  0
 75 74  1  0
 76 77  1  0
 76 75  1  0
 77 73  1  0
 78 79  2  0
 79 80  1  0
 81 80  2  0
 82 81  1  0
 83 57  1  0
 83 88  1  0
 83 84  1  0
 84 87  1  1
 84 85  1  0
 86 84  1  0
 88 91  1  0
 89 93  1  0
 89 88  1  0
 90 89  2  0
 93 92  1  0
 95 93  1  0
 95 96  1  0
 95 94  1  0
M  ISO  4  10 100  18 100  55 101  56 101
M  END
>  <TORSDO>  (32) 
F 23

>  <SCORE>  (32) 
-11.751

>  <name>  (32) 
34

>  <ligand_id>  (32) 
34

>  <original_smiles>  (32) 
[H]c1c([H])c([H])c2c(c1[H])C([H])([H])C([H])([H])C([H])([H])C2([H])N([H])C(=O)C1([H])N(C(=O)C([H])(N([H])C(=O)C([H])(N([H])C([H])([H])[H])C([H])([H])[H])C(C([H])([H])[H])(C([H])([H])[H])C([H])([H])[H])C([H])([H])c2c([H])c(OC([H])([H])C([H])([H])C([H])([H])[N+]3([H])C([H])([H])C([H])([H])C([H])([H])C([H])(C([H])([H])N(C(=O)N4C([H])([H])C([H])([H])C([H])([H])C([H])(n5nc(-c6c([H])c([H])c(Oc7c([H])c([H])c(F)c([H])c7F)c([H])c6[H])c(C(=O)N([H])[H])c5N([H])[H])C4([H])[H])C([H])([H])C([H])([H])[N+]([H])([H])[H])C([H])([H])C3([H])[H])c([H])c([H])c2C1([H])[H]

>  <smiles>  (32) 
[H]c1c([H])c([H])c2c(c1[H])C([H])([H])C([H])([H])C([H])([H])C2([H])N([H])C(=O)C1([H])N(C(=O)C([H])(N([H])C(=O)C([H])(N([H])C([H])([H])[H])C([H])([H])[H])C(C([H])([H])[H])(C([H])([H])[H])C([H])([H])[H])C([H])([H])c2c([H])c(OC([H])([H])C([H])([H])C([H])([H])[N+]3([H])C([H])([H])C([H])([H])C([H])([H])C([H])(C([H])([H])N(C(=O)N4C([H])([H])C([H])([H])C([H])([H])C([H])(n5nc(-c6c([H])c([H])c(Oc7c([H])c([H])c(F)c([H])c7F)c([H])c6[H])c(C(=O)N([H])[H])c5N([H])[H])C4([H])[H])C([H])([H])C([H])([H])[N+]([H])([H])[H])C([H])([H])C3([H])[H])c([H])c([H])c2C1([H])[H]

$$$$
35:0:0
     RDKit          3D

 99108  0  0  1  0  0  0  0  0999 V2000
  -29.3070  -16.9770   21.1090 C   0  0  0  0  0  3  0  0  0  0  0  0
  -30.2370  -16.4990   20.2540 C   0  0  0  0  0  0  0  0  0  0  0  0
  -29.1110  -18.4300   21.5220 C   0  0  0  0  0  2  0  0  0  0  0  0
  -32.3010  -17.9040   20.5830 C   0  0  0  0  0  2  0  0  0  0  0  0
  -31.6600  -18.7580   21.7100 C   0  0  0  0  0  2  0  0  0  0  0  0
  -30.5570  -18.6790   18.9050 C   0  0  0  0  0  2  0  0  0  0  0  0
  -31.2410  -17.4330   19.5580 C   0  0  0  0  0  3  0  0  0  0  0  0
  -30.3120  -19.3860   21.2750 C   0  0  0  0  0  3  0  0  0  0  0  0
  -30.4420  -19.8190   19.8590 N   0  0  2  0  0  4  0  0  0  0  0  0
  -31.3650  -20.2240   19.8170 H   0  0  0  0  0  0  0  0  0  0  0  0
  -30.6330  -14.3910   19.1080 C   0  0  0  0  0  0  0  0  0  0  0  0
  -29.9050  -12.4260   17.7820 C   0  0  0  0  0  2  0  0  0  0  0  0
  -28.7100  -12.7290   16.8570 C   0  0  0  0  0  2  0  0  0  0  0  0
  -27.3780  -12.5600   17.6140 C   0  0  0  0  0  2  0  0  0  0  0  0
  -27.3690  -13.3030   18.9710 C   0  0  0  0  0  3  0  0  0  0  0  0
  -28.6390  -12.9710   19.7800 C   0  0  0  0  0  2  0  0  0  0  0  0
  -29.8300  -13.2950   18.9700 N   0  0  0  0  0  0  0  0  0  0  0  0
  -31.4270  -14.7300   18.2250 O   0  0  0  0  0  0  0  0  0  0  0  0
  -30.5000  -15.1070   20.2600 N   0  0  0  0  0  0  0  0  0  0  0  0
  -25.2280  -13.8810   20.2800 C   0  0  0  0  0  0  0  0  0  0  0  0
  -24.2540  -13.0980   20.8360 C   0  0  0  0  0  0  0  0  0  0  0  0
  -24.6430  -11.7480   20.5830 C   0  0  0  0  0  0  0  0  0  0  0  0
  -26.1570  -13.0090   19.7340 N   0  0  0  0  0  0  0  0  0  0  0  0
  -25.8200  -11.7160   19.9690 N   0  0  0  0  0  0  0  0  0  0  0  0
  -23.9360  -10.4880   20.8330 C   0  0  0  0  0  0  0  0  0  0  0  0
  -24.4730   -9.4970   21.6850 C   0  0  0  0  0  3  0  0  0  0  0  0
  -23.7670   -8.2970   21.9210 C   0  0  0  0  0  3  0  0  0  0  0  0
  -22.5090   -8.0790   21.3100 C   0  0  0  0  0  0  0  0  0  0  0  0
  -21.9900   -9.0580   20.4420 C   0  0  0  0  0  3  0  0  0  0  0  0
  -22.6960  -10.2480   20.2050 C   0  0  0  0  0  3  0  0  0  0  0  0
  -21.7620   -6.9370   21.4690 O   0  0  0  0  0  0  0  0  0  0  0  0
  -21.7500   -6.2400   22.6510 C   0  0  0  0  0  0  0  0  0  0  0  0
  -21.3620   -6.8450   23.8680 C   0  0  0  0  0  3  0  0  0  0  0  0
  -21.3010   -6.0750   25.0480 C   0  0  0  0  0  3  0  0  0  0  0  0
  -21.6130   -4.7040   25.0090 C   0  0  0  0  0  0  0  0  0  0  0  0
  -21.9900   -4.0980   23.7980 C   0  0  0  0  0  3  0  0  0  0  0  0
  -22.0550   -4.8660   22.6210 C   0  0  0  0  0  0  0  0  0  0  0  0
  -22.4000   -4.2740   21.4520 F   0  0  0  0  0  0  0  0  0  0  0  0
  -21.5440   -3.9620   26.1410 F   0  0  0  0  0  0  0  0  0  0  0  0
  -22.9780  -13.5720   21.4740 C   0  0  0  0  0  0  0  0  0  0  0  0
  -22.4720  -12.8330   22.4560 N   0  0  0  0  0  0  0  0  0  0  0  0
  -22.4480  -14.6300   21.1350 O   0  0  0  0  0  0  0  0  0  0  0  0
  -22.9160  -11.9750   22.7490 H   0  0  0  0  0  0  0  0  0  0  0  0
  -21.6290  -13.1300   22.9250 H   0  0  0  0  0  0  0  0  0  0  0  0
  -25.3890  -15.2570   20.1750 N   0  0  0  0  0  0  0  0  0  0  0  0
  -24.6690  -15.9030   20.4810 H   0  0  0  0  0  0  0  0  0  0  0  0
  -26.1210  -15.7010   19.6350 H   0  0  0  0  0  0  0  0  0  0  0  0
  -30.8500  -14.5610   21.5960 C   0  0  0  0  0  2  0  0  0  0  0  0
  -31.7900  -13.3270   21.6410 C   0  0  0  0  0  2  0  0  0  0  0  0
  -32.3130  -13.0990   22.9970 N   0  0  0  0  0  4  0  0  0  0  0  0
  -32.7900  -13.9180   23.3320 H   0  0  0  0  0  0  0  0  0  0  0  0
  -32.9720  -12.3390   22.9870 H   0  0  0  0  0  0  0  0  0  0  0  0
  -31.5790  -12.8700   23.6450 H   0  0  0  0  0  0  0  0  0  0  0  0
  -29.5710  -20.9580   19.4580 C   0  0  0  0  0  2  0  0  0  0  0  0
  -30.1610  -22.3000   19.9680 C   0  0  0  0  0  2  0  0  0  0  0  0
  -29.2780  -23.5490   19.7540 C   0  0  0  0  0  2  0  0  0  0  0  0
  -29.9180  -24.8030   20.3980 C   0  0  0  0  0  2  0  0  0  0  0  0
  -28.9500  -25.9650   20.6790 C   0  0  0  0  0  2  0  0  0  0  0  0
  -28.7120  -26.7570   19.5210 O   0  0  0  0  0  0  0  0  0  0  0  0
  -24.6200  -31.4720   22.9680 C   0  0  0  0  0  0  0  0  0  0  0  0
  -27.5210  -27.4290   19.5960 C   0  0  0  0  0  0  0  0  0  0  0  0
  -23.4920  -30.0920   21.2510 C   0  0  0  0  0  3  0  0  0  0  0  0
  -25.0300  -28.7410   19.7280 C   0  0  0  0  0  0  0  0  0  0  0  0
  -25.9830  -30.6330   21.0580 C   0  0  0  0  0  2  0  0  0  0  0  0
  -26.1550  -29.3120   20.3390 C   0  0  0  0  0  0  0  0  0  0  0  0
  -27.4050  -28.6580   20.2810 C   0  0  0  0  0  3  0  0  0  0  0  0
  -26.3850  -26.8650   18.9830 C   0  0  0  0  0  3  0  0  0  0  0  0
  -25.1360  -27.5110   19.0560 C   0  0  0  0  0  3  0  0  0  0  0  0
  -23.7310  -29.5070   19.8340 C   0  0  0  0  0  2  0  0  0  0  0  0
  -24.7170  -30.7440   21.8190 N   0  0  0  0  0  0  0  0  0  0  0  0
  -23.5300  -31.6400   23.5320 O   0  0  0  0  0  0  0  0  0  0  0  0
  -22.9230  -28.9740   22.1540 C   0  0  0  0  0  0  0  0  0  0  0  0
  -21.6300  -28.6600   21.9730 N   0  0  0  0  0  0  0  0  0  0  0  0
  -23.6420  -28.3930   22.9710 O   0  0  0  0  0  0  0  0  0  0  0  0
  -21.1070  -29.1890   21.2880 H   0  0  0  0  0  0  0  0  0  0  0  0
  -18.3980  -27.0730   22.2590 C   0  0  0  0  0  0  0  0  0  0  0  0
  -20.8890  -27.6160   22.6790 C   0  0  0  0  0  3  0  0  0  0  0  0
  -21.1900  -26.2220   22.0820 C   0  0  0  0  0  2  0  0  0  0  0  0
  -20.1890  -25.7990   21.0040 C   0  0  0  0  0  2  0  0  0  0  0  0
  -18.7670  -25.7700   21.5720 C   0  0  0  0  0  2  0  0  0  0  0  0
  -19.3950  -27.9480   22.7650 C   0  0  0  0  0  0  0  0  0  0  0  0
  -19.0010  -29.1650   23.3630 C   0  0  0  0  0  3  0  0  0  0  0  0
  -17.6390  -29.5090   23.4630 C   0  0  0  0  0  3  0  0  0  0  0  0
  -16.6550  -28.6310   22.9760 C   0  0  0  0  0  3  0  0  0  0  0  0
  -17.0350  -27.4150   22.3790 C   0  0  0  0  0  3  0  0  0  0  0  0
  -25.8700  -32.1490   23.6140 C   0  0  0  0  0  3  0  0  0  0  0  0
  -26.4500  -31.3430   24.8410 C   0  0  1  0  0  0  0  0  0  0  0  0
  -25.3840  -30.9530   25.8900 C   0  0  0  0  0  1  0  0  0  0  0  0
  -27.1350  -30.0430   24.3610 C   0  0  0  0  0  1  0  0  0  0  0  0
  -27.5360  -32.1820   25.5540 C   0  0  0  0  0  1  0  0  0  0  0  0
  -25.4780  -33.5050   24.0210 N   0  0  0  0  0  0  0  0  0  0  0  0
  -25.7500  -34.6160   23.3220 C   0  0  0  0  0  0  0  0  0  0  0  0
  -26.4260  -34.6100   22.2900 O   0  0  0  0  0  0  0  0  0  0  0  0
  -24.8760  -33.5800   24.8280 H   0  0  0  0  0  0  0  0  0  0  0  0
  -23.9180  -36.3150   23.0540 C   0  0  0  0  0  1  0  0  0  0  0  0
  -25.1770  -35.9440   23.8520 C   0  0  0  0  0  3  0  0  0  0  0  0
  -27.2540  -36.9020   24.7430 C   0  0  0  0  0  1  0  0  0  0  0  0
  -26.1450  -37.0610   23.8060 N   0  0  0  0  0  0  0  0  0  0  0  0
  -25.6850  -37.9450   24.0060 H   0  0  0  0  0  0  0  0  0  0  0  0
  1  3  1  0
  2 19  1  0
  2  1  2  0
  4  5  1  0
  6  9  1  0
  7  6  1  0
  7  2  1  0
  7  4  1  0
  8  3  1  0
  8  5  1  0
  9  8  1  0
  9 10  1  1
 11 19  1  0
 12 17  1  0
 13 14  1  0
 13 12  1  0
 15 14  1  0
 15 23  1  0
 15 16  1  0
 17 11  1  0
 17 16  1  0
 18 11  2  0
 19 48  1  0
 20 21  2  0
 21 40  1  0
 22 25  1  0
 22 21  1  0
 23 24  1  0
 23 20  1  0
 24 22  2  0
 25 26  1  0
 26 27  2  0
 28 31  1  0
 28 27  1  0
 29 28  2  0
 30 29  1  0
 30 25  2  0
 31 32  1  0
 32 33  1  0
 33 34  2  0
 35 34  1  0
 35 39  1  0
 36 35  2  0
 37 32  2  0
 37 36  1  0
 38 37  1  0
 40 41  1  0
 41 43  1  0
 41 44  1  0
 42 40  2  0
 45 20  1  0
 45 46  1  0
 47 45  1  0
 48 49  1  0
 49 50  1  0
 50 51  1  0
 50 53  1  0
 52 50  1  0
 54  9  1  0
 54 55  1  0
 56 55  1  0
 56 57  1  0
 57 58  1  0
 59 61  1  0
 59 58  1  0
 60 71  2  0
 61 66  1  0
 62 70  1  0
 62 72  1  0
 63 69  1  0
 63 65  1  0
 64 70  1  0
 65 64  1  0
 66 65  2  0
 67 68  1  0
 67 61  2  0
 68 63  2  0
 69 62  1  0
 70 60  1  0
 72 74  2  0
 73 72  1  0
 75 73  1  0
 76 85  2  0
 76 81  1  0
 77 73  1  0
 77 81  1  0
 78 77  1  0
 79 80  1  0
 79 78  1  0
 80 76  1  0
 81 82  2  0
 82 83  1  0
 84 83  2  0
 85 84  1  0
 86 60  1  0
 86 91  1  0
 86 87  1  0
 87 90  1  1
 87 88  1  0
 89 87  1  0
 91 94  1  0
 92 96  1  0
 92 91  1  0
 93 92  2  0
 96 95  1  0
 98 96  1  0
 98 99  1  0
 98 97  1  0
M  ISO  4  11 100  19 100  58 101  59 101
M  END
>  <TORSDO>  (33) 
F 24

>  <SCORE>  (33) 
-7.396

>  <name>  (33) 
35

>  <ligand_id>  (33) 
35

>  <original_smiles>  (33) 
[H]C1=C(N(C(=O)N2C([H])([H])C([H])([H])C([H])([H])C([H])(n3nc(-c4c([H])c([H])c(Oc5c([H])c([H])c(F)c([H])c5F)c([H])c4[H])c(C(=O)N([H])[H])c3N([H])[H])C2([H])[H])C([H])([H])C([H])([H])[N+]([H])([H])[H])C2([H])C([H])([H])C([H])([H])C([H])(C1([H])[H])[N+]([H])(C([H])([H])C([H])([H])C([H])([H])C([H])([H])C([H])([H])Oc1c([H])c([H])c3c(c1[H])C([H])([H])N(C(=O)C([H])(N([H])C(=O)C([H])(N([H])C([H])([H])[H])C([H])([H])[H])C(C([H])([H])[H])(C([H])([H])[H])C([H])([H])[H])C([H])(C(=O)N([H])C1([H])c4c([H])c([H])c([H])c([H])c4C([H])([H])C([H])([H])C1([H])[H])C3([H])[H])C2([H])[H]

>  <smiles>  (33) 
[H]C1=C(N(C(=O)N2C([H])([H])C([H])([H])C([H])([H])C([H])(n3nc(-c4c([H])c([H])c(Oc5c([H])c([H])c(F)c([H])c5F)c([H])c4[H])c(C(=O)N([H])[H])c3N([H])[H])C2([H])[H])C([H])([H])C([H])([H])[N+]([H])([H])[H])C2([H])C([H])([H])C([H])([H])C([H])(C1([H])[H])[N+]([H])(C([H])([H])C([H])([H])C([H])([H])C([H])([H])C([H])([H])Oc1c([H])c([H])c3c(c1[H])C([H])([H])N(C(=O)C([H])(N([H])C(=O)C([H])(N([H])C([H])([H])[H])C([H])([H])[H])C(C([H])([H])[H])(C([H])([H])[H])C([H])([H])[H])C([H])(C(=O)N([H])C1([H])c4c([H])c([H])c([H])c([H])c4C([H])([H])C([H])([H])C1([H])[H])C3([H])[H])C2([H])[H]

$$$$
36:0:0
     RDKit          3D

 91100  0  0  1  0  0  0  0  0999 V2000
  -29.9460  -20.8270   19.7390 C   0  0  0  0  0  0  0  0  0  0  0  0
  -29.2240  -21.9680   20.1890 N   0  0  0  0  0  0  0  0  0  0  0  0
  -30.7300  -20.9990   18.8060 O   0  0  0  0  0  0  0  0  0  0  0  0
  -28.5760  -21.7810   20.9440 H   0  0  0  0  0  0  0  0  0  0  0  0
  -30.8030  -15.1510   19.8900 C   0  0  0  0  0  0  0  0  0  0  0  0
  -30.6580  -12.7950   18.9150 C   0  0  0  0  0  2  0  0  0  0  0  0
  -29.6340  -12.6950   17.7580 C   0  0  0  0  0  2  0  0  0  0  0  0
  -28.2170  -12.4130   18.2950 C   0  0  0  0  0  2  0  0  0  0  0  0
  -27.8710  -13.3190   19.4970 C   0  0  0  0  0  3  0  0  0  0  0  0
  -29.0160  -13.3440   20.5460 C   0  0  0  0  0  2  0  0  0  0  0  0
  -30.2050  -13.8740   19.8510 N   0  0  0  0  0  0  0  0  0  0  0  0
  -31.9890  -15.1760   19.5370 O   0  0  0  0  0  0  0  0  0  0  0  0
  -28.5520  -19.0380   21.0480 C   0  0  0  0  0  2  0  0  0  0  0  0
  -28.3180  -17.5540   21.4010 C   0  0  0  0  0  2  0  0  0  0  0  0
  -28.1790  -17.0720   18.8520 C   0  0  0  0  0  2  0  0  0  0  0  0
  -29.4030  -17.8120   18.2970 C   0  0  0  0  0  2  0  0  0  0  0  0
  -29.9100  -19.2790   20.3680 C   0  0  0  0  0  3  0  0  0  0  0  0
  -28.6450  -16.5730   20.2430 C   0  0  0  0  0  3  0  0  0  0  0  0
  -30.3400  -17.8720   19.5110 C   0  0  0  0  0  3  0  0  0  0  0  0
  -30.0890  -16.4090   20.0690 N   0  0  0  0  0  0  0  0  0  0  0  0
  -25.5460  -13.8970   20.4220 C   0  0  0  0  0  0  0  0  0  0  0  0
  -24.5100  -13.1130   20.8430 C   0  0  0  0  0  0  0  0  0  0  0  0
  -24.9650  -11.7650   20.7240 C   0  0  0  0  0  0  0  0  0  0  0  0
  -26.5690  -13.0240   20.0810 N   0  0  0  0  0  0  0  0  0  0  0  0
  -26.2310  -11.7340   20.3250 N   0  0  0  0  0  0  0  0  0  0  0  0
  -24.2480  -10.5010   20.9060 C   0  0  0  0  0  0  0  0  0  0  0  0
  -24.6690   -9.5460   21.8570 C   0  0  0  0  0  3  0  0  0  0  0  0
  -23.9510   -8.3440   22.0280 C   0  0  0  0  0  3  0  0  0  0  0  0
  -22.7970   -8.0910   21.2490 C   0  0  0  0  0  0  0  0  0  0  0  0
  -22.3970   -9.0350   20.2870 C   0  0  0  0  0  3  0  0  0  0  0  0
  -23.1160  -10.2270   20.1130 C   0  0  0  0  0  3  0  0  0  0  0  0
  -22.0510   -6.9400   21.3290 O   0  0  0  0  0  0  0  0  0  0  0  0
  -21.8820   -6.2760   22.5170 C   0  0  0  0  0  0  0  0  0  0  0  0
  -21.2820   -6.8920   23.6370 C   0  0  0  0  0  3  0  0  0  0  0  0
  -21.0640   -6.1510   24.8160 C   0  0  0  0  0  3  0  0  0  0  0  0
  -21.4350   -4.7950   24.8740 C   0  0  0  0  0  0  0  0  0  0  0  0
  -22.0280   -4.1780   23.7580 C   0  0  0  0  0  3  0  0  0  0  0  0
  -22.2490   -4.9170   22.5820 C   0  0  0  0  0  0  0  0  0  0  0  0
  -22.8010   -4.3120   21.5020 F   0  0  0  0  0  0  0  0  0  0  0  0
  -21.2190   -4.0800   26.0020 F   0  0  0  0  0  0  0  0  0  0  0  0
  -23.1390  -13.5840   21.2320 C   0  0  0  0  0  0  0  0  0  0  0  0
  -22.4760  -12.8640   22.1290 N   0  0  0  0  0  0  0  0  0  0  0  0
  -22.6680  -14.6280   20.7790 O   0  0  0  0  0  0  0  0  0  0  0  0
  -22.8720  -12.0220   22.5180 H   0  0  0  0  0  0  0  0  0  0  0  0
  -21.5600  -13.1610   22.4320 H   0  0  0  0  0  0  0  0  0  0  0  0
  -25.6730  -15.2730   20.2740 N   0  0  0  0  0  0  0  0  0  0  0  0
  -24.8990  -15.8990   20.4620 H   0  0  0  0  0  0  0  0  0  0  0  0
  -26.4770  -15.7420   19.8820 H   0  0  0  0  0  0  0  0  0  0  0  0
  -29.3610  -23.5060   19.8180 C   0  0  0  0  0  3  0  0  0  0  0  0
  -28.2160  -24.7150   20.1000 C   0  0  0  0  0  3  0  0  0  0  0  0
  -28.4090  -26.2610   19.9750 O   0  0  0  0  0  0  0  0  0  0  0  0
  -24.6330  -31.7810   23.1090 C   0  0  0  0  0  0  0  0  0  0  0  0
  -27.3090  -27.1980   19.9680 C   0  0  0  0  0  0  0  0  0  0  0  0
  -23.4590  -30.4040   21.4360 C   0  0  0  0  0  3  0  0  0  0  0  0
  -24.9370  -28.8910   19.9780 C   0  0  0  0  0  0  0  0  0  0  0  0
  -26.0070  -30.7250   21.2770 C   0  0  0  0  0  2  0  0  0  0  0  0
  -26.1090  -29.3490   20.5940 C   0  0  0  0  0  0  0  0  0  0  0  0
  -27.2940  -28.5220   20.5690 C   0  0  0  0  0  3  0  0  0  0  0  0
  -26.1070  -26.8400   19.3150 C   0  0  0  0  0  3  0  0  0  0  0  0
  -24.9500  -27.6490   19.3230 C   0  0  0  0  0  3  0  0  0  0  0  0
  -23.6930  -29.7620   20.0430 C   0  0  0  0  0  2  0  0  0  0  0  0
  -24.7190  -30.9910   21.9960 N   0  0  0  0  0  0  0  0  0  0  0  0
  -23.5420  -32.0330   23.6440 O   0  0  0  0  0  0  0  0  0  0  0  0
  -22.7990  -29.3620   22.3730 C   0  0  0  0  0  0  0  0  0  0  0  0
  -21.4710  -29.1860   22.2560 N   0  0  0  0  0  0  0  0  0  0  0  0
  -23.4840  -28.7160   23.1700 O   0  0  0  0  0  0  0  0  0  0  0  0
  -20.9730  -29.7590   21.5890 H   0  0  0  0  0  0  0  0  0  0  0  0
  -18.0990  -27.9660   22.7810 C   0  0  0  0  0  0  0  0  0  0  0  0
  -20.6640  -28.2190   23.0050 C   0  0  0  0  0  3  0  0  0  0  0  0
  -20.7530  -26.8110   22.3730 C   0  0  0  0  0  2  0  0  0  0  0  0
  -19.6300  -26.5270   21.3700 C   0  0  0  0  0  2  0  0  0  0  0  0
  -18.2630  -26.6450   22.0470 C   0  0  0  0  0  2  0  0  0  0  0  0
  -19.2270  -28.7120   23.2170 C   0  0  0  0  0  0  0  0  0  0  0  0
  -19.0200  -29.9480   23.8650 C   0  0  0  0  0  3  0  0  0  0  0  0
  -17.7170  -30.4400   24.0800 C   0  0  0  0  0  3  0  0  0  0  0  0
  -16.6060  -29.6910   23.6590 C   0  0  0  0  0  3  0  0  0  0  0  0
  -16.7980  -28.4550   23.0140 C   0  0  0  0  0  3  0  0  0  0  0  0
  -25.9000  -32.4250   23.7520 C   0  0  0  0  0  3  0  0  0  0  0  0
  -25.5560  -33.8030   24.1380 N   0  0  0  0  0  0  0  0  0  0  0  0
  -25.8560  -34.8960   23.4220 C   0  0  0  0  0  0  0  0  0  0  0  0
  -26.5200  -34.8500   22.3830 O   0  0  0  0  0  0  0  0  0  0  0  0
  -24.9640  -33.9100   24.9490 H   0  0  0  0  0  0  0  0  0  0  0  0
  -24.0900  -36.6670   23.1530 C   0  0  0  0  0  1  0  0  0  0  0  0
  -25.3430  -36.2530   23.9420 C   0  0  0  0  0  3  0  0  0  0  0  0
  -27.4560  -37.1550   24.8110 C   0  0  0  0  0  1  0  0  0  0  0  0
  -26.3530  -37.3310   23.8700 N   0  0  0  0  0  0  0  0  0  0  0  0
  -25.9260  -38.2370   24.0470 H   0  0  0  0  0  0  0  0  0  0  0  0
  -26.4370  -31.6230   25.0010 C   0  0  1  0  0  0  0  0  0  0  0  0
  -25.3510  -31.3210   26.0610 C   0  0  0  0  0  1  0  0  0  0  0  0
  -27.0540  -30.2740   24.5660 C   0  0  0  0  0  1  0  0  0  0  0  0
  -27.5670  -32.4220   25.6900 C   0  0  0  0  0  1  0  0  0  0  0  0
  1  2  1  0
  2  4  1  0
  3  1  2  0
  5 20  1  0
  6 11  1  0
  7  8  1  0
  7  6  1  0
  9  8  1  0
  9 24  1  0
  9 10  1  0
 11  5  1  0
 11 10  1  0
 12  5  2  0
 13 14  1  0
 16 15  1  0
 17  1  1  0
 17 13  1  0
 18 15  1  0
 18 14  1  0
 19 16  1  0
 19 20  1  0
 19 17  1  0
 20 18  1  0
 21 22  2  0
 22 41  1  0
 23 22  1  0
 23 26  1  0
 24 25  1  0
 24 21  1  0
 25 23  2  0
 26 27  1  0
 27 28  2  0
 29 32  1  0
 29 28  1  0
 30 29  2  0
 31 30  1  0
 31 26  2  0
 32 33  1  0
 33 38  2  0
 33 34  1  0
 34 35  2  0
 35 36  1  0
 36 40  1  0
 37 36  2  0
 38 37  1  0
 39 38  1  0
 41 42  1  0
 42 45  1  0
 42 44  1  0
 43 41  2  0
 46 21  1  0
 46 47  1  0
 48 46  1  0
 49 50  2  0
 49  2  1  0
 51 50  1  0
 52 63  2  0
 53 51  1  0
 53 58  1  0
 54 62  1  0
 54 64  1  0
 55 61  1  0
 55 57  1  0
 56 62  1  0
 57 56  1  0
 58 57  2  0
 59 60  1  0
 59 53  2  0
 60 55  2  0
 61 54  1  0
 62 52  1  0
 64 66  2  0
 65 64  1  0
 67 65  1  0
 68 77  2  0
 68 73  1  0
 69 65  1  0
 69 73  1  0
 70 69  1  0
 71 72  1  0
 71 70  1  0
 72 68  1  0
 73 74  2  0
 74 75  1  0
 76 75  2  0
 77 76  1  0
 78 52  1  0
 78 79  1  0
 78 88  1  0
 79 82  1  0
 80 84  1  0
 80 79  1  0
 81 80  2  0
 84 83  1  0
 86 84  1  0
 86 87  1  0
 86 85  1  0
 88 91  1  1
 88 89  1  0
 90 88  1  0
M  ISO  4   5 100  20 100  50 101  51 101
M  END
>  <TORSDO>  (34) 
F 18

>  <SCORE>  (34) 
-12.678

>  <name>  (34) 
36

>  <ligand_id>  (34) 
36

>  <original_smiles>  (34) 
[H]c1c([H])c([H])c2c(c1[H])C([H])([H])C([H])([H])C([H])([H])C2([H])N([H])C(=O)C1([H])N(C(=O)C([H])(N([H])C(=O)C([H])(N([H])C([H])([H])[H])C([H])([H])[H])C(C([H])([H])[H])(C([H])([H])[H])C([H])([H])[H])C([H])([H])c2c([H])c(OC([H])([H])C([H])([H])N([H])C(=O)C3([H])C([H])([H])C([H])([H])C4([H])N(C(=O)N5C([H])([H])C([H])([H])C([H])([H])C([H])(n6nc(-c7c([H])c([H])c(Oc8c([H])c([H])c(F)c([H])c8F)c([H])c7[H])c(C(=O)N([H])[H])c6N([H])[H])C5([H])[H])C3([H])C([H])([H])C4([H])[H])c([H])c([H])c2C1([H])[H]

>  <smiles>  (34) 
[H]c1c([H])c([H])c2c(c1[H])C([H])([H])C([H])([H])C([H])([H])C2([H])N([H])C(=O)C1([H])N(C(=O)C([H])(N([H])C(=O)C([H])(N([H])C([H])([H])[H])C([H])([H])[H])C(C([H])([H])[H])(C([H])([H])[H])C([H])([H])[H])C([H])([H])c2c([H])c(OC([H])([H])C([H])([H])N([H])C(=O)C3([H])C([H])([H])C([H])([H])C4([H])N(C(=O)N5C([H])([H])C([H])([H])C([H])([H])C([H])(n6nc(-c7c([H])c([H])c(Oc8c([H])c([H])c(F)c([H])c8F)c([H])c7[H])c(C(=O)N([H])[H])c6N([H])[H])C5([H])[H])C3([H])C([H])([H])C4([H])[H])c([H])c([H])c2C1([H])[H]

$$$$
37:0:0
     RDKit          3D

 95103  0  0  1  0  0  0  0  0999 V2000
  -33.7380  -22.3660   19.0900 N   0  0  0  0  0  4  0  0  0  0  0  0
  -33.0730  -21.9320   18.4710 H   0  0  0  0  0  0  0  0  0  0  0  0
  -34.5270  -22.6430   18.5250 H   0  0  0  0  0  0  0  0  0  0  0  0
  -33.1760  -23.6020   19.6780 C   0  0  0  0  0  2  0  0  0  0  0  0
  -31.6870  -23.8310   19.3260 C   0  0  0  0  0  2  0  0  0  0  0  0
  -31.1930  -25.1690   19.9090 C   0  0  0  0  0  2  0  0  0  0  0  0
  -29.6810  -25.2840   20.1820 C   0  0  0  0  0  2  0  0  0  0  0  0
  -29.4610  -26.6650   20.4530 O   0  0  0  0  0  0  0  0  0  0  0  0
  -27.7980  -31.5390   25.3100 C   0  0  0  0  0  0  0  0  0  0  0  0
  -28.5290  -27.0490   21.3890 C   0  0  0  0  0  0  0  0  0  0  0  0
  -26.3090  -29.5630   25.2440 C   0  0  0  0  0  3  0  0  0  0  0  0
  -26.6280  -28.0040   23.2490 C   0  0  0  0  0  0  0  0  0  0  0  0
  -27.5590  -30.3250   23.1490 C   0  0  0  0  0  2  0  0  0  0  0  0
  -27.5760  -28.8780   22.7080 C   0  0  0  0  0  0  0  0  0  0  0  0
  -28.5200  -28.4060   21.7740 C   0  0  0  0  0  3  0  0  0  0  0  0
  -27.5720  -26.1700   21.9470 C   0  0  0  0  0  3  0  0  0  0  0  0
  -26.6210  -26.6470   22.8720 C   0  0  0  0  0  3  0  0  0  0  0  0
  -25.6390  -28.5950   24.2300 C   0  0  0  0  0  2  0  0  0  0  0  0
  -27.2720  -30.5090   24.5900 N   0  0  0  0  0  0  0  0  0  0  0  0
  -27.4630  -31.7370   26.4860 O   0  0  0  0  0  0  0  0  0  0  0  0
  -26.9490  -28.7240   26.3720 C   0  0  0  0  0  0  0  0  0  0  0  0
  -26.1490  -28.3990   27.4010 N   0  0  0  0  0  0  0  0  0  0  0  0
  -28.1250  -28.3560   26.2990 O   0  0  0  0  0  0  0  0  0  0  0  0
  -25.1990  -28.7460   27.3890 H   0  0  0  0  0  0  0  0  0  0  0  0
  -25.0170  -27.2300   30.6270 C   0  0  0  0  0  0  0  0  0  0  0  0
  -26.5210  -27.5820   28.5540 C   0  0  0  0  0  3  0  0  0  0  0  0
  -26.3020  -26.0790   28.2680 C   0  0  0  0  0  2  0  0  0  0  0  0
  -24.9270  -25.5730   28.7160 C   0  0  0  0  0  2  0  0  0  0  0  0
  -24.7400  -25.7920   30.2190 C   0  0  0  0  0  2  0  0  0  0  0  0
  -25.8410  -28.0740   29.8370 C   0  0  0  0  0  0  0  0  0  0  0  0
  -26.0390  -29.4120   30.2410 C   0  0  0  0  0  3  0  0  0  0  0  0
  -25.4310  -29.9090   31.4100 C   0  0  0  0  0  3  0  0  0  0  0  0
  -24.6290  -29.0640   32.1950 C   0  0  0  0  0  3  0  0  0  0  0  0
  -24.4280  -27.7280   31.8070 C   0  0  0  0  0  3  0  0  0  0  0  0
  -28.8280  -32.5340   24.6870 C   0  0  0  0  0  3  0  0  0  0  0  0
  -30.3050  -32.3020   25.1970 C   0  0  1  0  0  0  0  0  0  0  0  0
  -30.4270  -32.2210   26.7370 C   0  0  0  0  0  1  0  0  0  0  0  0
  -30.8860  -30.9970   24.6060 C   0  0  0  0  0  1  0  0  0  0  0  0
  -31.2150  -33.4520   24.7030 C   0  0  0  0  0  1  0  0  0  0  0  0
  -28.3770  -33.8950   25.0050 N   0  0  0  0  0  0  0  0  0  0  0  0
  -27.7190  -34.6950   24.1540 C   0  0  0  0  0  0  0  0  0  0  0  0
  -27.4910  -34.3830   22.9820 O   0  0  0  0  0  0  0  0  0  0  0  0
  -28.4810  -34.1950   25.9630 H   0  0  0  0  0  0  0  0  0  0  0  0
  -25.7310  -35.9860   24.9920 C   0  0  0  0  0  1  0  0  0  0  0  0
  -27.2370  -36.0570   24.6890 C   0  0  0  0  0  3  0  0  0  0  0  0
  -28.9270  -37.5030   23.6490 C   0  0  0  0  0  1  0  0  0  0  0  0
  -27.5070  -37.1800   23.7650 N   0  0  0  0  0  0  0  0  0  0  0  0
  -27.0140  -38.0190   24.0620 H   0  0  0  0  0  0  0  0  0  0  0  0
  -34.2360  -21.3610   20.0570 C   0  0  0  0  0  2  0  0  0  0  0  0
  -34.1730  -19.9230   19.5000 C   0  0  0  0  0  2  0  0  0  0  0  0
  -35.4200  -19.5040   18.6800 C   0  0  0  0  0  2  0  0  0  0  0  0
  -36.2050  -18.2400   19.1500 C   0  0  0  0  0  3  0  0  0  0  0  0
  -36.1090  -17.1840   20.2930 C   0  0  0  0  0  3  0  0  0  0  0  0
  -37.2470  -16.1440   20.4060 C   0  0  0  0  0  2  0  0  0  0  0  0
  -36.5240  -14.6110   17.4840 C   0  0  0  0  0  0  0  0  0  0  0  0
  -35.1620  -13.4100   15.8000 C   0  0  0  0  0  2  0  0  0  0  0  0
  -33.8210  -14.0890   15.4670 C   0  0  0  0  0  2  0  0  0  0  0  0
  -32.7260  -13.7030   16.4820 C   0  0  0  0  0  2  0  0  0  0  0  0
  -33.2040  -13.8330   17.9510 C   0  0  0  0  0  3  0  0  0  0  0  0
  -34.5650  -13.1220   18.1250 C   0  0  0  0  0  2  0  0  0  0  0  0
  -35.5330  -13.7220   17.1900 N   0  0  0  0  0  0  0  0  0  0  0  0
  -37.0690  -15.3040   16.6140 O   0  0  0  0  0  0  0  0  0  0  0  0
  -38.8040  -13.4270   20.1240 C   0  0  0  0  0  2  0  0  0  0  0  0
  -37.4620  -13.6310   20.8330 C   0  0  0  0  0  2  0  0  0  0  0  0
  -38.5700  -13.9280   18.6900 C   0  0  0  0  0  2  0  0  0  0  0  0
  -36.7670  -14.7250   20.0090 C   0  0  0  0  0  3  0  0  0  0  0  0
  -37.1740  -14.3650   18.6470 N   0  0  0  0  0  0  0  0  0  0  0  0
  -31.2110  -14.0080   19.5780 C   0  0  0  0  0  0  0  0  0  0  0  0
  -30.4920  -13.0560   20.2490 C   0  0  0  0  0  0  0  0  0  0  0  0
  -31.0850  -11.8020   19.9080 C   0  0  0  0  0  0  0  0  0  0  0  0
  -32.1960  -13.3240   18.8820 N   0  0  0  0  0  0  0  0  0  0  0  0
  -32.1430  -11.9900   19.1270 N   0  0  0  0  0  0  0  0  0  0  0  0
  -30.6750  -10.4290   20.2390 C   0  0  0  0  0  0  0  0  0  0  0  0
  -31.4470   -9.6150   21.0970 C   0  0  0  0  0  3  0  0  0  0  0  0
  -31.0240   -8.3050   21.4120 C   0  0  0  0  0  3  0  0  0  0  0  0
  -29.8170   -7.8010   20.8730 C   0  0  0  0  0  0  0  0  0  0  0  0
  -29.0660   -8.6060   19.9970 C   0  0  0  0  0  3  0  0  0  0  0  0
  -29.4900   -9.9060   19.6800 C   0  0  0  0  0  3  0  0  0  0  0  0
  -29.3410   -6.5330   21.1010 O   0  0  0  0  0  0  0  0  0  0  0  0
  -29.3020   -5.9960   22.3630 C   0  0  0  0  0  0  0  0  0  0  0  0
  -28.7530   -6.7010   23.4570 C   0  0  0  0  0  3  0  0  0  0  0  0
  -28.6700   -6.0830   24.7210 C   0  0  0  0  0  3  0  0  0  0  0  0
  -29.1300   -4.7630   24.8930 C   0  0  0  0  0  0  0  0  0  0  0  0
  -29.6740   -4.0600   23.8030 C   0  0  0  0  0  3  0  0  0  0  0  0
  -29.7580   -4.6740   22.5410 C   0  0  0  0  0  0  0  0  0  0  0  0
  -30.2610   -3.9830   21.4910 F   0  0  0  0  0  0  0  0  0  0  0  0
  -29.0440   -4.1680   26.1050 F   0  0  0  0  0  0  0  0  0  0  0  0
  -29.2680  -13.2800   21.0900 C   0  0  0  0  0  0  0  0  0  0  0  0
  -29.0710  -12.4720   22.1260 N   0  0  0  0  0  0  0  0  0  0  0  0
  -28.4980  -14.2110   20.8560 O   0  0  0  0  0  0  0  0  0  0  0  0
  -29.7110  -11.7200   22.3350 H   0  0  0  0  0  0  0  0  0  0  0  0
  -28.2680  -12.6100   22.7240 H   0  0  0  0  0  0  0  0  0  0  0  0
  -31.0970  -15.3940   19.4890 N   0  0  0  0  0  0  0  0  0  0  0  0
  -30.3650  -15.9100   19.9640 H   0  0  0  0  0  0  0  0  0  0  0  0
  -31.6920  -15.9820   18.9180 H   0  0  0  0  0  0  0  0  0  0  0  0
  1  4  1  0
  1 49  1  0
  2  1  1  0
  3  1  1  0
  5  4  1  0
  5  6  1  0
  6  7  1  0
  7  8  1  0
  8 10  1  0
  9 20  2  0
 10 15  2  0
 10 16  1  0
 11 21  1  0
 12 18  1  0
 13 19  1  0
 14 13  1  0
 14 12  2  0
 15 14  1  0
 16 17  2  0
 17 12  1  0
 18 11  1  0
 19 11  1  0
 19  9  1  0
 21 22  1  0
 23 21  2  0
 24 22  1  0
 25 34  1  0
 26 22  1  0
 26 30  1  0
 27 26  1  0
 27 28  1  0
 28 29  1  0
 29 25  1  0
 30 31  1  0
 30 25  2  0
 31 32  2  0
 32 33  1  0
 34 33  2  0
 35 40  1  0
 35 36  1  0
 35  9  1  0
 36 37  1  1
 38 36  1  0
 39 36  1  0
 40 43  1  0
 41 45  1  0
 41 40  1  0
 42 41  2  0
 45 44  1  0
 46 47  1  0
 47 48  1  0
 47 45  1  0
 50 49  1  0
 51 52  1  0
 51 50  1  0
 52 53  2  0
 53 54  1  0
 55 67  1  0
 56 61  1  0
 57 56  1  0
 57 58  1  0
 59 58  1  0
 59 60  1  0
 59 71  1  0
 61 55  1  0
 61 60  1  0
 62 55  2  0
 63 64  1  0
 65 63  1  0
 66 54  1  0
 66 64  1  0
 67 65  1  0
 67 66  1  0
 68 69  2  0
 69 88  1  0
 70 73  1  0
 70 69  1  0
 71 72  1  0
 71 68  1  0
 72 70  2  0
 73 74  1  0
 74 75  2  0
 76 79  1  0
 76 75  1  0
 77 76  2  0
 78 77  1  0
 78 73  2  0
 79 80  1  0
 80 85  2  0
 80 81  1  0
 81 82  2  0
 82 83  1  0
 83 87  1  0
 84 83  2  0
 85 84  1  0
 86 85  1  0
 88 89  1  0
 89 91  1  0
 89 92  1  0
 90 88  2  0
 93 68  1  0
 93 94  1  0
 95 93  1  0
M  ISO  4   7 101   8 101  55 100  67 100
M  END
>  <TORSDO>  (35) 
F 26

>  <SCORE>  (35) 
2.110

>  <name>  (35) 
37

>  <ligand_id>  (35) 
37

>  <original_smiles>  (35) 
[H]c1c([H])c([H])c2c(c1[H])C([H])([H])C([H])([H])C([H])([H])C2([H])N([H])C(=O)C1([H])N(C(=O)C([H])(N([H])C(=O)C([H])(N([H])C([H])([H])[H])C([H])([H])[H])C(C([H])([H])[H])(C([H])([H])[H])C([H])([H])[H])C([H])([H])c2c([H])c(OC([H])([H])C([H])([H])C([H])([H])C([H])([H])[N+]([H])([H])C([H])([H])C([H])([H])C([H])([H])C([H])([H])C([H])([H])C([H])([H])C3([H])N(C(=O)N4C([H])([H])C([H])([H])C([H])([H])C([H])(n5nc(-c6c([H])c([H])c(Oc7c([H])c([H])c(F)c([H])c7F)c([H])c6[H])c(C(=O)N([H])[H])c5N([H])[H])C4([H])[H])C([H])([H])C([H])([H])C3([H])[H])c([H])c([H])c2C1([H])[H]

>  <smiles>  (35) 
[H]c1c([H])c([H])c2c(c1[H])C([H])([H])C([H])([H])C([H])([H])C2([H])N([H])C(=O)C1([H])N(C(=O)C([H])(N([H])C(=O)C([H])(N([H])C([H])([H])[H])C([H])([H])[H])C(C([H])([H])[H])(C([H])([H])[H])C([H])([H])[H])C([H])([H])c2c([H])c(OC([H])([H])C([H])([H])C([H])([H])C([H])([H])[N+]([H])([H])C([H])([H])C([H])([H])C([H])([H])C([H])([H])C([H])([H])C([H])([H])C3([H])N(C(=O)N4C([H])([H])C([H])([H])C([H])([H])C([H])(n5nc(-c6c([H])c([H])c(Oc7c([H])c([H])c(F)c([H])c7F)c([H])c6[H])c(C(=O)N([H])[H])c5N([H])[H])C4([H])[H])C([H])([H])C([H])([H])C3([H])[H])c([H])c([H])c2C1([H])[H]

$$$$
38:0:0
     RDKit          3D

 96105  0  0  1  0  0  0  0  0999 V2000
  -28.8850  -19.6510   19.9980 C   0  0  0  0  0  3  0  0  0  0  0  0
  -30.7220  -18.8700   21.2920 C   0  0  0  0  0  3  0  0  0  0  0  0
  -29.0460  -21.1600   20.3550 C   0  0  0  0  0  0  0  0  0  0  0  0
  -30.1100  -21.3660   21.2690 C   0  0  0  0  0  0  0  0  0  0  0  0
  -30.9310  -20.2420   21.6830 C   0  0  0  0  0  0  0  0  0  0  0  0
  -29.6950  -18.3970   20.4360 C   0  0  0  0  0  0  0  0  0  0  0  0
  -28.3210  -22.6340   19.8620 C   0  0  0  0  0  0  0  0  0  0  0  0
  -30.4350  -22.8400   21.6980 C   0  0  0  0  0  3  0  0  0  0  0  0
  -29.2790  -23.9230   21.8700 C   0  0  0  0  0  3  0  0  0  0  0  0
  -28.2570  -24.1860   20.7100 C   0  0  0  0  0  0  0  0  0  0  0  0
  -27.7250  -22.6190   18.7480 N   0  0  0  0  0  2  0  0  0  0  0  0
  -27.8000  -21.7060   18.3130 H   0  0  0  0  0  0  0  0  0  0  0  0
  -30.3370  -15.4620   20.2420 C   0  0  0  0  0  0  0  0  0  0  0  0
  -30.3570  -12.9870   19.3570 C   0  0  0  0  0  2  0  0  0  0  0  0
  -29.4270  -12.6860   18.1510 C   0  0  0  0  0  2  0  0  0  0  0  0
  -27.9880  -12.3950   18.6160 C   0  0  0  0  0  2  0  0  0  0  0  0
  -27.5330  -13.3740   19.7250 C   0  0  0  0  0  3  0  0  0  0  0  0
  -28.5930  -13.5830   20.8280 C   0  0  0  0  0  2  0  0  0  0  0  0
  -29.7820  -14.1400   20.1560 N   0  0  0  0  0  0  0  0  0  0  0  0
  -31.5710  -15.4350   20.1000 O   0  0  0  0  0  0  0  0  0  0  0  0
  -29.5540  -16.7600   20.2070 N   0  0  0  0  0  0  0  0  0  0  0  0
  -28.5920  -16.5200   20.0160 H   0  0  0  0  0  0  0  0  0  0  0  0
  -25.1840  -13.9260   20.5350 C   0  0  0  0  0  0  0  0  0  0  0  0
  -24.1240  -13.1500   20.9100 C   0  0  0  0  0  0  0  0  0  0  0  0
  -24.5860  -11.8000   20.8590 C   0  0  0  0  0  0  0  0  0  0  0  0
  -26.2170  -13.0510   20.2620 N   0  0  0  0  0  0  0  0  0  0  0  0
  -25.8740  -11.7630   20.5270 N   0  0  0  0  0  0  0  0  0  0  0  0
  -23.8560  -10.5380   21.0470 C   0  0  0  0  0  0  0  0  0  0  0  0
  -24.2910   -9.5620   21.9690 C   0  0  0  0  0  3  0  0  0  0  0  0
  -23.5560   -8.3700   22.1460 C   0  0  0  0  0  3  0  0  0  0  0  0
  -22.3740   -8.1440   21.4000 C   0  0  0  0  0  0  0  0  0  0  0  0
  -21.9590   -9.1090   20.4660 C   0  0  0  0  0  3  0  0  0  0  0  0
  -22.6930  -10.2930   20.2870 C   0  0  0  0  0  3  0  0  0  0  0  0
  -21.6130   -7.0040   21.4880 O   0  0  0  0  0  0  0  0  0  0  0  0
  -21.5610   -6.2600   22.6390 C   0  0  0  0  0  0  0  0  0  0  0  0
  -21.1210   -6.8090   23.8620 C   0  0  0  0  0  3  0  0  0  0  0  0
  -21.0170   -5.9910   25.0040 C   0  0  0  0  0  3  0  0  0  0  0  0
  -21.3410   -4.6230   24.9240 C   0  0  0  0  0  0  0  0  0  0  0  0
  -21.7730   -4.0720   23.7040 C   0  0  0  0  0  3  0  0  0  0  0  0
  -21.8790   -4.8880   22.5650 C   0  0  0  0  0  0  0  0  0  0  0  0
  -22.2770   -4.3480   21.3870 F   0  0  0  0  0  0  0  0  0  0  0  0
  -21.2340   -3.8340   26.0190 F   0  0  0  0  0  0  0  0  0  0  0  0
  -22.7330  -13.6320   21.1980 C   0  0  0  0  0  0  0  0  0  0  0  0
  -22.0140  -12.9340   22.0700 N   0  0  0  0  0  0  0  0  0  0  0  0
  -22.2960  -14.6630   20.6890 O   0  0  0  0  0  0  0  0  0  0  0  0
  -22.3830  -12.1000   22.5030 H   0  0  0  0  0  0  0  0  0  0  0  0
  -21.0790  -13.2350   22.3070 H   0  0  0  0  0  0  0  0  0  0  0  0
  -25.3500  -15.2990   20.3720 N   0  0  0  0  0  0  0  0  0  0  0  0
  -24.5870  -15.9520   20.5090 H   0  0  0  0  0  0  0  0  0  0  0  0
  -26.1960  -15.7380   20.0380 H   0  0  0  0  0  0  0  0  0  0  0  0
  -28.2700  -25.8110   20.2300 O   0  0  0  0  0  0  0  0  0  0  0  0
  -24.6480  -31.8690   23.2140 C   0  0  0  0  0  0  0  0  0  0  0  0
  -27.2310  -26.9110   20.2710 C   0  0  0  0  0  0  0  0  0  0  0  0
  -23.4650  -30.4540   21.5840 C   0  0  0  0  0  3  0  0  0  0  0  0
  -24.9240  -28.8230   20.1900 C   0  0  0  0  0  0  0  0  0  0  0  0
  -26.0340  -30.6560   21.4440 C   0  0  0  0  0  2  0  0  0  0  0  0
  -26.1120  -29.2300   20.8110 C   0  0  0  0  0  0  0  0  0  0  0  0
  -27.2580  -28.3010   20.8140 C   0  0  0  0  0  3  0  0  0  0  0  0
  -26.0020  -26.6700   19.6090 C   0  0  0  0  0  3  0  0  0  0  0  0
  -24.8970  -27.5650   19.5670 C   0  0  0  0  0  3  0  0  0  0  0  0
  -23.7050  -29.7510   20.2180 C   0  0  0  0  0  2  0  0  0  0  0  0
  -24.7390  -31.0230   22.1340 N   0  0  0  0  0  0  0  0  0  0  0  0
  -23.5550  -32.1550   23.7300 O   0  0  0  0  0  0  0  0  0  0  0  0
  -22.7660  -29.4690   22.5580 C   0  0  0  0  0  0  0  0  0  0  0  0
  -21.4360  -29.2960   22.4290 N   0  0  0  0  0  0  0  0  0  0  0  0
  -23.4280  -28.8570   23.4000 O   0  0  0  0  0  0  0  0  0  0  0  0
  -20.9510  -29.8380   21.7270 H   0  0  0  0  0  0  0  0  0  0  0  0
  -18.0600  -28.0670   22.9400 C   0  0  0  0  0  0  0  0  0  0  0  0
  -20.6170  -28.3600   23.2060 C   0  0  0  0  0  3  0  0  0  0  0  0
  -20.7320  -26.9230   22.6460 C   0  0  0  0  0  2  0  0  0  0  0  0
  -19.6360  -26.5810   21.6330 C   0  0  0  0  0  2  0  0  0  0  0  0
  -18.2510  -26.7170   22.2710 C   0  0  0  0  0  2  0  0  0  0  0  0
  -19.1690  -28.8450   23.3640 C   0  0  0  0  0  0  0  0  0  0  0  0
  -18.9340  -30.1060   23.9550 C   0  0  0  0  0  3  0  0  0  0  0  0
  -17.6220  -30.5900   24.1210 C   0  0  0  0  0  3  0  0  0  0  0  0
  -16.5270  -29.8090   23.7120 C   0  0  0  0  0  3  0  0  0  0  0  0
  -16.7470  -28.5490   23.1270 C   0  0  0  0  0  3  0  0  0  0  0  0
  -25.9110  -32.5270   23.8450 C   0  0  0  0  0  3  0  0  0  0  0  0
  -26.4130  -31.7820   25.1440 C   0  0  1  0  0  0  0  0  0  0  0  0
  -25.3070  -31.5680   26.2040 C   0  0  0  0  0  1  0  0  0  0  0  0
  -27.0010  -30.3970   24.7940 C   0  0  0  0  0  1  0  0  0  0  0  0
  -27.5540  -32.5900   25.8080 C   0  0  0  0  0  1  0  0  0  0  0  0
  -25.5860  -33.9280   24.1680 N   0  0  0  0  0  0  0  0  0  0  0  0
  -25.9090  -34.9870   23.4120 C   0  0  0  0  0  0  0  0  0  0  0  0
  -26.5770  -34.8880   22.3800 O   0  0  0  0  0  0  0  0  0  0  0  0
  -25.0050  -34.0790   24.9780 H   0  0  0  0  0  0  0  0  0  0  0  0
  -24.1750  -36.7790   23.0680 C   0  0  0  0  0  1  0  0  0  0  0  0
  -25.4190  -36.3740   23.8750 C   0  0  0  0  0  3  0  0  0  0  0  0
  -27.5510  -37.2700   24.7050 C   0  0  0  0  0  1  0  0  0  0  0  0
  -26.4470  -37.4340   23.7630 N   0  0  0  0  0  0  0  0  0  0  0  0
  -26.0340  -38.3490   23.9180 H   0  0  0  0  0  0  0  0  0  0  0  0
  -32.1590  -20.4680   22.5690 C   0  0  0  0  0  2  0  0  0  0  0  0
  -31.8270  -20.4230   24.0000 N   0  0  0  0  0  4  0  0  0  0  0  0
  -31.1410  -21.1140   24.2360 H   0  0  0  0  0  0  0  0  0  0  0  0
  -32.6580  -20.6010   24.5350 H   0  0  0  0  0  0  0  0  0  0  0  0
  -31.4800  -19.5170   24.2520 H   0  0  0  0  0  0  0  0  0  0  0  0
  1  3  2  0
  1  6  1  0
  2  5  1  0
  3  4  1  0
  4  5  2  0
  4  8  1  0
  5 92  1  0
  6  2  2  0
  7  3  1  0
  7 10  2  0
  8  9  2  0
 10  9  1  0
 11  7  1  0
 12 11  1  0
 14 19  1  0
 15 16  1  0
 15 14  1  0
 17 16  1  0
 17 26  1  0
 17 18  1  0
 19 13  1  0
 19 18  1  0
 20 13  2  0
 21 13  1  0
 21  6  1  0
 22 21  1  0
 23 24  2  0
 24 43  1  0
 25 24  1  0
 25 28  1  0
 26 27  1  0
 26 23  1  0
 27 25  2  0
 28 29  1  0
 29 30  2  0
 31 34  1  0
 31 30  1  0
 32 31  2  0
 33 32  1  0
 33 28  2  0
 34 35  1  0
 35 36  1  0
 36 37  2  0
 38 37  1  0
 38 42  1  0
 39 38  2  0
 40 35  2  0
 40 39  1  0
 41 40  1  0
 43 44  1  0
 44 47  1  0
 44 46  1  0
 45 43  2  0
 48 49  1  0
 48 23  1  0
 50 48  1  0
 51 53  1  0
 51 10  1  0
 52 63  2  0
 53 58  1  0
 54 62  1  0
 54 64  1  0
 55 61  1  0
 55 57  1  0
 56 62  1  0
 57 58  2  0
 57 56  1  0
 59 53  2  0
 60 59  1  0
 60 55  2  0
 61 54  1  0
 62 52  1  0
 64 66  2  0
 65 64  1  0
 67 65  1  0
 68 77  2  0
 68 73  1  0
 69 65  1  0
 69 73  1  0
 70 69  1  0
 71 72  1  0
 71 70  1  0
 72 68  1  0
 73 74  2  0
 74 75  1  0
 76 75  2  0
 77 76  1  0
 78 52  1  0
 78 83  1  0
 78 79  1  0
 79 82  1  1
 79 80  1  0
 81 79  1  0
 83 86  1  0
 84 88  1  0
 84 83  1  0
 85 84  2  0
 88 87  1  0
 90 88  1  0
 90 91  1  0
 90 89  1  0
 92 93  1  0
 93 94  1  0
 93 96  1  0
 93 95  1  0
M  ISO  4  10 101  13 100  21 100  51 101
M  END
>  <TORSDO>  (36) 
F 18

>  <SCORE>  (36) 
-16.147

>  <name>  (36) 
38

>  <ligand_id>  (36) 
38

>  <original_smiles>  (36) 
[H]N=C1c2c([H])c(N([H])C(=O)N3C([H])([H])C([H])([H])C([H])([H])C([H])(n4nc(-c5c([H])c([H])c(Oc6c([H])c([H])c(F)c([H])c6F)c([H])c5[H])c(C(=O)N([H])[H])c4N([H])[H])C3([H])[H])c([H])c(C([H])([H])[N+]([H])([H])[H])c2C([H])([H])C([H])([H])C1([H])Oc1c([H])c([H])c2c(c1[H])C([H])([H])N(C(=O)C([H])(N([H])C(=O)C([H])(N([H])C([H])([H])[H])C([H])([H])[H])C(C([H])([H])[H])(C([H])([H])[H])C([H])([H])[H])C([H])(C(=O)N([H])C1([H])c3c([H])c([H])c([H])c([H])c3C([H])([H])C([H])([H])C1([H])[H])C2([H])[H]

>  <smiles>  (36) 
[H]N=C1c2c([H])c(N([H])C(=O)N3C([H])([H])C([H])([H])C([H])([H])C([H])(n4nc(-c5c([H])c([H])c(Oc6c([H])c([H])c(F)c([H])c6F)c([H])c5[H])c(C(=O)N([H])[H])c4N([H])[H])C3([H])[H])c([H])c(C([H])([H])[N+]([H])([H])[H])c2C([H])([H])C([H])([H])C1([H])Oc1c([H])c([H])c2c(c1[H])C([H])([H])N(C(=O)C([H])(N([H])C(=O)C([H])(N([H])C([H])([H])[H])C([H])([H])[H])C(C([H])([H])[H])(C([H])([H])[H])C([H])([H])[H])C([H])(C(=O)N([H])C1([H])c3c([H])c([H])c([H])c([H])c3C([H])([H])C([H])([H])C1([H])[H])C2([H])[H]

$$$$
39:0:0
     RDKit          3D

 90 98  0  0  1  0  0  0  0  0999 V2000
  -29.7900  -20.4940   20.1040 N   0  0  0  0  0  4  0  0  0  0  0  0
  -30.2110  -20.5400   19.1900 H   0  0  0  0  0  0  0  0  0  0  0  0
  -30.5240  -20.7040   20.7600 H   0  0  0  0  0  0  0  0  0  0  0  0
  -30.8750  -18.2110   22.1490 C   0  0  0  0  0  2  0  0  0  0  0  0
  -31.5350  -17.8590   20.8060 C   0  0  0  0  0  2  0  0  0  0  0  0
  -29.4390  -18.6760   21.8390 C   0  0  0  0  0  2  0  0  0  0  0  0
  -30.3790  -17.6960   19.8100 C   0  0  0  0  0  3  0  0  0  0  0  0
  -29.4030  -18.9670   20.3310 C   0  0  0  0  0  3  0  0  0  0  0  0
  -30.7100  -14.9690   19.6390 C   0  0  0  0  0  0  0  0  0  0  0  0
  -30.4800  -12.6190   18.7220 C   0  0  0  0  0  2  0  0  0  0  0  0
  -29.4340  -12.5770   17.5850 C   0  0  0  0  0  2  0  0  0  0  0  0
  -28.0170  -12.3730   18.1560 C   0  0  0  0  0  2  0  0  0  0  0  0
  -27.7280  -13.3030   19.3640 C   0  0  0  0  0  3  0  0  0  0  0  0
  -28.8870  -13.3190   20.3830 C   0  0  0  0  0  2  0  0  0  0  0  0
  -30.0950  -13.7200   19.6500 N   0  0  0  0  0  0  0  0  0  0  0  0
  -31.8820  -15.0190   19.2510 O   0  0  0  0  0  0  0  0  0  0  0  0
  -29.9740  -16.1640   19.8600 N   0  0  0  0  0  0  0  0  0  0  0  0
  -29.0080  -16.0000   20.0990 H   0  0  0  0  0  0  0  0  0  0  0  0
  -25.4460  -13.8880   20.3640 C   0  0  0  0  0  0  0  0  0  0  0  0
  -24.4140  -13.1140   20.8180 C   0  0  0  0  0  0  0  0  0  0  0  0
  -24.8520  -11.7600   20.7010 C   0  0  0  0  0  0  0  0  0  0  0  0
  -26.4450  -13.0040   19.9910 N   0  0  0  0  0  0  0  0  0  0  0  0
  -26.1040  -11.7170   20.2590 N   0  0  0  0  0  0  0  0  0  0  0  0
  -24.1290  -10.5010   20.9260 C   0  0  0  0  0  0  0  0  0  0  0  0
  -24.5610   -9.5620   21.8880 C   0  0  0  0  0  3  0  0  0  0  0  0
  -23.8360   -8.3680   22.1000 C   0  0  0  0  0  3  0  0  0  0  0  0
  -22.6670   -8.1060   21.3490 C   0  0  0  0  0  0  0  0  0  0  0  0
  -22.2540   -9.0320   20.3750 C   0  0  0  0  0  3  0  0  0  0  0  0
  -22.9780  -10.2160   20.1620 C   0  0  0  0  0  3  0  0  0  0  0  0
  -21.9130   -6.9620   21.4690 O   0  0  0  0  0  0  0  0  0  0  0  0
  -21.7540   -6.3300   22.6760 C   0  0  0  0  0  0  0  0  0  0  0  0
  -21.1800   -6.9810   23.7890 C   0  0  0  0  0  3  0  0  0  0  0  0
  -20.9710   -6.2720   24.9900 C   0  0  0  0  0  3  0  0  0  0  0  0
  -21.3250   -4.9130   25.0750 C   0  0  0  0  0  0  0  0  0  0  0  0
  -21.8900   -4.2600   23.9650 C   0  0  0  0  0  3  0  0  0  0  0  0
  -22.1010   -4.9670   22.7680 C   0  0  0  0  0  0  0  0  0  0  0  0
  -22.6270   -4.3280   21.6960 F   0  0  0  0  0  0  0  0  0  0  0  0
  -21.1170   -4.2280   26.2240 F   0  0  0  0  0  0  0  0  0  0  0  0
  -23.0580  -13.5990   21.2410 C   0  0  0  0  0  0  0  0  0  0  0  0
  -22.4200  -12.9020   22.1740 N   0  0  0  0  0  0  0  0  0  0  0  0
  -22.5780  -14.6340   20.7780 O   0  0  0  0  0  0  0  0  0  0  0  0
  -22.8230  -12.0660   22.5690 H   0  0  0  0  0  0  0  0  0  0  0  0
  -21.5140  -13.2100   22.4980 H   0  0  0  0  0  0  0  0  0  0  0  0
  -25.6080  -15.2610   20.2090 N   0  0  0  0  0  0  0  0  0  0  0  0
  -24.8560  -15.9130   20.4070 H   0  0  0  0  0  0  0  0  0  0  0  0
  -26.4010  -15.6980   19.7580 H   0  0  0  0  0  0  0  0  0  0  0  0
  -28.7590  -21.7040   20.1680 C   0  0  0  0  0  2  0  0  0  0  0  0
  -29.1880  -23.3420   20.1550 C   0  0  0  0  0  3  0  0  0  0  0  0
  -28.1080  -24.6300   19.9930 C   0  0  0  0  0  3  0  0  0  0  0  0
  -28.3640  -26.1630   20.1300 O   0  0  0  0  0  0  0  0  0  0  0  0
  -24.5870  -31.7180   23.1740 C   0  0  0  0  0  0  0  0  0  0  0  0
  -27.2860  -27.1220   20.0750 C   0  0  0  0  0  0  0  0  0  0  0  0
  -23.4290  -30.3310   21.4970 C   0  0  0  0  0  3  0  0  0  0  0  0
  -24.9200  -28.8160   20.0560 C   0  0  0  0  0  0  0  0  0  0  0  0
  -25.9790  -30.6540   21.3590 C   0  0  0  0  0  2  0  0  0  0  0  0
  -26.0870  -29.2770   20.6810 C   0  0  0  0  0  0  0  0  0  0  0  0
  -27.2710  -28.4470   20.6730 C   0  0  0  0  0  3  0  0  0  0  0  0
  -26.0890  -26.7630   19.4150 C   0  0  0  0  0  3  0  0  0  0  0  0
  -24.9340  -27.5720   19.4080 C   0  0  0  0  0  3  0  0  0  0  0  0
  -23.6740  -29.6860   20.1080 C   0  0  0  0  0  2  0  0  0  0  0  0
  -24.6840  -30.9220   22.0660 N   0  0  0  0  0  0  0  0  0  0  0  0
  -23.4910  -31.9710   23.6970 O   0  0  0  0  0  0  0  0  0  0  0  0
  -22.7620  -29.2930   22.4340 C   0  0  0  0  0  0  0  0  0  0  0  0
  -21.4470  -29.0670   22.2620 N   0  0  0  0  0  0  0  0  0  0  0  0
  -23.4310  -28.6920   23.2780 O   0  0  0  0  0  0  0  0  0  0  0  0
  -20.9620  -29.6040   21.5570 H   0  0  0  0  0  0  0  0  0  0  0  0
  -18.1090  -27.7120   22.6340 C   0  0  0  0  0  0  0  0  0  0  0  0
  -20.6400  -28.0940   23.0030 C   0  0  0  0  0  3  0  0  0  0  0  0
  -20.8320  -26.6660   22.4390 C   0  0  0  0  0  2  0  0  0  0  0  0
  -19.7870  -26.2900   21.3820 C   0  0  0  0  0  2  0  0  0  0  0  0
  -18.3750  -26.3720   21.9690 C   0  0  0  0  0  2  0  0  0  0  0  0
  -19.1720  -28.5270   23.1050 C   0  0  0  0  0  0  0  0  0  0  0  0
  -18.8690  -29.7770   23.6850 C   0  0  0  0  0  3  0  0  0  0  0  0
  -17.5350  -30.2150   23.7990 C   0  0  0  0  0  3  0  0  0  0  0  0
  -16.4870  -29.3970   23.3430 C   0  0  0  0  0  3  0  0  0  0  0  0
  -16.7730  -28.1470   22.7660 C   0  0  0  0  0  3  0  0  0  0  0  0
  -25.8460  -32.3660   23.8250 C   0  0  0  0  0  3  0  0  0  0  0  0
  -26.3460  -31.5960   25.1110 C   0  0  1  0  0  0  0  0  0  0  0  0
  -25.2320  -31.3410   26.1530 C   0  0  0  0  0  1  0  0  0  0  0  0
  -26.9550  -30.2280   24.7300 C   0  0  0  0  0  1  0  0  0  0  0  0
  -27.4720  -32.4020   25.7990 C   0  0  0  0  0  1  0  0  0  0  0  0
  -25.5110  -33.7590   24.1610 N   0  0  0  0  0  0  0  0  0  0  0  0
  -25.8250  -34.8220   23.4090 C   0  0  0  0  0  0  0  0  0  0  0  0
  -26.4940  -34.7350   22.3750 O   0  0  0  0  0  0  0  0  0  0  0  0
  -24.9150  -33.9010   24.9630 H   0  0  0  0  0  0  0  0  0  0  0  0
  -24.0580  -36.5850   23.0850 C   0  0  0  0  0  1  0  0  0  0  0  0
  -25.3190  -36.2020   23.8770 C   0  0  0  0  0  3  0  0  0  0  0  0
  -27.4450  -37.1340   24.6830 C   0  0  0  0  0  1  0  0  0  0  0  0
  -26.3300  -37.2740   23.7490 N   0  0  0  0  0  0  0  0  0  0  0  0
  -25.9070  -38.1870   23.8950 H   0  0  0  0  0  0  0  0  0  0  0  0
  1 47  1  0
  1  3  1  0
  2  1  1  0
  5  4  1  0
  6  4  1  0
  7 17  1  0
  7  8  1  0
  7  5  1  0
  8  1  1  0
  8  6  1  0
  9 15  1  0
  9 17  1  0
 10 15  1  0
 11 12  1  0
 11 10  1  0
 13 12  1  0
 13 22  1  0
 13 14  1  0
 15 14  1  0
 16  9  2  0
 17 18  1  0
 19 20  2  0
 20 39  1  0
 21 20  1  0
 21 24  1  0
 22 23  1  0
 22 19  1  0
 23 21  2  0
 24 25  1  0
 25 26  2  0
 27 30  1  0
 27 26  1  0
 28 27  2  0
 29 28  1  0
 29 24  2  0
 30 31  1  0
 31 36  2  0
 31 32  1  0
 32 33  2  0
 33 34  1  0
 34 38  1  0
 35 34  2  0
 36 35  1  0
 37 36  1  0
 39 40  1  0
 40 43  1  0
 40 42  1  0
 41 39  2  0
 44 19  1  0
 44 45  1  0
 46 44  1  0
 48 47  1  0
 49 50  1  0
 49 48  2  0
 51 62  2  0
 52 50  1  0
 52 57  1  0
 53 61  1  0
 53 63  1  0
 54 60  1  0
 54 56  1  0
 55 61  1  0
 56 55  1  0
 57 56  2  0
 58 52  2  0
 59 58  1  0
 59 54  2  0
 60 53  1  0
 61 51  1  0
 63 65  2  0
 64 63  1  0
 66 64  1  0
 67 76  2  0
 67 72  1  0
 68 64  1  0
 68 72  1  0
 69 68  1  0
 70 71  1  0
 70 69  1  0
 71 67  1  0
 72 73  2  0
 73 74  1  0
 75 74  2  0
 76 75  1  0
 77 51  1  0
 77 82  1  0
 77 78  1  0
 78 81  1  1
 78 79  1  0
 80 78  1  0
 82 85  1  0
 83 87  1  0
 83 82  1  0
 84 83  2  0
 87 86  1  0
 89 87  1  0
 89 90  1  0
 89 88  1  0
M  ISO  4   9 100  17 100  49 101  50 101
M  END
>  <TORSDO>  (37) 
F 20

>  <SCORE>  (37) 
-12.159

>  <name>  (37) 
39

>  <ligand_id>  (37) 
39

>  <original_smiles>  (37) 
[H]c1c([H])c([H])c2c(c1[H])C([H])([H])C([H])([H])C([H])([H])C2([H])N([H])C(=O)C1([H])N(C(=O)C([H])(N([H])C(=O)C([H])(N([H])C([H])([H])[H])C([H])([H])[H])C(C([H])([H])[H])(C([H])([H])[H])C([H])([H])[H])C([H])([H])c2c([H])c(OC([H])([H])C([H])([H])C([H])([H])[N+]([H])([H])C3([H])C([H])([H])C([H])([H])C([H])([H])C3([H])N([H])C(=O)N3C([H])([H])C([H])([H])C([H])([H])C([H])(n4nc(-c5c([H])c([H])c(Oc6c([H])c([H])c(F)c([H])c6F)c([H])c5[H])c(C(=O)N([H])[H])c4N([H])[H])C3([H])[H])c([H])c([H])c2C1([H])[H]

>  <smiles>  (37) 
[H]c1c([H])c([H])c2c(c1[H])C([H])([H])C([H])([H])C([H])([H])C2([H])N([H])C(=O)C1([H])N(C(=O)C([H])(N([H])C(=O)C([H])(N([H])C([H])([H])[H])C([H])([H])[H])C(C([H])([H])[H])(C([H])([H])[H])C([H])([H])[H])C([H])([H])c2c([H])c(OC([H])([H])C([H])([H])C([H])([H])[N+]([H])([H])C3([H])C([H])([H])C([H])([H])C([H])([H])C3([H])N([H])C(=O)N3C([H])([H])C([H])([H])C([H])([H])C([H])(n4nc(-c5c([H])c([H])c(Oc6c([H])c([H])c(F)c([H])c6F)c([H])c5[H])c(C(=O)N([H])[H])c4N([H])[H])C3([H])[H])c([H])c([H])c2C1([H])[H]

$$$$
40:0:0
     RDKit          3D

 97106  0  0  1  0  0  0  0  0999 V2000
  -26.8390  -22.5440   22.0810 C   0  0  0  0  0  2  0  0  0  0  0  0
  -26.1730  -23.0930   20.8090 C   0  0  0  0  0  2  0  0  0  0  0  0
  -28.3700  -22.7200   22.0430 C   0  0  0  0  0  2  0  0  0  0  0  0
  -26.8540  -22.5480   19.5370 C   0  0  0  0  0  2  0  0  0  0  0  0
  -28.9990  -22.1980   20.7210 C   0  0  0  0  0  3  0  0  0  0  0  0
  -28.3160  -22.8360   19.5330 N   0  0  2  0  0  4  0  0  0  0  0  0
  -28.6870  -22.3880   18.7090 H   0  0  0  0  0  0  0  0  0  0  0  0
  -29.0280  -20.6260   20.7650 C   0  0  0  0  0  2  0  0  0  0  0  0
  -30.4540  -18.6390   20.2760 C   0  0  0  0  0  0  0  0  0  0  0  0
  -30.1380  -19.9400   20.0880 N   0  0  0  0  0  0  0  0  0  0  0  0
  -29.9030  -17.9420   21.1290 O   0  0  0  0  0  0  0  0  0  0  0  0
  -30.6870  -20.4540   19.4130 H   0  0  0  0  0  0  0  0  0  0  0  0
  -32.0620  -15.6310   19.8750 C   0  0  0  0  0  0  0  0  0  0  0  0
  -31.8540  -13.2270   19.4160 C   0  0  0  0  0  2  0  0  0  0  0  0
  -30.9540  -12.9930   18.1840 C   0  0  0  0  0  2  0  0  0  0  0  0
  -29.4610  -13.0030   18.5680 C   0  0  0  0  0  2  0  0  0  0  0  0
  -29.0540  -14.1420   19.5470 C   0  0  0  0  0  3  0  0  0  0  0  0
  -30.0790  -14.3080   20.6880 C   0  0  0  0  0  2  0  0  0  0  0  0
  -31.4000  -14.4590   20.0720 N   0  0  0  0  0  0  0  0  0  0  0  0
  -33.2910  -15.7010   19.8520 O   0  0  0  0  0  0  0  0  0  0  0  0
  -31.6940  -17.6140   16.9540 C   0  0  0  0  0  2  0  0  0  0  0  0
  -31.2070  -18.6340   17.9410 C   0  0  0  0  0  2  0  0  0  0  0  0
  -31.4550  -16.2950   17.6710 C   0  0  0  0  0  2  0  0  0  0  0  0
  -31.5130  -18.0250   19.3290 C   0  0  0  0  0  3  0  0  0  0  0  0
  -31.3940  -16.5510   19.1280 N   0  0  0  0  0  0  0  0  0  0  0  0
  -26.7130  -14.8920   20.2980 C   0  0  0  0  0  0  0  0  0  0  0  0
  -25.5970  -14.1860   20.6580 C   0  0  0  0  0  0  0  0  0  0  0  0
  -25.9700  -12.8070   20.6100 C   0  0  0  0  0  0  0  0  0  0  0  0
  -27.6980  -13.9480   20.0510 N   0  0  0  0  0  0  0  0  0  0  0  0
  -27.2550  -12.6890   20.3040 N   0  0  0  0  0  0  0  0  0  0  0  0
  -25.1630  -11.5920   20.7810 C   0  0  0  0  0  0  0  0  0  0  0  0
  -25.4560  -10.6480   21.7910 C   0  0  0  0  0  3  0  0  0  0  0  0
  -24.6540   -9.4970   21.9480 C   0  0  0  0  0  3  0  0  0  0  0  0
  -23.5440   -9.2830   21.0970 C   0  0  0  0  0  0  0  0  0  0  0  0
  -23.2720  -10.2130   20.0800 C   0  0  0  0  0  3  0  0  0  0  0  0
  -24.0730  -11.3560   19.9190 C   0  0  0  0  0  3  0  0  0  0  0  0
  -22.7240   -8.1810   21.1620 O   0  0  0  0  0  0  0  0  0  0  0  0
  -22.3870   -7.6060   22.3610 C   0  0  0  0  0  0  0  0  0  0  0  0
  -21.7600   -8.3410   23.3910 C   0  0  0  0  0  3  0  0  0  0  0  0
  -21.3660   -7.6940   24.5790 C   0  0  0  0  0  3  0  0  0  0  0  0
  -21.5890   -6.3130   24.7360 C   0  0  0  0  0  0  0  0  0  0  0  0
  -22.2080   -5.5780   23.7090 C   0  0  0  0  0  3  0  0  0  0  0  0
  -22.6030   -6.2220   22.5240 C   0  0  0  0  0  0  0  0  0  0  0  0
  -23.1780   -5.5060   21.5290 F   0  0  0  0  0  0  0  0  0  0  0  0
  -21.2020   -5.6890   25.8730 F   0  0  0  0  0  0  0  0  0  0  0  0
  -24.2340  -14.7490   20.9360 C   0  0  0  0  0  0  0  0  0  0  0  0
  -23.4780  -14.1140   21.8250 N   0  0  0  0  0  0  0  0  0  0  0  0
  -23.8500  -15.7890   20.4010 O   0  0  0  0  0  0  0  0  0  0  0  0
  -23.8020  -13.2750   22.2830 H   0  0  0  0  0  0  0  0  0  0  0  0
  -22.5620  -14.4720   22.0530 H   0  0  0  0  0  0  0  0  0  0  0  0
  -26.9690  -16.2500   20.1390 N   0  0  0  0  0  0  0  0  0  0  0  0
  -26.2620  -16.9600   20.2960 H   0  0  0  0  0  0  0  0  0  0  0  0
  -27.8860  -16.6350   19.9430 H   0  0  0  0  0  0  0  0  0  0  0  0
  -28.6550  -24.3030   19.3850 C   0  0  0  0  0  2  0  0  0  0  0  0
  -27.9330  -25.1130   18.2590 C   0  0  0  0  0  2  0  0  0  0  0  0
  -28.2950  -26.6250   18.2730 C   0  0  0  0  0  2  0  0  0  0  0  0
  -27.5260  -27.4340   17.3650 O   0  0  0  0  0  0  0  0  0  0  0  0
  -24.4950  -31.0090   22.7430 C   0  0  0  0  0  0  0  0  0  0  0  0
  -26.3880  -27.9950   17.8990 C   0  0  0  0  0  0  0  0  0  0  0  0
  -22.9480  -29.9890   21.1040 C   0  0  0  0  0  3  0  0  0  0  0  0
  -24.0230  -29.1180   18.9600 C   0  0  0  0  0  0  0  0  0  0  0  0
  -25.2980  -30.7140   20.4020 C   0  0  0  0  0  2  0  0  0  0  0  0
  -25.2710  -29.5990   19.3750 C   0  0  0  0  0  0  0  0  0  0  0  0
  -26.4580  -29.0460   18.8420 C   0  0  0  0  0  3  0  0  0  0  0  0
  -25.1260  -27.5310   17.4800 C   0  0  0  0  0  3  0  0  0  0  0  0
  -23.9440  -28.0840   18.0080 C   0  0  0  0  0  3  0  0  0  0  0  0
  -22.7990  -29.7600   19.5760 C   0  0  0  0  0  2  0  0  0  0  0  0
  -24.2810  -30.5710   21.4700 N   0  0  0  0  0  0  0  0  0  0  0  0
  -23.5950  -30.9730   23.5940 O   0  0  0  0  0  0  0  0  0  0  0  0
  -22.6390  -28.6620   21.8340 C   0  0  0  0  0  0  0  0  0  0  0  0
  -21.3790  -28.2070   21.7420 N   0  0  0  0  0  0  0  0  0  0  0  0
  -23.5250  -28.0530   22.4390 O   0  0  0  0  0  0  0  0  0  0  0  0
  -20.7100  -28.7690   21.2350 H   0  0  0  0  0  0  0  0  0  0  0  0
  -18.5120  -26.0120   21.8540 C   0  0  0  0  0  0  0  0  0  0  0  0
  -20.8710  -26.9620   22.3150 C   0  0  0  0  0  3  0  0  0  0  0  0
  -21.4050  -25.7350   21.5410 C   0  0  0  0  0  2  0  0  0  0  0  0
  -20.4640  -25.2690   20.4250 C   0  0  0  0  0  2  0  0  0  0  0  0
  -19.0920  -24.8990   20.9990 C   0  0  0  0  0  2  0  0  0  0  0  0
  -19.3450  -26.9900   22.4590 C   0  0  0  0  0  0  0  0  0  0  0  0
  -18.7520  -28.0230   23.2160 C   0  0  0  0  0  3  0  0  0  0  0  0
  -17.3550  -28.0870   23.3760 C   0  0  0  0  0  3  0  0  0  0  0  0
  -16.5350  -27.1090   22.7870 C   0  0  0  0  0  3  0  0  0  0  0  0
  -17.1130  -26.0730   22.0320 C   0  0  0  0  0  3  0  0  0  0  0  0
  -25.8710  -31.5980   23.1850 C   0  0  0  0  0  3  0  0  0  0  0  0
  -25.6100  -32.8740   23.8630 N   0  0  0  0  0  0  0  0  0  0  0  0
  -25.8040  -34.0810   23.3150 C   0  0  0  0  0  0  0  0  0  0  0  0
  -26.2960  -34.2360   22.1930 O   0  0  0  0  0  0  0  0  0  0  0  0
  -25.1550  -32.8230   24.7630 H   0  0  0  0  0  0  0  0  0  0  0  0
  -24.0420  -35.8510   23.6210 C   0  0  0  0  0  1  0  0  0  0  0  0
  -25.3850  -35.3130   24.1420 C   0  0  0  0  0  3  0  0  0  0  0  0
  -27.6150  -36.0520   24.8530 C   0  0  0  0  0  1  0  0  0  0  0  0
  -26.3910  -36.3960   24.1350 N   0  0  0  0  0  0  0  0  0  0  0  0
  -26.0090  -37.2450   24.5450 H   0  0  0  0  0  0  0  0  0  0  0  0
  -26.6940  -30.6280   24.1180 C   0  0  1  0  0  0  0  0  0  0  0  0
  -25.8840  -30.0820   25.3160 C   0  0  0  0  0  1  0  0  0  0  0  0
  -27.2200  -29.4160   23.3140 C   0  0  0  0  0  1  0  0  0  0  0  0
  -27.9350  -31.3620   24.6770 C   0  0  0  0  0  1  0  0  0  0  0  0
  2  1  1  0
  3  1  1  0
  4  2  1  0
  5  8  1  0
  5  3  1  0
  6  4  1  0
  6  5  1  0
  6  7  1  6
  9 11  2  0
 10  9  1  0
 10  8  1  0
 12 10  1  0
 13 19  1  0
 14 19  1  0
 15 16  1  0
 15 14  1  0
 17 16  1  0
 17 29  1  0
 17 18  1  0
 19 18  1  0
 20 13  2  0
 21 23  1  0
 21 22  1  0
 22 24  1  0
 23 25  1  0
 24  9  1  0
 25 24  1  0
 25 13  1  0
 26 27  2  0
 27 46  1  0
 28 27  1  0
 28 31  1  0
 29 26  1  0
 29 30  1  0
 30 28  2  0
 31 32  1  0
 32 33  2  0
 34 37  1  0
 34 33  1  0
 35 34  2  0
 36 35  1  0
 36 31  2  0
 37 38  1  0
 38 43  2  0
 38 39  1  0
 39 40  2  0
 40 41  1  0
 41 45  1  0
 42 41  2  0
 43 42  1  0
 44 43  1  0
 46 47  1  0
 47 50  1  0
 47 49  1  0
 48 46  2  0
 51 52  1  0
 51 26  1  0
 53 51  1  0
 54  6  1  0
 55 56  1  0
 55 54  1  0
 57 59  1  0
 57 56  1  0
 58 69  2  0
 59 64  1  0
 60 68  1  0
 60 70  1  0
 61 63  1  0
 61 67  1  0
 62 68  1  0
 63 62  1  0
 64 63  2  0
 65 59  2  0
 65 66  1  0
 66 61  2  0
 67 60  1  0
 68 58  1  0
 70 72  2  0
 71 70  1  0
 73 71  1  0
 74 83  2  0
 74 79  1  0
 75 71  1  0
 75 79  1  0
 76 75  1  0
 77 78  1  0
 77 76  1  0
 78 74  1  0
 79 80  2  0
 80 81  1  0
 82 81  2  0
 83 82  1  0
 84 58  1  0
 84 85  1  0
 84 94  1  0
 85 88  1  0
 86 85  1  0
 86 90  1  0
 87 86  2  0
 90 89  1  0
 92 90  1  0
 92 93  1  0
 92 91  1  0
 94 97  1  1
 94 95  1  0
 96 94  1  0
M  ISO  4  13 100  25 100  56 101  57 101
M  END
>  <TORSDO>  (38) 
F 21

>  <SCORE>  (38) 
-7.371

>  <name>  (38) 
40

>  <ligand_id>  (38) 
40

>  <original_smiles>  (38) 
[H]c1c([H])c([H])c2c(c1[H])C([H])([H])C([H])([H])C([H])([H])C2([H])N([H])C(=O)C1([H])N(C(=O)C([H])(N([H])C(=O)C([H])(N([H])C([H])([H])[H])C([H])([H])[H])C(C([H])([H])[H])(C([H])([H])[H])C([H])([H])[H])C([H])([H])c2c([H])c(OC([H])([H])C([H])([H])C([H])([H])[N+]3([H])C([H])([H])C([H])([H])C([H])([H])C([H])([H])C3([H])C([H])([H])N([H])C(=O)C3([H])N(C(=O)N4C([H])([H])C([H])([H])C([H])([H])C([H])(n5nc(-c6c([H])c([H])c(Oc7c([H])c([H])c(F)c([H])c7F)c([H])c6[H])c(C(=O)N([H])[H])c5N([H])[H])C4([H])[H])C([H])([H])C([H])([H])C3([H])[H])c([H])c([H])c2C1([H])[H]

>  <smiles>  (38) 
[H]c1c([H])c([H])c2c(c1[H])C([H])([H])C([H])([H])C([H])([H])C2([H])N([H])C(=O)C1([H])N(C(=O)C([H])(N([H])C(=O)C([H])(N([H])C([H])([H])[H])C([H])([H])[H])C(C([H])([H])[H])(C([H])([H])[H])C([H])([H])[H])C([H])([H])c2c([H])c(OC([H])([H])C([H])([H])C([H])([H])[N+]3([H])C([H])([H])C([H])([H])C([H])([H])C([H])([H])C3([H])C([H])([H])N([H])C(=O)C3([H])N(C(=O)N4C([H])([H])C([H])([H])C([H])([H])C([H])(n5nc(-c6c([H])c([H])c(Oc7c([H])c([H])c(F)c([H])c7F)c([H])c6[H])c(C(=O)N([H])[H])c5N([H])[H])C4([H])[H])C([H])([H])C([H])([H])C3([H])[H])c([H])c([H])c2C1([H])[H]

$$$$
41:0:0
     RDKit          3D

 95101  0  0  1  0  0  0  0  0999 V2000
  -28.2430  -19.9060   18.9640 C   0  0  0  0  0  2  0  0  0  0  0  0
  -28.2390  -21.3490   19.5380 C   0  0  0  0  0  2  0  0  0  0  0  0
  -28.4410  -20.9990   21.0520 C   0  0  0  0  0  2  0  0  0  0  0  0
  -28.0290  -19.5030   21.6360 C   0  0  0  0  0  2  0  0  0  0  0  0
  -28.0490  -15.0570   21.2580 C   0  0  0  0  0  2  0  0  0  0  0  0
  -27.8440  -16.6670   21.7010 C   0  0  0  0  0  2  0  0  0  0  0  0
  -27.5630  -14.5960   19.7990 C   0  0  0  0  0  3  0  0  0  0  0  0
  -28.2520  -18.0920   19.5680 C   0  0  0  0  0  2  0  0  0  0  0  0
  -28.5060  -18.0510   21.0610 C   0  0  0  0  0  3  0  0  0  0  0  0
  -28.5850  -16.2270   19.0180 C   0  0  0  0  0  2  0  0  0  0  0  0
  -31.2660  -14.9470   18.6650 C   0  0  0  0  0  0  0  0  0  0  0  0
  -31.7040  -12.4150   18.3390 C   0  0  0  0  0  2  0  0  0  0  0  0
  -30.5940  -11.7760   17.4320 C   0  0  0  0  0  2  0  0  0  0  0  0
  -29.2170  -11.7100   18.1140 C   0  0  0  0  0  2  0  0  0  0  0  0
  -29.0650  -13.0680   18.7140 C   0  0  0  0  0  3  0  0  0  0  0  0
  -30.1300  -13.2530   19.8330 C   0  0  0  0  0  2  0  0  0  0  0  0
  -31.1940  -13.6340   19.0400 N   0  0  0  0  0  0  0  0  0  0  0  0
  -32.3100  -15.2060   18.0320 O   0  0  0  0  0  0  0  0  0  0  0  0
  -30.2110  -15.9090   19.0370 N   0  0  0  0  0  0  0  0  0  0  0  0
  -30.6670  -16.8080   18.9970 H   0  0  0  0  0  0  0  0  0  0  0  0
  -26.3620  -14.4930   19.6080 C   0  0  0  0  0  3  0  0  0  0  0  0
  -25.5530  -13.7770   20.9540 C   0  0  0  0  0  3  0  0  0  0  0  0
  -26.2010  -12.2310   21.3870 C   0  0  0  0  0  3  0  0  0  0  0  0
  -27.8580  -13.2570   19.2710 N   0  0  0  0  0  0  0  0  0  0  0  0
  -27.6180  -12.0090   20.5610 N   0  0  0  0  0  2  0  0  0  0  0  0
  -25.1900  -10.9560   21.1380 C   0  0  0  0  0  0  0  0  0  0  0  0
  -25.3840   -9.6790   21.7430 C   0  0  0  0  0  3  0  0  0  0  0  0
  -24.4530   -8.5850   21.6890 C   0  0  0  0  0  3  0  0  0  0  0  0
  -23.2320   -8.6600   20.9760 C   0  0  0  0  0  0  0  0  0  0  0  0
  -23.0660   -9.8380   20.2080 C   0  0  0  0  0  3  0  0  0  0  0  0
  -24.0170  -10.9190   20.2680 C   0  0  0  0  0  3  0  0  0  0  0  0
  -22.2640   -7.6500   20.9590 O   0  0  0  0  0  0  0  0  0  0  0  0
  -21.9720   -6.8620   22.0680 C   0  0  0  0  0  0  0  0  0  0  0  0
  -21.6290   -7.4320   23.3170 C   0  0  0  0  0  3  0  0  0  0  0  0
  -21.3170   -6.6110   24.4240 C   0  0  0  0  0  3  0  0  0  0  0  0
  -21.3330   -5.2100   24.2970 C   0  0  0  0  0  0  0  0  0  0  0  0
  -21.6420   -4.6310   23.0540 C   0  0  0  0  0  3  0  0  0  0  0  0
  -21.9490   -5.4490   21.9470 C   0  0  0  0  0  0  0  0  0  0  0  0
  -22.2190   -4.8610   20.7570 F   0  0  0  0  0  0  0  0  0  0  0  0
  -21.0490   -4.4220   25.3650 F   0  0  0  0  0  0  0  0  0  0  0  0
  -24.2440  -14.1790   21.4720 C   0  0  0  0  0  0  0  0  0  0  0  0
  -23.6520  -13.3990   22.3720 N   0  0  0  0  0  0  0  0  0  0  0  0
  -23.7490  -15.2080   21.0520 O   0  0  0  0  0  0  0  0  0  0  0  0
  -24.0700  -12.5330   22.6750 H   0  0  0  0  0  0  0  0  0  0  0  0
  -22.7510  -13.6660   22.7420 H   0  0  0  0  0  0  0  0  0  0  0  0
  -26.3110  -15.7910   19.2930 N   0  0  0  0  0  0  0  0  0  0  0  0
  -25.4730  -16.1530   19.7460 H   0  0  0  0  0  0  0  0  0  0  0  0
  -26.1130  -15.7950   18.2960 H   0  0  0  0  0  0  0  0  0  0  0  0
  -27.8990  -23.2400   18.9640 C   0  0  0  0  0 15  0  0  0  0  0  0
  -28.2430  -25.0820   19.1990 O   0  0  0  0  0  1  0  0  0  0  0  0
  -24.7540  -31.3600   22.3550 C   0  0  0  0  0  0  0  0  0  0  0  0
  -27.4360  -26.4720   19.0810 C   0  0  0  0  0  0  0  0  0  0  0  0
  -23.6760  -30.0210   20.6060 C   0  0  0  0  0  3  0  0  0  0  0  0
  -25.2190  -28.6010   19.0420 C   0  0  0  0  0  0  0  0  0  0  0  0
  -26.2430  -30.2940   20.5250 C   0  0  0  0  0  2  0  0  0  0  0  0
  -26.3780  -28.9010   19.7620 C   0  0  0  0  0  0  0  0  0  0  0  0
  -27.4790  -27.8650   19.7480 C   0  0  0  0  0  3  0  0  0  0  0  0
  -26.3060  -26.4990   18.2280 C   0  0  0  0  0  3  0  0  0  0  0  0
  -25.2450  -27.4550   18.2320 C   0  0  0  0  0  3  0  0  0  0  0  0
  -23.9640  -29.4870   19.1700 C   0  0  0  0  0  2  0  0  0  0  0  0
  -24.9150  -30.6000   21.2150 N   0  0  0  0  0  0  0  0  0  0  0  0
  -23.6400  -31.5270   22.8850 O   0  0  0  0  0  0  0  0  0  0  0  0
  -23.0540  -28.9010   21.4840 C   0  0  0  0  0  0  0  0  0  0  0  0
  -21.7320  -28.6610   21.3740 N   0  0  0  0  0  0  0  0  0  0  0  0
  -23.7730  -28.2500   22.2460 O   0  0  0  0  0  0  0  0  0  0  0  0
  -21.1940  -29.2400   20.7440 H   0  0  0  0  0  0  0  0  0  0  0  0
  -18.4560  -27.1660   21.8700 C   0  0  0  0  0  0  0  0  0  0  0  0
  -21.0010  -27.5940   22.0710 C   0  0  0  0  0  3  0  0  0  0  0  0
  -21.1760  -26.2380   21.3460 C   0  0  0  0  0  2  0  0  0  0  0  0
  -20.0590  -25.9460   20.3380 C   0  0  0  0  0  2  0  0  0  0  0  0
  -18.6980  -25.9180   21.0390 C   0  0  0  0  0  2  0  0  0  0  0  0
  -19.5350  -27.9620   22.3400 C   0  0  0  0  0  0  0  0  0  0  0  0
  -19.2510  -29.1260   23.0860 C   0  0  0  0  0  3  0  0  0  0  0  0
  -17.9210  -29.5000   23.3600 C   0  0  0  0  0  3  0  0  0  0  0  0
  -16.8580  -28.7030   22.9000 C   0  0  0  0  0  3  0  0  0  0  0  0
  -17.1260  -27.5370   22.1620 C   0  0  0  0  0  3  0  0  0  0  0  0
  -25.9550  -32.0700   23.0500 C   0  0  0  0  0  3  0  0  0  0  0  0
  -26.6340  -31.1850   24.1680 C   0  0  1  0  0  0  0  0  0  0  0  0
  -25.6390  -30.6300   25.2150 C   0  0  0  0  0  1  0  0  0  0  0  0
  -27.3780  -29.9780   23.5560 C   0  0  0  0  0  1  0  0  0  0  0  0
  -27.7020  -32.0170   24.9170 C   0  0  0  0  0  1  0  0  0  0  0  0
  -25.4660  -33.3310   23.6500 N   0  0  0  0  0  0  0  0  0  0  0  0
  -25.6670  -34.5590   23.1540 C   0  0  0  0  0  0  0  0  0  0  0  0
  -26.3400  -34.7600   22.1400 O   0  0  0  0  0  0  0  0  0  0  0  0
  -24.8560  -33.2360   24.4490 H   0  0  0  0  0  0  0  0  0  0  0  0
  -23.7310  -36.1750   23.1840 C   0  0  0  0  0  1  0  0  0  0  0  0
  -25.0270  -35.7540   23.8960 C   0  0  0  0  0  3  0  0  0  0  0  0
  -27.0460  -36.7060   24.9240 C   0  0  0  0  0  1  0  0  0  0  0  0
  -25.9240  -36.9260   24.0160 N   0  0  0  0  0  0  0  0  0  0  0  0
  -25.4090  -37.7410   24.3410 H   0  0  0  0  0  0  0  0  0  0  0  0
  -28.4520  -16.6350   17.4670 C   0  0  0  0  0  2  0  0  0  0  0  0
  -27.6910  -17.8500   17.1450 N   0  0  0  0  0  4  0  0  0  0  0  0
  -26.7450  -17.6240   17.4510 H   0  0  0  0  0  0  0  0  0  0  0  0
  -27.6830  -18.0290   16.1570 H   0  0  0  0  0  0  0  0  0  0  0  0
  -28.0420  -18.6430   17.6520 H   0  0  0  0  0  0  0  0  0  0  0  0
  1  2  1  0
  1  8  1  0
  2  3  1  0
  3  4  1  0
  5  6  1  0
  7  5  1  0
  8  9  1  0
  9  4  1  0
  9  6  1  0
 10 19  1  0
 11 19  1  0
 11 17  1  0
 12 17  1  0
 13 14  1  0
 13 12  1  0
 15 14  1  0
 15 24  1  0
 15 16  1  0
 17 16  1  0
 18 11  2  0
 20 19  1  0
 21 46  1  0
 21  7  1  0
 21 22  1  0
 22 23  1  0
 22 41  1  0
 23 26  1  0
 24  7  1  0
 24 25  1  0
 25 23  1  0
 26 27  1  0
 28 27  2  0
 29 28  1  0
 30 31  1  0
 30 29  2  0
 31 26  2  0
 32 29  1  0
 32 33  1  0
 33 34  1  0
 34 35  2  0
 36 35  1  0
 36 40  1  0
 37 36  2  0
 38 33  2  0
 38 37  1  0
 39 38  1  0
 41 42  1  0
 42 44  1  0
 42 45  1  0
 43 41  2  0
 46 47  1  0
 48 46  1  0
 51 62  2  0
 52 50  1  0
 52 57  1  0
 53 61  1  0
 53 63  1  0
 54 60  1  0
 54 56  1  0
 55 61  1  0
 56 55  1  0
 57 56  2  0
 58 59  1  0
 58 52  2  0
 59 54  2  0
 60 53  1  0
 61 51  1  0
 63 65  2  0
 64 63  1  0
 66 64  1  0
 67 76  2  0
 67 72  1  0
 68 64  1  0
 68 72  1  0
 69 68  1  0
 70 71  1  0
 70 69  1  0
 71 67  1  0
 72 73  2  0
 73 74  1  0
 75 74  2  0
 76 75  1  0
 77 51  1  0
 77 82  1  0
 77 78  1  0
 78 81  1  1
 78 79  1  0
 80 78  1  0
 82 85  1  0
 83 82  1  0
 83 87  1  0
 84 83  2  0
 87 86  1  0
 87 89  1  0
 89 90  1  0
 89 88  1  0
 91 10  1  0
 92 93  1  0
 92 91  1  0
 92 95  1  0
 94 92  1  0
M  ISO  4  11 100  19 100  49 101  50 101
M  END
>  <TORSDO>  (39) 
F 19

>  <SCORE>  (39) 
-2.105

>  <name>  (39) 
41

>  <ligand_id>  (39) 
41

>  <original_smiles>  (39) 
[H]C1=C(C([H])([H])Oc2c([H])c([H])c3c(c2[H])C([H])([H])N(C(=O)C([H])(N([H])C(=O)C([H])(N([H])C([H])([H])[H])C([H])([H])[H])C(C([H])([H])[H])(C([H])([H])[H])C([H])([H])[H])C([H])(C(=O)N([H])C2([H])c4c([H])c([H])c([H])c([H])c4C([H])([H])C([H])([H])C2([H])[H])C3([H])[H])C([H])([H])C([H])([H])C2([H])C([H])([H])C([H])([H])C([H])([H])C(N([H])C(=O)N3C([H])([H])C([H])([H])C([H])([H])C([H])(n4nc(-c5c([H])c([H])c(Oc6c([H])c([H])c(F)c([H])c6F)c([H])c5[H])c(C(=O)N([H])[H])c4N([H])[H])C3([H])[H])(C([H])([H])[N+]([H])([H])[H])C12[H]

>  <smiles>  (39) 
[H]C1=C(C([H])([H])Oc2c([H])c([H])c3c(c2[H])C([H])([H])N(C(=O)C([H])(N([H])C(=O)C([H])(N([H])C([H])([H])[H])C([H])([H])[H])C(C([H])([H])[H])(C([H])([H])[H])C([H])([H])[H])C([H])(C(=O)N([H])C2([H])c4c([H])c([H])c([H])c([H])c4C([H])([H])C([H])([H])C2([H])[H])C3([H])[H])C([H])([H])C([H])([H])C2([H])C([H])([H])C([H])([H])C([H])([H])C(N([H])C(=O)N3C([H])([H])C([H])([H])C([H])([H])C([H])(n4nc(-c5c([H])c([H])c(Oc6c([H])c([H])c(F)c([H])c6F)c([H])c5[H])c(C(=O)N([H])[H])c4N([H])[H])C3([H])[H])(C([H])([H])[N+]([H])([H])[H])C12[H]

$$$$
42:0:0
     RDKit          3D

 93101  0  0  1  0  0  0  0  0999 V2000
  -29.9360  -22.9820   18.9680 C   0  0  0  0  0  2  0  0  0  0  0  0
  -28.4050  -21.1140   18.4640 C   0  0  0  0  0  2  0  0  0  0  0  0
  -29.4120  -22.0840   17.8170 C   0  0  0  0  0  3  0  0  0  0  0  0
  -29.0010  -22.7560   20.1730 C   0  0  0  0  0  3  0  0  0  0  0  0
  -28.6230  -21.1480   19.9210 N   0  0  2  0  0  4  0  0  0  0  0  0
  -27.6990  -21.0330   20.3120 H   0  0  0  0  0  0  0  0  0  0  0  0
  -28.8080  -22.8530   16.6080 C   0  0  0  0  0  2  0  0  0  0  0  0
  -29.8400  -23.2700   15.6420 N   0  0  0  0  0  4  0  0  0  0  0  0
  -30.5730  -23.7870   16.0930 H   0  0  0  0  0  0  0  0  0  0  0  0
  -29.4430  -23.8400   14.9150 H   0  0  0  0  0  0  0  0  0  0  0  0
  -30.2410  -22.4640   15.1970 H   0  0  0  0  0  0  0  0  0  0  0  0
  -27.9390  -24.2240   20.2260 C   0  0  0  0  0  2  0  0  0  0  0  0
  -28.1960  -25.8600   20.2710 O   0  0  0  0  0  0  0  0  0  0  0  0
  -24.6070  -31.8360   23.2140 C   0  0  0  0  0  0  0  0  0  0  0  0
  -27.1820  -26.9530   20.2210 C   0  0  0  0  0  0  0  0  0  0  0  0
  -23.4250  -30.4390   21.5700 C   0  0  0  0  0  3  0  0  0  0  0  0
  -24.8850  -28.8360   20.1600 C   0  0  0  0  0  0  0  0  0  0  0  0
  -25.9900  -30.6570   21.4320 C   0  0  0  0  0  2  0  0  0  0  0  0
  -26.0720  -29.2450   20.7810 C   0  0  0  0  0  0  0  0  0  0  0  0
  -27.2180  -28.3270   20.7800 C   0  0  0  0  0  3  0  0  0  0  0  0
  -25.9590  -26.6970   19.5630 C   0  0  0  0  0  3  0  0  0  0  0  0
  -24.8520  -27.5810   19.5310 C   0  0  0  0  0  3  0  0  0  0  0  0
  -23.6690  -29.7570   20.1940 C   0  0  0  0  0  2  0  0  0  0  0  0
  -24.6950  -31.0010   22.1290 N   0  0  0  0  0  0  0  0  0  0  0  0
  -23.5140  -32.1290   23.7210 O   0  0  0  0  0  0  0  0  0  0  0  0
  -22.7190  -29.4430   22.5260 C   0  0  0  0  0  0  0  0  0  0  0  0
  -21.3880  -29.2930   22.4000 N   0  0  0  0  0  0  0  0  0  0  0  0
  -23.3760  -28.8080   23.3550 O   0  0  0  0  0  0  0  0  0  0  0  0
  -20.9080  -29.8570   21.7120 H   0  0  0  0  0  0  0  0  0  0  0  0
  -17.9910  -28.1230   22.9070 C   0  0  0  0  0  0  0  0  0  0  0  0
  -20.5570  -28.3570   23.1650 C   0  0  0  0  0  3  0  0  0  0  0  0
  -20.6420  -26.9320   22.5690 C   0  0  0  0  0  2  0  0  0  0  0  0
  -19.5320  -26.6330   21.5580 C   0  0  0  0  0  2  0  0  0  0  0  0
  -18.1530  -26.7830   22.2080 C   0  0  0  0  0  2  0  0  0  0  0  0
  -19.1200  -28.8690   23.3420 C   0  0  0  0  0  0  0  0  0  0  0  0
  -18.9130  -30.1240   23.9560 C   0  0  0  0  0  3  0  0  0  0  0  0
  -17.6120  -30.6320   24.1380 C   0  0  0  0  0  3  0  0  0  0  0  0
  -16.5010  -29.8820   23.7220 C   0  0  0  0  0  3  0  0  0  0  0  0
  -16.6910  -28.6280   23.1110 C   0  0  0  0  0  3  0  0  0  0  0  0
  -25.8720  -32.4790   23.8580 C   0  0  0  0  0  3  0  0  0  0  0  0
  -25.5620  -33.8820   24.1840 N   0  0  0  0  0  0  0  0  0  0  0  0
  -25.8910  -34.9350   23.4240 C   0  0  0  0  0  0  0  0  0  0  0  0
  -26.5590  -34.8280   22.3930 O   0  0  0  0  0  0  0  0  0  0  0  0
  -24.9850  -34.0430   24.9960 H   0  0  0  0  0  0  0  0  0  0  0  0
  -24.1800  -36.7440   23.0640 C   0  0  0  0  0  1  0  0  0  0  0  0
  -25.4110  -36.3290   23.8840 C   0  0  0  0  0  3  0  0  0  0  0  0
  -27.5390  -37.2110   24.7310 C   0  0  0  0  0  1  0  0  0  0  0  0
  -26.4520  -37.3750   23.7740 N   0  0  0  0  0  0  0  0  0  0  0  0
  -26.0470  -38.2990   23.9060 H   0  0  0  0  0  0  0  0  0  0  0  0
  -26.3600  -31.7170   25.1490 C   0  0  1  0  0  0  0  0  0  0  0  0
  -25.2460  -31.4910   26.1980 C   0  0  0  0  0  1  0  0  0  0  0  0
  -26.9460  -30.3350   24.7850 C   0  0  0  0  0  1  0  0  0  0  0  0
  -27.5040  -32.5090   25.8260 C   0  0  0  0  0  1  0  0  0  0  0  0
  -29.3730  -19.7390   20.4450 C   0  0  0  0  0  2  0  0  0  0  0  0
  -29.4520  -18.0960   19.7010 C   0  0  0  0  0  2  0  0  0  0  0  0
  -30.4230  -15.2870   20.0220 C   0  0  0  0  0  0  0  0  0  0  0  0
  -30.3790  -12.8640   19.1200 C   0  0  0  0  0  2  0  0  0  0  0  0
  -29.3920  -12.6970   17.9370 C   0  0  0  0  0  2  0  0  0  0  0  0
  -27.9800  -12.3890   18.4530 C   0  0  0  0  0  2  0  0  0  0  0  0
  -27.5800  -13.3430   19.6030 C   0  0  0  0  0  3  0  0  0  0  0  0
  -28.6780  -13.4460   20.6860 C   0  0  0  0  0  2  0  0  0  0  0  0
  -29.8830  -13.9690   20.0220 N   0  0  0  0  0  0  0  0  0  0  0  0
  -31.6050  -15.3210   19.6500 O   0  0  0  0  0  0  0  0  0  0  0  0
  -29.6420  -16.5250   20.2550 N   0  0  0  0  0  0  0  0  0  0  0  0
  -28.7840  -16.2560   20.7180 H   0  0  0  0  0  0  0  0  0  0  0  0
  -25.2360  -13.9020   20.4410 C   0  0  0  0  0  0  0  0  0  0  0  0
  -24.1870  -13.1280   20.8500 C   0  0  0  0  0  0  0  0  0  0  0  0
  -24.6500  -11.7780   20.7960 C   0  0  0  0  0  0  0  0  0  0  0  0
  -26.2690  -13.0270   20.1580 N   0  0  0  0  0  0  0  0  0  0  0  0
  -25.9290  -11.7430   20.4380 N   0  0  0  0  0  0  0  0  0  0  0  0
  -23.9310  -10.5150   21.0100 C   0  0  0  0  0  0  0  0  0  0  0  0
  -24.3780   -9.5610   21.9490 C   0  0  0  0  0  3  0  0  0  0  0  0
  -23.6590   -8.3620   22.1490 C   0  0  0  0  0  3  0  0  0  0  0  0
  -22.4770   -8.1110   21.4130 C   0  0  0  0  0  0  0  0  0  0  0  0
  -22.0500   -9.0550   20.4630 C   0  0  0  0  0  3  0  0  0  0  0  0
  -22.7670  -10.2440   20.2590 C   0  0  0  0  0  3  0  0  0  0  0  0
  -21.7270   -6.9640   21.5260 O   0  0  0  0  0  0  0  0  0  0  0  0
  -21.6820   -6.2450   22.6950 C   0  0  0  0  0  0  0  0  0  0  0  0
  -21.2250   -6.8150   23.9030 C   0  0  0  0  0  3  0  0  0  0  0  0
  -21.1280   -6.0190   25.0630 C   0  0  0  0  0  3  0  0  0  0  0  0
  -21.4800   -4.6560   25.0140 C   0  0  0  0  0  0  0  0  0  0  0  0
  -21.9280   -4.0870   23.8100 C   0  0  0  0  0  3  0  0  0  0  0  0
  -22.0270   -4.8800   22.6520 C   0  0  0  0  0  0  0  0  0  0  0  0
  -22.4410   -4.3220   21.4880 F   0  0  0  0  0  0  0  0  0  0  0  0
  -21.3800   -3.8890   26.1240 F   0  0  0  0  0  0  0  0  0  0  0  0
  -22.7990  -13.6060   21.1640 C   0  0  0  0  0  0  0  0  0  0  0  0
  -22.0920  -12.9090   22.0480 N   0  0  0  0  0  0  0  0  0  0  0  0
  -22.3510  -14.6320   20.6550 O   0  0  0  0  0  0  0  0  0  0  0  0
  -22.4640  -12.0780   22.4840 H   0  0  0  0  0  0  0  0  0  0  0  0
  -21.1550  -13.2080   22.2810 H   0  0  0  0  0  0  0  0  0  0  0  0
  -25.3990  -15.2730   20.2530 N   0  0  0  0  0  0  0  0  0  0  0  0
  -24.6540  -15.9450   20.4050 H   0  0  0  0  0  0  0  0  0  0  0  0
  -26.2160  -15.6790   19.8160 H   0  0  0  0  0  0  0  0  0  0  0  0
  1  4  1  0
  2  5  1  0
  3  7  1  0
  3  2  1  0
  3  1  1  0
  4 12  1  0
  5  4  1  0
  5  6  1  1
  5 54  1  0
  8  9  1  0
  8  7  1  0
 10  8  1  0
 11  8  1  0
 12 13  1  0
 14 25  2  0
 15 13  1  0
 15 20  1  0
 16 24  1  0
 16 26  1  0
 17 23  1  0
 17 19  1  0
 18 24  1  0
 19 18  1  0
 20 19  2  0
 21 15  2  0
 22 21  1  0
 22 17  2  0
 23 16  1  0
 24 14  1  0
 26 28  2  0
 27 26  1  0
 29 27  1  0
 30 39  2  0
 30 35  1  0
 31 27  1  0
 31 35  1  0
 32 31  1  0
 33 34  1  0
 33 32  1  0
 34 30  1  0
 35 36  2  0
 36 37  1  0
 38 37  2  0
 39 38  1  0
 40 14  1  0
 40 41  1  0
 40 50  1  0
 41 44  1  0
 42 46  1  0
 42 41  1  0
 43 42  2  0
 46 45  1  0
 48 46  1  0
 48 49  1  0
 48 47  1  0
 50 53  1  1
 50 51  1  0
 52 50  1  0
 55 64  1  0
 55 54  1  0
 56 64  1  0
 57 62  1  0
 58 59  1  0
 58 57  1  0
 60 59  1  0
 60 69  1  0
 60 61  1  0
 62 56  1  0
 62 61  1  0
 63 56  2  0
 64 65  1  0
 66 67  2  0
 67 86  1  0
 68 67  1  0
 68 71  1  0
 69 70  1  0
 69 66  1  0
 70 68  2  0
 71 72  1  0
 72 73  2  0
 74 77  1  0
 74 73  1  0
 75 74  2  0
 76 75  1  0
 76 71  2  0
 77 78  1  0
 78 79  1  0
 79 80  2  0
 81 80  1  0
 81 85  1  0
 82 81  2  0
 83 78  2  0
 83 82  1  0
 84 83  1  0
 86 87  1  0
 87 90  1  0
 87 89  1  0
 88 86  2  0
 91 92  1  0
 91 66  1  0
 93 91  1  0
M  ISO  4  12 101  13 101  56 100  64 100
M  END
>  <TORSDO>  (40) 
F 21

>  <SCORE>  (40) 
-15.431

>  <name>  (40) 
42

>  <ligand_id>  (40) 
42

>  <original_smiles>  (40) 
[H]c1c([H])c([H])c2c(c1[H])C([H])([H])C([H])([H])C([H])([H])C2([H])N([H])C(=O)C1([H])N(C(=O)C([H])(N([H])C(=O)C([H])(N([H])C([H])([H])[H])C([H])([H])[H])C(C([H])([H])[H])(C([H])([H])[H])C([H])([H])[H])C([H])([H])c2c([H])c(OC([H])([H])C3([H])C([H])([H])C([H])(C([H])([H])[N+]([H])([H])[H])C([H])([H])[N+]3([H])C([H])([H])C([H])([H])N([H])C(=O)N3C([H])([H])C([H])([H])C([H])([H])C([H])(n4nc(-c5c([H])c([H])c(Oc6c([H])c([H])c(F)c([H])c6F)c([H])c5[H])c(C(=O)N([H])[H])c4N([H])[H])C3([H])[H])c([H])c([H])c2C1([H])[H]

>  <smiles>  (40) 
[H]c1c([H])c([H])c2c(c1[H])C([H])([H])C([H])([H])C([H])([H])C2([H])N([H])C(=O)C1([H])N(C(=O)C([H])(N([H])C(=O)C([H])(N([H])C([H])([H])[H])C([H])([H])[H])C(C([H])([H])[H])(C([H])([H])[H])C([H])([H])[H])C([H])([H])c2c([H])c(OC([H])([H])C3([H])C([H])([H])C([H])(C([H])([H])[N+]([H])([H])[H])C([H])([H])[N+]3([H])C([H])([H])C([H])([H])N([H])C(=O)N3C([H])([H])C([H])([H])C([H])([H])C([H])(n4nc(-c5c([H])c([H])c(Oc6c([H])c([H])c(F)c([H])c6F)c([H])c5[H])c(C(=O)N([H])[H])c4N([H])[H])C3([H])[H])c([H])c([H])c2C1([H])[H]

$$$$
43:0:0
     RDKit          3D

 97105  0  0  1  0  0  0  0  0999 V2000
  -27.9390  -22.2520   20.9790 C   0  0  0  0  0  2  0  0  0  0  0  0
  -29.7710  -22.7650   19.4370 C   0  0  0  0  0  2  0  0  0  0  0  0
  -28.5740  -20.8030   21.2570 C   0  0  0  0  0  2  0  0  0  0  0  0
  -30.3890  -21.3120   19.7450 C   0  0  0  0  0  2  0  0  0  0  0  0
  -28.8660  -23.4660   20.5300 C   0  0  0  0  0  3  0  0  0  0  0  0
  -29.3680  -20.2630   20.1050 N   0  0  1  0  0  4  0  0  0  0  0  0
  -28.7120  -20.4090   19.3530 H   0  0  0  0  0  0  0  0  0  0  0  0
  -28.0260  -24.8370   20.0890 C   0  0  0  0  0  2  0  0  0  0  0  0
  -28.3270  -26.3270   20.2990 O   0  0  0  0  0  0  0  0  0  0  0  0
  -24.6190  -31.9240   23.2420 C   0  0  0  0  0  0  0  0  0  0  0  0
  -27.2550  -27.2760   20.2160 C   0  0  0  0  0  0  0  0  0  0  0  0
  -23.4340  -30.5110   21.6070 C   0  0  0  0  0  3  0  0  0  0  0  0
  -24.8990  -28.9610   20.1830 C   0  0  0  0  0  0  0  0  0  0  0  0
  -25.9820  -30.8170   21.4390 C   0  0  0  0  0  2  0  0  0  0  0  0
  -26.0710  -29.4300   20.7900 C   0  0  0  0  0  0  0  0  0  0  0  0
  -27.2520  -28.6030   20.7920 C   0  0  0  0  0  3  0  0  0  0  0  0
  -26.0570  -26.9030   19.5640 C   0  0  0  0  0  3  0  0  0  0  0  0
  -24.9020  -27.7100   19.5550 C   0  0  0  0  0  3  0  0  0  0  0  0
  -23.6600  -29.8370   20.2280 C   0  0  0  0  0  2  0  0  0  0  0  0
  -24.6980  -31.1050   22.1500 N   0  0  0  0  0  0  0  0  0  0  0  0
  -23.5300  -32.1980   23.7690 O   0  0  0  0  0  0  0  0  0  0  0  0
  -22.7700  -29.4950   22.5680 C   0  0  0  0  0  0  0  0  0  0  0  0
  -21.4420  -29.3150   22.4460 N   0  0  0  0  0  0  0  0  0  0  0  0
  -23.4490  -28.8720   23.3880 O   0  0  0  0  0  0  0  0  0  0  0  0
  -20.9520  -29.8700   21.7580 H   0  0  0  0  0  0  0  0  0  0  0  0
  -18.0690  -28.1020   22.9600 C   0  0  0  0  0  0  0  0  0  0  0  0
  -20.6270  -28.3750   23.2200 C   0  0  0  0  0  3  0  0  0  0  0  0
  -20.7330  -26.9430   22.6470 C   0  0  0  0  0  2  0  0  0  0  0  0
  -19.6300  -26.6130   21.6370 C   0  0  0  0  0  2  0  0  0  0  0  0
  -18.2490  -26.7530   22.2840 C   0  0  0  0  0  2  0  0  0  0  0  0
  -19.1850  -28.8710   23.3840 C   0  0  0  0  0  0  0  0  0  0  0  0
  -18.9600  -30.1330   23.9770 C   0  0  0  0  0  3  0  0  0  0  0  0
  -17.6530  -30.6250   24.1480 C   0  0  0  0  0  3  0  0  0  0  0  0
  -16.5520  -29.8530   23.7380 C   0  0  0  0  0  3  0  0  0  0  0  0
  -16.7600  -28.5930   23.1490 C   0  0  0  0  0  3  0  0  0  0  0  0
  -25.8920  -32.5730   23.8660 C   0  0  0  0  0  3  0  0  0  0  0  0
  -26.4000  -31.8210   25.1570 C   0  0  1  0  0  0  0  0  0  0  0  0
  -25.3000  -31.5920   26.2200 C   0  0  0  0  0  1  0  0  0  0  0  0
  -26.9940  -30.4410   24.7920 C   0  0  0  0  0  1  0  0  0  0  0  0
  -27.5410  -32.6300   25.8180 C   0  0  0  0  0  1  0  0  0  0  0  0
  -25.5700  -33.9730   24.1800 N   0  0  0  0  0  0  0  0  0  0  0  0
  -25.9080  -35.0240   23.4210 C   0  0  0  0  0  0  0  0  0  0  0  0
  -26.5920  -34.9170   22.4000 O   0  0  0  0  0  0  0  0  0  0  0  0
  -24.9650  -34.1280   24.9740 H   0  0  0  0  0  0  0  0  0  0  0  0
  -24.1880  -36.8170   23.0230 C   0  0  0  0  0  1  0  0  0  0  0  0
  -25.4100  -36.4150   23.8640 C   0  0  0  0  0  3  0  0  0  0  0  0
  -27.5260  -37.3010   24.7410 C   0  0  0  0  0  1  0  0  0  0  0  0
  -26.4450  -37.4680   23.7720 N   0  0  0  0  0  0  0  0  0  0  0  0
  -26.0360  -38.3870   23.9090 H   0  0  0  0  0  0  0  0  0  0  0  0
  -29.5960  -18.7240   19.8280 C   0  0  0  0  0  3  0  0  0  0  0  0
  -28.3450  -18.1780   19.0940 C   0  0  0  0  0  2  0  0  0  0  0  0
  -28.0290  -18.8440   17.7350 C   0  0  0  0  0  2  0  0  0  0  0  0
  -29.0860  -18.5840   16.6410 C   0  0  0  0  0  2  0  0  0  0  0  0
  -28.6820  -19.1550   15.2680 C   0  0  0  0  0  2  0  0  0  0  0  0
  -29.7190  -18.9350   14.2470 N   0  0  0  0  0  4  0  0  0  0  0  0
  -30.5830  -19.3770   14.5090 H   0  0  0  0  0  0  0  0  0  0  0  0
  -29.4260  -19.3280   13.3700 H   0  0  0  0  0  0  0  0  0  0  0  0
  -29.8870  -17.9550   14.1050 H   0  0  0  0  0  0  0  0  0  0  0  0
  -30.1450  -17.6080   20.9060 C   0  0  0  0  0  2  0  0  0  0  0  0
  -30.7450  -14.9630   20.4490 C   0  0  0  0  0  0  0  0  0  0  0  0
  -30.6170  -12.6690   19.4140 C   0  0  0  0  0  2  0  0  0  0  0  0
  -29.6940  -12.7050   18.1740 C   0  0  0  0  0  2  0  0  0  0  0  0
  -28.2210  -12.5030   18.5790 C   0  0  0  0  0  2  0  0  0  0  0  0
  -27.8120  -13.3860   19.7860 C   0  0  0  0  0  3  0  0  0  0  0  0
  -28.8530  -13.3220   20.9240 C   0  0  0  0  0  2  0  0  0  0  0  0
  -30.1470  -13.7190   20.3520 N   0  0  0  0  0  0  0  0  0  0  0  0
  -31.9390  -15.0840   20.1640 O   0  0  0  0  0  0  0  0  0  0  0  0
  -29.9300  -16.0770   20.6820 N   0  0  0  0  0  0  0  0  0  0  0  0
  -28.9740  -15.7980   20.8330 H   0  0  0  0  0  0  0  0  0  0  0  0
  -25.4080  -13.9530   20.4690 C   0  0  0  0  0  0  0  0  0  0  0  0
  -24.3430  -13.1710   20.8210 C   0  0  0  0  0  0  0  0  0  0  0  0
  -24.8200  -11.8240   20.8080 C   0  0  0  0  0  0  0  0  0  0  0  0
  -26.4640  -13.0830   20.2540 N   0  0  0  0  0  0  0  0  0  0  0  0
  -26.1170  -11.7980   20.5230 N   0  0  0  0  0  0  0  0  0  0  0  0
  -24.1010  -10.5560   20.9900 C   0  0  0  0  0  0  0  0  0  0  0  0
  -24.5260   -9.5950   21.9330 C   0  0  0  0  0  3  0  0  0  0  0  0
  -23.8060   -8.3930   22.1030 C   0  0  0  0  0  3  0  0  0  0  0  0
  -22.6470   -8.1430   21.3290 C   0  0  0  0  0  0  0  0  0  0  0  0
  -22.2410   -9.0930   20.3750 C   0  0  0  0  0  3  0  0  0  0  0  0
  -22.9630  -10.2860   20.2040 C   0  0  0  0  0  3  0  0  0  0  0  0
  -21.9010   -6.9920   21.4090 O   0  0  0  0  0  0  0  0  0  0  0  0
  -21.8320   -6.2550   22.5640 C   0  0  0  0  0  0  0  0  0  0  0  0
  -21.3730   -6.8140   23.7760 C   0  0  0  0  0  3  0  0  0  0  0  0
  -21.2500   -6.0040   24.9240 C   0  0  0  0  0  3  0  0  0  0  0  0
  -21.5790   -4.6370   24.8590 C   0  0  0  0  0  0  0  0  0  0  0  0
  -22.0310   -4.0780   23.6510 C   0  0  0  0  0  3  0  0  0  0  0  0
  -22.1550   -4.8850   22.5060 C   0  0  0  0  0  0  0  0  0  0  0  0
  -22.5720   -4.3360   21.3400 F   0  0  0  0  0  0  0  0  0  0  0  0
  -21.4540   -3.8570   25.9580 F   0  0  0  0  0  0  0  0  0  0  0  0
  -22.9370  -13.6380   21.0590 C   0  0  0  0  0  0  0  0  0  0  0  0
  -22.1970  -12.9440   21.9170 N   0  0  0  0  0  0  0  0  0  0  0  0
  -22.4990  -14.6510   20.5170 O   0  0  0  0  0  0  0  0  0  0  0  0
  -22.5650  -12.1250   22.3770 H   0  0  0  0  0  0  0  0  0  0  0  0
  -21.2520  -13.2390   22.1180 H   0  0  0  0  0  0  0  0  0  0  0  0
  -25.5600  -15.3240   20.2840 N   0  0  0  0  0  0  0  0  0  0  0  0
  -24.7720  -15.9590   20.3580 H   0  0  0  0  0  0  0  0  0  0  0  0
  -26.3850  -15.7610   19.8990 H   0  0  0  0  0  0  0  0  0  0  0  0
  1  3  1  0
  2  4  1  0
  2  5  1  0
  4  6  1  0
  5  8  1  0
  5  1  1  0
  6  3  1  0
  6  7  1  6
  8  9  1  0
 10 21  2  0
 11  9  1  0
 11 16  1  0
 12 20  1  0
 12 22  1  0
 13 19  1  0
 13 15  1  0
 14 20  1  0
 15 16  2  0
 15 14  1  0
 17 11  2  0
 18 17  1  0
 18 13  2  0
 19 12  1  0
 20 10  1  0
 22 24  2  0
 23 22  1  0
 25 23  1  0
 26 35  2  0
 26 31  1  0
 27 23  1  0
 27 31  1  0
 28 27  1  0
 29 30  1  0
 29 28  1  0
 30 26  1  0
 31 32  2  0
 32 33  1  0
 34 33  2  0
 35 34  1  0
 36 10  1  0
 36 41  1  0
 36 37  1  0
 37 40  1  1
 37 38  1  0
 39 37  1  0
 41 44  1  0
 42 46  1  0
 42 41  1  0
 43 42  2  0
 46 45  1  0
 48 46  1  0
 48 49  1  0
 48 47  1  0
 50 51  1  0
 50  6  1  0
 50 59  1  0
 52 51  1  0
 53 52  1  0
 54 53  1  0
 55 56  1  0
 55 54  1  0
 57 55  1  0
 58 55  1  0
 60 68  1  0
 61 66  1  0
 62 63  1  0
 62 61  1  0
 64 63  1  0
 64 73  1  0
 64 65  1  0
 66 60  1  0
 66 65  1  0
 67 60  2  0
 68 69  1  0
 68 59  1  0
 70 71  2  0
 71 90  1  0
 72 71  1  0
 72 75  1  0
 73 70  1  0
 73 74  1  0
 74 72  2  0
 75 76  1  0
 76 77  2  0
 78 81  1  0
 78 77  1  0
 79 78  2  0
 80 79  1  0
 80 75  2  0
 81 82  1  0
 82 83  1  0
 83 84  2  0
 85 84  1  0
 85 89  1  0
 86 85  2  0
 87 82  2  0
 87 86  1  0
 88 87  1  0
 90 91  1  0
 91 94  1  0
 91 93  1  0
 92 90  2  0
 95 96  1  0
 95 70  1  0
 97 95  1  0
M  ISO  4   8 101   9 101  60 100  68 100
M  END
>  <TORSDO>  (41) 
F 24

>  <SCORE>  (41) 
-12.826

>  <name>  (41) 
43

>  <ligand_id>  (41) 
43

>  <original_smiles>  (41) 
[H]c1c([H])c([H])c2c(c1[H])C([H])([H])C([H])([H])C([H])([H])C2([H])N([H])C(=O)C1([H])N(C(=O)C([H])(N([H])C(=O)C([H])(N([H])C([H])([H])[H])C([H])([H])[H])C(C([H])([H])[H])(C([H])([H])[H])C([H])([H])[H])C([H])([H])c2c([H])c(OC([H])([H])C3([H])C([H])([H])C([H])([H])[N+]([H])(C([H])(C([H])([H])N([H])C(=O)N4C([H])([H])C([H])([H])C([H])([H])C([H])(n5nc(-c6c([H])c([H])c(Oc7c([H])c([H])c(F)c([H])c7F)c([H])c6[H])c(C(=O)N([H])[H])c5N([H])[H])C4([H])[H])C([H])([H])C([H])([H])C([H])([H])C([H])([H])[N+]([H])([H])[H])C([H])([H])C3([H])[H])c([H])c([H])c2C1([H])[H]

>  <smiles>  (41) 
[H]c1c([H])c([H])c2c(c1[H])C([H])([H])C([H])([H])C([H])([H])C2([H])N([H])C(=O)C1([H])N(C(=O)C([H])(N([H])C(=O)C([H])(N([H])C([H])([H])[H])C([H])([H])[H])C(C([H])([H])[H])(C([H])([H])[H])C([H])([H])[H])C([H])([H])c2c([H])c(OC([H])([H])C3([H])C([H])([H])C([H])([H])[N+]([H])(C([H])(C([H])([H])N([H])C(=O)N4C([H])([H])C([H])([H])C([H])([H])C([H])(n5nc(-c6c([H])c([H])c(Oc7c([H])c([H])c(F)c([H])c7F)c([H])c6[H])c(C(=O)N([H])[H])c5N([H])[H])C4([H])[H])C([H])([H])C([H])([H])C([H])([H])C([H])([H])[N+]([H])([H])[H])C([H])([H])C3([H])[H])c([H])c([H])c2C1([H])[H]

$$$$
44:0:0
     RDKit          3D

 93102  0  0  1  0  0  0  0  0999 V2000
  -32.1240  -24.8490   20.7690 C   0  0  0  0  0  2  0  0  0  0  0  0
  -30.6490  -25.2060   20.9420 C   0  0  0  0  0  2  0  0  0  0  0  0
  -32.2900  -23.5690   19.9750 C   0  0  0  0  0  2  0  0  0  0  0  0
  -32.0160  -21.2560   20.1040 C   0  0  0  0  0  2  0  0  0  0  0  0
  -31.4520  -20.1000   20.9140 C   0  0  0  0  0  2  0  0  0  0  0  0
  -29.3600  -21.2860   20.1930 C   0  0  0  0  0  2  0  0  0  0  0  0
  -29.6470  -24.2340   20.2440 C   0  0  0  0  0  3  0  0  0  0  0  0
  -30.0300  -22.6850   20.7200 C   0  0  0  0  0  3  0  0  0  0  0  0
  -31.5230  -22.5200   20.6470 N   0  0  0  0  0  0  0  0  0  0  0  0
  -29.9770  -19.9850   20.7790 N   0  0  1  0  0  4  0  0  0  0  0  0
  -29.6710  -20.0070   21.7390 H   0  0  0  0  0  0  0  0  0  0  0  0
  -28.2370  -24.9940   20.4250 C   0  0  0  0  0  2  0  0  0  0  0  0
  -28.2900  -26.4810   20.2150 O   0  0  0  0  0  0  0  0  0  0  0  0
  -24.5470  -31.8940   23.2320 C   0  0  0  0  0  0  0  0  0  0  0  0
  -27.1430  -27.2930   20.2130 C   0  0  0  0  0  0  0  0  0  0  0  0
  -23.3330  -30.4770   21.6150 C   0  0  0  0  0  3  0  0  0  0  0  0
  -24.7730  -28.9050   20.1990 C   0  0  0  0  0  0  0  0  0  0  0  0
  -25.8690  -30.7960   21.4060 C   0  0  0  0  0  2  0  0  0  0  0  0
  -25.9470  -29.4070   20.7760 C   0  0  0  0  0  0  0  0  0  0  0  0
  -27.1350  -28.6160   20.7630 C   0  0  0  0  0  3  0  0  0  0  0  0
  -25.9450  -26.8390   19.6220 C   0  0  0  0  0  3  0  0  0  0  0  0
  -24.7760  -27.6270   19.6130 C   0  0  0  0  0  3  0  0  0  0  0  0
  -23.5370  -29.7800   20.2440 C   0  0  0  0  0  2  0  0  0  0  0  0
  -24.6040  -31.0750   22.1410 N   0  0  0  0  0  0  0  0  0  0  0  0
  -23.4680  -32.1760   23.7720 O   0  0  0  0  0  0  0  0  0  0  0  0
  -22.6790  -29.4720   22.5940 C   0  0  0  0  0  0  0  0  0  0  0  0
  -21.3540  -29.2820   22.4720 N   0  0  0  0  0  0  0  0  0  0  0  0
  -23.3630  -28.8640   23.4220 O   0  0  0  0  0  0  0  0  0  0  0  0
  -20.8610  -29.8240   21.7760 H   0  0  0  0  0  0  0  0  0  0  0  0
  -17.9920  -28.0440   22.9720 C   0  0  0  0  0  0  0  0  0  0  0  0
  -20.5440  -28.3500   23.2570 C   0  0  0  0  0  3  0  0  0  0  0  0
  -20.6720  -26.9070   22.7150 C   0  0  0  0  0  2  0  0  0  0  0  0
  -19.5840  -26.5450   21.6990 C   0  0  0  0  0  2  0  0  0  0  0  0
  -18.1950  -26.6830   22.3290 C   0  0  0  0  0  2  0  0  0  0  0  0
  -19.0950  -28.8340   23.3940 C   0  0  0  0  0  0  0  0  0  0  0  0
  -18.8510  -30.1060   23.9550 C   0  0  0  0  0  3  0  0  0  0  0  0
  -17.5370  -30.5900   24.0990 C   0  0  0  0  0  3  0  0  0  0  0  0
  -16.4480  -29.7980   23.6930 C   0  0  0  0  0  3  0  0  0  0  0  0
  -16.6760  -28.5270   23.1360 C   0  0  0  0  0  3  0  0  0  0  0  0
  -25.8340  -32.5360   23.8370 C   0  0  0  0  0  3  0  0  0  0  0  0
  -26.3810  -31.7600   25.0980 C   0  0  1  0  0  0  0  0  0  0  0  0
  -25.3100  -31.5020   26.1830 C   0  0  0  0  0  1  0  0  0  0  0  0
  -26.9700  -30.3910   24.6860 C   0  0  0  0  0  1  0  0  0  0  0  0
  -27.5350  -32.5600   25.7470 C   0  0  0  0  0  1  0  0  0  0  0  0
  -25.5150  -33.9280   24.1880 N   0  0  0  0  0  0  0  0  0  0  0  0
  -25.8080  -34.9910   23.4290 C   0  0  0  0  0  0  0  0  0  0  0  0
  -26.4450  -34.9060   22.3760 O   0  0  0  0  0  0  0  0  0  0  0  0
  -24.9430  -34.0670   25.0090 H   0  0  0  0  0  0  0  0  0  0  0  0
  -24.0370  -36.7580   23.1560 C   0  0  0  0  0  1  0  0  0  0  0  0
  -25.3170  -36.3710   23.9140 C   0  0  0  0  0  3  0  0  0  0  0  0
  -27.4700  -37.2860   24.6590 C   0  0  0  0  0  1  0  0  0  0  0  0
  -26.3260  -37.4410   23.7640 N   0  0  0  0  0  0  0  0  0  0  0  0
  -25.9120  -38.3530   23.9330 H   0  0  0  0  0  0  0  0  0  0  0  0
  -29.5340  -18.5840   20.2890 C   0  0  0  0  0  3  0  0  0  0  0  0
  -30.2510  -17.2720   20.9480 C   0  0  0  0  0  3  0  0  0  0  0  0
  -30.5550  -14.7220   20.4060 C   0  0  0  0  0  0  0  0  0  0  0  0
  -30.3500  -12.4610   19.3690 C   0  0  0  0  0  2  0  0  0  0  0  0
  -29.4100  -12.5370   18.1480 C   0  0  0  0  0  2  0  0  0  0  0  0
  -27.9390  -12.3700   18.5780 C   0  0  0  0  0  2  0  0  0  0  0  0
  -27.5660  -13.2570   19.7950 C   0  0  0  0  0  3  0  0  0  0  0  0
  -28.6230  -13.1590   20.9150 C   0  0  0  0  0  2  0  0  0  0  0  0
  -29.9190  -13.5080   20.3220 N   0  0  0  0  0  0  0  0  0  0  0  0
  -31.7430  -14.8260   20.0900 O   0  0  0  0  0  0  0  0  0  0  0  0
  -29.7920  -15.8460   20.6670 N   0  0  0  0  0  0  0  0  0  0  0  0
  -28.8120  -15.6620   20.8250 H   0  0  0  0  0  0  0  0  0  0  0  0
  -25.1750  -13.8490   20.5140 C   0  0  0  0  0  0  0  0  0  0  0  0
  -24.1100  -13.0760   20.8860 C   0  0  0  0  0  0  0  0  0  0  0  0
  -24.5770  -11.7250   20.8650 C   0  0  0  0  0  0  0  0  0  0  0  0
  -26.2220  -12.9710   20.2850 N   0  0  0  0  0  0  0  0  0  0  0  0
  -25.8680  -11.6890   20.5600 N   0  0  0  0  0  0  0  0  0  0  0  0
  -23.8530  -10.4620   21.0600 C   0  0  0  0  0  0  0  0  0  0  0  0
  -24.2990   -9.4910   21.9830 C   0  0  0  0  0  3  0  0  0  0  0  0
  -23.5740   -8.2920   22.1670 C   0  0  0  0  0  3  0  0  0  0  0  0
  -22.3900   -8.0580   21.4270 C   0  0  0  0  0  0  0  0  0  0  0  0
  -21.9640   -9.0200   20.4930 C   0  0  0  0  0  3  0  0  0  0  0  0
  -22.6890  -10.2080   20.3080 C   0  0  0  0  0  3  0  0  0  0  0  0
  -21.6370   -6.9140   21.5200 O   0  0  0  0  0  0  0  0  0  0  0  0
  -21.6190   -6.1550   22.6630 C   0  0  0  0  0  0  0  0  0  0  0  0
  -21.2360   -6.6940   23.9100 C   0  0  0  0  0  3  0  0  0  0  0  0
  -21.1660   -5.8610   25.0450 C   0  0  0  0  0  3  0  0  0  0  0  0
  -21.4680   -4.4900   24.9340 C   0  0  0  0  0  0  0  0  0  0  0  0
  -21.8450   -3.9510   23.6910 C   0  0  0  0  0  3  0  0  0  0  0  0
  -21.9170   -4.7800   22.5590 C   0  0  0  0  0  0  0  0  0  0  0  0
  -22.2590   -4.2510   21.3600 F   0  0  0  0  0  0  0  0  0  0  0  0
  -21.3930   -3.6900   26.0220 F   0  0  0  0  0  0  0  0  0  0  0  0
  -22.7110  -13.5510   21.1480 C   0  0  0  0  0  0  0  0  0  0  0  0
  -21.9820  -12.8610   22.0180 N   0  0  0  0  0  0  0  0  0  0  0  0
  -22.2720  -14.5700   20.6170 O   0  0  0  0  0  0  0  0  0  0  0  0
  -22.3490  -12.0370   22.4710 H   0  0  0  0  0  0  0  0  0  0  0  0
  -21.0420  -13.1620   22.2360 H   0  0  0  0  0  0  0  0  0  0  0  0
  -25.3340  -15.2200   20.3250 N   0  0  0  0  0  0  0  0  0  0  0  0
  -24.5580  -15.8660   20.4200 H   0  0  0  0  0  0  0  0  0  0  0  0
  -26.1670  -15.6550   19.9500 H   0  0  0  0  0  0  0  0  0  0  0  0
  1  2  1  0
  3  1  1  0
  4  9  1  0
  4  5  1  0
  6 10  1  0
  7 12  1  0
  7  8  1  0
  7  2  1  0
  8  6  1  0
  9  3  1  0
  9  8  1  0
 10  5  1  0
 10 11  1  1
 13 12  1  0
 14 25  2  0
 15 13  1  0
 15 20  1  0
 16 24  1  0
 16 26  1  0
 17 23  1  0
 17 19  1  0
 18 24  1  0
 19 18  1  0
 20 19  2  0
 21 15  2  0
 22 21  1  0
 22 17  2  0
 23 16  1  0
 24 14  1  0
 26 28  2  0
 27 26  1  0
 29 27  1  0
 30 39  2  0
 30 35  1  0
 31 27  1  0
 31 35  1  0
 32 31  1  0
 33 34  1  0
 33 32  1  0
 34 30  1  0
 35 36  2  0
 36 37  1  0
 38 37  2  0
 39 38  1  0
 40 14  1  0
 40 45  1  0
 40 41  1  0
 41 44  1  1
 41 42  1  0
 43 41  1  0
 45 48  1  0
 46 50  1  0
 46 45  1  0
 47 46  2  0
 50 49  1  0
 52 50  1  0
 52 53  1  0
 52 51  1  0
 54 10  1  0
 54 55  2  0
 56 64  1  0
 57 62  1  0
 58 59  1  0
 58 57  1  0
 60 59  1  0
 60 69  1  0
 60 61  1  0
 62 56  1  0
 62 61  1  0
 63 56  2  0
 64 65  1  0
 64 55  1  0
 66 67  2  0
 67 86  1  0
 68 67  1  0
 68 71  1  0
 69 66  1  0
 69 70  1  0
 70 68  2  0
 71 72  1  0
 72 73  2  0
 74 77  1  0
 74 73  1  0
 75 74  2  0
 76 75  1  0
 76 71  2  0
 77 78  1  0
 78 79  1  0
 79 80  2  0
 81 80  1  0
 81 85  1  0
 82 81  2  0
 83 78  2  0
 83 82  1  0
 84 83  1  0
 86 87  1  0
 87 90  1  0
 87 89  1  0
 88 86  2  0
 91 92  1  0
 91 66  1  0
 93 91  1  0
M  ISO  4  12 101  13 101  56 100  64 100
M  END
>  <TORSDO>  (42) 
F 19

>  <SCORE>  (42) 
-14.074

>  <name>  (42) 
44

>  <ligand_id>  (42) 
44

>  <original_smiles>  (42) 
[H]c1c([H])c([H])c2c(c1[H])C([H])([H])C([H])([H])C([H])([H])C2([H])N([H])C(=O)C1([H])N(C(=O)C([H])(N([H])C(=O)C([H])(N([H])C([H])([H])[H])C([H])([H])[H])C(C([H])([H])[H])(C([H])([H])[H])C([H])([H])[H])C([H])([H])c2c([H])c(OC([H])([H])C3([H])C([H])([H])C([H])([H])C([H])([H])N4C([H])([H])C([H])([H])[N+]([H])(C([H])([H])C([H])([H])N([H])C(=O)N5C([H])([H])C([H])([H])C([H])([H])C([H])(n6nc(-c7c([H])c([H])c(Oc8c([H])c([H])c(F)c([H])c8F)c([H])c7[H])c(C(=O)N([H])[H])c6N([H])[H])C5([H])[H])C([H])([H])C43[H])c([H])c([H])c2C1([H])[H]

>  <smiles>  (42) 
[H]c1c([H])c([H])c2c(c1[H])C([H])([H])C([H])([H])C([H])([H])C2([H])N([H])C(=O)C1([H])N(C(=O)C([H])(N([H])C(=O)C([H])(N([H])C([H])([H])[H])C([H])([H])[H])C(C([H])([H])[H])(C([H])([H])[H])C([H])([H])[H])C([H])([H])c2c([H])c(OC([H])([H])C3([H])C([H])([H])C([H])([H])C([H])([H])N4C([H])([H])C([H])([H])[N+]([H])(C([H])([H])C([H])([H])N([H])C(=O)N5C([H])([H])C([H])([H])C([H])([H])C([H])(n6nc(-c7c([H])c([H])c(Oc8c([H])c([H])c(F)c([H])c8F)c([H])c7[H])c(C(=O)N([H])[H])c6N([H])[H])C5([H])[H])C([H])([H])C43[H])c([H])c([H])c2C1([H])[H]

$$$$
46:0:0
     RDKit          3D

105114  0  0  1  0  0  0  0  0999 V2000
  -28.8670  -23.6270   19.9170 C   0  0  0  0  0  0  0  0  0  0  0  0
  -30.4340  -18.1140   21.7700 C   0  0  0  0  0  3  0  0  0  0  0  0
  -28.4430  -23.0320   18.5720 C   0  0  0  0  0  2  0  0  0  0  0  0
  -28.4190  -21.4840   18.6320 C   0  0  0  0  0  2  0  0  0  0  0  0
  -31.6630  -21.4140   20.8210 C   0  0  0  0  0  2  0  0  0  0  0  0
  -31.1050  -20.5200   21.9400 C   0  0  0  0  0  2  0  0  0  0  0  0
  -29.1140  -19.9540   20.6020 C   0  0  0  0  0  2  0  0  0  0  0  0
  -29.5980  -20.8780   19.4430 C   0  0  0  0  0  3  0  0  0  0  0  0
  -30.5620  -22.0010   19.9200 C   0  0  0  0  0  3  0  0  0  0  0  0
  -29.8450  -23.1090   20.5680 N   0  0  0  0  0  0  0  0  0  0  0  0
  -30.2440  -19.4290   21.4100 N   0  0  0  0  0  0  0  0  0  0  0  0
  -31.5600  -17.7550   22.4240 N   0  0  0  0  0  0  0  0  0  0  0  0
  -31.7790  -16.7970   22.6560 H   0  0  0  0  0  0  0  0  0  0  0  0
  -32.2710  -18.4360   22.6570 H   0  0  0  0  0  0  0  0  0  0  0  0
  -29.4310  -16.9930   21.5030 C   0  0  0  0  0  2  0  0  0  0  0  0
  -30.5540  -15.0370   20.5420 C   0  0  0  0  0  0  0  0  0  0  0  0
  -30.3180  -12.8910   19.3840 C   0  0  0  0  0  2  0  0  0  0  0  0
  -29.3830  -13.1240   18.1800 C   0  0  0  0  0  2  0  0  0  0  0  0
  -27.9060  -12.9440   18.5930 C   0  0  0  0  0  2  0  0  0  0  0  0
  -27.5350  -13.6900   19.9090 C   0  0  0  0  0  3  0  0  0  0  0  0
  -28.6070  -13.4920   21.0040 C   0  0  0  0  0  2  0  0  0  0  0  0
  -29.9080  -13.8460   20.4180 N   0  0  0  0  0  0  0  0  0  0  0  0
  -31.7620  -15.1580   20.3320 O   0  0  0  0  0  0  0  0  0  0  0  0
  -29.7670  -16.1290   20.3560 N   0  0  0  0  0  0  0  0  0  0  0  0
  -25.1050  -14.1710   20.5760 C   0  0  0  0  0  0  0  0  0  0  0  0
  -24.0680  -13.3450   20.9130 C   0  0  0  0  0  0  0  0  0  0  0  0
  -24.5960  -12.0180   20.8830 C   0  0  0  0  0  0  0  0  0  0  0  0
  -26.1960  -13.3430   20.3670 N   0  0  0  0  0  0  0  0  0  0  0  0
  -25.8940  -12.0430   20.6130 N   0  0  0  0  0  0  0  0  0  0  0  0
  -23.9290  -10.7210   21.0480 C   0  0  0  0  0  0  0  0  0  0  0  0
  -24.3930   -9.7650   21.9760 C   0  0  0  0  0  3  0  0  0  0  0  0
  -23.7260   -8.5320   22.1280 C   0  0  0  0  0  3  0  0  0  0  0  0
  -22.5780   -8.2450   21.3520 C   0  0  0  0  0  0  0  0  0  0  0  0
  -22.1320   -9.1900   20.4120 C   0  0  0  0  0  3  0  0  0  0  0  0
  -22.8020  -10.4160   20.2590 C   0  0  0  0  0  3  0  0  0  0  0  0
  -21.8790   -7.0640   21.4170 O   0  0  0  0  0  0  0  0  0  0  0  0
  -21.8460   -6.3090   22.5620 C   0  0  0  0  0  0  0  0  0  0  0  0
  -21.3990   -6.8370   23.7930 C   0  0  0  0  0  3  0  0  0  0  0  0
  -21.3180   -6.0070   24.9270 C   0  0  0  0  0  3  0  0  0  0  0  0
  -21.6700   -4.6490   24.8330 C   0  0  0  0  0  0  0  0  0  0  0  0
  -22.1090   -4.1180   23.6080 C   0  0  0  0  0  3  0  0  0  0  0  0
  -22.1950   -4.9460   22.4750 C   0  0  0  0  0  0  0  0  0  0  0  0
  -22.6000   -4.4250   21.2930 F   0  0  0  0  0  0  0  0  0  0  0  0
  -21.5820   -3.8490   25.9220 F   0  0  0  0  0  0  0  0  0  0  0  0
  -22.6440  -13.7500   21.1590 C   0  0  0  0  0  0  0  0  0  0  0  0
  -21.9440  -13.0280   22.0250 N   0  0  0  0  0  0  0  0  0  0  0  0
  -22.1610  -14.7450   20.6200 O   0  0  0  0  0  0  0  0  0  0  0  0
  -22.3530  -12.2210   22.4750 H   0  0  0  0  0  0  0  0  0  0  0  0
  -20.9900  -13.2820   22.2410 H   0  0  0  0  0  0  0  0  0  0  0  0
  -25.2040  -15.5500   20.4150 N   0  0  0  0  0  0  0  0  0  0  0  0
  -24.3920  -16.1530   20.4870 H   0  0  0  0  0  0  0  0  0  0  0  0
  -26.0440  -16.0430   20.1490 H   0  0  0  0  0  0  0  0  0  0  0  0
  -29.9110  -16.8940   19.0910 C   0  0  0  0  0  2  0  0  0  0  0  0
  -28.5520  -17.2130   18.4230 C   0  0  0  0  0  2  0  0  0  0  0  0
  -28.6790  -18.0720   17.2320 N   0  0  0  0  0  4  0  0  0  0  0  0
  -29.1440  -18.9370   17.4370 H   0  0  0  0  0  0  0  0  0  0  0  0
  -27.7630  -18.2890   16.8760 H   0  0  0  0  0  0  0  0  0  0  0  0
  -29.1830  -17.6040   16.4950 H   0  0  0  0  0  0  0  0  0  0  0  0
  -27.9750  -24.7640   20.4670 C   0  0  0  0  0  3  0  0  0  0  0  0
  -27.1430  -24.2530   21.6760 C   0  0  0  0  0  2  0  0  0  0  0  0
  -25.6430  -24.0900   21.3540 C   0  0  0  0  0  2  0  0  0  0  0  0
  -23.2450  -24.2750   22.1440 C   0  0  0  0  0  1  0  0  0  0  0  0
  -24.7130  -24.1520   22.5730 C   0  0  0  0  0  2  0  0  0  0  0  0
  -28.7360  -26.0930   20.7870 C   0  0  0  0  0  2  0  0  0  0  0  0
  -28.5050  -27.1840   19.8720 O   0  0  0  0  0  0  0  0  0  0  0  0
  -24.5030  -31.9650   23.4020 C   0  0  0  0  0  0  0  0  0  0  0  0
  -27.3080  -27.8570   20.0050 C   0  0  0  0  0  0  0  0  0  0  0  0
  -23.3370  -30.6030   21.6980 C   0  0  0  0  0  3  0  0  0  0  0  0
  -24.8400  -29.2330   20.1560 C   0  0  0  0  0  0  0  0  0  0  0  0
  -25.8370  -31.1030   21.4810 C   0  0  0  0  0  2  0  0  0  0  0  0
  -25.9820  -29.7760   20.7610 C   0  0  0  0  0  0  0  0  0  0  0  0
  -27.2200  -29.0930   20.6870 C   0  0  0  0  0  3  0  0  0  0  0  0
  -26.1550  -27.3390   19.3820 C   0  0  0  0  0  3  0  0  0  0  0  0
  -24.9200  -28.0110   19.4660 C   0  0  0  0  0  3  0  0  0  0  0  0
  -23.5540  -30.0220   20.2770 C   0  0  0  0  0  2  0  0  0  0  0  0
  -24.5770  -31.2380   22.2520 N   0  0  0  0  0  0  0  0  0  0  0  0
  -23.4200  -32.1460   23.9760 O   0  0  0  0  0  0  0  0  0  0  0  0
  -22.7600  -29.4920   22.6040 C   0  0  0  0  0  0  0  0  0  0  0  0
  -21.4660  -29.1820   22.4190 N   0  0  0  0  0  0  0  0  0  0  0  0
  -23.4730  -28.9150   23.4290 O   0  0  0  0  0  0  0  0  0  0  0  0
  -20.9490  -29.7060   21.7270 H   0  0  0  0  0  0  0  0  0  0  0  0
  -18.2410  -27.5710   22.6870 C   0  0  0  0  0  0  0  0  0  0  0  0
  -20.7220  -28.1420   23.1290 C   0  0  0  0  0  3  0  0  0  0  0  0
  -21.0420  -26.7420   22.5570 C   0  0  0  0  0  2  0  0  0  0  0  0
  -20.0580  -26.2950   21.4710 C   0  0  0  0  0  2  0  0  0  0  0  0
  -18.6280  -26.2610   22.0200 C   0  0  0  0  0  2  0  0  0  0  0  0
  -19.2260  -28.4620   23.1920 C   0  0  0  0  0  0  0  0  0  0  0  0
  -18.8120  -29.6830   23.7690 C   0  0  0  0  0  3  0  0  0  0  0  0
  -17.4470  -30.0170   23.8470 C   0  0  0  0  0  3  0  0  0  0  0  0
  -16.4770  -29.1240   23.3590 C   0  0  0  0  0  3  0  0  0  0  0  0
  -16.8740  -27.9030   22.7860 C   0  0  0  0  0  3  0  0  0  0  0  0
  -25.7660  -32.6240   24.0370 C   0  0  0  0  0  3  0  0  0  0  0  0
  -26.2660  -31.8840   25.3400 C   0  0  1  0  0  0  0  0  0  0  0  0
  -25.1490  -31.6260   26.3770 C   0  0  0  0  0  1  0  0  0  0  0  0
  -26.9030  -30.5200   24.9810 C   0  0  0  0  0  1  0  0  0  0  0  0
  -27.3760  -32.7200   26.0220 C   0  0  0  0  0  1  0  0  0  0  0  0
  -25.4330  -34.0250   24.3320 N   0  0  0  0  0  0  0  0  0  0  0  0
  -25.7620  -35.0640   23.5520 C   0  0  0  0  0  0  0  0  0  0  0  0
  -26.4480  -34.9450   22.5340 O   0  0  0  0  0  0  0  0  0  0  0  0
  -24.8280  -34.1920   25.1220 H   0  0  0  0  0  0  0  0  0  0  0  0
  -24.0060  -36.8160   23.1370 C   0  0  0  0  0  1  0  0  0  0  0  0
  -25.2470  -36.4550   23.9700 C   0  0  0  0  0  3  0  0  0  0  0  0
  -27.3620  -37.3920   24.7930 C   0  0  0  0  0  1  0  0  0  0  0  0
  -26.2640  -37.5220   23.8380 N   0  0  0  0  0  0  0  0  0  0  0  0
  -25.8410  -38.4370   23.9630 H   0  0  0  0  0  0  0  0  0  0  0  0
  1 59  1  0
  1 10  2  0
  2 15  1  0
  2 12  1  0
  3  4  1  0
  3  1  1  0
  5  6  1  0
  7 11  1  0
  8  4  1  0
  8  9  1  0
  8  7  1  0
  9 10  1  0
  9  5  1  0
 11  2  1  0
 11  6  1  0
 12 13  1  0
 12 14  1  0
 17 22  1  0
 18 19  1  0
 18 17  1  0
 20 19  1  0
 20 28  1  0
 20 21  1  0
 22 16  1  0
 22 21  1  0
 23 16  2  0
 24 16  1  0
 24 15  1  0
 25 26  2  0
 26 45  1  0
 27 26  1  0
 27 30  1  0
 28 25  1  0
 28 29  1  0
 29 27  2  0
 30 31  1  0
 31 32  2  0
 33 36  1  0
 33 32  1  0
 34 33  2  0
 35 34  1  0
 35 30  2  0
 36 37  1  0
 37 38  1  0
 38 39  2  0
 40 39  1  0
 40 44  1  0
 41 40  2  0
 42 37  2  0
 42 41  1  0
 43 42  1  0
 45 46  1  0
 46 49  1  0
 46 48  1  0
 47 45  2  0
 50 51  1  0
 50 25  1  0
 52 50  1  0
 53 24  1  0
 54 53  1  0
 55 56  1  0
 55 54  1  0
 57 55  1  0
 58 55  1  0
 59 64  1  0
 59 60  1  0
 61 60  1  0
 61 63  1  0
 62 63  1  0
 65 67  1  0
 65 64  1  0
 66 77  2  0
 67 72  1  0
 68 76  1  0
 68 78  1  0
 69 75  1  0
 69 71  1  0
 70 76  1  0
 71 70  1  0
 72 71  2  0
 73 74  1  0
 73 67  2  0
 74 69  2  0
 75 68  1  0
 76 66  1  0
 78 80  2  0
 79 78  1  0
 81 79  1  0
 82 91  2  0
 82 87  1  0
 83 79  1  0
 83 87  1  0
 84 83  1  0
 85 86  1  0
 85 84  1  0
 86 82  1  0
 87 88  2  0
 88 89  1  0
 90 89  2  0
 91 90  1  0
 92 66  1  0
 92 97  1  0
 92 93  1  0
 93 96  1  1
 93 94  1  0
 95 93  1  0
 97100  1  0
 98102  1  0
 98 97  1  0
 99 98  2  0
102101  1  0
104105  1  0
104102  1  0
104103  1  0
M  ISO  4  16 100  24 100  64 101  65 101
M  END
>  <TORSDO>  (43) 
F 25

>  <SCORE>  (43) 
-12.053

>  <name>  (43) 
46

>  <ligand_id>  (43) 
46

>  <original_smiles>  (43) 
[H]c1c([H])c([H])c2c(c1[H])C([H])([H])C([H])([H])C([H])([H])C2([H])N([H])C(=O)C1([H])N(C(=O)C([H])(N([H])C(=O)C([H])(N([H])C([H])([H])[H])C([H])([H])[H])C(C([H])([H])[H])(C([H])([H])[H])C([H])([H])[H])C([H])([H])c2c([H])c(OC([H])([H])C([H])(C3=NC4([H])C([H])([H])C([H])([H])N(C(=[N+]([H])[H])C([H])([H])N(C(=O)N5C([H])([H])C([H])([H])C([H])([H])C([H])(n6nc(-c7c([H])c([H])c(Oc8c([H])c([H])c(F)c([H])c8F)c([H])c7[H])c(C(=O)N([H])[H])c6N([H])[H])C5([H])[H])C([H])([H])C([H])([H])[N+]([H])([H])[H])C([H])([H])C4([H])C([H])([H])C3([H])[H])C([H])([H])C([H])([H])C([H])([H])C([H])([H])[H])c([H])c([H])c2C1([H])[H]

>  <smiles>  (43) 
[H]c1c([H])c([H])c2c(c1[H])C([H])([H])C([H])([H])C([H])([H])C2([H])N([H])C(=O)C1([H])N(C(=O)C([H])(N([H])C(=O)C([H])(N([H])C([H])([H])[H])C([H])([H])[H])C(C([H])([H])[H])(C([H])([H])[H])C([H])([H])[H])C([H])([H])c2c([H])c(OC([H])([H])C([H])(C3=NC4([H])C([H])([H])C([H])([H])N(C(=[N+]([H])[H])C([H])([H])N(C(=O)N5C([H])([H])C([H])([H])C([H])([H])C([H])(n6nc(-c7c([H])c([H])c(Oc8c([H])c([H])c(F)c([H])c8F)c([H])c7[H])c(C(=O)N([H])[H])c6N([H])[H])C5([H])[H])C([H])([H])C([H])([H])[N+]([H])([H])[H])C([H])([H])C4([H])C([H])([H])C3([H])[H])C([H])([H])C([H])([H])C([H])([H])C([H])([H])[H])c([H])c([H])c2C1([H])[H]

$$$$
47:0:0
     RDKit          3D

 88 96  0  0  1  0  0  0  0  0999 V2000
  -28.4270  -21.4570   20.6390 N   0  0  0  0  0  4  0  0  0  0  0  0
  -28.2940  -21.4350   21.6380 H   0  0  0  0  0  0  0  0  0  0  0  0
  -27.4940  -21.3950   20.2590 H   0  0  0  0  0  0  0  0  0  0  0  0
  -30.5160  -15.1950   20.2960 C   0  0  0  0  0  0  0  0  0  0  0  0
  -30.3760  -12.8050   19.3580 C   0  0  0  0  0  2  0  0  0  0  0  0
  -29.4420  -12.6300   18.1390 C   0  0  0  0  0  2  0  0  0  0  0  0
  -28.0000  -12.3760   18.6050 C   0  0  0  0  0  2  0  0  0  0  0  0
  -27.5710  -13.3400   19.7410 C   0  0  0  0  0  3  0  0  0  0  0  0
  -28.6350  -13.4810   20.8520 C   0  0  0  0  0  2  0  0  0  0  0  0
  -29.8640  -13.9450   20.1990 N   0  0  0  0  0  0  0  0  0  0  0  0
  -31.7380  -15.1150   20.0970 O   0  0  0  0  0  0  0  0  0  0  0  0
  -28.1280  -18.6930   20.2560 C   0  0  0  0  0  2  0  0  0  0  0  0
  -30.2020  -19.2830   21.1030 C   0  0  0  0  0  2  0  0  0  0  0  0
  -28.6400  -17.1440   19.9250 C   0  0  0  0  0  2  0  0  0  0  0  0
  -30.7830  -17.7880   20.6990 C   0  0  0  0  0  2  0  0  0  0  0  0
  -29.0780  -20.0060   20.2220 C   0  0  0  0  0  3  0  0  0  0  0  0
  -29.9200  -16.5350   20.4850 N   0  0  0  0  0  0  0  0  0  0  0  0
  -25.2100  -13.8850   20.5360 C   0  0  0  0  0  0  0  0  0  0  0  0
  -24.1560  -13.0990   20.9110 C   0  0  0  0  0  0  0  0  0  0  0  0
  -24.6290  -11.7530   20.8590 C   0  0  0  0  0  0  0  0  0  0  0  0
  -26.2540  -13.0170   20.2680 N   0  0  0  0  0  0  0  0  0  0  0  0
  -25.9160  -11.7270   20.5310 N   0  0  0  0  0  0  0  0  0  0  0  0
  -23.9100  -10.4840   21.0380 C   0  0  0  0  0  0  0  0  0  0  0  0
  -24.3360   -9.5180   21.9740 C   0  0  0  0  0  3  0  0  0  0  0  0
  -23.6120   -8.3180   22.1450 C   0  0  0  0  0  3  0  0  0  0  0  0
  -22.4470   -8.0770   21.3780 C   0  0  0  0  0  0  0  0  0  0  0  0
  -22.0410   -9.0330   20.4290 C   0  0  0  0  0  3  0  0  0  0  0  0
  -22.7670  -10.2230   20.2570 C   0  0  0  0  0  3  0  0  0  0  0  0
  -21.6950   -6.9310   21.4580 O   0  0  0  0  0  0  0  0  0  0  0  0
  -21.6090   -6.2030   22.6180 C   0  0  0  0  0  0  0  0  0  0  0  0
  -21.1110   -6.7650   23.8140 C   0  0  0  0  0  3  0  0  0  0  0  0
  -20.9780   -5.9650   24.9660 C   0  0  0  0  0  3  0  0  0  0  0  0
  -21.3310   -4.6010   24.9220 C   0  0  0  0  0  0  0  0  0  0  0  0
  -21.8220   -4.0400   23.7300 C   0  0  0  0  0  3  0  0  0  0  0  0
  -21.9590   -4.8400   22.5810 C   0  0  0  0  0  0  0  0  0  0  0  0
  -22.4130   -4.2870   21.4290 F   0  0  0  0  0  0  0  0  0  0  0  0
  -21.1950   -3.8300   26.0250 F   0  0  0  0  0  0  0  0  0  0  0  0
  -22.7620  -13.5680   21.1990 C   0  0  0  0  0  0  0  0  0  0  0  0
  -22.0420  -12.8590   22.0640 N   0  0  0  0  0  0  0  0  0  0  0  0
  -22.3200  -14.6000   20.6990 O   0  0  0  0  0  0  0  0  0  0  0  0
  -22.4100  -12.0190   22.4860 H   0  0  0  0  0  0  0  0  0  0  0  0
  -21.1090  -13.1610   22.3050 H   0  0  0  0  0  0  0  0  0  0  0  0
  -25.3570  -15.2570   20.3670 N   0  0  0  0  0  0  0  0  0  0  0  0
  -24.5770  -15.8960   20.4770 H   0  0  0  0  0  0  0  0  0  0  0  0
  -26.1810  -15.7050   19.9920 H   0  0  0  0  0  0  0  0  0  0  0  0
  -28.8550  -22.9880   20.2630 C   0  0  0  0  0  3  0  0  0  0  0  0
  -27.8740  -24.4330   20.4390 C   0  0  0  0  0  3  0  0  0  0  0  0
  -28.1840  -26.0100   20.2860 O   0  0  0  0  0  0  0  0  0  0  0  0
  -24.6290  -31.8790   23.2430 C   0  0  0  0  0  0  0  0  0  0  0  0
  -27.1660  -27.0670   20.2330 C   0  0  0  0  0  0  0  0  0  0  0  0
  -23.4250  -30.4880   21.6050 C   0  0  0  0  0  3  0  0  0  0  0  0
  -24.8690  -28.9010   20.1770 C   0  0  0  0  0  0  0  0  0  0  0  0
  -25.9870  -30.7190   21.4480 C   0  0  0  0  0  2  0  0  0  0  0  0
  -26.0540  -29.3170   20.7940 C   0  0  0  0  0  0  0  0  0  0  0  0
  -27.2030  -28.4200   20.7990 C   0  0  0  0  0  3  0  0  0  0  0  0
  -25.9560  -26.7870   19.5580 C   0  0  0  0  0  3  0  0  0  0  0  0
  -24.8400  -27.6530   19.5370 C   0  0  0  0  0  3  0  0  0  0  0  0
  -23.6500  -29.8160   20.2250 C   0  0  0  0  0  2  0  0  0  0  0  0
  -24.7010  -31.0510   22.1550 N   0  0  0  0  0  0  0  0  0  0  0  0
  -23.5430  -32.1690   23.7710 O   0  0  0  0  0  0  0  0  0  0  0  0
  -22.7390  -29.4820   22.5690 C   0  0  0  0  0  0  0  0  0  0  0  0
  -21.4120  -29.3120   22.4440 N   0  0  0  0  0  0  0  0  0  0  0  0
  -23.4090  -28.8590   23.3970 O   0  0  0  0  0  0  0  0  0  0  0  0
  -20.9280  -29.8700   21.7540 H   0  0  0  0  0  0  0  0  0  0  0  0
  -18.0310  -28.1040   22.9440 C   0  0  0  0  0  0  0  0  0  0  0  0
  -20.5910  -28.3750   23.2140 C   0  0  0  0  0  3  0  0  0  0  0  0
  -20.6950  -26.9410   22.6460 C   0  0  0  0  0  2  0  0  0  0  0  0
  -19.5970  -26.6140   21.6300 C   0  0  0  0  0  2  0  0  0  0  0  0
  -18.2130  -26.7540   22.2710 C   0  0  0  0  0  2  0  0  0  0  0  0
  -19.1470  -28.8710   23.3720 C   0  0  0  0  0  0  0  0  0  0  0  0
  -18.9230  -30.1300   23.9670 C   0  0  0  0  0  3  0  0  0  0  0  0
  -17.6160  -30.6260   24.1360 C   0  0  0  0  0  3  0  0  0  0  0  0
  -16.5140  -29.8560   23.7250 C   0  0  0  0  0  3  0  0  0  0  0  0
  -16.7230  -28.5980   23.1330 C   0  0  0  0  0  3  0  0  0  0  0  0
  -25.9060  -32.5150   23.8690 C   0  0  0  0  0  3  0  0  0  0  0  0
  -25.5950  -33.9160   24.2010 N   0  0  0  0  0  0  0  0  0  0  0  0
  -25.9230  -34.9730   23.4460 C   0  0  0  0  0  0  0  0  0  0  0  0
  -26.5810  -34.8730   22.4080 O   0  0  0  0  0  0  0  0  0  0  0  0
  -25.0150  -34.0710   25.0110 H   0  0  0  0  0  0  0  0  0  0  0  0
  -24.1990  -36.7790   23.1070 C   0  0  0  0  0  1  0  0  0  0  0  0
  -25.4390  -36.3620   23.9130 C   0  0  0  0  0  3  0  0  0  0  0  0
  -27.5750  -37.2430   24.7420 C   0  0  0  0  0  1  0  0  0  0  0  0
  -26.4730  -37.4130   23.8000 N   0  0  0  0  0  0  0  0  0  0  0  0
  -26.0700  -38.3340   23.9520 H   0  0  0  0  0  0  0  0  0  0  0  0
  -26.4140  -31.7510   25.1560 C   0  0  1  0  0  0  0  0  0  0  0  0
  -25.3150  -31.5280   26.2200 C   0  0  0  0  0  1  0  0  0  0  0  0
  -26.9950  -30.3690   24.7820 C   0  0  0  0  0  1  0  0  0  0  0  0
  -27.5610  -32.5500   25.8190 C   0  0  0  0  0  1  0  0  0  0  0  0
  1  2  1  0
  3  1  1  0
  4 17  1  0
  5 10  1  0
  6  7  1  0
  6  5  1  0
  8  7  1  0
  8 21  1  0
  8  9  1  0
 10  4  1  0
 10  9  1  0
 11  4  2  0
 14 12  1  0
 14 17  1  0
 15 13  1  0
 16 12  1  0
 16  1  1  0
 16 13  1  0
 17 15  1  0
 18 19  2  0
 19 38  1  0
 20 19  1  0
 20 23  1  0
 21 22  1  0
 21 18  1  0
 22 20  2  0
 23 24  1  0
 24 25  2  0
 26 29  1  0
 26 25  1  0
 27 26  2  0
 28 27  1  0
 28 23  2  0
 29 30  1  0
 30 31  1  0
 31 32  2  0
 33 32  1  0
 33 37  1  0
 34 33  2  0
 35 30  2  0
 35 34  1  0
 36 35  1  0
 38 39  1  0
 39 42  1  0
 39 41  1  0
 40 38  2  0
 43 44  1  0
 43 18  1  0
 45 43  1  0
 46 47  2  0
 46  1  1  0
 48 47  1  0
 49 60  2  0
 50 48  1  0
 50 55  1  0
 51 59  1  0
 51 61  1  0
 52 58  1  0
 52 54  1  0
 53 59  1  0
 54 55  2  0
 54 53  1  0
 56 50  2  0
 57 56  1  0
 57 52  2  0
 58 51  1  0
 59 49  1  0
 61 63  2  0
 62 61  1  0
 64 62  1  0
 65 74  2  0
 65 70  1  0
 66 62  1  0
 66 70  1  0
 67 66  1  0
 68 69  1  0
 68 67  1  0
 69 65  1  0
 70 71  2  0
 71 72  1  0
 73 72  2  0
 74 73  1  0
 75 49  1  0
 75 76  1  0
 75 85  1  0
 76 79  1  0
 77 81  1  0
 77 76  1  0
 78 77  2  0
 81 80  1  0
 83 81  1  0
 83 84  1  0
 83 82  1  0
 85 88  1  1
 85 86  1  0
 87 85  1  0
M  ISO  4   4 100  17 100  47 101  48 101
M  END
>  <TORSDO>  (44) 
F 18

>  <SCORE>  (44) 
-15.515

>  <name>  (44) 
47

>  <ligand_id>  (44) 
47

>  <original_smiles>  (44) 
[H]c1c([H])c([H])c2c(c1[H])C([H])([H])C([H])([H])C([H])([H])C2([H])N([H])C(=O)C1([H])N(C(=O)C([H])(N([H])C(=O)C([H])(N([H])C([H])([H])[H])C([H])([H])[H])C(C([H])([H])[H])(C([H])([H])[H])C([H])([H])[H])C([H])([H])c2c([H])c(OC([H])([H])C([H])([H])[N+]([H])([H])C3([H])C([H])([H])C([H])([H])N(C(=O)N4C([H])([H])C([H])([H])C([H])([H])C([H])(n5nc(-c6c([H])c([H])c(Oc7c([H])c([H])c(F)c([H])c7F)c([H])c6[H])c(C(=O)N([H])[H])c5N([H])[H])C4([H])[H])C([H])([H])C3([H])[H])c([H])c([H])c2C1([H])[H]

>  <smiles>  (44) 
[H]c1c([H])c([H])c2c(c1[H])C([H])([H])C([H])([H])C([H])([H])C2([H])N([H])C(=O)C1([H])N(C(=O)C([H])(N([H])C(=O)C([H])(N([H])C([H])([H])[H])C([H])([H])[H])C(C([H])([H])[H])(C([H])([H])[H])C([H])([H])[H])C([H])([H])c2c([H])c(OC([H])([H])C([H])([H])[N+]([H])([H])C3([H])C([H])([H])C([H])([H])N(C(=O)N4C([H])([H])C([H])([H])C([H])([H])C([H])(n5nc(-c6c([H])c([H])c(Oc7c([H])c([H])c(F)c([H])c7F)c([H])c6[H])c(C(=O)N([H])[H])c5N([H])[H])C4([H])[H])C([H])([H])C3([H])[H])c([H])c([H])c2C1([H])[H]

$$$$
48:0:0
     RDKit          3D

100108  0  0  1  0  0  0  0  0999 V2000
  -29.9850  -17.9990   20.7290 C   0  0  0  0  0  3  0  0  0  0  0  0
  -32.3470  -20.7150   21.9180 C   0  0  0  0  0  2  0  0  0  0  0  0
  -32.3920  -19.6320   22.9940 C   0  0  0  0  0  2  0  0  0  0  0  0
  -31.3920  -20.1880   20.8320 C   0  0  0  0  0  2  0  0  0  0  0  0
  -31.0490  -18.8970   22.8680 C   0  0  0  0  0  2  0  0  0  0  0  0
  -30.5340  -19.1700   21.5030 N   0  0  2  0  0  4  0  0  0  0  0  0
  -29.6960  -19.6940   21.7140 H   0  0  0  0  0  0  0  0  0  0  0  0
  -29.1490  -18.7000   19.5510 C   0  0  0  0  0  2  0  0  0  0  0  0
  -28.8630  -20.3070   19.4170 C   0  0  0  0  0  3  0  0  0  0  0  0
  -27.9340  -21.2370   20.3510 C   0  0  0  0  0  3  0  0  0  0  0  0
  -27.9000  -22.8320   20.0480 C   0  0  0  0  0  3  0  0  0  0  0  0
  -26.9390  -23.8230   20.8820 C   0  0  0  0  0  3  0  0  0  0  0  0
  -26.9070  -25.3040   20.6410 O   0  0  0  0  0  0  0  0  0  0  0  0
  -27.1860  -31.1050   24.9840 C   0  0  0  0  0  0  0  0  0  0  0  0
  -26.2570  -26.1250   21.5880 C   0  0  0  0  0  0  0  0  0  0  0  0
  -25.4870  -29.3900   25.5130 C   0  0  0  0  0  3  0  0  0  0  0  0
  -25.0420  -27.6600   23.6850 C   0  0  0  0  0  0  0  0  0  0  0  0
  -26.2560  -29.7500   23.0930 C   0  0  0  0  0  2  0  0  0  0  0  0
  -25.9530  -28.2770   22.8240 C   0  0  0  0  0  0  0  0  0  0  0  0
  -26.5550  -27.5160   21.7690 C   0  0  0  0  0  3  0  0  0  0  0  0
  -25.2890  -25.5700   22.4570 C   0  0  0  0  0  3  0  0  0  0  0  0
  -24.7020  -26.3140   23.4960 C   0  0  0  0  0  3  0  0  0  0  0  0
  -24.4440  -28.4890   24.8010 C   0  0  0  0  0  2  0  0  0  0  0  0
  -26.3680  -30.1080   24.5360 N   0  0  0  0  0  0  0  0  0  0  0  0
  -27.1970  -31.4410   26.1770 O   0  0  0  0  0  0  0  0  0  0  0  0
  -26.2820  -28.5460   26.5380 C   0  0  0  0  0  0  0  0  0  0  0  0
  -25.7910  -28.4850   27.7890 N   0  0  0  0  0  0  0  0  0  0  0  0
  -27.3030  -27.9420   26.1980 O   0  0  0  0  0  0  0  0  0  0  0  0
  -24.9560  -29.0190   27.9960 H   0  0  0  0  0  0  0  0  0  0  0  0
  -25.5530  -27.8790   31.3490 C   0  0  0  0  0  0  0  0  0  0  0  0
  -26.3590  -27.7120   28.8970 C   0  0  0  0  0  3  0  0  0  0  0  0
  -25.7930  -26.2740   28.9220 C   0  0  0  0  0  2  0  0  0  0  0  0
  -24.5620  -26.1220   29.8240 C   0  0  0  0  0  2  0  0  0  0  0  0
  -24.9020  -26.5080   31.2650 C   0  0  0  0  0  2  0  0  0  0  0  0
  -26.2230  -28.4500   30.2350 C   0  0  0  0  0  0  0  0  0  0  0  0
  -26.7790  -29.7420   30.3600 C   0  0  0  0  0  3  0  0  0  0  0  0
  -26.6710  -30.4610   31.5660 C   0  0  0  0  0  3  0  0  0  0  0  0
  -26.0190  -29.8850   32.6690 C   0  0  0  0  0  3  0  0  0  0  0  0
  -25.4680  -28.5950   32.5610 C   0  0  0  0  0  3  0  0  0  0  0  0
  -28.1300  -31.8820   24.0170 C   0  0  0  0  0  3  0  0  0  0  0  0
  -29.5950  -31.2980   23.9780 C   0  0  1  0  0  0  0  0  0  0  0  0
  -30.2310  -31.1120   25.3750 C   0  0  0  0  0  1  0  0  0  0  0  0
  -29.6190  -29.9270   23.2610 C   0  0  0  0  0  1  0  0  0  0  0  0
  -30.5130  -32.2450   23.1710 C   0  0  0  0  0  1  0  0  0  0  0  0
  -28.1460  -33.2880   24.4470 N   0  0  0  0  0  0  0  0  0  0  0  0
  -27.5750  -34.2950   23.7750 C   0  0  0  0  0  0  0  0  0  0  0  0
  -27.0320  -34.1440   22.6780 O   0  0  0  0  0  0  0  0  0  0  0  0
  -28.5270  -33.4750   25.3640 H   0  0  0  0  0  0  0  0  0  0  0  0
  -26.1970  -36.0910   24.8730 C   0  0  0  0  0  1  0  0  0  0  0  0
  -27.6090  -35.6920   24.4200 C   0  0  0  0  0  3  0  0  0  0  0  0
  -29.5950  -36.6190   23.3080 C   0  0  0  0  0  1  0  0  0  0  0  0
  -28.1580  -36.7390   23.5310 N   0  0  0  0  0  0  0  0  0  0  0  0
  -27.9770  -37.6620   23.9120 H   0  0  0  0  0  0  0  0  0  0  0  0
  -31.0440  -16.7330   20.4480 C   0  0  0  0  0  3  0  0  0  0  0  0
  -31.3230  -14.4430   19.0870 C   0  0  0  0  0  0  0  0  0  0  0  0
  -30.7550  -12.2540   17.9900 C   0  0  0  0  0  2  0  0  0  0  0  0
  -29.6120  -12.4520   16.9680 C   0  0  0  0  0  2  0  0  0  0  0  0
  -28.2270  -12.3840   17.6450 C   0  0  0  0  0  2  0  0  0  0  0  0
  -28.1620  -13.2420   18.9300 C   0  0  0  0  0  3  0  0  0  0  0  0
  -29.3820  -13.0080   19.8360 C   0  0  0  0  0  2  0  0  0  0  0  0
  -30.5800  -13.2880   19.0330 N   0  0  0  0  0  0  0  0  0  0  0  0
  -32.4670  -14.4680   18.6240 O   0  0  0  0  0  0  0  0  0  0  0  0
  -30.6600  -15.5860   19.5110 N   0  0  0  0  0  0  0  0  0  0  0  0
  -29.6660  -15.4180   19.5460 H   0  0  0  0  0  0  0  0  0  0  0  0
  -26.0680  -14.0330   20.1760 C   0  0  0  0  0  0  0  0  0  0  0  0
  -25.0020  -13.3580   20.6910 C   0  0  0  0  0  0  0  0  0  0  0  0
  -25.2540  -11.9690   20.4560 C   0  0  0  0  0  0  0  0  0  0  0  0
  -26.9100  -13.0650   19.6550 N   0  0  0  0  0  0  0  0  0  0  0  0
  -26.4420  -11.8100   19.8880 N   0  0  0  0  0  0  0  0  0  0  0  0
  -24.4110  -10.7920   20.6920 C   0  0  0  0  0  0  0  0  0  0  0  0
  -24.7840   -9.7880   21.6140 C   0  0  0  0  0  3  0  0  0  0  0  0
  -23.9550   -8.6650   21.8240 C   0  0  0  0  0  3  0  0  0  0  0  0
  -22.7260   -8.5470   21.1300 C   0  0  0  0  0  0  0  0  0  0  0  0
  -22.3610   -9.5460   20.2120 C   0  0  0  0  0  3  0  0  0  0  0  0
  -23.1990  -10.6520   19.9910 C   0  0  0  0  0  3  0  0  0  0  0  0
  -21.8670   -7.4830   21.2520 O   0  0  0  0  0  0  0  0  0  0  0  0
  -21.6620   -6.8630   22.4560 C   0  0  0  0  0  0  0  0  0  0  0  0
  -21.2380   -7.5730   23.6010 C   0  0  0  0  0  3  0  0  0  0  0  0
  -20.9760   -6.8800   24.7980 C   0  0  0  0  0  3  0  0  0  0  0  0
  -21.1180   -5.4810   24.8510 C   0  0  0  0  0  0  0  0  0  0  0  0
  -21.5330   -4.7720   23.7090 C   0  0  0  0  0  3  0  0  0  0  0  0
  -21.8000   -5.4640   22.5160 C   0  0  0  0  0  0  0  0  0  0  0  0
  -22.1780   -4.7760   21.4120 F   0  0  0  0  0  0  0  0  0  0  0  0
  -20.8620   -4.8130   26.0000 F   0  0  0  0  0  0  0  0  0  0  0  0
  -23.7630  -13.9600   21.2840 C   0  0  0  0  0  0  0  0  0  0  0  0
  -23.2000  -13.3160   22.2950 N   0  0  0  0  0  0  0  0  0  0  0  0
  -23.3250  -15.0380   20.8800 O   0  0  0  0  0  0  0  0  0  0  0  0
  -23.5920  -12.4430   22.6190 H   0  0  0  0  0  0  0  0  0  0  0  0
  -22.3820  -13.7000   22.7520 H   0  0  0  0  0  0  0  0  0  0  0  0
  -26.3750  -15.3890   20.0770 N   0  0  0  0  0  0  0  0  0  0  0  0
  -25.6800  -16.0790   20.3380 H   0  0  0  0  0  0  0  0  0  0  0  0
  -27.1000  -15.7800   19.4910 H   0  0  0  0  0  0  0  0  0  0  0  0
  -31.3390  -15.9770   21.7880 C   0  0  0  0  0  2  0  0  0  0  0  0
  -32.1790  -14.6740   21.7970 C   0  0  0  0  0  2  0  0  0  0  0  0
  -31.2900  -13.5020   22.2680 C   0  0  0  0  0  2  0  0  0  0  0  0
  -31.8860  -12.1090   22.0230 C   0  0  0  0  0  2  0  0  0  0  0  0
  -30.8440  -11.0660   22.0610 N   0  0  0  0  0  4  0  0  0  0  0  0
  -30.3330  -11.0840   22.9270 H   0  0  0  0  0  0  0  0  0  0  0  0
  -31.2780  -10.1650   21.9570 H   0  0  0  0  0  0  0  0  0  0  0  0
  -30.1850  -11.1820   21.3110 H   0  0  0  0  0  0  0  0  0  0  0  0
  1  8  1  0
  1  6  1  0
  2  3  1  0
  4  6  1  0
  4  2  1  0
  5  3  1  0
  6  7  1  1
  6  5  1  0
  9  8  1  0
  9 10  2  0
 11 10  1  0
 11 12  2  0
 13 12  1  0
 13 15  1  0
 14 25  2  0
 15 20  2  0
 15 21  1  0
 16 26  1  0
 17 23  1  0
 18 24  1  0
 19 18  1  0
 19 17  2  0
 20 19  1  0
 21 22  2  0
 22 17  1  0
 23 16  1  0
 24 14  1  0
 24 16  1  0
 26 27  1  0
 27 29  1  0
 28 26  2  0
 30 39  1  0
 31 27  1  0
 31 32  1  0
 31 35  1  0
 32 33  1  0
 33 34  1  0
 34 30  1  0
 35 36  1  0
 35 30  2  0
 36 37  2  0
 37 38  1  0
 39 38  2  0
 40 45  1  0
 40 14  1  0
 41 40  1  0
 41 42  1  1
 43 41  1  0
 44 41  1  0
 45 48  1  0
 46 50  1  0
 46 45  1  0
 47 46  2  0
 50 49  1  0
 51 52  1  0
 52 53  1  0
 52 50  1  0
 54  1  1  0
 54 93  1  0
 55 63  1  0
 56 61  1  0
 57 58  1  0
 57 56  1  0
 59 58  1  0
 59 68  1  0
 59 60  1  0
 61 55  1  0
 61 60  1  0
 62 55  2  0
 63 64  1  0
 63 54  1  0
 65 66  2  0
 66 85  1  0
 67 66  1  0
 67 70  1  0
 68 69  1  0
 68 65  1  0
 69 67  2  0
 70 71  1  0
 71 72  2  0
 73 76  1  0
 73 72  1  0
 74 73  2  0
 75 74  1  0
 75 70  2  0
 76 77  1  0
 77 82  2  0
 77 78  1  0
 78 79  2  0
 79 80  1  0
 80 84  1  0
 81 80  2  0
 82 81  1  0
 83 82  1  0
 85 86  1  0
 86 88  1  0
 86 89  1  0
 87 85  2  0
 90 65  1  0
 90 91  1  0
 92 90  1  0
 93 94  1  0
 94 95  1  0
 96 97  1  0
 96 95  1  0
 97 98  1  0
 99 97  1  0
100 97  1  0
M  ISO  4  12 101  13 101  55 100  63 100
M  END
>  <TORSDO>  (45) 
F 28

>  <SCORE>  (45) 
-6.117

>  <name>  (45) 
48

>  <ligand_id>  (45) 
48

>  <original_smiles>  (45) 
[H]c1c([H])c([H])c2c(c1[H])C([H])([H])C([H])([H])C([H])([H])C2([H])N([H])C(=O)C1([H])N(C(=O)C([H])(N([H])C(=O)C([H])(N([H])C([H])([H])[H])C([H])([H])[H])C(C([H])([H])[H])(C([H])([H])[H])C([H])([H])[H])C([H])([H])c2c([H])c(OC([H])([H])C([H])([H])C([H])([H])C([H])([H])C([H])([H])C([H])(C([H])(N([H])C(=O)N3C([H])([H])C([H])([H])C([H])([H])C([H])(n4nc(-c5c([H])c([H])c(Oc6c([H])c([H])c(F)c([H])c6F)c([H])c5[H])c(C(=O)N([H])[H])c4N([H])[H])C3([H])[H])C([H])([H])C([H])([H])C([H])([H])C([H])([H])[N+]([H])([H])[H])[N+]3([H])C([H])([H])C([H])([H])C([H])([H])C3([H])[H])c([H])c([H])c2C1([H])[H]

>  <smiles>  (45) 
[H]c1c([H])c([H])c2c(c1[H])C([H])([H])C([H])([H])C([H])([H])C2([H])N([H])C(=O)C1([H])N(C(=O)C([H])(N([H])C(=O)C([H])(N([H])C([H])([H])[H])C([H])([H])[H])C(C([H])([H])[H])(C([H])([H])[H])C([H])([H])[H])C([H])([H])c2c([H])c(OC([H])([H])C([H])([H])C([H])([H])C([H])([H])C([H])([H])C([H])(C([H])(N([H])C(=O)N3C([H])([H])C([H])([H])C([H])([H])C([H])(n4nc(-c5c([H])c([H])c(Oc6c([H])c([H])c(F)c([H])c6F)c([H])c5[H])c(C(=O)N([H])[H])c4N([H])[H])C3([H])[H])C([H])([H])C([H])([H])C([H])([H])C([H])([H])[N+]([H])([H])[H])[N+]3([H])C([H])([H])C([H])([H])C([H])([H])C3([H])[H])c([H])c([H])c2C1([H])[H]

$$$$
49:0:0
     RDKit          3D

109117  0  0  1  0  0  0  0  0999 V2000
  -32.0610  -19.1130   21.0220 C   0  0  0  0  0  2  0  0  0  0  0  0
  -29.5410  -20.7730   21.9200 C   0  0  0  0  0  2  0  0  0  0  0  0
  -31.5950  -22.1690   21.4510 C   0  0  0  0  0  2  0  0  0  0  0  0
  -30.4270  -19.8600   22.8000 C   0  0  0  0  0  2  0  0  0  0  0  0
  -32.4110  -21.1890   22.3320 C   0  0  0  0  0  2  0  0  0  0  0  0
  -30.0920  -22.2170   21.8330 C   0  0  0  0  0  3  0  0  0  0  0  0
  -31.8380  -19.8180   22.3200 N   0  0  2  0  0  4  0  0  0  0  0  0
  -32.3640  -19.2980   23.0090 H   0  0  0  0  0  0  0  0  0  0  0  0
  -29.2960  -23.0120   20.8570 N   0  0  0  0  0  4  0  0  0  0  0  0
  -28.3390  -22.6870   20.8740 H   0  0  0  0  0  0  0  0  0  0  0  0
  -29.6450  -22.8330   19.9280 H   0  0  0  0  0  0  0  0  0  0  0  0
  -29.2630  -24.4810   21.0600 C   0  0  0  0  0  2  0  0  0  0  0  0
  -28.6950  -25.1920   19.8170 C   0  0  0  0  0  2  0  0  0  0  0  0
  -28.3000  -26.6590   20.0420 C   0  0  0  0  0  2  0  0  0  0  0  0
  -28.0210  -27.2150   18.7610 O   0  0  0  0  0  0  0  0  0  0  0  0
  -21.0320  -27.6090   20.2570 C   0  0  0  0  0  0  0  0  0  0  0  0
  -26.7130  -27.2840   18.3450 C   0  0  0  0  0  0  0  0  0  0  0  0
  -21.6300  -27.2660   17.8780 C   0  0  0  0  0  3  0  0  0  0  0  0
  -24.1010  -27.5390   17.3120 C   0  0  0  0  0  0  0  0  0  0  0  0
  -23.2360  -28.4580   19.4700 C   0  0  0  0  0  2  0  0  0  0  0  0
  -24.3720  -27.9100   18.6360 C   0  0  0  0  0  0  0  0  0  0  0  0
  -25.6740  -27.7800   19.1610 C   0  0  0  0  0  3  0  0  0  0  0  0
  -26.4320  -26.9200   17.0150 C   0  0  0  0  0  3  0  0  0  0  0  0
  -25.1270  -27.0350   16.4970 C   0  0  0  0  0  3  0  0  0  0  0  0
  -22.6810  -27.7190   16.8290 C   0  0  0  0  0  2  0  0  0  0  0  0
  -21.9480  -27.7590   19.2580 N   0  0  0  0  0  0  0  0  0  0  0  0
  -19.9180  -27.1140   20.0330 O   0  0  0  0  0  0  0  0  0  0  0  0
  -21.4820  -25.7290   17.7940 C   0  0  0  0  0  0  0  0  0  0  0  0
  -20.4790  -25.2670   17.0280 N   0  0  0  0  0  0  0  0  0  0  0  0
  -22.2720  -24.9860   18.3800 O   0  0  0  0  0  0  0  0  0  0  0  0
  -19.8710  -25.9450   16.5920 H   0  0  0  0  0  0  0  0  0  0  0  0
  -18.0890  -23.0580   15.4620 C   0  0  0  0  0  0  0  0  0  0  0  0
  -20.1700  -23.8620   16.7660 C   0  0  0  0  0  3  0  0  0  0  0  0
  -20.9970  -23.3230   15.5760 C   0  0  0  0  0  2  0  0  0  0  0  0
  -20.2680  -23.4350   14.2330 C   0  0  0  0  0  2  0  0  0  0  0  0
  -18.9480  -22.6590   14.2750 C   0  0  0  0  0  2  0  0  0  0  0  0
  -18.6610  -23.6380   16.6260 C   0  0  0  0  0  0  0  0  0  0  0  0
  -17.8150  -24.0210   17.6870 C   0  0  0  0  0  3  0  0  0  0  0  0
  -16.4240  -23.8330   17.6040 C   0  0  0  0  0  3  0  0  0  0  0  0
  -15.8630  -23.2380   16.4600 C   0  0  0  0  0  3  0  0  0  0  0  0
  -16.6940  -22.8520   15.3940 C   0  0  0  0  0  3  0  0  0  0  0  0
  -21.3280  -28.0690   21.7180 C   0  0  0  0  0  3  0  0  0  0  0  0
  -20.1120  -27.8410   22.5090 N   0  0  0  0  0  0  0  0  0  0  0  0
  -19.2350  -28.7960   22.8460 C   0  0  0  0  0  0  0  0  0  0  0  0
  -19.4070  -29.9890   22.5780 O   0  0  0  0  0  0  0  0  0  0  0  0
  -19.8830  -26.8810   22.7240 H   0  0  0  0  0  0  0  0  0  0  0  0
  -16.7740  -28.3510   22.6230 C   0  0  0  0  0  1  0  0  0  0  0  0
  -17.9650  -28.3560   23.5950 C   0  0  0  0  0  3  0  0  0  0  0  0
  -18.5930  -29.0460   25.8630 C   0  0  0  0  0  1  0  0  0  0  0  0
  -17.6490  -29.2060   24.7620 N   0  0  0  0  0  0  0  0  0  0  0  0
  -16.7140  -29.0120   25.1100 H   0  0  0  0  0  0  0  0  0  0  0  0
  -22.5630  -27.3330   22.3680 C   0  0  1  0  0  0  0  0  0  0  0  0
  -22.4950  -25.7910   22.2560 C   0  0  0  0  0  1  0  0  0  0  0  0
  -23.8790  -27.8050   21.7100 C   0  0  0  0  0  1  0  0  0  0  0  0
  -22.6620  -27.7040   23.8680 C   0  0  0  0  0  1  0  0  0  0  0  0
  -31.9070  -17.5770   21.0870 C   0  0  0  0  0  2  0  0  0  0  0  0
  -32.5320  -16.8970   19.8420 C   0  0  0  0  0  2  0  0  0  0  0  0
  -33.2110  -14.8010   20.8810 C   0  0  0  0  0  0  0  0  0  0  0  0
  -34.9840  -13.1570   21.4310 C   0  0  0  0  0  2  0  0  0  0  0  0
  -36.2610  -13.4400   20.6080 C   0  0  0  0  0  2  0  0  0  0  0  0
  -36.1880  -12.8000   19.2040 C   0  0  0  0  0  2  0  0  0  0  0  0
  -34.8360  -13.0740   18.4940 C   0  0  0  0  0  3  0  0  0  0  0  0
  -33.6880  -12.7290   19.4660 C   0  0  0  0  0  2  0  0  0  0  0  0
  -33.8200  -13.6000   20.6370 N   0  0  0  0  0  0  0  0  0  0  0  0
  -33.4940  -15.4370   21.9050 O   0  0  0  0  0  0  0  0  0  0  0  0
  -32.5160  -15.4170   19.8670 N   0  0  0  0  0  0  0  0  0  0  0  0
  -34.8840  -12.7890   15.9330 C   0  0  0  0  0  0  0  0  0  0  0  0
  -34.7370  -11.6860   15.1350 C   0  0  0  0  0  0  0  0  0  0  0  0
  -34.5360  -10.5840   16.0210 C   0  0  0  0  0  0  0  0  0  0  0  0
  -34.7320  -12.3370   17.2370 N   0  0  0  0  0  0  0  0  0  0  0  0
  -34.4730  -11.0070   17.2770 N   0  0  0  0  0  0  0  0  0  0  0  0
  -34.4510   -9.1440   15.7520 C   0  0  0  0  0  0  0  0  0  0  0  0
  -33.4210   -8.3510   16.3010 C   0  0  0  0  0  3  0  0  0  0  0  0
  -33.3490   -6.9710   16.0120 C   0  0  0  0  0  3  0  0  0  0  0  0
  -34.3130   -6.3720   15.1660 C   0  0  0  0  0  0  0  0  0  0  0  0
  -35.3500   -7.1640   14.6410 C   0  0  0  0  0  3  0  0  0  0  0  0
  -35.4220   -8.5350   14.9340 C   0  0  0  0  0  3  0  0  0  0  0  0
  -34.3380   -5.0340   14.8530 O   0  0  0  0  0  0  0  0  0  0  0  0
  -33.1880   -4.2920   14.7760 C   0  0  0  0  0  0  0  0  0  0  0  0
  -32.1260   -4.6490   13.9160 C   0  0  0  0  0  3  0  0  0  0  0  0
  -30.9930   -3.8170   13.8150 C   0  0  0  0  0  3  0  0  0  0  0  0
  -30.9210   -2.6290   14.5660 C   0  0  0  0  0  0  0  0  0  0  0  0
  -31.9770   -2.2700   15.4200 C   0  0  0  0  0  3  0  0  0  0  0  0
  -33.1090   -3.0990   15.5220 C   0  0  0  0  0  0  0  0  0  0  0  0
  -34.1360   -2.7370   16.3300 F   0  0  0  0  0  0  0  0  0  0  0  0
  -29.8340   -1.8280   14.4650 F   0  0  0  0  0  0  0  0  0  0  0  0
  -34.8830  -11.6390   13.6410 C   0  0  0  0  0  0  0  0  0  0  0  0
  -34.2080  -10.7000   12.9880 N   0  0  0  0  0  0  0  0  0  0  0  0
  -35.5650  -12.4670   13.0390 O   0  0  0  0  0  0  0  0  0  0  0  0
  -33.6400  -10.0250   13.4790 H   0  0  0  0  0  0  0  0  0  0  0  0
  -34.2690  -10.6480   11.9820 H   0  0  0  0  0  0  0  0  0  0  0  0
  -35.1590  -14.1250   15.6610 N   0  0  0  0  0  0  0  0  0  0  0  0
  -35.4600  -14.3790   14.7270 H   0  0  0  0  0  0  0  0  0  0  0  0
  -35.5510  -14.7280   16.3720 H   0  0  0  0  0  0  0  0  0  0  0  0
  -31.3410  -14.8520   19.1420 C   0  0  0  0  0  2  0  0  0  0  0  0
  -31.4830  -14.6130   17.5940 C   0  0  0  0  0  3  0  0  0  0  0  0
  -32.1060  -15.7610   16.7520 C   0  0  0  0  0  2  0  0  0  0  0  0
  -31.2890  -16.9890   16.7130 N   0  0  0  0  0  4  0  0  0  0  0  0
  -30.4210  -16.8190   16.2360 H   0  0  0  0  0  0  0  0  0  0  0  0
  -31.7780  -17.6980   16.1960 H   0  0  0  0  0  0  0  0  0  0  0  0
  -31.0850  -17.3370   17.6300 H   0  0  0  0  0  0  0  0  0  0  0  0
  -30.1510  -14.1720   16.9440 C   0  0  0  0  0  2  0  0  0  0  0  0
  -29.4210  -13.0110   17.6410 C   0  0  0  0  0  2  0  0  0  0  0  0
  -28.0630  -12.7360   16.9670 C   0  0  0  0  0  2  0  0  0  0  0  0
  -27.1180  -11.8190   17.7670 C   0  0  0  0  0  2  0  0  0  0  0  0
  -27.6540  -10.4580   17.9350 N   0  0  0  0  0  4  0  0  0  0  0  0
  -27.7970  -10.0170   17.0430 H   0  0  0  0  0  0  0  0  0  0  0  0
  -26.9980   -9.9010   18.4550 H   0  0  0  0  0  0  0  0  0  0  0  0
  -28.5200  -10.4720   18.4420 H   0  0  0  0  0  0  0  0  0  0  0  0
  1 56  1  0
  1  7  1  0
  2  4  1  0
  3  6  1  0
  3  5  1  0
  6  9  1  0
  6  2  1  0
  7  5  1  0
  7  4  1  0
  7  8  1  1
  9 10  1  0
  9 12  1  0
 11  9  1  0
 13 14  1  0
 13 12  1  0
 15 14  1  0
 17 15  1  0
 17 22  1  0
 18 28  1  0
 18 26  1  0
 19 21  1  0
 21 22  2  0
 21 20  1  0
 23 17  2  0
 24 23  1  0
 24 19  2  0
 25 19  1  0
 25 18  1  0
 26 20  1  0
 26 16  1  0
 27 16  2  0
 28 30  2  0
 29 28  1  0
 31 29  1  0
 32 37  1  0
 33 29  1  0
 34 33  1  0
 35 36  1  0
 35 34  1  0
 36 32  1  0
 37 33  1  0
 37 38  2  0
 39 38  1  0
 40 39  2  0
 41 32  2  0
 41 40  1  0
 42 16  1  0
 42 52  1  0
 42 43  1  0
 43 46  1  0
 43 44  1  0
 44 48  1  0
 45 44  2  0
 48 47  1  0
 48 50  1  0
 50 51  1  0
 50 49  1  0
 52 55  1  1
 53 52  1  0
 54 52  1  0
 57 66  1  0
 57 56  1  0
 58 65  2  0
 60 59  1  0
 61 60  1  0
 62 70  1  0
 62 61  1  0
 62 63  1  0
 63 64  1  0
 64 58  1  0
 64 59  1  0
 66 58  1  0
 67 70  1  0
 68 67  2  0
 68 69  1  0
 69 71  2  0
 70 71  1  0
 72 69  1  0
 72 73  1  0
 74 73  2  0
 75 74  1  0
 76 77  1  0
 76 75  2  0
 77 72  2  0
 78 75  1  0
 79 78  1  0
 79 84  1  0
 80 79  2  0
 81 80  1  0
 81 82  2  0
 82 83  1  0
 83 84  2  0
 84 85  1  0
 86 82  1  0
 87 68  1  0
 88 90  1  0
 88 87  1  0
 89 87  2  0
 91 88  1  0
 92 67  1  0
 92 94  1  0
 93 92  1  0
 95 66  1  0
 96 97  1  0
 96 95  1  0
 98 97  1  0
 98101  1  0
 99 98  1  0
100 98  1  0
102 96  1  0
102103  1  0
104103  1  0
104105  1  0
105106  1  0
106109  1  0
106108  1  0
107106  1  0
M  ISO  4  14 101  15 101  58 100  66 100
M  END
>  <TORSDO>  (46) 
F 32

>  <SCORE>  (46) 
18.845

>  <name>  (46) 
49

>  <ligand_id>  (46) 
49

>  <original_smiles>  (46) 
[H]c1c([H])c([H])c2c(c1[H])C([H])([H])C([H])([H])C([H])([H])C2([H])N([H])C(=O)C1([H])N(C(=O)C([H])(N([H])C(=O)C([H])(N([H])C([H])([H])[H])C([H])([H])[H])C(C([H])([H])[H])(C([H])([H])[H])C([H])([H])[H])C([H])([H])c2c([H])c(OC([H])([H])C([H])([H])C([H])([H])[N+]([H])([H])C3([H])C([H])([H])C([H])([H])[N+]([H])(C([H])([H])C([H])([H])C([H])([H])N(C(=O)N4C([H])([H])C([H])([H])C([H])([H])C([H])(n5nc(-c6c([H])c([H])c(Oc7c([H])c([H])c(F)c([H])c7F)c([H])c6[H])c(C(=O)N([H])[H])c5N([H])[H])C4([H])[H])C([H])([H])C([H])(C([H])([H])C([H])([H])C([H])([H])C([H])([H])[N+]([H])([H])[H])C([H])([H])[N+]([H])([H])[H])C([H])([H])C3([H])[H])c([H])c([H])c2C1([H])[H]

>  <smiles>  (46) 
[H]c1c([H])c([H])c2c(c1[H])C([H])([H])C([H])([H])C([H])([H])C2([H])N([H])C(=O)C1([H])N(C(=O)C([H])(N([H])C(=O)C([H])(N([H])C([H])([H])[H])C([H])([H])[H])C(C([H])([H])[H])(C([H])([H])[H])C([H])([H])[H])C([H])([H])c2c([H])c(OC([H])([H])C([H])([H])C([H])([H])[N+]([H])([H])C3([H])C([H])([H])C([H])([H])[N+]([H])(C([H])([H])C([H])([H])C([H])([H])N(C(=O)N4C([H])([H])C([H])([H])C([H])([H])C([H])(n5nc(-c6c([H])c([H])c(Oc7c([H])c([H])c(F)c([H])c7F)c([H])c6[H])c(C(=O)N([H])[H])c5N([H])[H])C4([H])[H])C([H])([H])C([H])(C([H])([H])C([H])([H])C([H])([H])C([H])([H])[N+]([H])([H])[H])C([H])([H])[N+]([H])([H])[H])C([H])([H])C3([H])[H])c([H])c([H])c2C1([H])[H]

$$$$
50:0:0
     RDKit          3D

 89 97  0  0  1  0  0  0  0  0999 V2000
  -27.6430  -23.7590   19.1630 C   0  0  0  0  0  3  0  0  0  0  0  0
  -28.6160  -24.0560   21.4350 C   0  0  0  0  0  2  0  0  0  0  0  0
  -27.6600  -22.2040   19.6140 C   0  0  0  0  0  2  0  0  0  0  0  0
  -29.4170  -22.6810   21.2900 C   0  0  0  0  0  2  0  0  0  0  0  0
  -28.3810  -24.8210   20.0930 C   0  0  0  0  0  0  0  0  0  0  0  0
  -28.9100  -21.6510   20.2810 N   0  0  1  0  0  4  0  0  0  0  0  0
  -29.6130  -21.6540   19.5540 H   0  0  0  0  0  0  0  0  0  0  0  0
  -28.2900  -26.3610   20.1110 O   0  0  0  0  0  0  0  0  0  0  0  0
  -24.6100  -31.8810   23.2010 C   0  0  0  0  0  0  0  0  0  0  0  0
  -27.1620  -27.2220   20.1320 C   0  0  0  0  0  0  0  0  0  0  0  0
  -23.4000  -30.4840   21.5750 C   0  0  0  0  0  3  0  0  0  0  0  0
  -24.8270  -28.9180   20.1400 C   0  0  0  0  0  0  0  0  0  0  0  0
  -25.9430  -30.7750   21.3750 C   0  0  0  0  0  2  0  0  0  0  0  0
  -26.0090  -29.3870   20.7230 C   0  0  0  0  0  0  0  0  0  0  0  0
  -27.1780  -28.5490   20.7010 C   0  0  0  0  0  3  0  0  0  0  0  0
  -25.9500  -26.8330   19.5320 C   0  0  0  0  0  3  0  0  0  0  0  0
  -24.8030  -27.6540   19.5370 C   0  0  0  0  0  3  0  0  0  0  0  0
  -23.6060  -29.8180   20.1890 C   0  0  0  0  0  2  0  0  0  0  0  0
  -24.6710  -31.0630   22.1070 N   0  0  0  0  0  0  0  0  0  0  0  0
  -23.5300  -32.1570   23.7430 O   0  0  0  0  0  0  0  0  0  0  0  0
  -22.7380  -29.4630   22.5330 C   0  0  0  0  0  0  0  0  0  0  0  0
  -21.4100  -29.2880   22.4120 N   0  0  0  0  0  0  0  0  0  0  0  0
  -23.4150  -28.8360   23.3510 O   0  0  0  0  0  0  0  0  0  0  0  0
  -20.9140  -29.8580   21.7390 H   0  0  0  0  0  0  0  0  0  0  0  0
  -18.0300  -28.0950   22.9270 C   0  0  0  0  0  0  0  0  0  0  0  0
  -20.5960  -28.3490   23.1860 C   0  0  0  0  0  3  0  0  0  0  0  0
  -20.6910  -26.9190   22.6080 C   0  0  0  0  0  2  0  0  0  0  0  0
  -19.5840  -26.6030   21.5980 C   0  0  0  0  0  2  0  0  0  0  0  0
  -18.2040  -26.7450   22.2490 C   0  0  0  0  0  2  0  0  0  0  0  0
  -19.1550  -28.8520   23.3530 C   0  0  0  0  0  0  0  0  0  0  0  0
  -18.9410  -30.1120   23.9480 C   0  0  0  0  0  3  0  0  0  0  0  0
  -17.6400  -30.6170   24.1260 C   0  0  0  0  0  3  0  0  0  0  0  0
  -16.5310  -29.8530   23.7240 C   0  0  0  0  0  3  0  0  0  0  0  0
  -16.7270  -28.5960   23.1240 C   0  0  0  0  0  3  0  0  0  0  0  0
  -25.8920  -32.5140   23.8200 C   0  0  0  0  0  3  0  0  0  0  0  0
  -26.4170  -31.7370   25.0900 C   0  0  1  0  0  0  0  0  0  0  0  0
  -25.3340  -31.4910   26.1660 C   0  0  0  0  0  1  0  0  0  0  0  0
  -27.0030  -30.3670   24.6780 C   0  0  0  0  0  1  0  0  0  0  0  0
  -27.5690  -32.5310   25.7490 C   0  0  0  0  0  1  0  0  0  0  0  0
  -25.5830  -33.9100   24.1680 N   0  0  0  0  0  0  0  0  0  0  0  0
  -25.9000  -34.9710   23.4150 C   0  0  0  0  0  0  0  0  0  0  0  0
  -26.5550  -34.8800   22.3730 O   0  0  0  0  0  0  0  0  0  0  0  0
  -25.0120  -34.0560   24.9870 H   0  0  0  0  0  0  0  0  0  0  0  0
  -24.1600  -36.7570   23.0960 C   0  0  0  0  0  1  0  0  0  0  0  0
  -25.4110  -36.3540   23.8920 C   0  0  0  0  0  3  0  0  0  0  0  0
  -27.5490  -37.2380   24.7020 C   0  0  0  0  0  1  0  0  0  0  0  0
  -26.4380  -37.4130   23.7720 N   0  0  0  0  0  0  0  0  0  0  0  0
  -26.0310  -38.3290   23.9400 H   0  0  0  0  0  0  0  0  0  0  0  0
  -28.8930  -20.1800   20.8370 C   0  0  0  0  0  2  0  0  0  0  0  0
  -29.1820  -18.7940   19.9730 C   0  0  0  0  0  2  0  0  0  0  0  0
  -29.9090  -17.5000   20.7160 C   0  0  0  0  0  2  0  0  0  0  0  0
  -30.5150  -14.8790   20.3200 C   0  0  0  0  0  0  0  0  0  0  0  0
  -30.4070  -12.5540   19.3620 C   0  0  0  0  0  2  0  0  0  0  0  0
  -29.4590  -12.5320   18.1410 C   0  0  0  0  0  2  0  0  0  0  0  0
  -27.9940  -12.3440   18.5860 C   0  0  0  0  0  2  0  0  0  0  0  0
  -27.6040  -13.2800   19.7570 C   0  0  0  0  0  3  0  0  0  0  0  0
  -28.6580  -13.2530   20.8780 C   0  0  0  0  0  2  0  0  0  0  0  0
  -29.9350  -13.6280   20.2660 N   0  0  0  0  0  0  0  0  0  0  0  0
  -31.7310  -14.9840   20.1250 O   0  0  0  0  0  0  0  0  0  0  0  0
  -29.6720  -16.0010   20.3910 N   0  0  0  0  0  0  0  0  0  0  0  0
  -28.6970  -15.7410   20.4060 H   0  0  0  0  0  0  0  0  0  0  0  0
  -25.2270  -13.8890   20.4850 C   0  0  0  0  0  0  0  0  0  0  0  0
  -24.1560  -13.1190   20.8580 C   0  0  0  0  0  0  0  0  0  0  0  0
  -24.6190  -11.7660   20.8420 C   0  0  0  0  0  0  0  0  0  0  0  0
  -26.2660  -13.0020   20.2590 N   0  0  0  0  0  0  0  0  0  0  0  0
  -25.9090  -11.7240   20.5390 N   0  0  0  0  0  0  0  0  0  0  0  0
  -23.8870  -10.5080   21.0360 C   0  0  0  0  0  0  0  0  0  0  0  0
  -24.3210   -9.5420   21.9710 C   0  0  0  0  0  3  0  0  0  0  0  0
  -23.5920   -8.3460   22.1530 C   0  0  0  0  0  3  0  0  0  0  0  0
  -22.4160   -8.1100   21.4000 C   0  0  0  0  0  0  0  0  0  0  0  0
  -22.0050   -9.0650   20.4540 C   0  0  0  0  0  3  0  0  0  0  0  0
  -22.7330  -10.2510   20.2720 C   0  0  0  0  0  3  0  0  0  0  0  0
  -21.6600   -6.9670   21.4920 O   0  0  0  0  0  0  0  0  0  0  0  0
  -21.6210   -6.2210   22.6430 C   0  0  0  0  0  0  0  0  0  0  0  0
  -21.2170   -6.7740   23.8770 C   0  0  0  0  0  3  0  0  0  0  0  0
  -21.1260   -5.9550   25.0200 C   0  0  0  0  0  3  0  0  0  0  0  0
  -21.4290   -4.5840   24.9300 C   0  0  0  0  0  0  0  0  0  0  0  0
  -21.8250   -4.0290   23.7000 C   0  0  0  0  0  3  0  0  0  0  0  0
  -21.9190   -4.8470   22.5590 C   0  0  0  0  0  0  0  0  0  0  0  0
  -22.2830   -4.3040   21.3720 F   0  0  0  0  0  0  0  0  0  0  0  0
  -21.3340   -3.7940   26.0240 F   0  0  0  0  0  0  0  0  0  0  0  0
  -22.7610  -13.6010   21.1170 C   0  0  0  0  0  0  0  0  0  0  0  0
  -22.0280  -12.9110   21.9850 N   0  0  0  0  0  0  0  0  0  0  0  0
  -22.3260  -14.6230   20.5860 O   0  0  0  0  0  0  0  0  0  0  0  0
  -22.3900  -12.0760   22.4250 H   0  0  0  0  0  0  0  0  0  0  0  0
  -21.0930  -13.2170   22.2130 H   0  0  0  0  0  0  0  0  0  0  0  0
  -25.3990  -15.2560   20.2930 N   0  0  0  0  0  0  0  0  0  0  0  0
  -24.6310  -15.9160   20.3670 H   0  0  0  0  0  0  0  0  0  0  0  0
  -26.2330  -15.6700   19.8980 H   0  0  0  0  0  0  0  0  0  0  0  0
  1  3  1  0
  1  5  2  0
  3  6  1  0
  4  2  1  0
  5  8  1  0
  5  2  1  0
  6 49  1  0
  6  4  1  0
  6  7  1  6
  8 10  1  0
  9 20  2  0
 10 15  1  0
 11 19  1  0
 11 21  1  0
 12 18  1  0
 12 14  1  0
 13 19  1  0
 14 13  1  0
 15 14  2  0
 16 17  1  0
 16 10  2  0
 17 12  2  0
 18 11  1  0
 19  9  1  0
 21 23  2  0
 22 21  1  0
 24 22  1  0
 25 34  2  0
 25 30  1  0
 26 22  1  0
 26 30  1  0
 27 26  1  0
 28 29  1  0
 28 27  1  0
 29 25  1  0
 30 31  2  0
 31 32  1  0
 33 32  2  0
 34 33  1  0
 35  9  1  0
 35 40  1  0
 35 36  1  0
 36 39  1  1
 36 37  1  0
 38 36  1  0
 40 43  1  0
 41 45  1  0
 41 40  1  0
 42 41  2  0
 45 44  1  0
 47 45  1  0
 47 48  1  0
 47 46  1  0
 50 51  1  0
 50 49  1  0
 52 60  1  0
 53 58  1  0
 54 55  1  0
 54 53  1  0
 56 55  1  0
 56 65  1  0
 56 57  1  0
 58 52  1  0
 58 57  1  0
 59 52  2  0
 60 61  1  0
 60 51  1  0
 62 63  2  0
 63 82  1  0
 64 63  1  0
 64 67  1  0
 65 62  1  0
 65 66  1  0
 66 64  2  0
 67 68  1  0
 68 69  2  0
 70 73  1  0
 70 69  1  0
 71 70  2  0
 72 71  1  0
 72 67  2  0
 73 74  1  0
 74 75  1  0
 75 76  2  0
 77 76  1  0
 77 81  1  0
 78 77  2  0
 79 74  2  0
 79 78  1  0
 80 79  1  0
 82 83  1  0
 83 86  1  0
 83 85  1  0
 84 82  2  0
 87 88  1  0
 87 62  1  0
 89 87  1  0
M  ISO  4   5 101   8 101  52 100  60 100
M  END
>  <TORSDO>  (47) 
F 19

>  <SCORE>  (47) 
-14.091

>  <name>  (47) 
50

>  <ligand_id>  (47) 
50

>  <original_smiles>  (47) 
[H]c1c([H])c([H])c2c(c1[H])C([H])([H])C([H])([H])C([H])([H])C2([H])N([H])C(=O)C1([H])N(C(=O)C([H])(N([H])C(=O)C([H])(N([H])C([H])([H])[H])C([H])([H])[H])C(C([H])([H])[H])(C([H])([H])[H])C([H])([H])[H])C([H])([H])c2c([H])c(OC3([H])C([H])([H])C([H])([H])[N+]([H])(C([H])([H])C([H])([H])C([H])([H])N([H])C(=O)N4C([H])([H])C([H])([H])C([H])([H])C([H])(n5nc(-c6c([H])c([H])c(Oc7c([H])c([H])c(F)c([H])c7F)c([H])c6[H])c(C(=O)N([H])[H])c5N([H])[H])C4([H])[H])C([H])([H])C3([H])[H])c([H])c([H])c2C1([H])[H]

>  <smiles>  (47) 
[H]c1c([H])c([H])c2c(c1[H])C([H])([H])C([H])([H])C([H])([H])C2([H])N([H])C(=O)C1([H])N(C(=O)C([H])(N([H])C(=O)C([H])(N([H])C([H])([H])[H])C([H])([H])[H])C(C([H])([H])[H])(C([H])([H])[H])C([H])([H])[H])C([H])([H])c2c([H])c(OC3([H])C([H])([H])C([H])([H])[N+]([H])(C([H])([H])C([H])([H])C([H])([H])N([H])C(=O)N4C([H])([H])C([H])([H])C([H])([H])C([H])(n5nc(-c6c([H])c([H])c(Oc7c([H])c([H])c(F)c([H])c7F)c([H])c6[H])c(C(=O)N([H])[H])c5N([H])[H])C4([H])[H])C([H])([H])C3([H])[H])c([H])c([H])c2C1([H])[H]

$$$$
51:0:0
     RDKit          3D

101111  0  0  1  0  0  0  0  0999 V2000
  -29.7080  -25.2750   21.6460 C   0  0  0  0  0  2  0  0  0  0  0  0
  -29.8810  -26.5720   19.6160 C   0  0  0  0  0  2  0  0  0  0  0  0
  -29.5880  -23.9560   20.8190 C   0  0  0  0  0  2  0  0  0  0  0  0
  -29.1270  -26.5120   20.9520 C   0  0  0  0  0  3  0  0  0  0  0  0
  -29.4850  -25.4150   18.6670 C   0  0  0  0  0  3  0  0  0  0  0  0
  -29.5330  -24.0550   19.3180 N   0  0  1  0  0  4  0  0  0  0  0  0
  -28.5360  -23.8900   19.2540 H   0  0  0  0  0  0  0  0  0  0  0  0
  -29.2810  -27.7090   21.7620 O   0  0  0  0  0  0  0  0  0  0  0  0
  -24.4980  -28.0600   27.0110 C   0  0  0  0  0  0  0  0  0  0  0  0
  -28.0830  -28.2490   22.1840 C   0  0  0  0  0  0  0  0  0  0  0  0
  -23.7200  -28.7900   24.7790 C   0  0  0  0  0  3  0  0  0  0  0  0
  -25.5430  -29.1600   23.0360 C   0  0  0  0  0  0  0  0  0  0  0  0
  -26.1780  -29.0310   25.4460 C   0  0  0  0  0  2  0  0  0  0  0  0
  -26.5310  -28.8620   23.9820 C   0  0  0  0  0  0  0  0  0  0  0  0
  -27.8040  -28.4090   23.5620 C   0  0  0  0  0  3  0  0  0  0  0  0
  -27.0910  -28.6040   21.2470 C   0  0  0  0  0  3  0  0  0  0  0  0
  -25.8200  -29.0350   21.6650 C   0  0  0  0  0  3  0  0  0  0  0  0
  -24.2020  -29.6200   23.5600 C   0  0  0  0  0  2  0  0  0  0  0  0
  -24.8070  -28.5840   25.7920 N   0  0  0  0  0  0  0  0  0  0  0  0
  -23.3280  -27.7860   27.3150 O   0  0  0  0  0  0  0  0  0  0  0  0
  -23.0960  -27.4690   24.2730 C   0  0  0  0  0  0  0  0  0  0  0  0
  -22.0590  -27.5830   23.4260 N   0  0  0  0  0  0  0  0  0  0  0  0
  -23.5540  -26.3780   24.6200 O   0  0  0  0  0  0  0  0  0  0  0  0
  -21.7410  -28.5130   23.1940 H   0  0  0  0  0  0  0  0  0  0  0  0
  -19.5940  -26.7790   20.9080 C   0  0  0  0  0  0  0  0  0  0  0  0
  -21.3370  -26.4780   22.7930 C   0  0  0  0  0  3  0  0  0  0  0  0
  -22.2100  -25.7760   21.7230 C   0  0  0  0  0  2  0  0  0  0  0  0
  -22.0160  -26.3420   20.3090 C   0  0  0  0  0  2  0  0  0  0  0  0
  -20.5540  -26.1980   19.8810 C   0  0  0  0  0  2  0  0  0  0  0  0
  -19.9690  -26.9290   22.2700 C   0  0  0  0  0  0  0  0  0  0  0  0
  -19.0510  -27.5090   23.1740 C   0  0  0  0  0  3  0  0  0  0  0  0
  -17.7830  -27.9380   22.7370 C   0  0  0  0  0  3  0  0  0  0  0  0
  -17.4110  -27.7740   21.3910 C   0  0  0  0  0  3  0  0  0  0  0  0
  -18.3140  -27.1940   20.4830 C   0  0  0  0  0  3  0  0  0  0  0  0
  -25.5970  -27.8010   28.0910 C   0  0  0  0  0  3  0  0  0  0  0  0
  -24.9560  -27.8950   29.4070 N   0  0  0  0  0  0  0  0  0  0  0  0
  -25.1010  -28.9250   30.2520 C   0  0  0  0  0  0  0  0  0  0  0  0
  -25.8590  -29.8720   30.0260 O   0  0  0  0  0  0  0  0  0  0  0  0
  -24.2860  -27.1760   29.6360 H   0  0  0  0  0  0  0  0  0  0  0  0
  -23.0260  -29.7790   31.3840 C   0  0  0  0  0  1  0  0  0  0  0  0
  -24.2750  -28.9000   31.5530 C   0  0  0  0  0  3  0  0  0  0  0  0
  -26.1050  -28.4110   33.1160 C   0  0  0  0  0  1  0  0  0  0  0  0
  -25.0380  -29.3360   32.7430 N   0  0  0  0  0  0  0  0  0  0  0  0
  -24.4220  -29.4500   33.5440 H   0  0  0  0  0  0  0  0  0  0  0  0
  -26.3200  -26.4090   27.9180 C   0  0  1  0  0  0  0  0  0  0  0  0
  -25.3560  -25.2010   27.9320 C   0  0  0  0  0  1  0  0  0  0  0  0
  -27.1110  -26.3690   26.5890 C   0  0  0  0  0  1  0  0  0  0  0  0
  -27.3510  -26.2120   29.0540 C   0  0  0  0  0  1  0  0  0  0  0  0
  -29.8890  -22.8120   18.5430 C   0  0  0  0  0  2  0  0  0  0  0  0
  -33.7590  -22.6600   18.5720 C   0  0  0  0  0  3  0  0  0  0  0  0
  -34.0200  -21.7000   17.5730 C   0  0  0  0  0  3  0  0  0  0  0  0
  -32.4380  -23.0630   18.8600 C   0  0  0  0  0  3  0  0  0  0  0  0
  -31.6320  -21.5250   17.1500 C   0  0  0  0  0  3  0  0  0  0  0  0
  -32.9640  -21.1130   16.8470 C   0  0  0  0  0  0  0  0  0  0  0  0
  -31.3530  -22.4920   18.1610 C   0  0  0  0  0  0  0  0  0  0  0  0
  -33.2720  -20.0230   15.7910 C   0  0  0  0  0  2  0  0  0  0  0  0
  -35.5930  -19.6690   14.8260 C   0  0  0  0  0  0  0  0  0  0  0  0
  -36.9020  -18.8860   12.8790 C   0  0  0  0  0  2  0  0  0  0  0  0
  -36.5830  -19.7800   11.6620 C   0  0  0  0  0  2  0  0  0  0  0  0
  -35.3330  -19.2630   10.9250 C   0  0  0  0  0  2  0  0  0  0  0  0
  -34.1490  -18.9650   11.8780 C   0  0  0  0  0  3  0  0  0  0  0  0
  -34.6020  -18.1310   13.0960 C   0  0  0  0  0  2  0  0  0  0  0  0
  -35.7050  -18.8570   13.7380 N   0  0  0  0  0  0  0  0  0  0  0  0
  -36.5760  -20.1310   15.4050 O   0  0  0  0  0  0  0  0  0  0  0  0
  -34.4260  -20.3400   14.9310 N   0  0  0  0  0  0  0  0  0  0  0  0
  -34.6310  -21.3220   15.0420 H   0  0  0  0  0  0  0  0  0  0  0  0
  -31.7280  -18.7570   11.0350 C   0  0  0  0  0  0  0  0  0  0  0  0
  -31.1210  -17.8440   10.2140 C   0  0  0  0  0  0  0  0  0  0  0  0
  -32.1260  -16.8820    9.8830 C   0  0  0  0  0  0  0  0  0  0  0  0
  -33.0400  -18.3300   11.1700 N   0  0  0  0  0  0  0  0  0  0  0  0
  -33.2600  -17.1620   10.5140 N   0  0  0  0  0  0  0  0  0  0  0  0
  -32.0910  -15.7410    8.9570 C   0  0  0  0  0  0  0  0  0  0  0  0
  -32.3670  -14.4280    9.3950 C   0  0  0  0  0  3  0  0  0  0  0  0
  -32.3080  -13.3440    8.4910 C   0  0  0  0  0  3  0  0  0  0  0  0
  -31.9680  -13.5710    7.1360 C   0  0  0  0  0  0  0  0  0  0  0  0
  -31.7160  -14.8840    6.7000 C   0  0  0  0  0  3  0  0  0  0  0  0
  -31.7800  -15.9590    7.6000 C   0  0  0  0  0  3  0  0  0  0  0  0
  -31.9150  -12.5860    6.1810 O   0  0  0  0  0  0  0  0  0  0  0  0
  -31.6020  -11.2880    6.5010 C   0  0  0  0  0  0  0  0  0  0  0  0
  -30.3700  -10.9460    7.1010 C   0  0  0  0  0  3  0  0  0  0  0  0
  -30.0610   -9.5930    7.3510 C   0  0  0  0  0  3  0  0  0  0  0  0
  -30.9760   -8.5850    6.9950 C   0  0  0  0  0  0  0  0  0  0  0  0
  -32.2000   -8.9230    6.3910 C   0  0  0  0  0  3  0  0  0  0  0  0
  -32.5110  -10.2720    6.1440 C   0  0  0  0  0  0  0  0  0  0  0  0
  -33.6820  -10.5920    5.5450 F   0  0  0  0  0  0  0  0  0  0  0  0
  -30.6750   -7.2870    7.2260 F   0  0  0  0  0  0  0  0  0  0  0  0
  -29.7190  -17.9100    9.6860 C   0  0  0  0  0  0  0  0  0  0  0  0
  -29.0700  -16.7620    9.5220 N   0  0  0  0  0  0  0  0  0  0  0  0
  -29.1700  -18.9880    9.4640 O   0  0  0  0  0  0  0  0  0  0  0  0
  -29.5110  -15.8790    9.7260 H   0  0  0  0  0  0  0  0  0  0  0  0
  -28.1170  -16.7690    9.1900 H   0  0  0  0  0  0  0  0  0  0  0  0
  -31.2840  -19.9160   11.6630 N   0  0  0  0  0  0  0  0  0  0  0  0
  -30.3360  -20.2640   11.5550 H   0  0  0  0  0  0  0  0  0  0  0  0
  -31.8640  -20.5050   12.2480 H   0  0  0  0  0  0  0  0  0  0  0  0
  -30.2200  -25.5830   17.2980 C   0  0  0  0  0  2  0  0  0  0  0  0
  -27.5540  -28.1220   14.7760 C   0  0  0  0  0  2  0  0  0  0  0  0
  -27.9400  -26.7120   14.3010 C   0  0  0  0  0  2  0  0  0  0  0  0
  -28.7330  -28.7890   15.5010 C   0  0  0  0  0  2  0  0  0  0  0  0
  -28.3980  -25.8370   15.4790 C   0  0  0  0  0  2  0  0  0  0  0  0
  -29.2090  -27.9280   16.6860 C   0  0  0  0  0  2  0  0  0  0  0  0
  -29.5740  -26.4950   16.2220 C   0  0  0  0  0  3  0  0  0  0  0  0
  2  4  1  0
  3  1  1  0
  4  1  1  0
  4  8  1  0
  5 95  1  0
  5  6  1  0
  5  2  1  0
  6  3  1  0
  6  7  1  1
  8 10  1  0
  9 20  2  0
 10 15  1  0
 11 21  1  0
 11 19  1  0
 12 18  1  0
 12 14  1  0
 13 19  1  0
 14 13  1  0
 15 14  2  0
 16 17  1  0
 16 10  2  0
 17 12  2  0
 18 11  1  0
 19  9  1  0
 21 23  2  0
 22 21  1  0
 24 22  1  0
 25 30  1  0
 26 22  1  0
 27 26  1  0
 28 27  1  0
 29 28  1  0
 29 25  1  0
 30 26  1  0
 30 31  2  0
 32 31  1  0
 33 32  2  0
 34 25  2  0
 34 33  1  0
 35  9  1  0
 35 36  1  0
 36 39  1  0
 36 37  1  0
 37 41  1  0
 38 37  2  0
 41 40  1  0
 41 43  1  0
 43 42  1  0
 43 44  1  0
 45 46  1  6
 45 35  1  0
 45 48  1  0
 47 45  1  0
 49  6  1  0
 50 52  1  0
 51 50  2  0
 53 55  1  0
 54 53  2  0
 54 51  1  0
 55 49  1  0
 55 52  2  0
 56 54  1  0
 57 65  1  0
 57 64  2  0
 58 63  1  0
 59 58  1  0
 60 59  1  0
 61 60  1  0
 61 62  1  0
 62 63  1  0
 63 57  1  0
 65 66  1  0
 65 56  1  0
 67 70  1  0
 67 92  1  0
 68 67  2  0
 69 68  1  0
 69 71  2  0
 70 61  1  0
 71 70  1  0
 72 73  1  0
 72 69  1  0
 74 73  2  0
 75 74  1  0
 76 75  2  0
 76 77  1  0
 77 72  2  0
 78 79  1  0
 78 75  1  0
 79 80  1  0
 80 81  2  0
 82 86  1  0
 82 81  1  0
 83 82  2  0
 84 83  1  0
 84 79  2  0
 85 84  1  0
 87 68  1  0
 88 87  1  0
 88 90  1  0
 89 87  2  0
 91 88  1  0
 92 94  1  0
 93 92  1  0
 96 98  1  0
 97 96  1  0
 97 99  1  0
 98100  1  0
 99101  1  0
101100  1  0
101 95  1  0
M  ISO  4   4 101   8 101  57 100  65 100
M  END
>  <TORSDO>  (48) 
F 21

>  <SCORE>  (48) 
-4.936

>  <name>  (48) 
51

>  <ligand_id>  (48) 
51

>  <original_smiles>  (48) 
[H]c1c([H])c([H])c2c(c1[H])C([H])([H])C([H])([H])C([H])([H])C2([H])N([H])C(=O)C1([H])N(C(=O)C([H])(N([H])C(=O)C([H])(N([H])C([H])([H])[H])C([H])([H])[H])C(C([H])([H])[H])(C([H])([H])[H])C([H])([H])[H])C([H])([H])c2c([H])c(OC3([H])C([H])([H])C([H])([H])[N+]([H])(C([H])([H])c4c([H])c([H])c([H])c(C([H])([H])N([H])C(=O)N5C([H])([H])C([H])([H])C([H])([H])C([H])(n6nc(-c7c([H])c([H])c(Oc8c([H])c([H])c(F)c([H])c8F)c([H])c7[H])c(C(=O)N([H])[H])c6N([H])[H])C5([H])[H])c4[H])C([H])(C([H])([H])C4([H])C([H])([H])C([H])([H])C([H])([H])C([H])([H])C4([H])[H])C3([H])[H])c([H])c([H])c2C1([H])[H]

>  <smiles>  (48) 
[H]c1c([H])c([H])c2c(c1[H])C([H])([H])C([H])([H])C([H])([H])C2([H])N([H])C(=O)C1([H])N(C(=O)C([H])(N([H])C(=O)C([H])(N([H])C([H])([H])[H])C([H])([H])[H])C(C([H])([H])[H])(C([H])([H])[H])C([H])([H])[H])C([H])([H])c2c([H])c(OC3([H])C([H])([H])C([H])([H])[N+]([H])(C([H])([H])c4c([H])c([H])c([H])c(C([H])([H])N([H])C(=O)N5C([H])([H])C([H])([H])C([H])([H])C([H])(n6nc(-c7c([H])c([H])c(Oc8c([H])c([H])c(F)c([H])c8F)c([H])c7[H])c(C(=O)N([H])[H])c6N([H])[H])C5([H])[H])c4[H])C([H])(C([H])([H])C4([H])C([H])([H])C([H])([H])C([H])([H])C([H])([H])C4([H])[H])C3([H])[H])c([H])c([H])c2C1([H])[H]

$$$$
52:0:0
     RDKit          3D

 95104  0  0  1  0  0  0  0  0999 V2000
  -28.7760  -22.2570   21.3240 C   0  0  0  0  0  2  0  0  0  0  0  0
  -31.1490  -23.0630   21.0010 C   0  0  0  0  0  2  0  0  0  0  0  0
  -28.2710  -23.7060   21.0880 C   0  0  0  0  0  2  0  0  0  0  0  0
  -30.6250  -24.4980   20.7460 C   0  0  0  0  0  2  0  0  0  0  0  0
  -30.1300  -21.9560   20.6280 C   0  0  0  0  0  3  0  0  0  0  0  0
  -29.3190  -24.7560   21.5170 C   0  0  0  0  0  3  0  0  0  0  0  0
  -30.7080  -20.5350   20.9690 C   0  0  0  0  0  2  0  0  0  0  0  0
  -29.2790  -18.2560   18.2620 C   0  0  0  0  0  0  0  0  0  0  0  0
  -29.5370  -16.8570   18.8150 C   0  0  0  0  0  2  0  0  0  0  0  0
  -30.1350  -19.3780   18.8520 C   0  0  0  0  0  2  0  0  0  0  0  0
  -30.4260  -18.0380   20.9250 C   0  0  0  0  0  2  0  0  0  0  0  0
  -29.5460  -16.8780   20.3640 C   0  0  0  0  0  3  0  0  0  0  0  0
  -30.0170  -19.3650   20.3390 N   0  0  1  0  0  4  0  0  0  0  0  0
  -28.4360  -18.4630   17.3870 O   0  0  0  0  0  0  0  0  0  0  0  0
  -29.0360  -19.4700   20.5490 H   0  0  0  0  0  0  0  0  0  0  0  0
  -30.5960  -14.5510   20.5260 C   0  0  0  0  0  0  0  0  0  0  0  0
  -30.3850  -12.3870   19.3680 C   0  0  0  0  0  2  0  0  0  0  0  0
  -29.4420  -12.6030   18.1630 C   0  0  0  0  0  2  0  0  0  0  0  0
  -27.9650  -12.4410   18.5790 C   0  0  0  0  0  2  0  0  0  0  0  0
  -27.6120  -13.2480   19.8570 C   0  0  0  0  0  3  0  0  0  0  0  0
  -28.6630  -12.9990   20.9660 C   0  0  0  0  0  2  0  0  0  0  0  0
  -29.9920  -13.3350   20.4220 N   0  0  0  0  0  0  0  0  0  0  0  0
  -31.7090  -14.8010   20.0540 O   0  0  0  0  0  0  0  0  0  0  0  0
  -29.7670  -15.5300   20.9430 N   0  0  0  0  0  0  0  0  0  0  0  0
  -28.9640  -15.1660   21.4390 H   0  0  0  0  0  0  0  0  0  0  0  0
  -25.1960  -13.8310   20.5340 C   0  0  0  0  0  0  0  0  0  0  0  0
  -24.1340  -13.0460   20.8960 C   0  0  0  0  0  0  0  0  0  0  0  0
  -24.6120  -11.7010   20.8730 C   0  0  0  0  0  0  0  0  0  0  0  0
  -26.2550  -12.9610   20.3180 N   0  0  0  0  0  0  0  0  0  0  0  0
  -25.9050  -11.6760   20.5780 N   0  0  0  0  0  0  0  0  0  0  0  0
  -23.9010  -10.4300   21.0600 C   0  0  0  0  0  0  0  0  0  0  0  0
  -24.3420   -9.4690   21.9960 C   0  0  0  0  0  3  0  0  0  0  0  0
  -23.6310   -8.2620   22.1700 C   0  0  0  0  0  3  0  0  0  0  0  0
  -22.4670   -8.0080   21.4090 C   0  0  0  0  0  0  0  0  0  0  0  0
  -22.0450   -8.9590   20.4640 C   0  0  0  0  0  3  0  0  0  0  0  0
  -22.7550  -10.1570   20.2860 C   0  0  0  0  0  3  0  0  0  0  0  0
  -21.7270   -6.8530   21.4930 O   0  0  0  0  0  0  0  0  0  0  0  0
  -21.6860   -6.1070   22.6440 C   0  0  0  0  0  0  0  0  0  0  0  0
  -21.2410   -6.6510   23.8690 C   0  0  0  0  0  3  0  0  0  0  0  0
  -21.1480   -5.8310   25.0110 C   0  0  0  0  0  3  0  0  0  0  0  0
  -21.4900   -4.4670   24.9290 C   0  0  0  0  0  0  0  0  0  0  0  0
  -21.9270   -3.9230   23.7090 C   0  0  0  0  0  3  0  0  0  0  0  0
  -22.0220   -4.7400   22.5690 C   0  0  0  0  0  0  0  0  0  0  0  0
  -22.4240   -4.2050   21.3910 F   0  0  0  0  0  0  0  0  0  0  0  0
  -21.3930   -3.6770   26.0240 F   0  0  0  0  0  0  0  0  0  0  0  0
  -22.7280  -13.5070   21.1550 C   0  0  0  0  0  0  0  0  0  0  0  0
  -21.9990  -12.8010   22.0140 N   0  0  0  0  0  0  0  0  0  0  0  0
  -22.2820  -14.5280   20.6320 O   0  0  0  0  0  0  0  0  0  0  0  0
  -22.3710  -11.9750   22.4590 H   0  0  0  0  0  0  0  0  0  0  0  0
  -21.0570  -13.0910   22.2290 H   0  0  0  0  0  0  0  0  0  0  0  0
  -25.3460  -15.2020   20.3520 N   0  0  0  0  0  0  0  0  0  0  0  0
  -24.5660  -15.8450   20.4430 H   0  0  0  0  0  0  0  0  0  0  0  0
  -26.1840  -15.6460   20.0010 H   0  0  0  0  0  0  0  0  0  0  0  0
  -28.8250  -26.2330   21.4940 C   0  0  0  0  0  2  0  0  0  0  0  0
  -28.4190  -26.7110   20.2070 O   0  0  0  0  0  0  0  0  0  0  0  0
  -24.6060  -31.9280   23.2810 C   0  0  0  0  0  0  0  0  0  0  0  0
  -27.2840  -27.4940   20.2190 C   0  0  0  0  0  0  0  0  0  0  0  0
  -23.4130  -30.5210   21.6320 C   0  0  0  0  0  3  0  0  0  0  0  0
  -24.8840  -28.9880   20.2150 C   0  0  0  0  0  0  0  0  0  0  0  0
  -25.9380  -30.8880   21.4500 C   0  0  0  0  0  2  0  0  0  0  0  0
  -26.0340  -29.5150   20.8180 C   0  0  0  0  0  0  0  0  0  0  0  0
  -27.2380  -28.7720   20.8280 C   0  0  0  0  0  3  0  0  0  0  0  0
  -26.1250  -26.9860   19.6040 C   0  0  0  0  0  3  0  0  0  0  0  0
  -24.9230  -27.7200   19.6080 C   0  0  0  0  0  3  0  0  0  0  0  0
  -23.6340  -29.8400   20.2540 C   0  0  0  0  0  2  0  0  0  0  0  0
  -24.6700  -31.1280   22.1800 N   0  0  0  0  0  0  0  0  0  0  0  0
  -23.5210  -32.1980   23.8160 O   0  0  0  0  0  0  0  0  0  0  0  0
  -22.7590  -29.5000   22.5900 C   0  0  0  0  0  0  0  0  0  0  0  0
  -21.4370  -29.3110   22.4530 N   0  0  0  0  0  0  0  0  0  0  0  0
  -23.4400  -28.8800   23.4120 O   0  0  0  0  0  0  0  0  0  0  0  0
  -20.9490  -29.8630   21.7630 H   0  0  0  0  0  0  0  0  0  0  0  0
  -18.0650  -28.1000   22.9250 C   0  0  0  0  0  0  0  0  0  0  0  0
  -20.6190  -28.3700   23.2190 C   0  0  0  0  0  3  0  0  0  0  0  0
  -20.7340  -26.9390   22.6470 C   0  0  0  0  0  2  0  0  0  0  0  0
  -19.6430  -26.6080   21.6230 C   0  0  0  0  0  2  0  0  0  0  0  0
  -18.2550  -26.7480   22.2550 C   0  0  0  0  0  2  0  0  0  0  0  0
  -19.1760  -28.8680   23.3640 C   0  0  0  0  0  0  0  0  0  0  0  0
  -18.9470  -30.1310   23.9490 C   0  0  0  0  0  3  0  0  0  0  0  0
  -17.6380  -30.6270   24.1010 C   0  0  0  0  0  3  0  0  0  0  0  0
  -16.5410  -29.8570   23.6800 C   0  0  0  0  0  3  0  0  0  0  0  0
  -16.7560  -28.5940   23.0980 C   0  0  0  0  0  3  0  0  0  0  0  0
  -25.8880  -32.5630   23.9060 C   0  0  0  0  0  3  0  0  0  0  0  0
  -26.3940  -31.8040   25.1930 C   0  0  1  0  0  0  0  0  0  0  0  0
  -25.2920  -31.5780   26.2550 C   0  0  0  0  0  1  0  0  0  0  0  0
  -26.9770  -30.4210   24.8180 C   0  0  0  0  0  1  0  0  0  0  0  0
  -27.5410  -32.6020   25.8570 C   0  0  0  0  0  1  0  0  0  0  0  0
  -25.5800  -33.9660   24.2170 N   0  0  0  0  0  0  0  0  0  0  0  0
  -25.9220  -35.0070   23.4470 C   0  0  0  0  0  0  0  0  0  0  0  0
  -26.6000  -34.8890   22.4230 O   0  0  0  0  0  0  0  0  0  0  0  0
  -24.9800  -34.1320   25.0120 H   0  0  0  0  0  0  0  0  0  0  0  0
  -24.2030  -36.7990   23.0520 C   0  0  0  0  0  1  0  0  0  0  0  0
  -25.4340  -36.4020   23.8820 C   0  0  0  0  0  3  0  0  0  0  0  0
  -27.5620  -37.2910   24.7240 C   0  0  0  0  0  1  0  0  0  0  0  0
  -26.4710  -37.4500   23.7670 N   0  0  0  0  0  0  0  0  0  0  0  0
  -26.0660  -38.3740   23.8980 H   0  0  0  0  0  0  0  0  0  0  0  0
  3  1  1  0
  3  6  1  0
  4  2  1  0
  4  6  1  0
  5  7  1  0
  5  2  1  0
  5  1  1  0
  6 54  1  0
  8  9  1  0
  8 10  1  0
  9 12  1  0
 10 13  1  0
 12 11  1  0
 12 24  1  0
 13 15  1  6
 13 11  1  0
 13  7  1  0
 14  8  2  0
 16 24  1  0
 17 22  1  0
 18 19  1  0
 18 17  1  0
 20 19  1  0
 20 29  1  0
 20 21  1  0
 22 16  1  0
 22 21  1  0
 23 16  2  0
 24 25  1  0
 26 27  2  0
 27 46  1  0
 28 27  1  0
 28 31  1  0
 29 26  1  0
 29 30  1  0
 30 28  2  0
 31 32  1  0
 32 33  2  0
 34 37  1  0
 34 33  1  0
 35 34  2  0
 36 35  1  0
 36 31  2  0
 37 38  1  0
 38 39  1  0
 39 40  2  0
 41 40  1  0
 41 45  1  0
 42 41  2  0
 43 38  2  0
 43 42  1  0
 44 43  1  0
 46 47  1  0
 47 50  1  0
 47 49  1  0
 48 46  2  0
 51 52  1  0
 51 26  1  0
 53 51  1  0
 55 57  1  0
 55 54  1  0
 56 67  2  0
 57 62  1  0
 58 66  1  0
 58 68  1  0
 59 65  1  0
 59 61  1  0
 60 66  1  0
 61 62  2  0
 61 60  1  0
 63 64  1  0
 63 57  2  0
 64 59  2  0
 65 58  1  0
 66 56  1  0
 68 70  2  0
 69 68  1  0
 71 69  1  0
 72 81  2  0
 72 77  1  0
 73 69  1  0
 73 77  1  0
 74 73  1  0
 75 76  1  0
 75 74  1  0
 76 72  1  0
 77 78  2  0
 78 79  1  0
 80 79  2  0
 81 80  1  0
 82 56  1  0
 82 87  1  0
 82 83  1  0
 83 86  1  1
 83 84  1  0
 85 83  1  0
 87 90  1  0
 88 92  1  0
 88 87  1  0
 89 88  2  0
 92 91  1  0
 94 92  1  0
 94 95  1  0
 94 93  1  0
M  ISO  4  16 100  24 100  54 101  55 101
M  END
>  <TORSDO>  (49) 
F 19

>  <SCORE>  (49) 
-14.627

>  <name>  (49) 
52

>  <ligand_id>  (49) 
52

>  <original_smiles>  (49) 
[H]c1c([H])c([H])c2c(c1[H])C([H])([H])C([H])([H])C([H])([H])C2([H])N([H])C(=O)C1([H])N(C(=O)C([H])(N([H])C(=O)C([H])(N([H])C([H])([H])[H])C([H])([H])[H])C(C([H])([H])[H])(C([H])([H])[H])C([H])([H])[H])C([H])([H])c2c([H])c(OC([H])([H])C3([H])C([H])([H])C([H])([H])C([H])(C([H])([H])[N+]4([H])C([H])([H])C(=O)C([H])([H])C([H])(N([H])C(=O)N5C([H])([H])C([H])([H])C([H])([H])C([H])(n6nc(-c7c([H])c([H])c(Oc8c([H])c([H])c(F)c([H])c8F)c([H])c7[H])c(C(=O)N([H])[H])c6N([H])[H])C5([H])[H])C4([H])[H])C([H])([H])C3([H])[H])c([H])c([H])c2C1([H])[H]

>  <smiles>  (49) 
[H]c1c([H])c([H])c2c(c1[H])C([H])([H])C([H])([H])C([H])([H])C2([H])N([H])C(=O)C1([H])N(C(=O)C([H])(N([H])C(=O)C([H])(N([H])C([H])([H])[H])C([H])([H])[H])C(C([H])([H])[H])(C([H])([H])[H])C([H])([H])[H])C([H])([H])c2c([H])c(OC([H])([H])C3([H])C([H])([H])C([H])([H])C([H])(C([H])([H])[N+]4([H])C([H])([H])C(=O)C([H])([H])C([H])(N([H])C(=O)N5C([H])([H])C([H])([H])C([H])([H])C([H])(n6nc(-c7c([H])c([H])c(Oc8c([H])c([H])c(F)c([H])c8F)c([H])c7[H])c(C(=O)N([H])[H])c6N([H])[H])C5([H])[H])C4([H])[H])C([H])([H])C3([H])[H])c([H])c([H])c2C1([H])[H]

$$$$
53:0:0
     RDKit          3D

 97105  0  0  1  0  0  0  0  0999 V2000
  -28.9170  -21.3330   20.1380 N   0  0  0  0  0  4  0  0  0  0  0  0
  -28.1820  -21.1030   19.4920 H   0  0  0  0  0  0  0  0  0  0  0  0
  -28.4540  -21.6050   20.9920 H   0  0  0  0  0  0  0  0  0  0  0  0
  -30.2460  -24.3140   17.1140 C   0  0  0  0  0  2  0  0  0  0  0  0
  -31.1620  -23.1890   17.5500 C   0  0  0  0  0  2  0  0  0  0  0  0
  -29.6200  -24.9470   18.3490 C   0  0  0  0  0  2  0  0  0  0  0  0
  -30.3290  -22.1270   18.2580 C   0  0  0  0  0  2  0  0  0  0  0  0
  -28.8130  -24.0000   19.2910 C   0  0  0  0  0  3  0  0  0  0  0  0
  -29.6340  -22.5860   19.5850 C   0  0  0  0  0  3  0  0  0  0  0  0
  -28.3480  -25.0160   20.4550 C   0  0  0  0  0  2  0  0  0  0  0  0
  -28.3970  -26.5000   20.2230 O   0  0  0  0  0  0  0  0  0  0  0  0
  -24.6010  -31.8850   23.2330 C   0  0  0  0  0  0  0  0  0  0  0  0
  -27.2480  -27.3100   20.2110 C   0  0  0  0  0  0  0  0  0  0  0  0
  -23.4110  -30.4760   21.5890 C   0  0  0  0  0  3  0  0  0  0  0  0
  -24.8750  -28.9120   20.1850 C   0  0  0  0  0  0  0  0  0  0  0  0
  -25.9490  -30.8040   21.4140 C   0  0  0  0  0  2  0  0  0  0  0  0
  -26.0390  -29.4170   20.7770 C   0  0  0  0  0  0  0  0  0  0  0  0
  -27.2290  -28.6280   20.7730 C   0  0  0  0  0  3  0  0  0  0  0  0
  -26.0590  -26.8540   19.6050 C   0  0  0  0  0  3  0  0  0  0  0  0
  -24.8860  -27.6380   19.5910 C   0  0  0  0  0  3  0  0  0  0  0  0
  -23.6360  -29.7840   20.2170 C   0  0  0  0  0  2  0  0  0  0  0  0
  -24.6730  -31.0710   22.1370 N   0  0  0  0  0  0  0  0  0  0  0  0
  -23.5140  -32.1620   23.7620 O   0  0  0  0  0  0  0  0  0  0  0  0
  -22.7440  -29.4660   22.5540 C   0  0  0  0  0  0  0  0  0  0  0  0
  -21.4180  -29.2900   22.4260 N   0  0  0  0  0  0  0  0  0  0  0  0
  -23.4190  -28.8420   23.3760 O   0  0  0  0  0  0  0  0  0  0  0  0
  -20.9300  -29.8480   21.7380 H   0  0  0  0  0  0  0  0  0  0  0  0
  -18.0370  -28.1010   22.9240 C   0  0  0  0  0  0  0  0  0  0  0  0
  -20.5960  -28.3530   23.1950 C   0  0  0  0  0  3  0  0  0  0  0  0
  -20.6950  -26.9210   22.6180 C   0  0  0  0  0  2  0  0  0  0  0  0
  -19.5930  -26.6030   21.6030 C   0  0  0  0  0  2  0  0  0  0  0  0
  -18.2120  -26.7510   22.2470 C   0  0  0  0  0  2  0  0  0  0  0  0
  -19.1570  -28.8580   23.3560 C   0  0  0  0  0  0  0  0  0  0  0  0
  -18.9430  -30.1220   23.9500 C   0  0  0  0  0  3  0  0  0  0  0  0
  -17.6390  -30.6250   24.1170 C   0  0  0  0  0  3  0  0  0  0  0  0
  -16.5330  -29.8640   23.7040 C   0  0  0  0  0  3  0  0  0  0  0  0
  -16.7320  -28.6030   23.1120 C   0  0  0  0  0  3  0  0  0  0  0  0
  -25.8790  -32.5260   23.8590 C   0  0  0  0  0  3  0  0  0  0  0  0
  -25.5660  -33.9250   24.1800 N   0  0  0  0  0  0  0  0  0  0  0  0
  -25.9040  -34.9750   23.4200 C   0  0  0  0  0  0  0  0  0  0  0  0
  -26.5810  -34.8670   22.3930 O   0  0  0  0  0  0  0  0  0  0  0  0
  -24.9630  -34.0830   24.9740 H   0  0  0  0  0  0  0  0  0  0  0  0
  -24.1820  -36.7700   23.0450 C   0  0  0  0  0  1  0  0  0  0  0  0
  -25.4150  -36.3660   23.8690 C   0  0  0  0  0  3  0  0  0  0  0  0
  -27.5430  -37.2530   24.7180 C   0  0  0  0  0  1  0  0  0  0  0  0
  -26.4510  -37.4180   23.7620 N   0  0  0  0  0  0  0  0  0  0  0  0
  -26.0450  -38.3390   23.9040 H   0  0  0  0  0  0  0  0  0  0  0  0
  -26.3870  -31.7650   25.1450 C   0  0  1  0  0  0  0  0  0  0  0  0
  -25.2870  -31.5340   26.2080 C   0  0  0  0  0  1  0  0  0  0  0  0
  -26.9710  -30.3850   24.7670 C   0  0  0  0  0  1  0  0  0  0  0  0
  -27.5350  -32.5630   25.8090 C   0  0  0  0  0  1  0  0  0  0  0  0
  -29.7480  -20.0580   20.4720 C   0  0  0  0  0  2  0  0  0  0  0  0
  -29.1650  -18.5410   20.3030 C   0  0  0  0  0  3  0  0  0  0  0  0
  -30.2220  -17.3440   20.6400 C   0  0  0  0  0  2  0  0  0  0  0  0
  -30.5980  -14.7500   20.3790 C   0  0  0  0  0  0  0  0  0  0  0  0
  -30.3990  -12.4870   19.3460 C   0  0  0  0  0  2  0  0  0  0  0  0
  -29.4490  -12.5860   18.1320 C   0  0  0  0  0  2  0  0  0  0  0  0
  -27.9780  -12.4170   18.5680 C   0  0  0  0  0  2  0  0  0  0  0  0
  -27.6200  -13.2740   19.8110 C   0  0  0  0  0  3  0  0  0  0  0  0
  -28.6910  -13.1630   20.9170 C   0  0  0  0  0  2  0  0  0  0  0  0
  -29.9780  -13.5240   20.3140 N   0  0  0  0  0  0  0  0  0  0  0  0
  -31.7770  -14.8710   20.0320 O   0  0  0  0  0  0  0  0  0  0  0  0
  -29.8170  -15.8670   20.6300 N   0  0  0  0  0  0  0  0  0  0  0  0
  -28.8750  -15.6540   20.9200 H   0  0  0  0  0  0  0  0  0  0  0  0
  -25.2350  -13.8480   20.5490 C   0  0  0  0  0  0  0  0  0  0  0  0
  -24.1730  -13.0660   20.9080 C   0  0  0  0  0  0  0  0  0  0  0  0
  -24.6450  -11.7170   20.8770 C   0  0  0  0  0  0  0  0  0  0  0  0
  -26.2840  -12.9760   20.3110 N   0  0  0  0  0  0  0  0  0  0  0  0
  -25.9360  -11.6890   20.5670 N   0  0  0  0  0  0  0  0  0  0  0  0
  -23.9280  -10.4500   21.0660 C   0  0  0  0  0  0  0  0  0  0  0  0
  -24.3720   -9.4780   21.9900 C   0  0  0  0  0  3  0  0  0  0  0  0
  -23.6530   -8.2770   22.1680 C   0  0  0  0  0  3  0  0  0  0  0  0
  -22.4760   -8.0380   21.4180 C   0  0  0  0  0  0  0  0  0  0  0  0
  -22.0510   -8.9980   20.4830 C   0  0  0  0  0  3  0  0  0  0  0  0
  -22.7710  -10.1920   20.3040 C   0  0  0  0  0  3  0  0  0  0  0  0
  -21.7260   -6.8900   21.5060 O   0  0  0  0  0  0  0  0  0  0  0  0
  -21.6870   -6.1390   22.6530 C   0  0  0  0  0  0  0  0  0  0  0  0
  -21.2610   -6.6830   23.8850 C   0  0  0  0  0  3  0  0  0  0  0  0
  -21.1690   -5.8590   25.0240 C   0  0  0  0  0  3  0  0  0  0  0  0
  -21.4950   -4.4910   24.9330 C   0  0  0  0  0  0  0  0  0  0  0  0
  -21.9180   -3.9480   23.7060 C   0  0  0  0  0  3  0  0  0  0  0  0
  -22.0100   -4.7690   22.5680 C   0  0  0  0  0  0  0  0  0  0  0  0
  -22.3960   -4.2360   21.3830 F   0  0  0  0  0  0  0  0  0  0  0  0
  -21.4000   -3.6960   26.0240 F   0  0  0  0  0  0  0  0  0  0  0  0
  -22.7760  -13.5330   21.1960 C   0  0  0  0  0  0  0  0  0  0  0  0
  -22.0570  -12.8280   22.0600 N   0  0  0  0  0  0  0  0  0  0  0  0
  -22.3350  -14.5650   20.6890 O   0  0  0  0  0  0  0  0  0  0  0  0
  -22.4290  -11.9950   22.4930 H   0  0  0  0  0  0  0  0  0  0  0  0
  -21.1210  -13.1270   22.2930 H   0  0  0  0  0  0  0  0  0  0  0  0
  -25.4070  -15.2230   20.4040 N   0  0  0  0  0  0  0  0  0  0  0  0
  -24.5630  -15.7320   20.6470 H   0  0  0  0  0  0  0  0  0  0  0  0
  -26.1720  -15.5480   20.9790 H   0  0  0  0  0  0  0  0  0  0  0  0
  -28.5790  -18.3130   18.8800 C   0  0  0  0  0  2  0  0  0  0  0  0
  -27.1810  -17.8280   18.8850 N   0  0  0  0  0  4  0  0  0  0  0  0
  -27.0960  -16.9020   19.2630 H   0  0  0  0  0  0  0  0  0  0  0  0
  -26.8310  -17.7920   17.9420 H   0  0  0  0  0  0  0  0  0  0  0  0
  -26.5770  -18.4360   19.4090 H   0  0  0  0  0  0  0  0  0  0  0  0
  1 52  1  0
  1  3  1  0
  2  1  1  0
  4  5  1  0
  4  6  1  0
  5  7  1  0
  6  8  1  0
  7  9  1  0
  8  9  1  0
  8 10  1  0
  9  1  1  0
 11 10  1  0
 12 23  2  0
 13 11  1  0
 13 18  1  0
 14 22  1  0
 14 24  1  0
 15 21  1  0
 15 17  1  0
 16 22  1  0
 17 16  1  0
 18 17  2  0
 19 13  2  0
 20 19  1  0
 20 15  2  0
 21 14  1  0
 22 12  1  0
 24 26  2  0
 25 24  1  0
 27 25  1  0
 28 37  2  0
 28 33  1  0
 29 25  1  0
 29 33  1  0
 30 29  1  0
 31 32  1  0
 31 30  1  0
 32 28  1  0
 33 34  2  0
 34 35  1  0
 36 35  2  0
 37 36  1  0
 38 12  1  0
 38 39  1  0
 38 48  1  0
 39 42  1  0
 40 44  1  0
 40 39  1  0
 41 40  2  0
 44 43  1  0
 46 44  1  0
 46 47  1  0
 46 45  1  0
 48 51  1  1
 48 49  1  0
 50 48  1  0
 53 93  1  0
 53 52  1  0
 53 54  1  0
 55 63  1  0
 56 61  1  0
 57 58  1  0
 57 56  1  0
 59 58  1  0
 59 68  1  0
 59 60  1  0
 61 55  1  0
 61 60  1  0
 62 55  2  0
 63 54  1  0
 63 64  1  0
 65 66  2  0
 66 85  1  0
 67 66  1  0
 67 70  1  0
 68 65  1  0
 68 69  1  0
 69 67  2  0
 70 71  1  0
 71 72  2  0
 73 76  1  0
 73 72  1  0
 74 73  2  0
 75 74  1  0
 75 70  2  0
 76 77  1  0
 77 78  1  0
 78 79  2  0
 80 79  1  0
 80 84  1  0
 81 80  2  0
 82 77  2  0
 82 81  1  0
 83 82  1  0
 85 86  1  0
 86 89  1  0
 86 88  1  0
 87 85  2  0
 90 65  1  0
 90 91  1  0
 90 92  1  0
 93 94  1  0
 94 95  1  0
 94 97  1  0
 96 94  1  0
M  ISO  4  10 101  11 101  55 100  63 100
M  END
>  <TORSDO>  (50) 
F 23

>  <SCORE>  (50) 
-12.925

>  <name>  (50) 
53

>  <ligand_id>  (50) 
53

>  <original_smiles>  (50) 
[H]c1c([H])c([H])c2c(c1[H])C([H])([H])C([H])([H])C([H])([H])C2([H])N([H])C(=O)C1([H])N(C(=O)C([H])(N([H])C(=O)C([H])(N([H])C([H])([H])[H])C([H])([H])[H])C(C([H])([H])[H])(C([H])([H])[H])C([H])([H])[H])C([H])([H])c2c([H])c(OC([H])([H])C3([H])C([H])([H])C([H])([H])C([H])([H])C([H])([H])C3([H])[N+]([H])([H])C([H])([H])C([H])(C([H])([H])N([H])C(=O)N3C([H])([H])C([H])([H])C([H])([H])C([H])(n4nc(-c5c([H])c([H])c(Oc6c([H])c([H])c(F)c([H])c6F)c([H])c5[H])c(C(=O)N([H])[H])c4N([H])[H])C3([H])[H])C([H])([H])[N+]([H])([H])[H])c([H])c([H])c2C1([H])[H]

>  <smiles>  (50) 
[H]c1c([H])c([H])c2c(c1[H])C([H])([H])C([H])([H])C([H])([H])C2([H])N([H])C(=O)C1([H])N(C(=O)C([H])(N([H])C(=O)C([H])(N([H])C([H])([H])[H])C([H])([H])[H])C(C([H])([H])[H])(C([H])([H])[H])C([H])([H])[H])C([H])([H])c2c([H])c(OC([H])([H])C3([H])C([H])([H])C([H])([H])C([H])([H])C([H])([H])C3([H])[N+]([H])([H])C([H])([H])C([H])(C([H])([H])N([H])C(=O)N3C([H])([H])C([H])([H])C([H])([H])C([H])(n4nc(-c5c([H])c([H])c(Oc6c([H])c([H])c(F)c([H])c6F)c([H])c5[H])c(C(=O)N([H])[H])c4N([H])[H])C3([H])[H])C([H])([H])[N+]([H])([H])[H])c([H])c([H])c2C1([H])[H]

$$$$
54:0:0
     RDKit          3D

101111  0  0  1  0  0  0  0  0999 V2000
  -30.6310  -14.9030   20.4020 C   0  0  0  0  0  0  0  0  0  0  0  0
  -30.3800  -12.5990   19.4370 C   0  0  0  0  0  2  0  0  0  0  0  0
  -29.4620  -12.6060   18.1990 C   0  0  0  0  0  2  0  0  0  0  0  0
  -27.9940  -12.4140   18.6190 C   0  0  0  0  0  2  0  0  0  0  0  0
  -27.5910  -13.3250   19.8120 C   0  0  0  0  0  3  0  0  0  0  0  0
  -28.6490  -13.3420   20.9380 C   0  0  0  0  0  2  0  0  0  0  0  0
  -29.9300  -13.7070   20.3200 N   0  0  0  0  0  0  0  0  0  0  0  0
  -31.8470  -14.8500   20.1920 O   0  0  0  0  0  0  0  0  0  0  0  0
  -31.3570  -18.9050   18.7740 C   0  0  0  0  0  0  0  0  0  0  0  0
  -30.2240  -23.0060   17.8440 C   0  0  0  0  0  2  0  0  0  0  0  0
  -29.1640  -23.8790   18.5150 C   0  0  0  0  0  2  0  0  0  0  0  0
  -30.5630  -18.8090   21.1990 C   0  0  0  0  0  2  0  0  0  0  0  0
  -29.0080  -18.4490   19.4680 C   0  0  0  0  0  2  0  0  0  0  0  0
  -29.0810  -22.1190   20.3760 C   0  0  0  0  0  2  0  0  0  0  0  0
  -30.6740  -17.2160   21.4540 C   0  0  0  0  0  2  0  0  0  0  0  0
  -29.2420  -16.8520   19.4660 C   0  0  0  0  0  2  0  0  0  0  0  0
  -31.2400  -20.8320   17.3200 C   0  0  0  0  0  2  0  0  0  0  0  0
  -30.0870  -21.4810   18.1020 C   0  0  0  0  0  3  0  0  0  0  0  0
  -30.0980  -21.0680   19.6150 C   0  0  0  0  0  3  0  0  0  0  0  0
  -29.2170  -23.7370   20.0370 C   0  0  0  0  0  3  0  0  0  0  0  0
  -30.2350  -19.3810   19.7670 C   0  0  2  0  0  0  0  0  0  0  0  0
  -31.3490  -19.3950   17.5150 N   0  0  0  0  0  0  0  0  0  0  0  0
  -30.0170  -16.1760   20.5710 N   0  0  0  0  0  0  0  0  0  0  0  0
  -32.1600  -18.0280   19.0960 O   0  0  0  0  0  0  0  0  0  0  0  0
  -25.2080  -13.9140   20.5350 C   0  0  0  0  0  0  0  0  0  0  0  0
  -24.1380  -13.1430   20.9000 C   0  0  0  0  0  0  0  0  0  0  0  0
  -24.5980  -11.7920   20.8730 C   0  0  0  0  0  0  0  0  0  0  0  0
  -26.2520  -13.0330   20.3080 N   0  0  0  0  0  0  0  0  0  0  0  0
  -25.8930  -11.7490   20.5760 N   0  0  0  0  0  0  0  0  0  0  0  0
  -23.8630  -10.5320   21.0500 C   0  0  0  0  0  0  0  0  0  0  0  0
  -24.2840   -9.5620   21.9880 C   0  0  0  0  0  3  0  0  0  0  0  0
  -23.5530   -8.3690   22.1620 C   0  0  0  0  0  3  0  0  0  0  0  0
  -22.3870   -8.1320   21.3960 C   0  0  0  0  0  0  0  0  0  0  0  0
  -21.9840   -9.0890   20.4480 C   0  0  0  0  0  3  0  0  0  0  0  0
  -22.7170  -10.2760   20.2720 C   0  0  0  0  0  3  0  0  0  0  0  0
  -21.6270   -6.9910   21.4780 O   0  0  0  0  0  0  0  0  0  0  0  0
  -21.5540   -6.2530   22.6320 C   0  0  0  0  0  0  0  0  0  0  0  0
  -21.1040   -6.8130   23.8470 C   0  0  0  0  0  3  0  0  0  0  0  0
  -20.9800   -6.0030   24.9950 C   0  0  0  0  0  3  0  0  0  0  0  0
  -21.2960   -4.6320   24.9240 C   0  0  0  0  0  0  0  0  0  0  0  0
  -21.7390   -4.0700   23.7140 C   0  0  0  0  0  3  0  0  0  0  0  0
  -21.8610   -4.8780   22.5710 C   0  0  0  0  0  0  0  0  0  0  0  0
  -22.2670   -4.3290   21.4000 F   0  0  0  0  0  0  0  0  0  0  0  0
  -21.1690   -3.8510   26.0210 F   0  0  0  0  0  0  0  0  0  0  0  0
  -22.7390  -13.6240   21.1540 C   0  0  0  0  0  0  0  0  0  0  0  0
  -21.9980  -12.9350   22.0130 N   0  0  0  0  0  0  0  0  0  0  0  0
  -22.3130  -14.6490   20.6240 O   0  0  0  0  0  0  0  0  0  0  0  0
  -22.3490  -12.1070   22.4700 H   0  0  0  0  0  0  0  0  0  0  0  0
  -21.0550  -13.2400   22.2150 H   0  0  0  0  0  0  0  0  0  0  0  0
  -25.3800  -15.2850   20.3560 N   0  0  0  0  0  0  0  0  0  0  0  0
  -24.6260  -15.9520   20.4720 H   0  0  0  0  0  0  0  0  0  0  0  0
  -26.2520  -15.7160   20.0760 H   0  0  0  0  0  0  0  0  0  0  0  0
  -28.2670  -24.9130   20.6880 C   0  0  0  0  0  2  0  0  0  0  0  0
  -28.4250  -26.3910   20.3470 O   0  0  0  0  0  0  0  0  0  0  0  0
  -24.6150  -31.9160   23.2400 C   0  0  0  0  0  0  0  0  0  0  0  0
  -27.3040  -27.2670   20.3060 C   0  0  0  0  0  0  0  0  0  0  0  0
  -23.4470  -30.4800   21.6060 C   0  0  0  0  0  3  0  0  0  0  0  0
  -24.9300  -28.9080   20.2230 C   0  0  0  0  0  0  0  0  0  0  0  0
  -25.9890  -30.7990   21.4560 C   0  0  0  0  0  2  0  0  0  0  0  0
  -26.0890  -29.4030   20.8350 C   0  0  0  0  0  0  0  0  0  0  0  0
  -27.2780  -28.5960   20.8610 C   0  0  0  0  0  3  0  0  0  0  0  0
  -26.1230  -26.8480   19.6580 C   0  0  0  0  0  3  0  0  0  0  0  0
  -24.9560  -27.6410   19.6170 C   0  0  0  0  0  3  0  0  0  0  0  0
  -23.6870  -29.7780   20.2420 C   0  0  0  0  0  2  0  0  0  0  0  0
  -24.7010  -31.0860   22.1570 N   0  0  0  0  0  0  0  0  0  0  0  0
  -23.5210  -32.1930   23.7560 O   0  0  0  0  0  0  0  0  0  0  0  0
  -22.7740  -29.4800   22.5780 C   0  0  0  0  0  0  0  0  0  0  0  0
  -21.4500  -29.2990   22.4470 N   0  0  0  0  0  0  0  0  0  0  0  0
  -23.4480  -28.8630   23.4080 O   0  0  0  0  0  0  0  0  0  0  0  0
  -20.9630  -29.8490   21.7530 H   0  0  0  0  0  0  0  0  0  0  0  0
  -18.0660  -28.1200   22.9690 C   0  0  0  0  0  0  0  0  0  0  0  0
  -20.6270  -28.3690   23.2250 C   0  0  0  0  0  3  0  0  0  0  0  0
  -20.7180  -26.9350   22.6530 C   0  0  0  0  0  2  0  0  0  0  0  0
  -19.6100  -26.6150   21.6450 C   0  0  0  0  0  2  0  0  0  0  0  0
  -18.2330  -26.7690   22.2950 C   0  0  0  0  0  2  0  0  0  0  0  0
  -19.1890  -28.8790   23.3920 C   0  0  0  0  0  0  0  0  0  0  0  0
  -18.9800  -30.1420   23.9820 C   0  0  0  0  0  3  0  0  0  0  0  0
  -17.6790  -30.6510   24.1560 C   0  0  0  0  0  3  0  0  0  0  0  0
  -16.5680  -29.8900   23.7500 C   0  0  0  0  0  3  0  0  0  0  0  0
  -16.7620  -28.6270   23.1630 C   0  0  0  0  0  3  0  0  0  0  0  0
  -25.8830  -32.5700   23.8690 C   0  0  0  0  0  3  0  0  0  0  0  0
  -26.3960  -31.8180   25.1600 C   0  0  1  0  0  0  0  0  0  0  0  0
  -25.2960  -31.5810   26.2210 C   0  0  0  0  0  1  0  0  0  0  0  0
  -26.9980  -30.4440   24.7910 C   0  0  0  0  0  1  0  0  0  0  0  0
  -27.5310  -32.6340   25.8240 C   0  0  0  0  0  1  0  0  0  0  0  0
  -25.5550  -33.9690   24.1850 N   0  0  0  0  0  0  0  0  0  0  0  0
  -25.8850  -35.0220   23.4250 C   0  0  0  0  0  0  0  0  0  0  0  0
  -26.5700  -34.9200   22.4020 O   0  0  0  0  0  0  0  0  0  0  0  0
  -24.9490  -34.1220   24.9790 H   0  0  0  0  0  0  0  0  0  0  0  0
  -24.1530  -36.8040   23.0290 C   0  0  0  0  0  1  0  0  0  0  0  0
  -25.3800  -36.4100   23.8680 C   0  0  0  0  0  3  0  0  0  0  0  0
  -27.4910  -37.3140   24.7380 C   0  0  0  0  0  1  0  0  0  0  0  0
  -26.4070  -37.4700   23.7730 N   0  0  0  0  0  0  0  0  0  0  0  0
  -25.9900  -38.3880   23.9120 H   0  0  0  0  0  0  0  0  0  0  0  0
  -31.9170  -18.6770   16.3580 C   0  0  0  0  0  2  0  0  0  0  0  0
  -30.8160  -18.2850   15.3400 C   0  0  0  0  0  2  0  0  0  0  0  0
  -31.3690  -17.8920   13.9490 C   0  0  0  0  0  2  0  0  0  0  0  0
  -30.3070  -17.5180   12.9960 N   0  0  0  0  0  4  0  0  0  0  0  0
  -29.8530  -16.6660   13.2720 H   0  0  0  0  0  0  0  0  0  0  0  0
  -30.7050  -17.3730   12.0840 H   0  0  0  0  0  0  0  0  0  0  0  0
  -29.6170  -18.2430   12.9140 H   0  0  0  0  0  0  0  0  0  0  0  0
  1 23  1  0
  2  7  1  0
  3  4  1  0
  3  2  1  0
  5  4  1  0
  5 28  1  0
  5  6  1  0
  7  1  1  0
  7  6  1  0
  8  1  2  0
  9 24  2  0
  9 21  1  0
 10 18  1  0
 10 11  1  0
 11 20  1  0
 12 15  1  0
 16 13  1  0
 16 23  1  0
 17 22  1  0
 18 17  1  0
 18 19  1  0
 19 21  1  0
 19 14  1  0
 20 14  1  0
 20 53  1  0
 21 13  1  6
 21 12  1  0
 22  9  1  0
 23 15  1  0
 25 26  2  0
 26 45  1  0
 27 26  1  0
 27 30  1  0
 28 25  1  0
 28 29  1  0
 29 27  2  0
 30 31  1  0
 31 32  2  0
 33 36  1  0
 33 32  1  0
 34 33  2  0
 35 34  1  0
 35 30  2  0
 36 37  1  0
 37 38  1  0
 38 39  2  0
 40 39  1  0
 40 44  1  0
 41 40  2  0
 42 37  2  0
 42 41  1  0
 43 42  1  0
 45 46  1  0
 46 49  1  0
 46 48  1  0
 47 45  2  0
 50 51  1  0
 50 25  1  0
 52 50  1  0
 54 53  1  0
 55 66  2  0
 56 54  1  0
 56 61  1  0
 57 65  1  0
 57 67  1  0
 58 64  1  0
 58 60  1  0
 59 65  1  0
 60 61  2  0
 60 59  1  0
 62 56  2  0
 63 62  1  0
 63 58  2  0
 64 57  1  0
 65 55  1  0
 67 69  2  0
 68 67  1  0
 70 68  1  0
 71 80  2  0
 71 76  1  0
 72 68  1  0
 72 76  1  0
 73 72  1  0
 74 75  1  0
 74 73  1  0
 75 71  1  0
 76 77  2  0
 77 78  1  0
 79 78  2  0
 80 79  1  0
 81 55  1  0
 81 86  1  0
 81 82  1  0
 82 85  1  1
 82 83  1  0
 84 82  1  0
 86 89  1  0
 87 91  1  0
 87 86  1  0
 88 87  2  0
 91 90  1  0
 93 91  1  0
 93 94  1  0
 93 92  1  0
 95 22  1  0
 96 95  1  0
 97 96  1  0
 98 99  1  0
 98 97  1  0
100 98  1  0
101 98  1  0
M  ISO  4   1 100  23 100  53 101  54 101
M  END
>  <TORSDO>  (51) 
F 20

>  <SCORE>  (51) 
-14.625

>  <name>  (51) 
54

>  <ligand_id>  (51) 
54

>  <original_smiles>  (51) 
[H]c1c([H])c([H])c2c(c1[H])C([H])([H])C([H])([H])C([H])([H])C2([H])N([H])C(=O)C1([H])N(C(=O)C([H])(N([H])C(=O)C([H])(N([H])C([H])([H])[H])C([H])([H])[H])C(C([H])([H])[H])(C([H])([H])[H])C([H])([H])[H])C([H])([H])c2c([H])c(OC([H])([H])C3([H])C([H])([H])C([H])([H])C4([H])C([H])([H])N(C([H])([H])C([H])([H])C([H])([H])[N+]([H])([H])[H])C(=O)C5(C([H])([H])C([H])([H])N(C(=O)N6C([H])([H])C([H])([H])C([H])([H])C([H])(n7nc(-c8c([H])c([H])c(Oc9c([H])c([H])c(F)c([H])c9F)c([H])c8[H])c(C(=O)N([H])[H])c7N([H])[H])C6([H])[H])C([H])([H])C5([H])[H])C4([H])C3([H])[H])c([H])c([H])c2C1([H])[H]

>  <smiles>  (51) 
[H]c1c([H])c([H])c2c(c1[H])C([H])([H])C([H])([H])C([H])([H])C2([H])N([H])C(=O)C1([H])N(C(=O)C([H])(N([H])C(=O)C([H])(N([H])C([H])([H])[H])C([H])([H])[H])C(C([H])([H])[H])(C([H])([H])[H])C([H])([H])[H])C([H])([H])c2c([H])c(OC([H])([H])C3([H])C([H])([H])C([H])([H])C4([H])C([H])([H])N(C([H])([H])C([H])([H])C([H])([H])[N+]([H])([H])[H])C(=O)C5(C([H])([H])C([H])([H])N(C(=O)N6C([H])([H])C([H])([H])C([H])([H])C([H])(n7nc(-c8c([H])c([H])c(Oc9c([H])c([H])c(F)c([H])c9F)c([H])c8[H])c(C(=O)N([H])[H])c7N([H])[H])C6([H])[H])C([H])([H])C5([H])[H])C4([H])C3([H])[H])c([H])c([H])c2C1([H])[H]

$$$$
55:0:0
     RDKit          3D

102111  0  0  1  0  0  0  0  0999 V2000
  -30.7980  -14.7820   20.1760 C   0  0  0  0  0  0  0  0  0  0  0  0
  -30.8810  -12.3700   20.8030 C   0  0  0  0  0  2  0  0  0  0  0  0
  -30.2320  -11.4770   19.7220 C   0  0  0  0  0  2  0  0  0  0  0  0
  -28.7120  -11.3610   19.9460 C   0  0  0  0  0  2  0  0  0  0  0  0
  -28.0450  -12.7400   20.1720 C   0  0  0  0  0  3  0  0  0  0  0  0
  -28.8200  -13.5490   21.2290 C   0  0  0  0  0  2  0  0  0  0  0  0
  -30.2220  -13.6940   20.7870 N   0  0  0  0  0  0  0  0  0  0  0  0
  -31.9240  -14.7130   19.6710 O   0  0  0  0  0  0  0  0  0  0  0  0
  -30.2160  -17.9510   21.4060 C   0  0  0  0  0  2  0  0  0  0  0  0
  -30.1990  -20.6910   18.0470 C   0  0  0  0  0  2  0  0  0  0  0  0
  -29.5640  -16.5900   21.2500 C   0  0  0  0  0  2  0  0  0  0  0  0
  -29.9060  -16.7540   18.7880 C   0  0  0  0  0  2  0  0  0  0  0  0
  -29.7070  -21.1810   19.4080 C   0  0  0  0  0  2  0  0  0  0  0  0
  -30.2280  -18.3100   18.8920 C   0  0  0  0  0  3  0  0  0  0  0  0
  -29.7170  -19.2570   17.7060 C   0  0  0  0  0  3  0  0  0  0  0  0
  -29.7420  -18.8840   20.2770 C   0  0  0  0  0  3  0  0  0  0  0  0
  -30.0410  -15.9210   20.0400 N   0  0  0  0  0  0  0  0  0  0  0  0
  -30.1650  -20.3040   20.5080 N   0  0  2  0  0  4  0  0  0  0  0  0
  -31.1730  -20.3170   20.4890 H   0  0  0  0  0  0  0  0  0  0  0  0
  -25.6690  -13.5940   20.6630 C   0  0  0  0  0  0  0  0  0  0  0  0
  -24.4980  -12.9400   20.9360 C   0  0  0  0  0  0  0  0  0  0  0  0
  -24.8200  -11.5480   20.9490 C   0  0  0  0  0  0  0  0  0  0  0  0
  -26.6340  -12.6100   20.5250 N   0  0  0  0  0  0  0  0  0  0  0  0
  -26.1220  -11.3740   20.7590 N   0  0  0  0  0  0  0  0  0  0  0  0
  -23.9550  -10.3670   21.0770 C   0  0  0  0  0  0  0  0  0  0  0  0
  -24.2580   -9.3230   21.9780 C   0  0  0  0  0  3  0  0  0  0  0  0
  -23.4010   -8.2080   22.0970 C   0  0  0  0  0  3  0  0  0  0  0  0
  -22.2260   -8.1290   21.3120 C   0  0  0  0  0  0  0  0  0  0  0  0
  -21.9410   -9.1600   20.4000 C   0  0  0  0  0  3  0  0  0  0  0  0
  -22.7970  -10.2680   20.2790 C   0  0  0  0  0  3  0  0  0  0  0  0
  -21.3510   -7.0710   21.3390 O   0  0  0  0  0  0  0  0  0  0  0  0
  -21.2310   -6.2640   22.4420 C   0  0  0  0  0  0  0  0  0  0  0  0
  -20.8990   -6.7840   23.7120 C   0  0  0  0  0  3  0  0  0  0  0  0
  -20.7170   -5.9120   24.8030 C   0  0  0  0  0  3  0  0  0  0  0  0
  -20.8570   -4.5220   24.6260 C   0  0  0  0  0  0  0  0  0  0  0  0
  -21.1830   -4.0020   23.3610 C   0  0  0  0  0  3  0  0  0  0  0  0
  -21.3660   -4.8710   22.2710 C   0  0  0  0  0  0  0  0  0  0  0  0
  -21.6590   -4.3650   21.0490 F   0  0  0  0  0  0  0  0  0  0  0  0
  -20.6750   -3.6820   25.6730 F   0  0  0  0  0  0  0  0  0  0  0  0
  -23.1390  -13.5590   21.0810 C   0  0  0  0  0  0  0  0  0  0  0  0
  -22.2830  -12.9680   21.9090 N   0  0  0  0  0  0  0  0  0  0  0  0
  -22.8440  -14.6000   20.4950 O   0  0  0  0  0  0  0  0  0  0  0  0
  -22.5330  -12.1240   22.4010 H   0  0  0  0  0  0  0  0  0  0  0  0
  -21.3650  -13.3660   22.0530 H   0  0  0  0  0  0  0  0  0  0  0  0
  -25.9900  -14.9390   20.5010 N   0  0  0  0  0  0  0  0  0  0  0  0
  -25.2920  -15.6730   20.5490 H   0  0  0  0  0  0  0  0  0  0  0  0
  -26.9080  -15.2830   20.2510 H   0  0  0  0  0  0  0  0  0  0  0  0
  -30.0520  -18.9070   16.1910 C   0  0  0  0  0  2  0  0  0  0  0  0
  -30.8420  -19.9730   15.4380 N   0  0  1  0  0  4  0  0  0  0  0  0
  -31.1660  -20.5650   16.1890 H   0  0  0  0  0  0  0  0  0  0  0  0
  -31.8800  -18.6100   13.5570 C   0  0  0  0  0  1  0  0  0  0  0  0
  -32.0990  -19.4310   14.8430 C   0  0  0  0  0  2  0  0  0  0  0  0
  -30.1000  -20.9360   14.5320 C   0  0  0  0  0  3  0  0  0  0  0  0
  -30.4790  -22.4710   14.6970 C   0  0  0  0  0  3  0  0  0  0  0  0
  -29.5240  -23.5160   14.0230 C   0  0  0  0  0  2  0  0  0  0  0  0
  -29.2210  -24.7190   14.8010 O   0  0  0  0  0  0  0  0  0  0  0  0
  -22.2530  -25.9290   15.9390 C   0  0  0  0  0  0  0  0  0  0  0  0
  -28.0950  -25.4680   14.4520 C   0  0  0  0  0  0  0  0  0  0  0  0
  -23.1900  -26.8780   13.8610 C   0  0  0  0  0  3  0  0  0  0  0  0
  -25.7390  -26.8930   13.6990 C   0  0  0  0  0  0  0  0  0  0  0  0
  -24.6710  -26.5540   15.9290 C   0  0  0  0  0  2  0  0  0  0  0  0
  -25.8510  -26.3640   14.9900 C   0  0  0  0  0  0  0  0  0  0  0  0
  -27.0300  -25.6700   15.3730 C   0  0  0  0  0  3  0  0  0  0  0  0
  -27.9570  -26.0410   13.1650 C   0  0  0  0  0  3  0  0  0  0  0  0
  -26.7990  -26.7430   12.7890 C   0  0  0  0  0  3  0  0  0  0  0  0
  -24.4560  -27.6140   13.3440 C   0  0  0  0  0  2  0  0  0  0  0  0
  -23.3430  -26.4090   15.2770 N   0  0  0  0  0  0  0  0  0  0  0  0
  -21.1380  -25.9010   15.4020 O   0  0  0  0  0  0  0  0  0  0  0  0
  -22.8400  -25.7390   12.8740 C   0  0  0  0  0  0  0  0  0  0  0  0
  -22.2850  -26.1030   11.7060 N   0  0  0  0  0  0  0  0  0  0  0  0
  -23.0860  -24.5640   13.1570 O   0  0  0  0  0  0  0  0  0  0  0  0
  -22.0900  -27.0830   11.5550 H   0  0  0  0  0  0  0  0  0  0  0  0
  -20.9910  -25.9950    8.3310 C   0  0  0  0  0  0  0  0  0  0  0  0
  -21.9100  -25.2010   10.6150 C   0  0  0  0  0  3  0  0  0  0  0  0
  -23.1540  -24.7190    9.8330 C   0  0  0  0  0  2  0  0  0  0  0  0
  -23.4770  -25.5920    8.6170 C   0  0  0  0  0  2  0  0  0  0  0  0
  -22.2930  -25.6170    7.6430 C   0  0  0  0  0  2  0  0  0  0  0  0
  -20.8170  -25.8120    9.7290 C   0  0  0  0  0  0  0  0  0  0  0  0
  -19.6020  -26.2120   10.3250 C   0  0  0  0  0  3  0  0  0  0  0  0
  -18.5730  -26.7810    9.5510 C   0  0  0  0  0  3  0  0  0  0  0  0
  -18.7430  -26.9420    8.1640 C   0  0  0  0  0  3  0  0  0  0  0  0
  -19.9490  -26.5460    7.5570 C   0  0  0  0  0  3  0  0  0  0  0  0
  -22.3540  -25.4150   17.4100 C   0  0  0  0  0  3  0  0  0  0  0  0
  -22.7880  -23.9000   17.5100 C   0  0  1  0  0  0  0  0  0  0  0  0
  -21.9360  -22.9510   16.6390 C   0  0  0  0  0  1  0  0  0  0  0  0
  -24.2670  -23.7270   17.0910 C   0  0  0  0  0  1  0  0  0  0  0  0
  -22.6830  -23.4170   18.9770 C   0  0  0  0  0  1  0  0  0  0  0  0
  -21.0450  -25.6200   18.0440 N   0  0  0  0  0  0  0  0  0  0  0  0
  -20.7540  -26.6270   18.8800 C   0  0  0  0  0  0  0  0  0  0  0  0
  -21.5910  -27.4500   19.2560 O   0  0  0  0  0  0  0  0  0  0  0  0
  -20.2970  -25.0130   17.7440 H   0  0  0  0  0  0  0  0  0  0  0  0
  -18.5620  -27.8260   18.5860 C   0  0  0  0  0  1  0  0  0  0  0  0
  -19.3000  -26.7360   19.3800 C   0  0  0  0  0  3  0  0  0  0  0  0
  -19.6310  -25.9130   21.6690 C   0  0  0  0  0  1  0  0  0  0  0  0
  -19.1950  -27.0240   20.8270 N   0  0  0  0  0  0  0  0  0  0  0  0
  -18.2370  -27.2510   21.0790 H   0  0  0  0  0  0  0  0  0  0  0  0
  -29.7710  -20.8900   21.8310 C   0  0  0  0  0  2  0  0  0  0  0  0
  -30.9810  -21.3790   22.6750 C   0  0  0  0  0  3  0  0  0  0  0  0
  -33.2420  -20.7090   23.7570 C   0  0  0  0  0  1  0  0  0  0  0  0
  -31.9030  -20.2350   23.1660 C   0  0  0  0  0  2  0  0  0  0  0  0
  -29.7100  -21.5940   24.9490 C   0  0  0  0  0  1  0  0  0  0  0  0
  -30.5080  -22.2950   23.8340 C   0  0  0  0  0  2  0  0  0  0  0  0
  1  7  1  0
  3  4  1  0
  3  2  1  0
  5  4  1  0
  5 23  1  0
  5  6  1  0
  7  2  1  0
  7  6  1  0
  8  1  2  0
 10 13  1  0
 11  9  1  0
 12 17  1  0
 13 18  1  0
 14 12  1  0
 14 16  1  0
 15 48  1  0
 15 10  1  0
 15 14  1  0
 16 18  1  0
 16  9  1  0
 17  1  1  0
 17 11  1  0
 18 97  1  0
 18 19  1  1
 20 21  2  0
 21 22  1  0
 21 40  1  0
 22 25  1  0
 23 20  1  0
 23 24  1  0
 24 22  2  0
 25 26  1  0
 26 27  2  0
 28 31  1  0
 28 27  1  0
 29 28  2  0
 30 29  1  0
 30 25  2  0
 31 32  1  0
 32 33  1  0
 33 34  2  0
 35 34  1  0
 35 39  1  0
 36 35  2  0
 37 32  2  0
 37 36  1  0
 38 37  1  0
 40 41  1  0
 41 44  1  0
 41 43  1  0
 42 40  2  0
 45 46  1  0
 45 20  1  0
 47 45  1  0
 49 50  1  1
 49 48  1  0
 51 52  1  0
 52 49  1  0
 53 54  2  0
 53 49  1  0
 55 54  1  0
 55 56  1  0
 58 56  1  0
 58 63  1  0
 59 69  1  0
 59 67  1  0
 60 62  1  0
 62 63  2  0
 62 61  1  0
 64 58  2  0
 65 64  1  0
 65 60  2  0
 66 60  1  0
 66 59  1  0
 67 61  1  0
 67 57  1  0
 68 57  2  0
 69 71  2  0
 70 69  1  0
 72 70  1  0
 73 78  1  0
 74 70  1  0
 75 74  1  0
 76 75  1  0
 77 73  1  0
 77 76  1  0
 78 79  2  0
 78 74  1  0
 80 79  1  0
 81 80  2  0
 82 81  1  0
 82 73  2  0
 83 57  1  0
 83 84  1  0
 83 88  1  0
 84 87  1  1
 85 84  1  0
 86 84  1  0
 88 89  1  0
 89 90  2  0
 89 93  1  0
 91 88  1  0
 93 92  1  0
 93 95  1  0
 95 96  1  0
 95 94  1  0
 97 98  1  0
 98100  1  0
 98102  1  0
100 99  1  0
102101  1  0
M  ISO  4   1 100  17 100  55 101  56 101
M  END
>  <TORSDO>  (52) 
F 25

>  <SCORE>  (52) 
-8.050

>  <name>  (52) 
55

>  <ligand_id>  (52) 
55

>  <original_smiles>  (52) 
[H]c1c([H])c([H])c2c(c1[H])C([H])([H])C([H])([H])C([H])([H])C2([H])N([H])C(=O)C1([H])N(C(=O)C([H])(N([H])C(=O)C([H])(N([H])C([H])([H])[H])C([H])([H])[H])C(C([H])([H])[H])(C([H])([H])[H])C([H])([H])[H])C([H])([H])c2c([H])c(OC([H])([H])C([H])([H])C([H])([H])[N+]([H])(C([H])([H])C([H])([H])[H])C([H])([H])C3([H])C([H])([H])C([H])([H])[N+]([H])(C([H])([H])C([H])(C([H])([H])C([H])([H])[H])C([H])([H])C([H])([H])[H])C4([H])C([H])([H])C([H])([H])N(C(=O)N5C([H])([H])C([H])([H])C([H])([H])C([H])(n6nc(-c7c([H])c([H])c(Oc8c([H])c([H])c(F)c([H])c8F)c([H])c7[H])c(C(=O)N([H])[H])c6N([H])[H])C5([H])[H])C([H])([H])C34[H])c([H])c([H])c2C1([H])[H]

>  <smiles>  (52) 
[H]c1c([H])c([H])c2c(c1[H])C([H])([H])C([H])([H])C([H])([H])C2([H])N([H])C(=O)C1([H])N(C(=O)C([H])(N([H])C(=O)C([H])(N([H])C([H])([H])[H])C([H])([H])[H])C(C([H])([H])[H])(C([H])([H])[H])C([H])([H])[H])C([H])([H])c2c([H])c(OC([H])([H])C([H])([H])C([H])([H])[N+]([H])(C([H])([H])C([H])([H])[H])C([H])([H])C3([H])C([H])([H])C([H])([H])[N+]([H])(C([H])([H])C([H])(C([H])([H])C([H])([H])[H])C([H])([H])C([H])([H])[H])C4([H])C([H])([H])C([H])([H])N(C(=O)N5C([H])([H])C([H])([H])C([H])([H])C([H])(n6nc(-c7c([H])c([H])c(Oc8c([H])c([H])c(F)c([H])c8F)c([H])c7[H])c(C(=O)N([H])[H])c6N([H])[H])C5([H])[H])C([H])([H])C34[H])c([H])c([H])c2C1([H])[H]

$$$$
56:0:0
     RDKit          3D

 98107  0  0  1  0  0  0  0  0999 V2000
  -26.4080  -20.7890   18.5410 C   0  0  0  0  0  2  0  0  0  0  0  0
  -26.9880  -20.6980   17.1220 C   0  0  0  0  0  2  0  0  0  0  0  0
  -28.4420  -20.1890   19.9590 C   0  0  0  0  0  2  0  0  0  0  0  0
  -29.4370  -20.0960   17.5550 C   0  0  0  0  0  2  0  0  0  0  0  0
  -29.1120  -19.3110   18.8570 C   0  0  0  0  0  3  0  0  0  0  0  0
  -27.5690  -21.3350   19.3920 C   0  0  0  0  0  3  0  0  0  0  0  0
  -28.4290  -21.2220   17.2580 C   0  0  0  0  0  3  0  0  0  0  0  0
  -28.4240  -22.0850   18.4510 N   0  0  1  0  0  4  0  0  0  0  0  0
  -29.3620  -22.0910   18.8210 H   0  0  0  0  0  0  0  0  0  0  0  0
  -30.4040  -18.6420   19.3580 C   0  0  0  0  0  2  0  0  0  0  0  0
  -30.2190  -17.6950   20.5480 C   0  0  0  0  0  2  0  0  0  0  0  0
  -31.5490  -17.0530   20.9800 C   0  0  0  0  0  2  0  0  0  0  0  0
  -30.8830  -14.1640   20.1720 C   0  0  0  0  0  0  0  0  0  0  0  0
  -30.3600  -12.1620   18.8270 C   0  0  0  0  0  2  0  0  0  0  0  0
  -29.3220  -12.4090   17.7180 C   0  0  0  0  0  2  0  0  0  0  0  0
  -27.8950  -12.2550   18.2700 C   0  0  0  0  0  2  0  0  0  0  0  0
  -27.6720  -13.1050   19.5440 C   0  0  0  0  0  3  0  0  0  0  0  0
  -28.7910  -12.8420   20.5810 C   0  0  0  0  0  2  0  0  0  0  0  0
  -30.1050  -13.0750   19.9520 N   0  0  0  0  0  0  0  0  0  0  0  0
  -31.7290  -14.5750   19.3670 O   0  0  0  0  0  0  0  0  0  0  0  0
  -31.2420  -15.9190   21.9260 C   0  0  0  0  0  0  0  0  0  0  0  0
  -30.8090  -14.7000   21.5080 N   0  0  0  0  0  0  0  0  0  0  0  0
  -31.3070  -16.2020   23.2450 N   0  0  0  0  0  4  0  0  0  0  0  0
  -30.3100  -14.1770   22.2040 H   0  0  0  0  0  0  0  0  0  0  0  0
  -31.5640  -17.1330   23.5560 H   0  0  0  0  0  0  0  0  0  0  0  0
  -31.1740  -15.5160   23.9770 H   0  0  0  0  0  0  0  0  0  0  0  0
  -25.3380  -13.7710   20.4180 C   0  0  0  0  0  0  0  0  0  0  0  0
  -24.2780  -13.0190   20.8540 C   0  0  0  0  0  0  0  0  0  0  0  0
  -24.7010  -11.6560   20.7760 C   0  0  0  0  0  0  0  0  0  0  0  0
  -26.3450  -12.8660   20.1120 N   0  0  0  0  0  0  0  0  0  0  0  0
  -25.9650  -11.5900   20.3790 N   0  0  0  0  0  0  0  0  0  0  0  0
  -23.9620  -10.4080   21.0040 C   0  0  0  0  0  0  0  0  0  0  0  0
  -24.4210   -9.4320   21.9170 C   0  0  0  0  0  3  0  0  0  0  0  0
  -23.6840   -8.2460   22.1280 C   0  0  0  0  0  3  0  0  0  0  0  0
  -22.4720   -8.0310   21.4310 C   0  0  0  0  0  0  0  0  0  0  0  0
  -22.0300   -8.9940   20.5080 C   0  0  0  0  0  3  0  0  0  0  0  0
  -22.7690  -10.1690   20.2930 C   0  0  0  0  0  3  0  0  0  0  0  0
  -21.7030   -6.8990   21.5550 O   0  0  0  0  0  0  0  0  0  0  0  0
  -21.6760   -6.1710   22.7180 C   0  0  0  0  0  0  0  0  0  0  0  0
  -21.3080   -6.7500   23.9520 C   0  0  0  0  0  3  0  0  0  0  0  0
  -21.2290   -5.9500   25.1100 C   0  0  0  0  0  3  0  0  0  0  0  0
  -21.5040   -4.5720   25.0340 C   0  0  0  0  0  0  0  0  0  0  0  0
  -21.8670   -3.9930   23.8060 C   0  0  0  0  0  3  0  0  0  0  0  0
  -21.9500   -4.7910   22.6510 C   0  0  0  0  0  0  0  0  0  0  0  0
  -22.2820   -4.2240   21.4650 F   0  0  0  0  0  0  0  0  0  0  0  0
  -21.4200   -3.8000   26.1420 F   0  0  0  0  0  0  0  0  0  0  0  0
  -22.9170  -13.5280   21.2350 C   0  0  0  0  0  0  0  0  0  0  0  0
  -22.2440  -12.8480   22.1590 N   0  0  0  0  0  0  0  0  0  0  0  0
  -22.4640  -14.5620   20.7510 O   0  0  0  0  0  0  0  0  0  0  0  0
  -22.6210  -12.0080   22.5700 H   0  0  0  0  0  0  0  0  0  0  0  0
  -21.3390  -13.1790   22.4610 H   0  0  0  0  0  0  0  0  0  0  0  0
  -25.5180  -15.1400   20.2470 N   0  0  0  0  0  0  0  0  0  0  0  0
  -24.7580  -15.7960   20.3900 H   0  0  0  0  0  0  0  0  0  0  0  0
  -26.3610  -15.5830   19.9020 H   0  0  0  0  0  0  0  0  0  0  0  0
  -28.0840  -23.5040   18.1840 C   0  0  0  0  0  2  0  0  0  0  0  0
  -28.3310  -24.4210   19.3970 C   0  0  0  0  0  2  0  0  0  0  0  0
  -28.6400  -25.8670   18.9690 C   0  0  0  0  0  2  0  0  0  0  0  0
  -28.4040  -26.7810   20.0330 O   0  0  0  0  0  0  0  0  0  0  0  0
  -24.5190  -31.8380   23.1550 C   0  0  0  0  0  0  0  0  0  0  0  0
  -27.1980  -27.4470   20.0500 C   0  0  0  0  0  0  0  0  0  0  0  0
  -23.3320  -30.4610   21.4790 C   0  0  0  0  0  3  0  0  0  0  0  0
  -24.8000  -28.9340   20.0620 C   0  0  0  0  0  0  0  0  0  0  0  0
  -25.8590  -30.8160   21.3210 C   0  0  0  0  0  2  0  0  0  0  0  0
  -25.9460  -29.4500   20.6760 C   0  0  0  0  0  0  0  0  0  0  0  0
  -27.1450  -28.7080   20.6790 C   0  0  0  0  0  3  0  0  0  0  0  0
  -26.0240  -26.9270   19.4550 C   0  0  0  0  0  3  0  0  0  0  0  0
  -24.8290  -27.6680   19.4570 C   0  0  0  0  0  3  0  0  0  0  0  0
  -23.5580  -29.7950   20.0960 C   0  0  0  0  0  2  0  0  0  0  0  0
  -24.5890  -31.0500   22.0440 N   0  0  0  0  0  0  0  0  0  0  0  0
  -23.4310  -32.1090   23.6800 O   0  0  0  0  0  0  0  0  0  0  0  0
  -22.6630  -29.4320   22.4180 C   0  0  0  0  0  0  0  0  0  0  0  0
  -21.3380  -29.2650   22.2730 N   0  0  0  0  0  0  0  0  0  0  0  0
  -23.3340  -28.7870   23.2290 O   0  0  0  0  0  0  0  0  0  0  0  0
  -20.8610  -29.8410   21.5940 H   0  0  0  0  0  0  0  0  0  0  0  0
  -17.9480  -28.1030   22.7220 C   0  0  0  0  0  0  0  0  0  0  0  0
  -20.5050  -28.3230   23.0190 C   0  0  0  0  0  3  0  0  0  0  0  0
  -20.5960  -26.9010   22.4190 C   0  0  0  0  0  2  0  0  0  0  0  0
  -19.4990  -26.6100   21.3920 C   0  0  0  0  0  2  0  0  0  0  0  0
  -18.1120  -26.7630   22.0240 C   0  0  0  0  0  2  0  0  0  0  0  0
  -19.0720  -28.8430   23.1750 C   0  0  0  0  0  0  0  0  0  0  0  0
  -18.8670  -30.0990   23.7860 C   0  0  0  0  0  3  0  0  0  0  0  0
  -17.5670  -30.6170   23.9440 C   0  0  0  0  0  3  0  0  0  0  0  0
  -16.4580  -29.8750   23.5070 C   0  0  0  0  0  3  0  0  0  0  0  0
  -16.6480  -28.6190   22.9050 C   0  0  0  0  0  3  0  0  0  0  0  0
  -25.8000  -32.4550   23.8010 C   0  0  0  0  0  3  0  0  0  0  0  0
  -25.4900  -33.8480   24.1500 N   0  0  0  0  0  0  0  0  0  0  0  0
  -25.8290  -34.9080   23.4070 C   0  0  0  0  0  0  0  0  0  0  0  0
  -26.5080  -34.8170   22.3800 O   0  0  0  0  0  0  0  0  0  0  0  0
  -24.8870  -33.9920   24.9470 H   0  0  0  0  0  0  0  0  0  0  0  0
  -24.0960  -36.7010   23.0670 C   0  0  0  0  0  1  0  0  0  0  0  0
  -25.3390  -36.2940   23.8750 C   0  0  0  0  0  3  0  0  0  0  0  0
  -27.4720  -37.1710   24.7150 C   0  0  0  0  0  1  0  0  0  0  0  0
  -26.3700  -37.3480   23.7730 N   0  0  0  0  0  0  0  0  0  0  0  0
  -25.9620  -38.2650   23.9340 H   0  0  0  0  0  0  0  0  0  0  0  0
  -26.3010  -31.6600   25.0710 C   0  0  1  0  0  0  0  0  0  0  0  0
  -25.1950  -31.4010   26.1210 C   0  0  0  0  0  1  0  0  0  0  0  0
  -26.8880  -30.2890   24.6580 C   0  0  0  0  0  1  0  0  0  0  0  0
  -27.4460  -32.4390   25.7590 C   0  0  0  0  0  1  0  0  0  0  0  0
  2  1  1  0
  4  5  1  0
  5 10  1  0
  5  3  1  0
  6  1  1  0
  6  3  1  0
  7  2  1  0
  7  4  1  0
  7  8  1  0
  8  9  1  1
  8  6  1  0
 10 11  1  0
 11 12  1  0
 12 21  1  0
 13 22  1  0
 14 19  1  0
 15 16  1  0
 15 14  1  0
 17 16  1  0
 17 30  1  0
 17 18  1  0
 19 13  1  0
 19 18  1  0
 20 13  2  0
 21 23  2  0
 22 21  1  0
 22 24  1  0
 23 25  1  0
 23 26  1  0
 27 28  2  0
 28 47  1  0
 29 28  1  0
 29 32  1  0
 30 31  1  0
 30 27  1  0
 31 29  2  0
 32 33  1  0
 33 34  2  0
 35 38  1  0
 35 34  1  0
 36 35  2  0
 37 36  1  0
 37 32  2  0
 38 39  1  0
 39 40  1  0
 40 41  2  0
 42 41  1  0
 42 46  1  0
 43 42  2  0
 44 39  2  0
 44 43  1  0
 45 44  1  0
 47 48  1  0
 48 51  1  0
 48 50  1  0
 49 47  2  0
 52 53  1  0
 52 27  1  0
 54 52  1  0
 55  8  1  0
 55 56  1  0
 57 56  1  0
 57 58  1  0
 58 60  1  0
 59 70  2  0
 60 65  1  0
 61 69  1  0
 61 71  1  0
 62 68  1  0
 62 64  1  0
 63 69  1  0
 64 65  2  0
 64 63  1  0
 66 67  1  0
 66 60  2  0
 67 62  2  0
 68 61  1  0
 69 59  1  0
 71 73  2  0
 72 71  1  0
 74 72  1  0
 75 84  2  0
 75 80  1  0
 76 72  1  0
 76 80  1  0
 77 76  1  0
 78 79  1  0
 78 77  1  0
 79 75  1  0
 80 81  2  0
 81 82  1  0
 83 82  2  0
 84 83  1  0
 85 59  1  0
 85 86  1  0
 85 95  1  0
 86 89  1  0
 87 91  1  0
 87 86  1  0
 88 87  2  0
 91 90  1  0
 93 91  1  0
 93 94  1  0
 93 92  1  0
 95 98  1  1
 95 96  1  0
 97 95  1  0
M  ISO  4  13 100  22 100  57 101  58 101
M  END
>  <TORSDO>  (53) 
F 22

>  <SCORE>  (53) 
-12.036

>  <name>  (53) 
56

>  <ligand_id>  (53) 
56

>  <original_smiles>  (53) 
[H]c1c([H])c([H])c2c(c1[H])C([H])([H])C([H])([H])C([H])([H])C2([H])N([H])C(=O)C1([H])N(C(=O)C([H])(N([H])C(=O)C([H])(N([H])C([H])([H])[H])C([H])([H])[H])C(C([H])([H])[H])(C([H])([H])[H])C([H])([H])[H])C([H])([H])c2c([H])c(OC([H])([H])C([H])([H])C([H])([H])[N+]3([H])C4([H])C([H])([H])C([H])([H])C3([H])C([H])([H])C([H])(C([H])([H])C([H])([H])C([H])([H])C(N([H])C(=O)N3C([H])([H])C([H])([H])C([H])([H])C([H])(n5nc(-c6c([H])c([H])c(Oc7c([H])c([H])c(F)c([H])c7F)c([H])c6[H])c(C(=O)N([H])[H])c5N([H])[H])C3([H])[H])=[N+]([H])[H])C4([H])[H])c([H])c([H])c2C1([H])[H]

>  <smiles>  (53) 
[H]c1c([H])c([H])c2c(c1[H])C([H])([H])C([H])([H])C([H])([H])C2([H])N([H])C(=O)C1([H])N(C(=O)C([H])(N([H])C(=O)C([H])(N([H])C([H])([H])[H])C([H])([H])[H])C(C([H])([H])[H])(C([H])([H])[H])C([H])([H])[H])C([H])([H])c2c([H])c(OC([H])([H])C([H])([H])C([H])([H])[N+]3([H])C4([H])C([H])([H])C([H])([H])C3([H])C([H])([H])C([H])(C([H])([H])C([H])([H])C([H])([H])C(N([H])C(=O)N3C([H])([H])C([H])([H])C([H])([H])C([H])(n5nc(-c6c([H])c([H])c(Oc7c([H])c([H])c(F)c([H])c7F)c([H])c6[H])c(C(=O)N([H])[H])c5N([H])[H])C3([H])[H])=[N+]([H])[H])C4([H])[H])c([H])c([H])c2C1([H])[H]

$$$$
57:0:0
     RDKit          3D

102110  0  0  1  0  0  0  0  0999 V2000
  -29.4170  -19.4730   19.8570 C   0  0  0  0  0  3  0  0  0  0  0  0
  -26.7150  -20.3890   16.5100 C   0  0  0  0  0  2  0  0  0  0  0  0
  -28.0950  -21.0580   16.5940 C   0  0  0  0  0  2  0  0  0  0  0  0
  -26.1570  -20.1530   17.9220 C   0  0  0  0  0  2  0  0  0  0  0  0
  -29.0520  -20.2450   17.4820 C   0  0  0  0  0  2  0  0  0  0  0  0
  -27.1500  -19.3620   18.7930 C   0  0  0  0  0  2  0  0  0  0  0  0
  -28.4760  -20.0370   18.8420 N   0  0  1  0  0  4  0  0  0  0  0  0
  -28.2780  -20.9630   19.1930 H   0  0  0  0  0  0  0  0  0  0  0  0
  -30.6300  -20.4470   20.0320 C   0  0  0  0  0  2  0  0  0  0  0  0
  -30.4050  -22.0100   19.9210 C   0  0  0  0  0  3  0  0  0  0  0  0
  -29.7590  -22.7700   21.1200 C   0  0  0  0  0  3  0  0  0  0  0  0
  -29.8340  -24.3430   21.1030 C   0  0  0  0  0  2  0  0  0  0  0  0
  -28.6850  -25.1390   20.4120 C   0  0  0  0  0  2  0  0  0  0  0  0
  -28.7800  -26.5820   20.5860 O   0  0  0  0  0  0  0  0  0  0  0  0
  -24.6830  -31.7760   23.3340 C   0  0  0  0  0  0  0  0  0  0  0  0
  -27.6050  -27.3220   20.4770 C   0  0  0  0  0  0  0  0  0  0  0  0
  -23.6070  -30.3140   21.6580 C   0  0  0  0  0  3  0  0  0  0  0  0
  -25.1760  -28.7980   20.3330 C   0  0  0  0  0  0  0  0  0  0  0  0
  -26.1340  -30.7320   21.5890 C   0  0  0  0  0  2  0  0  0  0  0  0
  -26.2920  -29.3530   20.9710 C   0  0  0  0  0  0  0  0  0  0  0  0
  -27.5110  -28.6270   21.0330 C   0  0  0  0  0  3  0  0  0  0  0  0
  -26.4650  -26.7990   19.8240 C   0  0  0  0  0  3  0  0  0  0  0  0
  -25.2610  -27.5230   19.7540 C   0  0  0  0  0  3  0  0  0  0  0  0
  -23.9080  -29.6230   20.3020 C   0  0  0  0  0  2  0  0  0  0  0  0
  -24.8230  -30.9580   22.2510 N   0  0  0  0  0  0  0  0  0  0  0  0
  -23.5670  -32.0240   23.8110 O   0  0  0  0  0  0  0  0  0  0  0  0
  -22.9350  -29.2880   22.6010 C   0  0  0  0  0  0  0  0  0  0  0  0
  -21.6250  -29.0610   22.4060 N   0  0  0  0  0  0  0  0  0  0  0  0
  -23.5920  -28.6990   23.4640 O   0  0  0  0  0  0  0  0  0  0  0  0
  -21.1560  -29.5890   21.6850 H   0  0  0  0  0  0  0  0  0  0  0  0
  -18.2610  -27.7890   22.7690 C   0  0  0  0  0  0  0  0  0  0  0  0
  -20.7980  -28.1100   23.1500 C   0  0  0  0  0  3  0  0  0  0  0  0
  -20.9590  -26.6770   22.5930 C   0  0  0  0  0  2  0  0  0  0  0  0
  -19.9110  -26.3200   21.5340 C   0  0  0  0  0  2  0  0  0  0  0  0
  -18.4990  -26.4390   22.1140 C   0  0  0  0  0  2  0  0  0  0  0  0
  -19.3420  -28.5810   23.2410 C   0  0  0  0  0  0  0  0  0  0  0  0
  -19.0680  -29.8440   23.8090 C   0  0  0  0  0  3  0  0  0  0  0  0
  -17.7460  -30.3160   23.9130 C   0  0  0  0  0  3  0  0  0  0  0  0
  -16.6790  -29.5210   23.4600 C   0  0  0  0  0  3  0  0  0  0  0  0
  -16.9370  -28.2600   22.8930 C   0  0  0  0  0  3  0  0  0  0  0  0
  -25.9150  -32.4580   24.0080 C   0  0  0  0  0  3  0  0  0  0  0  0
  -26.3490  -31.7620   25.3550 C   0  0  1  0  0  0  0  0  0  0  0  0
  -25.1870  -31.5600   26.3540 C   0  0  0  0  0  1  0  0  0  0  0  0
  -26.9790  -30.3780   25.0770 C   0  0  0  0  0  1  0  0  0  0  0  0
  -27.4370  -32.6100   26.0550 C   0  0  0  0  0  1  0  0  0  0  0  0
  -25.5700  -33.8670   24.2400 N   0  0  0  0  0  0  0  0  0  0  0  0
  -25.9430  -34.8820   23.4480 C   0  0  0  0  0  0  0  0  0  0  0  0
  -26.6840  -34.7320   22.4730 O   0  0  0  0  0  0  0  0  0  0  0  0
  -24.9200  -34.0560   24.9890 H   0  0  0  0  0  0  0  0  0  0  0  0
  -24.2180  -36.6240   22.8870 C   0  0  0  0  0  1  0  0  0  0  0  0
  -25.4100  -36.2860   23.7950 C   0  0  0  0  0  3  0  0  0  0  0  0
  -27.4800  -37.2480   24.7020 C   0  0  0  0  0  1  0  0  0  0  0  0
  -26.4350  -37.3460   23.6870 N   0  0  0  0  0  0  0  0  0  0  0  0
  -26.0100  -38.2670   23.7590 H   0  0  0  0  0  0  0  0  0  0  0  0
  -29.7660  -17.9540   19.5330 C   0  0  0  0  0  2  0  0  0  0  0  0
  -31.1200  -17.2840   19.9660 C   0  0  0  0  0  3  0  0  0  0  0  0
  -31.7150  -14.8510   20.6080 C   0  0  0  0  0  0  0  0  0  0  0  0
  -31.6420  -12.3790   20.4970 C   0  0  0  0  0  2  0  0  0  0  0  0
  -30.8690  -11.9700   19.2250 C   0  0  0  0  0  2  0  0  0  0  0  0
  -29.3510  -11.9200   19.4980 C   0  0  0  0  0  2  0  0  0  0  0  0
  -28.8300  -13.1900   20.2210 C   0  0  0  0  0  3  0  0  0  0  0  0
  -29.7250  -13.5370   21.4320 C   0  0  0  0  0  2  0  0  0  0  0  0
  -31.1080  -13.6770   20.9430 N   0  0  0  0  0  0  0  0  0  0  0  0
  -32.9010  -14.9150   20.2750 O   0  0  0  0  0  0  0  0  0  0  0  0
  -30.8770  -15.9090   20.4890 N   0  0  0  0  0  0  0  0  0  0  0  0
  -29.9300  -15.7100   20.7720 H   0  0  0  0  0  0  0  0  0  0  0  0
  -26.4720  -14.0460   20.7930 C   0  0  0  0  0  0  0  0  0  0  0  0
  -25.3030  -13.3890   21.0710 C   0  0  0  0  0  0  0  0  0  0  0  0
  -25.6140  -11.9960   21.0290 C   0  0  0  0  0  0  0  0  0  0  0  0
  -27.4260  -13.0570   20.6030 N   0  0  0  0  0  0  0  0  0  0  0  0
  -26.9090  -11.8180   20.8030 N   0  0  0  0  0  0  0  0  0  0  0  0
  -24.7420  -10.8180   21.1340 C   0  0  0  0  0  0  0  0  0  0  0  0
  -25.0200   -9.7720   22.0410 C   0  0  0  0  0  3  0  0  0  0  0  0
  -24.1580   -8.6580   22.1350 C   0  0  0  0  0  3  0  0  0  0  0  0
  -23.0030   -8.5840   21.3210 C   0  0  0  0  0  0  0  0  0  0  0  0
  -22.7440   -9.6180   20.4030 C   0  0  0  0  0  3  0  0  0  0  0  0
  -23.6050  -10.7230   20.3060 C   0  0  0  0  0  3  0  0  0  0  0  0
  -22.1230   -7.5300   21.3260 O   0  0  0  0  0  0  0  0  0  0  0  0
  -21.9350   -6.7530   22.4410 C   0  0  0  0  0  0  0  0  0  0  0  0
  -21.5040   -7.3040   23.6680 C   0  0  0  0  0  3  0  0  0  0  0  0
  -21.2570   -6.4610   24.7700 C   0  0  0  0  0  3  0  0  0  0  0  0
  -21.4300   -5.0690   24.6460 C   0  0  0  0  0  0  0  0  0  0  0  0
  -21.8550   -4.5190   23.4250 C   0  0  0  0  0  3  0  0  0  0  0  0
  -22.1030   -5.3590   22.3240 C   0  0  0  0  0  0  0  0  0  0  0  0
  -22.4910   -4.8220   21.1430 F   0  0  0  0  0  0  0  0  0  0  0  0
  -21.1860   -4.2590   25.7020 F   0  0  0  0  0  0  0  0  0  0  0  0
  -23.9520  -14.0140   21.2660 C   0  0  0  0  0  0  0  0  0  0  0  0
  -23.1000  -13.3950   22.0770 N   0  0  0  0  0  0  0  0  0  0  0  0
  -23.6600  -15.0840   20.7340 O   0  0  0  0  0  0  0  0  0  0  0  0
  -23.3460  -12.5290   22.5310 H   0  0  0  0  0  0  0  0  0  0  0  0
  -22.1900  -13.7990   22.2480 H   0  0  0  0  0  0  0  0  0  0  0  0
  -26.7990  -15.3920   20.6640 N   0  0  0  0  0  0  0  0  0  0  0  0
  -26.0880  -16.1140   20.7000 H   0  0  0  0  0  0  0  0  0  0  0  0
  -27.6890  -15.7220   20.3140 H   0  0  0  0  0  0  0  0  0  0  0  0
  -31.8990  -18.0970   21.0250 C   0  0  0  0  0  2  0  0  0  0  0  0
  -31.0590  -18.5470   22.2390 C   0  0  0  0  0  2  0  0  0  0  0  0
  -31.7380  -19.6610   23.0530 C   0  0  0  0  0  2  0  0  0  0  0  0
  -30.8420  -20.2000   24.1860 C   0  0  0  0  0  2  0  0  0  0  0  0
  -31.4650  -21.3200   24.9090 N   0  0  0  0  0  4  0  0  0  0  0  0
  -32.3270  -21.0360   25.3370 H   0  0  0  0  0  0  0  0  0  0  0  0
  -30.8490  -21.6440   25.6340 H   0  0  0  0  0  0  0  0  0  0  0  0
  -31.6480  -22.0910   24.2910 H   0  0  0  0  0  0  0  0  0  0  0  0
  1 55  1  0
  1  9  1  0
  2  3  1  0
  2  4  1  0
  3  5  1  0
  4  6  1  0
  5  7  1  0
  6  7  1  0
  7  8  1  1
  7  1  1  0
 10  9  1  0
 10 11  2  0
 12 11  1  0
 13 14  1  0
 13 12  1  0
 15 26  2  0
 16 14  1  0
 16 21  1  0
 17 25  1  0
 17 27  1  0
 18 20  1  0
 19 25  1  0
 20 21  2  0
 20 19  1  0
 22 16  2  0
 23 22  1  0
 23 18  2  0
 24 18  1  0
 24 17  1  0
 25 15  1  0
 27 29  2  0
 28 27  1  0
 30 28  1  0
 31 40  2  0
 31 36  1  0
 32 28  1  0
 32 36  1  0
 33 32  1  0
 34 35  1  0
 34 33  1  0
 35 31  1  0
 36 37  2  0
 37 38  1  0
 39 38  2  0
 40 39  1  0
 41 15  1  0
 41 46  1  0
 41 42  1  0
 42 45  1  1
 42 43  1  0
 44 42  1  0
 46 49  1  0
 47 51  1  0
 47 46  1  0
 48 47  2  0
 51 50  1  0
 53 54  1  0
 53 51  1  0
 53 52  1  0
 56 55  1  0
 56 65  1  0
 56 95  1  0
 57 63  1  0
 58 63  1  0
 59 60  1  0
 59 58  1  0
 61 60  1  0
 61 70  1  0
 61 62  1  0
 63 62  1  0
 64 57  2  0
 65 57  1  0
 65 66  1  0
 67 68  2  0
 68 87  1  0
 69 68  1  0
 69 72  1  0
 70 67  1  0
 70 71  1  0
 71 69  2  0
 72 73  1  0
 73 74  2  0
 75 78  1  0
 75 74  1  0
 76 75  2  0
 77 76  1  0
 77 72  2  0
 78 79  1  0
 79 80  1  0
 80 81  2  0
 82 81  1  0
 82 86  1  0
 83 82  2  0
 84 79  2  0
 84 83  1  0
 85 84  1  0
 87 88  1  0
 88 91  1  0
 88 90  1  0
 89 87  2  0
 92 93  1  0
 92 67  1  0
 94 92  1  0
 95 96  1  0
 96 97  1  0
 97 98  1  0
 98 99  1  0
 99100  1  0
 99101  1  0
102 99  1  0
M  ISO  4  13 101  14 101  57 100  65 100
M  END
>  <TORSDO>  (54) 
F 29

>  <SCORE>  (54) 
-9.358

>  <name>  (54) 
57

>  <ligand_id>  (54) 
57

>  <original_smiles>  (54) 
[H]c1c([H])c([H])c2c(c1[H])C([H])([H])C([H])([H])C([H])([H])C2([H])N([H])C(=O)C1([H])N(C(=O)C([H])(N([H])C(=O)C([H])(N([H])C([H])([H])[H])C([H])([H])[H])C(C([H])([H])[H])(C([H])([H])[H])C([H])([H])[H])C([H])([H])c2c([H])c(OC([H])([H])C([H])([H])C([H])([H])C([H])([H])C([H])([H])C([H])(C([H])([H])C([H])(N([H])C(=O)N3C([H])([H])C([H])([H])C([H])([H])C([H])(n4nc(-c5c([H])c([H])c(Oc6c([H])c([H])c(F)c([H])c6F)c([H])c5[H])c(C(=O)N([H])[H])c4N([H])[H])C3([H])[H])C([H])([H])C([H])([H])C([H])([H])C([H])([H])[N+]([H])([H])[H])[N+]3([H])C([H])([H])C([H])([H])C([H])([H])C([H])([H])C3([H])[H])c([H])c([H])c2C1([H])[H]

>  <smiles>  (54) 
[H]c1c([H])c([H])c2c(c1[H])C([H])([H])C([H])([H])C([H])([H])C2([H])N([H])C(=O)C1([H])N(C(=O)C([H])(N([H])C(=O)C([H])(N([H])C([H])([H])[H])C([H])([H])[H])C(C([H])([H])[H])(C([H])([H])[H])C([H])([H])[H])C([H])([H])c2c([H])c(OC([H])([H])C([H])([H])C([H])([H])C([H])([H])C([H])([H])C([H])(C([H])([H])C([H])(N([H])C(=O)N3C([H])([H])C([H])([H])C([H])([H])C([H])(n4nc(-c5c([H])c([H])c(Oc6c([H])c([H])c(F)c([H])c6F)c([H])c5[H])c(C(=O)N([H])[H])c4N([H])[H])C3([H])[H])C([H])([H])C([H])([H])C([H])([H])C([H])([H])[N+]([H])([H])[H])[N+]3([H])C([H])([H])C([H])([H])C([H])([H])C([H])([H])C3([H])[H])c([H])c([H])c2C1([H])[H]

$$$$
58:0:0
     RDKit          3D

 91 99  0  0  1  0  0  0  0  0999 V2000
  -29.0880  -21.5010   20.7340 N   0  0  1  0  0  4  0  0  0  0  0  0
  -28.2970  -21.4220   21.3560 H   0  0  0  0  0  0  0  0  0  0  0  0
  -30.6790  -15.1400   19.8570 C   0  0  0  0  0  0  0  0  0  0  0  0
  -30.4070  -12.7710   18.9120 C   0  0  0  0  0  2  0  0  0  0  0  0
  -29.4070  -12.6490   17.7410 C   0  0  0  0  0  2  0  0  0  0  0  0
  -27.9860  -12.4210   18.2790 C   0  0  0  0  0  2  0  0  0  0  0  0
  -27.6440  -13.3700   19.4550 C   0  0  0  0  0  3  0  0  0  0  0  0
  -28.7720  -13.4750   20.5040 C   0  0  0  0  0  2  0  0  0  0  0  0
  -29.9690  -13.9200   19.7800 N   0  0  0  0  0  0  0  0  0  0  0  0
  -31.8840  -15.0030   19.6010 O   0  0  0  0  0  0  0  0  0  0  0  0
  -30.7190  -19.3020   19.7720 C   0  0  0  0  0  3  0  0  0  0  0  0
  -28.4100  -18.7380   20.0220 C   0  0  0  0  0  3  0  0  0  0  0  0
  -31.1210  -17.7210   20.0210 C   0  0  0  0  0  2  0  0  0  0  0  0
  -28.7840  -17.1270   20.2480 C   0  0  0  0  0  3  0  0  0  0  0  0
  -29.4290  -19.8930   20.4640 C   0  0  0  0  0  0  0  0  0  0  0  0
  -30.1600  -16.5200   19.9700 N   0  0  0  0  0  0  0  0  0  0  0  0
  -25.3400  -13.9540   20.3770 C   0  0  0  0  0  0  0  0  0  0  0  0
  -24.2910  -13.1860   20.7980 C   0  0  0  0  0  0  0  0  0  0  0  0
  -24.7340  -11.8300   20.7130 C   0  0  0  0  0  0  0  0  0  0  0  0
  -26.3500  -13.0680   20.0510 N   0  0  0  0  0  0  0  0  0  0  0  0
  -26.0030  -11.7830   20.3210 N   0  0  0  0  0  0  0  0  0  0  0  0
  -24.0000  -10.5750   20.9220 C   0  0  0  0  0  0  0  0  0  0  0  0
  -24.4580   -9.5920   21.8270 C   0  0  0  0  0  3  0  0  0  0  0  0
  -23.7210   -8.4050   22.0270 C   0  0  0  0  0  3  0  0  0  0  0  0
  -22.5120   -8.1920   21.3230 C   0  0  0  0  0  0  0  0  0  0  0  0
  -22.0730   -9.1630   20.4060 C   0  0  0  0  0  3  0  0  0  0  0  0
  -22.8100  -10.3420   20.2040 C   0  0  0  0  0  3  0  0  0  0  0  0
  -21.7430   -7.0590   21.4350 O   0  0  0  0  0  0  0  0  0  0  0  0
  -21.7280   -6.3100   22.5850 C   0  0  0  0  0  0  0  0  0  0  0  0
  -21.3600   -6.8670   23.8300 C   0  0  0  0  0  3  0  0  0  0  0  0
  -21.2900   -6.0460   24.9740 C   0  0  0  0  0  3  0  0  0  0  0  0
  -21.5750   -4.6710   24.8750 C   0  0  0  0  0  0  0  0  0  0  0  0
  -21.9360   -4.1150   23.6340 C   0  0  0  0  0  3  0  0  0  0  0  0
  -22.0080   -4.9330   22.4920 C   0  0  0  0  0  0  0  0  0  0  0  0
  -22.3340   -4.3880   21.2960 F   0  0  0  0  0  0  0  0  0  0  0  0
  -21.5010   -3.8820   25.9710 F   0  0  0  0  0  0  0  0  0  0  0  0
  -22.9210  -13.6800   21.1600 C   0  0  0  0  0  0  0  0  0  0  0  0
  -22.2440  -12.9920   22.0720 N   0  0  0  0  0  0  0  0  0  0  0  0
  -22.4650  -14.7110   20.6670 O   0  0  0  0  0  0  0  0  0  0  0  0
  -22.6310  -12.1580   22.4900 H   0  0  0  0  0  0  0  0  0  0  0  0
  -21.3270  -13.3040   22.3570 H   0  0  0  0  0  0  0  0  0  0  0  0
  -25.5100  -15.3250   20.2150 N   0  0  0  0  0  0  0  0  0  0  0  0
  -24.7580  -15.9840   20.3860 H   0  0  0  0  0  0  0  0  0  0  0  0
  -26.3370  -15.7590   19.8290 H   0  0  0  0  0  0  0  0  0  0  0  0
  -30.1640  -22.0210   21.6310 C   0  0  0  0  0  2  0  0  0  0  0  0
  -29.8020  -21.8590   23.1180 C   0  0  0  0  0  2  0  0  0  0  0  0
  -30.6230  -22.0620   25.5290 C   0  0  0  0  0  1  0  0  0  0  0  0
  -30.9640  -22.2470   24.0460 C   0  0  0  0  0  2  0  0  0  0  0  0
  -28.6150  -22.7540   19.8030 C   0  0  0  0  0  2  0  0  0  0  0  0
  -28.0830  -24.3650   20.3450 C   0  0  0  0  0  2  0  0  0  0  0  0
  -28.2540  -25.9660   20.1950 O   0  0  0  0  0  0  0  0  0  0  0  0
  -24.6340  -31.7860   23.1820 C   0  0  0  0  0  0  0  0  0  0  0  0
  -27.1980  -26.9840   20.1700 C   0  0  0  0  0  0  0  0  0  0  0  0
  -23.4340  -30.3830   21.5520 C   0  0  0  0  0  3  0  0  0  0  0  0
  -24.8810  -28.7900   20.1300 C   0  0  0  0  0  0  0  0  0  0  0  0
  -25.9930  -30.6280   21.3850 C   0  0  0  0  0  2  0  0  0  0  0  0
  -26.0660  -29.2240   20.7360 C   0  0  0  0  0  0  0  0  0  0  0  0
  -27.2250  -28.3420   20.7270 C   0  0  0  0  0  3  0  0  0  0  0  0
  -25.9820  -26.6690   19.5290 C   0  0  0  0  0  3  0  0  0  0  0  0
  -24.8570  -27.5300   19.5070 C   0  0  0  0  0  3  0  0  0  0  0  0
  -23.6570  -29.6980   20.1760 C   0  0  0  0  0  2  0  0  0  0  0  0
  -24.7080  -30.9580   22.0940 N   0  0  0  0  0  0  0  0  0  0  0  0
  -23.5470  -32.0720   23.7100 O   0  0  0  0  0  0  0  0  0  0  0  0
  -22.7550  -29.3830   22.5220 C   0  0  0  0  0  0  0  0  0  0  0  0
  -21.4310  -29.1860   22.3800 N   0  0  0  0  0  0  0  0  0  0  0  0
  -23.4240  -28.7830   23.3680 O   0  0  0  0  0  0  0  0  0  0  0  0
  -20.9460  -29.7220   21.6750 H   0  0  0  0  0  0  0  0  0  0  0  0
  -18.0810  -27.8690   22.8080 C   0  0  0  0  0  0  0  0  0  0  0  0
  -20.6180  -28.2440   23.1540 C   0  0  0  0  0  3  0  0  0  0  0  0
  -20.7950  -26.7980   22.6330 C   0  0  0  0  0  2  0  0  0  0  0  0
  -19.7440  -26.3980   21.5930 C   0  0  0  0  0  2  0  0  0  0  0  0
  -18.3350  -26.5080   22.1830 C   0  0  0  0  0  2  0  0  0  0  0  0
  -19.1530  -28.6910   23.2490 C   0  0  0  0  0  0  0  0  0  0  0  0
  -18.8610  -29.9590   23.7950 C   0  0  0  0  0  3  0  0  0  0  0  0
  -17.5310  -30.4090   23.9020 C   0  0  0  0  0  3  0  0  0  0  0  0
  -16.4750  -29.5860   23.4770 C   0  0  0  0  0  3  0  0  0  0  0  0
  -16.7500  -28.3180   22.9360 C   0  0  0  0  0  3  0  0  0  0  0  0
  -25.9090  -32.4320   23.8060 C   0  0  0  0  0  3  0  0  0  0  0  0
  -25.5870  -33.8280   24.1470 N   0  0  0  0  0  0  0  0  0  0  0  0
  -25.9170  -34.8930   23.4050 C   0  0  0  0  0  0  0  0  0  0  0  0
  -26.5880  -34.8040   22.3720 O   0  0  0  0  0  0  0  0  0  0  0  0
  -24.9910  -33.9700   24.9490 H   0  0  0  0  0  0  0  0  0  0  0  0
  -24.1800  -36.6870   23.0810 C   0  0  0  0  0  1  0  0  0  0  0  0
  -25.4270  -36.2770   23.8790 C   0  0  0  0  0  3  0  0  0  0  0  0
  -27.5640  -37.1640   24.7050 C   0  0  0  0  0  1  0  0  0  0  0  0
  -26.4550  -37.3360   23.7700 N   0  0  0  0  0  0  0  0  0  0  0  0
  -26.0460  -38.2530   23.9290 H   0  0  0  0  0  0  0  0  0  0  0  0
  -26.4280  -31.6650   25.0860 C   0  0  1  0  0  0  0  0  0  0  0  0
  -25.3360  -31.4260   26.1560 C   0  0  0  0  0  1  0  0  0  0  0  0
  -27.0180  -30.2890   24.7030 C   0  0  0  0  0  1  0  0  0  0  0  0
  -27.5750  -32.4660   25.7450 C   0  0  0  0  0  1  0  0  0  0  0  0
  1  2  1  1
  1 45  1  0
  3 16  1  0
  4  9  1  0
  5  6  1  0
  5  4  1  0
  7  6  1  0
  7 20  1  0
  7  8  1  0
  9  3  1  0
  9  8  1  0
 10  3  2  0
 11 13  1  0
 11 15  2  0
 12 14  2  0
 12 15  1  0
 15  1  1  0
 16 13  1  0
 16 14  1  0
 17 18  2  0
 18 37  1  0
 19 18  1  0
 19 22  1  0
 20 21  1  0
 20 17  1  0
 21 19  2  0
 22 23  1  0
 23 24  2  0
 25 28  1  0
 25 24  1  0
 26 25  2  0
 27 26  1  0
 27 22  2  0
 28 29  1  0
 29 30  1  0
 30 31  2  0
 32 31  1  0
 32 36  1  0
 33 32  2  0
 34 29  2  0
 34 33  1  0
 35 34  1  0
 37 38  1  0
 38 41  1  0
 38 40  1  0
 39 37  2  0
 42 17  1  0
 42 43  1  0
 44 42  1  0
 45 46  1  0
 46 48  1  0
 48 47  1  0
 49 50  1  0
 49  1  1  0
 51 50  1  0
 52 63  2  0
 53 51  1  0
 53 58  1  0
 54 62  1  0
 54 64  1  0
 55 61  1  0
 55 57  1  0
 56 62  1  0
 57 56  1  0
 58 57  2  0
 59 53  2  0
 60 59  1  0
 60 55  2  0
 61 54  1  0
 62 52  1  0
 64 66  2  0
 65 64  1  0
 67 65  1  0
 68 77  2  0
 68 73  1  0
 69 65  1  0
 69 73  1  0
 70 69  1  0
 71 72  1  0
 71 70  1  0
 72 68  1  0
 73 74  2  0
 74 75  1  0
 76 75  2  0
 77 76  1  0
 78 52  1  0
 78 79  1  0
 78 88  1  0
 79 82  1  0
 80 84  1  0
 80 79  1  0
 81 80  2  0
 84 83  1  0
 86 84  1  0
 86 87  1  0
 86 85  1  0
 88 91  1  1
 88 89  1  0
 90 88  1  0
M  ISO  4   3 100  16 100  50 101  51 101
M  END
>  <TORSDO>  (55) 
F 21

>  <SCORE>  (55) 
-13.721

>  <name>  (55) 
58

>  <ligand_id>  (55) 
58

>  <original_smiles>  (55) 
[H]c1c([H])c([H])c2c(c1[H])C([H])([H])C([H])([H])C([H])([H])C2([H])N([H])C(=O)C1([H])N(C(=O)C([H])(N([H])C(=O)C([H])(N([H])C([H])([H])[H])C([H])([H])[H])C(C([H])([H])[H])(C([H])([H])[H])C([H])([H])[H])C([H])([H])c2c([H])c(OC([H])([H])C([H])([H])[N+]([H])(C([H])([H])C([H])([H])C([H])([H])C([H])([H])[H])C3([H])C([H])([H])C([H])([H])N(C(=O)N4C([H])([H])C([H])([H])C([H])([H])C([H])(n5nc(-c6c([H])c([H])c(Oc7c([H])c([H])c(F)c([H])c7F)c([H])c6[H])c(C(=O)N([H])[H])c5N([H])[H])C4([H])[H])C([H])([H])C3([H])[H])c([H])c([H])c2C1([H])[H]

>  <smiles>  (55) 
[H]c1c([H])c([H])c2c(c1[H])C([H])([H])C([H])([H])C([H])([H])C2([H])N([H])C(=O)C1([H])N(C(=O)C([H])(N([H])C(=O)C([H])(N([H])C([H])([H])[H])C([H])([H])[H])C(C([H])([H])[H])(C([H])([H])[H])C([H])([H])[H])C([H])([H])c2c([H])c(OC([H])([H])C([H])([H])[N+]([H])(C([H])([H])C([H])([H])C([H])([H])C([H])([H])[H])C3([H])C([H])([H])C([H])([H])N(C(=O)N4C([H])([H])C([H])([H])C([H])([H])C([H])(n5nc(-c6c([H])c([H])c(Oc7c([H])c([H])c(F)c([H])c7F)c([H])c6[H])c(C(=O)N([H])[H])c5N([H])[H])C4([H])[H])C([H])([H])C3([H])[H])c([H])c([H])c2C1([H])[H]

$$$$
59:0:0
     RDKit          3D

104113  0  0  1  0  0  0  0  0999 V2000
  -31.0840  -15.2560   19.5030 C   0  0  0  0  0  0  0  0  0  0  0  0
  -30.9290  -12.7420   18.7390 C   0  0  0  0  0  2  0  0  0  0  0  0
  -29.9120  -12.4120   17.6160 C   0  0  0  0  0  2  0  0  0  0  0  0
  -28.5150  -12.1580   18.2040 C   0  0  0  0  0  2  0  0  0  0  0  0
  -28.1610  -13.1960   19.2920 C   0  0  0  0  0  3  0  0  0  0  0  0
  -29.3030  -13.4470   20.3010 C   0  0  0  0  0  2  0  0  0  0  0  0
  -30.4490  -13.9580   19.5210 N   0  0  0  0  0  0  0  0  0  0  0  0
  -32.2780  -15.1180   19.1810 O   0  0  0  0  0  0  0  0  0  0  0  0
  -33.2710  -22.1940   19.1190 C   0  0  0  0  0  2  0  0  0  0  0  0
  -32.4120  -22.1850   17.8360 C   0  0  0  0  0  2  0  0  0  0  0  0
  -30.2810  -19.3530   18.2870 C   0  0  0  0  0  2  0  0  0  0  0  0
  -29.6490  -19.3670   20.4230 C   0  0  0  0  0  2  0  0  0  0  0  0
  -30.8590  -17.7510   18.4250 C   0  0  0  0  0  2  0  0  0  0  0  0
  -32.7000  -21.4120   20.3200 C   0  0  0  0  0  2  0  0  0  0  0  0
  -30.9690  -22.7370   17.9290 C   0  0  0  0  0  3  0  0  0  0  0  0
  -30.1420  -22.4120   19.2170 C   0  0  0  0  0  3  0  0  0  0  0  0
  -30.1870  -17.7190   20.6290 C   0  0  0  0  0  3  0  0  0  0  0  0
  -30.3800  -20.5080   19.4630 C   0  0  2  0  0  0  0  0  0  0  0  0
  -30.4680  -16.6640   19.4780 N   0  0  0  0  0  0  0  0  0  0  0  0
  -31.7960  -20.3060   19.9260 N   0  0  0  0  0  4  0  0  0  0  0  0
  -31.7360  -19.7220   20.7450 H   0  0  0  0  0  0  0  0  0  0  0  0
  -32.2800  -19.7570   19.2350 H   0  0  0  0  0  0  0  0  0  0  0  0
  -31.0570  -24.2210   17.6520 C   0  0  0  0  0  0  0  0  0  0  0  0
  -30.3970  -24.7350   16.6030 N   0  0  0  0  0  4  0  0  0  0  0  0
  -31.8510  -25.0140   18.3920 N   0  0  0  0  0  0  0  0  0  0  0  0
  -29.8370  -24.1460   16.0020 H   0  0  0  0  0  0  0  0  0  0  0  0
  -30.4360  -25.7120   16.3510 H   0  0  0  0  0  0  0  0  0  0  0  0
  -32.3820  -24.6470   19.1660 H   0  0  0  0  0  0  0  0  0  0  0  0
  -31.9180  -26.0090   18.2370 H   0  0  0  0  0  0  0  0  0  0  0  0
  -25.9740  -13.8460   20.4170 C   0  0  0  0  0  0  0  0  0  0  0  0
  -24.8940  -13.1220   20.8350 C   0  0  0  0  0  0  0  0  0  0  0  0
  -25.2200  -11.7510   20.5990 C   0  0  0  0  0  0  0  0  0  0  0  0
  -26.8850  -12.9230   19.9410 N   0  0  0  0  0  0  0  0  0  0  0  0
  -26.4550  -11.6460   20.1190 N   0  0  0  0  0  0  0  0  0  0  0  0
  -24.4010  -10.5400   20.7460 C   0  0  0  0  0  0  0  0  0  0  0  0
  -24.7540   -9.5110   21.6460 C   0  0  0  0  0  3  0  0  0  0  0  0
  -23.9350   -8.3690   21.7860 C   0  0  0  0  0  3  0  0  0  0  0  0
  -22.7480   -8.2490   21.0240 C   0  0  0  0  0  0  0  0  0  0  0  0
  -22.4130   -9.2650   20.1130 C   0  0  0  0  0  3  0  0  0  0  0  0
  -23.2320  -10.3990   19.9710 C   0  0  0  0  0  3  0  0  0  0  0  0
  -21.9070   -7.1630   21.0730 O   0  0  0  0  0  0  0  0  0  0  0  0
  -21.6500   -6.5030   22.2480 C   0  0  0  0  0  0  0  0  0  0  0  0
  -21.0560   -7.1530   23.3530 C   0  0  0  0  0  3  0  0  0  0  0  0
  -20.7460   -6.4210   24.5160 C   0  0  0  0  0  3  0  0  0  0  0  0
  -21.0200   -5.0430   24.5760 C   0  0  0  0  0  0  0  0  0  0  0  0
  -21.6070   -4.3930   23.4750 C   0  0  0  0  0  3  0  0  0  0  0  0
  -21.9180   -5.1210   22.3140 C   0  0  0  0  0  0  0  0  0  0  0  0
  -22.4640   -4.4860   21.2490 F   0  0  0  0  0  0  0  0  0  0  0  0
  -20.7160   -4.3380   25.6900 F   0  0  0  0  0  0  0  0  0  0  0  0
  -23.5910  -13.6810   21.3270 C   0  0  0  0  0  0  0  0  0  0  0  0
  -22.9140  -12.9650   22.2170 N   0  0  0  0  0  0  0  0  0  0  0  0
  -23.1930  -14.7860   20.9590 O   0  0  0  0  0  0  0  0  0  0  0  0
  -23.2500  -12.0700   22.5370 H   0  0  0  0  0  0  0  0  0  0  0  0
  -22.0430  -13.3210   22.5860 H   0  0  0  0  0  0  0  0  0  0  0  0
  -26.2470  -15.2100   20.3650 N   0  0  0  0  0  0  0  0  0  0  0  0
  -25.5380  -15.8950   20.6030 H   0  0  0  0  0  0  0  0  0  0  0  0
  -27.0280  -15.6080   19.8620 H   0  0  0  0  0  0  0  0  0  0  0  0
  -29.0040  -23.8870   19.2900 C   0  0  0  0  0  2  0  0  0  0  0  0
  -29.2060  -25.5600   19.5650 O   0  0  0  0  0  0  0  0  0  0  0  0
  -25.6580  -30.9080   23.7190 C   0  0  0  0  0  0  0  0  0  0  0  0
  -28.2280  -26.7090   19.7370 C   0  0  0  0  0  0  0  0  0  0  0  0
  -24.5180  -29.9870   21.7430 C   0  0  0  0  0  3  0  0  0  0  0  0
  -25.9950  -28.6920   20.0450 C   0  0  0  0  0  0  0  0  0  0  0  0
  -27.0970  -30.1020   21.7680 C   0  0  0  0  0  2  0  0  0  0  0  0
  -27.1610  -28.8760   20.7970 C   0  0  0  0  0  0  0  0  0  0  0  0
  -28.2710  -27.9160   20.6180 C   0  0  0  0  0  3  0  0  0  0  0  0
  -27.0340  -26.7040   18.9780 C   0  0  0  0  0  3  0  0  0  0  0  0
  -25.9630  -27.6330   19.1210 C   0  0  0  0  0  3  0  0  0  0  0  0
  -24.8050  -29.6340   20.2570 C   0  0  0  0  0  2  0  0  0  0  0  0
  -25.7780  -30.3480   22.4700 N   0  0  0  0  0  0  0  0  0  0  0  0
  -24.5500  -31.1120   24.2420 O   0  0  0  0  0  0  0  0  0  0  0  0
  -23.7380  -28.8260   22.4140 C   0  0  0  0  0  0  0  0  0  0  0  0
  -22.4160  -28.7320   22.1690 N   0  0  0  0  0  0  0  0  0  0  0  0
  -24.3330  -28.0140   23.1270 O   0  0  0  0  0  0  0  0  0  0  0  0
  -21.9900  -29.4410   21.5880 H   0  0  0  0  0  0  0  0  0  0  0  0
  -18.9880  -27.5410   22.1930 C   0  0  0  0  0  0  0  0  0  0  0  0
  -21.5310  -27.6680   22.6540 C   0  0  0  0  0  3  0  0  0  0  0  0
  -21.6450  -26.4050   21.7690 C   0  0  0  0  0  2  0  0  0  0  0  0
  -20.6040  -26.3580   20.6460 C   0  0  0  0  0  2  0  0  0  0  0  0
  -19.1870  -26.3850   21.2270 C   0  0  0  0  0  2  0  0  0  0  0  0
  -20.0880  -28.1530   22.8500 C   0  0  0  0  0  0  0  0  0  0  0  0
  -19.8470  -29.2430   23.7150 C   0  0  0  0  0  3  0  0  0  0  0  0
  -18.5400  -29.7200   23.9260 C   0  0  0  0  0  3  0  0  0  0  0  0
  -17.4530  -29.1020   23.2810 C   0  0  0  0  0  3  0  0  0  0  0  0
  -17.6780  -28.0130   22.4220 C   0  0  0  0  0  3  0  0  0  0  0  0
  -26.9060  -31.3350   24.5480 C   0  0  0  0  0  3  0  0  0  0  0  0
  -27.2470  -30.3280   25.7170 C   0  0  1  0  0  0  0  0  0  0  0  0
  -26.0470  -30.0150   26.6420 C   0  0  0  0  0  1  0  0  0  0  0  0
  -27.7640  -28.9840   25.1550 C   0  0  0  0  0  1  0  0  0  0  0  0
  -28.3860  -30.9040   26.5900 C   0  0  0  0  0  1  0  0  0  0  0  0
  -26.6500  -32.6780   25.1020 N   0  0  0  0  0  0  0  0  0  0  0  0
  -27.1240  -33.8240   24.5960 C   0  0  0  0  0  0  0  0  0  0  0  0
  -27.8830  -33.8560   23.6240 O   0  0  0  0  0  0  0  0  0  0  0  0
  -25.9880  -32.7310   25.8630 H   0  0  0  0  0  0  0  0  0  0  0  0
  -25.5870  -35.8150   24.4420 C   0  0  0  0  0  1  0  0  0  0  0  0
  -26.6930  -35.1430   25.2720 C   0  0  0  0  0  3  0  0  0  0  0  0
  -28.7680  -35.6610   26.4800 C   0  0  0  0  0  1  0  0  0  0  0  0
  -27.8060  -36.0970   25.4710 N   0  0  0  0  0  0  0  0  0  0  0  0
  -27.4540  -37.0110   25.7430 H   0  0  0  0  0  0  0  0  0  0  0  0
  -29.3260  -17.0040   21.7070 C   0  0  0  0  0  2  0  0  0  0  0  0
  -29.6540  -17.3690   23.0990 N   0  0  0  0  0  4  0  0  0  0  0  0
  -30.6090  -17.1490   23.3240 H   0  0  0  0  0  0  0  0  0  0  0  0
  -29.0720  -16.8430   23.7270 H   0  0  0  0  0  0  0  0  0  0  0  0
  -29.4870  -18.3410   23.2810 H   0  0  0  0  0  0  0  0  0  0  0  0
  1  7  1  0
  2  7  1  0
  3  4  1  0
  3  2  1  0
  5  4  1  0
  5 33  1  0
  5  6  1  0
  7  6  1  0
  8  1  2  0
  9 14  1  0
 10 15  1  0
 10  9  1  0
 11 13  1  0
 12 17  1  0
 13 19  1  0
 15 23  1  0
 15 16  1  0
 16 58  1  0
 16 18  1  0
 17100  1  0
 18 11  1  6
 18 20  1  0
 18 12  1  0
 19  1  1  0
 19 17  1  0
 20 14  1  0
 20 21  1  0
 22 20  1  0
 23 25  1  0
 24 23  2  0
 25 28  1  0
 26 24  1  0
 27 24  1  0
 29 25  1  0
 30 31  2  0
 31 50  1  0
 32 35  1  0
 32 31  1  0
 33 34  1  0
 33 30  1  0
 34 32  2  0
 35 36  1  0
 36 37  2  0
 38 41  1  0
 38 37  1  0
 39 38  2  0
 40 39  1  0
 40 35  2  0
 41 42  1  0
 42 47  2  0
 42 43  1  0
 43 44  2  0
 44 45  1  0
 45 49  1  0
 46 45  2  0
 47 46  1  0
 48 47  1  0
 50 51  1  0
 51 53  1  0
 51 54  1  0
 52 50  2  0
 55 30  1  0
 55 56  1  0
 57 55  1  0
 58 59  1  0
 59 61  1  0
 60 71  2  0
 61 66  1  0
 62 72  1  0
 62 70  1  0
 63 69  1  0
 63 65  1  0
 64 70  1  0
 65 64  1  0
 66 65  2  0
 67 68  1  0
 67 61  2  0
 68 63  2  0
 69 62  1  0
 70 60  1  0
 72 74  2  0
 73 72  1  0
 75 73  1  0
 76 85  2  0
 76 81  1  0
 77 73  1  0
 77 81  1  0
 78 77  1  0
 79 80  1  0
 79 78  1  0
 80 76  1  0
 81 82  2  0
 82 83  1  0
 84 83  2  0
 85 84  1  0
 86 60  1  0
 86 91  1  0
 86 87  1  0
 87 90  1  1
 87 88  1  0
 89 87  1  0
 91 94  1  0
 92 91  1  0
 92 96  1  0
 93 92  2  0
 96 95  1  0
 96 98  1  0
 98 99  1  0
 98 97  1  0
100101  1  0
101104  1  0
101102  1  0
101103  1  0
M  ISO  4   1 100  19 100  58 101  59 101
M  END
>  <TORSDO>  (56) 
F 19

>  <SCORE>  (56) 
-10.186

>  <name>  (56) 
59

>  <ligand_id>  (56) 
59

>  <original_smiles>  (56) 
[H]c1c([H])c([H])c2c(c1[H])C([H])([H])C([H])([H])C([H])([H])C2([H])N([H])C(=O)C1([H])N(C(=O)C([H])(N([H])C(=O)C([H])(N([H])C([H])([H])[H])C([H])([H])[H])C(C([H])([H])[H])(C([H])([H])[H])C([H])([H])[H])C([H])([H])c2c([H])c(OC([H])([H])C3([H])C([H])(C(N([H])[H])=[N+]([H])[H])C([H])([H])C([H])([H])C([H])([H])[N+]([H])([H])C34C([H])([H])C([H])([H])N(C(=O)N3C([H])([H])C([H])([H])C([H])([H])C([H])(n5nc(-c6c([H])c([H])c(Oc7c([H])c([H])c(F)c([H])c7F)c([H])c6[H])c(C(=O)N([H])[H])c5N([H])[H])C3([H])[H])C([H])(C([H])([H])[N+]([H])([H])[H])C4([H])[H])c([H])c([H])c2C1([H])[H]

>  <smiles>  (56) 
[H]c1c([H])c([H])c2c(c1[H])C([H])([H])C([H])([H])C([H])([H])C2([H])N([H])C(=O)C1([H])N(C(=O)C([H])(N([H])C(=O)C([H])(N([H])C([H])([H])[H])C([H])([H])[H])C(C([H])([H])[H])(C([H])([H])[H])C([H])([H])[H])C([H])([H])c2c([H])c(OC([H])([H])C3([H])C([H])(C(N([H])[H])=[N+]([H])[H])C([H])([H])C([H])([H])C([H])([H])[N+]([H])([H])C34C([H])([H])C([H])([H])N(C(=O)N3C([H])([H])C([H])([H])C([H])([H])C([H])(n5nc(-c6c([H])c([H])c(Oc7c([H])c([H])c(F)c([H])c7F)c([H])c6[H])c(C(=O)N([H])[H])c5N([H])[H])C3([H])[H])C([H])(C([H])([H])[N+]([H])([H])[H])C4([H])[H])c([H])c([H])c2C1([H])[H]

$$$$
60:0:0
     RDKit          3D

 92100  0  0  1  0  0  0  0  0999 V2000
  -28.9350  -20.9060   20.6730 N   0  0  1  0  0  4  0  0  0  0  0  0
  -27.9300  -20.7920   20.7180 H   0  0  0  0  0  0  0  0  0  0  0  0
  -30.5380  -15.5430   20.1730 C   0  0  0  0  0  0  0  0  0  0  0  0
  -30.4920  -13.0730   19.2810 C   0  0  0  0  0  2  0  0  0  0  0  0
  -29.5650  -12.7500   18.0810 C   0  0  0  0  0  2  0  0  0  0  0  0
  -28.1530  -12.4160   18.5780 C   0  0  0  0  0  2  0  0  0  0  0  0
  -27.6830  -13.4070   19.6700 C   0  0  0  0  0  3  0  0  0  0  0  0
  -28.7440  -13.6800   20.7600 C   0  0  0  0  0  2  0  0  0  0  0  0
  -29.9190  -14.2470   20.0670 N   0  0  0  0  0  0  0  0  0  0  0  0
  -31.7600  -15.4330   19.9800 O   0  0  0  0  0  0  0  0  0  0  0  0
  -30.6560  -18.3740   20.2390 C   0  0  0  0  0  2  0  0  0  0  0  0
  -28.7580  -17.8520   20.6590 C   0  0  0  0  0  2  0  0  0  0  0  0
  -29.3100  -19.3200   20.0750 C   0  0  0  0  0  3  0  0  0  0  0  0
  -29.9600  -16.9610   20.1880 N   0  0  0  0  0  0  0  0  0  0  0  0
  -25.3410  -13.9180   20.5200 C   0  0  0  0  0  0  0  0  0  0  0  0
  -24.2950  -13.1250   20.8990 C   0  0  0  0  0  0  0  0  0  0  0  0
  -24.7700  -11.7790   20.8200 C   0  0  0  0  0  0  0  0  0  0  0  0
  -26.3800  -13.0580   20.2200 N   0  0  0  0  0  0  0  0  0  0  0  0
  -26.0530  -11.7620   20.4690 N   0  0  0  0  0  0  0  0  0  0  0  0
  -24.0540  -10.5090   20.9990 C   0  0  0  0  0  0  0  0  0  0  0  0
  -24.4780   -9.5450   21.9400 C   0  0  0  0  0  3  0  0  0  0  0  0
  -23.7580   -8.3430   22.1080 C   0  0  0  0  0  3  0  0  0  0  0  0
  -22.6020   -8.0930   21.3320 C   0  0  0  0  0  0  0  0  0  0  0  0
  -22.1970   -9.0450   20.3780 C   0  0  0  0  0  3  0  0  0  0  0  0
  -22.9190  -10.2380   20.2100 C   0  0  0  0  0  3  0  0  0  0  0  0
  -21.8560   -6.9420   21.4080 O   0  0  0  0  0  0  0  0  0  0  0  0
  -21.7460   -6.2300   22.5740 C   0  0  0  0  0  0  0  0  0  0  0  0
  -21.1990   -6.7980   23.7440 C   0  0  0  0  0  3  0  0  0  0  0  0
  -21.0420   -6.0110   24.9030 C   0  0  0  0  0  3  0  0  0  0  0  0
  -21.4220   -4.6550   24.8890 C   0  0  0  0  0  0  0  0  0  0  0  0
  -21.9620   -4.0850   23.7240 C   0  0  0  0  0  3  0  0  0  0  0  0
  -22.1210   -4.8700   22.5670 C   0  0  0  0  0  0  0  0  0  0  0  0
  -22.6240   -4.3110   21.4400 F   0  0  0  0  0  0  0  0  0  0  0  0
  -21.2630   -3.8950   25.9980 F   0  0  0  0  0  0  0  0  0  0  0  0
  -22.9040  -13.5890   21.2160 C   0  0  0  0  0  0  0  0  0  0  0  0
  -22.1940  -12.8630   22.0710 N   0  0  0  0  0  0  0  0  0  0  0  0
  -22.4570  -14.6330   20.7400 O   0  0  0  0  0  0  0  0  0  0  0  0
  -22.5660  -12.0180   22.4770 H   0  0  0  0  0  0  0  0  0  0  0  0
  -21.2630  -13.1590   22.3240 H   0  0  0  0  0  0  0  0  0  0  0  0
  -25.4880  -15.2950   20.3750 N   0  0  0  0  0  0  0  0  0  0  0  0
  -24.7130  -15.9310   20.5270 H   0  0  0  0  0  0  0  0  0  0  0  0
  -26.3110  -15.7510   20.0040 H   0  0  0  0  0  0  0  0  0  0  0  0
  -29.3150  -21.0030   22.1040 C   0  0  0  0  0  2  0  0  0  0  0  0
  -30.8360  -21.1720   22.3320 C   0  0  0  0  0  2  0  0  0  0  0  0
  -31.2100  -21.1670   23.8250 C   0  0  0  0  0  2  0  0  0  0  0  0
  -32.6670  -21.1100   24.0430 N   0  0  0  0  0  4  0  0  0  0  0  0
  -33.0540  -20.2560   23.6820 H   0  0  0  0  0  0  0  0  0  0  0  0
  -32.8650  -21.1450   25.0270 H   0  0  0  0  0  0  0  0  0  0  0  0
  -33.1310  -21.8860   23.6060 H   0  0  0  0  0  0  0  0  0  0  0  0
  -28.9530  -22.4980   20.0150 C   0  0  0  0  0  3  0  0  0  0  0  0
  -28.1170  -24.1060   20.4940 C   0  0  0  0  0  3  0  0  0  0  0  0
  -28.2720  -25.7880   20.2440 O   0  0  0  0  0  0  0  0  0  0  0  0
  -24.6590  -31.8840   23.1650 C   0  0  0  0  0  0  0  0  0  0  0  0
  -27.2520  -26.9150   20.2260 C   0  0  0  0  0  0  0  0  0  0  0  0
  -23.4790  -30.4560   21.5420 C   0  0  0  0  0  3  0  0  0  0  0  0
  -24.9450  -28.8330   20.1450 C   0  0  0  0  0  0  0  0  0  0  0  0
  -26.0470  -30.6720   21.3960 C   0  0  0  0  0  2  0  0  0  0  0  0
  -26.1330  -29.2420   20.7620 C   0  0  0  0  0  0  0  0  0  0  0  0
  -27.2800  -28.3100   20.7660 C   0  0  0  0  0  3  0  0  0  0  0  0
  -26.0280  -26.6810   19.5570 C   0  0  0  0  0  3  0  0  0  0  0  0
  -24.9230  -27.5770   19.5160 C   0  0  0  0  0  3  0  0  0  0  0  0
  -23.7210  -29.7540   20.1750 C   0  0  0  0  0  2  0  0  0  0  0  0
  -24.7510  -31.0350   22.0870 N   0  0  0  0  0  0  0  0  0  0  0  0
  -23.5660  -32.1680   23.6830 O   0  0  0  0  0  0  0  0  0  0  0  0
  -22.7880  -29.4700   22.5230 C   0  0  0  0  0  0  0  0  0  0  0  0
  -21.4580  -29.2910   22.4040 N   0  0  0  0  0  0  0  0  0  0  0  0
  -23.4590  -28.8660   23.3640 O   0  0  0  0  0  0  0  0  0  0  0  0
  -20.9650  -29.8390   21.7120 H   0  0  0  0  0  0  0  0  0  0  0  0
  -18.0910  -28.0370   22.9350 C   0  0  0  0  0  0  0  0  0  0  0  0
  -20.6480  -28.3480   23.1870 C   0  0  0  0  0  3  0  0  0  0  0  0
  -20.7680  -26.9100   22.6270 C   0  0  0  0  0  2  0  0  0  0  0  0
  -19.6680  -26.5590   21.6180 C   0  0  0  0  0  2  0  0  0  0  0  0
  -18.2870  -26.6860   22.2670 C   0  0  0  0  0  2  0  0  0  0  0  0
  -19.1990  -28.8240   23.3530 C   0  0  0  0  0  0  0  0  0  0  0  0
  -18.9570  -30.0830   23.9430 C   0  0  0  0  0  3  0  0  0  0  0  0
  -17.6430  -30.5600   24.1130 C   0  0  0  0  0  3  0  0  0  0  0  0
  -16.5520  -29.7720   23.7080 C   0  0  0  0  0  3  0  0  0  0  0  0
  -16.7780  -28.5120   23.1270 C   0  0  0  0  0  3  0  0  0  0  0  0
  -25.9210  -32.5490   23.7920 C   0  0  0  0  0  3  0  0  0  0  0  0
  -25.5830  -33.9470   24.1240 N   0  0  0  0  0  0  0  0  0  0  0  0
  -25.9140  -35.0140   23.3850 C   0  0  0  0  0  0  0  0  0  0  0  0
  -26.5960  -34.9270   22.3610 O   0  0  0  0  0  0  0  0  0  0  0  0
  -24.9780  -34.0850   24.9200 H   0  0  0  0  0  0  0  0  0  0  0  0
  -24.1980  -36.8220   23.0220 C   0  0  0  0  0  1  0  0  0  0  0  0
  -25.4170  -36.3970   23.8560 C   0  0  0  0  0  3  0  0  0  0  0  0
  -27.5220  -37.2840   24.7600 C   0  0  0  0  0  1  0  0  0  0  0  0
  -26.4520  -37.4520   23.7830 N   0  0  0  0  0  0  0  0  0  0  0  0
  -26.0400  -38.3710   23.9160 H   0  0  0  0  0  0  0  0  0  0  0  0
  -26.4390  -31.8000   25.0820 C   0  0  1  0  0  0  0  0  0  0  0  0
  -25.3440  -31.5600   26.1480 C   0  0  0  0  0  1  0  0  0  0  0  0
  -27.0430  -30.4240   24.7170 C   0  0  0  0  0  1  0  0  0  0  0  0
  -27.5730  -32.6170   25.7430 C   0  0  0  0  0  1  0  0  0  0  0  0
  1  2  1  1
  1 43  1  0
  3 14  1  0
  4  9  1  0
  5  6  1  0
  5  4  1  0
  7  6  1  0
  7 18  1  0
  7  8  1  0
  9  3  1  0
  9  8  1  0
 10  3  2  0
 13 11  1  0
 13 12  1  0
 13  1  1  0
 14 11  1  0
 14 12  1  0
 15 16  2  0
 16 35  1  0
 17 16  1  0
 17 20  1  0
 18 19  1  0
 18 15  1  0
 19 17  2  0
 20 21  1  0
 21 22  2  0
 23 26  1  0
 23 22  1  0
 24 23  2  0
 25 24  1  0
 25 20  2  0
 26 27  1  0
 27 28  1  0
 28 29  2  0
 30 29  1  0
 30 34  1  0
 31 30  2  0
 32 27  2  0
 32 31  1  0
 33 32  1  0
 35 36  1  0
 36 39  1  0
 36 38  1  0
 37 35  2  0
 40 15  1  0
 40 41  1  0
 42 40  1  0
 43 44  1  0
 44 45  1  0
 45 46  1  0
 46 48  1  0
 47 46  1  0
 49 46  1  0
 50 51  2  0
 50  1  1  0
 52 51  1  0
 53 64  2  0
 54 52  1  0
 54 59  1  0
 55 63  1  0
 55 65  1  0
 56 62  1  0
 56 58  1  0
 57 63  1  0
 58 59  2  0
 58 57  1  0
 60 54  2  0
 61 60  1  0
 61 56  2  0
 62 55  1  0
 63 53  1  0
 65 67  2  0
 66 65  1  0
 68 66  1  0
 69 78  2  0
 69 74  1  0
 70 66  1  0
 70 74  1  0
 71 70  1  0
 72 73  1  0
 72 71  1  0
 73 69  1  0
 74 75  2  0
 75 76  1  0
 77 76  2  0
 78 77  1  0
 79 53  1  0
 79 80  1  0
 79 89  1  0
 80 83  1  0
 81 85  1  0
 81 80  1  0
 82 81  2  0
 85 84  1  0
 87 85  1  0
 87 88  1  0
 87 86  1  0
 89 92  1  1
 89 90  1  0
 91 89  1  0
M  ISO  4   3 100  14 100  51 101  52 101
M  END
>  <TORSDO>  (57) 
F 22

>  <SCORE>  (57) 
-15.597

>  <name>  (57) 
60

>  <ligand_id>  (57) 
60

>  <original_smiles>  (57) 
[H]c1c([H])c([H])c2c(c1[H])C([H])([H])C([H])([H])C([H])([H])C2([H])N([H])C(=O)C1([H])N(C(=O)C([H])(N([H])C(=O)C([H])(N([H])C([H])([H])[H])C([H])([H])[H])C(C([H])([H])[H])(C([H])([H])[H])C([H])([H])[H])C([H])([H])c2c([H])c(OC([H])([H])C([H])([H])[N+]([H])(C([H])([H])C([H])([H])C([H])([H])[N+]([H])([H])[H])C3([H])C([H])([H])N(C(=O)N4C([H])([H])C([H])([H])C([H])([H])C([H])(n5nc(-c6c([H])c([H])c(Oc7c([H])c([H])c(F)c([H])c7F)c([H])c6[H])c(C(=O)N([H])[H])c5N([H])[H])C4([H])[H])C3([H])[H])c([H])c([H])c2C1([H])[H]

>  <smiles>  (57) 
[H]c1c([H])c([H])c2c(c1[H])C([H])([H])C([H])([H])C([H])([H])C2([H])N([H])C(=O)C1([H])N(C(=O)C([H])(N([H])C(=O)C([H])(N([H])C([H])([H])[H])C([H])([H])[H])C(C([H])([H])[H])(C([H])([H])[H])C([H])([H])[H])C([H])([H])c2c([H])c(OC([H])([H])C([H])([H])[N+]([H])(C([H])([H])C([H])([H])C([H])([H])[N+]([H])([H])[H])C3([H])C([H])([H])N(C(=O)N4C([H])([H])C([H])([H])C([H])([H])C([H])(n5nc(-c6c([H])c([H])c(Oc7c([H])c([H])c(F)c([H])c7F)c([H])c6[H])c(C(=O)N([H])[H])c5N([H])[H])C4([H])[H])C3([H])[H])c([H])c([H])c2C1([H])[H]

$$$$
61:0:0
     RDKit          3D

102110  0  0  1  0  0  0  0  0999 V2000
  -30.8960  -21.2680   17.4980 C   0  0  0  0  0  2  0  0  0  0  0  0
  -30.8850  -22.7570   17.9100 C   0  0  0  0  0  2  0  0  0  0  0  0
  -30.3080  -22.0370   20.1960 C   0  0  0  0  0  2  0  0  0  0  0  0
  -29.5560  -20.5280   17.6610 C   0  0  0  0  0  2  0  0  0  0  0  0
  -29.1440  -21.0420   20.0540 C   0  0  0  0  0  2  0  0  0  0  0  0
  -30.1870  -23.0760   19.1690 N   0  0  0  0  0  0  0  0  0  0  0  0
  -29.3980  -19.9990   19.0400 N   0  0  1  0  0  4  0  0  0  0  0  0
  -30.3280  -19.6830   19.2560 H   0  0  0  0  0  0  0  0  0  0  0  0
  -28.9810  -17.7750   19.9970 C   0  0  0  0  0  3  0  0  0  0  0  0
  -28.5490  -18.7810   19.2130 C   0  0  0  0  0  0  0  0  0  0  0  0
  -30.3050  -17.7600   20.7540 C   0  0  0  0  0  2  0  0  0  0  0  0
  -30.3400  -16.8020   21.9630 C   0  0  0  0  0  2  0  0  0  0  0  0
  -30.5510  -14.6380   20.7400 C   0  0  0  0  0  0  0  0  0  0  0  0
  -30.3000  -12.5750   19.4170 C   0  0  0  0  0  2  0  0  0  0  0  0
  -29.3620  -12.8200   18.2190 C   0  0  0  0  0  2  0  0  0  0  0  0
  -27.8920  -12.6100   18.6270 C   0  0  0  0  0  2  0  0  0  0  0  0
  -27.5190  -13.3800   19.9220 C   0  0  0  0  0  3  0  0  0  0  0  0
  -28.5610  -13.1150   21.0310 C   0  0  0  0  0  2  0  0  0  0  0  0
  -29.8930  -13.4740   20.5050 N   0  0  0  0  0  0  0  0  0  0  0  0
  -31.5960  -14.9610   20.1690 O   0  0  0  0  0  0  0  0  0  0  0  0
  -29.9430  -15.4430   21.6160 N   0  0  0  0  0  0  0  0  0  0  0  0
  -29.1110  -15.0760   22.0510 H   0  0  0  0  0  0  0  0  0  0  0  0
  -25.0960  -13.9040   20.6280 C   0  0  0  0  0  0  0  0  0  0  0  0
  -24.0410  -13.0890   20.9510 C   0  0  0  0  0  0  0  0  0  0  0  0
  -24.5370  -11.7520   20.8600 C   0  0  0  0  0  0  0  0  0  0  0  0
  -26.1650  -13.0590   20.3680 N   0  0  0  0  0  0  0  0  0  0  0  0
  -25.8300  -11.7590   20.5620 N   0  0  0  0  0  0  0  0  0  0  0  0
  -23.8440  -10.4630   20.9910 C   0  0  0  0  0  0  0  0  0  0  0  0
  -24.3060   -9.4610   21.8720 C   0  0  0  0  0  3  0  0  0  0  0  0
  -23.6110   -8.2370   21.9910 C   0  0  0  0  0  3  0  0  0  0  0  0
  -22.4420   -8.0080   21.2270 C   0  0  0  0  0  0  0  0  0  0  0  0
  -21.9980   -9.0000   20.3350 C   0  0  0  0  0  3  0  0  0  0  0  0
  -22.6950  -10.2150   20.2150 C   0  0  0  0  0  3  0  0  0  0  0  0
  -21.7220   -6.8380   21.2560 O   0  0  0  0  0  0  0  0  0  0  0  0
  -21.7030   -6.0320   22.3670 C   0  0  0  0  0  0  0  0  0  0  0  0
  -21.2870   -6.5080   23.6290 C   0  0  0  0  0  3  0  0  0  0  0  0
  -21.2160   -5.6280   24.7270 C   0  0  0  0  0  3  0  0  0  0  0  0
  -21.5510   -4.2700   24.5640 C   0  0  0  0  0  0  0  0  0  0  0  0
  -21.9590   -3.7920   23.3080 C   0  0  0  0  0  3  0  0  0  0  0  0
  -22.0320   -4.6690   22.2120 C   0  0  0  0  0  0  0  0  0  0  0  0
  -22.4080   -4.2000   20.9970 F   0  0  0  0  0  0  0  0  0  0  0  0
  -21.4740   -3.4210   25.6160 F   0  0  0  0  0  0  0  0  0  0  0  0
  -22.6310  -13.5200   21.2300 C   0  0  0  0  0  0  0  0  0  0  0  0
  -21.9180  -12.7790   22.0710 N   0  0  0  0  0  0  0  0  0  0  0  0
  -22.1670  -14.5510   20.7440 O   0  0  0  0  0  0  0  0  0  0  0  0
  -22.3110  -11.9470   22.4880 H   0  0  0  0  0  0  0  0  0  0  0  0
  -20.9730  -13.0490   22.3020 H   0  0  0  0  0  0  0  0  0  0  0  0
  -25.2280  -15.2820   20.5150 N   0  0  0  0  0  0  0  0  0  0  0  0
  -24.4380  -15.9060   20.6370 H   0  0  0  0  0  0  0  0  0  0  0  0
  -26.0660  -15.7480   20.1950 H   0  0  0  0  0  0  0  0  0  0  0  0
  -27.2390  -18.8150   18.4250 C   0  0  0  0  0  2  0  0  0  0  0  0
  -26.2550  -19.9090   18.8950 C   0  0  0  0  0  2  0  0  0  0  0  0
  -25.7700  -20.8060   17.7430 C   0  0  0  0  0  2  0  0  0  0  0  0
  -24.9010  -21.9780   18.2330 C   0  0  0  0  0  2  0  0  0  0  0  0
  -24.3490  -22.7630   17.1170 N   0  0  0  0  0  4  0  0  0  0  0  0
  -25.0780  -23.1240   16.5300 H   0  0  0  0  0  0  0  0  0  0  0  0
  -23.8140  -23.5370   17.4730 H   0  0  0  0  0  0  0  0  0  0  0  0
  -23.7370  -22.1940   16.5580 H   0  0  0  0  0  0  0  0  0  0  0  0
  -30.6390  -24.3630   19.7170 C   0  0  0  0  0  2  0  0  0  0  0  0
  -30.2410  -25.5730   18.8490 C   0  0  0  0  0  2  0  0  0  0  0  0
  -28.7420  -25.9190   18.8930 C   0  0  0  0  0  2  0  0  0  0  0  0
  -28.4930  -26.8380   19.9550 O   0  0  0  0  0  0  0  0  0  0  0  0
  -24.5280  -31.8170   23.1170 C   0  0  0  0  0  0  0  0  0  0  0  0
  -27.2780  -27.4870   19.9720 C   0  0  0  0  0  0  0  0  0  0  0  0
  -23.3520  -30.4090   21.4580 C   0  0  0  0  0  3  0  0  0  0  0  0
  -24.8380  -28.9180   20.0160 C   0  0  0  0  0  0  0  0  0  0  0  0
  -25.8670  -30.8230   21.2680 C   0  0  0  0  0  2  0  0  0  0  0  0
  -25.9810  -29.4610   20.6180 C   0  0  0  0  0  0  0  0  0  0  0  0
  -27.1960  -28.7440   20.6080 C   0  0  0  0  0  3  0  0  0  0  0  0
  -26.1110  -26.9450   19.3810 C   0  0  0  0  0  3  0  0  0  0  0  0
  -24.8970  -27.6560   19.4020 C   0  0  0  0  0  3  0  0  0  0  0  0
  -23.5750  -29.7480   20.0710 C   0  0  0  0  0  2  0  0  0  0  0  0
  -24.6000  -31.0320   22.0060 N   0  0  0  0  0  0  0  0  0  0  0  0
  -23.4420  -32.0620   23.6580 O   0  0  0  0  0  0  0  0  0  0  0  0
  -22.7240  -29.3620   22.4050 C   0  0  0  0  0  0  0  0  0  0  0  0
  -21.4020  -29.1600   22.2770 N   0  0  0  0  0  0  0  0  0  0  0  0
  -23.4200  -28.7370   23.2080 O   0  0  0  0  0  0  0  0  0  0  0  0
  -20.9030  -29.7170   21.5980 H   0  0  0  0  0  0  0  0  0  0  0  0
  -18.0490  -27.9070   22.7590 C   0  0  0  0  0  0  0  0  0  0  0  0
  -20.6030  -28.1980   23.0320 C   0  0  0  0  0  3  0  0  0  0  0  0
  -20.7270  -26.7780   22.4330 C   0  0  0  0  0  2  0  0  0  0  0  0
  -19.6280  -26.4540   21.4150 C   0  0  0  0  0  2  0  0  0  0  0  0
  -18.2460  -26.5700   22.0630 C   0  0  0  0  0  2  0  0  0  0  0  0
  -19.1570  -28.6780   23.1990 C   0  0  0  0  0  0  0  0  0  0  0  0
  -18.9200  -29.9310   23.8070 C   0  0  0  0  0  3  0  0  0  0  0  0
  -17.6090  -30.4110   23.9790 C   0  0  0  0  0  3  0  0  0  0  0  0
  -16.5160  -29.6350   23.5560 C   0  0  0  0  0  3  0  0  0  0  0  0
  -16.7370  -28.3840   22.9520 C   0  0  0  0  0  3  0  0  0  0  0  0
  -25.8010  -32.4660   23.7460 C   0  0  0  0  0  3  0  0  0  0  0  0
  -26.3280  -31.6950   25.0170 C   0  0  1  0  0  0  0  0  0  0  0  0
  -25.2390  -31.4340   26.0830 C   0  0  0  0  0  1  0  0  0  0  0  0
  -26.9320  -30.3300   24.6150 C   0  0  0  0  0  1  0  0  0  0  0  0
  -27.4660  -32.5030   25.6850 C   0  0  0  0  0  1  0  0  0  0  0  0
  -25.4700  -33.8570   24.0800 N   0  0  0  0  0  0  0  0  0  0  0  0
  -25.7920  -34.9170   23.3280 C   0  0  0  0  0  0  0  0  0  0  0  0
  -26.4720  -34.8290   22.3010 O   0  0  0  0  0  0  0  0  0  0  0  0
  -24.8660  -33.9990   24.8770 H   0  0  0  0  0  0  0  0  0  0  0  0
  -24.0350  -36.6790   22.9650 C   0  0  0  0  0  1  0  0  0  0  0  0
  -25.2760  -36.2950   23.7850 C   0  0  0  0  0  3  0  0  0  0  0  0
  -27.3920  -37.2090   24.6310 C   0  0  0  0  0  1  0  0  0  0  0  0
  -26.2900  -37.3670   23.6850 N   0  0  0  0  0  0  0  0  0  0  0  0
  -25.8670  -38.2770   23.8410 H   0  0  0  0  0  0  0  0  0  0  0  0
  1  4  1  0
  1  2  1  0
  2  6  1  0
  4  7  1  0
  5  3  1  0
  6 59  1  0
  6  3  1  0
  7 10  1  0
  7  8  1  1
  7  5  1  0
  9 11  1  0
 10  9  2  0
 11 12  1  0
 13 21  1  0
 14 19  1  0
 15 16  1  0
 15 14  1  0
 17 16  1  0
 17 26  1  0
 17 18  1  0
 19 13  1  0
 19 18  1  0
 20 13  2  0
 21 12  1  0
 21 22  1  0
 23 24  2  0
 24 43  1  0
 25 24  1  0
 25 28  1  0
 26 27  1  0
 26 23  1  0
 27 25  2  0
 28 29  1  0
 29 30  2  0
 31 34  1  0
 31 30  1  0
 32 31  2  0
 33 32  1  0
 33 28  2  0
 34 35  1  0
 35 36  1  0
 36 37  2  0
 38 37  1  0
 38 42  1  0
 39 38  2  0
 40 35  2  0
 40 39  1  0
 41 40  1  0
 43 44  1  0
 44 47  1  0
 44 46  1  0
 45 43  2  0
 48 23  1  0
 48 49  1  0
 50 48  1  0
 51 52  1  0
 51 10  1  0
 53 54  1  0
 53 52  1  0
 55 57  1  0
 55 54  1  0
 56 55  1  0
 58 55  1  0
 60 61  1  0
 60 59  1  0
 61 62  1  0
 62 64  1  0
 63 74  2  0
 64 69  1  0
 65 73  1  0
 65 75  1  0
 66 72  1  0
 66 68  1  0
 67 73  1  0
 68 67  1  0
 69 68  2  0
 70 71  1  0
 70 64  2  0
 71 66  2  0
 72 65  1  0
 73 63  1  0
 75 77  2  0
 76 75  1  0
 78 76  1  0
 79 88  2  0
 79 84  1  0
 80 76  1  0
 80 84  1  0
 81 80  1  0
 82 83  1  0
 82 81  1  0
 83 79  1  0
 84 85  2  0
 85 86  1  0
 87 86  2  0
 88 87  1  0
 89 63  1  0
 89 94  1  0
 89 90  1  0
 90 93  1  1
 90 91  1  0
 92 90  1  0
 94 97  1  0
 95 99  1  0
 95 94  1  0
 96 95  2  0
 99 98  1  0
101 99  1  0
101102  1  0
101100  1  0
M  ISO  4  13 100  21 100  61 101  62 101
M  END
>  <TORSDO>  (58) 
F 27

>  <SCORE>  (58) 
-11.777

>  <name>  (58) 
61

>  <ligand_id>  (58) 
61

>  <original_smiles>  (58) 
[H]C(=C(C([H])([H])C([H])([H])C([H])([H])C([H])([H])[N+]([H])([H])[H])[N+]1([H])C([H])([H])C([H])([H])N(C([H])([H])C([H])([H])C([H])([H])Oc2c([H])c([H])c3c(c2[H])C([H])([H])N(C(=O)C([H])(N([H])C(=O)C([H])(N([H])C([H])([H])[H])C([H])([H])[H])C(C([H])([H])[H])(C([H])([H])[H])C([H])([H])[H])C([H])(C(=O)N([H])C2([H])c4c([H])c([H])c([H])c([H])c4C([H])([H])C([H])([H])C2([H])[H])C3([H])[H])C([H])([H])C([H])([H])C1([H])[H])C([H])([H])C([H])([H])N([H])C(=O)N1C([H])([H])C([H])([H])C([H])([H])C([H])(n2nc(-c3c([H])c([H])c(Oc4c([H])c([H])c(F)c([H])c4F)c([H])c3[H])c(C(=O)N([H])[H])c2N([H])[H])C1([H])[H]

>  <smiles>  (58) 
[H]C(=C(C([H])([H])C([H])([H])C([H])([H])C([H])([H])[N+]([H])([H])[H])[N+]1([H])C([H])([H])C([H])([H])N(C([H])([H])C([H])([H])C([H])([H])Oc2c([H])c([H])c3c(c2[H])C([H])([H])N(C(=O)C([H])(N([H])C(=O)C([H])(N([H])C([H])([H])[H])C([H])([H])[H])C(C([H])([H])[H])(C([H])([H])[H])C([H])([H])[H])C([H])(C(=O)N([H])C2([H])c4c([H])c([H])c([H])c([H])c4C([H])([H])C([H])([H])C2([H])[H])C3([H])[H])C([H])([H])C([H])([H])C1([H])[H])C([H])([H])C([H])([H])N([H])C(=O)N1C([H])([H])C([H])([H])C([H])([H])C([H])(n2nc(-c3c([H])c([H])c(Oc4c([H])c([H])c(F)c([H])c4F)c([H])c3[H])c(C(=O)N([H])[H])c2N([H])[H])C1([H])[H]

$$$$
62:0:0
     RDKit          3D

 88 96  0  0  1  0  0  0  0  0999 V2000
  -29.4230  -19.8930   20.5590 C   0  0  0  0  0  0  0  0  0  0  0  0
  -29.1680  -21.2530   20.0090 N   0  0  0  0  0  0  0  0  0  0  0  0
  -29.3020  -19.7920   21.7800 O   0  0  0  0  0  0  0  0  0  0  0  0
  -29.2470  -21.2500   19.0000 H   0  0  0  0  0  0  0  0  0  0  0  0
  -30.4150  -15.4330   20.1630 C   0  0  0  0  0  0  0  0  0  0  0  0
  -30.3810  -12.9570   19.3350 C   0  0  0  0  0  2  0  0  0  0  0  0
  -29.4540  -12.6850   18.1220 C   0  0  0  0  0  2  0  0  0  0  0  0
  -28.0180  -12.3790   18.5850 C   0  0  0  0  0  2  0  0  0  0  0  0
  -27.5460  -13.3600   19.6800 C   0  0  0  0  0  3  0  0  0  0  0  0
  -28.6090  -13.6080   20.7810 C   0  0  0  0  0  2  0  0  0  0  0  0
  -29.8280  -14.1220   20.1190 N   0  0  0  0  0  0  0  0  0  0  0  0
  -31.6520  -15.3850   20.0740 O   0  0  0  0  0  0  0  0  0  0  0  0
  -28.0350  -17.8380   18.5500 C   0  0  0  0  0  2  0  0  0  0  0  0
  -29.3650  -18.5320   18.3570 C   0  0  0  0  0  2  0  0  0  0  0  0
  -28.4540  -16.5410   19.2380 C   0  0  0  0  0  2  0  0  0  0  0  0
  -29.9170  -18.3960   19.7730 C   0  0  0  0  0  3  0  0  0  0  0  0
  -29.6720  -16.7420   20.0380 N   0  0  0  0  0  0  0  0  0  0  0  0
  -25.1840  -13.9500   20.4480 C   0  0  0  0  0  0  0  0  0  0  0  0
  -24.1200  -13.1830   20.8220 C   0  0  0  0  0  0  0  0  0  0  0  0
  -24.5860  -11.8320   20.8000 C   0  0  0  0  0  0  0  0  0  0  0  0
  -26.2250  -13.0670   20.2100 N   0  0  0  0  0  0  0  0  0  0  0  0
  -25.8760  -11.7870   20.4900 N   0  0  0  0  0  0  0  0  0  0  0  0
  -23.8570  -10.5760   20.9930 C   0  0  0  0  0  0  0  0  0  0  0  0
  -24.2810   -9.6170   21.9370 C   0  0  0  0  0  3  0  0  0  0  0  0
  -23.5510   -8.4240   22.1190 C   0  0  0  0  0  3  0  0  0  0  0  0
  -22.3830   -8.1850   21.3580 C   0  0  0  0  0  0  0  0  0  0  0  0
  -21.9780   -9.1340   20.4020 C   0  0  0  0  0  3  0  0  0  0  0  0
  -22.7090  -10.3180   20.2180 C   0  0  0  0  0  3  0  0  0  0  0  0
  -21.6240   -7.0450   21.4510 O   0  0  0  0  0  0  0  0  0  0  0  0
  -21.5610   -6.3170   22.6110 C   0  0  0  0  0  0  0  0  0  0  0  0
  -21.1110   -6.8840   23.8230 C   0  0  0  0  0  3  0  0  0  0  0  0
  -20.9960   -6.0810   24.9760 C   0  0  0  0  0  3  0  0  0  0  0  0
  -21.3220   -4.7130   24.9170 C   0  0  0  0  0  0  0  0  0  0  0  0
  -21.7660   -4.1450   23.7100 C   0  0  0  0  0  3  0  0  0  0  0  0
  -21.8830   -4.9460   22.5600 C   0  0  0  0  0  0  0  0  0  0  0  0
  -22.2910   -4.3900   21.3930 F   0  0  0  0  0  0  0  0  0  0  0  0
  -21.2030   -3.9400   26.0220 F   0  0  0  0  0  0  0  0  0  0  0  0
  -22.7250  -13.6690   21.0800 C   0  0  0  0  0  0  0  0  0  0  0  0
  -21.9880  -12.9840   21.9460 N   0  0  0  0  0  0  0  0  0  0  0  0
  -22.2970  -14.6950   20.5510 O   0  0  0  0  0  0  0  0  0  0  0  0
  -22.3470  -12.1560   22.3990 H   0  0  0  0  0  0  0  0  0  0  0  0
  -21.0520  -13.2930   22.1640 H   0  0  0  0  0  0  0  0  0  0  0  0
  -25.3270  -15.3200   20.2600 N   0  0  0  0  0  0  0  0  0  0  0  0
  -24.5480  -15.9590   20.3720 H   0  0  0  0  0  0  0  0  0  0  0  0
  -26.1610  -15.7720   19.9150 H   0  0  0  0  0  0  0  0  0  0  0  0
  -28.9490  -22.8160   20.5850 C   0  0  0  0  0  3  0  0  0  0  0  0
  -28.1640  -24.3180   19.9460 C   0  0  0  0  0  3  0  0  0  0  0  0
  -28.2370  -25.9320   20.3130 O   0  0  0  0  0  0  0  0  0  0  0  0
  -24.6210  -31.8740   23.2320 C   0  0  0  0  0  0  0  0  0  0  0  0
  -27.2060  -27.0090   20.2120 C   0  0  0  0  0  0  0  0  0  0  0  0
  -23.4310  -30.4730   21.5930 C   0  0  0  0  0  3  0  0  0  0  0  0
  -24.8870  -28.8720   20.1670 C   0  0  0  0  0  0  0  0  0  0  0  0
  -25.9950  -30.6950   21.4450 C   0  0  0  0  0  2  0  0  0  0  0  0
  -26.0720  -29.2850   20.7890 C   0  0  0  0  0  0  0  0  0  0  0  0
  -27.2210  -28.3740   20.7880 C   0  0  0  0  0  3  0  0  0  0  0  0
  -25.9910  -26.7480   19.5370 C   0  0  0  0  0  3  0  0  0  0  0  0
  -24.8720  -27.6250   19.5210 C   0  0  0  0  0  3  0  0  0  0  0  0
  -23.6620  -29.7870   20.2180 C   0  0  0  0  0  2  0  0  0  0  0  0
  -24.7040  -31.0420   22.1440 N   0  0  0  0  0  0  0  0  0  0  0  0
  -23.5310  -32.1620   23.7540 O   0  0  0  0  0  0  0  0  0  0  0  0
  -22.7390  -29.4780   22.5610 C   0  0  0  0  0  0  0  0  0  0  0  0
  -21.4100  -29.3100   22.4360 N   0  0  0  0  0  0  0  0  0  0  0  0
  -23.4060  -28.8580   23.3930 O   0  0  0  0  0  0  0  0  0  0  0  0
  -20.9240  -29.8610   21.7420 H   0  0  0  0  0  0  0  0  0  0  0  0
  -18.0330  -28.0780   22.9370 C   0  0  0  0  0  0  0  0  0  0  0  0
  -20.5900  -28.3690   23.2090 C   0  0  0  0  0  3  0  0  0  0  0  0
  -20.7060  -26.9350   22.6420 C   0  0  0  0  0  2  0  0  0  0  0  0
  -19.6110  -26.5980   21.6250 C   0  0  0  0  0  2  0  0  0  0  0  0
  -18.2250  -26.7300   22.2630 C   0  0  0  0  0  2  0  0  0  0  0  0
  -19.1430  -28.8540   23.3660 C   0  0  0  0  0  0  0  0  0  0  0  0
  -18.9060  -30.1130   23.9610 C   0  0  0  0  0  3  0  0  0  0  0  0
  -17.5960  -30.5980   24.1260 C   0  0  0  0  0  3  0  0  0  0  0  0
  -16.5010  -29.8200   23.7100 C   0  0  0  0  0  3  0  0  0  0  0  0
  -16.7200  -28.5620   23.1220 C   0  0  0  0  0  3  0  0  0  0  0  0
  -25.8910  -32.5210   23.8640 C   0  0  0  0  0  3  0  0  0  0  0  0
  -25.5720  -33.9230   24.1920 N   0  0  0  0  0  0  0  0  0  0  0  0
  -25.9020  -34.9820   23.4410 C   0  0  0  0  0  0  0  0  0  0  0  0
  -26.5700  -34.8820   22.4090 O   0  0  0  0  0  0  0  0  0  0  0  0
  -24.9750  -34.0730   24.9920 H   0  0  0  0  0  0  0  0  0  0  0  0
  -24.1720  -36.7820   23.1060 C   0  0  0  0  0  1  0  0  0  0  0  0
  -25.4200  -36.3720   23.9060 C   0  0  0  0  0  3  0  0  0  0  0  0
  -27.5570  -37.2610   24.7260 C   0  0  0  0  0  1  0  0  0  0  0  0
  -26.4510  -37.4260   23.7870 N   0  0  0  0  0  0  0  0  0  0  0  0
  -26.0450  -38.3460   23.9330 H   0  0  0  0  0  0  0  0  0  0  0  0
  -26.3920  -31.7650   25.1570 C   0  0  1  0  0  0  0  0  0  0  0  0
  -25.2880  -31.5430   26.2180 C   0  0  0  0  0  1  0  0  0  0  0  0
  -26.9760  -30.3800   24.7950 C   0  0  0  0  0  1  0  0  0  0  0  0
  -27.5390  -32.5640   25.8200 C   0  0  0  0  0  1  0  0  0  0  0  0
  1  3  2  0
  2  1  1  0
  2 46  1  0
  4  2  1  0
  6 11  1  0
  7  8  1  0
  7  6  1  0
  9  8  1  0
  9 21  1  0
  9 10  1  0
 11  5  1  0
 11 10  1  0
 12  5  2  0
 13 15  1  0
 14 13  1  0
 14 16  1  0
 15 17  1  0
 16 17  1  0
 16  1  1  0
 17  5  1  0
 18 19  2  0
 19 38  1  0
 20 19  1  0
 20 23  1  0
 21 18  1  0
 21 22  1  0
 22 20  2  0
 23 24  1  0
 24 25  2  0
 26 29  1  0
 26 25  1  0
 27 26  2  0
 28 27  1  0
 28 23  2  0
 29 30  1  0
 30 31  1  0
 31 32  2  0
 33 32  1  0
 33 37  1  0
 34 33  2  0
 35 30  2  0
 35 34  1  0
 36 35  1  0
 38 39  1  0
 39 42  1  0
 39 41  1  0
 40 38  2  0
 43 44  1  0
 43 18  1  0
 45 43  1  0
 47 48  1  0
 47 46  2  0
 49 60  2  0
 50 48  1  0
 50 55  1  0
 51 59  1  0
 51 61  1  0
 52 58  1  0
 52 54  1  0
 53 59  1  0
 54 53  1  0
 55 54  2  0
 56 50  2  0
 57 56  1  0
 57 52  2  0
 58 51  1  0
 59 49  1  0
 61 63  2  0
 62 61  1  0
 64 62  1  0
 65 74  2  0
 65 70  1  0
 66 62  1  0
 66 70  1  0
 67 66  1  0
 68 69  1  0
 68 67  1  0
 69 65  1  0
 70 71  2  0
 71 72  1  0
 73 72  2  0
 74 73  1  0
 75 49  1  0
 75 76  1  0
 75 85  1  0
 76 79  1  0
 77 81  1  0
 77 76  1  0
 78 77  2  0
 81 80  1  0
 83 81  1  0
 83 84  1  0
 83 82  1  0
 85 88  1  1
 85 86  1  0
 87 85  1  0
M  ISO  4   5 100  17 100  47 101  48 101
M  END
>  <TORSDO>  (59) 
F 18

>  <SCORE>  (59) 
-16.300

>  <name>  (59) 
62

>  <ligand_id>  (59) 
62

>  <original_smiles>  (59) 
[H]c1c([H])c([H])c2c(c1[H])C([H])([H])C([H])([H])C([H])([H])C2([H])N([H])C(=O)C1([H])N(C(=O)C([H])(N([H])C(=O)C([H])(N([H])C([H])([H])[H])C([H])([H])[H])C(C([H])([H])[H])(C([H])([H])[H])C([H])([H])[H])C([H])([H])c2c([H])c(OC([H])([H])C([H])([H])N([H])C(=O)C3([H])N(C(=O)N4C([H])([H])C([H])([H])C([H])([H])C([H])(n5nc(-c6c([H])c([H])c(Oc7c([H])c([H])c(F)c([H])c7F)c([H])c6[H])c(C(=O)N([H])[H])c5N([H])[H])C4([H])[H])C([H])([H])C([H])([H])C3([H])[H])c([H])c([H])c2C1([H])[H]

>  <smiles>  (59) 
[H]c1c([H])c([H])c2c(c1[H])C([H])([H])C([H])([H])C([H])([H])C2([H])N([H])C(=O)C1([H])N(C(=O)C([H])(N([H])C(=O)C([H])(N([H])C([H])([H])[H])C([H])([H])[H])C(C([H])([H])[H])(C([H])([H])[H])C([H])([H])[H])C([H])([H])c2c([H])c(OC([H])([H])C([H])([H])N([H])C(=O)C3([H])N(C(=O)N4C([H])([H])C([H])([H])C([H])([H])C([H])(n5nc(-c6c([H])c([H])c(Oc7c([H])c([H])c(F)c([H])c7F)c([H])c6[H])c(C(=O)N([H])[H])c5N([H])[H])C4([H])[H])C([H])([H])C([H])([H])C3([H])[H])c([H])c([H])c2C1([H])[H]

$$$$
63:0:0
     RDKit          3D

 97105  0  0  1  0  0  0  0  0999 V2000
  -29.6210  -19.4480   19.7190 N   0  0  1  0  0  4  0  0  0  0  0  0
  -30.5840  -19.7450   19.7440 H   0  0  0  0  0  0  0  0  0  0  0  0
  -29.8840  -19.2240   15.8640 C   0  0  0  0  0  3  0  0  0  0  0  0
  -30.2780  -19.7110   17.2480 C   0  0  0  0  0  2  0  0  0  0  0  0
  -27.8340  -19.4270   17.8290 C   0  0  0  0  0  2  0  0  0  0  0  0
  -27.5260  -18.6620   16.5340 C   0  0  0  0  0  2  0  0  0  0  0  0
  -29.2880  -19.1490   18.2770 C   0  0  0  0  0  3  0  0  0  0  0  0
  -28.6340  -18.7950   15.5700 N   0  0  0  0  0  0  0  0  0  0  0  0
  -30.8140  -19.2030   14.8960 N   0  0  0  0  0  0  0  0  0  0  0  0
  -28.4130  -18.4940   14.6270 H   0  0  0  0  0  0  0  0  0  0  0  0
  -31.7820  -19.4590   15.0670 H   0  0  0  0  0  0  0  0  0  0  0  0
  -30.6020  -18.9030   13.9560 H   0  0  0  0  0  0  0  0  0  0  0  0
  -28.8690  -20.6100   20.3910 C   0  0  0  0  0  2  0  0  0  0  0  0
  -28.7260  -22.0220   19.6260 C   0  0  0  0  0  2  0  0  0  0  0  0
  -28.7690  -23.4030   20.4380 C   0  0  0  0  0  2  0  0  0  0  0  0
  -27.9800  -24.5710   19.6860 C   0  0  0  0  0  2  0  0  0  0  0  0
  -28.2870  -26.0150   19.8970 O   0  0  0  0  0  0  0  0  0  0  0  0
  -24.6540  -31.4420   22.9560 C   0  0  0  0  0  0  0  0  0  0  0  0
  -27.2080  -26.9170   19.8140 C   0  0  0  0  0  0  0  0  0  0  0  0
  -23.4520  -30.1260   21.2460 C   0  0  0  0  0  3  0  0  0  0  0  0
  -24.8970  -28.5950   19.8050 C   0  0  0  0  0  0  0  0  0  0  0  0
  -26.0080  -30.3900   21.1350 C   0  0  0  0  0  2  0  0  0  0  0  0
  -26.0670  -29.0340   20.4370 C   0  0  0  0  0  0  0  0  0  0  0  0
  -27.2310  -28.2070   20.4310 C   0  0  0  0  0  3  0  0  0  0  0  0
  -26.0200  -26.5460   19.1390 C   0  0  0  0  0  3  0  0  0  0  0  0
  -24.8800  -27.3610   19.1360 C   0  0  0  0  0  3  0  0  0  0  0  0
  -23.6820  -29.4890   19.8520 C   0  0  0  0  0  2  0  0  0  0  0  0
  -24.7210  -30.6660   21.8350 N   0  0  0  0  0  0  0  0  0  0  0  0
  -23.5660  -31.7300   23.4760 O   0  0  0  0  0  0  0  0  0  0  0  0
  -22.7430  -29.1020   22.1630 C   0  0  0  0  0  0  0  0  0  0  0  0
  -21.4050  -29.0220   22.0600 N   0  0  0  0  0  0  0  0  0  0  0  0
  -23.3930  -28.3810   22.9260 O   0  0  0  0  0  0  0  0  0  0  0  0
  -20.9380  -29.6600   21.4320 H   0  0  0  0  0  0  0  0  0  0  0  0
  -17.9630  -28.0680   22.6400 C   0  0  0  0  0  0  0  0  0  0  0  0
  -20.5430  -28.0940   22.7950 C   0  0  0  0  0  3  0  0  0  0  0  0
  -20.4930  -26.7130   22.1030 C   0  0  0  0  0  2  0  0  0  0  0  0
  -19.3220  -26.5680   21.1280 C   0  0  0  0  0  2  0  0  0  0  0  0
  -17.9890  -26.7710   21.8510 C   0  0  0  0  0  2  0  0  0  0  0  0
  -19.1620  -28.6950   23.0750 C   0  0  0  0  0  0  0  0  0  0  0  0
  -19.0810  -29.9120   23.7840 C   0  0  0  0  0  3  0  0  0  0  0  0
  -17.8330  -30.5030   24.0600 C   0  0  0  0  0  3  0  0  0  0  0  0
  -16.6480  -29.8730   23.6400 C   0  0  0  0  0  3  0  0  0  0  0  0
  -16.7140  -28.6560   22.9380 C   0  0  0  0  0  3  0  0  0  0  0  0
  -25.9420  -32.0240   23.6230 C   0  0  0  0  0  3  0  0  0  0  0  0
  -25.6440  -33.4050   24.0230 N   0  0  0  0  0  0  0  0  0  0  0  0
  -26.0500  -34.4950   23.3580 C   0  0  0  0  0  0  0  0  0  0  0  0
  -26.7820  -34.4370   22.3670 O   0  0  0  0  0  0  0  0  0  0  0  0
  -25.0060  -33.5290   24.7950 H   0  0  0  0  0  0  0  0  0  0  0  0
  -24.4050  -36.3660   23.0120 C   0  0  0  0  0  1  0  0  0  0  0  0
  -25.5720  -35.8620   23.8750 C   0  0  0  0  0  3  0  0  0  0  0  0
  -27.6630  -36.6220   24.9140 C   0  0  0  0  0  1  0  0  0  0  0  0
  -26.6380  -36.8860   23.9100 N   0  0  0  0  0  0  0  0  0  0  0  0
  -26.2440  -37.8050   24.0900 H   0  0  0  0  0  0  0  0  0  0  0  0
  -26.4260  -31.1820   24.8690 C   0  0  1  0  0  0  0  0  0  0  0  0
  -25.3120  -30.9270   25.9110 C   0  0  0  0  0  1  0  0  0  0  0  0
  -26.9830  -29.8070   24.4310 C   0  0  0  0  0  1  0  0  0  0  0  0
  -27.5810  -31.9260   25.5820 C   0  0  0  0  0  1  0  0  0  0  0  0
  -29.6460  -18.1020   20.4680 C   0  0  0  0  0  3  0  0  0  0  0  0
  -30.3470  -16.8630   19.7260 C   0  0  0  0  0  3  0  0  0  0  0  0
  -31.0150  -14.3520   20.0410 C   0  0  0  0  0  0  0  0  0  0  0  0
  -30.6580  -12.1100   19.0290 C   0  0  0  0  0  2  0  0  0  0  0  0
  -29.6800  -12.3010   17.8460 C   0  0  0  0  0  2  0  0  0  0  0  0
  -28.2160  -12.2140   18.3230 C   0  0  0  0  0  2  0  0  0  0  0  0
  -27.9440  -13.0680   19.5960 C   0  0  0  0  0  3  0  0  0  0  0  0
  -29.0470  -12.8730   20.6640 C   0  0  0  0  0  2  0  0  0  0  0  0
  -30.3400  -13.1540   20.0280 N   0  0  0  0  0  0  0  0  0  0  0  0
  -32.1490  -14.4460   19.5640 O   0  0  0  0  0  0  0  0  0  0  0  0
  -30.2940  -15.4790   20.3580 N   0  0  0  0  0  0  0  0  0  0  0  0
  -29.4280  -15.2750   20.8350 H   0  0  0  0  0  0  0  0  0  0  0  0
  -25.6180  -13.7430   20.4550 C   0  0  0  0  0  0  0  0  0  0  0  0
  -24.5380  -13.0200   20.8580 C   0  0  0  0  0  0  0  0  0  0  0  0
  -24.9300  -11.6430   20.7740 C   0  0  0  0  0  0  0  0  0  0  0  0
  -26.6100  -12.8230   20.1410 N   0  0  0  0  0  0  0  0  0  0  0  0
  -26.2030  -11.5540   20.4000 N   0  0  0  0  0  0  0  0  0  0  0  0
  -24.1470  -10.4190   20.9730 C   0  0  0  0  0  0  0  0  0  0  0  0
  -24.5650   -9.4110   21.8730 C   0  0  0  0  0  3  0  0  0  0  0  0
  -23.7850   -8.2500   22.0630 C   0  0  0  0  0  3  0  0  0  0  0  0
  -22.5680   -8.0890   21.3570 C   0  0  0  0  0  0  0  0  0  0  0  0
  -22.1630   -9.0860   20.4530 C   0  0  0  0  0  3  0  0  0  0  0  0
  -22.9420  -10.2390   20.2600 C   0  0  0  0  0  3  0  0  0  0  0  0
  -21.7490   -6.9890   21.4650 O   0  0  0  0  0  0  0  0  0  0  0  0
  -21.7120   -6.2310   22.6080 C   0  0  0  0  0  0  0  0  0  0  0  0
  -21.3660   -6.7820   23.8620 C   0  0  0  0  0  3  0  0  0  0  0  0
  -21.2740   -5.9510   24.9960 C   0  0  0  0  0  3  0  0  0  0  0  0
  -21.5100   -4.5690   24.8780 C   0  0  0  0  0  0  0  0  0  0  0  0
  -21.8480   -4.0170   23.6310 C   0  0  0  0  0  3  0  0  0  0  0  0
  -21.9470   -4.8450   22.4990 C   0  0  0  0  0  0  0  0  0  0  0  0
  -22.2520   -4.3020   21.2940 F   0  0  0  0  0  0  0  0  0  0  0  0
  -21.4120   -3.7670   25.9650 F   0  0  0  0  0  0  0  0  0  0  0  0
  -23.1790  -13.5580   21.2110 C   0  0  0  0  0  0  0  0  0  0  0  0
  -22.4600  -12.8930   22.1050 N   0  0  0  0  0  0  0  0  0  0  0  0
  -22.7740  -14.6170   20.7260 O   0  0  0  0  0  0  0  0  0  0  0  0
  -22.8100  -12.0400   22.5210 H   0  0  0  0  0  0  0  0  0  0  0  0
  -21.5550  -13.2400   22.3880 H   0  0  0  0  0  0  0  0  0  0  0  0
  -25.8350  -15.1130   20.3000 N   0  0  0  0  0  0  0  0  0  0  0  0
  -25.0640  -15.7640   20.4130 H   0  0  0  0  0  0  0  0  0  0  0  0
  -26.6790  -15.5280   19.9300 H   0  0  0  0  0  0  0  0  0  0  0  0
  1  2  1  6
  1 13  1  0
  1 58  1  0
  3  9  1  0
  3  4  1  0
  4  7  1  0
  5  7  1  0
  6  5  1  0
  7  1  1  0
  8  3  1  0
  8  6  1  0
  9 11  1  0
 10  8  1  0
 12  9  1  0
 14 13  1  0
 14 15  1  0
 16 17  1  0
 16 15  1  0
 18 29  2  0
 19 17  1  0
 19 24  1  0
 20 28  1  0
 20 30  1  0
 21 27  1  0
 21 23  1  0
 22 28  1  0
 23 22  1  0
 24 23  2  0
 25 19  2  0
 26 25  1  0
 26 21  2  0
 27 20  1  0
 28 18  1  0
 30 32  2  0
 31 30  1  0
 33 31  1  0
 34 43  2  0
 34 39  1  0
 35 31  1  0
 35 39  1  0
 36 35  1  0
 37 38  1  0
 37 36  1  0
 38 34  1  0
 39 40  2  0
 40 41  1  0
 42 41  2  0
 43 42  1  0
 44 18  1  0
 44 45  1  0
 44 54  1  0
 45 48  1  0
 46 50  1  0
 46 45  1  0
 47 46  2  0
 50 49  1  0
 50 52  1  0
 52 53  1  0
 52 51  1  0
 54 57  1  1
 54 55  1  0
 56 54  1  0
 59 68  1  0
 59 58  2  0
 60 68  1  0
 61 66  1  0
 62 63  1  0
 62 61  1  0
 64 63  1  0
 64 73  1  0
 64 65  1  0
 66 60  1  0
 66 65  1  0
 67 60  2  0
 68 69  1  0
 70 71  2  0
 71 90  1  0
 72 71  1  0
 72 75  1  0
 73 74  1  0
 73 70  1  0
 74 72  2  0
 75 76  1  0
 76 77  2  0
 78 81  1  0
 78 77  1  0
 79 78  2  0
 80 79  1  0
 80 75  2  0
 81 82  1  0
 82 83  1  0
 83 84  2  0
 85 84  1  0
 85 89  1  0
 86 85  2  0
 87 82  2  0
 87 86  1  0
 88 87  1  0
 90 91  1  0
 91 94  1  0
 91 93  1  0
 92 90  2  0
 95 96  1  0
 95 70  1  0
 97 95  1  0
M  ISO  4  16 101  17 101  60 100  68 100
M  END
>  <TORSDO>  (60) 
F 23

>  <SCORE>  (60) 
-12.082

>  <name>  (60) 
63

>  <ligand_id>  (60) 
63

>  <original_smiles>  (60) 
[H]c1c([H])c([H])c2c(c1[H])C([H])([H])C([H])([H])C([H])([H])C2([H])N([H])C(=O)C1([H])N(C(=O)C([H])(N([H])C(=O)C([H])(N([H])C([H])([H])[H])C([H])([H])[H])C(C([H])([H])[H])(C([H])([H])[H])C([H])([H])[H])C([H])([H])c2c([H])c(OC([H])([H])C([H])([H])C([H])([H])C([H])([H])[N+]([H])(C([H])([H])C([H])([H])N([H])C(=O)N3C([H])([H])C([H])([H])C([H])([H])C([H])(n4nc(-c5c([H])c([H])c(Oc6c([H])c([H])c(F)c([H])c6F)c([H])c5[H])c(C(=O)N([H])[H])c4N([H])[H])C3([H])[H])C3([H])C([H])([H])C(N([H])[H])=[N+]([H])C([H])([H])C3([H])[H])c([H])c([H])c2C1([H])[H]

>  <smiles>  (60) 
[H]c1c([H])c([H])c2c(c1[H])C([H])([H])C([H])([H])C([H])([H])C2([H])N([H])C(=O)C1([H])N(C(=O)C([H])(N([H])C(=O)C([H])(N([H])C([H])([H])[H])C([H])([H])[H])C(C([H])([H])[H])(C([H])([H])[H])C([H])([H])[H])C([H])([H])c2c([H])c(OC([H])([H])C([H])([H])C([H])([H])C([H])([H])[N+]([H])(C([H])([H])C([H])([H])N([H])C(=O)N3C([H])([H])C([H])([H])C([H])([H])C([H])(n4nc(-c5c([H])c([H])c(Oc6c([H])c([H])c(F)c([H])c6F)c([H])c5[H])c(C(=O)N([H])[H])c4N([H])[H])C3([H])[H])C3([H])C([H])([H])C(N([H])[H])=[N+]([H])C([H])([H])C3([H])[H])c([H])c([H])c2C1([H])[H]

$$$$
64:0:0
     RDKit          3D

102110  0  0  1  0  0  0  0  0999 V2000
  -29.7170  -21.9520   19.8970 C   0  0  0  0  0  0  0  0  0  0  0  0
  -29.9010  -25.0970   17.7750 C   0  0  0  0  0  2  0  0  0  0  0  0
  -29.1530  -23.9900   18.5410 C   0  0  0  0  0  2  0  0  0  0  0  0
  -30.8880  -24.4070   20.3200 C   0  0  0  0  0  2  0  0  0  0  0  0
  -30.3500  -26.3030   18.6430 C   0  0  0  0  0  3  0  0  0  0  0  0
  -31.4580  -25.8560   19.6380 C   0  0  0  0  0  3  0  0  0  0  0  0
  -29.9620  -23.3380   19.5770 N   0  0  0  0  0  0  0  0  0  0  0  0
  -30.3320  -21.4940   20.8600 O   0  0  0  0  0  0  0  0  0  0  0  0
  -31.9210  -27.1720   20.3660 O   0  0  0  0  0  0  0  0  0  0  0  0
  -34.6840  -33.3450   17.3350 C   0  0  0  0  0  0  0  0  0  0  0  0
  -33.0200  -28.0220   19.9690 C   0  0  0  0  0  0  0  0  0  0  0  0
  -36.1920  -31.4060   17.5720 C   0  0  0  0  0  3  0  0  0  0  0  0
  -35.3720  -29.5130   19.1070 C   0  0  0  0  0  0  0  0  0  0  0  0
  -34.2610  -31.7410   19.2390 C   0  0  0  0  0  2  0  0  0  0  0  0
  -34.2010  -30.2130   19.4290 C   0  0  0  0  0  0  0  0  0  0  0  0
  -33.0430  -29.4760   19.8920 C   0  0  0  0  0  3  0  0  0  0  0  0
  -34.2520  -27.4020   19.6790 C   0  0  0  0  0  3  0  0  0  0  0  0
  -35.3980  -28.1160   19.2570 C   0  0  0  0  0  3  0  0  0  0  0  0
  -36.5680  -30.3040   18.5980 C   0  0  0  0  0  2  0  0  0  0  0  0
  -35.0060  -32.2050   18.0220 N   0  0  0  0  0  0  0  0  0  0  0  0
  -35.3590  -33.7320   16.3680 O   0  0  0  0  0  0  0  0  0  0  0  0
  -35.9980  -30.7590   16.1770 C   0  0  0  0  0  0  0  0  0  0  0  0
  -37.0920  -30.6120   15.4100 N   0  0  0  0  0  0  0  0  0  0  0  0
  -34.8810  -30.3790   15.8160 O   0  0  0  0  0  0  0  0  0  0  0  0
  -37.9710  -30.9590   15.7680 H   0  0  0  0  0  0  0  0  0  0  0  0
  -39.2310  -28.8550   13.0740 C   0  0  0  0  0  0  0  0  0  0  0  0
  -37.1350  -29.9780   14.0890 C   0  0  0  0  0  3  0  0  0  0  0  0
  -36.5240  -28.5580   14.1350 C   0  0  0  0  0  2  0  0  0  0  0  0
  -37.5660  -27.4590   14.3740 C   0  0  0  0  0  2  0  0  0  0  0  0
  -38.6270  -27.4740   13.2680 C   0  0  0  0  0  2  0  0  0  0  0  0
  -38.5380  -30.0290   13.4740 C   0  0  0  0  0  0  0  0  0  0  0  0
  -39.1610  -31.2840   13.2970 C   0  0  0  0  0  3  0  0  0  0  0  0
  -40.4490  -31.3760   12.7370 C   0  0  0  0  0  3  0  0  0  0  0  0
  -41.1240  -30.2110   12.3300 C   0  0  0  0  0  3  0  0  0  0  0  0
  -40.5130  -28.9550   12.4940 C   0  0  0  0  0  3  0  0  0  0  0  0
  -33.4650  -34.2280   17.7440 C   0  0  0  0  0  3  0  0  0  0  0  0
  -33.9360  -35.6160   17.8640 N   0  0  0  0  0  0  0  0  0  0  0  0
  -34.6070  -36.1080   18.9150 C   0  0  0  0  0  0  0  0  0  0  0  0
  -34.8410  -35.4410   19.9250 O   0  0  0  0  0  0  0  0  0  0  0  0
  -33.8210  -36.2030   17.0510 H   0  0  0  0  0  0  0  0  0  0  0  0
  -36.4470  -37.6200   18.1090 C   0  0  0  0  0  1  0  0  0  0  0  0
  -35.0930  -37.5690   18.8340 C   0  0  0  0  0  3  0  0  0  0  0  0
  -33.9200  -38.6110   20.7240 C   0  0  0  0  0  1  0  0  0  0  0  0
  -35.2090  -38.2280   20.1540 N   0  0  0  0  0  0  0  0  0  0  0  0
  -35.7880  -39.0610   20.0910 H   0  0  0  0  0  0  0  0  0  0  0  0
  -32.2700  -34.1430   16.7160 C   0  0  1  0  0  0  0  0  0  0  0  0
  -32.4570  -35.0400   15.4680 C   0  0  0  0  0  1  0  0  0  0  0  0
  -32.0650  -32.6930   16.2280 C   0  0  0  0  0  1  0  0  0  0  0  0
  -30.9520  -34.5610   17.4090 C   0  0  0  0  0  1  0  0  0  0  0  0
  -30.7880  -27.4960   17.7520 C   0  0  0  0  0  2  0  0  0  0  0  0
  -29.7490  -27.9160   16.7920 N   0  0  0  0  0  4  0  0  0  0  0  0
  -29.6150  -27.2190   16.0810 H   0  0  0  0  0  0  0  0  0  0  0  0
  -30.0100  -28.7740   16.3350 H   0  0  0  0  0  0  0  0  0  0  0  0
  -28.8730  -28.0730   17.2610 H   0  0  0  0  0  0  0  0  0  0  0  0
  -28.7670  -20.8140   19.0860 C   0  0  0  0  0  3  0  0  0  0  0  0
  -27.4790  -21.4440   18.6950 N   0  0  0  0  0  4  0  0  0  0  0  0
  -27.1140  -21.9540   19.4810 H   0  0  0  0  0  0  0  0  0  0  0  0
  -27.6860  -22.1020   17.9650 H   0  0  0  0  0  0  0  0  0  0  0  0
  -26.4270  -20.5500   18.1600 C   0  0  0  0  0  2  0  0  0  0  0  0
  -25.0650  -21.2700   18.0680 C   0  0  0  0  0  2  0  0  0  0  0  0
  -24.4320  -20.9820   16.7900 N   0  0  0  0  0  0  0  0  0  0  0  0
  -24.9930  -21.3630   16.0320 H   0  0  0  0  0  0  0  0  0  0  0  0
  -23.5530  -21.4910   16.7210 H   0  0  0  0  0  0  0  0  0  0  0  0
  -29.2680  -19.9010   17.7350 C   0  0  0  0  0  2  0  0  0  0  0  0
  -29.7060  -19.7610   14.9920 C   0  0  0  0  0  0  0  0  0  0  0  0
  -31.3010  -19.4540   13.0410 C   0  0  0  0  0  2  0  0  0  0  0  0
  -32.7600  -19.4260   13.5540 C   0  0  0  0  0  2  0  0  0  0  0  0
  -33.3240  -20.8540   13.6780 C   0  0  0  0  0  2  0  0  0  0  0  0
  -32.3290  -21.8260   14.3660 C   0  0  0  0  0  3  0  0  0  0  0  0
  -30.8970  -21.6990   13.8040 C   0  0  0  0  0  2  0  0  0  0  0  0
  -30.4970  -20.2980   13.9760 N   0  0  0  0  0  0  0  0  0  0  0  0
  -29.2730  -18.6160   14.8150 O   0  0  0  0  0  0  0  0  0  0  0  0
  -29.5860  -20.4170   16.2530 N   0  0  0  0  0  0  0  0  0  0  0  0
  -30.0150  -21.3280   16.2110 H   0  0  0  0  0  0  0  0  0  0  0  0
  -33.1090  -24.0140   15.4370 C   0  0  0  0  0  0  0  0  0  0  0  0
  -33.5790  -25.1840   14.9080 C   0  0  0  0  0  0  0  0  0  0  0  0
  -33.5350  -25.0210   13.4870 C   0  0  0  0  0  0  0  0  0  0  0  0
  -32.8040  -23.2040   14.3570 N   0  0  0  0  0  0  0  0  0  0  0  0
  -33.0060  -23.8420   13.1770 N   0  0  0  0  0  0  0  0  0  0  0  0
  -34.0210  -25.8940   12.4140 C   0  0  0  0  0  0  0  0  0  0  0  0
  -33.2420  -26.9630   11.9180 C   0  0  0  0  0  3  0  0  0  0  0  0
  -33.7420  -27.8040   10.8990 C   0  0  0  0  0  3  0  0  0  0  0  0
  -35.0360  -27.5820   10.3690 C   0  0  0  0  0  0  0  0  0  0  0  0
  -35.7980  -26.5050   10.8500 C   0  0  0  0  0  3  0  0  0  0  0  0
  -35.2960  -25.6660   11.8590 C   0  0  0  0  0  3  0  0  0  0  0  0
  -35.5920  -28.3300    9.3570 O   0  0  0  0  0  0  0  0  0  0  0  0
  -35.7960  -29.6790    9.4900 C   0  0  0  0  0  0  0  0  0  0  0  0
  -36.6870  -30.2090   10.4470 C   0  0  0  0  0  3  0  0  0  0  0  0
  -36.9210  -31.5980   10.5020 C   0  0  0  0  0  3  0  0  0  0  0  0
  -36.2730  -32.4570    9.5950 C   0  0  0  0  0  0  0  0  0  0  0  0
  -35.3880  -31.9300    8.6370 C   0  0  0  0  0  3  0  0  0  0  0  0
  -35.1520  -30.5460    8.5840 C   0  0  0  0  0  0  0  0  0  0  0  0
  -34.3170  -30.0430    7.6460 F   0  0  0  0  0  0  0  0  0  0  0  0
  -36.4990  -33.7890    9.6420 F   0  0  0  0  0  0  0  0  0  0  0  0
  -34.1440  -26.3450   15.6770 C   0  0  0  0  0  0  0  0  0  0  0  0
  -33.5210  -27.5130   15.5780 N   0  0  0  0  0  0  0  0  0  0  0  0
  -35.1190  -26.2060   16.4120 O   0  0  0  0  0  0  0  0  0  0  0  0
  -32.7050  -27.6260   14.9950 H   0  0  0  0  0  0  0  0  0  0  0  0
  -33.8620  -28.3060   16.1030 H   0  0  0  0  0  0  0  0  0  0  0  0
  -32.9440  -23.5600   16.7420 N   0  0  0  0  0  0  0  0  0  0  0  0
  -33.3130  -24.1100   17.5130 H   0  0  0  0  0  0  0  0  0  0  0  0
  -32.8780  -22.5750   16.9620 H   0  0  0  0  0  0  0  0  0  0  0  0
  1  8  2  0
  2  3  1  0
  2  5  1  0
  3  7  1  0
  5 50  1  0
  5  6  1  0
  6  4  1  0
  6  9  1  0
  7  1  1  0
  7  4  1  0
 10 20  1  0
 11  9  1  0
 12 22  1  0
 12 20  1  0
 12 19  1  0
 13 18  2  0
 13 15  1  0
 14 15  1  0
 15 16  2  0
 16 11  1  0
 17 11  2  0
 18 17  1  0
 19 13  1  0
 20 14  1  0
 21 10  2  0
 23 25  1  0
 23 22  1  0
 24 22  2  0
 26 30  1  0
 26 31  1  0
 27 28  1  0
 27 23  1  0
 28 29  1  0
 30 29  1  0
 31 27  1  0
 32 31  2  0
 33 32  1  0
 34 35  1  0
 34 33  2  0
 35 26  2  0
 36 10  1  0
 36 37  1  0
 37 38  1  0
 38 39  2  0
 40 37  1  0
 42 41  1  0
 42 38  1  0
 42 44  1  0
 44 43  1  0
 45 44  1  0
 46 49  1  1
 46 36  1  0
 47 46  1  0
 48 46  1  0
 51 54  1  0
 51 50  1  0
 52 51  1  0
 53 51  1  0
 55 64  1  0
 55  1  1  0
 56 55  1  0
 56 57  1  0
 58 56  1  0
 59 56  1  0
 60 59  1  0
 61 60  1  0
 62 61  1  0
 63 61  1  0
 65 73  1  0
 66 67  1  0
 66 71  1  0
 67 68  1  0
 69 68  1  0
 70 71  1  0
 70 69  1  0
 71 65  1  0
 72 65  2  0
 73 64  1  0
 74 73  1  0
 75100  1  0
 76 75  2  0
 76 95  1  0
 77 76  1  0
 78 69  1  0
 78 75  1  0
 79 77  2  0
 79 78  1  0
 80 77  1  0
 81 80  1  0
 82 81  2  0
 83 84  2  0
 83 82  1  0
 84 85  1  0
 85 80  2  0
 86 87  1  0
 86 83  1  0
 87 88  1  0
 88 89  2  0
 90 94  1  0
 90 89  1  0
 91 90  2  0
 92 91  1  0
 92 87  2  0
 93 92  1  0
 95 97  2  0
 96 95  1  0
 96 99  1  0
 98 96  1  0
100102  1  0
100101  1  0
M  ISO  4   6 101   9 101  65 100  73 100
M  END
>  <TORSDO>  (61) 
F 24

>  <SCORE>  (61) 
-3.682

>  <name>  (61) 
64

>  <ligand_id>  (61) 
64

>  <original_smiles>  (61) 
[H]c1c([H])c([H])c2c(c1[H])C([H])([H])C([H])([H])C([H])([H])C2([H])N([H])C(=O)C1([H])N(C(=O)C([H])(N([H])C(=O)C([H])(N([H])C([H])([H])[H])C([H])([H])[H])C(C([H])([H])[H])(C([H])([H])[H])C([H])([H])[H])C([H])([H])c2c([H])c(OC3([H])C([H])([H])N(C(=O)C([H])(C([H])([H])N([H])C(=O)N4C([H])([H])C([H])([H])C([H])([H])C([H])(n5nc(-c6c([H])c([H])c(Oc7c([H])c([H])c(F)c([H])c7F)c([H])c6[H])c(C(=O)N([H])[H])c5N([H])[H])C4([H])[H])[N+]([H])([H])C([H])([H])C([H])([H])N([H])[H])C([H])([H])C([H])([H])C3([H])C([H])([H])[N+]([H])([H])[H])c([H])c([H])c2C1([H])[H]

>  <smiles>  (61) 
[H]c1c([H])c([H])c2c(c1[H])C([H])([H])C([H])([H])C([H])([H])C2([H])N([H])C(=O)C1([H])N(C(=O)C([H])(N([H])C(=O)C([H])(N([H])C([H])([H])[H])C([H])([H])[H])C(C([H])([H])[H])(C([H])([H])[H])C([H])([H])[H])C([H])([H])c2c([H])c(OC3([H])C([H])([H])N(C(=O)C([H])(C([H])([H])N([H])C(=O)N4C([H])([H])C([H])([H])C([H])([H])C([H])(n5nc(-c6c([H])c([H])c(Oc7c([H])c([H])c(F)c([H])c7F)c([H])c6[H])c(C(=O)N([H])[H])c5N([H])[H])C4([H])[H])[N+]([H])([H])C([H])([H])C([H])([H])N([H])[H])C([H])([H])C([H])([H])C3([H])C([H])([H])[N+]([H])([H])[H])c([H])c([H])c2C1([H])[H]

$$$$
65:0:0
     RDKit          3D

101102  0  0  1  0  0  0  0  0999 V2000
  -18.8980  -21.8650   19.4970 C   0  0  0  0  0  2  0  0  0  0  0  0
  -17.4300  -22.1400   18.8440 C   0  0  0  0  0  3  0  0  0  0  0  0
  -20.2450  -22.4470   18.7170 C   0  0  0  0  0  2  0  0  0  0  0  0
  -16.8110  -23.6030   18.5610 C   0  0  0  0  0  3  0  0  0  0  0  0
  -18.2690  -25.4570   17.1840 C   0  0  0  0  0  3  0  0  0  0  0  0
  -16.7490  -25.9140   19.9390 C   0  0  0  0  0  2  0  0  0  0  0  0
  -19.2230  -26.8300   17.0730 C   0  0  0  0  0  3  0  0  0  0  0  0
  -17.2790  -27.7390   20.1920 C   0  0  0  0  0  1  0  0  0  0  0  0
  -20.4920  -24.0360   18.5490 C   0  0  0  0  0  3  0  0  0  0  0  0
  -17.6920  -24.9170   18.6350 C   0  0  1  0  0  0  0  0  0  0  0  0
  -18.9880  -24.2160   18.9580 N   0  0  0  0  0  4  0  0  0  0  0  0
  -19.3100  -27.7820   18.3370 N   0  0  0  0  0  2  0  0  0  0  0  0
  -18.8050  -23.5730   19.7240 H   0  0  0  0  0  0  0  0  0  0  0  0
  -18.7340  -23.5550   18.2300 H   0  0  0  0  0  0  0  0  0  0  0  0
  -19.3890  -26.9890   18.9610 H   0  0  0  0  0  0  0  0  0  0  0  0
  -21.4960  -24.6310   17.2010 C   0  0  0  0  0  2  0  0  0  0  0  0
  -23.2080  -24.9290   16.8260 C   0  0  0  0  0  2  0  0  0  0  0  0
  -24.4970  -25.9780   17.4030 C   0  0  0  0  0  2  0  0  0  0  0  0
  -25.9670  -26.1330   18.1900 O   0  0  0  0  0  0  0  0  0  0  0  0
  -26.5250  -31.1340   23.4060 C   0  0  0  0  0  0  0  0  0  0  0  0
  -26.3600  -27.4770   18.4930 C   0  0  0  0  0  3  0  0  0  0  0  0
  -24.7350  -30.4880   21.8630 C   0  0  0  0  0  3  0  0  0  0  0  0
  -25.3240  -29.7990   19.5310 C   0  0  0  0  0  3  0  0  0  0  0  0
  -27.1630  -30.3980   21.0870 C   0  0  0  0  0  2  0  0  0  0  0  0
  -26.6180  -29.4410   19.9720 C   0  0  0  0  0  0  0  0  0  0  0  0
  -27.1290  -28.1670   19.5260 C   0  0  0  0  0  3  0  0  0  0  0  0
  -25.5600  -28.3260   17.7520 C   0  0  0  0  0  2  0  0  0  0  0  0
  -24.7250  -29.1540   18.4720 C   0  0  0  0  0  2  0  0  0  0  0  0
  -24.4990  -30.7810   20.3530 C   0  0  0  0  0  2  0  0  0  0  0  0
  -26.1720  -30.7320   22.1690 N   0  0  0  0  0  0  0  0  0  0  0  0
  -25.6800  -31.4300   24.2660 O   0  0  0  0  0  0  0  0  0  0  0  0
  -24.0030  -29.3980   22.7060 C   0  0  0  0  0  0  0  0  0  0  0  0
  -22.6790  -29.3460   22.8040 N   0  0  0  0  0  4  0  0  0  0  0  0
  -24.6340  -28.4790   23.2250 O   0  0  0  0  0  0  0  0  0  0  0  0
  -22.1390  -30.0620   22.3400 H   0  0  0  0  0  0  0  0  0  0  0  0
  -19.5180  -28.9070   22.6350 C   0  0  0  0  0  0  0  0  0  0  0  0
  -21.9800  -28.3560   23.6920 C   0  0  0  0  0  0  0  0  0  0  0  0
  -22.3500  -26.4290   23.6640 C   0  0  0  0  0  1  0  0  0  0  0  0
  -21.3000  -25.1730   22.2710 C   0  0  0  0  0 15  0  0  0  0  0  0
  -19.9020  -27.6970   21.4170 C   0  0  0  0  0  1  0  0  0  0  0  0
  -20.5590  -29.2010   23.6480 C   0  0  0  0  0  0  0  0  0  0  0  0
  -20.3300  -30.2210   24.6440 C   0  0  0  0  0  3  0  0  0  0  0  0
  -19.0420  -30.7940   24.8910 C   0  0  0  0  0  3  0  0  0  0  0  0
  -17.9720  -30.2780   24.1550 C   0  0  0  0  0  3  0  0  0  0  0  0
  -18.1900  -29.3700   23.0890 C   0  0  0  0  0  3  0  0  0  0  0  0
  -28.0240  -31.1930   23.8090 C   0  0  0  0  0  3  0  0  0  0  0  0
  -28.2320  -32.4740   24.4830 N   0  0  0  0  0  0  0  0  0  0  0  0
  -28.8120  -33.5360   23.9120 C   0  0  0  0  0  0  0  0  0  0  0  0
  -29.2690  -33.5350   22.7660 O   0  0  0  0  0  0  0  0  0  0  0  0
  -27.8090  -32.6010   25.3900 H   0  0  0  0  0  0  0  0  0  0  0  0
  -27.7930  -35.8060   24.2980 C   0  0  0  0  0  1  0  0  0  0  0  0
  -28.8910  -34.8280   24.7490 C   0  0  0  0  0  3  0  0  0  0  0  0
  -31.2620  -34.7330   25.3700 C   0  0  0  0  0  1  0  0  0  0  0  0
  -30.2150  -35.4910   24.6850 N   0  0  0  0  0  0  0  0  0  0  0  0
  -30.1770  -36.4220   25.0970 H   0  0  0  0  0  0  0  0  0  0  0  0
  -28.4700  -29.9800   24.7110 C   0  0  1  0  0  0  0  0  0  0  0  0
  -27.5660  -29.7680   25.9470 C   0  0  0  0  0  1  0  0  0  0  0  0
  -28.4760  -28.6510   23.9140 C   0  0  0  0  0  1  0  0  0  0  0  0
  -29.9210  -30.2200   25.1790 C   0  0  0  0  0  1  0  0  0  0  0  0
  -21.3010  -27.2680   18.7100 C   0  0  0  0  0 15  0  0  0  0  0  0
  -22.9730  -25.8190   19.5160 C   0  0  0  0  0 15  0  0  0  0  0  0
  -24.6750  -24.2390   19.6080 C   0  0  0  0  0 15  0  0  0  0  0  0
  -26.7500  -23.2440   19.9180 C   0  0  0  0  0 15  0  0  0  0  0  0
  -29.6050  -20.8210   20.6610 C   0  0  0  0  0  0  0  0  0  0  0  0
  -31.4000  -18.5640   20.6480 C   0  0  0  0  0  2  0  0  0  0  0  0
  -31.4140  -17.5270   19.4510 C   0  0  0  0  0  2  0  0  0  0  0  0
  -30.1750  -16.6180   19.4800 C   0  0  0  0  0  2  0  0  0  0  0  0
  -28.9870  -17.4470   20.0080 C   0  0  0  0  0  3  0  0  0  0  0  0
  -29.2400  -18.2320   21.2900 C   0  0  0  0  0  2  0  0  0  0  0  0
  -30.0180  -19.3520   20.8120 N   0  0  0  0  0  0  0  0  0  0  0  0
  -30.7820  -21.2760   20.8520 O   0  0  0  0  0  0  0  0  0  0  0  0
  -28.1130  -21.7310   20.2650 N   0  0  0  0  0  2  0  0  0  0  0  0
  -28.7350  -22.4960   20.4350 H   0  0  0  0  0  0  0  0  0  0  0  0
  -26.4970  -17.3800   20.0400 C   0  0  0  0  0  0  0  0  0  0  0  0
  -25.6120  -16.3600   20.1750 C   0  0  0  0  0  0  0  0  0  0  0  0
  -26.3930  -15.1790   20.4010 C   0  0  0  0  0  0  0  0  0  0  0  0
  -27.7380  -16.7940   20.1570 N   0  0  0  0  0  0  0  0  0  0  0  0
  -27.6840  -15.4710   20.4400 N   0  0  0  0  0  0  0  0  0  0  0  0
  -25.9860  -13.7780   20.4880 C   0  0  0  0  0  0  0  0  0  0  0  0
  -26.2790  -12.9970   21.6280 C   0  0  0  0  0  3  0  0  0  0  0  0
  -25.8570  -11.6590   21.6880 C   0  0  0  0  0  3  0  0  0  0  0  0
  -25.1320  -11.0960   20.6170 C   0  0  0  0  0  0  0  0  0  0  0  0
  -24.8600  -11.8710   19.4810 C   0  0  0  0  0  3  0  0  0  0  0  0
  -25.2820  -13.2040   19.4090 C   0  0  0  0  0  3  0  0  0  0  0  0
  -24.6910   -9.7960   20.5830 O   0  0  0  0  0  0  0  0  0  0  0  0
  -23.9550   -9.2600   21.6070 C   0  0  0  0  0  0  0  0  0  0  0  0
  -22.7620   -9.8600   22.0600 C   0  0  0  0  0  3  0  0  0  0  0  0
  -21.9990   -9.2400   23.0710 C   0  0  0  0  0  3  0  0  0  0  0  0
  -22.4220   -8.0120   23.6190 C   0  0  0  0  0  0  0  0  0  0  0  0
  -23.6110   -7.4100   23.1640 C   0  0  0  0  0  3  0  0  0  0  0  0
  -24.3710   -8.0320   22.1580 C   0  0  0  0  0  0  0  0  0  0  0  0
  -25.5050   -7.4360   21.7110 F   0  0  0  0  0  0  0  0  0  0  0  0
  -21.6870   -7.4120   24.5800 F   0  0  0  0  0  0  0  0  0  0  0  0
  -24.1330  -16.4750   20.0070 C   0  0  0  0  0  0  0  0  0  0  0  0
  -23.3790  -15.6130   20.6670 N   0  0  0  0  0  0  0  0  0  0  0  0
  -23.6470  -17.3590   19.3010 O   0  0  0  0  0  0  0  0  0  0  0  0
  -23.7780  -14.9000   21.2560 H   0  0  0  0  0  0  0  0  0  0  0  0
  -22.3760  -15.6710   20.5910 H   0  0  0  0  0  0  0  0  0  0  0  0
  -26.3680  -18.7510   19.8210 N   0  0  0  0  0  0  0  0  0  0  0  0
  -25.4550  -19.1740   19.6950 H   0  0  0  0  0  0  0  0  0  0  0  0
  -27.1190  -19.4220   19.7350 H   0  0  0  0  0  0  0  0  0  0  0  0
  2  1  1  0
  3  1  1  0
  4 10  1  0
  4  2  2  0
  6  8  1  0
  7  5  2  0
  7 12  1  0
  9 16  1  0
  9  3  1  0
  9 11  1  0
 10  5  1  0
 10 11  1  0
 10  6  1  1
 11 13  1  0
 12 15  1  0
 14 11  1  0
 17 16  1  0
 17 18  1  0
 18 19  1  0
 20 31  2  0
 21 19  1  0
 21 26  1  0
 22 30  1  0
 22 32  1  0
 23 28  1  0
 23 25  1  0
 23 29  1  0
 24 30  1  0
 25 24  1  0
 26 25  2  0
 27 28  1  0
 27 21  1  0
 29 22  1  0
 30 20  1  0
 32 33  1  0
 32 34  2  0
 33 37  2  0
 35 33  1  0
 36 45  2  0
 36 41  1  0
 38 37  1  0
 40 36  1  0
 41 37  1  0
 41 42  2  0
 42 43  1  0
 44 43  2  0
 45 44  1  0
 46 20  1  0
 46 47  1  0
 46 56  1  0
 47 50  1  0
 48 47  1  0
 48 52  1  0
 49 48  2  0
 52 51  1  0
 54 52  1  0
 54 55  1  0
 54 53  1  0
 56 59  1  1
 56 57  1  0
 58 56  1  0
 64 70  1  0
 64 71  2  0
 65 70  1  0
 66 67  1  0
 66 65  1  0
 68 67  1  0
 68 77  1  0
 68 69  1  0
 70 69  1  0
 72 73  1  0
 72 64  1  0
 74 77  1  0
 74 75  2  0
 75 76  1  0
 76 78  2  0
 76 79  1  0
 77 78  1  0
 79 80  1  0
 80 81  2  0
 82 81  1  0
 83 82  2  0
 84 83  1  0
 84 79  2  0
 85 82  1  0
 85 86  1  0
 86 87  2  0
 86 91  1  0
 87 88  1  0
 88 89  2  0
 89 93  1  0
 90 89  1  0
 91 90  2  0
 92 91  1  0
 94 75  1  0
 94 95  1  0
 95 97  1  0
 96 94  2  0
 98 95  1  0
 99 74  1  0
100 99  1  0
101 99  1  0
M  ISO  4  18 101  19 101  64 100  72 100
M  END
>  <TORSDO>  (62) 
F 23

>  <SCORE>  (62) 
1.985

>  <name>  (62) 
65

>  <ligand_id>  (62) 
65

>  <original_smiles>  (62) 
[H]c1c([H])c([H])c2c(c1[H])C([H])([H])C([H])([H])C([H])([H])C2([H])N([H])C(=O)C1([H])N(C(=O)C([H])(N([H])C(=O)C([H])(N([H])C([H])([H])[H])C([H])([H])[H])C(C([H])([H])[H])(C([H])([H])[H])C([H])([H])[H])C([H])([H])c2c([H])c(OC([H])([H])C([H])([H])C([H])([H])C3([H])C([H])([H])C([H])([H])C([H])([H])C([H])([H])C4(C([H])([H])C([H])([H])[N+]([H])(C([H])([H])C([H])([H])C([H])([H])C([H])([H])N([H])C(=O)N5C([H])([H])C([H])([H])C([H])([H])C([H])(n6nc(-c7c([H])c([H])c(Oc8c([H])c([H])c(F)c([H])c8F)c([H])c7[H])c(C(=O)N([H])[H])c6N([H])[H])C5([H])[H])C([H])([H])C4([H])[H])[N+]3([H])[H])c([H])c([H])c2C1([H])[H]

>  <smiles>  (62) 
[H]c1c([H])c([H])c2c(c1[H])C([H])([H])C([H])([H])C([H])([H])C2([H])N([H])C(=O)C1([H])N(C(=O)C([H])(N([H])C(=O)C([H])(N([H])C([H])([H])[H])C([H])([H])[H])C(C([H])([H])[H])(C([H])([H])[H])C([H])([H])[H])C([H])([H])c2c([H])c(OC([H])([H])C([H])([H])C([H])([H])C3([H])C([H])([H])C([H])([H])C([H])([H])C([H])([H])C4(C([H])([H])C([H])([H])[N+]([H])(C([H])([H])C([H])([H])C([H])([H])C([H])([H])N([H])C(=O)N5C([H])([H])C([H])([H])C([H])([H])C([H])(n6nc(-c7c([H])c([H])c(Oc8c([H])c([H])c(F)c([H])c8F)c([H])c7[H])c(C(=O)N([H])[H])c6N([H])[H])C5([H])[H])C([H])([H])C4([H])[H])[N+]3([H])[H])c([H])c([H])c2C1([H])[H]

$$$$
66:0:0
     RDKit          3D

100108  0  0  1  0  0  0  0  0999 V2000
  -29.6010  -19.7240   20.5870 C   0  0  0  0  0  3  0  0  0  0  0  0
  -28.9850  -21.1540   19.9520 N   0  0  0  0  0  4  0  0  0  0  0  0
  -29.5040  -21.3190   19.1040 H   0  0  0  0  0  0  0  0  0  0  0  0
  -28.0690  -20.9000   19.6180 H   0  0  0  0  0  0  0  0  0  0  0  0
  -27.6120  -22.5440   21.6470 C   0  0  0  0  0  2  0  0  0  0  0  0
  -27.2310  -24.0230   21.5080 C   0  0  0  0  0  2  0  0  0  0  0  0
  -28.7730  -22.6650   20.6500 C   0  0  0  0  0  3  0  0  0  0  0  0
  -27.9620  -24.2080   20.1650 C   0  0  0  0  0  3  0  0  0  0  0  0
  -28.1990  -25.8400   20.2420 O   0  0  0  0  0  0  0  0  0  0  0  0
  -24.6270  -31.8110   23.1800 C   0  0  0  0  0  0  0  0  0  0  0  0
  -27.1800  -26.9310   20.1750 C   0  0  0  0  0  0  0  0  0  0  0  0
  -23.4300  -30.4170   21.5410 C   0  0  0  0  0  3  0  0  0  0  0  0
  -24.8790  -28.8070   20.1230 C   0  0  0  0  0  0  0  0  0  0  0  0
  -25.9980  -30.6240   21.3970 C   0  0  0  0  0  2  0  0  0  0  0  0
  -26.0670  -29.2130   20.7430 C   0  0  0  0  0  0  0  0  0  0  0  0
  -27.2120  -28.2960   20.7440 C   0  0  0  0  0  3  0  0  0  0  0  0
  -25.9620  -26.6730   19.5060 C   0  0  0  0  0  3  0  0  0  0  0  0
  -24.8510  -27.5570   19.4840 C   0  0  0  0  0  3  0  0  0  0  0  0
  -23.6600  -29.7270   20.1670 C   0  0  0  0  0  2  0  0  0  0  0  0
  -24.7060  -30.9780   22.0930 N   0  0  0  0  0  0  0  0  0  0  0  0
  -23.5380  -32.1070   23.6980 O   0  0  0  0  0  0  0  0  0  0  0  0
  -22.7300  -29.4260   22.5070 C   0  0  0  0  0  0  0  0  0  0  0  0
  -21.3980  -29.2750   22.3870 N   0  0  0  0  0  0  0  0  0  0  0  0
  -23.3930  -28.7950   23.3340 O   0  0  0  0  0  0  0  0  0  0  0  0
  -20.9160  -29.8350   21.6960 H   0  0  0  0  0  0  0  0  0  0  0  0
  -18.0070  -28.0940   22.9090 C   0  0  0  0  0  0  0  0  0  0  0  0
  -20.5710  -28.3420   23.1600 C   0  0  0  0  0  3  0  0  0  0  0  0
  -20.6600  -26.9100   22.5830 C   0  0  0  0  0  2  0  0  0  0  0  0
  -19.5510  -26.5970   21.5740 C   0  0  0  0  0  2  0  0  0  0  0  0
  -18.1720  -26.7480   22.2240 C   0  0  0  0  0  2  0  0  0  0  0  0
  -19.1340  -28.8490   23.3330 C   0  0  0  0  0  0  0  0  0  0  0  0
  -18.9230  -30.1080   23.9370 C   0  0  0  0  0  3  0  0  0  0  0  0
  -17.6220  -30.6140   24.1180 C   0  0  0  0  0  3  0  0  0  0  0  0
  -16.5110  -29.8560   23.7060 C   0  0  0  0  0  3  0  0  0  0  0  0
  -16.7040  -28.5980   23.1090 C   0  0  0  0  0  3  0  0  0  0  0  0
  -25.9000  -32.4510   23.8140 C   0  0  0  0  0  3  0  0  0  0  0  0
  -26.4070  -31.6800   25.0950 C   0  0  1  0  0  0  0  0  0  0  0  0
  -25.3080  -31.4510   26.1590 C   0  0  0  0  0  1  0  0  0  0  0  0
  -26.9870  -30.2970   24.7170 C   0  0  0  0  0  1  0  0  0  0  0  0
  -27.5560  -32.4730   25.7610 C   0  0  0  0  0  1  0  0  0  0  0  0
  -25.5830  -33.8480   24.1540 N   0  0  0  0  0  0  0  0  0  0  0  0
  -25.9090  -34.9140   23.4110 C   0  0  0  0  0  0  0  0  0  0  0  0
  -26.5700  -34.8230   22.3740 O   0  0  0  0  0  0  0  0  0  0  0  0
  -24.9940  -33.9920   24.9630 H   0  0  0  0  0  0  0  0  0  0  0  0
  -24.1740  -36.7150   23.1080 C   0  0  0  0  0  1  0  0  0  0  0  0
  -25.4290  -36.3000   23.8920 C   0  0  0  0  0  3  0  0  0  0  0  0
  -27.5740  -37.1830   24.7000 C   0  0  0  0  0  1  0  0  0  0  0  0
  -26.4580  -37.3560   23.7730 N   0  0  0  0  0  0  0  0  0  0  0  0
  -26.0520  -38.2730   23.9350 H   0  0  0  0  0  0  0  0  0  0  0  0
  -31.1660  -19.8060   20.6900 C   0  0  0  0  0  2  0  0  0  0  0  0
  -31.9870  -20.8380   21.5290 C   0  0  0  0  0  3  0  0  0  0  0  0
  -32.3760  -22.1650   20.8060 C   0  0  0  0  0  2  0  0  0  0  0  0
  -33.7890  -22.2230   20.3800 N   0  0  0  0  0  4  0  0  0  0  0  0
  -34.4170  -22.1460   21.1600 H   0  0  0  0  0  0  0  0  0  0  0  0
  -33.9740  -23.1020   19.9260 H   0  0  0  0  0  0  0  0  0  0  0  0
  -34.0040  -21.4950   19.7210 H   0  0  0  0  0  0  0  0  0  0  0  0
  -31.6890  -20.9450   23.0550 C   0  0  0  0  0  2  0  0  0  0  0  0
  -30.4680  -21.6820   23.4420 N   0  0  0  0  0  4  0  0  0  0  0  0
  -30.4490  -22.6200   23.0870 H   0  0  0  0  0  0  0  0  0  0  0  0
  -30.4590  -21.7580   24.4460 H   0  0  0  0  0  0  0  0  0  0  0  0
  -29.6310  -21.1880   23.1940 H   0  0  0  0  0  0  0  0  0  0  0  0
  -29.4180  -18.0560   19.9120 C   0  0  0  0  0  2  0  0  0  0  0  0
  -30.3580  -15.2450   20.2950 C   0  0  0  0  0  0  0  0  0  0  0  0
  -30.3550  -12.7780   19.4980 C   0  0  0  0  0  2  0  0  0  0  0  0
  -29.4340  -12.5550   18.2700 C   0  0  0  0  0  2  0  0  0  0  0  0
  -27.9870  -12.2820   18.7150 C   0  0  0  0  0  2  0  0  0  0  0  0
  -27.5340  -13.2570   19.8300 C   0  0  0  0  0  3  0  0  0  0  0  0
  -28.5830  -13.4270   20.9540 C   0  0  0  0  0  2  0  0  0  0  0  0
  -29.8190  -13.9250   20.3240 N   0  0  0  0  0  0  0  0  0  0  0  0
  -31.5430  -15.2760   19.9350 O   0  0  0  0  0  0  0  0  0  0  0  0
  -29.5830  -16.4900   20.4970 N   0  0  0  0  0  0  0  0  0  0  0  0
  -28.7220  -16.2310   20.9580 H   0  0  0  0  0  0  0  0  0  0  0  0
  -25.1650  -13.8000   20.6060 C   0  0  0  0  0  0  0  0  0  0  0  0
  -24.1080  -13.0160   20.9760 C   0  0  0  0  0  0  0  0  0  0  0  0
  -24.5780  -11.6670   20.9280 C   0  0  0  0  0  0  0  0  0  0  0  0
  -26.2090  -12.9310   20.3440 N   0  0  0  0  0  0  0  0  0  0  0  0
  -25.8680  -11.6410   20.6030 N   0  0  0  0  0  0  0  0  0  0  0  0
  -23.8550  -10.4000   21.1110 C   0  0  0  0  0  0  0  0  0  0  0  0
  -24.3020   -9.4160   22.0190 C   0  0  0  0  0  3  0  0  0  0  0  0
  -23.5740   -8.2190   22.1930 C   0  0  0  0  0  3  0  0  0  0  0  0
  -22.3870   -7.9950   21.4550 C   0  0  0  0  0  0  0  0  0  0  0  0
  -21.9600   -8.9690   20.5340 C   0  0  0  0  0  3  0  0  0  0  0  0
  -22.6870  -10.1580   20.3590 C   0  0  0  0  0  3  0  0  0  0  0  0
  -21.6290   -6.8520   21.5390 O   0  0  0  0  0  0  0  0  0  0  0  0
  -21.6140   -6.0810   22.6740 C   0  0  0  0  0  0  0  0  0  0  0  0
  -21.2240   -6.6040   23.9270 C   0  0  0  0  0  3  0  0  0  0  0  0
  -21.1560   -5.7590   25.0520 C   0  0  0  0  0  3  0  0  0  0  0  0
  -21.4680   -4.3920   24.9280 C   0  0  0  0  0  0  0  0  0  0  0  0
  -21.8530   -3.8680   23.6800 C   0  0  0  0  0  3  0  0  0  0  0  0
  -21.9220   -4.7100   22.5570 C   0  0  0  0  0  0  0  0  0  0  0  0
  -22.2710   -4.1950   21.3530 F   0  0  0  0  0  0  0  0  0  0  0  0
  -21.3960   -3.5790   26.0060 F   0  0  0  0  0  0  0  0  0  0  0  0
  -22.7120  -13.4860   21.2620 C   0  0  0  0  0  0  0  0  0  0  0  0
  -21.9910  -12.7800   22.1260 N   0  0  0  0  0  0  0  0  0  0  0  0
  -22.2680  -14.5160   20.7550 O   0  0  0  0  0  0  0  0  0  0  0  0
  -22.3630  -11.9450   22.5570 H   0  0  0  0  0  0  0  0  0  0  0  0
  -21.0540  -13.0750   22.3610 H   0  0  0  0  0  0  0  0  0  0  0  0
  -25.3210  -15.1730   20.4410 N   0  0  0  0  0  0  0  0  0  0  0  0
  -24.5540  -15.8210   20.5770 H   0  0  0  0  0  0  0  0  0  0  0  0
  -26.1500  -15.6160   20.0680 H   0  0  0  0  0  0  0  0  0  0  0  0
  1 62  1  0
  1 50  1  0
  2  1  1  0
  3  2  1  0
  4  2  1  0
  6  5  1  0
  7  2  1  0
  7  5  1  0
  8  9  1  0
  8  7  1  0
  8  6  1  0
 10 21  2  0
 11  9  1  0
 11 16  1  0
 12 20  1  0
 12 22  1  0
 13 19  1  0
 13 15  1  0
 14 20  1  0
 15 16  2  0
 15 14  1  0
 17 11  2  0
 18 17  1  0
 18 13  2  0
 19 12  1  0
 20 10  1  0
 22 24  2  0
 23 22  1  0
 25 23  1  0
 26 35  2  0
 26 31  1  0
 27 23  1  0
 27 31  1  0
 28 27  1  0
 29 30  1  0
 29 28  1  0
 30 26  1  0
 31 32  2  0
 32 33  1  0
 34 33  2  0
 35 34  1  0
 36 10  1  0
 36 41  1  0
 36 37  1  0
 37 40  1  1
 37 38  1  0
 39 37  1  0
 41 44  1  0
 42 46  1  0
 42 41  1  0
 43 42  2  0
 46 45  1  0
 48 46  1  0
 48 49  1  0
 48 47  1  0
 50 51  1  0
 51 57  1  0
 52 51  1  0
 53 52  1  0
 53 54  1  0
 55 53  1  0
 56 53  1  0
 57 58  1  0
 58 60  1  0
 59 58  1  0
 61 58  1  0
 62 71  1  0
 63 69  1  0
 63 71  1  0
 64 69  1  0
 65 66  1  0
 65 64  1  0
 67 66  1  0
 67 76  1  0
 67 68  1  0
 69 68  1  0
 70 63  2  0
 71 72  1  0
 73 74  2  0
 74 93  1  0
 75 74  1  0
 75 78  1  0
 76 77  1  0
 76 73  1  0
 77 75  2  0
 78 79  1  0
 79 80  2  0
 81 84  1  0
 81 80  1  0
 82 81  2  0
 83 82  1  0
 83 78  2  0
 84 85  1  0
 85 86  1  0
 86 87  2  0
 88 87  1  0
 88 92  1  0
 89 88  2  0
 90 85  2  0
 90 89  1  0
 91 90  1  0
 93 94  1  0
 94 97  1  0
 94 96  1  0
 95 93  2  0
 98 99  1  0
 98 73  1  0
100 98  1  0
M  ISO  4   8 101   9 101  63 100  71 100
M  END
>  <TORSDO>  (63) 
F 25

>  <SCORE>  (63) 
-14.844

>  <name>  (63) 
66

>  <ligand_id>  (63) 
66

>  <original_smiles>  (63) 
[H]c1c([H])c([H])c2c(c1[H])C([H])([H])C([H])([H])C([H])([H])C2([H])N([H])C(=O)C1([H])N(C(=O)C([H])(N([H])C(=O)C([H])(N([H])C([H])([H])[H])C([H])([H])[H])C(C([H])([H])[H])(C([H])([H])[H])C([H])([H])[H])C([H])([H])c2c([H])c(OC3([H])C([H])([H])C([H])([H])C3([H])[N+]([H])([H])C([H])(C([H])([H])N([H])C(=O)N3C([H])([H])C([H])([H])C([H])([H])C([H])(n4nc(-c5c([H])c([H])c(Oc6c([H])c([H])c(F)c([H])c6F)c([H])c5[H])c(C(=O)N([H])[H])c4N([H])[H])C3([H])[H])C([H])([H])C([H])(C([H])([H])[N+]([H])([H])[H])C([H])([H])[N+]([H])([H])[H])c([H])c([H])c2C1([H])[H]

>  <smiles>  (63) 
[H]c1c([H])c([H])c2c(c1[H])C([H])([H])C([H])([H])C([H])([H])C2([H])N([H])C(=O)C1([H])N(C(=O)C([H])(N([H])C(=O)C([H])(N([H])C([H])([H])[H])C([H])([H])[H])C(C([H])([H])[H])(C([H])([H])[H])C([H])([H])[H])C([H])([H])c2c([H])c(OC3([H])C([H])([H])C([H])([H])C3([H])[N+]([H])([H])C([H])(C([H])([H])N([H])C(=O)N3C([H])([H])C([H])([H])C([H])([H])C([H])(n4nc(-c5c([H])c([H])c(Oc6c([H])c([H])c(F)c([H])c6F)c([H])c5[H])c(C(=O)N([H])[H])c4N([H])[H])C3([H])[H])C([H])([H])C([H])(C([H])([H])[N+]([H])([H])[H])C([H])([H])[N+]([H])([H])[H])c([H])c([H])c2C1([H])[H]

$$$$
67:0:0
     RDKit          3D

 96106  0  0  1  0  0  0  0  0999 V2000
  -27.2910  -21.2710   21.0880 C   0  0  0  0  0  2  0  0  0  0  0  0
  -30.0800  -20.1920   21.6680 C   0  0  0  0  0  2  0  0  0  0  0  0
  -28.0190  -22.2820   22.0090 C   0  0  0  0  0  2  0  0  0  0  0  0
  -30.4610  -21.7060   21.4560 C   0  0  0  0  0  2  0  0  0  0  0  0
  -28.7620  -21.3600   18.9090 C   0  0  0  0  0  2  0  0  0  0  0  0
  -28.5540  -22.8900   19.0410 C   0  0  0  0  0  2  0  0  0  0  0  0
  -28.1400  -20.4720   20.0300 C   0  0  0  0  0  3  0  0  0  0  0  0
  -29.1480  -19.4610   20.6760 C   0  0  0  0  0  3  0  0  0  0  0  0
  -29.3460  -22.8110   21.4660 C   0  0  0  0  0  3  0  0  0  0  0  0
  -29.2050  -23.5950   20.1940 N   0  0  2  0  0  4  0  0  0  0  0  0
  -30.1610  -23.7470   19.9030 H   0  0  0  0  0  0  0  0  0  0  0  0
  -29.7510  -18.3790   19.6990 C   0  0  0  0  0  2  0  0  0  0  0  0
  -31.4560  -15.0630   20.0700 C   0  0  0  0  0  0  0  0  0  0  0  0
  -31.1630  -12.8150   19.1680 C   0  0  0  0  0  2  0  0  0  0  0  0
  -30.1950  -12.7600   17.9680 C   0  0  0  0  0  2  0  0  0  0  0  0
  -28.7330  -12.6950   18.4380 C   0  0  0  0  0  2  0  0  0  0  0  0
  -28.3840  -13.7060   19.5640 C   0  0  0  0  0  3  0  0  0  0  0  0
  -29.4500  -13.6860   20.6790 C   0  0  0  0  0  2  0  0  0  0  0  0
  -30.7360  -13.9180   20.0360 N   0  0  0  0  0  0  0  0  0  0  0  0
  -32.6770  -15.0550   20.1760 O   0  0  0  0  0  0  0  0  0  0  0  0
  -32.4780  -17.1380   18.0260 C   0  0  0  0  0  2  0  0  0  0  0  0
  -32.2800  -18.0660   19.2520 C   0  0  0  0  0  2  0  0  0  0  0  0
  -31.1900  -16.3240   18.0270 C   0  0  0  0  0  2  0  0  0  0  0  0
  -31.0420  -17.5150   20.0140 C   0  0  0  0  0  3  0  0  0  0  0  0
  -30.8580  -16.1360   19.4660 N   0  0  0  0  0  0  0  0  0  0  0  0
  -26.0330  -14.4020   20.3070 C   0  0  0  0  0  0  0  0  0  0  0  0
  -24.9340  -13.6760   20.6660 C   0  0  0  0  0  0  0  0  0  0  0  0
  -25.3400  -12.2990   20.6280 C   0  0  0  0  0  0  0  0  0  0  0  0
  -27.0380  -13.4820   20.0730 N   0  0  0  0  0  0  0  0  0  0  0  0
  -26.6300  -12.2140   20.3340 N   0  0  0  0  0  0  0  0  0  0  0  0
  -24.5670  -11.0670   20.8030 C   0  0  0  0  0  0  0  0  0  0  0  0
  -24.9110  -10.1030   21.7830 C   0  0  0  0  0  3  0  0  0  0  0  0
  -24.1400   -8.9310   21.9340 C   0  0  0  0  0  3  0  0  0  0  0  0
  -23.0120   -8.7080   21.1100 C   0  0  0  0  0  0  0  0  0  0  0  0
  -22.6890   -9.6550   20.1200 C   0  0  0  0  0  3  0  0  0  0  0  0
  -23.4590  -10.8210   19.9680 C   0  0  0  0  0  3  0  0  0  0  0  0
  -22.2210   -7.5920   21.1730 O   0  0  0  0  0  0  0  0  0  0  0  0
  -21.9980   -6.9360   22.3580 C   0  0  0  0  0  0  0  0  0  0  0  0
  -21.4120   -7.5830   23.4660 C   0  0  0  0  0  3  0  0  0  0  0  0
  -21.1420   -6.8530   24.6430 C   0  0  0  0  0  3  0  0  0  0  0  0
  -21.4430   -5.4800   24.7040 C   0  0  0  0  0  0  0  0  0  0  0  0
  -22.0220   -4.8340   23.5990 C   0  0  0  0  0  3  0  0  0  0  0  0
  -22.2950   -5.5620   22.4250 C   0  0  0  0  0  0  0  0  0  0  0  0
  -22.8330   -4.9290   21.3550 F   0  0  0  0  0  0  0  0  0  0  0  0
  -21.1760   -4.7760   25.8320 F   0  0  0  0  0  0  0  0  0  0  0  0
  -23.5560  -14.2010   20.9260 C   0  0  0  0  0  0  0  0  0  0  0  0
  -22.8040  -13.5430   21.7990 N   0  0  0  0  0  0  0  0  0  0  0  0
  -23.1560  -15.2480   20.4080 O   0  0  0  0  0  0  0  0  0  0  0  0
  -23.1340  -12.6960   22.2400 H   0  0  0  0  0  0  0  0  0  0  0  0
  -21.8840  -13.8940   22.0270 H   0  0  0  0  0  0  0  0  0  0  0  0
  -26.2570  -15.7710   20.1440 N   0  0  0  0  0  0  0  0  0  0  0  0
  -25.5050  -16.4390   20.2400 H   0  0  0  0  0  0  0  0  0  0  0  0
  -27.1260  -16.1820   19.8360 H   0  0  0  0  0  0  0  0  0  0  0  0
  -28.6830  -25.0000   20.3890 C   0  0  0  0  0  2  0  0  0  0  0  0
  -28.5690  -25.8270   19.0710 C   0  0  0  0  0  2  0  0  0  0  0  0
  -28.3720  -27.2280   19.2690 O   0  0  0  0  0  0  0  0  0  0  0  0
  -24.5630  -31.8070   23.0510 C   0  0  0  0  0  0  0  0  0  0  0  0
  -27.1220  -27.8010   19.3900 C   0  0  0  0  0  0  0  0  0  0  0  0
  -23.2740  -30.5400   21.3540 C   0  0  0  0  0  3  0  0  0  0  0  0
  -24.6690  -29.1800   19.7020 C   0  0  0  0  0  0  0  0  0  0  0  0
  -25.7610  -31.0100   21.0160 C   0  0  0  0  0  2  0  0  0  0  0  0
  -25.8400  -29.6990   20.2580 C   0  0  0  0  0  0  0  0  0  0  0  0
  -27.0610  -29.0110   20.1180 C   0  0  0  0  0  3  0  0  0  0  0  0
  -25.9320  -27.2850   18.8270 C   0  0  0  0  0  3  0  0  0  0  0  0
  -24.7070  -27.9580   18.9980 C   0  0  0  0  0  3  0  0  0  0  0  0
  -23.4000  -29.9770   19.9090 C   0  0  0  0  0  2  0  0  0  0  0  0
  -24.5530  -31.1350   21.8630 N   0  0  0  0  0  0  0  0  0  0  0  0
  -23.5210  -31.9860   23.6900 O   0  0  0  0  0  0  0  0  0  0  0  0
  -22.7190  -29.4170   22.2630 C   0  0  0  0  0  0  0  0  0  0  0  0
  -21.4030  -29.1670   22.1730 N   0  0  0  0  0  0  0  0  0  0  0  0
  -23.4730  -28.7680   22.9940 O   0  0  0  0  0  0  0  0  0  0  0  0
  -20.8540  -29.7530   21.5560 H   0  0  0  0  0  0  0  0  0  0  0  0
  -18.1520  -27.6630   22.6510 C   0  0  0  0  0  0  0  0  0  0  0  0
  -20.6840  -28.1150   22.8830 C   0  0  0  0  0  3  0  0  0  0  0  0
  -20.8920  -26.7400   22.1970 C   0  0  0  0  0  2  0  0  0  0  0  0
  -19.7850  -26.3860   21.2020 C   0  0  0  0  0  2  0  0  0  0  0  0
  -18.4260  -26.3670   21.9080 C   0  0  0  0  0  2  0  0  0  0  0  0
  -19.2130  -28.4890   23.1040 C   0  0  0  0  0  0  0  0  0  0  0  0
  -18.9110  -29.6940   23.7700 C   0  0  0  0  0  3  0  0  0  0  0  0
  -17.5720  -30.0820   23.9810 C   0  0  0  0  0  3  0  0  0  0  0  0
  -16.5250  -29.2530   23.5400 C   0  0  0  0  0  3  0  0  0  0  0  0
  -16.8150  -28.0430   22.8870 C   0  0  0  0  0  3  0  0  0  0  0  0
  -25.8790  -32.4090   23.6370 C   0  0  0  0  0  3  0  0  0  0  0  0
  -26.4860  -31.5480   24.8130 C   0  0  1  0  0  0  0  0  0  0  0  0
  -25.4660  -31.2180   25.9280 C   0  0  0  0  0  1  0  0  0  0  0  0
  -27.0600  -30.2120   24.2820 C   0  0  0  0  0  1  0  0  0  0  0  0
  -27.6730  -32.3070   25.4540 C   0  0  0  0  0  1  0  0  0  0  0  0
  -25.5720  -33.7710   24.1010 N   0  0  0  0  0  0  0  0  0  0  0  0
  -25.8720  -34.8860   23.4230 C   0  0  0  0  0  0  0  0  0  0  0  0
  -26.5120  -34.8750   22.3680 O   0  0  0  0  0  0  0  0  0  0  0  0
  -24.9950  -33.8450   24.9250 H   0  0  0  0  0  0  0  0  0  0  0  0
  -24.1260  -36.6850   23.2700 C   0  0  0  0  0  1  0  0  0  0  0  0
  -25.3930  -36.2270   24.0090 C   0  0  0  0  0  3  0  0  0  0  0  0
  -27.5520  -37.0570   24.8370 C   0  0  0  0  0  1  0  0  0  0  0  0
  -26.4200  -37.2940   23.9460 N   0  0  0  0  0  0  0  0  0  0  0  0
  -26.0160  -38.2020   24.1690 H   0  0  0  0  0  0  0  0  0  0  0  0
  1  3  1  0
  4  2  1  0
  5  6  1  0
  6 10  1  0
  7  5  1  0
  7  8  1  0
  7  1  1  0
  8 12  1  0
  8  2  1  0
  9  4  1  0
  9  3  1  0
 10 54  1  0
 10  9  1  0
 10 11  1  6
 13 20  2  0
 14 19  1  0
 15 16  1  0
 15 14  1  0
 17 16  1  0
 17 29  1  0
 17 18  1  0
 19 13  1  0
 19 18  1  0
 21 23  1  0
 21 22  1  0
 22 24  1  0
 23 25  1  0
 24 12  1  0
 25 24  1  0
 25 13  1  0
 26 27  2  0
 27 46  1  0
 28 27  1  0
 28 31  1  0
 29 26  1  0
 29 30  1  0
 30 28  2  0
 31 32  1  0
 32 33  2  0
 34 37  1  0
 34 33  1  0
 35 34  2  0
 36 35  1  0
 36 31  2  0
 37 38  1  0
 38 43  2  0
 38 39  1  0
 39 40  2  0
 40 41  1  0
 41 45  1  0
 42 41  2  0
 43 42  1  0
 44 43  1  0
 46 47  1  0
 47 50  1  0
 47 49  1  0
 48 46  2  0
 51 52  1  0
 51 26  1  0
 53 51  1  0
 55 56  1  0
 55 54  1  0
 56 58  1  0
 57 68  2  0
 58 63  1  0
 59 67  1  0
 59 69  1  0
 60 66  1  0
 60 62  1  0
 61 67  1  0
 62 61  1  0
 63 62  2  0
 64 65  1  0
 64 58  2  0
 65 60  2  0
 66 59  1  0
 67 57  1  0
 69 71  2  0
 70 69  1  0
 72 70  1  0
 73 82  2  0
 73 78  1  0
 74 70  1  0
 74 78  1  0
 75 74  1  0
 76 77  1  0
 76 75  1  0
 77 73  1  0
 78 79  2  0
 79 80  1  0
 81 80  2  0
 82 81  1  0
 83 57  1  0
 83 88  1  0
 83 84  1  0
 84 87  1  1
 84 85  1  0
 86 84  1  0
 88 91  1  0
 89 93  1  0
 89 88  1  0
 90 89  2  0
 93 92  1  0
 95 93  1  0
 95 96  1  0
 95 94  1  0
M  ISO  4  13 100  25 100  55 101  56 101
M  END
>  <TORSDO>  (64) 
F 19

>  <SCORE>  (64) 
-11.767

>  <name>  (64) 
67

>  <ligand_id>  (64) 
67

>  <original_smiles>  (64) 
[H]c1c([H])c([H])c2c(c1[H])C([H])([H])C([H])([H])C([H])([H])C2([H])N([H])C(=O)C1([H])N(C(=O)C([H])(N([H])C(=O)C([H])(N([H])C([H])([H])[H])C([H])([H])[H])C(C([H])([H])[H])(C([H])([H])[H])C([H])([H])[H])C([H])([H])c2c([H])c(OC([H])([H])C([H])([H])[N+]3([H])C([H])([H])C([H])([H])C4([H])C([H])([H])C([H])([H])C3([H])C([H])([H])C([H])([H])C4([H])C([H])([H])C3([H])N(C(=O)N4C([H])([H])C([H])([H])C([H])([H])C([H])(n5nc(-c6c([H])c([H])c(Oc7c([H])c([H])c(F)c([H])c7F)c([H])c6[H])c(C(=O)N([H])[H])c5N([H])[H])C4([H])[H])C([H])([H])C([H])([H])C3([H])[H])c([H])c([H])c2C1([H])[H]

>  <smiles>  (64) 
[H]c1c([H])c([H])c2c(c1[H])C([H])([H])C([H])([H])C([H])([H])C2([H])N([H])C(=O)C1([H])N(C(=O)C([H])(N([H])C(=O)C([H])(N([H])C([H])([H])[H])C([H])([H])[H])C(C([H])([H])[H])(C([H])([H])[H])C([H])([H])[H])C([H])([H])c2c([H])c(OC([H])([H])C([H])([H])[N+]3([H])C([H])([H])C([H])([H])C4([H])C([H])([H])C([H])([H])C3([H])C([H])([H])C([H])([H])C4([H])C([H])([H])C3([H])N(C(=O)N4C([H])([H])C([H])([H])C([H])([H])C([H])(n5nc(-c6c([H])c([H])c(Oc7c([H])c([H])c(F)c([H])c7F)c([H])c6[H])c(C(=O)N([H])[H])c5N([H])[H])C4([H])[H])C([H])([H])C([H])([H])C3([H])[H])c([H])c([H])c2C1([H])[H]

$$$$
68:0:0
     RDKit          3D

101109  0  0  1  0  0  0  0  0999 V2000
  -30.8720  -21.0660   25.2960 C   0  0  0  0  0  2  0  0  0  0  0  0
  -32.0950  -21.5310   24.4860 C   0  0  0  0  0  2  0  0  0  0  0  0
  -29.6760  -20.4920   24.5190 C   0  0  0  0  0  2  0  0  0  0  0  0
  -32.3810  -20.7860   23.1650 C   0  0  0  0  0  2  0  0  0  0  0  0
  -29.2350  -21.2880   23.2720 C   0  0  0  0  0  2  0  0  0  0  0  0
  -31.9590  -21.5550   21.8850 C   0  0  0  0  0  2  0  0  0  0  0  0
  -29.5300  -20.5590   21.9360 C   0  0  0  0  0  2  0  0  0  0  0  0
  -30.7120  -21.0950   21.0600 C   0  0  2  0  0  0  0  0  0  0  0  0
  -31.0970  -20.0240   20.0500 N   0  0  0  0  0  4  0  0  0  0  0  0
  -31.7230  -20.4430   19.3810 H   0  0  0  0  0  0  0  0  0  0  0  0
  -30.2590  -19.8060   19.5370 H   0  0  0  0  0  0  0  0  0  0  0  0
  -31.7050  -18.6920   20.4740 C   0  0  0  0  0  3  0  0  0  0  0  0
  -33.1370  -18.5590   19.8790 C   0  0  0  0  0  2  0  0  0  0  0  0
  -34.1940  -18.7240   20.8660 N   0  0  0  0  0  0  0  0  0  0  0  0
  -34.2450  -19.6850   21.1850 H   0  0  0  0  0  0  0  0  0  0  0  0
  -35.0930  -18.5530   20.4260 H   0  0  0  0  0  0  0  0  0  0  0  0
  -30.8390  -17.4470   20.0240 C   0  0  0  0  0  2  0  0  0  0  0  0
  -31.7160  -15.0710   20.5370 C   0  0  0  0  0  0  0  0  0  0  0  0
  -31.5070  -12.7260   19.7770 C   0  0  0  0  0  2  0  0  0  0  0  0
  -30.6370  -12.7250   18.5000 C   0  0  0  0  0  2  0  0  0  0  0  0
  -29.1390  -12.6580   18.8590 C   0  0  0  0  0  2  0  0  0  0  0  0
  -28.7340  -13.6810   19.9580 C   0  0  0  0  0  3  0  0  0  0  0  0
  -29.7260  -13.6320   21.1470 C   0  0  0  0  0  2  0  0  0  0  0  0
  -31.0810  -13.8630   20.6190 N   0  0  0  0  0  0  0  0  0  0  0  0
  -32.8510  -15.1810   20.0700 O   0  0  0  0  0  0  0  0  0  0  0  0
  -30.9430  -16.1590   20.7880 N   0  0  0  0  0  0  0  0  0  0  0  0
  -30.1140  -15.9260   21.3140 H   0  0  0  0  0  0  0  0  0  0  0  0
  -26.3690  -14.4340   20.6440 C   0  0  0  0  0  0  0  0  0  0  0  0
  -25.2340  -13.7280   20.9430 C   0  0  0  0  0  0  0  0  0  0  0  0
  -25.5890  -12.3480   20.8440 C   0  0  0  0  0  0  0  0  0  0  0  0
  -27.3500  -13.4870   20.3870 N   0  0  0  0  0  0  0  0  0  0  0  0
  -26.8810  -12.2260   20.5630 N   0  0  0  0  0  0  0  0  0  0  0  0
  -24.7620  -11.1400   20.9410 C   0  0  0  0  0  0  0  0  0  0  0  0
  -25.0650  -10.1060   21.8530 C   0  0  0  0  0  3  0  0  0  0  0  0
  -24.2400   -8.9630   21.9410 C   0  0  0  0  0  3  0  0  0  0  0  0
  -23.1000   -8.8470   21.1130 C   0  0  0  0  0  0  0  0  0  0  0  0
  -22.8150   -9.8680   20.1890 C   0  0  0  0  0  3  0  0  0  0  0  0
  -23.6410  -11.0020   20.0990 C   0  0  0  0  0  3  0  0  0  0  0  0
  -22.2570   -7.7610   21.1110 O   0  0  0  0  0  0  0  0  0  0  0  0
  -21.9910   -7.0530   22.2550 C   0  0  0  0  0  0  0  0  0  0  0  0
  -21.4480   -7.6680   23.4050 C   0  0  0  0  0  3  0  0  0  0  0  0
  -21.1270   -6.8900   24.5350 C   0  0  0  0  0  3  0  0  0  0  0  0
  -21.3400   -5.4980   24.5160 C   0  0  0  0  0  0  0  0  0  0  0  0
  -21.8770   -4.8840   23.3720 C   0  0  0  0  0  3  0  0  0  0  0  0
  -22.1990   -5.6580   22.2430 C   0  0  0  0  0  0  0  0  0  0  0  0
  -22.6950   -5.0560   21.1350 F   0  0  0  0  0  0  0  0  0  0  0  0
  -21.0250   -4.7510   25.5980 F   0  0  0  0  0  0  0  0  0  0  0  0
  -23.8710  -14.3000   21.2110 C   0  0  0  0  0  0  0  0  0  0  0  0
  -23.0770  -13.6310   22.0400 N   0  0  0  0  0  0  0  0  0  0  0  0
  -23.5200  -15.3730   20.7220 O   0  0  0  0  0  0  0  0  0  0  0  0
  -23.3700  -12.7610   22.4580 H   0  0  0  0  0  0  0  0  0  0  0  0
  -22.1620  -13.9980   22.2580 H   0  0  0  0  0  0  0  0  0  0  0  0
  -26.6430  -15.7950   20.5480 N   0  0  0  0  0  0  0  0  0  0  0  0
  -25.9240  -16.4980   20.6840 H   0  0  0  0  0  0  0  0  0  0  0  0
  -27.5210  -16.1870   20.2340 H   0  0  0  0  0  0  0  0  0  0  0  0
  -30.0910  -22.3980   20.3510 C   0  0  0  0  0  2  0  0  0  0  0  0
  -30.9940  -23.4470   19.8200 N   0  0  0  0  0  0  0  0  0  0  0  0
  -31.9320  -23.2450   20.1530 H   0  0  0  0  0  0  0  0  0  0  0  0
  -30.7110  -24.8620   20.2170 C   0  0  0  0  0  2  0  0  0  0  0  0
  -29.4160  -25.5950   19.6960 C   0  0  0  0  0  2  0  0  0  0  0  0
  -29.3740  -27.0240   20.0150 O   0  0  0  0  0  0  0  0  0  0  0  0
  -24.9310  -31.4970   23.4290 C   0  0  0  0  0  0  0  0  0  0  0  0
  -28.1540  -27.7030   19.9860 C   0  0  0  0  0  0  0  0  0  0  0  0
  -23.9640  -30.2560   21.5210 C   0  0  0  0  0  3  0  0  0  0  0  0
  -25.6380  -29.0510   20.0130 C   0  0  0  0  0  0  0  0  0  0  0  0
  -26.4630  -30.8220   21.5700 C   0  0  0  0  0  2  0  0  0  0  0  0
  -26.7100  -29.5630   20.7540 C   0  0  0  0  0  0  0  0  0  0  0  0
  -27.9680  -28.9000   20.7320 C   0  0  0  0  0  3  0  0  0  0  0  0
  -27.0570  -27.2310   19.2280 C   0  0  0  0  0  3  0  0  0  0  0  0
  -25.8120  -27.8910   19.2430 C   0  0  0  0  0  3  0  0  0  0  0  0
  -24.3230  -29.8010   20.0820 C   0  0  0  0  0  2  0  0  0  0  0  0
  -25.1340  -30.8670   22.2340 N   0  0  0  0  0  0  0  0  0  0  0  0
  -23.7970  -31.6020   23.9150 O   0  0  0  0  0  0  0  0  0  0  0  0
  -23.3420  -29.0610   22.2820 C   0  0  0  0  0  0  0  0  0  0  0  0
  -22.0480  -28.7970   22.0360 N   0  0  0  0  0  0  0  0  0  0  0  0
  -24.0250  -28.3820   23.0530 O   0  0  0  0  0  0  0  0  0  0  0  0
  -21.5540  -29.4050   21.3970 H   0  0  0  0  0  0  0  0  0  0  0  0
  -18.7770  -27.2610   22.0910 C   0  0  0  0  0  0  0  0  0  0  0  0
  -21.2730  -27.6960   22.6070 C   0  0  0  0  0  3  0  0  0  0  0  0
  -21.5520  -26.3710   21.8600 C   0  0  0  0  0  2  0  0  0  0  0  0
  -20.5620  -26.0980   20.7250 C   0  0  0  0  0  2  0  0  0  0  0  0
  -19.1280  -26.0380   21.2630 C   0  0  0  0  0  2  0  0  0  0  0  0
  -19.7840  -28.0480   22.7100 C   0  0  0  0  0  0  0  0  0  0  0  0
  -19.4050  -29.1940   23.4410 C   0  0  0  0  0  3  0  0  0  0  0  0
  -18.0500  -29.5550   23.5640 C   0  0  0  0  0  3  0  0  0  0  0  0
  -17.0550  -28.7630   22.9620 C   0  0  0  0  0  3  0  0  0  0  0  0
  -17.4200  -27.6190   22.2310 C   0  0  0  0  0  3  0  0  0  0  0  0
  -26.1130  -32.1330   24.2260 C   0  0  0  0  0  3  0  0  0  0  0  0
  -26.4960  -31.3220   25.5240 C   0  0  1  0  0  0  0  0  0  0  0  0
  -25.2900  -31.0080   26.4400 C   0  0  0  0  0  1  0  0  0  0  0  0
  -27.1700  -29.9820   25.1500 C   0  0  0  0  0  1  0  0  0  0  0  0
  -27.5320  -32.1190   26.3530 C   0  0  0  0  0  1  0  0  0  0  0  0
  -25.7250  -33.5090   24.5720 N   0  0  0  0  0  0  0  0  0  0  0  0
  -26.1380  -34.6030   23.9190 C   0  0  0  0  0  0  0  0  0  0  0  0
  -26.9550  -34.5620   22.9930 O   0  0  0  0  0  0  0  0  0  0  0  0
  -25.0200  -33.6170   25.2860 H   0  0  0  0  0  0  0  0  0  0  0  0
  -24.4450  -36.3860   23.3940 C   0  0  0  0  0  1  0  0  0  0  0  0
  -25.5580  -35.9600   24.3630 C   0  0  0  0  0  3  0  0  0  0  0  0
  -27.5280  -36.8270   25.5450 C   0  0  0  0  0  1  0  0  0  0  0  0
  -26.5740  -37.0320   24.4580 N   0  0  0  0  0  0  0  0  0  0  0  0
  -26.1320  -37.9370   24.5910 H   0  0  0  0  0  0  0  0  0  0  0  0
  2  1  1  0
  3  1  1  0
  4  2  1  0
  5  3  1  0
  6  4  1  0
  7  5  1  0
  8  6  1  0
  8  7  1  0
  9 12  1  0
  9  8  1  0
 10  9  1  0
 11  9  1  0
 12 13  1  0
 13 14  1  0
 14 15  1  0
 16 14  1  0
 17 12  1  0
 17 26  1  0
 18 24  1  0
 18 26  1  0
 19 24  1  0
 20 21  1  0
 20 19  1  0
 22 21  1  0
 22 31  1  0
 22 23  1  0
 24 23  1  0
 25 18  2  0
 26 27  1  0
 28 29  2  0
 29 48  1  0
 30 33  1  0
 30 29  1  0
 31 32  1  0
 31 28  1  0
 32 30  2  0
 33 34  1  0
 34 35  2  0
 36 35  1  0
 37 36  2  0
 38 37  1  0
 38 33  2  0
 39 36  1  0
 39 40  1  0
 40 41  1  0
 41 42  2  0
 43 42  1  0
 43 47  1  0
 44 43  2  0
 45 40  2  0
 45 44  1  0
 46 45  1  0
 48 49  1  0
 49 52  1  0
 49 51  1  0
 50 48  2  0
 53 28  1  0
 53 54  1  0
 55 53  1  0
  8 56  1  6
 57 58  1  0
 57 59  1  0
 57 56  1  0
 60 61  1  0
 60 59  1  0
 62 73  2  0
 63 61  1  0
 63 68  1  0
 64 72  1  0
 64 74  1  0
 65 71  1  0
 65 67  1  0
 66 72  1  0
 67 66  1  0
 68 67  2  0
 69 70  1  0
 69 63  2  0
 70 65  2  0
 71 64  1  0
 72 62  1  0
 74 76  2  0
 75 74  1  0
 77 75  1  0
 78 87  2  0
 78 83  1  0
 79 75  1  0
 79 83  1  0
 80 79  1  0
 81 82  1  0
 81 80  1  0
 82 78  1  0
 83 84  2  0
 84 85  1  0
 86 85  2  0
 87 86  1  0
 88 62  1  0
 88 93  1  0
 88 89  1  0
 89 92  1  1
 89 90  1  0
 91 89  1  0
 93 96  1  0
 94 98  1  0
 94 93  1  0
 95 94  2  0
 98 97  1  0
 98100  1  0
100101  1  0
100 99  1  0
M  ISO  4  18 100  26 100  60 101  61 101
M  END
>  <TORSDO>  (65) 
F 25

>  <SCORE>  (65) 
-7.767

>  <name>  (65) 
68

>  <ligand_id>  (65) 
68

>  <original_smiles>  (65) 
[H]c1c([H])c([H])c2c(c1[H])C([H])([H])C([H])([H])C([H])([H])C2([H])N([H])C(=O)C1([H])N(C(=O)C([H])(N([H])C(=O)C([H])(N([H])C([H])([H])[H])C([H])([H])[H])C(C([H])([H])[H])(C([H])([H])[H])C([H])([H])[H])C([H])([H])c2c([H])c(OC([H])([H])C([H])([H])N([H])C([H])([H])C3([N+]([H])([H])C([H])(C([H])([H])N([H])[H])C([H])([H])N([H])C(=O)N4C([H])([H])C([H])([H])C([H])([H])C([H])(n5nc(-c6c([H])c([H])c(Oc7c([H])c([H])c(F)c([H])c7F)c([H])c6[H])c(C(=O)N([H])[H])c5N([H])[H])C4([H])[H])C([H])([H])C([H])([H])C([H])([H])C([H])([H])C([H])([H])C([H])([H])C3([H])[H])c([H])c([H])c2C1([H])[H]

>  <smiles>  (65) 
[H]c1c([H])c([H])c2c(c1[H])C([H])([H])C([H])([H])C([H])([H])C2([H])N([H])C(=O)C1([H])N(C(=O)C([H])(N([H])C(=O)C([H])(N([H])C([H])([H])[H])C([H])([H])[H])C(C([H])([H])[H])(C([H])([H])[H])C([H])([H])[H])C([H])([H])c2c([H])c(OC([H])([H])C([H])([H])N([H])C([H])([H])C3([N+]([H])([H])C([H])(C([H])([H])N([H])[H])C([H])([H])N([H])C(=O)N4C([H])([H])C([H])([H])C([H])([H])C([H])(n5nc(-c6c([H])c([H])c(Oc7c([H])c([H])c(F)c([H])c7F)c([H])c6[H])c(C(=O)N([H])[H])c5N([H])[H])C4([H])[H])C([H])([H])C([H])([H])C([H])([H])C([H])([H])C([H])([H])C([H])([H])C3([H])[H])c([H])c([H])c2C1([H])[H]

$$$$
69:0:0
     RDKit          3D

 93101  0  0  1  0  0  0  0  0999 V2000
  -28.6610  -21.4460   19.2680 N   0  0  1  0  0  4  0  0  0  0  0  0
  -29.0830  -21.6750   18.3810 H   0  0  0  0  0  0  0  0  0  0  0  0
  -29.2300  -19.4960   20.9530 C   0  0  0  0  0  0  0  0  0  0  0  0
  -29.4300  -17.9640   21.1280 C   0  0  0  0  0  2  0  0  0  0  0  0
  -30.3660  -19.4710   18.7340 C   0  0  0  0  0  2  0  0  0  0  0  0
  -30.4650  -17.9010   18.7770 C   0  0  0  0  0  2  0  0  0  0  0  0
  -29.1180  -19.9900   19.4920 C   0  0  0  0  0  3  0  0  0  0  0  0
  -30.4930  -17.2660   20.2060 C   0  0  0  0  0  3  0  0  0  0  0  0
  -29.1490  -20.2250   21.9460 O   0  0  0  0  0  0  0  0  0  0  0  0
  -31.0690  -14.7140   19.8870 C   0  0  0  0  0  0  0  0  0  0  0  0
  -30.8140  -12.4350   18.9310 C   0  0  0  0  0  2  0  0  0  0  0  0
  -29.8280  -12.5070   17.7450 C   0  0  0  0  0  2  0  0  0  0  0  0
  -28.3700  -12.3820   18.2290 C   0  0  0  0  0  2  0  0  0  0  0  0
  -28.0580  -13.3180   19.4270 C   0  0  0  0  0  3  0  0  0  0  0  0
  -29.1470  -13.2030   20.5180 C   0  0  0  0  0  2  0  0  0  0  0  0
  -30.4410  -13.4980   19.8840 N   0  0  0  0  0  0  0  0  0  0  0  0
  -32.2140  -14.8610   19.4530 O   0  0  0  0  0  0  0  0  0  0  0  0
  -30.2760  -15.7760   20.2210 N   0  0  0  0  0  0  0  0  0  0  0  0
  -29.3660  -15.4860   20.5460 H   0  0  0  0  0  0  0  0  0  0  0  0
  -25.7200  -13.9990   20.2550 C   0  0  0  0  0  0  0  0  0  0  0  0
  -24.6430  -13.2610   20.6640 C   0  0  0  0  0  0  0  0  0  0  0  0
  -25.0520  -11.8940   20.5970 C   0  0  0  0  0  0  0  0  0  0  0  0
  -26.7190  -13.0830   19.9660 N   0  0  0  0  0  0  0  0  0  0  0  0
  -26.3250  -11.8110   20.2300 N   0  0  0  0  0  0  0  0  0  0  0  0
  -24.2890  -10.6570   20.8060 C   0  0  0  0  0  0  0  0  0  0  0  0
  -24.6430   -9.7330   21.8140 C   0  0  0  0  0  3  0  0  0  0  0  0
  -23.8840   -8.5580   22.0080 C   0  0  0  0  0  3  0  0  0  0  0  0
  -22.7580   -8.2990   21.1900 C   0  0  0  0  0  0  0  0  0  0  0  0
  -22.4240   -9.2100   20.1730 C   0  0  0  0  0  3  0  0  0  0  0  0
  -23.1830  -10.3770   19.9790 C   0  0  0  0  0  3  0  0  0  0  0  0
  -21.9770   -7.1730   21.2890 O   0  0  0  0  0  0  0  0  0  0  0  0
  -21.7250   -6.5740   22.4960 C   0  0  0  0  0  0  0  0  0  0  0  0
  -21.0900   -7.2640   23.5520 C   0  0  0  0  0  3  0  0  0  0  0  0
  -20.7860   -6.5920   24.7520 C   0  0  0  0  0  3  0  0  0  0  0  0
  -21.1090   -5.2290   24.8970 C   0  0  0  0  0  0  0  0  0  0  0  0
  -21.7380   -4.5380   23.8460 C   0  0  0  0  0  3  0  0  0  0  0  0
  -22.0440   -5.2090   22.6480 C   0  0  0  0  0  0  0  0  0  0  0  0
  -22.6290   -4.5330   21.6310 F   0  0  0  0  0  0  0  0  0  0  0  0
  -20.8120   -4.5790   26.0470 F   0  0  0  0  0  0  0  0  0  0  0  0
  -23.2760  -13.7840   21.0030 C   0  0  0  0  0  0  0  0  0  0  0  0
  -22.5660  -13.1100   21.9000 N   0  0  0  0  0  0  0  0  0  0  0  0
  -22.8500  -14.8270   20.5090 O   0  0  0  0  0  0  0  0  0  0  0  0
  -22.9230  -12.2650   22.3230 H   0  0  0  0  0  0  0  0  0  0  0  0
  -21.6520  -13.4430   22.1710 H   0  0  0  0  0  0  0  0  0  0  0  0
  -25.9290  -15.3650   20.0840 N   0  0  0  0  0  0  0  0  0  0  0  0
  -25.1830  -16.0390   20.2170 H   0  0  0  0  0  0  0  0  0  0  0  0
  -26.7590  -15.7670   19.6720 H   0  0  0  0  0  0  0  0  0  0  0  0
  -26.6410  -22.6360   18.1990 C   0  0  0  0  0  1  0  0  0  0  0  0
  -27.1820  -21.4520   19.0190 C   0  0  0  0  0  2  0  0  0  0  0  0
  -29.0890  -22.5610   20.2180 C   0  0  0  0  0  2  0  0  0  0  0  0
  -29.1790  -24.0530   19.6380 C   0  0  0  0  0  3  0  0  0  0  0  0
  -28.3640  -25.1970   20.3790 C   0  0  0  0  0  3  0  0  0  0  0  0
  -28.5120  -26.5950   19.9200 O   0  0  0  0  0  0  0  0  0  0  0  0
  -24.5800  -31.7520   23.0760 C   0  0  0  0  0  0  0  0  0  0  0  0
  -27.3620  -27.3900   19.9200 C   0  0  0  0  0  0  0  0  0  0  0  0
  -23.4320  -30.3610   21.3880 C   0  0  0  0  0  3  0  0  0  0  0  0
  -24.9420  -28.9000   19.9320 C   0  0  0  0  0  0  0  0  0  0  0  0
  -25.9580  -30.7730   21.2330 C   0  0  0  0  0  2  0  0  0  0  0  0
  -26.0880  -29.4180   20.5510 C   0  0  0  0  0  0  0  0  0  0  0  0
  -27.3020  -28.6740   20.5350 C   0  0  0  0  0  3  0  0  0  0  0  0
  -26.1990  -26.9210   19.2710 C   0  0  0  0  0  3  0  0  0  0  0  0
  -24.9990  -27.6570   19.2830 C   0  0  0  0  0  3  0  0  0  0  0  0
  -23.6770  -29.7300   19.9930 C   0  0  0  0  0  2  0  0  0  0  0  0
  -24.6740  -30.9780   21.9570 N   0  0  0  0  0  0  0  0  0  0  0  0
  -23.4850  -31.9790   23.6120 O   0  0  0  0  0  0  0  0  0  0  0  0
  -22.7980  -29.2980   22.3160 C   0  0  0  0  0  0  0  0  0  0  0  0
  -21.4750  -29.0990   22.1880 N   0  0  0  0  0  0  0  0  0  0  0  0
  -23.4950  -28.6550   23.1050 O   0  0  0  0  0  0  0  0  0  0  0  0
  -20.9730  -29.6710   21.5220 H   0  0  0  0  0  0  0  0  0  0  0  0
  -18.1190  -27.8470   22.6870 C   0  0  0  0  0  0  0  0  0  0  0  0
  -20.6780  -28.1200   22.9290 C   0  0  0  0  0  3  0  0  0  0  0  0
  -20.7850  -26.7180   22.2880 C   0  0  0  0  0  2  0  0  0  0  0  0
  -19.6700  -26.4300   21.2780 C   0  0  0  0  0  2  0  0  0  0  0  0
  -18.2980  -26.5300   21.9500 C   0  0  0  0  0  2  0  0  0  0  0  0
  -19.2370  -28.6010   23.1330 C   0  0  0  0  0  0  0  0  0  0  0  0
  -19.0170  -29.8330   23.7870 C   0  0  0  0  0  3  0  0  0  0  0  0
  -17.7100  -30.3140   23.9950 C   0  0  0  0  0  3  0  0  0  0  0  0
  -16.6070  -29.5580   23.5630 C   0  0  0  0  0  3  0  0  0  0  0  0
  -16.8120  -28.3260   22.9170 C   0  0  0  0  0  3  0  0  0  0  0  0
  -25.8390  -32.4040   23.7270 C   0  0  0  0  0  3  0  0  0  0  0  0
  -25.4780  -33.7770   24.1070 N   0  0  0  0  0  0  0  0  0  0  0  0
  -25.7700  -34.8680   23.3870 C   0  0  0  0  0  0  0  0  0  0  0  0
  -26.4420  -34.8270   22.3540 O   0  0  0  0  0  0  0  0  0  0  0  0
  -24.8740  -33.8790   24.9100 H   0  0  0  0  0  0  0  0  0  0  0  0
  -23.9750  -36.6070   23.1010 C   0  0  0  0  0  1  0  0  0  0  0  0
  -25.2340  -36.2200   23.8940 C   0  0  0  0  0  3  0  0  0  0  0  0
  -27.3340  -37.1590   24.7540 C   0  0  0  0  0  1  0  0  0  0  0  0
  -26.2260  -37.3150   23.8160 N   0  0  0  0  0  0  0  0  0  0  0  0
  -25.7840  -38.2140   23.9900 H   0  0  0  0  0  0  0  0  0  0  0  0
  -26.3780  -31.6040   24.9770 C   0  0  1  0  0  0  0  0  0  0  0  0
  -25.2910  -31.2900   26.0290 C   0  0  0  0  0  1  0  0  0  0  0  0
  -27.0110  -30.2630   24.5370 C   0  0  0  0  0  1  0  0  0  0  0  0
  -27.4960  -32.4140   25.6730 C   0  0  0  0  0  1  0  0  0  0  0  0
  1 50  1  0
  1  2  1  6
  3  4  1  0
  3  9  2  0
  5  6  1  0
  5  7  1  0
  6  8  1  0
  7  1  1  0
  7  3  1  0
  8 18  1  0
  8  4  1  0
 10 18  1  0
 11 16  1  0
 12 13  1  0
 12 11  1  0
 14 13  1  0
 14 23  1  0
 14 15  1  0
 16 10  1  0
 16 15  1  0
 17 10  2  0
 18 19  1  0
 20 21  2  0
 21 40  1  0
 22 21  1  0
 22 25  1  0
 23 24  1  0
 23 20  1  0
 24 22  2  0
 25 26  1  0
 26 27  2  0
 28 31  1  0
 28 27  1  0
 29 28  2  0
 30 29  1  0
 30 25  2  0
 31 32  1  0
 32 37  2  0
 32 33  1  0
 33 34  2  0
 34 35  1  0
 35 39  1  0
 36 35  2  0
 37 36  1  0
 38 37  1  0
 40 41  1  0
 41 44  1  0
 41 43  1  0
 42 40  2  0
 45 46  1  0
 45 20  1  0
 47 45  1  0
 48 49  1  0
 49  1  1  0
 51 50  1  0
 51 52  2  0
 53 52  1  0
 54 65  2  0
 55 53  1  0
 55 60  1  0
 56 64  1  0
 56 66  1  0
 57 63  1  0
 57 59  1  0
 58 64  1  0
 59 58  1  0
 60 59  2  0
 61 62  1  0
 61 55  2  0
 62 57  2  0
 63 56  1  0
 64 54  1  0
 66 68  2  0
 67 66  1  0
 69 67  1  0
 70 79  2  0
 70 75  1  0
 71 67  1  0
 71 75  1  0
 72 71  1  0
 73 74  1  0
 73 72  1  0
 74 70  1  0
 75 76  2  0
 76 77  1  0
 78 77  2  0
 79 78  1  0
 80 54  1  0
 80 81  1  0
 80 90  1  0
 81 84  1  0
 82 86  1  0
 82 81  1  0
 83 82  2  0
 86 85  1  0
 88 86  1  0
 88 89  1  0
 88 87  1  0
 90 93  1  1
 90 91  1  0
 92 90  1  0
M  ISO  4  10 100  18 100  52 101  53 101
M  END
>  <TORSDO>  (66) 
F 21

>  <SCORE>  (66) 
-12.137

>  <name>  (66) 
69

>  <ligand_id>  (66) 
69

>  <original_smiles>  (66) 
[H]c1c([H])c([H])c2c(c1[H])C([H])([H])C([H])([H])C([H])([H])C2([H])N([H])C(=O)C1([H])N(C(=O)C([H])(N([H])C(=O)C([H])(N([H])C([H])([H])[H])C([H])([H])[H])C(C([H])([H])[H])(C([H])([H])[H])C([H])([H])[H])C([H])([H])c2c([H])c(OC([H])([H])C([H])([H])C([H])([H])[N+]([H])(C([H])([H])C([H])([H])[H])C3([H])C(=O)C([H])([H])C([H])(N([H])C(=O)N4C([H])([H])C([H])([H])C([H])([H])C([H])(n5nc(-c6c([H])c([H])c(Oc7c([H])c([H])c(F)c([H])c7F)c([H])c6[H])c(C(=O)N([H])[H])c5N([H])[H])C4([H])[H])C([H])([H])C3([H])[H])c([H])c([H])c2C1([H])[H]

>  <smiles>  (66) 
[H]c1c([H])c([H])c2c(c1[H])C([H])([H])C([H])([H])C([H])([H])C2([H])N([H])C(=O)C1([H])N(C(=O)C([H])(N([H])C(=O)C([H])(N([H])C([H])([H])[H])C([H])([H])[H])C(C([H])([H])[H])(C([H])([H])[H])C([H])([H])[H])C([H])([H])c2c([H])c(OC([H])([H])C([H])([H])C([H])([H])[N+]([H])(C([H])([H])C([H])([H])[H])C3([H])C(=O)C([H])([H])C([H])(N([H])C(=O)N4C([H])([H])C([H])([H])C([H])([H])C([H])(n5nc(-c6c([H])c([H])c(Oc7c([H])c([H])c(F)c([H])c7F)c([H])c6[H])c(C(=O)N([H])[H])c5N([H])[H])C4([H])[H])C([H])([H])C3([H])[H])c([H])c([H])c2C1([H])[H]

$$$$
70:0:0
     RDKit          3D

 92101  0  0  1  0  0  0  0  0999 V2000
  -29.3670  -22.0080   20.4830 C   0  0  0  0  0  2  0  0  0  0  0  0
  -27.7920  -20.4760   19.2410 C   0  0  0  0  0  2  0  0  0  0  0  0
  -27.9220  -22.9540   18.6130 C   0  0  0  0  0  2  0  0  0  0  0  0
  -29.2900  -20.5730   19.6480 C   0  0  0  0  0  3  0  0  0  0  0  0
  -28.8300  -23.4180   19.7820 C   0  0  0  0  0  3  0  0  0  0  0  0
  -27.0900  -21.7660   18.9560 N   0  0  0  0  0  4  0  0  0  0  0  0
  -26.5310  -22.0000   19.7600 H   0  0  0  0  0  0  0  0  0  0  0  0
  -26.4410  -21.5990   18.2020 H   0  0  0  0  0  0  0  0  0  0  0  0
  -29.9440  -19.0990   20.1910 C   0  0  0  0  0  2  0  0  0  0  0  0
  -30.7210  -14.9830   19.6280 C   0  0  0  0  0  0  0  0  0  0  0  0
  -30.3880  -12.6890   18.5750 C   0  0  0  0  0  2  0  0  0  0  0  0
  -29.3280  -12.7340   17.4470 C   0  0  0  0  0  2  0  0  0  0  0  0
  -27.9120  -12.5300   18.0210 C   0  0  0  0  0  2  0  0  0  0  0  0
  -27.6640  -13.4080   19.2730 C   0  0  0  0  0  3  0  0  0  0  0  0
  -28.8300  -13.3100   20.2750 C   0  0  0  0  0  2  0  0  0  0  0  0
  -30.0590  -13.7460   19.5840 N   0  0  0  0  0  0  0  0  0  0  0  0
  -31.7930  -15.0540   19.0170 O   0  0  0  0  0  0  0  0  0  0  0  0
  -28.2960  -16.7200   21.5510 C   0  0  0  0  0  2  0  0  0  0  0  0
  -28.1320  -17.2670   20.1220 C   0  0  0  0  0  2  0  0  0  0  0  0
  -29.7330  -16.1920   21.5970 C   0  0  0  0  0  2  0  0  0  0  0  0
  -29.5610  -17.5370   19.6520 C   0  0  0  0  0  3  0  0  0  0  0  0
  -30.1450  -16.1690   20.1990 N   0  0  0  0  0  0  0  0  0  0  0  0
  -25.3890  -14.0270   20.3000 C   0  0  0  0  0  0  0  0  0  0  0  0
  -24.3530  -13.2690   20.7630 C   0  0  0  0  0  0  0  0  0  0  0  0
  -24.7620  -11.9110   20.6070 C   0  0  0  0  0  0  0  0  0  0  0  0
  -26.3740  -13.1360   19.9010 N   0  0  0  0  0  0  0  0  0  0  0  0
  -26.0060  -11.8500   20.1460 N   0  0  0  0  0  0  0  0  0  0  0  0
  -24.0120  -10.6680   20.8140 C   0  0  0  0  0  0  0  0  0  0  0  0
  -24.4600   -9.6750   21.7120 C   0  0  0  0  0  3  0  0  0  0  0  0
  -23.7050   -8.4990   21.9090 C   0  0  0  0  0  3  0  0  0  0  0  0
  -22.4910   -8.3080   21.2070 C   0  0  0  0  0  0  0  0  0  0  0  0
  -22.0620   -9.2900   20.2980 C   0  0  0  0  0  3  0  0  0  0  0  0
  -22.8170  -10.4580   20.0980 C   0  0  0  0  0  3  0  0  0  0  0  0
  -21.7070   -7.1840   21.3140 O   0  0  0  0  0  0  0  0  0  0  0  0
  -21.6270   -6.4710   22.4840 C   0  0  0  0  0  0  0  0  0  0  0  0
  -21.1930   -7.0660   23.6880 C   0  0  0  0  0  3  0  0  0  0  0  0
  -21.0550   -6.2800   24.8500 C   0  0  0  0  0  3  0  0  0  0  0  0
  -21.3430   -4.9040   24.8100 C   0  0  0  0  0  0  0  0  0  0  0  0
  -21.7720   -4.3090   23.6090 C   0  0  0  0  0  3  0  0  0  0  0  0
  -21.9090   -5.0900   22.4490 C   0  0  0  0  0  0  0  0  0  0  0  0
  -22.2990   -4.5080   21.2890 F   0  0  0  0  0  0  0  0  0  0  0  0
  -21.2050   -4.1480   25.9240 F   0  0  0  0  0  0  0  0  0  0  0  0
  -23.0190  -13.7830   21.2210 C   0  0  0  0  0  0  0  0  0  0  0  0
  -22.3750  -13.0840   22.1490 N   0  0  0  0  0  0  0  0  0  0  0  0
  -22.5640  -14.8420   20.7950 O   0  0  0  0  0  0  0  0  0  0  0  0
  -22.7540  -12.2260   22.5200 H   0  0  0  0  0  0  0  0  0  0  0  0
  -21.4860  -13.4180   22.4950 H   0  0  0  0  0  0  0  0  0  0  0  0
  -25.5390  -15.4000   20.1670 N   0  0  0  0  0  0  0  0  0  0  0  0
  -24.7870  -16.0350   20.4060 H   0  0  0  0  0  0  0  0  0  0  0  0
  -26.3560  -15.8720   19.8080 H   0  0  0  0  0  0  0  0  0  0  0  0
  -28.1870  -24.7350   20.6070 C   0  0  0  0  0  2  0  0  0  0  0  0
  -28.3690  -26.2450   20.3230 O   0  0  0  0  0  0  0  0  0  0  0  0
  -24.4420  -31.7610   23.2170 C   0  0  0  0  0  0  0  0  0  0  0  0
  -27.2610  -27.1550   20.2870 C   0  0  0  0  0  0  0  0  0  0  0  0
  -23.3340  -30.3190   21.5520 C   0  0  0  0  0  3  0  0  0  0  0  0
  -24.8740  -28.7910   20.1780 C   0  0  0  0  0  0  0  0  0  0  0  0
  -25.8770  -30.6830   21.4500 C   0  0  0  0  0  2  0  0  0  0  0  0
  -26.0190  -29.2920   20.8110 C   0  0  0  0  0  0  0  0  0  0  0  0
  -27.2170  -28.4900   20.8450 C   0  0  0  0  0  3  0  0  0  0  0  0
  -26.0910  -26.7410   19.6190 C   0  0  0  0  0  3  0  0  0  0  0  0
  -24.9210  -27.5290   19.5650 C   0  0  0  0  0  3  0  0  0  0  0  0
  -23.6170  -29.6430   20.1840 C   0  0  0  0  0  2  0  0  0  0  0  0
  -24.5680  -30.9430   22.1290 N   0  0  0  0  0  0  0  0  0  0  0  0
  -23.3340  -32.0090   23.7150 O   0  0  0  0  0  0  0  0  0  0  0  0
  -22.6670  -29.2910   22.5000 C   0  0  0  0  0  0  0  0  0  0  0  0
  -21.3440  -29.1020   22.3660 N   0  0  0  0  0  0  0  0  0  0  0  0
  -23.3440  -28.6650   23.3200 O   0  0  0  0  0  0  0  0  0  0  0  0
  -20.8500  -29.6660   21.6880 H   0  0  0  0  0  0  0  0  0  0  0  0
  -17.9700  -27.8730   22.8600 C   0  0  0  0  0  0  0  0  0  0  0  0
  -20.5300  -28.1450   23.1210 C   0  0  0  0  0  3  0  0  0  0  0  0
  -20.6360  -26.7230   22.5200 C   0  0  0  0  0  2  0  0  0  0  0  0
  -19.5310  -26.4130   21.5040 C   0  0  0  0  0  2  0  0  0  0  0  0
  -18.1520  -26.5380   22.1580 C   0  0  0  0  0  2  0  0  0  0  0  0
  -19.0870  -28.6340   23.2990 C   0  0  0  0  0  0  0  0  0  0  0  0
  -18.8620  -29.8820   23.9180 C   0  0  0  0  0  3  0  0  0  0  0  0
  -17.5560  -30.3720   24.0990 C   0  0  0  0  0  3  0  0  0  0  0  0
  -16.4540  -29.6080   23.6740 C   0  0  0  0  0  3  0  0  0  0  0  0
  -16.6620  -28.3600   23.0630 C   0  0  0  0  0  3  0  0  0  0  0  0
  -25.6810  -32.4410   23.8750 C   0  0  0  0  0  3  0  0  0  0  0  0
  -25.3070  -33.8250   24.2100 N   0  0  0  0  0  0  0  0  0  0  0  0
  -25.6120  -34.9000   23.4690 C   0  0  0  0  0  0  0  0  0  0  0  0
  -26.3020  -34.8330   22.4490 O   0  0  0  0  0  0  0  0  0  0  0  0
  -24.6920  -33.9490   25.0000 H   0  0  0  0  0  0  0  0  0  0  0  0
  -23.8200  -36.6320   23.1050 C   0  0  0  0  0  1  0  0  0  0  0  0
  -25.0640  -36.2650   23.9310 C   0  0  0  0  0  3  0  0  0  0  0  0
  -27.1470  -37.2280   24.8070 C   0  0  0  0  0  1  0  0  0  0  0  0
  -26.0560  -37.3590   23.8450 N   0  0  0  0  0  0  0  0  0  0  0  0
  -25.6100  -38.2600   23.9920 H   0  0  0  0  0  0  0  0  0  0  0  0
  -26.1970  -31.6840   25.1600 C   0  0  1  0  0  0  0  0  0  0  0  0
  -25.0840  -31.3850   26.1920 C   0  0  0  0  0  1  0  0  0  0  0  0
  -26.8570  -30.3380   24.7800 C   0  0  0  0  0  1  0  0  0  0  0  0
  -27.2870  -32.5260   25.8670 C   0  0  0  0  0  1  0  0  0  0  0  0
  2  4  1  0
  3  6  1  0
  3  5  1  0
  4  9  1  0
  4  1  1  0
  5  1  1  0
  5 51  1  0
  6  2  1  0
  6  7  1  0
  8  6  1  0
 10 22  1  0
 11 16  1  0
 12 13  1  0
 12 11  1  0
 14 13  1  0
 14 26  1  0
 14 15  1  0
 16 10  1  0
 16 15  1  0
 17 10  2  0
 18 20  1  0
 19 18  1  0
 21 19  1  0
 21  9  1  0
 21 22  1  0
 22 20  1  0
 23 24  2  0
 24 43  1  0
 25 24  1  0
 25 28  1  0
 26 27  1  0
 26 23  1  0
 27 25  2  0
 28 29  1  0
 29 30  2  0
 31 34  1  0
 31 30  1  0
 32 31  2  0
 33 32  1  0
 33 28  2  0
 34 35  1  0
 35 36  1  0
 36 37  2  0
 38 37  1  0
 38 42  1  0
 39 38  2  0
 40 35  2  0
 40 39  1  0
 41 40  1  0
 43 44  1  0
 44 47  1  0
 44 46  1  0
 45 43  2  0
 48 23  1  0
 48 49  1  0
 50 48  1  0
 52 51  1  0
 53 64  2  0
 54 52  1  0
 54 59  1  0
 55 63  1  0
 55 65  1  0
 56 62  1  0
 56 58  1  0
 57 63  1  0
 58 59  2  0
 58 57  1  0
 60 54  2  0
 61 60  1  0
 61 56  2  0
 62 55  1  0
 63 53  1  0
 65 67  2  0
 66 65  1  0
 68 66  1  0
 69 78  2  0
 69 74  1  0
 70 66  1  0
 70 74  1  0
 71 70  1  0
 72 73  1  0
 72 71  1  0
 73 69  1  0
 74 75  2  0
 75 76  1  0
 77 76  2  0
 78 77  1  0
 79 53  1  0
 79 80  1  0
 79 89  1  0
 80 83  1  0
 81 85  1  0
 81 80  1  0
 82 81  2  0
 85 84  1  0
 87 85  1  0
 87 88  1  0
 87 86  1  0
 89 92  1  1
 89 90  1  0
 91 89  1  0
M  ISO  4  10 100  22 100  51 101  52 101
M  END
>  <TORSDO>  (67) 
F 18

>  <SCORE>  (67) 
-13.140

>  <name>  (67) 
70

>  <ligand_id>  (67) 
70

>  <original_smiles>  (67) 
[H]c1c([H])c([H])c2c(c1[H])C([H])([H])C([H])([H])C([H])([H])C2([H])N([H])C(=O)C1([H])N(C(=O)C([H])(N([H])C(=O)C([H])(N([H])C([H])([H])[H])C([H])([H])[H])C(C([H])([H])[H])(C([H])([H])[H])C([H])([H])[H])C([H])([H])c2c([H])c(OC([H])([H])C3([H])C([H])([H])C([H])(C([H])([H])C4([H])N(C(=O)N5C([H])([H])C([H])([H])C([H])([H])C([H])(n6nc(-c7c([H])c([H])c(Oc8c([H])c([H])c(F)c([H])c8F)c([H])c7[H])c(C(=O)N([H])[H])c6N([H])[H])C5([H])[H])C([H])([H])C([H])([H])C4([H])[H])C([H])([H])[N+]([H])([H])C3([H])[H])c([H])c([H])c2C1([H])[H]

>  <smiles>  (67) 
[H]c1c([H])c([H])c2c(c1[H])C([H])([H])C([H])([H])C([H])([H])C2([H])N([H])C(=O)C1([H])N(C(=O)C([H])(N([H])C(=O)C([H])(N([H])C([H])([H])[H])C([H])([H])[H])C(C([H])([H])[H])(C([H])([H])[H])C([H])([H])[H])C([H])([H])c2c([H])c(OC([H])([H])C3([H])C([H])([H])C([H])(C([H])([H])C4([H])N(C(=O)N5C([H])([H])C([H])([H])C([H])([H])C([H])(n6nc(-c7c([H])c([H])c(Oc8c([H])c([H])c(F)c([H])c8F)c([H])c7[H])c(C(=O)N([H])[H])c6N([H])[H])C5([H])[H])C([H])([H])C([H])([H])C4([H])[H])C([H])([H])[N+]([H])([H])C3([H])[H])c([H])c([H])c2C1([H])[H]

$$$$
71:0:0
     RDKit          3D

 98107  0  0  1  0  0  0  0  0999 V2000
  -29.9600  -21.0520   19.7200 C   0  0  0  0  0  2  0  0  0  0  0  0
  -27.1710  -23.2610   20.8650 C   0  0  0  0  0  2  0  0  0  0  0  0
  -28.2350  -22.2670   21.2780 C   0  0  0  0  0  2  0  0  0  0  0  0
  -27.3660  -23.2760   19.3550 C   0  0  0  0  0  2  0  0  0  0  0  0
  -29.3820  -22.4390   20.2510 C   0  0  0  0  0  3  0  0  0  0  0  0
  -28.8250  -23.3410   19.1840 N   0  0  0  0  0  0  0  0  0  0  0  0
  -29.2310  -24.7770   19.2920 C   0  0  0  0  0  2  0  0  0  0  0  0
  -28.5650  -25.7630   18.2570 C   0  0  0  0  0  2  0  0  0  0  0  0
  -28.4580  -27.1530   18.6840 O   0  0  0  0  0  0  0  0  0  0  0  0
  -24.7300  -31.6660   22.7930 C   0  0  0  0  0  0  0  0  0  0  0  0
  -27.2400  -27.8110   18.8600 C   0  0  0  0  0  0  0  0  0  0  0  0
  -23.4280  -30.4570   21.0760 C   0  0  0  0  0  3  0  0  0  0  0  0
  -24.7950  -29.2140   19.3160 C   0  0  0  0  0  0  0  0  0  0  0  0
  -25.9140  -30.9610   20.7070 C   0  0  0  0  0  2  0  0  0  0  0  0
  -25.9870  -29.6990   19.8610 C   0  0  0  0  0  0  0  0  0  0  0  0
  -27.2060  -29.0090   19.6260 C   0  0  0  0  0  3  0  0  0  0  0  0
  -26.0120  -27.3480   18.3240 C   0  0  0  0  0  3  0  0  0  0  0  0
  -24.8050  -28.0380   18.5490 C   0  0  0  0  0  3  0  0  0  0  0  0
  -23.5300  -29.9960   19.5970 C   0  0  0  0  0  2  0  0  0  0  0  0
  -24.7150  -31.0350   21.5820 N   0  0  0  0  0  0  0  0  0  0  0  0
  -23.6950  -31.7990   23.4610 O   0  0  0  0  0  0  0  0  0  0  0  0
  -22.9060  -29.2770   21.9290 C   0  0  0  0  0  0  0  0  0  0  0  0
  -21.5870  -29.0320   21.8790 N   0  0  0  0  0  0  0  0  0  0  0  0
  -23.6850  -28.5870   22.5950 O   0  0  0  0  0  0  0  0  0  0  0  0
  -21.0170  -29.6460   21.3160 H   0  0  0  0  0  0  0  0  0  0  0  0
  -18.3350  -27.5510   22.4210 C   0  0  0  0  0  0  0  0  0  0  0  0
  -20.8840  -27.9510   22.5720 C   0  0  0  0  0  3  0  0  0  0  0  0
  -21.0390  -26.6170   21.8050 C   0  0  0  0  0  2  0  0  0  0  0  0
  -19.8910  -26.3530   20.8260 C   0  0  0  0  0  2  0  0  0  0  0  0
  -18.5480  -26.3150   21.5660 C   0  0  0  0  0  2  0  0  0  0  0  0
  -19.4310  -28.3270   22.8790 C   0  0  0  0  0  0  0  0  0  0  0  0
  -19.1780  -29.4850   23.6470 C   0  0  0  0  0  3  0  0  0  0  0  0
  -17.8590  -29.8670   23.9590 C   0  0  0  0  0  3  0  0  0  0  0  0
  -16.7770  -29.0860   23.5190 C   0  0  0  0  0  3  0  0  0  0  0  0
  -17.0160  -27.9300   22.7540 C   0  0  0  0  0  3  0  0  0  0  0  0
  -26.0430  -32.2690   23.3820 C   0  0  0  0  0  3  0  0  0  0  0  0
  -25.7150  -33.5920   23.9300 N   0  0  0  0  0  0  0  0  0  0  0  0
  -26.0000  -34.7560   23.3300 C   0  0  0  0  0  0  0  0  0  0  0  0
  -26.6330  -34.8280   22.2730 O   0  0  0  0  0  0  0  0  0  0  0  0
  -25.1530  -33.6080   24.7690 H   0  0  0  0  0  0  0  0  0  0  0  0
  -24.2350  -36.5480   23.2920 C   0  0  0  0  0  1  0  0  0  0  0  0
  -25.4990  -36.0470   24.0090 C   0  0  0  0  0  3  0  0  0  0  0  0
  -27.6370  -36.8290   24.9270 C   0  0  0  0  0  1  0  0  0  0  0  0
  -26.5130  -37.1250   24.0440 N   0  0  0  0  0  0  0  0  0  0  0  0
  -26.0980  -38.0030   24.3440 H   0  0  0  0  0  0  0  0  0  0  0  0
  -26.7000  -31.3580   24.4900 C   0  0  1  0  0  0  0  0  0  0  0  0
  -25.7200  -30.9350   25.6090 C   0  0  0  0  0  1  0  0  0  0  0  0
  -27.2810  -30.0710   23.8620 C   0  0  0  0  0  1  0  0  0  0  0  0
  -27.8840  -32.1020   25.1500 C   0  0  0  0  0  1  0  0  0  0  0  0
  -30.5630  -20.0850   20.7270 N   0  0  2  0  0  4  0  0  0  0  0  0
  -29.8160  -19.8720   21.3690 H   0  0  0  0  0  0  0  0  0  0  0  0
  -31.6460  -20.6640   21.5770 C   0  0  0  0  0  2  0  0  0  0  0  0
  -30.7570  -22.3130   25.5960 C   0  0  0  0  0  2  0  0  0  0  0  0
  -31.9990  -21.4240   25.4220 C   0  0  0  0  0  2  0  0  0  0  0  0
  -29.5930  -21.8180   24.7260 C   0  0  0  0  0  2  0  0  0  0  0  0
  -32.3980  -21.2990   23.9390 C   0  0  0  0  0  2  0  0  0  0  0  0
  -30.0050  -21.7120   23.2510 C   0  0  0  0  0  2  0  0  0  0  0  0
  -31.2290  -20.7880   23.0670 C   0  0  0  0  0  3  0  0  0  0  0  0
  -30.9960  -18.7540   20.1530 C   0  0  0  0  0  2  0  0  0  0  0  0
  -29.8900  -17.6490   20.0980 C   0  0  0  0  0  2  0  0  0  0  0  0
  -30.8550  -15.5140   21.0650 C   0  0  0  0  0  0  0  0  0  0  0  0
  -30.9420  -13.1700   20.3120 C   0  0  0  0  0  2  0  0  0  0  0  0
  -30.2040  -13.1030   18.9560 C   0  0  0  0  0  2  0  0  0  0  0  0
  -28.6940  -12.8810   19.1660 C   0  0  0  0  0  2  0  0  0  0  0  0
  -28.0860  -13.8520   20.2120 C   0  0  0  0  0  3  0  0  0  0  0  0
  -28.9540  -13.9110   21.4930 C   0  0  0  0  0  2  0  0  0  0  0  0
  -30.3310  -14.2560   21.0980 N   0  0  0  0  0  0  0  0  0  0  0  0
  -32.0370  -15.7390   20.7890 O   0  0  0  0  0  0  0  0  0  0  0  0
  -29.9420  -16.5160   21.0640 N   0  0  0  0  0  0  0  0  0  0  0  0
  -29.0380  -16.2240   21.4060 H   0  0  0  0  0  0  0  0  0  0  0  0
  -25.5920  -14.3580   20.5890 C   0  0  0  0  0  0  0  0  0  0  0  0
  -24.5170  -13.5430   20.8190 C   0  0  0  0  0  0  0  0  0  0  0  0
  -25.0340  -12.2120   20.8630 C   0  0  0  0  0  0  0  0  0  0  0  0
  -26.6940  -13.5230   20.5090 N   0  0  0  0  0  0  0  0  0  0  0  0
  -26.3550  -12.2270   20.7320 N   0  0  0  0  0  0  0  0  0  0  0  0
  -24.3420  -10.9200   20.9650 C   0  0  0  0  0  0  0  0  0  0  0  0
  -24.6840   -9.9760   21.9580 C   0  0  0  0  0  3  0  0  0  0  0  0
  -23.9910   -8.7500   22.0480 C   0  0  0  0  0  3  0  0  0  0  0  0
  -22.9420   -8.4590   21.1430 C   0  0  0  0  0  0  0  0  0  0  0  0
  -22.6210   -9.3930   20.1440 C   0  0  0  0  0  3  0  0  0  0  0  0
  -23.3150  -10.6120   20.0510 C   0  0  0  0  0  3  0  0  0  0  0  0
  -22.2310   -7.2830   21.1390 O   0  0  0  0  0  0  0  0  0  0  0  0
  -22.0430   -6.5520   22.2850 C   0  0  0  0  0  0  0  0  0  0  0  0
  -21.4130   -7.0980   23.4240 C   0  0  0  0  0  3  0  0  0  0  0  0
  -21.1780   -6.2900   24.5540 C   0  0  0  0  0  3  0  0  0  0  0  0
  -21.5650   -4.9370   24.5460 C   0  0  0  0  0  0  0  0  0  0  0  0
  -22.1880   -4.3900   23.4100 C   0  0  0  0  0  3  0  0  0  0  0  0
  -22.4240   -5.1950   22.2820 C   0  0  0  0  0  0  0  0  0  0  0  0
  -23.0060   -4.6580   21.1830 F   0  0  0  0  0  0  0  0  0  0  0  0
  -21.3330   -4.1580   25.6270 F   0  0  0  0  0  0  0  0  0  0  0  0
  -23.0770  -13.9610   20.8960 C   0  0  0  0  0  0  0  0  0  0  0  0
  -22.2730  -13.2470   21.6760 N   0  0  0  0  0  0  0  0  0  0  0  0
  -22.6680  -14.9560   20.3010 O   0  0  0  0  0  0  0  0  0  0  0  0
  -22.6150  -12.4440   22.1820 H   0  0  0  0  0  0  0  0  0  0  0  0
  -21.3020  -13.5080   21.7700 H   0  0  0  0  0  0  0  0  0  0  0  0
  -25.7190  -15.7350   20.4210 N   0  0  0  0  0  0  0  0  0  0  0  0
  -24.9100  -16.3460   20.4060 H   0  0  0  0  0  0  0  0  0  0  0  0
  -26.5760  -16.2090   20.1710 H   0  0  0  0  0  0  0  0  0  0  0  0
  1 50  1  0
  2  3  1  0
  4  2  1  0
  5  1  1  0
  5  3  1  0
  6  7  1  0
  6  4  1  0
  6  5  1  0
  8  9  1  0
  8  7  1  0
  9 11  1  0
 10 21  2  0
 11 16  1  0
 12 20  1  0
 12 22  1  0
 13 19  1  0
 13 15  1  0
 14 20  1  0
 15 14  1  0
 16 15  2  0
 17 18  1  0
 17 11  2  0
 18 13  2  0
 19 12  1  0
 20 10  1  0
 22 24  2  0
 23 22  1  0
 25 23  1  0
 26 35  2  0
 26 31  1  0
 27 23  1  0
 27 31  1  0
 28 27  1  0
 29 30  1  0
 29 28  1  0
 30 26  1  0
 31 32  2  0
 32 33  1  0
 34 33  2  0
 35 34  1  0
 36 10  1  0
 36 37  1  0
 36 46  1  0
 37 40  1  0
 38 37  1  0
 38 42  1  0
 39 38  2  0
 42 41  1  0
 42 44  1  0
 44 45  1  0
 44 43  1  0
 46 49  1  1
 46 47  1  0
 48 46  1  0
 50 51  1  1
 50 52  1  0
 52 58  1  0
 54 53  1  0
 55 53  1  0
 56 54  1  0
 57 55  1  0
 58 57  1  0
 58 56  1  0
 59 50  1  0
 60 59  1  0
 60 69  1  0
 61 67  1  0
 62 67  1  0
 63 64  1  0
 63 62  1  0
 65 64  1  0
 65 74  1  0
 65 66  1  0
 67 66  1  0
 68 61  2  0
 69 61  1  0
 69 70  1  0
 71 72  2  0
 72 73  1  0
 72 91  1  0
 73 76  1  0
 74 71  1  0
 74 75  1  0
 75 73  2  0
 76 77  1  0
 77 78  2  0
 79 78  1  0
 80 79  2  0
 81 80  1  0
 81 76  2  0
 82 79  1  0
 82 83  1  0
 83 84  1  0
 84 85  2  0
 86 85  1  0
 86 90  1  0
 87 86  2  0
 88 83  2  0
 88 87  1  0
 89 88  1  0
 91 92  1  0
 92 95  1  0
 92 94  1  0
 93 91  2  0
 96 71  1  0
 97 96  1  0
 98 96  1  0
M  ISO  4   8 101   9 101  61 100  69 100
M  END
>  <TORSDO>  (68) 
F 24

>  <SCORE>  (68) 
-8.740

>  <name>  (68) 
71

>  <ligand_id>  (68) 
71

>  <original_smiles>  (68) 
[H]c1c([H])c([H])c2c(c1[H])C([H])([H])C([H])([H])C([H])([H])C2([H])N([H])C(=O)C1([H])N(C(=O)C([H])(N([H])C(=O)C([H])(N([H])C([H])([H])[H])C([H])([H])[H])C(C([H])([H])[H])(C([H])([H])[H])C([H])([H])[H])C([H])([H])c2c([H])c(OC([H])([H])C([H])([H])N3C([H])([H])C([H])([H])C([H])([H])C3([H])C([H])([H])[N+]([H])(C([H])([H])C([H])([H])N([H])C(=O)N3C([H])([H])C([H])([H])C([H])([H])C([H])(n4nc(-c5c([H])c([H])c(Oc6c([H])c([H])c(F)c([H])c6F)c([H])c5[H])c(C(=O)N([H])[H])c4N([H])[H])C3([H])[H])C([H])([H])C3([H])C([H])([H])C([H])([H])C([H])([H])C([H])([H])C3([H])[H])c([H])c([H])c2C1([H])[H]

>  <smiles>  (68) 
[H]c1c([H])c([H])c2c(c1[H])C([H])([H])C([H])([H])C([H])([H])C2([H])N([H])C(=O)C1([H])N(C(=O)C([H])(N([H])C(=O)C([H])(N([H])C([H])([H])[H])C([H])([H])[H])C(C([H])([H])[H])(C([H])([H])[H])C([H])([H])[H])C([H])([H])c2c([H])c(OC([H])([H])C([H])([H])N3C([H])([H])C([H])([H])C([H])([H])C3([H])C([H])([H])[N+]([H])(C([H])([H])C([H])([H])N([H])C(=O)N3C([H])([H])C([H])([H])C([H])([H])C([H])(n4nc(-c5c([H])c([H])c(Oc6c([H])c([H])c(F)c([H])c6F)c([H])c5[H])c(C(=O)N([H])[H])c4N([H])[H])C3([H])[H])C([H])([H])C3([H])C([H])([H])C([H])([H])C([H])([H])C([H])([H])C3([H])[H])c([H])c([H])c2C1([H])[H]

$$$$
72:0:0
     RDKit          3D

 97104  0  0  1  0  0  0  0  0999 V2000
  -31.1810  -21.5490   21.6760 C   0  0  0  0  0  0  0  0  0  0  0  0
  -29.9690  -23.3050   20.3910 C   0  0  0  0  0  0  0  0  0  0  0  0
  -32.1460  -21.3770   22.6150 N   0  0  0  0  0  4  0  0  0  0  0  0
  -29.2640  -22.5640   19.4980 N   0  0  0  0  0  4  0  0  0  0  0  0
  -30.8440  -22.8290   21.3230 N   0  0  0  0  0  0  0  0  0  0  0  0
  -32.5550  -20.4870   22.8450 H   0  0  0  0  0  0  0  0  0  0  0  0
  -32.5710  -22.1630   23.0850 H   0  0  0  0  0  0  0  0  0  0  0  0
  -28.5780  -23.0120   18.9060 H   0  0  0  0  0  0  0  0  0  0  0  0
  -29.4890  -21.6190   19.2340 H   0  0  0  0  0  0  0  0  0  0  0  0
  -31.3200  -23.5630   21.8150 H   0  0  0  0  0  0  0  0  0  0  0  0
  -30.5380  -20.3100   21.0580 C   0  0  0  0  0  2  0  0  0  0  0  0
  -30.8370  -19.0230   21.7640 N   0  0  0  0  0  4  0  0  0  0  0  0
  -30.5550  -19.1090   22.7280 H   0  0  0  0  0  0  0  0  0  0  0  0
  -31.8300  -18.8610   21.7360 H   0  0  0  0  0  0  0  0  0  0  0  0
  -30.1970  -17.8010   21.1990 C   0  0  0  0  0  2  0  0  0  0  0  0
  -30.7580  -16.5030   21.8480 C   0  0  0  0  0  2  0  0  0  0  0  0
  -30.7150  -14.4260   20.4260 C   0  0  0  0  0  0  0  0  0  0  0  0
  -30.3550  -12.3560   19.1110 C   0  0  0  0  0  2  0  0  0  0  0  0
  -29.3730  -12.6180   17.9510 C   0  0  0  0  0  2  0  0  0  0  0  0
  -27.9100  -12.4780   18.4130 C   0  0  0  0  0  2  0  0  0  0  0  0
  -27.6260  -13.2620   19.7210 C   0  0  0  0  0  3  0  0  0  0  0  0
  -28.7010  -12.9510   20.7850 C   0  0  0  0  0  2  0  0  0  0  0  0
  -30.0160  -13.2790   20.2080 N   0  0  0  0  0  0  0  0  0  0  0  0
  -31.7620  -14.7050   19.8360 O   0  0  0  0  0  0  0  0  0  0  0  0
  -30.1690  -15.2620   21.3250 N   0  0  0  0  0  0  0  0  0  0  0  0
  -29.3060  -14.9460   21.7440 H   0  0  0  0  0  0  0  0  0  0  0  0
  -25.2380  -13.8780   20.4520 C   0  0  0  0  0  0  0  0  0  0  0  0
  -24.1730  -13.1100   20.8310 C   0  0  0  0  0  0  0  0  0  0  0  0
  -24.6320  -11.7580   20.8010 C   0  0  0  0  0  0  0  0  0  0  0  0
  -26.2810  -12.9970   20.2160 N   0  0  0  0  0  0  0  0  0  0  0  0
  -25.9190  -11.7150   20.4790 N   0  0  0  0  0  0  0  0  0  0  0  0
  -23.9070  -10.4980   21.0010 C   0  0  0  0  0  0  0  0  0  0  0  0
  -24.3570   -9.5290   21.9250 C   0  0  0  0  0  3  0  0  0  0  0  0
  -23.6340   -8.3330   22.1170 C   0  0  0  0  0  3  0  0  0  0  0  0
  -22.4470   -8.0960   21.3840 C   0  0  0  0  0  0  0  0  0  0  0  0
  -22.0180   -9.0540   20.4470 C   0  0  0  0  0  3  0  0  0  0  0  0
  -22.7410  -10.2410   20.2540 C   0  0  0  0  0  3  0  0  0  0  0  0
  -21.6940   -6.9540   21.4850 O   0  0  0  0  0  0  0  0  0  0  0  0
  -21.6670   -6.2070   22.6370 C   0  0  0  0  0  0  0  0  0  0  0  0
  -21.2700   -6.7610   23.8730 C   0  0  0  0  0  3  0  0  0  0  0  0
  -21.1860   -5.9420   25.0150 C   0  0  0  0  0  3  0  0  0  0  0  0
  -21.4930   -4.5710   24.9260 C   0  0  0  0  0  0  0  0  0  0  0  0
  -21.8850   -4.0170   23.6950 C   0  0  0  0  0  3  0  0  0  0  0  0
  -21.9680   -4.8330   22.5520 C   0  0  0  0  0  0  0  0  0  0  0  0
  -22.3240   -4.2910   21.3630 F   0  0  0  0  0  0  0  0  0  0  0  0
  -21.4070   -3.7810   26.0220 F   0  0  0  0  0  0  0  0  0  0  0  0
  -22.7800  -13.5900   21.1220 C   0  0  0  0  0  0  0  0  0  0  0  0
  -22.0670  -12.8960   22.0010 N   0  0  0  0  0  0  0  0  0  0  0  0
  -22.3330  -14.6130   20.6040 O   0  0  0  0  0  0  0  0  0  0  0  0
  -22.4450  -12.0680   22.4380 H   0  0  0  0  0  0  0  0  0  0  0  0
  -21.1350  -13.1980   22.2460 H   0  0  0  0  0  0  0  0  0  0  0  0
  -25.3940  -15.2490   20.2680 N   0  0  0  0  0  0  0  0  0  0  0  0
  -24.6180  -15.8950   20.3740 H   0  0  0  0  0  0  0  0  0  0  0  0
  -26.2340  -15.6970   19.9220 H   0  0  0  0  0  0  0  0  0  0  0  0
  -29.8430  -24.8210   20.3330 C   0  0  0  0  0  2  0  0  0  0  0  0
  -28.4020  -25.3430   20.1280 C   0  0  0  0  0  2  0  0  0  0  0  0
  -28.4130  -26.7770   20.1860 O   0  0  0  0  0  0  0  0  0  0  0  0
  -24.5320  -31.8940   23.2360 C   0  0  0  0  0  0  0  0  0  0  0  0
  -27.2100  -27.4560   20.1750 C   0  0  0  0  0  0  0  0  0  0  0  0
  -23.3360  -30.4870   21.5880 C   0  0  0  0  0  3  0  0  0  0  0  0
  -24.8010  -28.9470   20.1780 C   0  0  0  0  0  0  0  0  0  0  0  0
  -25.8600  -30.8530   21.4030 C   0  0  0  0  0  2  0  0  0  0  0  0
  -25.9520  -29.4810   20.7660 C   0  0  0  0  0  0  0  0  0  0  0  0
  -27.1570  -28.7430   20.7590 C   0  0  0  0  0  3  0  0  0  0  0  0
  -26.0340  -26.9310   19.5890 C   0  0  0  0  0  3  0  0  0  0  0  0
  -24.8340  -27.6690   19.5900 C   0  0  0  0  0  3  0  0  0  0  0  0
  -23.5550  -29.8010   20.2120 C   0  0  0  0  0  2  0  0  0  0  0  0
  -24.5950  -31.0930   22.1340 N   0  0  0  0  0  0  0  0  0  0  0  0
  -23.4480  -32.1630   23.7720 O   0  0  0  0  0  0  0  0  0  0  0  0
  -22.6830  -29.4650   22.5430 C   0  0  0  0  0  0  0  0  0  0  0  0
  -21.3600  -29.2790   22.4090 N   0  0  0  0  0  0  0  0  0  0  0  0
  -23.3610  -28.8360   23.3590 O   0  0  0  0  0  0  0  0  0  0  0  0
  -20.8720  -29.8390   21.7250 H   0  0  0  0  0  0  0  0  0  0  0  0
  -17.9830  -28.0950   22.8970 C   0  0  0  0  0  0  0  0  0  0  0  0
  -20.5410  -28.3410   23.1730 C   0  0  0  0  0  3  0  0  0  0  0  0
  -20.6360  -26.9120   22.5890 C   0  0  0  0  0  2  0  0  0  0  0  0
  -19.5360  -26.5990   21.5690 C   0  0  0  0  0  2  0  0  0  0  0  0
  -18.1550  -26.7470   22.2140 C   0  0  0  0  0  2  0  0  0  0  0  0
  -19.1050  -28.8490   23.3330 C   0  0  0  0  0  0  0  0  0  0  0  0
  -18.8930  -30.1110   23.9290 C   0  0  0  0  0  3  0  0  0  0  0  0
  -17.5900  -30.6210   24.0910 C   0  0  0  0  0  3  0  0  0  0  0  0
  -16.4820  -29.8620   23.6740 C   0  0  0  0  0  3  0  0  0  0  0  0
  -16.6800  -28.6000   23.0840 C   0  0  0  0  0  3  0  0  0  0  0  0
  -25.8140  -32.5240   23.8620 C   0  0  0  0  0  3  0  0  0  0  0  0
  -25.5070  -33.9230   24.1890 N   0  0  0  0  0  0  0  0  0  0  0  0
  -25.8450  -34.9710   23.4260 C   0  0  0  0  0  0  0  0  0  0  0  0
  -26.5200  -34.8630   22.3980 O   0  0  0  0  0  0  0  0  0  0  0  0
  -24.9100  -34.0810   24.9880 H   0  0  0  0  0  0  0  0  0  0  0  0
  -24.1190  -36.7610   23.0500 C   0  0  0  0  0  1  0  0  0  0  0  0
  -25.3530  -36.3620   23.8730 C   0  0  0  0  0  3  0  0  0  0  0  0
  -27.4780  -37.2470   24.7250 C   0  0  0  0  0  1  0  0  0  0  0  0
  -26.3850  -37.4140   23.7700 N   0  0  0  0  0  0  0  0  0  0  0  0
  -25.9780  -38.3340   23.9100 H   0  0  0  0  0  0  0  0  0  0  0  0
  -26.3300  -31.7550   25.1410 C   0  0  1  0  0  0  0  0  0  0  0  0
  -25.2310  -31.5130   26.2040 C   0  0  0  0  0  1  0  0  0  0  0  0
  -26.9160  -30.3770   24.7500 C   0  0  0  0  0  1  0  0  0  0  0  0
  -27.4780  -32.5470   25.8100 C   0  0  0  0  0  1  0  0  0  0  0  0
  1  3  2  0
  2  5  1  0
  3  6  1  0
  3  7  1  0
  4  2  2  0
  5  1  1  0
  5 10  1  0
  8  4  1  0
  9  4  1  0
 11  1  1  0
 11 12  1  0
 12 13  1  0
 14 12  1  0
 15 12  1  0
 15 16  1  0
 17 25  1  0
 18 23  1  0
 19 20  1  0
 19 18  1  0
 21 20  1  0
 21 30  1  0
 21 22  1  0
 23 17  1  0
 23 22  1  0
 24 17  2  0
 25 26  1  0
 25 16  1  0
 27 28  2  0
 28 47  1  0
 29 28  1  0
 29 32  1  0
 30 27  1  0
 30 31  1  0
 31 29  2  0
 32 33  1  0
 33 34  2  0
 35 38  1  0
 35 34  1  0
 36 35  2  0
 37 36  1  0
 37 32  2  0
 38 39  1  0
 39 40  1  0
 40 41  2  0
 42 41  1  0
 42 46  1  0
 43 42  2  0
 44 39  2  0
 44 43  1  0
 45 44  1  0
 47 48  1  0
 48 51  1  0
 48 50  1  0
 49 47  2  0
 52 53  1  0
 52 27  1  0
 54 52  1  0
 55  2  1  0
 56 57  1  0
 56 55  1  0
 58 69  2  0
 59 57  1  0
 59 64  1  0
 60 68  1  0
 60 70  1  0
 61 67  1  0
 61 63  1  0
 62 68  1  0
 63 62  1  0
 64 63  2  0
 65 66  1  0
 65 59  2  0
 66 61  2  0
 67 60  1  0
 68 58  1  0
 70 72  2  0
 71 70  1  0
 73 71  1  0
 74 83  2  0
 74 79  1  0
 75 71  1  0
 75 79  1  0
 76 75  1  0
 77 78  1  0
 77 76  1  0
 78 74  1  0
 79 80  2  0
 80 81  1  0
 82 81  2  0
 83 82  1  0
 84 58  1  0
 84 85  1  0
 84 94  1  0
 85 88  1  0
 86 90  1  0
 86 85  1  0
 87 86  2  0
 90 89  1  0
 92 90  1  0
 92 93  1  0
 92 91  1  0
 94 97  1  1
 94 95  1  0
 96 94  1  0
M  ISO  4  17 100  25 100  56 101  57 101
M  END
>  <TORSDO>  (69) 
F 22

>  <SCORE>  (69) 
-13.561

>  <name>  (69) 
72

>  <ligand_id>  (69) 
72

>  <original_smiles>  (69) 
[H]c1c([H])c([H])c2c(c1[H])C([H])([H])C([H])([H])C([H])([H])C2([H])N([H])C(=O)C1([H])N(C(=O)C([H])(N([H])C(=O)C([H])(N([H])C([H])([H])[H])C([H])([H])[H])C(C([H])([H])[H])(C([H])([H])[H])C([H])([H])[H])C([H])([H])c2c([H])c(OC([H])([H])C([H])([H])C(N([H])C(=[N+]([H])[H])C([H])([H])[N+]([H])([H])C([H])([H])C([H])([H])N([H])C(=O)N3C([H])([H])C([H])([H])C([H])([H])C([H])(n4nc(-c5c([H])c([H])c(Oc6c([H])c([H])c(F)c([H])c6F)c([H])c5[H])c(C(=O)N([H])[H])c4N([H])[H])C3([H])[H])=[N+]([H])[H])c([H])c([H])c2C1([H])[H]

>  <smiles>  (69) 
[H]c1c([H])c([H])c2c(c1[H])C([H])([H])C([H])([H])C([H])([H])C2([H])N([H])C(=O)C1([H])N(C(=O)C([H])(N([H])C(=O)C([H])(N([H])C([H])([H])[H])C([H])([H])[H])C(C([H])([H])[H])(C([H])([H])[H])C([H])([H])[H])C([H])([H])c2c([H])c(OC([H])([H])C([H])([H])C(N([H])C(=[N+]([H])[H])C([H])([H])[N+]([H])([H])C([H])([H])C([H])([H])N([H])C(=O)N3C([H])([H])C([H])([H])C([H])([H])C([H])(n4nc(-c5c([H])c([H])c(Oc6c([H])c([H])c(F)c([H])c6F)c([H])c5[H])c(C(=O)N([H])[H])c4N([H])[H])C3([H])[H])=[N+]([H])[H])c([H])c([H])c2C1([H])[H]

$$$$
73:0:0
     RDKit          3D

 99107  0  0  1  0  0  0  0  0999 V2000
  -24.3430  -21.0240   20.0330 C   0  0  0  0  0  2  0  0  0  0  0  0
  -24.8890  -22.3490   19.4730 C   0  0  0  0  0  2  0  0  0  0  0  0
  -24.1450  -19.9730   18.9200 C   0  0  0  0  0  2  0  0  0  0  0  0
  -25.9520  -21.1120   17.5570 C   0  0  0  0  0  2  0  0  0  0  0  0
  -26.2070  -22.1340   18.6920 C   0  0  0  0  0  3  0  0  0  0  0  0
  -25.4260  -19.7490   18.0820 C   0  0  0  0  0  3  0  0  0  0  0  0
  -26.4160  -18.9770   18.8780 N   0  0  0  0  0  4  0  0  0  0  0  0
  -26.0500  -18.0420   18.9640 H   0  0  0  0  0  0  0  0  0  0  0  0
  -26.4650  -19.3610   19.8080 H   0  0  0  0  0  0  0  0  0  0  0  0
  -27.7900  -18.8560   18.3360 C   0  0  0  0  0  2  0  0  0  0  0  0
  -28.7110  -18.1100   19.3230 C   0  0  0  0  0  2  0  0  0  0  0  0
  -30.2050  -18.2140   18.9570 C   0  0  0  0  0  2  0  0  0  0  0  0
  -31.1490  -17.6740   20.0490 C   0  0  0  0  0  2  0  0  0  0  0  0
  -31.5360  -15.2130   20.0630 C   0  0  0  0  0  0  0  0  0  0  0  0
  -31.4630  -12.7640   19.8180 C   0  0  0  0  0  2  0  0  0  0  0  0
  -30.6050  -12.3850   18.5950 C   0  0  0  0  0  2  0  0  0  0  0  0
  -29.1120  -12.2980   18.9730 C   0  0  0  0  0  2  0  0  0  0  0  0
  -28.6210  -13.5390   19.7660 C   0  0  0  0  0  3  0  0  0  0  0  0
  -29.5930  -13.8580   20.9240 C   0  0  0  0  0  2  0  0  0  0  0  0
  -30.9450  -14.0280   20.3600 N   0  0  0  0  0  0  0  0  0  0  0  0
  -32.6160  -15.3080   19.4710 O   0  0  0  0  0  0  0  0  0  0  0  0
  -30.8290  -16.2960   20.4070 N   0  0  0  0  0  0  0  0  0  0  0  0
  -29.9740  -16.1320   20.9130 H   0  0  0  0  0  0  0  0  0  0  0  0
  -26.2900  -14.3140   20.5390 C   0  0  0  0  0  0  0  0  0  0  0  0
  -25.1630  -13.6210   20.8830 C   0  0  0  0  0  0  0  0  0  0  0  0
  -25.4990  -12.2370   20.7590 C   0  0  0  0  0  0  0  0  0  0  0  0
  -27.2510  -13.3610   20.2420 N   0  0  0  0  0  0  0  0  0  0  0  0
  -26.7770  -12.1030   20.4260 N   0  0  0  0  0  0  0  0  0  0  0  0
  -24.6640  -11.0350   20.8770 C   0  0  0  0  0  0  0  0  0  0  0  0
  -24.9200  -10.0530   21.8590 C   0  0  0  0  0  3  0  0  0  0  0  0
  -24.0910   -8.9150   21.9660 C   0  0  0  0  0  3  0  0  0  0  0  0
  -22.9940   -8.7510   21.0900 C   0  0  0  0  0  0  0  0  0  0  0  0
  -22.7570   -9.7210   20.0990 C   0  0  0  0  0  3  0  0  0  0  0  0
  -23.5860  -10.8490   19.9910 C   0  0  0  0  0  3  0  0  0  0  0  0
  -22.1510   -7.6660   21.1030 O   0  0  0  0  0  0  0  0  0  0  0  0
  -21.7830   -7.0560   22.2760 C   0  0  0  0  0  0  0  0  0  0  0  0
  -21.0960   -7.7510   23.2940 C   0  0  0  0  0  3  0  0  0  0  0  0
  -20.6760   -7.0680   24.4530 C   0  0  0  0  0  3  0  0  0  0  0  0
  -20.9320   -5.6920   24.5930 C   0  0  0  0  0  0  0  0  0  0  0  0
  -21.6110   -4.9960   23.5770 C   0  0  0  0  0  3  0  0  0  0  0  0
  -22.0330   -5.6760   22.4200 C   0  0  0  0  0  0  0  0  0  0  0  0
  -22.6690   -4.9960   21.4360 F   0  0  0  0  0  0  0  0  0  0  0  0
  -20.5220   -5.0330   25.7010 F   0  0  0  0  0  0  0  0  0  0  0  0
  -23.8160  -14.2010   21.2060 C   0  0  0  0  0  0  0  0  0  0  0  0
  -23.0370  -13.5220   22.0390 N   0  0  0  0  0  0  0  0  0  0  0  0
  -23.4690  -15.2920   20.7530 O   0  0  0  0  0  0  0  0  0  0  0  0
  -23.3310  -12.6370   22.4250 H   0  0  0  0  0  0  0  0  0  0  0  0
  -22.1340  -13.8940   22.2970 H   0  0  0  0  0  0  0  0  0  0  0  0
  -26.5680  -15.6730   20.4180 N   0  0  0  0  0  0  0  0  0  0  0  0
  -25.7450  -16.2620   20.3510 H   0  0  0  0  0  0  0  0  0  0  0  0
  -27.2810  -15.9150   19.7430 H   0  0  0  0  0  0  0  0  0  0  0  0
  -26.7970  -23.4740   18.1730 C   0  0  0  0  0  2  0  0  0  0  0  0
  -28.0150  -23.2660   17.3580 N   0  0  0  0  0  4  0  0  0  0  0  0
  -27.7700  -23.1820   16.3860 H   0  0  0  0  0  0  0  0  0  0  0  0
  -28.4140  -22.3820   17.6390 H   0  0  0  0  0  0  0  0  0  0  0  0
  -29.0850  -24.2820   17.5050 C   0  0  0  0  0  2  0  0  0  0  0  0
  -28.6000  -25.7560   17.4830 C   0  0  0  0  0  2  0  0  0  0  0  0
  -28.0520  -26.2560   16.1240 C   0  0  0  0  0  2  0  0  0  0  0  0
  -27.7270  -27.6460   16.1390 O   0  0  0  0  0  0  0  0  0  0  0  0
  -25.2660  -28.5020   22.7260 C   0  0  0  0  0  0  0  0  0  0  0  0
  -26.6680  -28.0390   16.9190 C   0  0  0  0  0  0  0  0  0  0  0  0
  -23.6010  -28.8130   20.9160 C   0  0  0  0  0  3  0  0  0  0  0  0
  -24.5470  -28.9240   18.5570 C   0  0  0  0  0  0  0  0  0  0  0  0
  -26.0770  -29.2810   20.5050 C   0  0  0  0  0  2  0  0  0  0  0  0
  -25.8480  -28.8650   19.0680 C   0  0  0  0  0  0  0  0  0  0  0  0
  -26.9140  -28.4410   18.2480 C   0  0  0  0  0  3  0  0  0  0  0  0
  -25.3490  -28.0840   16.4160 C   0  0  0  0  0  3  0  0  0  0  0  0
  -24.2900  -28.5330   17.2300 C   0  0  0  0  0  3  0  0  0  0  0  0
  -23.4720  -29.4250   19.4930 C   0  0  0  0  0  2  0  0  0  0  0  0
  -25.0100  -28.8340   21.4280 N   0  0  0  0  0  0  0  0  0  0  0  0
  -24.3450  -28.2330   23.5080 O   0  0  0  0  0  0  0  0  0  0  0  0
  -22.9790  -27.3990   20.9070 C   0  0  0  0  0  0  0  0  0  0  0  0
  -21.6380  -27.3380   20.8290 N   0  0  0  0  0  0  0  0  0  0  0  0
  -23.6920  -26.3920   20.9400 O   0  0  0  0  0  0  0  0  0  0  0  0
  -21.1290  -28.2110   20.8320 H   0  0  0  0  0  0  0  0  0  0  0  0
  -18.2690  -26.0850   20.4340 C   0  0  0  0  0  0  0  0  0  0  0  0
  -20.8330  -26.1190   20.7640 C   0  0  0  0  0  3  0  0  0  0  0  0
  -20.9190  -25.4620   19.3680 C   0  0  0  0  0  2  0  0  0  0  0  0
  -19.7960  -25.9040   18.4250 C   0  0  0  0  0  2  0  0  0  0  0  0
  -18.4270  -25.5570   19.0170 C   0  0  0  0  0  2  0  0  0  0  0  0
  -19.3990  -26.3600   21.2480 C   0  0  0  0  0  0  0  0  0  0  0  0
  -19.2010  -26.8730   22.5470 C   0  0  0  0  0  3  0  0  0  0  0  0
  -17.9040  -27.1130   23.0360 C   0  0  0  0  0  3  0  0  0  0  0  0
  -16.7870  -26.8320   22.2290 C   0  0  0  0  0  3  0  0  0  0  0  0
  -16.9710  -26.3120   20.9350 C   0  0  0  0  0  3  0  0  0  0  0  0
  -26.7210  -28.4730   23.2970 C   0  0  0  0  0  3  0  0  0  0  0  0
  -27.3300  -27.0190   23.3880 C   0  0  1  0  0  0  0  0  0  0  0  0
  -26.4260  -26.0070   24.1310 C   0  0  0  0  0  1  0  0  0  0  0  0
  -27.6090  -26.4560   21.9740 C   0  0  0  0  0  1  0  0  0  0  0  0
  -28.6890  -27.0630   24.1260 C   0  0  0  0  0  1  0  0  0  0  0  0
  -26.6900  -29.1080   24.6210 N   0  0  0  0  0  0  0  0  0  0  0  0
  -27.1370  -30.3460   24.8790 C   0  0  0  0  0  0  0  0  0  0  0  0
  -27.6890  -31.0490   24.0300 O   0  0  0  0  0  0  0  0  0  0  0  0
  -26.2020  -28.6130   25.3530 H   0  0  0  0  0  0  0  0  0  0  0  0
  -25.7480  -31.8610   26.3280 C   0  0  0  0  0  1  0  0  0  0  0  0
  -26.9380  -30.8870   26.3060 C   0  0  0  0  0  3  0  0  0  0  0  0
  -29.2410  -30.6340   27.1230 C   0  0  0  0  0  1  0  0  0  0  0  0
  -28.1390  -31.5550   26.8560 N   0  0  0  0  0  0  0  0  0  0  0  0
  -27.9140  -32.0400   27.7210 H   0  0  0  0  0  0  0  0  0  0  0  0
  2  1  1  0
  3  1  1  0
  4  6  1  0
  4  5  1  0
  5 52  1  0
  5  2  1  0
  6  7  1  0
  6  3  1  0
  7  8  1  0
  7  9  1  0
 10  7  1  0
 10 11  1  0
 12 11  1  0
 12 13  1  0
 13 22  1  0
 14 20  1  0
 14 22  1  0
 15 20  1  0
 16 17  1  0
 16 15  1  0
 18 17  1  0
 18 27  1  0
 18 19  1  0
 20 19  1  0
 21 14  2  0
 22 23  1  0
 24 25  2  0
 25 44  1  0
 26 29  1  0
 26 25  1  0
 27 28  1  0
 27 24  1  0
 28 26  2  0
 29 30  1  0
 30 31  2  0
 32 35  1  0
 32 31  1  0
 33 32  2  0
 34 33  1  0
 34 29  2  0
 35 36  1  0
 36 41  2  0
 36 37  1  0
 37 38  2  0
 38 39  1  0
 39 43  1  0
 40 39  2  0
 41 40  1  0
 42 41  1  0
 44 45  1  0
 45 48  1  0
 45 47  1  0
 46 44  2  0
 49 24  1  0
 50 49  1  0
 51 49  1  0
 53 56  1  0
 53 55  1  0
 53 52  1  0
 54 53  1  0
 57 56  1  0
 58 59  1  0
 58 57  1  0
 59 61  1  0
 60 71  2  0
 61 66  1  0
 62 72  1  0
 62 70  1  0
 63 65  1  0
 63 69  1  0
 64 70  1  0
 65 64  1  0
 66 65  2  0
 67 61  2  0
 67 68  1  0
 68 63  2  0
 69 62  1  0
 70 60  1  0
 72 74  2  0
 73 75  1  0
 73 72  1  0
 76 85  2  0
 76 81  1  0
 77 73  1  0
 77 81  1  0
 78 77  1  0
 79 80  1  0
 79 78  1  0
 80 76  1  0
 81 82  2  0
 82 83  1  0
 84 83  2  0
 85 84  1  0
 86 60  1  0
 86 87  1  0
 86 91  1  0
 87 90  1  1
 87 88  1  0
 89 87  1  0
 91 92  1  0
 91 94  1  0
 92 96  1  0
 93 92  2  0
 96 95  1  0
 96 98  1  0
 98 97  1  0
 98 99  1  0
M  ISO  4  14 100  22 100  58 101  59 101
M  END
>  <TORSDO>  (70) 
F 26

>  <SCORE>  (70) 
-4.054

>  <name>  (70) 
73

>  <ligand_id>  (70) 
73

>  <original_smiles>  (70) 
[H]c1c([H])c([H])c2c(c1[H])C([H])([H])C([H])([H])C([H])([H])C2([H])N([H])C(=O)C1([H])N(C(=O)C([H])(N([H])C(=O)C([H])(N([H])C([H])([H])[H])C([H])([H])[H])C(C([H])([H])[H])(C([H])([H])[H])C([H])([H])[H])C([H])([H])c2c([H])c(OC([H])([H])C([H])([H])C([H])([H])[N+]([H])([H])C([H])([H])C3([H])C([H])([H])C([H])([H])C([H])([H])C([H])([N+]([H])([H])C([H])([H])C([H])([H])C([H])([H])C([H])([H])N([H])C(=O)N4C([H])([H])C([H])([H])C([H])([H])C([H])(n5nc(-c6c([H])c([H])c(Oc7c([H])c([H])c(F)c([H])c7F)c([H])c6[H])c(C(=O)N([H])[H])c5N([H])[H])C4([H])[H])C3([H])[H])c([H])c([H])c2C1([H])[H]

>  <smiles>  (70) 
[H]c1c([H])c([H])c2c(c1[H])C([H])([H])C([H])([H])C([H])([H])C2([H])N([H])C(=O)C1([H])N(C(=O)C([H])(N([H])C(=O)C([H])(N([H])C([H])([H])[H])C([H])([H])[H])C(C([H])([H])[H])(C([H])([H])[H])C([H])([H])[H])C([H])([H])c2c([H])c(OC([H])([H])C([H])([H])C([H])([H])[N+]([H])([H])C([H])([H])C3([H])C([H])([H])C([H])([H])C([H])([H])C([H])([N+]([H])([H])C([H])([H])C([H])([H])C([H])([H])C([H])([H])N([H])C(=O)N4C([H])([H])C([H])([H])C([H])([H])C([H])(n5nc(-c6c([H])c([H])c(Oc7c([H])c([H])c(F)c([H])c7F)c([H])c6[H])c(C(=O)N([H])[H])c5N([H])[H])C4([H])[H])C3([H])[H])c([H])c([H])c2C1([H])[H]

$$$$
74:0:0
     RDKit          3D

 97105  0  0  1  0  0  0  0  0999 V2000
  -30.2160  -18.9980   22.3360 C   0  0  0  0  0  3  0  0  0  0  0  0
  -31.4930  -19.0800   20.2780 C   0  0  0  0  0  3  0  0  0  0  0  0
  -29.8100  -20.3380   22.1340 C   0  0  0  0  0  3  0  0  0  0  0  0
  -31.0780  -20.4180   20.0700 C   0  0  0  0  0  3  0  0  0  0  0  0
  -31.0290  -18.3350   21.3850 C   0  0  0  0  0  0  0  0  0  0  0  0
  -30.2090  -21.0620   20.9870 C   0  0  0  0  0  0  0  0  0  0  0  0
  -31.3640  -16.8280   21.5320 C   0  0  0  0  0  2  0  0  0  0  0  0
  -31.0110  -14.7910   20.1110 C   0  0  0  0  0  0  0  0  0  0  0  0
  -30.6640  -12.6570   18.8700 C   0  0  0  0  0  2  0  0  0  0  0  0
  -29.6340  -12.8330   17.7320 C   0  0  0  0  0  2  0  0  0  0  0  0
  -28.1970  -12.6240   18.2510 C   0  0  0  0  0  2  0  0  0  0  0  0
  -27.9260  -13.4140   19.5550 C   0  0  0  0  0  3  0  0  0  0  0  0
  -29.0670  -13.1860   20.5830 C   0  0  0  0  0  2  0  0  0  0  0  0
  -30.3210  -13.6130   19.9470 N   0  0  0  0  0  0  0  0  0  0  0  0
  -32.1240  -14.9190   19.5900 O   0  0  0  0  0  0  0  0  0  0  0  0
  -30.4750  -15.8360   20.8400 N   0  0  0  0  0  0  0  0  0  0  0  0
  -25.5890  -14.0180   20.4420 C   0  0  0  0  0  0  0  0  0  0  0  0
  -24.5400  -13.2350   20.8410 C   0  0  0  0  0  0  0  0  0  0  0  0
  -24.9940  -11.8860   20.7350 C   0  0  0  0  0  0  0  0  0  0  0  0
  -26.6110  -13.1380   20.1140 N   0  0  0  0  0  0  0  0  0  0  0  0
  -26.2620  -11.8520   20.3500 N   0  0  0  0  0  0  0  0  0  0  0  0
  -24.2800  -10.6220   20.9250 C   0  0  0  0  0  0  0  0  0  0  0  0
  -24.7100   -9.6680   21.8720 C   0  0  0  0  0  3  0  0  0  0  0  0
  -23.9960   -8.4630   22.0440 C   0  0  0  0  0  3  0  0  0  0  0  0
  -22.8420   -8.2060   21.2680 C   0  0  0  0  0  0  0  0  0  0  0  0
  -22.4320   -9.1490   20.3100 C   0  0  0  0  0  3  0  0  0  0  0  0
  -23.1450  -10.3460   20.1350 C   0  0  0  0  0  3  0  0  0  0  0  0
  -22.1010   -7.0540   21.3510 O   0  0  0  0  0  0  0  0  0  0  0  0
  -21.9650   -6.3690   22.5320 C   0  0  0  0  0  0  0  0  0  0  0  0
  -21.3700   -6.9560   23.6680 C   0  0  0  0  0  3  0  0  0  0  0  0
  -21.1880   -6.1940   24.8400 C   0  0  0  0  0  3  0  0  0  0  0  0
  -21.5910   -4.8460   24.8730 C   0  0  0  0  0  0  0  0  0  0  0  0
  -22.1800   -4.2580   23.7400 C   0  0  0  0  0  3  0  0  0  0  0  0
  -22.3630   -5.0180   22.5720 C   0  0  0  0  0  0  0  0  0  0  0  0
  -22.9110   -4.4410   21.4740 F   0  0  0  0  0  0  0  0  0  0  0  0
  -21.4080   -4.1120   25.9950 F   0  0  0  0  0  0  0  0  0  0  0  0
  -23.1690  -13.7100   21.2230 C   0  0  0  0  0  0  0  0  0  0  0  0
  -22.4970  -12.9930   22.1170 N   0  0  0  0  0  0  0  0  0  0  0  0
  -22.7120  -14.7580   20.7680 O   0  0  0  0  0  0  0  0  0  0  0  0
  -22.8840  -12.1500   22.5100 H   0  0  0  0  0  0  0  0  0  0  0  0
  -21.5800  -13.2960   22.4150 H   0  0  0  0  0  0  0  0  0  0  0  0
  -25.7430  -15.3990   20.3320 N   0  0  0  0  0  0  0  0  0  0  0  0
  -24.7880  -15.7560   20.3480 H   0  0  0  0  0  0  0  0  0  0  0  0
  -26.1130  -15.6650   21.2400 H   0  0  0  0  0  0  0  0  0  0  0  0
  -29.0810  -16.3250   20.7130 C   0  0  0  0  0  2  0  0  0  0  0  0
  -28.7810  -16.9890   19.3440 C   0  0  0  0  0  2  0  0  0  0  0  0
  -27.4440  -17.6040   19.3160 N   0  0  0  0  0  4  0  0  0  0  0  0
  -26.7310  -16.9190   19.5610 H   0  0  0  0  0  0  0  0  0  0  0  0
  -27.2400  -17.9700   18.4030 H   0  0  0  0  0  0  0  0  0  0  0  0
  -27.3850  -18.3600   19.9760 H   0  0  0  0  0  0  0  0  0  0  0  0
  -29.6360  -22.4780   20.7590 C   0  0  0  0  0  2  0  0  0  0  0  0
  -30.5390  -23.4460   20.0820 N   0  0  0  0  0  4  0  0  0  0  0  0
  -30.5150  -23.2630   19.0900 H   0  0  0  0  0  0  0  0  0  0  0  0
  -31.4720  -23.2340   20.3970 H   0  0  0  0  0  0  0  0  0  0  0  0
  -30.3000  -24.9020   20.3480 C   0  0  0  0  0  2  0  0  0  0  0  0
  -29.0070  -25.5200   19.7410 C   0  0  0  0  0  2  0  0  0  0  0  0
  -28.9060  -26.9070   20.1300 O   0  0  0  0  0  0  0  0  0  0  0  0
  -24.8310  -31.8690   23.2150 C   0  0  0  0  0  0  0  0  0  0  0  0
  -27.6870  -27.5700   20.0890 C   0  0  0  0  0  0  0  0  0  0  0  0
  -23.7020  -30.4700   21.5130 C   0  0  0  0  0  3  0  0  0  0  0  0
  -25.2350  -29.0060   20.0840 C   0  0  0  0  0  0  0  0  0  0  0  0
  -26.2220  -30.9070   21.3810 C   0  0  0  0  0  2  0  0  0  0  0  0
  -26.3630  -29.5540   20.7060 C   0  0  0  0  0  0  0  0  0  0  0  0
  -27.5870  -28.8450   20.7000 C   0  0  0  0  0  3  0  0  0  0  0  0
  -26.5380  -27.0420   19.4550 C   0  0  0  0  0  3  0  0  0  0  0  0
  -25.3190  -27.7530   19.4520 C   0  0  0  0  0  3  0  0  0  0  0  0
  -23.9620  -29.8230   20.1250 C   0  0  0  0  0  2  0  0  0  0  0  0
  -24.9350  -31.0970   22.0950 N   0  0  0  0  0  0  0  0  0  0  0  0
  -23.7330  -32.0980   23.7380 O   0  0  0  0  0  0  0  0  0  0  0  0
  -23.0570  -29.4130   22.4400 C   0  0  0  0  0  0  0  0  0  0  0  0
  -21.7330  -29.2260   22.3090 N   0  0  0  0  0  0  0  0  0  0  0  0
  -23.7450  -28.7650   23.2330 O   0  0  0  0  0  0  0  0  0  0  0  0
  -21.2350  -29.8020   21.6450 H   0  0  0  0  0  0  0  0  0  0  0  0
  -18.3580  -28.0310   22.8160 C   0  0  0  0  0  0  0  0  0  0  0  0
  -20.9240  -28.2540   23.0450 C   0  0  0  0  0  3  0  0  0  0  0  0
  -21.0020  -26.8560   22.3880 C   0  0  0  0  0  2  0  0  0  0  0  0
  -19.8760  -26.5980   21.3820 C   0  0  0  0  0  2  0  0  0  0  0  0
  -18.5100  -26.7200   22.0630 C   0  0  0  0  0  2  0  0  0  0  0  0
  -19.4930  -28.7600   23.2620 C   0  0  0  0  0  0  0  0  0  0  0  0
  -19.2990  -29.9910   23.9240 C   0  0  0  0  0  3  0  0  0  0  0  0
  -18.0020  -30.4930   24.1460 C   0  0  0  0  0  3  0  0  0  0  0  0
  -16.8830  -29.7610   23.7140 C   0  0  0  0  0  3  0  0  0  0  0  0
  -17.0610  -28.5310   23.0540 C   0  0  0  0  0  3  0  0  0  0  0  0
  -26.0860  -32.5220   23.8780 C   0  0  0  0  0  3  0  0  0  0  0  0
  -25.7440  -33.9170   24.1940 N   0  0  0  0  0  0  0  0  0  0  0  0
  -26.0810  -34.9700   23.4390 C   0  0  0  0  0  0  0  0  0  0  0  0
  -26.7800  -34.8740   22.4260 O   0  0  0  0  0  0  0  0  0  0  0  0
  -25.1290  -34.0670   24.9800 H   0  0  0  0  0  0  0  0  0  0  0  0
  -24.3420  -36.7370   23.0210 C   0  0  0  0  0  1  0  0  0  0  0  0
  -25.5600  -36.3530   23.8760 C   0  0  0  0  0  3  0  0  0  0  0  0
  -27.6430  -37.2780   24.7890 C   0  0  0  0  0  1  0  0  0  0  0  0
  -26.5820  -37.4180   23.7950 N   0  0  0  0  0  0  0  0  0  0  0  0
  -26.1550  -38.3340   23.9130 H   0  0  0  0  0  0  0  0  0  0  0  0
  -26.5760  -31.7590   25.1700 C   0  0  1  0  0  0  0  0  0  0  0  0
  -25.4510  -31.4930   26.1950 C   0  0  0  0  0  1  0  0  0  0  0  0
  -27.2080  -30.3980   24.7970 C   0  0  0  0  0  1  0  0  0  0  0  0
  -27.6800  -32.5810   25.8750 C   0  0  0  0  0  1  0  0  0  0  0  0
  2  5  1  0
  3  1  1  0
  4  2  2  0
  4  6  1  0
  5  7  1  0
  5  1  2  0
  6  3  2  0
  8 16  1  0
  9 14  1  0
 10 11  1  0
 10  9  1  0
 12 11  1  0
 12 20  1  0
 12 13  1  0
 14  8  1  0
 14 13  1  0
 15  8  2  0
 16  7  1  0
 17 18  2  0
 18 37  1  0
 19 18  1  0
 19 22  1  0
 20 21  1  0
 20 17  1  0
 21 19  2  0
 22 23  1  0
 23 24  2  0
 25 28  1  0
 25 24  1  0
 26 25  2  0
 27 26  1  0
 27 22  2  0
 28 29  1  0
 29 34  2  0
 29 30  1  0
 30 31  2  0
 31 32  1  0
 32 36  1  0
 33 32  2  0
 34 33  1  0
 35 34  1  0
 37 38  1  0
 38 41  1  0
 38 40  1  0
 39 37  2  0
 42 43  1  0
 42 17  1  0
 42 44  1  0
 45 16  1  0
 46 45  1  0
 47 46  1  0
 47 48  1  0
 47 50  1  0
 49 47  1  0
 51  6  1  0
 52 55  1  0
 52 54  1  0
 52 51  1  0
 53 52  1  0
 56 57  1  0
 56 55  1  0
 58 69  2  0
 59 57  1  0
 59 64  1  0
 60 68  1  0
 60 70  1  0
 61 67  1  0
 61 63  1  0
 62 68  1  0
 63 62  1  0
 64 63  2  0
 65 59  2  0
 66 65  1  0
 66 61  2  0
 67 60  1  0
 68 58  1  0
 70 72  2  0
 71 70  1  0
 73 71  1  0
 74 83  2  0
 74 79  1  0
 75 71  1  0
 75 79  1  0
 76 75  1  0
 77 78  1  0
 77 76  1  0
 78 74  1  0
 79 80  2  0
 80 81  1  0
 82 81  2  0
 83 82  1  0
 84 58  1  0
 84 85  1  0
 84 94  1  0
 85 88  1  0
 86 90  1  0
 86 85  1  0
 87 86  2  0
 90 89  1  0
 92 90  1  0
 92 93  1  0
 92 91  1  0
 94 97  1  1
 94 95  1  0
 96 94  1  0
M  ISO  4   8 100  16 100  56 101  57 101
M  END
>  <TORSDO>  (71) 
F 24

>  <SCORE>  (71) 
-11.425

>  <name>  (71) 
74

>  <ligand_id>  (71) 
74

>  <original_smiles>  (71) 
[H]c1c([H])c([H])c2c(c1[H])C([H])([H])C([H])([H])C([H])([H])C2([H])N([H])C(=O)C1([H])N(C(=O)C([H])(N([H])C(=O)C([H])(N([H])C([H])([H])[H])C([H])([H])[H])C(C([H])([H])[H])(C([H])([H])[H])C([H])([H])[H])C([H])([H])c2c([H])c(OC([H])([H])C([H])([H])[N+]([H])([H])C([H])([H])c3c([H])c([H])c(C([H])([H])N(C(=O)N4C([H])([H])C([H])([H])C([H])([H])C([H])(n5nc(-c6c([H])c([H])c(Oc7c([H])c([H])c(F)c([H])c7F)c([H])c6[H])c(C(=O)N([H])[H])c5N([H])[H])C4([H])[H])C([H])([H])C([H])([H])[N+]([H])([H])[H])c([H])c3[H])c([H])c([H])c2C1([H])[H]

>  <smiles>  (71) 
[H]c1c([H])c([H])c2c(c1[H])C([H])([H])C([H])([H])C([H])([H])C2([H])N([H])C(=O)C1([H])N(C(=O)C([H])(N([H])C(=O)C([H])(N([H])C([H])([H])[H])C([H])([H])[H])C(C([H])([H])[H])(C([H])([H])[H])C([H])([H])[H])C([H])([H])c2c([H])c(OC([H])([H])C([H])([H])[N+]([H])([H])C([H])([H])c3c([H])c([H])c(C([H])([H])N(C(=O)N4C([H])([H])C([H])([H])C([H])([H])C([H])(n5nc(-c6c([H])c([H])c(Oc7c([H])c([H])c(F)c([H])c7F)c([H])c6[H])c(C(=O)N([H])[H])c5N([H])[H])C4([H])[H])C([H])([H])C([H])([H])[N+]([H])([H])[H])c([H])c3[H])c([H])c([H])c2C1([H])[H]

$$$$
75:0:0
     RDKit          3D

 96104  0  0  1  0  0  0  0  0999 V2000
  -28.6280  -20.0610   20.0600 C   0  0  0  0  0  3  0  0  0  0  0  0
  -27.3300  -23.6080   18.8930 C   0  0  0  0  0  2  0  0  0  0  0  0
  -27.2430  -22.1720   19.5920 C   0  0  0  0  0  2  0  0  0  0  0  0
  -29.6100  -22.5680   20.0140 C   0  0  0  0  0  2  0  0  0  0  0  0
  -29.1140  -24.0410   20.5350 C   0  0  0  0  0  3  0  0  0  0  0  0
  -27.8400  -24.7500   19.8420 C   0  0  0  0  0  3  0  0  0  0  0  0
  -28.5510  -21.4910   19.9270 N   0  0  0  0  0  0  0  0  0  0  0  0
  -27.4510  -19.4100   20.1310 N   0  0  0  0  0  0  0  0  0  0  0  0
  -27.4120  -18.4020   20.2000 H   0  0  0  0  0  0  0  0  0  0  0  0
  -26.5680  -19.8980   20.1510 H   0  0  0  0  0  0  0  0  0  0  0  0
  -27.9310  -26.2390   19.4180 O   0  0  0  0  0  0  0  0  0  0  0  0
  -24.5030  -31.6890   22.9600 C   0  0  0  0  0  0  0  0  0  0  0  0
  -26.8460  -27.1700   19.5270 C   0  0  0  0  0  0  0  0  0  0  0  0
  -23.1840  -30.3790   21.3430 C   0  0  0  0  0  3  0  0  0  0  0  0
  -24.5200  -28.8830   19.7460 C   0  0  0  0  0  0  0  0  0  0  0  0
  -25.7140  -30.6700   21.0000 C   0  0  0  0  0  2  0  0  0  0  0  0
  -25.7390  -29.3100   20.2860 C   0  0  0  0  0  0  0  0  0  0  0  0
  -26.9020  -28.4710   20.1580 C   0  0  0  0  0  3  0  0  0  0  0  0
  -25.5970  -26.8350   18.9630 C   0  0  0  0  0  3  0  0  0  0  0  0
  -24.4580  -27.6560   19.0710 C   0  0  0  0  0  3  0  0  0  0  0  0
  -23.3010  -29.7720   19.9210 C   0  0  0  0  0  2  0  0  0  0  0  0
  -24.4920  -30.9320   21.8230 N   0  0  0  0  0  0  0  0  0  0  0  0
  -23.4590  -31.9420   23.5810 O   0  0  0  0  0  0  0  0  0  0  0  0
  -22.5740  -29.3240   22.3000 C   0  0  0  0  0  0  0  0  0  0  0  0
  -21.2420  -29.1490   22.2480 N   0  0  0  0  0  0  0  0  0  0  0  0
  -23.2980  -28.6630   23.0500 O   0  0  0  0  0  0  0  0  0  0  0  0
  -20.7090  -29.7340   21.6190 H   0  0  0  0  0  0  0  0  0  0  0  0
  -17.9100  -27.8740   22.8680 C   0  0  0  0  0  0  0  0  0  0  0  0
  -20.4730  -28.1750   23.0270 C   0  0  0  0  0  3  0  0  0  0  0  0
  -20.5730  -26.7640   22.4040 C   0  0  0  0  0  2  0  0  0  0  0  0
  -19.4300  -26.4510   21.4310 C   0  0  0  0  0  2  0  0  0  0  0  0
  -18.0770  -26.5520   22.1420 C   0  0  0  0  0  2  0  0  0  0  0  0
  -19.0330  -28.6440   23.2700 C   0  0  0  0  0  0  0  0  0  0  0  0
  -18.8190  -29.8840   23.9120 C   0  0  0  0  0  3  0  0  0  0  0  0
  -17.5150  -30.3530   24.1540 C   0  0  0  0  0  3  0  0  0  0  0  0
  -16.4070  -29.5810   23.7660 C   0  0  0  0  0  3  0  0  0  0  0  0
  -16.6050  -28.3430   23.1290 C   0  0  0  0  0  3  0  0  0  0  0  0
  -25.8260  -32.2910   23.5290 C   0  0  0  0  0  3  0  0  0  0  0  0
  -26.4520  -31.4270   24.6910 C   0  0  1  0  0  0  0  0  0  0  0  0
  -25.4560  -31.1010   25.8270 C   0  0  0  0  0  1  0  0  0  0  0  0
  -27.0010  -30.0880   24.1490 C   0  0  0  0  0  1  0  0  0  0  0  0
  -27.6560  -32.1750   25.3090 C   0  0  0  0  0  1  0  0  0  0  0  0
  -25.5340  -33.6550   23.9980 N   0  0  0  0  0  0  0  0  0  0  0  0
  -25.8640  -34.7750   23.3420 C   0  0  0  0  0  0  0  0  0  0  0  0
  -26.5150  -34.7680   22.2930 O   0  0  0  0  0  0  0  0  0  0  0  0
  -24.9680  -33.7390   24.8290 H   0  0  0  0  0  0  0  0  0  0  0  0
  -24.1790  -36.6330   23.1600 C   0  0  0  0  0  1  0  0  0  0  0  0
  -25.3990  -36.1160   23.9420 C   0  0  0  0  0  3  0  0  0  0  0  0
  -27.5350  -36.8600   24.8970 C   0  0  0  0  0  1  0  0  0  0  0  0
  -26.4530  -37.1530   23.9600 N   0  0  0  0  0  0  0  0  0  0  0  0
  -26.0610  -38.0610   24.1960 H   0  0  0  0  0  0  0  0  0  0  0  0
  -29.8910  -19.0600   20.0910 C   0  0  0  0  0  2  0  0  0  0  0  0
  -29.9270  -17.5980   20.9060 C   0  0  0  0  0  2  0  0  0  0  0  0
  -30.5190  -14.9900   20.2580 C   0  0  0  0  0  0  0  0  0  0  0  0
  -30.3880  -12.6660   19.2740 C   0  0  0  0  0  2  0  0  0  0  0  0
  -29.4160  -12.6220   18.0720 C   0  0  0  0  0  2  0  0  0  0  0  0
  -27.9650  -12.4070   18.5460 C   0  0  0  0  0  2  0  0  0  0  0  0
  -27.5830  -13.3350   19.7290 C   0  0  0  0  0  3  0  0  0  0  0  0
  -28.6650  -13.3350   20.8280 C   0  0  0  0  0  2  0  0  0  0  0  0
  -29.9210  -13.7420   20.1840 N   0  0  0  0  0  0  0  0  0  0  0  0
  -31.7280  -15.0830   20.0280 O   0  0  0  0  0  0  0  0  0  0  0  0
  -29.7070  -16.1350   20.3850 N   0  0  0  0  0  0  0  0  0  0  0  0
  -28.7320  -15.8790   20.3600 H   0  0  0  0  0  0  0  0  0  0  0  0
  -25.2190  -13.9060   20.5330 C   0  0  0  0  0  0  0  0  0  0  0  0
  -24.1640  -13.1270   20.9200 C   0  0  0  0  0  0  0  0  0  0  0  0
  -24.6290  -11.7780   20.8590 C   0  0  0  0  0  0  0  0  0  0  0  0
  -26.2560  -13.0330   20.2570 N   0  0  0  0  0  0  0  0  0  0  0  0
  -25.9120  -11.7470   20.5180 N   0  0  0  0  0  0  0  0  0  0  0  0
  -23.9070  -10.5110   21.0430 C   0  0  0  0  0  0  0  0  0  0  0  0
  -24.3390   -9.5450   21.9780 C   0  0  0  0  0  3  0  0  0  0  0  0
  -23.6180   -8.3440   22.1510 C   0  0  0  0  0  3  0  0  0  0  0  0
  -22.4500   -8.1020   21.3880 C   0  0  0  0  0  0  0  0  0  0  0  0
  -22.0400   -9.0560   20.4400 C   0  0  0  0  0  3  0  0  0  0  0  0
  -22.7630  -10.2480   20.2650 C   0  0  0  0  0  3  0  0  0  0  0  0
  -21.7000   -6.9540   21.4710 O   0  0  0  0  0  0  0  0  0  0  0  0
  -21.6110   -6.2350   22.6360 C   0  0  0  0  0  0  0  0  0  0  0  0
  -21.1010   -6.8010   23.8250 C   0  0  0  0  0  3  0  0  0  0  0  0
  -20.9640   -6.0050   24.9810 C   0  0  0  0  0  3  0  0  0  0  0  0
  -21.3270   -4.6460   24.9470 C   0  0  0  0  0  0  0  0  0  0  0  0
  -21.8290   -4.0800   23.7620 C   0  0  0  0  0  3  0  0  0  0  0  0
  -21.9680   -4.8710   22.6100 C   0  0  0  0  0  0  0  0  0  0  0  0
  -22.4340   -4.3160   21.4640 F   0  0  0  0  0  0  0  0  0  0  0  0
  -21.1870   -3.8790   26.0540 F   0  0  0  0  0  0  0  0  0  0  0  0
  -22.7720  -13.5980   21.2260 C   0  0  0  0  0  0  0  0  0  0  0  0
  -22.0620  -12.8860   22.0930 N   0  0  0  0  0  0  0  0  0  0  0  0
  -22.3250  -14.6310   20.7310 O   0  0  0  0  0  0  0  0  0  0  0  0
  -22.4380  -12.0490   22.5130 H   0  0  0  0  0  0  0  0  0  0  0  0
  -21.1260  -13.1810   22.3400 H   0  0  0  0  0  0  0  0  0  0  0  0
  -25.3740  -15.2790   20.3670 N   0  0  0  0  0  0  0  0  0  0  0  0
  -24.5960  -15.9190   20.4760 H   0  0  0  0  0  0  0  0  0  0  0  0
  -26.1810  -15.7060   19.9310 H   0  0  0  0  0  0  0  0  0  0  0  0
  -30.2760  -25.0600   20.6330 C   0  0  0  0  0  2  0  0  0  0  0  0
  -31.3590  -24.6680   21.5580 N   0  0  0  0  0  4  0  0  0  0  0  0
  -31.0000  -24.4530   22.4720 H   0  0  0  0  0  0  0  0  0  0  0  0
  -31.9940  -25.4410   21.6630 H   0  0  0  0  0  0  0  0  0  0  0  0
  -31.8880  -23.8870   21.2170 H   0  0  0  0  0  0  0  0  0  0  0  0
  1 52  1  0
  1  8  1  0
  2  3  1  0
  2  6  1  0
  3  7  1  0
  4  5  1  0
  5 92  1  0
  6 11  1  0
  6  5  1  0
  7  4  1  0
  7  1  1  0
  8 10  1  0
  8  9  1  0
 11 13  1  0
 12 23  2  0
 13 18  1  0
 14 22  1  0
 14 24  1  0
 15 21  1  0
 15 17  1  0
 16 22  1  0
 17 16  1  0
 18 17  2  0
 19 20  1  0
 19 13  2  0
 20 15  2  0
 21 14  1  0
 22 12  1  0
 24 26  2  0
 25 24  1  0
 27 25  1  0
 28 37  2  0
 28 33  1  0
 29 25  1  0
 29 33  1  0
 30 29  1  0
 31 32  1  0
 31 30  1  0
 32 28  1  0
 33 34  2  0
 34 35  1  0
 36 35  2  0
 37 36  1  0
 38 12  1  0
 38 43  1  0
 38 39  1  0
 39 42  1  1
 39 40  1  0
 41 39  1  0
 43 46  1  0
 44 48  1  0
 44 43  1  0
 45 44  2  0
 48 47  1  0
 48 50  1  0
 50 51  1  0
 50 49  1  0
 52 53  1  0
 54 62  1  0
 55 60  1  0
 56 57  1  0
 56 55  1  0
 58 57  1  0
 58 67  1  0
 58 59  1  0
 60 54  1  0
 60 59  1  0
 61 54  2  0
 62 53  1  0
 63 62  1  0
 64 65  2  0
 65 84  1  0
 66 65  1  0
 66 69  1  0
 67 68  1  0
 67 64  1  0
 68 66  2  0
 69 70  1  0
 70 71  2  0
 72 75  1  0
 72 71  1  0
 73 72  2  0
 74 73  1  0
 74 69  2  0
 75 76  1  0
 76 77  1  0
 77 78  2  0
 79 78  1  0
 79 83  1  0
 80 79  2  0
 81 76  2  0
 81 80  1  0
 82 81  1  0
 84 85  1  0
 85 88  1  0
 85 87  1  0
 86 84  2  0
 89 90  1  0
 89 64  1  0
 91 89  1  0
 92 93  1  0
 93 95  1  0
 93 94  1  0
 96 93  1  0
M  ISO  4   6 101  11 101  54 100  62 100
M  END
>  <TORSDO>  (72) 
F 20

>  <SCORE>  (72) 
-13.827

>  <name>  (72) 
75

>  <ligand_id>  (72) 
75

>  <original_smiles>  (72) 
[H]c1c([H])c([H])c2c(c1[H])C([H])([H])C([H])([H])C([H])([H])C2([H])N([H])C(=O)C1([H])N(C(=O)C([H])(N([H])C(=O)C([H])(N([H])C([H])([H])[H])C([H])([H])[H])C(C([H])([H])[H])(C([H])([H])[H])C([H])([H])[H])C([H])([H])c2c([H])c(OC3([H])C([H])([H])C([H])([H])N(C(=[N+]([H])[H])C([H])([H])C([H])([H])N([H])C(=O)N4C([H])([H])C([H])([H])C([H])([H])C([H])(n5nc(-c6c([H])c([H])c(Oc7c([H])c([H])c(F)c([H])c7F)c([H])c6[H])c(C(=O)N([H])[H])c5N([H])[H])C4([H])[H])C([H])([H])C3([H])C([H])([H])[N+]([H])([H])[H])c([H])c([H])c2C1([H])[H]

>  <smiles>  (72) 
[H]c1c([H])c([H])c2c(c1[H])C([H])([H])C([H])([H])C([H])([H])C2([H])N([H])C(=O)C1([H])N(C(=O)C([H])(N([H])C(=O)C([H])(N([H])C([H])([H])[H])C([H])([H])[H])C(C([H])([H])[H])(C([H])([H])[H])C([H])([H])[H])C([H])([H])c2c([H])c(OC3([H])C([H])([H])C([H])([H])N(C(=[N+]([H])[H])C([H])([H])C([H])([H])N([H])C(=O)N4C([H])([H])C([H])([H])C([H])([H])C([H])(n5nc(-c6c([H])c([H])c(Oc7c([H])c([H])c(F)c([H])c7F)c([H])c6[H])c(C(=O)N([H])[H])c5N([H])[H])C4([H])[H])C([H])([H])C3([H])C([H])([H])[N+]([H])([H])[H])c([H])c([H])c2C1([H])[H]

$$$$
76:0:0
     RDKit          3D

 98106  0  0  1  0  0  0  0  0999 V2000
  -31.5520  -18.4490   20.1050 C   0  0  0  0  0  2  0  0  0  0  0  0
  -30.7080  -19.7750   20.0690 C   0  0  0  0  0  2  0  0  0  0  0  0
  -30.5400  -17.9620   22.4540 C   0  0  0  0  0  2  0  0  0  0  0  0
  -31.1750  -17.3360   21.1440 C   0  0  0  0  0  3  0  0  0  0  0  0
  -29.9260  -20.1320   21.3610 C   0  0  0  0  0  3  0  0  0  0  0  0
  -30.5580  -19.4690   22.5330 N   0  0  0  0  0  4  0  0  0  0  0  0
  -31.5010  -19.8060   22.6330 H   0  0  0  0  0  0  0  0  0  0  0  0
  -30.0600  -19.7510   23.3630 H   0  0  0  0  0  0  0  0  0  0  0  0
  -31.1070  -14.8790   20.2500 C   0  0  0  0  0  0  0  0  0  0  0  0
  -30.7440  -12.7470   18.9830 C   0  0  0  0  0  2  0  0  0  0  0  0
  -29.7330  -12.9060   17.8310 C   0  0  0  0  0  2  0  0  0  0  0  0
  -28.2870  -12.7060   18.3350 C   0  0  0  0  0  2  0  0  0  0  0  0
  -27.9980  -13.4490   19.6600 C   0  0  0  0  0  3  0  0  0  0  0  0
  -29.1370  -13.2960   20.6950 C   0  0  0  0  0  2  0  0  0  0  0  0
  -30.3830  -13.7180   20.0410 N   0  0  0  0  0  0  0  0  0  0  0  0
  -32.3120  -14.8760   19.9860 O   0  0  0  0  0  0  0  0  0  0  0  0
  -30.4820  -16.0940   20.5900 N   0  0  0  0  0  0  0  0  0  0  0  0
  -25.6510  -14.0320   20.5210 C   0  0  0  0  0  0  0  0  0  0  0  0
  -24.6030  -13.2390   20.8970 C   0  0  0  0  0  0  0  0  0  0  0  0
  -25.0770  -11.8970   20.8040 C   0  0  0  0  0  0  0  0  0  0  0  0
  -26.6890  -13.1600   20.2170 N   0  0  0  0  0  0  0  0  0  0  0  0
  -26.3550  -11.8740   20.4570 N   0  0  0  0  0  0  0  0  0  0  0  0
  -24.3740  -10.6240   20.9680 C   0  0  0  0  0  0  0  0  0  0  0  0
  -24.7100   -9.7300   22.0080 C   0  0  0  0  0  3  0  0  0  0  0  0
  -24.0080   -8.5160   22.1570 C   0  0  0  0  0  3  0  0  0  0  0  0
  -22.9610   -8.1910   21.2640 C   0  0  0  0  0  0  0  0  0  0  0  0
  -22.6470   -9.0750   20.2170 C   0  0  0  0  0  3  0  0  0  0  0  0
  -23.3480  -10.2800   20.0660 C   0  0  0  0  0  3  0  0  0  0  0  0
  -22.2400   -7.0230   21.3170 O   0  0  0  0  0  0  0  0  0  0  0  0
  -21.8690   -6.4630   22.5120 C   0  0  0  0  0  0  0  0  0  0  0  0
  -21.0470   -7.1500   23.4330 C   0  0  0  0  0  3  0  0  0  0  0  0
  -20.6320   -6.5100   24.6170 C   0  0  0  0  0  3  0  0  0  0  0  0
  -21.0280   -5.1860   24.8800 C   0  0  0  0  0  0  0  0  0  0  0  0
  -21.8410   -4.4980   23.9600 C   0  0  0  0  0  3  0  0  0  0  0  0
  -22.2580   -5.1360   22.7780 C   0  0  0  0  0  0  0  0  0  0  0  0
  -23.0250   -4.4640   21.8860 F   0  0  0  0  0  0  0  0  0  0  0  0
  -20.6230   -4.5680   26.0130 F   0  0  0  0  0  0  0  0  0  0  0  0
  -23.2170  -13.6980   21.2420 C   0  0  0  0  0  0  0  0  0  0  0  0
  -22.5480  -12.9960   22.1500 N   0  0  0  0  0  0  0  0  0  0  0  0
  -22.7410  -14.7180   20.7440 O   0  0  0  0  0  0  0  0  0  0  0  0
  -22.9480  -12.1730   22.5770 H   0  0  0  0  0  0  0  0  0  0  0  0
  -21.6200  -13.2850   22.4240 H   0  0  0  0  0  0  0  0  0  0  0  0
  -25.7950  -15.4110   20.3880 N   0  0  0  0  0  0  0  0  0  0  0  0
  -24.9760  -15.8840   20.7600 H   0  0  0  0  0  0  0  0  0  0  0  0
  -26.6020  -15.7230   20.9170 H   0  0  0  0  0  0  0  0  0  0  0  0
  -29.1450  -16.5240   20.1200 C   0  0  0  0  0  2  0  0  0  0  0  0
  -29.0870  -17.0860   18.6740 C   0  0  0  0  0  2  0  0  0  0  0  0
  -28.0630  -18.2310   18.4760 C   0  0  0  0  0  2  0  0  0  0  0  0
  -26.6860  -17.8850   18.8770 N   0  0  0  0  0  4  0  0  0  0  0  0
  -26.0930  -18.6850   18.7440 H   0  0  0  0  0  0  0  0  0  0  0  0
  -26.6200  -17.6300   19.8620 H   0  0  0  0  0  0  0  0  0  0  0  0
  -26.3170  -17.1400   18.3130 H   0  0  0  0  0  0  0  0  0  0  0  0
  -29.3740  -21.6310   21.5320 C   0  0  0  0  0  2  0  0  0  0  0  0
  -30.2840  -22.7790   21.7910 N   0  0  0  0  0  0  0  0  0  0  0  0
  -31.2030  -22.5130   21.4420 H   0  0  0  0  0  0  0  0  0  0  0  0
  -29.9420  -24.0760   21.1100 C   0  0  0  0  0  2  0  0  0  0  0  0
  -29.0960  -25.1860   21.8670 C   0  0  0  0  0  2  0  0  0  0  0  0
  -29.1960  -26.5610   21.3370 O   0  0  0  0  0  0  0  0  0  0  0  0
  -24.8830  -31.9100   23.4990 C   0  0  0  0  0  0  0  0  0  0  0  0
  -28.0270  -27.3010   21.1470 C   0  0  0  0  0  0  0  0  0  0  0  0
  -23.9340  -30.3340   21.8500 C   0  0  0  0  0  3  0  0  0  0  0  0
  -25.6050  -28.7510   20.7340 C   0  0  0  0  0  0  0  0  0  0  0  0
  -26.4570  -30.7770   21.9170 C   0  0  0  0  0  2  0  0  0  0  0  0
  -26.6710  -29.3590   21.4060 C   0  0  0  0  0  0  0  0  0  0  0  0
  -27.8900  -28.6480   21.5950 C   0  0  0  0  0  3  0  0  0  0  0  0
  -26.9400  -26.7270   20.4530 C   0  0  0  0  0  3  0  0  0  0  0  0
  -25.7390  -27.4380   20.2470 C   0  0  0  0  0  3  0  0  0  0  0  0
  -24.3330  -29.5590   20.5660 C   0  0  0  0  0  2  0  0  0  0  0  0
  -25.1030  -31.0290   22.4810 N   0  0  0  0  0  0  0  0  0  0  0  0
  -23.7340  -32.1710   23.8880 O   0  0  0  0  0  0  0  0  0  0  0  0
  -23.2060  -29.3640   22.8110 C   0  0  0  0  0  0  0  0  0  0  0  0
  -21.9070  -29.1310   22.5620 N   0  0  0  0  0  0  0  0  0  0  0  0
  -23.8140  -28.8190   23.7360 O   0  0  0  0  0  0  0  0  0  0  0  0
  -21.4760  -29.6200   21.7890 H   0  0  0  0  0  0  0  0  0  0  0  0
  -18.5150  -27.9110   22.8420 C   0  0  0  0  0  0  0  0  0  0  0  0
  -21.0380  -28.2210   23.3080 C   0  0  0  0  0  3  0  0  0  0  0  0
  -21.2030  -26.7640   22.8130 C   0  0  0  0  0  2  0  0  0  0  0  0
  -20.1900  -26.3770   21.7300 C   0  0  0  0  0  2  0  0  0  0  0  0
  -18.7590  -26.5340   22.2500 C   0  0  0  0  0  2  0  0  0  0  0  0
  -19.5860  -28.7100   23.3230 C   0  0  0  0  0  0  0  0  0  0  0  0
  -19.3040  -29.9960   23.8300 C   0  0  0  0  0  3  0  0  0  0  0  0
  -17.9840  -30.4850   23.8650 C   0  0  0  0  0  3  0  0  0  0  0  0
  -16.9260  -29.6830   23.4000 C   0  0  0  0  0  3  0  0  0  0  0  0
  -17.1920  -28.3990   22.8930 C   0  0  0  0  0  3  0  0  0  0  0  0
  -26.0570  -32.6480   24.2130 C   0  0  0  0  0  3  0  0  0  0  0  0
  -26.4630  -31.9870   25.5880 C   0  0  1  0  0  0  0  0  0  0  0  0
  -25.2640  -31.7170   26.5280 C   0  0  0  0  0  1  0  0  0  0  0  0
  -27.1850  -30.6420   25.3510 C   0  0  0  0  0  1  0  0  0  0  0  0
  -27.4630  -32.9010   26.3330 C   0  0  0  0  0  1  0  0  0  0  0  0
  -25.6480  -34.0470   24.4110 N   0  0  0  0  0  0  0  0  0  0  0  0
  -25.9880  -35.0600   23.6040 C   0  0  0  0  0  0  0  0  0  0  0  0
  -26.7470  -34.9210   22.6400 O   0  0  0  0  0  0  0  0  0  0  0  0
  -24.9830  -34.2220   25.1510 H   0  0  0  0  0  0  0  0  0  0  0  0
  -24.1900  -36.7090   22.9950 C   0  0  0  0  0  1  0  0  0  0  0  0
  -25.3940  -36.4470   23.9140 C   0  0  0  0  0  3  0  0  0  0  0  0
  -27.4090  -37.5310   24.8050 C   0  0  0  0  0  1  0  0  0  0  0  0
  -26.3700  -37.5500   23.7780 N   0  0  0  0  0  0  0  0  0  0  0  0
  -25.9040  -38.4520   23.8160 H   0  0  0  0  0  0  0  0  0  0  0  0
  1  4  1  0
  2  1  1  0
  2  5  1  0
  3  6  1  0
  4 17  1  0
  4  3  1  0
  5 53  1  0
  5  6  1  0
  6  7  1  0
  6  8  1  0
  9 17  1  0
 10 15  1  0
 11 12  1  0
 11 10  1  0
 13 12  1  0
 13 21  1  0
 13 14  1  0
 15  9  1  0
 15 14  1  0
 16  9  2  0
 18 19  2  0
 19 38  1  0
 20 19  1  0
 20 23  1  0
 21 22  1  0
 21 18  1  0
 22 20  2  0
 23 24  1  0
 24 25  2  0
 26 29  1  0
 26 25  1  0
 27 26  2  0
 28 27  1  0
 28 23  2  0
 29 30  1  0
 30 35  2  0
 30 31  1  0
 31 32  2  0
 32 33  1  0
 33 37  1  0
 34 33  2  0
 35 34  1  0
 36 35  1  0
 38 39  1  0
 39 42  1  0
 39 41  1  0
 40 38  2  0
 43 18  1  0
 43 44  1  0
 43 45  1  0
 46 17  1  0
 47 46  1  0
 48 47  1  0
 48 49  1  0
 49 51  1  0
 50 49  1  0
 52 49  1  0
 53 54  1  0
 55 54  1  0
 56 54  1  0
 56 57  1  0
 58 57  1  0
 59 70  2  0
 60 58  1  0
 60 65  1  0
 61 69  1  0
 61 71  1  0
 62 64  1  0
 63 69  1  0
 64 65  2  0
 64 63  1  0
 66 60  2  0
 67 66  1  0
 67 62  2  0
 68 62  1  0
 68 61  1  0
 69 59  1  0
 71 73  2  0
 72 71  1  0
 74 72  1  0
 75 84  2  0
 75 80  1  0
 76 72  1  0
 76 80  1  0
 77 76  1  0
 78 79  1  0
 78 77  1  0
 79 75  1  0
 80 81  2  0
 81 82  1  0
 83 82  2  0
 84 83  1  0
 85 59  1  0
 85 90  1  0
 85 86  1  0
 86 89  1  1
 86 87  1  0
 88 86  1  0
 90 93  1  0
 91 95  1  0
 91 90  1  0
 92 91  2  0
 95 94  1  0
 97 98  1  0
 97 95  1  0
 97 96  1  0
M  ISO  4   9 100  17 100  57 101  58 101
M  END
>  <TORSDO>  (73) 
F 24

>  <SCORE>  (73) 
-11.120

>  <name>  (73) 
76

>  <ligand_id>  (73) 
76

>  <original_smiles>  (73) 
[H]c1c([H])c([H])c2c(c1[H])C([H])([H])C([H])([H])C([H])([H])C2([H])N([H])C(=O)C1([H])N(C(=O)C([H])(N([H])C(=O)C([H])(N([H])C([H])([H])[H])C([H])([H])[H])C(C([H])([H])[H])(C([H])([H])[H])C([H])([H])[H])C([H])([H])c2c([H])c(OC([H])([H])C([H])([H])N([H])C([H])([H])C3([H])C([H])([H])C([H])([H])C([H])(N(C(=O)N4C([H])([H])C([H])([H])C([H])([H])C([H])(n5nc(-c6c([H])c([H])c(Oc7c([H])c([H])c(F)c([H])c7F)c([H])c6[H])c(C(=O)N([H])[H])c5N([H])[H])C4([H])[H])C([H])([H])C([H])([H])C([H])([H])[N+]([H])([H])[H])C([H])([H])[N+]3([H])[H])c([H])c([H])c2C1([H])[H]

>  <smiles>  (73) 
[H]c1c([H])c([H])c2c(c1[H])C([H])([H])C([H])([H])C([H])([H])C2([H])N([H])C(=O)C1([H])N(C(=O)C([H])(N([H])C(=O)C([H])(N([H])C([H])([H])[H])C([H])([H])[H])C(C([H])([H])[H])(C([H])([H])[H])C([H])([H])[H])C([H])([H])c2c([H])c(OC([H])([H])C([H])([H])N([H])C([H])([H])C3([H])C([H])([H])C([H])([H])C([H])(N(C(=O)N4C([H])([H])C([H])([H])C([H])([H])C([H])(n5nc(-c6c([H])c([H])c(Oc7c([H])c([H])c(F)c([H])c7F)c([H])c6[H])c(C(=O)N([H])[H])c5N([H])[H])C4([H])[H])C([H])([H])C([H])([H])C([H])([H])[N+]([H])([H])[H])C([H])([H])[N+]3([H])[H])c([H])c([H])c2C1([H])[H]

$$$$
77:0:0
     RDKit          3D

108117  0  0  1  0  0  0  0  0999 V2000
  -25.4240  -21.4680   17.6760 C   0  0  0  0  0  2  0  0  0  0  0  0
  -26.2370  -20.6170   18.6550 C   0  0  0  0  0  2  0  0  0  0  0  0
  -28.5120  -19.7190   18.1450 C   0  0  0  0  0  2  0  0  0  0  0  0
  -28.1820  -21.3540   20.1580 C   0  0  0  0  0  2  0  0  0  0  0  0
  -25.6000  -22.8840   18.2240 C   0  0  0  0  0  2  0  0  0  0  0  0
  -29.9410  -19.4960   18.6970 C   0  0  0  0  0  2  0  0  0  0  0  0
  -29.6830  -21.1640   20.4270 C   0  0  0  0  0  2  0  0  0  0  0  0
  -28.0000  -22.2740   17.8210 C   0  0  0  0  0  2  0  0  0  0  0  0
  -27.7550  -20.9950   18.6860 C   0  0  2  0  0  0  0  0  0  0  0  0
  -27.0430  -23.3490   18.2440 N   0  0  1  0  0  4  0  0  0  0  0  0
  -29.9260  -19.7430   20.1640 N   0  0  2  0  0  4  0  0  0  0  0  0
  -27.2690  -23.5540   19.2130 H   0  0  0  0  0  0  0  0  0  0  0  0
  -29.0240  -19.3560   20.3880 H   0  0  0  0  0  0  0  0  0  0  0  0
  -27.1640  -24.6280   17.5120 C   0  0  0  0  0  2  0  0  0  0  0  0
  -28.5340  -25.3420   17.2510 C   0  0  0  0  0  2  0  0  0  0  0  0
  -28.4740  -26.7860   17.0090 O   0  0  0  0  0  0  0  0  0  0  0  0
  -24.7140  -28.6290   22.8330 C   0  0  0  0  0  0  0  0  0  0  0  0
  -27.4470  -27.5410   17.5570 C   0  0  0  0  0  0  0  0  0  0  0  0
  -23.6500  -29.0570   20.6450 C   0  0  0  0  0  3  0  0  0  0  0  0
  -25.2010  -28.9010   18.6230 C   0  0  0  0  0  0  0  0  0  0  0  0
  -26.2050  -29.0220   20.8900 C   0  0  0  0  0  2  0  0  0  0  0  0
  -26.2850  -28.5750   19.4490 C   0  0  0  0  0  0  0  0  0  0  0  0
  -27.4000  -27.8560   18.9360 C   0  0  0  0  0  3  0  0  0  0  0  0
  -26.4110  -28.0390   16.7340 C   0  0  0  0  0  3  0  0  0  0  0  0
  -25.2550  -28.6140   17.2620 C   0  0  0  0  0  3  0  0  0  0  0  0
  -24.0080  -29.6000   19.2350 C   0  0  0  0  0  2  0  0  0  0  0  0
  -24.8650  -28.8640   21.5060 N   0  0  0  0  0  0  0  0  0  0  0  0
  -23.5930  -28.5970   23.3560 O   0  0  0  0  0  0  0  0  0  0  0  0
  -22.7900  -27.7920   20.4940 C   0  0  0  0  0  0  0  0  0  0  0  0
  -21.4920  -27.9610   20.1760 N   0  0  0  0  0  0  0  0  0  0  0  0
  -23.2910  -26.6720   20.6270 O   0  0  0  0  0  0  0  0  0  0  0  0
  -21.1360  -28.8970   20.0330 H   0  0  0  0  0  0  0  0  0  0  0  0
  -17.9640  -27.2350   20.2180 C   0  0  0  0  0  0  0  0  0  0  0  0
  -20.5160  -26.8920   19.9850 C   0  0  0  0  0  3  0  0  0  0  0  0
  -20.2650  -26.5740   18.4970 C   0  0  0  0  0  2  0  0  0  0  0  0
  -19.0630  -27.3220   17.8960 C   0  0  0  0  0  2  0  0  0  0  0  0
  -17.7800  -27.1300   18.7120 C   0  0  0  0  0  2  0  0  0  0  0  0
  -19.2510  -27.1570   20.8050 C   0  0  0  0  0  0  0  0  0  0  0  0
  -19.3970  -27.3500   22.1950 C   0  0  0  0  0  3  0  0  0  0  0  0
  -18.2890  -27.5870   23.0220 C   0  0  0  0  0  3  0  0  0  0  0  0
  -17.0110  -27.6290   22.4520 C   0  0  0  0  0  3  0  0  0  0  0  0
  -16.8430  -27.4330   21.0620 C   0  0  0  0  0  3  0  0  0  0  0  0
  -25.9460  -28.4010   23.7610 C   0  0  0  0  0  3  0  0  0  0  0  0
  -26.0650  -26.9130   24.2590 C   0  0  1  0  0  0  0  0  0  0  0  0
  -25.2230  -26.6040   25.5190 C   0  0  0  0  0  1  0  0  0  0  0  0
  -25.6410  -25.9230   23.1490 C   0  0  0  0  0  1  0  0  0  0  0  0
  -27.5410  -26.5990   24.5820 C   0  0  0  0  0  1  0  0  0  0  0  0
  -25.8150  -29.3260   24.8880 N   0  0  0  0  0  0  0  0  0  0  0  0
  -26.7390  -30.2270   25.2490 C   0  0  0  0  0  0  0  0  0  0  0  0
  -27.8390  -30.3240   24.6940 O   0  0  0  0  0  0  0  0  0  0  0  0
  -24.9180  -29.3540   25.3500 H   0  0  0  0  0  0  0  0  0  0  0  0
  -26.3910  -32.6350   25.8950 C   0  0  0  0  0  1  0  0  0  0  0  0
  -26.3860  -31.1850   26.4070 C   0  0  0  0  0  3  0  0  0  0  0  0
  -27.1210  -29.8120   28.3040 C   0  0  0  0  0  1  0  0  0  0  0  0
  -27.2950  -31.0610   27.5700 N   0  0  0  0  0  0  0  0  0  0  0  0
  -27.1680  -31.8380   28.2120 H   0  0  0  0  0  0  0  0  0  0  0  0
  -30.7030  -18.9470   21.1760 C   0  0  0  0  0  3  0  0  0  0  0  0
  -31.9850  -19.7350   21.6160 C   0  0  0  0  0  2  0  0  0  0  0  0
  -34.4530  -19.9780   21.5320 C   0  0  0  0  0  0  0  0  0  0  0  0
  -36.1030  -21.4170   20.3600 C   0  0  0  0  0  2  0  0  0  0  0  0
  -35.4370  -22.7650   19.9980 C   0  0  0  0  0  2  0  0  0  0  0  0
  -34.5960  -22.6610   18.7040 C   0  0  0  0  0  2  0  0  0  0  0  0
  -33.6410  -21.4420   18.7180 C   0  0  0  0  0  3  0  0  0  0  0  0
  -34.4670  -20.1860   19.0520 C   0  0  0  0  0  2  0  0  0  0  0  0
  -35.0680  -20.3700   20.3850 N   0  0  0  0  0  0  0  0  0  0  0  0
  -34.8590  -20.3370   22.6560 O   0  0  0  0  0  0  0  0  0  0  0  0
  -33.3390  -19.2380   21.3150 N   0  0  0  0  0  0  0  0  0  0  0  0
  -33.3900  -18.8520   20.3810 H   0  0  0  0  0  0  0  0  0  0  0  0
  -31.8850  -22.0180   16.9200 C   0  0  0  0  0  0  0  0  0  0  0  0
  -31.5960  -21.4350   15.7100 C   0  0  0  0  0  0  0  0  0  0  0  0
  -32.5470  -20.3900   15.5490 C   0  0  0  0  0  0  0  0  0  0  0  0
  -32.9210  -21.2700   17.4580 N   0  0  0  0  0  0  0  0  0  0  0  0
  -33.3040  -20.2770   16.6300 N   0  0  0  0  0  0  0  0  0  0  0  0
  -32.8470  -19.5560   14.3810 C   0  0  0  0  0  0  0  0  0  0  0  0
  -32.3280  -18.2530   14.2580 C   0  0  0  0  0  3  0  0  0  0  0  0
  -32.6300  -17.4720   13.1170 C   0  0  0  0  0  3  0  0  0  0  0  0
  -33.4480  -17.9970   12.0940 C   0  0  0  0  0  0  0  0  0  0  0  0
  -33.9950  -19.2930   12.2390 C   0  0  0  0  0  3  0  0  0  0  0  0
  -33.6950  -20.0610   13.3710 C   0  0  0  0  0  3  0  0  0  0  0  0
  -33.8080  -17.3010   10.9670 O   0  0  0  0  0  0  0  0  0  0  0  0
  -32.8680  -16.6910   10.1650 C   0  0  0  0  0  0  0  0  0  0  0  0
  -31.8980  -17.4270    9.4590 C   0  0  0  0  0  3  0  0  0  0  0  0
  -30.9860  -16.7660    8.6040 C   0  0  0  0  0  3  0  0  0  0  0  0
  -31.0620  -15.3720    8.4490 C   0  0  0  0  0  0  0  0  0  0  0  0
  -32.0340  -14.6310    9.1430 C   0  0  0  0  0  3  0  0  0  0  0  0
  -32.9360  -15.2880   10.0000 C   0  0  0  0  0  0  0  0  0  0  0  0
  -33.8810  -14.5740   10.6520 F   0  0  0  0  0  0  0  0  0  0  0  0
  -30.1950  -14.7410    7.6250 F   0  0  0  0  0  0  0  0  0  0  0  0
  -30.5810  -21.9080   14.7170 C   0  0  0  0  0  0  0  0  0  0  0  0
  -30.0170  -20.9990   13.9210 N   0  0  0  0  0  0  0  0  0  0  0  0
  -30.2410  -23.0910   14.6810 O   0  0  0  0  0  0  0  0  0  0  0  0
  -30.2780  -20.0210   13.9670 H   0  0  0  0  0  0  0  0  0  0  0  0
  -29.2990  -21.2760   13.2590 H   0  0  0  0  0  0  0  0  0  0  0  0
  -31.3860  -23.1300   17.5640 N   0  0  0  0  0  0  0  0  0  0  0  0
  -30.9940  -23.7590   16.8660 H   0  0  0  0  0  0  0  0  0  0  0  0
  -32.0890  -23.6440   18.0870 H   0  0  0  0  0  0  0  0  0  0  0  0
  -30.7990  -17.4810   20.5420 C   0  0  0  0  0  3  0  0  0  0  0  0
  -32.0180  -17.2490   19.5940 C   0  0  0  0  0  2  0  0  0  0  0  0
  -31.9350  -16.1070   18.5190 C   0  0  0  0  0  2  0  0  0  0  0  0
  -31.8520  -16.5440   17.1030 N   0  0  0  0  0  4  0  0  0  0  0  0
  -31.0750  -17.1560   16.9240 H   0  0  0  0  0  0  0  0  0  0  0  0
  -31.7030  -15.7390   16.5210 H   0  0  0  0  0  0  0  0  0  0  0  0
  -32.7110  -16.9470   16.7730 H   0  0  0  0  0  0  0  0  0  0  0  0
  -30.3150  -16.2340   21.3720 C   0  0  0  0  0  2  0  0  0  0  0  0
  -31.3040  -15.1780   21.7100 N   0  0  0  0  0  4  0  0  0  0  0  0
  -31.8050  -14.8370   20.9050 H   0  0  0  0  0  0  0  0  0  0  0  0
  -30.8020  -14.3730   22.0690 H   0  0  0  0  0  0  0  0  0  0  0  0
  -31.9410  -15.4400   22.4430 H   0  0  0  0  0  0  0  0  0  0  0  0
  1  5  1  0
  1  2  1  0
  9  2  1  1
  3  9  1  0
  3  6  1  0
  4  7  1  0
  5 10  1  0
  6 11  1  0
  8 10  1  0
  9  8  1  0
  9  4  1  0
 10 12  1  1
 11 13  1  1
 11  7  1  0
 11 57  1  0
 14 10  1  0
 15 14  1  0
 16 15  1  0
 16 18  1  0
 17 28  2  0
 18 23  1  0
 19 29  1  0
 19 27  1  0
 20 26  1  0
 20 22  1  0
 21 27  1  0
 22 21  1  0
 23 22  2  0
 24 25  1  0
 24 18  2  0
 25 20  2  0
 26 19  1  0
 27 17  1  0
 29 31  2  0
 30 29  1  0
 32 30  1  0
 33 38  2  0
 33 42  1  0
 34 30  1  0
 34 38  1  0
 35 34  1  0
 36 35  1  0
 36 37  1  0
 37 33  1  0
 38 39  1  0
 39 40  2  0
 41 40  1  0
 42 41  2  0
 43 17  1  0
 43 44  1  0
 43 48  1  0
 44 47  1  1
 44 45  1  0
 46 44  1  0
 48 49  1  0
 48 51  1  0
 49 53  1  0
 50 49  2  0
 53 52  1  0
 53 55  1  0
 55 56  1  0
 55 54  1  0
 57 58  1  0
 59 66  2  0
 60 65  1  0
 61 60  1  0
 62 63  1  0
 62 61  1  0
 63 72  1  0
 63 64  1  0
 64 65  1  0
 65 59  1  0
 67 59  1  0
 67 58  1  0
 68 67  1  0
 69 72  1  0
 69 94  1  0
 70 69  2  0
 71 70  1  0
 71 73  2  0
 73 72  1  0
 74 71  1  0
 75 74  1  0
 76 75  2  0
 77 78  2  0
 77 76  1  0
 78 79  1  0
 79 74  2  0
 80 77  1  0
 81 80  1  0
 82 81  2  0
 83 82  1  0
 84 83  2  0
 84 85  1  0
 85 86  2  0
 86 81  1  0
 86 87  1  0
 88 84  1  0
 89 70  1  0
 90 92  1  0
 90 89  1  0
 91 89  2  0
 93 90  1  0
 94 96  1  0
 95 94  1  0
 97 98  1  0
 97 57  1  0
 97104  1  0
 99 98  1  0
100 99  1  0
101100  1  0
102100  1  0
103100  1  0
104105  1  0
105107  1  0
105108  1  0
106105  1  0
M  ISO  4  15 101  16 101  59 100  67 100
M  END
>  <TORSDO>  (74) 
F 26

>  <SCORE>  (74) 
-6.463

>  <name>  (74) 
77

>  <ligand_id>  (74) 
77

>  <original_smiles>  (74) 
[H]c1c([H])c([H])c2c(c1[H])C([H])([H])C([H])([H])C([H])([H])C2([H])N([H])C(=O)C1([H])N(C(=O)C([H])(N([H])C(=O)C([H])(N([H])C([H])([H])[H])C([H])([H])[H])C(C([H])([H])[H])(C([H])([H])[H])C([H])([H])[H])C([H])([H])c2c([H])c(OC([H])([H])C([H])([H])[N+]3([H])C([H])([H])C([H])([H])C([H])([H])C4(C([H])([H])C([H])([H])[N+]([H])(C([H])(C([H])([H])N([H])C(=O)N5C([H])([H])C([H])([H])C([H])([H])C([H])(n6nc(-c7c([H])c([H])c(Oc8c([H])c([H])c(F)c([H])c8F)c([H])c7[H])c(C(=O)N([H])[H])c6N([H])[H])C5([H])[H])C([H])(C([H])([H])C([H])([H])[N+]([H])([H])[H])C([H])([H])[N+]([H])([H])[H])C([H])([H])C4([H])[H])C3([H])[H])c([H])c([H])c2C1([H])[H]

>  <smiles>  (74) 
[H]c1c([H])c([H])c2c(c1[H])C([H])([H])C([H])([H])C([H])([H])C2([H])N([H])C(=O)C1([H])N(C(=O)C([H])(N([H])C(=O)C([H])(N([H])C([H])([H])[H])C([H])([H])[H])C(C([H])([H])[H])(C([H])([H])[H])C([H])([H])[H])C([H])([H])c2c([H])c(OC([H])([H])C([H])([H])[N+]3([H])C([H])([H])C([H])([H])C([H])([H])C4(C([H])([H])C([H])([H])[N+]([H])(C([H])(C([H])([H])N([H])C(=O)N5C([H])([H])C([H])([H])C([H])([H])C([H])(n6nc(-c7c([H])c([H])c(Oc8c([H])c([H])c(F)c([H])c8F)c([H])c7[H])c(C(=O)N([H])[H])c6N([H])[H])C5([H])[H])C([H])(C([H])([H])C([H])([H])[N+]([H])([H])[H])C([H])([H])[N+]([H])([H])[H])C([H])([H])C4([H])[H])C3([H])[H])c([H])c([H])c2C1([H])[H]

$$$$
78:0:0
     RDKit          3D

 93101  0  0  1  0  0  0  0  0999 V2000
  -31.4810  -18.8390   22.2160 C   0  0  0  0  0  0  0  0  0  0  0  0
  -31.3410  -17.3890   21.7870 C   0  0  0  0  0  2  0  0  0  0  0  0
  -31.0470  -19.8410   21.1530 C   0  0  0  0  0  2  0  0  0  0  0  0
  -29.4790  -18.1730   20.1990 C   0  0  0  0  0  2  0  0  0  0  0  0
  -29.9070  -17.1190   21.2730 C   0  0  0  0  0  3  0  0  0  0  0  0
  -31.9040  -19.1820   23.3590 N   0  0  0  0  0  0  0  0  0  0  0  0
  -29.6510  -19.5820   20.6960 N   0  0  2  0  0  4  0  0  0  0  0  0
  -32.1460  -18.3810   23.9330 H   0  0  0  0  0  0  0  0  0  0  0  0
  -29.0710  -19.6510   21.5200 H   0  0  0  0  0  0  0  0  0  0  0  0
  -30.3210  -14.8400   20.1120 C   0  0  0  0  0  0  0  0  0  0  0  0
  -30.0880  -12.7080   18.8760 C   0  0  0  0  0  2  0  0  0  0  0  0
  -29.0250  -12.8660   17.7700 C   0  0  0  0  0  2  0  0  0  0  0  0
  -27.6110  -12.5960   18.3220 C   0  0  0  0  0  2  0  0  0  0  0  0
  -27.3270  -13.3720   19.6360 C   0  0  0  0  0  3  0  0  0  0  0  0
  -28.4880  -13.1860   20.6380 C   0  0  0  0  0  2  0  0  0  0  0  0
  -29.7330  -13.6200   19.9750 N   0  0  0  0  0  0  0  0  0  0  0  0
  -31.3400  -15.1640   19.4980 O   0  0  0  0  0  0  0  0  0  0  0  0
  -29.6510  -15.7050   20.9010 N   0  0  0  0  0  0  0  0  0  0  0  0
  -28.8280  -15.3000   21.3230 H   0  0  0  0  0  0  0  0  0  0  0  0
  -24.9790  -13.7960   20.6010 C   0  0  0  0  0  0  0  0  0  0  0  0
  -23.9940  -12.9420   21.0190 C   0  0  0  0  0  0  0  0  0  0  0  0
  -24.5220  -11.6250   20.8600 C   0  0  0  0  0  0  0  0  0  0  0  0
  -26.0420  -12.9930   20.2180 N   0  0  0  0  0  0  0  0  0  0  0  0
  -25.7760  -11.6780   20.4290 N   0  0  0  0  0  0  0  0  0  0  0  0
  -23.8860  -10.3130   21.0360 C   0  0  0  0  0  0  0  0  0  0  0  0
  -24.3720   -9.3780   21.9760 C   0  0  0  0  0  3  0  0  0  0  0  0
  -23.7330   -8.1290   22.1400 C   0  0  0  0  0  3  0  0  0  0  0  0
  -22.5960   -7.8070   21.3630 C   0  0  0  0  0  0  0  0  0  0  0  0
  -22.1310   -8.7320   20.4120 C   0  0  0  0  0  3  0  0  0  0  0  0
  -22.7710   -9.9720   20.2460 C   0  0  0  0  0  3  0  0  0  0  0  0
  -21.9260   -6.6090   21.4350 O   0  0  0  0  0  0  0  0  0  0  0  0
  -21.7980   -5.9260   22.6180 C   0  0  0  0  0  0  0  0  0  0  0  0
  -21.1160   -6.4770   23.7250 C   0  0  0  0  0  3  0  0  0  0  0  0
  -20.9460   -5.7140   24.8980 C   0  0  0  0  0  3  0  0  0  0  0  0
  -21.4490   -4.4010   24.9630 C   0  0  0  0  0  0  0  0  0  0  0  0
  -22.1240   -3.8500   23.8600 C   0  0  0  0  0  3  0  0  0  0  0  0
  -22.2960   -4.6100   22.6910 C   0  0  0  0  0  0  0  0  0  0  0  0
  -22.9290   -4.0670   21.6220 F   0  0  0  0  0  0  0  0  0  0  0  0
  -21.2810   -3.6650   26.0870 F   0  0  0  0  0  0  0  0  0  0  0  0
  -22.6070  -13.3190   21.4530 C   0  0  0  0  0  0  0  0  0  0  0  0
  -22.0030  -12.5270   22.3310 N   0  0  0  0  0  0  0  0  0  0  0  0
  -22.0680  -14.3490   21.0490 O   0  0  0  0  0  0  0  0  0  0  0  0
  -22.4540  -11.6930   22.6780 H   0  0  0  0  0  0  0  0  0  0  0  0
  -21.0770  -12.7560   22.6610 H   0  0  0  0  0  0  0  0  0  0  0  0
  -25.0550  -15.1830   20.4950 N   0  0  0  0  0  0  0  0  0  0  0  0
  -24.2670  -15.7870   20.7040 H   0  0  0  0  0  0  0  0  0  0  0  0
  -25.8420  -15.6820   20.1010 H   0  0  0  0  0  0  0  0  0  0  0  0
  -29.1550  -20.6330   19.7460 C   0  0  0  0  0  2  0  0  0  0  0  0
  -28.8380  -22.0190   20.4020 C   0  0  0  0  0  2  0  0  0  0  0  0
  -28.5970  -23.1760   19.3880 C   0  0  0  0  0  2  0  0  0  0  0  0
  -28.2830  -24.5650   20.0200 C   0  0  0  0  0  2  0  0  0  0  0  0
  -28.3010  -25.7440   19.0070 C   0  0  0  0  0  2  0  0  0  0  0  0
  -28.1970  -27.0420   19.6280 O   0  0  0  0  0  0  0  0  0  0  0  0
  -24.5600  -31.9560   23.2800 C   0  0  0  0  0  0  0  0  0  0  0  0
  -26.9940  -27.7230   19.7340 C   0  0  0  0  0  0  0  0  0  0  0  0
  -23.2470  -30.6700   21.6240 C   0  0  0  0  0  3  0  0  0  0  0  0
  -24.6010  -29.2310   20.0090 C   0  0  0  0  0  0  0  0  0  0  0  0
  -25.7580  -31.0370   21.2940 C   0  0  0  0  0  2  0  0  0  0  0  0
  -25.7970  -29.7130   20.5550 C   0  0  0  0  0  0  0  0  0  0  0  0
  -26.9900  -28.9660   20.4140 C   0  0  0  0  0  3  0  0  0  0  0  0
  -25.7690  -27.2490   19.2040 C   0  0  0  0  0  3  0  0  0  0  0  0
  -24.5850  -27.9980   19.3340 C   0  0  0  0  0  3  0  0  0  0  0  0
  -23.3660  -30.0840   20.1920 C   0  0  0  0  0  2  0  0  0  0  0  0
  -24.5430  -31.2330   22.1230 N   0  0  0  0  0  0  0  0  0  0  0  0
  -23.5160  -32.1890   23.9050 O   0  0  0  0  0  0  0  0  0  0  0  0
  -22.6540  -29.5850   22.5520 C   0  0  0  0  0  0  0  0  0  0  0  0
  -21.3400  -29.3390   22.4230 N   0  0  0  0  0  0  0  0  0  0  0  0
  -23.3730  -28.9660   23.3410 O   0  0  0  0  0  0  0  0  0  0  0  0
  -20.8170  -29.8930   21.7590 H   0  0  0  0  0  0  0  0  0  0  0  0
  -18.0400  -27.9330   22.8630 C   0  0  0  0  0  0  0  0  0  0  0  0
  -20.5760  -28.3350   23.1620 C   0  0  0  0  0  3  0  0  0  0  0  0
  -20.7680  -26.9280   22.5500 C   0  0  0  0  0  2  0  0  0  0  0  0
  -19.6940  -26.5680   21.5190 C   0  0  0  0  0  2  0  0  0  0  0  0
  -18.3020  -26.6140   22.1550 C   0  0  0  0  0  2  0  0  0  0  0  0
  -19.1080  -28.7490   23.3210 C   0  0  0  0  0  0  0  0  0  0  0  0
  -18.8110  -29.9830   23.9390 C   0  0  0  0  0  3  0  0  0  0  0  0
  -17.4780  -30.4020   24.1060 C   0  0  0  0  0  3  0  0  0  0  0  0
  -16.4240  -29.5830   23.6650 C   0  0  0  0  0  3  0  0  0  0  0  0
  -16.7070  -28.3510   23.0490 C   0  0  0  0  0  3  0  0  0  0  0  0
  -25.8850  -32.5430   23.8590 C   0  0  0  0  0  3  0  0  0  0  0  0
  -25.6360  -33.9520   24.1920 N   0  0  0  0  0  0  0  0  0  0  0  0
  -25.9930  -34.9890   23.4240 C   0  0  0  0  0  0  0  0  0  0  0  0
  -26.6400  -34.8600   22.3810 O   0  0  0  0  0  0  0  0  0  0  0  0
  -25.0640  -34.1300   25.0050 H   0  0  0  0  0  0  0  0  0  0  0  0
  -24.3390  -36.8510   23.0820 C   0  0  0  0  0  1  0  0  0  0  0  0
  -25.5670  -36.3960   23.8870 C   0  0  0  0  0  3  0  0  0  0  0  0
  -27.7320  -37.1980   24.7210 C   0  0  0  0  0  1  0  0  0  0  0  0
  -26.6410  -37.4060   23.7710 N   0  0  0  0  0  0  0  0  0  0  0  0
  -26.2720  -38.3420   23.9130 H   0  0  0  0  0  0  0  0  0  0  0  0
  -26.4150  -31.7580   25.1210 C   0  0  1  0  0  0  0  0  0  0  0  0
  -25.3380  -31.5240   26.2050 C   0  0  0  0  0  1  0  0  0  0  0  0
  -26.9780  -30.3770   24.7080 C   0  0  0  0  0  1  0  0  0  0  0  0
  -27.5840  -32.5360   25.7700 C   0  0  0  0  0  1  0  0  0  0  0  0
  1  6  2  0
  2  1  1  0
  3  1  1  0
  4  7  1  0
  4  5  1  0
  5 18  1  0
  5  2  1  0
  6  8  1  0
  7  3  1  0
  7  9  1  1
 10 18  1  0
 11 16  1  0
 12 13  1  0
 12 11  1  0
 14 13  1  0
 14 23  1  0
 14 15  1  0
 16 10  1  0
 16 15  1  0
 17 10  2  0
 18 19  1  0
 20 21  2  0
 21 40  1  0
 22 21  1  0
 22 25  1  0
 23 24  1  0
 23 20  1  0
 24 22  2  0
 25 26  1  0
 26 27  2  0
 28 31  1  0
 28 27  1  0
 29 28  2  0
 30 29  1  0
 30 25  2  0
 31 32  1  0
 32 37  2  0
 32 33  1  0
 33 34  2  0
 34 35  1  0
 35 39  1  0
 36 35  2  0
 37 36  1  0
 38 37  1  0
 40 41  1  0
 41 44  1  0
 41 43  1  0
 42 40  2  0
 45 20  1  0
 45 46  1  0
 47 45  1  0
 48 49  1  0
 48  7  1  0
 50 51  1  0
 50 49  1  0
 52 53  1  0
 52 51  1  0
 53 55  1  0
 54 65  2  0
 55 60  1  0
 56 64  1  0
 56 66  1  0
 57 63  1  0
 57 59  1  0
 58 64  1  0
 59 58  1  0
 60 59  2  0
 61 62  1  0
 61 55  2  0
 62 57  2  0
 63 56  1  0
 64 54  1  0
 66 68  2  0
 67 66  1  0
 69 67  1  0
 70 79  2  0
 70 75  1  0
 71 67  1  0
 71 75  1  0
 72 71  1  0
 73 74  1  0
 73 72  1  0
 74 70  1  0
 75 76  2  0
 76 77  1  0
 78 77  2  0
 79 78  1  0
 80 54  1  0
 80 81  1  0
 80 90  1  0
 81 84  1  0
 82 86  1  0
 82 81  1  0
 83 82  2  0
 86 85  1  0
 88 86  1  0
 88 89  1  0
 88 87  1  0
 90 93  1  1
 90 91  1  0
 92 90  1  0
M  ISO  4  10 100  18 100  52 101  53 101
M  END
>  <TORSDO>  (75) 
F 21

>  <SCORE>  (75) 
-12.702

>  <name>  (75) 
78

>  <ligand_id>  (75) 
78

>  <original_smiles>  (75) 
[H]N=C1C([H])([H])C([H])(N([H])C(=O)N2C([H])([H])C([H])([H])C([H])([H])C([H])(n3nc(-c4c([H])c([H])c(Oc5c([H])c([H])c(F)c([H])c5F)c([H])c4[H])c(C(=O)N([H])[H])c3N([H])[H])C2([H])[H])C([H])([H])[N+]([H])(C([H])([H])C([H])([H])C([H])([H])C([H])([H])C([H])([H])Oc2c([H])c([H])c3c(c2[H])C([H])([H])N(C(=O)C([H])(N([H])C(=O)C([H])(N([H])C([H])([H])[H])C([H])([H])[H])C(C([H])([H])[H])(C([H])([H])[H])C([H])([H])[H])C([H])(C(=O)N([H])C2([H])c4c([H])c([H])c([H])c([H])c4C([H])([H])C([H])([H])C2([H])[H])C3([H])[H])C1([H])[H]

>  <smiles>  (75) 
[H]N=C1C([H])([H])C([H])(N([H])C(=O)N2C([H])([H])C([H])([H])C([H])([H])C([H])(n3nc(-c4c([H])c([H])c(Oc5c([H])c([H])c(F)c([H])c5F)c([H])c4[H])c(C(=O)N([H])[H])c3N([H])[H])C2([H])[H])C([H])([H])[N+]([H])(C([H])([H])C([H])([H])C([H])([H])C([H])([H])C([H])([H])Oc2c([H])c([H])c3c(c2[H])C([H])([H])N(C(=O)C([H])(N([H])C(=O)C([H])(N([H])C([H])([H])[H])C([H])([H])[H])C(C([H])([H])[H])(C([H])([H])[H])C([H])([H])[H])C([H])(C(=O)N([H])C2([H])c4c([H])c([H])c([H])c([H])c4C([H])([H])C([H])([H])C2([H])[H])C3([H])[H])C1([H])[H]

$$$$
79:0:0
     RDKit          3D

 95103  0  0  1  0  0  0  0  0999 V2000
  -29.0840  -20.9920   20.4830 C   0  0  0  0  0  2  0  0  0  0  0  0
  -32.2450  -20.9750   24.0100 C   0  0  0  0  0  2  0  0  0  0  0  0
  -30.8460  -21.4890   23.6310 C   0  0  0  0  0  2  0  0  0  0  0  0
  -32.6230  -19.6320   23.3650 C   0  0  0  0  0  2  0  0  0  0  0  0
  -30.7540  -21.9430   22.1560 C   0  0  0  0  0  2  0  0  0  0  0  0
  -32.4050  -19.5810   21.8430 C   0  0  0  0  0  2  0  0  0  0  0  0
  -30.5160  -20.8360   21.0700 C   0  0  0  0  0  3  0  0  0  0  0  0
  -30.9580  -19.5030   21.5600 N   0  0  0  0  0  0  0  0  0  0  0  0
  -30.5490  -18.2930   20.8070 C   0  0  0  0  0  2  0  0  0  0  0  0
  -31.0350  -16.9620   21.4730 C   0  0  0  0  0  2  0  0  0  0  0  0
  -31.2500  -14.6900   20.3940 C   0  0  0  0  0  0  0  0  0  0  0  0
  -31.0270  -12.4050   19.4670 C   0  0  0  0  0  2  0  0  0  0  0  0
  -30.1490  -12.4390   18.2000 C   0  0  0  0  0  2  0  0  0  0  0  0
  -28.6510  -12.3480   18.5550 C   0  0  0  0  0  2  0  0  0  0  0  0
  -28.2470  -13.3320   19.6880 C   0  0  0  0  0  3  0  0  0  0  0  0
  -29.2380  -13.2490   20.8680 C   0  0  0  0  0  2  0  0  0  0  0  0
  -30.5880  -13.5040   20.3360 N   0  0  0  0  0  0  0  0  0  0  0  0
  -32.3970  -14.8460   19.9660 O   0  0  0  0  0  0  0  0  0  0  0  0
  -30.5300  -15.7140   20.8930 N   0  0  0  0  0  0  0  0  0  0  0  0
  -29.5640  -15.5020   21.0870 H   0  0  0  0  0  0  0  0  0  0  0  0
  -25.8500  -14.0450   20.2900 C   0  0  0  0  0  0  0  0  0  0  0  0
  -24.7430  -13.3210   20.6440 C   0  0  0  0  0  0  0  0  0  0  0  0
  -25.1590  -11.9540   20.6740 C   0  0  0  0  0  0  0  0  0  0  0  0
  -26.8710  -13.1200   20.1260 N   0  0  0  0  0  0  0  0  0  0  0  0
  -26.4580  -11.8610   20.4170 N   0  0  0  0  0  0  0  0  0  0  0  0
  -24.3850  -10.7250   20.8780 C   0  0  0  0  0  0  0  0  0  0  0  0
  -24.7210   -9.8000   21.8920 C   0  0  0  0  0  3  0  0  0  0  0  0
  -23.9460   -8.6360   22.0800 C   0  0  0  0  0  3  0  0  0  0  0  0
  -22.8250   -8.3850   21.2540 C   0  0  0  0  0  0  0  0  0  0  0  0
  -22.5100   -9.2960   20.2310 C   0  0  0  0  0  3  0  0  0  0  0  0
  -23.2830  -10.4540   20.0420 C   0  0  0  0  0  3  0  0  0  0  0  0
  -22.0310   -7.2670   21.3440 O   0  0  0  0  0  0  0  0  0  0  0  0
  -21.8340   -6.6200   22.5370 C   0  0  0  0  0  0  0  0  0  0  0  0
  -21.2740   -7.2730   23.6570 C   0  0  0  0  0  3  0  0  0  0  0  0
  -21.0260   -6.5520   24.8410 C   0  0  0  0  0  3  0  0  0  0  0  0
  -21.3250   -5.1770   24.9050 C   0  0  0  0  0  0  0  0  0  0  0  0
  -21.8760   -4.5250   23.7890 C   0  0  0  0  0  3  0  0  0  0  0  0
  -22.1270   -5.2440   22.6070 C   0  0  0  0  0  0  0  0  0  0  0  0
  -22.6380   -4.6040   21.5280 F   0  0  0  0  0  0  0  0  0  0  0  0
  -21.0800   -4.4810   26.0410 F   0  0  0  0  0  0  0  0  0  0  0  0
  -23.3550  -13.8540   20.8480 C   0  0  0  0  0  0  0  0  0  0  0  0
  -22.5770  -13.2190   21.7190 N   0  0  0  0  0  0  0  0  0  0  0  0
  -22.9690  -14.8710   20.2720 O   0  0  0  0  0  0  0  0  0  0  0  0
  -22.9020  -12.3940   22.2030 H   0  0  0  0  0  0  0  0  0  0  0  0
  -21.6450  -13.5590   21.9000 H   0  0  0  0  0  0  0  0  0  0  0  0
  -26.0720  -15.4020   20.0770 N   0  0  0  0  0  0  0  0  0  0  0  0
  -25.3290  -16.0890   20.1360 H   0  0  0  0  0  0  0  0  0  0  0  0
  -26.9490  -15.7960   19.7580 H   0  0  0  0  0  0  0  0  0  0  0  0
  -29.0040  -22.2860   19.7460 N   0  0  0  0  0  4  0  0  0  0  0  0
  -29.4210  -22.1610   18.8380 H   0  0  0  0  0  0  0  0  0  0  0  0
  -29.5810  -22.9360   20.2550 H   0  0  0  0  0  0  0  0  0  0  0  0
  -27.6570  -22.8890   19.5890 C   0  0  0  0  0  2  0  0  0  0  0  0
  -27.6900  -24.3650   19.0960 C   0  0  0  0  0  2  0  0  0  0  0  0
  -27.8770  -25.4220   20.2110 C   0  0  0  0  0  2  0  0  0  0  0  0
  -27.9760  -26.7620   19.7020 O   0  0  0  0  0  0  0  0  0  0  0  0
  -24.6280  -31.8640   23.3630 C   0  0  0  0  0  0  0  0  0  0  0  0
  -26.8450  -27.5420   19.8160 C   0  0  0  0  0  0  0  0  0  0  0  0
  -23.2570  -30.6530   21.7010 C   0  0  0  0  0  3  0  0  0  0  0  0
  -24.5390  -29.1570   20.0840 C   0  0  0  0  0  0  0  0  0  0  0  0
  -25.7820  -30.9000   21.3740 C   0  0  0  0  0  2  0  0  0  0  0  0
  -25.7550  -29.5820   20.6300 C   0  0  0  0  0  0  0  0  0  0  0  0
  -26.9150  -28.7850   20.4870 C   0  0  0  0  0  3  0  0  0  0  0  0
  -25.6080  -27.1290   19.2750 C   0  0  0  0  0  3  0  0  0  0  0  0
  -24.4590  -27.9310   19.4020 C   0  0  0  0  0  3  0  0  0  0  0  0
  -23.3460  -30.0680   20.2670 C   0  0  0  0  0  2  0  0  0  0  0  0
  -24.5780  -31.1480   22.2050 N   0  0  0  0  0  0  0  0  0  0  0  0
  -23.5970  -32.1480   23.9870 O   0  0  0  0  0  0  0  0  0  0  0  0
  -22.6100  -29.5950   22.6240 C   0  0  0  0  0  0  0  0  0  0  0  0
  -21.2800  -29.4320   22.5100 N   0  0  0  0  0  0  0  0  0  0  0  0
  -23.2970  -28.9260   23.4000 O   0  0  0  0  0  0  0  0  0  0  0  0
  -20.7870  -30.0200   21.8510 H   0  0  0  0  0  0  0  0  0  0  0  0
  -17.9150  -28.1880   22.9350 C   0  0  0  0  0  0  0  0  0  0  0  0
  -20.4660  -28.4690   23.2480 C   0  0  0  0  0  3  0  0  0  0  0  0
  -20.5950  -27.0510   22.6420 C   0  0  0  0  0  2  0  0  0  0  0  0
  -19.5120  -26.7370   21.6070 C   0  0  0  0  0  2  0  0  0  0  0  0
  -18.1180  -26.8560   22.2330 C   0  0  0  0  0  2  0  0  0  0  0  0
  -19.0180  -28.9530   23.3980 C   0  0  0  0  0  0  0  0  0  0  0  0
  -18.7770  -30.2030   24.0100 C   0  0  0  0  0  3  0  0  0  0  0  0
  -17.4650  -30.6860   24.1660 C   0  0  0  0  0  3  0  0  0  0  0  0
  -16.3740  -29.9170   23.7210 C   0  0  0  0  0  3  0  0  0  0  0  0
  -16.6010  -28.6680   23.1130 C   0  0  0  0  0  3  0  0  0  0  0  0
  -25.9800  -32.3860   23.9430 C   0  0  0  0  0  3  0  0  0  0  0  0
  -25.7650  -33.7630   24.4060 N   0  0  0  0  0  0  0  0  0  0  0  0
  -26.1190  -34.8580   23.7200 C   0  0  0  0  0  0  0  0  0  0  0  0
  -26.7370  -34.8080   22.6530 O   0  0  0  0  0  0  0  0  0  0  0  0
  -25.2280  -33.8800   25.2520 H   0  0  0  0  0  0  0  0  0  0  0  0
  -24.4780  -36.7550   23.5900 C   0  0  0  0  0  1  0  0  0  0  0  0
  -25.7280  -36.2240   24.3120 C   0  0  0  0  0  3  0  0  0  0  0  0
  -27.9400  -36.9240   25.1160 C   0  0  0  0  0  1  0  0  0  0  0  0
  -26.8110  -37.2310   24.2410 N   0  0  0  0  0  0  0  0  0  0  0  0
  -26.4610  -38.1520   24.4910 H   0  0  0  0  0  0  0  0  0  0  0  0
  -26.5390  -31.4890   25.1160 C   0  0  1  0  0  0  0  0  0  0  0  0
  -25.5080  -31.2010   26.2320 C   0  0  0  0  0  1  0  0  0  0  0  0
  -27.0310  -30.1300   24.5690 C   0  0  0  0  0  1  0  0  0  0  0  0
  -27.7670  -32.1780   25.7590 C   0  0  0  0  0  1  0  0  0  0  0  0
  3  2  1  0
  4  2  1  0
  5  3  1  0
  6  4  1  0
  7  1  1  0
  7  8  1  0
  7  5  1  0
  8  6  1  0
  9 10  1  0
  9  8  1  0
 11 19  1  0
 12 17  1  0
 13 14  1  0
 13 12  1  0
 15 14  1  0
 15 24  1  0
 15 16  1  0
 17 11  1  0
 17 16  1  0
 18 11  2  0
 19 20  1  0
 19 10  1  0
 21 22  2  0
 22 23  1  0
 22 41  1  0
 23 26  1  0
 24 21  1  0
 24 25  1  0
 25 23  2  0
 26 27  1  0
 27 28  2  0
 29 32  1  0
 29 28  1  0
 30 29  2  0
 31 30  1  0
 31 26  2  0
 32 33  1  0
 33 38  2  0
 33 34  1  0
 34 35  2  0
 35 36  1  0
 36 40  1  0
 37 36  2  0
 38 37  1  0
 39 38  1  0
 41 42  1  0
 42 45  1  0
 42 44  1  0
 43 41  2  0
 46 47  1  0
 46 21  1  0
 48 46  1  0
 49 51  1  0
 49  1  1  0
 50 49  1  0
 52 49  1  0
 53 52  1  0
 53 54  1  0
 55 57  1  0
 55 54  1  0
 56 67  2  0
 57 62  1  0
 58 66  1  0
 58 68  1  0
 59 65  1  0
 59 61  1  0
 60 66  1  0
 61 60  1  0
 62 61  2  0
 63 64  1  0
 63 57  2  0
 64 59  2  0
 65 58  1  0
 66 56  1  0
 68 70  2  0
 69 68  1  0
 71 69  1  0
 72 81  2  0
 72 77  1  0
 73 69  1  0
 73 77  1  0
 74 73  1  0
 75 76  1  0
 75 74  1  0
 76 72  1  0
 77 78  2  0
 78 79  1  0
 80 79  2  0
 81 80  1  0
 82 56  1  0
 82 83  1  0
 82 92  1  0
 83 86  1  0
 84 88  1  0
 84 83  1  0
 85 84  2  0
 88 87  1  0
 90 88  1  0
 90 91  1  0
 90 89  1  0
 92 95  1  1
 92 93  1  0
 94 92  1  0
M  ISO  4  11 100  19 100  54 101  55 101
M  END
>  <TORSDO>  (76) 
F 23

>  <SCORE>  (76) 
-11.933

>  <name>  (76) 
79

>  <ligand_id>  (76) 
79

>  <original_smiles>  (76) 
[H]c1c([H])c([H])c2c(c1[H])C([H])([H])C([H])([H])C([H])([H])C2([H])N([H])C(=O)C1([H])N(C(=O)C([H])(N([H])C(=O)C([H])(N([H])C([H])([H])[H])C([H])([H])[H])C(C([H])([H])[H])(C([H])([H])[H])C([H])([H])[H])C([H])([H])c2c([H])c(OC([H])([H])C([H])([H])C([H])([H])[N+]([H])([H])C([H])([H])C3([H])N(C([H])([H])C([H])([H])N([H])C(=O)N4C([H])([H])C([H])([H])C([H])([H])C([H])(n5nc(-c6c([H])c([H])c(Oc7c([H])c([H])c(F)c([H])c7F)c([H])c6[H])c(C(=O)N([H])[H])c5N([H])[H])C4([H])[H])C([H])([H])C([H])([H])C([H])([H])C([H])([H])C3([H])[H])c([H])c([H])c2C1([H])[H]

>  <smiles>  (76) 
[H]c1c([H])c([H])c2c(c1[H])C([H])([H])C([H])([H])C([H])([H])C2([H])N([H])C(=O)C1([H])N(C(=O)C([H])(N([H])C(=O)C([H])(N([H])C([H])([H])[H])C([H])([H])[H])C(C([H])([H])[H])(C([H])([H])[H])C([H])([H])[H])C([H])([H])c2c([H])c(OC([H])([H])C([H])([H])C([H])([H])[N+]([H])([H])C([H])([H])C3([H])N(C([H])([H])C([H])([H])N([H])C(=O)N4C([H])([H])C([H])([H])C([H])([H])C([H])(n5nc(-c6c([H])c([H])c(Oc7c([H])c([H])c(F)c([H])c7F)c([H])c6[H])c(C(=O)N([H])[H])c5N([H])[H])C4([H])[H])C([H])([H])C([H])([H])C([H])([H])C([H])([H])C3([H])[H])c([H])c([H])c2C1([H])[H]

$$$$
80:0:0
     RDKit          3D

 92101  0  0  1  0  0  0  0  0999 V2000
  -29.4660  -21.3640   19.9290 N   0  0  0  0  0  4  0  0  0  0  0  0
  -28.8760  -21.0630   19.1710 H   0  0  0  0  0  0  0  0  0  0  0  0
  -30.3100  -21.7230   19.5090 H   0  0  0  0  0  0  0  0  0  0  0  0
  -30.8860  -14.6800   19.9290 C   0  0  0  0  0  0  0  0  0  0  0  0
  -30.4940  -12.4850   18.8430 C   0  0  0  0  0  2  0  0  0  0  0  0
  -29.4740  -12.6210   17.6960 C   0  0  0  0  0  2  0  0  0  0  0  0
  -28.0380  -12.4570   18.2290 C   0  0  0  0  0  2  0  0  0  0  0  0
  -27.7680  -13.2980   19.5070 C   0  0  0  0  0  3  0  0  0  0  0  0
  -28.9110  -13.1460   20.5330 C   0  0  0  0  0  2  0  0  0  0  0  0
  -30.1500  -13.5220   19.8410 N   0  0  0  0  0  0  0  0  0  0  0  0
  -32.0760  -14.6360   19.6080 O   0  0  0  0  0  0  0  0  0  0  0  0
  -30.4380  -18.4040   18.8740 C   0  0  0  0  0  2  0  0  0  0  0  0
  -31.1240  -18.2400   21.3020 C   0  0  0  0  0  2  0  0  0  0  0  0
  -28.8620  -19.1380   21.2690 C   0  0  0  0  0  2  0  0  0  0  0  0
  -30.8150  -16.8820   18.8000 C   0  0  0  0  0  2  0  0  0  0  0  0
  -29.2490  -16.5230   20.7450 C   0  0  0  0  0  2  0  0  0  0  0  0
  -30.9490  -19.2040   20.1260 C   0  0  0  0  0  3  0  0  0  0  0  0
  -29.6730  -17.8120   21.5630 C   0  0  0  0  0  3  0  0  0  0  0  0
  -29.9090  -20.1750   20.7580 C   0  0  0  0  0  3  0  0  0  0  0  0
  -30.2570  -15.9180   19.8180 N   0  0  0  0  0  0  0  0  0  0  0  0
  -25.4430  -13.8670   20.4230 C   0  0  0  0  0  0  0  0  0  0  0  0
  -24.4000  -13.0840   20.8360 C   0  0  0  0  0  0  0  0  0  0  0  0
  -24.8530  -11.7320   20.7220 C   0  0  0  0  0  0  0  0  0  0  0  0
  -26.4630  -12.9950   20.0830 N   0  0  0  0  0  0  0  0  0  0  0  0
  -26.1210  -11.7030   20.3250 N   0  0  0  0  0  0  0  0  0  0  0  0
  -24.1320  -10.4670   20.9130 C   0  0  0  0  0  0  0  0  0  0  0  0
  -24.5680   -9.5040   21.8500 C   0  0  0  0  0  3  0  0  0  0  0  0
  -23.8480   -8.3030   22.0290 C   0  0  0  0  0  3  0  0  0  0  0  0
  -22.6790   -8.0570   21.2720 C   0  0  0  0  0  0  0  0  0  0  0  0
  -22.2610   -9.0090   20.3250 C   0  0  0  0  0  3  0  0  0  0  0  0
  -22.9810  -10.2020   20.1440 C   0  0  0  0  0  3  0  0  0  0  0  0
  -21.9270   -6.9100   21.3630 O   0  0  0  0  0  0  0  0  0  0  0  0
  -21.8080   -6.2210   22.5440 C   0  0  0  0  0  0  0  0  0  0  0  0
  -21.2650   -6.8160   23.7040 C   0  0  0  0  0  3  0  0  0  0  0  0
  -21.0960   -6.0510   24.8750 C   0  0  0  0  0  3  0  0  0  0  0  0
  -21.4560   -4.6900   24.8840 C   0  0  0  0  0  0  0  0  0  0  0  0
  -21.9920   -4.0930   23.7300 C   0  0  0  0  0  3  0  0  0  0  0  0
  -22.1630   -4.8570   22.5610 C   0  0  0  0  0  0  0  0  0  0  0  0
  -22.6580   -4.2720   21.4440 F   0  0  0  0  0  0  0  0  0  0  0  0
  -21.2870   -3.9520   26.0070 F   0  0  0  0  0  0  0  0  0  0  0  0
  -23.0290  -13.5560   21.2200 C   0  0  0  0  0  0  0  0  0  0  0  0
  -22.3560  -12.8350   22.1090 N   0  0  0  0  0  0  0  0  0  0  0  0
  -22.5620  -14.6030   20.7710 O   0  0  0  0  0  0  0  0  0  0  0  0
  -22.7420  -11.9880   22.5000 H   0  0  0  0  0  0  0  0  0  0  0  0
  -21.4380  -13.1350   22.4040 H   0  0  0  0  0  0  0  0  0  0  0  0
  -25.6010  -15.2440   20.2860 N   0  0  0  0  0  0  0  0  0  0  0  0
  -24.8450  -15.8940   20.4710 H   0  0  0  0  0  0  0  0  0  0  0  0
  -26.4290  -15.6920   19.9200 H   0  0  0  0  0  0  0  0  0  0  0  0
  -28.8350  -22.5370   20.6510 C   0  0  0  0  0  2  0  0  0  0  0  0
  -28.9950  -23.9710   19.9780 C   0  0  0  0  0  3  0  0  0  0  0  0
  -28.3030  -25.1780   20.7310 C   0  0  0  0  0  3  0  0  0  0  0  0
  -28.5180  -26.5450   20.2270 O   0  0  0  0  0  0  0  0  0  0  0  0
  -24.6450  -31.8330   23.1860 C   0  0  0  0  0  0  0  0  0  0  0  0
  -27.3920  -27.3650   20.1750 C   0  0  0  0  0  0  0  0  0  0  0  0
  -23.4970  -30.4260   21.5110 C   0  0  0  0  0  3  0  0  0  0  0  0
  -25.0030  -28.9110   20.1090 C   0  0  0  0  0  0  0  0  0  0  0  0
  -26.0310  -30.7950   21.3830 C   0  0  0  0  0  2  0  0  0  0  0  0
  -26.1470  -29.4240   20.7360 C   0  0  0  0  0  0  0  0  0  0  0  0
  -27.3480  -28.6620   20.7620 C   0  0  0  0  0  3  0  0  0  0  0  0
  -26.2360  -26.8980   19.5160 C   0  0  0  0  0  3  0  0  0  0  0  0
  -25.0490  -27.6530   19.4850 C   0  0  0  0  0  3  0  0  0  0  0  0
  -23.7510  -29.7620   20.1330 C   0  0  0  0  0  2  0  0  0  0  0  0
  -24.7410  -31.0350   22.0850 N   0  0  0  0  0  0  0  0  0  0  0  0
  -23.5460  -32.0910   23.6990 O   0  0  0  0  0  0  0  0  0  0  0  0
  -22.8330  -29.3910   22.4510 C   0  0  0  0  0  0  0  0  0  0  0  0
  -21.5120  -29.2010   22.3000 N   0  0  0  0  0  0  0  0  0  0  0  0
  -23.5050  -28.7660   23.2750 O   0  0  0  0  0  0  0  0  0  0  0  0
  -21.0290  -29.7630   21.6140 H   0  0  0  0  0  0  0  0  0  0  0  0
  -18.1420  -27.9630   22.7220 C   0  0  0  0  0  0  0  0  0  0  0  0
  -20.6890  -28.2490   23.0490 C   0  0  0  0  0  3  0  0  0  0  0  0
  -20.8210  -26.8220   22.4670 C   0  0  0  0  0  2  0  0  0  0  0  0
  -19.7450  -26.4930   21.4290 C   0  0  0  0  0  2  0  0  0  0  0  0
  -18.3470  -26.6200   22.0420 C   0  0  0  0  0  2  0  0  0  0  0  0
  -19.2420  -28.7350   23.1800 C   0  0  0  0  0  0  0  0  0  0  0  0
  -18.9960  -29.9930   23.7730 C   0  0  0  0  0  3  0  0  0  0  0  0
  -17.6810  -30.4780   23.9130 C   0  0  0  0  0  3  0  0  0  0  0  0
  -16.5960  -29.7030   23.4700 C   0  0  0  0  0  3  0  0  0  0  0  0
  -16.8260  -28.4480   22.8800 C   0  0  0  0  0  3  0  0  0  0  0  0
  -25.9050  -32.4810   23.8400 C   0  0  0  0  0  3  0  0  0  0  0  0
  -26.4130  -31.7000   25.1150 C   0  0  1  0  0  0  0  0  0  0  0  0
  -25.3060  -31.4190   26.1580 C   0  0  0  0  0  1  0  0  0  0  0  0
  -27.0330  -30.3420   24.7110 C   0  0  0  0  0  1  0  0  0  0  0  0
  -27.5350  -32.5070   25.8090 C   0  0  0  0  0  1  0  0  0  0  0  0
  -25.5640  -33.8690   24.1840 N   0  0  0  0  0  0  0  0  0  0  0  0
  -25.8890  -34.9370   23.4440 C   0  0  0  0  0  0  0  0  0  0  0  0
  -26.5770  -34.8590   22.4220 O   0  0  0  0  0  0  0  0  0  0  0  0
  -24.9540  -34.0050   24.9770 H   0  0  0  0  0  0  0  0  0  0  0  0
  -24.1350  -36.7030   23.0820 C   0  0  0  0  0  1  0  0  0  0  0  0
  -25.3690  -36.3100   23.9090 C   0  0  0  0  0  3  0  0  0  0  0  0
  -27.4700  -37.2240   24.7940 C   0  0  0  0  0  1  0  0  0  0  0  0
  -26.3850  -37.3820   23.8280 N   0  0  0  0  0  0  0  0  0  0  0  0
  -25.9610  -38.2930   23.9750 H   0  0  0  0  0  0  0  0  0  0  0  0
  1 49  1  0
  2  1  1  0
  3  1  1  0
  5 10  1  0
  6  7  1  0
  6  5  1  0
  8  7  1  0
  8 24  1  0
  8  9  1  0
 10  4  1  0
 10  9  1  0
 11  4  2  0
 13 18  1  0
 14 18  1  0
 15 12  1  0
 15 20  1  0
 17 12  1  0
 17 19  1  0
 17 13  1  0
 18 16  1  0
 19  1  1  0
 19 14  1  0
 20  4  1  0
 20 16  1  0
 21 22  2  0
 22 41  1  0
 23 22  1  0
 23 26  1  0
 24 25  1  0
 24 21  1  0
 25 23  2  0
 26 27  1  0
 27 28  2  0
 29 32  1  0
 29 28  1  0
 30 29  2  0
 31 30  1  0
 31 26  2  0
 32 33  1  0
 33 38  2  0
 33 34  1  0
 34 35  2  0
 35 36  1  0
 36 40  1  0
 37 36  2  0
 38 37  1  0
 39 38  1  0
 41 42  1  0
 42 45  1  0
 42 44  1  0
 43 41  2  0
 46 21  1  0
 46 47  1  0
 48 46  1  0
 50 49  1  0
 50 51  2  0
 52 51  1  0
 53 64  2  0
 54 52  1  0
 54 59  1  0
 55 63  1  0
 55 65  1  0
 56 62  1  0
 56 58  1  0
 57 63  1  0
 58 59  2  0
 58 57  1  0
 60 54  2  0
 61 60  1  0
 61 56  2  0
 62 55  1  0
 63 53  1  0
 65 67  2  0
 66 65  1  0
 68 66  1  0
 69 78  2  0
 69 74  1  0
 70 66  1  0
 70 74  1  0
 71 70  1  0
 72 73  1  0
 72 71  1  0
 73 69  1  0
 74 75  2  0
 75 76  1  0
 77 76  2  0
 78 77  1  0
 79 53  1  0
 79 84  1  0
 79 80  1  0
 80 83  1  1
 80 81  1  0
 82 80  1  0
 84 87  1  0
 85 89  1  0
 85 84  1  0
 86 85  2  0
 89 88  1  0
 91 89  1  0
 91 92  1  0
 91 90  1  0
M  ISO  4   4 100  20 100  51 101  52 101
M  END
>  <TORSDO>  (77) 
F 19

>  <SCORE>  (77) 
-13.312

>  <name>  (77) 
80

>  <ligand_id>  (77) 
80

>  <original_smiles>  (77) 
[H]c1c([H])c([H])c2c(c1[H])C([H])([H])C([H])([H])C([H])([H])C2([H])N([H])C(=O)C1([H])N(C(=O)C([H])(N([H])C(=O)C([H])(N([H])C([H])([H])[H])C([H])([H])[H])C(C([H])([H])[H])(C([H])([H])[H])C([H])([H])[H])C([H])([H])c2c([H])c(OC([H])([H])C([H])([H])C([H])([H])[N+]([H])([H])C3([H])C([H])([H])C4([H])C([H])([H])N(C(=O)N5C([H])([H])C([H])([H])C([H])([H])C([H])(n6nc(-c7c([H])c([H])c(Oc8c([H])c([H])c(F)c([H])c8F)c([H])c7[H])c(C(=O)N([H])[H])c6N([H])[H])C5([H])[H])C([H])([H])C([H])([H])C3([H])C4([H])[H])c([H])c([H])c2C1([H])[H]

>  <smiles>  (77) 
[H]c1c([H])c([H])c2c(c1[H])C([H])([H])C([H])([H])C([H])([H])C2([H])N([H])C(=O)C1([H])N(C(=O)C([H])(N([H])C(=O)C([H])(N([H])C([H])([H])[H])C([H])([H])[H])C(C([H])([H])[H])(C([H])([H])[H])C([H])([H])[H])C([H])([H])c2c([H])c(OC([H])([H])C([H])([H])C([H])([H])[N+]([H])([H])C3([H])C([H])([H])C4([H])C([H])([H])N(C(=O)N5C([H])([H])C([H])([H])C([H])([H])C([H])(n6nc(-c7c([H])c([H])c(Oc8c([H])c([H])c(F)c([H])c8F)c([H])c7[H])c(C(=O)N([H])[H])c6N([H])[H])C5([H])[H])C([H])([H])C([H])([H])C3([H])C4([H])[H])c([H])c([H])c2C1([H])[H]

$$$$
81:0:0
     RDKit          3D

 98105  0  0  1  0  0  0  0  0999 V2000
  -29.3370  -24.0110   16.7960 C   0  0  0  0  0  2  0  0  0  0  0  0
  -30.5590  -24.1370   15.8910 C   0  0  0  0  0  2  0  0  0  0  0  0
  -31.3990  -25.2730   16.2700 N   0  0  0  0  0  0  0  0  0  0  0  0
  -31.0600  -25.6120   17.6500 C   0  0  0  0  0  2  0  0  0  0  0  0
  -30.7660  -27.0960   17.9610 C   0  0  0  0  0  2  0  0  0  0  0  0
  -32.4800  -28.9070   17.8460 C   0  0  0  0  0  0  0  0  0  0  0  0
  -32.9720  -31.1930   17.1070 C   0  0  0  0  0  2  0  0  0  0  0  0
  -31.6590  -31.8270   16.6060 C   0  0  0  0  0  2  0  0  0  0  0  0
  -31.4040  -31.4940   15.1220 C   0  0  0  0  0  2  0  0  0  0  0  0
  -31.5870  -29.9900   14.8010 C   0  0  0  0  0  3  0  0  0  0  0  0
  -32.8980  -29.4520   15.4200 C   0  0  0  0  0  2  0  0  0  0  0  0
  -32.8910  -29.7530   16.8660 N   0  0  0  0  0  0  0  0  0  0  0  0
  -32.4750  -29.1820   19.0520 O   0  0  0  0  0  0  0  0  0  0  0  0
  -31.8640  -27.8290   17.3670 N   0  0  0  0  0  0  0  0  0  0  0  0
  -31.9410  -27.7220   16.3670 H   0  0  0  0  0  0  0  0  0  0  0  0
  -30.3930  -29.4560   12.5770 C   0  0  0  0  0  0  0  0  0  0  0  0
  -30.8490  -29.3810   11.2920 C   0  0  0  0  0  0  0  0  0  0  0  0
  -32.2510  -29.6360   11.3550 C   0  0  0  0  0  0  0  0  0  0  0  0
  -31.5000  -29.7410   13.3600 N   0  0  0  0  0  0  0  0  0  0  0  0
  -32.6350  -29.7970   12.6160 N   0  0  0  0  0  0  0  0  0  0  0  0
  -33.2450  -29.7970   10.2810 C   0  0  0  0  0  0  0  0  0  0  0  0
  -34.2350  -28.8190   10.0470 C   0  0  0  0  0  3  0  0  0  0  0  0
  -35.1680  -28.9830    9.0030 C   0  0  0  0  0  3  0  0  0  0  0  0
  -35.1120  -30.1320    8.1760 C   0  0  0  0  0  0  0  0  0  0  0  0
  -34.1380  -31.1120    8.4290 C   0  0  0  0  0  3  0  0  0  0  0  0
  -33.2120  -30.9490    9.4720 C   0  0  0  0  0  3  0  0  0  0  0  0
  -35.9940  -30.3880    7.1530 O   0  0  0  0  0  0  0  0  0  0  0  0
  -36.2000  -29.4920    6.1380 C   0  0  0  0  0  0  0  0  0  0  0  0
  -35.1810  -29.1670    5.2140 C   0  0  0  0  0  3  0  0  0  0  0  0
  -35.4520  -28.2940    4.1430 C   0  0  0  0  0  3  0  0  0  0  0  0
  -36.7430  -27.7510    3.9850 C   0  0  0  0  0  0  0  0  0  0  0  0
  -37.7590  -28.0770    4.9010 C   0  0  0  0  0  3  0  0  0  0  0  0
  -37.4900  -28.9460    5.9690 C   0  0  0  0  0  0  0  0  0  0  0  0
  -38.4760  -29.2760    6.8370 F   0  0  0  0  0  0  0  0  0  0  0  0
  -37.0090  -26.9180    2.9530 F   0  0  0  0  0  0  0  0  0  0  0  0
  -30.0130  -29.1770   10.0550 C   0  0  0  0  0  0  0  0  0  0  0  0
  -30.4760  -28.3270    9.1420 N   0  0  0  0  0  0  0  0  0  0  0  0
  -28.9280  -29.7330    9.9170 O   0  0  0  0  0  0  0  0  0  0  0  0
  -31.3560  -27.8520    9.2630 H   0  0  0  0  0  0  0  0  0  0  0  0
  -29.9350  -28.1470    8.3070 H   0  0  0  0  0  0  0  0  0  0  0  0
  -29.1280  -29.3290   13.1470 N   0  0  0  0  0  0  0  0  0  0  0  0
  -28.3030  -29.1740   12.5830 H   0  0  0  0  0  0  0  0  0  0  0  0
  -28.9360  -29.4710   14.1270 H   0  0  0  0  0  0  0  0  0  0  0  0
  -32.8260  -25.1260   15.8910 C   0  0  0  0  0  2  0  0  0  0  0  0
  -33.3090  -23.7610   15.2970 C   0  0  0  0  0  2  0  0  0  0  0  0
  -33.8950  -23.8830   13.9370 N   0  0  0  0  0  4  0  0  0  0  0  0
  -33.2690  -24.3200   13.2810 H   0  0  0  0  0  0  0  0  0  0  0  0
  -34.0920  -22.9630   13.5780 H   0  0  0  0  0  0  0  0  0  0  0  0
  -34.7650  -24.3940   13.9380 H   0  0  0  0  0  0  0  0  0  0  0  0
  -29.2060  -22.5920   17.3860 C   0  0  0  0  0  2  0  0  0  0  0  0
  -30.5680  -21.8950   17.4870 C   0  0  0  0  0  2  0  0  0  0  0  0
  -30.8590  -21.5020   18.8800 N   0  0  0  0  0  4  0  0  0  0  0  0
  -30.7760  -20.5010   18.9600 H   0  0  0  0  0  0  0  0  0  0  0  0
  -30.1560  -21.9230   19.4630 H   0  0  0  0  0  0  0  0  0  0  0  0
  -32.1880  -21.9430   19.3600 C   0  0  0  0  0  2  0  0  0  0  0  0
  -33.0500  -20.7950   19.9220 C   0  0  0  0  0  2  0  0  0  0  0  0
  -32.4250  -19.9670   21.0800 C   0  0  0  0  0  2  0  0  0  0  0  0
  -32.8600  -18.5970   21.0770 O   0  0  0  0  0  0  0  0  0  0  0  0
  -36.0800  -16.4940   15.1510 C   0  0  0  0  0  0  0  0  0  0  0  0
  -32.6890  -17.9630   19.8740 C   0  0  0  0  0  0  0  0  0  0  0  0
  -33.6090  -16.5860   15.0570 C   0  0  0  0  0  3  0  0  0  0  0  0
  -32.4250  -16.8620   17.2990 C   0  0  0  0  0  0  0  0  0  0  0  0
  -34.8170  -16.1270   17.2660 C   0  0  0  0  0  2  0  0  0  0  0  0
  -33.6520  -16.7910   17.9690 C   0  0  0  0  0  0  0  0  0  0  0  0
  -33.7900  -17.3320   19.2610 C   0  0  0  0  0  3  0  0  0  0  0  0
  -31.4510  -18.0210   19.1980 C   0  0  0  0  0  3  0  0  0  0  0  0
  -31.3180  -17.4790   17.9090 C   0  0  0  0  0  3  0  0  0  0  0  0
  -32.3610  -16.2540   15.9180 C   0  0  0  0  0  2  0  0  0  0  0  0
  -34.8930  -16.4310   15.8170 N   0  0  0  0  0  0  0  0  0  0  0  0
  -36.1160  -16.6400   13.9210 O   0  0  0  0  0  0  0  0  0  0  0  0
  -33.4220  -17.9940   14.4480 C   0  0  0  0  0  0  0  0  0  0  0  0
  -32.6240  -18.0780   13.3710 N   0  0  0  0  0  0  0  0  0  0  0  0
  -33.9650  -18.9770   14.9560 O   0  0  0  0  0  0  0  0  0  0  0  0
  -32.2270  -17.2210   13.0090 H   0  0  0  0  0  0  0  0  0  0  0  0
  -30.5710  -19.4140   10.7190 C   0  0  0  0  0  0  0  0  0  0  0  0
  -32.2760  -19.3070   12.6610 C   0  0  0  0  0  3  0  0  0  0  0  0
  -31.2600  -20.1490   13.4620 C   0  0  0  0  0  2  0  0  0  0  0  0
  -29.8080  -19.8210   13.1000 C   0  0  0  0  0  2  0  0  0  0  0  0
  -29.5590  -20.1130   11.6140 C   0  0  0  0  0  2  0  0  0  0  0  0
  -31.8400  -19.0120   11.2220 C   0  0  0  0  0  0  0  0  0  0  0  0
  -32.7270  -18.3230   10.3660 C   0  0  0  0  0  3  0  0  0  0  0  0
  -32.3640  -18.0260    9.0390 C   0  0  0  0  0  3  0  0  0  0  0  0
  -31.1150  -18.4420    8.5440 C   0  0  0  0  0  3  0  0  0  0  0  0
  -30.2250  -19.1370    9.3820 C   0  0  0  0  0  3  0  0  0  0  0  0
  -37.4460  -16.3680   15.8960 C   0  0  0  0  0  3  0  0  0  0  0  0
  -38.2560  -15.3930   15.1610 N   0  0  0  0  0  0  0  0  0  0  0  0
  -38.3900  -14.1030   15.5040 C   0  0  0  0  0  0  0  0  0  0  0  0
  -37.8900  -13.6280   16.5260 O   0  0  0  0  0  0  0  0  0  0  0  0
  -38.6490  -15.6980   14.2840 H   0  0  0  0  0  0  0  0  0  0  0  0
  -38.2580  -12.3230   13.7360 C   0  0  0  0  0  1  0  0  0  0  0  0
  -39.2090  -13.2040   14.5650 C   0  0  0  0  0  3  0  0  0  0  0  0
  -41.3500  -13.0820   15.7580 C   0  0  0  0  0  1  0  0  0  0  0  0
  -40.1860  -12.3460   15.2720 N   0  0  0  0  0  0  0  0  0  0  0  0
  -40.5160  -11.5960   14.6670 H   0  0  0  0  0  0  0  0  0  0  0  0
  -38.2070  -17.7460   16.0330 C   0  0  1  0  0  0  0  0  0  0  0  0
  -38.8500  -18.2340   14.7140 C   0  0  0  0  0  1  0  0  0  0  0  0
  -37.2480  -18.8510   16.5340 C   0  0  0  0  0  1  0  0  0  0  0  0
  -39.3260  -17.6160   17.0940 C   0  0  0  0  0  1  0  0  0  0  0  0
  1 50  1  0
  2  3  1  0
  2  1  1  0
  3  4  1  0
  4  5  1  0
  6 13  2  0
  8  7  1  0
  9  8  1  0
 10 19  1  0
 10  9  1  0
 10 11  1  0
 11 12  1  0
 12  7  1  0
 12  6  1  0
 14  6  1  0
 14  5  1  0
 15 14  1  0
 16 41  1  0
 16 19  1  0
 17 18  1  0
 17 16  2  0
 18 20  2  0
 20 19  1  0
 21 18  1  0
 22 21  1  0
 23 22  2  0
 24 25  2  0
 24 23  1  0
 25 26  1  0
 26 21  2  0
 27 24  1  0
 28 27  1  0
 29 28  2  0
 30 29  1  0
 31 30  2  0
 31 32  1  0
 32 33  2  0
 33 28  1  0
 33 34  1  0
 35 31  1  0
 36 17  1  0
 37 39  1  0
 37 36  1  0
 38 36  2  0
 40 37  1  0
 41 43  1  0
 42 41  1  0
 44  3  1  0
 45 44  1  0
 46 49  1  0
 46 45  1  0
 47 46  1  0
 48 46  1  0
 50 51  1  0
 51 52  1  0
 52 53  1  0
 52 55  1  0
 52 54  1  0
 55 56  1  0
 56 57  1  0
 58 57  1  0
 59 69  1  0
 60 58  1  0
 61 71  1  0
 61 69  1  0
 61 68  1  0
 62 67  2  0
 62 64  1  0
 63 64  1  0
 64 65  2  0
 65 60  1  0
 66 60  2  0
 67 66  1  0
 68 62  1  0
 69 63  1  0
 70 59  2  0
 71 73  2  0
 72 71  1  0
 74 72  1  0
 75 80  1  0
 75 79  1  0
 76 72  1  0
 76 77  1  0
 78 77  1  0
 79 78  1  0
 80 76  1  0
 81 80  2  0
 82 81  1  0
 83 82  2  0
 83 84  1  0
 84 75  2  0
 85 59  1  0
 85 95  1  0
 86 87  1  0
 86 85  1  0
 87 88  2  0
 89 86  1  0
 91 90  1  0
 91 93  1  0
 91 87  1  0
 93 92  1  0
 94 93  1  0
 95 97  1  1
 95 98  1  0
 96 95  1  0
M  ISO  4   6 100  14 100  57 101  58 101
M  END
>  <TORSDO>  (78) 
F 29

>  <SCORE>  (78) 
-2.450

>  <name>  (78) 
81

>  <ligand_id>  (78) 
81

>  <original_smiles>  (78) 
[H]c1c([H])c([H])c2c(c1[H])C([H])([H])C([H])([H])C([H])([H])C2([H])N([H])C(=O)C1([H])N(C(=O)C([H])(N([H])C(=O)C([H])(N([H])C([H])([H])[H])C([H])([H])[H])C(C([H])([H])[H])(C([H])([H])[H])C([H])([H])[H])C([H])([H])c2c([H])c(OC([H])([H])C([H])([H])C([H])([H])[N+]([H])([H])C([H])([H])C([H])([H])C([H])([H])C([H])([H])N(C([H])([H])C([H])([H])N([H])C(=O)N3C([H])([H])C([H])([H])C([H])([H])C([H])(n4nc(-c5c([H])c([H])c(Oc6c([H])c([H])c(F)c([H])c6F)c([H])c5[H])c(C(=O)N([H])[H])c4N([H])[H])C3([H])[H])C([H])([H])C([H])([H])[N+]([H])([H])[H])c([H])c([H])c2C1([H])[H]

>  <smiles>  (78) 
[H]c1c([H])c([H])c2c(c1[H])C([H])([H])C([H])([H])C([H])([H])C2([H])N([H])C(=O)C1([H])N(C(=O)C([H])(N([H])C(=O)C([H])(N([H])C([H])([H])[H])C([H])([H])[H])C(C([H])([H])[H])(C([H])([H])[H])C([H])([H])[H])C([H])([H])c2c([H])c(OC([H])([H])C([H])([H])C([H])([H])[N+]([H])([H])C([H])([H])C([H])([H])C([H])([H])C([H])([H])N(C([H])([H])C([H])([H])N([H])C(=O)N3C([H])([H])C([H])([H])C([H])([H])C([H])(n4nc(-c5c([H])c([H])c(Oc6c([H])c([H])c(F)c([H])c6F)c([H])c5[H])c(C(=O)N([H])[H])c4N([H])[H])C3([H])[H])C([H])([H])C([H])([H])[N+]([H])([H])[H])c([H])c([H])c2C1([H])[H]

$$$$
82:0:0
     RDKit          3D

 91 99  0  0  1  0  0  0  0  0999 V2000
  -30.8480  -15.0470   19.6280 C   0  0  0  0  0  0  0  0  0  0  0  0
  -30.9640  -12.5480   19.1000 C   0  0  0  0  0  2  0  0  0  0  0  0
  -29.9790  -12.1620   17.9640 C   0  0  0  0  0  2  0  0  0  0  0  0
  -28.5480  -11.9230   18.4930 C   0  0  0  0  0  2  0  0  0  0  0  0
  -28.1280  -12.9900   19.5360 C   0  0  0  0  0  3  0  0  0  0  0  0
  -29.2450  -13.1970   20.5890 C   0  0  0  0  0  2  0  0  0  0  0  0
  -30.4000  -13.7250   19.8390 N   0  0  0  0  0  0  0  0  0  0  0  0
  -32.0000  -15.1380   19.1800 O   0  0  0  0  0  0  0  0  0  0  0  0
  -29.3200  -19.0400   19.2070 C   0  0  0  0  0  0  0  0  0  0  0  0
  -30.1930  -17.6250   18.9250 C   0  0  0  0  0  2  0  0  0  0  0  0
  -27.9000  -17.4520   20.5120 C   0  0  0  0  0  2  0  0  0  0  0  0
  -28.8850  -16.2820   20.6340 C   0  0  0  0  0  2  0  0  0  0  0  0
  -28.5650  -18.8290   20.5310 C   0  0  0  0  0  3  0  0  0  0  0  0
  -29.2840  -20.1920   18.4620 N   0  0  0  0  0  0  0  0  0  0  0  0
  -29.9900  -16.2210   19.6590 N   0  0  0  0  0  0  0  0  0  0  0  0
  -25.8440  -13.5940   20.5290 C   0  0  0  0  0  0  0  0  0  0  0  0
  -24.7990  -12.8250   20.9630 C   0  0  0  0  0  0  0  0  0  0  0  0
  -25.2130  -11.4700   20.7920 C   0  0  0  0  0  0  0  0  0  0  0  0
  -26.8320  -12.7060   20.1380 N   0  0  0  0  0  0  0  0  0  0  0  0
  -26.4650  -11.4180   20.3510 N   0  0  0  0  0  0  0  0  0  0  0  0
  -24.4660  -10.2180   20.9650 C   0  0  0  0  0  0  0  0  0  0  0  0
  -24.9000   -9.2220   21.8650 C   0  0  0  0  0  3  0  0  0  0  0  0
  -24.1560   -8.0350   22.0300 C   0  0  0  0  0  3  0  0  0  0  0  0
  -22.9640   -7.8360   21.2940 C   0  0  0  0  0  0  0  0  0  0  0  0
  -22.5490   -8.8220   20.3800 C   0  0  0  0  0  3  0  0  0  0  0  0
  -23.2940  -10.0010   20.2140 C   0  0  0  0  0  3  0  0  0  0  0  0
  -22.1910   -6.7040   21.3690 O   0  0  0  0  0  0  0  0  0  0  0  0
  -21.9850   -6.0510   22.5580 C   0  0  0  0  0  0  0  0  0  0  0  0
  -21.3760   -6.6870   23.6620 C   0  0  0  0  0  3  0  0  0  0  0  0
  -21.1160   -5.9560   24.8380 C   0  0  0  0  0  3  0  0  0  0  0  0
  -21.4610   -4.5920   24.9120 C   0  0  0  0  0  0  0  0  0  0  0  0
  -22.0660   -3.9590   23.8130 C   0  0  0  0  0  3  0  0  0  0  0  0
  -22.3230   -4.6860   22.6370 C   0  0  0  0  0  0  0  0  0  0  0  0
  -22.8830   -4.0640   21.5710 F   0  0  0  0  0  0  0  0  0  0  0  0
  -21.2080   -3.8880   26.0390 F   0  0  0  0  0  0  0  0  0  0  0  0
  -23.4560  -13.3220   21.4110 C   0  0  0  0  0  0  0  0  0  0  0  0
  -22.8080  -12.5950   22.3130 N   0  0  0  0  0  0  0  0  0  0  0  0
  -22.9950  -14.3840   20.9970 O   0  0  0  0  0  0  0  0  0  0  0  0
  -23.2020  -11.7350   22.6660 H   0  0  0  0  0  0  0  0  0  0  0  0
  -21.9100  -12.9050   22.6580 H   0  0  0  0  0  0  0  0  0  0  0  0
  -26.0110  -14.9690   20.4070 N   0  0  0  0  0  0  0  0  0  0  0  0
  -25.2330  -15.5990   20.5720 H   0  0  0  0  0  0  0  0  0  0  0  0
  -26.7720  -15.4040   19.9050 H   0  0  0  0  0  0  0  0  0  0  0  0
  -27.5580  -19.8480   20.8630 N   0  0  0  0  0  4  0  0  0  0  0  0
  -26.7730  -19.7910   20.2380 H   0  0  0  0  0  0  0  0  0  0  0  0
  -27.9730  -20.7590   20.7960 H   0  0  0  0  0  0  0  0  0  0  0  0
  -27.2310  -19.7210   21.8040 H   0  0  0  0  0  0  0  0  0  0  0  0
  -28.4690  -21.5430   18.6710 C   0  0  0  0  0  3  0  0  0  0  0  0
  -28.5290  -22.9080   17.6730 C   0  0  0  0  0  3  0  0  0  0  0  0
  -27.5450  -24.2770   17.8700 C   0  0  0  0  0  2  0  0  0  0  0  0
  -27.7910  -25.7720   17.4790 O   0  0  0  0  0  0  0  0  0  0  0  0
  -25.6530  -30.2030   22.9990 C   0  0  0  0  0  0  0  0  0  0  0  0
  -26.9760  -26.8500   17.9930 C   0  0  0  0  0  0  0  0  0  0  0  0
  -24.1100  -29.9090   21.0990 C   0  0  0  0  0  3  0  0  0  0  0  0
  -25.1090  -28.8560   18.9780 C   0  0  0  0  0  0  0  0  0  0  0  0
  -26.6500  -29.7190   20.7340 C   0  0  0  0  0  2  0  0  0  0  0  0
  -26.3790  -28.7580   19.5620 C   0  0  0  0  0  0  0  0  0  0  0  0
  -27.3160  -27.7780   19.0600 C   0  0  0  0  0  3  0  0  0  0  0  0
  -25.7050  -27.0660   17.4160 C   0  0  0  0  0  3  0  0  0  0  0  0
  -24.7880  -28.0270   17.8940 C   0  0  0  0  0  3  0  0  0  0  0  0
  -24.1250  -29.8650   19.5480 C   0  0  0  0  0  2  0  0  0  0  0  0
  -25.4970  -29.9370   21.6660 N   0  0  0  0  0  0  0  0  0  0  0  0
  -24.6800  -30.4350   23.7320 O   0  0  0  0  0  0  0  0  0  0  0  0
  -23.2510  -28.7360   21.6400 C   0  0  0  0  0  0  0  0  0  0  0  0
  -21.9150  -28.8780   21.5870 N   0  0  0  0  0  0  0  0  0  0  0  0
  -23.7910  -27.7160   22.0760 O   0  0  0  0  0  0  0  0  0  0  0  0
  -21.5440  -29.7470   21.2300 H   0  0  0  0  0  0  0  0  0  0  0  0
  -18.3660  -28.2100   21.8940 C   0  0  0  0  0  0  0  0  0  0  0  0
  -20.9280  -27.8720   21.9980 C   0  0  0  0  0  3  0  0  0  0  0  0
  -20.7280  -26.8080   20.8960 C   0  0  0  0  0  2  0  0  0  0  0  0
  -19.5690  -27.1320   19.9470 C   0  0  0  0  0  2  0  0  0  0  0  0
  -18.2550  -27.2480   20.7240 C   0  0  0  0  0  2  0  0  0  0  0  0
  -19.6230  -28.5150   22.4820 C   0  0  0  0  0  0  0  0  0  0  0  0
  -19.6720  -29.4380   23.5480 C   0  0  0  0  0  3  0  0  0  0  0  0
  -18.4990  -30.0510   24.0260 C   0  0  0  0  0  3  0  0  0  0  0  0
  -17.2560  -29.7360   23.4500 C   0  0  0  0  0  3  0  0  0  0  0  0
  -17.1920  -28.8150   22.3900 C   0  0  0  0  0  3  0  0  0  0  0  0
  -27.0630  -30.2480   23.6620 C   0  0  0  0  0  3  0  0  0  0  0  0
  -27.4860  -28.8740   24.3160 C   0  0  1  0  0  0  0  0  0  0  0  0
  -26.4270  -28.2950   25.2830 C   0  0  0  0  0  1  0  0  0  0  0  0
  -27.7610  -27.8090   23.2320 C   0  0  0  0  0  1  0  0  0  0  0  0
  -28.8070  -29.0540   25.1010 C   0  0  0  0  0  1  0  0  0  0  0  0
  -27.0500  -31.3150   24.6750 N   0  0  0  0  0  0  0  0  0  0  0  0
  -27.6050  -32.5250   24.5200 C   0  0  0  0  0  0  0  0  0  0  0  0
  -28.2470  -32.8400   23.5140 O   0  0  0  0  0  0  0  0  0  0  0  0
  -26.4940  -31.1460   25.5010 H   0  0  0  0  0  0  0  0  0  0  0  0
  -26.3270  -34.5580   25.2740 C   0  0  0  0  0  1  0  0  0  0  0  0
  -27.4190  -33.5470   25.6590 C   0  0  0  0  0  3  0  0  0  0  0  0
  -29.6600  -33.4230   26.6540 C   0  0  0  0  0  1  0  0  0  0  0  0
  -28.6620  -34.2710   26.0100 N   0  0  0  0  0  0  0  0  0  0  0  0
  -28.4630  -35.0530   26.6270 H   0  0  0  0  0  0  0  0  0  0  0  0
  1 15  1  0
  1  7  1  0
  2  7  1  0
  3  4  1  0
  3  2  1  0
  5  4  1  0
  5 19  1  0
  5  6  1  0
  7  6  1  0
  8  1  2  0
  9 13  1  0
 10  9  1  0
 10 15  1  0
 11 13  1  0
 11 12  1  0
 13 44  1  0
 14 48  1  0
 14  9  2  0
 15 12  1  0
 16 17  2  0
 17 36  1  0
 18 17  1  0
 18 21  1  0
 19 20  1  0
 19 16  1  0
 20 18  2  0
 21 22  1  0
 22 23  2  0
 24 27  1  0
 24 23  1  0
 25 24  2  0
 26 25  1  0
 26 21  2  0
 27 28  1  0
 28 33  2  0
 28 29  1  0
 29 30  2  0
 30 31  1  0
 31 35  1  0
 32 31  2  0
 33 32  1  0
 34 33  1  0
 36 37  1  0
 37 40  1  0
 37 39  1  0
 38 36  2  0
 41 16  1  0
 41 42  1  0
 43 41  1  0
 44 47  1  0
 45 44  1  0
 46 44  1  0
 49 50  1  0
 49 48  2  0
 51 50  1  0
 51 53  1  0
 52 63  2  0
 53 58  1  0
 54 64  1  0
 54 62  1  0
 55 61  1  0
 55 57  1  0
 56 62  1  0
 57 56  1  0
 58 57  2  0
 59 60  1  0
 59 53  2  0
 60 55  2  0
 61 54  1  0
 62 52  1  0
 64 66  2  0
 65 64  1  0
 67 65  1  0
 68 77  2  0
 68 73  1  0
 69 65  1  0
 69 73  1  0
 70 69  1  0
 71 72  1  0
 71 70  1  0
 72 68  1  0
 73 74  2  0
 74 75  1  0
 76 75  2  0
 77 76  1  0
 78 52  1  0
 78 79  1  0
 78 83  1  0
 79 82  1  1
 79 80  1  0
 81 79  1  0
 83 86  1  0
 84 83  1  0
 84 88  1  0
 85 84  2  0
 88 87  1  0
 88 90  1  0
 90 91  1  0
 90 89  1  0
M  ISO  4   1 100  15 100  50 101  51 101
M  END
>  <TORSDO>  (79) 
F 19

>  <SCORE>  (79) 
-11.280

>  <name>  (79) 
82

>  <ligand_id>  (79) 
82

>  <original_smiles>  (79) 
[H]c1c([H])c([H])c2c(c1[H])C([H])([H])C([H])([H])C([H])([H])C2([H])N([H])C(=O)C1([H])N(C(=O)C([H])(N([H])C(=O)C([H])(N([H])C([H])([H])[H])C([H])([H])[H])C(C([H])([H])[H])(C([H])([H])[H])C([H])([H])[H])C([H])([H])c2c([H])c(OC([H])([H])C([H])([H])C([H])([H])N=C3C([H])([H])N(C(=O)N4C([H])([H])C([H])([H])C([H])([H])C([H])(n5nc(-c6c([H])c([H])c(Oc7c([H])c([H])c(F)c([H])c7F)c([H])c6[H])c(C(=O)N([H])[H])c5N([H])[H])C4([H])[H])C([H])([H])C([H])([H])C3([H])[N+]([H])([H])[H])c([H])c([H])c2C1([H])[H]

>  <smiles>  (79) 
[H]c1c([H])c([H])c2c(c1[H])C([H])([H])C([H])([H])C([H])([H])C2([H])N([H])C(=O)C1([H])N(C(=O)C([H])(N([H])C(=O)C([H])(N([H])C([H])([H])[H])C([H])([H])[H])C(C([H])([H])[H])(C([H])([H])[H])C([H])([H])[H])C([H])([H])c2c([H])c(OC([H])([H])C([H])([H])C([H])([H])N=C3C([H])([H])N(C(=O)N4C([H])([H])C([H])([H])C([H])([H])C([H])(n5nc(-c6c([H])c([H])c(Oc7c([H])c([H])c(F)c([H])c7F)c([H])c6[H])c(C(=O)N([H])[H])c5N([H])[H])C4([H])[H])C([H])([H])C([H])([H])C3([H])[N+]([H])([H])[H])c([H])c([H])c2C1([H])[H]

$$$$
83:0:0
     RDKit          3D

106114  0  0  1  0  0  0  0  0999 V2000
  -28.1270  -18.4240   18.6750 N   0  0  2  0  0  4  0  0  0  0  0  0
  -28.9110  -18.2410   18.0660 H   0  0  0  0  0  0  0  0  0  0  0  0
  -28.5480  -18.1020   20.0700 C   0  0  0  0  0  2  0  0  0  0  0  0
  -29.4980  -16.8890   20.1480 C   0  0  0  0  0  2  0  0  0  0  0  0
  -29.4730  -16.1930   21.5370 C   0  0  0  0  0  2  0  0  0  0  0  0
  -30.8210  -14.3470   20.6680 C   0  0  0  0  0  0  0  0  0  0  0  0
  -30.4090  -12.2850   19.3920 C   0  0  0  0  0  2  0  0  0  0  0  0
  -29.4740  -12.5330   18.1940 C   0  0  0  0  0  2  0  0  0  0  0  0
  -28.0020  -12.3950   18.6180 C   0  0  0  0  0  2  0  0  0  0  0  0
  -27.6700  -13.2100   19.8960 C   0  0  0  0  0  3  0  0  0  0  0  0
  -28.7200  -12.9600   21.0060 C   0  0  0  0  0  2  0  0  0  0  0  0
  -30.0630  -13.2380   20.4560 N   0  0  0  0  0  0  0  0  0  0  0  0
  -31.8420  -14.5990   20.0220 O   0  0  0  0  0  0  0  0  0  0  0  0
  -30.4870  -15.1280   21.7190 N   0  0  0  0  0  0  0  0  0  0  0  0
  -25.2620  -13.8160   20.5910 C   0  0  0  0  0  0  0  0  0  0  0  0
  -24.1840  -13.0420   20.9160 C   0  0  0  0  0  0  0  0  0  0  0  0
  -24.6400  -11.6880   20.8690 C   0  0  0  0  0  0  0  0  0  0  0  0
  -26.3080  -12.9360   20.3520 N   0  0  0  0  0  0  0  0  0  0  0  0
  -25.9350  -11.6510   20.5790 N   0  0  0  0  0  0  0  0  0  0  0  0
  -23.9070  -10.4280   21.0380 C   0  0  0  0  0  0  0  0  0  0  0  0
  -24.3620   -9.4210   21.9170 C   0  0  0  0  0  3  0  0  0  0  0  0
  -23.6290   -8.2250   22.0740 C   0  0  0  0  0  3  0  0  0  0  0  0
  -22.4270   -8.0280   21.3540 C   0  0  0  0  0  0  0  0  0  0  0  0
  -21.9910   -9.0250   20.4650 C   0  0  0  0  0  3  0  0  0  0  0  0
  -22.7240  -10.2120   20.3040 C   0  0  0  0  0  3  0  0  0  0  0  0
  -21.6630   -6.8880   21.4240 O   0  0  0  0  0  0  0  0  0  0  0  0
  -21.6850   -6.0740   22.5280 C   0  0  0  0  0  0  0  0  0  0  0  0
  -21.4020   -6.5650   23.8200 C   0  0  0  0  0  3  0  0  0  0  0  0
  -21.3650   -5.6800   24.9170 C   0  0  0  0  0  3  0  0  0  0  0  0
  -21.6030   -4.3060   24.7220 C   0  0  0  0  0  0  0  0  0  0  0  0
  -21.8820   -3.8150   23.4350 C   0  0  0  0  0  3  0  0  0  0  0  0
  -21.9200   -4.6970   22.3400 C   0  0  0  0  0  0  0  0  0  0  0  0
  -22.1660   -4.2160   21.0990 F   0  0  0  0  0  0  0  0  0  0  0  0
  -21.5620   -3.4540   25.7740 F   0  0  0  0  0  0  0  0  0  0  0  0
  -22.7870  -13.5240   21.1820 C   0  0  0  0  0  0  0  0  0  0  0  0
  -22.0510  -12.8220   22.0350 N   0  0  0  0  0  0  0  0  0  0  0  0
  -22.3600  -14.5560   20.6680 O   0  0  0  0  0  0  0  0  0  0  0  0
  -22.4130  -11.9870   22.4720 H   0  0  0  0  0  0  0  0  0  0  0  0
  -21.1130  -13.1240   22.2570 H   0  0  0  0  0  0  0  0  0  0  0  0
  -25.4400  -15.1920   20.4810 N   0  0  0  0  0  0  0  0  0  0  0  0
  -24.6830  -15.8390   20.6750 H   0  0  0  0  0  0  0  0  0  0  0  0
  -26.3390  -15.6350   20.3850 H   0  0  0  0  0  0  0  0  0  0  0  0
  -31.4770  -15.4590   22.7760 C   0  0  0  0  0  2  0  0  0  0  0  0
  -32.6490  -14.4520   22.9570 C   0  0  0  0  0  2  0  0  0  0  0  0
  -33.4810  -14.7380   24.1380 N   0  0  0  0  0  4  0  0  0  0  0  0
  -33.8660  -15.6650   24.1070 H   0  0  0  0  0  0  0  0  0  0  0  0
  -34.2470  -14.0850   24.1700 H   0  0  0  0  0  0  0  0  0  0  0  0
  -32.9580  -14.6320   24.9880 H   0  0  0  0  0  0  0  0  0  0  0  0
  -27.7700  -19.8610   18.5170 C   0  0  0  0  0  2  0  0  0  0  0  0
  -28.9820  -20.8150   18.4550 C   0  0  0  0  0  2  0  0  0  0  0  0
  -28.5260  -22.2650   18.2090 C   0  0  0  0  0  2  0  0  0  0  0  0
  -29.6490  -23.3080   18.3460 C   0  0  0  0  0  2  0  0  0  0  0  0
  -29.1020  -24.6780   18.2560 N   0  0  0  0  0  4  0  0  0  0  0  0
  -28.3250  -24.7390   18.8970 H   0  0  0  0  0  0  0  0  0  0  0  0
  -28.7460  -24.8420   17.3260 H   0  0  0  0  0  0  0  0  0  0  0  0
  -30.0330  -25.7640   18.6340 C   0  0  0  0  0  2  0  0  0  0  0  0
  -29.2450  -27.0440   18.9400 C   0  0  0  0  0  2  0  0  0  0  0  0
  -28.3920  -26.7450   20.0410 O   0  0  0  0  0  0  0  0  0  0  0  0
  -24.6100  -31.8720   23.2140 C   0  0  0  0  0  0  0  0  0  0  0  0
  -27.2380  -27.4820   20.0770 C   0  0  0  0  0  0  0  0  0  0  0  0
  -23.3970  -30.4950   21.5540 C   0  0  0  0  0  3  0  0  0  0  0  0
  -24.8450  -28.9640   20.1180 C   0  0  0  0  0  0  0  0  0  0  0  0
  -25.9220  -30.8490   21.3600 C   0  0  0  0  0  2  0  0  0  0  0  0
  -26.0010  -29.4850   20.7120 C   0  0  0  0  0  0  0  0  0  0  0  0
  -27.2040  -28.7470   20.6970 C   0  0  0  0  0  3  0  0  0  0  0  0
  -26.0650  -26.9530   19.5010 C   0  0  0  0  0  3  0  0  0  0  0  0
  -24.8670  -27.6920   19.5170 C   0  0  0  0  0  3  0  0  0  0  0  0
  -23.6050  -29.8270   20.1680 C   0  0  0  0  0  2  0  0  0  0  0  0
  -24.6610  -31.0840   22.1020 N   0  0  0  0  0  0  0  0  0  0  0  0
  -23.5300  -32.1440   23.7560 O   0  0  0  0  0  0  0  0  0  0  0  0
  -22.7390  -29.4680   22.5010 C   0  0  0  0  0  0  0  0  0  0  0  0
  -21.4120  -29.3030   22.3750 N   0  0  0  0  0  0  0  0  0  0  0  0
  -23.4180  -28.8220   23.3030 O   0  0  0  0  0  0  0  0  0  0  0  0
  -20.9280  -29.8760   21.6980 H   0  0  0  0  0  0  0  0  0  0  0  0
  -18.0270  -28.1370   22.8500 C   0  0  0  0  0  0  0  0  0  0  0  0
  -20.5860  -28.3660   23.1330 C   0  0  0  0  0  3  0  0  0  0  0  0
  -20.6760  -26.9400   22.5420 C   0  0  0  0  0  2  0  0  0  0  0  0
  -19.5740  -26.6390   21.5210 C   0  0  0  0  0  2  0  0  0  0  0  0
  -18.1920  -26.7920   22.1620 C   0  0  0  0  0  2  0  0  0  0  0  0
  -19.1520  -28.8830   23.2910 C   0  0  0  0  0  0  0  0  0  0  0  0
  -18.9450  -30.1440   23.8920 C   0  0  0  0  0  3  0  0  0  0  0  0
  -17.6450  -30.6580   24.0570 C   0  0  0  0  0  3  0  0  0  0  0  0
  -16.5340  -29.9090   23.6320 C   0  0  0  0  0  3  0  0  0  0  0  0
  -16.7260  -28.6500   23.0340 C   0  0  0  0  0  3  0  0  0  0  0  0
  -25.9010  -32.4850   23.8420 C   0  0  0  0  0  3  0  0  0  0  0  0
  -25.5880  -33.8640   24.2360 N   0  0  0  0  0  0  0  0  0  0  0  0
  -25.9030  -34.9490   23.5150 C   0  0  0  0  0  0  0  0  0  0  0  0
  -26.5580  -34.8930   22.4700 O   0  0  0  0  0  0  0  0  0  0  0  0
  -25.0040  -33.9820   25.0510 H   0  0  0  0  0  0  0  0  0  0  0  0
  -24.1490  -36.7330   23.2640 C   0  0  0  0  0  1  0  0  0  0  0  0
  -25.4110  -36.3130   24.0340 C   0  0  0  0  0  3  0  0  0  0  0  0
  -27.5580  -37.1840   24.8480 C   0  0  0  0  0  1  0  0  0  0  0  0
  -26.4310  -37.3800   23.9380 N   0  0  0  0  0  0  0  0  0  0  0  0
  -26.0210  -38.2900   24.1310 H   0  0  0  0  0  0  0  0  0  0  0  0
  -26.4450  -31.6610   25.0730 C   0  0  1  0  0  0  0  0  0  0  0  0
  -25.3740  -31.3700   26.1490 C   0  0  0  0  0  1  0  0  0  0  0  0
  -27.0270  -30.3060   24.6060 C   0  0  0  0  0  1  0  0  0  0  0  0
  -27.6030  -32.4320   25.7490 C   0  0  0  0  0  1  0  0  0  0  0  0
  -27.0030  -17.5410   18.2490 C   0  0  0  0  0  2  0  0  0  0  0  0
  -26.8350  -17.3810   16.7200 C   0  0  0  0  0  2  0  0  0  0  0  0
  -23.6320  -14.8180   15.0050 C   0  0  0  0  0  2  0  0  0  0  0  0
  -23.8230  -16.2480   14.4730 C   0  0  0  0  0  2  0  0  0  0  0  0
  -23.9240  -14.7420   16.5100 C   0  0  0  0  0  2  0  0  0  0  0  0
  -25.2130  -16.8070   14.8240 C   0  0  0  0  0  2  0  0  0  0  0  0
  -25.3200  -15.2950   16.8300 C   0  0  0  0  0  2  0  0  0  0  0  0
  -25.4750  -16.7520   16.3410 C   0  0  0  0  0  3  0  0  0  0  0  0
  1  3  1  0
  1  2  1  6
  3  4  1  0
  4  5  1  0
  5 14  1  0
  6 14  1  0
  7 12  1  0
  8  9  1  0
  8  7  1  0
 10  9  1  0
 10 18  1  0
 10 11  1  0
 12  6  1  0
 12 11  1  0
 13  6  2  0
 14 43  1  0
 15 16  2  0
 16 35  1  0
 17 16  1  0
 17 20  1  0
 18 19  1  0
 18 15  1  0
 19 17  2  0
 20 21  1  0
 21 22  2  0
 23 26  1  0
 23 22  1  0
 24 23  2  0
 25 24  1  0
 25 20  2  0
 26 27  1  0
 27 28  1  0
 28 29  2  0
 30 29  1  0
 30 34  1  0
 31 30  2  0
 32 27  2  0
 32 31  1  0
 33 32  1  0
 35 36  1  0
 36 39  1  0
 36 38  1  0
 37 35  2  0
 40 15  1  0
 40 41  1  0
 42 40  1  0
 43 44  1  0
 44 45  1  0
 45 47  1  0
 45 48  1  0
 46 45  1  0
 49  1  1  0
 50 49  1  0
 51 52  1  0
 51 50  1  0
 53 52  1  0
 53 56  1  0
 53 54  1  0
 55 53  1  0
 56 57  1  0
 57 58  1  0
 58 60  1  0
 59 70  2  0
 60 65  1  0
 61 69  1  0
 61 71  1  0
 62 68  1  0
 62 64  1  0
 63 69  1  0
 64 63  1  0
 65 64  2  0
 66 67  1  0
 66 60  2  0
 67 62  2  0
 68 61  1  0
 69 59  1  0
 71 73  2  0
 72 71  1  0
 74 72  1  0
 75 84  2  0
 75 80  1  0
 76 72  1  0
 76 80  1  0
 77 76  1  0
 78 79  1  0
 78 77  1  0
 79 75  1  0
 80 81  2  0
 81 82  1  0
 83 82  2  0
 84 83  1  0
 85 59  1  0
 85 86  1  0
 85 95  1  0
 86 89  1  0
 87 91  1  0
 87 86  1  0
 88 87  2  0
 91 90  1  0
 93 91  1  0
 93 94  1  0
 93 92  1  0
 95 98  1  1
 95 96  1  0
 97 95  1  0
 99  1  1  0
100 99  1  0
101103  1  0
102104  1  0
102101  1  0
103105  1  0
104106  1  0
106100  1  0
106105  1  0
M  ISO  4   6 100  14 100  57 101  58 101
M  END
>  <TORSDO>  (80) 
F 32

>  <SCORE>  (80) 
31.861

>  <name>  (80) 
83

>  <ligand_id>  (80) 
83

>  <original_smiles>  (80) 
[H]c1c([H])c([H])c2c(c1[H])C([H])([H])C([H])([H])C([H])([H])C2([H])N([H])C(=O)C1([H])N(C(=O)C([H])(N([H])C(=O)C([H])(N([H])C([H])([H])[H])C([H])([H])[H])C(C([H])([H])[H])(C([H])([H])[H])C([H])([H])[H])C([H])([H])c2c([H])c(OC([H])([H])C([H])([H])[N+]([H])([H])C([H])([H])C([H])([H])C([H])([H])C([H])([H])[N+]([H])(C([H])([H])C([H])([H])C([H])([H])N(C(=O)N3C([H])([H])C([H])([H])C([H])([H])C([H])(n4nc(-c5c([H])c([H])c(Oc6c([H])c([H])c(F)c([H])c6F)c([H])c5[H])c(C(=O)N([H])[H])c4N([H])[H])C3([H])[H])C([H])([H])C([H])([H])[N+]([H])([H])[H])C([H])([H])C([H])([H])C3([H])C([H])([H])C([H])([H])C([H])([H])C([H])([H])C3([H])[H])c([H])c([H])c2C1([H])[H]

>  <smiles>  (80) 
[H]c1c([H])c([H])c2c(c1[H])C([H])([H])C([H])([H])C([H])([H])C2([H])N([H])C(=O)C1([H])N(C(=O)C([H])(N([H])C(=O)C([H])(N([H])C([H])([H])[H])C([H])([H])[H])C(C([H])([H])[H])(C([H])([H])[H])C([H])([H])[H])C([H])([H])c2c([H])c(OC([H])([H])C([H])([H])[N+]([H])([H])C([H])([H])C([H])([H])C([H])([H])C([H])([H])[N+]([H])(C([H])([H])C([H])([H])C([H])([H])N(C(=O)N3C([H])([H])C([H])([H])C([H])([H])C([H])(n4nc(-c5c([H])c([H])c(Oc6c([H])c([H])c(F)c([H])c6F)c([H])c5[H])c(C(=O)N([H])[H])c4N([H])[H])C3([H])[H])C([H])([H])C([H])([H])[N+]([H])([H])[H])C([H])([H])C([H])([H])C3([H])C([H])([H])C([H])([H])C([H])([H])C([H])([H])C3([H])[H])c([H])c([H])c2C1([H])[H]

$$$$
84:0:0
     RDKit          3D

 89 97  0  0  1  0  0  0  0  0999 V2000
  -29.1450  -18.9050   20.2310 C   0  0  0  0  0  0  0  0  0  0  0  0
  -31.4730  -19.4460   21.8920 C   0  0  0  0  0  2  0  0  0  0  0  0
  -30.3710  -20.5300   21.7620 C   0  0  0  0  0  2  0  0  0  0  0  0
  -30.9410  -17.9920   21.8470 C   0  0  0  0  0  2  0  0  0  0  0  0
  -29.5930  -20.4770   20.4290 C   0  0  0  0  0  3  0  0  0  0  0  0
  -30.2000  -17.6530   20.5360 C   0  0  0  0  0  3  0  0  0  0  0  0
  -27.9970  -18.6680   19.8510 O   0  0  0  0  0  0  0  0  0  0  0  0
  -30.5470  -14.9540   20.3240 C   0  0  0  0  0  0  0  0  0  0  0  0
  -30.3970  -12.6210   19.3630 C   0  0  0  0  0  2  0  0  0  0  0  0
  -29.4480  -12.5970   18.1440 C   0  0  0  0  0  2  0  0  0  0  0  0
  -27.9900  -12.3870   18.5950 C   0  0  0  0  0  2  0  0  0  0  0  0
  -27.6000  -13.3030   19.7850 C   0  0  0  0  0  3  0  0  0  0  0  0
  -28.6710  -13.3040   20.8970 C   0  0  0  0  0  2  0  0  0  0  0  0
  -29.9360  -13.7070   20.2710 N   0  0  0  0  0  0  0  0  0  0  0  0
  -31.7430  -15.0190   20.0250 O   0  0  0  0  0  0  0  0  0  0  0  0
  -29.7910  -16.1330   20.5190 N   0  0  0  0  0  0  0  0  0  0  0  0
  -28.8050  -15.9780   20.6710 H   0  0  0  0  0  0  0  0  0  0  0  0
  -25.2280  -13.8700   20.5620 C   0  0  0  0  0  0  0  0  0  0  0  0
  -24.1710  -13.0870   20.9400 C   0  0  0  0  0  0  0  0  0  0  0  0
  -24.6390  -11.7380   20.8900 C   0  0  0  0  0  0  0  0  0  0  0  0
  -26.2700  -12.9970   20.3000 N   0  0  0  0  0  0  0  0  0  0  0  0
  -25.9270  -11.7090   20.5630 N   0  0  0  0  0  0  0  0  0  0  0  0
  -23.9190  -10.4710   21.0770 C   0  0  0  0  0  0  0  0  0  0  0  0
  -24.3670   -9.4950   21.9930 C   0  0  0  0  0  3  0  0  0  0  0  0
  -23.6450   -8.2940   22.1680 C   0  0  0  0  0  3  0  0  0  0  0  0
  -22.4610   -8.0630   21.4290 C   0  0  0  0  0  0  0  0  0  0  0  0
  -22.0320   -9.0290   20.5030 C   0  0  0  0  0  3  0  0  0  0  0  0
  -22.7540  -10.2200   20.3240 C   0  0  0  0  0  3  0  0  0  0  0  0
  -21.7090   -6.9160   21.5160 O   0  0  0  0  0  0  0  0  0  0  0  0
  -21.6790   -6.1600   22.6610 C   0  0  0  0  0  0  0  0  0  0  0  0
  -21.2530   -6.6950   23.8960 C   0  0  0  0  0  3  0  0  0  0  0  0
  -21.1720   -5.8650   25.0320 C   0  0  0  0  0  3  0  0  0  0  0  0
  -21.5040   -4.5010   24.9340 C   0  0  0  0  0  0  0  0  0  0  0  0
  -21.9220   -3.9650   23.7030 C   0  0  0  0  0  3  0  0  0  0  0  0
  -22.0060   -4.7920   22.5690 C   0  0  0  0  0  0  0  0  0  0  0  0
  -22.3890   -4.2660   21.3810 F   0  0  0  0  0  0  0  0  0  0  0  0
  -21.4180   -3.7020   26.0230 F   0  0  0  0  0  0  0  0  0  0  0  0
  -22.7750  -13.5570   21.2300 C   0  0  0  0  0  0  0  0  0  0  0  0
  -22.0620  -12.8560   22.1040 N   0  0  0  0  0  0  0  0  0  0  0  0
  -22.3270  -14.5820   20.7190 O   0  0  0  0  0  0  0  0  0  0  0  0
  -22.4390  -12.0270   22.5400 H   0  0  0  0  0  0  0  0  0  0  0  0
  -21.1270  -13.1530   22.3420 H   0  0  0  0  0  0  0  0  0  0  0  0
  -25.3820  -15.2430   20.3930 N   0  0  0  0  0  0  0  0  0  0  0  0
  -24.6070  -15.8870   20.5180 H   0  0  0  0  0  0  0  0  0  0  0  0
  -26.2100  -15.6910   20.0240 H   0  0  0  0  0  0  0  0  0  0  0  0
  -28.5600  -21.7960   20.2800 C   0  0  0  0  0  2  0  0  0  0  0  0
  -28.9850  -23.4220   20.4060 C   0  0  0  0  0  3  0  0  0  0  0  0
  -27.9530  -24.7170   20.1390 C   0  0  0  0  0  3  0  0  0  0  0  0
  -28.2430  -26.2320   20.3050 O   0  0  0  0  0  0  0  0  0  0  0  0
  -24.6280  -31.9220   23.2530 C   0  0  0  0  0  0  0  0  0  0  0  0
  -27.1880  -27.2090   20.2310 C   0  0  0  0  0  0  0  0  0  0  0  0
  -23.4250  -30.5340   21.6090 C   0  0  0  0  0  3  0  0  0  0  0  0
  -24.8680  -28.9550   20.1900 C   0  0  0  0  0  0  0  0  0  0  0  0
  -25.9790  -30.7900   21.4530 C   0  0  0  0  0  2  0  0  0  0  0  0
  -26.0470  -29.3990   20.8010 C   0  0  0  0  0  0  0  0  0  0  0  0
  -27.2100  -28.5420   20.8040 C   0  0  0  0  0  3  0  0  0  0  0  0
  -25.9820  -26.8630   19.5830 C   0  0  0  0  0  3  0  0  0  0  0  0
  -24.8470  -27.7000   19.5660 C   0  0  0  0  0  3  0  0  0  0  0  0
  -23.6460  -29.8560   20.2320 C   0  0  0  0  0  2  0  0  0  0  0  0
  -24.6980  -31.1020   22.1600 N   0  0  0  0  0  0  0  0  0  0  0  0
  -23.5420  -32.2130   23.7770 O   0  0  0  0  0  0  0  0  0  0  0  0
  -22.7380  -29.5300   22.5690 C   0  0  0  0  0  0  0  0  0  0  0  0
  -21.4080  -29.3700   22.4380 N   0  0  0  0  0  0  0  0  0  0  0  0
  -23.4020  -28.8970   23.3940 O   0  0  0  0  0  0  0  0  0  0  0  0
  -20.9290  -29.9300   21.7480 H   0  0  0  0  0  0  0  0  0  0  0  0
  -18.0130  -28.2110   22.9420 C   0  0  0  0  0  0  0  0  0  0  0  0
  -20.5760  -28.4400   23.2060 C   0  0  0  0  0  3  0  0  0  0  0  0
  -20.6580  -27.0090   22.6260 C   0  0  0  0  0  2  0  0  0  0  0  0
  -19.5500  -26.7040   21.6120 C   0  0  0  0  0  2  0  0  0  0  0  0
  -18.1720  -26.8630   22.2590 C   0  0  0  0  0  2  0  0  0  0  0  0
  -19.1420  -28.9580   23.3720 C   0  0  0  0  0  0  0  0  0  0  0  0
  -18.9390  -30.2200   23.9730 C   0  0  0  0  0  3  0  0  0  0  0  0
  -17.6400  -30.7350   24.1460 C   0  0  0  0  0  3  0  0  0  0  0  0
  -16.5260  -29.9860   23.7300 C   0  0  0  0  0  3  0  0  0  0  0  0
  -16.7140  -28.7250   23.1350 C   0  0  0  0  0  3  0  0  0  0  0  0
  -25.9080  -32.5480   23.8850 C   0  0  0  0  0  3  0  0  0  0  0  0
  -26.4110  -31.7740   25.1650 C   0  0  1  0  0  0  0  0  0  0  0  0
  -25.3090  -31.5410   26.2250 C   0  0  0  0  0  1  0  0  0  0  0  0
  -26.9890  -30.3930   24.7800 C   0  0  0  0  0  1  0  0  0  0  0  0
  -27.5620  -32.5610   25.8350 C   0  0  0  0  0  1  0  0  0  0  0  0
  -25.6020  -33.9480   24.2200 N   0  0  0  0  0  0  0  0  0  0  0  0
  -25.9170  -35.0030   23.4580 C   0  0  0  0  0  0  0  0  0  0  0  0
  -26.5640  -34.9010   22.4110 O   0  0  0  0  0  0  0  0  0  0  0  0
  -25.0250  -34.1010   25.0340 H   0  0  0  0  0  0  0  0  0  0  0  0
  -24.1700  -36.7910   23.1640 C   0  0  0  0  0  1  0  0  0  0  0  0
  -25.4420  -36.3930   23.9290 C   0  0  0  0  0  3  0  0  0  0  0  0
  -27.6020  -37.2940   24.6780 C   0  0  0  0  0  1  0  0  0  0  0  0
  -26.4660  -37.4500   23.7720 N   0  0  0  0  0  0  0  0  0  0  0  0
  -26.0610  -38.3690   23.9270 H   0  0  0  0  0  0  0  0  0  0  0  0
  1  5  1  0
  1  6  1  0
  3  2  1  0
  4  2  1  0
  5 46  1  0
  5  3  1  0
  6 16  1  0
  6  4  1  0
  7  1  2  0
  8 16  1  0
  9 14  1  0
 10 11  1  0
 10  9  1  0
 12 11  1  0
 12 21  1  0
 12 13  1  0
 14  8  1  0
 14 13  1  0
 15  8  2  0
 16 17  1  0
 18 19  2  0
 19 38  1  0
 20 19  1  0
 20 23  1  0
 21 18  1  0
 21 22  1  0
 22 20  2  0
 23 24  1  0
 24 25  2  0
 26 29  1  0
 26 25  1  0
 27 26  2  0
 28 27  1  0
 28 23  2  0
 29 30  1  0
 30 31  1  0
 31 32  2  0
 33 32  1  0
 33 37  1  0
 34 33  2  0
 35 30  2  0
 35 34  1  0
 36 35  1  0
 38 39  1  0
 39 42  1  0
 39 41  1  0
 40 38  2  0
 43 44  1  0
 43 18  1  0
 45 43  1  0
 46 47  1  0
 48 49  1  0
 48 47  2  0
 50 61  2  0
 51 49  1  0
 51 56  1  0
 52 60  1  0
 52 62  1  0
 53 59  1  0
 53 55  1  0
 54 60  1  0
 55 56  2  0
 55 54  1  0
 57 51  2  0
 58 57  1  0
 58 53  2  0
 59 52  1  0
 60 50  1  0
 62 64  2  0
 63 62  1  0
 65 63  1  0
 66 75  2  0
 66 71  1  0
 67 63  1  0
 67 71  1  0
 68 67  1  0
 69 70  1  0
 69 68  1  0
 70 66  1  0
 71 72  2  0
 72 73  1  0
 74 73  2  0
 75 74  1  0
 76 50  1  0
 76 81  1  0
 76 77  1  0
 77 80  1  1
 77 78  1  0
 79 77  1  0
 81 84  1  0
 82 86  1  0
 82 81  1  0
 83 82  2  0
 86 85  1  0
 88 89  1  0
 88 86  1  0
 88 87  1  0
M  ISO  4   8 100  16 100  48 101  49 101
M  END
>  <TORSDO>  (81) 
F 19

>  <SCORE>  (81) 
-14.413

>  <name>  (81) 
84

>  <ligand_id>  (81) 
84

>  <original_smiles>  (81) 
[H]c1c([H])c([H])c2c(c1[H])C([H])([H])C([H])([H])C([H])([H])C2([H])N([H])C(=O)C1([H])N(C(=O)C([H])(N([H])C(=O)C([H])(N([H])C([H])([H])[H])C([H])([H])[H])C(C([H])([H])[H])(C([H])([H])[H])C([H])([H])[H])C([H])([H])c2c([H])c(OC([H])([H])C([H])([H])C([H])([H])C3([H])C(=O)C([H])(N([H])C(=O)N4C([H])([H])C([H])([H])C([H])([H])C([H])(n5nc(-c6c([H])c([H])c(Oc7c([H])c([H])c(F)c([H])c7F)c([H])c6[H])c(C(=O)N([H])[H])c5N([H])[H])C4([H])[H])C([H])([H])C([H])([H])C3([H])[H])c([H])c([H])c2C1([H])[H]

>  <smiles>  (81) 
[H]c1c([H])c([H])c2c(c1[H])C([H])([H])C([H])([H])C([H])([H])C2([H])N([H])C(=O)C1([H])N(C(=O)C([H])(N([H])C(=O)C([H])(N([H])C([H])([H])[H])C([H])([H])[H])C(C([H])([H])[H])(C([H])([H])[H])C([H])([H])[H])C([H])([H])c2c([H])c(OC([H])([H])C([H])([H])C([H])([H])C3([H])C(=O)C([H])(N([H])C(=O)N4C([H])([H])C([H])([H])C([H])([H])C([H])(n5nc(-c6c([H])c([H])c(Oc7c([H])c([H])c(F)c([H])c7F)c([H])c6[H])c(C(=O)N([H])[H])c5N([H])[H])C4([H])[H])C([H])([H])C([H])([H])C3([H])[H])c([H])c([H])c2C1([H])[H]

$$$$
85:0:0
     RDKit          3D

 99107  0  0  1  0  0  0  0  0999 V2000
  -30.8340  -19.1660   21.1360 C   0  0  0  0  0  3  0  0  0  0  0  0
  -28.4930  -18.5410   20.9110 C   0  0  0  0  0  3  0  0  0  0  0  0
  -30.5210  -20.4890   20.7640 C   0  0  0  0  0  3  0  0  0  0  0  0
  -28.1830  -19.8550   20.5090 C   0  0  0  0  0  3  0  0  0  0  0  0
  -29.8320  -18.1740   21.1550 C   0  0  0  0  0  0  0  0  0  0  0  0
  -29.1980  -20.8310   20.3950 C   0  0  0  0  0  0  0  0  0  0  0  0
  -30.1940  -16.7100   21.3830 C   0  0  0  0  0  2  0  0  0  0  0  0
  -30.9760  -14.7230   20.2670 C   0  0  0  0  0  0  0  0  0  0  0  0
  -30.6510  -12.5360   19.2090 C   0  0  0  0  0  2  0  0  0  0  0  0
  -29.7100  -12.7030   17.9990 C   0  0  0  0  0  2  0  0  0  0  0  0
  -28.2470  -12.5590   18.4480 C   0  0  0  0  0  2  0  0  0  0  0  0
  -27.9060  -13.4560   19.6660 C   0  0  0  0  0  3  0  0  0  0  0  0
  -28.9580  -13.3190   20.7860 C   0  0  0  0  0  2  0  0  0  0  0  0
  -30.2800  -13.5610   20.1930 N   0  0  0  0  0  0  0  0  0  0  0  0
  -32.1740  -14.8040   19.9800 O   0  0  0  0  0  0  0  0  0  0  0  0
  -30.2130  -15.8400   20.1790 N   0  0  0  0  0  0  0  0  0  0  0  0
  -25.5250  -14.1020   20.3820 C   0  0  0  0  0  0  0  0  0  0  0  0
  -24.4470  -13.3410   20.7520 C   0  0  0  0  0  0  0  0  0  0  0  0
  -24.8980  -11.9870   20.7330 C   0  0  0  0  0  0  0  0  0  0  0  0
  -26.5580  -13.2040   20.1570 N   0  0  0  0  0  0  0  0  0  0  0  0
  -26.1880  -11.9310   20.4300 N   0  0  0  0  0  0  0  0  0  0  0  0
  -24.1630  -10.7300   20.9300 C   0  0  0  0  0  0  0  0  0  0  0  0
  -24.5630   -9.7890   21.9030 C   0  0  0  0  0  3  0  0  0  0  0  0
  -23.8350   -8.5940   22.0830 C   0  0  0  0  0  3  0  0  0  0  0  0
  -22.6930   -8.3310   21.2890 C   0  0  0  0  0  0  0  0  0  0  0  0
  -22.3140   -9.2620   20.3050 C   0  0  0  0  0  3  0  0  0  0  0  0
  -23.0440  -10.4480   20.1240 C   0  0  0  0  0  3  0  0  0  0  0  0
  -21.9390   -7.1870   21.3810 O   0  0  0  0  0  0  0  0  0  0  0  0
  -21.8170   -6.4970   22.5620 C   0  0  0  0  0  0  0  0  0  0  0  0
  -21.3110   -7.1020   23.7330 C   0  0  0  0  0  3  0  0  0  0  0  0
  -21.1350   -6.3340   24.9030 C   0  0  0  0  0  3  0  0  0  0  0  0
  -21.4600   -4.9640   24.9030 C   0  0  0  0  0  0  0  0  0  0  0  0
  -21.9580   -4.3600   23.7370 C   0  0  0  0  0  3  0  0  0  0  0  0
  -22.1330   -5.1240   22.5690 C   0  0  0  0  0  0  0  0  0  0  0  0
  -22.5930   -4.5350   21.4400 F   0  0  0  0  0  0  0  0  0  0  0  0
  -21.2890   -4.2230   26.0220 F   0  0  0  0  0  0  0  0  0  0  0  0
  -23.0530  -13.8290   21.0140 C   0  0  0  0  0  0  0  0  0  0  0  0
  -22.3280  -13.1600   21.9050 N   0  0  0  0  0  0  0  0  0  0  0  0
  -22.6100  -14.8330   20.4580 O   0  0  0  0  0  0  0  0  0  0  0  0
  -22.6930  -12.3460   22.3750 H   0  0  0  0  0  0  0  0  0  0  0  0
  -21.3890  -13.4640   22.1140 H   0  0  0  0  0  0  0  0  0  0  0  0
  -25.7090  -15.4690   20.2010 N   0  0  0  0  0  0  0  0  0  0  0  0
  -24.9610  -16.1370   20.3420 H   0  0  0  0  0  0  0  0  0  0  0  0
  -26.5930  -15.9040   19.9710 H   0  0  0  0  0  0  0  0  0  0  0  0
  -30.2360  -16.4980   18.8430 C   0  0  0  0  0  2  0  0  0  0  0  0
  -29.1040  -17.5320   18.6250 C   0  0  0  0  0  2  0  0  0  0  0  0
  -28.9400  -18.1030   17.2030 C   0  0  0  0  0  2  0  0  0  0  0  0
  -30.0250  -19.0180   16.8090 N   0  0  0  0  0  4  0  0  0  0  0  0
  -30.1140  -19.7740   17.4630 H   0  0  0  0  0  0  0  0  0  0  0  0
  -29.8170  -19.4120   15.9070 H   0  0  0  0  0  0  0  0  0  0  0  0
  -30.9050  -18.5390   16.7410 H   0  0  0  0  0  0  0  0  0  0  0  0
  -28.8450  -22.2290   19.8850 C   0  0  0  0  0  2  0  0  0  0  0  0
  -29.8460  -22.7640   18.9370 N   0  0  0  0  0  4  0  0  0  0  0  0
  -29.3840  -23.1240   18.1180 H   0  0  0  0  0  0  0  0  0  0  0  0
  -30.3850  -21.9690   18.6330 H   0  0  0  0  0  0  0  0  0  0  0  0
  -30.7690  -23.7870   19.4850 C   0  0  0  0  0  2  0  0  0  0  0  0
  -30.2570  -25.2420   19.3550 C   0  0  0  0  0  2  0  0  0  0  0  0
  -29.0230  -25.6090   20.1970 C   0  0  0  0  0  2  0  0  0  0  0  0
  -28.8760  -27.0260   20.1260 O   0  0  0  0  0  0  0  0  0  0  0  0
  -24.6540  -31.7740   23.2850 C   0  0  0  0  0  0  0  0  0  0  0  0
  -27.6250  -27.5990   20.1450 C   0  0  0  0  0  0  0  0  0  0  0  0
  -23.5670  -30.3610   21.5660 C   0  0  0  0  0  3  0  0  0  0  0  0
  -25.1390  -28.9450   20.1450 C   0  0  0  0  0  0  0  0  0  0  0  0
  -26.0690  -30.8670   21.4480 C   0  0  0  0  0  2  0  0  0  0  0  0
  -26.2460  -29.5220   20.7740 C   0  0  0  0  0  0  0  0  0  0  0  0
  -27.4880  -28.8550   20.7730 C   0  0  0  0  0  3  0  0  0  0  0  0
  -26.4960  -27.0300   19.5100 C   0  0  0  0  0  3  0  0  0  0  0  0
  -25.2550  -27.6950   19.5160 C   0  0  0  0  0  3  0  0  0  0  0  0
  -23.8500  -29.7330   20.1750 C   0  0  0  0  0  2  0  0  0  0  0  0
  -24.7780  -31.0160   22.1590 N   0  0  0  0  0  0  0  0  0  0  0  0
  -23.5480  -31.9710   23.8060 O   0  0  0  0  0  0  0  0  0  0  0  0
  -22.9500  -29.2770   22.4780 C   0  0  0  0  0  0  0  0  0  0  0  0
  -21.6460  -29.0150   22.3000 N   0  0  0  0  0  0  0  0  0  0  0  0
  -23.6460  -28.6740   23.3030 O   0  0  0  0  0  0  0  0  0  0  0  0
  -21.1440  -29.5590   21.6120 H   0  0  0  0  0  0  0  0  0  0  0  0
  -18.3370  -27.6170   22.6620 C   0  0  0  0  0  0  0  0  0  0  0  0
  -20.8660  -28.0080   23.0190 C   0  0  0  0  0  3  0  0  0  0  0  0
  -21.0670  -26.6040   22.4020 C   0  0  0  0  0  2  0  0  0  0  0  0
  -20.0140  -26.2530   21.3470 C   0  0  0  0  0  2  0  0  0  0  0  0
  -18.6090  -26.3010   21.9530 C   0  0  0  0  0  2  0  0  0  0  0  0
  -19.3980  -28.4250   23.1490 C   0  0  0  0  0  0  0  0  0  0  0  0
  -19.0930  -29.6570   23.7690 C   0  0  0  0  0  3  0  0  0  0  0  0
  -17.7590  -30.0810   23.9090 C   0  0  0  0  0  3  0  0  0  0  0  0
  -16.7120  -29.2700   23.4410 C   0  0  0  0  0  3  0  0  0  0  0  0
  -17.0010  -28.0390   22.8230 C   0  0  0  0  0  3  0  0  0  0  0  0
  -25.8920  -32.4530   23.9540 C   0  0  0  0  0  3  0  0  0  0  0  0
  -26.3690  -31.7210   25.2680 C   0  0  1  0  0  0  0  0  0  0  0  0
  -25.2280  -31.4420   26.2720 C   0  0  0  0  0  1  0  0  0  0  0  0
  -27.0380  -30.3680   24.9270 C   0  0  0  0  0  1  0  0  0  0  0  0
  -27.4360  -32.5770   25.9890 C   0  0  0  0  0  1  0  0  0  0  0  0
  -25.5290  -33.8480   24.2360 N   0  0  0  0  0  0  0  0  0  0  0  0
  -25.8730  -34.8940   23.4710 C   0  0  0  0  0  0  0  0  0  0  0  0
  -26.5990  -34.7870   22.4790 O   0  0  0  0  0  0  0  0  0  0  0  0
  -24.8920  -34.0020   25.0020 H   0  0  0  0  0  0  0  0  0  0  0  0
  -24.1110  -36.6220   22.9910 C   0  0  0  0  0  1  0  0  0  0  0  0
  -25.3230  -36.2750   23.8720 C   0  0  0  0  0  3  0  0  0  0  0  0
  -27.3860  -37.2440   24.7830 C   0  0  0  0  0  1  0  0  0  0  0  0
  -26.3260  -37.3570   23.7840 N   0  0  0  0  0  0  0  0  0  0  0  0
  -25.8850  -38.2650   23.8910 H   0  0  0  0  0  0  0  0  0  0  0  0
  1  5  1  0
  2  5  2  0
  3  1  2  0
  4  2  1  0
  5  7  1  0
  6  4  2  0
  6  3  1  0
  9 14  1  0
 10 11  1  0
 10  9  1  0
 12 11  1  0
 12 20  1  0
 12 13  1  0
 14  8  1  0
 14 13  1  0
 15  8  2  0
 16  8  1  0
 16  7  1  0
 17 18  2  0
 18 37  1  0
 19 18  1  0
 19 22  1  0
 20 17  1  0
 20 21  1  0
 21 19  2  0
 22 23  1  0
 23 24  2  0
 25 28  1  0
 25 24  1  0
 26 25  2  0
 27 26  1  0
 27 22  2  0
 28 29  1  0
 29 34  2  0
 29 30  1  0
 30 31  2  0
 32 31  1  0
 32 36  1  0
 33 32  2  0
 34 33  1  0
 35 34  1  0
 37 38  1  0
 38 41  1  0
 38 40  1  0
 39 37  2  0
 42 43  1  0
 42 17  1  0
 44 42  1  0
 45 16  1  0
 46 45  1  0
 47 46  1  0
 48 47  1  0
 48 49  1  0
 50 48  1  0
 51 48  1  0
 52  6  1  0
 53 56  1  0
 53 52  1  0
 54 53  1  0
 55 53  1  0
 57 56  1  0
 57 58  1  0
 59 61  1  0
 59 58  1  0
 60 71  2  0
 61 66  1  0
 62 70  1  0
 62 72  1  0
 63 69  1  0
 63 65  1  0
 64 70  1  0
 65 64  1  0
 66 65  2  0
 67 68  1  0
 67 61  2  0
 68 63  2  0
 69 62  1  0
 70 60  1  0
 72 74  2  0
 73 72  1  0
 75 73  1  0
 76 85  2  0
 76 81  1  0
 77 73  1  0
 77 81  1  0
 78 77  1  0
 79 80  1  0
 79 78  1  0
 80 76  1  0
 81 82  2  0
 82 83  1  0
 84 83  2  0
 85 84  1  0
 86 60  1  0
 86 91  1  0
 86 87  1  0
 87 90  1  1
 87 88  1  0
 89 87  1  0
 91 94  1  0
 92 96  1  0
 92 91  1  0
 93 92  2  0
 96 95  1  0
 98 96  1  0
 98 99  1  0
 98 97  1  0
M  ISO  4   8 100  16 100  58 101  59 101
M  END
>  <TORSDO>  (82) 
F 26

>  <SCORE>  (82) 
-11.421

>  <name>  (82) 
85

>  <ligand_id>  (82) 
85

>  <original_smiles>  (82) 
[H]c1c([H])c([H])c2c(c1[H])C([H])([H])C([H])([H])C([H])([H])C2([H])N([H])C(=O)C1([H])N(C(=O)C([H])(N([H])C(=O)C([H])(N([H])C([H])([H])[H])C([H])([H])[H])C(C([H])([H])[H])(C([H])([H])[H])C([H])([H])[H])C([H])([H])c2c([H])c(OC([H])([H])C([H])([H])C([H])([H])[N+]([H])([H])C([H])([H])c3c([H])c([H])c(C([H])([H])N(C(=O)N4C([H])([H])C([H])([H])C([H])([H])C([H])(n5nc(-c6c([H])c([H])c(Oc7c([H])c([H])c(F)c([H])c7F)c([H])c6[H])c(C(=O)N([H])[H])c5N([H])[H])C4([H])[H])C([H])([H])C([H])([H])C([H])([H])[N+]([H])([H])[H])c([H])c3[H])c([H])c([H])c2C1([H])[H]

>  <smiles>  (82) 
[H]c1c([H])c([H])c2c(c1[H])C([H])([H])C([H])([H])C([H])([H])C2([H])N([H])C(=O)C1([H])N(C(=O)C([H])(N([H])C(=O)C([H])(N([H])C([H])([H])[H])C([H])([H])[H])C(C([H])([H])[H])(C([H])([H])[H])C([H])([H])[H])C([H])([H])c2c([H])c(OC([H])([H])C([H])([H])C([H])([H])[N+]([H])([H])C([H])([H])c3c([H])c([H])c(C([H])([H])N(C(=O)N4C([H])([H])C([H])([H])C([H])([H])C([H])(n5nc(-c6c([H])c([H])c(Oc7c([H])c([H])c(F)c([H])c7F)c([H])c6[H])c(C(=O)N([H])[H])c5N([H])[H])C4([H])[H])C([H])([H])C([H])([H])C([H])([H])[N+]([H])([H])[H])c([H])c3[H])c([H])c([H])c2C1([H])[H]

$$$$
86:0:0
     RDKit          3D

104114  0  0  1  0  0  0  0  0999 V2000
  -31.9560  -19.7260   19.0430 C   0  0  0  0  0  3  0  0  0  0  0  0
  -30.7460  -19.2120   19.3380 C   0  0  0  0  0  0  0  0  0  0  0  0
  -31.4220  -20.9780   21.5890 C   0  0  0  0  0  2  0  0  0  0  0  0
  -32.3510  -21.7070   20.5750 C   0  0  0  0  0  2  0  0  0  0  0  0
  -29.9240  -20.8150   21.1980 C   0  0  0  0  0  2  0  0  0  0  0  0
  -31.1060  -22.0180   18.3720 C   0  0  0  0  0  2  0  0  0  0  0  0
  -32.2250  -21.2270   19.1030 C   0  0  0  0  0  3  0  0  0  0  0  0
  -29.6740  -20.4470   19.7070 C   0  0  0  0  0  3  0  0  0  0  0  0
  -29.8410  -21.9180   19.1300 N   0  0  2  0  0  4  0  0  0  0  0  0
  -30.1350  -22.3600   19.9870 H   0  0  0  0  0  0  0  0  0  0  0  0
  -30.5540  -17.5700   19.0160 C   0  0  0  0  0  2  0  0  0  0  0  0
  -31.4210  -14.9370   19.4380 C   0  0  0  0  0  0  0  0  0  0  0  0
  -31.1160  -12.5580   18.5180 C   0  0  0  0  0  2  0  0  0  0  0  0
  -29.9840  -12.4900   17.4570 C   0  0  0  0  0  2  0  0  0  0  0  0
  -28.5890  -12.3480   18.1020 C   0  0  0  0  0  2  0  0  0  0  0  0
  -28.4250  -13.2900   19.3180 C   0  0  0  0  0  3  0  0  0  0  0  0
  -29.6400  -13.1450   20.2600 C   0  0  0  0  0  2  0  0  0  0  0  0
  -30.8060  -13.6560   19.4980 N   0  0  0  0  0  0  0  0  0  0  0  0
  -32.5070  -14.9490   18.8400 O   0  0  0  0  0  0  0  0  0  0  0  0
  -30.7740  -16.1950   19.8300 N   0  0  0  0  0  0  0  0  0  0  0  0
  -26.3200  -14.0690   20.5540 C   0  0  0  0  0  0  0  0  0  0  0  0
  -25.2230  -13.3950   21.0120 C   0  0  0  0  0  0  0  0  0  0  0  0
  -25.4470  -12.0200   20.6990 C   0  0  0  0  0  0  0  0  0  0  0  0
  -27.1530  -13.1080   20.0050 N   0  0  0  0  0  0  0  0  0  0  0  0
  -26.6440  -11.8580   20.1470 N   0  0  0  0  0  0  0  0  0  0  0  0
  -24.5650  -10.8570   20.8380 C   0  0  0  0  0  0  0  0  0  0  0  0
  -24.9770   -9.6970   21.5290 C   0  0  0  0  0  3  0  0  0  0  0  0
  -24.1030   -8.5980   21.6640 C   0  0  0  0  0  3  0  0  0  0  0  0
  -22.8020   -8.6520   21.1090 C   0  0  0  0  0  0  0  0  0  0  0  0
  -22.4060   -9.8000   20.3990 C   0  0  0  0  0  3  0  0  0  0  0  0
  -23.2790  -10.8910   20.2620 C   0  0  0  0  0  3  0  0  0  0  0  0
  -21.8950   -7.6210   21.1660 O   0  0  0  0  0  0  0  0  0  0  0  0
  -21.9200   -6.6990   22.1810 C   0  0  0  0  0  0  0  0  0  0  0  0
  -21.8060   -7.0780   23.5360 C   0  0  0  0  0  3  0  0  0  0  0  0
  -21.7680   -6.0920   24.5420 C   0  0  0  0  0  3  0  0  0  0  0  0
  -21.8340   -4.7290   24.1950 C   0  0  0  0  0  0  0  0  0  0  0  0
  -21.9420   -4.3490   22.8450 C   0  0  0  0  0  3  0  0  0  0  0  0
  -21.9820   -5.3320   21.8410 C   0  0  0  0  0  0  0  0  0  0  0  0
  -22.0660   -4.9620   20.5400 F   0  0  0  0  0  0  0  0  0  0  0  0
  -21.7890   -3.7790   25.1580 F   0  0  0  0  0  0  0  0  0  0  0  0
  -23.9880  -14.0060   21.6090 C   0  0  0  0  0  0  0  0  0  0  0  0
  -23.3400  -13.2990   22.5270 N   0  0  0  0  0  0  0  0  0  0  0  0
  -23.6200  -15.1390   21.2970 O   0  0  0  0  0  0  0  0  0  0  0  0
  -23.6550  -12.3770   22.7940 H   0  0  0  0  0  0  0  0  0  0  0  0
  -22.5190  -13.6850   22.9720 H   0  0  0  0  0  0  0  0  0  0  0  0
  -26.6550  -15.4190   20.5360 N   0  0  0  0  0  0  0  0  0  0  0  0
  -25.9720  -16.1150   20.8090 H   0  0  0  0  0  0  0  0  0  0  0  0
  -27.4110  -15.8010   19.9850 H   0  0  0  0  0  0  0  0  0  0  0  0
  -29.8940  -16.0370   21.0220 C   0  0  0  0  0  2  0  0  0  0  0  0
  -30.7050  -19.5390   24.1620 C   0  0  0  0  0  0  0  0  0  0  0  0
  -29.4590  -18.4130   22.3030 C   0  0  0  0  0  2  0  0  0  0  0  0
  -29.8130  -16.9200   22.2770 C   0  0  0  0  0  3  0  0  0  0  0  0
  -30.9570  -17.1550   23.2660 C   0  0  0  0  0  3  0  0  0  0  0  0
  -31.0290  -16.3550   24.5630 C   0  0  0  0  0  1  0  0  0  0  0  0
  -30.3450  -18.4740   23.4470 N   0  0  0  0  0  0  0  0  0  0  0  0
  -30.1330  -20.7180   23.9240 N   0  0  0  0  0  4  0  0  0  0  0  0
  -31.6390  -19.4560   25.1070 N   0  0  0  0  0  0  0  0  0  0  0  0
  -30.3200  -21.5440   24.4740 H   0  0  0  0  0  0  0  0  0  0  0  0
  -29.3760  -20.7820   23.2590 H   0  0  0  0  0  0  0  0  0  0  0  0
  -31.9030  -20.2470   25.6780 H   0  0  0  0  0  0  0  0  0  0  0  0
  -32.0540  -18.5660   25.3360 H   0  0  0  0  0  0  0  0  0  0  0  0
  -28.7100  -22.9580   18.6730 C   0  0  0  0  0  2  0  0  0  0  0  0
  -28.3030  -24.3970   19.4800 C   0  0  0  0  0  2  0  0  0  0  0  0
  -28.1470  -25.8780   18.9930 O   0  0  0  0  0  0  0  0  0  0  0  0
  -24.2990  -31.1430   22.5420 C   0  0  0  0  0  0  0  0  0  0  0  0
  -26.9990  -26.7360   19.1620 C   0  0  0  0  0  0  0  0  0  0  0  0
  -23.1080  -29.7800   20.8670 C   0  0  0  0  0  3  0  0  0  0  0  0
  -24.5780  -28.3440   19.3180 C   0  0  0  0  0  0  0  0  0  0  0  0
  -25.6370  -30.1820   20.6270 C   0  0  0  0  0  2  0  0  0  0  0  0
  -25.7560  -28.8260   19.9040 C   0  0  0  0  0  0  0  0  0  0  0  0
  -26.9670  -28.0420   19.8010 C   0  0  0  0  0  3  0  0  0  0  0  0
  -25.7840  -26.3400   18.5690 C   0  0  0  0  0  3  0  0  0  0  0  0
  -24.6020  -27.1130   18.6400 C   0  0  0  0  0  3  0  0  0  0  0  0
  -23.3120  -29.1780   19.4500 C   0  0  0  0  0  2  0  0  0  0  0  0
  -24.3700  -30.3880   21.4020 N   0  0  0  0  0  0  0  0  0  0  0  0
  -23.2210  -31.3480   23.1200 O   0  0  0  0  0  0  0  0  0  0  0  0
  -22.5100  -28.6950   21.7980 C   0  0  0  0  0  0  0  0  0  0  0  0
  -21.1780  -28.5120   21.7510 N   0  0  0  0  0  0  0  0  0  0  0  0
  -23.2440  -28.0190   22.5230 O   0  0  0  0  0  0  0  0  0  0  0  0
  -20.6390  -29.1120   21.1430 H   0  0  0  0  0  0  0  0  0  0  0  0
  -17.8480  -27.2560   22.4350 C   0  0  0  0  0  0  0  0  0  0  0  0
  -20.4230  -27.5040   22.5000 C   0  0  0  0  0  3  0  0  0  0  0  0
  -20.4680  -26.1310   21.7900 C   0  0  0  0  0  2  0  0  0  0  0  0
  -19.2810  -25.8980   20.8500 C   0  0  0  0  0  2  0  0  0  0  0  0
  -17.9610  -25.9760   21.6250 C   0  0  0  0  0  2  0  0  0  0  0  0
  -19.0030  -27.9820   22.8330 C   0  0  0  0  0  0  0  0  0  0  0  0
  -18.8420  -29.1820   23.5590 C   0  0  0  0  0  3  0  0  0  0  0  0
  -17.5580  -29.6580   23.8850 C   0  0  0  0  0  3  0  0  0  0  0  0
  -16.4200  -28.9280   23.5020 C   0  0  0  0  0  3  0  0  0  0  0  0
  -16.5660  -27.7280   22.7830 C   0  0  0  0  0  3  0  0  0  0  0  0
  -25.5680  -31.8070   23.1620 C   0  0  0  0  0  3  0  0  0  0  0  0
  -25.1830  -33.1390   23.6600 N   0  0  0  0  0  0  0  0  0  0  0  0
  -25.4380  -34.2940   23.0320 C   0  0  0  0  0  0  0  0  0  0  0  0
  -26.0950  -34.3530   21.9890 O   0  0  0  0  0  0  0  0  0  0  0  0
  -24.5970  -33.1610   24.4830 H   0  0  0  0  0  0  0  0  0  0  0  0
  -23.6100  -36.0210   22.9200 C   0  0  0  0  0  1  0  0  0  0  0  0
  -24.8850  -35.5890   23.6610 C   0  0  0  0  0  3  0  0  0  0  0  0
  -26.9850  -36.4840   24.5650 C   0  0  0  0  0  1  0  0  0  0  0  0
  -25.8560  -36.7040   23.6660 N   0  0  0  0  0  0  0  0  0  0  0  0
  -25.4050  -37.5750   23.9300 H   0  0  0  0  0  0  0  0  0  0  0  0
  -26.2070  -30.9500   24.3250 C   0  0  1  0  0  0  0  0  0  0  0  0
  -25.2020  -30.5370   25.4270 C   0  0  0  0  0  1  0  0  0  0  0  0
  -26.8460  -29.6580   23.7680 C   0  0  0  0  0  1  0  0  0  0  0  0
  -27.3510  -31.7490   24.9970 C   0  0  0  0  0  1  0  0  0  0  0  0
  1  7  1  0
  1  2  2  0
  2  8  1  0
  4  3  1  0
  5  3  1  0
  6  9  1  0
  7  6  1  0
  7  4  1  0
  8  5  1  0
  9  8  1  0
  9 10  1  1
 11  2  1  0
 11 20  1  0
 12 18  1  0
 12 20  1  0
 13 18  1  0
 14 15  1  0
 14 13  1  0
 16 15  1  0
 16 24  1  0
 16 17  1  0
 18 17  1  0
 19 12  2  0
 20 49  1  0
 21 22  2  0
 22 41  1  0
 23 26  1  0
 23 22  1  0
 24 25  1  0
 24 21  1  0
 25 23  2  0
 26 27  1  0
 27 28  2  0
 29 32  1  0
 29 28  1  0
 30 29  2  0
 31 30  1  0
 31 26  2  0
 32 33  1  0
 33 34  1  0
 34 35  2  0
 36 35  1  0
 36 40  1  0
 37 36  2  0
 38 33  2  0
 38 37  1  0
 39 38  1  0
 41 42  1  0
 42 44  1  0
 42 45  1  0
 43 41  2  0
 46 21  1  0
 46 47  1  0
 48 46  1  0
 50 57  1  0
 51 55  1  0
 52 49  1  0
 52 51  1  0
 52 53  1  0
 53 55  1  0
 53 54  1  0
 55 50  1  0
 56 50  2  0
 56 58  1  0
 57 61  1  0
 57 60  1  0
 59 56  1  0
 62  9  1  0
 62 63  1  0
 64 66  1  0
 64 63  1  0
 65 76  2  0
 66 71  1  0
 67 75  1  0
 67 77  1  0
 68 74  1  0
 68 70  1  0
 69 75  1  0
 70 69  1  0
 71 70  2  0
 72 73  1  0
 72 66  2  0
 73 68  2  0
 74 67  1  0
 75 65  1  0
 77 79  2  0
 78 77  1  0
 80 78  1  0
 81 90  2  0
 81 86  1  0
 82 78  1  0
 82 86  1  0
 83 82  1  0
 84 85  1  0
 84 83  1  0
 85 81  1  0
 86 87  2  0
 87 88  1  0
 89 88  2  0
 90 89  1  0
 91 65  1  0
 91 92  1  0
 91101  1  0
 92 95  1  0
 93 92  1  0
 93 97  1  0
 94 93  2  0
 97 96  1  0
 97 99  1  0
 99100  1  0
 99 98  1  0
101104  1  1
101102  1  0
103101  1  0
M  ISO  4  12 100  20 100  63 101  64 101
M  END
>  <TORSDO>  (83) 
F 21

>  <SCORE>  (83) 
-1.266

>  <name>  (83) 
86

>  <ligand_id>  (83) 
86

>  <original_smiles>  (83) 
[H]C1=C(C([H])([H])N(C(=O)N2C([H])([H])C([H])([H])C([H])([H])C([H])(n3nc(-c4c([H])c([H])c(Oc5c([H])c([H])c(F)c([H])c5F)c([H])c4[H])c(C(=O)N([H])[H])c3N([H])[H])C2([H])[H])C([H])([H])C2([H])C([H])([H])N(C(N([H])[H])=[N+]([H])[H])C2([H])C([H])([H])[H])C2([H])C([H])([H])C([H])([H])C([H])([H])C1([H])C([H])([H])[N+]2([H])C([H])([H])C([H])([H])Oc1c([H])c([H])c2c(c1[H])C([H])([H])N(C(=O)C([H])(N([H])C(=O)C([H])(N([H])C([H])([H])[H])C([H])([H])[H])C(C([H])([H])[H])(C([H])([H])[H])C([H])([H])[H])C([H])(C(=O)N([H])C1([H])c3c([H])c([H])c([H])c([H])c3C([H])([H])C([H])([H])C1([H])[H])C2([H])[H]

>  <smiles>  (83) 
[H]C1=C(C([H])([H])N(C(=O)N2C([H])([H])C([H])([H])C([H])([H])C([H])(n3nc(-c4c([H])c([H])c(Oc5c([H])c([H])c(F)c([H])c5F)c([H])c4[H])c(C(=O)N([H])[H])c3N([H])[H])C2([H])[H])C([H])([H])C2([H])C([H])([H])N(C(N([H])[H])=[N+]([H])[H])C2([H])C([H])([H])[H])C2([H])C([H])([H])C([H])([H])C([H])([H])C1([H])C([H])([H])[N+]2([H])C([H])([H])C([H])([H])Oc1c([H])c([H])c2c(c1[H])C([H])([H])N(C(=O)C([H])(N([H])C(=O)C([H])(N([H])C([H])([H])[H])C([H])([H])[H])C(C([H])([H])[H])(C([H])([H])[H])C([H])([H])[H])C([H])(C(=O)N([H])C1([H])c3c([H])c([H])c([H])c([H])c3C([H])([H])C([H])([H])C1([H])[H])C2([H])[H]

$$$$
87:0:0
     RDKit          3D

 93103  0  0  1  0  0  0  0  0999 V2000
  -30.5280  -15.1720   20.3170 C   0  0  0  0  0  0  0  0  0  0  0  0
  -30.4160  -12.7730   19.4150 C   0  0  0  0  0  2  0  0  0  0  0  0
  -29.5040  -12.6350   18.1740 C   0  0  0  0  0  2  0  0  0  0  0  0
  -28.0450  -12.4030   18.6010 C   0  0  0  0  0  2  0  0  0  0  0  0
  -27.6060  -13.3610   19.7400 C   0  0  0  0  0  3  0  0  0  0  0  0
  -28.6490  -13.4650   20.8710 C   0  0  0  0  0  2  0  0  0  0  0  0
  -29.8990  -13.9120   20.2450 N   0  0  0  0  0  0  0  0  0  0  0  0
  -31.7520  -15.1310   20.1340 O   0  0  0  0  0  0  0  0  0  0  0  0
  -29.2470  -21.7040   21.0320 C   0  0  0  0  0  3  0  0  0  0  0  0
  -29.1110  -20.3010   20.8350 C   0  0  0  0  0  0  0  0  0  0  0  0
  -29.5580  -19.0450   21.7470 C   0  0  0  0  0  2  0  0  0  0  0  0
  -29.8970  -19.0200   17.3240 C   0  0  0  0  0  2  0  0  0  0  0  0
  -30.4190  -17.9780   18.3590 C   0  0  0  0  0  2  0  0  0  0  0  0
  -28.1000  -18.2460   19.4700 C   0  0  0  0  0  2  0  0  0  0  0  0
  -30.3690  -17.6440   21.3070 C   0  0  0  0  0  2  0  0  0  0  0  0
  -29.7080  -20.4890   17.8310 C   0  0  0  0  0  2  0  0  0  0  0  0
  -28.0940  -22.2200   18.8290 C   0  0  0  0  0  2  0  0  0  0  0  0
  -28.8220  -22.9550   20.0430 C   0  0  0  0  0  3  0  0  0  0  0  0
  -28.2220  -19.8320   19.7100 C   0  0  0  0  0  3  0  0  0  0  0  0
  -29.3310  -17.2630   19.2230 C   0  0  0  0  0  3  0  0  0  0  0  0
  -29.8510  -16.4730   20.4250 N   0  0  0  0  0  0  0  0  0  0  0  0
  -28.4200  -20.7420   18.5390 N   0  0  2  0  0  4  0  0  0  0  0  0
  -27.7100  -20.4720   17.8730 H   0  0  0  0  0  0  0  0  0  0  0  0
  -25.2280  -13.9320   20.4640 C   0  0  0  0  0  0  0  0  0  0  0  0
  -24.1600  -13.1580   20.8270 C   0  0  0  0  0  0  0  0  0  0  0  0
  -24.6270  -11.8070   20.8130 C   0  0  0  0  0  0  0  0  0  0  0  0
  -26.2720  -13.0540   20.2390 N   0  0  0  0  0  0  0  0  0  0  0  0
  -25.9220  -11.7710   20.5170 N   0  0  0  0  0  0  0  0  0  0  0  0
  -23.8980  -10.5460   21.0050 C   0  0  0  0  0  0  0  0  0  0  0  0
  -24.3150   -9.5870   21.9530 C   0  0  0  0  0  3  0  0  0  0  0  0
  -23.5820   -8.3930   22.1330 C   0  0  0  0  0  3  0  0  0  0  0  0
  -22.4200   -8.1510   21.3640 C   0  0  0  0  0  0  0  0  0  0  0  0
  -22.0230   -9.0980   20.4040 C   0  0  0  0  0  3  0  0  0  0  0  0
  -22.7550  -10.2830   20.2220 C   0  0  0  0  0  3  0  0  0  0  0  0
  -21.6600   -7.0090   21.4530 O   0  0  0  0  0  0  0  0  0  0  0  0
  -21.5860   -6.2820   22.6140 C   0  0  0  0  0  0  0  0  0  0  0  0
  -21.1270   -6.8510   23.8220 C   0  0  0  0  0  3  0  0  0  0  0  0
  -21.0000   -6.0500   24.9750 C   0  0  0  0  0  3  0  0  0  0  0  0
  -21.3240   -4.6810   24.9200 C   0  0  0  0  0  0  0  0  0  0  0  0
  -21.7750   -4.1110   23.7170 C   0  0  0  0  0  3  0  0  0  0  0  0
  -21.9030   -4.9090   22.5670 C   0  0  0  0  0  0  0  0  0  0  0  0
  -22.3180   -4.3500   21.4050 F   0  0  0  0  0  0  0  0  0  0  0  0
  -21.1950   -3.9100   26.0240 F   0  0  0  0  0  0  0  0  0  0  0  0
  -22.7600  -13.6380   21.0720 C   0  0  0  0  0  0  0  0  0  0  0  0
  -22.0220  -12.9570   21.9420 N   0  0  0  0  0  0  0  0  0  0  0  0
  -22.3290  -14.6530   20.5270 O   0  0  0  0  0  0  0  0  0  0  0  0
  -22.3840  -12.1370   22.4060 H   0  0  0  0  0  0  0  0  0  0  0  0
  -21.0810  -13.2620   22.1480 H   0  0  0  0  0  0  0  0  0  0  0  0
  -25.3950  -15.3010   20.2800 N   0  0  0  0  0  0  0  0  0  0  0  0
  -24.6320  -15.9590   20.3890 H   0  0  0  0  0  0  0  0  0  0  0  0
  -26.2570  -15.7370   19.9810 H   0  0  0  0  0  0  0  0  0  0  0  0
  -28.1150  -24.4910   20.5460 C   0  0  0  0  0  2  0  0  0  0  0  0
  -28.3270  -26.0430   20.1630 O   0  0  0  0  0  0  0  0  0  0  0  0
  -24.6990  -31.8660   23.1810 C   0  0  0  0  0  0  0  0  0  0  0  0
  -27.2820  -27.0760   20.1620 C   0  0  0  0  0  0  0  0  0  0  0  0
  -23.5060  -30.4610   21.5490 C   0  0  0  0  0  3  0  0  0  0  0  0
  -24.9590  -28.8770   20.1250 C   0  0  0  0  0  0  0  0  0  0  0  0
  -26.0650  -30.7160   21.3820 C   0  0  0  0  0  2  0  0  0  0  0  0
  -26.1440  -29.3130   20.7310 C   0  0  0  0  0  0  0  0  0  0  0  0
  -27.3070  -28.4340   20.7210 C   0  0  0  0  0  3  0  0  0  0  0  0
  -26.0670  -26.7660   19.5160 C   0  0  0  0  0  3  0  0  0  0  0  0
  -24.9390  -27.6210   19.4980 C   0  0  0  0  0  3  0  0  0  0  0  0
  -23.7300  -29.7800   20.1720 C   0  0  0  0  0  2  0  0  0  0  0  0
  -24.7780  -31.0390   22.0910 N   0  0  0  0  0  0  0  0  0  0  0  0
  -23.6110  -32.1470   23.7100 O   0  0  0  0  0  0  0  0  0  0  0  0
  -22.8290  -29.4560   22.5170 C   0  0  0  0  0  0  0  0  0  0  0  0
  -21.5010  -29.2770   22.3950 N   0  0  0  0  0  0  0  0  0  0  0  0
  -23.5060  -28.8390   23.3440 O   0  0  0  0  0  0  0  0  0  0  0  0
  -21.0120  -29.8290   21.7040 H   0  0  0  0  0  0  0  0  0  0  0  0
  -18.1310  -28.0420   22.9100 C   0  0  0  0  0  0  0  0  0  0  0  0
  -20.6890  -28.3340   23.1690 C   0  0  0  0  0  3  0  0  0  0  0  0
  -20.8030  -26.9010   22.5980 C   0  0  0  0  0  2  0  0  0  0  0  0
  -19.7030  -26.5640   21.5870 C   0  0  0  0  0  2  0  0  0  0  0  0
  -18.3210  -26.6950   22.2340 C   0  0  0  0  0  2  0  0  0  0  0  0
  -19.2430  -28.8190   23.3340 C   0  0  0  0  0  0  0  0  0  0  0  0
  -19.0090  -30.0770   23.9300 C   0  0  0  0  0  3  0  0  0  0  0  0
  -17.6990  -30.5610   24.1030 C   0  0  0  0  0  3  0  0  0  0  0  0
  -16.6030  -29.7830   23.6930 C   0  0  0  0  0  3  0  0  0  0  0  0
  -16.8200  -28.5250   23.1020 C   0  0  0  0  0  3  0  0  0  0  0  0
  -25.9710  -32.5160   23.8070 C   0  0  0  0  0  3  0  0  0  0  0  0
  -25.6390  -33.9060   24.1630 N   0  0  0  0  0  0  0  0  0  0  0  0
  -25.9370  -34.9790   23.4190 C   0  0  0  0  0  0  0  0  0  0  0  0
  -26.5860  -34.9050   22.3720 O   0  0  0  0  0  0  0  0  0  0  0  0
  -25.0580  -34.0360   24.9770 H   0  0  0  0  0  0  0  0  0  0  0  0
  -24.1680  -36.7520   23.1490 C   0  0  0  0  0  1  0  0  0  0  0  0
  -25.4410  -36.3540   23.9130 C   0  0  0  0  0  3  0  0  0  0  0  0
  -27.5830  -37.2680   24.6930 C   0  0  0  0  0  1  0  0  0  0  0  0
  -26.4510  -37.4270   23.7850 N   0  0  0  0  0  0  0  0  0  0  0  0
  -26.0330  -38.3380   23.9550 H   0  0  0  0  0  0  0  0  0  0  0  0
  -26.5020  -31.7400   25.0760 C   0  0  1  0  0  0  0  0  0  0  0  0
  -25.4160  -31.4850   26.1500 C   0  0  0  0  0  1  0  0  0  0  0  0
  -27.0960  -30.3710   24.6780 C   0  0  0  0  0  1  0  0  0  0  0  0
  -27.6470  -32.5420   25.7380 C   0  0  0  0  0  1  0  0  0  0  0  0
  1 21  1  0
  2  7  1  0
  3  4  1  0
  3  2  1  0
  5  4  1  0
  5 27  1  0
  5  6  1  0
  7  1  1  0
  7  6  1  0
  8  1  2  0
 10  9  2  0
 10 11  1  0
 12 16  1  0
 12 13  1  0
 15 11  1  0
 16 22  1  0
 17 18  1  0
 18 52  1  0
 18  9  1  0
 19 14  1  0
 19 10  1  0
 20 13  1  0
 20 14  1  0
 20 21  1  0
 21 15  1  0
 22 23  1  6
 22 17  1  0
 22 19  1  0
 24 25  2  0
 25 44  1  0
 26 25  1  0
 26 29  1  0
 27 24  1  0
 27 28  1  0
 28 26  2  0
 29 30  1  0
 30 31  2  0
 32 35  1  0
 32 31  1  0
 33 32  2  0
 34 33  1  0
 34 29  2  0
 35 36  1  0
 36 37  1  0
 37 38  2  0
 39 38  1  0
 39 43  1  0
 40 39  2  0
 41 36  2  0
 41 40  1  0
 42 41  1  0
 44 45  1  0
 45 48  1  0
 45 47  1  0
 46 44  2  0
 49 50  1  0
 49 24  1  0
 51 49  1  0
 53 52  1  0
 54 65  2  0
 55 53  1  0
 55 60  1  0
 56 64  1  0
 56 66  1  0
 57 63  1  0
 57 59  1  0
 58 64  1  0
 59 58  1  0
 60 59  2  0
 61 55  2  0
 62 61  1  0
 62 57  2  0
 63 56  1  0
 64 54  1  0
 66 68  2  0
 67 66  1  0
 69 67  1  0
 70 79  2  0
 70 75  1  0
 71 67  1  0
 71 75  1  0
 72 71  1  0
 73 74  1  0
 73 72  1  0
 74 70  1  0
 75 76  2  0
 76 77  1  0
 78 77  2  0
 79 78  1  0
 80 54  1  0
 80 81  1  0
 80 90  1  0
 81 84  1  0
 82 86  1  0
 82 81  1  0
 83 82  2  0
 86 85  1  0
 88 86  1  0
 88 89  1  0
 88 87  1  0
 90 93  1  1
 90 91  1  0
 92 90  1  0
M  ISO  4   1 100  21 100  52 101  53 101
M  END
>  <TORSDO>  (84) 
F 16

>  <SCORE>  (84) 
-15.921

>  <name>  (84) 
87

>  <ligand_id>  (84) 
87

>  <original_smiles>  (84) 
[H]C1=C2C([H])([H])C([H])([H])N(C(=O)N3C([H])([H])C([H])([H])C([H])([H])C([H])(n4nc(-c5c([H])c([H])c(Oc6c([H])c([H])c(F)c([H])c6F)c([H])c5[H])c(C(=O)N([H])[H])c4N([H])[H])C3([H])[H])C3([H])C([H])([H])C([H])([H])C([H])([H])[N+]([H])(C([H])([H])C1([H])C([H])([H])Oc1c([H])c([H])c4c(c1[H])C([H])([H])N(C(=O)C([H])(N([H])C(=O)C([H])(N([H])C([H])([H])[H])C([H])([H])[H])C(C([H])([H])[H])(C([H])([H])[H])C([H])([H])[H])C([H])(C(=O)N([H])C1([H])c5c([H])c([H])c([H])c([H])c5C([H])([H])C([H])([H])C1([H])[H])C4([H])[H])C2([H])C3([H])[H]

>  <smiles>  (84) 
[H]C1=C2C([H])([H])C([H])([H])N(C(=O)N3C([H])([H])C([H])([H])C([H])([H])C([H])(n4nc(-c5c([H])c([H])c(Oc6c([H])c([H])c(F)c([H])c6F)c([H])c5[H])c(C(=O)N([H])[H])c4N([H])[H])C3([H])[H])C3([H])C([H])([H])C([H])([H])C([H])([H])[N+]([H])(C([H])([H])C1([H])C([H])([H])Oc1c([H])c([H])c4c(c1[H])C([H])([H])N(C(=O)C([H])(N([H])C(=O)C([H])(N([H])C([H])([H])[H])C([H])([H])[H])C(C([H])([H])[H])(C([H])([H])[H])C([H])([H])[H])C([H])(C(=O)N([H])C1([H])c5c([H])c([H])c([H])c([H])c5C([H])([H])C([H])([H])C1([H])[H])C4([H])[H])C2([H])C3([H])[H]

$$$$
88:0:0
     RDKit          3D

102110  0  0  1  0  0  0  0  0999 V2000
  -30.0980  -18.3260   21.2220 N   0  0  1  0  0  4  0  0  0  0  0  0
  -29.1070  -18.2280   21.0730 H   0  0  0  0  0  0  0  0  0  0  0  0
  -30.3890  -17.7910   22.5850 C   0  0  0  0  0  2  0  0  0  0  0  0
  -29.7470  -18.5640   23.7590 C   0  0  0  0  0  2  0  0  0  0  0  0
  -29.9090  -17.8130   25.0950 C   0  0  0  0  0  2  0  0  0  0  0  0
  -29.1140  -18.4530   26.2510 C   0  0  0  0  0  2  0  0  0  0  0  0
  -29.1570  -17.6360   27.4750 N   0  0  0  0  0  4  0  0  0  0  0  0
  -28.7510  -16.7310   27.3200 H   0  0  0  0  0  0  0  0  0  0  0  0
  -28.6370  -18.0890   28.2060 H   0  0  0  0  0  0  0  0  0  0  0  0
  -30.1010  -17.5170   27.7950 H   0  0  0  0  0  0  0  0  0  0  0  0
  -30.3750  -19.8240   21.1030 C   0  0  0  0  0  3  0  0  0  0  0  0
  -29.1050  -20.7530   20.9610 C   0  0  0  0  0  3  0  0  0  0  0  0
  -28.4260  -24.1790   19.3330 C   0  0  0  0  0  2  0  0  0  0  0  0
  -29.5860  -24.5770   21.4460 C   0  0  0  0  0  2  0  0  0  0  0  0
  -28.2510  -22.6880   19.7530 C   0  0  0  0  0  2  0  0  0  0  0  0
  -29.4140  -23.0620   21.8000 C   0  0  0  0  0  2  0  0  0  0  0  0
  -28.4400  -25.1190   20.5590 C   0  0  0  0  0  3  0  0  0  0  0  0
  -29.3450  -22.1860   20.6090 N   0  0  0  0  0  0  0  0  0  0  0  0
  -28.5810  -26.5470   20.2480 O   0  0  0  0  0  0  0  0  0  0  0  0
  -24.5440  -31.7470   23.0800 C   0  0  0  0  0  0  0  0  0  0  0  0
  -27.4150  -27.3050   20.1560 C   0  0  0  0  0  0  0  0  0  0  0  0
  -23.4390  -30.2840   21.4250 C   0  0  0  0  0  3  0  0  0  0  0  0
  -24.9840  -28.7820   20.0600 C   0  0  0  0  0  0  0  0  0  0  0  0
  -25.9620  -30.7170   21.2990 C   0  0  0  0  0  2  0  0  0  0  0  0
  -26.1130  -29.3390   20.6740 C   0  0  0  0  0  0  0  0  0  0  0  0
  -27.3340  -28.6140   20.7070 C   0  0  0  0  0  3  0  0  0  0  0  0
  -26.2630  -26.7840   19.5240 C   0  0  0  0  0  3  0  0  0  0  0  0
  -25.0590  -27.5080   19.4760 C   0  0  0  0  0  3  0  0  0  0  0  0
  -23.7130  -29.6020   20.0590 C   0  0  0  0  0  2  0  0  0  0  0  0
  -24.6640  -30.9330   21.9930 N   0  0  0  0  0  0  0  0  0  0  0  0
  -23.4390  -31.9890   23.5830 O   0  0  0  0  0  0  0  0  0  0  0  0
  -22.7920  -29.2530   22.3800 C   0  0  0  0  0  0  0  0  0  0  0  0
  -21.4720  -29.0430   22.2370 N   0  0  0  0  0  0  0  0  0  0  0  0
  -23.4760  -28.6440   23.2080 O   0  0  0  0  0  0  0  0  0  0  0  0
  -20.9790  -29.5870   21.5430 H   0  0  0  0  0  0  0  0  0  0  0  0
  -18.1140  -27.7900   22.7160 C   0  0  0  0  0  0  0  0  0  0  0  0
  -20.6660  -28.0900   23.0010 C   0  0  0  0  0  3  0  0  0  0  0  0
  -20.7950  -26.6610   22.4230 C   0  0  0  0  0  2  0  0  0  0  0  0
  -19.7040  -26.3230   21.4010 C   0  0  0  0  0  2  0  0  0  0  0  0
  -18.3160  -26.4450   22.0370 C   0  0  0  0  0  2  0  0  0  0  0  0
  -19.2170  -28.5680   23.1530 C   0  0  0  0  0  0  0  0  0  0  0  0
  -18.9750  -29.8270   23.7450 C   0  0  0  0  0  3  0  0  0  0  0  0
  -17.6610  -30.3070   23.9040 C   0  0  0  0  0  3  0  0  0  0  0  0
  -16.5720  -29.5240   23.4820 C   0  0  0  0  0  3  0  0  0  0  0  0
  -16.7990  -28.2670   22.8950 C   0  0  0  0  0  3  0  0  0  0  0  0
  -25.7870  -32.4350   23.7270 C   0  0  0  0  0  3  0  0  0  0  0  0
  -25.4160  -33.8220   24.0380 N   0  0  0  0  0  0  0  0  0  0  0  0
  -25.7270  -34.8810   23.2790 C   0  0  0  0  0  0  0  0  0  0  0  0
  -26.4270  -34.7960   22.2660 O   0  0  0  0  0  0  0  0  0  0  0  0
  -24.7980  -33.9590   24.8250 H   0  0  0  0  0  0  0  0  0  0  0  0
  -23.9250  -36.5900   22.8810 C   0  0  0  0  0  1  0  0  0  0  0  0
  -25.1730  -36.2520   23.7120 C   0  0  0  0  0  3  0  0  0  0  0  0
  -27.2570  -37.2400   24.5560 C   0  0  0  0  0  1  0  0  0  0  0  0
  -26.1600  -37.3490   23.5970 N   0  0  0  0  0  0  0  0  0  0  0  0
  -25.7110  -38.2510   23.7290 H   0  0  0  0  0  0  0  0  0  0  0  0
  -26.3040  -31.6920   25.0210 C   0  0  1  0  0  0  0  0  0  0  0  0
  -25.1960  -31.4160   26.0640 C   0  0  0  0  0  1  0  0  0  0  0  0
  -26.9520  -30.3380   24.6530 C   0  0  0  0  0  1  0  0  0  0  0  0
  -27.4040  -32.5370   25.7050 C   0  0  0  0  0  1  0  0  0  0  0  0
  -30.8200  -17.4680   20.1930 C   0  0  0  0  0  2  0  0  0  0  0  0
  -30.1330  -16.1510   19.6070 C   0  0  0  0  0  3  0  0  0  0  0  0
  -30.6900  -14.6990   19.9760 C   0  0  0  0  0  0  0  0  0  0  0  0
  -30.3280  -12.4720   18.9920 C   0  0  0  0  0  2  0  0  0  0  0  0
  -29.3480  -12.5730   17.8070 C   0  0  0  0  0  2  0  0  0  0  0  0
  -27.8930  -12.4230   18.2960 C   0  0  0  0  0  2  0  0  0  0  0  0
  -27.5610  -13.2620   19.5600 C   0  0  0  0  0  3  0  0  0  0  0  0
  -28.6900  -13.2250   20.6140 C   0  0  0  0  0  2  0  0  0  0  0  0
  -29.9640  -13.5320   19.9490 N   0  0  0  0  0  0  0  0  0  0  0  0
  -31.9170  -14.6310   19.9150 O   0  0  0  0  0  0  0  0  0  0  0  0
  -25.1900  -13.8020   20.3620 C   0  0  0  0  0  0  0  0  0  0  0  0
  -24.1590  -13.0000   20.7650 C   0  0  0  0  0  0  0  0  0  0  0  0
  -24.6640  -11.6640   20.7380 C   0  0  0  0  0  0  0  0  0  0  0  0
  -26.2530  -12.9460   20.1100 N   0  0  0  0  0  0  0  0  0  0  0  0
  -25.9460  -11.6590   20.4020 N   0  0  0  0  0  0  0  0  0  0  0  0
  -23.9850  -10.3830   20.9550 C   0  0  0  0  0  0  0  0  0  0  0  0
  -24.4250   -9.4780   21.9440 C   0  0  0  0  0  3  0  0  0  0  0  0
  -23.7430   -8.2600   22.1500 C   0  0  0  0  0  3  0  0  0  0  0  0
  -22.6120   -7.9370   21.3640 C   0  0  0  0  0  0  0  0  0  0  0  0
  -22.1920   -8.8340   20.3650 C   0  0  0  0  0  3  0  0  0  0  0  0
  -22.8730  -10.0440   20.1580 C   0  0  0  0  0  3  0  0  0  0  0  0
  -21.9050   -6.7650   21.4740 O   0  0  0  0  0  0  0  0  0  0  0  0
  -21.8010   -6.0990   22.6700 C   0  0  0  0  0  0  0  0  0  0  0  0
  -21.2560   -6.7120   23.8190 C   0  0  0  0  0  3  0  0  0  0  0  0
  -21.1030   -5.9710   25.0070 C   0  0  0  0  0  3  0  0  0  0  0  0
  -21.4870   -4.6170   25.0460 C   0  0  0  0  0  0  0  0  0  0  0  0
  -22.0260   -4.0030   23.9030 C   0  0  0  0  0  3  0  0  0  0  0  0
  -22.1790   -4.7420   22.7160 C   0  0  0  0  0  0  0  0  0  0  0  0
  -22.6790   -4.1420   21.6090 F   0  0  0  0  0  0  0  0  0  0  0  0
  -21.3330   -3.9010   26.1840 F   0  0  0  0  0  0  0  0  0  0  0  0
  -22.7540  -13.4370   21.0610 C   0  0  0  0  0  0  0  0  0  0  0  0
  -22.0780  -12.7460   21.9700 N   0  0  0  0  0  0  0  0  0  0  0  0
  -22.2670  -14.4290   20.5190 O   0  0  0  0  0  0  0  0  0  0  0  0
  -22.4870  -11.9450   22.4290 H   0  0  0  0  0  0  0  0  0  0  0  0
  -21.1370  -13.0210   22.2120 H   0  0  0  0  0  0  0  0  0  0  0  0
  -25.3000  -15.1750   20.1610 N   0  0  0  0  0  0  0  0  0  0  0  0
  -24.4980  -15.7870   20.2660 H   0  0  0  0  0  0  0  0  0  0  0  0
  -26.0940  -15.6400   19.7490 H   0  0  0  0  0  0  0  0  0  0  0  0
  -28.7380  -16.3070   18.9360 C   0  0  0  0  0  2  0  0  0  0  0  0
  -28.6570  -17.3040   17.8360 N   0  0  0  0  0  4  0  0  0  0  0  0
  -28.7730  -18.2550   18.1350 H   0  0  0  0  0  0  0  0  0  0  0  0
  -27.7490  -17.2430   17.4050 H   0  0  0  0  0  0  0  0  0  0  0  0
  -29.3250  -17.1140   17.1090 H   0  0  0  0  0  0  0  0  0  0  0  0
  1  3  1  0
  1  2  1  6
  3  4  1  0
  4  5  1  0
  5  6  1  0
  6  7  1  0
  7 10  1  0
  7  9  1  0
  8  7  1  0
 11  1  1  0
 12 11  2  0
 13 15  1  0
 13 17  1  0
 14 16  1  0
 15 18  1  0
 17 19  1  0
 17 14  1  0
 18 12  1  0
 18 16  1  0
 20 31  2  0
 21 19  1  0
 21 26  1  0
 22 30  1  0
 22 32  1  0
 23 25  1  0
 24 30  1  0
 25 26  2  0
 25 24  1  0
 27 21  2  0
 28 27  1  0
 28 23  2  0
 29 23  1  0
 29 22  1  0
 30 20  1  0
 32 34  2  0
 33 32  1  0
 35 33  1  0
 36 45  2  0
 36 41  1  0
 37 33  1  0
 37 41  1  0
 38 37  1  0
 39 40  1  0
 39 38  1  0
 40 36  1  0
 41 42  2  0
 42 43  1  0
 44 43  2  0
 45 44  1  0
 46 20  1  0
 46 47  1  0
 46 56  1  0
 47 50  1  0
 48 52  1  0
 48 47  1  0
 49 48  2  0
 52 51  1  0
 54 52  1  0
 54 55  1  0
 54 53  1  0
 56 59  1  1
 56 57  1  0
 58 56  1  0
 60  1  1  0
 61 98  1  0
 61 62  1  0
 61 60  1  0
 63 68  1  0
 64 65  1  0
 64 63  1  0
 66 65  1  0
 66 73  1  0
 66 67  1  0
 68 62  1  0
 68 67  1  0
 69 62  2  0
 70 71  2  0
 71 90  1  0
 72 71  1  0
 72 75  1  0
 73 70  1  0
 73 74  1  0
 74 72  2  0
 75 76  1  0
 76 77  2  0
 78 81  1  0
 78 77  1  0
 79 78  2  0
 80 79  1  0
 80 75  2  0
 81 82  1  0
 82 87  2  0
 82 83  1  0
 83 84  2  0
 84 85  1  0
 85 89  1  0
 86 85  2  0
 87 86  1  0
 88 87  1  0
 90 91  1  0
 91 94  1  0
 91 93  1  0
 92 90  2  0
 95 96  1  0
 95 70  1  0
 97 95  1  0
 99100  1  0
 99 98  1  0
101 99  1  0
102 99  1  0
M  ISO  4  17 101  19 101  61 100  62 100
M  END
>  <TORSDO>  (85) 
F 28

>  <SCORE>  (85) 
-4.472

>  <name>  (85) 
88

>  <ligand_id>  (85) 
88

>  <original_smiles>  (85) 
[H]c1c([H])c([H])c2c(c1[H])C([H])([H])C([H])([H])C([H])([H])C2([H])N([H])C(=O)C1([H])N(C(=O)C([H])(N([H])C(=O)C([H])(N([H])C([H])([H])[H])C([H])([H])[H])C(C([H])([H])[H])(C([H])([H])[H])C([H])([H])[H])C([H])([H])c2c([H])c(OC3([H])C([H])([H])C([H])([H])N(C([H])([H])C([H])([H])[N+]([H])(C([H])([H])C([H])([H])C([H])([H])C([H])([H])[N+]([H])([H])[H])C([H])([H])C([H])(C(=O)N4C([H])([H])C([H])([H])C([H])([H])C([H])(n5nc(-c6c([H])c([H])c(Oc7c([H])c([H])c(F)c([H])c7F)c([H])c6[H])c(C(=O)N([H])[H])c5N([H])[H])C4([H])[H])C([H])([H])[N+]([H])([H])[H])C([H])([H])C3([H])[H])c([H])c([H])c2C1([H])[H]

>  <smiles>  (85) 
[H]c1c([H])c([H])c2c(c1[H])C([H])([H])C([H])([H])C([H])([H])C2([H])N([H])C(=O)C1([H])N(C(=O)C([H])(N([H])C(=O)C([H])(N([H])C([H])([H])[H])C([H])([H])[H])C(C([H])([H])[H])(C([H])([H])[H])C([H])([H])[H])C([H])([H])c2c([H])c(OC3([H])C([H])([H])C([H])([H])N(C([H])([H])C([H])([H])[N+]([H])(C([H])([H])C([H])([H])C([H])([H])C([H])([H])[N+]([H])([H])[H])C([H])([H])C([H])(C(=O)N4C([H])([H])C([H])([H])C([H])([H])C([H])(n5nc(-c6c([H])c([H])c(Oc7c([H])c([H])c(F)c([H])c7F)c([H])c6[H])c(C(=O)N([H])[H])c5N([H])[H])C4([H])[H])C([H])([H])[N+]([H])([H])[H])C([H])([H])C3([H])[H])c([H])c([H])c2C1([H])[H]

$$$$
89:0:0
     RDKit          3D

 97105  0  0  1  0  0  0  0  0999 V2000
  -28.5620  -20.0920   21.0150 C   0  0  0  0  0  3  0  0  0  0  0  0
  -29.3990  -20.6580   18.7960 C   0  0  0  0  0  3  0  0  0  0  0  0
  -28.3950  -21.4610   21.2960 C   0  0  0  0  0  3  0  0  0  0  0  0
  -29.2390  -22.0280   19.0840 C   0  0  0  0  0  3  0  0  0  0  0  0
  -29.0670  -19.6790   19.7600 C   0  0  0  0  0  0  0  0  0  0  0  0
  -28.7400  -22.4370   20.3380 C   0  0  0  0  0  0  0  0  0  0  0  0
  -29.2060  -18.2090   19.3820 C   0  0  0  0  0  2  0  0  0  0  0  0
  -29.6930  -17.3320   20.4700 N   0  0  0  0  0  4  0  0  0  0  0  0
  -30.0310  -17.9090   21.2220 H   0  0  0  0  0  0  0  0  0  0  0  0
  -28.8890  -16.8240   20.8020 H   0  0  0  0  0  0  0  0  0  0  0  0
  -30.7210  -16.3460   20.0590 C   0  0  0  0  0  2  0  0  0  0  0  0
  -31.1920  -15.4520   21.2340 C   0  0  0  0  0  2  0  0  0  0  0  0
  -32.3240  -13.4380   20.0770 C   0  0  0  0  0  0  0  0  0  0  0  0
  -31.8730  -11.0080   19.9200 C   0  0  0  0  0  2  0  0  0  0  0  0
  -30.9110  -10.6250   18.7770 C   0  0  0  0  0  2  0  0  0  0  0  0
  -29.4400  -10.7640   19.2020 C   0  0  0  0  0  2  0  0  0  0  0  0
  -29.1640  -12.1250   19.8750 C   0  0  0  0  0  3  0  0  0  0  0  0
  -30.1970  -12.3810   20.9890 C   0  0  0  0  0  2  0  0  0  0  0  0
  -31.5470  -12.3670   20.4040 N   0  0  0  0  0  0  0  0  0  0  0  0
  -33.2750  -13.3540   19.2980 O   0  0  0  0  0  0  0  0  0  0  0  0
  -32.2750  -14.5120   20.8940 N   0  0  0  0  0  0  0  0  0  0  0  0
  -33.1620  -14.9920   20.8710 H   0  0  0  0  0  0  0  0  0  0  0  0
  -27.0790  -13.3120   20.8090 C   0  0  0  0  0  0  0  0  0  0  0  0
  -25.8330  -12.8450   21.1320 C   0  0  0  0  0  0  0  0  0  0  0  0
  -25.8610  -11.4400   20.8810 C   0  0  0  0  0  0  0  0  0  0  0  0
  -27.7990  -12.2050   20.3890 N   0  0  0  0  0  0  0  0  0  0  0  0
  -27.0690  -11.0660   20.4860 N   0  0  0  0  0  0  0  0  0  0  0  0
  -24.7910  -10.4360   20.9300 C   0  0  0  0  0  0  0  0  0  0  0  0
  -24.9360   -9.2420   21.6700 C   0  0  0  0  0  3  0  0  0  0  0  0
  -23.8880   -8.2970   21.7100 C   0  0  0  0  0  3  0  0  0  0  0  0
  -22.6820   -8.5460   21.0140 C   0  0  0  0  0  0  0  0  0  0  0  0
  -22.5540   -9.7240   20.2590 C   0  0  0  0  0  3  0  0  0  0  0  0
  -23.5980  -10.6620   20.2140 C   0  0  0  0  0  3  0  0  0  0  0  0
  -21.6170   -7.6770   20.9810 O   0  0  0  0  0  0  0  0  0  0  0  0
  -21.2930   -6.8980   22.0630 C   0  0  0  0  0  0  0  0  0  0  0  0
  -20.9740   -7.4620   23.3190 C   0  0  0  0  0  3  0  0  0  0  0  0
  -20.5820   -6.6300   24.3870 C   0  0  0  0  0  3  0  0  0  0  0  0
  -20.4900   -5.2380   24.1980 C   0  0  0  0  0  0  0  0  0  0  0  0
  -20.8000   -4.6730   22.9490 C   0  0  0  0  0  3  0  0  0  0  0  0
  -21.1960   -5.5030   21.8830 C   0  0  0  0  0  0  0  0  0  0  0  0
  -21.4720   -4.9570   20.6750 F   0  0  0  0  0  0  0  0  0  0  0  0
  -20.1040   -4.4390   25.2210 F   0  0  0  0  0  0  0  0  0  0  0  0
  -24.6480  -13.6670   21.5470 C   0  0  0  0  0  0  0  0  0  0  0  0
  -23.7950  -13.1140   22.4020 N   0  0  0  0  0  0  0  0  0  0  0  0
  -24.5030  -14.8240   21.1530 O   0  0  0  0  0  0  0  0  0  0  0  0
  -23.9300  -12.1710   22.7350 H   0  0  0  0  0  0  0  0  0  0  0  0
  -22.9920  -13.6350   22.7210 H   0  0  0  0  0  0  0  0  0  0  0  0
  -27.6510  -14.5820   20.8080 N   0  0  0  0  0  0  0  0  0  0  0  0
  -26.9790  -15.3420   20.8300 H   0  0  0  0  0  0  0  0  0  0  0  0
  -28.3450  -14.7290   20.0870 H   0  0  0  0  0  0  0  0  0  0  0  0
  -28.5900  -23.9170   20.6580 C   0  0  0  0  0  2  0  0  0  0  0  0
  -29.1540  -24.7240   19.5620 N   0  0  0  0  0  4  0  0  0  0  0  0
  -29.4180  -24.0740   18.8400 H   0  0  0  0  0  0  0  0  0  0  0  0
  -30.0020  -25.1560   19.8940 H   0  0  0  0  0  0  0  0  0  0  0  0
  -28.2470  -25.7510   19.0020 C   0  0  0  0  0  2  0  0  0  0  0  0
  -28.8580  -26.4400   17.7590 C   0  0  0  0  0  2  0  0  0  0  0  0
  -28.0990  -27.4870   17.1410 O   0  0  0  0  0  0  0  0  0  0  0  0
  -24.5710  -29.5020   23.0010 C   0  0  0  0  0  0  0  0  0  0  0  0
  -26.9140  -27.8380   17.7310 C   0  0  0  0  0  0  0  0  0  0  0  0
  -23.1820  -28.8630   21.0560 C   0  0  0  0  0  3  0  0  0  0  0  0
  -24.4360  -28.5660   18.8550 C   0  0  0  0  0  0  0  0  0  0  0  0
  -25.5370  -29.8040   20.7260 C   0  0  0  0  0  2  0  0  0  0  0  0
  -25.6300  -28.9700   19.4680 C   0  0  0  0  0  0  0  0  0  0  0  0
  -26.8770  -28.6060   18.9150 C   0  0  0  0  0  3  0  0  0  0  0  0
  -25.7090  -27.4570   17.1090 C   0  0  0  0  0  3  0  0  0  0  0  0
  -24.4700  -27.8020   17.6740 C   0  0  0  0  0  3  0  0  0  0  0  0
  -23.1440  -29.0040   19.5110 C   0  0  0  0  0  2  0  0  0  0  0  0
  -24.4600  -29.3760   21.6490 N   0  0  0  0  0  0  0  0  0  0  0  0
  -23.6180  -29.2390   23.7490 O   0  0  0  0  0  0  0  0  0  0  0  0
  -22.8870  -27.3900   21.4180 C   0  0  0  0  0  0  0  0  0  0  0  0
  -21.6340  -26.9600   21.2030 N   0  0  0  0  0  0  0  0  0  0  0  0
  -23.7750  -26.6550   21.8520 O   0  0  0  0  0  0  0  0  0  0  0  0
  -20.9620  -27.6230   20.8430 H   0  0  0  0  0  0  0  0  0  0  0  0
  -18.7690  -24.8000   20.7910 C   0  0  0  0  0  0  0  0  0  0  0  0
  -21.1420  -25.6040   21.4320 C   0  0  0  0  0  3  0  0  0  0  0  0
  -21.6540  -24.6310   20.3470 C   0  0  0  0  0  2  0  0  0  0  0  0
  -20.6820  -24.4770   19.1730 C   0  0  0  0  0  2  0  0  0  0  0  0
  -19.3310  -23.9520   19.6630 C   0  0  0  0  0  2  0  0  0  0  0  0
  -19.6210  -25.5850   21.6110 C   0  0  0  0  0  0  0  0  0  0  0  0
  -19.0450  -26.3830   22.6230 C   0  0  0  0  0  3  0  0  0  0  0  0
  -17.6530  -26.4040   22.8210 C   0  0  0  0  0  3  0  0  0  0  0  0
  -16.8170  -25.6130   22.0120 C   0  0  0  0  0  3  0  0  0  0  0  0
  -17.3760  -24.8080   21.0060 C   0  0  0  0  0  3  0  0  0  0  0  0
  -25.8870  -30.0030   23.6700 C   0  0  0  0  0  3  0  0  0  0  0  0
  -25.6180  -31.3340   24.2280 N   0  0  0  0  0  0  0  0  0  0  0  0
  -26.0240  -32.4850   23.6740 C   0  0  0  0  0  0  0  0  0  0  0  0
  -26.7350  -32.5280   22.6670 O   0  0  0  0  0  0  0  0  0  0  0  0
  -24.9890  -31.3770   25.0170 H   0  0  0  0  0  0  0  0  0  0  0  0
  -24.3980  -34.3990   23.5610 C   0  0  0  0  0  1  0  0  0  0  0  0
  -25.5690  -33.7910   24.3490 C   0  0  0  0  0  3  0  0  0  0  0  0
  -27.7060  -34.3830   25.4020 C   0  0  0  0  0  1  0  0  0  0  0  0
  -26.6500  -34.7910   24.4800 N   0  0  0  0  0  0  0  0  0  0  0  0
  -26.2800  -35.6820   24.7970 H   0  0  0  0  0  0  0  0  0  0  0  0
  -26.4280  -29.0260   24.7860 C   0  0  1  0  0  0  0  0  0  0  0  0
  -25.3630  -28.6250   25.8310 C   0  0  0  0  0  1  0  0  0  0  0  0
  -26.9810  -27.7260   24.1530 C   0  0  0  0  0  1  0  0  0  0  0  0
  -27.6060  -29.6900   25.5390 C   0  0  0  0  0  1  0  0  0  0  0  0
  1  3  1  0
  2  4  2  0
  2  5  1  0
  4  6  1  0
  5  1  2  0
  6 51  1  0
  6  3  2  0
  7  5  1  0
  7  8  1  0
  8 10  1  0
  8  9  1  0
 11  8  1  0
 11 12  1  0
 13 19  1  0
 13 21  1  0
 14 19  1  0
 15 16  1  0
 15 14  1  0
 17 16  1  0
 17 26  1  0
 17 18  1  0
 19 18  1  0
 20 13  2  0
 21 12  1  0
 22 21  1  0
 23 24  2  0
 24 43  1  0
 25 28  1  0
 25 24  1  0
 26 27  1  0
 26 23  1  0
 27 25  2  0
 28 29  1  0
 29 30  2  0
 31 30  1  0
 32 31  2  0
 33 32  1  0
 33 28  2  0
 34 31  1  0
 34 35  1  0
 35 36  1  0
 36 37  2  0
 38 37  1  0
 38 42  1  0
 39 38  2  0
 40 35  2  0
 40 39  1  0
 41 40  1  0
 43 44  1  0
 44 47  1  0
 44 46  1  0
 45 43  2  0
 48 23  1  0
 48 49  1  0
 50 48  1  0
 52 54  1  0
 52 51  1  0
 53 52  1  0
 55 52  1  0
 56 55  1  0
 57 59  1  0
 57 56  1  0
 58 69  2  0
 59 64  1  0
 60 70  1  0
 60 68  1  0
 61 63  1  0
 61 67  1  0
 62 68  1  0
 63 62  1  0
 64 63  2  0
 65 66  1  0
 65 59  2  0
 66 61  2  0
 67 60  1  0
 68 58  1  0
 70 72  2  0
 71 70  1  0
 73 71  1  0
 74 83  2  0
 74 79  1  0
 75 71  1  0
 75 79  1  0
 76 75  1  0
 77 78  1  0
 77 76  1  0
 78 74  1  0
 79 80  2  0
 80 81  1  0
 82 81  2  0
 83 82  1  0
 84 58  1  0
 84 85  1  0
 84 94  1  0
 85 88  1  0
 86 85  1  0
 86 90  1  0
 87 86  2  0
 90 89  1  0
 90 92  1  0
 92 93  1  0
 92 91  1  0
 94 97  1  1
 94 95  1  0
 96 94  1  0
M  ISO  4  13 100  21 100  56 101  57 101
M  END
>  <TORSDO>  (86) 
F 24

>  <SCORE>  (86) 
-7.747

>  <name>  (86) 
89

>  <ligand_id>  (86) 
89

>  <original_smiles>  (86) 
[H]c1c([H])c([H])c2c(c1[H])C([H])([H])C([H])([H])C([H])([H])C2([H])N([H])C(=O)C1([H])N(C(=O)C([H])(N([H])C(=O)C([H])(N([H])C([H])([H])[H])C([H])([H])[H])C(C([H])([H])[H])(C([H])([H])[H])C([H])([H])[H])C([H])([H])c2c([H])c(OC([H])([H])C([H])([H])[N+]([H])([H])C([H])([H])c3c([H])c([H])c(C([H])([H])[N+]([H])([H])C([H])([H])C([H])([H])N([H])C(=O)N4C([H])([H])C([H])([H])C([H])([H])C([H])(n5nc(-c6c([H])c([H])c(Oc7c([H])c([H])c(F)c([H])c7F)c([H])c6[H])c(C(=O)N([H])[H])c5N([H])[H])C4([H])[H])c([H])c3[H])c([H])c([H])c2C1([H])[H]

>  <smiles>  (86) 
[H]c1c([H])c([H])c2c(c1[H])C([H])([H])C([H])([H])C([H])([H])C2([H])N([H])C(=O)C1([H])N(C(=O)C([H])(N([H])C(=O)C([H])(N([H])C([H])([H])[H])C([H])([H])[H])C(C([H])([H])[H])(C([H])([H])[H])C([H])([H])[H])C([H])([H])c2c([H])c(OC([H])([H])C([H])([H])[N+]([H])([H])C([H])([H])c3c([H])c([H])c(C([H])([H])[N+]([H])([H])C([H])([H])C([H])([H])N([H])C(=O)N4C([H])([H])C([H])([H])C([H])([H])C([H])(n5nc(-c6c([H])c([H])c(Oc7c([H])c([H])c(F)c([H])c7F)c([H])c6[H])c(C(=O)N([H])[H])c5N([H])[H])C4([H])[H])c([H])c3[H])c([H])c([H])c2C1([H])[H]

$$$$
90:0:0
     RDKit          3D

 94103  0  0  1  0  0  0  0  0999 V2000
  -28.9570  -21.3650   20.2800 C   0  0  0  0  0  2  0  0  0  0  0  0
  -30.8570  -14.6710   19.9220 C   0  0  0  0  0  0  0  0  0  0  0  0
  -30.4980  -12.4890   18.7930 C   0  0  0  0  0  2  0  0  0  0  0  0
  -29.4320  -12.6700   17.6950 C   0  0  0  0  0  2  0  0  0  0  0  0
  -28.0160  -12.4890   18.2760 C   0  0  0  0  0  2  0  0  0  0  0  0
  -27.7930  -13.3060   19.5750 C   0  0  0  0  0  3  0  0  0  0  0  0
  -28.9620  -13.1230   20.5650 C   0  0  0  0  0  2  0  0  0  0  0  0
  -30.2030  -13.4700   19.8580 N   0  0  0  0  0  0  0  0  0  0  0  0
  -31.9840  -14.8150   19.4330 O   0  0  0  0  0  0  0  0  0  0  0  0
  -30.5350  -20.1140   22.8980 C   0  0  0  0  0  2  0  0  0  0  0  0
  -30.1920  -18.6100   22.8910 C   0  0  0  0  0  2  0  0  0  0  0  0
  -29.9820  -18.1180   19.0810 C   0  0  0  0  0  2  0  0  0  0  0  0
  -29.5440  -16.6180   19.0760 C   0  0  0  0  0  2  0  0  0  0  0  0
  -29.9690  -16.4470   21.4950 C   0  0  0  0  0  2  0  0  0  0  0  0
  -31.0190  -20.6430   21.5320 C   0  0  0  0  0  2  0  0  0  0  0  0
  -30.3800  -17.9690   21.5020 C   0  0  0  0  0  3  0  0  0  0  0  0
  -29.6680  -18.8470   20.4130 C   0  0  0  0  0  3  0  0  0  0  0  0
  -30.0830  -15.7810   20.1770 N   0  0  0  0  0  0  0  0  0  0  0  0
  -30.0720  -20.3290   20.4200 N   0  0  1  0  0  4  0  0  0  0  0  0
  -30.6160  -20.4470   19.5790 H   0  0  0  0  0  0  0  0  0  0  0  0
  -25.5170  -13.8800   20.6140 C   0  0  0  0  0  0  0  0  0  0  0  0
  -24.4800  -13.0930   21.0400 C   0  0  0  0  0  0  0  0  0  0  0  0
  -24.9010  -11.7420   20.8440 C   0  0  0  0  0  0  0  0  0  0  0  0
  -26.5050  -13.0050   20.1900 N   0  0  0  0  0  0  0  0  0  0  0  0
  -26.1480  -11.7100   20.3880 N   0  0  0  0  0  0  0  0  0  0  0  0
  -24.1740  -10.4800   21.0180 C   0  0  0  0  0  0  0  0  0  0  0  0
  -24.6080   -9.4960   21.9340 C   0  0  0  0  0  3  0  0  0  0  0  0
  -23.8780   -8.2970   22.0930 C   0  0  0  0  0  3  0  0  0  0  0  0
  -22.7030   -8.0750   21.3370 C   0  0  0  0  0  0  0  0  0  0  0  0
  -22.2900   -9.0480   20.4120 C   0  0  0  0  0  3  0  0  0  0  0  0
  -23.0170  -10.2380   20.2490 C   0  0  0  0  0  3  0  0  0  0  0  0
  -21.9470   -6.9300   21.4080 O   0  0  0  0  0  0  0  0  0  0  0  0
  -21.7890   -6.2440   22.5830 C   0  0  0  0  0  0  0  0  0  0  0  0
  -21.2240   -6.8470   23.7290 C   0  0  0  0  0  3  0  0  0  0  0  0
  -21.0150   -6.0850   24.8960 C   0  0  0  0  0  3  0  0  0  0  0  0
  -21.3600   -4.7200   24.9180 C   0  0  0  0  0  0  0  0  0  0  0  0
  -21.9150   -4.1150   23.7760 C   0  0  0  0  0  3  0  0  0  0  0  0
  -22.1270   -4.8750   22.6130 C   0  0  0  0  0  0  0  0  0  0  0  0
  -22.6430   -4.2820   21.5090 F   0  0  0  0  0  0  0  0  0  0  0  0
  -21.1520   -3.9860   26.0360 F   0  0  0  0  0  0  0  0  0  0  0  0
  -23.1350  -13.5670   21.5090 C   0  0  0  0  0  0  0  0  0  0  0  0
  -22.5090  -12.8300   22.4200 N   0  0  0  0  0  0  0  0  0  0  0  0
  -22.6520  -14.6220   21.1030 O   0  0  0  0  0  0  0  0  0  0  0  0
  -22.9120  -11.9700   22.7630 H   0  0  0  0  0  0  0  0  0  0  0  0
  -21.6130  -13.1280   22.7780 H   0  0  0  0  0  0  0  0  0  0  0  0
  -25.6940  -15.2580   20.5310 N   0  0  0  0  0  0  0  0  0  0  0  0
  -24.9610  -15.9150   20.7780 H   0  0  0  0  0  0  0  0  0  0  0  0
  -26.5270  -15.7050   20.1730 H   0  0  0  0  0  0  0  0  0  0  0  0
  -29.3740  -22.8970   20.0180 C   0  0  0  0  0  3  0  0  0  0  0  0
  -31.3400  -22.4150   18.3520 C   0  0  0  0  0  1  0  0  0  0  0  0
  -30.0040  -23.1270   18.6230 C   0  0  0  0  0  2  0  0  0  0  0  0
  -28.2290  -23.9840   20.2110 C   0  0  0  0  0  2  0  0  0  0  0  0
  -28.6240  -25.3800   20.8580 C   0  0  0  0  0  2  0  0  0  0  0  0
  -28.5770  -26.6320   20.1070 O   0  0  0  0  0  0  0  0  0  0  0  0
  -24.5920  -31.8410   23.1100 C   0  0  0  0  0  0  0  0  0  0  0  0
  -27.4080  -27.3810   20.1400 C   0  0  0  0  0  0  0  0  0  0  0  0
  -23.4640  -30.3970   21.4540 C   0  0  0  0  0  3  0  0  0  0  0  0
  -24.9890  -28.8720   20.0830 C   0  0  0  0  0  0  0  0  0  0  0  0
  -25.9910  -30.7990   21.3190 C   0  0  0  0  0  2  0  0  0  0  0  0
  -26.1270  -29.4180   20.6920 C   0  0  0  0  0  0  0  0  0  0  0  0
  -27.3440  -28.6830   20.7040 C   0  0  0  0  0  3  0  0  0  0  0  0
  -26.2480  -26.8590   19.5350 C   0  0  0  0  0  3  0  0  0  0  0  0
  -25.0480  -27.5920   19.5030 C   0  0  0  0  0  3  0  0  0  0  0  0
  -23.7310  -29.7130   20.0870 C   0  0  0  0  0  2  0  0  0  0  0  0
  -24.6990  -31.0280   22.0190 N   0  0  0  0  0  0  0  0  0  0  0  0
  -23.4880  -32.0940   23.6190 O   0  0  0  0  0  0  0  0  0  0  0  0
  -22.8120  -29.3670   22.4060 C   0  0  0  0  0  0  0  0  0  0  0  0
  -21.4830  -29.1990   22.2880 N   0  0  0  0  0  0  0  0  0  0  0  0
  -23.4940  -28.7250   23.2090 O   0  0  0  0  0  0  0  0  0  0  0  0
  -20.9930  -29.7690   21.6140 H   0  0  0  0  0  0  0  0  0  0  0  0
  -18.1000  -28.0470   22.8470 C   0  0  0  0  0  0  0  0  0  0  0  0
  -20.6680  -28.2530   23.0530 C   0  0  0  0  0  3  0  0  0  0  0  0
  -20.7300  -26.8380   22.4340 C   0  0  0  0  0  2  0  0  0  0  0  0
  -19.5960  -26.5630   21.4450 C   0  0  0  0  0  2  0  0  0  0  0  0
  -18.2350  -26.7120   22.1300 C   0  0  0  0  0  2  0  0  0  0  0  0
  -19.2430  -28.7760   23.2670 C   0  0  0  0  0  0  0  0  0  0  0  0
  -19.0660  -30.0260   23.9000 C   0  0  0  0  0  3  0  0  0  0  0  0
  -17.7770  -30.5450   24.1180 C   0  0  0  0  0  3  0  0  0  0  0  0
  -16.6480  -29.8150   23.7100 C   0  0  0  0  0  3  0  0  0  0  0  0
  -16.8100  -28.5680   23.0790 C   0  0  0  0  0  3  0  0  0  0  0  0
  -25.8440  -32.5140   23.7540 C   0  0  0  0  0  3  0  0  0  0  0  0
  -26.3800  -31.7420   25.0240 C   0  0  1  0  0  0  0  0  0  0  0  0
  -25.2820  -31.4400   26.0730 C   0  0  0  0  0  1  0  0  0  0  0  0
  -27.0240  -30.3960   24.6140 C   0  0  0  0  0  1  0  0  0  0  0  0
  -27.4890  -32.5700   25.7110 C   0  0  0  0  0  1  0  0  0  0  0  0
  -25.4780  -33.8930   24.1040 N   0  0  0  0  0  0  0  0  0  0  0  0
  -25.7640  -34.9700   23.3600 C   0  0  0  0  0  0  0  0  0  0  0  0
  -26.4340  -34.9100   22.3240 O   0  0  0  0  0  0  0  0  0  0  0  0
  -24.8800  -34.0130   24.9080 H   0  0  0  0  0  0  0  0  0  0  0  0
  -23.9540  -36.6880   23.0440 C   0  0  0  0  0  1  0  0  0  0  0  0
  -25.2190  -36.3300   23.8390 C   0  0  0  0  0  3  0  0  0  0  0  0
  -27.3160  -37.3000   24.6710 C   0  0  0  0  0  1  0  0  0  0  0  0
  -26.2030  -37.4280   23.7340 N   0  0  0  0  0  0  0  0  0  0  0  0
  -25.7570  -38.3270   23.8990 H   0  0  0  0  0  0  0  0  0  0  0  0
  1 19  1  0
  2 18  1  0
  3  8  1  0
  4  5  1  0
  4  3  1  0
  6  5  1  0
  6 24  1  0
  6  7  1  0
  8  2  1  0
  8  7  1  0
  9  2  2  0
 11 10  1  0
 13 12  1  0
 13 18  1  0
 15 10  1  0
 16 14  1  0
 16 11  1  0
 17 12  1  0
 17 19  1  0
 17 16  1  0
 18 14  1  0
 19 15  1  0
 19 20  1  6
 21 22  2  0
 22 41  1  0
 23 26  1  0
 23 22  1  0
 24 25  1  0
 24 21  1  0
 25 23  2  0
 26 27  1  0
 27 28  2  0
 29 32  1  0
 29 28  1  0
 30 29  2  0
 31 30  1  0
 31 26  2  0
 32 33  1  0
 33 38  2  0
 33 34  1  0
 34 35  2  0
 35 36  1  0
 36 40  1  0
 37 36  2  0
 38 37  1  0
 39 38  1  0
 41 42  1  0
 42 44  1  0
 42 45  1  0
 43 41  2  0
 46 21  1  0
 46 47  1  0
 48 46  1  0
 49 51  1  0
 49 52  1  0
 49  1  1  0
 50 51  1  0
 52 53  1  0
 54 56  1  0
 54 53  1  0
 55 66  2  0
 56 61  1  0
 57 65  1  0
 57 67  1  0
 58 64  1  0
 58 60  1  0
 59 65  1  0
 60 61  2  0
 60 59  1  0
 62 56  2  0
 63 62  1  0
 63 58  2  0
 64 57  1  0
 65 55  1  0
 67 69  2  0
 68 67  1  0
 70 68  1  0
 71 80  2  0
 71 76  1  0
 72 68  1  0
 72 76  1  0
 73 72  1  0
 74 75  1  0
 74 73  1  0
 75 71  1  0
 76 77  2  0
 77 78  1  0
 79 78  2  0
 80 79  1  0
 81 55  1  0
 81 86  1  0
 81 82  1  0
 82 85  1  1
 82 83  1  0
 84 82  1  0
 86 89  1  0
 87 91  1  0
 87 86  1  0
 88 87  2  0
 91 90  1  0
 93 91  1  0
 93 94  1  0
 93 92  1  0
M  ISO  4   2 100  18 100  53 101  54 101
M  END
>  <TORSDO>  (87) 
F 20

>  <SCORE>  (87) 
-12.351

>  <name>  (87) 
90

>  <ligand_id>  (87) 
90

>  <original_smiles>  (87) 
[H]c1c([H])c([H])c2c(c1[H])C([H])([H])C([H])([H])C([H])([H])C2([H])N([H])C(=O)C1([H])N(C(=O)C([H])(N([H])C(=O)C([H])(N([H])C([H])([H])[H])C([H])([H])[H])C(C([H])([H])[H])(C([H])([H])[H])C([H])([H])[H])C([H])([H])c2c([H])c(OC([H])([H])C([H])([H])C([H])(C([H])([H])C([H])([H])[H])C([H])([H])[N+]3([H])C([H])([H])C([H])([H])C([H])([H])C4([H])C([H])([H])N(C(=O)N5C([H])([H])C([H])([H])C([H])([H])C([H])(n6nc(-c7c([H])c([H])c(Oc8c([H])c([H])c(F)c([H])c8F)c([H])c7[H])c(C(=O)N([H])[H])c6N([H])[H])C5([H])[H])C([H])([H])C([H])([H])C43[H])c([H])c([H])c2C1([H])[H]

>  <smiles>  (87) 
[H]c1c([H])c([H])c2c(c1[H])C([H])([H])C([H])([H])C([H])([H])C2([H])N([H])C(=O)C1([H])N(C(=O)C([H])(N([H])C(=O)C([H])(N([H])C([H])([H])[H])C([H])([H])[H])C(C([H])([H])[H])(C([H])([H])[H])C([H])([H])[H])C([H])([H])c2c([H])c(OC([H])([H])C([H])([H])C([H])(C([H])([H])C([H])([H])[H])C([H])([H])[N+]3([H])C([H])([H])C([H])([H])C([H])([H])C4([H])C([H])([H])N(C(=O)N5C([H])([H])C([H])([H])C([H])([H])C([H])(n6nc(-c7c([H])c([H])c(Oc8c([H])c([H])c(F)c([H])c8F)c([H])c7[H])c(C(=O)N([H])[H])c6N([H])[H])C5([H])[H])C([H])([H])C([H])([H])C43[H])c([H])c([H])c2C1([H])[H]

$$$$
92:0:0
     RDKit          3D

 91100  0  0  1  0  0  0  0  0999 V2000
  -30.8610  -14.8420   20.2480 C   0  0  0  0  0  0  0  0  0  0  0  0
  -30.5990  -12.5030   19.3660 C   0  0  0  0  0  2  0  0  0  0  0  0
  -29.6750  -12.5080   18.1280 C   0  0  0  0  0  2  0  0  0  0  0  0
  -28.2000  -12.3880   18.5570 C   0  0  0  0  0  2  0  0  0  0  0  0
  -27.8360  -13.3530   19.7160 C   0  0  0  0  0  3  0  0  0  0  0  0
  -28.8860  -13.3330   20.8480 C   0  0  0  0  0  2  0  0  0  0  0  0
  -30.1850  -13.6340   20.2360 N   0  0  0  0  0  0  0  0  0  0  0  0
  -32.0490  -14.8510   19.9090 O   0  0  0  0  0  0  0  0  0  0  0  0
  -30.8790  -20.3510   22.9600 C   0  0  0  0  0  2  0  0  0  0  0  0
  -30.2500  -18.9630   22.9580 C   0  0  0  0  0  2  0  0  0  0  0  0
  -30.1100  -18.5510   19.1940 C   0  0  0  0  0  2  0  0  0  0  0  0
  -29.8760  -16.9550   19.1280 C   0  0  0  0  0  2  0  0  0  0  0  0
  -29.9480  -16.8450   21.5620 C   0  0  0  0  0  2  0  0  0  0  0  0
  -30.1150  -21.3030   22.0330 C   0  0  0  0  0  2  0  0  0  0  0  0
  -30.3700  -18.3830   21.5520 C   0  0  0  0  0  3  0  0  0  0  0  0
  -29.6730  -19.3340   20.4870 C   0  0  0  0  0  3  0  0  0  0  0  0
  -30.1510  -16.0620   20.3140 N   0  0  0  0  0  0  0  0  0  0  0  0
  -30.0250  -20.8770   20.6020 N   0  0  1  0  0  4  0  0  0  0  0  0
  -30.9680  -20.9540   20.2500 H   0  0  0  0  0  0  0  0  0  0  0  0
  -25.4810  -14.0420   20.4480 C   0  0  0  0  0  0  0  0  0  0  0  0
  -24.3840  -13.3150   20.8220 C   0  0  0  0  0  0  0  0  0  0  0  0
  -24.7900  -11.9450   20.8000 C   0  0  0  0  0  0  0  0  0  0  0  0
  -26.4860  -13.1180   20.2150 N   0  0  0  0  0  0  0  0  0  0  0  0
  -26.0780  -11.8530   20.4910 N   0  0  0  0  0  0  0  0  0  0  0  0
  -24.0110  -10.7160   20.9970 C   0  0  0  0  0  0  0  0  0  0  0  0
  -24.4050   -9.7320   21.9300 C   0  0  0  0  0  3  0  0  0  0  0  0
  -23.6280   -8.5690   22.1160 C   0  0  0  0  0  3  0  0  0  0  0  0
  -22.4410   -8.3810   21.3690 C   0  0  0  0  0  0  0  0  0  0  0  0
  -22.0640   -9.3530   20.4250 C   0  0  0  0  0  3  0  0  0  0  0  0
  -22.8420  -10.5080   20.2370 C   0  0  0  0  0  3  0  0  0  0  0  0
  -21.6370   -7.2710   21.4650 O   0  0  0  0  0  0  0  0  0  0  0  0
  -21.5770   -6.5210   22.6120 C   0  0  0  0  0  0  0  0  0  0  0  0
  -21.1940   -7.0810   23.8500 C   0  0  0  0  0  3  0  0  0  0  0  0
  -21.0810   -6.2590   24.9890 C   0  0  0  0  0  3  0  0  0  0  0  0
  -21.3410   -4.8800   24.8910 C   0  0  0  0  0  0  0  0  0  0  0  0
  -21.7170   -4.3190   23.6580 C   0  0  0  0  0  3  0  0  0  0  0  0
  -21.8320   -5.1370   22.5210 C   0  0  0  0  0  0  0  0  0  0  0  0
  -22.1740   -4.5890   21.3310 F   0  0  0  0  0  0  0  0  0  0  0  0
  -21.2240   -4.0880   25.9830 F   0  0  0  0  0  0  0  0  0  0  0  0
  -23.0080  -13.8530   21.0900 C   0  0  0  0  0  0  0  0  0  0  0  0
  -22.2590  -13.2040   21.9740 N   0  0  0  0  0  0  0  0  0  0  0  0
  -22.6100  -14.8840   20.5500 O   0  0  0  0  0  0  0  0  0  0  0  0
  -22.5940  -12.3700   22.4310 H   0  0  0  0  0  0  0  0  0  0  0  0
  -21.3350  -13.5480   22.1970 H   0  0  0  0  0  0  0  0  0  0  0  0
  -25.7050  -15.4030   20.2630 N   0  0  0  0  0  0  0  0  0  0  0  0
  -24.9710  -16.0940   20.3760 H   0  0  0  0  0  0  0  0  0  0  0  0
  -26.5810  -15.8020   19.9520 H   0  0  0  0  0  0  0  0  0  0  0  0
  -29.2110  -21.9890   19.8470 C   0  0  0  0  0  2  0  0  0  0  0  0
  -29.4080  -23.6110   20.2090 C   0  0  0  0  0  3  0  0  0  0  0  0
  -28.4220  -24.8190   19.6720 C   0  0  0  0  0  3  0  0  0  0  0  0
  -28.5660  -26.3020   20.0280 O   0  0  0  0  0  0  0  0  0  0  0  0
  -24.6160  -31.6250   23.1100 C   0  0  0  0  0  0  0  0  0  0  0  0
  -27.4470  -27.1880   19.9630 C   0  0  0  0  0  0  0  0  0  0  0  0
  -23.4930  -30.2120   21.4290 C   0  0  0  0  0  3  0  0  0  0  0  0
  -25.0240  -28.7630   19.9670 C   0  0  0  0  0  0  0  0  0  0  0  0
  -26.0240  -30.6300   21.2780 C   0  0  0  0  0  2  0  0  0  0  0  0
  -26.1720  -29.2670   20.5910 C   0  0  0  0  0  0  0  0  0  0  0  0
  -27.3830  -28.4940   20.5770 C   0  0  0  0  0  3  0  0  0  0  0  0
  -26.2720  -26.7730   19.2960 C   0  0  0  0  0  3  0  0  0  0  0  0
  -25.0820  -27.5280   19.3050 C   0  0  0  0  0  3  0  0  0  0  0  0
  -23.7480  -29.5850   20.0330 C   0  0  0  0  0  2  0  0  0  0  0  0
  -24.7300  -30.8420   21.9940 N   0  0  0  0  0  0  0  0  0  0  0  0
  -23.5170  -31.8380   23.6420 O   0  0  0  0  0  0  0  0  0  0  0  0
  -22.8690  -29.1440   22.3600 C   0  0  0  0  0  0  0  0  0  0  0  0
  -21.5470  -28.9270   22.2420 N   0  0  0  0  0  0  0  0  0  0  0  0
  -23.5760  -28.5130   23.1520 O   0  0  0  0  0  0  0  0  0  0  0  0
  -21.0330  -29.4880   21.5790 H   0  0  0  0  0  0  0  0  0  0  0  0
  -18.2150  -27.6070   22.7550 C   0  0  0  0  0  0  0  0  0  0  0  0
  -20.7700  -27.9340   22.9880 C   0  0  0  0  0  3  0  0  0  0  0  0
  -20.9020  -26.5300   22.3540 C   0  0  0  0  0  2  0  0  0  0  0  0
  -19.7920  -26.2160   21.3470 C   0  0  0  0  0  2  0  0  0  0  0  0
  -18.4190  -26.2920   22.0210 C   0  0  0  0  0  2  0  0  0  0  0  0
  -19.3190  -28.3860   23.1960 C   0  0  0  0  0  0  0  0  0  0  0  0
  -19.0730  -29.6150   23.8450 C   0  0  0  0  0  3  0  0  0  0  0  0
  -17.7570  -30.0680   24.0560 C   0  0  0  0  0  3  0  0  0  0  0  0
  -16.6690  -29.2860   23.6310 C   0  0  0  0  0  3  0  0  0  0  0  0
  -16.8980  -28.0580   22.9870 C   0  0  0  0  0  3  0  0  0  0  0  0
  -25.8600  -32.3060   23.7560 C   0  0  0  0  0  3  0  0  0  0  0  0
  -25.4970  -33.6980   24.0650 N   0  0  0  0  0  0  0  0  0  0  0  0
  -25.7980  -34.7540   23.2980 C   0  0  0  0  0  0  0  0  0  0  0  0
  -26.4800  -34.6620   22.2730 O   0  0  0  0  0  0  0  0  0  0  0  0
  -24.8900  -33.8390   24.8590 H   0  0  0  0  0  0  0  0  0  0  0  0
  -24.0030  -36.4770   22.9230 C   0  0  0  0  0  1  0  0  0  0  0  0
  -25.2600  -36.1310   23.7360 C   0  0  0  0  0  3  0  0  0  0  0  0
  -27.3600  -37.1100   24.5500 C   0  0  0  0  0  1  0  0  0  0  0  0
  -26.2520  -37.2200   23.6050 N   0  0  0  0  0  0  0  0  0  0  0  0
  -25.8110  -38.1270   23.7350 H   0  0  0  0  0  0  0  0  0  0  0  0
  -26.3660  -31.5670   25.0560 C   0  0  1  0  0  0  0  0  0  0  0  0
  -25.2550  -31.3160   26.1020 C   0  0  0  0  0  1  0  0  0  0  0  0
  -26.9960  -30.2000   24.7020 C   0  0  0  0  0  1  0  0  0  0  0  0
  -27.4790  -32.4030   25.7330 C   0  0  0  0  0  1  0  0  0  0  0  0
  1 17  1  0
  2  7  1  0
  3  4  1  0
  3  2  1  0
  5  4  1  0
  5 23  1  0
  5  6  1  0
  7  1  1  0
  7  6  1  0
  8  1  2  0
 10  9  1  0
 12 11  1  0
 12 17  1  0
 14  9  1  0
 15 13  1  0
 15 10  1  0
 16 11  1  0
 16 18  1  0
 16 15  1  0
 17 13  1  0
 18 14  1  0
 18 19  1  6
 20 21  2  0
 21 40  1  0
 22 21  1  0
 22 25  1  0
 23 20  1  0
 23 24  1  0
 24 22  2  0
 25 26  1  0
 26 27  2  0
 28 31  1  0
 28 27  1  0
 29 28  2  0
 30 29  1  0
 30 25  2  0
 31 32  1  0
 32 33  1  0
 33 34  2  0
 35 34  1  0
 35 39  1  0
 36 35  2  0
 37 32  2  0
 37 36  1  0
 38 37  1  0
 40 41  1  0
 41 44  1  0
 41 43  1  0
 42 40  2  0
 45 46  1  0
 45 20  1  0
 47 45  1  0
 48 49  1  0
 48 18  1  0
 50 51  1  0
 50 49  2  0
 52 63  2  0
 53 51  1  0
 53 58  1  0
 54 62  1  0
 54 64  1  0
 55 61  1  0
 55 57  1  0
 56 62  1  0
 57 56  1  0
 58 57  2  0
 59 60  1  0
 59 53  2  0
 60 55  2  0
 61 54  1  0
 62 52  1  0
 64 66  2  0
 65 64  1  0
 67 65  1  0
 68 77  2  0
 68 73  1  0
 69 65  1  0
 69 73  1  0
 70 69  1  0
 71 72  1  0
 71 70  1  0
 72 68  1  0
 73 74  2  0
 74 75  1  0
 76 75  2  0
 77 76  1  0
 78 52  1  0
 78 79  1  0
 78 88  1  0
 79 82  1  0
 80 84  1  0
 80 79  1  0
 81 80  2  0
 84 83  1  0
 86 87  1  0
 86 84  1  0
 86 85  1  0
 88 91  1  1
 88 89  1  0
 90 88  1  0
M  ISO  4   1 100  17 100  50 101  51 101
M  END
>  <TORSDO>  (88) 
F 18

>  <SCORE>  (88) 
-13.171

>  <name>  (88) 
92

>  <ligand_id>  (88) 
92

>  <original_smiles>  (88) 
[H]c1c([H])c([H])c2c(c1[H])C([H])([H])C([H])([H])C([H])([H])C2([H])N([H])C(=O)C1([H])N(C(=O)C([H])(N([H])C(=O)C([H])(N([H])C([H])([H])[H])C([H])([H])[H])C(C([H])([H])[H])(C([H])([H])[H])C([H])([H])[H])C([H])([H])c2c([H])c(OC([H])([H])C([H])([H])C([H])([H])[N+]3([H])C([H])([H])C([H])([H])C([H])([H])C4([H])C([H])([H])N(C(=O)N5C([H])([H])C([H])([H])C([H])([H])C([H])(n6nc(-c7c([H])c([H])c(Oc8c([H])c([H])c(F)c([H])c8F)c([H])c7[H])c(C(=O)N([H])[H])c6N([H])[H])C5([H])[H])C([H])([H])C([H])([H])C43[H])c([H])c([H])c2C1([H])[H]

>  <smiles>  (88) 
[H]c1c([H])c([H])c2c(c1[H])C([H])([H])C([H])([H])C([H])([H])C2([H])N([H])C(=O)C1([H])N(C(=O)C([H])(N([H])C(=O)C([H])(N([H])C([H])([H])[H])C([H])([H])[H])C(C([H])([H])[H])(C([H])([H])[H])C([H])([H])[H])C([H])([H])c2c([H])c(OC([H])([H])C([H])([H])C([H])([H])[N+]3([H])C([H])([H])C([H])([H])C([H])([H])C4([H])C([H])([H])N(C(=O)N5C([H])([H])C([H])([H])C([H])([H])C([H])(n6nc(-c7c([H])c([H])c(Oc8c([H])c([H])c(F)c([H])c8F)c([H])c7[H])c(C(=O)N([H])[H])c6N([H])[H])C5([H])[H])C([H])([H])C([H])([H])C43[H])c([H])c([H])c2C1([H])[H]

$$$$
93:0:0
     RDKit          3D

 91 99  0  0  1  0  0  0  0  0999 V2000
  -28.3100  -22.3290   21.9150 C   0  0  0  0  0  2  0  0  0  0  0  0
  -29.8340  -22.5920   19.9590 C   0  0  0  0  0  2  0  0  0  0  0  0
  -28.2610  -20.8070   21.6560 C   0  0  0  0  0  2  0  0  0  0  0  0
  -29.7810  -21.0540   19.7430 C   0  0  0  0  0  2  0  0  0  0  0  0
  -28.5500  -23.1390   20.6250 C   0  0  0  0  0  3  0  0  0  0  0  0
  -29.5050  -20.3110   21.0070 N   0  0  2  0  0  4  0  0  0  0  0  0
  -30.2530  -20.5380   21.6470 H   0  0  0  0  0  0  0  0  0  0  0  0
  -28.5640  -24.6630   20.9430 C   0  0  0  0  0  2  0  0  0  0  0  0
  -28.8330  -25.6220   19.7600 C   0  0  0  0  0  2  0  0  0  0  0  0
  -28.7150  -27.0010   20.1580 O   0  0  0  0  0  0  0  0  0  0  0  0
  -24.6950  -31.9710   23.3070 C   0  0  0  0  0  0  0  0  0  0  0  0
  -27.4900  -27.6490   20.1670 C   0  0  0  0  0  0  0  0  0  0  0  0
  -23.5420  -30.5730   21.6230 C   0  0  0  0  0  3  0  0  0  0  0  0
  -25.0500  -29.1000   20.1850 C   0  0  0  0  0  0  0  0  0  0  0  0
  -26.0600  -31.0000   21.4600 C   0  0  0  0  0  2  0  0  0  0  0  0
  -26.1870  -29.6420   20.7940 C   0  0  0  0  0  0  0  0  0  0  0  0
  -27.4070  -28.9240   20.7810 C   0  0  0  0  0  3  0  0  0  0  0  0
  -26.3240  -27.1180   19.5670 C   0  0  0  0  0  3  0  0  0  0  0  0
  -25.1140  -27.8380   19.5700 C   0  0  0  0  0  3  0  0  0  0  0  0
  -23.7830  -29.9280   20.2320 C   0  0  0  0  0  2  0  0  0  0  0  0
  -24.7830  -31.1950   22.1890 N   0  0  0  0  0  0  0  0  0  0  0  0
  -23.6000  -32.2050   23.8390 O   0  0  0  0  0  0  0  0  0  0  0  0
  -22.9060  -29.5160   22.5550 C   0  0  0  0  0  0  0  0  0  0  0  0
  -21.5900  -29.2970   22.4010 N   0  0  0  0  0  0  0  0  0  0  0  0
  -23.5940  -28.8960   23.3710 O   0  0  0  0  0  0  0  0  0  0  0  0
  -21.0970  -29.8500   21.7140 H   0  0  0  0  0  0  0  0  0  0  0  0
  -18.2400  -28.0110   22.8210 C   0  0  0  0  0  0  0  0  0  0  0  0
  -20.7860  -28.3220   23.1360 C   0  0  0  0  0  3  0  0  0  0  0  0
  -20.9320  -26.9090   22.5250 C   0  0  0  0  0  2  0  0  0  0  0  0
  -19.8510  -26.5840   21.4880 C   0  0  0  0  0  2  0  0  0  0  0  0
  -18.4580  -26.6810   22.1180 C   0  0  0  0  0  2  0  0  0  0  0  0
  -19.3340  -28.7880   23.2850 C   0  0  0  0  0  0  0  0  0  0  0  0
  -19.0800  -30.0320   23.9010 C   0  0  0  0  0  3  0  0  0  0  0  0
  -17.7620  -30.5010   24.0590 C   0  0  0  0  0  3  0  0  0  0  0  0
  -16.6820  -29.7190   23.6170 C   0  0  0  0  0  3  0  0  0  0  0  0
  -16.9210  -28.4760   23.0030 C   0  0  0  0  0  3  0  0  0  0  0  0
  -25.9570  -32.6200   23.9570 C   0  0  0  0  0  3  0  0  0  0  0  0
  -25.6310  -34.0200   24.2580 N   0  0  0  0  0  0  0  0  0  0  0  0
  -25.9770  -35.0620   23.4920 C   0  0  0  0  0  0  0  0  0  0  0  0
  -26.6770  -34.9490   22.4820 O   0  0  0  0  0  0  0  0  0  0  0  0
  -25.0170  -34.1830   25.0430 H   0  0  0  0  0  0  0  0  0  0  0  0
  -24.2440  -36.8300   23.0620 C   0  0  0  0  0  1  0  0  0  0  0  0
  -25.4660  -36.4540   23.9130 C   0  0  0  0  0  3  0  0  0  0  0  0
  -27.5680  -37.3730   24.7900 C   0  0  0  0  0  1  0  0  0  0  0  0
  -26.4930  -37.5130   23.8100 N   0  0  0  0  0  0  0  0  0  0  0  0
  -26.0750  -38.4320   23.9270 H   0  0  0  0  0  0  0  0  0  0  0  0
  -26.4440  -31.8680   25.2550 C   0  0  1  0  0  0  0  0  0  0  0  0
  -25.3180  -31.6080   26.2840 C   0  0  0  0  0  1  0  0  0  0  0  0
  -27.0720  -30.5040   24.8870 C   0  0  0  0  0  1  0  0  0  0  0  0
  -27.5520  -32.6910   25.9530 C   0  0  0  0  0  1  0  0  0  0  0  0
  -29.5140  -18.8180   20.8730 C   0  0  0  0  0  2  0  0  0  0  0  0
  -30.9300  -18.2070   20.6770 C   0  0  0  0  0  2  0  0  0  0  0  0
  -31.2490  -16.9190   21.4920 C   0  0  0  0  0  2  0  0  0  0  0  0
  -31.2110  -14.6930   20.3230 C   0  0  0  0  0  0  0  0  0  0  0  0
  -30.8730  -12.5040   19.2220 C   0  0  0  0  0  2  0  0  0  0  0  0
  -29.9310  -12.6550   18.0130 C   0  0  0  0  0  2  0  0  0  0  0  0
  -28.4580  -12.5460   18.4530 C   0  0  0  0  0  2  0  0  0  0  0  0
  -28.1310  -13.4500   19.6710 C   0  0  0  0  0  3  0  0  0  0  0  0
  -29.1800  -13.2680   20.7890 C   0  0  0  0  0  2  0  0  0  0  0  0
  -30.5080  -13.5330   20.2100 N   0  0  0  0  0  0  0  0  0  0  0  0
  -32.3050  -14.8700   19.7820 O   0  0  0  0  0  0  0  0  0  0  0  0
  -30.6150  -15.6710   21.0320 N   0  0  0  0  0  0  0  0  0  0  0  0
  -29.7130  -15.4400   21.4210 H   0  0  0  0  0  0  0  0  0  0  0  0
  -25.7590  -14.1310   20.4030 C   0  0  0  0  0  0  0  0  0  0  0  0
  -24.6700  -13.3920   20.7780 C   0  0  0  0  0  0  0  0  0  0  0  0
  -25.0880  -12.0260   20.7370 C   0  0  0  0  0  0  0  0  0  0  0  0
  -26.7740  -13.2180   20.1590 N   0  0  0  0  0  0  0  0  0  0  0  0
  -26.3730  -11.9470   20.4160 N   0  0  0  0  0  0  0  0  0  0  0  0
  -24.3250  -10.7860   20.9280 C   0  0  0  0  0  0  0  0  0  0  0  0
  -24.6970   -9.8320   21.9010 C   0  0  0  0  0  3  0  0  0  0  0  0
  -23.9370   -8.6560   22.0780 C   0  0  0  0  0  3  0  0  0  0  0  0
  -22.7910   -8.4250   21.2800 C   0  0  0  0  0  0  0  0  0  0  0  0
  -22.4390   -9.3660   20.2970 C   0  0  0  0  0  3  0  0  0  0  0  0
  -23.1990  -10.5340   20.1200 C   0  0  0  0  0  3  0  0  0  0  0  0
  -22.0080   -7.2980   21.3630 O   0  0  0  0  0  0  0  0  0  0  0  0
  -21.8420   -6.6230   22.5450 C   0  0  0  0  0  0  0  0  0  0  0  0
  -21.3020   -7.2490   23.6910 C   0  0  0  0  0  3  0  0  0  0  0  0
  -21.0840   -6.5000   24.8650 C   0  0  0  0  0  3  0  0  0  0  0  0
  -21.3940   -5.1270   24.8930 C   0  0  0  0  0  0  0  0  0  0  0  0
  -21.9260   -4.5020   23.7510 C   0  0  0  0  0  3  0  0  0  0  0  0
  -22.1460   -5.2480   22.5800 C   0  0  0  0  0  0  0  0  0  0  0  0
  -22.6390   -4.6360   21.4760 F   0  0  0  0  0  0  0  0  0  0  0  0
  -21.1770   -4.4050   26.0170 F   0  0  0  0  0  0  0  0  0  0  0  0
  -23.2920  -13.9100   21.0680 C   0  0  0  0  0  0  0  0  0  0  0  0
  -22.5590  -13.2420   21.9500 N   0  0  0  0  0  0  0  0  0  0  0  0
  -22.8760  -14.9440   20.5450 O   0  0  0  0  0  0  0  0  0  0  0  0
  -22.9070  -12.4040   22.3910 H   0  0  0  0  0  0  0  0  0  0  0  0
  -21.6340  -13.5730   22.1890 H   0  0  0  0  0  0  0  0  0  0  0  0
  -25.9670  -15.4970   20.2300 N   0  0  0  0  0  0  0  0  0  0  0  0
  -25.2220  -16.1760   20.3370 H   0  0  0  0  0  0  0  0  0  0  0  0
  -26.8260  -15.9020   19.8810 H   0  0  0  0  0  0  0  0  0  0  0  0
  2  5  1  0
  3  1  1  0
  4  2  1  0
  4  6  1  0
  5  8  1  0
  5  1  1  0
  6  7  1  1
  6  3  1  0
  9 10  1  0
  9  8  1  0
 10 12  1  0
 11 22  2  0
 12 17  1  0
 13 21  1  0
 13 23  1  0
 14 20  1  0
 14 16  1  0
 15 21  1  0
 16 15  1  0
 17 16  2  0
 18 19  1  0
 18 12  2  0
 19 14  2  0
 20 13  1  0
 21 11  1  0
 23 25  2  0
 24 23  1  0
 26 24  1  0
 27 36  2  0
 27 32  1  0
 28 24  1  0
 28 32  1  0
 29 28  1  0
 30 31  1  0
 30 29  1  0
 31 27  1  0
 32 33  2  0
 33 34  1  0
 35 34  2  0
 36 35  1  0
 37 11  1  0
 37 38  1  0
 37 47  1  0
 38 41  1  0
 39 43  1  0
 39 38  1  0
 40 39  2  0
 43 42  1  0
 45 43  1  0
 45 46  1  0
 45 44  1  0
 47 50  1  1
 47 48  1  0
 49 47  1  0
 51  6  1  0
 52 51  1  0
 52 53  1  0
 54 62  1  0
 55 60  1  0
 56 57  1  0
 56 55  1  0
 58 57  1  0
 58 67  1  0
 58 59  1  0
 60 54  1  0
 60 59  1  0
 61 54  2  0
 62 63  1  0
 62 53  1  0
 64 65  2  0
 65 84  1  0
 66 65  1  0
 66 69  1  0
 67 64  1  0
 67 68  1  0
 68 66  2  0
 69 70  1  0
 70 71  2  0
 72 75  1  0
 72 71  1  0
 73 72  2  0
 74 73  1  0
 74 69  2  0
 75 76  1  0
 76 81  2  0
 76 77  1  0
 77 78  2  0
 78 79  1  0
 79 83  1  0
 80 79  2  0
 81 80  1  0
 82 81  1  0
 84 85  1  0
 85 88  1  0
 85 87  1  0
 86 84  2  0
 89 90  1  0
 89 64  1  0
 91 89  1  0
M  ISO  4   9 101  10 101  54 100  62 100
M  END
>  <TORSDO>  (89) 
F 21

>  <SCORE>  (89) 
-12.479

>  <name>  (89) 
93

>  <ligand_id>  (89) 
93

>  <original_smiles>  (89) 
[H]c1c([H])c([H])c2c(c1[H])C([H])([H])C([H])([H])C([H])([H])C2([H])N([H])C(=O)C1([H])N(C(=O)C([H])(N([H])C(=O)C([H])(N([H])C([H])([H])[H])C([H])([H])[H])C(C([H])([H])[H])(C([H])([H])[H])C([H])([H])[H])C([H])([H])c2c([H])c(OC([H])([H])C([H])([H])C3([H])C([H])([H])C([H])([H])[N+]([H])(C([H])([H])C([H])([H])C([H])([H])N([H])C(=O)N4C([H])([H])C([H])([H])C([H])([H])C([H])(n5nc(-c6c([H])c([H])c(Oc7c([H])c([H])c(F)c([H])c7F)c([H])c6[H])c(C(=O)N([H])[H])c5N([H])[H])C4([H])[H])C([H])([H])C3([H])[H])c([H])c([H])c2C1([H])[H]

>  <smiles>  (89) 
[H]c1c([H])c([H])c2c(c1[H])C([H])([H])C([H])([H])C([H])([H])C2([H])N([H])C(=O)C1([H])N(C(=O)C([H])(N([H])C(=O)C([H])(N([H])C([H])([H])[H])C([H])([H])[H])C(C([H])([H])[H])(C([H])([H])[H])C([H])([H])[H])C([H])([H])c2c([H])c(OC([H])([H])C([H])([H])C3([H])C([H])([H])C([H])([H])[N+]([H])(C([H])([H])C([H])([H])C([H])([H])N([H])C(=O)N4C([H])([H])C([H])([H])C([H])([H])C([H])(n5nc(-c6c([H])c([H])c(Oc7c([H])c([H])c(F)c([H])c7F)c([H])c6[H])c(C(=O)N([H])[H])c5N([H])[H])C4([H])[H])C([H])([H])C3([H])[H])c([H])c([H])c2C1([H])[H]

$$$$
94:0:0
     RDKit          3D

 90 99  0  0  1  0  0  0  0  0999 V2000
  -30.8750  -15.0170   20.0960 C   0  0  0  0  0  0  0  0  0  0  0  0
  -30.6280  -12.5910   19.3360 C   0  0  0  0  0  2  0  0  0  0  0  0
  -29.6950  -12.4460   18.1130 C   0  0  0  0  0  2  0  0  0  0  0  0
  -28.2310  -12.3090   18.5660 C   0  0  0  0  0  2  0  0  0  0  0  0
  -27.8560  -13.3340   19.6700 C   0  0  0  0  0  3  0  0  0  0  0  0
  -28.9220  -13.4540   20.7820 C   0  0  0  0  0  2  0  0  0  0  0  0
  -30.1910  -13.7920   20.1210 N   0  0  0  0  0  0  0  0  0  0  0  0
  -32.0720  -14.9360   19.7900 O   0  0  0  0  0  0  0  0  0  0  0  0
  -29.9590  -17.8490   22.2890 C   0  0  0  0  0  2  0  0  0  0  0  0
  -28.6960  -18.4430   21.6160 C   0  0  0  0  0  2  0  0  0  0  0  0
  -31.7810  -18.5460   20.5800 C   0  0  0  0  0  2  0  0  0  0  0  0
  -29.5150  -17.3180   19.4750 C   0  0  0  0  0  2  0  0  0  0  0  0
  -31.1360  -19.7400   19.7160 C   0  0  0  0  0  2  0  0  0  0  0  0
  -30.9840  -17.3180   21.2540 C   0  0  0  0  0  3  0  0  0  0  0  0
  -28.9500  -18.7660   20.1280 C   0  0  0  0  0  3  0  0  0  0  0  0
  -30.3010  -16.3210   20.3640 N   0  0  0  0  0  0  0  0  0  0  0  0
  -29.7310  -20.1230   20.0550 N   0  0  2  0  0  4  0  0  0  0  0  0
  -29.7920  -20.3850   21.0280 H   0  0  0  0  0  0  0  0  0  0  0  0
  -25.5600  -14.0430   20.5320 C   0  0  0  0  0  0  0  0  0  0  0  0
  -24.4490  -13.3340   20.8960 C   0  0  0  0  0  0  0  0  0  0  0  0
  -24.8030  -11.9540   20.7760 C   0  0  0  0  0  0  0  0  0  0  0  0
  -26.5210  -13.1020   20.2060 N   0  0  0  0  0  0  0  0  0  0  0  0
  -26.0770  -11.8350   20.4160 N   0  0  0  0  0  0  0  0  0  0  0  0
  -23.9810  -10.7450   20.9250 C   0  0  0  0  0  0  0  0  0  0  0  0
  -24.3910   -9.6680   21.7420 C   0  0  0  0  0  3  0  0  0  0  0  0
  -23.5740   -8.5260   21.8840 C   0  0  0  0  0  3  0  0  0  0  0  0
  -22.3310   -8.4530   21.2120 C   0  0  0  0  0  0  0  0  0  0  0  0
  -21.9370   -9.5180   20.3820 C   0  0  0  0  0  3  0  0  0  0  0  0
  -22.7540  -10.6530   20.2370 C   0  0  0  0  0  3  0  0  0  0  0  0
  -21.4850   -7.3720   21.2690 O   0  0  0  0  0  0  0  0  0  0  0  0
  -21.5040   -6.4990   22.3280 C   0  0  0  0  0  0  0  0  0  0  0  0
  -21.2850   -6.9300   23.6550 C   0  0  0  0  0  3  0  0  0  0  0  0
  -21.2470   -5.9880   24.7040 C   0  0  0  0  0  3  0  0  0  0  0  0
  -21.4200   -4.6180   24.4280 C   0  0  0  0  0  0  0  0  0  0  0  0
  -21.6320   -4.1880   23.1070 C   0  0  0  0  0  3  0  0  0  0  0  0
  -21.6720   -5.1260   22.0600 C   0  0  0  0  0  0  0  0  0  0  0  0
  -21.8580   -4.7040   20.7860 F   0  0  0  0  0  0  0  0  0  0  0  0
  -21.3760   -3.7140   25.4340 F   0  0  0  0  0  0  0  0  0  0  0  0
  -23.1060  -13.9040   21.2410 C   0  0  0  0  0  0  0  0  0  0  0  0
  -22.3610  -13.2340   22.1110 N   0  0  0  0  0  0  0  0  0  0  0  0
  -22.7300  -14.9780   20.7720 O   0  0  0  0  0  0  0  0  0  0  0  0
  -22.6770  -12.3650   22.5140 H   0  0  0  0  0  0  0  0  0  0  0  0
  -21.4580  -13.5980   22.3810 H   0  0  0  0  0  0  0  0  0  0  0  0
  -25.8310  -15.4050   20.4230 N   0  0  0  0  0  0  0  0  0  0  0  0
  -25.1280  -16.1150   20.6000 H   0  0  0  0  0  0  0  0  0  0  0  0
  -26.7100  -15.7870   20.1040 H   0  0  0  0  0  0  0  0  0  0  0  0
  -29.0660  -21.4580   19.4150 C   0  0  0  0  0  2  0  0  0  0  0  0
  -29.3800  -23.1160   19.7880 C   0  0  0  0  0  3  0  0  0  0  0  0
  -28.3840  -24.4840   19.4140 C   0  0  0  0  0  3  0  0  0  0  0  0
  -28.5530  -26.0400   19.6960 O   0  0  0  0  0  0  0  0  0  0  0  0
  -24.5640  -31.4180   22.8950 C   0  0  0  0  0  0  0  0  0  0  0  0
  -27.4610  -27.0060   19.6460 C   0  0  0  0  0  0  0  0  0  0  0  0
  -23.4780  -30.0680   21.1420 C   0  0  0  0  0  3  0  0  0  0  0  0
  -25.0440  -28.6600   19.6550 C   0  0  0  0  0  0  0  0  0  0  0  0
  -26.0200  -30.4700   21.0560 C   0  0  0  0  0  2  0  0  0  0  0  0
  -26.1870  -29.1210   20.3230 C   0  0  0  0  0  0  0  0  0  0  0  0
  -27.3930  -28.3130   20.2980 C   0  0  0  0  0  3  0  0  0  0  0  0
  -26.2900  -26.6690   18.9330 C   0  0  0  0  0  3  0  0  0  0  0  0
  -25.1120  -27.4540   18.9430 C   0  0  0  0  0  3  0  0  0  0  0  0
  -23.7660  -29.4850   19.7310 C   0  0  0  0  0  2  0  0  0  0  0  0
  -24.7050  -30.6730   21.7550 N   0  0  0  0  0  0  0  0  0  0  0  0
  -23.4530  -31.6090   23.4150 O   0  0  0  0  0  0  0  0  0  0  0  0
  -22.8330  -28.9690   22.0260 C   0  0  0  0  0  0  0  0  0  0  0  0
  -21.5090  -28.7680   21.8950 N   0  0  0  0  0  0  0  0  0  0  0  0
  -23.5300  -28.2980   22.7940 O   0  0  0  0  0  0  0  0  0  0  0  0
  -20.9980  -29.3670   21.2630 H   0  0  0  0  0  0  0  0  0  0  0  0
  -18.1690  -27.4320   22.3490 C   0  0  0  0  0  0  0  0  0  0  0  0
  -20.7250  -27.7440   22.5940 C   0  0  0  0  0  3  0  0  0  0  0  0
  -20.8510  -26.3700   21.8960 C   0  0  0  0  0  2  0  0  0  0  0  0
  -19.7390  -26.1060   20.8730 C   0  0  0  0  0  2  0  0  0  0  0  0
  -18.3670  -26.1550   21.5510 C   0  0  0  0  0  2  0  0  0  0  0  0
  -19.2760  -28.1880   22.8260 C   0  0  0  0  0  0  0  0  0  0  0  0
  -19.0340  -29.3830   23.5380 C   0  0  0  0  0  3  0  0  0  0  0  0
  -17.7200  -29.8280   23.7690 C   0  0  0  0  0  3  0  0  0  0  0  0
  -16.6290  -29.0720   23.3040 C   0  0  0  0  0  3  0  0  0  0  0  0
  -16.8560  -27.8740   22.6050 C   0  0  0  0  0  3  0  0  0  0  0  0
  -25.7880  -32.0850   23.5940 C   0  0  0  0  0  3  0  0  0  0  0  0
  -25.3980  -33.4510   23.9810 N   0  0  0  0  0  0  0  0  0  0  0  0
  -25.7040  -34.5580   23.2920 C   0  0  0  0  0  0  0  0  0  0  0  0
  -26.4110  -34.5390   22.2810 O   0  0  0  0  0  0  0  0  0  0  0  0
  -24.7680  -33.5370   24.7650 H   0  0  0  0  0  0  0  0  0  0  0  0
  -23.8980  -36.2910   22.9910 C   0  0  0  0  0  1  0  0  0  0  0  0
  -25.1410  -35.9000   23.8060 C   0  0  0  0  0  3  0  0  0  0  0  0
  -27.2120  -36.8500   24.7260 C   0  0  0  0  0  1  0  0  0  0  0  0
  -26.1230  -37.0060   23.7650 N   0  0  0  0  0  0  0  0  0  0  0  0
  -25.6700  -37.8980   23.9410 H   0  0  0  0  0  0  0  0  0  0  0  0
  -26.2970  -31.2830   24.8570 C   0  0  1  0  0  0  0  0  0  0  0  0
  -25.1850  -30.9600   25.8820 C   0  0  0  0  0  1  0  0  0  0  0  0
  -26.9440  -29.9420   24.4370 C   0  0  0  0  0  1  0  0  0  0  0  0
  -27.4010  -32.0920   25.5800 C   0  0  0  0  0  1  0  0  0  0  0  0
  1  7  1  0
  1 16  1  0
  2  7  1  0
  3  4  1  0
  3  2  1  0
  5  4  1  0
  5 22  1  0
  5  6  1  0
  7  6  1  0
  8  1  2  0
 10  9  1  0
 12 16  1  0
 13 17  1  0
 13 11  1  0
 14 11  1  0
 14  9  1  0
 15 12  1  0
 15 10  1  0
 16 14  1  0
 17 15  1  0
 17 18  1  1
 19 20  2  0
 20 39  1  0
 21 20  1  0
 21 24  1  0
 22 23  1  0
 22 19  1  0
 23 21  2  0
 24 25  1  0
 25 26  2  0
 27 30  1  0
 27 26  1  0
 28 27  2  0
 29 28  1  0
 29 24  2  0
 30 31  1  0
 31 32  1  0
 32 33  2  0
 34 33  1  0
 34 38  1  0
 35 34  2  0
 36 31  2  0
 36 35  1  0
 37 36  1  0
 39 40  1  0
 40 43  1  0
 40 42  1  0
 41 39  2  0
 44 19  1  0
 44 45  1  0
 46 44  1  0
 47 48  1  0
 47 17  1  0
 49 50  1  0
 49 48  2  0
 51 62  2  0
 52 50  1  0
 52 57  1  0
 53 61  1  0
 53 63  1  0
 54 60  1  0
 54 56  1  0
 55 61  1  0
 56 55  1  0
 57 56  2  0
 58 59  1  0
 58 52  2  0
 59 54  2  0
 60 53  1  0
 61 51  1  0
 63 65  2  0
 64 63  1  0
 66 64  1  0
 67 76  2  0
 67 72  1  0
 68 64  1  0
 68 72  1  0
 69 68  1  0
 70 71  1  0
 70 69  1  0
 71 67  1  0
 72 73  2  0
 73 74  1  0
 75 74  2  0
 76 75  1  0
 77 51  1  0
 77 78  1  0
 77 87  1  0
 78 81  1  0
 79 83  1  0
 79 78  1  0
 80 79  2  0
 83 82  1  0
 85 83  1  0
 85 86  1  0
 85 84  1  0
 87 90  1  1
 87 88  1  0
 89 87  1  0
M  ISO  4   1 100  16 100  49 101  50 101
M  END
>  <TORSDO>  (90) 
F 18

>  <SCORE>  (90) 
-12.351

>  <name>  (90) 
94

>  <ligand_id>  (90) 
94

>  <original_smiles>  (90) 
[H]c1c([H])c([H])c2c(c1[H])C([H])([H])C([H])([H])C([H])([H])C2([H])N([H])C(=O)C1([H])N(C(=O)C([H])(N([H])C(=O)C([H])(N([H])C([H])([H])[H])C([H])([H])[H])C(C([H])([H])[H])(C([H])([H])[H])C([H])([H])[H])C([H])([H])c2c([H])c(OC([H])([H])C([H])([H])C([H])([H])[N+]3([H])C([H])([H])C([H])([H])C4([H])N(C(=O)N5C([H])([H])C([H])([H])C([H])([H])C([H])(n6nc(-c7c([H])c([H])c(Oc8c([H])c([H])c(F)c([H])c8F)c([H])c7[H])c(C(=O)N([H])[H])c6N([H])[H])C5([H])[H])C([H])([H])C3([H])C([H])([H])C4([H])[H])c([H])c([H])c2C1([H])[H]

>  <smiles>  (90) 
[H]c1c([H])c([H])c2c(c1[H])C([H])([H])C([H])([H])C([H])([H])C2([H])N([H])C(=O)C1([H])N(C(=O)C([H])(N([H])C(=O)C([H])(N([H])C([H])([H])[H])C([H])([H])[H])C(C([H])([H])[H])(C([H])([H])[H])C([H])([H])[H])C([H])([H])c2c([H])c(OC([H])([H])C([H])([H])C([H])([H])[N+]3([H])C([H])([H])C([H])([H])C4([H])N(C(=O)N5C([H])([H])C([H])([H])C([H])([H])C([H])(n6nc(-c7c([H])c([H])c(Oc8c([H])c([H])c(F)c([H])c8F)c([H])c7[H])c(C(=O)N([H])[H])c6N([H])[H])C5([H])[H])C([H])([H])C3([H])C([H])([H])C4([H])[H])c([H])c([H])c2C1([H])[H]

$$$$
95:0:0
     RDKit          3D

 85 92  0  0  1  0  0  0  0  0999 V2000
  -29.2660  -19.2170   20.1530 C   0  0  0  0  0  0  0  0  0  0  0  0
  -27.9590  -22.1490   20.8030 C   0  0  0  0  0  0  0  0  0  0  0  0
  -28.0300  -20.3820   20.6000 C   0  0  0  0  0  2  0  0  0  0  0  0
  -29.9630  -20.5640   19.3520 C   0  0  0  0  0  2  0  0  0  0  0  0
  -29.6840  -22.3620   19.4790 C   0  0  0  0  0  2  0  0  0  0  0  0
  -28.3220  -23.4440   19.7440 C   0  0  0  0  0  2  0  0  0  0  0  0
  -29.3890  -17.6590   20.3640 N   0  0  0  0  0  0  0  0  0  0  0  0
  -27.5540  -22.5100   21.9140 O   0  0  0  0  0  0  0  0  0  0  0  0
  -30.2490  -16.1690   20.1910 C   0  0  0  0  0  0  0  0  0  0  0  0
  -30.5070  -13.5010   19.5360 C   0  0  0  0  0  2  0  0  0  0  0  0
  -29.6920  -12.9130   18.3340 C   0  0  0  0  0  2  0  0  0  0  0  0
  -28.2860  -12.4840   18.7680 C   0  0  0  0  0  2  0  0  0  0  0  0
  -27.6880  -13.5260   19.7320 C   0  0  0  0  0  3  0  0  0  0  0  0
  -28.6550  -14.0180   20.8420 C   0  0  0  0  0  2  0  0  0  0  0  0
  -29.8080  -14.7240   20.2060 N   0  0  0  0  0  0  0  0  0  0  0  0
  -31.4740  -16.0590   19.9680 O   0  0  0  0  0  0  0  0  0  0  0  0
  -25.3190  -14.0180   20.4700 C   0  0  0  0  0  0  0  0  0  0  0  0
  -24.2610  -13.2310   20.8220 C   0  0  0  0  0  0  0  0  0  0  0  0
  -24.7420  -11.8850   20.8010 C   0  0  0  0  0  0  0  0  0  0  0  0
  -26.3730  -13.1580   20.2410 N   0  0  0  0  0  0  0  0  0  0  0  0
  -26.0420  -11.8640   20.5060 N   0  0  0  0  0  0  0  0  0  0  0  0
  -24.0170  -10.6180   20.9860 C   0  0  0  0  0  0  0  0  0  0  0  0
  -24.4110   -9.6700   21.9550 C   0  0  0  0  0  3  0  0  0  0  0  0
  -23.6790   -8.4750   22.1300 C   0  0  0  0  0  3  0  0  0  0  0  0
  -22.5380   -8.2180   21.3330 C   0  0  0  0  0  0  0  0  0  0  0  0
  -22.1610   -9.1540   20.3550 C   0  0  0  0  0  3  0  0  0  0  0  0
  -22.8940  -10.3410   20.1790 C   0  0  0  0  0  3  0  0  0  0  0  0
  -21.7820   -7.0730   21.4140 O   0  0  0  0  0  0  0  0  0  0  0  0
  -21.6630   -6.3690   22.5860 C   0  0  0  0  0  0  0  0  0  0  0  0
  -21.1110   -6.9470   23.7490 C   0  0  0  0  0  3  0  0  0  0  0  0
  -20.9420   -6.1680   24.9110 C   0  0  0  0  0  3  0  0  0  0  0  0
  -21.3160   -4.8100   24.9100 C   0  0  0  0  0  0  0  0  0  0  0  0
  -21.8610   -4.2310   23.7500 C   0  0  0  0  0  3  0  0  0  0  0  0
  -22.0310   -5.0070   22.5910 C   0  0  0  0  0  0  0  0  0  0  0  0
  -22.5350   -4.4390   21.4700 F   0  0  0  0  0  0  0  0  0  0  0  0
  -21.1490   -4.0590   26.0230 F   0  0  0  0  0  0  0  0  0  0  0  0
  -22.8570  -13.6990   21.0610 C   0  0  0  0  0  0  0  0  0  0  0  0
  -22.1210  -13.0170   21.9300 N   0  0  0  0  0  0  0  0  0  0  0  0
  -22.4210  -14.7130   20.5140 O   0  0  0  0  0  0  0  0  0  0  0  0
  -22.4890  -12.1990   22.3950 H   0  0  0  0  0  0  0  0  0  0  0  0
  -21.1790  -13.3150   22.1350 H   0  0  0  0  0  0  0  0  0  0  0  0
  -25.4720  -15.3900   20.2930 N   0  0  0  0  0  0  0  0  0  0  0  0
  -24.7050  -16.0450   20.4060 H   0  0  0  0  0  0  0  0  0  0  0  0
  -26.3400  -15.8360   20.0210 H   0  0  0  0  0  0  0  0  0  0  0  0
  -28.2230  -25.3200   19.9970 O   0  0  0  0  0  1  0  0  0  0  0  0
  -24.6640  -31.7900   23.0400 C   0  0  0  0  0  0  0  0  0  0  0  0
  -27.2450  -26.6160   19.9440 C   0  0  0  0  0  0  0  0  0  0  0  0
  -23.4910  -30.3910   21.3960 C   0  0  0  0  0  3  0  0  0  0  0  0
  -24.9540  -28.7520   19.9460 C   0  0  0  0  0  0  0  0  0  0  0  0
  -26.0750  -30.5200   21.2690 C   0  0  0  0  0  2  0  0  0  0  0  0
  -26.1550  -29.0760   20.5860 C   0  0  0  0  0  0  0  0  0  0  0  0
  -27.2670  -28.0430   20.5500 C   0  0  0  0  0  3  0  0  0  0  0  0
  -26.0020  -26.5670   19.2410 C   0  0  0  0  0  3  0  0  0  0  0  0
  -24.9300  -27.5280   19.2470 C   0  0  0  0  0  3  0  0  0  0  0  0
  -23.7370  -29.7040   20.0170 C   0  0  0  0  0  2  0  0  0  0  0  0
  -24.7690  -30.9390   21.9530 N   0  0  0  0  0  0  0  0  0  0  0  0
  -23.5670  -32.0680   23.5580 O   0  0  0  0  0  0  0  0  0  0  0  0
  -22.7860  -29.4030   22.3680 C   0  0  0  0  0  0  0  0  0  0  0  0
  -21.4520  -29.2340   22.2580 N   0  0  0  0  0  0  0  0  0  0  0  0
  -23.4550  -28.7830   23.1970 O   0  0  0  0  0  0  0  0  0  0  0  0
  -20.9560  -29.7850   21.5710 H   0  0  0  0  0  0  0  0  0  0  0  0
  -18.0880  -27.9650   22.8260 C   0  0  0  0  0  0  0  0  0  0  0  0
  -20.6520  -28.2710   23.0280 C   0  0  0  0  0  3  0  0  0  0  0  0
  -20.7570  -26.8520   22.4190 C   0  0  0  0  0  2  0  0  0  0  0  0
  -19.6360  -26.5390   21.4230 C   0  0  0  0  0  2  0  0  0  0  0  0
  -18.2690  -26.6420   22.1040 C   0  0  0  0  0  2  0  0  0  0  0  0
  -19.2060  -28.7390   23.2450 C   0  0  0  0  0  0  0  0  0  0  0  0
  -18.9770  -29.9740   23.8890 C   0  0  0  0  0  3  0  0  0  0  0  0
  -17.6670  -30.4390   24.1130 C   0  0  0  0  0  3  0  0  0  0  0  0
  -16.5660  -29.6660   23.7050 C   0  0  0  0  0  3  0  0  0  0  0  0
  -16.7780  -28.4300   23.0680 C   0  0  0  0  0  3  0  0  0  0  0  0
  -25.9120  -32.4660   23.6840 C   0  0  0  0  0  3  0  0  0  0  0  0
  -25.5500  -33.8470   24.0710 N   0  0  0  0  0  0  0  0  0  0  0  0
  -25.8350  -34.9530   23.3690 C   0  0  0  0  0  0  0  0  0  0  0  0
  -26.4820  -34.9180   22.3190 O   0  0  0  0  0  0  0  0  0  0  0  0
  -24.9680  -33.9440   24.8900 H   0  0  0  0  0  0  0  0  0  0  0  0
  -24.0560  -36.7280   23.1590 C   0  0  0  0  0  1  0  0  0  0  0  0
  -25.3300  -36.3090   23.9100 C   0  0  0  0  0  3  0  0  0  0  0  0
  -27.4560  -37.2260   24.7330 C   0  0  0  0  0  1  0  0  0  0  0  0
  -26.3320  -37.3950   23.8180 N   0  0  0  0  0  0  0  0  0  0  0  0
  -25.9030  -38.2980   24.0070 H   0  0  0  0  0  0  0  0  0  0  0  0
  -26.4480  -31.6890   24.9520 C   0  0  1  0  0  0  0  0  0  0  0  0
  -25.3630  -31.4110   26.0200 C   0  0  0  0  0  1  0  0  0  0  0  0
  -27.0640  -30.3320   24.5550 C   0  0  0  0  0  1  0  0  0  0  0  0
  -27.5810  -32.5020   25.6240 C   0  0  0  0  0  1  0  0  0  0  0  0
  1  7  2  0
  1  3  1  0
  2  8  2  0
  3  2  1  0
  4  5  1  0
  4  1  1  0
  5  6  1  0
  6  2  1  0
  9 15  1  0
  9  7  1  0
 10 15  1  0
 11 12  1  0
 11 10  1  0
 13 12  1  0
 13 20  1  0
 13 14  1  0
 15 14  1  0
 16  9  2  0
 17 18  2  0
 18 37  1  0
 19 18  1  0
 19 22  1  0
 20 17  1  0
 20 21  1  0
 21 19  2  0
 22 23  1  0
 23 24  2  0
 25 28  1  0
 25 24  1  0
 26 25  2  0
 27 26  1  0
 27 22  2  0
 28 29  1  0
 29 34  2  0
 29 30  1  0
 30 31  2  0
 32 31  1  0
 32 36  1  0
 33 32  2  0
 34 33  1  0
 35 34  1  0
 37 38  1  0
 38 41  1  0
 38 40  1  0
 39 37  2  0
 42 43  1  0
 42 17  1  0
 44 42  1  0
 46 57  2  0
 47 45  1  0
 47 52  1  0
 48 56  1  0
 48 58  1  0
 49 55  1  0
 49 51  1  0
 50 56  1  0
 51 50  1  0
 52 51  2  0
 53 54  1  0
 53 47  2  0
 54 49  2  0
 55 48  1  0
 56 46  1  0
 58 60  2  0
 59 58  1  0
 61 59  1  0
 62 71  2  0
 62 67  1  0
 63 59  1  0
 63 67  1  0
 64 63  1  0
 65 66  1  0
 65 64  1  0
 66 62  1  0
 67 68  2  0
 68 69  1  0
 70 69  2  0
 71 70  1  0
 72 46  1  0
 72 73  1  0
 72 82  1  0
 73 76  1  0
 74 78  1  0
 74 73  1  0
 75 74  2  0
 78 77  1  0
 80 78  1  0
 80 81  1  0
 80 79  1  0
 82 85  1  1
 82 83  1  0
 84 82  1  0
M  ISO  4   6 101   7 100   9 100  45 101
M  END
>  <TORSDO>  (91) 
F 16

>  <SCORE>  (91) 
-16.220

>  <name>  (91) 
95

>  <ligand_id>  (91) 
95

>  <original_smiles>  (91) 
[H]c1c([H])c([H])c2c(c1[H])C([H])([H])C([H])([H])C([H])([H])C2([H])N([H])C(=O)C1([H])N(C(=O)C([H])(N([H])C(=O)C([H])(N([H])C([H])([H])[H])C([H])([H])[H])C(C([H])([H])[H])(C([H])([H])[H])C([H])([H])[H])C([H])([H])c2c([H])c(OC3([H])C(=O)C([H])([H])C(=NC(=O)N4C([H])([H])C([H])([H])C([H])([H])C([H])(n5nc(-c6c([H])c([H])c(Oc7c([H])c([H])c(F)c([H])c7F)c([H])c6[H])c(C(=O)N([H])[H])c5N([H])[H])C4([H])[H])C([H])([H])C3([H])[H])c([H])c([H])c2C1([H])[H]

>  <smiles>  (91) 
[H]c1c([H])c([H])c2c(c1[H])C([H])([H])C([H])([H])C([H])([H])C2([H])N([H])C(=O)C1([H])N(C(=O)C([H])(N([H])C(=O)C([H])(N([H])C([H])([H])[H])C([H])([H])[H])C(C([H])([H])[H])(C([H])([H])[H])C([H])([H])[H])C([H])([H])c2c([H])c(OC3([H])C(=O)C([H])([H])C(=NC(=O)N4C([H])([H])C([H])([H])C([H])([H])C([H])(n5nc(-c6c([H])c([H])c(Oc7c([H])c([H])c(F)c([H])c7F)c([H])c6[H])c(C(=O)N([H])[H])c5N([H])[H])C4([H])[H])C([H])([H])C3([H])[H])c([H])c([H])c2C1([H])[H]

$$$$
96:0:0
     RDKit          3D

 94102  0  0  1  0  0  0  0  0999 V2000
  -29.2980  -19.3270   18.7960 C   0  0  0  0  0  2  0  0  0  0  0  0
  -29.3960  -19.3960   21.1410 C   0  0  0  0  0  2  0  0  0  0  0  0
  -28.4580  -20.7680   19.0010 C   0  0  0  0  0  2  0  0  0  0  0  0
  -29.5210  -21.0490   21.0960 C   0  0  0  0  0  2  0  0  0  0  0  0
  -30.0350  -18.4730   19.9900 C   0  0  1  0  0  0  0  0  0  0  0  0
  -29.0620  -21.8750   19.8770 N   0  0  2  0  0  4  0  0  0  0  0  0
  -29.9170  -22.1120   19.3940 H   0  0  0  0  0  0  0  0  0  0  0  0
  -30.6950  -15.6140   20.0620 C   0  0  0  0  0  0  0  0  0  0  0  0
  -30.7480  -13.1340   19.3820 C   0  0  0  0  0  2  0  0  0  0  0  0
  -29.8400  -12.8270   18.1690 C   0  0  0  0  0  2  0  0  0  0  0  0
  -28.3930  -12.5610   18.6250 C   0  0  0  0  0  2  0  0  0  0  0  0
  -27.9080  -13.5970   19.6700 C   0  0  0  0  0  3  0  0  0  0  0  0
  -28.9440  -13.8490   20.7840 C   0  0  0  0  0  2  0  0  0  0  0  0
  -30.1700  -14.3080   20.1200 N   0  0  0  0  0  0  0  0  0  0  0  0
  -31.9110  -15.6610   19.8380 O   0  0  0  0  0  0  0  0  0  0  0  0
  -29.8720  -16.8280   20.0850 N   0  0  0  0  0  0  0  0  0  0  0  0
  -28.9020  -16.5700   20.1890 H   0  0  0  0  0  0  0  0  0  0  0  0
  -25.5520  -14.1460   20.4820 C   0  0  0  0  0  0  0  0  0  0  0  0
  -24.4970  -13.3620   20.8490 C   0  0  0  0  0  0  0  0  0  0  0  0
  -24.9620  -12.0130   20.7750 C   0  0  0  0  0  0  0  0  0  0  0  0
  -26.5890  -13.2770   20.1950 N   0  0  0  0  0  0  0  0  0  0  0  0
  -26.2470  -11.9850   20.4420 N   0  0  0  0  0  0  0  0  0  0  0  0
  -24.2380  -10.7460   20.9430 C   0  0  0  0  0  0  0  0  0  0  0  0
  -24.6330   -9.7860   21.9000 C   0  0  0  0  0  3  0  0  0  0  0  0
  -23.9030   -8.5870   22.0540 C   0  0  0  0  0  3  0  0  0  0  0  0
  -22.7640   -8.3400   21.2510 C   0  0  0  0  0  0  0  0  0  0  0  0
  -22.3890   -9.2890   20.2840 C   0  0  0  0  0  3  0  0  0  0  0  0
  -23.1200  -10.4790   20.1280 C   0  0  0  0  0  3  0  0  0  0  0  0
  -22.0110   -7.1930   21.3150 O   0  0  0  0  0  0  0  0  0  0  0  0
  -21.8440   -6.5060   22.4900 C   0  0  0  0  0  0  0  0  0  0  0  0
  -21.2490   -7.1030   23.6230 C   0  0  0  0  0  3  0  0  0  0  0  0
  -21.0320   -6.3400   24.7870 C   0  0  0  0  0  3  0  0  0  0  0  0
  -21.4010   -4.9810   24.8190 C   0  0  0  0  0  0  0  0  0  0  0  0
  -21.9860   -4.3830   23.6880 C   0  0  0  0  0  3  0  0  0  0  0  0
  -22.2040   -5.1440   22.5270 C   0  0  0  0  0  0  0  0  0  0  0  0
  -22.7490   -4.5580   21.4340 F   0  0  0  0  0  0  0  0  0  0  0  0
  -21.1860   -4.2450   25.9340 F   0  0  0  0  0  0  0  0  0  0  0  0
  -23.1040  -13.8330   21.1520 C   0  0  0  0  0  0  0  0  0  0  0  0
  -22.3930  -13.1210   22.0180 N   0  0  0  0  0  0  0  0  0  0  0  0
  -22.6600  -14.8700   20.6580 O   0  0  0  0  0  0  0  0  0  0  0  0
  -22.7660  -12.2810   22.4340 H   0  0  0  0  0  0  0  0  0  0  0  0
  -21.4600  -13.4200   22.2670 H   0  0  0  0  0  0  0  0  0  0  0  0
  -25.7120  -15.5220   20.3350 N   0  0  0  0  0  0  0  0  0  0  0  0
  -24.9360  -16.1630   20.4680 H   0  0  0  0  0  0  0  0  0  0  0  0
  -26.5330  -15.9720   19.9560 H   0  0  0  0  0  0  0  0  0  0  0  0
  -31.5630  -18.7900   19.9650 C   0  0  0  0  0  2  0  0  0  0  0  0
  -32.2850  -18.7530   21.3440 C   0  0  0  0  0  2  0  0  0  0  0  0
  -33.6720  -19.2440   21.2920 N   0  0  0  0  0  4  0  0  0  0  0  0
  -34.2330  -18.7000   20.6590 H   0  0  0  0  0  0  0  0  0  0  0  0
  -34.0870  -19.1740   22.2050 H   0  0  0  0  0  0  0  0  0  0  0  0
  -33.7080  -20.2090   21.0150 H   0  0  0  0  0  0  0  0  0  0  0  0
  -28.3900  -23.3450   20.2200 C   0  0  0  0  0  2  0  0  0  0  0  0
  -28.2140  -24.8310   19.3110 C   0  0  0  0  0  2  0  0  0  0  0  0
  -28.1740  -26.3950   19.7400 O   0  0  0  0  0  0  0  0  0  0  0  0
  -24.5860  -31.9510   23.1490 C   0  0  0  0  0  0  0  0  0  0  0  0
  -27.1000  -27.3980   19.7260 C   0  0  0  0  0  0  0  0  0  0  0  0
  -23.3400  -30.6380   21.4770 C   0  0  0  0  0  3  0  0  0  0  0  0
  -24.7480  -29.1670   19.8890 C   0  0  0  0  0  0  0  0  0  0  0  0
  -25.8830  -30.9370   21.2240 C   0  0  0  0  0  2  0  0  0  0  0  0
  -25.9490  -29.5780   20.4820 C   0  0  0  0  0  0  0  0  0  0  0  0
  -27.1120  -28.7130   20.3840 C   0  0  0  0  0  3  0  0  0  0  0  0
  -25.8710  -27.1170   19.0910 C   0  0  0  0  0  3  0  0  0  0  0  0
  -24.7290  -27.9560   19.1750 C   0  0  0  0  0  3  0  0  0  0  0  0
  -23.5110  -30.0460   20.0490 C   0  0  0  0  0  2  0  0  0  0  0  0
  -24.6260  -31.1990   22.0040 N   0  0  0  0  0  0  0  0  0  0  0  0
  -23.5180  -32.1800   23.7400 O   0  0  0  0  0  0  0  0  0  0  0  0
  -22.7130  -29.5660   22.4080 C   0  0  0  0  0  0  0  0  0  0  0  0
  -21.3900  -29.3450   22.2960 N   0  0  0  0  0  0  0  0  0  0  0  0
  -23.4230  -28.9370   23.1970 O   0  0  0  0  0  0  0  0  0  0  0  0
  -20.8670  -29.9050   21.6380 H   0  0  0  0  0  0  0  0  0  0  0  0
  -18.0870  -27.9260   22.7620 C   0  0  0  0  0  0  0  0  0  0  0  0
  -20.6260  -28.3380   23.0390 C   0  0  0  0  0  3  0  0  0  0  0  0
  -20.8150  -26.9320   22.4220 C   0  0  0  0  0  2  0  0  0  0  0  0
  -19.7350  -26.5730   21.3970 C   0  0  0  0  0  2  0  0  0  0  0  0
  -18.3450  -26.6130   22.0400 C   0  0  0  0  0  2  0  0  0  0  0  0
  -19.1570  -28.7430   23.2150 C   0  0  0  0  0  0  0  0  0  0  0  0
  -18.8610  -29.9690   23.8490 C   0  0  0  0  0  3  0  0  0  0  0  0
  -17.5280  -30.3800   24.0330 C   0  0  0  0  0  3  0  0  0  0  0  0
  -16.4720  -29.5630   23.5920 C   0  0  0  0  0  3  0  0  0  0  0  0
  -16.7520  -28.3370   22.9620 C   0  0  0  0  0  3  0  0  0  0  0  0
  -25.8760  -32.5780   23.7620 C   0  0  0  0  0  3  0  0  0  0  0  0
  -25.5630  -33.9600   24.1610 N   0  0  0  0  0  0  0  0  0  0  0  0
  -25.8990  -35.0540   23.4660 C   0  0  0  0  0  0  0  0  0  0  0  0
  -26.5680  -35.0080   22.4320 O   0  0  0  0  0  0  0  0  0  0  0  0
  -24.9710  -34.0720   24.9720 H   0  0  0  0  0  0  0  0  0  0  0  0
  -24.1870  -36.8840   23.2090 C   0  0  0  0  0  1  0  0  0  0  0  0
  -25.4160  -36.4180   24.0060 C   0  0  0  0  0  3  0  0  0  0  0  0
  -27.5460  -37.2410   24.9090 C   0  0  0  0  0  1  0  0  0  0  0  0
  -26.4560  -37.4700   23.9650 N   0  0  0  0  0  0  0  0  0  0  0  0
  -26.0510  -38.3820   24.1600 H   0  0  0  0  0  0  0  0  0  0  0  0
  -26.4310  -31.7650   24.9970 C   0  0  1  0  0  0  0  0  0  0  0  0
  -25.3690  -31.4900   26.0890 C   0  0  0  0  0  1  0  0  0  0  0  0
  -27.0080  -30.4040   24.5490 C   0  0  0  0  0  1  0  0  0  0  0  0
  -27.5980  -32.5400   25.6490 C   0  0  0  0  0  1  0  0  0  0  0  0
  1  3  1  0
  1  5  1  0
  3  6  1  0
  4  2  1  0
  5 46  1  6
  5 16  1  0
  5  2  1  0
  6 52  1  0
  6  4  1  0
  6  7  1  6
  8 16  1  0
  8 14  1  0
  9 14  1  0
 10 11  1  0
 10  9  1  0
 12 11  1  0
 12 21  1  0
 12 13  1  0
 14 13  1  0
 15  8  2  0
 16 17  1  0
 18 19  2  0
 19 38  1  0
 20 19  1  0
 20 23  1  0
 21 22  1  0
 21 18  1  0
 22 20  2  0
 23 24  1  0
 24 25  2  0
 26 29  1  0
 26 25  1  0
 27 26  2  0
 28 27  1  0
 28 23  2  0
 29 30  1  0
 30 35  2  0
 30 31  1  0
 31 32  2  0
 32 33  1  0
 33 37  1  0
 34 33  2  0
 35 34  1  0
 36 35  1  0
 38 39  1  0
 39 42  1  0
 39 41  1  0
 40 38  2  0
 43 44  1  0
 43 18  1  0
 45 43  1  0
 46 47  1  0
 48 47  1  0
 48 50  1  0
 49 48  1  0
 51 48  1  0
 53 54  1  0
 53 52  1  0
 55 66  2  0
 56 54  1  0
 56 61  1  0
 57 65  1  0
 57 67  1  0
 58 64  1  0
 58 60  1  0
 59 65  1  0
 60 59  1  0
 61 60  2  0
 62 63  1  0
 62 56  2  0
 63 58  2  0
 64 57  1  0
 65 55  1  0
 67 69  2  0
 68 67  1  0
 70 68  1  0
 71 80  2  0
 71 76  1  0
 72 68  1  0
 72 76  1  0
 73 72  1  0
 74 75  1  0
 74 73  1  0
 75 71  1  0
 76 77  2  0
 77 78  1  0
 79 78  2  0
 80 79  1  0
 81 55  1  0
 81 82  1  0
 81 91  1  0
 82 85  1  0
 83 87  1  0
 83 82  1  0
 84 83  2  0
 87 86  1  0
 89 87  1  0
 89 90  1  0
 89 88  1  0
 91 94  1  1
 91 92  1  0
 93 91  1  0
M  ISO  4   8 100  16 100  53 101  54 101
M  END
>  <TORSDO>  (92) 
F 21

>  <SCORE>  (92) 
-13.801

>  <name>  (92) 
96

>  <ligand_id>  (92) 
96

>  <original_smiles>  (92) 
[H]c1c([H])c([H])c2c(c1[H])C([H])([H])C([H])([H])C([H])([H])C2([H])N([H])C(=O)C1([H])N(C(=O)C([H])(N([H])C(=O)C([H])(N([H])C([H])([H])[H])C([H])([H])[H])C(C([H])([H])[H])(C([H])([H])[H])C([H])([H])[H])C([H])([H])c2c([H])c(OC([H])([H])C([H])([H])[N+]3([H])C([H])([H])C([H])([H])C(N([H])C(=O)N4C([H])([H])C([H])([H])C([H])([H])C([H])(n5nc(-c6c([H])c([H])c(Oc7c([H])c([H])c(F)c([H])c7F)c([H])c6[H])c(C(=O)N([H])[H])c5N([H])[H])C4([H])[H])(C([H])([H])C([H])([H])[N+]([H])([H])[H])C([H])([H])C3([H])[H])c([H])c([H])c2C1([H])[H]

>  <smiles>  (92) 
[H]c1c([H])c([H])c2c(c1[H])C([H])([H])C([H])([H])C([H])([H])C2([H])N([H])C(=O)C1([H])N(C(=O)C([H])(N([H])C(=O)C([H])(N([H])C([H])([H])[H])C([H])([H])[H])C(C([H])([H])[H])(C([H])([H])[H])C([H])([H])[H])C([H])([H])c2c([H])c(OC([H])([H])C([H])([H])[N+]3([H])C([H])([H])C([H])([H])C(N([H])C(=O)N4C([H])([H])C([H])([H])C([H])([H])C([H])(n5nc(-c6c([H])c([H])c(Oc7c([H])c([H])c(F)c([H])c7F)c([H])c6[H])c(C(=O)N([H])[H])c5N([H])[H])C4([H])[H])(C([H])([H])C([H])([H])[N+]([H])([H])[H])C([H])([H])C3([H])[H])c([H])c([H])c2C1([H])[H]

$$$$
97:0:0
     RDKit          3D

 91 99  0  0  1  0  0  0  0  0999 V2000
  -29.8780  -19.1740   20.0810 C   0  0  0  0  0  0  0  0  0  0  0  0
  -31.2080  -19.3220   20.1350 N   0  0  0  0  0  4  0  0  0  0  0  0
  -29.1150  -20.4050   20.1060 N   0  0  0  0  0  0  0  0  0  0  0  0
  -31.8180  -18.5430   19.9410 H   0  0  0  0  0  0  0  0  0  0  0  0
  -31.6390  -20.2360   20.1740 H   0  0  0  0  0  0  0  0  0  0  0  0
  -28.1140  -20.2500   20.0490 H   0  0  0  0  0  0  0  0  0  0  0  0
  -30.6080  -15.0650   19.5390 C   0  0  0  0  0  0  0  0  0  0  0  0
  -30.2250  -12.7840   18.4500 C   0  0  0  0  0  2  0  0  0  0  0  0
  -29.1000  -12.7990   17.3800 C   0  0  0  0  0  2  0  0  0  0  0  0
  -27.7270  -12.5640   18.0410 C   0  0  0  0  0  2  0  0  0  0  0  0
  -27.5320  -13.4270   19.3160 C   0  0  0  0  0  3  0  0  0  0  0  0
  -28.7660  -13.3780   20.2510 C   0  0  0  0  0  2  0  0  0  0  0  0
  -29.9300  -13.8340   19.4780 N   0  0  0  0  0  0  0  0  0  0  0  0
  -31.6940  -15.1070   18.9500 O   0  0  0  0  0  0  0  0  0  0  0  0
  -28.9730  -16.7290   22.2070 C   0  0  0  0  0  2  0  0  0  0  0  0
  -28.3000  -17.5120   21.0670 C   0  0  0  0  0  2  0  0  0  0  0  0
  -30.3220  -16.2590   21.6680 C   0  0  0  0  0  2  0  0  0  0  0  0
  -29.3390  -17.6050   19.9360 C   0  0  0  0  0  3  0  0  0  0  0  0
  -30.1150  -16.2290   20.2280 N   0  0  0  0  0  0  0  0  0  0  0  0
  -25.3150  -13.9840   20.4730 C   0  0  0  0  0  0  0  0  0  0  0  0
  -24.3060  -13.1970   20.9580 C   0  0  0  0  0  0  0  0  0  0  0  0
  -24.7200  -11.8510   20.7400 C   0  0  0  0  0  0  0  0  0  0  0  0
  -26.2870  -13.1130   20.0100 N   0  0  0  0  0  0  0  0  0  0  0  0
  -25.9490  -11.8170   20.2360 N   0  0  0  0  0  0  0  0  0  0  0  0
  -23.9880  -10.5890   20.9360 C   0  0  0  0  0  0  0  0  0  0  0  0
  -24.4920   -9.5710   21.7750 C   0  0  0  0  0  3  0  0  0  0  0  0
  -23.7620   -8.3790   21.9730 C   0  0  0  0  0  3  0  0  0  0  0  0
  -22.5130   -8.1960   21.3300 C   0  0  0  0  0  0  0  0  0  0  0  0
  -22.0290   -9.2030   20.4740 C   0  0  0  0  0  3  0  0  0  0  0  0
  -22.7610  -10.3860   20.2740 C   0  0  0  0  0  3  0  0  0  0  0  0
  -21.7490   -7.0600   21.4380 O   0  0  0  0  0  0  0  0  0  0  0  0
  -21.7290   -6.3130   22.5880 C   0  0  0  0  0  0  0  0  0  0  0  0
  -21.3610   -6.8700   23.8330 C   0  0  0  0  0  3  0  0  0  0  0  0
  -21.2890   -6.0500   24.9770 C   0  0  0  0  0  3  0  0  0  0  0  0
  -21.5730   -4.6760   24.8760 C   0  0  0  0  0  0  0  0  0  0  0  0
  -21.9280   -4.1160   23.6360 C   0  0  0  0  0  3  0  0  0  0  0  0
  -22.0050   -4.9330   22.4950 C   0  0  0  0  0  0  0  0  0  0  0  0
  -22.3300   -4.3890   21.2970 F   0  0  0  0  0  0  0  0  0  0  0  0
  -21.4930   -3.8820   25.9710 F   0  0  0  0  0  0  0  0  0  0  0  0
  -22.9870  -13.6820   21.4800 C   0  0  0  0  0  0  0  0  0  0  0  0
  -22.3940  -12.9440   22.4140 N   0  0  0  0  0  0  0  0  0  0  0  0
  -22.4960  -14.7430   21.0980 O   0  0  0  0  0  0  0  0  0  0  0  0
  -22.8150  -12.0910   22.7520 H   0  0  0  0  0  0  0  0  0  0  0  0
  -21.5100  -13.2440   22.8000 H   0  0  0  0  0  0  0  0  0  0  0  0
  -25.4560  -15.3580   20.3570 N   0  0  0  0  0  0  0  0  0  0  0  0
  -24.7060  -15.9830   20.6300 H   0  0  0  0  0  0  0  0  0  0  0  0
  -26.2180  -15.8270   19.8870 H   0  0  0  0  0  0  0  0  0  0  0  0
  -29.4560  -21.9400   20.4600 C   0  0  0  0  0  2  0  0  0  0  0  0
  -28.7770  -23.3750   19.8400 C   0  0  0  0  0  2  0  0  0  0  0  0
  -28.6260  -24.8390   20.6900 C   0  0  0  0  0  2  0  0  0  0  0  0
  -28.6560  -26.3090   20.1830 O   0  0  0  0  0  0  0  0  0  0  0  0
  -24.5890  -31.7130   23.1330 C   0  0  0  0  0  0  0  0  0  0  0  0
  -27.5220  -27.1900   20.1760 C   0  0  0  0  0  0  0  0  0  0  0  0
  -23.5150  -30.2580   21.4570 C   0  0  0  0  0  3  0  0  0  0  0  0
  -25.0920  -28.7730   20.0760 C   0  0  0  0  0  0  0  0  0  0  0  0
  -26.0480  -30.6820   21.3550 C   0  0  0  0  0  2  0  0  0  0  0  0
  -26.2260  -29.2980   20.7090 C   0  0  0  0  0  0  0  0  0  0  0  0
  -27.4460  -28.5300   20.7320 C   0  0  0  0  0  3  0  0  0  0  0  0
  -26.3610  -26.7540   19.5100 C   0  0  0  0  0  3  0  0  0  0  0  0
  -25.1710  -27.5140   19.4620 C   0  0  0  0  0  3  0  0  0  0  0  0
  -23.8090  -29.5950   20.0860 C   0  0  0  0  0  2  0  0  0  0  0  0
  -24.7350  -30.9070   22.0380 N   0  0  0  0  0  0  0  0  0  0  0  0
  -23.4770  -31.9300   23.6370 O   0  0  0  0  0  0  0  0  0  0  0  0
  -22.8750  -29.2060   22.3960 C   0  0  0  0  0  0  0  0  0  0  0  0
  -21.5630  -28.9550   22.2280 N   0  0  0  0  0  0  0  0  0  0  0  0
  -23.5580  -28.6190   23.2390 O   0  0  0  0  0  0  0  0  0  0  0  0
  -21.0640  -29.4860   21.5260 H   0  0  0  0  0  0  0  0  0  0  0  0
  -18.2480  -27.5550   22.6140 C   0  0  0  0  0  0  0  0  0  0  0  0
  -20.7760  -27.9670   22.9690 C   0  0  0  0  0  3  0  0  0  0  0  0
  -20.9820  -26.5440   22.3970 C   0  0  0  0  0  2  0  0  0  0  0  0
  -19.9350  -26.1590   21.3460 C   0  0  0  0  0  2  0  0  0  0  0  0
  -18.5270  -26.2190   21.9450 C   0  0  0  0  0  2  0  0  0  0  0  0
  -19.3040  -28.3810   23.0820 C   0  0  0  0  0  0  0  0  0  0  0  0
  -18.9900  -29.6260   23.6710 C   0  0  0  0  0  3  0  0  0  0  0  0
  -17.6540  -30.0490   23.7950 C   0  0  0  0  0  3  0  0  0  0  0  0
  -16.6110  -29.2210   23.3440 C   0  0  0  0  0  3  0  0  0  0  0  0
  -16.9090  -27.9740   22.7610 C   0  0  0  0  0  3  0  0  0  0  0  0
  -25.8120  -32.4150   23.7980 C   0  0  0  0  0  3  0  0  0  0  0  0
  -26.3220  -31.6780   25.0980 C   0  0  1  0  0  0  0  0  0  0  0  0
  -25.2010  -31.3910   26.1260 C   0  0  0  0  0  1  0  0  0  0  0  0
  -26.9910  -30.3320   24.7400 C   0  0  0  0  0  1  0  0  0  0  0  0
  -27.4070  -32.5330   25.7930 C   0  0  0  0  0  1  0  0  0  0  0  0
  -25.4170  -33.7970   24.1140 N   0  0  0  0  0  0  0  0  0  0  0  0
  -25.7080  -34.8660   23.3590 C   0  0  0  0  0  0  0  0  0  0  0  0
  -26.3980  -34.7950   22.3380 O   0  0  0  0  0  0  0  0  0  0  0  0
  -24.8000  -33.9230   24.9030 H   0  0  0  0  0  0  0  0  0  0  0  0
  -23.8800  -36.5570   22.9830 C   0  0  0  0  0  1  0  0  0  0  0  0
  -25.1390  -36.2290   23.8020 C   0  0  0  0  0  3  0  0  0  0  0  0
  -27.2140  -37.2430   24.6370 C   0  0  0  0  0  1  0  0  0  0  0  0
  -26.1100  -37.3390   23.6840 N   0  0  0  0  0  0  0  0  0  0  0  0
  -25.6510  -38.2340   23.8220 H   0  0  0  0  0  0  0  0  0  0  0  0
  1  3  1  0
  1  2  2  0
  2  5  1  0
  3 48  1  0
  4  2  1  0
  6  3  1  0
  7 19  1  0
  8 13  1  0
  9 10  1  0
  9  8  1  0
 11 10  1  0
 11 23  1  0
 11 12  1  0
 13  7  1  0
 13 12  1  0
 14  7  2  0
 16 15  1  0
 17 15  1  0
 18  1  1  0
 18 19  1  0
 18 16  1  0
 19 17  1  0
 20 21  2  0
 21 40  1  0
 22 25  1  0
 22 21  1  0
 23 24  1  0
 23 20  1  0
 24 22  2  0
 25 26  1  0
 26 27  2  0
 28 31  1  0
 28 27  1  0
 29 28  2  0
 30 29  1  0
 30 25  2  0
 31 32  1  0
 32 33  1  0
 33 34  2  0
 35 34  1  0
 35 39  1  0
 36 35  2  0
 37 32  2  0
 37 36  1  0
 38 37  1  0
 40 41  1  0
 41 43  1  0
 41 44  1  0
 42 40  2  0
 45 20  1  0
 45 46  1  0
 47 45  1  0
 49 48  1  0
 49 50  1  0
 51 50  1  0
 52 63  2  0
 53 51  1  0
 53 58  1  0
 54 62  1  0
 54 64  1  0
 55 61  1  0
 55 57  1  0
 56 62  1  0
 57 58  2  0
 57 56  1  0
 59 53  2  0
 60 59  1  0
 60 55  2  0
 61 54  1  0
 62 52  1  0
 64 66  2  0
 65 64  1  0
 67 65  1  0
 68 77  2  0
 68 73  1  0
 69 65  1  0
 69 73  1  0
 70 69  1  0
 71 72  1  0
 71 70  1  0
 72 68  1  0
 73 74  2  0
 74 75  1  0
 76 75  2  0
 77 76  1  0
 78 52  1  0
 78 83  1  0
 78 79  1  0
 79 82  1  1
 79 80  1  0
 81 79  1  0
 83 86  1  0
 84 88  1  0
 84 83  1  0
 85 84  2  0
 88 87  1  0
 90 88  1  0
 90 91  1  0
 90 89  1  0
M  ISO  4   7 100  19 100  50 101  51 101
M  END
>  <TORSDO>  (93) 
F 19

>  <SCORE>  (93) 
-11.423

>  <name>  (93) 
97

>  <ligand_id>  (93) 
97

>  <original_smiles>  (93) 
[H]c1c([H])c([H])c2c(c1[H])C([H])([H])C([H])([H])C([H])([H])C2([H])N([H])C(=O)C1([H])N(C(=O)C([H])(N([H])C(=O)C([H])(N([H])C([H])([H])[H])C([H])([H])[H])C(C([H])([H])[H])(C([H])([H])[H])C([H])([H])[H])C([H])([H])c2c([H])c(OC([H])([H])C([H])([H])C([H])([H])[N+]([H])=C(N([H])[H])C3([H])N(C(=O)N4C([H])([H])C([H])([H])C([H])([H])C([H])(n5nc(-c6c([H])c([H])c(Oc7c([H])c([H])c(F)c([H])c7F)c([H])c6[H])c(C(=O)N([H])[H])c5N([H])[H])C4([H])[H])C([H])([H])C([H])([H])C3([H])[H])c([H])c([H])c2C1([H])[H]

>  <smiles>  (93) 
[H]c1c([H])c([H])c2c(c1[H])C([H])([H])C([H])([H])C([H])([H])C2([H])N([H])C(=O)C1([H])N(C(=O)C([H])(N([H])C(=O)C([H])(N([H])C([H])([H])[H])C([H])([H])[H])C(C([H])([H])[H])(C([H])([H])[H])C([H])([H])[H])C([H])([H])c2c([H])c(OC([H])([H])C([H])([H])C([H])([H])[N+]([H])=C(N([H])[H])C3([H])N(C(=O)N4C([H])([H])C([H])([H])C([H])([H])C([H])(n5nc(-c6c([H])c([H])c(Oc7c([H])c([H])c(F)c([H])c7F)c([H])c6[H])c(C(=O)N([H])[H])c5N([H])[H])C4([H])[H])C([H])([H])C([H])([H])C3([H])[H])c([H])c([H])c2C1([H])[H]

$$$$
