0:0:0
     RDKit          3D

 98106  0  0  1  0  0  0  0  0999 V2000
  -27.0340  -17.9200   20.1350 C   0  0  0  0  0  2  0  0  0  0  0  0
  -28.3310  -17.1160   19.9980 C   0  0  0  0  0  2  0  0  0  0  0  0
  -28.2590  -19.9850   19.5210 C   0  0  0  0  0  2  0  0  0  0  0  0
  -27.0340  -19.1180   19.1860 C   0  0  0  0  0  3  0  0  0  0  0  0
  -29.6130  -17.9290   20.3120 C   0  0  0  0  0  3  0  0  0  0  0  0
  -29.6280  -19.2470   19.4020 C   0  0  0  0  0  3  0  0  0  0  0  0
  -30.8510  -16.9410   20.2750 C   0  0  0  0  0  2  0  0  0  0  0  0
  -31.3250  -14.4590   20.7660 C   0  0  0  0  0  0  0  0  0  0  0  0
  -31.1140  -12.0740   20.1510 C   0  0  0  0  0  2  0  0  0  0  0  0
  -30.3190  -11.9880   18.8280 C   0  0  0  0  0  2  0  0  0  0  0  0
  -28.8000  -11.9610   19.0920 C   0  0  0  0  0  2  0  0  0  0  0  0
  -28.3450  -13.0560   20.0940 C   0  0  0  0  0  3  0  0  0  0  0  0
  -29.2650  -13.1040   21.3360 C   0  0  0  0  0  2  0  0  0  0  0  0
  -30.6530  -13.2760   20.8690 N   0  0  0  0  0  0  0  0  0  0  0  0
  -32.5110  -14.5170   20.4340 O   0  0  0  0  0  0  0  0  0  0  0  0
  -30.5660  -15.5820   20.8350 N   0  0  0  0  0  0  0  0  0  0  0  0
  -29.6130  -15.4240   21.1270 H   0  0  0  0  0  0  0  0  0  0  0  0
  -25.9490  -13.8570   20.5650 C   0  0  0  0  0  0  0  0  0  0  0  0
  -24.7970  -13.1910   20.8690 C   0  0  0  0  0  0  0  0  0  0  0  0
  -25.1460  -11.8070   20.9010 C   0  0  0  0  0  0  0  0  0  0  0  0
  -26.9380  -12.8950   20.4580 N   0  0  0  0  0  0  0  0  0  0  0  0
  -26.4510  -11.6530   20.7110 N   0  0  0  0  0  0  0  0  0  0  0  0
  -24.2980  -10.6200   21.0420 C   0  0  0  0  0  0  0  0  0  0  0  0
  -24.6130   -9.5940   21.9580 C   0  0  0  0  0  3  0  0  0  0  0  0
  -23.7710   -8.4690   22.0900 C   0  0  0  0  0  3  0  0  0  0  0  0
  -22.6010   -8.3640   21.3030 C   0  0  0  0  0  0  0  0  0  0  0  0
  -22.3040   -9.3760   20.3730 C   0  0  0  0  0  3  0  0  0  0  0  0
  -23.1450  -10.4940   20.2410 C   0  0  0  0  0  3  0  0  0  0  0  0
  -21.7370   -7.2960   21.3450 O   0  0  0  0  0  0  0  0  0  0  0  0
  -21.6510   -6.4840   22.4460 C   0  0  0  0  0  0  0  0  0  0  0  0
  -21.3350   -6.9940   23.7240 C   0  0  0  0  0  3  0  0  0  0  0  0
  -21.1890   -6.1160   24.8160 C   0  0  0  0  0  3  0  0  0  0  0  0
  -21.3520   -4.7280   24.6320 C   0  0  0  0  0  0  0  0  0  0  0  0
  -21.6610   -4.2190   23.3580 C   0  0  0  0  0  3  0  0  0  0  0  0
  -21.8090   -5.0940   22.2680 C   0  0  0  0  0  0  0  0  0  0  0  0
  -22.0880   -4.5980   21.0390 F   0  0  0  0  0  0  0  0  0  0  0  0
  -21.2040   -3.8840   25.6780 F   0  0  0  0  0  0  0  0  0  0  0  0
  -23.4290  -13.7940   21.0150 C   0  0  0  0  0  0  0  0  0  0  0  0
  -22.5860  -13.2040   21.8530 N   0  0  0  0  0  0  0  0  0  0  0  0
  -23.1180  -14.8270   20.4220 O   0  0  0  0  0  0  0  0  0  0  0  0
  -22.8520  -12.3700   22.3570 H   0  0  0  0  0  0  0  0  0  0  0  0
  -21.6630  -13.5890   21.9960 H   0  0  0  0  0  0  0  0  0  0  0  0
  -26.2220  -15.1960   20.3370 N   0  0  0  0  0  0  0  0  0  0  0  0
  -25.4780  -15.8820   20.3010 H   0  0  0  0  0  0  0  0  0  0  0  0
  -27.1100  -15.5460   20.0070 H   0  0  0  0  0  0  0  0  0  0  0  0
  -25.7220  -19.9350   19.2840 C   0  0  0  0  0  2  0  0  0  0  0  0
  -24.6530  -19.4210   18.4070 N   0  0  0  0  0  4  0  0  0  0  0  0
  -24.9160  -19.5050   17.4410 H   0  0  0  0  0  0  0  0  0  0  0  0
  -23.8140  -19.9580   18.5450 H   0  0  0  0  0  0  0  0  0  0  0  0
  -24.4440  -18.4610   18.6100 H   0  0  0  0  0  0  0  0  0  0  0  0
  -30.8110  -20.2600   19.6480 C   0  0  0  0  0  2  0  0  0  0  0  0
  -30.4630  -21.6810   20.0300 N   0  0  0  0  0  4  0  0  0  0  0  0
  -31.3280  -22.1110   20.3180 H   0  0  0  0  0  0  0  0  0  0  0  0
  -29.8790  -21.6410   20.8510 H   0  0  0  0  0  0  0  0  0  0  0  0
  -29.8330  -22.6150   19.0370 C   0  0  0  0  0  2  0  0  0  0  0  0
  -29.7420  -24.1060   19.5430 C   0  0  0  0  0  2  0  0  0  0  0  0
  -28.6130  -24.9840   18.9110 C   0  0  0  0  0  2  0  0  0  0  0  0
  -28.6810  -26.3940   19.2640 O   0  0  0  0  0  0  0  0  0  0  0  0
  -25.0570  -31.1710   23.1560 C   0  0  0  0  0  0  0  0  0  0  0  0
  -27.5180  -27.1600   19.3560 C   0  0  0  0  0  0  0  0  0  0  0  0
  -23.7760  -30.0610   21.3540 C   0  0  0  0  0  3  0  0  0  0  0  0
  -25.1570  -28.7260   19.6680 C   0  0  0  0  0  0  0  0  0  0  0  0
  -26.3090  -30.3790   21.1470 C   0  0  0  0  0  2  0  0  0  0  0  0
  -26.3440  -29.1190   20.2980 C   0  0  0  0  0  0  0  0  0  0  0  0
  -27.5210  -28.3430   20.1410 C   0  0  0  0  0  3  0  0  0  0  0  0
  -26.3090  -26.8030   18.7120 C   0  0  0  0  0  3  0  0  0  0  0  0
  -25.1350  -27.5660   18.8770 C   0  0  0  0  0  3  0  0  0  0  0  0
  -23.9360  -29.5980   19.8810 C   0  0  0  0  0  2  0  0  0  0  0  0
  -25.0670  -30.5440   21.9450 N   0  0  0  0  0  0  0  0  0  0  0  0
  -23.9960  -31.3800   23.7630 O   0  0  0  0  0  0  0  0  0  0  0  0
  -23.1240  -28.9200   22.1670 C   0  0  0  0  0  0  0  0  0  0  0  0
  -21.7980  -28.7590   22.0180 N   0  0  0  0  0  0  0  0  0  0  0  0
  -23.8060  -28.1860   22.8870 O   0  0  0  0  0  0  0  0  0  0  0  0
  -21.3090  -29.4080   21.4180 H   0  0  0  0  0  0  0  0  0  0  0  0
  -18.4350  -27.4730   22.2990 C   0  0  0  0  0  0  0  0  0  0  0  0
  -20.9830  -27.7230   22.6490 C   0  0  0  0  0  3  0  0  0  0  0  0
  -21.1160  -26.3760   21.9030 C   0  0  0  0  0  2  0  0  0  0  0  0
  -20.0370  -26.1660   20.8350 C   0  0  0  0  0  2  0  0  0  0  0  0
  -18.6410  -26.2170   21.4660 C   0  0  0  0  0  2  0  0  0  0  0  0
  -19.5350  -28.1860   22.8410 C   0  0  0  0  0  0  0  0  0  0  0  0
  -19.2920  -29.3630   23.5820 C   0  0  0  0  0  3  0  0  0  0  0  0
  -17.9790  -29.8290   23.7820 C   0  0  0  0  0  3  0  0  0  0  0  0
  -16.8920  -29.1120   23.2590 C   0  0  0  0  0  3  0  0  0  0  0  0
  -17.1190  -27.9340   22.5240 C   0  0  0  0  0  3  0  0  0  0  0  0
  -26.3760  -31.6740   23.8260 C   0  0  0  0  0  3  0  0  0  0  0  0
  -26.1000  -32.9930   24.4080 N   0  0  0  0  0  0  0  0  0  0  0  0
  -26.4820  -34.1580   23.8670 C   0  0  0  0  0  0  0  0  0  0  0  0
  -27.1720  -34.2270   22.8470 O   0  0  0  0  0  0  0  0  0  0  0  0
  -25.4950  -33.0140   25.2150 H   0  0  0  0  0  0  0  0  0  0  0  0
  -24.8210  -36.0450   23.8120 C   0  0  0  0  0  1  0  0  0  0  0  0
  -26.0200  -35.4500   24.5670 C   0  0  0  0  0  3  0  0  0  0  0  0
  -28.1460  -36.0830   25.6150 C   0  0  0  0  0  1  0  0  0  0  0  0
  -27.0870  -36.4660   24.6870 N   0  0  0  0  0  0  0  0  0  0  0  0
  -26.7040  -37.3570   24.9930 H   0  0  0  0  0  0  0  0  0  0  0  0
  -26.9280  -30.6860   24.9270 C   0  0  1  0  0  0  0  0  0  0  0  0
  -25.8730  -30.2790   25.9800 C   0  0  0  0  0  1  0  0  0  0  0  0
  -27.4740  -29.3940   24.2740 C   0  0  0  0  0  1  0  0  0  0  0  0
  -28.1160  -31.3400   25.6710 C   0  0  0  0  0  1  0  0  0  0  0  0
  2  1  1  0
  2  5  1  0
  4 46  1  0
  4  3  1  0
  4  1  1  0
  5  7  1  0
  6  3  1  0
  6 51  1  0
  6  5  1  0
  7 16  1  0
  8 16  1  0
  8 14  1  0
  9 14  1  0
 10 11  1  0
 10  9  1  0
 12 11  1  0
 12 21  1  0
 12 13  1  0
 14 13  1  0
 15  8  2  0
 16 17  1  0
 18 19  2  0
 19 20  1  0
 19 38  1  0
 20 23  1  0
 21 18  1  0
 21 22  1  0
 22 20  2  0
 23 24  1  0
 24 25  2  0
 26 29  1  0
 26 25  1  0
 27 26  2  0
 28 27  1  0
 28 23  2  0
 29 30  1  0
 30 31  1  0
 31 32  2  0
 33 32  1  0
 33 37  1  0
 34 33  2  0
 35 30  2  0
 35 34  1  0
 36 35  1  0
 38 39  1  0
 39 42  1  0
 39 41  1  0
 40 38  2  0
 43 18  1  0
 44 43  1  0
 45 43  1  0
 47 49  1  0
 47 50  1  0
 47 46  1  0
 48 47  1  0
 51 52  1  0
 52 53  1  0
 52 54  1  0
 55 56  1  0
 55 52  1  0
 57 58  1  0
 57 56  1  0
 58 60  1  0
 59 70  2  0
 60 65  1  0
 61 69  1  0
 61 71  1  0
 62 68  1  0
 62 64  1  0
 63 69  1  0
 64 63  1  0
 65 64  2  0
 66 67  1  0
 66 60  2  0
 67 62  2  0
 68 61  1  0
 69 59  1  0
 71 73  2  0
 72 71  1  0
 74 72  1  0
 75 84  2  0
 75 80  1  0
 76 72  1  0
 76 80  1  0
 77 76  1  0
 78 79  1  0
 78 77  1  0
 79 75  1  0
 80 81  2  0
 81 82  1  0
 83 82  2  0
 84 83  1  0
 85 59  1  0
 85 86  1  0
 85 95  1  0
 86 89  1  0
 87 86  1  0
 87 91  1  0
 88 87  2  0
 91 90  1  0
 91 93  1  0
 93 94  1  0
 93 92  1  0
 95 98  1  1
 95 96  1  0
 97 95  1  0
M  ISO  4   8 100  16 100  57 101  58 101
M  END
>  <TORSDO>  (1) 
F 24

>  <SCORE>  (1) 
-9.760

>  <name>  (1) 
0

>  <ligand_id>  (1) 
0

>  <original_smiles>  (1) 
[H]c1c([H])c([H])c2c(c1[H])C([H])([H])C([H])([H])C([H])([H])C2([H])N([H])C(=O)C1([H])N(C(=O)C([H])(N([H])C(=O)C([H])(N([H])C([H])([H])[H])C([H])([H])[H])C(C([H])([H])[H])(C([H])([H])[H])C([H])([H])[H])C([H])([H])c2c([H])c(OC([H])([H])C([H])([H])C([H])([H])[N+]([H])([H])C([H])([H])C3([H])C([H])([H])C([H])(C([H])([H])[N+]([H])([H])[H])C([H])([H])C([H])([H])C3([H])C([H])([H])N([H])C(=O)N3C([H])([H])C([H])([H])C([H])([H])C([H])(n4nc(-c5c([H])c([H])c(Oc6c([H])c([H])c(F)c([H])c6F)c([H])c5[H])c(C(=O)N([H])[H])c4N([H])[H])C3([H])[H])c([H])c([H])c2C1([H])[H]

>  <smiles>  (1) 
[H]c1c([H])c([H])c2c(c1[H])C([H])([H])C([H])([H])C([H])([H])C2([H])N([H])C(=O)C1([H])N(C(=O)C([H])(N([H])C(=O)C([H])(N([H])C([H])([H])[H])C([H])([H])[H])C(C([H])([H])[H])(C([H])([H])[H])C([H])([H])[H])C([H])([H])c2c([H])c(OC([H])([H])C([H])([H])C([H])([H])[N+]([H])([H])C([H])([H])C3([H])C([H])([H])C([H])(C([H])([H])[N+]([H])([H])[H])C([H])([H])C([H])([H])C3([H])C([H])([H])N([H])C(=O)N3C([H])([H])C([H])([H])C([H])([H])C([H])(n4nc(-c5c([H])c([H])c(Oc6c([H])c([H])c(F)c([H])c6F)c([H])c5[H])c(C(=O)N([H])[H])c4N([H])[H])C3([H])[H])c([H])c([H])c2C1([H])[H]

$$$$
1:0:0
     RDKit          3D

 97106  0  0  1  0  0  0  0  0999 V2000
  -30.3870  -22.9170   15.8880 C   0  0  0  0  0  2  0  0  0  0  0  0
  -29.4370  -21.6770   17.9060 C   0  0  0  0  0  2  0  0  0  0  0  0
  -29.3960  -24.0570   16.2000 C   0  0  0  0  0  2  0  0  0  0  0  0
  -28.4750  -22.8540   18.0970 C   0  0  0  0  0  2  0  0  0  0  0  0
  -29.9350  -21.5410   16.4500 C   0  0  0  0  0  3  0  0  0  0  0  0
  -29.1410  -24.1040   17.6570 N   0  0  2  0  0  4  0  0  0  0  0  0
  -30.0530  -24.1170   18.0890 H   0  0  0  0  0  0  0  0  0  0  0  0
  -31.1000  -20.5290   16.3730 C   0  0  0  0  0  2  0  0  0  0  0  0
  -30.7770  -19.2250   16.9980 N   0  0  0  0  0  4  0  0  0  0  0  0
  -29.9130  -19.3050   17.5070 H   0  0  0  0  0  0  0  0  0  0  0  0
  -30.6360  -18.5590   16.2560 H   0  0  0  0  0  0  0  0  0  0  0  0
  -31.8220  -18.7220   17.9180 C   0  0  0  0  0  2  0  0  0  0  0  0
  -30.9110  -14.5570   20.3220 C   0  0  0  0  0  0  0  0  0  0  0  0
  -30.4650  -12.2470   19.7650 C   0  0  0  0  0  2  0  0  0  0  0  0
  -29.6190  -12.2900   18.4710 C   0  0  0  0  0  2  0  0  0  0  0  0
  -28.1360  -12.3030   18.8400 C   0  0  0  0  0  2  0  0  0  0  0  0
  -27.7530  -13.3050   19.9670 C   0  0  0  0  0  3  0  0  0  0  0  0
  -28.7990  -13.3560   21.1190 C   0  0  0  0  0  2  0  0  0  0  0  0
  -30.1430  -13.4510   20.5190 N   0  0  0  0  0  0  0  0  0  0  0  0
  -31.8410  -14.8900   21.0350 O   0  0  0  0  0  0  0  0  0  0  0  0
  -33.3110  -15.1790   18.2700 C   0  0  0  0  0  2  0  0  0  0  0  0
  -33.1690  -16.6700   18.6000 C   0  0  0  0  0  2  0  0  0  0  0  0
  -31.9290  -14.5160   18.1000 C   0  0  0  0  0  2  0  0  0  0  0  0
  -30.6610  -16.4890   18.7650 C   0  0  0  0  0  2  0  0  0  0  0  0
  -31.8460  -17.1850   18.0060 C   0  0  0  0  0  3  0  0  0  0  0  0
  -30.9110  -15.0480   19.0470 N   0  0  0  0  0  0  0  0  0  0  0  0
  -25.3150  -13.8920   20.5710 C   0  0  0  0  0  0  0  0  0  0  0  0
  -24.2370  -13.1080   20.8940 C   0  0  0  0  0  0  0  0  0  0  0  0
  -24.7210  -11.7650   20.9320 C   0  0  0  0  0  0  0  0  0  0  0  0
  -26.3890  -13.0270   20.4320 N   0  0  0  0  0  0  0  0  0  0  0  0
  -26.0300  -11.7460   20.7210 N   0  0  0  0  0  0  0  0  0  0  0  0
  -24.0030  -10.4930   21.1020 C   0  0  0  0  0  0  0  0  0  0  0  0
  -24.4090   -9.5420   22.0640 C   0  0  0  0  0  3  0  0  0  0  0  0
  -23.6930   -8.3360   22.2270 C   0  0  0  0  0  3  0  0  0  0  0  0
  -22.5560   -8.0710   21.4280 C   0  0  0  0  0  0  0  0  0  0  0  0
  -22.1710   -9.0090   20.4540 C   0  0  0  0  0  3  0  0  0  0  0  0
  -22.8880  -10.2070   20.2880 C   0  0  0  0  0  3  0  0  0  0  0  0
  -21.8150   -6.9160   21.4990 O   0  0  0  0  0  0  0  0  0  0  0  0
  -21.7370   -6.1810   22.6540 C   0  0  0  0  0  0  0  0  0  0  0  0
  -21.2780   -6.7430   23.8660 C   0  0  0  0  0  3  0  0  0  0  0  0
  -21.1470   -5.9350   25.0120 C   0  0  0  0  0  3  0  0  0  0  0  0
  -21.4680   -4.5660   24.9500 C   0  0  0  0  0  0  0  0  0  0  0  0
  -21.9210   -4.0030   23.7440 C   0  0  0  0  0  3  0  0  0  0  0  0
  -22.0530   -4.8090   22.5990 C   0  0  0  0  0  0  0  0  0  0  0  0
  -22.4700   -4.2570   21.4340 F   0  0  0  0  0  0  0  0  0  0  0  0
  -21.3360   -3.7870   26.0490 F   0  0  0  0  0  0  0  0  0  0  0  0
  -22.8170  -13.5660   21.0620 C   0  0  0  0  0  0  0  0  0  0  0  0
  -22.0470  -12.8800   21.9000 N   0  0  0  0  0  0  0  0  0  0  0  0
  -22.3950  -14.5670   20.4860 O   0  0  0  0  0  0  0  0  0  0  0  0
  -22.4010  -12.0730   22.3930 H   0  0  0  0  0  0  0  0  0  0  0  0
  -21.0920  -13.1690   22.0560 H   0  0  0  0  0  0  0  0  0  0  0  0
  -25.4660  -15.2580   20.3600 N   0  0  0  0  0  0  0  0  0  0  0  0
  -24.6850  -15.9040   20.4080 H   0  0  0  0  0  0  0  0  0  0  0  0
  -26.3370  -15.7090   20.1060 H   0  0  0  0  0  0  0  0  0  0  0  0
  -28.4820  -25.3500   18.1140 C   0  0  0  0  0  2  0  0  0  0  0  0
  -28.4430  -25.4470   19.6550 C   0  0  0  0  0  2  0  0  0  0  0  0
  -28.4100  -26.7980   20.0980 O   0  0  0  0  0  0  0  0  0  0  0  0
  -24.6130  -31.8840   23.2410 C   0  0  0  0  0  0  0  0  0  0  0  0
  -27.2090  -27.4650   20.1130 C   0  0  0  0  0  0  0  0  0  0  0  0
  -23.3850  -30.4900   21.6090 C   0  0  0  0  0  3  0  0  0  0  0  0
  -24.8150  -28.9630   20.1640 C   0  0  0  0  0  0  0  0  0  0  0  0
  -25.9080  -30.8520   21.3810 C   0  0  0  0  0  2  0  0  0  0  0  0
  -25.9810  -29.4840   20.7360 C   0  0  0  0  0  0  0  0  0  0  0  0
  -27.1800  -28.7450   20.7040 C   0  0  0  0  0  3  0  0  0  0  0  0
  -26.0090  -26.9390   19.5680 C   0  0  0  0  0  3  0  0  0  0  0  0
  -24.8220  -27.6870   19.5820 C   0  0  0  0  0  3  0  0  0  0  0  0
  -23.5770  -29.8250   20.2230 C   0  0  0  0  0  2  0  0  0  0  0  0
  -24.6550  -31.0870   22.1350 N   0  0  0  0  0  0  0  0  0  0  0  0
  -23.5400  -32.1550   23.7940 O   0  0  0  0  0  0  0  0  0  0  0  0
  -22.7460  -29.4610   22.5690 C   0  0  0  0  0  0  0  0  0  0  0  0
  -21.4210  -29.2770   22.4550 N   0  0  0  0  0  0  0  0  0  0  0  0
  -23.4390  -28.8310   23.3730 O   0  0  0  0  0  0  0  0  0  0  0  0
  -20.9220  -29.8420   21.7800 H   0  0  0  0  0  0  0  0  0  0  0  0
  -18.0540  -28.0810   22.9720 C   0  0  0  0  0  0  0  0  0  0  0  0
  -20.6120  -28.3410   23.2330 C   0  0  0  0  0  3  0  0  0  0  0  0
  -20.7130  -26.9080   22.6610 C   0  0  0  0  0  2  0  0  0  0  0  0
  -19.6100  -26.5820   21.6480 C   0  0  0  0  0  2  0  0  0  0  0  0
  -18.2300  -26.7290   22.2980 C   0  0  0  0  0  2  0  0  0  0  0  0
  -19.1730  -28.8450   23.3960 C   0  0  0  0  0  0  0  0  0  0  0  0
  -18.9560  -30.1110   23.9810 C   0  0  0  0  0  3  0  0  0  0  0  0
  -17.6530  -30.6140   24.1460 C   0  0  0  0  0  3  0  0  0  0  0  0
  -16.5470  -29.8480   23.7410 C   0  0  0  0  0  3  0  0  0  0  0  0
  -16.7490  -28.5840   23.1610 C   0  0  0  0  0  3  0  0  0  0  0  0
  -25.9100  -32.5100   23.8460 C   0  0  0  0  0  3  0  0  0  0  0  0
  -25.6100  -33.9070   24.1850 N   0  0  0  0  0  0  0  0  0  0  0  0
  -25.9390  -34.9590   23.4230 C   0  0  0  0  0  0  0  0  0  0  0  0
  -26.5970  -34.8540   22.3840 O   0  0  0  0  0  0  0  0  0  0  0  0
  -25.0260  -34.0620   24.9940 H   0  0  0  0  0  0  0  0  0  0  0  0
  -24.2120  -36.7540   23.0810 C   0  0  0  0  0  1  0  0  0  0  0  0
  -25.4560  -36.3470   23.8860 C   0  0  0  0  0  3  0  0  0  0  0  0
  -27.5990  -37.2170   24.7080 C   0  0  0  0  0  1  0  0  0  0  0  0
  -26.4910  -37.3980   23.7730 N   0  0  0  0  0  0  0  0  0  0  0  0
  -26.0900  -38.3170   23.9380 H   0  0  0  0  0  0  0  0  0  0  0  0
  -26.4490  -31.7300   25.1070 C   0  0  1  0  0  0  0  0  0  0  0  0
  -25.3750  -31.4790   26.1910 C   0  0  0  0  0  1  0  0  0  0  0  0
  -27.0310  -30.3600   24.6910 C   0  0  0  0  0  1  0  0  0  0  0  0
  -27.6110  -32.5200   25.7560 C   0  0  0  0  0  1  0  0  0  0  0  0
  1  3  1  0
  1  5  1  0
  2  4  1  0
  3  6  1  0
  5  8  1  0
  5  2  1  0
  6  7  1  1
  6  4  1  0
  6 55  1  0
  8  9  1  0
  9 10  1  0
  9 12  1  0
 11  9  1  0
 13 19  1  0
 13 20  2  0
 14 19  1  0
 15 16  1  0
 15 14  1  0
 17 16  1  0
 17 30  1  0
 17 18  1  0
 19 18  1  0
 21 22  1  0
 23 21  1  0
 23 26  1  0
 24 26  1  0
 25 12  1  0
 25 22  1  0
 25 24  1  0
 26 13  1  0
 27 28  2  0
 28 29  1  0
 28 47  1  0
 29 32  1  0
 30 27  1  0
 30 31  1  0
 31 29  2  0
 32 33  1  0
 33 34  2  0
 35 38  1  0
 35 34  1  0
 36 35  2  0
 37 36  1  0
 37 32  2  0
 38 39  1  0
 39 40  1  0
 40 41  2  0
 42 41  1  0
 42 46  1  0
 43 42  2  0
 44 39  2  0
 44 43  1  0
 45 44  1  0
 47 48  1  0
 48 51  1  0
 48 50  1  0
 49 47  2  0
 52 53  1  0
 52 27  1  0
 54 52  1  0
 55 56  1  0
 56 57  1  0
 57 59  1  0
 58 69  2  0
 59 64  1  0
 60 68  1  0
 60 70  1  0
 61 67  1  0
 61 63  1  0
 62 68  1  0
 63 62  1  0
 64 63  2  0
 65 66  1  0
 65 59  2  0
 66 61  2  0
 67 60  1  0
 68 58  1  0
 70 72  2  0
 71 70  1  0
 73 71  1  0
 74 83  2  0
 74 79  1  0
 75 71  1  0
 75 79  1  0
 76 75  1  0
 77 78  1  0
 77 76  1  0
 78 74  1  0
 79 80  2  0
 80 81  1  0
 82 81  2  0
 83 82  1  0
 84 58  1  0
 84 85  1  0
 84 94  1  0
 85 88  1  0
 86 90  1  0
 86 85  1  0
 87 86  2  0
 90 89  1  0
 92 90  1  0
 92 93  1  0
 92 91  1  0
 94 97  1  1
 94 95  1  0
 96 94  1  0
M  ISO  4  13 100  26 100  56 101  57 101
M  END
>  <TORSDO>  (2) 
F 21

>  <SCORE>  (2) 
-13.222

>  <name>  (2) 
1

>  <ligand_id>  (2) 
1

>  <original_smiles>  (2) 
[H]c1c([H])c([H])c2c(c1[H])C([H])([H])C([H])([H])C([H])([H])C2([H])N([H])C(=O)C1([H])N(C(=O)C([H])(N([H])C(=O)C([H])(N([H])C([H])([H])[H])C([H])([H])[H])C(C([H])([H])[H])(C([H])([H])[H])C([H])([H])[H])C([H])([H])c2c([H])c(OC([H])([H])C([H])([H])[N+]3([H])C([H])([H])C([H])([H])C([H])(C([H])([H])[N+]([H])([H])C([H])([H])C4([H])C([H])([H])N(C(=O)N5C([H])([H])C([H])([H])C([H])([H])C([H])(n6nc(-c7c([H])c([H])c(Oc8c([H])c([H])c(F)c([H])c8F)c([H])c7[H])c(C(=O)N([H])[H])c6N([H])[H])C5([H])[H])C([H])([H])C([H])([H])C4([H])[H])C([H])([H])C3([H])[H])c([H])c([H])c2C1([H])[H]

>  <smiles>  (2) 
[H]c1c([H])c([H])c2c(c1[H])C([H])([H])C([H])([H])C([H])([H])C2([H])N([H])C(=O)C1([H])N(C(=O)C([H])(N([H])C(=O)C([H])(N([H])C([H])([H])[H])C([H])([H])[H])C(C([H])([H])[H])(C([H])([H])[H])C([H])([H])[H])C([H])([H])c2c([H])c(OC([H])([H])C([H])([H])[N+]3([H])C([H])([H])C([H])([H])C([H])(C([H])([H])[N+]([H])([H])C([H])([H])C4([H])C([H])([H])N(C(=O)N5C([H])([H])C([H])([H])C([H])([H])C([H])(n6nc(-c7c([H])c([H])c(Oc8c([H])c([H])c(F)c([H])c8F)c([H])c7[H])c(C(=O)N([H])[H])c6N([H])[H])C5([H])[H])C([H])([H])C([H])([H])C4([H])[H])C([H])([H])C3([H])[H])c([H])c([H])c2C1([H])[H]

$$$$
2:0:0
     RDKit          3D

 88 96  0  0  1  0  0  0  0  0999 V2000
  -29.8560  -20.7790   20.2150 C   0  0  0  0  0  3  0  0  0  0  0  0
  -31.3260  -20.5960   19.9370 C   0  0  0  0  0  2  0  0  0  0  0  0
  -31.3700  -19.7180   18.6640 C   0  0  0  0  0  2  0  0  0  0  0  0
  -29.9680  -19.0810   18.5100 C   0  0  0  0  0  2  0  0  0  0  0  0
  -29.3560  -19.1950   19.9080 C   0  0  0  0  0  3  0  0  0  0  0  0
  -29.5010  -22.0990   20.3830 N   0  0  0  0  0  0  0  0  0  0  0  0
  -29.9940  -17.7950   20.6880 C   0  0  0  0  0  2  0  0  0  0  0  0
  -30.4790  -15.0450   20.2960 C   0  0  0  0  0  0  0  0  0  0  0  0
  -30.3730  -12.6830   19.3450 C   0  0  0  0  0  2  0  0  0  0  0  0
  -29.4210  -12.6020   18.1290 C   0  0  0  0  0  2  0  0  0  0  0  0
  -27.9700  -12.3690   18.5890 C   0  0  0  0  0  2  0  0  0  0  0  0
  -27.5640  -13.3000   19.7610 C   0  0  0  0  0  3  0  0  0  0  0  0
  -28.6360  -13.3450   20.8690 C   0  0  0  0  0  2  0  0  0  0  0  0
  -29.8840  -13.7810   20.2290 N   0  0  0  0  0  0  0  0  0  0  0  0
  -31.6940  -15.0950   20.0810 O   0  0  0  0  0  0  0  0  0  0  0  0
  -29.6950  -16.2430   20.4020 N   0  0  0  0  0  0  0  0  0  0  0  0
  -28.7080  -16.0320   20.4290 H   0  0  0  0  0  0  0  0  0  0  0  0
  -25.1960  -13.8640   20.5440 C   0  0  0  0  0  0  0  0  0  0  0  0
  -24.1390  -13.0830   20.9220 C   0  0  0  0  0  0  0  0  0  0  0  0
  -24.6080  -11.7340   20.8760 C   0  0  0  0  0  0  0  0  0  0  0  0
  -26.2370  -12.9920   20.2810 N   0  0  0  0  0  0  0  0  0  0  0  0
  -25.8970  -11.7050   20.5500 N   0  0  0  0  0  0  0  0  0  0  0  0
  -23.8880  -10.4680   21.0660 C   0  0  0  0  0  0  0  0  0  0  0  0
  -24.3380   -9.4910   21.9820 C   0  0  0  0  0  3  0  0  0  0  0  0
  -23.6170   -8.2910   22.1600 C   0  0  0  0  0  3  0  0  0  0  0  0
  -22.4310   -8.0590   21.4240 C   0  0  0  0  0  0  0  0  0  0  0  0
  -21.9990   -9.0250   20.4990 C   0  0  0  0  0  3  0  0  0  0  0  0
  -22.7210  -10.2170   20.3180 C   0  0  0  0  0  3  0  0  0  0  0  0
  -21.6800   -6.9120   21.5130 O   0  0  0  0  0  0  0  0  0  0  0  0
  -21.6610   -6.1500   22.6540 C   0  0  0  0  0  0  0  0  0  0  0  0
  -21.2670   -6.6860   23.9000 C   0  0  0  0  0  3  0  0  0  0  0  0
  -21.1940   -5.8520   25.0330 C   0  0  0  0  0  3  0  0  0  0  0  0
  -21.5060   -4.4840   24.9220 C   0  0  0  0  0  0  0  0  0  0  0  0
  -21.8930   -3.9480   23.6810 C   0  0  0  0  0  3  0  0  0  0  0  0
  -21.9670   -4.7790   22.5500 C   0  0  0  0  0  0  0  0  0  0  0  0
  -22.3210   -4.2540   21.3530 F   0  0  0  0  0  0  0  0  0  0  0  0
  -21.4290   -3.6800   26.0080 F   0  0  0  0  0  0  0  0  0  0  0  0
  -22.7440  -13.5550   21.2100 C   0  0  0  0  0  0  0  0  0  0  0  0
  -22.0250  -12.8520   22.0780 N   0  0  0  0  0  0  0  0  0  0  0  0
  -22.2990  -14.5820   20.7000 O   0  0  0  0  0  0  0  0  0  0  0  0
  -22.3980  -12.0210   22.5160 H   0  0  0  0  0  0  0  0  0  0  0  0
  -21.0880  -13.1510   22.3090 H   0  0  0  0  0  0  0  0  0  0  0  0
  -25.3500  -15.2360   20.3740 N   0  0  0  0  0  0  0  0  0  0  0  0
  -24.5780  -15.8810   20.4980 H   0  0  0  0  0  0  0  0  0  0  0  0
  -26.1780  -15.6820   20.0040 H   0  0  0  0  0  0  0  0  0  0  0  0
  -28.3280  -23.1090   20.0660 C   0  0  0  0  0  3  0  0  0  0  0  0
  -28.2190  -24.6850   20.7530 C   0  0  0  0  0  2  0  0  0  0  0  0
  -28.3140  -26.1640   20.2150 O   0  0  0  0  0  0  0  0  0  0  0  0
  -24.6290  -31.8840   23.2240 C   0  0  0  0  0  0  0  0  0  0  0  0
  -27.2370  -27.1340   20.2440 C   0  0  0  0  0  0  0  0  0  0  0  0
  -23.4420  -30.4760   21.5850 C   0  0  0  0  0  3  0  0  0  0  0  0
  -24.9030  -28.8830   20.1870 C   0  0  0  0  0  0  0  0  0  0  0  0
  -25.9990  -30.7400   21.4350 C   0  0  0  0  0  2  0  0  0  0  0  0
  -26.0810  -29.3390   20.7940 C   0  0  0  0  0  0  0  0  0  0  0  0
  -27.2510  -28.4830   20.7960 C   0  0  0  0  0  3  0  0  0  0  0  0
  -26.0300  -26.7770   19.6110 C   0  0  0  0  0  3  0  0  0  0  0  0
  -24.8920  -27.6170   19.5810 C   0  0  0  0  0  3  0  0  0  0  0  0
  -23.6760  -29.7840   20.2150 C   0  0  0  0  0  2  0  0  0  0  0  0
  -24.7100  -31.0570   22.1350 N   0  0  0  0  0  0  0  0  0  0  0  0
  -23.5390  -32.1700   23.7440 O   0  0  0  0  0  0  0  0  0  0  0  0
  -22.7570  -29.4770   22.5510 C   0  0  0  0  0  0  0  0  0  0  0  0
  -21.4300  -29.3050   22.4180 N   0  0  0  0  0  0  0  0  0  0  0  0
  -23.4250  -28.8560   23.3830 O   0  0  0  0  0  0  0  0  0  0  0  0
  -20.9460  -29.8590   21.7250 H   0  0  0  0  0  0  0  0  0  0  0  0
  -18.0480  -28.1010   22.9100 C   0  0  0  0  0  0  0  0  0  0  0  0
  -20.6050  -28.3710   23.1910 C   0  0  0  0  0  3  0  0  0  0  0  0
  -20.7110  -26.9360   22.6260 C   0  0  0  0  0  2  0  0  0  0  0  0
  -19.6170  -26.6040   21.6080 C   0  0  0  0  0  2  0  0  0  0  0  0
  -18.2320  -26.7490   22.2430 C   0  0  0  0  0  2  0  0  0  0  0  0
  -19.1620  -28.8700   23.3420 C   0  0  0  0  0  0  0  0  0  0  0  0
  -18.9350  -30.1330   23.9280 C   0  0  0  0  0  3  0  0  0  0  0  0
  -17.6270  -30.6300   24.0880 C   0  0  0  0  0  3  0  0  0  0  0  0
  -16.5280  -29.8580   23.6720 C   0  0  0  0  0  3  0  0  0  0  0  0
  -16.7390  -28.5970   23.0890 C   0  0  0  0  0  3  0  0  0  0  0  0
  -25.9000  -32.5280   23.8570 C   0  0  0  0  0  3  0  0  0  0  0  0
  -26.4050  -31.7660   25.1450 C   0  0  1  0  0  0  0  0  0  0  0  0
  -25.3030  -31.5370   26.2060 C   0  0  0  0  0  1  0  0  0  0  0  0
  -26.9930  -30.3860   24.7730 C   0  0  0  0  0  1  0  0  0  0  0  0
  -27.5500  -32.5660   25.8110 C   0  0  0  0  0  1  0  0  0  0  0  0
  -25.5810  -33.9270   24.1840 N   0  0  0  0  0  0  0  0  0  0  0  0
  -25.9110  -34.9840   23.4310 C   0  0  0  0  0  0  0  0  0  0  0  0
  -26.5820  -34.8840   22.4000 O   0  0  0  0  0  0  0  0  0  0  0  0
  -24.9830  -34.0770   24.9840 H   0  0  0  0  0  0  0  0  0  0  0  0
  -24.1780  -36.7780   23.0840 C   0  0  0  0  0  1  0  0  0  0  0  0
  -25.4220  -36.3720   23.8920 C   0  0  0  0  0  3  0  0  0  0  0  0
  -27.5550  -37.2650   24.7180 C   0  0  0  0  0  1  0  0  0  0  0  0
  -26.4510  -37.4280   23.7760 N   0  0  0  0  0  0  0  0  0  0  0  0
  -26.0420  -38.3470   23.9230 H   0  0  0  0  0  0  0  0  0  0  0  0
  1  6  1  0
  2  1  1  0
  3  2  1  0
  4  3  1  0
  4  5  1  0
  5  1  1  0
  5  7  1  0
  8 16  1  0
  9 14  1  0
 10 11  1  0
 10  9  1  0
 12 11  1  0
 12 21  1  0
 12 13  1  0
 14  8  1  0
 14 13  1  0
 15  8  2  0
 16 17  1  0
 16  7  1  0
 18 19  2  0
 19 38  1  0
 20 19  1  0
 20 23  1  0
 21 18  1  0
 21 22  1  0
 22 20  2  0
 23 24  1  0
 24 25  2  0
 26 29  1  0
 26 25  1  0
 27 26  2  0
 28 27  1  0
 28 23  2  0
 29 30  1  0
 30 31  1  0
 31 32  2  0
 33 32  1  0
 33 37  1  0
 34 33  2  0
 35 30  2  0
 35 34  1  0
 36 35  1  0
 38 39  1  0
 39 42  1  0
 39 41  1  0
 40 38  2  0
 43 44  1  0
 43 18  1  0
 45 43  1  0
 46  6  2  0
 46 47  1  0
 48 50  1  0
 48 47  1  0
 49 60  2  0
 50 55  1  0
 51 59  1  0
 51 61  1  0
 52 58  1  0
 52 54  1  0
 53 59  1  0
 54 55  2  0
 54 53  1  0
 56 50  2  0
 57 56  1  0
 57 52  2  0
 58 51  1  0
 59 49  1  0
 61 63  2  0
 62 61  1  0
 64 62  1  0
 65 74  2  0
 65 70  1  0
 66 62  1  0
 66 70  1  0
 67 66  1  0
 68 69  1  0
 68 67  1  0
 69 65  1  0
 70 71  2  0
 71 72  1  0
 73 72  2  0
 74 73  1  0
 75 49  1  0
 75 80  1  0
 75 76  1  0
 76 79  1  1
 76 77  1  0
 78 76  1  0
 80 83  1  0
 81 85  1  0
 81 80  1  0
 82 81  2  0
 85 84  1  0
 87 85  1  0
 87 88  1  0
 87 86  1  0
M  ISO  4   8 100  16 100  47 101  48 101
M  END
>  <TORSDO>  (3) 
F 19

>  <SCORE>  (3) 
-15.644

>  <name>  (3) 
2

>  <ligand_id>  (3) 
2

>  <original_smiles>  (3) 
[H]c1c([H])c([H])c2c(c1[H])C([H])([H])C([H])([H])C([H])([H])C2([H])N([H])C(=O)C1([H])N(C(=O)C([H])(N([H])C(=O)C([H])(N([H])C([H])([H])[H])C([H])([H])[H])C(C([H])([H])[H])(C([H])([H])[H])C([H])([H])[H])C([H])([H])c2c([H])c(OC([H])([H])C([H])([H])N=C3C([H])([H])C([H])([H])C([H])([H])C3([H])C([H])([H])N([H])C(=O)N3C([H])([H])C([H])([H])C([H])([H])C([H])(n4nc(-c5c([H])c([H])c(Oc6c([H])c([H])c(F)c([H])c6F)c([H])c5[H])c(C(=O)N([H])[H])c4N([H])[H])C3([H])[H])c([H])c([H])c2C1([H])[H]

>  <smiles>  (3) 
[H]c1c([H])c([H])c2c(c1[H])C([H])([H])C([H])([H])C([H])([H])C2([H])N([H])C(=O)C1([H])N(C(=O)C([H])(N([H])C(=O)C([H])(N([H])C([H])([H])[H])C([H])([H])[H])C(C([H])([H])[H])(C([H])([H])[H])C([H])([H])[H])C([H])([H])c2c([H])c(OC([H])([H])C([H])([H])N=C3C([H])([H])C([H])([H])C([H])([H])C3([H])C([H])([H])N([H])C(=O)N3C([H])([H])C([H])([H])C([H])([H])C([H])(n4nc(-c5c([H])c([H])c(Oc6c([H])c([H])c(F)c([H])c6F)c([H])c5[H])c(C(=O)N([H])[H])c4N([H])[H])C3([H])[H])c([H])c([H])c2C1([H])[H]

$$$$
3:0:0
     RDKit          3D

 91 99  0  0  1  0  0  0  0  0999 V2000
  -27.9280  -21.0680   21.4220 C   0  0  0  0  0  2  0  0  0  0  0  0
  -27.9320  -22.4550   20.7350 C   0  0  0  0  0  2  0  0  0  0  0  0
  -30.1330  -22.1420   19.7790 C   0  0  0  0  0  2  0  0  0  0  0  0
  -28.2480  -19.8970   20.4590 C   0  0  0  0  0  2  0  0  0  0  0  0
  -30.5900  -20.8120   20.4760 C   0  0  0  0  0  2  0  0  0  0  0  0
  -29.2730  -23.0340   20.5870 N   0  0  0  0  0  0  0  0  0  0  0  0
  -29.7010  -19.6250   20.2520 N   0  0  1  0  0  4  0  0  0  0  0  0
  -29.7840  -19.4380   19.2640 H   0  0  0  0  0  0  0  0  0  0  0  0
  -29.2130  -24.3880   19.9640 C   0  0  0  0  0  2  0  0  0  0  0  0
  -28.5030  -25.5090   20.7950 C   0  0  0  0  0  2  0  0  0  0  0  0
  -28.6190  -26.8370   20.2220 O   0  0  0  0  0  0  0  0  0  0  0  0
  -24.6280  -31.9600   23.2030 C   0  0  0  0  0  0  0  0  0  0  0  0
  -27.4550  -27.5840   20.1790 C   0  0  0  0  0  0  0  0  0  0  0  0
  -23.5030  -30.5540   21.5050 C   0  0  0  0  0  3  0  0  0  0  0  0
  -25.0350  -29.0630   20.1060 C   0  0  0  0  0  0  0  0  0  0  0  0
  -26.0280  -30.9660   21.3910 C   0  0  0  0  0  2  0  0  0  0  0  0
  -26.1640  -29.6010   20.7400 C   0  0  0  0  0  0  0  0  0  0  0  0
  -27.3790  -28.8710   20.7670 C   0  0  0  0  0  3  0  0  0  0  0  0
  -26.3110  -27.0710   19.5280 C   0  0  0  0  0  3  0  0  0  0  0  0
  -25.1070  -27.8010   19.4900 C   0  0  0  0  0  3  0  0  0  0  0  0
  -23.7700  -29.8940   20.1240 C   0  0  0  0  0  2  0  0  0  0  0  0
  -24.7350  -31.1750   22.0920 N   0  0  0  0  0  0  0  0  0  0  0  0
  -23.5250  -32.2010   23.7130 O   0  0  0  0  0  0  0  0  0  0  0  0
  -22.8430  -29.5090   22.4350 C   0  0  0  0  0  0  0  0  0  0  0  0
  -21.5240  -29.3100   22.2720 N   0  0  0  0  0  0  0  0  0  0  0  0
  -23.5160  -28.8800   23.2550 O   0  0  0  0  0  0  0  0  0  0  0  0
  -21.0410  -29.8720   21.5830 H   0  0  0  0  0  0  0  0  0  0  0  0
  -18.1520  -28.0810   22.6890 C   0  0  0  0  0  0  0  0  0  0  0  0
  -20.7040  -28.3490   23.0080 C   0  0  0  0  0  3  0  0  0  0  0  0
  -20.8240  -26.9320   22.3990 C   0  0  0  0  0  2  0  0  0  0  0  0
  -19.7410  -26.6280   21.3590 C   0  0  0  0  0  2  0  0  0  0  0  0
  -18.3480  -26.7490   21.9840 C   0  0  0  0  0  2  0  0  0  0  0  0
  -19.2580  -28.8390   23.1560 C   0  0  0  0  0  0  0  0  0  0  0  0
  -19.0220  -30.0860   23.7730 C   0  0  0  0  0  3  0  0  0  0  0  0
  -17.7120  -30.5760   23.9300 C   0  0  0  0  0  3  0  0  0  0  0  0
  -16.6190  -29.8150   23.4800 C   0  0  0  0  0  3  0  0  0  0  0  0
  -16.8400  -28.5690   22.8660 C   0  0  0  0  0  3  0  0  0  0  0  0
  -25.8820  -32.6100   23.8690 C   0  0  0  0  0  3  0  0  0  0  0  0
  -26.3730  -31.8350   25.1530 C   0  0  1  0  0  0  0  0  0  0  0  0
  -25.2510  -31.5550   26.1780 C   0  0  0  0  0  1  0  0  0  0  0  0
  -27.0090  -30.4790   24.7650 C   0  0  0  0  0  1  0  0  0  0  0  0
  -27.4780  -32.6490   25.8660 C   0  0  0  0  0  1  0  0  0  0  0  0
  -25.5360  -33.9990   24.2030 N   0  0  0  0  0  0  0  0  0  0  0  0
  -25.8740  -35.0640   23.4640 C   0  0  0  0  0  0  0  0  0  0  0  0
  -26.5790  -34.9810   22.4540 O   0  0  0  0  0  0  0  0  0  0  0  0
  -24.9130  -34.1340   24.9850 H   0  0  0  0  0  0  0  0  0  0  0  0
  -24.1330  -36.8310   23.0560 C   0  0  0  0  0  1  0  0  0  0  0  0
  -25.3460  -36.4380   23.9150 C   0  0  0  0  0  3  0  0  0  0  0  0
  -27.4230  -37.3510   24.8520 C   0  0  0  0  0  1  0  0  0  0  0  0
  -26.3660  -37.5080   23.8570 N   0  0  0  0  0  0  0  0  0  0  0  0
  -25.9370  -38.4200   23.9880 H   0  0  0  0  0  0  0  0  0  0  0  0
  -30.1600  -18.3440   20.9100 C   0  0  0  0  0  2  0  0  0  0  0  0
  -30.0000  -17.0970   19.9800 C   0  0  0  0  0  2  0  0  0  0  0  0
  -30.8820  -14.7340   20.1430 C   0  0  0  0  0  0  0  0  0  0  0  0
  -30.5920  -12.5650   19.0040 C   0  0  0  0  0  2  0  0  0  0  0  0
  -29.6220  -12.7880   17.8230 C   0  0  0  0  0  2  0  0  0  0  0  0
  -28.1560  -12.6470   18.2840 C   0  0  0  0  0  2  0  0  0  0  0  0
  -27.8520  -13.4520   19.5780 C   0  0  0  0  0  3  0  0  0  0  0  0
  -28.9380  -13.2090   20.6530 C   0  0  0  0  0  2  0  0  0  0  0  0
  -30.2470  -13.5290   20.0590 N   0  0  0  0  0  0  0  0  0  0  0  0
  -31.9870  -14.9430   19.6350 O   0  0  0  0  0  0  0  0  0  0  0  0
  -30.1190  -15.7510   20.6020 N   0  0  0  0  0  0  0  0  0  0  0  0
  -29.2950  -15.4440   21.1000 H   0  0  0  0  0  0  0  0  0  0  0  0
  -25.4730  -14.0560   20.3510 C   0  0  0  0  0  0  0  0  0  0  0  0
  -24.4130  -13.2830   20.7440 C   0  0  0  0  0  0  0  0  0  0  0  0
  -24.8700  -11.9310   20.6890 C   0  0  0  0  0  0  0  0  0  0  0  0
  -26.5090  -13.1740   20.0830 N   0  0  0  0  0  0  0  0  0  0  0  0
  -26.1510  -11.8910   20.3430 N   0  0  0  0  0  0  0  0  0  0  0  0
  -24.1460  -10.6690   20.8910 C   0  0  0  0  0  0  0  0  0  0  0  0
  -24.5630   -9.7270   21.8590 C   0  0  0  0  0  3  0  0  0  0  0  0
  -23.8420   -8.5270   22.0460 C   0  0  0  0  0  3  0  0  0  0  0  0
  -22.6930   -8.2610   21.2640 C   0  0  0  0  0  0  0  0  0  0  0  0
  -22.2950   -9.1920   20.2880 C   0  0  0  0  0  3  0  0  0  0  0  0
  -23.0160  -10.3830   20.1000 C   0  0  0  0  0  3  0  0  0  0  0  0
  -21.9430   -7.1140   21.3610 O   0  0  0  0  0  0  0  0  0  0  0  0
  -21.8220   -6.4290   22.5440 C   0  0  0  0  0  0  0  0  0  0  0  0
  -21.2630   -7.0260   23.6950 C   0  0  0  0  0  3  0  0  0  0  0  0
  -21.0920   -6.2650   24.8690 C   0  0  0  0  0  3  0  0  0  0  0  0
  -21.4700   -4.9090   24.8930 C   0  0  0  0  0  0  0  0  0  0  0  0
  -22.0200   -4.3120   23.7450 C   0  0  0  0  0  3  0  0  0  0  0  0
  -22.1920   -5.0700   22.5730 C   0  0  0  0  0  0  0  0  0  0  0  0
  -22.7050   -4.4840   21.4640 F   0  0  0  0  0  0  0  0  0  0  0  0
  -21.2990   -4.1760   26.0180 F   0  0  0  0  0  0  0  0  0  0  0  0
  -23.0240  -13.7610   21.0580 C   0  0  0  0  0  0  0  0  0  0  0  0
  -22.3170  -13.0590   21.9400 N   0  0  0  0  0  0  0  0  0  0  0  0
  -22.5730  -14.7890   20.5560 O   0  0  0  0  0  0  0  0  0  0  0  0
  -22.6970  -12.2290   22.3680 H   0  0  0  0  0  0  0  0  0  0  0  0
  -21.3840  -13.3570   22.1870 H   0  0  0  0  0  0  0  0  0  0  0  0
  -25.6390  -15.4290   20.1890 N   0  0  0  0  0  0  0  0  0  0  0  0
  -24.8810  -16.0860   20.3330 H   0  0  0  0  0  0  0  0  0  0  0  0
  -26.4780  -15.8670   19.8340 H   0  0  0  0  0  0  0  0  0  0  0  0
  2  1  1  0
  3  5  1  0
  3  6  1  0
  4  1  1  0
  6  2  1  0
  7  4  1  0
  7  5  1  0
  7 52  1  0
  7  8  1  6
  9  6  1  0
  9 10  1  0
 11 10  1  0
 12 23  2  0
 13 11  1  0
 13 18  1  0
 14 22  1  0
 14 24  1  0
 15 21  1  0
 15 17  1  0
 16 22  1  0
 17 18  2  0
 17 16  1  0
 19 13  2  0
 20 19  1  0
 20 15  2  0
 21 14  1  0
 22 12  1  0
 24 26  2  0
 25 24  1  0
 27 25  1  0
 28 37  2  0
 28 33  1  0
 29 25  1  0
 29 33  1  0
 30 29  1  0
 31 32  1  0
 31 30  1  0
 32 28  1  0
 33 34  2  0
 34 35  1  0
 36 35  2  0
 37 36  1  0
 38 12  1  0
 38 43  1  0
 38 39  1  0
 39 42  1  1
 39 40  1  0
 41 39  1  0
 43 46  1  0
 44 48  1  0
 44 43  1  0
 45 44  2  0
 48 47  1  0
 50 48  1  0
 50 51  1  0
 50 49  1  0
 53 62  1  0
 53 52  1  0
 54 62  1  0
 55 60  1  0
 56 57  1  0
 56 55  1  0
 58 57  1  0
 58 67  1  0
 58 59  1  0
 60 54  1  0
 60 59  1  0
 61 54  2  0
 62 63  1  0
 64 65  2  0
 65 84  1  0
 66 65  1  0
 66 69  1  0
 67 68  1  0
 67 64  1  0
 68 66  2  0
 69 70  1  0
 70 71  2  0
 72 75  1  0
 72 71  1  0
 73 72  2  0
 74 73  1  0
 74 69  2  0
 75 76  1  0
 76 81  2  0
 76 77  1  0
 77 78  2  0
 78 79  1  0
 79 83  1  0
 80 79  2  0
 81 80  1  0
 82 81  1  0
 84 85  1  0
 85 88  1  0
 85 87  1  0
 86 84  2  0
 89 90  1  0
 89 64  1  0
 91 89  1  0
M  ISO  4  10 101  11 101  54 100  62 100
M  END
>  <TORSDO>  (4) 
F 20

>  <SCORE>  (4) 
-13.123

>  <name>  (4) 
3

>  <ligand_id>  (4) 
3

>  <original_smiles>  (4) 
[H]c1c([H])c([H])c2c(c1[H])C([H])([H])C([H])([H])C([H])([H])C2([H])N([H])C(=O)C1([H])N(C(=O)C([H])(N([H])C(=O)C([H])(N([H])C([H])([H])[H])C([H])([H])[H])C(C([H])([H])[H])(C([H])([H])[H])C([H])([H])[H])C([H])([H])c2c([H])c(OC([H])([H])C([H])([H])N3C([H])([H])C([H])([H])C([H])([H])[N+]([H])(C([H])([H])C([H])([H])N([H])C(=O)N4C([H])([H])C([H])([H])C([H])([H])C([H])(n5nc(-c6c([H])c([H])c(Oc7c([H])c([H])c(F)c([H])c7F)c([H])c6[H])c(C(=O)N([H])[H])c5N([H])[H])C4([H])[H])C([H])([H])C3([H])[H])c([H])c([H])c2C1([H])[H]

>  <smiles>  (4) 
[H]c1c([H])c([H])c2c(c1[H])C([H])([H])C([H])([H])C([H])([H])C2([H])N([H])C(=O)C1([H])N(C(=O)C([H])(N([H])C(=O)C([H])(N([H])C([H])([H])[H])C([H])([H])[H])C(C([H])([H])[H])(C([H])([H])[H])C([H])([H])[H])C([H])([H])c2c([H])c(OC([H])([H])C([H])([H])N3C([H])([H])C([H])([H])C([H])([H])[N+]([H])(C([H])([H])C([H])([H])N([H])C(=O)N4C([H])([H])C([H])([H])C([H])([H])C([H])(n5nc(-c6c([H])c([H])c(Oc7c([H])c([H])c(F)c([H])c7F)c([H])c6[H])c(C(=O)N([H])[H])c5N([H])[H])C4([H])[H])C([H])([H])C3([H])[H])c([H])c([H])c2C1([H])[H]

$$$$
4:0:0
     RDKit          3D

 90 98  0  0  1  0  0  0  0  0999 V2000
  -31.6680  -21.2380   21.4460 C   0  0  0  0  0  2  0  0  0  0  0  0
  -32.0640  -20.9730   19.9720 C   0  0  0  0  0  2  0  0  0  0  0  0
  -30.4150  -22.1350   21.5890 C   0  0  0  0  0  2  0  0  0  0  0  0
  -30.8920  -20.5110   19.0520 C   0  0  0  0  0  2  0  0  0  0  0  0
  -29.5110  -22.0730   20.3430 C   0  0  0  0  0  3  0  0  0  0  0  0
  -29.5590  -20.5810   19.7270 N   0  0  2  0  0  4  0  0  0  0  0  0
  -28.8980  -20.5830   18.9640 H   0  0  0  0  0  0  0  0  0  0  0  0
  -28.3000  -23.2520   20.3340 C   0  0  0  0  0  2  0  0  0  0  0  0
  -28.4570  -24.8400   19.7370 C   0  0  0  0  0  2  0  0  0  0  0  0
  -28.3070  -26.2620   20.3610 O   0  0  0  0  0  0  0  0  0  0  0  0
  -24.6210  -31.9150   23.2550 C   0  0  0  0  0  0  0  0  0  0  0  0
  -27.2260  -27.2070   20.2300 C   0  0  0  0  0  0  0  0  0  0  0  0
  -23.4260  -30.5090   21.6160 C   0  0  0  0  0  3  0  0  0  0  0  0
  -24.8820  -28.9350   20.1900 C   0  0  0  0  0  0  0  0  0  0  0  0
  -25.9760  -30.7860   21.4510 C   0  0  0  0  0  2  0  0  0  0  0  0
  -26.0550  -29.3930   20.8010 C   0  0  0  0  0  0  0  0  0  0  0  0
  -27.2220  -28.5410   20.8070 C   0  0  0  0  0  3  0  0  0  0  0  0
  -26.0270  -26.8460   19.5800 C   0  0  0  0  0  3  0  0  0  0  0  0
  -24.8810  -27.6760   19.5650 C   0  0  0  0  0  3  0  0  0  0  0  0
  -23.6490  -29.8270   20.2380 C   0  0  0  0  0  2  0  0  0  0  0  0
  -24.6940  -31.0940   22.1630 N   0  0  0  0  0  0  0  0  0  0  0  0
  -23.5340  -32.1970   23.7830 O   0  0  0  0  0  0  0  0  0  0  0  0
  -22.7540  -29.5030   22.5840 C   0  0  0  0  0  0  0  0  0  0  0  0
  -21.4270  -29.3230   22.4550 N   0  0  0  0  0  0  0  0  0  0  0  0
  -23.4280  -28.8870   23.4140 O   0  0  0  0  0  0  0  0  0  0  0  0
  -20.9400  -29.8730   21.7620 H   0  0  0  0  0  0  0  0  0  0  0  0
  -18.0540  -28.0950   22.9480 C   0  0  0  0  0  0  0  0  0  0  0  0
  -20.6090  -28.3840   23.2290 C   0  0  0  0  0  3  0  0  0  0  0  0
  -20.7280  -26.9490   22.6660 C   0  0  0  0  0  2  0  0  0  0  0  0
  -19.6360  -26.6080   21.6480 C   0  0  0  0  0  2  0  0  0  0  0  0
  -18.2480  -26.7440   22.2810 C   0  0  0  0  0  2  0  0  0  0  0  0
  -19.1630  -28.8720   23.3790 C   0  0  0  0  0  0  0  0  0  0  0  0
  -18.9270  -30.1360   23.9630 C   0  0  0  0  0  3  0  0  0  0  0  0
  -17.6160  -30.6230   24.1210 C   0  0  0  0  0  3  0  0  0  0  0  0
  -16.5220  -29.8430   23.7050 C   0  0  0  0  0  3  0  0  0  0  0  0
  -16.7420  -28.5820   23.1250 C   0  0  0  0  0  3  0  0  0  0  0  0
  -25.8960  -32.5580   23.8800 C   0  0  0  0  0  3  0  0  0  0  0  0
  -26.4040  -31.8030   25.1710 C   0  0  1  0  0  0  0  0  0  0  0  0
  -25.3050  -31.5800   26.2350 C   0  0  0  0  0  1  0  0  0  0  0  0
  -26.9900  -30.4200   24.8040 C   0  0  0  0  0  1  0  0  0  0  0  0
  -27.5500  -32.6060   25.8310 C   0  0  0  0  0  1  0  0  0  0  0  0
  -25.5820  -33.9600   24.2000 N   0  0  0  0  0  0  0  0  0  0  0  0
  -25.9120  -35.0120   23.4400 C   0  0  0  0  0  0  0  0  0  0  0  0
  -26.5820  -34.9050   22.4090 O   0  0  0  0  0  0  0  0  0  0  0  0
  -24.9860  -34.1170   25.0000 H   0  0  0  0  0  0  0  0  0  0  0  0
  -24.1820  -36.8060   23.0860 C   0  0  0  0  0  1  0  0  0  0  0  0
  -25.4260  -36.4030   23.8930 C   0  0  0  0  0  3  0  0  0  0  0  0
  -27.5610  -37.2970   24.7140 C   0  0  0  0  0  1  0  0  0  0  0  0
  -26.4570  -37.4570   23.7720 N   0  0  0  0  0  0  0  0  0  0  0  0
  -26.0490  -38.3770   23.9140 H   0  0  0  0  0  0  0  0  0  0  0  0
  -29.3000  -19.1740   20.4600 C   0  0  0  0  0  3  0  0  0  0  0  0
  -30.0480  -17.7180   19.9540 C   0  0  0  0  0  3  0  0  0  0  0  0
  -30.5270  -15.0290   20.2290 C   0  0  0  0  0  0  0  0  0  0  0  0
  -30.3980  -12.6850   19.2760 C   0  0  0  0  0  2  0  0  0  0  0  0
  -29.4570  -12.6560   18.0480 C   0  0  0  0  0  2  0  0  0  0  0  0
  -27.9960  -12.4430   18.4890 C   0  0  0  0  0  2  0  0  0  0  0  0
  -27.6000  -13.3500   19.6840 C   0  0  0  0  0  3  0  0  0  0  0  0
  -28.6640  -13.3500   20.8030 C   0  0  0  0  0  2  0  0  0  0  0  0
  -29.9300  -13.7690   20.1910 N   0  0  0  0  0  0  0  0  0  0  0  0
  -31.7150  -15.0950   19.9010 O   0  0  0  0  0  0  0  0  0  0  0  0
  -29.7650  -16.2210   20.4050 N   0  0  0  0  0  0  0  0  0  0  0  0
  -28.8130  -16.0480   20.6920 H   0  0  0  0  0  0  0  0  0  0  0  0
  -25.2150  -13.9090   20.4230 C   0  0  0  0  0  0  0  0  0  0  0  0
  -24.1610  -13.1260   20.8030 C   0  0  0  0  0  0  0  0  0  0  0  0
  -24.6410  -11.7800   20.7840 C   0  0  0  0  0  0  0  0  0  0  0  0
  -26.2680  -13.0410   20.1890 N   0  0  0  0  0  0  0  0  0  0  0  0
  -25.9310  -11.7560   20.4710 N   0  0  0  0  0  0  0  0  0  0  0  0
  -23.9270  -10.5110   20.9850 C   0  0  0  0  0  0  0  0  0  0  0  0
  -24.3640   -9.5600   21.9340 C   0  0  0  0  0  3  0  0  0  0  0  0
  -23.6490   -8.3570   22.1230 C   0  0  0  0  0  3  0  0  0  0  0  0
  -22.4830   -8.0970   21.3640 C   0  0  0  0  0  0  0  0  0  0  0  0
  -22.0660   -9.0370   20.4050 C   0  0  0  0  0  3  0  0  0  0  0  0
  -22.7810  -10.2310   20.2130 C   0  0  0  0  0  3  0  0  0  0  0  0
  -21.7390   -6.9460   21.4630 O   0  0  0  0  0  0  0  0  0  0  0  0
  -21.6900   -6.2180   22.6260 C   0  0  0  0  0  0  0  0  0  0  0  0
  -21.2420   -6.7830   23.8390 C   0  0  0  0  0  3  0  0  0  0  0  0
  -21.1400   -5.9810   24.9940 C   0  0  0  0  0  3  0  0  0  0  0  0
  -21.4770   -4.6150   24.9370 C   0  0  0  0  0  0  0  0  0  0  0  0
  -21.9180   -4.0500   23.7270 C   0  0  0  0  0  3  0  0  0  0  0  0
  -22.0210   -4.8490   22.5740 C   0  0  0  0  0  0  0  0  0  0  0  0
  -22.4260   -4.2940   21.4070 F   0  0  0  0  0  0  0  0  0  0  0  0
  -21.3730   -3.8430   26.0430 F   0  0  0  0  0  0  0  0  0  0  0  0
  -22.7580  -13.5910   21.0710 C   0  0  0  0  0  0  0  0  0  0  0  0
  -22.0380  -12.8920   21.9400 N   0  0  0  0  0  0  0  0  0  0  0  0
  -22.3110  -14.6090   20.5430 O   0  0  0  0  0  0  0  0  0  0  0  0
  -22.4130  -12.0700   22.3900 H   0  0  0  0  0  0  0  0  0  0  0  0
  -21.0960  -13.1830   22.1610 H   0  0  0  0  0  0  0  0  0  0  0  0
  -25.3630  -15.2790   20.2290 N   0  0  0  0  0  0  0  0  0  0  0  0
  -24.5880  -15.9250   20.3320 H   0  0  0  0  0  0  0  0  0  0  0  0
  -26.1910  -15.7170   19.8480 H   0  0  0  0  0  0  0  0  0  0  0  0
  1  3  1  0
  2  1  1  0
  4  6  1  0
  4  2  1  0
  5  8  1  0
  5  3  1  0
  6  5  1  0
  6 51  1  0
  6  7  1  6
  9  8  1  0
  9 10  1  0
 11 22  2  0
 12 10  1  0
 12 17  1  0
 13 21  1  0
 13 23  1  0
 14 20  1  0
 14 16  1  0
 15 21  1  0
 16 17  2  0
 16 15  1  0
 18 12  2  0
 19 18  1  0
 19 14  2  0
 20 13  1  0
 21 11  1  0
 23 25  2  0
 24 23  1  0
 26 24  1  0
 27 36  2  0
 27 32  1  0
 28 24  1  0
 28 32  1  0
 29 28  1  0
 30 31  1  0
 30 29  1  0
 31 27  1  0
 32 33  2  0
 33 34  1  0
 35 34  2  0
 36 35  1  0
 37 11  1  0
 37 42  1  0
 37 38  1  0
 38 41  1  1
 38 39  1  0
 40 38  1  0
 42 45  1  0
 43 47  1  0
 43 42  1  0
 44 43  2  0
 47 46  1  0
 49 47  1  0
 49 50  1  0
 49 48  1  0
 52 61  1  0
 52 51  2  0
 53 61  1  0
 54 59  1  0
 55 56  1  0
 55 54  1  0
 57 56  1  0
 57 66  1  0
 57 58  1  0
 59 53  1  0
 59 58  1  0
 60 53  2  0
 61 62  1  0
 63 64  2  0
 64 83  1  0
 65 64  1  0
 65 68  1  0
 66 63  1  0
 66 67  1  0
 67 65  2  0
 68 69  1  0
 69 70  2  0
 71 74  1  0
 71 70  1  0
 72 71  2  0
 73 72  1  0
 73 68  2  0
 74 75  1  0
 75 76  1  0
 76 77  2  0
 78 77  1  0
 78 82  1  0
 79 78  2  0
 80 75  2  0
 80 79  1  0
 81 80  1  0
 83 84  1  0
 84 87  1  0
 84 86  1  0
 85 83  2  0
 88 89  1  0
 88 63  1  0
 90 88  1  0
M  ISO  4   9 101  10 101  53 100  61 100
M  END
>  <TORSDO>  (5) 
F 20

>  <SCORE>  (5) 
-15.479

>  <name>  (5) 
4

>  <ligand_id>  (5) 
4

>  <original_smiles>  (5) 
[H]c1c([H])c([H])c2c(c1[H])C([H])([H])C([H])([H])C([H])([H])C2([H])N([H])C(=O)C1([H])N(C(=O)C([H])(N([H])C(=O)C([H])(N([H])C([H])([H])[H])C([H])([H])[H])C(C([H])([H])[H])(C([H])([H])[H])C([H])([H])[H])C([H])([H])c2c([H])c(OC([H])([H])C([H])([H])C3([H])C([H])([H])C([H])([H])C([H])([H])C([H])([H])[N+]3([H])C([H])([H])C([H])([H])N([H])C(=O)N3C([H])([H])C([H])([H])C([H])([H])C([H])(n4nc(-c5c([H])c([H])c(Oc6c([H])c([H])c(F)c([H])c6F)c([H])c5[H])c(C(=O)N([H])[H])c4N([H])[H])C3([H])[H])c([H])c([H])c2C1([H])[H]

>  <smiles>  (5) 
[H]c1c([H])c([H])c2c(c1[H])C([H])([H])C([H])([H])C([H])([H])C2([H])N([H])C(=O)C1([H])N(C(=O)C([H])(N([H])C(=O)C([H])(N([H])C([H])([H])[H])C([H])([H])[H])C(C([H])([H])[H])(C([H])([H])[H])C([H])([H])[H])C([H])([H])c2c([H])c(OC([H])([H])C([H])([H])C3([H])C([H])([H])C([H])([H])C([H])([H])C([H])([H])[N+]3([H])C([H])([H])C([H])([H])N([H])C(=O)N3C([H])([H])C([H])([H])C([H])([H])C([H])(n4nc(-c5c([H])c([H])c(Oc6c([H])c([H])c(F)c([H])c6F)c([H])c5[H])c(C(=O)N([H])[H])c4N([H])[H])C3([H])[H])c([H])c([H])c2C1([H])[H]

$$$$
5:0:0
     RDKit          3D

 97105  0  0  1  0  0  0  0  0999 V2000
  -30.8720  -24.9720   20.0530 C   0  0  0  0  0  2  0  0  0  0  0  0
  -29.2510  -23.1200   19.5460 C   0  0  0  0  0  2  0  0  0  0  0  0
  -31.9670  -24.1790   19.3100 C   0  0  0  0  0  2  0  0  0  0  0  0
  -30.3720  -22.3870   18.7910 C   0  0  0  0  0  2  0  0  0  0  0  0
  -29.4610  -24.6430   19.5230 C   0  0  0  0  0  3  0  0  0  0  0  0
  -31.7000  -22.7170   19.3670 N   0  0  1  0  0  4  0  0  0  0  0  0
  -31.6280  -22.4830   20.3450 H   0  0  0  0  0  0  0  0  0  0  0  0
  -28.3600  -25.3620   20.3200 C   0  0  0  0  0  2  0  0  0  0  0  0
  -28.4180  -26.7660   20.0580 O   0  0  0  0  0  0  0  0  0  0  0  0
  -24.6100  -31.8730   23.2130 C   0  0  0  0  0  0  0  0  0  0  0  0
  -27.2300  -27.4610   20.0820 C   0  0  0  0  0  0  0  0  0  0  0  0
  -23.3970  -30.4970   21.5530 C   0  0  0  0  0  3  0  0  0  0  0  0
  -24.8400  -28.9660   20.1180 C   0  0  0  0  0  0  0  0  0  0  0  0
  -25.9230  -30.8430   21.3630 C   0  0  0  0  0  2  0  0  0  0  0  0
  -25.9990  -29.4790   20.7120 C   0  0  0  0  0  0  0  0  0  0  0  0
  -27.1980  -28.7330   20.6920 C   0  0  0  0  0  3  0  0  0  0  0  0
  -26.0550  -26.9650   19.4690 C   0  0  0  0  0  3  0  0  0  0  0  0
  -24.8610  -27.7070   19.4960 C   0  0  0  0  0  3  0  0  0  0  0  0
  -23.6030  -29.8320   20.1670 C   0  0  0  0  0  2  0  0  0  0  0  0
  -24.6620  -31.0840   22.1020 N   0  0  0  0  0  0  0  0  0  0  0  0
  -23.5300  -32.1480   23.7540 O   0  0  0  0  0  0  0  0  0  0  0  0
  -22.7390  -29.4680   22.4990 C   0  0  0  0  0  0  0  0  0  0  0  0
  -21.4120  -29.3030   22.3730 N   0  0  0  0  0  0  0  0  0  0  0  0
  -23.4180  -28.8200   23.3010 O   0  0  0  0  0  0  0  0  0  0  0  0
  -20.9250  -29.8810   21.7010 H   0  0  0  0  0  0  0  0  0  0  0  0
  -18.0280  -28.1350   22.8480 C   0  0  0  0  0  0  0  0  0  0  0  0
  -20.5870  -28.3640   23.1310 C   0  0  0  0  0  3  0  0  0  0  0  0
  -20.6770  -26.9380   22.5400 C   0  0  0  0  0  2  0  0  0  0  0  0
  -19.5750  -26.6360   21.5200 C   0  0  0  0  0  2  0  0  0  0  0  0
  -18.1930  -26.7900   22.1610 C   0  0  0  0  0  2  0  0  0  0  0  0
  -19.1530  -28.8810   23.2900 C   0  0  0  0  0  0  0  0  0  0  0  0
  -18.9460  -30.1420   23.8900 C   0  0  0  0  0  3  0  0  0  0  0  0
  -17.6470  -30.6560   24.0550 C   0  0  0  0  0  3  0  0  0  0  0  0
  -16.5360  -29.9070   23.6310 C   0  0  0  0  0  3  0  0  0  0  0  0
  -16.7270  -28.6480   23.0320 C   0  0  0  0  0  3  0  0  0  0  0  0
  -25.9010  -32.4850   23.8420 C   0  0  0  0  0  3  0  0  0  0  0  0
  -26.4460  -31.6620   25.0730 C   0  0  1  0  0  0  0  0  0  0  0  0
  -25.3730  -31.3720   26.1480 C   0  0  0  0  0  1  0  0  0  0  0  0
  -27.0310  -30.3080   24.6080 C   0  0  0  0  0  1  0  0  0  0  0  0
  -27.6030  -32.4350   25.7490 C   0  0  0  0  0  1  0  0  0  0  0  0
  -25.5880  -33.8650   24.2340 N   0  0  0  0  0  0  0  0  0  0  0  0
  -25.9030  -34.9490   23.5130 C   0  0  0  0  0  0  0  0  0  0  0  0
  -26.5590  -34.8930   22.4690 O   0  0  0  0  0  0  0  0  0  0  0  0
  -25.0030  -33.9820   25.0490 H   0  0  0  0  0  0  0  0  0  0  0  0
  -24.1500  -36.7340   23.2640 C   0  0  0  0  0  1  0  0  0  0  0  0
  -25.4110  -36.3130   24.0330 C   0  0  0  0  0  3  0  0  0  0  0  0
  -27.5600  -37.1820   24.8460 C   0  0  0  0  0  1  0  0  0  0  0  0
  -26.4310  -37.3800   23.9390 N   0  0  0  0  0  0  0  0  0  0  0  0
  -26.0200  -38.2890   24.1370 H   0  0  0  0  0  0  0  0  0  0  0  0
  -32.7930  -21.8820   18.7960 C   0  0  0  0  0  2  0  0  0  0  0  0
  -33.9630  -21.6320   19.7770 C   0  0  0  0  0  2  0  0  0  0  0  0
  -33.5930  -20.8750   21.0740 C   0  0  0  0  0  2  0  0  0  0  0  0
  -33.3170  -19.4340   20.8700 N   0  0  0  0  0  4  0  0  0  0  0  0
  -32.7020  -19.2900   20.0870 H   0  0  0  0  0  0  0  0  0  0  0  0
  -34.1850  -18.9630   20.6640 H   0  0  0  0  0  0  0  0  0  0  0  0
  -32.7010  -18.7900   22.0490 C   0  0  0  0  0  2  0  0  0  0  0  0
  -32.3930  -17.3080   21.7980 C   0  0  0  0  0  2  0  0  0  0  0  0
  -31.7980  -16.6270   23.0390 C   0  0  0  0  0  2  0  0  0  0  0  0
  -31.7790  -15.0960   22.9420 C   0  0  0  0  0  2  0  0  0  0  0  0
  -30.8480  -14.2380   20.7890 C   0  0  0  0  0  0  0  0  0  0  0  0
  -30.4040  -12.2870   19.3570 C   0  0  0  0  0  2  0  0  0  0  0  0
  -29.4650  -12.5400   18.1690 C   0  0  0  0  0  2  0  0  0  0  0  0
  -27.9980  -12.3780   18.5990 C   0  0  0  0  0  2  0  0  0  0  0  0
  -27.6610  -13.2020   19.8680 C   0  0  0  0  0  3  0  0  0  0  0  0
  -28.6970  -12.9500   20.9830 C   0  0  0  0  0  2  0  0  0  0  0  0
  -30.0480  -13.2030   20.4470 N   0  0  0  0  0  0  0  0  0  0  0  0
  -31.7710  -14.6580   20.0820 O   0  0  0  0  0  0  0  0  0  0  0  0
  -30.7250  -14.5750   22.0780 N   0  0  0  0  0  0  0  0  0  0  0  0
  -29.9390  -14.1490   22.5490 H   0  0  0  0  0  0  0  0  0  0  0  0
  -25.2590  -13.8160   20.5650 C   0  0  0  0  0  0  0  0  0  0  0  0
  -24.1830  -13.0440   20.9170 C   0  0  0  0  0  0  0  0  0  0  0  0
  -24.6380  -11.6910   20.8720 C   0  0  0  0  0  0  0  0  0  0  0  0
  -26.3010  -12.9320   20.3310 N   0  0  0  0  0  0  0  0  0  0  0  0
  -25.9300  -11.6480   20.5720 N   0  0  0  0  0  0  0  0  0  0  0  0
  -23.9050  -10.4290   21.0400 C   0  0  0  0  0  0  0  0  0  0  0  0
  -24.3600   -9.4210   21.9180 C   0  0  0  0  0  3  0  0  0  0  0  0
  -23.6280   -8.2240   22.0750 C   0  0  0  0  0  3  0  0  0  0  0  0
  -22.4260   -8.0280   21.3550 C   0  0  0  0  0  0  0  0  0  0  0  0
  -21.9890   -9.0250   20.4650 C   0  0  0  0  0  3  0  0  0  0  0  0
  -22.7220  -10.2130   20.3050 C   0  0  0  0  0  3  0  0  0  0  0  0
  -21.6640   -6.8870   21.4240 O   0  0  0  0  0  0  0  0  0  0  0  0
  -21.6850   -6.0730   22.5280 C   0  0  0  0  0  0  0  0  0  0  0  0
  -21.4010   -6.5640   23.8210 C   0  0  0  0  0  3  0  0  0  0  0  0
  -21.3660   -5.6800   24.9180 C   0  0  0  0  0  3  0  0  0  0  0  0
  -21.6050   -4.3050   24.7230 C   0  0  0  0  0  0  0  0  0  0  0  0
  -21.8810   -3.8150   23.4350 C   0  0  0  0  0  3  0  0  0  0  0  0
  -21.9190   -4.6960   22.3400 C   0  0  0  0  0  0  0  0  0  0  0  0
  -22.1660   -4.2140   21.0980 F   0  0  0  0  0  0  0  0  0  0  0  0
  -21.5630   -3.4540   25.7740 F   0  0  0  0  0  0  0  0  0  0  0  0
  -22.7860  -13.5250   21.1840 C   0  0  0  0  0  0  0  0  0  0  0  0
  -22.0490  -12.8250   22.0400 N   0  0  0  0  0  0  0  0  0  0  0  0
  -22.3550  -14.5560   20.6700 O   0  0  0  0  0  0  0  0  0  0  0  0
  -22.4100  -11.9900   22.4780 H   0  0  0  0  0  0  0  0  0  0  0  0
  -21.1110  -13.1280   22.2590 H   0  0  0  0  0  0  0  0  0  0  0  0
  -25.4340  -15.1870   20.4070 N   0  0  0  0  0  0  0  0  0  0  0  0
  -24.6790  -15.8530   20.5260 H   0  0  0  0  0  0  0  0  0  0  0  0
  -26.3000  -15.6190   20.1090 H   0  0  0  0  0  0  0  0  0  0  0  0
  3  6  1  0
  3  1  1  0
  4  6  1  0
  4  2  1  0
  5  2  1  0
  5  1  1  0
  5  8  1  0
  6  7  1  1
  9 11  1  0
  9  8  1  0
 10 21  2  0
 11 16  1  0
 12 20  1  0
 12 22  1  0
 13 19  1  0
 13 15  1  0
 14 20  1  0
 15 14  1  0
 16 15  2  0
 17 18  1  0
 17 11  2  0
 18 13  2  0
 19 12  1  0
 20 10  1  0
 22 24  2  0
 23 22  1  0
 25 23  1  0
 26 35  2  0
 26 31  1  0
 27 23  1  0
 27 31  1  0
 28 27  1  0
 29 30  1  0
 29 28  1  0
 30 26  1  0
 31 32  2  0
 32 33  1  0
 34 33  2  0
 35 34  1  0
 36 10  1  0
 36 41  1  0
 36 37  1  0
 37 40  1  1
 37 38  1  0
 39 37  1  0
 41 44  1  0
 42 46  1  0
 42 41  1  0
 43 42  2  0
 46 45  1  0
 48 46  1  0
 48 49  1  0
 48 47  1  0
 50  6  1  0
 50 51  1  0
 51 52  1  0
 53 52  1  0
 53 56  1  0
 54 53  1  0
 55 53  1  0
 57 56  1  0
 57 58  1  0
 59 58  1  0
 60 68  1  0
 61 66  1  0
 62 63  1  0
 62 61  1  0
 64 63  1  0
 64 73  1  0
 64 65  1  0
 66 60  1  0
 66 65  1  0
 67 60  2  0
 68 69  1  0
 68 59  1  0
 70 71  2  0
 71 90  1  0
 72 71  1  0
 72 75  1  0
 73 70  1  0
 73 74  1  0
 74 72  2  0
 75 76  1  0
 76 77  2  0
 78 81  1  0
 78 77  1  0
 79 78  2  0
 80 79  1  0
 80 75  2  0
 81 82  1  0
 82 83  1  0
 83 84  2  0
 85 84  1  0
 85 89  1  0
 86 85  2  0
 87 82  2  0
 87 86  1  0
 88 87  1  0
 90 91  1  0
 91 94  1  0
 91 93  1  0
 92 90  2  0
 95 96  1  0
 95 70  1  0
 97 95  1  0
M  ISO  4   8 101   9 101  60 100  68 100
M  END
>  <TORSDO>  (6) 
F 25

>  <SCORE>  (6) 
-6.491

>  <name>  (6) 
5

>  <ligand_id>  (6) 
5

>  <original_smiles>  (6) 
[H]c1c([H])c([H])c2c(c1[H])C([H])([H])C([H])([H])C([H])([H])C2([H])N([H])C(=O)C1([H])N(C(=O)C([H])(N([H])C(=O)C([H])(N([H])C([H])([H])[H])C([H])([H])[H])C(C([H])([H])[H])(C([H])([H])[H])C([H])([H])[H])C([H])([H])c2c([H])c(OC([H])([H])C3([H])C([H])([H])C([H])([H])[N+]([H])(C([H])([H])C([H])([H])C([H])([H])[N+]([H])([H])C([H])([H])C([H])([H])C([H])([H])C([H])([H])N([H])C(=O)N4C([H])([H])C([H])([H])C([H])([H])C([H])(n5nc(-c6c([H])c([H])c(Oc7c([H])c([H])c(F)c([H])c7F)c([H])c6[H])c(C(=O)N([H])[H])c5N([H])[H])C4([H])[H])C([H])([H])C3([H])[H])c([H])c([H])c2C1([H])[H]

>  <smiles>  (6) 
[H]c1c([H])c([H])c2c(c1[H])C([H])([H])C([H])([H])C([H])([H])C2([H])N([H])C(=O)C1([H])N(C(=O)C([H])(N([H])C(=O)C([H])(N([H])C([H])([H])[H])C([H])([H])[H])C(C([H])([H])[H])(C([H])([H])[H])C([H])([H])[H])C([H])([H])c2c([H])c(OC([H])([H])C3([H])C([H])([H])C([H])([H])[N+]([H])(C([H])([H])C([H])([H])C([H])([H])[N+]([H])([H])C([H])([H])C([H])([H])C([H])([H])C([H])([H])N([H])C(=O)N4C([H])([H])C([H])([H])C([H])([H])C([H])(n5nc(-c6c([H])c([H])c(Oc7c([H])c([H])c(F)c([H])c7F)c([H])c6[H])c(C(=O)N([H])[H])c5N([H])[H])C4([H])[H])C([H])([H])C3([H])[H])c([H])c([H])c2C1([H])[H]

$$$$
6:0:0
     RDKit          3D

 93 99  0  0  1  0  0  0  0  0999 V2000
  -30.2420  -16.2000   20.3820 C   0  0  0  0  0  0  0  0  0  0  0  0
  -30.4030  -13.5980   19.4480 C   0  0  0  0  0  2  0  0  0  0  0  0
  -29.5590  -13.0290   18.2590 C   0  0  0  0  0  2  0  0  0  0  0  0
  -28.1640  -12.5880   18.7160 C   0  0  0  0  0  2  0  0  0  0  0  0
  -27.6010  -13.5840   19.7480 C   0  0  0  0  0  3  0  0  0  0  0  0
  -28.6120  -14.0190   20.8470 C   0  0  0  0  0  2  0  0  0  0  0  0
  -29.7100  -14.7940   20.1760 N   0  0  0  0  0  0  0  0  0  0  0  0
  -31.4830  -15.9880   20.4040 O   0  0  0  0  0  0  0  0  0  0  0  0
  -28.6160  -18.1950   19.3580 C   0  0  0  0  0  2  0  0  0  0  0  0
  -29.6730  -19.4890   21.0090 C   0  0  0  0  0  1  0  0  0  0  0  0
  -28.9980  -19.5360   18.5290 C   0  0  0  0  0  2  0  0  0  0  0  0
  -28.9010  -21.2930   20.4800 C   0  0  0  0  0  1  0  0  0  0  0  0
  -29.5850  -17.7380   20.4100 N   0  0  0  0  0  0  0  0  0  0  0  0
  -28.6700  -20.9760   19.0190 N   0  0  1  0  0  4  0  0  0  0  0  0
  -27.6660  -21.0340   18.9230 H   0  0  0  0  0  0  0  0  0  0  0  0
  -28.0750  -23.0480   17.6870 C   0  0  0  0  0  2  0  0  0  0  0  0
  -30.0270  -21.6740   16.9060 C   0  0  0  0  0  2  0  0  0  0  0  0
  -28.6560  -24.2640   16.9290 C   0  0  0  0  0  2  0  0  0  0  0  0
  -30.5690  -22.9070   16.1510 C   0  0  0  0  0  2  0  0  0  0  0  0
  -29.1970  -22.0890   18.1480 C   0  0  0  0  0  3  0  0  0  0  0  0
  -29.4850  -23.8420   15.7790 N   0  0  0  0  0  4  0  0  0  0  0  0
  -29.8990  -24.6590   15.3560 H   0  0  0  0  0  0  0  0  0  0  0  0
  -28.8980  -23.4200   15.0760 H   0  0  0  0  0  0  0  0  0  0  0  0
  -25.2360  -14.0820   20.4890 C   0  0  0  0  0  0  0  0  0  0  0  0
  -24.1710  -13.2990   20.8260 C   0  0  0  0  0  0  0  0  0  0  0  0
  -24.6440  -11.9490   20.7950 C   0  0  0  0  0  0  0  0  0  0  0  0
  -26.2880  -13.2180   20.2610 N   0  0  0  0  0  0  0  0  0  0  0  0
  -25.9460  -11.9240   20.5090 N   0  0  0  0  0  0  0  0  0  0  0  0
  -23.9080  -10.6870   20.9620 C   0  0  0  0  0  0  0  0  0  0  0  0
  -24.3050   -9.7160   21.9070 C   0  0  0  0  0  3  0  0  0  0  0  0
  -23.5640   -8.5240   22.0660 C   0  0  0  0  0  3  0  0  0  0  0  0
  -22.4100   -8.2940   21.2800 C   0  0  0  0  0  0  0  0  0  0  0  0
  -22.0290   -9.2540   20.3270 C   0  0  0  0  0  3  0  0  0  0  0  0
  -22.7710  -10.4370   20.1660 C   0  0  0  0  0  3  0  0  0  0  0  0
  -21.6450   -7.1540   21.3480 O   0  0  0  0  0  0  0  0  0  0  0  0
  -21.5630   -6.4090   22.4970 C   0  0  0  0  0  0  0  0  0  0  0  0
  -21.0950   -6.9590   23.7100 C   0  0  0  0  0  3  0  0  0  0  0  0
  -20.9610   -6.1400   24.8490 C   0  0  0  0  0  3  0  0  0  0  0  0
  -21.2830   -4.7710   24.7760 C   0  0  0  0  0  0  0  0  0  0  0  0
  -21.7430   -4.2200   23.5670 C   0  0  0  0  0  3  0  0  0  0  0  0
  -21.8780   -5.0360   22.4310 C   0  0  0  0  0  0  0  0  0  0  0  0
  -22.3010   -4.4950   21.2630 F   0  0  0  0  0  0  0  0  0  0  0  0
  -21.1450   -3.9820   25.8680 F   0  0  0  0  0  0  0  0  0  0  0  0
  -22.7680  -13.7760   21.0560 C   0  0  0  0  0  0  0  0  0  0  0  0
  -22.0160  -13.0900   21.9080 N   0  0  0  0  0  0  0  0  0  0  0  0
  -22.3470  -14.7990   20.5150 O   0  0  0  0  0  0  0  0  0  0  0  0
  -22.3670  -12.2660   22.3740 H   0  0  0  0  0  0  0  0  0  0  0  0
  -21.0730  -13.3970   22.1020 H   0  0  0  0  0  0  0  0  0  0  0  0
  -25.3960  -15.4540   20.3200 N   0  0  0  0  0  0  0  0  0  0  0  0
  -24.6240  -16.1040   20.4310 H   0  0  0  0  0  0  0  0  0  0  0  0
  -26.2530  -15.9030   20.0250 H   0  0  0  0  0  0  0  0  0  0  0  0
  -28.4330  -23.3300   20.9760 C   0  0  0  0  0 15  0  0  0  0  0  0
  -28.4850  -25.2340   20.7910 O   0  0  0  0  0  1  0  0  0  0  0  0
  -24.7960  -31.9490   23.3350 C   0  0  0  0  0  0  0  0  0  0  0  0
  -27.5130  -26.5510   20.7220 C   0  0  0  0  0  0  0  0  0  0  0  0
  -23.7170  -30.4640   21.7070 C   0  0  0  0  0  3  0  0  0  0  0  0
  -25.2520  -28.7250   20.4590 C   0  0  0  0  0  0  0  0  0  0  0  0
  -26.3090  -30.5600   21.7360 C   0  0  0  0  0  2  0  0  0  0  0  0
  -26.4190  -29.0730   21.1460 C   0  0  0  0  0  0  0  0  0  0  0  0
  -27.5250  -28.0240   21.2280 C   0  0  0  0  0  3  0  0  0  0  0  0
  -26.3000  -26.4840   19.9680 C   0  0  0  0  0  3  0  0  0  0  0  0
  -25.2480  -27.4590   19.8460 C   0  0  0  0  0  3  0  0  0  0  0  0
  -24.0470  -29.6950   20.3910 C   0  0  0  0  0  2  0  0  0  0  0  0
  -24.9660  -31.0340   22.3100 N   0  0  0  0  0  0  0  0  0  0  0  0
  -23.6710  -32.2640   23.7650 O   0  0  0  0  0  0  0  0  0  0  0  0
  -22.9420  -29.5380   22.6870 C   0  0  0  0  0  0  0  0  0  0  0  0
  -21.6180  -29.3650   22.4990 N   0  0  0  0  0  0  0  0  0  0  0  0
  -23.5500  -28.9670   23.5950 O   0  0  0  0  0  0  0  0  0  0  0  0
  -21.1720  -29.8720   21.7480 H   0  0  0  0  0  0  0  0  0  0  0  0
  -18.2120  -28.1470   22.9310 C   0  0  0  0  0  0  0  0  0  0  0  0
  -20.7620  -28.4490   23.2690 C   0  0  0  0  0  3  0  0  0  0  0  0
  -20.8920  -26.9990   22.7480 C   0  0  0  0  0  2  0  0  0  0  0  0
  -19.8300  -26.6360   21.7050 C   0  0  0  0  0  2  0  0  0  0  0  0
  -18.4250  -26.7840   22.2950 C   0  0  0  0  0  2  0  0  0  0  0  0
  -19.3090  -28.9360   23.3720 C   0  0  0  0  0  0  0  0  0  0  0  0
  -19.0520  -30.2050   23.9330 C   0  0  0  0  0  3  0  0  0  0  0  0
  -17.7360  -30.6900   24.0510 C   0  0  0  0  0  3  0  0  0  0  0  0
  -16.6540  -29.9010   23.6210 C   0  0  0  0  0  3  0  0  0  0  0  0
  -16.8940  -28.6300   23.0670 C   0  0  0  0  0  3  0  0  0  0  0  0
  -26.0050  -32.6590   24.0180 C   0  0  0  0  0  3  0  0  0  0  0  0
  -25.6370  -34.0670   24.2810 N   0  0  0  0  0  0  0  0  0  0  0  0
  -25.9640  -35.1140   23.5100 C   0  0  0  0  0  0  0  0  0  0  0  0
  -26.6580  -34.9970   22.4970 O   0  0  0  0  0  0  0  0  0  0  0  0
  -25.0190  -34.2290   25.0630 H   0  0  0  0  0  0  0  0  0  0  0  0
  -24.1990  -36.8690   23.0970 C   0  0  0  0  0  1  0  0  0  0  0  0
  -25.4450  -36.5110   23.9220 C   0  0  0  0  0  3  0  0  0  0  0  0
  -27.5480  -37.4880   24.7400 C   0  0  0  0  0  1  0  0  0  0  0  0
  -26.4540  -37.5840   23.7760 N   0  0  0  0  0  0  0  0  0  0  0  0
  -26.0240  -38.4990   23.8760 H   0  0  0  0  0  0  0  0  0  0  0  0
  -26.4380  -31.9690   25.3720 C   0  0  1  0  0  0  0  0  0  0  0  0
  -25.2690  -31.7410   26.3610 C   0  0  0  0  0  1  0  0  0  0  0  0
  -27.1000  -30.5980   25.1140 C   0  0  0  0  0  1  0  0  0  0  0  0
  -27.5040  -32.8370   26.0850 C   0  0  0  0  0  1  0  0  0  0  0  0
  1  8  2  0
  1 13  1  0
  2  7  1  0
  3  4  1  0
  3  2  1  0
  5  4  1  0
  5 27  1  0
  5  6  1  0
  7  1  1  0
  7  6  1  0
  9 13  1  0
 11 14  1  0
 11  9  1  0
 13 10  1  0
 14 12  1  0
 14 15  1  1
 16 20  1  0
 17 20  1  0
 18 16  1  0
 19 17  1  0
 20 14  1  0
 21 19  1  0
 21 18  1  0
 22 21  1  0
 23 21  1  0
 24 25  2  0
 25 44  1  0
 26 25  1  0
 26 29  1  0
 27 24  1  0
 27 28  1  0
 28 26  2  0
 29 30  1  0
 30 31  2  0
 32 35  1  0
 32 31  1  0
 33 32  2  0
 34 33  1  0
 34 29  2  0
 35 36  1  0
 36 37  1  0
 37 38  2  0
 39 38  1  0
 39 43  1  0
 40 39  2  0
 41 36  2  0
 41 40  1  0
 42 41  1  0
 44 45  1  0
 45 48  1  0
 45 47  1  0
 46 44  2  0
 49 50  1  0
 49 24  1  0
 51 49  1  0
 54 65  2  0
 55 53  1  0
 55 60  1  0
 56 64  1  0
 56 66  1  0
 57 59  1  0
 58 64  1  0
 59 60  2  0
 59 58  1  0
 61 55  2  0
 62 61  1  0
 62 57  2  0
 63 57  1  0
 63 56  1  0
 64 54  1  0
 66 68  2  0
 67 66  1  0
 69 67  1  0
 70 79  2  0
 70 75  1  0
 71 67  1  0
 71 75  1  0
 72 71  1  0
 73 74  1  0
 73 72  1  0
 74 70  1  0
 75 76  2  0
 76 77  1  0
 78 77  2  0
 79 78  1  0
 80 54  1  0
 80 81  1  0
 80 90  1  0
 81 84  1  0
 82 86  1  0
 82 81  1  0
 83 82  2  0
 86 85  1  0
 88 89  1  0
 88 86  1  0
 88 87  1  0
 90 93  1  1
 90 91  1  0
 92 90  1  0
M  ISO  4   1 100  13 100  52 101  53 101
M  END
>  <TORSDO>  (7) 
F 17

>  <SCORE>  (7) 
-15.658

>  <name>  (7) 
6

>  <ligand_id>  (7) 
6

>  <original_smiles>  (7) 
[H]c1c([H])c([H])c2c(c1[H])C([H])([H])C([H])([H])C([H])([H])C2([H])N([H])C(=O)C1([H])N(C(=O)C([H])(N([H])C(=O)C([H])(N([H])C([H])([H])[H])C([H])([H])[H])C(C([H])([H])[H])(C([H])([H])[H])C([H])([H])[H])C([H])([H])c2c([H])c(OC([H])([H])C3([H])C([H])([H])N(C(=O)N4C([H])([H])C([H])([H])C([H])([H])C([H])(n5nc(-c6c([H])c([H])c(Oc7c([H])c([H])c(F)c([H])c7F)c([H])c6[H])c(C(=O)N([H])[H])c5N([H])[H])C4([H])[H])C([H])([H])C([H])([H])[N+]3([H])C3([H])C([H])([H])C([H])([H])[N+]([H])([H])C([H])([H])C3([H])[H])c([H])c([H])c2C1([H])[H]

>  <smiles>  (7) 
[H]c1c([H])c([H])c2c(c1[H])C([H])([H])C([H])([H])C([H])([H])C2([H])N([H])C(=O)C1([H])N(C(=O)C([H])(N([H])C(=O)C([H])(N([H])C([H])([H])[H])C([H])([H])[H])C(C([H])([H])[H])(C([H])([H])[H])C([H])([H])[H])C([H])([H])c2c([H])c(OC([H])([H])C3([H])C([H])([H])N(C(=O)N4C([H])([H])C([H])([H])C([H])([H])C([H])(n5nc(-c6c([H])c([H])c(Oc7c([H])c([H])c(F)c([H])c7F)c([H])c6[H])c(C(=O)N([H])[H])c5N([H])[H])C4([H])[H])C([H])([H])C([H])([H])[N+]3([H])C3([H])C([H])([H])C([H])([H])[N+]([H])([H])C([H])([H])C3([H])[H])c([H])c([H])c2C1([H])[H]

$$$$
7:0:0
     RDKit          3D

 93101  0  0  1  0  0  0  0  0999 V2000
  -29.5070  -20.6610   19.4510 C   0  0  0  0  0  2  0  0  0  0  0  0
  -28.6240  -21.1540   21.7630 C   0  0  0  0  0  2  0  0  0  0  0  0
  -28.7280  -21.9720   19.1440 C   0  0  0  0  0  2  0  0  0  0  0  0
  -28.7450  -22.6830   21.5280 C   0  0  0  0  0  2  0  0  0  0  0  0
  -29.6590  -20.3390   20.9610 C   0  0  0  0  0  3  0  0  0  0  0  0
  -29.0030  -23.0760   20.1080 N   0  0  2  0  0  4  0  0  0  0  0  0
  -29.9990  -23.2420   20.0430 H   0  0  0  0  0  0  0  0  0  0  0  0
  -29.5900  -18.8800   21.2830 N   0  0  0  0  0  4  0  0  0  0  0  0
  -28.6770  -18.5130   21.0650 H   0  0  0  0  0  0  0  0  0  0  0  0
  -29.7030  -18.7940   22.2810 H   0  0  0  0  0  0  0  0  0  0  0  0
  -30.6160  -17.9940   20.6690 C   0  0  0  0  0  2  0  0  0  0  0  0
  -30.9340  -16.7480   21.5440 C   0  0  0  0  0  2  0  0  0  0  0  0
  -30.9230  -14.5830   20.2620 C   0  0  0  0  0  0  0  0  0  0  0  0
  -30.5570  -12.4960   18.9890 C   0  0  0  0  0  2  0  0  0  0  0  0
  -29.5770  -12.7440   17.8260 C   0  0  0  0  0  2  0  0  0  0  0  0
  -28.1170  -12.5990   18.2970 C   0  0  0  0  0  2  0  0  0  0  0  0
  -27.8270  -13.3950   19.5970 C   0  0  0  0  0  3  0  0  0  0  0  0
  -28.9090  -13.1140   20.6630 C   0  0  0  0  0  2  0  0  0  0  0  0
  -30.2210  -13.4320   20.0720 N   0  0  0  0  0  0  0  0  0  0  0  0
  -31.9920  -14.8240   19.6960 O   0  0  0  0  0  0  0  0  0  0  0  0
  -30.3460  -15.4840   21.0760 N   0  0  0  0  0  0  0  0  0  0  0  0
  -29.4650  -15.2060   21.4850 H   0  0  0  0  0  0  0  0  0  0  0  0
  -25.4430  -14.0030   20.3580 C   0  0  0  0  0  0  0  0  0  0  0  0
  -24.3840  -13.2290   20.7520 C   0  0  0  0  0  0  0  0  0  0  0  0
  -24.8460  -11.8780   20.7100 C   0  0  0  0  0  0  0  0  0  0  0  0
  -26.4830  -13.1220   20.1040 N   0  0  0  0  0  0  0  0  0  0  0  0
  -26.1280  -11.8390   20.3720 N   0  0  0  0  0  0  0  0  0  0  0  0
  -24.1250  -10.6160   20.9160 C   0  0  0  0  0  0  0  0  0  0  0  0
  -24.5620   -9.6630   21.8630 C   0  0  0  0  0  3  0  0  0  0  0  0
  -23.8430   -8.4640   22.0560 C   0  0  0  0  0  3  0  0  0  0  0  0
  -22.6730   -8.2090   21.3020 C   0  0  0  0  0  0  0  0  0  0  0  0
  -22.2550   -9.1510   20.3450 C   0  0  0  0  0  3  0  0  0  0  0  0
  -22.9750  -10.3410   20.1500 C   0  0  0  0  0  3  0  0  0  0  0  0
  -21.9250   -7.0610   21.4040 O   0  0  0  0  0  0  0  0  0  0  0  0
  -21.8550   -6.3480   22.5740 C   0  0  0  0  0  0  0  0  0  0  0  0
  -21.3810   -6.9270   23.7710 C   0  0  0  0  0  3  0  0  0  0  0  0
  -21.2620   -6.1390   24.9340 C   0  0  0  0  0  3  0  0  0  0  0  0
  -21.6050   -4.7740   24.9000 C   0  0  0  0  0  0  0  0  0  0  0  0
  -22.0710   -4.1950   23.7060 C   0  0  0  0  0  3  0  0  0  0  0  0
  -22.1930   -4.9800   22.5450 C   0  0  0  0  0  0  0  0  0  0  0  0
  -22.6230   -4.4130   21.3930 F   0  0  0  0  0  0  0  0  0  0  0  0
  -21.4820   -4.0150   26.0130 F   0  0  0  0  0  0  0  0  0  0  0  0
  -22.9940  -13.7060   21.0570 C   0  0  0  0  0  0  0  0  0  0  0  0
  -22.2860  -13.0080   21.9390 N   0  0  0  0  0  0  0  0  0  0  0  0
  -22.5430  -14.7310   20.5480 O   0  0  0  0  0  0  0  0  0  0  0  0
  -22.6640  -12.1780   22.3730 H   0  0  0  0  0  0  0  0  0  0  0  0
  -21.3540  -13.3080   22.1850 H   0  0  0  0  0  0  0  0  0  0  0  0
  -25.6030  -15.3730   20.1740 N   0  0  0  0  0  0  0  0  0  0  0  0
  -24.8330  -16.0230   20.2840 H   0  0  0  0  0  0  0  0  0  0  0  0
  -26.4350  -15.8040   19.7920 H   0  0  0  0  0  0  0  0  0  0  0  0
  -28.3530  -24.3640   19.6950 C   0  0  0  0  0  2  0  0  0  0  0  0
  -28.6160  -25.5690   20.6400 C   0  0  0  0  0  2  0  0  0  0  0  0
  -28.5410  -26.8490   19.9900 O   0  0  0  0  0  0  0  0  0  0  0  0
  -24.6230  -31.8710   23.1970 C   0  0  0  0  0  0  0  0  0  0  0  0
  -27.3430  -27.5260   20.0490 C   0  0  0  0  0  0  0  0  0  0  0  0
  -23.4410  -30.4810   21.5260 C   0  0  0  0  0  3  0  0  0  0  0  0
  -24.9210  -28.9850   20.0840 C   0  0  0  0  0  0  0  0  0  0  0  0
  -25.9600  -30.8820   21.3390 C   0  0  0  0  0  2  0  0  0  0  0  0
  -26.0680  -29.5220   20.6810 C   0  0  0  0  0  0  0  0  0  0  0  0
  -27.2830  -28.8010   20.6560 C   0  0  0  0  0  3  0  0  0  0  0  0
  -26.1790  -26.9980   19.4500 C   0  0  0  0  0  3  0  0  0  0  0  0
  -24.9710  -27.7220   19.4670 C   0  0  0  0  0  3  0  0  0  0  0  0
  -23.6630  -29.8250   20.1380 C   0  0  0  0  0  2  0  0  0  0  0  0
  -24.6930  -31.0920   22.0810 N   0  0  0  0  0  0  0  0  0  0  0  0
  -23.5370  -32.1180   23.7390 O   0  0  0  0  0  0  0  0  0  0  0  0
  -22.8030  -29.4350   22.4670 C   0  0  0  0  0  0  0  0  0  0  0  0
  -21.4800  -29.2370   22.3330 N   0  0  0  0  0  0  0  0  0  0  0  0
  -23.4930  -28.8040   23.2720 O   0  0  0  0  0  0  0  0  0  0  0  0
  -20.9850  -29.8010   21.6560 H   0  0  0  0  0  0  0  0  0  0  0  0
  -18.1210  -27.9960   22.8030 C   0  0  0  0  0  0  0  0  0  0  0  0
  -20.6750  -28.2750   23.0830 C   0  0  0  0  0  3  0  0  0  0  0  0
  -20.7940  -26.8580   22.4770 C   0  0  0  0  0  2  0  0  0  0  0  0
  -19.6960  -26.5450   21.4560 C   0  0  0  0  0  2  0  0  0  0  0  0
  -18.3120  -26.6610   22.1010 C   0  0  0  0  0  2  0  0  0  0  0  0
  -19.2310  -28.7590   23.2510 C   0  0  0  0  0  0  0  0  0  0  0  0
  -18.9990  -30.0090   23.8670 C   0  0  0  0  0  3  0  0  0  0  0  0
  -17.6880  -30.4930   24.0400 C   0  0  0  0  0  3  0  0  0  0  0  0
  -16.5920  -29.7260   23.6110 C   0  0  0  0  0  3  0  0  0  0  0  0
  -16.8100  -28.4780   22.9970 C   0  0  0  0  0  3  0  0  0  0  0  0
  -25.8990  -32.5090   23.8320 C   0  0  0  0  0  3  0  0  0  0  0  0
  -25.5770  -33.9010   24.1670 N   0  0  0  0  0  0  0  0  0  0  0  0
  -25.9070  -34.9600   23.4150 C   0  0  0  0  0  0  0  0  0  0  0  0
  -26.5870  -34.8670   22.3890 O   0  0  0  0  0  0  0  0  0  0  0  0
  -24.9750  -34.0480   24.9640 H   0  0  0  0  0  0  0  0  0  0  0  0
  -24.1720  -36.7430   23.0500 C   0  0  0  0  0  1  0  0  0  0  0  0
  -25.4050  -36.3420   23.8750 C   0  0  0  0  0  3  0  0  0  0  0  0
  -27.5190  -37.2380   24.7440 C   0  0  0  0  0  1  0  0  0  0  0  0
  -26.4320  -37.4030   23.7820 N   0  0  0  0  0  0  0  0  0  0  0  0
  -26.0170  -38.3190   23.9250 H   0  0  0  0  0  0  0  0  0  0  0  0
  -26.4140  -31.7320   25.1050 C   0  0  1  0  0  0  0  0  0  0  0  0
  -25.3160  -31.4740   26.1630 C   0  0  0  0  0  1  0  0  0  0  0  0
  -27.0120  -30.3640   24.7030 C   0  0  0  0  0  1  0  0  0  0  0  0
  -27.5540  -32.5300   25.7800 C   0  0  0  0  0  1  0  0  0  0  0  0
  1  5  1  0
  3  1  1  0
  3  6  1  0
  4  2  1  0
  5  8  1  0
  5  2  1  0
  6  4  1  0
  6  7  1  1
  8 10  1  0
  9  8  1  0
 11  8  1  0
 11 12  1  0
 13 21  1  0
 14 19  1  0
 15 16  1  0
 15 14  1  0
 17 16  1  0
 17 26  1  0
 17 18  1  0
 19 13  1  0
 19 18  1  0
 20 13  2  0
 21 22  1  0
 21 12  1  0
 23 24  2  0
 24 43  1  0
 25 24  1  0
 25 28  1  0
 26 23  1  0
 26 27  1  0
 27 25  2  0
 28 29  1  0
 29 30  2  0
 31 34  1  0
 31 30  1  0
 32 31  2  0
 33 32  1  0
 33 28  2  0
 34 35  1  0
 35 36  1  0
 36 37  2  0
 38 37  1  0
 38 42  1  0
 39 38  2  0
 40 35  2  0
 40 39  1  0
 41 40  1  0
 43 44  1  0
 44 47  1  0
 44 46  1  0
 45 43  2  0
 48 49  1  0
 48 23  1  0
 50 48  1  0
 51  6  1  0
 51 52  1  0
 53 55  1  0
 53 52  1  0
 54 65  2  0
 55 60  1  0
 56 64  1  0
 56 66  1  0
 57 63  1  0
 57 59  1  0
 58 64  1  0
 59 58  1  0
 60 59  2  0
 61 62  1  0
 61 55  2  0
 62 57  2  0
 63 56  1  0
 64 54  1  0
 66 68  2  0
 67 66  1  0
 69 67  1  0
 70 79  2  0
 70 75  1  0
 71 67  1  0
 71 75  1  0
 72 71  1  0
 73 74  1  0
 73 72  1  0
 74 70  1  0
 75 76  2  0
 76 77  1  0
 78 77  2  0
 79 78  1  0
 80 54  1  0
 80 81  1  0
 80 90  1  0
 81 84  1  0
 82 86  1  0
 82 81  1  0
 83 82  2  0
 86 85  1  0
 88 86  1  0
 88 89  1  0
 88 87  1  0
 90 93  1  1
 90 91  1  0
 92 90  1  0
M  ISO  4  13 100  21 100  52 101  53 101
M  END
>  <TORSDO>  (8) 
F 21

>  <SCORE>  (8) 
-13.275

>  <name>  (8) 
7

>  <ligand_id>  (8) 
7

>  <original_smiles>  (8) 
[H]c1c([H])c([H])c2c(c1[H])C([H])([H])C([H])([H])C([H])([H])C2([H])N([H])C(=O)C1([H])N(C(=O)C([H])(N([H])C(=O)C([H])(N([H])C([H])([H])[H])C([H])([H])[H])C(C([H])([H])[H])(C([H])([H])[H])C([H])([H])[H])C([H])([H])c2c([H])c(OC([H])([H])C([H])([H])[N+]3([H])C([H])([H])C([H])([H])C([H])([N+]([H])([H])C([H])([H])C([H])([H])N([H])C(=O)N4C([H])([H])C([H])([H])C([H])([H])C([H])(n5nc(-c6c([H])c([H])c(Oc7c([H])c([H])c(F)c([H])c7F)c([H])c6[H])c(C(=O)N([H])[H])c5N([H])[H])C4([H])[H])C([H])([H])C3([H])[H])c([H])c([H])c2C1([H])[H]

>  <smiles>  (8) 
[H]c1c([H])c([H])c2c(c1[H])C([H])([H])C([H])([H])C([H])([H])C2([H])N([H])C(=O)C1([H])N(C(=O)C([H])(N([H])C(=O)C([H])(N([H])C([H])([H])[H])C([H])([H])[H])C(C([H])([H])[H])(C([H])([H])[H])C([H])([H])[H])C([H])([H])c2c([H])c(OC([H])([H])C([H])([H])[N+]3([H])C([H])([H])C([H])([H])C([H])([N+]([H])([H])C([H])([H])C([H])([H])N([H])C(=O)N4C([H])([H])C([H])([H])C([H])([H])C([H])(n5nc(-c6c([H])c([H])c(Oc7c([H])c([H])c(F)c([H])c7F)c([H])c6[H])c(C(=O)N([H])[H])c5N([H])[H])C4([H])[H])C([H])([H])C3([H])[H])c([H])c([H])c2C1([H])[H]

$$$$
8:0:0
     RDKit          3D

 92100  0  0  1  0  0  0  0  0999 V2000
  -28.4970  -22.0430   21.1170 C   0  0  0  0  0  2  0  0  0  0  0  0
  -28.8940  -23.1690   20.2400 N   0  0  0  0  0  4  0  0  0  0  0  0
  -28.7150  -22.9030   19.2820 H   0  0  0  0  0  0  0  0  0  0  0  0
  -29.8880  -23.3070   20.3320 H   0  0  0  0  0  0  0  0  0  0  0  0
  -28.2170  -24.4630   20.4960 C   0  0  0  0  0  2  0  0  0  0  0  0
  -28.6500  -25.5170   19.4530 C   0  0  0  0  0  2  0  0  0  0  0  0
  -28.5370  -26.8510   19.9380 O   0  0  0  0  0  0  0  0  0  0  0  0
  -24.7620  -31.8730   23.1780 C   0  0  0  0  0  0  0  0  0  0  0  0
  -27.3200  -27.4960   19.9610 C   0  0  0  0  0  0  0  0  0  0  0  0
  -23.5030  -30.4870   21.5590 C   0  0  0  0  0  3  0  0  0  0  0  0
  -24.9120  -28.9680   20.0720 C   0  0  0  0  0  0  0  0  0  0  0  0
  -26.0140  -30.8660   21.2730 C   0  0  0  0  0  2  0  0  0  0  0  0
  -26.0830  -29.5010   20.6230 C   0  0  0  0  0  0  0  0  0  0  0  0
  -27.2850  -28.7680   20.5670 C   0  0  0  0  0  3  0  0  0  0  0  0
  -26.1290  -26.9660   19.4110 C   0  0  0  0  0  3  0  0  0  0  0  0
  -24.9270  -27.6980   19.4690 C   0  0  0  0  0  3  0  0  0  0  0  0
  -23.6680  -29.8220   20.1650 C   0  0  0  0  0  2  0  0  0  0  0  0
  -24.7800  -31.0870   22.0640 N   0  0  0  0  0  0  0  0  0  0  0  0
  -23.7000  -32.1340   23.7590 O   0  0  0  0  0  0  0  0  0  0  0  0
  -22.8900  -29.4510   22.5280 C   0  0  0  0  0  0  0  0  0  0  0  0
  -21.5690  -29.2390   22.4150 N   0  0  0  0  0  0  0  0  0  0  0  0
  -23.5970  -28.8440   23.3360 O   0  0  0  0  0  0  0  0  0  0  0  0
  -21.0580  -29.7830   21.7350 H   0  0  0  0  0  0  0  0  0  0  0  0
  -18.2360  -27.9400   22.9120 C   0  0  0  0  0  0  0  0  0  0  0  0
  -20.7820  -28.2840   23.1940 C   0  0  0  0  0  3  0  0  0  0  0  0
  -20.9350  -26.8510   22.6350 C   0  0  0  0  0  2  0  0  0  0  0  0
  -19.8500  -26.4790   21.6210 C   0  0  0  0  0  2  0  0  0  0  0  0
  -18.4600  -26.5880   22.2560 C   0  0  0  0  0  2  0  0  0  0  0  0
  -19.3270  -28.7430   23.3380 C   0  0  0  0  0  0  0  0  0  0  0  0
  -19.0650  -30.0070   23.9100 C   0  0  0  0  0  3  0  0  0  0  0  0
  -17.7450  -30.4690   24.0610 C   0  0  0  0  0  3  0  0  0  0  0  0
  -16.6680  -29.6640   23.6530 C   0  0  0  0  0  3  0  0  0  0  0  0
  -16.9150  -28.4010   23.0840 C   0  0  0  0  0  3  0  0  0  0  0  0
  -26.0680  -32.4990   23.7600 C   0  0  0  0  0  3  0  0  0  0  0  0
  -25.7660  -33.8890   24.1300 N   0  0  0  0  0  0  0  0  0  0  0  0
  -26.0670  -34.9560   23.3810 C   0  0  0  0  0  0  0  0  0  0  0  0
  -26.7010  -34.8770   22.3240 O   0  0  0  0  0  0  0  0  0  0  0  0
  -25.2000  -34.0240   24.9550 H   0  0  0  0  0  0  0  0  0  0  0  0
  -24.3180  -36.7440   23.1210 C   0  0  0  0  0  1  0  0  0  0  0  0
  -25.5880  -36.3320   23.8820 C   0  0  0  0  0  3  0  0  0  0  0  0
  -27.7440  -37.2120   24.6580 C   0  0  0  0  0  1  0  0  0  0  0  0
  -26.6100  -37.3930   23.7550 N   0  0  0  0  0  0  0  0  0  0  0  0
  -26.2040  -38.3070   23.9370 H   0  0  0  0  0  0  0  0  0  0  0  0
  -26.6410  -31.7050   24.9970 C   0  0  1  0  0  0  0  0  0  0  0  0
  -25.5890  -31.4160   26.0920 C   0  0  0  0  0  1  0  0  0  0  0  0
  -27.2370  -30.3520   24.5420 C   0  0  0  0  0  1  0  0  0  0  0  0
  -27.7950  -32.5030   25.6470 C   0  0  0  0  0  1  0  0  0  0  0  0
  -29.2950  -20.7730   20.7550 C   0  0  0  0  0  2  0  0  0  0  0  0
  -28.8840  -19.4930   21.5250 C   0  0  0  0  0  2  0  0  0  0  0  0
  -30.9020  -14.4900   19.6700 C   0  0  0  0  0  0  0  0  0  0  0  0
  -30.4350  -12.3790   18.4920 C   0  0  0  0  0  2  0  0  0  0  0  0
  -29.3460  -12.6310   17.4290 C   0  0  0  0  0  2  0  0  0  0  0  0
  -27.9380  -12.4880   18.0410 C   0  0  0  0  0  2  0  0  0  0  0  0
  -27.7750  -13.2700   19.3720 C   0  0  0  0  0  3  0  0  0  0  0  0
  -28.9670  -13.0160   20.3220 C   0  0  0  0  0  2  0  0  0  0  0  0
  -30.2030  -13.3270   19.5900 N   0  0  0  0  0  0  0  0  0  0  0  0
  -31.9630  -14.6760   19.0630 O   0  0  0  0  0  0  0  0  0  0  0  0
  -29.9870  -16.6400   19.2120 C   0  0  0  0  0  2  0  0  0  0  0  0
  -30.5320  -15.9830   21.5430 C   0  0  0  0  0  2  0  0  0  0  0  0
  -29.0980  -17.7650   19.7550 C   0  0  0  0  0  2  0  0  0  0  0  0
  -29.6870  -17.1840   22.0430 C   0  0  0  0  0  2  0  0  0  0  0  0
  -30.2180  -15.5460   20.1710 N   0  0  0  0  0  0  0  0  0  0  0  0
  -29.6120  -18.2800   21.0450 N   0  0  2  0  0  4  0  0  0  0  0  0
  -30.5670  -18.5680   20.8940 H   0  0  0  0  0  0  0  0  0  0  0  0
  -25.5190  -13.8430   20.4680 C   0  0  0  0  0  0  0  0  0  0  0  0
  -24.4990  -13.0560   20.9300 C   0  0  0  0  0  0  0  0  0  0  0  0
  -24.9200  -11.7060   20.7240 C   0  0  0  0  0  0  0  0  0  0  0  0
  -26.5000  -12.9720   20.0200 N   0  0  0  0  0  0  0  0  0  0  0  0
  -26.1510  -11.6760   20.2290 N   0  0  0  0  0  0  0  0  0  0  0  0
  -24.2000  -10.4400   20.9180 C   0  0  0  0  0  0  0  0  0  0  0  0
  -24.6630   -9.4590   21.8220 C   0  0  0  0  0  3  0  0  0  0  0  0
  -23.9450   -8.2580   22.0050 C   0  0  0  0  0  3  0  0  0  0  0  0
  -22.7490   -8.0290   21.2840 C   0  0  0  0  0  0  0  0  0  0  0  0
  -22.3040   -8.9990   20.3700 C   0  0  0  0  0  3  0  0  0  0  0  0
  -23.0220  -10.1920   20.1840 C   0  0  0  0  0  3  0  0  0  0  0  0
  -21.9990   -6.8820   21.3790 O   0  0  0  0  0  0  0  0  0  0  0  0
  -21.8770   -6.1970   22.5590 C   0  0  0  0  0  0  0  0  0  0  0  0
  -21.3670   -6.8060   23.7270 C   0  0  0  0  0  3  0  0  0  0  0  0
  -21.1940   -6.0460   24.9010 C   0  0  0  0  0  3  0  0  0  0  0  0
  -21.5220   -4.6770   24.9070 C   0  0  0  0  0  0  0  0  0  0  0  0
  -22.0260   -4.0670   23.7450 C   0  0  0  0  0  3  0  0  0  0  0  0
  -22.2000   -4.8240   22.5750 C   0  0  0  0  0  0  0  0  0  0  0  0
  -22.6650   -4.2270   21.4500 F   0  0  0  0  0  0  0  0  0  0  0  0
  -21.3500   -3.9430   26.0320 F   0  0  0  0  0  0  0  0  0  0  0  0
  -23.1680  -13.5240   21.4400 C   0  0  0  0  0  0  0  0  0  0  0  0
  -22.5730  -12.7900   22.3750 N   0  0  0  0  0  0  0  0  0  0  0  0
  -22.6680  -14.5770   21.0460 O   0  0  0  0  0  0  0  0  0  0  0  0
  -22.9920  -11.9350   22.7130 H   0  0  0  0  0  0  0  0  0  0  0  0
  -21.6840  -13.0820   22.7520 H   0  0  0  0  0  0  0  0  0  0  0  0
  -25.6890  -15.2210   20.3720 N   0  0  0  0  0  0  0  0  0  0  0  0
  -24.9490  -15.8720   20.6100 H   0  0  0  0  0  0  0  0  0  0  0  0
  -26.4610  -15.6580   19.8860 H   0  0  0  0  0  0  0  0  0  0  0  0
  2  4  1  0
  2  5  1  0
  2  1  1  0
  3  2  1  0
  6  7  1  0
  6  5  1  0
  7  9  1  0
  8 19  2  0
  9 14  1  0
 10 18  1  0
 10 20  1  0
 11 17  1  0
 11 13  1  0
 12 18  1  0
 13 12  1  0
 14 13  2  0
 15 16  1  0
 15  9  2  0
 16 11  2  0
 17 10  1  0
 18  8  1  0
 20 22  2  0
 21 20  1  0
 23 21  1  0
 24 33  2  0
 24 29  1  0
 25 21  1  0
 25 29  1  0
 26 25  1  0
 27 28  1  0
 27 26  1  0
 28 24  1  0
 29 30  2  0
 30 31  1  0
 32 31  2  0
 33 32  1  0
 34  8  1  0
 34 35  1  0
 34 44  1  0
 35 38  1  0
 36 40  1  0
 36 35  1  0
 37 36  2  0
 40 39  1  0
 42 40  1  0
 42 43  1  0
 42 41  1  0
 44 47  1  1
 44 45  1  0
 46 44  1  0
 48  1  1  0
 48 49  1  0
 50 62  1  0
 51 56  1  0
 52 53  1  0
 52 51  1  0
 54 53  1  0
 54 68  1  0
 54 55  1  0
 56 50  1  0
 56 55  1  0
 57 50  2  0
 58 60  1  0
 58 62  1  0
 59 61  1  0
 60 63  1  0
 62 59  1  0
 63 49  1  0
 63 61  1  0
 63 64  1  6
 65 66  2  0
 66 85  1  0
 67 70  1  0
 67 66  1  0
 68 69  1  0
 68 65  1  0
 69 67  2  0
 70 71  1  0
 71 72  2  0
 73 76  1  0
 73 72  1  0
 74 73  2  0
 75 74  1  0
 75 70  2  0
 76 77  1  0
 77 82  2  0
 77 78  1  0
 78 79  2  0
 79 80  1  0
 80 84  1  0
 81 80  2  0
 82 81  1  0
 83 82  1  0
 85 86  1  0
 86 88  1  0
 86 89  1  0
 87 85  2  0
 90 65  1  0
 90 91  1  0
 92 90  1  0
M  ISO  4   6 101   7 101  50 100  62 100
M  END
>  <TORSDO>  (9) 
F 21

>  <SCORE>  (9) 
-11.405

>  <name>  (9) 
8

>  <ligand_id>  (9) 
8

>  <original_smiles>  (9) 
[H]c1c([H])c([H])c2c(c1[H])C([H])([H])C([H])([H])C([H])([H])C2([H])N([H])C(=O)C1([H])N(C(=O)C([H])(N([H])C(=O)C([H])(N([H])C([H])([H])[H])C([H])([H])[H])C(C([H])([H])[H])(C([H])([H])[H])C([H])([H])[H])C([H])([H])c2c([H])c(OC([H])([H])C([H])([H])[N+]([H])([H])C([H])([H])C([H])([H])C([H])([H])[N+]3([H])C([H])([H])C([H])([H])N(C(=O)N4C([H])([H])C([H])([H])C([H])([H])C([H])(n5nc(-c6c([H])c([H])c(Oc7c([H])c([H])c(F)c([H])c7F)c([H])c6[H])c(C(=O)N([H])[H])c5N([H])[H])C4([H])[H])C([H])([H])C3([H])[H])c([H])c([H])c2C1([H])[H]

>  <smiles>  (9) 
[H]c1c([H])c([H])c2c(c1[H])C([H])([H])C([H])([H])C([H])([H])C2([H])N([H])C(=O)C1([H])N(C(=O)C([H])(N([H])C(=O)C([H])(N([H])C([H])([H])[H])C([H])([H])[H])C(C([H])([H])[H])(C([H])([H])[H])C([H])([H])[H])C([H])([H])c2c([H])c(OC([H])([H])C([H])([H])[N+]([H])([H])C([H])([H])C([H])([H])C([H])([H])[N+]3([H])C([H])([H])C([H])([H])N(C(=O)N4C([H])([H])C([H])([H])C([H])([H])C([H])(n5nc(-c6c([H])c([H])c(Oc7c([H])c([H])c(F)c([H])c7F)c([H])c6[H])c(C(=O)N([H])[H])c5N([H])[H])C4([H])[H])C([H])([H])C3([H])[H])c([H])c([H])c2C1([H])[H]

$$$$
9:0:0
     RDKit          3D

 98107  0  0  1  0  0  0  0  0999 V2000
  -26.3080  -21.6200   18.5950 C   0  0  0  0  0  2  0  0  0  0  0  0
  -26.8840  -23.2590   20.3910 C   0  0  0  0  0  2  0  0  0  0  0  0
  -26.1570  -22.8770   17.7010 C   0  0  0  0  0  2  0  0  0  0  0  0
  -27.2270  -24.3780   19.3950 C   0  0  0  0  0  2  0  0  0  0  0  0
  -27.1600  -21.8390   19.8650 C   0  0  0  0  0  3  0  0  0  0  0  0
  -27.1540  -23.9570   17.9630 N   0  0  2  0  0  4  0  0  0  0  0  0
  -28.0540  -23.5420   17.7880 H   0  0  0  0  0  0  0  0  0  0  0  0
  -31.0630  -21.7250   20.4130 C   0  0  0  0  0  2  0  0  0  0  0  0
  -29.7150  -22.4010   20.0780 C   0  0  0  0  0  2  0  0  0  0  0  0
  -31.2000  -20.2970   19.8350 C   0  0  0  0  0  2  0  0  0  0  0  0
  -29.0770  -20.5140   18.5200 C   0  0  0  0  0  2  0  0  0  0  0  0
  -28.6420  -21.3360   19.7750 C   0  0  0  0  0  3  0  0  0  0  0  0
  -30.5320  -20.1740   18.5130 N   0  0  2  0  0  4  0  0  0  0  0  0
  -30.9600  -20.9150   17.9720 H   0  0  0  0  0  0  0  0  0  0  0  0
  -30.8870  -18.9400   17.7510 C   0  0  0  0  0  2  0  0  0  0  0  0
  -30.5730  -17.5990   18.4600 C   0  0  0  0  0  2  0  0  0  0  0  0
  -31.7070  -16.5590   18.3000 C   0  0  0  0  0  2  0  0  0  0  0  0
  -32.3370  -14.3920   19.4450 C   0  0  0  0  0  0  0  0  0  0  0  0
  -32.2600  -12.0250   20.1580 C   0  0  0  0  0  2  0  0  0  0  0  0
  -31.4200  -11.1900   19.1680 C   0  0  0  0  0  2  0  0  0  0  0  0
  -29.9100  -11.2860   19.4740 C   0  0  0  0  0  2  0  0  0  0  0  0
  -29.4370  -12.7500   19.6930 C   0  0  0  0  0  3  0  0  0  0  0  0
  -30.3730  -13.4460   20.7010 C   0  0  0  0  0  2  0  0  0  0  0  0
  -31.7430  -13.4010   20.1580 N   0  0  0  0  0  0  0  0  0  0  0  0
  -33.4590  -14.2990   18.9380 O   0  0  0  0  0  0  0  0  0  0  0  0
  -31.5410  -15.4600   19.2550 N   0  0  0  0  0  0  0  0  0  0  0  0
  -30.6790  -15.4560   19.7780 H   0  0  0  0  0  0  0  0  0  0  0  0
  -27.2200  -13.9100   20.3140 C   0  0  0  0  0  0  0  0  0  0  0  0
  -25.9940  -13.4110   20.6570 C   0  0  0  0  0  0  0  0  0  0  0  0
  -26.1310  -11.9880   20.6460 C   0  0  0  0  0  0  0  0  0  0  0  0
  -28.0420  -12.8110   20.1240 N   0  0  0  0  0  0  0  0  0  0  0  0
  -27.3850  -11.6500   20.3720 N   0  0  0  0  0  0  0  0  0  0  0  0
  -25.1330  -10.9270   20.8190 C   0  0  0  0  0  0  0  0  0  0  0  0
  -25.3120   -9.8900   21.7610 C   0  0  0  0  0  3  0  0  0  0  0  0
  -24.3300   -8.8900   21.9200 C   0  0  0  0  0  3  0  0  0  0  0  0
  -23.1500   -8.9210   21.1380 C   0  0  0  0  0  0  0  0  0  0  0  0
  -22.9860   -9.9440   20.1860 C   0  0  0  0  0  3  0  0  0  0  0  0
  -23.9670  -10.9370   20.0260 C   0  0  0  0  0  3  0  0  0  0  0  0
  -22.1530   -7.9780   21.2080 O   0  0  0  0  0  0  0  0  0  0  0  0
  -21.9130   -7.2680   22.3580 C   0  0  0  0  0  0  0  0  0  0  0  0
  -21.5720   -7.9060   23.5700 C   0  0  0  0  0  3  0  0  0  0  0  0
  -21.2650   -7.1350   24.7090 C   0  0  0  0  0  3  0  0  0  0  0  0
  -21.2890   -5.7290   24.6340 C   0  0  0  0  0  0  0  0  0  0  0  0
  -21.6250   -5.0940   23.4260 C   0  0  0  0  0  3  0  0  0  0  0  0
  -21.9330   -5.8620   22.2910 C   0  0  0  0  0  0  0  0  0  0  0  0
  -22.2340   -5.2420   21.1230 F   0  0  0  0  0  0  0  0  0  0  0  0
  -20.9880   -4.9880   25.7260 F   0  0  0  0  0  0  0  0  0  0  0  0
  -24.7330  -14.1960   20.8900 C   0  0  0  0  0  0  0  0  0  0  0  0
  -23.8590  -13.7130   21.7620 N   0  0  0  0  0  0  0  0  0  0  0  0
  -24.5430  -15.2750   20.3250 O   0  0  0  0  0  0  0  0  0  0  0  0
  -24.0250  -12.8390   22.2410 H   0  0  0  0  0  0  0  0  0  0  0  0
  -23.0090  -14.2240   21.9580 H   0  0  0  0  0  0  0  0  0  0  0  0
  -27.7020  -15.2050   20.1390 N   0  0  0  0  0  0  0  0  0  0  0  0
  -27.0920  -16.0110   20.1990 H   0  0  0  0  0  0  0  0  0  0  0  0
  -28.6230  -15.4260   19.7850 H   0  0  0  0  0  0  0  0  0  0  0  0
  -27.0340  -25.0510   16.9430 C   0  0  0  0  0  2  0  0  0  0  0  0
  -28.0060  -26.2600   17.0520 C   0  0  0  0  0  2  0  0  0  0  0  0
  -27.4180  -27.4610   16.5370 O   0  0  0  0  0  0  0  0  0  0  0  0
  -25.7190  -28.6570   23.3200 C   0  0  0  0  0  0  0  0  0  0  0  0
  -26.5300  -28.0520   17.4010 C   0  0  0  0  0  0  0  0  0  0  0  0
  -23.9690  -29.1180   21.6610 C   0  0  0  0  0  3  0  0  0  0  0  0
  -24.6950  -29.1550   19.2260 C   0  0  0  0  0  0  0  0  0  0  0  0
  -26.4310  -29.3170   21.0210 C   0  0  0  0  0  2  0  0  0  0  0  0
  -26.0260  -28.9490   19.6100 C   0  0  0  0  0  0  0  0  0  0  0  0
  -26.9530  -28.4150   18.6930 C   0  0  0  0  0  3  0  0  0  0  0  0
  -25.1860  -28.2840   17.0230 C   0  0  0  0  0  3  0  0  0  0  0  0
  -24.2680  -28.8220   17.9340 C   0  0  0  0  0  3  0  0  0  0  0  0
  -23.7650  -29.7430   20.2570 C   0  0  0  0  0  2  0  0  0  0  0  0
  -25.4040  -28.9950   22.0400 N   0  0  0  0  0  0  0  0  0  0  0  0
  -24.8400  -28.4950   24.1800 O   0  0  0  0  0  0  0  0  0  0  0  0
  -23.2040  -27.7790   21.7230 C   0  0  0  0  0  0  0  0  0  0  0  0
  -21.8890  -27.9410   21.6480 N   0  0  0  0  0  0  0  0  0  0  0  0
  -23.7730  -26.6880   21.7920 O   0  0  0  0  0  0  0  0  0  0  0  0
  -21.5900  -28.9070   21.6750 H   0  0  0  0  0  0  0  0  0  0  0  0
  -18.3560  -27.0260   20.8460 C   0  0  0  0  0  0  0  0  0  0  0  0
  -20.8220  -27.0330   21.3150 C   0  0  0  0  0  3  0  0  0  0  0  0
  -21.0310  -25.8450   20.3710 C   0  0  0  0  0  2  0  0  0  0  0  0
  -20.0750  -26.0040   19.1710 C   0  0  0  0  0  2  0  0  0  0  0  0
  -18.5960  -26.1800   19.5920 C   0  0  0  0  0  2  0  0  0  0  0  0
  -19.4090  -27.3500   21.7370 C   0  0  0  0  0  0  0  0  0  0  0  0
  -19.1620  -28.1270   22.8850 C   0  0  0  0  0  3  0  0  0  0  0  0
  -17.8690  -28.6320   23.1220 C   0  0  0  0  0  3  0  0  0  0  0  0
  -16.8250  -28.3410   22.2250 C   0  0  0  0  0  3  0  0  0  0  0  0
  -17.0640  -27.5280   21.1000 C   0  0  0  0  0  3  0  0  0  0  0  0
  -27.2000  -28.4770   23.7670 C   0  0  0  0  0  3  0  0  0  0  0  0
  -27.2990  -28.9620   25.1480 N   0  0  0  0  0  0  0  0  0  0  0  0
  -27.9370  -30.0800   25.5150 C   0  0  0  0  0  0  0  0  0  0  0  0
  -28.5730  -30.7800   24.7200 O   0  0  0  0  0  0  0  0  0  0  0  0
  -26.7480  -28.4750   25.8380 H   0  0  0  0  0  0  0  0  0  0  0  0
  -26.9020  -31.6760   27.1590 C   0  0  0  0  0  1  0  0  0  0  0  0
  -27.8620  -30.4860   26.9980 C   0  0  0  0  0  3  0  0  0  0  0  0
  -30.0560  -29.6660   27.7260 C   0  0  0  0  0  1  0  0  0  0  0  0
  -29.1770  -30.8230   27.5830 N   0  0  0  0  0  0  0  0  0  0  0  0
  -29.0630  -31.2520   28.4980 H   0  0  0  0  0  0  0  0  0  0  0  0
  -27.7010  -26.9870   23.6510 C   0  0  1  0  0  0  0  0  0  0  0  0
  -26.7690  -25.9610   24.3390 C   0  0  0  0  0  1  0  0  0  0  0  0
  -27.8460  -26.5720   22.1690 C   0  0  0  0  0  1  0  0  0  0  0  0
  -29.1050  -26.8630   24.2870 C   0  0  0  0  0  1  0  0  0  0  0  0
  3  6  1  0
  3  1  1  0
  4  2  1  0
  5  1  1  0
  5  2  1  0
  6  4  1  0
  6  7  1  6
  9  8  1  0
 10  8  1  0
 12 11  1  0
 12  5  1  0
 12  9  1  0
 13 11  1  0
 13 10  1  0
 13 14  1  6
 15 16  1  0
 15 13  1  0
 17 16  1  0
 17 26  1  0
 18 24  1  0
 20 21  1  0
 20 19  1  0
 22 21  1  0
 22 31  1  0
 22 23  1  0
 24 19  1  0
 24 23  1  0
 25 18  2  0
 26 18  1  0
 26 27  1  0
 28 29  2  0
 29 48  1  0
 30 29  1  0
 30 33  1  0
 31 28  1  0
 31 32  1  0
 32 30  2  0
 33 34  1  0
 34 35  2  0
 36 39  1  0
 36 35  1  0
 37 36  2  0
 38 37  1  0
 38 33  2  0
 39 40  1  0
 40 41  1  0
 41 42  2  0
 43 42  1  0
 43 47  1  0
 44 43  2  0
 45 40  2  0
 45 44  1  0
 46 45  1  0
 48 49  1  0
 49 52  1  0
 49 51  1  0
 50 48  2  0
 53 54  1  0
 53 28  1  0
 55 53  1  0
 56 57  1  0
 56  6  1  0
 58 57  1  0
 58 60  1  0
 59 70  2  0
 60 65  1  0
 61 71  1  0
 61 69  1  0
 62 64  1  0
 62 68  1  0
 63 69  1  0
 64 63  1  0
 65 64  2  0
 66 60  2  0
 66 67  1  0
 67 62  2  0
 68 61  1  0
 69 59  1  0
 71 73  2  0
 72 74  1  0
 72 71  1  0
 75 84  2  0
 75 80  1  0
 76 72  1  0
 76 80  1  0
 77 76  1  0
 78 79  1  0
 78 77  1  0
 79 75  1  0
 80 81  2  0
 81 82  1  0
 83 82  2  0
 84 83  1  0
 85 59  1  0
 85 86  1  0
 86 87  1  0
 86 89  1  0
 87 91  1  0
 88 87  2  0
 91 90  1  0
 91 93  1  0
 93 92  1  0
 93 94  1  0
 95 85  1  0
 95 98  1  1
 95 96  1  0
 97 95  1  0
M  ISO  4  18 100  26 100  57 101  58 101
M  END
>  <TORSDO>  (10) 
F 22

>  <SCORE>  (10) 
-9.250

>  <name>  (10) 
9

>  <ligand_id>  (10) 
9

>  <original_smiles>  (10) 
[H]c1c([H])c([H])c2c(c1[H])C([H])([H])C([H])([H])C([H])([H])C2([H])N([H])C(=O)C1([H])N(C(=O)C([H])(N([H])C(=O)C([H])(N([H])C([H])([H])[H])C([H])([H])[H])C(C([H])([H])[H])(C([H])([H])[H])C([H])([H])[H])C([H])([H])c2c([H])c(OC([H])([H])C([H])([H])[N+]3([H])C([H])([H])C([H])([H])C([H])(C4([H])C([H])([H])C([H])([H])C([H])([H])[N+]([H])(C([H])([H])C([H])([H])C([H])([H])N([H])C(=O)N5C([H])([H])C([H])([H])C([H])([H])C([H])(n6nc(-c7c([H])c([H])c(Oc8c([H])c([H])c(F)c([H])c8F)c([H])c7[H])c(C(=O)N([H])[H])c6N([H])[H])C5([H])[H])C4([H])[H])C([H])([H])C3([H])[H])c([H])c([H])c2C1([H])[H]

>  <smiles>  (10) 
[H]c1c([H])c([H])c2c(c1[H])C([H])([H])C([H])([H])C([H])([H])C2([H])N([H])C(=O)C1([H])N(C(=O)C([H])(N([H])C(=O)C([H])(N([H])C([H])([H])[H])C([H])([H])[H])C(C([H])([H])[H])(C([H])([H])[H])C([H])([H])[H])C([H])([H])c2c([H])c(OC([H])([H])C([H])([H])[N+]3([H])C([H])([H])C([H])([H])C([H])(C4([H])C([H])([H])C([H])([H])C([H])([H])[N+]([H])(C([H])([H])C([H])([H])C([H])([H])N([H])C(=O)N5C([H])([H])C([H])([H])C([H])([H])C([H])(n6nc(-c7c([H])c([H])c(Oc8c([H])c([H])c(F)c([H])c8F)c([H])c7[H])c(C(=O)N([H])[H])c6N([H])[H])C5([H])[H])C4([H])[H])C([H])([H])C3([H])[H])c([H])c([H])c2C1([H])[H]

$$$$
10:0:0
     RDKit          3D

 93101  0  0  1  0  0  0  0  0999 V2000
  -29.6130  -20.4810   20.7110 N   0  0  1  0  0  4  0  0  0  0  0  0
  -29.7980  -20.6220   21.6940 H   0  0  0  0  0  0  0  0  0  0  0  0
  -30.9710  -20.7940   20.2000 C   0  0  0  0  0  2  0  0  0  0  0  0
  -34.7730  -20.4330   22.4770 C   0  0  0  0  0  2  0  0  0  0  0  0
  -34.4910  -19.4350   21.3450 C   0  0  0  0  0  2  0  0  0  0  0  0
  -33.4900  -20.7440   23.2580 C   0  0  0  0  0  2  0  0  0  0  0  0
  -33.3860  -19.9550   20.4070 C   0  0  0  0  0  2  0  0  0  0  0  0
  -32.3790  -21.2640   22.3270 C   0  0  0  0  0  2  0  0  0  0  0  0
  -32.0780  -20.2790   21.1650 C   0  0  0  0  0  3  0  0  0  0  0  0
  -28.5360  -21.6390   20.5250 C   0  0  0  0  0  2  0  0  0  0  0  0
  -28.8040  -23.2870   20.8280 C   0  0  0  0  0  3  0  0  0  0  0  0
  -27.7860  -24.5640   20.4010 C   0  0  0  0  0  3  0  0  0  0  0  0
  -28.0210  -26.1050   20.5300 O   0  0  0  0  0  0  0  0  0  0  0  0
  -24.6540  -32.0200   23.3020 C   0  0  0  0  0  0  0  0  0  0  0  0
  -27.0040  -27.1200   20.3910 C   0  0  0  0  0  0  0  0  0  0  0  0
  -23.3800  -30.6220   21.7200 C   0  0  0  0  0  3  0  0  0  0  0  0
  -24.7480  -28.9550   20.3190 C   0  0  0  0  0  0  0  0  0  0  0  0
  -25.9390  -30.7840   21.5150 C   0  0  0  0  0  2  0  0  0  0  0  0
  -25.9480  -29.3720   20.9090 C   0  0  0  0  0  0  0  0  0  0  0  0
  -27.0740  -28.4670   20.9320 C   0  0  0  0  0  3  0  0  0  0  0  0
  -25.7870  -26.8160   19.7370 C   0  0  0  0  0  3  0  0  0  0  0  0
  -24.6830  -27.6920   19.7150 C   0  0  0  0  0  3  0  0  0  0  0  0
  -23.5580  -29.8990   20.3580 C   0  0  0  0  0  2  0  0  0  0  0  0
  -24.6800  -31.1660   22.2340 N   0  0  0  0  0  0  0  0  0  0  0  0
  -23.5870  -32.3590   23.8350 O   0  0  0  0  0  0  0  0  0  0  0  0
  -22.6800  -29.6690   22.7220 C   0  0  0  0  0  0  0  0  0  0  0  0
  -21.3570  -29.4810   22.5690 N   0  0  0  0  0  0  0  0  0  0  0  0
  -23.3320  -29.1000   23.6020 O   0  0  0  0  0  0  0  0  0  0  0  0
  -20.8890  -29.9950   21.8360 H   0  0  0  0  0  0  0  0  0  0  0  0
  -17.9720  -28.2710   23.0170 C   0  0  0  0  0  0  0  0  0  0  0  0
  -20.5160  -28.5860   23.3680 C   0  0  0  0  0  3  0  0  0  0  0  0
  -20.6550  -27.1190   22.8990 C   0  0  0  0  0  2  0  0  0  0  0  0
  -19.6000  -26.7130   21.8660 C   0  0  0  0  0  2  0  0  0  0  0  0
  -18.1910  -26.8830   22.4420 C   0  0  0  0  0  2  0  0  0  0  0  0
  -19.0630  -29.0790   23.4370 C   0  0  0  0  0  0  0  0  0  0  0  0
  -18.8050  -30.3750   23.9320 C   0  0  0  0  0  3  0  0  0  0  0  0
  -17.4880  -30.8640   24.0150 C   0  0  0  0  0  3  0  0  0  0  0  0
  -16.4110  -30.0560   23.6100 C   0  0  0  0  0  3  0  0  0  0  0  0
  -16.6540  -28.7630   23.1160 C   0  0  0  0  0  3  0  0  0  0  0  0
  -25.9640  -32.6250   23.8930 C   0  0  0  0  0  3  0  0  0  0  0  0
  -25.6760  -34.0130   24.2860 N   0  0  0  0  0  0  0  0  0  0  0  0
  -25.9780  -35.0950   23.5560 C   0  0  0  0  0  0  0  0  0  0  0  0
  -26.5950  -35.0270   22.4890 O   0  0  0  0  0  0  0  0  0  0  0  0
  -25.1230  -34.1390   25.1220 H   0  0  0  0  0  0  0  0  0  0  0  0
  -24.2420  -36.9080   23.3710 C   0  0  0  0  0  1  0  0  0  0  0  0
  -25.5260  -36.4670   24.0920 C   0  0  0  0  0  3  0  0  0  0  0  0
  -27.7080  -37.3210   24.8310 C   0  0  0  0  0  1  0  0  0  0  0  0
  -26.5540  -37.5210   23.9580 N   0  0  0  0  0  0  0  0  0  0  0  0
  -26.1600  -38.4360   24.1570 H   0  0  0  0  0  0  0  0  0  0  0  0
  -26.5190  -31.8110   25.1250 C   0  0  1  0  0  0  0  0  0  0  0  0
  -25.4580  -31.5160   26.2110 C   0  0  0  0  0  1  0  0  0  0  0  0
  -27.1090  -30.4590   24.6650 C   0  0  0  0  0  1  0  0  0  0  0  0
  -27.6760  -32.5920   25.7890 C   0  0  0  0  0  1  0  0  0  0  0  0
  -29.2570  -18.9230   20.7640 C   0  0  0  0  0  3  0  0  0  0  0  0
  -30.3710  -17.6550   20.8420 C   0  0  0  0  0  3  0  0  0  0  0  0
  -30.8600  -14.9630   20.3670 C   0  0  0  0  0  0  0  0  0  0  0  0
  -30.7160  -12.6340   19.3760 C   0  0  0  0  0  2  0  0  0  0  0  0
  -29.7850  -12.6170   18.1420 C   0  0  0  0  0  2  0  0  0  0  0  0
  -28.3150  -12.4320   18.5650 C   0  0  0  0  0  2  0  0  0  0  0  0
  -27.9190  -13.3540   19.7470 C   0  0  0  0  0  3  0  0  0  0  0  0
  -28.9640  -13.3230   20.8790 C   0  0  0  0  0  2  0  0  0  0  0  0
  -30.2460  -13.7180   20.2810 N   0  0  0  0  0  0  0  0  0  0  0  0
  -32.0720  -15.0250   20.1360 O   0  0  0  0  0  0  0  0  0  0  0  0
  -30.0760  -16.1350   20.5190 N   0  0  0  0  0  0  0  0  0  0  0  0
  -29.0940  -15.9160   20.5670 H   0  0  0  0  0  0  0  0  0  0  0  0
  -25.5400  -13.9730   20.4570 C   0  0  0  0  0  0  0  0  0  0  0  0
  -24.4600  -13.2140   20.8140 C   0  0  0  0  0  0  0  0  0  0  0  0
  -24.9040  -11.8560   20.7870 C   0  0  0  0  0  0  0  0  0  0  0  0
  -26.5710  -13.0790   20.2300 N   0  0  0  0  0  0  0  0  0  0  0  0
  -26.1990  -11.8000   20.4940 N   0  0  0  0  0  0  0  0  0  0  0  0
  -24.1550  -10.6050   20.9660 C   0  0  0  0  0  0  0  0  0  0  0  0
  -24.5470   -9.6390   21.9190 C   0  0  0  0  0  3  0  0  0  0  0  0
  -23.7980   -8.4550   22.0860 C   0  0  0  0  0  3  0  0  0  0  0  0
  -22.6450   -8.2270   21.2990 C   0  0  0  0  0  0  0  0  0  0  0  0
  -22.2720   -9.1810   20.3350 C   0  0  0  0  0  3  0  0  0  0  0  0
  -23.0210  -10.3580   20.1670 C   0  0  0  0  0  3  0  0  0  0  0  0
  -21.8710   -7.0940   21.3730 O   0  0  0  0  0  0  0  0  0  0  0  0
  -21.7480   -6.3830   22.5390 C   0  0  0  0  0  0  0  0  0  0  0  0
  -21.2420   -6.9710   23.7190 C   0  0  0  0  0  3  0  0  0  0  0  0
  -21.0660   -6.1870   24.8760 C   0  0  0  0  0  3  0  0  0  0  0  0
  -21.3850   -4.8160   24.8540 C   0  0  0  0  0  0  0  0  0  0  0  0
  -21.8820   -4.2280   23.6780 C   0  0  0  0  0  3  0  0  0  0  0  0
  -22.0600   -5.0090   22.5230 C   0  0  0  0  0  0  0  0  0  0  0  0
  -22.5200   -4.4330   21.3870 F   0  0  0  0  0  0  0  0  0  0  0  0
  -21.2090   -4.0590   25.9630 F   0  0  0  0  0  0  0  0  0  0  0  0
  -23.0670  -13.7130   21.0650 C   0  0  0  0  0  0  0  0  0  0  0  0
  -22.3250  -13.0390   21.9350 N   0  0  0  0  0  0  0  0  0  0  0  0
  -22.6480  -14.7360   20.5250 O   0  0  0  0  0  0  0  0  0  0  0  0
  -22.6780  -12.2090   22.3860 H   0  0  0  0  0  0  0  0  0  0  0  0
  -21.3910  -13.3570   22.1530 H   0  0  0  0  0  0  0  0  0  0  0  0
  -25.7250  -15.3410   20.2750 N   0  0  0  0  0  0  0  0  0  0  0  0
  -24.9520  -15.9930   20.3420 H   0  0  0  0  0  0  0  0  0  0  0  0
  -26.5540  -15.7520   19.8680 H   0  0  0  0  0  0  0  0  0  0  0  0
  1 54  1  0
  1  2  1  1
  3  1  1  0
  3  9  1  0
  4  6  1  0
  5  4  1  0
  7  9  1  0
  7  5  1  0
  8  6  1  0
  9  8  1  0
 10  1  1  0
 10 11  1  0
 12 13  1  0
 12 11  2  0
 14 25  2  0
 15 13  1  0
 15 20  1  0
 16 24  1  0
 16 26  1  0
 17 23  1  0
 17 19  1  0
 18 24  1  0
 19 20  2  0
 19 18  1  0
 21 15  2  0
 22 21  1  0
 22 17  2  0
 23 16  1  0
 24 14  1  0
 26 28  2  0
 27 26  1  0
 29 27  1  0
 30 39  2  0
 30 35  1  0
 31 27  1  0
 31 35  1  0
 32 31  1  0
 33 34  1  0
 33 32  1  0
 34 30  1  0
 35 36  2  0
 36 37  1  0
 38 37  2  0
 39 38  1  0
 40 14  1  0
 40 41  1  0
 40 50  1  0
 41 44  1  0
 42 46  1  0
 42 41  1  0
 43 42  2  0
 46 45  1  0
 48 46  1  0
 48 49  1  0
 48 47  1  0
 50 53  1  1
 50 51  1  0
 52 50  1  0
 54 55  2  0
 56 64  1  0
 57 62  1  0
 58 59  1  0
 58 57  1  0
 60 59  1  0
 60 69  1  0
 60 61  1  0
 62 56  1  0
 62 61  1  0
 63 56  2  0
 64 65  1  0
 64 55  1  0
 66 67  2  0
 67 86  1  0
 68 67  1  0
 68 71  1  0
 69 66  1  0
 69 70  1  0
 70 68  2  0
 71 72  1  0
 72 73  2  0
 74 77  1  0
 74 73  1  0
 75 74  2  0
 76 75  1  0
 76 71  2  0
 77 78  1  0
 78 79  1  0
 79 80  2  0
 81 80  1  0
 81 85  1  0
 82 81  2  0
 83 78  2  0
 83 82  1  0
 84 83  1  0
 86 87  1  0
 87 90  1  0
 87 89  1  0
 88 86  2  0
 91 92  1  0
 91 66  1  0
 93 91  1  0
M  ISO  4  12 101  13 101  56 100  64 100
M  END
>  <TORSDO>  (11) 
F 23

>  <SCORE>  (11) 
-13.305

>  <name>  (11) 
10

>  <ligand_id>  (11) 
10

>  <original_smiles>  (11) 
[H]c1c([H])c([H])c2c(c1[H])C([H])([H])C([H])([H])C([H])([H])C2([H])N([H])C(=O)C1([H])N(C(=O)C([H])(N([H])C(=O)C([H])(N([H])C([H])([H])[H])C([H])([H])[H])C(C([H])([H])[H])(C([H])([H])[H])C([H])([H])[H])C([H])([H])c2c([H])c(OC([H])([H])C([H])([H])C([H])([H])[N+]([H])(C([H])([H])C([H])([H])N([H])C(=O)N3C([H])([H])C([H])([H])C([H])([H])C([H])(n4nc(-c5c([H])c([H])c(Oc6c([H])c([H])c(F)c([H])c6F)c([H])c5[H])c(C(=O)N([H])[H])c4N([H])[H])C3([H])[H])C([H])([H])C3([H])C([H])([H])C([H])([H])C([H])([H])C([H])([H])C3([H])[H])c([H])c([H])c2C1([H])[H]

>  <smiles>  (11) 
[H]c1c([H])c([H])c2c(c1[H])C([H])([H])C([H])([H])C([H])([H])C2([H])N([H])C(=O)C1([H])N(C(=O)C([H])(N([H])C(=O)C([H])(N([H])C([H])([H])[H])C([H])([H])[H])C(C([H])([H])[H])(C([H])([H])[H])C([H])([H])[H])C([H])([H])c2c([H])c(OC([H])([H])C([H])([H])C([H])([H])[N+]([H])(C([H])([H])C([H])([H])N([H])C(=O)N3C([H])([H])C([H])([H])C([H])([H])C([H])(n4nc(-c5c([H])c([H])c(Oc6c([H])c([H])c(F)c([H])c6F)c([H])c5[H])c(C(=O)N([H])[H])c4N([H])[H])C3([H])[H])C([H])([H])C3([H])C([H])([H])C([H])([H])C([H])([H])C([H])([H])C3([H])[H])c([H])c([H])c2C1([H])[H]

$$$$
11:0:0
     RDKit          3D

 94102  0  0  1  0  0  0  0  0999 V2000
  -29.6700  -20.7890   20.7120 C   0  0  0  0  0  2  0  0  0  0  0  0
  -30.4570  -20.8150   16.8740 C   0  0  0  0  0  2  0  0  0  0  0  0
  -31.5850  -21.8350   16.9490 C   0  0  0  0  0  2  0  0  0  0  0  0
  -29.6210  -20.9190   18.1560 C   0  0  0  0  0  2  0  0  0  0  0  0
  -32.4820  -21.5730   18.1730 C   0  0  0  0  0  2  0  0  0  0  0  0
  -30.4410  -21.2640   19.4380 C   0  0  0  0  0  3  0  0  0  0  0  0
  -31.8430  -20.7930   19.2550 N   0  0  0  0  0  0  0  0  0  0  0  0
  -32.7140  -20.7600   20.4530 C   0  0  0  0  0  2  0  0  0  0  0  0
  -34.2380  -20.8540   20.1250 C   0  0  0  0  0  2  0  0  0  0  0  0
  -35.8440  -20.9340   22.0980 C   0  0  0  0  0  0  0  0  0  0  0  0
  -37.6930  -22.4490   22.7190 C   0  0  0  0  0  2  0  0  0  0  0  0
  -37.1960  -23.8970   22.9000 C   0  0  0  0  0  2  0  0  0  0  0  0
  -37.2060  -24.6460   21.5560 C   0  0  0  0  0  2  0  0  0  0  0  0
  -36.5240  -23.8370   20.4220 C   0  0  0  0  0  3  0  0  0  0  0  0
  -37.0560  -22.3840   20.3870 C   0  0  0  0  0  2  0  0  0  0  0  0
  -36.8410  -21.7840   21.7130 N   0  0  0  0  0  0  0  0  0  0  0  0
  -35.6920  -20.5880   23.2690 O   0  0  0  0  0  0  0  0  0  0  0  0
  -35.1080  -20.2980   21.1680 N   0  0  0  0  0  0  0  0  0  0  0  0
  -34.7120  -19.4550   21.5600 H   0  0  0  0  0  0  0  0  0  0  0  0
  -35.6940  -24.9450   18.2530 C   0  0  0  0  0  0  0  0  0  0  0  0
  -36.3590  -25.5590   17.2260 C   0  0  0  0  0  0  0  0  0  0  0  0
  -37.7470  -25.4750   17.5510 C   0  0  0  0  0  0  0  0  0  0  0  0
  -36.6720  -24.5040   19.1310 N   0  0  0  0  0  0  0  0  0  0  0  0
  -37.9180  -24.7870   18.6720 N   0  0  0  0  0  0  0  0  0  0  0  0
  -38.9190  -26.0610   16.8890 C   0  0  0  0  0  0  0  0  0  0  0  0
  -39.9370  -25.2490   16.3420 C   0  0  0  0  0  3  0  0  0  0  0  0
  -41.0480  -25.8320   15.6960 C   0  0  0  0  0  3  0  0  0  0  0  0
  -41.1460  -27.2400   15.5870 C   0  0  0  0  0  0  0  0  0  0  0  0
  -40.1420  -28.0440   16.1510 C   0  0  0  0  0  3  0  0  0  0  0  0
  -39.0390  -27.4620   16.7990 C   0  0  0  0  0  3  0  0  0  0  0  0
  -42.2010  -27.8950   14.9980 O   0  0  0  0  0  0  0  0  0  0  0  0
  -42.8580  -27.3720   13.9140 C   0  0  0  0  0  0  0  0  0  0  0  0
  -42.1970  -27.1200   12.6920 C   0  0  0  0  0  3  0  0  0  0  0  0
  -42.9250  -26.6470   11.5820 C   0  0  0  0  0  3  0  0  0  0  0  0
  -44.3130  -26.4330   11.6880 C   0  0  0  0  0  0  0  0  0  0  0  0
  -44.9730  -26.6890   12.9020 C   0  0  0  0  0  3  0  0  0  0  0  0
  -44.2480  -27.1590   14.0100 C   0  0  0  0  0  0  0  0  0  0  0  0
  -44.8920  -27.4240   15.1730 F   0  0  0  0  0  0  0  0  0  0  0  0
  -45.0140  -25.9870   10.6200 F   0  0  0  0  0  0  0  0  0  0  0  0
  -35.7360  -26.2750   16.0620 C   0  0  0  0  0  0  0  0  0  0  0  0
  -36.3610  -26.1950   14.8910 N   0  0  0  0  0  0  0  0  0  0  0  0
  -34.6660  -26.8720   16.1730 O   0  0  0  0  0  0  0  0  0  0  0  0
  -37.2280  -25.6890   14.7950 H   0  0  0  0  0  0  0  0  0  0  0  0
  -35.9630  -26.6460   14.0790 H   0  0  0  0  0  0  0  0  0  0  0  0
  -34.3460  -24.7490   18.5280 N   0  0  0  0  0  0  0  0  0  0  0  0
  -33.6240  -25.1690   17.9540 H   0  0  0  0  0  0  0  0  0  0  0  0
  -34.0090  -24.4190   19.4210 H   0  0  0  0  0  0  0  0  0  0  0  0
  -28.9230  -21.8860   21.3910 N   0  0  0  0  0  4  0  0  0  0  0  0
  -29.4480  -22.7390   21.2950 H   0  0  0  0  0  0  0  0  0  0  0  0
  -28.9150  -21.6590   22.3730 H   0  0  0  0  0  0  0  0  0  0  0  0
  -27.5070  -22.1100   20.9850 C   0  0  0  0  0  2  0  0  0  0  0  0
  -26.9290  -23.4490   21.5240 C   0  0  0  0  0  2  0  0  0  0  0  0
  -25.4200  -23.6300   21.2450 C   0  0  0  0  0  2  0  0  0  0  0  0
  -24.9130  -24.8510   21.8030 O   0  0  0  0  0  0  0  0  0  0  0  0
  -18.0640  -26.0390   20.2590 C   0  0  0  0  0  0  0  0  0  0  0  0
  -23.9980  -25.5030   21.0100 C   0  0  0  0  0  0  0  0  0  0  0  0
  -19.7070  -26.8560   18.6000 C   0  0  0  0  0  3  0  0  0  0  0  0
  -22.1450  -26.8430   19.3560 C   0  0  0  0  0  0  0  0  0  0  0  0
  -20.3330  -26.6690   21.0720 C   0  0  0  0  0  2  0  0  0  0  0  0
  -21.7600  -26.4110   20.6320 C   0  0  0  0  0  0  0  0  0  0  0  0
  -22.6860  -25.7480   21.4680 C   0  0  0  0  0  3  0  0  0  0  0  0
  -24.3780  -25.9460   19.7260 C   0  0  0  0  0  3  0  0  0  0  0  0
  -23.4550  -26.6140   18.8970 C   0  0  0  0  0  3  0  0  0  0  0  0
  -21.0950  -27.5490   18.5270 C   0  0  0  0  0  2  0  0  0  0  0  0
  -19.3290  -26.4770   20.0000 N   0  0  0  0  0  0  0  0  0  0  0  0
  -17.2070  -25.9860   19.3640 O   0  0  0  0  0  0  0  0  0  0  0  0
  -19.6980  -25.6620   17.6190 C   0  0  0  0  0  0  0  0  0  0  0  0
  -19.2950  -25.9220   16.3640 N   0  0  0  0  0  0  0  0  0  0  0  0
  -20.0730  -24.5440   17.9800 O   0  0  0  0  0  0  0  0  0  0  0  0
  -18.9910  -26.8620   16.1510 H   0  0  0  0  0  0  0  0  0  0  0  0
  -18.0460  -25.4070   13.0120 C   0  0  0  0  0  0  0  0  0  0  0  0
  -19.2440  -24.9640   15.2600 C   0  0  0  0  0  3  0  0  0  0  0  0
  -20.5590  -24.9810   14.4450 C   0  0  0  0  0  2  0  0  0  0  0  0
  -20.5120  -25.9300   13.2430 C   0  0  0  0  0  2  0  0  0  0  0  0
  -19.3780  -25.5350   12.2920 C   0  0  0  0  0  2  0  0  0  0  0  0
  -17.9830  -25.1560   14.4080 C   0  0  0  0  0  0  0  0  0  0  0  0
  -16.7210  -25.0820   15.0360 C   0  0  0  0  0  3  0  0  0  0  0  0
  -15.5370  -25.2510   14.2930 C   0  0  0  0  0  3  0  0  0  0  0  0
  -15.6040  -25.4820   12.9080 C   0  0  0  0  0  3  0  0  0  0  0  0
  -16.8550  -25.5570   12.2700 C   0  0  0  0  0  3  0  0  0  0  0  0
  -17.6260  -25.6050   21.6930 C   0  0  0  0  0  3  0  0  0  0  0  0
  -16.7200  -26.6390   22.2100 N   0  0  0  0  0  0  0  0  0  0  0  0
  -17.0420  -27.5220   23.1660 C   0  0  0  0  0  0  0  0  0  0  0  0
  -18.1250  -27.5030   23.7590 O   0  0  0  0  0  0  0  0  0  0  0  0
  -15.8370  -26.7480   21.7330 H   0  0  0  0  0  0  0  0  0  0  0  0
  -16.5280  -29.9840   23.1170 C   0  0  0  0  0  1  0  0  0  0  0  0
  -15.9980  -28.5980   23.5200 C   0  0  0  0  0  3  0  0  0  0  0  0
  -14.8250  -27.4460   25.3440 C   0  0  0  0  0  1  0  0  0  0  0  0
  -15.6220  -28.6050   24.9510 N   0  0  0  0  0  0  0  0  0  0  0  0
  -15.0970  -29.4440   25.1820 H   0  0  0  0  0  0  0  0  0  0  0  0
  -16.9330  -24.1870   21.7300 C   0  0  1  0  0  0  0  0  0  0  0  0
  -15.8550  -23.9940   20.6370 C   0  0  0  0  0  1  0  0  0  0  0  0
  -17.9820  -23.0640   21.5670 C   0  0  0  0  0  1  0  0  0  0  0  0
  -16.2610  -23.9670   23.1050 C   0  0  0  0  0  1  0  0  0  0  0  0
  1 48  1  0
  2  3  1  0
  2  4  1  0
  3  5  1  0
  4  6  1  0
  5  7  1  0
  6  1  1  0
  7  6  1  0
  7  8  1  0
  9  8  1  0
  9 18  1  0
 10 17  2  0
 11 12  1  0
 13 12  1  0
 14 23  1  0
 14 13  1  0
 15 14  1  0
 15 16  1  0
 16 10  1  0
 16 11  1  0
 18 19  1  0
 18 10  1  0
 20 45  1  0
 20 23  1  0
 21 22  1  0
 21 20  2  0
 22 24  2  0
 24 23  1  0
 25 22  1  0
 26 25  2  0
 27 26  1  0
 28 27  2  0
 28 29  1  0
 29 30  2  0
 30 25  1  0
 31 28  1  0
 32 37  1  0
 32 31  1  0
 33 32  2  0
 34 35  2  0
 34 33  1  0
 35 36  1  0
 36 37  2  0
 37 38  1  0
 39 35  1  0
 40 42  2  0
 40 21  1  0
 41 40  1  0
 43 41  1  0
 44 41  1  0
 45 47  1  0
 46 45  1  0
 48 50  1  0
 49 48  1  0
 51 48  1  0
 51 52  1  0
 53 52  1  0
 53 54  1  0
 56 61  1  0
 56 54  1  0
 57 67  1  0
 57 65  1  0
 58 60  1  0
 60 59  1  0
 60 61  2  0
 62 56  2  0
 63 58  2  0
 63 62  1  0
 64 57  1  0
 64 58  1  0
 65 55  1  0
 65 59  1  0
 66 55  2  0
 67 69  2  0
 68 67  1  0
 70 68  1  0
 71 76  1  0
 72 68  1  0
 73 72  1  0
 74 73  1  0
 75 71  1  0
 75 74  1  0
 76 77  2  0
 76 72  1  0
 78 77  1  0
 79 78  2  0
 80 79  1  0
 80 71  2  0
 81 55  1  0
 81 91  1  0
 81 82  1  0
 82 83  1  0
 83 87  1  0
 83 84  2  0
 85 82  1  0
 87 86  1  0
 87 89  1  0
 89 90  1  0
 89 88  1  0
 91 94  1  1
 92 91  1  0
 93 91  1  0
M  ISO  4  10 100  18 100  53 101  54 101
M  END
>  <TORSDO>  (12) 
F 23

>  <SCORE>  (12) 
-5.614

>  <name>  (12) 
11

>  <ligand_id>  (12) 
11

>  <original_smiles>  (12) 
[H]c1c([H])c([H])c2c(c1[H])C([H])([H])C([H])([H])C([H])([H])C2([H])N([H])C(=O)C1([H])N(C(=O)C([H])(N([H])C(=O)C([H])(N([H])C([H])([H])[H])C([H])([H])[H])C(C([H])([H])[H])(C([H])([H])[H])C([H])([H])[H])C([H])([H])c2c([H])c(OC([H])([H])C([H])([H])C([H])([H])[N+]([H])([H])C([H])([H])C3([H])N(C([H])([H])C([H])([H])N([H])C(=O)N4C([H])([H])C([H])([H])C([H])([H])C([H])(n5nc(-c6c([H])c([H])c(Oc7c([H])c([H])c(F)c([H])c7F)c([H])c6[H])c(C(=O)N([H])[H])c5N([H])[H])C4([H])[H])C([H])([H])C([H])([H])C([H])([H])C3([H])[H])c([H])c([H])c2C1([H])[H]

>  <smiles>  (12) 
[H]c1c([H])c([H])c2c(c1[H])C([H])([H])C([H])([H])C([H])([H])C2([H])N([H])C(=O)C1([H])N(C(=O)C([H])(N([H])C(=O)C([H])(N([H])C([H])([H])[H])C([H])([H])[H])C(C([H])([H])[H])(C([H])([H])[H])C([H])([H])[H])C([H])([H])c2c([H])c(OC([H])([H])C([H])([H])C([H])([H])[N+]([H])([H])C([H])([H])C3([H])N(C([H])([H])C([H])([H])N([H])C(=O)N4C([H])([H])C([H])([H])C([H])([H])C([H])(n5nc(-c6c([H])c([H])c(Oc7c([H])c([H])c(F)c([H])c7F)c([H])c6[H])c(C(=O)N([H])[H])c5N([H])[H])C4([H])[H])C([H])([H])C([H])([H])C([H])([H])C3([H])[H])c([H])c([H])c2C1([H])[H]

$$$$
12:0:0
     RDKit          3D

 94102  0  0  1  0  0  0  0  0999 V2000
  -28.7610  -19.7790   20.8840 C   0  0  0  0  0  2  0  0  0  0  0  0
  -30.6710  -14.7740   20.1770 C   0  0  0  0  0  0  0  0  0  0  0  0
  -30.3690  -12.5420   19.0880 C   0  0  0  0  0  2  0  0  0  0  0  0
  -29.3790  -12.6450   17.9090 C   0  0  0  0  0  2  0  0  0  0  0  0
  -27.9360  -12.4550   18.4070 C   0  0  0  0  0  2  0  0  0  0  0  0
  -27.6210  -13.3240   19.6550 C   0  0  0  0  0  3  0  0  0  0  0  0
  -28.7260  -13.2200   20.7290 C   0  0  0  0  0  2  0  0  0  0  0  0
  -30.0000  -13.5750   20.0860 N   0  0  0  0  0  0  0  0  0  0  0  0
  -31.8010  -14.8710   19.6890 O   0  0  0  0  0  0  0  0  0  0  0  0
  -30.2480  -17.9790   22.0390 C   0  0  0  0  0  2  0  0  0  0  0  0
  -30.8090  -16.5530   21.8560 C   0  0  0  0  0  2  0  0  0  0  0  0
  -29.7210  -18.4590   20.6790 C   0  0  0  0  0  3  0  0  0  0  0  0
  -29.2250  -17.0100   20.1550 C   0  0  0  0  0  3  0  0  0  0  0  0
  -30.0710  -15.8900   20.7700 N   0  0  0  0  0  0  0  0  0  0  0  0
  -25.2780  -13.9180   20.5080 C   0  0  0  0  0  0  0  0  0  0  0  0
  -24.2230  -13.1410   20.8960 C   0  0  0  0  0  0  0  0  0  0  0  0
  -24.6770  -11.7890   20.8080 C   0  0  0  0  0  0  0  0  0  0  0  0
  -26.3000  -13.0350   20.1980 N   0  0  0  0  0  0  0  0  0  0  0  0
  -25.9510  -11.7490   20.4460 N   0  0  0  0  0  0  0  0  0  0  0  0
  -23.9580  -10.5270   21.0040 C   0  0  0  0  0  0  0  0  0  0  0  0
  -24.4170   -9.5560   21.9180 C   0  0  0  0  0  3  0  0  0  0  0  0
  -23.7000   -8.3550   22.1070 C   0  0  0  0  0  3  0  0  0  0  0  0
  -22.5090   -8.1200   21.3780 C   0  0  0  0  0  0  0  0  0  0  0  0
  -22.0680   -9.0820   20.4530 C   0  0  0  0  0  3  0  0  0  0  0  0
  -22.7850  -10.2740   20.2620 C   0  0  0  0  0  3  0  0  0  0  0  0
  -21.7620   -6.9710   21.4720 O   0  0  0  0  0  0  0  0  0  0  0  0
  -21.7220   -6.2320   22.6270 C   0  0  0  0  0  0  0  0  0  0  0  0
  -21.2840   -6.7840   23.8500 C   0  0  0  0  0  3  0  0  0  0  0  0
  -21.1860   -5.9690   24.9950 C   0  0  0  0  0  3  0  0  0  0  0  0
  -21.5210   -4.6030   24.9180 C   0  0  0  0  0  0  0  0  0  0  0  0
  -21.9570   -4.0510   23.7000 C   0  0  0  0  0  3  0  0  0  0  0  0
  -22.0530   -4.8640   22.5570 C   0  0  0  0  0  0  0  0  0  0  0  0
  -22.4430   -4.3210   21.3790 F   0  0  0  0  0  0  0  0  0  0  0  0
  -21.4230   -3.8190   26.0160 F   0  0  0  0  0  0  0  0  0  0  0  0
  -22.8430  -13.6190   21.2400 C   0  0  0  0  0  0  0  0  0  0  0  0
  -22.1460  -12.9080   22.1170 N   0  0  0  0  0  0  0  0  0  0  0  0
  -22.3920  -14.6630   20.7690 O   0  0  0  0  0  0  0  0  0  0  0  0
  -22.5220  -12.0640   22.5240 H   0  0  0  0  0  0  0  0  0  0  0  0
  -21.2210  -13.2110   22.3860 H   0  0  0  0  0  0  0  0  0  0  0  0
  -25.4540  -15.2940   20.3880 N   0  0  0  0  0  0  0  0  0  0  0  0
  -24.7500  -15.9170   20.7690 H   0  0  0  0  0  0  0  0  0  0  0  0
  -26.3670  -15.7190   20.3350 H   0  0  0  0  0  0  0  0  0  0  0  0
  -29.1220  -16.8920   18.6100 C   0  0  0  0  0  2  0  0  0  0  0  0
  -28.0690  -17.7360   18.0130 N   0  0  0  0  0  4  0  0  0  0  0  0
  -27.9780  -17.5110   17.0380 H   0  0  0  0  0  0  0  0  0  0  0  0
  -28.2990  -18.7100   18.0630 H   0  0  0  0  0  0  0  0  0  0  0  0
  -27.1720  -17.5750   18.4410 H   0  0  0  0  0  0  0  0  0  0  0  0
  -29.0010  -21.0990   20.1150 N   0  0  0  0  0  4  0  0  0  0  0  0
  -28.2320  -21.2160   19.4780 H   0  0  0  0  0  0  0  0  0  0  0  0
  -29.8140  -20.9610   19.5370 H   0  0  0  0  0  0  0  0  0  0  0  0
  -29.2030  -22.4690   20.8050 C   0  0  0  0  0  2  0  0  0  0  0  0
  -28.1860  -23.7340   20.5860 C   0  0  0  0  0  2  0  0  0  0  0  0
  -28.5260  -25.0860   19.7500 C   0  0  0  0  0  2  0  0  0  0  0  0
  -28.4140  -26.4900   20.2990 O   0  0  0  0  0  0  0  0  0  0  0  0
  -24.6060  -31.9280   23.2410 C   0  0  0  0  0  0  0  0  0  0  0  0
  -27.2760  -27.3290   20.2170 C   0  0  0  0  0  0  0  0  0  0  0  0
  -23.4280  -30.5160   21.5900 C   0  0  0  0  0  3  0  0  0  0  0  0
  -24.9020  -28.9540   20.1910 C   0  0  0  0  0  0  0  0  0  0  0  0
  -25.9710  -30.8320   21.4410 C   0  0  0  0  0  2  0  0  0  0  0  0
  -26.0630  -29.4490   20.7950 C   0  0  0  0  0  0  0  0  0  0  0  0
  -27.2500  -28.6470   20.7930 C   0  0  0  0  0  3  0  0  0  0  0  0
  -26.0860  -26.8970   19.5950 C   0  0  0  0  0  3  0  0  0  0  0  0
  -24.9160  -27.6860   19.5890 C   0  0  0  0  0  3  0  0  0  0  0  0
  -23.6630  -29.8280   20.2190 C   0  0  0  0  0  2  0  0  0  0  0  0
  -24.6860  -31.1110   22.1480 N   0  0  0  0  0  0  0  0  0  0  0  0
  -23.5140  -32.2020   23.7610 O   0  0  0  0  0  0  0  0  0  0  0  0
  -22.7520  -29.5090   22.5510 C   0  0  0  0  0  0  0  0  0  0  0  0
  -21.4260  -29.3300   22.4130 N   0  0  0  0  0  0  0  0  0  0  0  0
  -23.4220  -28.8860   23.3780 O   0  0  0  0  0  0  0  0  0  0  0  0
  -20.9430  -29.8840   21.7230 H   0  0  0  0  0  0  0  0  0  0  0  0
  -18.0500  -28.1330   22.9020 C   0  0  0  0  0  0  0  0  0  0  0  0
  -20.6060  -28.3930   23.1820 C   0  0  0  0  0  3  0  0  0  0  0  0
  -20.7090  -26.9630   22.6050 C   0  0  0  0  0  2  0  0  0  0  0  0
  -19.6110  -26.6400   21.5850 C   0  0  0  0  0  2  0  0  0  0  0  0
  -18.2280  -26.7850   22.2230 C   0  0  0  0  0  2  0  0  0  0  0  0
  -19.1660  -28.8950   23.3370 C   0  0  0  0  0  0  0  0  0  0  0  0
  -18.9430  -30.1560   23.9300 C   0  0  0  0  0  3  0  0  0  0  0  0
  -17.6370  -30.6560   24.0950 C   0  0  0  0  0  3  0  0  0  0  0  0
  -16.5350  -29.8910   23.6760 C   0  0  0  0  0  3  0  0  0  0  0  0
  -16.7420  -28.6310   23.0840 C   0  0  0  0  0  3  0  0  0  0  0  0
  -25.8750  -32.5730   23.8750 C   0  0  0  0  0  3  0  0  0  0  0  0
  -25.5580  -33.9750   24.1850 N   0  0  0  0  0  0  0  0  0  0  0  0
  -25.8970  -35.0220   23.4230 C   0  0  0  0  0  0  0  0  0  0  0  0
  -26.5830  -34.9130   22.4020 O   0  0  0  0  0  0  0  0  0  0  0  0
  -24.9560  -34.1350   24.9780 H   0  0  0  0  0  0  0  0  0  0  0  0
  -24.1780  -36.8210   23.0330 C   0  0  0  0  0  1  0  0  0  0  0  0
  -25.4010  -36.4130   23.8670 C   0  0  0  0  0  3  0  0  0  0  0  0
  -27.5140  -37.3100   24.7420 C   0  0  0  0  0  1  0  0  0  0  0  0
  -26.4340  -37.4680   23.7710 N   0  0  0  0  0  0  0  0  0  0  0  0
  -26.0200  -38.3870   23.9060 H   0  0  0  0  0  0  0  0  0  0  0  0
  -26.3720  -31.8240   25.1730 C   0  0  1  0  0  0  0  0  0  0  0  0
  -25.2630  -31.5980   26.2250 C   0  0  0  0  0  1  0  0  0  0  0  0
  -26.9680  -30.4420   24.8150 C   0  0  0  0  0  1  0  0  0  0  0  0
  -27.5060  -32.6340   25.8470 C   0  0  0  0  0  1  0  0  0  0  0  0
  2 14  1  0
  3  8  1  0
  4  5  1  0
  4  3  1  0
  6  5  1  0
  6 18  1  0
  6  7  1  0
  8  2  1  0
  8  7  1  0
  9  2  2  0
 11 10  1  0
 12  1  1  0
 12 10  1  0
 13 43  1  0
 13 12  1  0
 13 14  1  0
 14 11  1  0
 15 16  2  0
 16 35  1  0
 17 16  1  0
 17 20  1  0
 18 19  1  0
 18 15  1  0
 19 17  2  0
 20 21  1  0
 21 22  2  0
 23 26  1  0
 23 22  1  0
 24 23  2  0
 25 24  1  0
 25 20  2  0
 26 27  1  0
 27 28  1  0
 28 29  2  0
 30 29  1  0
 30 34  1  0
 31 30  2  0
 32 27  2  0
 32 31  1  0
 33 32  1  0
 35 36  1  0
 36 39  1  0
 36 38  1  0
 37 35  2  0
 40 15  1  0
 40 41  1  0
 42 40  1  0
 44 46  1  0
 44 47  1  0
 44 43  1  0
 45 44  1  0
 48 51  1  0
 48  1  1  0
 49 48  1  0
 50 48  1  0
 52 51  1  0
 53 54  1  0
 53 52  1  0
 55 66  2  0
 56 54  1  0
 56 61  1  0
 57 65  1  0
 57 67  1  0
 58 64  1  0
 58 60  1  0
 59 65  1  0
 60 59  1  0
 61 60  2  0
 62 56  2  0
 63 62  1  0
 63 58  2  0
 64 57  1  0
 65 55  1  0
 67 69  2  0
 68 67  1  0
 70 68  1  0
 71 80  2  0
 71 76  1  0
 72 68  1  0
 72 76  1  0
 73 72  1  0
 74 75  1  0
 74 73  1  0
 75 71  1  0
 76 77  2  0
 77 78  1  0
 79 78  2  0
 80 79  1  0
 81 55  1  0
 81 82  1  0
 81 91  1  0
 82 85  1  0
 83 87  1  0
 83 82  1  0
 84 83  2  0
 87 86  1  0
 89 87  1  0
 89 90  1  0
 89 88  1  0
 91 94  1  1
 91 92  1  0
 93 91  1  0
M  ISO  4   2 100  14 100  53 101  54 101
M  END
>  <TORSDO>  (13) 
F 22

>  <SCORE>  (13) 
-13.129

>  <name>  (13) 
12

>  <ligand_id>  (13) 
12

>  <original_smiles>  (13) 
[H]c1c([H])c([H])c2c(c1[H])C([H])([H])C([H])([H])C([H])([H])C2([H])N([H])C(=O)C1([H])N(C(=O)C([H])(N([H])C(=O)C([H])(N([H])C([H])([H])[H])C([H])([H])[H])C(C([H])([H])[H])(C([H])([H])[H])C([H])([H])[H])C([H])([H])c2c([H])c(OC([H])([H])C([H])([H])C([H])([H])[N+]([H])([H])C([H])([H])C3([H])C([H])([H])C([H])([H])N(C(=O)N4C([H])([H])C([H])([H])C([H])([H])C([H])(n5nc(-c6c([H])c([H])c(Oc7c([H])c([H])c(F)c([H])c7F)c([H])c6[H])c(C(=O)N([H])[H])c5N([H])[H])C4([H])[H])C3([H])C([H])([H])[N+]([H])([H])[H])c([H])c([H])c2C1([H])[H]

>  <smiles>  (13) 
[H]c1c([H])c([H])c2c(c1[H])C([H])([H])C([H])([H])C([H])([H])C2([H])N([H])C(=O)C1([H])N(C(=O)C([H])(N([H])C(=O)C([H])(N([H])C([H])([H])[H])C([H])([H])[H])C(C([H])([H])[H])(C([H])([H])[H])C([H])([H])[H])C([H])([H])c2c([H])c(OC([H])([H])C([H])([H])C([H])([H])[N+]([H])([H])C([H])([H])C3([H])C([H])([H])C([H])([H])N(C(=O)N4C([H])([H])C([H])([H])C([H])([H])C([H])(n5nc(-c6c([H])c([H])c(Oc7c([H])c([H])c(F)c([H])c7F)c([H])c6[H])c(C(=O)N([H])[H])c5N([H])[H])C4([H])[H])C3([H])C([H])([H])[N+]([H])([H])[H])c([H])c([H])c2C1([H])[H]

$$$$
13:0:0
     RDKit          3D

 92100  0  0  1  0  0  0  0  0999 V2000
  -28.7270  -24.8290   21.7540 C   0  0  0  0  0  2  0  0  0  0  0  0
  -28.9410  -24.4620   19.3120 C   0  0  0  0  0  2  0  0  0  0  0  0
  -28.5630  -23.3020   21.9280 C   0  0  0  0  0  2  0  0  0  0  0  0
  -28.7480  -22.9490   19.5540 C   0  0  0  0  0  2  0  0  0  0  0  0
  -28.1990  -25.2650   20.3830 C   0  0  0  0  0  3  0  0  0  0  0  0
  -29.2680  -22.5530   20.8740 N   0  0  0  0  0  0  0  0  0  0  0  0
  -28.3440  -26.6850   20.1670 O   0  0  0  0  0  0  0  0  0  0  0  0
  -24.5790  -31.8810   23.2240 C   0  0  0  0  0  0  0  0  0  0  0  0
  -27.1830  -27.4320   20.1330 C   0  0  0  0  0  0  0  0  0  0  0  0
  -23.3560  -30.4780   21.5960 C   0  0  0  0  0  3  0  0  0  0  0  0
  -24.7930  -28.9480   20.1530 C   0  0  0  0  0  0  0  0  0  0  0  0
  -25.8790  -30.8390   21.3700 C   0  0  0  0  0  2  0  0  0  0  0  0
  -25.9570  -29.4680   20.7330 C   0  0  0  0  0  0  0  0  0  0  0  0
  -27.1540  -28.7160   20.7230 C   0  0  0  0  0  3  0  0  0  0  0  0
  -26.0090  -26.9470   19.5090 C   0  0  0  0  0  3  0  0  0  0  0  0
  -24.8150  -27.6860   19.5370 C   0  0  0  0  0  3  0  0  0  0  0  0
  -23.5490  -29.8030   20.2130 C   0  0  0  0  0  2  0  0  0  0  0  0
  -24.6240  -31.0800   22.1230 N   0  0  0  0  0  0  0  0  0  0  0  0
  -23.5040  -32.1490   23.7780 O   0  0  0  0  0  0  0  0  0  0  0  0
  -22.7190  -29.4540   22.5630 C   0  0  0  0  0  0  0  0  0  0  0  0
  -21.3940  -29.2680   22.4490 N   0  0  0  0  0  0  0  0  0  0  0  0
  -23.4120  -28.8320   23.3710 O   0  0  0  0  0  0  0  0  0  0  0  0
  -20.8930  -29.8230   21.7680 H   0  0  0  0  0  0  0  0  0  0  0  0
  -18.0300  -28.0550   22.9660 C   0  0  0  0  0  0  0  0  0  0  0  0
  -20.5870  -28.3280   23.2270 C   0  0  0  0  0  3  0  0  0  0  0  0
  -20.6970  -26.8950   22.6590 C   0  0  0  0  0  2  0  0  0  0  0  0
  -19.5940  -26.5600   21.6510 C   0  0  0  0  0  2  0  0  0  0  0  0
  -18.2120  -26.7010   22.2980 C   0  0  0  0  0  2  0  0  0  0  0  0
  -19.1450  -28.8250   23.3880 C   0  0  0  0  0  0  0  0  0  0  0  0
  -18.9220  -30.0910   23.9710 C   0  0  0  0  0  3  0  0  0  0  0  0
  -17.6160  -30.5860   24.1370 C   0  0  0  0  0  3  0  0  0  0  0  0
  -16.5140  -29.8130   23.7340 C   0  0  0  0  0  3  0  0  0  0  0  0
  -16.7220  -28.5490   23.1520 C   0  0  0  0  0  3  0  0  0  0  0  0
  -25.8710  -32.5140   23.8290 C   0  0  0  0  0  3  0  0  0  0  0  0
  -25.5630  -33.9080   24.1720 N   0  0  0  0  0  0  0  0  0  0  0  0
  -25.8780  -34.9640   23.4130 C   0  0  0  0  0  0  0  0  0  0  0  0
  -26.5310  -34.8690   22.3690 O   0  0  0  0  0  0  0  0  0  0  0  0
  -24.9820  -34.0560   24.9850 H   0  0  0  0  0  0  0  0  0  0  0  0
  -24.1330  -36.7460   23.0960 C   0  0  0  0  0  1  0  0  0  0  0  0
  -25.3910  -36.3470   23.8840 C   0  0  0  0  0  3  0  0  0  0  0  0
  -27.5370  -37.2400   24.6740 C   0  0  0  0  0  1  0  0  0  0  0  0
  -26.4150  -37.4070   23.7550 N   0  0  0  0  0  0  0  0  0  0  0  0
  -26.0070  -38.3250   23.9170 H   0  0  0  0  0  0  0  0  0  0  0  0
  -26.4120  -31.7350   25.0900 C   0  0  1  0  0  0  0  0  0  0  0  0
  -25.3400  -31.4850   26.1750 C   0  0  0  0  0  1  0  0  0  0  0  0
  -26.9940  -30.3640   24.6730 C   0  0  0  0  0  1  0  0  0  0  0  0
  -27.5720  -32.5290   25.7380 C   0  0  0  0  0  1  0  0  0  0  0  0
  -29.0660  -21.1110   21.1070 C   0  0  0  0  0  2  0  0  0  0  0  0
  -29.9910  -20.2040   20.2520 C   0  0  0  0  0  2  0  0  0  0  0  0
  -30.5780  -19.0960   21.0430 N   0  0  0  0  0  4  0  0  0  0  0  0
  -30.4780  -19.3170   22.0200 H   0  0  0  0  0  0  0  0  0  0  0  0
  -31.5650  -19.0770   20.8400 H   0  0  0  0  0  0  0  0  0  0  0  0
  -30.0310  -17.7470   20.7680 C   0  0  0  0  0  2  0  0  0  0  0  0
  -30.7220  -16.6610   21.6270 C   0  0  0  0  0  2  0  0  0  0  0  0
  -30.7210  -14.4160   20.5360 C   0  0  0  0  0  0  0  0  0  0  0  0
  -30.3530  -12.3060   19.3160 C   0  0  0  0  0  2  0  0  0  0  0  0
  -29.4130  -12.5350   18.1150 C   0  0  0  0  0  2  0  0  0  0  0  0
  -27.9400  -12.4170   18.5470 C   0  0  0  0  0  2  0  0  0  0  0  0
  -27.6180  -13.2570   19.8120 C   0  0  0  0  0  3  0  0  0  0  0  0
  -28.6630  -13.0050   20.9210 C   0  0  0  0  0  2  0  0  0  0  0  0
  -30.0030  -13.2760   20.3640 N   0  0  0  0  0  0  0  0  0  0  0  0
  -31.7760  -14.6500   19.9400 O   0  0  0  0  0  0  0  0  0  0  0  0
  -30.1860  -15.3200   21.3660 N   0  0  0  0  0  0  0  0  0  0  0  0
  -29.3330  -15.0560   21.8340 H   0  0  0  0  0  0  0  0  0  0  0  0
  -25.2190  -13.8980   20.5000 C   0  0  0  0  0  0  0  0  0  0  0  0
  -24.1400  -13.1400   20.8720 C   0  0  0  0  0  0  0  0  0  0  0  0
  -24.5870  -11.7840   20.8540 C   0  0  0  0  0  0  0  0  0  0  0  0
  -26.2570  -13.0050   20.2840 N   0  0  0  0  0  0  0  0  0  0  0  0
  -25.8780  -11.7290   20.5540 N   0  0  0  0  0  0  0  0  0  0  0  0
  -23.8490  -10.5300   21.0530 C   0  0  0  0  0  0  0  0  0  0  0  0
  -24.2820   -9.5560   21.9800 C   0  0  0  0  0  3  0  0  0  0  0  0
  -23.5460   -8.3670   22.1650 C   0  0  0  0  0  3  0  0  0  0  0  0
  -22.3620   -8.1410   21.4240 C   0  0  0  0  0  0  0  0  0  0  0  0
  -21.9470   -9.1030   20.4870 C   0  0  0  0  0  3  0  0  0  0  0  0
  -22.6830  -10.2860   20.3000 C   0  0  0  0  0  3  0  0  0  0  0  0
  -21.5970   -7.0050   21.5200 O   0  0  0  0  0  0  0  0  0  0  0  0
  -21.5710   -6.2490   22.6640 C   0  0  0  0  0  0  0  0  0  0  0  0
  -21.2010   -6.7970   23.9110 C   0  0  0  0  0  3  0  0  0  0  0  0
  -21.1200   -5.9680   25.0480 C   0  0  0  0  0  3  0  0  0  0  0  0
  -21.3980   -4.5920   24.9390 C   0  0  0  0  0  0  0  0  0  0  0  0
  -21.7610   -4.0450   23.6960 C   0  0  0  0  0  3  0  0  0  0  0  0
  -21.8440   -4.8690   22.5620 C   0  0  0  0  0  0  0  0  0  0  0  0
  -22.1750   -4.3320   21.3630 F   0  0  0  0  0  0  0  0  0  0  0  0
  -21.3130   -3.7950   26.0290 F   0  0  0  0  0  0  0  0  0  0  0  0
  -22.7470  -13.6340   21.1360 C   0  0  0  0  0  0  0  0  0  0  0  0
  -22.0090  -12.9510   22.0060 N   0  0  0  0  0  0  0  0  0  0  0  0
  -22.3190  -14.6590   20.6060 O   0  0  0  0  0  0  0  0  0  0  0  0
  -22.3690  -12.1220   22.4550 H   0  0  0  0  0  0  0  0  0  0  0  0
  -21.0740  -13.2620   22.2260 H   0  0  0  0  0  0  0  0  0  0  0  0
  -25.4010  -15.2640   20.3120 N   0  0  0  0  0  0  0  0  0  0  0  0
  -24.6410  -15.9310   20.4070 H   0  0  0  0  0  0  0  0  0  0  0  0
  -26.2600  -15.6880   19.9870 H   0  0  0  0  0  0  0  0  0  0  0  0
  1  3  1  0
  2  4  1  0
  2  5  1  0
  4  6  1  0
  5  7  1  0
  5  1  1  0
  6 48  1  0
  6  3  1  0
  8 19  2  0
  9  7  1  0
  9 14  1  0
 10 18  1  0
 10 20  1  0
 11 17  1  0
 11 13  1  0
 12 18  1  0
 13 12  1  0
 14 13  2  0
 15 16  1  0
 15  9  2  0
 16 11  2  0
 17 10  1  0
 18  8  1  0
 20 22  2  0
 21 20  1  0
 23 21  1  0
 24 33  2  0
 24 29  1  0
 25 21  1  0
 25 29  1  0
 26 25  1  0
 27 28  1  0
 27 26  1  0
 28 24  1  0
 29 30  2  0
 30 31  1  0
 32 31  2  0
 33 32  1  0
 34  8  1  0
 34 35  1  0
 34 44  1  0
 35 38  1  0
 36 40  1  0
 36 35  1  0
 37 36  2  0
 40 39  1  0
 42 40  1  0
 42 43  1  0
 42 41  1  0
 44 47  1  1
 44 45  1  0
 46 44  1  0
 49 50  1  0
 49 48  1  0
 50 51  1  0
 52 50  1  0
 53 50  1  0
 53 54  1  0
 55 63  1  0
 56 61  1  0
 57 58  1  0
 57 56  1  0
 59 58  1  0
 59 68  1  0
 59 60  1  0
 61 55  1  0
 61 60  1  0
 62 55  2  0
 63 54  1  0
 63 64  1  0
 65 66  2  0
 66 85  1  0
 67 66  1  0
 67 70  1  0
 68 65  1  0
 68 69  1  0
 69 67  2  0
 70 71  1  0
 71 72  2  0
 73 76  1  0
 73 72  1  0
 74 73  2  0
 75 74  1  0
 75 70  2  0
 76 77  1  0
 77 78  1  0
 78 79  2  0
 80 79  1  0
 80 84  1  0
 81 80  2  0
 82 77  2  0
 82 81  1  0
 83 82  1  0
 85 86  1  0
 86 89  1  0
 86 88  1  0
 87 85  2  0
 90 91  1  0
 90 65  1  0
 92 90  1  0
M  ISO  4   5 101   7 101  55 100  63 100
M  END
>  <TORSDO>  (14) 
F 21

>  <SCORE>  (14) 
-13.534

>  <name>  (14) 
13

>  <ligand_id>  (14) 
13

>  <original_smiles>  (14) 
[H]c1c([H])c([H])c2c(c1[H])C([H])([H])C([H])([H])C([H])([H])C2([H])N([H])C(=O)C1([H])N(C(=O)C([H])(N([H])C(=O)C([H])(N([H])C([H])([H])[H])C([H])([H])[H])C(C([H])([H])[H])(C([H])([H])[H])C([H])([H])[H])C([H])([H])c2c([H])c(OC3([H])C([H])([H])C([H])([H])N(C([H])([H])C([H])([H])[N+]([H])([H])C([H])([H])C([H])([H])N([H])C(=O)N4C([H])([H])C([H])([H])C([H])([H])C([H])(n5nc(-c6c([H])c([H])c(Oc7c([H])c([H])c(F)c([H])c7F)c([H])c6[H])c(C(=O)N([H])[H])c5N([H])[H])C4([H])[H])C([H])([H])C3([H])[H])c([H])c([H])c2C1([H])[H]

>  <smiles>  (14) 
[H]c1c([H])c([H])c2c(c1[H])C([H])([H])C([H])([H])C([H])([H])C2([H])N([H])C(=O)C1([H])N(C(=O)C([H])(N([H])C(=O)C([H])(N([H])C([H])([H])[H])C([H])([H])[H])C(C([H])([H])[H])(C([H])([H])[H])C([H])([H])[H])C([H])([H])c2c([H])c(OC3([H])C([H])([H])C([H])([H])N(C([H])([H])C([H])([H])[N+]([H])([H])C([H])([H])C([H])([H])N([H])C(=O)N4C([H])([H])C([H])([H])C([H])([H])C([H])(n5nc(-c6c([H])c([H])c(Oc7c([H])c([H])c(F)c([H])c7F)c([H])c6[H])c(C(=O)N([H])[H])c5N([H])[H])C4([H])[H])C([H])([H])C3([H])[H])c([H])c([H])c2C1([H])[H]

$$$$
14:0:0
     RDKit          3D

 88 96  0  0  1  0  0  0  0  0999 V2000
  -31.2210  -22.2130   20.1880 C   0  0  0  0  0  2  0  0  0  0  0  0
  -30.2410  -23.1580   19.4790 C   0  0  0  0  0  2  0  0  0  0  0  0
  -30.4070  -21.4940   21.2650 C   0  0  0  0  0  2  0  0  0  0  0  0
  -28.8170  -22.7740   19.9370 C   0  0  0  0  0  3  0  0  0  0  0  0
  -29.0740  -21.2910   20.6740 N   0  0  1  0  0  4  0  0  0  0  0  0
  -28.4300  -21.2590   21.4510 H   0  0  0  0  0  0  0  0  0  0  0  0
  -28.0920  -24.3040   20.5740 C   0  0  0  0  0  2  0  0  0  0  0  0
  -28.2430  -25.9200   20.2500 O   0  0  0  0  0  0  0  0  0  0  0  0
  -24.6280  -31.8860   23.2000 C   0  0  0  0  0  0  0  0  0  0  0  0
  -27.2030  -26.9870   20.2490 C   0  0  0  0  0  0  0  0  0  0  0  0
  -23.4360  -30.4620   21.5840 C   0  0  0  0  0  3  0  0  0  0  0  0
  -24.8890  -28.8440   20.1840 C   0  0  0  0  0  0  0  0  0  0  0  0
  -26.0000  -30.6890   21.4230 C   0  0  0  0  0  2  0  0  0  0  0  0
  -26.0780  -29.2700   20.7910 C   0  0  0  0  0  0  0  0  0  0  0  0
  -27.2310  -28.3640   20.7910 C   0  0  0  0  0  3  0  0  0  0  0  0
  -25.9800  -26.7060   19.6010 C   0  0  0  0  0  3  0  0  0  0  0  0
  -24.8640  -27.5820   19.5680 C   0  0  0  0  0  3  0  0  0  0  0  0
  -23.6660  -29.7600   20.2180 C   0  0  0  0  0  2  0  0  0  0  0  0
  -24.7100  -31.0400   22.1220 N   0  0  0  0  0  0  0  0  0  0  0  0
  -23.5390  -32.1760   23.7210 O   0  0  0  0  0  0  0  0  0  0  0  0
  -22.7510  -29.4760   22.5650 C   0  0  0  0  0  0  0  0  0  0  0  0
  -21.4220  -29.3020   22.4450 N   0  0  0  0  0  0  0  0  0  0  0  0
  -23.4220  -28.8660   23.4010 O   0  0  0  0  0  0  0  0  0  0  0  0
  -20.9330  -29.8440   21.7460 H   0  0  0  0  0  0  0  0  0  0  0  0
  -18.0480  -28.0750   22.9740 C   0  0  0  0  0  0  0  0  0  0  0  0
  -20.6060  -28.3690   23.2300 C   0  0  0  0  0  3  0  0  0  0  0  0
  -20.7200  -26.9290   22.6770 C   0  0  0  0  0  2  0  0  0  0  0  0
  -19.6190  -26.5810   21.6690 C   0  0  0  0  0  2  0  0  0  0  0  0
  -18.2370  -26.7200   22.3130 C   0  0  0  0  0  2  0  0  0  0  0  0
  -19.1600  -28.8560   23.3900 C   0  0  0  0  0  0  0  0  0  0  0  0
  -18.9260  -30.1210   23.9700 C   0  0  0  0  0  3  0  0  0  0  0  0
  -17.6150  -30.6080   24.1370 C   0  0  0  0  0  3  0  0  0  0  0  0
  -16.5190  -29.8250   23.7340 C   0  0  0  0  0  3  0  0  0  0  0  0
  -16.7360  -28.5610   23.1590 C   0  0  0  0  0  3  0  0  0  0  0  0
  -25.8970  -32.5420   23.8220 C   0  0  0  0  0  3  0  0  0  0  0  0
  -26.4130  -31.7940   25.1130 C   0  0  1  0  0  0  0  0  0  0  0  0
  -25.3170  -31.5680   26.1820 C   0  0  0  0  0  1  0  0  0  0  0  0
  -27.0030  -30.4120   24.7520 C   0  0  0  0  0  1  0  0  0  0  0  0
  -27.5590  -32.6030   25.7650 C   0  0  0  0  0  1  0  0  0  0  0  0
  -25.5710  -33.9430   24.1450 N   0  0  0  0  0  0  0  0  0  0  0  0
  -25.8930  -35.0010   23.3880 C   0  0  0  0  0  0  0  0  0  0  0  0
  -26.5570  -34.9010   22.3540 O   0  0  0  0  0  0  0  0  0  0  0  0
  -24.9780  -34.0920   24.9480 H   0  0  0  0  0  0  0  0  0  0  0  0
  -24.1530  -36.7900   23.0510 C   0  0  0  0  0  1  0  0  0  0  0  0
  -25.4030  -36.3890   23.8500 C   0  0  0  0  0  3  0  0  0  0  0  0
  -27.5380  -37.2930   24.6630 C   0  0  0  0  0  1  0  0  0  0  0  0
  -26.4290  -37.4480   23.7250 N   0  0  0  0  0  0  0  0  0  0  0  0
  -26.0190  -38.3670   23.8700 H   0  0  0  0  0  0  0  0  0  0  0  0
  -28.9970  -19.7300   20.0640 C   0  0  0  0  0  3  0  0  0  0  0  0
  -29.8270  -18.2190   20.6170 C   0  0  0  0  0  3  0  0  0  0  0  0
  -30.3830  -15.3190   20.2450 C   0  0  0  0  0  0  0  0  0  0  0  0
  -30.3650  -12.8850   19.3270 C   0  0  0  0  0  2  0  0  0  0  0  0
  -29.4290  -12.6780   18.1100 C   0  0  0  0  0  2  0  0  0  0  0  0
  -27.9870  -12.3960   18.5690 C   0  0  0  0  0  2  0  0  0  0  0  0
  -27.5440  -13.3460   19.7100 C   0  0  0  0  0  3  0  0  0  0  0  0
  -28.6080  -13.4930   20.8170 C   0  0  0  0  0  2  0  0  0  0  0  0
  -29.8190  -14.0140   20.1640 N   0  0  0  0  0  0  0  0  0  0  0  0
  -31.6100  -15.3250   20.0660 O   0  0  0  0  0  0  0  0  0  0  0  0
  -29.6050  -16.5810   20.3300 N   0  0  0  0  0  0  0  0  0  0  0  0
  -28.6210  -16.3590   20.3220 H   0  0  0  0  0  0  0  0  0  0  0  0
  -25.1770  -13.8800   20.4920 C   0  0  0  0  0  0  0  0  0  0  0  0
  -24.1270  -13.0900   20.8700 C   0  0  0  0  0  0  0  0  0  0  0  0
  -24.6080  -11.7460   20.8320 C   0  0  0  0  0  0  0  0  0  0  0  0
  -26.2260  -13.0160   20.2360 N   0  0  0  0  0  0  0  0  0  0  0  0
  -25.8970  -11.7250   20.5100 N   0  0  0  0  0  0  0  0  0  0  0  0
  -23.8950  -10.4760   21.0260 C   0  0  0  0  0  0  0  0  0  0  0  0
  -24.3400   -9.5120   21.9560 C   0  0  0  0  0  3  0  0  0  0  0  0
  -23.6240   -8.3100   22.1400 C   0  0  0  0  0  3  0  0  0  0  0  0
  -22.4490   -8.0620   21.3910 C   0  0  0  0  0  0  0  0  0  0  0  0
  -22.0230   -9.0150   20.4490 C   0  0  0  0  0  3  0  0  0  0  0  0
  -22.7400  -10.2090   20.2630 C   0  0  0  0  0  3  0  0  0  0  0  0
  -21.7030   -6.9120   21.4830 O   0  0  0  0  0  0  0  0  0  0  0  0
  -21.6660   -6.1680   22.6360 C   0  0  0  0  0  0  0  0  0  0  0  0
  -21.2320   -6.7170   23.8620 C   0  0  0  0  0  3  0  0  0  0  0  0
  -21.1420   -5.8990   25.0060 C   0  0  0  0  0  3  0  0  0  0  0  0
  -21.4770   -4.5350   24.9250 C   0  0  0  0  0  0  0  0  0  0  0  0
  -21.9040   -3.9850   23.7040 C   0  0  0  0  0  3  0  0  0  0  0  0
  -21.9940   -4.8000   22.5620 C   0  0  0  0  0  0  0  0  0  0  0  0
  -22.3860   -4.2600   21.3820 F   0  0  0  0  0  0  0  0  0  0  0  0
  -21.3840   -3.7470   26.0220 F   0  0  0  0  0  0  0  0  0  0  0  0
  -22.7270  -13.5540   21.1480 C   0  0  0  0  0  0  0  0  0  0  0  0
  -22.0100  -12.8480   22.0140 N   0  0  0  0  0  0  0  0  0  0  0  0
  -22.2790  -14.5770   20.6320 O   0  0  0  0  0  0  0  0  0  0  0  0
  -22.3860  -12.0200   22.4520 H   0  0  0  0  0  0  0  0  0  0  0  0
  -21.0700  -13.1400   22.2440 H   0  0  0  0  0  0  0  0  0  0  0  0
  -25.3200  -15.2520   20.3120 N   0  0  0  0  0  0  0  0  0  0  0  0
  -24.5400  -15.8920   20.4240 H   0  0  0  0  0  0  0  0  0  0  0  0
  -26.1430  -15.6980   19.9270 H   0  0  0  0  0  0  0  0  0  0  0  0
  1  3  1  0
  2  4  1  0
  2  1  1  0
  4  7  1  0
  4  5  1  0
  5  3  1  0
  5  6  1  1
  8  7  1  0
  9 20  2  0
 10  8  1  0
 10 15  1  0
 11 19  1  0
 11 21  1  0
 12 18  1  0
 12 14  1  0
 13 19  1  0
 14 13  1  0
 15 14  2  0
 16 10  2  0
 17 16  1  0
 17 12  2  0
 18 11  1  0
 19  9  1  0
 21 23  2  0
 22 21  1  0
 24 22  1  0
 25 34  2  0
 25 30  1  0
 26 22  1  0
 26 30  1  0
 27 26  1  0
 28 29  1  0
 28 27  1  0
 29 25  1  0
 30 31  2  0
 31 32  1  0
 33 32  2  0
 34 33  1  0
 35  9  1  0
 35 40  1  0
 35 36  1  0
 36 39  1  1
 36 37  1  0
 38 36  1  0
 40 43  1  0
 41 45  1  0
 41 40  1  0
 42 41  2  0
 45 44  1  0
 47 45  1  0
 47 48  1  0
 47 46  1  0
 49 50  2  0
 49  5  1  0
 51 59  1  0
 52 57  1  0
 53 54  1  0
 53 52  1  0
 55 54  1  0
 55 64  1  0
 55 56  1  0
 57 51  1  0
 57 56  1  0
 58 51  2  0
 59 50  1  0
 60 59  1  0
 61 62  2  0
 62 81  1  0
 63 62  1  0
 63 66  1  0
 64 61  1  0
 64 65  1  0
 65 63  2  0
 66 67  1  0
 67 68  2  0
 69 72  1  0
 69 68  1  0
 70 69  2  0
 71 70  1  0
 71 66  2  0
 72 73  1  0
 73 74  1  0
 74 75  2  0
 76 75  1  0
 76 80  1  0
 77 76  2  0
 78 73  2  0
 78 77  1  0
 79 78  1  0
 81 82  1  0
 82 85  1  0
 82 84  1  0
 83 81  2  0
 86 87  1  0
 86 61  1  0
 88 86  1  0
M  ISO  4   7 101   8 101  51 100  59 100
M  END
>  <TORSDO>  (15) 
F 19

>  <SCORE>  (15) 
-16.620

>  <name>  (15) 
14

>  <ligand_id>  (15) 
14

>  <original_smiles>  (15) 
[H]c1c([H])c([H])c2c(c1[H])C([H])([H])C([H])([H])C([H])([H])C2([H])N([H])C(=O)C1([H])N(C(=O)C([H])(N([H])C(=O)C([H])(N([H])C([H])([H])[H])C([H])([H])[H])C(C([H])([H])[H])(C([H])([H])[H])C([H])([H])[H])C([H])([H])c2c([H])c(OC([H])([H])C3([H])C([H])([H])C([H])([H])C([H])([H])[N+]3([H])C([H])([H])C([H])([H])N([H])C(=O)N3C([H])([H])C([H])([H])C([H])([H])C([H])(n4nc(-c5c([H])c([H])c(Oc6c([H])c([H])c(F)c([H])c6F)c([H])c5[H])c(C(=O)N([H])[H])c4N([H])[H])C3([H])[H])c([H])c([H])c2C1([H])[H]

>  <smiles>  (15) 
[H]c1c([H])c([H])c2c(c1[H])C([H])([H])C([H])([H])C([H])([H])C2([H])N([H])C(=O)C1([H])N(C(=O)C([H])(N([H])C(=O)C([H])(N([H])C([H])([H])[H])C([H])([H])[H])C(C([H])([H])[H])(C([H])([H])[H])C([H])([H])[H])C([H])([H])c2c([H])c(OC([H])([H])C3([H])C([H])([H])C([H])([H])C([H])([H])[N+]3([H])C([H])([H])C([H])([H])N([H])C(=O)N3C([H])([H])C([H])([H])C([H])([H])C([H])(n4nc(-c5c([H])c([H])c(Oc6c([H])c([H])c(F)c([H])c6F)c([H])c5[H])c(C(=O)N([H])[H])c4N([H])[H])C3([H])[H])c([H])c([H])c2C1([H])[H]

$$$$
15:0:0
     RDKit          3D

 96104  0  0  1  0  0  0  0  0999 V2000
  -28.5770  -20.1590   21.3520 C   0  0  0  0  0  3  0  0  0  0  0  0
  -28.3220  -21.4690   21.8000 C   0  0  0  0  0  3  0  0  0  0  0  0
  -29.1910  -19.8980   20.1070 C   0  0  0  0  0  0  0  0  0  0  0  0
  -28.7150  -22.6010   21.0490 C   0  0  0  0  0  0  0  0  0  0  0  0
  -29.4080  -21.0650   19.2400 C   0  0  0  0  0  0  0  0  0  0  0  0
  -29.1930  -22.4380   19.7040 C   0  0  0  0  0  0  0  0  0  0  0  0
  -29.8700  -20.8400   17.7880 C   0  0  0  0  0  1  0  0  0  0  0  0
  -29.4190  -18.3790   19.7780 C   0  0  0  0  0  0  0  0  0  0  0  0
  -29.1310  -17.9270   18.6660 O   0  0  0  0  0  0  0  0  0  0  0  0
  -30.0980  -17.3640   20.8210 C   0  0  0  0  0  2  0  0  0  0  0  0
  -30.7110  -14.7650   20.8630 C   0  0  0  0  0  0  0  0  0  0  0  0
  -30.7980  -12.3200   20.3330 C   0  0  0  0  0  2  0  0  0  0  0  0
  -30.0200  -12.0350   19.0310 C   0  0  0  0  0  2  0  0  0  0  0  0
  -28.5140  -11.8470   19.3180 C   0  0  0  0  0  2  0  0  0  0  0  0
  -27.9370  -12.9430   20.2510 C   0  0  0  0  0  3  0  0  0  0  0  0
  -28.8400  -13.1660   21.4790 C   0  0  0  0  0  2  0  0  0  0  0  0
  -30.1760  -13.5010   20.9710 N   0  0  0  0  0  0  0  0  0  0  0  0
  -31.9290  -14.9040   20.7090 O   0  0  0  0  0  0  0  0  0  0  0  0
  -29.8460  -15.8470   20.7460 N   0  0  0  0  0  0  0  0  0  0  0  0
  -28.8660  -15.6040   20.7330 H   0  0  0  0  0  0  0  0  0  0  0  0
  -25.5000  -13.5590   20.7490 C   0  0  0  0  0  0  0  0  0  0  0  0
  -24.4030  -12.7970   21.0590 C   0  0  0  0  0  0  0  0  0  0  0  0
  -24.8620  -11.4470   21.1010 C   0  0  0  0  0  0  0  0  0  0  0  0
  -26.5540  -12.6670   20.6290 N   0  0  0  0  0  0  0  0  0  0  0  0
  -26.1730  -11.3930   20.9020 N   0  0  0  0  0  0  0  0  0  0  0  0
  -24.1140  -10.1940   21.2580 C   0  0  0  0  0  0  0  0  0  0  0  0
  -24.4960   -9.2190   22.2040 C   0  0  0  0  0  3  0  0  0  0  0  0
  -23.7500   -8.0290   22.3470 C   0  0  0  0  0  3  0  0  0  0  0  0
  -22.6050   -7.8110   21.5430 C   0  0  0  0  0  0  0  0  0  0  0  0
  -22.2420   -8.7750   20.5840 C   0  0  0  0  0  3  0  0  0  0  0  0
  -22.9910   -9.9550   20.4400 C   0  0  0  0  0  3  0  0  0  0  0  0
  -21.8310   -6.6760   21.6010 O   0  0  0  0  0  0  0  0  0  0  0  0
  -21.7800   -5.8980   22.7290 C   0  0  0  0  0  0  0  0  0  0  0  0
  -21.3470   -6.4130   23.9710 C   0  0  0  0  0  3  0  0  0  0  0  0
  -21.2350   -5.5590   25.0860 C   0  0  0  0  0  3  0  0  0  0  0  0
  -21.5500   -4.1930   24.9640 C   0  0  0  0  0  0  0  0  0  0  0  0
  -21.9800   -3.6780   23.7270 C   0  0  0  0  0  3  0  0  0  0  0  0
  -22.0900   -4.5280   22.6130 C   0  0  0  0  0  0  0  0  0  0  0  0
  -22.4830   -4.0210   21.4200 F   0  0  0  0  0  0  0  0  0  0  0  0
  -21.4340   -3.3750   26.0350 F   0  0  0  0  0  0  0  0  0  0  0  0
  -22.9910  -13.2900   21.1880 C   0  0  0  0  0  0  0  0  0  0  0  0
  -22.1840  -12.6280   22.0130 N   0  0  0  0  0  0  0  0  0  0  0  0
  -22.6080  -14.2950   20.5970 O   0  0  0  0  0  0  0  0  0  0  0  0
  -22.5100  -11.8230   22.5250 H   0  0  0  0  0  0  0  0  0  0  0  0
  -21.2340  -12.9390   22.1380 H   0  0  0  0  0  0  0  0  0  0  0  0
  -25.6730  -14.9180   20.5280 N   0  0  0  0  0  0  0  0  0  0  0  0
  -24.8370  -15.4850   20.4280 H   0  0  0  0  0  0  0  0  0  0  0  0
  -26.4400  -15.2560   19.9580 H   0  0  0  0  0  0  0  0  0  0  0  0
  -29.5600  -23.7370   18.8550 C   0  0  0  0  0  2  0  0  0  0  0  0
  -28.4060  -24.7630   18.3770 C   0  0  0  0  0  2  0  0  0  0  0  0
  -28.7190  -26.2260   18.2460 O   0  0  0  0  0  0  0  0  0  0  0  0
  -25.4280  -30.5490   22.9320 C   0  0  0  0  0  0  0  0  0  0  0  0
  -27.6790  -27.1510   18.4520 C   0  0  0  0  0  0  0  0  0  0  0  0
  -24.0840  -29.7940   21.0040 C   0  0  0  0  0  3  0  0  0  0  0  0
  -25.3940  -28.7770   19.0460 C   0  0  0  0  0  0  0  0  0  0  0  0
  -26.6160  -30.1040   20.7700 C   0  0  0  0  0  2  0  0  0  0  0  0
  -26.6080  -29.0120   19.7070 C   0  0  0  0  0  0  0  0  0  0  0  0
  -27.7540  -28.2230   19.3970 C   0  0  0  0  0  3  0  0  0  0  0  0
  -26.4660  -27.0080   17.7480 C   0  0  0  0  0  3  0  0  0  0  0  0
  -25.3340  -27.7940   18.0400 C   0  0  0  0  0  3  0  0  0  0  0  0
  -24.1960  -29.6090   19.4640 C   0  0  0  0  0  2  0  0  0  0  0  0
  -25.4000  -30.1480   21.6260 N   0  0  0  0  0  0  0  0  0  0  0  0
  -24.3870  -30.6580   23.5950 O   0  0  0  0  0  0  0  0  0  0  0  0
  -23.4280  -28.5350   21.6230 C   0  0  0  0  0  0  0  0  0  0  0  0
  -22.0940  -28.4270   21.5060 N   0  0  0  0  0  0  0  0  0  0  0  0
  -24.1180  -27.6730   22.1700 O   0  0  0  0  0  0  0  0  0  0  0  0
  -21.5890  -29.1870   21.0670 H   0  0  0  0  0  0  0  0  0  0  0  0
  -18.7150  -27.1450   21.6930 C   0  0  0  0  0  0  0  0  0  0  0  0
  -21.2790  -27.3000   21.9620 C   0  0  0  0  0  3  0  0  0  0  0  0
  -21.3580  -26.1220   20.9660 C   0  0  0  0  0  2  0  0  0  0  0  0
  -20.2220  -26.1180   19.9390 C   0  0  0  0  0  2  0  0  0  0  0  0
  -18.8620  -26.0600   20.6410 C   0  0  0  0  0  2  0  0  0  0  0  0
  -19.8510  -27.7370   22.3060 C   0  0  0  0  0  0  0  0  0  0  0  0
  -19.6580  -28.7550   23.2640 C   0  0  0  0  0  3  0  0  0  0  0  0
  -18.3640  -29.1830   23.6110 C   0  0  0  0  0  3  0  0  0  0  0  0
  -17.2440  -28.5890   23.0080 C   0  0  0  0  0  3  0  0  0  0  0  0
  -17.4200  -27.5670   22.0540 C   0  0  0  0  0  3  0  0  0  0  0  0
  -26.7670  -30.9190   23.6420 C   0  0  0  0  0  3  0  0  0  0  0  0
  -26.5230  -32.1140   24.4660 N   0  0  0  0  0  0  0  0  0  0  0  0
  -26.8600  -33.3640   24.1190 C   0  0  0  0  0  0  0  0  0  0  0  0
  -27.4810  -33.6260   23.0860 O   0  0  0  0  0  0  0  0  0  0  0  0
  -25.9750  -31.9770   25.3020 H   0  0  0  0  0  0  0  0  0  0  0  0
  -25.2010  -35.2140   24.5100 C   0  0  0  0  0  1  0  0  0  0  0  0
  -26.4450  -34.5050   25.0690 C   0  0  0  0  0  3  0  0  0  0  0  0
  -28.6360  -34.9570   26.0820 C   0  0  0  0  0  1  0  0  0  0  0  0
  -27.5220  -35.4950   25.3060 N   0  0  0  0  0  0  0  0  0  0  0  0
  -27.1580  -36.3070   25.8000 H   0  0  0  0  0  0  0  0  0  0  0  0
  -27.3410  -29.7480   24.5320 C   0  0  1  0  0  0  0  0  0  0  0  0
  -26.3200  -29.1540   25.5320 C   0  0  0  0  0  1  0  0  0  0  0  0
  -27.8480  -28.5900   23.6440 C   0  0  0  0  0  1  0  0  0  0  0  0
  -28.5630  -30.2510   25.3380 C   0  0  0  0  0  1  0  0  0  0  0  0
  -28.7290  -23.9400   21.8240 C   0  0  0  0  0  2  0  0  0  0  0  0
  -27.7230  -24.9390   21.4450 N   0  0  0  0  0  4  0  0  0  0  0  0
  -27.8850  -25.3130   20.5290 H   0  0  0  0  0  0  0  0  0  0  0  0
  -27.7970  -25.7010   22.0970 H   0  0  0  0  0  0  0  0  0  0  0  0
  -26.7960  -24.5610   21.5150 H   0  0  0  0  0  0  0  0  0  0  0  0
  1  2  1  0
  3  1  2  0
  4  2  2  0
  4 92  1  0
  5  6  2  0
  5  3  1  0
  6  4  1  0
  7  5  1  0
  8  3  1  0
  8 10  1  0
  9  8  2  0
 11 17  1  0
 12 17  1  0
 13 14  1  0
 13 12  1  0
 15 14  1  0
 15 24  1  0
 15 16  1  0
 17 16  1  0
 18 11  2  0
 19 10  1  0
 19 11  1  0
 20 19  1  0
 21 22  2  0
 22 23  1  0
 22 41  1  0
 23 26  1  0
 24 21  1  0
 24 25  1  0
 25 23  2  0
 26 27  1  0
 27 28  2  0
 29 32  1  0
 29 28  1  0
 30 29  2  0
 31 30  1  0
 31 26  2  0
 32 33  1  0
 33 34  1  0
 34 35  2  0
 36 35  1  0
 36 40  1  0
 37 36  2  0
 38 33  2  0
 38 37  1  0
 39 38  1  0
 41 42  1  0
 42 45  1  0
 42 44  1  0
 43 41  2  0
 46 21  1  0
 47 46  1  0
 48 46  1  0
 49  6  1  0
 50 49  1  0
 51 50  1  0
 51 53  1  0
 52 63  2  0
 53 58  1  0
 54 64  1  0
 54 62  1  0
 55 61  1  0
 55 57  1  0
 56 62  1  0
 57 56  1  0
 58 57  2  0
 59 60  1  0
 59 53  2  0
 60 55  2  0
 61 54  1  0
 62 52  1  0
 64 66  2  0
 65 64  1  0
 67 65  1  0
 68 77  2  0
 68 73  1  0
 69 65  1  0
 69 73  1  0
 70 69  1  0
 71 72  1  0
 71 70  1  0
 72 68  1  0
 73 74  2  0
 74 75  1  0
 76 75  2  0
 77 76  1  0
 78 52  1  0
 78 79  1  0
 78 88  1  0
 79 82  1  0
 80 79  1  0
 80 84  1  0
 81 80  2  0
 84 83  1  0
 84 86  1  0
 86 87  1  0
 86 85  1  0
 88 91  1  1
 88 89  1  0
 90 88  1  0
 93 96  1  0
 93 92  1  0
 93 95  1  0
 94 93  1  0
M  ISO  4  11 100  19 100  50 101  51 101
M  END
>  <TORSDO>  (16) 
F 22

>  <SCORE>  (16) 
-8.909

>  <name>  (16) 
15

>  <ligand_id>  (16) 
15

>  <original_smiles>  (16) 
[H]c1c([H])c([H])c2c(c1[H])C([H])([H])C([H])([H])C([H])([H])C2([H])N([H])C(=O)C1([H])N(C(=O)C([H])(N([H])C(=O)C([H])(N([H])C([H])([H])[H])C([H])([H])[H])C(C([H])([H])[H])(C([H])([H])[H])C([H])([H])[H])C([H])([H])c2c([H])c(OC([H])([H])C([H])([H])c3c(C([H])([H])[H])c(C(=O)C([H])([H])N([H])C(=O)N4C([H])([H])C([H])([H])C([H])([H])C([H])(n5nc(-c6c([H])c([H])c(Oc7c([H])c([H])c(F)c([H])c7F)c([H])c6[H])c(C(=O)N([H])[H])c5N([H])[H])C4([H])[H])c([H])c([H])c3C([H])([H])[N+]([H])([H])[H])c([H])c([H])c2C1([H])[H]

>  <smiles>  (16) 
[H]c1c([H])c([H])c2c(c1[H])C([H])([H])C([H])([H])C([H])([H])C2([H])N([H])C(=O)C1([H])N(C(=O)C([H])(N([H])C(=O)C([H])(N([H])C([H])([H])[H])C([H])([H])[H])C(C([H])([H])[H])(C([H])([H])[H])C([H])([H])[H])C([H])([H])c2c([H])c(OC([H])([H])C([H])([H])c3c(C([H])([H])[H])c(C(=O)C([H])([H])N([H])C(=O)N4C([H])([H])C([H])([H])C([H])([H])C([H])(n5nc(-c6c([H])c([H])c(Oc7c([H])c([H])c(F)c([H])c7F)c([H])c6[H])c(C(=O)N([H])[H])c5N([H])[H])C4([H])[H])c([H])c([H])c3C([H])([H])[N+]([H])([H])[H])c([H])c([H])c2C1([H])[H]

$$$$
16:0:0
     RDKit          3D

 88 96  0  0  1  0  0  0  0  0999 V2000
  -29.1620  -21.2640   20.5860 N   0  0  0  0  0  4  0  0  0  0  0  0
  -30.1600  -21.4120   20.5670 H   0  0  0  0  0  0  0  0  0  0  0  0
  -28.9250  -21.2880   21.5670 H   0  0  0  0  0  0  0  0  0  0  0  0
  -30.4480  -15.3510   20.2990 C   0  0  0  0  0  0  0  0  0  0  0  0
  -30.4460  -12.8980   19.4410 C   0  0  0  0  0  2  0  0  0  0  0  0
  -29.5490  -12.6860   18.1990 C   0  0  0  0  0  2  0  0  0  0  0  0
  -28.0890  -12.4190   18.6120 C   0  0  0  0  0  2  0  0  0  0  0  0
  -27.6140  -13.3650   19.7480 C   0  0  0  0  0  3  0  0  0  0  0  0
  -28.6540  -13.5340   20.8740 C   0  0  0  0  0  2  0  0  0  0  0  0
  -29.8760  -14.0470   20.2330 N   0  0  0  0  0  0  0  0  0  0  0  0
  -31.6870  -15.3270   20.2460 O   0  0  0  0  0  0  0  0  0  0  0  0
  -28.2950  -17.9760   18.3820 C   0  0  0  0  0  2  0  0  0  0  0  0
  -28.8070  -19.4210   18.6550 C   0  0  0  0  0  2  0  0  0  0  0  0
  -29.2560  -16.7900   18.7210 C   0  0  0  0  0  2  0  0  0  0  0  0
  -29.9070  -18.2070   20.6400 C   0  0  0  0  0  2  0  0  0  0  0  0
  -28.9730  -19.6490   20.1610 C   0  0  0  0  0  3  0  0  0  0  0  0
  -29.7060  -16.6410   20.1300 N   0  0  0  0  0  0  0  0  0  0  0  0
  -25.2340  -13.9050   20.4830 C   0  0  0  0  0  0  0  0  0  0  0  0
  -24.1740  -13.1200   20.8410 C   0  0  0  0  0  0  0  0  0  0  0  0
  -24.6560  -11.7720   20.8230 C   0  0  0  0  0  0  0  0  0  0  0  0
  -26.2880  -13.0370   20.2510 N   0  0  0  0  0  0  0  0  0  0  0  0
  -25.9520  -11.7510   20.5280 N   0  0  0  0  0  0  0  0  0  0  0  0
  -23.9400  -10.5030   21.0050 C   0  0  0  0  0  0  0  0  0  0  0  0
  -24.3540   -9.5530   21.9640 C   0  0  0  0  0  3  0  0  0  0  0  0
  -23.6330   -8.3510   22.1380 C   0  0  0  0  0  3  0  0  0  0  0  0
  -22.4860   -8.0910   21.3530 C   0  0  0  0  0  0  0  0  0  0  0  0
  -22.0930   -9.0290   20.3820 C   0  0  0  0  0  3  0  0  0  0  0  0
  -22.8140  -10.2230   20.2060 C   0  0  0  0  0  3  0  0  0  0  0  0
  -21.7410   -6.9390   21.4320 O   0  0  0  0  0  0  0  0  0  0  0  0
  -21.6490   -6.2190   22.5970 C   0  0  0  0  0  0  0  0  0  0  0  0
  -21.1360   -6.7880   23.7850 C   0  0  0  0  0  3  0  0  0  0  0  0
  -20.9940   -5.9950   24.9410 C   0  0  0  0  0  3  0  0  0  0  0  0
  -21.3510   -4.6330   24.9110 C   0  0  0  0  0  0  0  0  0  0  0  0
  -21.8570   -4.0650   23.7280 C   0  0  0  0  0  3  0  0  0  0  0  0
  -22.0020   -4.8560   22.5740 C   0  0  0  0  0  0  0  0  0  0  0  0
  -22.4670   -4.2970   21.4310 F   0  0  0  0  0  0  0  0  0  0  0  0
  -21.2100   -3.8700   26.0190 F   0  0  0  0  0  0  0  0  0  0  0  0
  -22.7680  -13.5820   21.0810 C   0  0  0  0  0  0  0  0  0  0  0  0
  -22.0250  -12.8800   21.9290 N   0  0  0  0  0  0  0  0  0  0  0  0
  -22.3330  -14.6030   20.5500 O   0  0  0  0  0  0  0  0  0  0  0  0
  -22.3890  -12.0610   22.3950 H   0  0  0  0  0  0  0  0  0  0  0  0
  -21.0760  -13.1690   22.1180 H   0  0  0  0  0  0  0  0  0  0  0  0
  -25.3900  -15.2780   20.3050 N   0  0  0  0  0  0  0  0  0  0  0  0
  -24.6230  -15.9330   20.4170 H   0  0  0  0  0  0  0  0  0  0  0  0
  -26.2520  -15.7230   20.0200 H   0  0  0  0  0  0  0  0  0  0  0  0
  -28.5360  -22.6850   19.9460 C   0  0  0  0  0  2  0  0  0  0  0  0
  -28.1800  -24.3050   20.6860 C   0  0  0  0  0  2  0  0  0  0  0  0
  -28.2430  -25.9170   20.2810 O   0  0  0  0  0  0  0  0  0  0  0  0
  -24.5930  -31.8860   23.2450 C   0  0  0  0  0  0  0  0  0  0  0  0
  -27.1970  -26.9850   20.3040 C   0  0  0  0  0  0  0  0  0  0  0  0
  -23.4210  -30.4710   21.6040 C   0  0  0  0  0  3  0  0  0  0  0  0
  -24.8870  -28.8540   20.2190 C   0  0  0  0  0  0  0  0  0  0  0  0
  -25.9850  -30.6900   21.4820 C   0  0  0  0  0  2  0  0  0  0  0  0
  -26.0680  -29.2720   20.8450 C   0  0  0  0  0  0  0  0  0  0  0  0
  -27.2180  -28.3600   20.8590 C   0  0  0  0  0  3  0  0  0  0  0  0
  -25.9800  -26.7140   19.6400 C   0  0  0  0  0  3  0  0  0  0  0  0
  -24.8660  -27.5950   19.5970 C   0  0  0  0  0  3  0  0  0  0  0  0
  -23.6670  -29.7740   20.2380 C   0  0  0  0  0  2  0  0  0  0  0  0
  -24.6870  -31.0450   22.1640 N   0  0  0  0  0  0  0  0  0  0  0  0
  -23.4980  -32.1750   23.7560 O   0  0  0  0  0  0  0  0  0  0  0  0
  -22.7230  -29.4840   22.5740 C   0  0  0  0  0  0  0  0  0  0  0  0
  -21.3930  -29.3110   22.4400 N   0  0  0  0  0  0  0  0  0  0  0  0
  -23.3820  -28.8700   23.4180 O   0  0  0  0  0  0  0  0  0  0  0  0
  -20.9130  -29.8560   21.7350 H   0  0  0  0  0  0  0  0  0  0  0  0
  -18.0150  -28.0810   22.9280 C   0  0  0  0  0  0  0  0  0  0  0  0
  -20.5700  -28.3750   23.2120 C   0  0  0  0  0  3  0  0  0  0  0  0
  -20.6900  -26.9380   22.6530 C   0  0  0  0  0  2  0  0  0  0  0  0
  -19.5990  -26.5940   21.6330 C   0  0  0  0  0  2  0  0  0  0  0  0
  -18.2110  -26.7280   22.2640 C   0  0  0  0  0  2  0  0  0  0  0  0
  -19.1210  -28.8590   23.3610 C   0  0  0  0  0  0  0  0  0  0  0  0
  -18.8800  -30.1210   23.9460 C   0  0  0  0  0  3  0  0  0  0  0  0
  -17.5670  -30.6030   24.1050 C   0  0  0  0  0  3  0  0  0  0  0  0
  -16.4760  -29.8220   23.6870 C   0  0  0  0  0  3  0  0  0  0  0  0
  -16.7010  -28.5620   23.1030 C   0  0  0  0  0  3  0  0  0  0  0  0
  -25.8570  -32.5420   23.8820 C   0  0  0  0  0  3  0  0  0  0  0  0
  -25.5350  -33.9480   24.1860 N   0  0  0  0  0  0  0  0  0  0  0  0
  -25.8850  -34.9980   23.4280 C   0  0  0  0  0  0  0  0  0  0  0  0
  -26.5740  -34.8820   22.4120 O   0  0  0  0  0  0  0  0  0  0  0  0
  -24.9230  -34.1080   24.9730 H   0  0  0  0  0  0  0  0  0  0  0  0
  -24.1790  -36.8060   23.0240 C   0  0  0  0  0  1  0  0  0  0  0  0
  -25.3970  -36.3940   23.8670 C   0  0  0  0  0  3  0  0  0  0  0  0
  -27.5140  -37.2770   24.7460 C   0  0  0  0  0  1  0  0  0  0  0  0
  -26.4380  -37.4410   23.7730 N   0  0  0  0  0  0  0  0  0  0  0  0
  -26.0310  -38.3630   23.9010 H   0  0  0  0  0  0  0  0  0  0  0  0
  -26.3420  -31.8020   25.1920 C   0  0  1  0  0  0  0  0  0  0  0  0
  -25.2270  -31.5960   26.2430 C   0  0  0  0  0  1  0  0  0  0  0  0
  -26.9300  -30.4120   24.8590 C   0  0  0  0  0  1  0  0  0  0  0  0
  -27.4820  -32.6100   25.8550 C   0  0  0  0  0  1  0  0  0  0  0  0
  1  3  1  0
  2  1  1  0
  5 10  1  0
  6  7  1  0
  6  5  1  0
  8  7  1  0
  8 21  1  0
  8  9  1  0
 10  4  1  0
 10  9  1  0
 11  4  2  0
 12 13  1  0
 12 14  1  0
 13 16  1  0
 14 17  1  0
 16  1  1  0
 16 15  1  0
 17  4  1  0
 17 15  1  0
 18 19  2  0
 19 38  1  0
 20 19  1  0
 20 23  1  0
 21 18  1  0
 21 22  1  0
 22 20  2  0
 23 24  1  0
 24 25  2  0
 26 29  1  0
 26 25  1  0
 27 26  2  0
 28 27  1  0
 28 23  2  0
 29 30  1  0
 30 31  1  0
 31 32  2  0
 33 32  1  0
 33 37  1  0
 34 33  2  0
 35 30  2  0
 35 34  1  0
 36 35  1  0
 38 39  1  0
 39 42  1  0
 39 41  1  0
 40 38  2  0
 43 44  1  0
 43 18  1  0
 45 43  1  0
 46  1  1  0
 46 47  1  0
 48 50  1  0
 48 47  1  0
 49 60  2  0
 50 55  1  0
 51 59  1  0
 51 61  1  0
 52 58  1  0
 52 54  1  0
 53 59  1  0
 54 55  2  0
 54 53  1  0
 56 50  2  0
 57 56  1  0
 57 52  2  0
 58 51  1  0
 59 49  1  0
 61 63  2  0
 62 61  1  0
 64 62  1  0
 65 74  2  0
 65 70  1  0
 66 62  1  0
 66 70  1  0
 67 66  1  0
 68 69  1  0
 68 67  1  0
 69 65  1  0
 70 71  2  0
 71 72  1  0
 73 72  2  0
 74 73  1  0
 75 49  1  0
 75 76  1  0
 75 85  1  0
 76 79  1  0
 77 81  1  0
 77 76  1  0
 78 77  2  0
 81 80  1  0
 83 81  1  0
 83 84  1  0
 83 82  1  0
 85 88  1  1
 85 86  1  0
 87 85  1  0
M  ISO  4   4 100  17 100  47 101  48 101
M  END
>  <TORSDO>  (17) 
F 18

>  <SCORE>  (17) 
-16.560

>  <name>  (17) 
16

>  <ligand_id>  (17) 
16

>  <original_smiles>  (17) 
[H]c1c([H])c([H])c2c(c1[H])C([H])([H])C([H])([H])C([H])([H])C2([H])N([H])C(=O)C1([H])N(C(=O)C([H])(N([H])C(=O)C([H])(N([H])C([H])([H])[H])C([H])([H])[H])C(C([H])([H])[H])(C([H])([H])[H])C([H])([H])[H])C([H])([H])c2c([H])c(OC([H])([H])C([H])([H])[N+]([H])([H])C3([H])C([H])([H])N(C(=O)N4C([H])([H])C([H])([H])C([H])([H])C([H])(n5nc(-c6c([H])c([H])c(Oc7c([H])c([H])c(F)c([H])c7F)c([H])c6[H])c(C(=O)N([H])[H])c5N([H])[H])C4([H])[H])C([H])([H])C([H])([H])C3([H])[H])c([H])c([H])c2C1([H])[H]

>  <smiles>  (17) 
[H]c1c([H])c([H])c2c(c1[H])C([H])([H])C([H])([H])C([H])([H])C2([H])N([H])C(=O)C1([H])N(C(=O)C([H])(N([H])C(=O)C([H])(N([H])C([H])([H])[H])C([H])([H])[H])C(C([H])([H])[H])(C([H])([H])[H])C([H])([H])[H])C([H])([H])c2c([H])c(OC([H])([H])C([H])([H])[N+]([H])([H])C3([H])C([H])([H])N(C(=O)N4C([H])([H])C([H])([H])C([H])([H])C([H])(n5nc(-c6c([H])c([H])c(Oc7c([H])c([H])c(F)c([H])c7F)c([H])c6[H])c(C(=O)N([H])[H])c5N([H])[H])C4([H])[H])C([H])([H])C([H])([H])C3([H])[H])c([H])c([H])c2C1([H])[H]

$$$$
17:0:0
     RDKit          3D

 92101  0  0  1  0  0  0  0  0999 V2000
  -25.6990  -22.4010   18.4890 C   0  0  0  0  0  2  0  0  0  0  0  0
  -27.0130  -23.1520   18.5070 C   0  0  0  0  0  2  0  0  0  0  0  0
  -26.0700  -20.9510   18.4110 C   0  0  0  0  0  2  0  0  0  0  0  0
  -27.9320  -22.8980   19.8010 C   0  0  0  0  0  3  0  0  0  0  0  0
  -28.4510  -21.1800   19.4250 C   0  0  0  0  0  3  0  0  0  0  0  0
  -27.0290  -20.6770   19.4940 N   0  0  0  0  0  4  0  0  0  0  0  0
  -27.1320  -19.6740   19.5120 H   0  0  0  0  0  0  0  0  0  0  0  0
  -26.6240  -20.9460   20.3760 H   0  0  0  0  0  0  0  0  0  0  0  0
  -30.5480  -15.3240   20.2210 C   0  0  0  0  0  0  0  0  0  0  0  0
  -30.5140  -12.8820   19.3690 C   0  0  0  0  0  2  0  0  0  0  0  0
  -29.5720  -12.6370   18.1630 C   0  0  0  0  0  2  0  0  0  0  0  0
  -28.1410  -12.3090   18.6350 C   0  0  0  0  0  2  0  0  0  0  0  0
  -27.6640  -13.2830   19.7300 C   0  0  0  0  0  3  0  0  0  0  0  0
  -28.7370  -13.5130   20.8320 C   0  0  0  0  0  2  0  0  0  0  0  0
  -29.9640  -14.0230   20.1750 N   0  0  0  0  0  0  0  0  0  0  0  0
  -31.7840  -15.3120   20.1520 O   0  0  0  0  0  0  0  0  0  0  0  0
  -27.6870  -17.5100   18.8300 C   0  0  0  0  0  2  0  0  0  0  0  0
  -28.5390  -18.7140   18.5190 C   0  0  0  0  0  2  0  0  0  0  0  0
  -28.4890  -16.3720   19.4600 C   0  0  0  0  0  2  0  0  0  0  0  0
  -30.0770  -18.2250   20.2320 C   0  0  0  0  0  2  0  0  0  0  0  0
  -28.8750  -19.4520   19.8550 C   0  0  0  0  0  3  0  0  0  0  0  0
  -29.7840  -16.5990   20.1110 N   0  0  0  0  0  0  0  0  0  0  0  0
  -25.2970  -13.8810   20.4950 C   0  0  0  0  0  0  0  0  0  0  0  0
  -24.2370  -13.1070   20.8650 C   0  0  0  0  0  0  0  0  0  0  0  0
  -24.7090  -11.7600   20.8330 C   0  0  0  0  0  0  0  0  0  0  0  0
  -26.3430  -12.9980   20.2570 N   0  0  0  0  0  0  0  0  0  0  0  0
  -25.9980  -11.7200   20.5280 N   0  0  0  0  0  0  0  0  0  0  0  0
  -23.9900  -10.4980   21.0130 C   0  0  0  0  0  0  0  0  0  0  0  0
  -24.4200   -9.5380   21.9530 C   0  0  0  0  0  3  0  0  0  0  0  0
  -23.7010   -8.3360   22.1220 C   0  0  0  0  0  3  0  0  0  0  0  0
  -22.5410   -8.0910   21.3500 C   0  0  0  0  0  0  0  0  0  0  0  0
  -22.1320   -9.0420   20.3970 C   0  0  0  0  0  3  0  0  0  0  0  0
  -22.8530  -10.2340   20.2260 C   0  0  0  0  0  3  0  0  0  0  0  0
  -21.7940   -6.9430   21.4310 O   0  0  0  0  0  0  0  0  0  0  0  0
  -21.7150   -6.2190   22.5930 C   0  0  0  0  0  0  0  0  0  0  0  0
  -21.2080   -6.7780   23.7860 C   0  0  0  0  0  3  0  0  0  0  0  0
  -21.0800   -5.9770   24.9390 C   0  0  0  0  0  3  0  0  0  0  0  0
  -21.4490   -4.6190   24.8970 C   0  0  0  0  0  0  0  0  0  0  0  0
  -21.9500   -4.0610   23.7090 C   0  0  0  0  0  3  0  0  0  0  0  0
  -22.0810   -4.8590   22.5590 C   0  0  0  0  0  0  0  0  0  0  0  0
  -22.5440   -4.3100   21.4100 F   0  0  0  0  0  0  0  0  0  0  0  0
  -21.3190   -3.8470   26.0020 F   0  0  0  0  0  0  0  0  0  0  0  0
  -22.8390  -13.5830   21.1270 C   0  0  0  0  0  0  0  0  0  0  0  0
  -22.1120  -12.8900   21.9950 N   0  0  0  0  0  0  0  0  0  0  0  0
  -22.4010  -14.6050   20.6000 O   0  0  0  0  0  0  0  0  0  0  0  0
  -22.4780  -12.0630   22.4420 H   0  0  0  0  0  0  0  0  0  0  0  0
  -21.1720  -13.1900   22.2140 H   0  0  0  0  0  0  0  0  0  0  0  0
  -25.4300  -15.2520   20.3070 N   0  0  0  0  0  0  0  0  0  0  0  0
  -24.6410  -15.8790   20.4090 H   0  0  0  0  0  0  0  0  0  0  0  0
  -26.2530  -15.7020   19.9310 H   0  0  0  0  0  0  0  0  0  0  0  0
  -28.4860  -24.5880   19.7900 C   0  0  0  0  0  2  0  0  0  0  0  0
  -28.2990  -26.1320   20.2540 O   0  0  0  0  0  0  0  0  0  0  0  0
  -24.6180  -31.8950   23.1740 C   0  0  0  0  0  0  0  0  0  0  0  0
  -27.2250  -27.1350   20.1170 C   0  0  0  0  0  0  0  0  0  0  0  0
  -23.4210  -30.4920   21.5400 C   0  0  0  0  0  3  0  0  0  0  0  0
  -24.8770  -28.9200   20.1010 C   0  0  0  0  0  0  0  0  0  0  0  0
  -25.9780  -30.7530   21.3710 C   0  0  0  0  0  2  0  0  0  0  0  0
  -26.0580  -29.3560   20.7110 C   0  0  0  0  0  0  0  0  0  0  0  0
  -27.2200  -28.4810   20.7030 C   0  0  0  0  0  3  0  0  0  0  0  0
  -26.0100  -26.8320   19.4570 C   0  0  0  0  0  3  0  0  0  0  0  0
  -24.8710  -27.6730   19.4570 C   0  0  0  0  0  3  0  0  0  0  0  0
  -23.6430  -29.8140   20.1610 C   0  0  0  0  0  2  0  0  0  0  0  0
  -24.6930  -31.0710   22.0820 N   0  0  0  0  0  0  0  0  0  0  0  0
  -23.5310  -32.1740   23.7060 O   0  0  0  0  0  0  0  0  0  0  0  0
  -22.7490  -29.4850   22.5080 C   0  0  0  0  0  0  0  0  0  0  0  0
  -21.4190  -29.3120   22.3930 N   0  0  0  0  0  0  0  0  0  0  0  0
  -23.4270  -28.8600   23.3280 O   0  0  0  0  0  0  0  0  0  0  0  0
  -20.9260  -29.8670   21.7080 H   0  0  0  0  0  0  0  0  0  0  0  0
  -18.0450  -28.0990   22.9340 C   0  0  0  0  0  0  0  0  0  0  0  0
  -20.6070  -28.3690   23.1700 C   0  0  0  0  0  3  0  0  0  0  0  0
  -20.7050  -26.9400   22.5880 C   0  0  0  0  0  2  0  0  0  0  0  0
  -19.5920  -26.6200   21.5840 C   0  0  0  0  0  2  0  0  0  0  0  0
  -18.2180  -26.7560   22.2460 C   0  0  0  0  0  2  0  0  0  0  0  0
  -19.1660  -28.8640   23.3530 C   0  0  0  0  0  0  0  0  0  0  0  0
  -18.9490  -30.1200   23.9600 C   0  0  0  0  0  3  0  0  0  0  0  0
  -17.6440  -30.6130   24.1490 C   0  0  0  0  0  3  0  0  0  0  0  0
  -16.5380  -29.8470   23.7440 C   0  0  0  0  0  3  0  0  0  0  0  0
  -16.7390  -28.5920   23.1430 C   0  0  0  0  0  3  0  0  0  0  0  0
  -25.8920  -32.5430   23.7960 C   0  0  0  0  0  3  0  0  0  0  0  0
  -25.5700  -33.9400   24.1320 N   0  0  0  0  0  0  0  0  0  0  0  0
  -25.8890  -35.0020   23.3810 C   0  0  0  0  0  0  0  0  0  0  0  0
  -26.5500  -34.9100   22.3430 O   0  0  0  0  0  0  0  0  0  0  0  0
  -24.9790  -34.0840   24.9380 H   0  0  0  0  0  0  0  0  0  0  0  0
  -24.1560  -36.7980   23.0500 C   0  0  0  0  0  1  0  0  0  0  0  0
  -25.4000  -36.3860   23.8530 C   0  0  0  0  0  3  0  0  0  0  0  0
  -27.5290  -37.2760   24.6920 C   0  0  0  0  0  1  0  0  0  0  0  0
  -26.4290  -37.4430   23.7470 N   0  0  0  0  0  0  0  0  0  0  0  0
  -26.0200  -38.3620   23.8960 H   0  0  0  0  0  0  0  0  0  0  0  0
  -26.4120  -31.7800   25.0780 C   0  0  1  0  0  0  0  0  0  0  0  0
  -25.3190  -31.5410   26.1460 C   0  0  0  0  0  1  0  0  0  0  0  0
  -27.0050  -30.4030   24.6990 C   0  0  0  0  0  1  0  0  0  0  0  0
  -27.5560  -32.5850   25.7370 C   0  0  0  0  0  1  0  0  0  0  0  0
  1  2  1  0
  2  4  1  0
  3  1  1  0
  3  6  1  0
  4 51  1  0
  5  6  1  0
  5  4  1  0
  5 21  1  0
  6  7  1  0
  6  8  1  0
 10 15  1  0
 11 12  1  0
 11 10  1  0
 13 12  1  0
 13 26  1  0
 13 14  1  0
 15  9  1  0
 15 14  1  0
 16  9  2  0
 17 19  1  0
 18 17  1  0
 19 22  1  0
 21 18  1  0
 21 20  1  0
 22  9  1  0
 22 20  1  0
 23 24  2  0
 24 43  1  0
 25 24  1  0
 25 28  1  0
 26 23  1  0
 26 27  1  0
 27 25  2  0
 28 29  1  0
 29 30  2  0
 31 34  1  0
 31 30  1  0
 32 31  2  0
 33 32  1  0
 33 28  2  0
 34 35  1  0
 35 36  1  0
 36 37  2  0
 38 37  1  0
 38 42  1  0
 39 38  2  0
 40 35  2  0
 40 39  1  0
 41 40  1  0
 43 44  1  0
 44 47  1  0
 44 46  1  0
 45 43  2  0
 48 49  1  0
 48 23  1  0
 50 48  1  0
 51 52  1  0
 53 64  2  0
 54 52  1  0
 54 59  1  0
 55 63  1  0
 55 65  1  0
 56 62  1  0
 56 58  1  0
 57 63  1  0
 58 57  1  0
 59 58  2  0
 60 61  1  0
 60 54  2  0
 61 56  2  0
 62 55  1  0
 63 53  1  0
 65 67  2  0
 66 65  1  0
 68 66  1  0
 69 78  2  0
 69 74  1  0
 70 66  1  0
 70 74  1  0
 71 70  1  0
 72 73  1  0
 72 71  1  0
 73 69  1  0
 74 75  2  0
 75 76  1  0
 77 76  2  0
 78 77  1  0
 79 53  1  0
 79 80  1  0
 79 89  1  0
 80 83  1  0
 81 85  1  0
 81 80  1  0
 82 81  2  0
 85 84  1  0
 87 85  1  0
 87 88  1  0
 87 86  1  0
 89 92  1  1
 89 90  1  0
 91 89  1  0
M  ISO  4   9 100  22 100  51 101  52 101
M  END
>  <TORSDO>  (18) 
F 17

>  <SCORE>  (18) 
-16.673

>  <name>  (18) 
17

>  <ligand_id>  (18) 
17

>  <original_smiles>  (18) 
[H]c1c([H])c([H])c2c(c1[H])C([H])([H])C([H])([H])C([H])([H])C2([H])N([H])C(=O)C1([H])N(C(=O)C([H])(N([H])C(=O)C([H])(N([H])C([H])([H])[H])C([H])([H])[H])C(C([H])([H])[H])(C([H])([H])[H])C([H])([H])[H])C([H])([H])c2c([H])c(OC([H])([H])C3([H])C([H])([H])C([H])([H])C([H])([H])[N+]([H])([H])C3([H])C3([H])C([H])([H])N(C(=O)N4C([H])([H])C([H])([H])C([H])([H])C([H])(n5nc(-c6c([H])c([H])c(Oc7c([H])c([H])c(F)c([H])c7F)c([H])c6[H])c(C(=O)N([H])[H])c5N([H])[H])C4([H])[H])C([H])([H])C([H])([H])C3([H])[H])c([H])c([H])c2C1([H])[H]

>  <smiles>  (18) 
[H]c1c([H])c([H])c2c(c1[H])C([H])([H])C([H])([H])C([H])([H])C2([H])N([H])C(=O)C1([H])N(C(=O)C([H])(N([H])C(=O)C([H])(N([H])C([H])([H])[H])C([H])([H])[H])C(C([H])([H])[H])(C([H])([H])[H])C([H])([H])[H])C([H])([H])c2c([H])c(OC([H])([H])C3([H])C([H])([H])C([H])([H])C([H])([H])[N+]([H])([H])C3([H])C3([H])C([H])([H])N(C(=O)N4C([H])([H])C([H])([H])C([H])([H])C([H])(n5nc(-c6c([H])c([H])c(Oc7c([H])c([H])c(F)c([H])c7F)c([H])c6[H])c(C(=O)N([H])[H])c5N([H])[H])C4([H])[H])C([H])([H])C([H])([H])C3([H])[H])c([H])c([H])c2C1([H])[H]

$$$$
18:0:0
     RDKit          3D

 94102  0  0  1  0  0  0  0  0999 V2000
  -30.2160  -19.7260   19.0910 C   0  0  0  0  0  2  0  0  0  0  0  0
  -28.6660  -20.2590   20.9500 C   0  0  0  0  0  2  0  0  0  0  0  0
  -30.9890  -18.7540   20.0110 C   0  0  0  0  0  2  0  0  0  0  0  0
  -29.4460  -19.3020   21.8700 C   0  0  0  0  0  2  0  0  0  0  0  0
  -29.5910  -20.8850   19.8870 C   0  0  0  0  0  3  0  0  0  0  0  0
  -30.1530  -18.2200   21.1270 N   0  0  2  0  0  4  0  0  0  0  0  0
  -29.4430  -17.6320   20.7130 H   0  0  0  0  0  0  0  0  0  0  0  0
  -28.8620  -21.9110   18.9840 C   0  0  0  0  0  2  0  0  0  0  0  0
  -28.3330  -23.0520   19.7710 N   0  0  0  0  0  4  0  0  0  0  0  0
  -28.4640  -22.8400   20.7480 H   0  0  0  0  0  0  0  0  0  0  0  0
  -27.3350  -23.0980   19.6150 H   0  0  0  0  0  0  0  0  0  0  0  0
  -28.9220  -24.3890   19.4820 C   0  0  0  0  0  2  0  0  0  0  0  0
  -28.5510  -25.4200   20.5720 C   0  0  0  0  0  2  0  0  0  0  0  0
  -28.6770  -26.7760   20.1180 O   0  0  0  0  0  0  0  0  0  0  0  0
  -24.6820  -31.7580   23.2490 C   0  0  0  0  0  0  0  0  0  0  0  0
  -27.5020  -27.4900   20.0880 C   0  0  0  0  0  0  0  0  0  0  0  0
  -23.5520  -30.3950   21.5220 C   0  0  0  0  0  3  0  0  0  0  0  0
  -25.0770  -28.9380   20.0880 C   0  0  0  0  0  0  0  0  0  0  0  0
  -26.0730  -30.8120   21.4100 C   0  0  0  0  0  2  0  0  0  0  0  0
  -26.2070  -29.4690   20.7210 C   0  0  0  0  0  0  0  0  0  0  0  0
  -27.4260  -28.7550   20.7140 C   0  0  0  0  0  3  0  0  0  0  0  0
  -26.3540  -26.9730   19.4470 C   0  0  0  0  0  3  0  0  0  0  0  0
  -25.1450  -27.6880   19.4500 C   0  0  0  0  0  3  0  0  0  0  0  0
  -23.8150  -29.7680   20.1270 C   0  0  0  0  0  2  0  0  0  0  0  0
  -24.7850  -30.9980   22.1210 N   0  0  0  0  0  0  0  0  0  0  0  0
  -23.5820  -31.9920   23.7670 O   0  0  0  0  0  0  0  0  0  0  0  0
  -22.8900  -29.3300   22.4240 C   0  0  0  0  0  0  0  0  0  0  0  0
  -21.5670  -29.1520   22.2680 N   0  0  0  0  0  0  0  0  0  0  0  0
  -23.5630  -28.6650   23.2200 O   0  0  0  0  0  0  0  0  0  0  0  0
  -21.0870  -29.7320   21.5930 H   0  0  0  0  0  0  0  0  0  0  0  0
  -18.1830  -27.9680   22.7020 C   0  0  0  0  0  0  0  0  0  0  0  0
  -20.7440  -28.1800   22.9840 C   0  0  0  0  0  3  0  0  0  0  0  0
  -20.8300  -26.7860   22.3200 C   0  0  0  0  0  2  0  0  0  0  0  0
  -19.7230  -26.5370   21.2900 C   0  0  0  0  0  2  0  0  0  0  0  0
  -18.3430  -26.6600   21.9450 C   0  0  0  0  0  2  0  0  0  0  0  0
  -19.3110  -28.6900   23.1750 C   0  0  0  0  0  0  0  0  0  0  0  0
  -19.1100  -29.9170   23.8410 C   0  0  0  0  0  3  0  0  0  0  0  0
  -17.8120  -30.4250   24.0350 C   0  0  0  0  0  3  0  0  0  0  0  0
  -16.6980  -29.6970   23.5810 C   0  0  0  0  0  3  0  0  0  0  0  0
  -16.8840  -28.4710   22.9200 C   0  0  0  0  0  3  0  0  0  0  0  0
  -25.9370  -32.3880   23.9270 C   0  0  0  0  0  3  0  0  0  0  0  0
  -25.5970  -33.7700   24.2910 N   0  0  0  0  0  0  0  0  0  0  0  0
  -25.9330  -34.8490   23.5720 C   0  0  0  0  0  0  0  0  0  0  0  0
  -26.6310  -34.7870   22.5570 O   0  0  0  0  0  0  0  0  0  0  0  0
  -24.9780  -33.8990   25.0780 H   0  0  0  0  0  0  0  0  0  0  0  0
  -24.1860  -36.6240   23.2210 C   0  0  0  0  0  1  0  0  0  0  0  0
  -25.4070  -36.2140   24.0580 C   0  0  0  0  0  3  0  0  0  0  0  0
  -27.4940  -37.1070   24.9940 C   0  0  0  0  0  1  0  0  0  0  0  0
  -26.4240  -37.2870   24.0140 N   0  0  0  0  0  0  0  0  0  0  0  0
  -25.9980  -38.1960   24.1720 H   0  0  0  0  0  0  0  0  0  0  0  0
  -26.4300  -31.5800   25.1910 C   0  0  1  0  0  0  0  0  0  0  0  0
  -25.3050  -31.2710   26.2080 C   0  0  0  0  0  1  0  0  0  0  0  0
  -27.0560  -30.2320   24.7630 C   0  0  0  0  0  1  0  0  0  0  0  0
  -27.5430  -32.3720   25.9160 C   0  0  0  0  0  1  0  0  0  0  0  0
  -30.9140  -17.3660   22.0810 C   0  0  0  0  0  2  0  0  0  0  0  0
  -31.6310  -16.1440   21.4680 C   0  0  0  0  0  2  0  0  0  0  0  0
  -31.0180  -14.2720   19.9680 C   0  0  0  0  0  0  0  0  0  0  0  0
  -30.5060  -12.1600   18.8080 C   0  0  0  0  0  2  0  0  0  0  0  0
  -29.4670  -12.3560   17.6890 C   0  0  0  0  0  2  0  0  0  0  0  0
  -28.0380  -12.2390   18.2520 C   0  0  0  0  0  2  0  0  0  0  0  0
  -27.8240  -13.1120   19.5170 C   0  0  0  0  0  3  0  0  0  0  0  0
  -28.9650  -12.9060   20.5380 C   0  0  0  0  0  2  0  0  0  0  0  0
  -30.2520  -13.1560   19.8600 N   0  0  0  0  0  0  0  0  0  0  0  0
  -31.9700  -14.5090   19.2210 O   0  0  0  0  0  0  0  0  0  0  0  0
  -30.7280  -15.0890   20.9890 N   0  0  0  0  0  0  0  0  0  0  0  0
  -29.9650  -14.8090   21.5870 H   0  0  0  0  0  0  0  0  0  0  0  0
  -25.5350  -13.7740   20.4940 C   0  0  0  0  0  0  0  0  0  0  0  0
  -24.4730  -13.0260   20.9250 C   0  0  0  0  0  0  0  0  0  0  0  0
  -24.8640  -11.6600   20.7690 C   0  0  0  0  0  0  0  0  0  0  0  0
  -26.5110  -12.8660   20.1120 N   0  0  0  0  0  0  0  0  0  0  0  0
  -26.1150  -11.5860   20.3310 N   0  0  0  0  0  0  0  0  0  0  0  0
  -24.1010  -10.4200   20.9580 C   0  0  0  0  0  0  0  0  0  0  0  0
  -24.5250   -9.4230   21.8660 C   0  0  0  0  0  3  0  0  0  0  0  0
  -23.7650   -8.2470   22.0440 C   0  0  0  0  0  3  0  0  0  0  0  0
  -22.5680   -8.0600   21.3130 C   0  0  0  0  0  0  0  0  0  0  0  0
  -22.1630   -9.0430   20.3940 C   0  0  0  0  0  3  0  0  0  0  0  0
  -22.9230  -10.2110   20.2140 C   0  0  0  0  0  3  0  0  0  0  0  0
  -21.7780   -6.9390   21.4040 O   0  0  0  0  0  0  0  0  0  0  0  0
  -21.6600   -6.2320   22.5740 C   0  0  0  0  0  0  0  0  0  0  0  0
  -21.1510   -6.8200   23.7520 C   0  0  0  0  0  3  0  0  0  0  0  0
  -20.9820   -6.0380   24.9130 C   0  0  0  0  0  3  0  0  0  0  0  0
  -21.3120   -4.6690   24.8950 C   0  0  0  0  0  0  0  0  0  0  0  0
  -21.8150   -4.0820   23.7200 C   0  0  0  0  0  3  0  0  0  0  0  0
  -21.9860   -4.8610   22.5630 C   0  0  0  0  0  0  0  0  0  0  0  0
  -22.4490   -4.2830   21.4290 F   0  0  0  0  0  0  0  0  0  0  0  0
  -21.1430   -3.9180   26.0070 F   0  0  0  0  0  0  0  0  0  0  0  0
  -23.1340  -13.5410   21.3650 C   0  0  0  0  0  0  0  0  0  0  0  0
  -22.4690  -12.8300   22.2680 N   0  0  0  0  0  0  0  0  0  0  0  0
  -22.6890  -14.6090   20.9440 O   0  0  0  0  0  0  0  0  0  0  0  0
  -22.8430  -11.9650   22.6290 H   0  0  0  0  0  0  0  0  0  0  0  0
  -21.5730  -13.1540   22.6040 H   0  0  0  0  0  0  0  0  0  0  0  0
  -25.7460  -15.1450   20.3790 N   0  0  0  0  0  0  0  0  0  0  0  0
  -25.0190  -15.8200   20.5890 H   0  0  0  0  0  0  0  0  0  0  0  0
  -26.5710  -15.5640   19.9680 H   0  0  0  0  0  0  0  0  0  0  0  0
  1  5  1  0
  1  3  1  0
  2  4  1  0
  3  6  1  0
  5  8  1  0
  5  2  1  0
  6  4  1  0
  6 55  1  0
  6  7  1  6
  8  9  1  0
  9 10  1  0
 11  9  1  0
 12  9  1  0
 12 13  1  0
 14 13  1  0
 15 26  2  0
 16 14  1  0
 16 21  1  0
 17 25  1  0
 17 27  1  0
 18 24  1  0
 18 20  1  0
 19 25  1  0
 20 19  1  0
 21 20  2  0
 22 23  1  0
 22 16  2  0
 23 18  2  0
 24 17  1  0
 25 15  1  0
 27 29  2  0
 28 27  1  0
 30 28  1  0
 31 40  2  0
 31 36  1  0
 32 28  1  0
 32 36  1  0
 33 32  1  0
 34 35  1  0
 34 33  1  0
 35 31  1  0
 36 37  2  0
 37 38  1  0
 39 38  2  0
 40 39  1  0
 41 15  1  0
 41 42  1  0
 41 51  1  0
 42 45  1  0
 43 47  1  0
 43 42  1  0
 44 43  2  0
 47 46  1  0
 49 47  1  0
 49 50  1  0
 49 48  1  0
 51 54  1  1
 51 52  1  0
 53 51  1  0
 56 55  1  0
 57 65  1  0
 58 63  1  0
 59 60  1  0
 59 58  1  0
 61 60  1  0
 61 70  1  0
 61 62  1  0
 63 57  1  0
 63 62  1  0
 64 57  2  0
 65 56  1  0
 65 66  1  0
 67 68  2  0
 68 87  1  0
 69 68  1  0
 69 72  1  0
 70 71  1  0
 70 67  1  0
 71 69  2  0
 72 73  1  0
 73 74  2  0
 75 78  1  0
 75 74  1  0
 76 75  2  0
 77 76  1  0
 77 72  2  0
 78 79  1  0
 79 80  1  0
 80 81  2  0
 82 81  1  0
 82 86  1  0
 83 82  2  0
 84 79  2  0
 84 83  1  0
 85 84  1  0
 87 88  1  0
 88 91  1  0
 88 90  1  0
 89 87  2  0
 92 67  1  0
 92 93  1  0
 94 92  1  0
M  ISO  4  13 101  14 101  57 100  65 100
M  END
>  <TORSDO>  (19) 
F 22

>  <SCORE>  (19) 
-11.627

>  <name>  (19) 
18

>  <ligand_id>  (19) 
18

>  <original_smiles>  (19) 
[H]c1c([H])c([H])c2c(c1[H])C([H])([H])C([H])([H])C([H])([H])C2([H])N([H])C(=O)C1([H])N(C(=O)C([H])(N([H])C(=O)C([H])(N([H])C([H])([H])[H])C([H])([H])[H])C(C([H])([H])[H])(C([H])([H])[H])C([H])([H])[H])C([H])([H])c2c([H])c(OC([H])([H])C([H])([H])[N+]([H])([H])C([H])([H])C3([H])C([H])([H])C([H])([H])[N+]([H])(C([H])([H])C([H])([H])N([H])C(=O)N4C([H])([H])C([H])([H])C([H])([H])C([H])(n5nc(-c6c([H])c([H])c(Oc7c([H])c([H])c(F)c([H])c7F)c([H])c6[H])c(C(=O)N([H])[H])c5N([H])[H])C4([H])[H])C([H])([H])C3([H])[H])c([H])c([H])c2C1([H])[H]

>  <smiles>  (19) 
[H]c1c([H])c([H])c2c(c1[H])C([H])([H])C([H])([H])C([H])([H])C2([H])N([H])C(=O)C1([H])N(C(=O)C([H])(N([H])C(=O)C([H])(N([H])C([H])([H])[H])C([H])([H])[H])C(C([H])([H])[H])(C([H])([H])[H])C([H])([H])[H])C([H])([H])c2c([H])c(OC([H])([H])C([H])([H])[N+]([H])([H])C([H])([H])C3([H])C([H])([H])C([H])([H])[N+]([H])(C([H])([H])C([H])([H])N([H])C(=O)N4C([H])([H])C([H])([H])C([H])([H])C([H])(n5nc(-c6c([H])c([H])c(Oc7c([H])c([H])c(F)c([H])c7F)c([H])c6[H])c(C(=O)N([H])[H])c5N([H])[H])C4([H])[H])C([H])([H])C3([H])[H])c([H])c([H])c2C1([H])[H]

$$$$
19:0:0
     RDKit          3D

 92101  0  0  1  0  0  0  0  0999 V2000
  -26.7280  -19.2830   19.5510 C   0  0  0  0  0  2  0  0  0  0  0  0
  -27.7760  -18.1890   19.2590 C   0  0  0  0  0  2  0  0  0  0  0  0
  -31.0380  -18.0710   21.2330 C   0  0  0  0  0  2  0  0  0  0  0  0
  -30.5500  -19.5620   21.3540 C   0  0  0  0  0  2  0  0  0  0  0  0
  -27.3120  -20.7200   19.5120 C   0  0  0  0  0  2  0  0  0  0  0  0
  -28.8530  -18.3120   20.3300 C   0  0  0  0  0  3  0  0  0  0  0  0
  -30.0680  -17.2950   20.2990 C   0  0  0  0  0  3  0  0  0  0  0  0
  -29.4710  -19.7640   20.2720 C   0  0  0  0  0  3  0  0  0  0  0  0
  -28.4970  -20.9570   20.3990 N   0  0  1  0  0  4  0  0  0  0  0  0
  -28.1580  -20.9510   21.3510 H   0  0  0  0  0  0  0  0  0  0  0  0
  -30.6190  -14.7260   20.3700 C   0  0  0  0  0  0  0  0  0  0  0  0
  -30.4030  -12.4820   19.3050 C   0  0  0  0  0  2  0  0  0  0  0  0
  -29.4470  -12.6110   18.0980 C   0  0  0  0  0  2  0  0  0  0  0  0
  -27.9790  -12.4510   18.5390 C   0  0  0  0  0  2  0  0  0  0  0  0
  -27.6370  -13.3000   19.7940 C   0  0  0  0  0  3  0  0  0  0  0  0
  -28.7070  -13.1470   20.8980 C   0  0  0  0  0  2  0  0  0  0  0  0
  -30.0020  -13.5000   20.3030 N   0  0  0  0  0  0  0  0  0  0  0  0
  -31.7830  -14.8580   19.9790 O   0  0  0  0  0  0  0  0  0  0  0  0
  -29.8340  -15.8290   20.6520 N   0  0  0  0  0  0  0  0  0  0  0  0
  -28.9010  -15.6030   20.9700 H   0  0  0  0  0  0  0  0  0  0  0  0
  -25.2640  -13.9030   20.5580 C   0  0  0  0  0  0  0  0  0  0  0  0
  -24.1970  -13.1340   20.9320 C   0  0  0  0  0  0  0  0  0  0  0  0
  -24.6480  -11.7790   20.8740 C   0  0  0  0  0  0  0  0  0  0  0  0
  -26.2960  -13.0180   20.2940 N   0  0  0  0  0  0  0  0  0  0  0  0
  -25.9330  -11.7350   20.5450 N   0  0  0  0  0  0  0  0  0  0  0  0
  -23.9150  -10.5210   21.0550 C   0  0  0  0  0  0  0  0  0  0  0  0
  -24.3410   -9.5460   21.9840 C   0  0  0  0  0  3  0  0  0  0  0  0
  -23.6090   -8.3510   22.1540 C   0  0  0  0  0  3  0  0  0  0  0  0
  -22.4380   -8.1240   21.3950 C   0  0  0  0  0  0  0  0  0  0  0  0
  -22.0300   -9.0870   20.4550 C   0  0  0  0  0  3  0  0  0  0  0  0
  -22.7610  -10.2730   20.2840 C   0  0  0  0  0  3  0  0  0  0  0  0
  -21.6740   -6.9830   21.4750 O   0  0  0  0  0  0  0  0  0  0  0  0
  -21.5990   -6.2470   22.6300 C   0  0  0  0  0  0  0  0  0  0  0  0
  -21.1270   -6.8040   23.8390 C   0  0  0  0  0  3  0  0  0  0  0  0
  -21.0010   -5.9940   24.9860 C   0  0  0  0  0  3  0  0  0  0  0  0
  -21.3370   -4.6290   24.9240 C   0  0  0  0  0  0  0  0  0  0  0  0
  -21.8020   -4.0710   23.7210 C   0  0  0  0  0  3  0  0  0  0  0  0
  -21.9310   -4.8790   22.5750 C   0  0  0  0  0  0  0  0  0  0  0  0
  -22.3580   -4.3320   21.4110 F   0  0  0  0  0  0  0  0  0  0  0  0
  -21.2100   -3.8480   26.0220 F   0  0  0  0  0  0  0  0  0  0  0  0
  -22.8090  -13.6180   21.2320 C   0  0  0  0  0  0  0  0  0  0  0  0
  -22.0840  -12.9130   22.0920 N   0  0  0  0  0  0  0  0  0  0  0  0
  -22.3740  -14.6580   20.7370 O   0  0  0  0  0  0  0  0  0  0  0  0
  -22.4520  -12.0740   22.5150 H   0  0  0  0  0  0  0  0  0  0  0  0
  -21.1520  -13.2160   22.3340 H   0  0  0  0  0  0  0  0  0  0  0  0
  -25.4400  -15.2730   20.3990 N   0  0  0  0  0  0  0  0  0  0  0  0
  -24.6800  -15.9330   20.5190 H   0  0  0  0  0  0  0  0  0  0  0  0
  -26.2810  -15.6990   20.0340 H   0  0  0  0  0  0  0  0  0  0  0  0
  -29.0620  -22.3710   20.1280 C   0  0  0  0  0  2  0  0  0  0  0  0
  -28.2160  -23.7100   20.5160 C   0  0  0  0  0  2  0  0  0  0  0  0
  -28.5650  -25.1020   19.7660 C   0  0  0  0  0  2  0  0  0  0  0  0
  -28.4030  -26.4680   20.3570 O   0  0  0  0  0  0  0  0  0  0  0  0
  -24.6010  -31.8850   23.2290 C   0  0  0  0  0  0  0  0  0  0  0  0
  -27.2670  -27.2920   20.2390 C   0  0  0  0  0  0  0  0  0  0  0  0
  -23.4220  -30.4700   21.5810 C   0  0  0  0  0  3  0  0  0  0  0  0
  -24.8970  -28.9080   20.1810 C   0  0  0  0  0  0  0  0  0  0  0  0
  -25.9610  -30.7920   21.4270 C   0  0  0  0  0  2  0  0  0  0  0  0
  -26.0530  -29.4050   20.7920 C   0  0  0  0  0  0  0  0  0  0  0  0
  -27.2370  -28.6060   20.8140 C   0  0  0  0  0  3  0  0  0  0  0  0
  -26.0900  -26.8500   19.5990 C   0  0  0  0  0  3  0  0  0  0  0  0
  -24.9210  -27.6390   19.5740 C   0  0  0  0  0  3  0  0  0  0  0  0
  -23.6540  -29.7780   20.2100 C   0  0  0  0  0  2  0  0  0  0  0  0
  -24.6790  -31.0680   22.1370 N   0  0  0  0  0  0  0  0  0  0  0  0
  -23.5110  -32.1620   23.7510 O   0  0  0  0  0  0  0  0  0  0  0  0
  -22.7500  -29.4610   22.5440 C   0  0  0  0  0  0  0  0  0  0  0  0
  -21.4220  -29.2950   22.4170 N   0  0  0  0  0  0  0  0  0  0  0  0
  -23.4230  -28.8320   23.3650 O   0  0  0  0  0  0  0  0  0  0  0  0
  -20.9380  -29.8550   21.7290 H   0  0  0  0  0  0  0  0  0  0  0  0
  -18.0330  -28.1390   22.9360 C   0  0  0  0  0  0  0  0  0  0  0  0
  -20.5970  -28.3610   23.1860 C   0  0  0  0  0  3  0  0  0  0  0  0
  -20.6750  -26.9340   22.5970 C   0  0  0  0  0  2  0  0  0  0  0  0
  -19.5600  -26.6370   21.5870 C   0  0  0  0  0  2  0  0  0  0  0  0
  -18.1840  -26.7950   22.2420 C   0  0  0  0  0  2  0  0  0  0  0  0
  -19.1660  -28.8800   23.3630 C   0  0  0  0  0  0  0  0  0  0  0  0
  -18.9710  -30.1400   23.9700 C   0  0  0  0  0  3  0  0  0  0  0  0
  -17.6760  -30.6590   24.1510 C   0  0  0  0  0  3  0  0  0  0  0  0
  -16.5580  -29.9160   23.7390 C   0  0  0  0  0  3  0  0  0  0  0  0
  -16.7360  -28.6550   23.1400 C   0  0  0  0  0  3  0  0  0  0  0  0
  -25.8750  -32.5260   23.8630 C   0  0  0  0  0  3  0  0  0  0  0  0
  -26.3740  -31.7670   25.1540 C   0  0  1  0  0  0  0  0  0  0  0  0
  -25.2670  -31.5320   26.2090 C   0  0  0  0  0  1  0  0  0  0  0  0
  -26.9700  -30.3880   24.7850 C   0  0  0  0  0  1  0  0  0  0  0  0
  -27.5140  -32.5700   25.8260 C   0  0  0  0  0  1  0  0  0  0  0  0
  -25.5560  -33.9270   24.1800 N   0  0  0  0  0  0  0  0  0  0  0  0
  -25.8970  -34.9780   23.4220 C   0  0  0  0  0  0  0  0  0  0  0  0
  -26.5810  -34.8700   22.4000 O   0  0  0  0  0  0  0  0  0  0  0  0
  -24.9470  -34.0840   24.9710 H   0  0  0  0  0  0  0  0  0  0  0  0
  -24.1740  -36.7690   23.0290 C   0  0  0  0  0  1  0  0  0  0  0  0
  -25.3990  -36.3670   23.8660 C   0  0  0  0  0  3  0  0  0  0  0  0
  -27.5130  -37.2550   24.7440 C   0  0  0  0  0  1  0  0  0  0  0  0
  -26.4320  -37.4220   23.7760 N   0  0  0  0  0  0  0  0  0  0  0  0
  -26.0200  -38.3410   23.9170 H   0  0  0  0  0  0  0  0  0  0  0  0
  2  1  1  0
  3  4  1  0
  5  1  1  0
  5  9  1  0
  6  2  1  0
  7  6  1  0
  7 19  1  0
  7  3  1  0
  8  6  1  0
  8  9  1  0
  8  4  1  0
  9 10  1  1
 11 19  1  0
 12 17  1  0
 13 14  1  0
 13 12  1  0
 15 14  1  0
 15 24  1  0
 15 16  1  0
 17 11  1  0
 17 16  1  0
 18 11  2  0
 19 20  1  0
 21 22  2  0
 22 41  1  0
 23 22  1  0
 23 26  1  0
 24 25  1  0
 24 21  1  0
 25 23  2  0
 26 27  1  0
 27 28  2  0
 29 32  1  0
 29 28  1  0
 30 29  2  0
 31 30  1  0
 31 26  2  0
 32 33  1  0
 33 34  1  0
 34 35  2  0
 36 35  1  0
 36 40  1  0
 37 36  2  0
 38 33  2  0
 38 37  1  0
 39 38  1  0
 41 42  1  0
 42 45  1  0
 42 44  1  0
 43 41  2  0
 46 47  1  0
 46 21  1  0
 48 46  1  0
 49  9  1  0
 49 50  1  0
 51 52  1  0
 51 50  1  0
 53 64  2  0
 54 52  1  0
 54 59  1  0
 55 63  1  0
 55 65  1  0
 56 62  1  0
 56 58  1  0
 57 63  1  0
 58 59  2  0
 58 57  1  0
 60 54  2  0
 61 60  1  0
 61 56  2  0
 62 55  1  0
 63 53  1  0
 65 67  2  0
 66 65  1  0
 68 66  1  0
 69 78  2  0
 69 74  1  0
 70 66  1  0
 70 74  1  0
 71 70  1  0
 72 73  1  0
 72 71  1  0
 73 69  1  0
 74 75  2  0
 75 76  1  0
 77 76  2  0
 78 77  1  0
 79 53  1  0
 79 84  1  0
 79 80  1  0
 80 83  1  1
 80 81  1  0
 82 80  1  0
 84 87  1  0
 85 89  1  0
 85 84  1  0
 86 85  2  0
 89 88  1  0
 91 89  1  0
 91 92  1  0
 91 90  1  0
M  ISO  4  11 100  19 100  51 101  52 101
M  END
>  <TORSDO>  (20) 
F 19

>  <SCORE>  (20) 
-14.114

>  <name>  (20) 
19

>  <ligand_id>  (20) 
19

>  <original_smiles>  (20) 
[H]c1c([H])c([H])c2c(c1[H])C([H])([H])C([H])([H])C([H])([H])C2([H])N([H])C(=O)C1([H])N(C(=O)C([H])(N([H])C(=O)C([H])(N([H])C([H])([H])[H])C([H])([H])[H])C(C([H])([H])[H])(C([H])([H])[H])C([H])([H])[H])C([H])([H])c2c([H])c(OC([H])([H])C([H])([H])C([H])([H])[N+]3([H])C([H])([H])C([H])([H])C([H])([H])C4([H])C([H])(N([H])C(=O)N5C([H])([H])C([H])([H])C([H])([H])C([H])(n6nc(-c7c([H])c([H])c(Oc8c([H])c([H])c(F)c([H])c8F)c([H])c7[H])c(C(=O)N([H])[H])c6N([H])[H])C5([H])[H])C([H])([H])C([H])([H])C43[H])c([H])c([H])c2C1([H])[H]

>  <smiles>  (20) 
[H]c1c([H])c([H])c2c(c1[H])C([H])([H])C([H])([H])C([H])([H])C2([H])N([H])C(=O)C1([H])N(C(=O)C([H])(N([H])C(=O)C([H])(N([H])C([H])([H])[H])C([H])([H])[H])C(C([H])([H])[H])(C([H])([H])[H])C([H])([H])[H])C([H])([H])c2c([H])c(OC([H])([H])C([H])([H])C([H])([H])[N+]3([H])C([H])([H])C([H])([H])C([H])([H])C4([H])C([H])(N([H])C(=O)N5C([H])([H])C([H])([H])C([H])([H])C([H])(n6nc(-c7c([H])c([H])c(Oc8c([H])c([H])c(F)c([H])c8F)c([H])c7[H])c(C(=O)N([H])[H])c6N([H])[H])C5([H])[H])C([H])([H])C([H])([H])C43[H])c([H])c([H])c2C1([H])[H]

$$$$
20:0:0
     RDKit          3D

 95103  0  0  1  0  0  0  0  0999 V2000
  -27.8550  -23.8130   16.9070 C   0  0  0  0  0  2  0  0  0  0  0  0
  -28.3030  -22.3740   17.1700 C   0  0  0  0  0  2  0  0  0  0  0  0
  -28.4700  -24.7450   17.9560 C   0  0  0  0  0  2  0  0  0  0  0  0
  -28.0010  -21.9490   18.6180 C   0  0  0  0  0  2  0  0  0  0  0  0
  -28.1130  -24.2860   19.3920 C   0  0  0  0  0  3  0  0  0  0  0  0
  -28.6140  -22.8770   19.6180 N   0  0  1  0  0  4  0  0  0  0  0  0
  -29.6040  -22.8880   19.4140 H   0  0  0  0  0  0  0  0  0  0  0  0
  -28.5610  -25.3460   20.4510 C   0  0  0  0  0  2  0  0  0  0  0  0
  -28.5030  -26.7290   20.0420 O   0  0  0  0  0  0  0  0  0  0  0  0
  -24.6710  -31.8610   23.1910 C   0  0  0  0  0  0  0  0  0  0  0  0
  -27.3050  -27.4160   20.0980 C   0  0  0  0  0  0  0  0  0  0  0  0
  -23.4570  -30.4590   21.5560 C   0  0  0  0  0  3  0  0  0  0  0  0
  -24.9030  -28.9200   20.1300 C   0  0  0  0  0  0  0  0  0  0  0  0
  -25.9810  -30.8200   21.3430 C   0  0  0  0  0  2  0  0  0  0  0  0
  -26.0650  -29.4450   20.7090 C   0  0  0  0  0  0  0  0  0  0  0  0
  -27.2680  -28.7010   20.6880 C   0  0  0  0  0  3  0  0  0  0  0  0
  -26.1230  -26.9130   19.5090 C   0  0  0  0  0  3  0  0  0  0  0  0
  -24.9270  -27.6530   19.5300 C   0  0  0  0  0  3  0  0  0  0  0  0
  -23.6610  -29.7790   20.1770 C   0  0  0  0  0  2  0  0  0  0  0  0
  -24.7220  -31.0620   22.0880 N   0  0  0  0  0  0  0  0  0  0  0  0
  -23.5920  -32.1310   23.7380 O   0  0  0  0  0  0  0  0  0  0  0  0
  -22.8140  -29.4340   22.5190 C   0  0  0  0  0  0  0  0  0  0  0  0
  -21.4880  -29.2610   22.4100 N   0  0  0  0  0  0  0  0  0  0  0  0
  -23.5070  -28.7990   23.3200 O   0  0  0  0  0  0  0  0  0  0  0  0
  -20.9920  -29.8270   21.7360 H   0  0  0  0  0  0  0  0  0  0  0  0
  -18.1130  -28.0860   22.9470 C   0  0  0  0  0  0  0  0  0  0  0  0
  -20.6760  -28.3240   23.1860 C   0  0  0  0  0  3  0  0  0  0  0  0
  -20.7610  -26.8960   22.5990 C   0  0  0  0  0  2  0  0  0  0  0  0
  -19.6430  -26.5860   21.5990 C   0  0  0  0  0  2  0  0  0  0  0  0
  -18.2720  -26.7380   22.2620 C   0  0  0  0  0  2  0  0  0  0  0  0
  -19.2430  -28.8370   23.3670 C   0  0  0  0  0  0  0  0  0  0  0  0
  -19.0410  -30.0990   23.9660 C   0  0  0  0  0  3  0  0  0  0  0  0
  -17.7430  -30.6100   24.1490 C   0  0  0  0  0  3  0  0  0  0  0  0
  -16.6270  -29.8560   23.7480 C   0  0  0  0  0  3  0  0  0  0  0  0
  -16.8140  -28.5950   23.1530 C   0  0  0  0  0  3  0  0  0  0  0  0
  -25.9600  -32.4950   23.8020 C   0  0  0  0  0  3  0  0  0  0  0  0
  -25.6430  -33.8820   24.1640 N   0  0  0  0  0  0  0  0  0  0  0  0
  -25.9450  -34.9510   23.4140 C   0  0  0  0  0  0  0  0  0  0  0  0
  -26.5930  -34.8730   22.3670 O   0  0  0  0  0  0  0  0  0  0  0  0
  -25.0710  -34.0170   24.9840 H   0  0  0  0  0  0  0  0  0  0  0  0
  -24.1820  -36.7200   23.1260 C   0  0  0  0  0  1  0  0  0  0  0  0
  -25.4480  -36.3240   23.9030 C   0  0  0  0  0  3  0  0  0  0  0  0
  -27.5920  -37.2250   24.6910 C   0  0  0  0  0  1  0  0  0  0  0  0
  -26.4630  -37.3940   23.7800 N   0  0  0  0  0  0  0  0  0  0  0  0
  -26.0480  -38.3060   23.9540 H   0  0  0  0  0  0  0  0  0  0  0  0
  -26.5080  -31.7040   25.0530 C   0  0  1  0  0  0  0  0  0  0  0  0
  -25.4380  -31.4330   26.1360 C   0  0  0  0  0  1  0  0  0  0  0  0
  -27.0970  -30.3410   24.6200 C   0  0  0  0  0  1  0  0  0  0  0  0
  -27.6630  -32.4950   25.7100 C   0  0  0  0  0  1  0  0  0  0  0  0
  -28.5020  -22.4030   21.0400 C   0  0  0  0  0  2  0  0  0  0  0  0
  -28.5240  -20.8640   21.3150 C   0  0  0  0  0  2  0  0  0  0  0  0
  -29.8180  -20.0750   20.9750 C   0  0  0  0  0  2  0  0  0  0  0  0
  -29.7710  -18.6730   21.4770 N   0  0  0  0  0  4  0  0  0  0  0  0
  -28.8470  -18.2960   21.3340 H   0  0  0  0  0  0  0  0  0  0  0  0
  -29.9360  -18.6940   22.4700 H   0  0  0  0  0  0  0  0  0  0  0  0
  -30.7430  -17.7360   20.8590 C   0  0  0  0  0  2  0  0  0  0  0  0
  -30.9830  -16.4640   21.7170 C   0  0  0  0  0  2  0  0  0  0  0  0
  -30.8580  -14.3830   20.3100 C   0  0  0  0  0  0  0  0  0  0  0  0
  -30.4610  -12.2960   19.0430 C   0  0  0  0  0  2  0  0  0  0  0  0
  -29.4890  -12.5360   17.8720 C   0  0  0  0  0  2  0  0  0  0  0  0
  -28.0240  -12.4170   18.3380 C   0  0  0  0  0  2  0  0  0  0  0  0
  -27.7370  -13.2400   19.6200 C   0  0  0  0  0  3  0  0  0  0  0  0
  -28.8090  -12.9600   20.6970 C   0  0  0  0  0  2  0  0  0  0  0  0
  -30.1320  -13.2500   20.1130 N   0  0  0  0  0  0  0  0  0  0  0  0
  -31.9070  -14.6300   19.7090 O   0  0  0  0  0  0  0  0  0  0  0  0
  -30.3460  -15.2440   21.2020 N   0  0  0  0  0  0  0  0  0  0  0  0
  -29.4810  -14.9590   21.6380 H   0  0  0  0  0  0  0  0  0  0  0  0
  -25.3590  -13.8930   20.3640 C   0  0  0  0  0  0  0  0  0  0  0  0
  -24.2860  -13.1410   20.7610 C   0  0  0  0  0  0  0  0  0  0  0  0
  -24.7260  -11.7830   20.7330 C   0  0  0  0  0  0  0  0  0  0  0  0
  -26.3870  -12.9930   20.1240 N   0  0  0  0  0  0  0  0  0  0  0  0
  -26.0080  -11.7190   20.4010 N   0  0  0  0  0  0  0  0  0  0  0  0
  -23.9840  -10.5340   20.9500 C   0  0  0  0  0  0  0  0  0  0  0  0
  -24.4280   -9.5620   21.8730 C   0  0  0  0  0  3  0  0  0  0  0  0
  -23.6880   -8.3760   22.0760 C   0  0  0  0  0  3  0  0  0  0  0  0
  -22.4910   -8.1560   21.3550 C   0  0  0  0  0  0  0  0  0  0  0  0
  -22.0660   -9.1160   20.4200 C   0  0  0  0  0  3  0  0  0  0  0  0
  -22.8060  -10.2920   20.2160 C   0  0  0  0  0  3  0  0  0  0  0  0
  -21.7210   -7.0230   21.4680 O   0  0  0  0  0  0  0  0  0  0  0  0
  -21.6960   -6.2810   22.6220 C   0  0  0  0  0  0  0  0  0  0  0  0
  -21.3430   -6.8500   23.8650 C   0  0  0  0  0  3  0  0  0  0  0  0
  -21.2630   -6.0360   25.0130 C   0  0  0  0  0  3  0  0  0  0  0  0
  -21.5250   -4.6560   24.9190 C   0  0  0  0  0  0  0  0  0  0  0  0
  -21.8720   -4.0880   23.6810 C   0  0  0  0  0  3  0  0  0  0  0  0
  -21.9540   -4.8980   22.5350 C   0  0  0  0  0  0  0  0  0  0  0  0
  -22.2680   -4.3410   21.3400 F   0  0  0  0  0  0  0  0  0  0  0  0
  -21.4410   -3.8730   26.0200 F   0  0  0  0  0  0  0  0  0  0  0  0
  -22.9030  -13.6430   21.0570 C   0  0  0  0  0  0  0  0  0  0  0  0
  -22.1830  -12.9690   21.9480 N   0  0  0  0  0  0  0  0  0  0  0  0
  -22.4670  -14.6670   20.5320 O   0  0  0  0  0  0  0  0  0  0  0  0
  -22.5470  -12.1410   22.3950 H   0  0  0  0  0  0  0  0  0  0  0  0
  -21.2540  -13.2870   22.1880 H   0  0  0  0  0  0  0  0  0  0  0  0
  -25.5420  -15.2600   20.1700 N   0  0  0  0  0  0  0  0  0  0  0  0
  -24.7860  -15.9260   20.2760 H   0  0  0  0  0  0  0  0  0  0  0  0
  -26.3890  -15.6740   19.8020 H   0  0  0  0  0  0  0  0  0  0  0  0
  1  2  1  0
  1  3  1  0
  2  4  1  0
  3  5  1  0
  4  6  1  0
  5  6  1  0
  5  8  1  0
  6 50  1  0
  6  7  1  6
  9 11  1  0
  9  8  1  0
 10 21  2  0
 11 16  1  0
 12 20  1  0
 12 22  1  0
 13 19  1  0
 13 15  1  0
 14 20  1  0
 15 14  1  0
 16 15  2  0
 17 18  1  0
 17 11  2  0
 18 13  2  0
 19 12  1  0
 20 10  1  0
 22 24  2  0
 23 22  1  0
 25 23  1  0
 26 35  2  0
 26 31  1  0
 27 23  1  0
 27 31  1  0
 28 27  1  0
 29 30  1  0
 29 28  1  0
 30 26  1  0
 31 32  2  0
 32 33  1  0
 34 33  2  0
 35 34  1  0
 36 10  1  0
 36 37  1  0
 36 46  1  0
 37 40  1  0
 38 42  1  0
 38 37  1  0
 39 38  2  0
 42 41  1  0
 44 42  1  0
 44 45  1  0
 44 43  1  0
 46 49  1  1
 46 47  1  0
 48 46  1  0
 50 51  1  0
 52 51  1  0
 52 53  1  0
 53 55  1  0
 54 53  1  0
 56 53  1  0
 56 57  1  0
 58 66  1  0
 59 64  1  0
 60 61  1  0
 60 59  1  0
 62 61  1  0
 62 71  1  0
 62 63  1  0
 64 58  1  0
 64 63  1  0
 65 58  2  0
 66 67  1  0
 66 57  1  0
 68 69  2  0
 69 88  1  0
 70 69  1  0
 70 73  1  0
 71 68  1  0
 71 72  1  0
 72 70  2  0
 73 74  1  0
 74 75  2  0
 76 79  1  0
 76 75  1  0
 77 76  2  0
 78 77  1  0
 78 73  2  0
 79 80  1  0
 80 81  1  0
 81 82  2  0
 83 82  1  0
 83 87  1  0
 84 83  2  0
 85 80  2  0
 85 84  1  0
 86 85  1  0
 88 89  1  0
 89 92  1  0
 89 91  1  0
 90 88  2  0
 93 94  1  0
 93 68  1  0
 95 93  1  0
M  ISO  4   8 101   9 101  58 100  66 100
M  END
>  <TORSDO>  (21) 
F 23

>  <SCORE>  (21) 
-12.312

>  <name>  (21) 
20

>  <ligand_id>  (21) 
20

>  <original_smiles>  (21) 
[H]c1c([H])c([H])c2c(c1[H])C([H])([H])C([H])([H])C([H])([H])C2([H])N([H])C(=O)C1([H])N(C(=O)C([H])(N([H])C(=O)C([H])(N([H])C([H])([H])[H])C([H])([H])[H])C(C([H])([H])[H])(C([H])([H])[H])C([H])([H])[H])C([H])([H])c2c([H])c(OC([H])([H])C3([H])C([H])([H])C([H])([H])C([H])([H])C([H])([H])[N+]3([H])C([H])([H])C([H])([H])C([H])([H])[N+]([H])([H])C([H])([H])C([H])([H])N([H])C(=O)N3C([H])([H])C([H])([H])C([H])([H])C([H])(n4nc(-c5c([H])c([H])c(Oc6c([H])c([H])c(F)c([H])c6F)c([H])c5[H])c(C(=O)N([H])[H])c4N([H])[H])C3([H])[H])c([H])c([H])c2C1([H])[H]

>  <smiles>  (21) 
[H]c1c([H])c([H])c2c(c1[H])C([H])([H])C([H])([H])C([H])([H])C2([H])N([H])C(=O)C1([H])N(C(=O)C([H])(N([H])C(=O)C([H])(N([H])C([H])([H])[H])C([H])([H])[H])C(C([H])([H])[H])(C([H])([H])[H])C([H])([H])[H])C([H])([H])c2c([H])c(OC([H])([H])C3([H])C([H])([H])C([H])([H])C([H])([H])C([H])([H])[N+]3([H])C([H])([H])C([H])([H])C([H])([H])[N+]([H])([H])C([H])([H])C([H])([H])N([H])C(=O)N3C([H])([H])C([H])([H])C([H])([H])C([H])(n4nc(-c5c([H])c([H])c(Oc6c([H])c([H])c(F)c([H])c6F)c([H])c5[H])c(C(=O)N([H])[H])c4N([H])[H])C3([H])[H])c([H])c([H])c2C1([H])[H]

$$$$
21:0:0
     RDKit          3D

 97105  0  0  1  0  0  0  0  0999 V2000
  -34.4110  -27.3490   17.9590 N   0  0  1  0  0  4  0  0  0  0  0  0
  -34.8180  -26.6770   17.3240 H   0  0  0  0  0  0  0  0  0  0  0  0
  -37.8260  -28.2310   18.9690 C   0  0  0  0  0  3  0  0  0  0  0  0
  -36.8730  -27.8730   18.0870 C   0  0  0  0  0  3  0  0  0  0  0  0
  -36.4160  -30.1610   19.7420 C   0  0  0  0  0  2  0  0  0  0  0  0
  -35.1820  -29.3490   19.3220 C   0  0  0  0  0  2  0  0  0  0  0  0
  -37.6150  -29.2490   20.0830 C   0  0  0  0  0  3  0  0  0  0  0  0
  -35.4490  -28.4180   18.1020 C   0  0  0  0  0  3  0  0  0  0  0  0
  -38.9030  -30.0530   20.3710 C   0  0  0  0  0  2  0  0  0  0  0  0
  -39.0180  -30.4260   21.7920 N   0  0  0  0  0  4  0  0  0  0  0  0
  -38.2510  -31.0100   22.0720 H   0  0  0  0  0  0  0  0  0  0  0  0
  -39.8690  -30.9350   21.9460 H   0  0  0  0  0  0  0  0  0  0  0  0
  -39.0350  -29.6070   22.3740 H   0  0  0  0  0  0  0  0  0  0  0  0
  -34.1950  -26.5010   19.3110 C   0  0  0  0  0  2  0  0  0  0  0  0
  -35.0950  -25.1370   19.8260 C   0  0  0  0  0  2  0  0  0  0  0  0
  -36.2450  -25.0670   21.0680 C   0  0  0  0  0  2  0  0  0  0  0  0
  -37.3330  -23.6890   23.2060 C   0  0  0  0  0  0  0  0  0  0  0  0
  -39.3170  -22.4330   24.1480 C   0  0  0  0  0  2  0  0  0  0  0  0
  -40.3490  -22.1710   23.0260 C   0  0  0  0  0  2  0  0  0  0  0  0
  -40.0130  -20.8720   22.2710 C   0  0  0  0  0  2  0  0  0  0  0  0
  -38.5100  -20.7740   21.9040 C   0  0  0  0  0  3  0  0  0  0  0  0
  -37.5910  -21.1350   23.0900 C   0  0  0  0  0  2  0  0  0  0  0  0
  -37.9640  -22.4870   23.5230 N   0  0  0  0  0  0  0  0  0  0  0  0
  -37.6280  -24.6770   23.8870 O   0  0  0  0  0  0  0  0  0  0  0  0
  -36.5650  -23.8280   22.0120 N   0  0  0  0  0  0  0  0  0  0  0  0
  -36.3530  -22.9370   21.5900 H   0  0  0  0  0  0  0  0  0  0  0  0
  -37.3550  -19.2180   20.2340 C   0  0  0  0  0  0  0  0  0  0  0  0
  -37.4350  -17.8700   20.0260 C   0  0  0  0  0  0  0  0  0  0  0  0
  -38.3190  -17.3650   21.0300 C   0  0  0  0  0  0  0  0  0  0  0  0
  -38.1730  -19.4820   21.3200 N   0  0  0  0  0  0  0  0  0  0  0  0
  -38.7050  -18.3450   21.8380 N   0  0  0  0  0  0  0  0  0  0  0  0
  -38.8680  -16.0170   21.2260 C   0  0  0  0  0  0  0  0  0  0  0  0
  -38.2280  -15.0710   22.0570 C   0  0  0  0  0  3  0  0  0  0  0  0
  -38.7660  -13.7740   22.2100 C   0  0  0  0  0  3  0  0  0  0  0  0
  -39.9520  -13.4120   21.5280 C   0  0  0  0  0  0  0  0  0  0  0  0
  -40.5980  -14.3660   20.7220 C   0  0  0  0  0  3  0  0  0  0  0  0
  -40.0650  -15.6570   20.5760 C   0  0  0  0  0  3  0  0  0  0  0  0
  -40.5600  -12.1830   21.6380 O   0  0  0  0  0  0  0  0  0  0  0  0
  -40.2850  -11.1630   20.7610 C   0  0  0  0  0  0  0  0  0  0  0  0
  -41.0830  -10.9270   19.6180 C   0  0  0  0  0  3  0  0  0  0  0  0
  -40.8080   -9.8250   18.7850 C   0  0  0  0  0  3  0  0  0  0  0  0
  -39.7440   -8.9550   19.0940 C   0  0  0  0  0  0  0  0  0  0  0  0
  -38.9530   -9.1860   20.2330 C   0  0  0  0  0  3  0  0  0  0  0  0
  -39.2260  -10.2860   21.0660 C   0  0  0  0  0  0  0  0  0  0  0  0
  -38.4740  -10.4920   22.1740 F   0  0  0  0  0  0  0  0  0  0  0  0
  -39.4850   -7.8930   18.2970 F   0  0  0  0  0  0  0  0  0  0  0  0
  -36.8070  -17.1050   18.8980 C   0  0  0  0  0  0  0  0  0  0  0  0
  -36.0440  -16.0650   19.2130 N   0  0  0  0  0  0  0  0  0  0  0  0
  -36.9490  -17.4610   17.7280 O   0  0  0  0  0  0  0  0  0  0  0  0
  -35.9140  -15.7870   20.1740 H   0  0  0  0  0  0  0  0  0  0  0  0
  -35.5880  -15.5370   18.4840 H   0  0  0  0  0  0  0  0  0  0  0  0
  -36.6810  -20.2450   19.5780 N   0  0  0  0  0  0  0  0  0  0  0  0
  -36.1680  -20.0780   18.7200 H   0  0  0  0  0  0  0  0  0  0  0  0
  -36.8040  -21.2280   19.7810 H   0  0  0  0  0  0  0  0  0  0  0  0
  -33.1940  -27.9750   17.1240 C   0  0  0  0  0  3  0  0  0  0  0  0
  -32.3020  -27.3010   15.8490 C   0  0  0  0  0  3  0  0  0  0  0  0
  -32.3990  -26.0980   14.8590 O   0  0  0  0  0  0  0  0  0  0  0  0
  -36.7100  -20.8980   12.0410 C   0  0  0  0  0  0  0  0  0  0  0  0
  -32.9110  -24.7600   15.0010 C   0  0  0  0  0  0  0  0  0  0  0  0
  -34.8560  -20.1580   13.4930 C   0  0  0  0  0  3  0  0  0  0  0  0
  -33.7460  -21.9750   14.9500 C   0  0  0  0  0  0  0  0  0  0  0  0
  -35.9530  -22.4490   13.8830 C   0  0  0  0  0  2  0  0  0  0  0  0
  -34.6190  -22.9540   14.4590 C   0  0  0  0  0  0  0  0  0  0  0  0
  -34.2060  -24.3350   14.4960 C   0  0  0  0  0  3  0  0  0  0  0  0
  -32.1180  -23.7280   15.5420 C   0  0  0  0  0  3  0  0  0  0  0  0
  -32.5150  -22.3680   15.5060 C   0  0  0  0  0  3  0  0  0  0  0  0
  -34.1760  -20.5180   14.8450 C   0  0  0  0  0  2  0  0  0  0  0  0
  -35.8720  -21.1830   13.0870 N   0  0  0  0  0  0  0  0  0  0  0  0
  -36.6570  -19.8120   11.4460 O   0  0  0  0  0  0  0  0  0  0  0  0
  -33.7670  -19.9200   12.4180 C   0  0  0  0  0  0  0  0  0  0  0  0
  -33.3220  -18.6610   12.2630 N   0  0  0  0  0  0  0  0  0  0  0  0
  -33.3240  -20.8630   11.7570 O   0  0  0  0  0  0  0  0  0  0  0  0
  -33.7440  -17.9370   12.8280 H   0  0  0  0  0  0  0  0  0  0  0  0
  -31.8250  -15.7710   10.6670 C   0  0  0  0  0  0  0  0  0  0  0  0
  -32.2610  -18.2290   11.3460 C   0  0  0  0  0  3  0  0  0  0  0  0
  -30.8950  -18.1610   12.0680 C   0  0  0  0  0  2  0  0  0  0  0  0
  -30.5770  -16.7710   12.6260 C   0  0  0  0  0  2  0  0  0  0  0  0
  -30.5570  -15.7310   11.5040 C   0  0  0  0  0  2  0  0  0  0  0  0
  -32.6330  -16.9380   10.6060 C   0  0  0  0  0  0  0  0  0  0  0  0
  -33.8170  -16.9110    9.8370 C   0  0  0  0  0  3  0  0  0  0  0  0
  -34.1980  -15.7470    9.1430 C   0  0  0  0  0  3  0  0  0  0  0  0
  -33.3860  -14.6010    9.1950 C   0  0  0  0  0  3  0  0  0  0  0  0
  -32.2000  -14.6160    9.9500 C   0  0  0  0  0  3  0  0  0  0  0  0
  -37.7900  -21.9140   11.5560 C   0  0  0  0  0  3  0  0  0  0  0  0
  -39.0380  -21.1690   11.3270 N   0  0  0  0  0  0  0  0  0  0  0  0
  -40.2100  -21.4370   11.9170 C   0  0  0  0  0  0  0  0  0  0  0  0
  -40.3690  -22.3940   12.6780 O   0  0  0  0  0  0  0  0  0  0  0  0
  -38.9700  -20.3370   10.7580 H   0  0  0  0  0  0  0  0  0  0  0  0
  -41.6420  -19.5720   12.8210 C   0  0  0  0  0  1  0  0  0  0  0  0
  -41.3930  -20.4940   11.6170 C   0  0  0  0  0  3  0  0  0  0  0  0
  -42.6240  -21.7940    9.9350 C   0  0  0  0  0  1  0  0  0  0  0  0
  -42.6430  -21.2090   11.2730 N   0  0  0  0  0  0  0  0  0  0  0  0
  -43.4430  -20.5850   11.3350 H   0  0  0  0  0  0  0  0  0  0  0  0
  -37.3690  -22.6940   10.2480 C   0  0  1  0  0  0  0  0  0  0  0  0
  -37.8230  -22.0040    8.9390 C   0  0  0  0  0  1  0  0  0  0  0  0
  -35.8340  -22.8670   10.1820 C   0  0  0  0  0  1  0  0  0  0  0  0
  -37.9720  -24.1190   10.2720 C   0  0  0  0  0  1  0  0  0  0  0  0
  1 14  1  0
  1  2  1  6
  3  7  1  0
  4  8  1  0
  4  3  2  0
  5  7  1  0
  6  5  1  0
  7  9  1  0
  8  1  1  0
  8  6  1  0
  9 10  1  0
 10 12  1  0
 10 11  1  0
 10 13  1  0
 14 15  1  0
 15 16  1  0
 16 25  1  0
 17 23  1  0
 17 24  2  0
 19 18  1  0
 20 19  1  0
 21 30  1  0
 21 20  1  0
 21 22  1  0
 22 23  1  0
 23 18  1  0
 25 17  1  0
 26 25  1  0
 27 30  1  0
 28 27  2  0
 28 29  1  0
 29 32  1  0
 29 31  2  0
 30 31  1  0
 32 33  1  0
 33 34  2  0
 35 38  1  0
 35 34  1  0
 36 35  2  0
 37 36  1  0
 37 32  2  0
 39 44  1  0
 39 38  1  0
 40 39  2  0
 41 42  2  0
 41 40  1  0
 42 43  1  0
 43 44  2  0
 44 45  1  0
 46 42  1  0
 47 48  1  0
 47 28  1  0
 48 50  1  0
 49 47  2  0
 51 48  1  0
 52 54  1  0
 52 27  1  0
 53 52  1  0
 55  1  1  0
 56 55  2  0
 57 59  1  0
 57 56  1  0
 58 68  1  0
 59 65  1  0
 60 70  1  0
 60 67  1  0
 61 66  1  0
 62 63  1  0
 63 64  1  0
 63 61  2  0
 64 59  2  0
 66 65  2  0
 67 61  1  0
 68 60  1  0
 68 62  1  0
 69 58  2  0
 71 70  1  0
 71 73  1  0
 72 70  2  0
 74 78  1  0
 75 76  1  0
 75 71  1  0
 76 77  1  0
 78 77  1  0
 79 74  1  0
 79 75  1  0
 80 79  2  0
 81 82  2  0
 81 80  1  0
 82 83  1  0
 83 74  2  0
 84 58  1  0
 85 84  1  0
 85 86  1  0
 86 87  2  0
 88 85  1  0
 90 86  1  0
 90 89  1  0
 91 92  1  0
 92 93  1  0
 92 90  1  0
 94 97  1  1
 94 84  1  0
 95 94  1  0
 96 94  1  0
M  ISO  4  17 100  25 100  56 101  57 101
M  END
>  <TORSDO>  (22) 
F 24

>  <SCORE>  (22) 
-2.579

>  <name>  (22) 
21

>  <ligand_id>  (22) 
21

>  <original_smiles>  (22) 
[H]C1=C([H])C([H])([N+]([H])(C([H])([H])C([H])([H])Oc2c([H])c([H])c3c(c2[H])C([H])([H])N(C(=O)C([H])(N([H])C(=O)C([H])(N([H])C([H])([H])[H])C([H])([H])[H])C(C([H])([H])[H])(C([H])([H])[H])C([H])([H])[H])C([H])(C(=O)N([H])C2([H])c4c([H])c([H])c([H])c([H])c4C([H])([H])C([H])([H])C2([H])[H])C3([H])[H])C([H])([H])C([H])([H])C([H])([H])N([H])C(=O)N2C([H])([H])C([H])([H])C([H])([H])C([H])(n3nc(-c4c([H])c([H])c(Oc5c([H])c([H])c(F)c([H])c5F)c([H])c4[H])c(C(=O)N([H])[H])c3N([H])[H])C2([H])[H])C([H])([H])C([H])([H])C1([H])C([H])([H])[N+]([H])([H])[H]

>  <smiles>  (22) 
[H]C1=C([H])C([H])([N+]([H])(C([H])([H])C([H])([H])Oc2c([H])c([H])c3c(c2[H])C([H])([H])N(C(=O)C([H])(N([H])C(=O)C([H])(N([H])C([H])([H])[H])C([H])([H])[H])C(C([H])([H])[H])(C([H])([H])[H])C([H])([H])[H])C([H])(C(=O)N([H])C2([H])c4c([H])c([H])c([H])c([H])c4C([H])([H])C([H])([H])C2([H])[H])C3([H])[H])C([H])([H])C([H])([H])C([H])([H])N([H])C(=O)N2C([H])([H])C([H])([H])C([H])([H])C([H])(n3nc(-c4c([H])c([H])c(Oc5c([H])c([H])c(F)c([H])c5F)c([H])c4[H])c(C(=O)N([H])[H])c3N([H])[H])C2([H])[H])C([H])([H])C([H])([H])C1([H])C([H])([H])[N+]([H])([H])[H]

$$$$
22:0:0
     RDKit          3D

 89 97  0  0  1  0  0  0  0  0999 V2000
  -30.7340  -20.1060   20.5000 C   0  0  0  0  0  2  0  0  0  0  0  0
  -28.4000  -19.6020   20.7070 C   0  0  0  0  0  2  0  0  0  0  0  0
  -30.3860  -21.5610   19.9590 C   0  0  0  0  0  2  0  0  0  0  0  0
  -28.0470  -21.0990   20.1980 C   0  0  0  0  0  2  0  0  0  0  0  0
  -29.7380  -18.9250   20.1950 C   0  0  0  0  0  3  0  0  0  0  0  0
  -29.0890  -22.1800   20.4230 N   0  0  2  0  0  4  0  0  0  0  0  0
  -29.1790  -22.3000   21.4220 H   0  0  0  0  0  0  0  0  0  0  0  0
  -30.2930  -17.4790   20.8050 C   0  0  0  0  0  2  0  0  0  0  0  0
  -30.5440  -14.8690   20.2450 C   0  0  0  0  0  0  0  0  0  0  0  0
  -30.3380  -12.5850   19.2090 C   0  0  0  0  0  2  0  0  0  0  0  0
  -29.3800  -12.6320   17.9980 C   0  0  0  0  0  2  0  0  0  0  0  0
  -27.9170  -12.4490   18.4510 C   0  0  0  0  0  2  0  0  0  0  0  0
  -27.5600  -13.3300   19.6790 C   0  0  0  0  0  3  0  0  0  0  0  0
  -28.6380  -13.2570   20.7810 C   0  0  0  0  0  2  0  0  0  0  0  0
  -29.9080  -13.6450   20.1550 N   0  0  0  0  0  0  0  0  0  0  0  0
  -31.7380  -14.9350   19.9430 O   0  0  0  0  0  0  0  0  0  0  0  0
  -29.8030  -16.0400   20.4880 N   0  0  0  0  0  0  0  0  0  0  0  0
  -28.8120  -15.8860   20.6180 H   0  0  0  0  0  0  0  0  0  0  0  0
  -25.1880  -13.9140   20.4530 C   0  0  0  0  0  0  0  0  0  0  0  0
  -24.1310  -13.1390   20.8410 C   0  0  0  0  0  0  0  0  0  0  0  0
  -24.5960  -11.7880   20.8010 C   0  0  0  0  0  0  0  0  0  0  0  0
  -26.2280  -13.0360   20.1960 N   0  0  0  0  0  0  0  0  0  0  0  0
  -25.8810  -11.7520   20.4690 N   0  0  0  0  0  0  0  0  0  0  0  0
  -23.8720  -10.5250   20.9970 C   0  0  0  0  0  0  0  0  0  0  0  0
  -24.3160   -9.5560   21.9230 C   0  0  0  0  0  3  0  0  0  0  0  0
  -23.5920   -8.3590   22.1100 C   0  0  0  0  0  3  0  0  0  0  0  0
  -22.4070   -8.1260   21.3720 C   0  0  0  0  0  0  0  0  0  0  0  0
  -21.9830   -9.0820   20.4320 C   0  0  0  0  0  3  0  0  0  0  0  0
  -22.7090  -10.2700   20.2430 C   0  0  0  0  0  3  0  0  0  0  0  0
  -21.6500   -6.9840   21.4670 O   0  0  0  0  0  0  0  0  0  0  0  0
  -21.6130   -6.2380   22.6180 C   0  0  0  0  0  0  0  0  0  0  0  0
  -21.2070   -6.7910   23.8520 C   0  0  0  0  0  3  0  0  0  0  0  0
  -21.1200   -5.9720   24.9960 C   0  0  0  0  0  3  0  0  0  0  0  0
  -21.4280   -4.6020   24.9060 C   0  0  0  0  0  0  0  0  0  0  0  0
  -21.8270   -4.0480   23.6770 C   0  0  0  0  0  3  0  0  0  0  0  0
  -21.9170   -4.8640   22.5360 C   0  0  0  0  0  0  0  0  0  0  0  0
  -22.2830   -4.3220   21.3490 F   0  0  0  0  0  0  0  0  0  0  0  0
  -21.3360   -3.8140   26.0020 F   0  0  0  0  0  0  0  0  0  0  0  0
  -22.7360  -13.6160   21.1300 C   0  0  0  0  0  0  0  0  0  0  0  0
  -22.0160  -12.9210   22.0010 N   0  0  0  0  0  0  0  0  0  0  0  0
  -22.2950  -14.6440   20.6180 O   0  0  0  0  0  0  0  0  0  0  0  0
  -22.3880  -12.0940   22.4430 H   0  0  0  0  0  0  0  0  0  0  0  0
  -21.0810  -13.2260   22.2340 H   0  0  0  0  0  0  0  0  0  0  0  0
  -25.3420  -15.2860   20.2730 N   0  0  0  0  0  0  0  0  0  0  0  0
  -24.5640  -15.9250   20.4010 H   0  0  0  0  0  0  0  0  0  0  0  0
  -26.1660  -15.7360   19.8950 H   0  0  0  0  0  0  0  0  0  0  0  0
  -28.8450  -23.6150   19.8100 C   0  0  0  0  0  2  0  0  0  0  0  0
  -28.1520  -24.8720   20.6150 C   0  0  0  0  0  2  0  0  0  0  0  0
  -28.3230  -26.3390   20.2030 O   0  0  0  0  0  0  0  0  0  0  0  0
  -24.5560  -31.8480   23.1970 C   0  0  0  0  0  0  0  0  0  0  0  0
  -27.2220  -27.2400   20.1790 C   0  0  0  0  0  0  0  0  0  0  0  0
  -23.3860  -30.4450   21.5400 C   0  0  0  0  0  3  0  0  0  0  0  0
  -24.8640  -28.8980   20.1250 C   0  0  0  0  0  0  0  0  0  0  0  0
  -25.9280  -30.7640   21.3890 C   0  0  0  0  0  2  0  0  0  0  0  0
  -26.0270  -29.3790   20.7400 C   0  0  0  0  0  0  0  0  0  0  0  0
  -27.2130  -28.5650   20.7460 C   0  0  0  0  0  3  0  0  0  0  0  0
  -26.0370  -26.8360   19.5320 C   0  0  0  0  0  3  0  0  0  0  0  0
  -24.8760  -27.6370   19.5080 C   0  0  0  0  0  3  0  0  0  0  0  0
  -23.6240  -29.7760   20.1590 C   0  0  0  0  0  2  0  0  0  0  0  0
  -24.6420  -31.0380   22.0990 N   0  0  0  0  0  0  0  0  0  0  0  0
  -23.4630  -32.1150   23.7180 O   0  0  0  0  0  0  0  0  0  0  0  0
  -22.7170  -29.4200   22.4890 C   0  0  0  0  0  0  0  0  0  0  0  0
  -21.3950  -29.2280   22.3420 N   0  0  0  0  0  0  0  0  0  0  0  0
  -23.3890  -28.8030   23.3190 O   0  0  0  0  0  0  0  0  0  0  0  0
  -20.9100  -29.7810   21.6490 H   0  0  0  0  0  0  0  0  0  0  0  0
  -18.0310  -27.9650   22.7790 C   0  0  0  0  0  0  0  0  0  0  0  0
  -20.5770  -28.2790   23.1000 C   0  0  0  0  0  3  0  0  0  0  0  0
  -20.7190  -26.8450   22.5370 C   0  0  0  0  0  2  0  0  0  0  0  0
  -19.6450  -26.4930   21.5000 C   0  0  0  0  0  2  0  0  0  0  0  0
  -18.2480  -26.6150   22.1140 C   0  0  0  0  0  2  0  0  0  0  0  0
  -19.1250  -28.7510   23.2270 C   0  0  0  0  0  0  0  0  0  0  0  0
  -18.8660  -30.0120   23.8090 C   0  0  0  0  0  3  0  0  0  0  0  0
  -17.5470  -30.4850   23.9480 C   0  0  0  0  0  3  0  0  0  0  0  0
  -16.4690  -29.6950   23.5150 C   0  0  0  0  0  3  0  0  0  0  0  0
  -16.7110  -28.4370   22.9340 C   0  0  0  0  0  3  0  0  0  0  0  0
  -25.8240  -32.4920   23.8390 C   0  0  0  0  0  3  0  0  0  0  0  0
  -26.3290  -31.7280   25.1240 C   0  0  1  0  0  0  0  0  0  0  0  0
  -25.2230  -31.4840   26.1770 C   0  0  0  0  0  1  0  0  0  0  0  0
  -26.9280  -30.3540   24.7440 C   0  0  0  0  0  1  0  0  0  0  0  0
  -27.4660  -32.5290   25.7990 C   0  0  0  0  0  1  0  0  0  0  0  0
  -25.4980  -33.8890   24.1660 N   0  0  0  0  0  0  0  0  0  0  0  0
  -25.8350  -34.9460   23.4150 C   0  0  0  0  0  0  0  0  0  0  0  0
  -26.5210  -34.8500   22.3940 O   0  0  0  0  0  0  0  0  0  0  0  0
  -24.8930  -34.0410   24.9590 H   0  0  0  0  0  0  0  0  0  0  0  0
  -24.1060  -36.7330   23.0390 C   0  0  0  0  0  1  0  0  0  0  0  0
  -25.3330  -36.3310   23.8690 C   0  0  0  0  0  3  0  0  0  0  0  0
  -27.4480  -37.2230   24.7420 C   0  0  0  0  0  1  0  0  0  0  0  0
  -26.3630  -37.3890   23.7790 N   0  0  0  0  0  0  0  0  0  0  0  0
  -25.9480  -38.3070   23.9220 H   0  0  0  0  0  0  0  0  0  0  0  0
  3  6  1  0
  3  1  1  0
  4  6  1  0
  4  2  1  0
  5  1  1  0
  5  2  1  0
  5  8  1  0
  6  7  1  1
  9 17  1  0
 10 15  1  0
 11 12  1  0
 11 10  1  0
 13 12  1  0
 13 22  1  0
 13 14  1  0
 15  9  1  0
 15 14  1  0
 16  9  2  0
 17 18  1  0
 17  8  1  0
 19 20  2  0
 20 39  1  0
 21 20  1  0
 21 24  1  0
 22 19  1  0
 22 23  1  0
 23 21  2  0
 24 25  1  0
 25 26  2  0
 27 30  1  0
 27 26  1  0
 28 27  2  0
 29 28  1  0
 29 24  2  0
 30 31  1  0
 31 32  1  0
 32 33  2  0
 34 33  1  0
 34 38  1  0
 35 34  2  0
 36 31  2  0
 36 35  1  0
 37 36  1  0
 39 40  1  0
 40 43  1  0
 40 42  1  0
 41 39  2  0
 44 45  1  0
 44 19  1  0
 46 44  1  0
 47  6  1  0
 47 48  1  0
 49 48  1  0
 50 61  2  0
 51 49  1  0
 51 56  1  0
 52 60  1  0
 52 62  1  0
 53 59  1  0
 53 55  1  0
 54 60  1  0
 55 56  2  0
 55 54  1  0
 57 51  2  0
 58 57  1  0
 58 53  2  0
 59 52  1  0
 60 50  1  0
 62 64  2  0
 63 62  1  0
 65 63  1  0
 66 75  2  0
 66 71  1  0
 67 63  1  0
 67 71  1  0
 68 67  1  0
 69 70  1  0
 69 68  1  0
 70 66  1  0
 71 72  2  0
 72 73  1  0
 74 73  2  0
 75 74  1  0
 76 50  1  0
 76 81  1  0
 76 77  1  0
 77 80  1  1
 77 78  1  0
 79 77  1  0
 81 84  1  0
 82 86  1  0
 82 81  1  0
 83 82  2  0
 86 85  1  0
 88 86  1  0
 88 89  1  0
 88 87  1  0
M  ISO  4   9 100  17 100  48 101  49 101
M  END
>  <TORSDO>  (23) 
F 19

>  <SCORE>  (23) 
-14.022

>  <name>  (23) 
22

>  <ligand_id>  (23) 
22

>  <original_smiles>  (23) 
[H]c1c([H])c([H])c2c(c1[H])C([H])([H])C([H])([H])C([H])([H])C2([H])N([H])C(=O)C1([H])N(C(=O)C([H])(N([H])C(=O)C([H])(N([H])C([H])([H])[H])C([H])([H])[H])C(C([H])([H])[H])(C([H])([H])[H])C([H])([H])[H])C([H])([H])c2c([H])c(OC([H])([H])C([H])([H])[N+]3([H])C([H])([H])C([H])([H])C([H])(C([H])([H])N([H])C(=O)N4C([H])([H])C([H])([H])C([H])([H])C([H])(n5nc(-c6c([H])c([H])c(Oc7c([H])c([H])c(F)c([H])c7F)c([H])c6[H])c(C(=O)N([H])[H])c5N([H])[H])C4([H])[H])C([H])([H])C3([H])[H])c([H])c([H])c2C1([H])[H]

>  <smiles>  (23) 
[H]c1c([H])c([H])c2c(c1[H])C([H])([H])C([H])([H])C([H])([H])C2([H])N([H])C(=O)C1([H])N(C(=O)C([H])(N([H])C(=O)C([H])(N([H])C([H])([H])[H])C([H])([H])[H])C(C([H])([H])[H])(C([H])([H])[H])C([H])([H])[H])C([H])([H])c2c([H])c(OC([H])([H])C([H])([H])[N+]3([H])C([H])([H])C([H])([H])C([H])(C([H])([H])N([H])C(=O)N4C([H])([H])C([H])([H])C([H])([H])C([H])(n5nc(-c6c([H])c([H])c(Oc7c([H])c([H])c(F)c([H])c7F)c([H])c6[H])c(C(=O)N([H])[H])c5N([H])[H])C4([H])[H])C([H])([H])C3([H])[H])c([H])c([H])c2C1([H])[H]

$$$$
23:0:0
     RDKit          3D

100110  0  0  1  0  0  0  0  0999 V2000
  -27.9010  -18.8350   20.1170 C   0  0  0  0  0  2  0  0  0  0  0  0
  -26.8000  -19.8930   20.3580 C   0  0  0  0  0  2  0  0  0  0  0  0
  -26.7590  -20.5240   17.9010 C   0  0  0  0  0  2  0  0  0  0  0  0
  -28.2230  -20.3050   17.4840 C   0  0  0  0  0  2  0  0  0  0  0  0
  -29.2710  -19.4210   19.6640 C   0  0  0  0  0  3  0  0  0  0  0  0
  -26.8560  -21.0490   19.3370 C   0  0  0  0  0  3  0  0  0  0  0  0
  -29.0450  -20.6890   18.7320 C   0  0  0  0  0  3  0  0  0  0  0  0
  -28.1860  -21.7060   19.4270 N   0  0  1  0  0  4  0  0  0  0  0  0
  -28.4390  -21.7470   20.4030 H   0  0  0  0  0  0  0  0  0  0  0  0
  -30.2340  -18.2850   19.1250 C   0  0  0  0  0  2  0  0  0  0  0  0
  -31.0500  -17.4190   20.1900 C   0  0  0  0  0  3  0  0  0  0  0  0
  -31.8620  -14.8670   19.9610 C   0  0  0  0  0  0  0  0  0  0  0  0
  -31.6140  -12.4650   19.3720 C   0  0  0  0  0  2  0  0  0  0  0  0
  -30.6820  -12.3630   18.1400 C   0  0  0  0  0  2  0  0  0  0  0  0
  -29.1950  -12.3830   18.5600 C   0  0  0  0  0  2  0  0  0  0  0  0
  -28.8680  -13.5110   19.5730 C   0  0  0  0  0  3  0  0  0  0  0  0
  -29.8940  -13.5150   20.7240 C   0  0  0  0  0  2  0  0  0  0  0  0
  -31.2250  -13.6730   20.1140 N   0  0  0  0  0  0  0  0  0  0  0  0
  -33.0590  -14.9490   19.6730 O   0  0  0  0  0  0  0  0  0  0  0  0
  -31.0020  -15.9310   19.9590 N   0  0  0  0  0  0  0  0  0  0  0  0
  -30.0530  -15.5840   19.9670 H   0  0  0  0  0  0  0  0  0  0  0  0
  -26.6120  -14.4540   20.3720 C   0  0  0  0  0  0  0  0  0  0  0  0
  -25.4390  -13.8350   20.7220 C   0  0  0  0  0  0  0  0  0  0  0  0
  -25.6860  -12.4340   20.6140 C   0  0  0  0  0  0  0  0  0  0  0  0
  -27.4980  -13.4300   20.0680 N   0  0  0  0  0  0  0  0  0  0  0  0
  -26.9480  -12.2100   20.2730 N   0  0  0  0  0  0  0  0  0  0  0  0
  -24.7720  -11.2930   20.7490 C   0  0  0  0  0  0  0  0  0  0  0  0
  -25.0770  -10.1990   21.5880 C   0  0  0  0  0  3  0  0  0  0  0  0
  -24.1720   -9.1230   21.7150 C   0  0  0  0  0  3  0  0  0  0  0  0
  -22.9520   -9.1360   20.9980 C   0  0  0  0  0  0  0  0  0  0  0  0
  -22.6650  -10.2160   20.1480 C   0  0  0  0  0  3  0  0  0  0  0  0
  -23.5700  -11.2840   20.0170 C   0  0  0  0  0  3  0  0  0  0  0  0
  -22.0250   -8.1210   21.0390 O   0  0  0  0  0  0  0  0  0  0  0  0
  -21.9160   -7.2940   22.1270 C   0  0  0  0  0  0  0  0  0  0  0  0
  -21.6170   -7.7920   23.4150 C   0  0  0  0  0  3  0  0  0  0  0  0
  -21.4370   -6.9010   24.4900 C   0  0  0  0  0  3  0  0  0  0  0  0
  -21.5540   -5.5120   24.2840 C   0  0  0  0  0  0  0  0  0  0  0  0
  -21.8480   -5.0140   23.0010 C   0  0  0  0  0  3  0  0  0  0  0  0
  -22.0260   -5.9020   21.9270 C   0  0  0  0  0  0  0  0  0  0  0  0
  -22.2870   -5.4170   20.6890 F   0  0  0  0  0  0  0  0  0  0  0  0
  -21.3780   -4.6550   25.3160 F   0  0  0  0  0  0  0  0  0  0  0  0
  -24.1390  -14.5160   21.0380 C   0  0  0  0  0  0  0  0  0  0  0  0
  -23.3260  -13.9110   21.9030 N   0  0  0  0  0  0  0  0  0  0  0  0
  -23.8540  -15.6130   20.5640 O   0  0  0  0  0  0  0  0  0  0  0  0
  -23.5640  -13.0240   22.3120 H   0  0  0  0  0  0  0  0  0  0  0  0
  -22.4480  -14.3470   22.1520 H   0  0  0  0  0  0  0  0  0  0  0  0
  -26.9860  -15.7890   20.2600 N   0  0  0  0  0  0  0  0  0  0  0  0
  -26.3140  -16.5320   20.4120 H   0  0  0  0  0  0  0  0  0  0  0  0
  -27.8550  -16.1150   19.8590 H   0  0  0  0  0  0  0  0  0  0  0  0
  -32.4750  -17.9450   20.5490 C   0  0  0  0  0  2  0  0  0  0  0  0
  -32.5130  -19.3970   20.8850 N   0  0  0  0  0  4  0  0  0  0  0  0
  -31.5660  -19.7440   20.9080 H   0  0  0  0  0  0  0  0  0  0  0  0
  -32.8490  -19.4450   21.8320 H   0  0  0  0  0  0  0  0  0  0  0  0
  -32.7810  -21.5890   19.6260 C   0  0  0  0  0  2  0  0  0  0  0  0
  -33.7550  -21.5760   20.7740 C   0  0  0  0  0  2  0  0  0  0  0  0
  -33.4000  -20.2780   20.0800 C   0  0  0  0  0  3  0  0  0  0  0  0
  -28.1610  -23.1130   18.8550 C   0  0  0  0  0  2  0  0  0  0  0  0
  -29.2490  -24.1420   19.3290 C   0  0  0  0  0  2  0  0  0  0  0  0
  -28.8310  -25.2400   20.3740 C   0  0  0  0  0  2  0  0  0  0  0  0
  -28.9900  -26.6460   19.9840 O   0  0  0  0  0  0  0  0  0  0  0  0
  -24.7510  -31.4780   23.1210 C   0  0  0  0  0  0  0  0  0  0  0  0
  -27.8210  -27.3850   19.9270 C   0  0  0  0  0  0  0  0  0  0  0  0
  -23.7190  -30.0940   21.3540 C   0  0  0  0  0  3  0  0  0  0  0  0
  -25.3370  -28.7520   19.8950 C   0  0  0  0  0  0  0  0  0  0  0  0
  -26.2150  -30.6320   21.2860 C   0  0  0  0  0  2  0  0  0  0  0  0
  -26.4340  -29.3100   20.5660 C   0  0  0  0  0  0  0  0  0  0  0  0
  -27.6850  -28.6440   20.5660 C   0  0  0  0  0  3  0  0  0  0  0  0
  -26.7140  -26.8650   19.2250 C   0  0  0  0  0  3  0  0  0  0  0  0
  -25.4820  -27.5390   19.1970 C   0  0  0  0  0  3  0  0  0  0  0  0
  -24.0360  -29.5270   19.9450 C   0  0  0  0  0  2  0  0  0  0  0  0
  -24.9090  -30.7500   21.9770 N   0  0  0  0  0  0  0  0  0  0  0  0
  -23.6360  -31.6340   23.6350 O   0  0  0  0  0  0  0  0  0  0  0  0
  -23.1080  -28.9760   22.2350 C   0  0  0  0  0  0  0  0  0  0  0  0
  -21.8050  -28.7000   22.0470 N   0  0  0  0  0  0  0  0  0  0  0  0
  -23.8030  -28.3520   23.0430 O   0  0  0  0  0  0  0  0  0  0  0  0
  -21.3060  -29.2350   21.3540 H   0  0  0  0  0  0  0  0  0  0  0  0
  -18.5040  -27.2530   22.3510 C   0  0  0  0  0  0  0  0  0  0  0  0
  -21.0290  -27.6640   22.7340 C   0  0  0  0  0  3  0  0  0  0  0  0
  -21.2480  -26.2830   22.0670 C   0  0  0  0  0  2  0  0  0  0  0  0
  -20.1930  -25.9650   20.9990 C   0  0  0  0  0  2  0  0  0  0  0  0
  -18.7940  -25.9630   21.6110 C   0  0  0  0  0  2  0  0  0  0  0  0
  -19.5520  -28.0540   22.8760 C   0  0  0  0  0  0  0  0  0  0  0  0
  -19.2250  -29.2400   23.5660 C   0  0  0  0  0  3  0  0  0  0  0  0
  -17.8780  -29.6260   23.7300 C   0  0  0  0  0  3  0  0  0  0  0  0
  -16.8460  -28.8320   23.2010 C   0  0  0  0  0  3  0  0  0  0  0  0
  -17.1600  -27.6460   22.5170 C   0  0  0  0  0  3  0  0  0  0  0  0
  -25.9600  -32.1690   23.8270 C   0  0  0  0  0  3  0  0  0  0  0  0
  -25.5680  -33.5510   24.1280 N   0  0  0  0  0  0  0  0  0  0  0  0
  -25.9110  -34.6140   23.3920 C   0  0  0  0  0  0  0  0  0  0  0  0
  -26.6670  -34.5320   22.4190 O   0  0  0  0  0  0  0  0  0  0  0  0
  -24.9200  -33.6840   24.8910 H   0  0  0  0  0  0  0  0  0  0  0  0
  -24.1490  -36.3360   22.8950 C   0  0  0  0  0  1  0  0  0  0  0  0
  -25.3370  -35.9870   23.8070 C   0  0  0  0  0  3  0  0  0  0  0  0
  -27.3600  -36.9740   24.7870 C   0  0  0  0  0  1  0  0  0  0  0  0
  -26.3270  -37.0840   23.7580 N   0  0  0  0  0  0  0  0  0  0  0  0
  -25.8770  -37.9900   23.8560 H   0  0  0  0  0  0  0  0  0  0  0  0
  -26.4090  -31.4230   25.1470 C   0  0  1  0  0  0  0  0  0  0  0  0
  -25.2540  -31.1540   26.1450 C   0  0  0  0  0  1  0  0  0  0  0  0
  -27.0710  -30.0660   24.8120 C   0  0  0  0  0  1  0  0  0  0  0  0
  -27.4810  -32.2630   25.8830 C   0  0  0  0  0  1  0  0  0  0  0  0
  1  2  1  0
  4  3  1  0
  5 10  1  0
  5  1  1  0
  6  3  1  0
  6  8  1  0
  6  2  1  0
  7  4  1  0
  7  8  1  0
  7  5  1  0
  8  9  1  1
 11 10  1  0
 11 50  1  0
 12 18  1  0
 13 18  1  0
 14 15  1  0
 14 13  1  0
 16 15  1  0
 16 25  1  0
 16 17  1  0
 18 17  1  0
 19 12  2  0
 20 12  1  0
 20 21  1  0
 20 11  1  0
 22 23  2  0
 23 42  1  0
 24 23  1  0
 24 27  1  0
 25 26  1  0
 25 22  1  0
 26 24  2  0
 27 28  1  0
 28 29  2  0
 30 33  1  0
 30 29  1  0
 31 30  2  0
 32 31  1  0
 32 27  2  0
 33 34  1  0
 34 35  1  0
 35 36  2  0
 37 36  1  0
 37 41  1  0
 38 37  2  0
 39 34  2  0
 39 38  1  0
 40 39  1  0
 42 43  1  0
 43 46  1  0
 43 45  1  0
 44 42  2  0
 47 22  1  0
 47 48  1  0
 49 47  1  0
 50 51  1  0
 51 52  1  0
 51 53  1  0
 54 56  1  0
 54 55  1  0
 56 55  1  0
 56 51  1  0
 57 58  1  0
 57  8  1  0
 58 59  1  0
 60 59  1  0
 61 72  2  0
 62 60  1  0
 62 67  1  0
 63 71  1  0
 63 73  1  0
 64 70  1  0
 64 66  1  0
 65 71  1  0
 66 67  2  0
 66 65  1  0
 68 62  2  0
 69 68  1  0
 69 64  2  0
 70 63  1  0
 71 61  1  0
 73 75  2  0
 74 73  1  0
 76 74  1  0
 77 86  2  0
 77 82  1  0
 78 74  1  0
 78 82  1  0
 79 78  1  0
 80 81  1  0
 80 79  1  0
 81 77  1  0
 82 83  2  0
 83 84  1  0
 85 84  2  0
 86 85  1  0
 87 61  1  0
 87 88  1  0
 87 97  1  0
 88 91  1  0
 89 93  1  0
 89 88  1  0
 90 89  2  0
 93 92  1  0
 95 93  1  0
 95 96  1  0
 95 94  1  0
 97100  1  1
 97 98  1  0
 99 97  1  0
M  ISO  4  12 100  20 100  59 101  60 101
M  END
>  <TORSDO>  (24) 
F 24

>  <SCORE>  (24) 
-9.389

>  <name>  (24) 
23

>  <ligand_id>  (24) 
23

>  <original_smiles>  (24) 
[H]c1c([H])c([H])c2c(c1[H])C([H])([H])C([H])([H])C([H])([H])C2([H])N([H])C(=O)C1([H])N(C(=O)C([H])(N([H])C(=O)C([H])(N([H])C([H])([H])[H])C([H])([H])[H])C(C([H])([H])[H])(C([H])([H])[H])C([H])([H])[H])C([H])([H])c2c([H])c(OC([H])([H])C([H])([H])C([H])([H])[N+]3([H])C4([H])C([H])([H])C([H])([H])C([H])(C([H])([H])C([H])(N([H])C(=O)N5C([H])([H])C([H])([H])C([H])([H])C([H])(n6nc(-c7c([H])c([H])c(Oc8c([H])c([H])c(F)c([H])c8F)c([H])c7[H])c(C(=O)N([H])[H])c6N([H])[H])C5([H])[H])C([H])([H])[N+]([H])([H])C5([H])C([H])([H])C5([H])[H])C3([H])C([H])([H])C4([H])[H])c([H])c([H])c2C1([H])[H]

>  <smiles>  (24) 
[H]c1c([H])c([H])c2c(c1[H])C([H])([H])C([H])([H])C([H])([H])C2([H])N([H])C(=O)C1([H])N(C(=O)C([H])(N([H])C(=O)C([H])(N([H])C([H])([H])[H])C([H])([H])[H])C(C([H])([H])[H])(C([H])([H])[H])C([H])([H])[H])C([H])([H])c2c([H])c(OC([H])([H])C([H])([H])C([H])([H])[N+]3([H])C4([H])C([H])([H])C([H])([H])C([H])(C([H])([H])C([H])(N([H])C(=O)N5C([H])([H])C([H])([H])C([H])([H])C([H])(n6nc(-c7c([H])c([H])c(Oc8c([H])c([H])c(F)c([H])c8F)c([H])c7[H])c(C(=O)N([H])[H])c6N([H])[H])C5([H])[H])C([H])([H])[N+]([H])([H])C5([H])C([H])([H])C5([H])[H])C3([H])C([H])([H])C4([H])[H])c([H])c([H])c2C1([H])[H]

$$$$
24:0:0
     RDKit          3D

 93101  0  0  1  0  0  0  0  0999 V2000
  -29.8360  -20.8200   20.3120 C   0  0  0  0  0  2  0  0  0  0  0  0
  -30.5040  -15.1000   20.2400 C   0  0  0  0  0  0  0  0  0  0  0  0
  -30.3960  -12.7420   19.2650 C   0  0  0  0  0  2  0  0  0  0  0  0
  -29.4450  -12.6200   18.0490 C   0  0  0  0  0  2  0  0  0  0  0  0
  -28.0000  -12.3260   18.5020 C   0  0  0  0  0  2  0  0  0  0  0  0
  -27.5650  -13.2570   19.6520 C   0  0  0  0  0  3  0  0  0  0  0  0
  -28.6430  -13.3370   20.7700 C   0  0  0  0  0  2  0  0  0  0  0  0
  -29.8830  -13.8370   20.1440 N   0  0  0  0  0  0  0  0  0  0  0  0
  -31.7300  -15.1000   20.0760 O   0  0  0  0  0  0  0  0  0  0  0  0
  -28.2400  -18.9420   19.4690 C   0  0  0  0  0  2  0  0  0  0  0  0
  -30.3410  -17.8430   20.3960 C   0  0  0  0  0  2  0  0  0  0  0  0
  -28.3800  -16.3650   19.8670 C   0  0  0  0  0  2  0  0  0  0  0  0
  -29.3570  -19.2110   20.4610 C   0  0  0  0  0  3  0  0  0  0  0  0
  -27.5110  -17.6450   19.8160 C   0  0  0  0  0  3  0  0  0  0  0  0
  -29.7870  -16.3630   20.3010 N   0  0  0  0  0  0  0  0  0  0  0  0
  -25.1800  -13.8690   20.3740 C   0  0  0  0  0  0  0  0  0  0  0  0
  -24.1250  -13.1000   20.7670 C   0  0  0  0  0  0  0  0  0  0  0  0
  -24.6010  -11.7540   20.7630 C   0  0  0  0  0  0  0  0  0  0  0  0
  -26.2330  -12.9880   20.1610 N   0  0  0  0  0  0  0  0  0  0  0  0
  -25.8910  -11.7150   20.4630 N   0  0  0  0  0  0  0  0  0  0  0  0
  -23.8880  -10.4920   20.9600 C   0  0  0  0  0  0  0  0  0  0  0  0
  -24.3240   -9.5450   21.9100 C   0  0  0  0  0  3  0  0  0  0  0  0
  -23.6120   -8.3420   22.0960 C   0  0  0  0  0  3  0  0  0  0  0  0
  -22.4500   -8.0820   21.3310 C   0  0  0  0  0  0  0  0  0  0  0  0
  -22.0350   -9.0190   20.3680 C   0  0  0  0  0  3  0  0  0  0  0  0
  -22.7490  -10.2130   20.1800 C   0  0  0  0  0  3  0  0  0  0  0  0
  -21.7070   -6.9310   21.4310 O   0  0  0  0  0  0  0  0  0  0  0  0
  -21.6480   -6.2140   22.5980 C   0  0  0  0  0  0  0  0  0  0  0  0
  -21.1740   -6.7850   23.7990 C   0  0  0  0  0  3  0  0  0  0  0  0
  -21.0640   -5.9920   24.9590 C   0  0  0  0  0  3  0  0  0  0  0  0
  -21.4200   -4.6300   24.9180 C   0  0  0  0  0  0  0  0  0  0  0  0
  -21.8870   -4.0600   23.7210 C   0  0  0  0  0  3  0  0  0  0  0  0
  -21.9990   -4.8500   22.5640 C   0  0  0  0  0  0  0  0  0  0  0  0
  -22.4310   -4.2920   21.4080 F   0  0  0  0  0  0  0  0  0  0  0  0
  -21.3060   -3.8660   26.0290 F   0  0  0  0  0  0  0  0  0  0  0  0
  -22.7210  -13.5730   21.0060 C   0  0  0  0  0  0  0  0  0  0  0  0
  -21.9900  -12.9020   21.8870 N   0  0  0  0  0  0  0  0  0  0  0  0
  -22.2870  -14.5790   20.4450 O   0  0  0  0  0  0  0  0  0  0  0  0
  -22.3580  -12.0920   22.3610 H   0  0  0  0  0  0  0  0  0  0  0  0
  -21.0480  -13.2040   22.0910 H   0  0  0  0  0  0  0  0  0  0  0  0
  -25.2970  -15.2340   20.1200 N   0  0  0  0  0  0  0  0  0  0  0  0
  -24.3470  -15.5930   20.0700 H   0  0  0  0  0  0  0  0  0  0  0  0
  -25.7220  -15.3190   19.2030 H   0  0  0  0  0  0  0  0  0  0  0  0
  -26.6490  -17.7560   21.0130 N   0  0  0  0  0  4  0  0  0  0  0  0
  -27.1800  -17.8470   21.8600 H   0  0  0  0  0  0  0  0  0  0  0  0
  -26.0950  -16.9080   21.0740 H   0  0  0  0  0  0  0  0  0  0  0  0
  -26.0110  -18.5270   20.9350 H   0  0  0  0  0  0  0  0  0  0  0  0
  -28.8010  -22.0190   20.3400 N   0  0  0  0  0  4  0  0  0  0  0  0
  -28.2490  -21.9000   21.1750 H   0  0  0  0  0  0  0  0  0  0  0  0
  -28.1760  -21.8670   19.5640 H   0  0  0  0  0  0  0  0  0  0  0  0
  -29.1990  -23.5520   20.2900 C   0  0  0  0  0  3  0  0  0  0  0  0
  -28.0570  -24.7720   20.1380 C   0  0  0  0  0  3  0  0  0  0  0  0
  -28.2910  -26.3030   20.2230 O   0  0  0  0  0  0  0  0  0  0  0  0
  -24.6460  -31.9140   23.2680 C   0  0  0  0  0  0  0  0  0  0  0  0
  -27.2060  -27.2480   20.1790 C   0  0  0  0  0  0  0  0  0  0  0  0
  -23.4290  -30.5380   21.6240 C   0  0  0  0  0  3  0  0  0  0  0  0
  -24.8650  -28.9720   20.1780 C   0  0  0  0  0  0  0  0  0  0  0  0
  -25.9800  -30.8060   21.4410 C   0  0  0  0  0  2  0  0  0  0  0  0
  -26.0480  -29.4210   20.7790 C   0  0  0  0  0  0  0  0  0  0  0  0
  -27.2180  -28.5770   20.7590 C   0  0  0  0  0  3  0  0  0  0  0  0
  -25.9910  -26.8900   19.5480 C   0  0  0  0  0  3  0  0  0  0  0  0
  -24.8480  -27.7190   19.5490 C   0  0  0  0  0  3  0  0  0  0  0  0
  -23.6390  -29.8690   20.2380 C   0  0  0  0  0  2  0  0  0  0  0  0
  -24.7050  -31.1060   22.1660 N   0  0  0  0  0  0  0  0  0  0  0  0
  -23.5650  -32.1980   23.8060 O   0  0  0  0  0  0  0  0  0  0  0  0
  -22.7530  -29.5260   22.5800 C   0  0  0  0  0  0  0  0  0  0  0  0
  -21.4250  -29.3560   22.4530 N   0  0  0  0  0  0  0  0  0  0  0  0
  -23.4250  -28.8960   23.4010 O   0  0  0  0  0  0  0  0  0  0  0  0
  -20.9390  -29.9140   21.7660 H   0  0  0  0  0  0  0  0  0  0  0  0
  -18.0450  -28.1500   22.9440 C   0  0  0  0  0  0  0  0  0  0  0  0
  -20.6020  -28.4150   23.2190 C   0  0  0  0  0  3  0  0  0  0  0  0
  -20.7090  -26.9840   22.6420 C   0  0  0  0  0  2  0  0  0  0  0  0
  -19.6100  -26.6620   21.6240 C   0  0  0  0  0  2  0  0  0  0  0  0
  -18.2270  -26.8030   22.2640 C   0  0  0  0  0  2  0  0  0  0  0  0
  -19.1610  -28.9140   23.3780 C   0  0  0  0  0  0  0  0  0  0  0  0
  -18.9360  -30.1730   23.9740 C   0  0  0  0  0  3  0  0  0  0  0  0
  -17.6290  -30.6690   24.1410 C   0  0  0  0  0  3  0  0  0  0  0  0
  -16.5280  -29.9030   23.7220 C   0  0  0  0  0  3  0  0  0  0  0  0
  -16.7370  -28.6450   23.1290 C   0  0  0  0  0  3  0  0  0  0  0  0
  -25.9320  -32.5370   23.8920 C   0  0  0  0  0  3  0  0  0  0  0  0
  -26.4410  -31.7590   25.1690 C   0  0  1  0  0  0  0  0  0  0  0  0
  -25.3450  -31.5290   26.2370 C   0  0  0  0  0  1  0  0  0  0  0  0
  -27.0130  -30.3770   24.7780 C   0  0  0  0  0  1  0  0  0  0  0  0
  -27.5990  -32.5420   25.8320 C   0  0  0  0  0  1  0  0  0  0  0  0
  -25.6320  -33.9370   24.2310 N   0  0  0  0  0  0  0  0  0  0  0  0
  -25.9440  -34.9910   23.4670 C   0  0  0  0  0  0  0  0  0  0  0  0
  -26.5810  -34.8890   22.4150 O   0  0  0  0  0  0  0  0  0  0  0  0
  -25.0630  -34.0910   25.0510 H   0  0  0  0  0  0  0  0  0  0  0  0
  -24.2000  -36.7840   23.1870 C   0  0  0  0  0  1  0  0  0  0  0  0
  -25.4770  -36.3820   23.9430 C   0  0  0  0  0  3  0  0  0  0  0  0
  -27.6430  -37.2770   24.6770 C   0  0  0  0  0  1  0  0  0  0  0  0
  -26.5020  -37.4360   23.7790 N   0  0  0  0  0  0  0  0  0  0  0  0
  -26.1010  -38.3560   23.9360 H   0  0  0  0  0  0  0  0  0  0  0  0
  1 48  1  0
  2 15  1  0
  3  8  1  0
  4  5  1  0
  4  3  1  0
  6  5  1  0
  6 19  1  0
  6  7  1  0
  8  2  1  0
  8  7  1  0
  9  2  2  0
 10 14  1  0
 10 13  1  0
 11 13  1  0
 12 15  1  0
 13  1  1  0
 14 12  1  0
 14 44  1  0
 15 11  1  0
 16 17  2  0
 17 36  1  0
 18 17  1  0
 18 21  1  0
 19 16  1  0
 19 20  1  0
 20 18  2  0
 21 22  1  0
 22 23  2  0
 24 27  1  0
 24 23  1  0
 25 24  2  0
 26 25  1  0
 26 21  2  0
 27 28  1  0
 28 29  1  0
 29 30  2  0
 31 30  1  0
 31 35  1  0
 32 31  2  0
 33 28  2  0
 33 32  1  0
 34 33  1  0
 36 37  1  0
 37 40  1  0
 37 39  1  0
 38 36  2  0
 41 16  1  0
 42 41  1  0
 43 41  1  0
 44 46  1  0
 44 45  1  0
 47 44  1  0
 48 49  1  0
 50 48  1  0
 51 48  1  0
 52 53  1  0
 52 51  2  0
 54 65  2  0
 55 53  1  0
 55 60  1  0
 56 64  1  0
 56 66  1  0
 57 63  1  0
 57 59  1  0
 58 64  1  0
 59 58  1  0
 60 59  2  0
 61 62  1  0
 61 55  2  0
 62 57  2  0
 63 56  1  0
 64 54  1  0
 66 68  2  0
 67 66  1  0
 69 67  1  0
 70 79  2  0
 70 75  1  0
 71 67  1  0
 71 75  1  0
 72 71  1  0
 73 74  1  0
 73 72  1  0
 74 70  1  0
 75 76  2  0
 76 77  1  0
 78 77  2  0
 79 78  1  0
 80 54  1  0
 80 85  1  0
 80 81  1  0
 81 84  1  1
 81 82  1  0
 83 81  1  0
 85 88  1  0
 86 90  1  0
 86 85  1  0
 87 86  2  0
 90 89  1  0
 92 93  1  0
 92 90  1  0
 92 91  1  0
M  ISO  4   2 100  15 100  52 101  53 101
M  END
>  <TORSDO>  (25) 
F 20

>  <SCORE>  (25) 
-13.355

>  <name>  (25) 
24

>  <ligand_id>  (25) 
24

>  <original_smiles>  (25) 
[H]c1c([H])c([H])c2c(c1[H])C([H])([H])C([H])([H])C([H])([H])C2([H])N([H])C(=O)C1([H])N(C(=O)C([H])(N([H])C(=O)C([H])(N([H])C([H])([H])[H])C([H])([H])[H])C(C([H])([H])[H])(C([H])([H])[H])C([H])([H])[H])C([H])([H])c2c([H])c(OC([H])([H])C([H])([H])[N+]([H])([H])C([H])([H])C3([H])C([H])([H])N(C(=O)N4C([H])([H])C([H])([H])C([H])([H])C([H])(n5nc(-c6c([H])c([H])c(Oc7c([H])c([H])c(F)c([H])c7F)c([H])c6[H])c(C(=O)N([H])[H])c5N([H])[H])C4([H])[H])C([H])([H])C([H])([N+]([H])([H])[H])C3([H])[H])c([H])c([H])c2C1([H])[H]

>  <smiles>  (25) 
[H]c1c([H])c([H])c2c(c1[H])C([H])([H])C([H])([H])C([H])([H])C2([H])N([H])C(=O)C1([H])N(C(=O)C([H])(N([H])C(=O)C([H])(N([H])C([H])([H])[H])C([H])([H])[H])C(C([H])([H])[H])(C([H])([H])[H])C([H])([H])[H])C([H])([H])c2c([H])c(OC([H])([H])C([H])([H])[N+]([H])([H])C([H])([H])C3([H])C([H])([H])N(C(=O)N4C([H])([H])C([H])([H])C([H])([H])C([H])(n5nc(-c6c([H])c([H])c(Oc7c([H])c([H])c(F)c([H])c7F)c([H])c6[H])c(C(=O)N([H])[H])c5N([H])[H])C4([H])[H])C([H])([H])C([H])([N+]([H])([H])[H])C3([H])[H])c([H])c([H])c2C1([H])[H]

$$$$
25:0:0
     RDKit          3D

 99107  0  0  1  0  0  0  0  0999 V2000
  -27.6770  -17.9980   19.6830 C   0  0  0  0  0  3  0  0  0  0  0  0
  -28.9040  -17.3230   19.6540 C   0  0  0  0  0  3  0  0  0  0  0  0
  -28.4050  -19.3310   17.8090 C   0  0  0  0  0  3  0  0  0  0  0  0
  -27.4220  -19.0190   18.7660 C   0  0  0  0  0  0  0  0  0  0  0  0
  -29.9420  -17.5910   18.7150 C   0  0  0  0  0  0  0  0  0  0  0  0
  -29.6560  -18.6520   17.7070 C   0  0  0  0  0  0  0  0  0  0  0  0
  -26.1540  -19.7560   18.8160 C   0  0  0  0  0  0  0  0  0  0  0  0
  -26.0670  -20.9790   18.2990 N   0  0  0  0  0  4  0  0  0  0  0  0
  -25.0710  -19.2180   19.3740 N   0  0  0  0  0  0  0  0  0  0  0  0
  -26.9060  -21.4300   17.9680 H   0  0  0  0  0  0  0  0  0  0  0  0
  -25.2050  -21.4980   18.2580 H   0  0  0  0  0  0  0  0  0  0  0  0
  -25.1220  -18.2750   19.7300 H   0  0  0  0  0  0  0  0  0  0  0  0
  -24.1890  -19.7030   19.4340 H   0  0  0  0  0  0  0  0  0  0  0  0
  -31.2350  -16.6840   18.9820 C   0  0  0  0  0  2  0  0  0  0  0  0
  -31.9580  -14.5490   20.4800 C   0  0  0  0  0  0  0  0  0  0  0  0
  -32.0260  -12.0930   20.9600 C   0  0  0  0  0  2  0  0  0  0  0  0
  -31.3680  -11.3430   19.7790 C   0  0  0  0  0  2  0  0  0  0  0  0
  -29.8390  -11.2500   19.9610 C   0  0  0  0  0  2  0  0  0  0  0  0
  -29.2080  -12.6080   20.3630 C   0  0  0  0  0  3  0  0  0  0  0  0
  -29.9990  -13.2910   21.5000 C   0  0  0  0  0  2  0  0  0  0  0  0
  -31.3920  -13.4280   21.0500 N   0  0  0  0  0  0  0  0  0  0  0  0
  -33.1760  -14.6110   20.2980 O   0  0  0  0  0  0  0  0  0  0  0  0
  -31.0910  -15.4860   19.9460 N   0  0  0  0  0  0  0  0  0  0  0  0
  -30.1380  -15.2880   20.1950 H   0  0  0  0  0  0  0  0  0  0  0  0
  -26.8260  -13.4610   20.7920 C   0  0  0  0  0  0  0  0  0  0  0  0
  -25.6490  -12.8130   21.0400 C   0  0  0  0  0  0  0  0  0  0  0  0
  -25.9640  -11.4200   21.0630 C   0  0  0  0  0  0  0  0  0  0  0  0
  -27.7910  -12.4730   20.6850 N   0  0  0  0  0  0  0  0  0  0  0  0
  -27.2700  -11.2410   20.9100 N   0  0  0  0  0  0  0  0  0  0  0  0
  -25.0860  -10.2470   21.1620 C   0  0  0  0  0  0  0  0  0  0  0  0
  -25.2250   -9.3060   22.2060 C   0  0  0  0  0  3  0  0  0  0  0  0
  -24.3560   -8.1970   22.2890 C   0  0  0  0  0  3  0  0  0  0  0  0
  -23.3330   -8.0220   21.3260 C   0  0  0  0  0  0  0  0  0  0  0  0
  -23.2140   -8.9490   20.2760 C   0  0  0  0  0  3  0  0  0  0  0  0
  -24.0840  -10.0490   20.1900 C   0  0  0  0  0  3  0  0  0  0  0  0
  -22.4590   -6.9630   21.3150 O   0  0  0  0  0  0  0  0  0  0  0  0
  -22.0130   -6.3840   22.4760 C   0  0  0  0  0  0  0  0  0  0  0  0
  -21.2990   -7.1180   23.4480 C   0  0  0  0  0  3  0  0  0  0  0  0
  -20.7990   -6.4670   24.5940 C   0  0  0  0  0  3  0  0  0  0  0  0
  -21.0060   -5.0860   24.7650 C   0  0  0  0  0  0  0  0  0  0  0  0
  -21.7110   -4.3520   23.7950 C   0  0  0  0  0  3  0  0  0  0  0  0
  -22.2110   -5.0000   22.6520 C   0  0  0  0  0  0  0  0  0  0  0  0
  -22.8740   -4.2850   21.7110 F   0  0  0  0  0  0  0  0  0  0  0  0
  -20.5170   -4.4580   25.8610 F   0  0  0  0  0  0  0  0  0  0  0  0
  -24.2900  -13.4420   21.1440 C   0  0  0  0  0  0  0  0  0  0  0  0
  -23.3990  -12.8480   21.9300 N   0  0  0  0  0  0  0  0  0  0  0  0
  -24.0280  -14.4950   20.5650 O   0  0  0  0  0  0  0  0  0  0  0  0
  -23.6220  -11.9930   22.4170 H   0  0  0  0  0  0  0  0  0  0  0  0
  -22.4810  -13.2530   22.0460 H   0  0  0  0  0  0  0  0  0  0  0  0
  -27.1490  -14.8020   20.6180 N   0  0  0  0  0  0  0  0  0  0  0  0
  -26.4060  -15.4850   20.5260 H   0  0  0  0  0  0  0  0  0  0  0  0
  -28.0190  -15.1150   20.2080 H   0  0  0  0  0  0  0  0  0  0  0  0
  -30.5270  -19.2640   16.5200 C   0  0  0  0  0  2  0  0  0  0  0  0
  -30.0220  -20.5870   15.8880 N   0  0  0  0  0  4  0  0  0  0  0  0
  -29.0850  -20.7090   16.2300 H   0  0  0  0  0  0  0  0  0  0  0  0
  -29.9220  -20.4040   14.9010 H   0  0  0  0  0  0  0  0  0  0  0  0
  -30.7390  -21.9510   16.0550 C   0  0  0  0  0  2  0  0  0  0  0  0
  -29.8380  -23.2930   15.8610 C   0  0  0  0  0  2  0  0  0  0  0  0
  -30.0250  -24.5830   16.6280 O   0  0  0  0  0  0  0  0  0  0  0  0
  -24.3140  -27.4960   20.0570 C   0  0  0  0  0  0  0  0  0  0  0  0
  -28.9820  -25.5460   16.6320 C   0  0  0  0  0  0  0  0  0  0  0  0
  -24.4520  -27.8480   17.6190 C   0  0  0  0  0  3  0  0  0  0  0  0
  -26.7080  -27.3090   16.5330 C   0  0  0  0  0  0  0  0  0  0  0  0
  -26.5940  -27.5710   19.0080 C   0  0  0  0  0  2  0  0  0  0  0  0
  -27.2730  -26.9800   17.7720 C   0  0  0  0  0  0  0  0  0  0  0  0
  -28.4130  -26.1130   17.8240 C   0  0  0  0  0  3  0  0  0  0  0  0
  -28.4060  -25.9680   15.4100 C   0  0  0  0  0  3  0  0  0  0  0  0
  -27.2820  -26.8140   15.3540 C   0  0  0  0  0  3  0  0  0  0  0  0
  -25.4840  -28.2050   16.5180 C   0  0  0  0  0  2  0  0  0  0  0  0
  -25.1030  -27.6130   18.9480 N   0  0  0  0  0  0  0  0  0  0  0  0
  -23.0820  -27.6070   19.9870 O   0  0  0  0  0  0  0  0  0  0  0  0
  -23.5970  -26.6510   17.1340 C   0  0  0  0  0  0  0  0  0  0  0  0
  -22.7130  -26.8940   16.1510 N   0  0  0  0  0  0  0  0  0  0  0  0
  -23.7540  -25.5290   17.6230 O   0  0  0  0  0  0  0  0  0  0  0  0
  -22.6350  -27.8410   15.8090 H   0  0  0  0  0  0  0  0  0  0  0  0
  -20.2440  -26.4100   13.5510 C   0  0  0  0  0  0  0  0  0  0  0  0
  -21.8460  -25.9010   15.5140 C   0  0  0  0  0  3  0  0  0  0  0  0
  -22.6350  -25.0300   14.5080 C   0  0  0  0  0  2  0  0  0  0  0  0
  -22.5830  -25.5690   13.0750 C   0  0  0  0  0  2  0  0  0  0  0  0
  -21.1340  -25.6460   12.5850 C   0  0  0  0  0  2  0  0  0  0  0  0
  -20.5870  -26.5420   14.9220 C   0  0  0  0  0  0  0  0  0  0  0  0
  -19.7420  -27.2910   15.7700 C   0  0  0  0  0  3  0  0  0  0  0  0
  -18.5760  -27.9000   15.2700 C   0  0  0  0  0  3  0  0  0  0  0  0
  -18.2350  -27.7550   13.9150 C   0  0  0  0  0  3  0  0  0  0  0  0
  -19.0640  -27.0080   13.0590 C   0  0  0  0  0  3  0  0  0  0  0  0
  -24.9250  -27.2400   21.4680 C   0  0  0  0  0  3  0  0  0  0  0  0
  -24.1950  -28.0830   22.4280 N   0  0  0  0  0  0  0  0  0  0  0  0
  -24.6470  -29.2440   22.9200 C   0  0  0  0  0  0  0  0  0  0  0  0
  -25.7690  -29.6880   22.6600 O   0  0  0  0  0  0  0  0  0  0  0  0
  -23.2460  -27.8110   22.6390 H   0  0  0  0  0  0  0  0  0  0  0  0
  -23.0300  -31.1660   23.0560 C   0  0  0  0  0  1  0  0  0  0  0  0
  -23.7090  -30.0380   23.8490 C   0  0  0  0  0  3  0  0  0  0  0  0
  -24.8210  -29.5940   25.9940 C   0  0  0  0  0  1  0  0  0  0  0  0
  -24.3950  -30.6060   25.0310 N   0  0  0  0  0  0  0  0  0  0  0  0
  -23.7940  -31.2710   25.5120 H   0  0  0  0  0  0  0  0  0  0  0  0
  -24.8610  -25.7240   21.9060 C   0  0  1  0  0  0  0  0  0  0  0  0
  -23.4550  -25.0950   21.7700 C   0  0  0  0  0  1  0  0  0  0  0  0
  -25.8420  -24.8700   21.0690 C   0  0  0  0  0  1  0  0  0  0  0  0
  -25.3060  -25.5890   23.3820 C   0  0  0  0  0  1  0  0  0  0  0  0
  2  1  1  0
  3  4  1  0
  4  7  1  0
  4  1  2  0
  5 14  1  0
  5  2  2  0
  6  3  2  0
  6  5  1  0
  7  9  1  0
  8  7  2  0
  9 13  1  0
  9 12  1  0
 10  8  1  0
 11  8  1  0
 14 23  1  0
 15 21  1  0
 16 21  1  0
 17 18  1  0
 17 16  1  0
 19 18  1  0
 19 28  1  0
 19 20  1  0
 21 20  1  0
 22 15  2  0
 23 24  1  0
 23 15  1  0
 25 26  2  0
 26 27  1  0
 26 45  1  0
 27 30  1  0
 28 25  1  0
 28 29  1  0
 29 27  2  0
 30 31  1  0
 31 32  2  0
 33 32  1  0
 34 33  2  0
 35 34  1  0
 35 30  2  0
 36 33  1  0
 36 37  1  0
 37 42  2  0
 37 38  1  0
 38 39  2  0
 39 40  1  0
 40 44  1  0
 41 40  2  0
 42 41  1  0
 43 42  1  0
 45 46  1  0
 46 49  1  0
 46 48  1  0
 47 45  2  0
 50 25  1  0
 51 50  1  0
 52 50  1  0
 53  6  1  0
 54 57  1  0
 54 55  1  0
 54 53  1  0
 56 54  1  0
 58 57  1  0
 58 59  1  0
 59 61  1  0
 61 66  1  0
 62 72  1  0
 62 70  1  0
 63 65  1  0
 65 66  2  0
 65 64  1  0
 67 61  2  0
 68 67  1  0
 68 63  2  0
 69 63  1  0
 69 62  1  0
 70 64  1  0
 70 60  1  0
 71 60  2  0
 72 74  2  0
 73 72  1  0
 75 73  1  0
 76 81  1  0
 77 73  1  0
 78 77  1  0
 79 78  1  0
 80 79  1  0
 80 76  1  0
 81 77  1  0
 81 82  2  0
 83 82  1  0
 84 83  2  0
 85 76  2  0
 85 84  1  0
 86 60  1  0
 86 96  1  0
 86 87  1  0
 87 90  1  0
 87 88  1  0
 88 92  1  0
 89 88  2  0
 92 91  1  0
 92 94  1  0
 94 95  1  0
 94 93  1  0
 96 99  1  1
 97 96  1  0
 98 96  1  0
M  ISO  4  15 100  23 100  58 101  59 101
M  END
>  <TORSDO>  (26) 
F 22

>  <SCORE>  (26) 
-8.009

>  <name>  (26) 
25

>  <ligand_id>  (26) 
25

>  <original_smiles>  (26) 
[H]c1c([H])c([H])c2c(c1[H])C([H])([H])C([H])([H])C([H])([H])C2([H])N([H])C(=O)C1([H])N(C(=O)C([H])(N([H])C(=O)C([H])(N([H])C([H])([H])[H])C([H])([H])[H])C(C([H])([H])[H])(C([H])([H])[H])C([H])([H])[H])C([H])([H])c2c([H])c(OC([H])([H])C([H])([H])[N+]([H])([H])C([H])([H])c3c([H])c(C(N([H])[H])=[N+]([H])[H])c([H])c([H])c3C([H])([H])N([H])C(=O)N3C([H])([H])C([H])([H])C([H])([H])C([H])(n4nc(-c5c([H])c([H])c(Oc6c([H])c([H])c(F)c([H])c6F)c([H])c5[H])c(C(=O)N([H])[H])c4N([H])[H])C3([H])[H])c([H])c([H])c2C1([H])[H]

>  <smiles>  (26) 
[H]c1c([H])c([H])c2c(c1[H])C([H])([H])C([H])([H])C([H])([H])C2([H])N([H])C(=O)C1([H])N(C(=O)C([H])(N([H])C(=O)C([H])(N([H])C([H])([H])[H])C([H])([H])[H])C(C([H])([H])[H])(C([H])([H])[H])C([H])([H])[H])C([H])([H])c2c([H])c(OC([H])([H])C([H])([H])[N+]([H])([H])C([H])([H])c3c([H])c(C(N([H])[H])=[N+]([H])[H])c([H])c([H])c3C([H])([H])N([H])C(=O)N3C([H])([H])C([H])([H])C([H])([H])C([H])(n4nc(-c5c([H])c([H])c(Oc6c([H])c([H])c(F)c([H])c6F)c([H])c5[H])c(C(=O)N([H])[H])c4N([H])[H])C3([H])[H])c([H])c([H])c2C1([H])[H]

$$$$
26:0:0
     RDKit          3D

 91 99  0  0  1  0  0  0  0  0999 V2000
  -30.9990  -14.5700   19.0620 C   0  0  0  0  0  0  0  0  0  0  0  0
  -30.7510  -12.1440   18.3630 C   0  0  0  0  0  2  0  0  0  0  0  0
  -29.6480  -11.9790   17.2900 C   0  0  0  0  0  2  0  0  0  0  0  0
  -28.2620  -11.8180   17.9440 C   0  0  0  0  0  2  0  0  0  0  0  0
  -28.0220  -12.8530   19.0720 C   0  0  0  0  0  3  0  0  0  0  0  0
  -29.2300  -12.9390   20.0290 C   0  0  0  0  0  2  0  0  0  0  0  0
  -30.4020  -13.3160   19.2220 N   0  0  0  0  0  0  0  0  0  0  0  0
  -32.0590  -14.6070   18.4270 O   0  0  0  0  0  0  0  0  0  0  0  0
  -28.6780  -16.4010   21.1420 C   0  0  0  0  0  0  0  0  0  0  0  0
  -30.1340  -16.0500   20.8270 C   0  0  0  0  0  2  0  0  0  0  0  0
  -27.8640  -17.1460   20.0810 C   0  0  0  0  0  2  0  0  0  0  0  0
  -30.3430  -17.1560   18.6000 C   0  0  0  0  0  2  0  0  0  0  0  0
  -29.7360  -18.6290   19.1710 C   0  0  0  0  0  3  0  0  0  0  0  0
  -30.3340  -15.7880   19.3930 N   0  0  0  0  0  0  0  0  0  0  0  0
  -28.4230  -18.4940   19.8520 N   0  0  0  0  0  4  0  0  0  0  0  0
  -28.1910  -16.1200   22.2390 O   0  0  0  0  0  0  0  0  0  0  0  0
  -28.4590  -18.9740   20.7380 H   0  0  0  0  0  0  0  0  0  0  0  0
  -27.7470  -18.9820   19.2890 H   0  0  0  0  0  0  0  0  0  0  0  0
  -25.8390  -13.5260   20.2300 C   0  0  0  0  0  0  0  0  0  0  0  0
  -24.8210  -12.7960   20.7760 C   0  0  0  0  0  0  0  0  0  0  0  0
  -25.1900  -11.4260   20.6130 C   0  0  0  0  0  0  0  0  0  0  0  0
  -26.7730  -12.6070   19.7820 N   0  0  0  0  0  0  0  0  0  0  0  0
  -26.3990  -11.3340   20.0710 N   0  0  0  0  0  0  0  0  0  0  0  0
  -24.4310  -10.1990   20.8810 C   0  0  0  0  0  0  0  0  0  0  0  0
  -24.8490   -9.2700   21.8590 C   0  0  0  0  0  3  0  0  0  0  0  0
  -24.0910   -8.1080   22.1130 C   0  0  0  0  0  3  0  0  0  0  0  0
  -22.9000   -7.8650   21.3880 C   0  0  0  0  0  0  0  0  0  0  0  0
  -22.5000   -8.7810   20.3980 C   0  0  0  0  0  3  0  0  0  0  0  0
  -23.2590   -9.9350   20.1440 C   0  0  0  0  0  3  0  0  0  0  0  0
  -22.1120   -6.7510   21.5500 O   0  0  0  0  0  0  0  0  0  0  0  0
  -21.6870   -6.3450   22.7900 C   0  0  0  0  0  0  0  0  0  0  0  0
  -20.8840   -7.1690   23.6090 C   0  0  0  0  0  3  0  0  0  0  0  0
  -20.4130   -6.6860   24.8460 C   0  0  0  0  0  3  0  0  0  0  0  0
  -20.7340   -5.3800   25.2610 C   0  0  0  0  0  0  0  0  0  0  0  0
  -21.5270   -4.5560   24.4440 C   0  0  0  0  0  3  0  0  0  0  0  0
  -22.0010   -5.0370   23.2110 C   0  0  0  0  0  0  0  0  0  0  0  0
  -22.7490   -4.2320   22.4180 F   0  0  0  0  0  0  0  0  0  0  0  0
  -20.2750   -4.9120   26.4450 F   0  0  0  0  0  0  0  0  0  0  0  0
  -23.5280  -13.3370   21.3100 C   0  0  0  0  0  0  0  0  0  0  0  0
  -22.9580  -12.6840   22.3160 N   0  0  0  0  0  0  0  0  0  0  0  0
  -23.0420  -14.3780   20.8670 O   0  0  0  0  0  0  0  0  0  0  0  0
  -23.3670  -11.8420   22.6910 H   0  0  0  0  0  0  0  0  0  0  0  0
  -22.0980  -13.0320   22.7180 H   0  0  0  0  0  0  0  0  0  0  0  0
  -26.0250  -14.8890   20.0330 N   0  0  0  0  0  0  0  0  0  0  0  0
  -25.1790  -15.4290   20.1850 H   0  0  0  0  0  0  0  0  0  0  0  0
  -26.4440  -15.1220   19.1430 H   0  0  0  0  0  0  0  0  0  0  0  0
  -29.6860  -20.0430   18.2660 C   0  0  0  0  0  3  0  0  0  0  0  0
  -28.8720  -21.4480   18.6930 C   0  0  0  0  0  3  0  0  0  0  0  0
  -28.6870  -22.8210   17.7500 C   0  0  0  0  0  3  0  0  0  0  0  0
  -27.8170  -24.1770   18.2010 C   0  0  0  0  0  3  0  0  0  0  0  0
  -27.8070  -25.5690   17.5240 O   0  0  0  0  0  0  0  0  0  0  0  0
  -25.4150  -30.1510   22.7510 C   0  0  0  0  0  0  0  0  0  0  0  0
  -26.9270  -26.6110   17.9660 C   0  0  0  0  0  0  0  0  0  0  0  0
  -23.8920  -29.6720   20.8720 C   0  0  0  0  0  3  0  0  0  0  0  0
  -24.9480  -28.5490   18.8200 C   0  0  0  0  0  0  0  0  0  0  0  0
  -26.4380  -29.6030   20.5150 C   0  0  0  0  0  2  0  0  0  0  0  0
  -26.2200  -28.5630   19.4070 C   0  0  0  0  0  0  0  0  0  0  0  0
  -27.2150  -27.6150   18.9690 C   0  0  0  0  0  3  0  0  0  0  0  0
  -25.6470  -26.7000   17.3780 C   0  0  0  0  0  3  0  0  0  0  0  0
  -24.6740  -27.6320   17.7940 C   0  0  0  0  0  3  0  0  0  0  0  0
  -23.9090  -29.5350   19.3270 C   0  0  0  0  0  2  0  0  0  0  0  0
  -25.2750  -29.8040   21.4360 N   0  0  0  0  0  0  0  0  0  0  0  0
  -24.4290  -30.3770   23.4710 O   0  0  0  0  0  0  0  0  0  0  0  0
  -23.0930  -28.4930   21.4790 C   0  0  0  0  0  0  0  0  0  0  0  0
  -21.7510  -28.5690   21.4240 N   0  0  0  0  0  0  0  0  0  0  0  0
  -23.6810  -27.5220   21.9630 O   0  0  0  0  0  0  0  0  0  0  0  0
  -21.3390  -29.4000   21.0220 H   0  0  0  0  0  0  0  0  0  0  0  0
  -18.2380  -27.7810   21.8140 C   0  0  0  0  0  0  0  0  0  0  0  0
  -20.8130  -27.5450   21.8920 C   0  0  0  0  0  3  0  0  0  0  0  0
  -20.6380  -26.4270   20.8380 C   0  0  0  0  0  2  0  0  0  0  0  0
  -19.4550  -26.6660   19.8960 C   0  0  0  0  0  2  0  0  0  0  0  0
  -18.1480  -26.7650   20.6870 C   0  0  0  0  0  2  0  0  0  0  0  0
  -19.4900  -28.1570   22.3700 C   0  0  0  0  0  0  0  0  0  0  0  0
  -19.5190  -29.1290   23.3940 C   0  0  0  0  0  3  0  0  0  0  0  0
  -18.3290  -29.7160   23.8640 C   0  0  0  0  0  3  0  0  0  0  0  0
  -17.0920  -29.3280   23.3210 C   0  0  0  0  0  3  0  0  0  0  0  0
  -17.0490  -28.3620   22.3010 C   0  0  0  0  0  3  0  0  0  0  0  0
  -26.8200  -30.3010   23.4100 C   0  0  0  0  0  3  0  0  0  0  0  0
  -27.3370  -28.9670   24.0770 C   0  0  1  0  0  0  0  0  0  0  0  0
  -26.3280  -28.3340   25.0640 C   0  0  0  0  0  1  0  0  0  0  0  0
  -27.6690  -27.9090   23.0000 C   0  0  0  0  0  1  0  0  0  0  0  0
  -28.6520  -29.2420   24.8430 C   0  0  0  0  0  1  0  0  0  0  0  0
  -26.7330  -31.3750   24.4120 N   0  0  0  0  0  0  0  0  0  0  0  0
  -27.1550  -32.6310   24.2240 C   0  0  0  0  0  0  0  0  0  0  0  0
  -27.7270  -32.9960   23.1930 O   0  0  0  0  0  0  0  0  0  0  0  0
  -26.2280  -31.1620   25.2600 H   0  0  0  0  0  0  0  0  0  0  0  0
  -25.6850  -34.5130   25.0140 C   0  0  0  0  0  1  0  0  0  0  0  0
  -26.9050  -33.6460   25.3580 C   0  0  0  0  0  3  0  0  0  0  0  0
  -29.1880  -33.8060   26.2520 C   0  0  0  0  0  1  0  0  0  0  0  0
  -28.0690  -34.5160   25.6350 N   0  0  0  0  0  0  0  0  0  0  0  0
  -27.8070  -35.2850   26.2460 H   0  0  0  0  0  0  0  0  0  0  0  0
  1  7  1  0
  1 14  1  0
  2  7  1  0
  3  4  1  0
  3  2  1  0
  5  4  1  0
  5 22  1  0
  5  6  1  0
  7  6  1  0
  8  1  2  0
  9 16  2  0
 10  9  1  0
 11  9  1  0
 12 13  1  0
 12 14  1  0
 13 47  1  0
 13 15  1  0
 14 10  1  0
 15 11  1  0
 15 17  1  0
 18 15  1  0
 19 20  2  0
 20 39  1  0
 21 20  1  0
 21 24  1  0
 22 23  1  0
 22 19  1  0
 23 21  2  0
 24 25  1  0
 25 26  2  0
 27 30  1  0
 27 26  1  0
 28 27  2  0
 29 28  1  0
 29 24  2  0
 30 31  1  0
 31 36  2  0
 31 32  1  0
 32 33  2  0
 33 34  1  0
 34 38  1  0
 35 34  2  0
 36 35  1  0
 37 36  1  0
 39 40  1  0
 40 42  1  0
 40 43  1  0
 41 39  2  0
 44 45  1  0
 44 19  1  0
 46 44  1  0
 47 48  2  0
 49 50  2  0
 49 48  1  0
 51 53  1  0
 51 50  1  0
 52 63  2  0
 53 58  1  0
 54 62  1  0
 54 64  1  0
 55 61  1  0
 55 57  1  0
 56 62  1  0
 57 56  1  0
 58 57  2  0
 59 60  1  0
 59 53  2  0
 60 55  2  0
 61 54  1  0
 62 52  1  0
 64 66  2  0
 65 64  1  0
 67 65  1  0
 68 77  2  0
 68 73  1  0
 69 65  1  0
 69 73  1  0
 70 69  1  0
 71 72  1  0
 71 70  1  0
 72 68  1  0
 73 74  2  0
 74 75  1  0
 76 75  2  0
 77 76  1  0
 78 52  1  0
 78 79  1  0
 78 83  1  0
 79 82  1  1
 79 80  1  0
 81 79  1  0
 83 86  1  0
 84 83  1  0
 84 88  1  0
 85 84  2  0
 88 87  1  0
 88 90  1  0
 90 91  1  0
 90 89  1  0
M  ISO  4   1 100  14 100  50 101  51 101
M  END
>  <TORSDO>  (27) 
F 19

>  <SCORE>  (27) 
-6.934

>  <name>  (27) 
26

>  <ligand_id>  (27) 
26

>  <original_smiles>  (27) 
[H]c1c([H])c([H])c2c(c1[H])C([H])([H])C([H])([H])C([H])([H])C2([H])N([H])C(=O)C1([H])N(C(=O)C([H])(N([H])C(=O)C([H])(N([H])C([H])([H])[H])C([H])([H])[H])C(C([H])([H])[H])(C([H])([H])[H])C([H])([H])[H])C([H])([H])c2c([H])c(OC([H])([H])C([H])([H])C([H])([H])C([H])([H])C3([H])C([H])([H])N(C(=O)N4C([H])([H])C([H])([H])C([H])([H])C([H])(n5nc(-c6c([H])c([H])c(Oc7c([H])c([H])c(F)c([H])c7F)c([H])c6[H])c(C(=O)N([H])[H])c5N([H])[H])C4([H])[H])C([H])([H])C(=O)C([H])([H])[N+]3([H])[H])c([H])c([H])c2C1([H])[H]

>  <smiles>  (27) 
[H]c1c([H])c([H])c2c(c1[H])C([H])([H])C([H])([H])C([H])([H])C2([H])N([H])C(=O)C1([H])N(C(=O)C([H])(N([H])C(=O)C([H])(N([H])C([H])([H])[H])C([H])([H])[H])C(C([H])([H])[H])(C([H])([H])[H])C([H])([H])[H])C([H])([H])c2c([H])c(OC([H])([H])C([H])([H])C([H])([H])C([H])([H])C3([H])C([H])([H])N(C(=O)N4C([H])([H])C([H])([H])C([H])([H])C([H])(n5nc(-c6c([H])c([H])c(Oc7c([H])c([H])c(F)c([H])c7F)c([H])c6[H])c(C(=O)N([H])[H])c5N([H])[H])C4([H])[H])C([H])([H])C(=O)C([H])([H])[N+]3([H])[H])c([H])c([H])c2C1([H])[H]

$$$$
27:0:0
     RDKit          3D

 93102  0  0  1  0  0  0  0  0999 V2000
  -26.6140  -21.1640   19.7010 C   0  0  0  0  0  2  0  0  0  0  0  0
  -29.0300  -21.2100   18.8670 C   0  0  0  0  0  2  0  0  0  0  0  0
  -26.9340  -22.4370   20.5080 C   0  0  0  0  0  2  0  0  0  0  0  0
  -29.2320  -22.4910   19.7020 C   0  0  0  0  0  2  0  0  0  0  0  0
  -27.8640  -20.3220   19.3570 C   0  0  0  0  0  3  0  0  0  0  0  0
  -27.9600  -23.2510   19.8080 N   0  0  2  0  0  4  0  0  0  0  0  0
  -27.6150  -23.3660   18.8650 H   0  0  0  0  0  0  0  0  0  0  0  0
  -31.1230  -14.6080   19.8030 C   0  0  0  0  0  0  0  0  0  0  0  0
  -30.7060  -12.4400   18.7240 C   0  0  0  0  0  2  0  0  0  0  0  0
  -29.6740  -12.6630   17.5980 C   0  0  0  0  0  2  0  0  0  0  0  0
  -28.2380  -12.5540   18.1480 C   0  0  0  0  0  2  0  0  0  0  0  0
  -28.0170  -13.4030   19.4290 C   0  0  0  0  0  3  0  0  0  0  0  0
  -29.1560  -13.1720   20.4480 C   0  0  0  0  0  2  0  0  0  0  0  0
  -30.4320  -13.4390   19.7660 N   0  0  0  0  0  0  0  0  0  0  0  0
  -32.2490  -14.7370   19.3080 O   0  0  0  0  0  0  0  0  0  0  0  0
  -28.6930  -18.0840   20.2960 C   0  0  0  0  0  0  0  0  0  0  0  0
  -28.2600  -19.3530   20.4690 C   0  0  0  0  0  3  0  0  0  0  0  0
  -28.9430  -17.1330   21.4630 C   0  0  0  0  0  2  0  0  0  0  0  0
  -28.9640  -17.4590   18.9330 C   0  0  0  0  0  2  0  0  0  0  0  0
  -30.2530  -16.3270   21.3200 C   0  0  0  0  0  2  0  0  0  0  0  0
  -30.3060  -16.7080   18.9220 C   0  0  0  0  0  2  0  0  0  0  0  0
  -30.3500  -15.7030   19.9930 N   0  0  0  0  0  0  0  0  0  0  0  0
  -25.7250  -14.0570   20.3990 C   0  0  0  0  0  0  0  0  0  0  0  0
  -24.6620  -13.3030   20.8220 C   0  0  0  0  0  0  0  0  0  0  0  0
  -25.0600  -11.9400   20.6650 C   0  0  0  0  0  0  0  0  0  0  0  0
  -26.7050  -13.1530   20.0190 N   0  0  0  0  0  0  0  0  0  0  0  0
  -26.3120  -11.8710   20.2340 N   0  0  0  0  0  0  0  0  0  0  0  0
  -24.3000  -10.6970   20.8450 C   0  0  0  0  0  0  0  0  0  0  0  0
  -24.6540   -9.7520   21.8320 C   0  0  0  0  0  3  0  0  0  0  0  0
  -23.8960   -8.5710   21.9970 C   0  0  0  0  0  3  0  0  0  0  0  0
  -22.7720   -8.3300   21.1720 C   0  0  0  0  0  0  0  0  0  0  0  0
  -22.4390   -9.2630   20.1750 C   0  0  0  0  0  3  0  0  0  0  0  0
  -23.1970  -10.4350   20.0090 C   0  0  0  0  0  3  0  0  0  0  0  0
  -21.9940   -7.1990   21.2420 O   0  0  0  0  0  0  0  0  0  0  0  0
  -21.7180   -6.5890   22.4400 C   0  0  0  0  0  0  0  0  0  0  0  0
  -21.0540   -7.2670   23.4860 C   0  0  0  0  0  3  0  0  0  0  0  0
  -20.7290   -6.5810   24.6740 C   0  0  0  0  0  3  0  0  0  0  0  0
  -21.0580   -5.2190   24.8140 C   0  0  0  0  0  0  0  0  0  0  0  0
  -21.7130   -4.5410   23.7700 C   0  0  0  0  0  3  0  0  0  0  0  0
  -22.0400   -5.2240   22.5870 C   0  0  0  0  0  0  0  0  0  0  0  0
  -22.6540   -4.5620   21.5760 F   0  0  0  0  0  0  0  0  0  0  0  0
  -20.7390   -4.5570   25.9510 F   0  0  0  0  0  0  0  0  0  0  0  0
  -23.3210  -13.8160   21.2580 C   0  0  0  0  0  0  0  0  0  0  0  0
  -22.6710  -13.1210   22.1860 N   0  0  0  0  0  0  0  0  0  0  0  0
  -22.8600  -14.8660   20.8120 O   0  0  0  0  0  0  0  0  0  0  0  0
  -23.0580  -12.2690   22.5650 H   0  0  0  0  0  0  0  0  0  0  0  0
  -21.7750  -13.4450   22.5190 H   0  0  0  0  0  0  0  0  0  0  0  0
  -25.9320  -15.4280   20.2900 N   0  0  0  0  0  0  0  0  0  0  0  0
  -25.2160  -16.1080   20.5190 H   0  0  0  0  0  0  0  0  0  0  0  0
  -26.7910  -15.8510   19.9620 H   0  0  0  0  0  0  0  0  0  0  0  0
  -28.1100  -24.6280   20.3640 C   0  0  0  0  0  2  0  0  0  0  0  0
  -28.6450  -25.6410   19.3220 C   0  0  0  0  0  2  0  0  0  0  0  0
  -28.5640  -26.9940   19.7860 O   0  0  0  0  0  0  0  0  0  0  0  0
  -24.6100  -31.8760   23.0940 C   0  0  0  0  0  0  0  0  0  0  0  0
  -27.3470  -27.6490   19.8000 C   0  0  0  0  0  0  0  0  0  0  0  0
  -23.4290  -30.5180   21.4000 C   0  0  0  0  0  3  0  0  0  0  0  0
  -24.9100  -29.0870   19.8990 C   0  0  0  0  0  0  0  0  0  0  0  0
  -25.9420  -30.9500   21.2040 C   0  0  0  0  0  2  0  0  0  0  0  0
  -26.0570  -29.6120   20.5030 C   0  0  0  0  0  0  0  0  0  0  0  0
  -27.2740  -28.8990   20.4560 C   0  0  0  0  0  3  0  0  0  0  0  0
  -26.1770  -27.1380   19.1890 C   0  0  0  0  0  3  0  0  0  0  0  0
  -24.9630  -27.8480   19.2400 C   0  0  0  0  0  3  0  0  0  0  0  0
  -23.6430  -29.9070   19.9910 C   0  0  0  0  0  2  0  0  0  0  0  0
  -24.6800  -31.1260   21.9590 N   0  0  0  0  0  0  0  0  0  0  0  0
  -23.5260  -32.0990   23.6500 O   0  0  0  0  0  0  0  0  0  0  0  0
  -22.8110  -29.4370   22.3170 C   0  0  0  0  0  0  0  0  0  0  0  0
  -21.4850  -29.2550   22.2120 N   0  0  0  0  0  0  0  0  0  0  0  0
  -23.5180  -28.7700   23.0770 O   0  0  0  0  0  0  0  0  0  0  0  0
  -20.9730  -29.8510   21.5760 H   0  0  0  0  0  0  0  0  0  0  0  0
  -18.1280  -28.0380   22.7460 C   0  0  0  0  0  0  0  0  0  0  0  0
  -20.6940  -28.2650   22.9430 C   0  0  0  0  0  3  0  0  0  0  0  0
  -20.7680  -26.8820   22.2580 C   0  0  0  0  0  2  0  0  0  0  0  0
  -19.6290  -26.6390   21.2640 C   0  0  0  0  0  2  0  0  0  0  0  0
  -18.2740  -26.7390   21.9680 C   0  0  0  0  0  2  0  0  0  0  0  0
  -19.2650  -28.7620   23.1890 C   0  0  0  0  0  0  0  0  0  0  0  0
  -19.0760  -29.9830   23.8740 C   0  0  0  0  0  3  0  0  0  0  0  0
  -17.7820  -30.4800   24.1140 C   0  0  0  0  0  3  0  0  0  0  0  0
  -16.6590  -29.7510   23.6880 C   0  0  0  0  0  3  0  0  0  0  0  0
  -16.8330  -28.5290   23.0120 C   0  0  0  0  0  3  0  0  0  0  0  0
  -25.8850  -32.5100   23.7350 C   0  0  0  0  0  3  0  0  0  0  0  0
  -25.5490  -33.8910   24.1110 N   0  0  0  0  0  0  0  0  0  0  0  0
  -25.8610  -34.9730   23.3850 C   0  0  0  0  0  0  0  0  0  0  0  0
  -26.5320  -34.9170   22.3510 O   0  0  0  0  0  0  0  0  0  0  0  0
  -24.9520  -34.0090   24.9160 H   0  0  0  0  0  0  0  0  0  0  0  0
  -24.0910  -36.7360   23.0980 C   0  0  0  0  0  1  0  0  0  0  0  0
  -25.3470  -36.3350   23.8890 C   0  0  0  0  0  3  0  0  0  0  0  0
  -27.4630  -37.2450   24.7380 C   0  0  0  0  0  1  0  0  0  0  0  0
  -26.3570  -37.4130   23.8000 N   0  0  0  0  0  0  0  0  0  0  0  0
  -25.9310  -38.3200   23.9720 H   0  0  0  0  0  0  0  0  0  0  0  0
  -26.4220  -31.7040   24.9810 C   0  0  1  0  0  0  0  0  0  0  0  0
  -25.3370  -31.4030   26.0400 C   0  0  0  0  0  1  0  0  0  0  0  0
  -27.0330  -30.3560   24.5330 C   0  0  0  0  0  1  0  0  0  0  0  0
  -27.5560  -32.4990   25.6700 C   0  0  0  0  0  1  0  0  0  0  0  0
  1  3  1  0
  2  5  1  0
  2  4  1  0
  4  6  1  0
  5  1  1  0
  5 17  1  0
  6 51  1  0
  6  3  1  0
  6  7  1  6
  8 22  1  0
  9 14  1  0
 10 11  1  0
 10  9  1  0
 12 11  1  0
 12 26  1  0
 12 13  1  0
 14  8  1  0
 14 13  1  0
 15  8  2  0
 16 17  2  0
 16 18  1  0
 19 16  1  0
 20 18  1  0
 21 19  1  0
 21 22  1  0
 22 20  1  0
 23 24  2  0
 24 43  1  0
 25 24  1  0
 25 28  1  0
 26 27  1  0
 26 23  1  0
 27 25  2  0
 28 29  1  0
 29 30  2  0
 31 34  1  0
 31 30  1  0
 32 31  2  0
 33 32  1  0
 33 28  2  0
 34 35  1  0
 35 40  2  0
 35 36  1  0
 36 37  2  0
 37 38  1  0
 38 42  1  0
 39 38  2  0
 40 39  1  0
 41 40  1  0
 43 44  1  0
 44 47  1  0
 44 46  1  0
 45 43  2  0
 48 23  1  0
 48 49  1  0
 50 48  1  0
 52 53  1  0
 52 51  1  0
 53 55  1  0
 54 65  2  0
 55 60  1  0
 56 64  1  0
 56 66  1  0
 57 63  1  0
 57 59  1  0
 58 64  1  0
 59 58  1  0
 60 59  2  0
 61 62  1  0
 61 55  2  0
 62 57  2  0
 63 56  1  0
 64 54  1  0
 66 68  2  0
 67 66  1  0
 69 67  1  0
 70 79  2  0
 70 75  1  0
 71 67  1  0
 71 75  1  0
 72 71  1  0
 73 74  1  0
 73 72  1  0
 74 70  1  0
 75 76  2  0
 76 77  1  0
 78 77  2  0
 79 78  1  0
 80 54  1  0
 80 81  1  0
 80 90  1  0
 81 84  1  0
 82 86  1  0
 82 81  1  0
 83 82  2  0
 86 85  1  0
 88 86  1  0
 88 89  1  0
 88 87  1  0
 90 93  1  1
 90 91  1  0
 92 90  1  0
M  ISO  4   8 100  22 100  52 101  53 101
M  END
>  <TORSDO>  (28) 
F 18

>  <SCORE>  (28) 
-12.629

>  <name>  (28) 
27

>  <ligand_id>  (28) 
27

>  <original_smiles>  (28) 
[H]C(=C1C([H])([H])C([H])([H])N(C(=O)N2C([H])([H])C([H])([H])C([H])([H])C([H])(n3nc(-c4c([H])c([H])c(Oc5c([H])c([H])c(F)c([H])c5F)c([H])c4[H])c(C(=O)N([H])[H])c3N([H])[H])C2([H])[H])C([H])([H])C1([H])[H])C1([H])C([H])([H])C([H])([H])[N+]([H])(C([H])([H])C([H])([H])Oc2c([H])c([H])c3c(c2[H])C([H])([H])N(C(=O)C([H])(N([H])C(=O)C([H])(N([H])C([H])([H])[H])C([H])([H])[H])C(C([H])([H])[H])(C([H])([H])[H])C([H])([H])[H])C([H])(C(=O)N([H])C2([H])c4c([H])c([H])c([H])c([H])c4C([H])([H])C([H])([H])C2([H])[H])C3([H])[H])C([H])([H])C1([H])[H]

>  <smiles>  (28) 
[H]C(=C1C([H])([H])C([H])([H])N(C(=O)N2C([H])([H])C([H])([H])C([H])([H])C([H])(n3nc(-c4c([H])c([H])c(Oc5c([H])c([H])c(F)c([H])c5F)c([H])c4[H])c(C(=O)N([H])[H])c3N([H])[H])C2([H])[H])C([H])([H])C1([H])[H])C1([H])C([H])([H])C([H])([H])[N+]([H])(C([H])([H])C([H])([H])Oc2c([H])c([H])c3c(c2[H])C([H])([H])N(C(=O)C([H])(N([H])C(=O)C([H])(N([H])C([H])([H])[H])C([H])([H])[H])C(C([H])([H])[H])(C([H])([H])[H])C([H])([H])[H])C([H])(C(=O)N([H])C2([H])c4c([H])c([H])c([H])c([H])c4C([H])([H])C([H])([H])C2([H])[H])C3([H])[H])C([H])([H])C1([H])[H]

$$$$
28:0:0
     RDKit          3D

 89 97  0  0  1  0  0  0  0  0999 V2000
  -30.9710  -20.0820   18.3250 C   0  0  0  0  0  2  0  0  0  0  0  0
  -31.3180  -21.4030   19.0460 C   0  0  0  0  0  2  0  0  0  0  0  0
  -29.4850  -19.6950   18.4840 C   0  0  0  0  0  2  0  0  0  0  0  0
  -30.7270  -21.5100   20.4770 C   0  0  0  0  0  2  0  0  0  0  0  0
  -29.0810  -19.6860   19.9700 C   0  0  0  0  0  3  0  0  0  0  0  0
  -29.2610  -21.2740   20.4740 N   0  0  2  0  0  4  0  0  0  0  0  0
  -28.9850  -21.2430   21.4460 H   0  0  0  0  0  0  0  0  0  0  0  0
  -29.8330  -18.1840   20.6470 C   0  0  0  0  0  2  0  0  0  0  0  0
  -30.4050  -15.2840   20.3240 C   0  0  0  0  0  0  0  0  0  0  0  0
  -30.4010  -12.8430   19.4370 C   0  0  0  0  0  2  0  0  0  0  0  0
  -29.4920  -12.6280   18.2000 C   0  0  0  0  0  2  0  0  0  0  0  0
  -28.0390  -12.3550   18.6290 C   0  0  0  0  0  2  0  0  0  0  0  0
  -27.5720  -13.3160   19.7520 C   0  0  0  0  0  3  0  0  0  0  0  0
  -28.6130  -13.4710   20.8790 C   0  0  0  0  0  2  0  0  0  0  0  0
  -29.8390  -13.9830   20.2440 N   0  0  0  0  0  0  0  0  0  0  0  0
  -31.6360  -15.2870   20.1830 O   0  0  0  0  0  0  0  0  0  0  0  0
  -29.6260  -16.5460   20.3620 N   0  0  0  0  0  0  0  0  0  0  0  0
  -28.6430  -16.3230   20.3130 H   0  0  0  0  0  0  0  0  0  0  0  0
  -25.1900  -13.8620   20.4790 C   0  0  0  0  0  0  0  0  0  0  0  0
  -24.1300  -13.0800   20.8440 C   0  0  0  0  0  0  0  0  0  0  0  0
  -24.6090  -11.7340   20.8310 C   0  0  0  0  0  0  0  0  0  0  0  0
  -26.2430  -12.9930   20.2540 N   0  0  0  0  0  0  0  0  0  0  0  0
  -25.9060  -11.7070   20.5350 N   0  0  0  0  0  0  0  0  0  0  0  0
  -23.8900  -10.4670   21.0230 C   0  0  0  0  0  0  0  0  0  0  0  0
  -24.3200   -9.5080   21.9660 C   0  0  0  0  0  3  0  0  0  0  0  0
  -23.5980   -8.3070   22.1460 C   0  0  0  0  0  3  0  0  0  0  0  0
  -22.4320   -8.0580   21.3840 C   0  0  0  0  0  0  0  0  0  0  0  0
  -22.0220   -9.0060   20.4290 C   0  0  0  0  0  3  0  0  0  0  0  0
  -22.7440  -10.1970   20.2470 C   0  0  0  0  0  3  0  0  0  0  0  0
  -21.6820   -6.9100   21.4740 O   0  0  0  0  0  0  0  0  0  0  0  0
  -21.6320   -6.1700   22.6270 C   0  0  0  0  0  0  0  0  0  0  0  0
  -21.2060   -6.7290   23.8530 C   0  0  0  0  0  3  0  0  0  0  0  0
  -21.1050   -5.9150   24.9990 C   0  0  0  0  0  3  0  0  0  0  0  0
  -21.4190   -4.5450   24.9210 C   0  0  0  0  0  0  0  0  0  0  0  0
  -21.8390   -3.9870   23.7010 C   0  0  0  0  0  3  0  0  0  0  0  0
  -21.9430   -4.7980   22.5570 C   0  0  0  0  0  0  0  0  0  0  0  0
  -22.3270   -4.2500   21.3790 F   0  0  0  0  0  0  0  0  0  0  0  0
  -21.3150   -3.7620   26.0200 F   0  0  0  0  0  0  0  0  0  0  0  0
  -22.7260  -13.5470   21.0850 C   0  0  0  0  0  0  0  0  0  0  0  0
  -21.9870  -12.8570   21.9460 N   0  0  0  0  0  0  0  0  0  0  0  0
  -22.2910  -14.5640   20.5440 O   0  0  0  0  0  0  0  0  0  0  0  0
  -22.3520  -12.0370   22.4070 H   0  0  0  0  0  0  0  0  0  0  0  0
  -21.0420  -13.1530   22.1470 H   0  0  0  0  0  0  0  0  0  0  0  0
  -25.3410  -15.2320   20.2880 N   0  0  0  0  0  0  0  0  0  0  0  0
  -24.5630  -15.8750   20.3800 H   0  0  0  0  0  0  0  0  0  0  0  0
  -26.1730  -15.6710   19.9190 H   0  0  0  0  0  0  0  0  0  0  0  0
  -28.5230  -22.6690   19.8920 C   0  0  0  0  0  2  0  0  0  0  0  0
  -28.2690  -24.3020   20.6300 C   0  0  0  0  0  2  0  0  0  0  0  0
  -28.2850  -25.9000   20.1920 O   0  0  0  0  0  0  0  0  0  0  0  0
  -24.6440  -31.8440   23.2060 C   0  0  0  0  0  0  0  0  0  0  0  0
  -27.2290  -26.9530   20.2370 C   0  0  0  0  0  0  0  0  0  0  0  0
  -23.4580  -30.4330   21.5740 C   0  0  0  0  0  3  0  0  0  0  0  0
  -24.9170  -28.8170   20.1760 C   0  0  0  0  0  0  0  0  0  0  0  0
  -26.0250  -30.6540   21.4310 C   0  0  0  0  0  2  0  0  0  0  0  0
  -26.1030  -29.2370   20.7910 C   0  0  0  0  0  0  0  0  0  0  0  0
  -27.2570  -28.3300   20.7860 C   0  0  0  0  0  3  0  0  0  0  0  0
  -26.0050  -26.6770   19.5900 C   0  0  0  0  0  3  0  0  0  0  0  0
  -24.8920  -27.5560   19.5560 C   0  0  0  0  0  3  0  0  0  0  0  0
  -23.6950  -29.7340   20.2060 C   0  0  0  0  0  2  0  0  0  0  0  0
  -24.7310  -31.0060   22.1230 N   0  0  0  0  0  0  0  0  0  0  0  0
  -23.5520  -32.1350   23.7230 O   0  0  0  0  0  0  0  0  0  0  0  0
  -22.7630  -29.4450   22.5460 C   0  0  0  0  0  0  0  0  0  0  0  0
  -21.4320  -29.2850   22.4240 N   0  0  0  0  0  0  0  0  0  0  0  0
  -23.4290  -28.8190   23.3750 O   0  0  0  0  0  0  0  0  0  0  0  0
  -20.9470  -29.8410   21.7340 H   0  0  0  0  0  0  0  0  0  0  0  0
  -18.0470  -28.0840   22.9450 C   0  0  0  0  0  0  0  0  0  0  0  0
  -20.6080  -28.3510   23.2010 C   0  0  0  0  0  3  0  0  0  0  0  0
  -20.7070  -26.9150   22.6320 C   0  0  0  0  0  2  0  0  0  0  0  0
  -19.6030  -26.5910   21.6210 C   0  0  0  0  0  2  0  0  0  0  0  0
  -18.2230  -26.7350   22.2690 C   0  0  0  0  0  2  0  0  0  0  0  0
  -19.1670  -28.8490   23.3680 C   0  0  0  0  0  0  0  0  0  0  0  0
  -18.9470  -30.1100   23.9630 C   0  0  0  0  0  3  0  0  0  0  0  0
  -17.6410  -30.6070   24.1390 C   0  0  0  0  0  3  0  0  0  0  0  0
  -16.5370  -29.8390   23.7300 C   0  0  0  0  0  3  0  0  0  0  0  0
  -16.7400  -28.5790   23.1390 C   0  0  0  0  0  3  0  0  0  0  0  0
  -25.9110  -32.4960   23.8400 C   0  0  0  0  0  3  0  0  0  0  0  0
  -26.4160  -31.7390   25.1310 C   0  0  1  0  0  0  0  0  0  0  0  0
  -25.3150  -31.5150   26.1940 C   0  0  0  0  0  1  0  0  0  0  0  0
  -27.0030  -30.3560   24.7690 C   0  0  0  0  0  1  0  0  0  0  0  0
  -27.5590  -32.5440   25.7940 C   0  0  0  0  0  1  0  0  0  0  0  0
  -25.5860  -33.8960   24.1690 N   0  0  0  0  0  0  0  0  0  0  0  0
  -25.9150  -34.9580   23.4210 C   0  0  0  0  0  0  0  0  0  0  0  0
  -26.5860  -34.8630   22.3910 O   0  0  0  0  0  0  0  0  0  0  0  0
  -24.9870  -34.0420   24.9680 H   0  0  0  0  0  0  0  0  0  0  0  0
  -24.1800  -36.7530   23.0860 C   0  0  0  0  0  1  0  0  0  0  0  0
  -25.4260  -36.3450   23.8880 C   0  0  0  0  0  3  0  0  0  0  0  0
  -27.5600  -37.2380   24.7130 C   0  0  0  0  0  1  0  0  0  0  0  0
  -26.4530  -37.4040   23.7750 N   0  0  0  0  0  0  0  0  0  0  0  0
  -26.0430  -38.3210   23.9260 H   0  0  0  0  0  0  0  0  0  0  0  0
  1  3  1  0
  1  2  1  0
  2  4  1  0
  3  5  1  0
  5  6  1  0
  5  8  1  0
  6  4  1  0
  6  7  1  1
  9 17  1  0
 10 15  1  0
 11 12  1  0
 11 10  1  0
 13 12  1  0
 13 22  1  0
 13 14  1  0
 15  9  1  0
 15 14  1  0
 16  9  2  0
 17  8  1  0
 18 17  1  0
 19 20  2  0
 20 39  1  0
 21 20  1  0
 21 24  1  0
 22 19  1  0
 22 23  1  0
 23 21  2  0
 24 25  1  0
 25 26  2  0
 27 30  1  0
 27 26  1  0
 28 27  2  0
 29 28  1  0
 29 24  2  0
 30 31  1  0
 31 32  1  0
 32 33  2  0
 34 33  1  0
 34 38  1  0
 35 34  2  0
 36 31  2  0
 36 35  1  0
 37 36  1  0
 39 40  1  0
 40 43  1  0
 40 42  1  0
 41 39  2  0
 44 45  1  0
 44 19  1  0
 46 44  1  0
 47  6  1  0
 47 48  1  0
 49 51  1  0
 49 48  1  0
 50 61  2  0
 51 56  1  0
 52 60  1  0
 52 62  1  0
 53 59  1  0
 53 55  1  0
 54 60  1  0
 55 54  1  0
 56 55  2  0
 57 51  2  0
 58 57  1  0
 58 53  2  0
 59 52  1  0
 60 50  1  0
 62 64  2  0
 63 62  1  0
 65 63  1  0
 66 75  2  0
 66 71  1  0
 67 63  1  0
 67 71  1  0
 68 67  1  0
 69 70  1  0
 69 68  1  0
 70 66  1  0
 71 72  2  0
 72 73  1  0
 74 73  2  0
 75 74  1  0
 76 50  1  0
 76 81  1  0
 76 77  1  0
 77 80  1  1
 77 78  1  0
 79 77  1  0
 81 84  1  0
 82 86  1  0
 82 81  1  0
 83 82  2  0
 86 85  1  0
 88 86  1  0
 88 89  1  0
 88 87  1  0
M  ISO  4   9 100  17 100  48 101  49 101
M  END
>  <TORSDO>  (29) 
F 19

>  <SCORE>  (29) 
-16.576

>  <name>  (29) 
28

>  <ligand_id>  (29) 
28

>  <original_smiles>  (29) 
[H]c1c([H])c([H])c2c(c1[H])C([H])([H])C([H])([H])C([H])([H])C2([H])N([H])C(=O)C1([H])N(C(=O)C([H])(N([H])C(=O)C([H])(N([H])C([H])([H])[H])C([H])([H])[H])C(C([H])([H])[H])(C([H])([H])[H])C([H])([H])[H])C([H])([H])c2c([H])c(OC([H])([H])C([H])([H])[N+]3([H])C([H])([H])C([H])([H])C([H])([H])C([H])([H])C3([H])C([H])([H])N([H])C(=O)N3C([H])([H])C([H])([H])C([H])([H])C([H])(n4nc(-c5c([H])c([H])c(Oc6c([H])c([H])c(F)c([H])c6F)c([H])c5[H])c(C(=O)N([H])[H])c4N([H])[H])C3([H])[H])c([H])c([H])c2C1([H])[H]

>  <smiles>  (29) 
[H]c1c([H])c([H])c2c(c1[H])C([H])([H])C([H])([H])C([H])([H])C2([H])N([H])C(=O)C1([H])N(C(=O)C([H])(N([H])C(=O)C([H])(N([H])C([H])([H])[H])C([H])([H])[H])C(C([H])([H])[H])(C([H])([H])[H])C([H])([H])[H])C([H])([H])c2c([H])c(OC([H])([H])C([H])([H])[N+]3([H])C([H])([H])C([H])([H])C([H])([H])C([H])([H])C3([H])C([H])([H])N([H])C(=O)N3C([H])([H])C([H])([H])C([H])([H])C([H])(n4nc(-c5c([H])c([H])c(Oc6c([H])c([H])c(F)c([H])c6F)c([H])c5[H])c(C(=O)N([H])[H])c4N([H])[H])C3([H])[H])c([H])c([H])c2C1([H])[H]

$$$$
29:0:0
     RDKit          3D

 87 95  0  0  1  0  0  0  0  0999 V2000
  -30.3710  -15.3770   20.3470 C   0  0  0  0  0  0  0  0  0  0  0  0
  -30.4220  -12.8960   19.5390 C   0  0  0  0  0  2  0  0  0  0  0  0
  -29.5410  -12.5450   18.3140 C   0  0  0  0  0  2  0  0  0  0  0  0
  -28.1050  -12.2300   18.7600 C   0  0  0  0  0  2  0  0  0  0  0  0
  -27.5860  -13.2820   19.7710 C   0  0  0  0  0  3  0  0  0  0  0  0
  -28.5840  -13.5380   20.9120 C   0  0  0  0  0  2  0  0  0  0  0  0
  -29.8060  -14.0640   20.2760 N   0  0  0  0  0  0  0  0  0  0  0  0
  -31.6120  -15.3160   20.2810 O   0  0  0  0  0  0  0  0  0  0  0  0
  -27.5250  -18.3170   20.1090 C   0  0  0  0  0  2  0  0  0  0  0  0
  -28.5970  -17.2710   19.4550 C   0  0  0  0  0  2  0  0  0  0  0  0
  -30.0820  -18.1420   21.0180 C   0  0  0  0  0  2  0  0  0  0  0  0
  -27.4800  -19.9550   20.0030 C   0  0  0  0  0  2  0  0  0  0  0  0
  -29.9530  -19.8260   20.5050 C   0  0  0  0  0  2  0  0  0  0  0  0
  -29.6690  -16.7240   20.3750 N   0  0  0  0  0  0  0  0  0  0  0  0
  -28.7510  -20.8110   20.0620 N   0  0  2  0  0  4  0  0  0  0  0  0
  -28.9450  -20.8640   19.0740 H   0  0  0  0  0  0  0  0  0  0  0  0
  -25.2170  -13.8790   20.4680 C   0  0  0  0  0  0  0  0  0  0  0  0
  -24.1340  -13.1180   20.8160 C   0  0  0  0  0  0  0  0  0  0  0  0
  -24.5940  -11.7650   20.8290 C   0  0  0  0  0  0  0  0  0  0  0  0
  -26.2510  -12.9860   20.2610 N   0  0  0  0  0  0  0  0  0  0  0  0
  -25.8910  -11.7110   20.5530 N   0  0  0  0  0  0  0  0  0  0  0  0
  -23.8520  -10.5130   21.0250 C   0  0  0  0  0  0  0  0  0  0  0  0
  -24.2700   -9.5480   21.9660 C   0  0  0  0  0  3  0  0  0  0  0  0
  -23.5290   -8.3590   22.1490 C   0  0  0  0  0  3  0  0  0  0  0  0
  -22.3590   -8.1310   21.3860 C   0  0  0  0  0  0  0  0  0  0  0  0
  -21.9630   -9.0840   20.4320 C   0  0  0  0  0  3  0  0  0  0  0  0
  -22.7020  -10.2640   20.2480 C   0  0  0  0  0  3  0  0  0  0  0  0
  -21.5910   -6.9970   21.4800 O   0  0  0  0  0  0  0  0  0  0  0  0
  -21.5470   -6.2490   22.6290 C   0  0  0  0  0  0  0  0  0  0  0  0
  -21.1710   -6.8150   23.8680 C   0  0  0  0  0  3  0  0  0  0  0  0
  -21.0730   -5.9970   25.0110 C   0  0  0  0  0  3  0  0  0  0  0  0
  -21.3350   -4.6180   24.9180 C   0  0  0  0  0  0  0  0  0  0  0  0
  -21.7070   -4.0540   23.6850 C   0  0  0  0  0  3  0  0  0  0  0  0
  -21.8090   -4.8670   22.5430 C   0  0  0  0  0  0  0  0  0  0  0  0
  -22.1460   -4.3180   21.3510 F   0  0  0  0  0  0  0  0  0  0  0  0
  -21.2320   -3.8300   26.0140 F   0  0  0  0  0  0  0  0  0  0  0  0
  -22.7350  -13.6150   21.0320 C   0  0  0  0  0  0  0  0  0  0  0  0
  -21.9740  -12.9520   21.8970 N   0  0  0  0  0  0  0  0  0  0  0  0
  -22.3190  -14.6280   20.4780 O   0  0  0  0  0  0  0  0  0  0  0  0
  -22.3130  -12.1290   22.3740 H   0  0  0  0  0  0  0  0  0  0  0  0
  -21.0330  -13.2750   22.0840 H   0  0  0  0  0  0  0  0  0  0  0  0
  -25.4020  -15.2440   20.2730 N   0  0  0  0  0  0  0  0  0  0  0  0
  -24.6590  -15.9250   20.3860 H   0  0  0  0  0  0  0  0  0  0  0  0
  -26.2860  -15.6620   20.0100 H   0  0  0  0  0  0  0  0  0  0  0  0
  -28.7490  -22.4880   20.4440 C   0  0  0  0  0  3  0  0  0  0  0  0
  -28.0030  -24.0450   19.7910 C   0  0  0  0  0  3  0  0  0  0  0  0
  -28.1820  -25.7010   20.1020 O   0  0  0  0  0  0  0  0  0  0  0  0
  -24.6880  -31.7800   23.0690 C   0  0  0  0  0  0  0  0  0  0  0  0
  -27.2080  -26.8520   20.0200 C   0  0  0  0  0  0  0  0  0  0  0  0
  -23.4890  -30.3760   21.4440 C   0  0  0  0  0  3  0  0  0  0  0  0
  -24.9260  -28.7770   20.0020 C   0  0  0  0  0  0  0  0  0  0  0  0
  -26.0570  -30.5830   21.2760 C   0  0  0  0  0  2  0  0  0  0  0  0
  -26.1220  -29.1680   20.6170 C   0  0  0  0  0  0  0  0  0  0  0  0
  -27.2530  -28.2260   20.6020 C   0  0  0  0  0  3  0  0  0  0  0  0
  -25.9900  -26.6380   19.3400 C   0  0  0  0  0  3  0  0  0  0  0  0
  -24.8930  -27.5390   19.3370 C   0  0  0  0  0  3  0  0  0  0  0  0
  -23.7070  -29.6990   20.0630 C   0  0  0  0  0  2  0  0  0  0  0  0
  -24.7690  -30.9420   21.9840 N   0  0  0  0  0  0  0  0  0  0  0  0
  -23.6000  -32.0650   23.5980 O   0  0  0  0  0  0  0  0  0  0  0  0
  -22.8080  -29.3790   22.4210 C   0  0  0  0  0  0  0  0  0  0  0  0
  -21.4730  -29.2200   22.3240 N   0  0  0  0  0  0  0  0  0  0  0  0
  -23.4860  -28.7460   23.2320 O   0  0  0  0  0  0  0  0  0  0  0  0
  -20.9810  -29.7820   21.6430 H   0  0  0  0  0  0  0  0  0  0  0  0
  -18.0960  -28.0140   22.8940 C   0  0  0  0  0  0  0  0  0  0  0  0
  -20.6620  -28.2770   23.1030 C   0  0  0  0  0  3  0  0  0  0  0  0
  -20.7480  -26.8490   22.5140 C   0  0  0  0  0  2  0  0  0  0  0  0
  -19.6260  -26.5360   21.5200 C   0  0  0  0  0  2  0  0  0  0  0  0
  -18.2590  -26.6730   22.1980 C   0  0  0  0  0  2  0  0  0  0  0  0
  -19.2250  -28.7750   23.3030 C   0  0  0  0  0  0  0  0  0  0  0  0
  -19.0180  -30.0280   23.9230 C   0  0  0  0  0  3  0  0  0  0  0  0
  -17.7180  -30.5210   24.1300 C   0  0  0  0  0  3  0  0  0  0  0  0
  -16.6030  -29.7620   23.7310 C   0  0  0  0  0  3  0  0  0  0  0  0
  -16.7950  -28.5080   23.1220 C   0  0  0  0  0  3  0  0  0  0  0  0
  -25.9550  -32.4380   23.6940 C   0  0  0  0  0  3  0  0  0  0  0  0
  -25.6080  -33.8170   24.0740 N   0  0  0  0  0  0  0  0  0  0  0  0
  -25.8980  -34.9130   23.3590 C   0  0  0  0  0  0  0  0  0  0  0  0
  -26.5430  -34.8670   22.3070 O   0  0  0  0  0  0  0  0  0  0  0  0
  -25.0240  -33.9240   24.8920 H   0  0  0  0  0  0  0  0  0  0  0  0
  -24.1130  -36.6790   23.1390 C   0  0  0  0  0  1  0  0  0  0  0  0
  -25.3940  -36.2720   23.8860 C   0  0  0  0  0  3  0  0  0  0  0  0
  -27.5340  -37.1890   24.6710 C   0  0  0  0  0  1  0  0  0  0  0  0
  -26.3970  -37.3560   23.7730 N   0  0  0  0  0  0  0  0  0  0  0  0
  -25.9720  -38.2630   23.9580 H   0  0  0  0  0  0  0  0  0  0  0  0
  -26.5020  -31.6510   24.9480 C   0  0  1  0  0  0  0  0  0  0  0  0
  -25.4300  -31.3780   26.0300 C   0  0  0  0  0  1  0  0  0  0  0  0
  -27.0990  -30.2900   24.5300 C   0  0  0  0  0  1  0  0  0  0  0  0
  -27.6510  -32.4540   25.6050 C   0  0  0  0  0  1  0  0  0  0  0  0
  1 14  1  0
  2  7  1  0
  3  4  1  0
  3  2  1  0
  5  4  1  0
  5 20  1  0
  5  6  1  0
  7  1  1  0
  7  6  1  0
  8  1  2  0
 10  9  1  0
 10 14  1  0
 12 15  1  0
 12  9  1  0
 13 11  1  0
 14 11  1  0
 15 45  1  0
 15 13  1  0
 15 16  1  6
 17 18  2  0
 18 19  1  0
 18 37  1  0
 19 22  1  0
 20 17  1  0
 20 21  1  0
 21 19  2  0
 22 23  1  0
 23 24  2  0
 25 28  1  0
 25 24  1  0
 26 25  2  0
 27 26  1  0
 27 22  2  0
 28 29  1  0
 29 30  1  0
 30 31  2  0
 32 31  1  0
 32 36  1  0
 33 32  2  0
 34 29  2  0
 34 33  1  0
 35 34  1  0
 37 38  1  0
 38 41  1  0
 38 40  1  0
 39 37  2  0
 42 43  1  0
 42 17  1  0
 44 42  1  0
 46 47  1  0
 46 45  2  0
 48 59  2  0
 49 47  1  0
 49 54  1  0
 50 58  1  0
 50 60  1  0
 51 57  1  0
 51 53  1  0
 52 58  1  0
 53 52  1  0
 54 53  2  0
 55 49  2  0
 56 55  1  0
 56 51  2  0
 57 50  1  0
 58 48  1  0
 60 62  2  0
 61 60  1  0
 63 61  1  0
 64 73  2  0
 64 69  1  0
 65 61  1  0
 65 69  1  0
 66 65  1  0
 67 68  1  0
 67 66  1  0
 68 64  1  0
 69 70  2  0
 70 71  1  0
 72 71  2  0
 73 72  1  0
 74 48  1  0
 74 75  1  0
 74 84  1  0
 75 78  1  0
 76 80  1  0
 76 75  1  0
 77 76  2  0
 80 79  1  0
 82 80  1  0
 82 83  1  0
 82 81  1  0
 84 87  1  1
 84 85  1  0
 86 84  1  0
M  ISO  4   1 100  14 100  46 101  47 101
M  END
>  <TORSDO>  (30) 
F 17

>  <SCORE>  (30) 
-16.216

>  <name>  (30) 
29

>  <ligand_id>  (30) 
29

>  <original_smiles>  (30) 
[H]c1c([H])c([H])c2c(c1[H])C([H])([H])C([H])([H])C([H])([H])C2([H])N([H])C(=O)C1([H])N(C(=O)C([H])(N([H])C(=O)C([H])(N([H])C([H])([H])[H])C([H])([H])[H])C(C([H])([H])[H])(C([H])([H])[H])C([H])([H])[H])C([H])([H])c2c([H])c(OC([H])([H])C([H])([H])[N+]3([H])C([H])([H])C([H])([H])N(C(=O)N4C([H])([H])C([H])([H])C([H])([H])C([H])(n5nc(-c6c([H])c([H])c(Oc7c([H])c([H])c(F)c([H])c7F)c([H])c6[H])c(C(=O)N([H])[H])c5N([H])[H])C4([H])[H])C([H])([H])C([H])([H])C3([H])[H])c([H])c([H])c2C1([H])[H]

>  <smiles>  (30) 
[H]c1c([H])c([H])c2c(c1[H])C([H])([H])C([H])([H])C([H])([H])C2([H])N([H])C(=O)C1([H])N(C(=O)C([H])(N([H])C(=O)C([H])(N([H])C([H])([H])[H])C([H])([H])[H])C(C([H])([H])[H])(C([H])([H])[H])C([H])([H])[H])C([H])([H])c2c([H])c(OC([H])([H])C([H])([H])[N+]3([H])C([H])([H])C([H])([H])N(C(=O)N4C([H])([H])C([H])([H])C([H])([H])C([H])(n5nc(-c6c([H])c([H])c(Oc7c([H])c([H])c(F)c([H])c7F)c([H])c6[H])c(C(=O)N([H])[H])c5N([H])[H])C4([H])[H])C([H])([H])C([H])([H])C3([H])[H])c([H])c([H])c2C1([H])[H]

$$$$
30:0:0
     RDKit          3D

 93101  0  0  1  0  0  0  0  0999 V2000
  -29.7100  -21.8430   21.0870 C   0  0  0  0  0  2  0  0  0  0  0  0
  -30.2880  -21.2430   17.9030 C   0  0  0  0  0  2  0  0  0  0  0  0
  -28.9340  -20.5300   18.0720 C   0  0  0  0  0  2  0  0  0  0  0  0
  -31.2190  -20.9420   19.1010 C   0  0  0  0  0  2  0  0  0  0  0  0
  -29.1320  -19.1910   18.7980 C   0  0  0  0  0  2  0  0  0  0  0  0
  -30.4350  -20.5980   20.4010 C   0  0  0  0  0  3  0  0  0  0  0  0
  -29.6000  -19.3700   20.1890 N   0  0  0  0  0  0  0  0  0  0  0  0
  -30.2560  -18.1170   20.6780 C   0  0  0  0  0  2  0  0  0  0  0  0
  -29.4660  -16.7950   20.3760 C   0  0  0  0  0  2  0  0  0  0  0  0
  -30.6090  -14.5500   20.4800 C   0  0  0  0  0  0  0  0  0  0  0  0
  -30.3610  -12.3690   19.3450 C   0  0  0  0  0  2  0  0  0  0  0  0
  -29.4220  -12.5930   18.1410 C   0  0  0  0  0  2  0  0  0  0  0  0
  -27.9450  -12.4390   18.5540 C   0  0  0  0  0  2  0  0  0  0  0  0
  -27.6050  -13.2400   19.8390 C   0  0  0  0  0  3  0  0  0  0  0  0
  -28.6610  -13.0060   20.9460 C   0  0  0  0  0  2  0  0  0  0  0  0
  -29.9890  -13.3360   20.3950 N   0  0  0  0  0  0  0  0  0  0  0  0
  -31.6890  -14.7850   19.9300 O   0  0  0  0  0  0  0  0  0  0  0  0
  -29.8810  -15.5370   21.0460 N   0  0  0  0  0  0  0  0  0  0  0  0
  -29.1870  -15.1910   21.6910 H   0  0  0  0  0  0  0  0  0  0  0  0
  -25.2040  -13.8380   20.5400 C   0  0  0  0  0  0  0  0  0  0  0  0
  -24.1380  -13.0640   20.9150 C   0  0  0  0  0  0  0  0  0  0  0  0
  -24.6000  -11.7120   20.8780 C   0  0  0  0  0  0  0  0  0  0  0  0
  -26.2500  -12.9580   20.3080 N   0  0  0  0  0  0  0  0  0  0  0  0
  -25.8910  -11.6750   20.5680 N   0  0  0  0  0  0  0  0  0  0  0  0
  -23.8760  -10.4500   21.0700 C   0  0  0  0  0  0  0  0  0  0  0  0
  -24.3250   -9.4820   21.9950 C   0  0  0  0  0  3  0  0  0  0  0  0
  -23.6090   -8.2790   22.1750 C   0  0  0  0  0  3  0  0  0  0  0  0
  -22.4300   -8.0370   21.4340 C   0  0  0  0  0  0  0  0  0  0  0  0
  -21.9990   -8.9960   20.4980 C   0  0  0  0  0  3  0  0  0  0  0  0
  -22.7150  -10.1910   20.3160 C   0  0  0  0  0  3  0  0  0  0  0  0
  -21.6790   -6.8910   21.5260 O   0  0  0  0  0  0  0  0  0  0  0  0
  -21.6560   -6.1350   22.6710 C   0  0  0  0  0  0  0  0  0  0  0  0
  -21.2560   -6.6750   23.9130 C   0  0  0  0  0  3  0  0  0  0  0  0
  -21.1780   -5.8450   25.0490 C   0  0  0  0  0  3  0  0  0  0  0  0
  -21.4880   -4.4770   24.9460 C   0  0  0  0  0  0  0  0  0  0  0  0
  -21.8810   -3.9360   23.7080 C   0  0  0  0  0  3  0  0  0  0  0  0
  -21.9630   -4.7630   22.5750 C   0  0  0  0  0  0  0  0  0  0  0  0
  -22.3190   -4.2310   21.3810 F   0  0  0  0  0  0  0  0  0  0  0  0
  -21.4080   -3.6770   26.0340 F   0  0  0  0  0  0  0  0  0  0  0  0
  -22.7390  -13.5350   21.1950 C   0  0  0  0  0  0  0  0  0  0  0  0
  -22.0180  -12.8350   22.0640 N   0  0  0  0  0  0  0  0  0  0  0  0
  -22.2940  -14.5590   20.6790 O   0  0  0  0  0  0  0  0  0  0  0  0
  -22.3970  -12.0160   22.5170 H   0  0  0  0  0  0  0  0  0  0  0  0
  -21.0710  -13.1200   22.2740 H   0  0  0  0  0  0  0  0  0  0  0  0
  -25.3720  -15.2090   20.3570 N   0  0  0  0  0  0  0  0  0  0  0  0
  -24.6110  -15.8710   20.4450 H   0  0  0  0  0  0  0  0  0  0  0  0
  -26.2250  -15.6360   20.0190 H   0  0  0  0  0  0  0  0  0  0  0  0
  -29.3430  -22.9850   20.1850 N   0  0  0  0  0  4  0  0  0  0  0  0
  -28.6580  -22.6330   19.5360 H   0  0  0  0  0  0  0  0  0  0  0  0
  -30.1770  -23.2080   19.6630 H   0  0  0  0  0  0  0  0  0  0  0  0
  -28.8370  -24.2690   20.7810 C   0  0  0  0  0  2  0  0  0  0  0  0
  -28.6280  -25.3900   19.7050 C   0  0  0  0  0  2  0  0  0  0  0  0
  -28.4430  -26.7260   20.2350 O   0  0  0  0  0  0  0  0  0  0  0  0
  -24.5750  -31.8950   23.2370 C   0  0  0  0  0  0  0  0  0  0  0  0
  -27.2370  -27.4140   20.1820 C   0  0  0  0  0  0  0  0  0  0  0  0
  -23.3710  -30.4790   21.6000 C   0  0  0  0  0  3  0  0  0  0  0  0
  -24.8270  -28.9320   20.1840 C   0  0  0  0  0  0  0  0  0  0  0  0
  -25.9000  -30.8280   21.4140 C   0  0  0  0  0  2  0  0  0  0  0  0
  -25.9850  -29.4550   20.7730 C   0  0  0  0  0  0  0  0  0  0  0  0
  -27.1820  -28.7020   20.7720 C   0  0  0  0  0  3  0  0  0  0  0  0
  -26.0550  -26.9110   19.5840 C   0  0  0  0  0  3  0  0  0  0  0  0
  -24.8610  -27.6590   19.5910 C   0  0  0  0  0  3  0  0  0  0  0  0
  -23.5820  -29.7870   20.2270 C   0  0  0  0  0  2  0  0  0  0  0  0
  -24.6310  -31.0870   22.1390 N   0  0  0  0  0  0  0  0  0  0  0  0
  -23.4930  -32.1690   23.7750 O   0  0  0  0  0  0  0  0  0  0  0  0
  -22.7210  -29.4640   22.5660 C   0  0  0  0  0  0  0  0  0  0  0  0
  -21.3980  -29.2800   22.4370 N   0  0  0  0  0  0  0  0  0  0  0  0
  -23.4050  -28.8420   23.3840 O   0  0  0  0  0  0  0  0  0  0  0  0
  -20.9050  -29.8350   21.7490 H   0  0  0  0  0  0  0  0  0  0  0  0
  -18.0290  -28.0710   22.9240 C   0  0  0  0  0  0  0  0  0  0  0  0
  -20.5830  -28.3400   23.2050 C   0  0  0  0  0  3  0  0  0  0  0  0
  -20.6950  -26.9070   22.6340 C   0  0  0  0  0  2  0  0  0  0  0  0
  -19.6010  -26.5760   21.6160 C   0  0  0  0  0  2  0  0  0  0  0  0
  -18.2160  -26.7190   22.2550 C   0  0  0  0  0  2  0  0  0  0  0  0
  -19.1420  -28.8400   23.3550 C   0  0  0  0  0  0  0  0  0  0  0  0
  -18.9160  -30.1050   23.9390 C   0  0  0  0  0  3  0  0  0  0  0  0
  -17.6100  -30.6030   24.0940 C   0  0  0  0  0  3  0  0  0  0  0  0
  -16.5100  -29.8300   23.6850 C   0  0  0  0  0  3  0  0  0  0  0  0
  -16.7200  -28.5650   23.1080 C   0  0  0  0  0  3  0  0  0  0  0  0
  -25.8610  -32.5280   23.8530 C   0  0  0  0  0  3  0  0  0  0  0  0
  -25.5530  -33.9260   24.1820 N   0  0  0  0  0  0  0  0  0  0  0  0
  -25.8860  -34.9770   23.4210 C   0  0  0  0  0  0  0  0  0  0  0  0
  -26.5540  -34.8730   22.3890 O   0  0  0  0  0  0  0  0  0  0  0  0
  -24.9600  -34.0850   24.9820 H   0  0  0  0  0  0  0  0  0  0  0  0
  -24.1550  -36.7630   23.0690 C   0  0  0  0  0  1  0  0  0  0  0  0
  -25.3990  -36.3640   23.8770 C   0  0  0  0  0  3  0  0  0  0  0  0
  -27.5320  -37.2530   24.7040 C   0  0  0  0  0  1  0  0  0  0  0  0
  -26.4290  -37.4190   23.7610 N   0  0  0  0  0  0  0  0  0  0  0  0
  -26.0220  -38.3380   23.9140 H   0  0  0  0  0  0  0  0  0  0  0  0
  -26.3870  -31.7620   25.1300 C   0  0  1  0  0  0  0  0  0  0  0  0
  -25.2950  -31.5220   26.2000 C   0  0  0  0  0  1  0  0  0  0  0  0
  -26.9690  -30.3840   24.7400 C   0  0  0  0  0  1  0  0  0  0  0  0
  -27.5390  -32.5600   25.7860 C   0  0  0  0  0  1  0  0  0  0  0  0
  2  3  1  0
  2  4  1  0
  3  5  1  0
  4  6  1  0
  5  7  1  0
  6  1  1  0
  7  6  1  0
  7  8  1  0
  9  8  1  0
  9 18  1  0
 10 18  1  0
 11 16  1  0
 12 13  1  0
 12 11  1  0
 14 13  1  0
 14 23  1  0
 14 15  1  0
 16 10  1  0
 16 15  1  0
 17 10  2  0
 18 19  1  0
 20 21  2  0
 21 40  1  0
 22 21  1  0
 22 25  1  0
 23 20  1  0
 23 24  1  0
 24 22  2  0
 25 26  1  0
 26 27  2  0
 28 31  1  0
 28 27  1  0
 29 28  2  0
 30 29  1  0
 30 25  2  0
 31 32  1  0
 32 33  1  0
 33 34  2  0
 35 34  1  0
 35 39  1  0
 36 35  2  0
 37 32  2  0
 37 36  1  0
 38 37  1  0
 40 41  1  0
 41 44  1  0
 41 43  1  0
 42 40  2  0
 45 46  1  0
 45 20  1  0
 47 45  1  0
 48 51  1  0
 48  1  1  0
 49 48  1  0
 50 48  1  0
 52 53  1  0
 52 51  1  0
 54 65  2  0
 55 53  1  0
 55 60  1  0
 56 64  1  0
 56 66  1  0
 57 63  1  0
 57 59  1  0
 58 64  1  0
 59 58  1  0
 60 59  2  0
 61 62  1  0
 61 55  2  0
 62 57  2  0
 63 56  1  0
 64 54  1  0
 66 68  2  0
 67 66  1  0
 69 67  1  0
 70 79  2  0
 70 75  1  0
 71 67  1  0
 71 75  1  0
 72 71  1  0
 73 74  1  0
 73 72  1  0
 74 70  1  0
 75 76  2  0
 76 77  1  0
 78 77  2  0
 79 78  1  0
 80 54  1  0
 80 81  1  0
 80 90  1  0
 81 84  1  0
 82 86  1  0
 82 81  1  0
 83 82  2  0
 86 85  1  0
 88 86  1  0
 88 89  1  0
 88 87  1  0
 90 93  1  1
 90 91  1  0
 92 90  1  0
M  ISO  4  10 100  18 100  52 101  53 101
M  END
>  <TORSDO>  (31) 
F 22

>  <SCORE>  (31) 
-13.215

>  <name>  (31) 
30

>  <ligand_id>  (31) 
30

>  <original_smiles>  (31) 
[H]c1c([H])c([H])c2c(c1[H])C([H])([H])C([H])([H])C([H])([H])C2([H])N([H])C(=O)C1([H])N(C(=O)C([H])(N([H])C(=O)C([H])(N([H])C([H])([H])[H])C([H])([H])[H])C(C([H])([H])[H])(C([H])([H])[H])C([H])([H])[H])C([H])([H])c2c([H])c(OC([H])([H])C([H])([H])[N+]([H])([H])C([H])([H])C3([H])N(C([H])([H])C([H])([H])N([H])C(=O)N4C([H])([H])C([H])([H])C([H])([H])C([H])(n5nc(-c6c([H])c([H])c(Oc7c([H])c([H])c(F)c([H])c7F)c([H])c6[H])c(C(=O)N([H])[H])c5N([H])[H])C4([H])[H])C([H])([H])C([H])([H])C([H])([H])C3([H])[H])c([H])c([H])c2C1([H])[H]

>  <smiles>  (31) 
[H]c1c([H])c([H])c2c(c1[H])C([H])([H])C([H])([H])C([H])([H])C2([H])N([H])C(=O)C1([H])N(C(=O)C([H])(N([H])C(=O)C([H])(N([H])C([H])([H])[H])C([H])([H])[H])C(C([H])([H])[H])(C([H])([H])[H])C([H])([H])[H])C([H])([H])c2c([H])c(OC([H])([H])C([H])([H])[N+]([H])([H])C([H])([H])C3([H])N(C([H])([H])C([H])([H])N([H])C(=O)N4C([H])([H])C([H])([H])C([H])([H])C([H])(n5nc(-c6c([H])c([H])c(Oc7c([H])c([H])c(F)c([H])c7F)c([H])c6[H])c(C(=O)N([H])[H])c5N([H])[H])C4([H])[H])C([H])([H])C([H])([H])C([H])([H])C3([H])[H])c([H])c([H])c2C1([H])[H]

$$$$
31:0:0
     RDKit          3D

100109  0  0  1  0  0  0  0  0999 V2000
  -29.8330  -20.9590   21.5100 C   0  0  0  0  0  2  0  0  0  0  0  0
  -30.3000  -21.4240   19.0020 C   0  0  0  0  0  2  0  0  0  0  0  0
  -30.4740  -22.3430   21.7810 C   0  0  0  0  0  2  0  0  0  0  0  0
  -30.9230  -22.7590   19.4540 C   0  0  0  0  0  2  0  0  0  0  0  0
  -30.1550  -20.3350   20.1130 C   0  0  0  0  0  3  0  0  0  0  0  0
  -30.2060  -23.2670   20.6490 N   0  0  2  0  0  4  0  0  0  0  0  0
  -29.2200  -23.1690   20.4570 H   0  0  0  0  0  0  0  0  0  0  0  0
  -26.5820  -17.7120   20.1530 C   0  0  0  0  0  2  0  0  0  0  0  0
  -27.9260  -16.9840   20.2570 C   0  0  0  0  0  2  0  0  0  0  0  0
  -27.7210  -19.7830   19.4430 C   0  0  0  0  0  2  0  0  0  0  0  0
  -29.1550  -19.1970   19.6640 C   0  0  0  0  0  3  0  0  0  0  0  0
  -26.6440  -18.7730   19.0480 C   0  0  0  0  0  3  0  0  0  0  0  0
  -29.1450  -17.9030   20.5650 C   0  0  0  0  0  3  0  0  0  0  0  0
  -30.4940  -17.0840   20.5510 C   0  0  0  0  0  2  0  0  0  0  0  0
  -30.9860  -14.6360   20.0230 C   0  0  0  0  0  0  0  0  0  0  0  0
  -30.6820  -12.4230   18.9630 C   0  0  0  0  0  2  0  0  0  0  0  0
  -29.6920  -12.5610   17.7870 C   0  0  0  0  0  2  0  0  0  0  0  0
  -28.2330  -12.4460   18.2720 C   0  0  0  0  0  2  0  0  0  0  0  0
  -27.9370  -13.3250   19.5170 C   0  0  0  0  0  3  0  0  0  0  0  0
  -29.0320  -13.1400   20.5910 C   0  0  0  0  0  2  0  0  0  0  0  0
  -30.3390  -13.4390   19.9730 N   0  0  0  0  0  0  0  0  0  0  0  0
  -32.0490  -14.8530   19.4340 O   0  0  0  0  0  0  0  0  0  0  0  0
  -30.3140  -15.6190   20.6560 N   0  0  0  0  0  0  0  0  0  0  0  0
  -29.4850  -15.3170   21.1450 H   0  0  0  0  0  0  0  0  0  0  0  0
  -25.5790  -13.9650   20.3290 C   0  0  0  0  0  0  0  0  0  0  0  0
  -24.5180  -13.2140   20.7490 C   0  0  0  0  0  0  0  0  0  0  0  0
  -24.9460  -11.8530   20.6780 C   0  0  0  0  0  0  0  0  0  0  0  0
  -26.6000  -13.0700   20.0520 N   0  0  0  0  0  0  0  0  0  0  0  0
  -26.2210  -11.7920   20.3100 N   0  0  0  0  0  0  0  0  0  0  0  0
  -24.2000  -10.6050   20.8790 C   0  0  0  0  0  0  0  0  0  0  0  0
  -24.6320   -9.6260   21.8000 C   0  0  0  0  0  3  0  0  0  0  0  0
  -23.8850   -8.4440   21.9910 C   0  0  0  0  0  3  0  0  0  0  0  0
  -22.6910   -8.2330   21.2620 C   0  0  0  0  0  0  0  0  0  0  0  0
  -22.2770   -9.2000   20.3290 C   0  0  0  0  0  3  0  0  0  0  0  0
  -23.0270  -10.3730   20.1340 C   0  0  0  0  0  3  0  0  0  0  0  0
  -21.9150   -7.1050   21.3640 O   0  0  0  0  0  0  0  0  0  0  0  0
  -21.7760   -6.4330   22.5540 C   0  0  0  0  0  0  0  0  0  0  0  0
  -21.2440   -7.0540   23.7050 C   0  0  0  0  0  3  0  0  0  0  0  0
  -21.0540   -6.3070   24.8820 C   0  0  0  0  0  3  0  0  0  0  0  0
  -21.3870   -4.9400   24.9120 C   0  0  0  0  0  0  0  0  0  0  0  0
  -21.9180   -4.3200   23.7670 C   0  0  0  0  0  3  0  0  0  0  0  0
  -22.1070   -5.0640   22.5890 C   0  0  0  0  0  0  0  0  0  0  0  0
  -22.5970   -4.4560   21.4830 F   0  0  0  0  0  0  0  0  0  0  0  0
  -21.1980   -4.2200   26.0430 F   0  0  0  0  0  0  0  0  0  0  0  0
  -23.1480  -13.7230   21.0990 C   0  0  0  0  0  0  0  0  0  0  0  0
  -22.4520  -13.0440   22.0030 N   0  0  0  0  0  0  0  0  0  0  0  0
  -22.7110  -14.7650   20.6130 O   0  0  0  0  0  0  0  0  0  0  0  0
  -22.8200  -12.2060   22.4280 H   0  0  0  0  0  0  0  0  0  0  0  0
  -21.5400  -13.3770   22.2810 H   0  0  0  0  0  0  0  0  0  0  0  0
  -25.7470  -15.3300   20.1350 N   0  0  0  0  0  0  0  0  0  0  0  0
  -24.9300  -15.9190   20.0570 H   0  0  0  0  0  0  0  0  0  0  0  0
  -26.5530  -15.7130   19.6590 H   0  0  0  0  0  0  0  0  0  0  0  0
  -25.2930  -19.4910   18.8050 C   0  0  0  0  0  2  0  0  0  0  0  0
  -24.2260  -18.5850   18.3480 N   0  0  0  0  0  4  0  0  0  0  0  0
  -24.5180  -18.0640   17.5410 H   0  0  0  0  0  0  0  0  0  0  0  0
  -23.4210  -19.1260   18.0900 H   0  0  0  0  0  0  0  0  0  0  0  0
  -23.9570  -17.9500   19.0770 H   0  0  0  0  0  0  0  0  0  0  0  0
  -30.4120  -24.7240   20.9470 C   0  0  0  0  0  2  0  0  0  0  0  0
  -29.4730  -25.6510   20.1240 C   0  0  0  0  0  2  0  0  0  0  0  0
  -29.3170  -26.9580   20.7160 O   0  0  0  0  0  0  0  0  0  0  0  0
  -24.7930  -31.7870   23.3750 C   0  0  0  0  0  0  0  0  0  0  0  0
  -28.0980  -27.6000   20.5580 C   0  0  0  0  0  0  0  0  0  0  0  0
  -23.8940  -30.3530   21.5740 C   0  0  0  0  0  3  0  0  0  0  0  0
  -25.6130  -28.9540   20.3070 C   0  0  0  0  0  0  0  0  0  0  0  0
  -26.3960  -30.8800   21.6940 C   0  0  0  0  0  2  0  0  0  0  0  0
  -26.6540  -29.5340   21.0420 C   0  0  0  0  0  0  0  0  0  0  0  0
  -27.8960  -28.8660   21.1630 C   0  0  0  0  0  3  0  0  0  0  0  0
  -27.0340  -27.0400   19.8110 C   0  0  0  0  0  3  0  0  0  0  0  0
  -25.8000  -27.7060   19.6900 C   0  0  0  0  0  3  0  0  0  0  0  0
  -24.3140  -29.7250   20.2180 C   0  0  0  0  0  2  0  0  0  0  0  0
  -25.0380  -31.0220   22.2730 N   0  0  0  0  0  0  0  0  0  0  0  0
  -23.6370  -31.9750   23.7830 O   0  0  0  0  0  0  0  0  0  0  0  0
  -23.2010  -29.2670   22.4280 C   0  0  0  0  0  0  0  0  0  0  0  0
  -21.8940  -29.0670   22.1970 N   0  0  0  0  0  0  0  0  0  0  0  0
  -23.8420  -28.6090   23.2530 O   0  0  0  0  0  0  0  0  0  0  0  0
  -21.4400  -29.6520   21.5100 H   0  0  0  0  0  0  0  0  0  0  0  0
  -18.4830  -27.9280   22.5560 C   0  0  0  0  0  0  0  0  0  0  0  0
  -21.0460  -28.0710   22.8530 C   0  0  0  0  0  3  0  0  0  0  0  0
  -21.1050  -26.7160   22.1100 C   0  0  0  0  0  2  0  0  0  0  0  0
  -19.9950  -26.5500   21.0680 C   0  0  0  0  0  2  0  0  0  0  0  0
  -18.6170  -26.6630   21.7250 C   0  0  0  0  0  2  0  0  0  0  0  0
  -19.6230  -28.5980   23.0710 C   0  0  0  0  0  0  0  0  0  0  0  0
  -19.4440  -29.7910   23.8050 C   0  0  0  0  0  3  0  0  0  0  0  0
  -18.1560  -30.3100   24.0310 C   0  0  0  0  0  3  0  0  0  0  0  0
  -17.0300  -29.6340   23.5330 C   0  0  0  0  0  3  0  0  0  0  0  0
  -17.1930  -28.4440   22.8020 C   0  0  0  0  0  3  0  0  0  0  0  0
  -25.9470  -32.4850   24.1610 C   0  0  0  0  0  3  0  0  0  0  0  0
  -25.5570  -33.8860   24.3710 N   0  0  0  0  0  0  0  0  0  0  0  0
  -25.9320  -34.9040   23.5860 C   0  0  0  0  0  0  0  0  0  0  0  0
  -26.7110  -34.7690   22.6380 O   0  0  0  0  0  0  0  0  0  0  0  0
  -24.8780  -34.0630   25.0960 H   0  0  0  0  0  0  0  0  0  0  0  0
  -24.1700  -36.5850   22.9610 C   0  0  0  0  0  1  0  0  0  0  0  0
  -25.3490  -36.2950   23.9020 C   0  0  0  0  0  3  0  0  0  0  0  0
  -27.3760  -37.3180   24.8390 C   0  0  0  0  0  1  0  0  0  0  0  0
  -26.3430  -37.3870   23.8080 N   0  0  0  0  0  0  0  0  0  0  0  0
  -25.8900  -38.2930   23.8730 H   0  0  0  0  0  0  0  0  0  0  0  0
  -26.2750  -31.7840   25.5360 C   0  0  1  0  0  0  0  0  0  0  0  0
  -25.0250  -31.4980   26.4000 C   0  0  0  0  0  1  0  0  0  0  0  0
  -27.0070  -30.4410   25.3040 C   0  0  0  0  0  1  0  0  0  0  0  0
  -27.2330  -32.6740   26.3620 C   0  0  0  0  0  1  0  0  0  0  0  0
  1  3  1  0
  2  4  1  0
  4  6  1  0
  5  2  1  0
  5  1  1  0
  6 58  1  0
  6  3  1  0
  6  7  1  6
  8  9  1  0
  9 13  1  0
 11 10  1  0
 11  5  1  0
 11 13  1  0
 12 53  1  0
 12 10  1  0
 12  8  1  0
 13 14  1  0
 14 23  1  0
 15 23  1  0
 16 21  1  0
 17 18  1  0
 17 16  1  0
 19 18  1  0
 19 28  1  0
 19 20  1  0
 21 15  1  0
 21 20  1  0
 22 15  2  0
 23 24  1  0
 25 26  2  0
 26 45  1  0
 27 26  1  0
 27 30  1  0
 28 29  1  0
 28 25  1  0
 29 27  2  0
 30 31  1  0
 31 32  2  0
 33 36  1  0
 33 32  1  0
 34 33  2  0
 35 34  1  0
 35 30  2  0
 36 37  1  0
 37 42  2  0
 37 38  1  0
 38 39  2  0
 39 40  1  0
 40 44  1  0
 41 40  2  0
 42 41  1  0
 43 42  1  0
 45 46  1  0
 46 49  1  0
 46 48  1  0
 47 45  2  0
 50 25  1  0
 51 50  1  0
 52 50  1  0
 54 53  1  0
 54 57  1  0
 55 54  1  0
 56 54  1  0
 59 60  1  0
 59 58  1  0
 61 72  2  0
 62 60  1  0
 62 67  1  0
 63 71  1  0
 63 73  1  0
 64 66  1  0
 65 71  1  0
 66 67  2  0
 66 65  1  0
 68 62  2  0
 69 68  1  0
 69 64  2  0
 70 64  1  0
 70 63  1  0
 71 61  1  0
 73 75  2  0
 74 73  1  0
 76 74  1  0
 77 86  2  0
 77 82  1  0
 78 74  1  0
 78 82  1  0
 79 78  1  0
 80 81  1  0
 80 79  1  0
 81 77  1  0
 82 83  2  0
 83 84  1  0
 85 84  2  0
 86 85  1  0
 87 61  1  0
 87 88  1  0
 87 97  1  0
 88 91  1  0
 89 93  1  0
 89 88  1  0
 90 89  2  0
 93 92  1  0
 95 96  1  0
 95 93  1  0
 95 94  1  0
 97100  1  1
 97 98  1  0
 99 97  1  0
M  ISO  4  15 100  23 100  59 101  60 101
M  END
>  <TORSDO>  (32) 
F 22

>  <SCORE>  (32) 
-11.352

>  <name>  (32) 
31

>  <ligand_id>  (32) 
31

>  <original_smiles>  (32) 
[H]c1c([H])c([H])c2c(c1[H])C([H])([H])C([H])([H])C([H])([H])C2([H])N([H])C(=O)C1([H])N(C(=O)C([H])(N([H])C(=O)C([H])(N([H])C([H])([H])[H])C([H])([H])[H])C(C([H])([H])[H])(C([H])([H])[H])C([H])([H])[H])C([H])([H])c2c([H])c(OC([H])([H])C([H])([H])[N+]3([H])C([H])([H])C([H])([H])C([H])(C4([H])C([H])([H])C([H])(C([H])([H])[N+]([H])([H])[H])C([H])([H])C([H])([H])C4([H])C([H])([H])N([H])C(=O)N4C([H])([H])C([H])([H])C([H])([H])C([H])(n5nc(-c6c([H])c([H])c(Oc7c([H])c([H])c(F)c([H])c7F)c([H])c6[H])c(C(=O)N([H])[H])c5N([H])[H])C4([H])[H])C([H])([H])C3([H])[H])c([H])c([H])c2C1([H])[H]

>  <smiles>  (32) 
[H]c1c([H])c([H])c2c(c1[H])C([H])([H])C([H])([H])C([H])([H])C2([H])N([H])C(=O)C1([H])N(C(=O)C([H])(N([H])C(=O)C([H])(N([H])C([H])([H])[H])C([H])([H])[H])C(C([H])([H])[H])(C([H])([H])[H])C([H])([H])[H])C([H])([H])c2c([H])c(OC([H])([H])C([H])([H])[N+]3([H])C([H])([H])C([H])([H])C([H])(C4([H])C([H])([H])C([H])(C([H])([H])[N+]([H])([H])[H])C([H])([H])C([H])([H])C4([H])C([H])([H])N([H])C(=O)N4C([H])([H])C([H])([H])C([H])([H])C([H])(n5nc(-c6c([H])c([H])c(Oc7c([H])c([H])c(F)c([H])c7F)c([H])c6[H])c(C(=O)N([H])[H])c5N([H])[H])C4([H])[H])C([H])([H])C3([H])[H])c([H])c([H])c2C1([H])[H]

$$$$
32:0:0
     RDKit          3D

 95104  0  0  1  0  0  0  0  0999 V2000
  -31.0270  -19.4690   22.0640 C   0  0  0  0  0  3  0  0  0  0  0  0
  -30.5510  -18.2070   21.6660 C   0  0  0  0  0  3  0  0  0  0  0  0
  -30.0820  -19.1220   19.4680 C   0  0  0  0  0  3  0  0  0  0  0  0
  -31.0780  -20.5620   21.1680 C   0  0  0  0  0  0  0  0  0  0  0  0
  -30.5690  -20.3970   19.8440 C   0  0  0  0  0  0  0  0  0  0  0  0
  -30.0980  -18.0200   20.3500 C   0  0  0  0  0  0  0  0  0  0  0  0
  -31.7180  -21.8380   21.7060 C   0  0  0  0  0  2  0  0  0  0  0  0
  -30.6070  -21.4650   18.7350 C   0  0  0  0  0  2  0  0  0  0  0  0
  -32.6130  -22.5970   20.7140 C   0  0  0  0  0  2  0  0  0  0  0  0
  -29.8760  -22.8170   18.9500 C   0  0  0  0  0  2  0  0  0  0  0  0
  -31.9510  -23.7840   19.9880 C   0  0  0  0  0  2  0  0  0  0  0  0
  -30.4590  -23.7620   19.9460 N   0  0  1  0  0  4  0  0  0  0  0  0
  -30.1560  -23.4400   20.8540 H   0  0  0  0  0  0  0  0  0  0  0  0
  -29.6270  -16.6710   19.8210 C   0  0  0  0  0  2  0  0  0  0  0  0
  -30.5820  -14.4820   20.4320 C   0  0  0  0  0  0  0  0  0  0  0  0
  -30.3290  -12.2910   19.3560 C   0  0  0  0  0  2  0  0  0  0  0  0
  -29.3930  -12.5060   18.1460 C   0  0  0  0  0  2  0  0  0  0  0  0
  -27.9150  -12.3750   18.5660 C   0  0  0  0  0  2  0  0  0  0  0  0
  -27.5750  -13.2050   19.8320 C   0  0  0  0  0  3  0  0  0  0  0  0
  -28.6280  -12.9830   20.9460 C   0  0  0  0  0  2  0  0  0  0  0  0
  -29.9580  -13.2770   20.3820 N   0  0  0  0  0  0  0  0  0  0  0  0
  -31.7190  -14.6810   19.9920 O   0  0  0  0  0  0  0  0  0  0  0  0
  -29.7490  -15.5010   20.7000 N   0  0  0  0  0  0  0  0  0  0  0  0
  -28.8890  -15.2240   21.1490 H   0  0  0  0  0  0  0  0  0  0  0  0
  -25.1750  -13.8130   20.5360 C   0  0  0  0  0  0  0  0  0  0  0  0
  -24.1080  -13.0400   20.9070 C   0  0  0  0  0  0  0  0  0  0  0  0
  -24.5720  -11.6890   20.8820 C   0  0  0  0  0  0  0  0  0  0  0  0
  -26.2220  -12.9320   20.3090 N   0  0  0  0  0  0  0  0  0  0  0  0
  -25.8610  -11.6510   20.5730 N   0  0  0  0  0  0  0  0  0  0  0  0
  -23.8510  -10.4250   21.0760 C   0  0  0  0  0  0  0  0  0  0  0  0
  -24.2970   -9.4570   22.0030 C   0  0  0  0  0  3  0  0  0  0  0  0
  -23.5790   -8.2560   22.1840 C   0  0  0  0  0  3  0  0  0  0  0  0
  -22.4000   -8.0150   21.4380 C   0  0  0  0  0  0  0  0  0  0  0  0
  -21.9740   -8.9720   20.5000 C   0  0  0  0  0  3  0  0  0  0  0  0
  -22.6930  -10.1650   20.3170 C   0  0  0  0  0  3  0  0  0  0  0  0
  -21.6520   -6.8670   21.5300 O   0  0  0  0  0  0  0  0  0  0  0  0
  -21.6230   -6.1150   22.6760 C   0  0  0  0  0  0  0  0  0  0  0  0
  -21.2110   -6.6580   23.9130 C   0  0  0  0  0  3  0  0  0  0  0  0
  -21.1300   -5.8320   25.0520 C   0  0  0  0  0  3  0  0  0  0  0  0
  -21.4520   -4.4650   24.9560 C   0  0  0  0  0  0  0  0  0  0  0  0
  -21.8570   -3.9210   23.7250 C   0  0  0  0  0  3  0  0  0  0  0  0
  -21.9400   -4.7440   22.5880 C   0  0  0  0  0  0  0  0  0  0  0  0
  -22.3120   -4.2110   21.3990 F   0  0  0  0  0  0  0  0  0  0  0  0
  -21.3670   -3.6700   26.0480 F   0  0  0  0  0  0  0  0  0  0  0  0
  -22.7090  -13.5140   21.1780 C   0  0  0  0  0  0  0  0  0  0  0  0
  -21.9820  -12.8190   22.0440 N   0  0  0  0  0  0  0  0  0  0  0  0
  -22.2680  -14.5370   20.6540 O   0  0  0  0  0  0  0  0  0  0  0  0
  -22.3500  -11.9950   22.4970 H   0  0  0  0  0  0  0  0  0  0  0  0
  -21.0420  -13.1180   22.2620 H   0  0  0  0  0  0  0  0  0  0  0  0
  -25.3390  -15.1830   20.3530 N   0  0  0  0  0  0  0  0  0  0  0  0
  -24.5730  -15.8420   20.4500 H   0  0  0  0  0  0  0  0  0  0  0  0
  -26.1870  -15.6150   20.0120 H   0  0  0  0  0  0  0  0  0  0  0  0
  -29.9630  -25.1660   19.7830 C   0  0  0  0  0  2  0  0  0  0  0  0
  -28.4420  -25.4110   19.8810 C   0  0  0  0  0  2  0  0  0  0  0  0
  -28.3490  -26.8130   20.1450 O   0  0  0  0  0  0  0  0  0  0  0  0
  -24.5430  -31.9220   23.2550 C   0  0  0  0  0  0  0  0  0  0  0  0
  -27.1350  -27.4610   20.1650 C   0  0  0  0  0  0  0  0  0  0  0  0
  -23.3120  -30.5200   21.6290 C   0  0  0  0  0  3  0  0  0  0  0  0
  -24.7390  -28.9590   20.2080 C   0  0  0  0  0  0  0  0  0  0  0  0
  -25.8330  -30.8670   21.4010 C   0  0  0  0  0  2  0  0  0  0  0  0
  -25.9030  -29.4890   20.7740 C   0  0  0  0  0  0  0  0  0  0  0  0
  -27.1010  -28.7470   20.7490 C   0  0  0  0  0  3  0  0  0  0  0  0
  -25.9490  -26.9290   19.6100 C   0  0  0  0  0  3  0  0  0  0  0  0
  -24.7540  -27.6770   19.6310 C   0  0  0  0  0  3  0  0  0  0  0  0
  -23.5050  -29.8300   20.2510 C   0  0  0  0  0  2  0  0  0  0  0  0
  -24.5810  -31.1170   22.1550 N   0  0  0  0  0  0  0  0  0  0  0  0
  -23.4690  -32.2040   23.8040 O   0  0  0  0  0  0  0  0  0  0  0  0
  -22.6620  -29.5080   22.6000 C   0  0  0  0  0  0  0  0  0  0  0  0
  -21.3380  -29.3260   22.4740 N   0  0  0  0  0  0  0  0  0  0  0  0
  -23.3440  -28.8910   23.4210 O   0  0  0  0  0  0  0  0  0  0  0  0
  -20.8470  -29.8790   21.7860 H   0  0  0  0  0  0  0  0  0  0  0  0
  -17.9660  -28.1230   22.9600 C   0  0  0  0  0  0  0  0  0  0  0  0
  -20.5200  -28.3950   23.2510 C   0  0  0  0  0  3  0  0  0  0  0  0
  -20.6330  -26.9560   22.6960 C   0  0  0  0  0  2  0  0  0  0  0  0
  -19.5410  -26.6150   21.6770 C   0  0  0  0  0  2  0  0  0  0  0  0
  -18.1540  -26.7630   22.3080 C   0  0  0  0  0  2  0  0  0  0  0  0
  -19.0770  -28.8950   23.3890 C   0  0  0  0  0  0  0  0  0  0  0  0
  -18.8490  -30.1670   23.9570 C   0  0  0  0  0  3  0  0  0  0  0  0
  -17.5420  -30.6670   24.1030 C   0  0  0  0  0  3  0  0  0  0  0  0
  -16.4440  -29.8910   23.6910 C   0  0  0  0  0  3  0  0  0  0  0  0
  -16.6560  -28.6220   23.1250 C   0  0  0  0  0  3  0  0  0  0  0  0
  -25.8380  -32.5440   23.8610 C   0  0  0  0  0  3  0  0  0  0  0  0
  -26.3640  -31.7710   25.1340 C   0  0  1  0  0  0  0  0  0  0  0  0
  -25.2840  -31.5450   26.2160 C   0  0  0  0  0  1  0  0  0  0  0  0
  -26.9310  -30.3890   24.7340 C   0  0  0  0  0  1  0  0  0  0  0  0
  -27.5280  -32.5580   25.7810 C   0  0  0  0  0  1  0  0  0  0  0  0
  -25.5450  -33.9460   24.1870 N   0  0  0  0  0  0  0  0  0  0  0  0
  -25.8880  -34.9910   23.4230 C   0  0  0  0  0  0  0  0  0  0  0  0
  -26.5570  -34.8770   22.3910 O   0  0  0  0  0  0  0  0  0  0  0  0
  -24.9520  -34.1100   24.9870 H   0  0  0  0  0  0  0  0  0  0  0  0
  -24.1840  -36.8050   23.0520 C   0  0  0  0  0  1  0  0  0  0  0  0
  -25.4140  -36.3860   23.8740 C   0  0  0  0  0  3  0  0  0  0  0  0
  -27.5530  -37.2480   24.7170 C   0  0  0  0  0  1  0  0  0  0  0  0
  -26.4600  -37.4270   23.7660 N   0  0  0  0  0  0  0  0  0  0  0  0
  -26.0630  -38.3520   23.9100 H   0  0  0  0  0  0  0  0  0  0  0  0
  2  1  1  0
  3  5  2  0
  3  6  1  0
  4  7  1  0
  4  1  2  0
  5  4  1  0
  6  2  2  0
  8 10  1  0
  8  5  1  0
  9  7  1  0
 10 12  1  0
 11  9  1  0
 12 11  1  0
 12 13  1  1
 14  6  1  0
 14 23  1  0
 15 23  1  0
 16 21  1  0
 17 18  1  0
 17 16  1  0
 19 18  1  0
 19 28  1  0
 19 20  1  0
 21 15  1  0
 21 20  1  0
 22 15  2  0
 23 24  1  0
 25 26  2  0
 26 45  1  0
 27 26  1  0
 27 30  1  0
 28 25  1  0
 28 29  1  0
 29 27  2  0
 30 31  1  0
 31 32  2  0
 33 36  1  0
 33 32  1  0
 34 33  2  0
 35 34  1  0
 35 30  2  0
 36 37  1  0
 37 38  1  0
 38 39  2  0
 40 39  1  0
 40 44  1  0
 41 40  2  0
 42 37  2  0
 42 41  1  0
 43 42  1  0
 45 46  1  0
 46 49  1  0
 46 48  1  0
 47 45  2  0
 50 51  1  0
 50 25  1  0
 52 50  1  0
 53 54  1  0
 53 12  1  0
 54 55  1  0
 55 57  1  0
 56 67  2  0
 57 62  1  0
 58 66  1  0
 58 68  1  0
 59 65  1  0
 59 61  1  0
 60 66  1  0
 61 60  1  0
 62 61  2  0
 63 64  1  0
 63 57  2  0
 64 59  2  0
 65 58  1  0
 66 56  1  0
 68 70  2  0
 69 68  1  0
 71 69  1  0
 72 81  2  0
 72 77  1  0
 73 69  1  0
 73 77  1  0
 74 73  1  0
 75 76  1  0
 75 74  1  0
 76 72  1  0
 77 78  2  0
 78 79  1  0
 80 79  2  0
 81 80  1  0
 82 56  1  0
 82 87  1  0
 82 83  1  0
 83 86  1  1
 83 84  1  0
 85 83  1  0
 87 90  1  0
 88 92  1  0
 88 87  1  0
 89 88  2  0
 92 91  1  0
 94 92  1  0
 94 95  1  0
 94 93  1  0
M  ISO  4  15 100  23 100  54 101  55 101
M  END
>  <TORSDO>  (33) 
F 19

>  <SCORE>  (33) 
-14.028

>  <name>  (33) 
32

>  <ligand_id>  (33) 
32

>  <original_smiles>  (33) 
[H]c1c([H])c([H])c2c(c1[H])C([H])([H])C([H])([H])C([H])([H])C2([H])N([H])C(=O)C1([H])N(C(=O)C([H])(N([H])C(=O)C([H])(N([H])C([H])([H])[H])C([H])([H])[H])C(C([H])([H])[H])(C([H])([H])[H])C([H])([H])[H])C([H])([H])c2c([H])c(OC([H])([H])C([H])([H])[N+]3([H])C([H])([H])C([H])([H])c4c([H])c(C([H])([H])N([H])C(=O)N5C([H])([H])C([H])([H])C([H])([H])C([H])(n6nc(-c7c([H])c([H])c(Oc8c([H])c([H])c(F)c([H])c8F)c([H])c7[H])c(C(=O)N([H])[H])c6N([H])[H])C5([H])[H])c([H])c([H])c4C([H])([H])C([H])([H])C3([H])[H])c([H])c([H])c2C1([H])[H]

>  <smiles>  (33) 
[H]c1c([H])c([H])c2c(c1[H])C([H])([H])C([H])([H])C([H])([H])C2([H])N([H])C(=O)C1([H])N(C(=O)C([H])(N([H])C(=O)C([H])(N([H])C([H])([H])[H])C([H])([H])[H])C(C([H])([H])[H])(C([H])([H])[H])C([H])([H])[H])C([H])([H])c2c([H])c(OC([H])([H])C([H])([H])[N+]3([H])C([H])([H])C([H])([H])c4c([H])c(C([H])([H])N([H])C(=O)N5C([H])([H])C([H])([H])C([H])([H])C([H])(n6nc(-c7c([H])c([H])c(Oc8c([H])c([H])c(F)c([H])c8F)c([H])c7[H])c(C(=O)N([H])[H])c6N([H])[H])C5([H])[H])c([H])c([H])c4C([H])([H])C([H])([H])C3([H])[H])c([H])c([H])c2C1([H])[H]

$$$$
33:0:0
     RDKit          3D

 93101  0  0  1  0  0  0  0  0999 V2000
  -28.9140  -21.1140   19.8870 C   0  0  0  0  0  2  0  0  0  0  0  0
  -29.9000  -18.4430   19.7820 C   0  0  0  0  0  0  0  0  0  0  0  0
  -31.0600  -18.8590   22.5300 C   0  0  0  0  0  2  0  0  0  0  0  0
  -30.7350  -20.0730   21.6080 C   0  0  0  0  0  2  0  0  0  0  0  0
  -30.5810  -17.4720   22.0340 C   0  0  0  0  0  2  0  0  0  0  0  0
  -29.5650  -19.7940   20.6200 C   0  0  0  0  0  3  0  0  0  0  0  0
  -30.6920  -17.2520   20.5060 C   0  0  0  0  0  3  0  0  0  0  0  0
  -29.5820  -18.2890   18.5620 N   0  0  0  0  0  0  0  0  0  0  0  0
  -29.1030  -19.0780   18.1410 H   0  0  0  0  0  0  0  0  0  0  0  0
  -30.9950  -14.6760   19.9270 C   0  0  0  0  0  0  0  0  0  0  0  0
  -30.6700  -12.3890   18.9470 C   0  0  0  0  0  2  0  0  0  0  0  0
  -29.6880  -12.4800   17.7520 C   0  0  0  0  0  2  0  0  0  0  0  0
  -28.2290  -12.3680   18.2480 C   0  0  0  0  0  2  0  0  0  0  0  0
  -27.9360  -13.2840   19.4730 C   0  0  0  0  0  3  0  0  0  0  0  0
  -29.0420  -13.1640   20.5450 C   0  0  0  0  0  2  0  0  0  0  0  0
  -30.3210  -13.4750   19.8910 N   0  0  0  0  0  0  0  0  0  0  0  0
  -32.1660  -14.7510   19.5600 O   0  0  0  0  0  0  0  0  0  0  0  0
  -30.2670  -15.8120   20.2250 N   0  0  0  0  0  0  0  0  0  0  0  0
  -29.2890  -15.6430   20.3730 H   0  0  0  0  0  0  0  0  0  0  0  0
  -25.5820  -13.9370   20.2690 C   0  0  0  0  0  0  0  0  0  0  0  0
  -24.5070  -13.1960   20.6700 C   0  0  0  0  0  0  0  0  0  0  0  0
  -24.9310  -11.8330   20.6280 C   0  0  0  0  0  0  0  0  0  0  0  0
  -26.5980  -13.0350   20.0110 N   0  0  0  0  0  0  0  0  0  0  0  0
  -26.2130  -11.7600   20.2880 N   0  0  0  0  0  0  0  0  0  0  0  0
  -24.1740  -10.5930   20.8440 C   0  0  0  0  0  0  0  0  0  0  0  0
  -24.5780   -9.6360   21.8020 C   0  0  0  0  0  3  0  0  0  0  0  0
  -23.8200   -8.4620   22.0070 C   0  0  0  0  0  3  0  0  0  0  0  0
  -22.6440   -8.2340   21.2540 C   0  0  0  0  0  0  0  0  0  0  0  0
  -22.2570   -9.1800   20.2880 C   0  0  0  0  0  3  0  0  0  0  0  0
  -23.0150  -10.3460   20.0820 C   0  0  0  0  0  3  0  0  0  0  0  0
  -21.8600   -7.1090   21.3670 O   0  0  0  0  0  0  0  0  0  0  0  0
  -21.7520   -6.4220   22.5500 C   0  0  0  0  0  0  0  0  0  0  0  0
  -21.2890   -7.0370   23.7340 C   0  0  0  0  0  3  0  0  0  0  0  0
  -21.1370   -6.2750   24.9090 C   0  0  0  0  0  3  0  0  0  0  0  0
  -21.4340   -4.8980   24.9010 C   0  0  0  0  0  0  0  0  0  0  0  0
  -21.8840   -4.2830   23.7190 C   0  0  0  0  0  3  0  0  0  0  0  0
  -22.0460   -5.0420   22.5480 C   0  0  0  0  0  0  0  0  0  0  0  0
  -22.4650   -4.4370   21.4100 F   0  0  0  0  0  0  0  0  0  0  0  0
  -21.2770   -4.1690   26.0280 F   0  0  0  0  0  0  0  0  0  0  0  0
  -23.1320  -13.7160   20.9720 C   0  0  0  0  0  0  0  0  0  0  0  0
  -22.4080  -13.0600   21.8690 N   0  0  0  0  0  0  0  0  0  0  0  0
  -22.7090  -14.7440   20.4440 O   0  0  0  0  0  0  0  0  0  0  0  0
  -22.7640  -12.2360   22.3280 H   0  0  0  0  0  0  0  0  0  0  0  0
  -21.4820  -13.3940   22.0990 H   0  0  0  0  0  0  0  0  0  0  0  0
  -25.7690  -15.3030   20.0800 N   0  0  0  0  0  0  0  0  0  0  0  0
  -25.0100  -15.9570   20.2400 H   0  0  0  0  0  0  0  0  0  0  0  0
  -26.6000  -15.7430   19.7040 H   0  0  0  0  0  0  0  0  0  0  0  0
  -29.2620  -22.5580   20.3070 N   0  0  0  0  0  4  0  0  0  0  0  0
  -29.7210  -22.5080   21.2030 H   0  0  0  0  0  0  0  0  0  0  0  0
  -29.9790  -22.8550   19.6630 H   0  0  0  0  0  0  0  0  0  0  0  0
  -28.2160  -23.7070   20.3870 C   0  0  0  0  0  2  0  0  0  0  0  0
  -28.4900  -25.1020   19.6050 C   0  0  0  0  0  2  0  0  0  0  0  0
  -28.3450  -26.4540   20.2360 O   0  0  0  0  0  0  0  0  0  0  0  0
  -24.6100  -31.8670   23.2050 C   0  0  0  0  0  0  0  0  0  0  0  0
  -27.2140  -27.2820   20.1550 C   0  0  0  0  0  0  0  0  0  0  0  0
  -23.4020  -30.4670   21.5700 C   0  0  0  0  0  3  0  0  0  0  0  0
  -24.8450  -28.9070   20.1470 C   0  0  0  0  0  0  0  0  0  0  0  0
  -25.9420  -30.7820   21.3830 C   0  0  0  0  0  2  0  0  0  0  0  0
  -26.0180  -29.3980   20.7360 C   0  0  0  0  0  0  0  0  0  0  0  0
  -27.2000  -28.5990   20.7290 C   0  0  0  0  0  3  0  0  0  0  0  0
  -26.0150  -26.8460   19.5410 C   0  0  0  0  0  3  0  0  0  0  0  0
  -24.8510  -27.6370   19.5430 C   0  0  0  0  0  3  0  0  0  0  0  0
  -23.6100  -29.7880   20.1930 C   0  0  0  0  0  2  0  0  0  0  0  0
  -24.6710  -31.0540   22.1090 N   0  0  0  0  0  0  0  0  0  0  0  0
  -23.5290  -32.1450   23.7400 O   0  0  0  0  0  0  0  0  0  0  0  0
  -22.7330  -29.4560   22.5350 C   0  0  0  0  0  0  0  0  0  0  0  0
  -21.4100  -29.2680   22.4040 N   0  0  0  0  0  0  0  0  0  0  0  0
  -23.4040  -28.8380   23.3670 O   0  0  0  0  0  0  0  0  0  0  0  0
  -20.9160  -29.8250   21.7180 H   0  0  0  0  0  0  0  0  0  0  0  0
  -18.0410  -28.0350   22.8530 C   0  0  0  0  0  0  0  0  0  0  0  0
  -20.5890  -28.3290   23.1810 C   0  0  0  0  0  3  0  0  0  0  0  0
  -20.7170  -26.8850   22.6290 C   0  0  0  0  0  2  0  0  0  0  0  0
  -19.6530  -26.5560   21.5780 C   0  0  0  0  0  2  0  0  0  0  0  0
  -18.2490  -26.6930   22.1710 C   0  0  0  0  0  2  0  0  0  0  0  0
  -19.1440  -28.8100   23.3040 C   0  0  0  0  0  0  0  0  0  0  0  0
  -18.9020  -30.0770   23.8740 C   0  0  0  0  0  3  0  0  0  0  0  0
  -17.5930  -30.5710   24.0080 C   0  0  0  0  0  3  0  0  0  0  0  0
  -16.5000  -29.7930   23.5830 C   0  0  0  0  0  3  0  0  0  0  0  0
  -16.7280  -28.5320   23.0020 C   0  0  0  0  0  3  0  0  0  0  0  0
  -25.8950  -32.4940   23.8260 C   0  0  0  0  0  3  0  0  0  0  0  0
  -26.4190  -31.7130   25.0940 C   0  0  1  0  0  0  0  0  0  0  0  0
  -25.3310  -31.4620   26.1620 C   0  0  0  0  0  1  0  0  0  0  0  0
  -27.0110  -30.3420   24.6890 C   0  0  0  0  0  1  0  0  0  0  0  0
  -27.5690  -32.5090   25.7530 C   0  0  0  0  0  1  0  0  0  0  0  0
  -25.5880  -33.8900   24.1660 N   0  0  0  0  0  0  0  0  0  0  0  0
  -25.9190  -34.9480   23.4140 C   0  0  0  0  0  0  0  0  0  0  0  0
  -26.5880  -34.8520   22.3810 O   0  0  0  0  0  0  0  0  0  0  0  0
  -25.0020  -34.0410   24.9720 H   0  0  0  0  0  0  0  0  0  0  0  0
  -24.1950  -36.7420   23.0680 C   0  0  0  0  0  1  0  0  0  0  0  0
  -25.4360  -36.3330   23.8790 C   0  0  0  0  0  3  0  0  0  0  0  0
  -27.5620  -37.2110   24.7230 C   0  0  0  0  0  1  0  0  0  0  0  0
  -26.4670  -37.3850   23.7750 N   0  0  0  0  0  0  0  0  0  0  0  0
  -26.0610  -38.3050   23.9260 H   0  0  0  0  0  0  0  0  0  0  0  0
  1 48  1  0
  2  7  1  0
  2  6  1  0
  4  3  1  0
  5  3  1  0
  6  1  1  0
  6  4  1  0
  7 18  1  0
  7  5  1  0
  8  2  2  0
  9  8  1  0
 10 18  1  0
 11 16  1  0
 12 13  1  0
 12 11  1  0
 14 13  1  0
 14 23  1  0
 14 15  1  0
 16 10  1  0
 16 15  1  0
 17 10  2  0
 18 19  1  0
 20 21  2  0
 21 40  1  0
 22 21  1  0
 22 25  1  0
 23 20  1  0
 23 24  1  0
 24 22  2  0
 25 26  1  0
 26 27  2  0
 28 31  1  0
 28 27  1  0
 29 28  2  0
 30 29  1  0
 30 25  2  0
 31 32  1  0
 32 33  1  0
 33 34  2  0
 35 34  1  0
 35 39  1  0
 36 35  2  0
 37 32  2  0
 37 36  1  0
 38 37  1  0
 40 41  1  0
 41 44  1  0
 41 43  1  0
 42 40  2  0
 45 46  1  0
 45 20  1  0
 47 45  1  0
 48 51  1  0
 48 49  1  0
 50 48  1  0
 52 53  1  0
 52 51  1  0
 54 65  2  0
 55 53  1  0
 55 60  1  0
 56 64  1  0
 56 66  1  0
 57 63  1  0
 57 59  1  0
 58 64  1  0
 59 58  1  0
 60 59  2  0
 61 62  1  0
 61 55  2  0
 62 57  2  0
 63 56  1  0
 64 54  1  0
 66 68  2  0
 67 66  1  0
 69 67  1  0
 70 79  2  0
 70 75  1  0
 71 67  1  0
 71 75  1  0
 72 71  1  0
 73 74  1  0
 73 72  1  0
 74 70  1  0
 75 76  2  0
 76 77  1  0
 78 77  2  0
 79 78  1  0
 80 54  1  0
 80 85  1  0
 80 81  1  0
 81 84  1  1
 81 82  1  0
 83 81  1  0
 85 88  1  0
 86 90  1  0
 86 85  1  0
 87 86  2  0
 90 89  1  0
 92 90  1  0
 92 93  1  0
 92 91  1  0
M  ISO  4  10 100  18 100  52 101  53 101
M  END
>  <TORSDO>  (34) 
F 20

>  <SCORE>  (34) 
-13.593

>  <name>  (34) 
33

>  <ligand_id>  (34) 
33

>  <original_smiles>  (34) 
[H]N=C1C([H])(N([H])C(=O)N2C([H])([H])C([H])([H])C([H])([H])C([H])(n3nc(-c4c([H])c([H])c(Oc5c([H])c([H])c(F)c([H])c5F)c([H])c4[H])c(C(=O)N([H])[H])c3N([H])[H])C2([H])[H])C([H])([H])C([H])([H])C([H])([H])C1([H])C([H])([H])[N+]([H])([H])C([H])([H])C([H])([H])Oc1c([H])c([H])c2c(c1[H])C([H])([H])N(C(=O)C([H])(N([H])C(=O)C([H])(N([H])C([H])([H])[H])C([H])([H])[H])C(C([H])([H])[H])(C([H])([H])[H])C([H])([H])[H])C([H])(C(=O)N([H])C1([H])c3c([H])c([H])c([H])c([H])c3C([H])([H])C([H])([H])C1([H])[H])C2([H])[H]

>  <smiles>  (34) 
[H]N=C1C([H])(N([H])C(=O)N2C([H])([H])C([H])([H])C([H])([H])C([H])(n3nc(-c4c([H])c([H])c(Oc5c([H])c([H])c(F)c([H])c5F)c([H])c4[H])c(C(=O)N([H])[H])c3N([H])[H])C2([H])[H])C([H])([H])C([H])([H])C([H])([H])C1([H])C([H])([H])[N+]([H])([H])C([H])([H])C([H])([H])Oc1c([H])c([H])c2c(c1[H])C([H])([H])N(C(=O)C([H])(N([H])C(=O)C([H])(N([H])C([H])([H])[H])C([H])([H])[H])C(C([H])([H])[H])(C([H])([H])[H])C([H])([H])[H])C([H])(C(=O)N([H])C1([H])c3c([H])c([H])c([H])c([H])c3C([H])([H])C([H])([H])C1([H])[H])C2([H])[H]

$$$$
34:0:0
     RDKit          3D

 95102  0  0  1  0  0  0  0  0999 V2000
  -29.2990  -23.7580   19.9250 C   0  0  0  0  0  2  0  0  0  0  0  0
  -30.6920  -24.2650   19.9830 N   0  0  0  0  0  4  0  0  0  0  0  0
  -31.2090  -23.7690   19.2760 H   0  0  0  0  0  0  0  0  0  0  0  0
  -31.1200  -24.0510   20.8680 H   0  0  0  0  0  0  0  0  0  0  0  0
  -30.8800  -25.7030   19.6720 C   0  0  0  0  0  2  0  0  0  0  0  0
  -30.6280  -26.6590   20.8580 C   0  0  0  0  0  2  0  0  0  0  0  0
  -29.1540  -26.8950   21.2070 C   0  0  0  0  0  2  0  0  0  0  0  0
  -28.3670  -26.9270   20.0070 O   0  0  0  0  0  0  0  0  0  0  0  0
  -24.5870  -31.9570   23.2550 C   0  0  0  0  0  0  0  0  0  0  0  0
  -27.2030  -27.6490   20.0620 C   0  0  0  0  0  0  0  0  0  0  0  0
  -23.3440  -30.5850   21.6070 C   0  0  0  0  0  3  0  0  0  0  0  0
  -24.7750  -29.0890   20.1170 C   0  0  0  0  0  0  0  0  0  0  0  0
  -25.8490  -30.9840   21.3510 C   0  0  0  0  0  2  0  0  0  0  0  0
  -25.9290  -29.6290   20.6940 C   0  0  0  0  0  0  0  0  0  0  0  0
  -27.1400  -28.9250   20.6610 C   0  0  0  0  0  3  0  0  0  0  0  0
  -26.0400  -27.1130   19.4660 C   0  0  0  0  0  3  0  0  0  0  0  0
  -24.8230  -27.8260   19.4960 C   0  0  0  0  0  3  0  0  0  0  0  0
  -23.5230  -29.9300   20.2090 C   0  0  0  0  0  2  0  0  0  0  0  0
  -24.6130  -31.1880   22.1300 N   0  0  0  0  0  0  0  0  0  0  0  0
  -23.5200  -32.2130   23.8310 O   0  0  0  0  0  0  0  0  0  0  0  0
  -22.7250  -29.5400   22.5610 C   0  0  0  0  0  0  0  0  0  0  0  0
  -21.4020  -29.3370   22.4410 N   0  0  0  0  0  0  0  0  0  0  0  0
  -23.4260  -28.9150   23.3590 O   0  0  0  0  0  0  0  0  0  0  0  0
  -20.8970  -29.8970   21.7690 H   0  0  0  0  0  0  0  0  0  0  0  0
  -18.0550  -28.0770   22.9300 C   0  0  0  0  0  0  0  0  0  0  0  0
  -20.6070  -28.3770   23.2040 C   0  0  0  0  0  3  0  0  0  0  0  0
  -20.7380  -26.9540   22.6130 C   0  0  0  0  0  2  0  0  0  0  0  0
  -19.6390  -26.6210   21.5960 C   0  0  0  0  0  2  0  0  0  0  0  0
  -18.2570  -26.7350   22.2450 C   0  0  0  0  0  2  0  0  0  0  0  0
  -19.1600  -28.8540   23.3670 C   0  0  0  0  0  0  0  0  0  0  0  0
  -18.9190  -30.1100   23.9650 C   0  0  0  0  0  3  0  0  0  0  0  0
  -17.6070  -30.5890   24.1320 C   0  0  0  0  0  3  0  0  0  0  0  0
  -16.5160  -29.8070   23.7140 C   0  0  0  0  0  3  0  0  0  0  0  0
  -16.7410  -28.5530   23.1180 C   0  0  0  0  0  3  0  0  0  0  0  0
  -25.8900  -32.5730   23.8570 C   0  0  0  0  0  3  0  0  0  0  0  0
  -26.4160  -31.7980   25.1270 C   0  0  1  0  0  0  0  0  0  0  0  0
  -25.3320  -31.5690   26.2040 C   0  0  0  0  0  1  0  0  0  0  0  0
  -26.9840  -30.4160   24.7240 C   0  0  0  0  0  1  0  0  0  0  0  0
  -27.5810  -32.5810   25.7770 C   0  0  0  0  0  1  0  0  0  0  0  0
  -25.6010  -33.9750   24.1840 N   0  0  0  0  0  0  0  0  0  0  0  0
  -25.9490  -35.0210   23.4200 C   0  0  0  0  0  0  0  0  0  0  0  0
  -26.6210  -34.9070   22.3910 O   0  0  0  0  0  0  0  0  0  0  0  0
  -25.0090  -34.1400   24.9850 H   0  0  0  0  0  0  0  0  0  0  0  0
  -24.2510  -36.8380   23.0490 C   0  0  0  0  0  1  0  0  0  0  0  0
  -25.4770  -36.4160   23.8750 C   0  0  0  0  0  3  0  0  0  0  0  0
  -27.6160  -37.2650   24.7280 C   0  0  0  0  0  1  0  0  0  0  0  0
  -26.5240  -37.4560   23.7770 N   0  0  0  0  0  0  0  0  0  0  0  0
  -26.1270  -38.3780   23.9380 H   0  0  0  0  0  0  0  0  0  0  0  0
  -29.2230  -22.2200   20.0340 C   0  0  0  0  0  2  0  0  0  0  0  0
  -29.4790  -21.6720   21.4570 C   0  0  0  0  0  2  0  0  0  0  0  0
  -29.0830  -20.1880   21.6450 C   0  0  0  0  0  2  0  0  0  0  0  0
  -30.1500  -19.1900   21.1460 C   0  0  0  0  0  2  0  0  0  0  0  0
  -29.9880  -17.7320   21.6570 C   0  0  0  0  0  2  0  0  0  0  0  0
  -31.2490  -14.4010   20.1810 C   0  0  0  0  0  0  0  0  0  0  0  0
  -30.8550  -12.3080   18.9410 C   0  0  0  0  0  2  0  0  0  0  0  0
  -29.8960  -12.6130   17.7690 C   0  0  0  0  0  2  0  0  0  0  0  0
  -28.4240  -12.5080   18.2250 C   0  0  0  0  0  2  0  0  0  0  0  0
  -28.1520  -13.3150   19.5240 C   0  0  0  0  0  3  0  0  0  0  0  0
  -29.2160  -12.9810   20.5990 C   0  0  0  0  0  2  0  0  0  0  0  0
  -30.5450  -13.2490   20.0260 N   0  0  0  0  0  0  0  0  0  0  0  0
  -32.3270  -14.6320   19.6090 O   0  0  0  0  0  0  0  0  0  0  0  0
  -30.9030  -16.7680   20.9200 C   0  0  0  0  0  0  0  0  0  0  0  0
  -30.5820  -15.4440   20.9220 N   0  0  0  0  0  0  0  0  0  0  0  0
  -31.9710  -17.2740   20.2620 N   0  0  0  0  0  4  0  0  0  0  0  0
  -29.7450  -15.2220   21.4390 H   0  0  0  0  0  0  0  0  0  0  0  0
  -32.1560  -18.2650   20.2530 H   0  0  0  0  0  0  0  0  0  0  0  0
  -32.5660  -16.6550   19.7170 H   0  0  0  0  0  0  0  0  0  0  0  0
  -25.7990  -14.0140   20.3010 C   0  0  0  0  0  0  0  0  0  0  0  0
  -24.7140  -13.2770   20.6920 C   0  0  0  0  0  0  0  0  0  0  0  0
  -25.1220  -11.9100   20.6370 C   0  0  0  0  0  0  0  0  0  0  0  0
  -26.8030  -13.0950   20.0290 N   0  0  0  0  0  0  0  0  0  0  0  0
  -26.4000  -11.8260   20.2870 N   0  0  0  0  0  0  0  0  0  0  0  0
  -24.3600  -10.6720   20.8440 C   0  0  0  0  0  0  0  0  0  0  0  0
  -24.7180   -9.7400   21.8410 C   0  0  0  0  0  3  0  0  0  0  0  0
  -23.9580   -8.5650   22.0270 C   0  0  0  0  0  3  0  0  0  0  0  0
  -22.8260   -8.3150   21.2150 C   0  0  0  0  0  0  0  0  0  0  0  0
  -22.4860   -9.2370   20.2090 C   0  0  0  0  0  3  0  0  0  0  0  0
  -23.2470  -10.4020   20.0220 C   0  0  0  0  0  3  0  0  0  0  0  0
  -22.0460   -7.1890   21.3070 O   0  0  0  0  0  0  0  0  0  0  0  0
  -21.8390   -6.5530   22.5050 C   0  0  0  0  0  0  0  0  0  0  0  0
  -21.2580   -7.2150   23.6070 C   0  0  0  0  0  3  0  0  0  0  0  0
  -20.9980   -6.5050   24.7970 C   0  0  0  0  0  3  0  0  0  0  0  0
  -21.3080   -5.1330   24.8800 C   0  0  0  0  0  0  0  0  0  0  0  0
  -21.8820   -4.4720   23.7810 C   0  0  0  0  0  3  0  0  0  0  0  0
  -22.1420   -5.1800   22.5940 C   0  0  0  0  0  0  0  0  0  0  0  0
  -22.6770   -4.5340   21.5290 F   0  0  0  0  0  0  0  0  0  0  0  0
  -21.0510   -4.4480   26.0190 F   0  0  0  0  0  0  0  0  0  0  0  0
  -23.3430  -13.8040   21.0080 C   0  0  0  0  0  0  0  0  0  0  0  0
  -22.6230  -13.1470   21.9120 N   0  0  0  0  0  0  0  0  0  0  0  0
  -22.9190  -14.8340   20.4840 O   0  0  0  0  0  0  0  0  0  0  0  0
  -22.9760  -12.3150   22.3600 H   0  0  0  0  0  0  0  0  0  0  0  0
  -21.7040  -13.4850   22.1640 H   0  0  0  0  0  0  0  0  0  0  0  0
  -26.0160  -15.3800   20.1370 N   0  0  0  0  0  0  0  0  0  0  0  0
  -25.2730  -16.0590   20.2640 H   0  0  0  0  0  0  0  0  0  0  0  0
  -26.8710  -15.7860   19.7780 H   0  0  0  0  0  0  0  0  0  0  0  0
  1  2  1  0
  1 49  1  0
  2  4  1  0
  3  2  1  0
  5  2  1  0
  5  6  1  0
  6  7  1  0
  8 10  1  0
  8  7  1  0
  9 20  2  0
 10 15  1  0
 11 19  1  0
 11 21  1  0
 12 18  1  0
 12 14  1  0
 13 19  1  0
 14 13  1  0
 15 14  2  0
 16 17  1  0
 16 10  2  0
 17 12  2  0
 18 11  1  0
 19  9  1  0
 21 23  2  0
 22 21  1  0
 24 22  1  0
 25 34  2  0
 25 30  1  0
 26 22  1  0
 26 30  1  0
 27 26  1  0
 28 29  1  0
 28 27  1  0
 29 25  1  0
 30 31  2  0
 31 32  1  0
 33 32  2  0
 34 33  1  0
 35  9  1  0
 35 40  1  0
 35 36  1  0
 36 39  1  1
 36 37  1  0
 38 36  1  0
 40 43  1  0
 41 45  1  0
 41 40  1  0
 42 41  2  0
 45 44  1  0
 47 45  1  0
 47 48  1  0
 47 46  1  0
 49 50  1  0
 50 51  1  0
 52 51  1  0
 52 53  1  0
 54 63  1  0
 55 60  1  0
 56 57  1  0
 56 55  1  0
 58 57  1  0
 58 71  1  0
 58 59  1  0
 60 54  1  0
 60 59  1  0
 61 54  2  0
 62 63  1  0
 62 53  1  0
 63 65  1  0
 64 62  2  0
 66 64  1  0
 67 64  1  0
 68 69  2  0
 69 88  1  0
 70 69  1  0
 70 73  1  0
 71 72  1  0
 71 68  1  0
 72 70  2  0
 73 74  1  0
 74 75  2  0
 76 79  1  0
 76 75  1  0
 77 76  2  0
 78 77  1  0
 78 73  2  0
 79 80  1  0
 80 85  2  0
 80 81  1  0
 81 82  2  0
 82 83  1  0
 83 87  1  0
 84 83  2  0
 85 84  1  0
 86 85  1  0
 88 89  1  0
 89 92  1  0
 89 91  1  0
 90 88  2  0
 93 94  1  0
 93 68  1  0
 95 93  1  0
M  ISO  4   7 101   8 101  54 100  63 100
M  END
>  <TORSDO>  (35) 
F 25

>  <SCORE>  (35) 
-11.125

>  <name>  (35) 
34

>  <ligand_id>  (35) 
34

>  <original_smiles>  (35) 
[H]c1c([H])c([H])c2c(c1[H])C([H])([H])C([H])([H])C([H])([H])C2([H])N([H])C(=O)C1([H])N(C(=O)C([H])(N([H])C(=O)C([H])(N([H])C([H])([H])[H])C([H])([H])[H])C(C([H])([H])[H])(C([H])([H])[H])C([H])([H])[H])C([H])([H])c2c([H])c(OC([H])([H])C([H])([H])C([H])([H])[N+]([H])([H])C([H])([H])C([H])([H])C([H])([H])C([H])([H])C([H])([H])C([H])([H])C(N([H])C(=O)N3C([H])([H])C([H])([H])C([H])([H])C([H])(n4nc(-c5c([H])c([H])c(Oc6c([H])c([H])c(F)c([H])c6F)c([H])c5[H])c(C(=O)N([H])[H])c4N([H])[H])C3([H])[H])=[N+]([H])[H])c([H])c([H])c2C1([H])[H]

>  <smiles>  (35) 
[H]c1c([H])c([H])c2c(c1[H])C([H])([H])C([H])([H])C([H])([H])C2([H])N([H])C(=O)C1([H])N(C(=O)C([H])(N([H])C(=O)C([H])(N([H])C([H])([H])[H])C([H])([H])[H])C(C([H])([H])[H])(C([H])([H])[H])C([H])([H])[H])C([H])([H])c2c([H])c(OC([H])([H])C([H])([H])C([H])([H])[N+]([H])([H])C([H])([H])C([H])([H])C([H])([H])C([H])([H])C([H])([H])C([H])([H])C(N([H])C(=O)N3C([H])([H])C([H])([H])C([H])([H])C([H])(n4nc(-c5c([H])c([H])c(Oc6c([H])c([H])c(F)c([H])c6F)c([H])c5[H])c(C(=O)N([H])[H])c4N([H])[H])C3([H])[H])=[N+]([H])[H])c([H])c([H])c2C1([H])[H]

$$$$
35:0:0
     RDKit          3D

 92100  0  0  1  0  0  0  0  0999 V2000
  -28.7300  -20.4330   21.2280 C   0  0  0  0  0  2  0  0  0  0  0  0
  -30.1600  -20.8240   19.3730 C   0  0  0  0  0  2  0  0  0  0  0  0
  -28.0830  -21.9390   21.0000 C   0  0  0  0  0  2  0  0  0  0  0  0
  -29.5150  -22.3330   19.1710 C   0  0  0  0  0  2  0  0  0  0  0  0
  -29.3570  -19.5800   20.0190 C   0  0  0  0  0  3  0  0  0  0  0  0
  -28.8890  -23.2040   20.3780 C   0  0  2  0  0  0  0  0  0  0  0  0
  -30.2490  -18.0890   20.2450 C   0  0  0  0  0  2  0  0  0  0  0  0
  -30.5800  -15.2930   20.1820 C   0  0  0  0  0  0  0  0  0  0  0  0
  -30.4970  -12.8990   19.2790 C   0  0  0  0  0  2  0  0  0  0  0  0
  -29.5490  -12.7610   18.0650 C   0  0  0  0  0  2  0  0  0  0  0  0
  -28.1020  -12.5150   18.5270 C   0  0  0  0  0  2  0  0  0  0  0  0
  -27.6860  -13.4610   19.6830 C   0  0  0  0  0  3  0  0  0  0  0  0
  -28.7570  -13.5550   20.7900 C   0  0  0  0  0  2  0  0  0  0  0  0
  -29.9920  -14.0160   20.1420 N   0  0  0  0  0  0  0  0  0  0  0  0
  -31.7880  -15.3230   19.9230 O   0  0  0  0  0  0  0  0  0  0  0  0
  -29.8280  -16.5270   20.3030 N   0  0  0  0  0  0  0  0  0  0  0  0
  -28.8400  -16.3760   20.4580 H   0  0  0  0  0  0  0  0  0  0  0  0
  -25.3210  -14.0090   20.4770 C   0  0  0  0  0  0  0  0  0  0  0  0
  -24.2670  -13.2240   20.8550 C   0  0  0  0  0  0  0  0  0  0  0  0
  -24.7400  -11.8750   20.8020 C   0  0  0  0  0  0  0  0  0  0  0  0
  -26.3650  -13.1410   20.2090 N   0  0  0  0  0  0  0  0  0  0  0  0
  -26.0270  -11.8510   20.4730 N   0  0  0  0  0  0  0  0  0  0  0  0
  -24.0240  -10.6070   20.9890 C   0  0  0  0  0  0  0  0  0  0  0  0
  -24.4510   -9.6490   21.9340 C   0  0  0  0  0  3  0  0  0  0  0  0
  -23.7320   -8.4470   22.1110 C   0  0  0  0  0  3  0  0  0  0  0  0
  -22.5710   -8.1940   21.3410 C   0  0  0  0  0  0  0  0  0  0  0  0
  -22.1630   -9.1410   20.3850 C   0  0  0  0  0  3  0  0  0  0  0  0
  -22.8830  -10.3350   20.2070 C   0  0  0  0  0  3  0  0  0  0  0  0
  -21.8250   -7.0430   21.4250 O   0  0  0  0  0  0  0  0  0  0  0  0
  -21.7300   -6.3300   22.5940 C   0  0  0  0  0  0  0  0  0  0  0  0
  -21.1600   -6.8870   23.7590 C   0  0  0  0  0  3  0  0  0  0  0  0
  -21.0180   -6.0990   24.9180 C   0  0  0  0  0  3  0  0  0  0  0  0
  -21.4340   -4.7530   24.9110 C   0  0  0  0  0  0  0  0  0  0  0  0
  -21.9970   -4.1960   23.7480 C   0  0  0  0  0  3  0  0  0  0  0  0
  -22.1390   -4.9830   22.5910 C   0  0  0  0  0  0  0  0  0  0  0  0
  -22.6620   -4.4350   21.4670 F   0  0  0  0  0  0  0  0  0  0  0  0
  -21.2910   -3.9920   26.0210 F   0  0  0  0  0  0  0  0  0  0  0  0
  -22.8720  -13.6890   21.1480 C   0  0  0  0  0  0  0  0  0  0  0  0
  -22.1600  -12.9800   22.0140 N   0  0  0  0  0  0  0  0  0  0  0  0
  -22.4240  -14.7190   20.6440 O   0  0  0  0  0  0  0  0  0  0  0  0
  -22.5370  -12.1450   22.4400 H   0  0  0  0  0  0  0  0  0  0  0  0
  -21.2260  -13.2750   22.2580 H   0  0  0  0  0  0  0  0  0  0  0  0
  -25.4730  -15.3820   20.3080 N   0  0  0  0  0  0  0  0  0  0  0  0
  -24.6970  -16.0250   20.4210 H   0  0  0  0  0  0  0  0  0  0  0  0
  -26.3030  -15.8260   19.9360 H   0  0  0  0  0  0  0  0  0  0  0  0
  -29.9610  -23.7470   21.3680 C   0  0  0  0  0  2  0  0  0  0  0  0
  -30.9730  -22.7760   21.8200 N   0  0  0  0  0  4  0  0  0  0  0  0
  -30.5390  -21.9650   22.2190 H   0  0  0  0  0  0  0  0  0  0  0  0
  -31.5500  -23.2020   22.5260 H   0  0  0  0  0  0  0  0  0  0  0  0
  -31.5700  -22.5040   21.0610 H   0  0  0  0  0  0  0  0  0  0  0  0
  -27.9670  -24.6450   20.0180 C   0  0  0  0  0  2  0  0  0  0  0  0
  -28.2370  -26.2090   20.1960 O   0  0  0  0  0  0  0  0  0  0  0  0
  -24.6280  -31.9580   23.2490 C   0  0  0  0  0  0  0  0  0  0  0  0
  -27.1920  -27.2320   20.1460 C   0  0  0  0  0  0  0  0  0  0  0  0
  -23.4160  -30.5680   21.6150 C   0  0  0  0  0  3  0  0  0  0  0  0
  -24.8570  -29.0100   20.1530 C   0  0  0  0  0  0  0  0  0  0  0  0
  -25.9710  -30.8390   21.4190 C   0  0  0  0  0  2  0  0  0  0  0  0
  -26.0460  -29.4470   20.7520 C   0  0  0  0  0  0  0  0  0  0  0  0
  -27.2110  -28.5770   20.7280 C   0  0  0  0  0  3  0  0  0  0  0  0
  -25.9750  -26.9190   19.5030 C   0  0  0  0  0  3  0  0  0  0  0  0
  -24.8400  -27.7620   19.5100 C   0  0  0  0  0  3  0  0  0  0  0  0
  -23.6260  -29.9050   20.2280 C   0  0  0  0  0  2  0  0  0  0  0  0
  -24.6920  -31.1470   22.1480 N   0  0  0  0  0  0  0  0  0  0  0  0
  -23.5480  -32.2300   23.7970 O   0  0  0  0  0  0  0  0  0  0  0  0
  -22.7550  -29.5510   22.5790 C   0  0  0  0  0  0  0  0  0  0  0  0
  -21.4320  -29.3420   22.4450 N   0  0  0  0  0  0  0  0  0  0  0  0
  -23.4350  -28.9500   23.4150 O   0  0  0  0  0  0  0  0  0  0  0  0
  -20.9360  -29.8790   21.7490 H   0  0  0  0  0  0  0  0  0  0  0  0
  -18.0810  -28.0590   22.9520 C   0  0  0  0  0  0  0  0  0  0  0  0
  -20.6340  -28.3860   23.2190 C   0  0  0  0  0  3  0  0  0  0  0  0
  -20.7690  -26.9560   22.6470 C   0  0  0  0  0  2  0  0  0  0  0  0
  -19.6760  -26.6070   21.6310 C   0  0  0  0  0  2  0  0  0  0  0  0
  -18.2910  -26.7170   22.2760 C   0  0  0  0  0  2  0  0  0  0  0  0
  -19.1800  -28.8510   23.3820 C   0  0  0  0  0  0  0  0  0  0  0  0
  -18.9300  -30.1050   23.9770 C   0  0  0  0  0  3  0  0  0  0  0  0
  -17.6130  -30.5710   24.1500 C   0  0  0  0  0  3  0  0  0  0  0  0
  -16.5270  -29.7790   23.7360 C   0  0  0  0  0  3  0  0  0  0  0  0
  -16.7630  -28.5250   23.1430 C   0  0  0  0  0  3  0  0  0  0  0  0
  -25.9070  -32.6040   23.8630 C   0  0  0  0  0  3  0  0  0  0  0  0
  -26.4260  -31.8460   25.1470 C   0  0  1  0  0  0  0  0  0  0  0  0
  -25.3280  -31.5980   26.2090 C   0  0  0  0  0  1  0  0  0  0  0  0
  -27.0320  -30.4750   24.7700 C   0  0  0  0  0  1  0  0  0  0  0  0
  -27.5590  -32.6590   25.8140 C   0  0  0  0  0  1  0  0  0  0  0  0
  -25.5930  -34.0040   24.1910 N   0  0  0  0  0  0  0  0  0  0  0  0
  -25.9100  -35.0580   23.4280 C   0  0  0  0  0  0  0  0  0  0  0  0
  -26.5630  -34.9540   22.3860 O   0  0  0  0  0  0  0  0  0  0  0  0
  -25.0120  -34.1580   25.0020 H   0  0  0  0  0  0  0  0  0  0  0  0
  -24.1780  -36.8560   23.0950 C   0  0  0  0  0  1  0  0  0  0  0  0
  -25.4300  -36.4480   23.8920 C   0  0  0  0  0  3  0  0  0  0  0  0
  -27.5600  -37.3460   24.7170 C   0  0  0  0  0  1  0  0  0  0  0  0
  -26.4610  -37.5010   23.7680 N   0  0  0  0  0  0  0  0  0  0  0  0
  -26.0530  -38.4220   23.9080 H   0  0  0  0  0  0  0  0  0  0  0  0
  2  5  1  0
  3  1  1  0
  4  2  1  0
  4  6  1  0
  5  7  1  0
  5  1  1  0
  6 51  1  6
  6  3  1  0
  6 46  1  0
  7 16  1  0
  8 16  1  0
  9 14  1  0
 10 11  1  0
 10  9  1  0
 12 11  1  0
 12 21  1  0
 12 13  1  0
 14  8  1  0
 14 13  1  0
 15  8  2  0
 16 17  1  0
 18 19  2  0
 19 38  1  0
 20 19  1  0
 20 23  1  0
 21 22  1  0
 21 18  1  0
 22 20  2  0
 23 24  1  0
 24 25  2  0
 26 29  1  0
 26 25  1  0
 27 26  2  0
 28 27  1  0
 28 23  2  0
 29 30  1  0
 30 31  1  0
 31 32  2  0
 33 32  1  0
 33 37  1  0
 34 33  2  0
 35 30  2  0
 35 34  1  0
 36 35  1  0
 38 39  1  0
 39 42  1  0
 39 41  1  0
 40 38  2  0
 43 44  1  0
 43 18  1  0
 45 43  1  0
 46 47  1  0
 47 48  1  0
 47 49  1  0
 50 47  1  0
 51 52  1  0
 53 64  2  0
 54 52  1  0
 54 59  1  0
 55 63  1  0
 55 65  1  0
 56 62  1  0
 56 58  1  0
 57 63  1  0
 58 57  1  0
 59 58  2  0
 60 61  1  0
 60 54  2  0
 61 56  2  0
 62 55  1  0
 63 53  1  0
 65 67  2  0
 66 65  1  0
 68 66  1  0
 69 78  2  0
 69 74  1  0
 70 66  1  0
 70 74  1  0
 71 70  1  0
 72 73  1  0
 72 71  1  0
 73 69  1  0
 74 75  2  0
 75 76  1  0
 77 76  2  0
 78 77  1  0
 79 53  1  0
 79 84  1  0
 79 80  1  0
 80 83  1  1
 80 81  1  0
 82 80  1  0
 84 87  1  0
 85 89  1  0
 85 84  1  0
 86 85  2  0
 89 88  1  0
 91 89  1  0
 91 92  1  0
 91 90  1  0
M  ISO  4   8 100  16 100  51 101  52 101
M  END
>  <TORSDO>  (36) 
F 20

>  <SCORE>  (36) 
-15.245

>  <name>  (36) 
35

>  <ligand_id>  (36) 
35

>  <original_smiles>  (36) 
[H]c1c([H])c([H])c2c(c1[H])C([H])([H])C([H])([H])C([H])([H])C2([H])N([H])C(=O)C1([H])N(C(=O)C([H])(N([H])C(=O)C([H])(N([H])C([H])([H])[H])C([H])([H])[H])C(C([H])([H])[H])(C([H])([H])[H])C([H])([H])[H])C([H])([H])c2c([H])c(OC([H])([H])C3(C([H])([H])[N+]([H])([H])[H])C([H])([H])C([H])([H])C([H])(C([H])([H])N([H])C(=O)N4C([H])([H])C([H])([H])C([H])([H])C([H])(n5nc(-c6c([H])c([H])c(Oc7c([H])c([H])c(F)c([H])c7F)c([H])c6[H])c(C(=O)N([H])[H])c5N([H])[H])C4([H])[H])C([H])([H])C3([H])[H])c([H])c([H])c2C1([H])[H]

>  <smiles>  (36) 
[H]c1c([H])c([H])c2c(c1[H])C([H])([H])C([H])([H])C([H])([H])C2([H])N([H])C(=O)C1([H])N(C(=O)C([H])(N([H])C(=O)C([H])(N([H])C([H])([H])[H])C([H])([H])[H])C(C([H])([H])[H])(C([H])([H])[H])C([H])([H])[H])C([H])([H])c2c([H])c(OC([H])([H])C3(C([H])([H])[N+]([H])([H])[H])C([H])([H])C([H])([H])C([H])(C([H])([H])N([H])C(=O)N4C([H])([H])C([H])([H])C([H])([H])C([H])(n5nc(-c6c([H])c([H])c(Oc7c([H])c([H])c(F)c([H])c7F)c([H])c6[H])c(C(=O)N([H])[H])c5N([H])[H])C4([H])[H])C([H])([H])C3([H])[H])c([H])c([H])c2C1([H])[H]

$$$$
36:0:0
     RDKit          3D

105114  0  0  1  0  0  0  0  0999 V2000
  -31.2510  -19.1700   19.9050 C   0  0  0  0  0  3  0  0  0  0  0  0
  -31.4750  -17.8080   20.1590 C   0  0  0  0  0  3  0  0  0  0  0  0
  -28.9440  -18.6670   19.3390 C   0  0  0  0  0  3  0  0  0  0  0  0
  -29.9880  -19.6020   19.4600 C   0  0  0  0  0  0  0  0  0  0  0  0
  -29.1680  -17.2810   19.5170 C   0  0  0  0  0  0  0  0  0  0  0  0
  -30.4670  -16.8400   19.9260 C   0  0  0  0  0  0  0  0  0  0  0  0
  -31.0040  -14.7140   20.9920 C   0  0  0  0  0  0  0  0  0  0  0  0
  -30.6970  -12.4760   20.1090 C   0  0  0  0  0  2  0  0  0  0  0  0
  -29.9050  -12.6270   18.7940 C   0  0  0  0  0  2  0  0  0  0  0  0
  -28.3890  -12.6090   19.0750 C   0  0  0  0  0  2  0  0  0  0  0  0
  -27.9340  -13.4590   20.3000 C   0  0  0  0  0  3  0  0  0  0  0  0
  -28.9110  -13.3550   21.4940 C   0  0  0  0  0  2  0  0  0  0  0  0
  -30.2680  -13.5710   20.9710 N   0  0  0  0  0  0  0  0  0  0  0  0
  -32.1030  -14.7670   21.5300 O   0  0  0  0  0  0  0  0  0  0  0  0
  -30.8830  -15.4710   19.8510 N   0  0  0  0  0  0  0  0  0  0  0  0
  -25.4580  -14.0140   20.7350 C   0  0  0  0  0  0  0  0  0  0  0  0
  -24.3730  -13.2180   20.9850 C   0  0  0  0  0  0  0  0  0  0  0  0
  -24.8710  -11.8810   21.0520 C   0  0  0  0  0  0  0  0  0  0  0  0
  -26.5480  -13.1590   20.6580 N   0  0  0  0  0  0  0  0  0  0  0  0
  -26.1910  -11.8750   20.9150 N   0  0  0  0  0  0  0  0  0  0  0  0
  -24.1600  -10.6010   21.1860 C   0  0  0  0  0  0  0  0  0  0  0  0
  -24.5060   -9.6640   22.1830 C   0  0  0  0  0  3  0  0  0  0  0  0
  -23.7940   -8.4500   22.3030 C   0  0  0  0  0  3  0  0  0  0  0  0
  -22.7220   -8.1650   21.4240 C   0  0  0  0  0  0  0  0  0  0  0  0
  -22.4010   -9.0890   20.4150 C   0  0  0  0  0  3  0  0  0  0  0  0
  -23.1120  -10.2950   20.2950 C   0  0  0  0  0  3  0  0  0  0  0  0
  -21.9940   -7.0010   21.4490 O   0  0  0  0  0  0  0  0  0  0  0  0
  -21.8410   -6.2730   22.6020 C   0  0  0  0  0  0  0  0  0  0  0  0
  -21.2640   -6.8310   23.7640 C   0  0  0  0  0  3  0  0  0  0  0  0
  -21.0620   -6.0280   24.9040 C   0  0  0  0  0  3  0  0  0  0  0  0
  -21.4250   -4.6690   24.8830 C   0  0  0  0  0  0  0  0  0  0  0  0
  -21.9950   -4.1100   23.7250 C   0  0  0  0  0  3  0  0  0  0  0  0
  -22.1980   -4.9100   22.5860 C   0  0  0  0  0  0  0  0  0  0  0  0
  -22.7290   -4.3620   21.4670 F   0  0  0  0  0  0  0  0  0  0  0  0
  -21.2240   -3.8940   25.9760 F   0  0  0  0  0  0  0  0  0  0  0  0
  -22.9400  -13.6570   21.0700 C   0  0  0  0  0  0  0  0  0  0  0  0
  -22.1320  -12.9610   21.8620 N   0  0  0  0  0  0  0  0  0  0  0  0
  -22.5400  -14.6540   20.4710 O   0  0  0  0  0  0  0  0  0  0  0  0
  -22.4640  -12.1510   22.3650 H   0  0  0  0  0  0  0  0  0  0  0  0
  -21.1670  -13.2410   21.9680 H   0  0  0  0  0  0  0  0  0  0  0  0
  -25.6080  -15.3850   20.5480 N   0  0  0  0  0  0  0  0  0  0  0  0
  -24.8170  -16.0180   20.6010 H   0  0  0  0  0  0  0  0  0  0  0  0
  -26.4970  -15.8670   20.5370 H   0  0  0  0  0  0  0  0  0  0  0  0
  -32.0580  -15.3160   18.9350 C   0  0  0  0  0  2  0  0  0  0  0  0
  -31.9450  -15.9780   17.5410 C   0  0  0  0  0  2  0  0  0  0  0  0
  -33.1630  -15.7740   16.7350 N   0  0  0  0  0  4  0  0  0  0  0  0
  -33.9760  -16.1220   17.2130 H   0  0  0  0  0  0  0  0  0  0  0  0
  -33.0880  -16.2670   15.8610 H   0  0  0  0  0  0  0  0  0  0  0  0
  -33.3040  -14.8000   16.5270 H   0  0  0  0  0  0  0  0  0  0  0  0
  -29.7800  -21.0250   18.9590 C   0  0  0  0  0  2  0  0  0  0  0  0
  -29.0490  -22.8770   20.5700 C   0  0  0  0  0  2  0  0  0  0  0  0
  -31.0940  -23.1820   19.1260 C   0  0  0  0  0  2  0  0  0  0  0  0
  -29.4980  -24.0950   21.4000 C   0  0  0  0  0  2  0  0  0  0  0  0
  -31.5010  -24.3700   20.0070 C   0  0  0  0  0  2  0  0  0  0  0  0
  -30.2380  -22.1620   19.9030 C   0  0  0  0  0  3  0  0  0  0  0  0
  -30.3050  -25.0360   20.5770 N   0  0  2  0  0  4  0  0  0  0  0  0
  -29.7220  -25.3110   19.7970 H   0  0  0  0  0  0  0  0  0  0  0  0
  -30.6440  -26.3110   21.2580 C   0  0  0  0  0  2  0  0  0  0  0  0
  -29.4230  -27.2180   21.4400 C   0  0  0  0  0  2  0  0  0  0  0  0
  -28.6430  -27.1650   20.2390 O   0  0  0  0  0  0  0  0  0  0  0  0
  -24.6830  -32.1430   23.4030 C   0  0  0  0  0  0  0  0  0  0  0  0
  -27.4610  -27.8630   20.2800 C   0  0  0  0  0  0  0  0  0  0  0  0
  -23.5030  -30.7120   21.7590 C   0  0  0  0  0  3  0  0  0  0  0  0
  -24.9960  -29.2390   20.3060 C   0  0  0  0  0  0  0  0  0  0  0  0
  -26.0000  -31.1800   21.5260 C   0  0  0  0  0  2  0  0  0  0  0  0
  -26.1310  -29.8160   20.8870 C   0  0  0  0  0  0  0  0  0  0  0  0
  -27.3620  -29.1400   20.8730 C   0  0  0  0  0  3  0  0  0  0  0  0
  -26.3160  -27.2920   19.6840 C   0  0  0  0  0  3  0  0  0  0  0  0
  -25.0810  -27.9710   19.7000 C   0  0  0  0  0  3  0  0  0  0  0  0
  -23.7200  -30.0460   20.3710 C   0  0  0  0  0  2  0  0  0  0  0  0
  -24.7470  -31.3570   22.2910 N   0  0  0  0  0  0  0  0  0  0  0  0
  -23.6020  -32.3750   23.9610 O   0  0  0  0  0  0  0  0  0  0  0  0
  -22.9000  -29.6650   22.7200 C   0  0  0  0  0  0  0  0  0  0  0  0
  -21.6020  -29.3770   22.5440 N   0  0  0  0  0  0  0  0  0  0  0  0
  -23.5990  -29.1130   23.5750 O   0  0  0  0  0  0  0  0  0  0  0  0
  -21.1010  -29.8770   21.8230 H   0  0  0  0  0  0  0  0  0  0  0  0
  -18.3330  -27.8770   22.8710 C   0  0  0  0  0  0  0  0  0  0  0  0
  -20.8280  -28.3960   23.3020 C   0  0  0  0  0  3  0  0  0  0  0  0
  -21.1100  -26.9620   22.8000 C   0  0  0  0  0  2  0  0  0  0  0  0
  -20.1190  -26.4910   21.7320 C   0  0  0  0  0  2  0  0  0  0  0  0
  -18.6860  -26.5240   22.2740 C   0  0  0  0  0  2  0  0  0  0  0  0
  -19.3400  -28.7610   23.3400 C   0  0  0  0  0  0  0  0  0  0  0  0
  -18.9630  -30.0200   23.8550 C   0  0  0  0  0  3  0  0  0  0  0  0
  -17.6090  -30.4000   23.9070 C   0  0  0  0  0  3  0  0  0  0  0  0
  -16.6140  -29.5140   23.4600 C   0  0  0  0  0  3  0  0  0  0  0  0
  -16.9750  -28.2540   22.9480 C   0  0  0  0  0  3  0  0  0  0  0  0
  -25.9600  -32.8060   24.0130 C   0  0  0  0  0  3  0  0  0  0  0  0
  -26.4800  -32.0770   25.3110 C   0  0  1  0  0  0  0  0  0  0  0  0
  -25.3790  -31.8370   26.3710 C   0  0  0  0  0  1  0  0  0  0  0  0
  -27.1010  -30.7050   24.9540 C   0  0  0  0  0  1  0  0  0  0  0  0
  -27.6000  -32.9160   25.9710 C   0  0  0  0  0  1  0  0  0  0  0  0
  -25.6320  -34.2090   24.2960 N   0  0  0  0  0  0  0  0  0  0  0  0
  -25.9630  -35.2400   23.5050 C   0  0  0  0  0  0  0  0  0  0  0  0
  -26.6470  -35.1120   22.4880 O   0  0  0  0  0  0  0  0  0  0  0  0
  -25.0200  -34.3810   25.0780 H   0  0  0  0  0  0  0  0  0  0  0  0
  -24.2140  -36.9960   23.0800 C   0  0  0  0  0  1  0  0  0  0  0  0
  -25.4540  -36.6350   23.9130 C   0  0  0  0  0  3  0  0  0  0  0  0
  -27.5720  -37.5750   24.7250 C   0  0  0  0  0  1  0  0  0  0  0  0
  -26.4740  -37.6960   23.7700 N   0  0  0  0  0  0  0  0  0  0  0  0
  -26.0540  -38.6150   23.8890 H   0  0  0  0  0  0  0  0  0  0  0  0
  -28.0130  -16.3230   19.1990 C   0  0  0  0  0  2  0  0  0  0  0  0
  -27.1020  -16.8070   18.1430 N   0  0  0  0  0  4  0  0  0  0  0  0
  -26.6140  -17.6310   18.4430 H   0  0  0  0  0  0  0  0  0  0  0  0
  -26.4100  -16.1060   17.9460 H   0  0  0  0  0  0  0  0  0  0  0  0
  -27.5900  -17.0180   17.2930 H   0  0  0  0  0  0  0  0  0  0  0  0
  1  2  1  0
  3  4  1  0
  3  5  2  0
  4  1  2  0
  5  6  1  0
  6  2  2  0
  7 14  2  0
  8 13  1  0
  9 10  1  0
  9  8  1  0
 11 10  1  0
 11 19  1  0
 11 12  1  0
 13  7  1  0
 13 12  1  0
 15  6  1  0
 15  7  1  0
 16 17  2  0
 17 18  1  0
 17 36  1  0
 18 21  1  0
 19 16  1  0
 19 20  1  0
 20 18  2  0
 21 22  1  0
 22 23  2  0
 24 27  1  0
 24 23  1  0
 25 24  2  0
 26 25  1  0
 26 21  2  0
 27 28  1  0
 28 29  1  0
 29 30  2  0
 31 30  1  0
 31 35  1  0
 32 31  2  0
 33 28  2  0
 33 32  1  0
 34 33  1  0
 36 37  1  0
 37 40  1  0
 37 39  1  0
 38 36  2  0
 41 42  1  0
 41 16  1  0
 43 41  1  0
 44 15  1  0
 45 44  1  0
 46 47  1  0
 46 45  1  0
 48 46  1  0
 49 46  1  0
 50  4  1  0
 51 53  1  0
 52 55  1  0
 52 54  1  0
 54 56  1  0
 55 50  1  0
 55 51  1  0
 56 58  1  0
 56 53  1  0
 56 57  1  6
 58 59  1  0
 60 62  1  0
 60 59  1  0
 61 72  2  0
 62 67  1  0
 63 71  1  0
 63 73  1  0
 64 70  1  0
 64 66  1  0
 65 71  1  0
 66 65  1  0
 67 66  2  0
 68 69  1  0
 68 62  2  0
 69 64  2  0
 70 63  1  0
 71 61  1  0
 73 75  2  0
 74 73  1  0
 76 74  1  0
 77 86  2  0
 77 82  1  0
 78 74  1  0
 78 82  1  0
 79 78  1  0
 80 81  1  0
 80 79  1  0
 81 77  1  0
 82 83  2  0
 83 84  1  0
 85 84  2  0
 86 85  1  0
 87 61  1  0
 87 92  1  0
 87 88  1  0
 88 91  1  1
 88 89  1  0
 90 88  1  0
 92 95  1  0
 93 97  1  0
 93 92  1  0
 94 93  2  0
 97 96  1  0
 99100  1  0
 99 97  1  0
 99 98  1  0
101  5  1  0
102103  1  0
102101  1  0
104102  1  0
105102  1  0
M  ISO  4   7 100  15 100  59 101  60 101
M  END
>  <TORSDO>  (37) 
F 25

>  <SCORE>  (37) 
-11.301

>  <name>  (37) 
36

>  <ligand_id>  (37) 
36

>  <original_smiles>  (37) 
[H]c1c([H])c([H])c2c(c1[H])C([H])([H])C([H])([H])C([H])([H])C2([H])N([H])C(=O)C1([H])N(C(=O)C([H])(N([H])C(=O)C([H])(N([H])C([H])([H])[H])C([H])([H])[H])C(C([H])([H])[H])(C([H])([H])[H])C([H])([H])[H])C([H])([H])c2c([H])c(OC([H])([H])C([H])([H])[N+]3([H])C([H])([H])C([H])([H])C([H])(C([H])([H])c4c([H])c([H])c(N(C(=O)N5C([H])([H])C([H])([H])C([H])([H])C([H])(n6nc(-c7c([H])c([H])c(Oc8c([H])c([H])c(F)c([H])c8F)c([H])c7[H])c(C(=O)N([H])[H])c6N([H])[H])C5([H])[H])C([H])([H])C([H])([H])[N+]([H])([H])[H])c(C([H])([H])[N+]([H])([H])[H])c4[H])C([H])([H])C3([H])[H])c([H])c([H])c2C1([H])[H]

>  <smiles>  (37) 
[H]c1c([H])c([H])c2c(c1[H])C([H])([H])C([H])([H])C([H])([H])C2([H])N([H])C(=O)C1([H])N(C(=O)C([H])(N([H])C(=O)C([H])(N([H])C([H])([H])[H])C([H])([H])[H])C(C([H])([H])[H])(C([H])([H])[H])C([H])([H])[H])C([H])([H])c2c([H])c(OC([H])([H])C([H])([H])[N+]3([H])C([H])([H])C([H])([H])C([H])(C([H])([H])c4c([H])c([H])c(N(C(=O)N5C([H])([H])C([H])([H])C([H])([H])C([H])(n6nc(-c7c([H])c([H])c(Oc8c([H])c([H])c(F)c([H])c8F)c([H])c7[H])c(C(=O)N([H])[H])c6N([H])[H])C5([H])[H])C([H])([H])C([H])([H])[N+]([H])([H])[H])c(C([H])([H])[N+]([H])([H])[H])c4[H])C([H])([H])C3([H])[H])c([H])c([H])c2C1([H])[H]

$$$$
37:0:0
     RDKit          3D

 92101  0  0  1  0  0  0  0  0999 V2000
  -28.9970  -22.1570   20.1700 C   0  0  0  0  0  0  0  0  0  0  0  0
  -30.0380  -22.3620   20.8000 O   0  0  0  0  0  0  0  0  0  0  0  0
  -29.7520  -23.9420   17.6230 C   0  0  0  0  0  2  0  0  0  0  0  0
  -28.4670  -23.1520   17.9640 C   0  0  0  0  0  2  0  0  0  0  0  0
  -29.8510  -25.0950   18.6420 C   0  0  0  0  0  2  0  0  0  0  0  0
  -28.1950  -23.4080   19.4720 C   0  0  0  0  0  3  0  0  0  0  0  0
  -28.5190  -25.0520   19.3850 C   0  0  0  0  0  3  0  0  0  0  0  0
  -28.3380  -26.2950   20.2600 O   0  0  0  0  0  0  0  0  0  0  0  0
  -24.6490  -31.8710   23.2380 C   0  0  0  0  0  0  0  0  0  0  0  0
  -27.2470  -27.2220   20.1690 C   0  0  0  0  0  0  0  0  0  0  0  0
  -23.4480  -30.4710   21.6020 C   0  0  0  0  0  3  0  0  0  0  0  0
  -24.8960  -28.9170   20.1670 C   0  0  0  0  0  0  0  0  0  0  0  0
  -25.9970  -30.7640   21.4220 C   0  0  0  0  0  2  0  0  0  0  0  0
  -26.0740  -29.3790   20.7660 C   0  0  0  0  0  0  0  0  0  0  0  0
  -27.2470  -28.5450   20.7570 C   0  0  0  0  0  3  0  0  0  0  0  0
  -26.0300  -26.8390   19.5590 C   0  0  0  0  0  3  0  0  0  0  0  0
  -24.8830  -27.6580   19.5530 C   0  0  0  0  0  3  0  0  0  0  0  0
  -23.6630  -29.8020   20.2200 C   0  0  0  0  0  2  0  0  0  0  0  0
  -24.7180  -31.0570   22.1430 N   0  0  0  0  0  0  0  0  0  0  0  0
  -23.5630  -32.1470   23.7720 O   0  0  0  0  0  0  0  0  0  0  0  0
  -22.7830  -29.4550   22.5640 C   0  0  0  0  0  0  0  0  0  0  0  0
  -21.4560  -29.2740   22.4390 N   0  0  0  0  0  0  0  0  0  0  0  0
  -23.4610  -28.8340   23.3850 O   0  0  0  0  0  0  0  0  0  0  0  0
  -20.9660  -29.8270   21.7500 H   0  0  0  0  0  0  0  0  0  0  0  0
  -18.0860  -28.0450   22.9350 C   0  0  0  0  0  0  0  0  0  0  0  0
  -20.6420  -28.3330   23.2120 C   0  0  0  0  0  3  0  0  0  0  0  0
  -20.7590  -26.8990   22.6440 C   0  0  0  0  0  2  0  0  0  0  0  0
  -19.6630  -26.5600   21.6280 C   0  0  0  0  0  2  0  0  0  0  0  0
  -18.2780  -26.6950   22.2670 C   0  0  0  0  0  2  0  0  0  0  0  0
  -19.1960  -28.8210   23.3650 C   0  0  0  0  0  0  0  0  0  0  0  0
  -18.9610  -30.0840   23.9520 C   0  0  0  0  0  3  0  0  0  0  0  0
  -17.6510  -30.5720   24.1120 C   0  0  0  0  0  3  0  0  0  0  0  0
  -16.5560  -29.7940   23.6980 C   0  0  0  0  0  3  0  0  0  0  0  0
  -16.7750  -28.5330   23.1150 C   0  0  0  0  0  3  0  0  0  0  0  0
  -25.9280  -32.5110   23.8600 C   0  0  0  0  0  3  0  0  0  0  0  0
  -25.6100  -33.9080   24.1930 N   0  0  0  0  0  0  0  0  0  0  0  0
  -25.9270  -34.9650   23.4320 C   0  0  0  0  0  0  0  0  0  0  0  0
  -26.5840  -34.8660   22.3920 O   0  0  0  0  0  0  0  0  0  0  0  0
  -25.0260  -34.0570   25.0020 H   0  0  0  0  0  0  0  0  0  0  0  0
  -24.1780  -36.7460   23.1120 C   0  0  0  0  0  1  0  0  0  0  0  0
  -25.4380  -36.3500   23.8990 C   0  0  0  0  0  3  0  0  0  0  0  0
  -27.5810  -37.2560   24.6890 C   0  0  0  0  0  1  0  0  0  0  0  0
  -26.4610  -37.4110   23.7640 N   0  0  0  0  0  0  0  0  0  0  0  0
  -26.0500  -38.3300   23.9140 H   0  0  0  0  0  0  0  0  0  0  0  0
  -26.4450  -31.7440   25.1390 C   0  0  1  0  0  0  0  0  0  0  0  0
  -25.3530  -31.5040   26.2070 C   0  0  0  0  0  1  0  0  0  0  0  0
  -27.0330  -30.3660   24.7520 C   0  0  0  0  0  1  0  0  0  0  0  0
  -27.5930  -32.5430   25.7990 C   0  0  0  0  0  1  0  0  0  0  0  0
  -28.4410  -20.6270   20.0250 C   0  0  0  0  0  2  0  0  0  0  0  0
  -30.6310  -14.8820   19.9590 C   0  0  0  0  0  0  0  0  0  0  0  0
  -30.3370  -12.5910   18.9570 C   0  0  0  0  0  2  0  0  0  0  0  0
  -29.3310  -12.6100   17.7880 C   0  0  0  0  0  2  0  0  0  0  0  0
  -27.8960  -12.4180   18.3130 C   0  0  0  0  0  2  0  0  0  0  0  0
  -27.5860  -13.3160   19.5410 C   0  0  0  0  0  3  0  0  0  0  0  0
  -28.7140  -13.2870   20.5920 C   0  0  0  0  0  2  0  0  0  0  0  0
  -29.9450  -13.6770   19.8960 N   0  0  0  0  0  0  0  0  0  0  0  0
  -31.8170  -14.8590   19.6100 O   0  0  0  0  0  0  0  0  0  0  0  0
  -30.5310  -17.2530   19.1220 C   0  0  0  0  0  2  0  0  0  0  0  0
  -29.4780  -16.8400   21.2020 C   0  0  0  0  0  2  0  0  0  0  0  0
  -29.7380  -18.6340   18.9550 C   0  0  0  0  0  2  0  0  0  0  0  0
  -28.7260  -18.2630   21.0680 C   0  0  0  0  0  2  0  0  0  0  0  0
  -29.9680  -16.1410   19.9700 N   0  0  0  0  0  0  0  0  0  0  0  0
  -29.3440  -19.3530   20.2150 N   0  0  2  0  0  4  0  0  0  0  0  0
  -30.1830  -19.6670   20.6820 H   0  0  0  0  0  0  0  0  0  0  0  0
  -25.2650  -13.8860   20.4590 C   0  0  0  0  0  0  0  0  0  0  0  0
  -24.2230  -13.1050   20.8730 C   0  0  0  0  0  0  0  0  0  0  0  0
  -24.6730  -11.7530   20.7710 C   0  0  0  0  0  0  0  0  0  0  0  0
  -26.2830  -13.0100   20.1220 N   0  0  0  0  0  0  0  0  0  0  0  0
  -25.9420  -11.7200   20.3750 N   0  0  0  0  0  0  0  0  0  0  0  0
  -23.9510  -10.4890   20.9680 C   0  0  0  0  0  0  0  0  0  0  0  0
  -24.4070   -9.5110   21.8790 C   0  0  0  0  0  3  0  0  0  0  0  0
  -23.6820   -8.3150   22.0670 C   0  0  0  0  0  3  0  0  0  0  0  0
  -22.4880   -8.0860   21.3430 C   0  0  0  0  0  0  0  0  0  0  0  0
  -22.0510   -9.0530   20.4190 C   0  0  0  0  0  3  0  0  0  0  0  0
  -22.7760  -10.2410   20.2300 C   0  0  0  0  0  3  0  0  0  0  0  0
  -21.7350   -6.9420   21.4400 O   0  0  0  0  0  0  0  0  0  0  0  0
  -21.6740   -6.2150   22.6030 C   0  0  0  0  0  0  0  0  0  0  0  0
  -21.2320   -6.7860   23.8160 C   0  0  0  0  0  3  0  0  0  0  0  0
  -21.1200   -5.9850   24.9700 C   0  0  0  0  0  3  0  0  0  0  0  0
  -21.4420   -4.6160   24.9120 C   0  0  0  0  0  0  0  0  0  0  0  0
  -21.8790   -4.0450   23.7050 C   0  0  0  0  0  3  0  0  0  0  0  0
  -21.9920   -4.8430   22.5520 C   0  0  0  0  0  0  0  0  0  0  0  0
  -22.3930   -4.2840   21.3850 F   0  0  0  0  0  0  0  0  0  0  0  0
  -21.3290   -3.8460   26.0200 F   0  0  0  0  0  0  0  0  0  0  0  0
  -22.8500  -13.5820   21.2470 C   0  0  0  0  0  0  0  0  0  0  0  0
  -22.1750  -12.8680   22.1410 N   0  0  0  0  0  0  0  0  0  0  0  0
  -22.3860  -14.6230   20.7830 O   0  0  0  0  0  0  0  0  0  0  0  0
  -22.5640  -12.0250   22.5390 H   0  0  0  0  0  0  0  0  0  0  0  0
  -21.2560  -13.1670   22.4330 H   0  0  0  0  0  0  0  0  0  0  0  0
  -25.4290  -15.2610   20.3120 N   0  0  0  0  0  0  0  0  0  0  0  0
  -24.6710  -15.9120   20.4850 H   0  0  0  0  0  0  0  0  0  0  0  0
  -26.2500  -15.6990   19.9170 H   0  0  0  0  0  0  0  0  0  0  0  0
  1  2  2  0
  3  4  1  0
  3  5  1  0
  4  6  1  0
  5  7  1  0
  6  1  1  0
  7  6  1  0
  7  8  1  0
  9 20  2  0
 10  8  1  0
 10 15  1  0
 11 19  1  0
 11 21  1  0
 12 18  1  0
 12 14  1  0
 13 19  1  0
 14 13  1  0
 15 14  2  0
 16 10  2  0
 17 16  1  0
 17 12  2  0
 18 11  1  0
 19  9  1  0
 21 23  2  0
 22 21  1  0
 24 22  1  0
 25 34  2  0
 25 30  1  0
 26 22  1  0
 26 30  1  0
 27 26  1  0
 28 29  1  0
 28 27  1  0
 29 25  1  0
 30 31  2  0
 31 32  1  0
 33 32  2  0
 34 33  1  0
 35  9  1  0
 35 36  1  0
 35 45  1  0
 36 39  1  0
 37 41  1  0
 37 36  1  0
 38 37  2  0
 41 40  1  0
 43 41  1  0
 43 44  1  0
 43 42  1  0
 45 48  1  1
 45 46  1  0
 47 45  1  0
 49  1  1  0
 49 63  1  0
 50 62  1  0
 51 56  1  0
 52 53  1  0
 52 51  1  0
 54 53  1  0
 54 68  1  0
 54 55  1  0
 56 50  1  0
 56 55  1  0
 57 50  2  0
 58 62  1  0
 60 58  1  0
 60 63  1  0
 61 59  1  0
 62 59  1  0
 63 64  1  1
 63 61  1  0
 65 66  2  0
 66 85  1  0
 67 66  1  0
 67 70  1  0
 68 69  1  0
 68 65  1  0
 69 67  2  0
 70 71  1  0
 71 72  2  0
 73 76  1  0
 73 72  1  0
 74 73  2  0
 75 74  1  0
 75 70  2  0
 76 77  1  0
 77 78  1  0
 78 79  2  0
 80 79  1  0
 80 84  1  0
 81 80  2  0
 82 77  2  0
 82 81  1  0
 83 82  1  0
 85 86  1  0
 86 89  1  0
 86 88  1  0
 87 85  2  0
 90 65  1  0
 90 91  1  0
 92 90  1  0
M  ISO  4   7 101   8 101  50 100  62 100
M  END
>  <TORSDO>  (38) 
F 18

>  <SCORE>  (38) 
-14.288

>  <name>  (38) 
37

>  <ligand_id>  (38) 
37

>  <original_smiles>  (38) 
[H]c1c([H])c([H])c2c(c1[H])C([H])([H])C([H])([H])C([H])([H])C2([H])N([H])C(=O)C1([H])N(C(=O)C([H])(N([H])C(=O)C([H])(N([H])C([H])([H])[H])C([H])([H])[H])C(C([H])([H])[H])(C([H])([H])[H])C([H])([H])[H])C([H])([H])c2c([H])c(OC3([H])C([H])([H])C([H])([H])C([H])([H])C3([H])C(=O)C([H])([H])[N+]3([H])C([H])([H])C([H])([H])N(C(=O)N4C([H])([H])C([H])([H])C([H])([H])C([H])(n5nc(-c6c([H])c([H])c(Oc7c([H])c([H])c(F)c([H])c7F)c([H])c6[H])c(C(=O)N([H])[H])c5N([H])[H])C4([H])[H])C([H])([H])C3([H])[H])c([H])c([H])c2C1([H])[H]

>  <smiles>  (38) 
[H]c1c([H])c([H])c2c(c1[H])C([H])([H])C([H])([H])C([H])([H])C2([H])N([H])C(=O)C1([H])N(C(=O)C([H])(N([H])C(=O)C([H])(N([H])C([H])([H])[H])C([H])([H])[H])C(C([H])([H])[H])(C([H])([H])[H])C([H])([H])[H])C([H])([H])c2c([H])c(OC3([H])C([H])([H])C([H])([H])C([H])([H])C3([H])C(=O)C([H])([H])[N+]3([H])C([H])([H])C([H])([H])N(C(=O)N4C([H])([H])C([H])([H])C([H])([H])C([H])(n5nc(-c6c([H])c([H])c(Oc7c([H])c([H])c(F)c([H])c7F)c([H])c6[H])c(C(=O)N([H])[H])c5N([H])[H])C4([H])[H])C([H])([H])C3([H])[H])c([H])c([H])c2C1([H])[H]

$$$$
38:0:0
     RDKit          3D

 95103  0  0  1  0  0  0  0  0999 V2000
  -30.6770  -22.7500   17.6850 C   0  0  0  0  0  2  0  0  0  0  0  0
  -30.9720  -24.1960   17.6820 N   0  0  0  0  0  4  0  0  0  0  0  0
  -31.0650  -24.5000   16.7250 H   0  0  0  0  0  0  0  0  0  0  0  0
  -31.8590  -24.3460   18.1330 H   0  0  0  0  0  0  0  0  0  0  0  0
  -29.9310  -25.0410   18.3050 C   0  0  0  0  0  2  0  0  0  0  0  0
  -30.5190  -26.3180   18.9270 C   0  0  0  0  0  2  0  0  0  0  0  0
  -29.4520  -27.3520   19.3100 C   0  0  0  0  0  2  0  0  0  0  0  0
  -28.4680  -26.7530   20.1480 O   0  0  0  0  0  0  0  0  0  0  0  0
  -24.6210  -31.8900   23.2340 C   0  0  0  0  0  0  0  0  0  0  0  0
  -27.3000  -27.4680   20.2030 C   0  0  0  0  0  0  0  0  0  0  0  0
  -23.4190  -30.4730   21.5980 C   0  0  0  0  0  3  0  0  0  0  0  0
  -24.8850  -28.9230   20.1990 C   0  0  0  0  0  0  0  0  0  0  0  0
  -25.9380  -30.8510   21.3940 C   0  0  0  0  0  2  0  0  0  0  0  0
  -26.0370  -29.4730   20.7760 C   0  0  0  0  0  0  0  0  0  0  0  0
  -27.2510  -28.7580   20.7720 C   0  0  0  0  0  3  0  0  0  0  0  0
  -26.1290  -26.8990   19.6630 C   0  0  0  0  0  3  0  0  0  0  0  0
  -24.9240  -27.6310   19.6420 C   0  0  0  0  0  3  0  0  0  0  0  0
  -23.6360  -29.7760   20.2260 C   0  0  0  0  0  2  0  0  0  0  0  0
  -24.6770  -31.0850   22.1370 N   0  0  0  0  0  0  0  0  0  0  0  0
  -23.5400  -32.1650   23.7720 O   0  0  0  0  0  0  0  0  0  0  0  0
  -22.7750  -29.4560   22.5680 C   0  0  0  0  0  0  0  0  0  0  0  0
  -21.4510  -29.2660   22.4420 N   0  0  0  0  0  0  0  0  0  0  0  0
  -23.4600  -28.8410   23.3890 O   0  0  0  0  0  0  0  0  0  0  0  0
  -20.9600  -29.8180   21.7530 H   0  0  0  0  0  0  0  0  0  0  0  0
  -18.0840  -28.0620   22.9540 C   0  0  0  0  0  0  0  0  0  0  0  0
  -20.6390  -28.3300   23.2230 C   0  0  0  0  0  3  0  0  0  0  0  0
  -20.7480  -26.8950   22.6590 C   0  0  0  0  0  2  0  0  0  0  0  0
  -19.6470  -26.5580   21.6490 C   0  0  0  0  0  2  0  0  0  0  0  0
  -18.2650  -26.7070   22.2900 C   0  0  0  0  0  2  0  0  0  0  0  0
  -19.1990  -28.8320   23.3760 C   0  0  0  0  0  0  0  0  0  0  0  0
  -18.9760  -30.1020   23.9490 C   0  0  0  0  0  3  0  0  0  0  0  0
  -17.6700  -30.6030   24.1060 C   0  0  0  0  0  3  0  0  0  0  0  0
  -16.5690  -29.8300   23.6960 C   0  0  0  0  0  3  0  0  0  0  0  0
  -16.7770  -28.5630   23.1260 C   0  0  0  0  0  3  0  0  0  0  0  0
  -25.9060  -32.5300   23.8510 C   0  0  0  0  0  3  0  0  0  0  0  0
  -26.4430  -31.7560   25.1170 C   0  0  1  0  0  0  0  0  0  0  0  0
  -25.3610  -31.4930   26.1920 C   0  0  0  0  0  1  0  0  0  0  0  0
  -27.0400  -30.3910   24.7080 C   0  0  0  0  0  1  0  0  0  0  0  0
  -27.5960  -32.5560   25.7670 C   0  0  0  0  0  1  0  0  0  0  0  0
  -25.5890  -33.9240   24.1860 N   0  0  0  0  0  0  0  0  0  0  0  0
  -25.9040  -34.9790   23.4240 C   0  0  0  0  0  0  0  0  0  0  0  0
  -26.5660  -34.8800   22.3870 O   0  0  0  0  0  0  0  0  0  0  0  0
  -25.0050  -34.0750   24.9970 H   0  0  0  0  0  0  0  0  0  0  0  0
  -24.1570  -36.7530   23.0740 C   0  0  0  0  0  1  0  0  0  0  0  0
  -25.4060  -36.3640   23.8820 C   0  0  0  0  0  3  0  0  0  0  0  0
  -27.5430  -37.2640   24.6920 C   0  0  0  0  0  1  0  0  0  0  0  0
  -26.4280  -37.4260   23.7610 N   0  0  0  0  0  0  0  0  0  0  0  0
  -26.0210  -38.3450   23.9110 H   0  0  0  0  0  0  0  0  0  0  0  0
  -31.3720  -22.0200   18.8510 C   0  0  0  0  0  2  0  0  0  0  0  0
  -30.9310  -20.5450   18.9530 C   0  0  0  0  0  2  0  0  0  0  0  0
  -31.6880  -19.7460   20.0370 C   0  0  0  0  0  2  0  0  0  0  0  0
  -30.7400  -14.3690   20.1440 C   0  0  0  0  0  0  0  0  0  0  0  0
  -30.2910  -12.2780   18.9210 C   0  0  0  0  0  2  0  0  0  0  0  0
  -29.3070  -12.5480   17.7690 C   0  0  0  0  0  2  0  0  0  0  0  0
  -27.8520  -12.4330   18.2660 C   0  0  0  0  0  2  0  0  0  0  0  0
  -27.5900  -13.2310   19.5720 C   0  0  0  0  0  3  0  0  0  0  0  0
  -28.6930  -12.9610   20.6200 C   0  0  0  0  0  2  0  0  0  0  0  0
  -29.9990  -13.2370   19.9950 N   0  0  0  0  0  0  0  0  0  0  0  0
  -31.8170  -14.5500   19.5680 O   0  0  0  0  0  0  0  0  0  0  0  0
  -30.6880  -17.1320   22.6290 C   0  0  0  0  0  2  0  0  0  0  0  0
  -30.5520  -15.6450   22.2190 C   0  0  0  0  0  2  0  0  0  0  0  0
  -29.5650  -16.5030   20.0620 C   0  0  0  0  0  2  0  0  0  0  0  0
  -31.6280  -17.9770   21.7430 C   0  0  0  0  0  2  0  0  0  0  0  0
  -30.5760  -17.5560   19.5410 C   0  0  0  0  0  2  0  0  0  0  0  0
  -30.1580  -15.3880   20.8210 N   0  0  0  0  0  0  0  0  0  0  0  0
  -30.9390  -18.5700   20.5690 N   0  0  2  0  0  4  0  0  0  0  0  0
  -30.0720  -18.9510   20.9190 H   0  0  0  0  0  0  0  0  0  0  0  0
  -25.2330  -13.8550   20.4020 C   0  0  0  0  0  0  0  0  0  0  0  0
  -24.1780  -13.0900   20.8180 C   0  0  0  0  0  0  0  0  0  0  0  0
  -24.6270  -11.7350   20.7600 C   0  0  0  0  0  0  0  0  0  0  0  0
  -26.2580  -12.9670   20.1130 N   0  0  0  0  0  0  0  0  0  0  0  0
  -25.8990  -11.6870   20.3870 N   0  0  0  0  0  0  0  0  0  0  0  0
  -23.9020  -10.4770   20.9800 C   0  0  0  0  0  0  0  0  0  0  0  0
  -24.3660   -9.5040   21.8950 C   0  0  0  0  0  3  0  0  0  0  0  0
  -23.6410   -8.3120   22.1010 C   0  0  0  0  0  3  0  0  0  0  0  0
  -22.4360   -8.0820   21.3950 C   0  0  0  0  0  0  0  0  0  0  0  0
  -21.9910   -9.0410   20.4690 C   0  0  0  0  0  3  0  0  0  0  0  0
  -22.7160  -10.2260   20.2600 C   0  0  0  0  0  3  0  0  0  0  0  0
  -21.6790   -6.9400   21.5110 O   0  0  0  0  0  0  0  0  0  0  0  0
  -21.6650   -6.1990   22.6650 C   0  0  0  0  0  0  0  0  0  0  0  0
  -21.3110   -6.7630   23.9110 C   0  0  0  0  0  3  0  0  0  0  0  0
  -21.2430   -5.9490   25.0590 C   0  0  0  0  0  3  0  0  0  0  0  0
  -21.5220   -4.5730   24.9650 C   0  0  0  0  0  0  0  0  0  0  0  0
  -21.8730   -4.0090   23.7260 C   0  0  0  0  0  3  0  0  0  0  0  0
  -21.9440   -4.8200   22.5800 C   0  0  0  0  0  0  0  0  0  0  0  0
  -22.2600   -4.2660   21.3830 F   0  0  0  0  0  0  0  0  0  0  0  0
  -21.4520   -3.7900   26.0670 F   0  0  0  0  0  0  0  0  0  0  0  0
  -22.7990  -13.5770   21.1620 C   0  0  0  0  0  0  0  0  0  0  0  0
  -22.1120  -12.8860   22.0630 N   0  0  0  0  0  0  0  0  0  0  0  0
  -22.3420  -14.6050   20.6620 O   0  0  0  0  0  0  0  0  0  0  0  0
  -22.4930  -12.0540   22.4890 H   0  0  0  0  0  0  0  0  0  0  0  0
  -21.1880  -13.1920   22.3340 H   0  0  0  0  0  0  0  0  0  0  0  0
  -25.4080  -15.2260   20.2220 N   0  0  0  0  0  0  0  0  0  0  0  0
  -24.6660  -15.9010   20.3740 H   0  0  0  0  0  0  0  0  0  0  0  0
  -26.2630  -15.6470   19.8790 H   0  0  0  0  0  0  0  0  0  0  0  0
  1 49  1  0
  2  1  1  0
  2  4  1  0
  2  5  1  0
  3  2  1  0
  5  6  1  0
  6  7  1  0
  7  8  1  0
  8 10  1  0
  9 20  2  0
 10 15  1  0
 11 19  1  0
 11 21  1  0
 12 18  1  0
 12 14  1  0
 13 19  1  0
 14 13  1  0
 15 14  2  0
 16 10  2  0
 17 16  1  0
 17 12  2  0
 18 11  1  0
 19  9  1  0
 21 23  2  0
 22 21  1  0
 24 22  1  0
 25 34  2  0
 25 30  1  0
 26 22  1  0
 26 30  1  0
 27 26  1  0
 28 29  1  0
 28 27  1  0
 29 25  1  0
 30 31  2  0
 31 32  1  0
 33 32  2  0
 34 33  1  0
 35  9  1  0
 35 40  1  0
 35 36  1  0
 36 39  1  1
 36 37  1  0
 38 36  1  0
 40 43  1  0
 41 45  1  0
 41 40  1  0
 42 41  2  0
 45 44  1  0
 47 45  1  0
 47 48  1  0
 47 46  1  0
 49 50  1  0
 50 51  1  0
 51 66  1  0
 52 65  1  0
 53 58  1  0
 54 55  1  0
 54 53  1  0
 56 55  1  0
 56 71  1  0
 56 57  1  0
 58 52  1  0
 58 57  1  0
 59 52  2  0
 61 60  1  0
 62 65  1  0
 63 60  1  0
 64 62  1  0
 64 66  1  0
 65 61  1  0
 66 67  1  1
 66 63  1  0
 68 69  2  0
 69 88  1  0
 70 69  1  0
 70 73  1  0
 71 72  1  0
 71 68  1  0
 72 70  2  0
 73 74  1  0
 74 75  2  0
 76 79  1  0
 76 75  1  0
 77 76  2  0
 78 77  1  0
 78 73  2  0
 79 80  1  0
 80 81  1  0
 81 82  2  0
 83 82  1  0
 83 87  1  0
 84 83  2  0
 85 80  2  0
 85 84  1  0
 86 85  1  0
 88 89  1  0
 89 92  1  0
 89 91  1  0
 90 88  2  0
 93 94  1  0
 93 68  1  0
 95 93  1  0
M  ISO  4   7 101   8 101  52 100  65 100
M  END
>  <TORSDO>  (39) 
F 23

>  <SCORE>  (39) 
-12.164

>  <name>  (39) 
38

>  <ligand_id>  (39) 
38

>  <original_smiles>  (39) 
[H]c1c([H])c([H])c2c(c1[H])C([H])([H])C([H])([H])C([H])([H])C2([H])N([H])C(=O)C1([H])N(C(=O)C([H])(N([H])C(=O)C([H])(N([H])C([H])([H])[H])C([H])([H])[H])C(C([H])([H])[H])(C([H])([H])[H])C([H])([H])[H])C([H])([H])c2c([H])c(OC([H])([H])C([H])([H])C([H])([H])[N+]([H])([H])C([H])([H])C([H])([H])C([H])([H])C([H])([H])[N+]3([H])C([H])([H])C([H])([H])N(C(=O)N4C([H])([H])C([H])([H])C([H])([H])C([H])(n5nc(-c6c([H])c([H])c(Oc7c([H])c([H])c(F)c([H])c7F)c([H])c6[H])c(C(=O)N([H])[H])c5N([H])[H])C4([H])[H])C([H])([H])C([H])([H])C3([H])[H])c([H])c([H])c2C1([H])[H]

>  <smiles>  (39) 
[H]c1c([H])c([H])c2c(c1[H])C([H])([H])C([H])([H])C([H])([H])C2([H])N([H])C(=O)C1([H])N(C(=O)C([H])(N([H])C(=O)C([H])(N([H])C([H])([H])[H])C([H])([H])[H])C(C([H])([H])[H])(C([H])([H])[H])C([H])([H])[H])C([H])([H])c2c([H])c(OC([H])([H])C([H])([H])C([H])([H])[N+]([H])([H])C([H])([H])C([H])([H])C([H])([H])C([H])([H])[N+]3([H])C([H])([H])C([H])([H])N(C(=O)N4C([H])([H])C([H])([H])C([H])([H])C([H])(n5nc(-c6c([H])c([H])c(Oc7c([H])c([H])c(F)c([H])c7F)c([H])c6[H])c(C(=O)N([H])[H])c5N([H])[H])C4([H])[H])C([H])([H])C([H])([H])C3([H])[H])c([H])c([H])c2C1([H])[H]

$$$$
39:0:0
     RDKit          3D

 89 97  0  0  1  0  0  0  0  0999 V2000
  -30.4880  -20.1620   21.7710 C   0  0  0  0  0  2  0  0  0  0  0  0
  -30.1730  -18.5990   21.7140 C   0  0  0  0  0  2  0  0  0  0  0  0
  -29.0000  -18.9590   19.5750 C   0  0  0  0  0  2  0  0  0  0  0  0
  -29.3590  -21.2950   21.6840 C   0  0  0  0  0  2  0  0  0  0  0  0
  -29.2800  -20.5930   19.3190 C   0  0  0  0  0  2  0  0  0  0  0  0
  -30.0430  -17.9130   20.3070 C   0  0  0  0  0  3  0  0  0  0  0  0
  -28.8630  -21.7180   20.3210 N   0  0  2  0  0  4  0  0  0  0  0  0
  -27.8580  -21.6180   20.3790 H   0  0  0  0  0  0  0  0  0  0  0  0
  -30.5770  -15.1250   20.2140 C   0  0  0  0  0  0  0  0  0  0  0  0
  -30.4860  -12.7640   19.2650 C   0  0  0  0  0  2  0  0  0  0  0  0
  -29.5470  -12.7030   18.0390 C   0  0  0  0  0  2  0  0  0  0  0  0
  -28.0900  -12.4620   18.4820 C   0  0  0  0  0  2  0  0  0  0  0  0
  -27.6750  -13.3700   19.6690 C   0  0  0  0  0  3  0  0  0  0  0  0
  -28.7420  -13.4010   20.7850 C   0  0  0  0  0  2  0  0  0  0  0  0
  -29.9960  -13.8530   20.1640 N   0  0  0  0  0  0  0  0  0  0  0  0
  -31.7790  -15.1870   19.9360 O   0  0  0  0  0  0  0  0  0  0  0  0
  -29.7900  -16.3220   20.3670 N   0  0  0  0  0  0  0  0  0  0  0  0
  -28.8250  -16.0930   20.5520 H   0  0  0  0  0  0  0  0  0  0  0  0
  -25.3020  -13.9080   20.4510 C   0  0  0  0  0  0  0  0  0  0  0  0
  -24.2520  -13.1200   20.8390 C   0  0  0  0  0  0  0  0  0  0  0  0
  -24.7350  -11.7770   20.7980 C   0  0  0  0  0  0  0  0  0  0  0  0
  -26.3520  -13.0460   20.1900 N   0  0  0  0  0  0  0  0  0  0  0  0
  -26.0230  -11.7570   20.4670 N   0  0  0  0  0  0  0  0  0  0  0  0
  -24.0240  -10.5060   20.9930 C   0  0  0  0  0  0  0  0  0  0  0  0
  -24.4630   -9.5500   21.9350 C   0  0  0  0  0  3  0  0  0  0  0  0
  -23.7500   -8.3450   22.1180 C   0  0  0  0  0  3  0  0  0  0  0  0
  -22.5830   -8.0870   21.3590 C   0  0  0  0  0  0  0  0  0  0  0  0
  -22.1650   -9.0320   20.4070 C   0  0  0  0  0  3  0  0  0  0  0  0
  -22.8780  -10.2280   20.2220 C   0  0  0  0  0  3  0  0  0  0  0  0
  -21.8410   -6.9320   21.4530 O   0  0  0  0  0  0  0  0  0  0  0  0
  -21.7770   -6.2090   22.6170 C   0  0  0  0  0  0  0  0  0  0  0  0
  -21.2950   -6.7730   23.8180 C   0  0  0  0  0  3  0  0  0  0  0  0
  -21.1790   -5.9730   24.9730 C   0  0  0  0  0  3  0  0  0  0  0  0
  -21.5340   -4.6130   24.9270 C   0  0  0  0  0  0  0  0  0  0  0  0
  -22.0110   -4.0490   23.7310 C   0  0  0  0  0  3  0  0  0  0  0  0
  -22.1290   -4.8450   22.5780 C   0  0  0  0  0  0  0  0  0  0  0  0
  -22.5650   -4.2910   21.4210 F   0  0  0  0  0  0  0  0  0  0  0  0
  -21.4180   -3.8420   26.0350 F   0  0  0  0  0  0  0  0  0  0  0  0
  -22.8530  -13.5810   21.1250 C   0  0  0  0  0  0  0  0  0  0  0  0
  -22.1370  -12.8740   21.9910 N   0  0  0  0  0  0  0  0  0  0  0  0
  -22.4030  -14.6060   20.6150 O   0  0  0  0  0  0  0  0  0  0  0  0
  -22.5140  -12.0500   22.4360 H   0  0  0  0  0  0  0  0  0  0  0  0
  -21.1960  -13.1630   22.2130 H   0  0  0  0  0  0  0  0  0  0  0  0
  -25.4470  -15.2810   20.2720 N   0  0  0  0  0  0  0  0  0  0  0  0
  -24.6700  -15.9250   20.3710 H   0  0  0  0  0  0  0  0  0  0  0  0
  -26.2700  -15.7190   19.8840 H   0  0  0  0  0  0  0  0  0  0  0  0
  -29.0600  -23.2800   19.9300 C   0  0  0  0  0  3  0  0  0  0  0  0
  -28.0710  -24.6040   20.3990 C   0  0  0  0  0  3  0  0  0  0  0  0
  -28.2950  -26.1660   20.2090 O   0  0  0  0  0  0  0  0  0  0  0  0
  -24.6210  -31.8980   23.2290 C   0  0  0  0  0  0  0  0  0  0  0  0
  -27.2280  -27.1540   20.2000 C   0  0  0  0  0  0  0  0  0  0  0  0
  -23.4340  -30.4880   21.5970 C   0  0  0  0  0  3  0  0  0  0  0  0
  -24.8910  -28.9140   20.1750 C   0  0  0  0  0  0  0  0  0  0  0  0
  -25.9890  -30.7560   21.4350 C   0  0  0  0  0  2  0  0  0  0  0  0
  -26.0720  -29.3570   20.7890 C   0  0  0  0  0  0  0  0  0  0  0  0
  -27.2390  -28.4950   20.7780 C   0  0  0  0  0  3  0  0  0  0  0  0
  -26.0190  -26.8270   19.5440 C   0  0  0  0  0  3  0  0  0  0  0  0
  -24.8840  -27.6670   19.5340 C   0  0  0  0  0  3  0  0  0  0  0  0
  -23.6610  -29.8100   20.2200 C   0  0  0  0  0  2  0  0  0  0  0  0
  -24.7030  -31.0700   22.1440 N   0  0  0  0  0  0  0  0  0  0  0  0
  -23.5310  -32.1750   23.7540 O   0  0  0  0  0  0  0  0  0  0  0  0
  -22.7580  -29.4820   22.5640 C   0  0  0  0  0  0  0  0  0  0  0  0
  -21.4300  -29.2970   22.4340 N   0  0  0  0  0  0  0  0  0  0  0  0
  -23.4320  -28.8660   23.3940 O   0  0  0  0  0  0  0  0  0  0  0  0
  -20.9410  -29.8460   21.7420 H   0  0  0  0  0  0  0  0  0  0  0  0
  -18.0590  -28.0650   22.9430 C   0  0  0  0  0  0  0  0  0  0  0  0
  -20.6170  -28.3550   23.2090 C   0  0  0  0  0  3  0  0  0  0  0  0
  -20.7320  -26.9220   22.6390 C   0  0  0  0  0  2  0  0  0  0  0  0
  -19.6340  -26.5840   21.6270 C   0  0  0  0  0  2  0  0  0  0  0  0
  -18.2510  -26.7160   22.2690 C   0  0  0  0  0  2  0  0  0  0  0  0
  -19.1710  -28.8410   23.3690 C   0  0  0  0  0  0  0  0  0  0  0  0
  -18.9390  -30.1000   23.9640 C   0  0  0  0  0  3  0  0  0  0  0  0
  -17.6300  -30.5880   24.1330 C   0  0  0  0  0  3  0  0  0  0  0  0
  -16.5330  -29.8120   23.7230 C   0  0  0  0  0  3  0  0  0  0  0  0
  -16.7480  -28.5520   23.1350 C   0  0  0  0  0  3  0  0  0  0  0  0
  -25.8910  -32.5500   23.8550 C   0  0  0  0  0  3  0  0  0  0  0  0
  -25.5680  -33.9510   24.1720 N   0  0  0  0  0  0  0  0  0  0  0  0
  -25.9020  -35.0050   23.4150 C   0  0  0  0  0  0  0  0  0  0  0  0
  -26.5810  -34.8990   22.3910 O   0  0  0  0  0  0  0  0  0  0  0  0
  -24.9650  -34.1030   24.9670 H   0  0  0  0  0  0  0  0  0  0  0  0
  -24.1830  -36.8040   23.0380 C   0  0  0  0  0  1  0  0  0  0  0  0
  -25.4110  -36.3960   23.8670 C   0  0  0  0  0  3  0  0  0  0  0  0
  -27.5310  -37.2840   24.7310 C   0  0  0  0  0  1  0  0  0  0  0  0
  -26.4450  -37.4490   23.7670 N   0  0  0  0  0  0  0  0  0  0  0  0
  -26.0370  -38.3690   23.9080 H   0  0  0  0  0  0  0  0  0  0  0  0
  -26.3980  -31.8000   25.1480 C   0  0  1  0  0  0  0  0  0  0  0  0
  -25.2950  -31.5650   26.2080 C   0  0  0  0  0  1  0  0  0  0  0  0
  -26.9970  -30.4220   24.7810 C   0  0  0  0  0  1  0  0  0  0  0  0
  -27.5360  -32.6100   25.8120 C   0  0  0  0  0  1  0  0  0  0  0  0
  2  1  1  0
  3  6  1  0
  4  1  1  0
  5  3  1  0
  5  7  1  0
  6 17  1  0
  6  2  1  0
  7  8  1  1
  7  4  1  0
  9 17  1  0
 10 15  1  0
 11 12  1  0
 11 10  1  0
 13 12  1  0
 13 22  1  0
 13 14  1  0
 15  9  1  0
 15 14  1  0
 16  9  2  0
 17 18  1  0
 19 20  2  0
 20 39  1  0
 21 20  1  0
 21 24  1  0
 22 19  1  0
 22 23  1  0
 23 21  2  0
 24 25  1  0
 25 26  2  0
 27 30  1  0
 27 26  1  0
 28 27  2  0
 29 28  1  0
 29 24  2  0
 30 31  1  0
 31 32  1  0
 32 33  2  0
 34 33  1  0
 34 38  1  0
 35 34  2  0
 36 31  2  0
 36 35  1  0
 37 36  1  0
 39 40  1  0
 40 43  1  0
 40 42  1  0
 41 39  2  0
 44 45  1  0
 44 19  1  0
 46 44  1  0
 47  7  1  0
 47 48  2  0
 49 48  1  0
 50 61  2  0
 51 49  1  0
 51 56  1  0
 52 60  1  0
 52 62  1  0
 53 59  1  0
 53 55  1  0
 54 60  1  0
 55 54  1  0
 56 55  2  0
 57 51  2  0
 58 57  1  0
 58 53  2  0
 59 52  1  0
 60 50  1  0
 62 64  2  0
 63 62  1  0
 65 63  1  0
 66 75  2  0
 66 71  1  0
 67 63  1  0
 67 71  1  0
 68 67  1  0
 69 70  1  0
 69 68  1  0
 70 66  1  0
 71 72  2  0
 72 73  1  0
 74 73  2  0
 75 74  1  0
 76 50  1  0
 76 77  1  0
 76 86  1  0
 77 80  1  0
 78 82  1  0
 78 77  1  0
 79 78  2  0
 82 81  1  0
 84 82  1  0
 84 85  1  0
 84 83  1  0
 86 89  1  1
 86 87  1  0
 88 86  1  0
M  ISO  4   9 100  17 100  48 101  49 101
M  END
>  <TORSDO>  (40) 
F 18

>  <SCORE>  (40) 
-15.168

>  <name>  (40) 
39

>  <ligand_id>  (40) 
39

>  <original_smiles>  (40) 
[H]c1c([H])c([H])c2c(c1[H])C([H])([H])C([H])([H])C([H])([H])C2([H])N([H])C(=O)C1([H])N(C(=O)C([H])(N([H])C(=O)C([H])(N([H])C([H])([H])[H])C([H])([H])[H])C(C([H])([H])[H])(C([H])([H])[H])C([H])([H])[H])C([H])([H])c2c([H])c(OC([H])([H])C([H])([H])[N+]3([H])C([H])([H])C([H])([H])C([H])([H])C([H])(N([H])C(=O)N4C([H])([H])C([H])([H])C([H])([H])C([H])(n5nc(-c6c([H])c([H])c(Oc7c([H])c([H])c(F)c([H])c7F)c([H])c6[H])c(C(=O)N([H])[H])c5N([H])[H])C4([H])[H])C([H])([H])C3([H])[H])c([H])c([H])c2C1([H])[H]

>  <smiles>  (40) 
[H]c1c([H])c([H])c2c(c1[H])C([H])([H])C([H])([H])C([H])([H])C2([H])N([H])C(=O)C1([H])N(C(=O)C([H])(N([H])C(=O)C([H])(N([H])C([H])([H])[H])C([H])([H])[H])C(C([H])([H])[H])(C([H])([H])[H])C([H])([H])[H])C([H])([H])c2c([H])c(OC([H])([H])C([H])([H])[N+]3([H])C([H])([H])C([H])([H])C([H])([H])C([H])(N([H])C(=O)N4C([H])([H])C([H])([H])C([H])([H])C([H])(n5nc(-c6c([H])c([H])c(Oc7c([H])c([H])c(F)c([H])c7F)c([H])c6[H])c(C(=O)N([H])[H])c5N([H])[H])C4([H])[H])C([H])([H])C3([H])[H])c([H])c([H])c2C1([H])[H]

$$$$
40:0:0
     RDKit          3D

 95104  0  0  1  0  0  0  0  0999 V2000
  -31.2100  -23.3880   22.1120 C   0  0  0  0  0  2  0  0  0  0  0  0
  -29.2380  -21.9210   21.4600 C   0  0  0  0  0  2  0  0  0  0  0  0
  -30.1450  -24.1250   22.9590 C   0  0  0  0  0  2  0  0  0  0  0  0
  -28.2390  -23.0170   21.9030 C   0  0  0  0  0  2  0  0  0  0  0  0
  -30.6250  -22.4500   21.0200 C   0  0  0  0  0  3  0  0  0  0  0  0
  -28.8740  -24.3300   22.2200 N   0  0  2  0  0  4  0  0  0  0  0  0
  -28.2370  -24.7510   22.8840 H   0  0  0  0  0  0  0  0  0  0  0  0
  -31.6420  -21.3390   20.6610 C   0  0  0  0  0  2  0  0  0  0  0  0
  -31.1780  -20.2860   19.6320 C   0  0  0  0  0  2  0  0  0  0  0  0
  -30.6160  -14.2860   20.1420 C   0  0  0  0  0  0  0  0  0  0  0  0
  -30.3770  -12.0270   19.2220 C   0  0  0  0  0  2  0  0  0  0  0  0
  -29.4270  -12.1080   18.0060 C   0  0  0  0  0  2  0  0  0  0  0  0
  -27.9590  -11.9650   18.4480 C   0  0  0  0  0  2  0  0  0  0  0  0
  -27.5970  -12.8950   19.6400 C   0  0  0  0  0  3  0  0  0  0  0  0
  -28.6660  -12.8060   20.7550 C   0  0  0  0  0  2  0  0  0  0  0  0
  -29.9720  -13.0900   20.1490 N   0  0  0  0  0  0  0  0  0  0  0  0
  -31.8170  -14.3800   19.8770 O   0  0  0  0  0  0  0  0  0  0  0  0
  -29.8490  -18.3060   19.8120 C   0  0  0  0  0  0  0  0  0  0  0  0
  -30.6970  -17.4820   18.8490 C   0  0  0  0  0  2  0  0  0  0  0  0
  -28.6670  -17.5380   20.3810 C   0  0  0  0  0  2  0  0  0  0  0  0
  -30.0870  -16.0890   18.5700 C   0  0  0  0  0  2  0  0  0  0  0  0
  -29.0500  -16.1010   20.8250 C   0  0  0  0  0  2  0  0  0  0  0  0
  -30.0610  -19.5130   20.1560 N   0  0  0  0  0  0  0  0  0  0  0  0
  -29.8130  -15.3360   19.8150 N   0  0  0  0  0  0  0  0  0  0  0  0
  -25.2080  -13.4900   20.3720 C   0  0  0  0  0  0  0  0  0  0  0  0
  -24.1560  -12.7120   20.7750 C   0  0  0  0  0  0  0  0  0  0  0  0
  -24.6400  -11.3710   20.7880 C   0  0  0  0  0  0  0  0  0  0  0  0
  -26.2600  -12.6190   20.1540 N   0  0  0  0  0  0  0  0  0  0  0  0
  -25.9270  -11.3420   20.4710 N   0  0  0  0  0  0  0  0  0  0  0  0
  -23.9390  -10.1030   21.0300 C   0  0  0  0  0  0  0  0  0  0  0  0
  -24.3700   -9.2060   22.0310 C   0  0  0  0  0  3  0  0  0  0  0  0
  -23.6680   -8.0010   22.2610 C   0  0  0  0  0  3  0  0  0  0  0  0
  -22.5240   -7.6880   21.4880 C   0  0  0  0  0  0  0  0  0  0  0  0
  -22.1150   -8.5750   20.4770 C   0  0  0  0  0  3  0  0  0  0  0  0
  -22.8170   -9.7700   20.2460 C   0  0  0  0  0  3  0  0  0  0  0  0
  -21.7980   -6.5300   21.6230 O   0  0  0  0  0  0  0  0  0  0  0  0
  -21.6910   -5.8810   22.8280 C   0  0  0  0  0  0  0  0  0  0  0  0
  -21.1100   -6.4990   23.9570 C   0  0  0  0  0  3  0  0  0  0  0  0
  -20.9480   -5.7700   25.1510 C   0  0  0  0  0  3  0  0  0  0  0  0
  -21.3650   -4.4270   25.2190 C   0  0  0  0  0  0  0  0  0  0  0  0
  -21.9450   -3.8120   24.0980 C   0  0  0  0  0  3  0  0  0  0  0  0
  -22.1030   -4.5350   22.9030 C   0  0  0  0  0  0  0  0  0  0  0  0
  -22.6380   -3.9290   21.8160 F   0  0  0  0  0  0  0  0  0  0  0  0
  -21.2040   -3.7270   26.3660 F   0  0  0  0  0  0  0  0  0  0  0  0
  -22.7530  -13.1740   21.0380 C   0  0  0  0  0  0  0  0  0  0  0  0
  -22.0520  -12.5070   21.9470 N   0  0  0  0  0  0  0  0  0  0  0  0
  -22.2870  -14.1610   20.4730 O   0  0  0  0  0  0  0  0  0  0  0  0
  -22.4420  -11.7080   22.4250 H   0  0  0  0  0  0  0  0  0  0  0  0
  -21.1090  -12.7960   22.1660 H   0  0  0  0  0  0  0  0  0  0  0  0
  -25.3440  -14.8600   20.1510 N   0  0  0  0  0  0  0  0  0  0  0  0
  -24.5710  -15.5040   20.2670 H   0  0  0  0  0  0  0  0  0  0  0  0
  -26.1850  -15.3100   19.8130 H   0  0  0  0  0  0  0  0  0  0  0  0
  -28.9950  -25.3310   21.1100 C   0  0  0  0  0  2  0  0  0  0  0  0
  -27.7410  -25.4980   20.2300 C   0  0  0  0  0  2  0  0  0  0  0  0
  -27.8370  -26.6850   19.4440 O   0  0  0  0  0  0  0  0  0  0  0  0
  -24.5170  -31.4710   23.4620 C   0  0  0  0  0  0  0  0  0  0  0  0
  -26.7430  -27.5000   19.5720 C   0  0  0  0  0  0  0  0  0  0  0  0
  -23.1710  -30.5040   21.6200 C   0  0  0  0  0  3  0  0  0  0  0  0
  -24.4740  -29.1320   19.9080 C   0  0  0  0  0  0  0  0  0  0  0  0
  -25.7090  -30.7050   21.4130 C   0  0  0  0  0  2  0  0  0  0  0  0
  -25.6780  -29.4640   20.5470 C   0  0  0  0  0  0  0  0  0  0  0  0
  -26.8190  -28.6540   20.3770 C   0  0  0  0  0  3  0  0  0  0  0  0
  -25.5300  -27.1700   18.9290 C   0  0  0  0  0  3  0  0  0  0  0  0
  -24.3920  -27.9820   19.1000 C   0  0  0  0  0  3  0  0  0  0  0  0
  -23.3040  -30.0630   20.1370 C   0  0  0  0  0  2  0  0  0  0  0  0
  -24.4880  -30.8900   22.2280 N   0  0  0  0  0  0  0  0  0  0  0  0
  -23.4710  -31.7300   24.0720 O   0  0  0  0  0  0  0  0  0  0  0  0
  -22.4390  -29.3890   22.3980 C   0  0  0  0  0  0  0  0  0  0  0  0
  -21.1040  -29.3470   22.2620 N   0  0  0  0  0  0  0  0  0  0  0  0
  -23.0680  -28.5700   23.0730 O   0  0  0  0  0  0  0  0  0  0  0  0
  -20.6660  -30.0590   21.6960 H   0  0  0  0  0  0  0  0  0  0  0  0
  -17.6350  -28.4100   22.6300 C   0  0  0  0  0  0  0  0  0  0  0  0
  -20.2090  -28.3600   22.8620 C   0  0  0  0  0  3  0  0  0  0  0  0
  -20.1580  -27.0670   22.0150 C   0  0  0  0  0  2  0  0  0  0  0  0
  -19.0180  -27.0580   20.9940 C   0  0  0  0  0  2  0  0  0  0  0  0
  -17.6660  -27.2060   21.7000 C   0  0  0  0  0  2  0  0  0  0  0  0
  -18.8320  -28.9590   23.1630 C   0  0  0  0  0  0  0  0  0  0  0  0
  -18.7530  -30.0960   23.9960 C   0  0  0  0  0  3  0  0  0  0  0  0
  -17.5100  -30.6850   24.2940 C   0  0  0  0  0  3  0  0  0  0  0  0
  -16.3280  -30.1260   23.7790 C   0  0  0  0  0  3  0  0  0  0  0  0
  -16.3920  -28.9890   22.9550 C   0  0  0  0  0  3  0  0  0  0  0  0
  -25.8620  -31.8600   24.1550 C   0  0  0  0  0  3  0  0  0  0  0  0
  -26.2930  -30.8440   25.2820 C   0  0  1  0  0  0  0  0  0  0  0  0
  -25.1590  -30.5010   26.2760 C   0  0  0  0  0  1  0  0  0  0  0  0
  -26.7910  -29.5200   24.6550 C   0  0  0  0  0  1  0  0  0  0  0  0
  -27.4770  -31.4260   26.0890 C   0  0  0  0  0  1  0  0  0  0  0  0
  -25.7050  -33.2130   24.7030 N   0  0  0  0  0  0  0  0  0  0  0  0
  -26.1840  -34.3250   24.1290 C   0  0  0  0  0  0  0  0  0  0  0  0
  -26.8770  -34.3060   23.1080 O   0  0  0  0  0  0  0  0  0  0  0  0
  -25.0980  -33.3100   25.5050 H   0  0  0  0  0  0  0  0  0  0  0  0
  -24.6870  -36.3430   24.0330 C   0  0  0  0  0  1  0  0  0  0  0  0
  -25.8420  -35.6730   24.7930 C   0  0  0  0  0  3  0  0  0  0  0  0
  -28.0220  -36.1630   25.8120 C   0  0  0  0  0  1  0  0  0  0  0  0
  -26.9940  -36.5970   24.8700 N   0  0  0  0  0  0  0  0  0  0  0  0
  -26.6900  -37.5290   25.1390 H   0  0  0  0  0  0  0  0  0  0  0  0
  1  3  1  0
  2  4  1  0
  4  6  1  0
  5  8  1  0
  5  2  1  0
  5  1  1  0
  6  7  1  1
  6  3  1  0
  9 23  1  0
  9  8  1  0
 10 16  1  0
 11 16  1  0
 12 13  1  0
 12 11  1  0
 14 13  1  0
 14 28  1  0
 14 15  1  0
 16 15  1  0
 17 10  2  0
 18 23  2  0
 18 20  1  0
 19 18  1  0
 20 22  1  0
 21 19  1  0
 21 24  1  0
 24 10  1  0
 24 22  1  0
 25 26  2  0
 26 27  1  0
 26 45  1  0
 27 30  1  0
 28 25  1  0
 28 29  1  0
 29 27  2  0
 30 31  1  0
 31 32  2  0
 33 36  1  0
 33 32  1  0
 34 33  2  0
 35 34  1  0
 35 30  2  0
 36 37  1  0
 37 42  2  0
 37 38  1  0
 38 39  2  0
 39 40  1  0
 40 44  1  0
 41 40  2  0
 42 41  1  0
 43 42  1  0
 45 46  1  0
 46 49  1  0
 46 48  1  0
 47 45  2  0
 50 51  1  0
 50 25  1  0
 52 50  1  0
 53  6  1  0
 54 53  1  0
 55 57  1  0
 55 54  1  0
 56 67  2  0
 57 62  1  0
 58 66  1  0
 58 68  1  0
 59 65  1  0
 59 61  1  0
 60 66  1  0
 61 60  1  0
 62 61  2  0
 63 64  1  0
 63 57  2  0
 64 59  2  0
 65 58  1  0
 66 56  1  0
 68 70  2  0
 69 68  1  0
 71 69  1  0
 72 81  2  0
 72 77  1  0
 73 69  1  0
 73 77  1  0
 74 73  1  0
 75 76  1  0
 75 74  1  0
 76 72  1  0
 77 78  2  0
 78 79  1  0
 80 79  2  0
 81 80  1  0
 82 56  1  0
 82 87  1  0
 82 83  1  0
 83 86  1  1
 83 84  1  0
 85 83  1  0
 87 90  1  0
 88 87  1  0
 88 92  1  0
 89 88  2  0
 92 91  1  0
 92 94  1  0
 94 95  1  0
 94 93  1  0
M  ISO  4  10 100  24 100  54 101  55 101
M  END
>  <TORSDO>  (41) 
F 20

>  <SCORE>  (41) 
-11.141

>  <name>  (41) 
40

>  <ligand_id>  (41) 
40

>  <original_smiles>  (41) 
[H]c1c([H])c([H])c2c(c1[H])C([H])([H])C([H])([H])C([H])([H])C2([H])N([H])C(=O)C1([H])N(C(=O)C([H])(N([H])C(=O)C([H])(N([H])C([H])([H])[H])C([H])([H])[H])C(C([H])([H])[H])(C([H])([H])[H])C([H])([H])[H])C([H])([H])c2c([H])c(OC([H])([H])C([H])([H])[N+]3([H])C([H])([H])C([H])([H])C([H])(C([H])([H])C([H])([H])N=C4C([H])([H])C([H])([H])N(C(=O)N5C([H])([H])C([H])([H])C([H])([H])C([H])(n6nc(-c7c([H])c([H])c(Oc8c([H])c([H])c(F)c([H])c8F)c([H])c7[H])c(C(=O)N([H])[H])c6N([H])[H])C5([H])[H])C([H])([H])C4([H])[H])C([H])([H])C3([H])[H])c([H])c([H])c2C1([H])[H]

>  <smiles>  (41) 
[H]c1c([H])c([H])c2c(c1[H])C([H])([H])C([H])([H])C([H])([H])C2([H])N([H])C(=O)C1([H])N(C(=O)C([H])(N([H])C(=O)C([H])(N([H])C([H])([H])[H])C([H])([H])[H])C(C([H])([H])[H])(C([H])([H])[H])C([H])([H])[H])C([H])([H])c2c([H])c(OC([H])([H])C([H])([H])[N+]3([H])C([H])([H])C([H])([H])C([H])(C([H])([H])C([H])([H])N=C4C([H])([H])C([H])([H])N(C(=O)N5C([H])([H])C([H])([H])C([H])([H])C([H])(n6nc(-c7c([H])c([H])c(Oc8c([H])c([H])c(F)c([H])c8F)c([H])c7[H])c(C(=O)N([H])[H])c6N([H])[H])C5([H])[H])C([H])([H])C4([H])[H])C([H])([H])C3([H])[H])c([H])c([H])c2C1([H])[H]

$$$$
41:0:0
     RDKit          3D

 91 99  0  0  1  0  0  0  0  0999 V2000
  -29.3710  -19.3990   18.7860 C   0  0  0  0  0  2  0  0  0  0  0  0
  -29.2870  -19.4520   21.1330 C   0  0  0  0  0  2  0  0  0  0  0  0
  -28.4960  -20.8250   18.9340 C   0  0  0  0  0  2  0  0  0  0  0  0
  -29.3940  -21.1070   21.1080 C   0  0  0  0  0  2  0  0  0  0  0  0
  -30.0250  -18.5450   20.0280 C   0  0  1  0  0  0  0  0  0  0  0  0
  -29.0110  -21.9340   19.8630 N   0  0  2  0  0  4  0  0  0  0  0  0
  -29.8980  -22.1890   19.4510 H   0  0  0  0  0  0  0  0  0  0  0  0
  -30.7220  -15.6970   20.1300 C   0  0  0  0  0  0  0  0  0  0  0  0
  -30.8120  -13.2050   19.4910 C   0  0  0  0  0  2  0  0  0  0  0  0
  -29.9320  -12.8690   18.2640 C   0  0  0  0  0  2  0  0  0  0  0  0
  -28.4800  -12.5950   18.6920 C   0  0  0  0  0  2  0  0  0  0  0  0
  -27.9630  -13.6410   19.7130 C   0  0  0  0  0  3  0  0  0  0  0  0
  -28.9730  -13.9240   20.8440 C   0  0  0  0  0  2  0  0  0  0  0  0
  -30.2080  -14.3840   20.1980 N   0  0  0  0  0  0  0  0  0  0  0  0
  -31.9420  -15.7460   19.9240 O   0  0  0  0  0  0  0  0  0  0  0  0
  -29.8840  -16.9000   20.1160 N   0  0  0  0  0  0  0  0  0  0  0  0
  -28.9160  -16.6310   20.2050 H   0  0  0  0  0  0  0  0  0  0  0  0
  -25.5880  -14.1790   20.4770 C   0  0  0  0  0  0  0  0  0  0  0  0
  -24.5290  -13.3880   20.8290 C   0  0  0  0  0  0  0  0  0  0  0  0
  -25.0040  -12.0410   20.7700 C   0  0  0  0  0  0  0  0  0  0  0  0
  -26.6360  -13.3140   20.2160 N   0  0  0  0  0  0  0  0  0  0  0  0
  -26.2970  -12.0220   20.4620 N   0  0  0  0  0  0  0  0  0  0  0  0
  -24.2850  -10.7700   20.9300 C   0  0  0  0  0  0  0  0  0  0  0  0
  -24.6690   -9.8180   21.8980 C   0  0  0  0  0  3  0  0  0  0  0  0
  -23.9440   -8.6150   22.0460 C   0  0  0  0  0  3  0  0  0  0  0  0
  -22.8220   -8.3570   21.2240 C   0  0  0  0  0  0  0  0  0  0  0  0
  -22.4570   -9.2990   20.2450 C   0  0  0  0  0  3  0  0  0  0  0  0
  -23.1830  -10.4920   20.0970 C   0  0  0  0  0  3  0  0  0  0  0  0
  -22.0740   -7.2060   21.2790 O   0  0  0  0  0  0  0  0  0  0  0  0
  -21.8880   -6.5240   22.4550 C   0  0  0  0  0  0  0  0  0  0  0  0
  -21.2670   -7.1240   23.5730 C   0  0  0  0  0  3  0  0  0  0  0  0
  -21.0320   -6.3670   24.7380 C   0  0  0  0  0  3  0  0  0  0  0  0
  -21.4080   -5.0110   24.7840 C   0  0  0  0  0  0  0  0  0  0  0  0
  -22.0200   -4.4110   23.6700 C   0  0  0  0  0  3  0  0  0  0  0  0
  -22.2560   -5.1650   22.5080 C   0  0  0  0  0  0  0  0  0  0  0  0
  -22.8270   -4.5760   21.4290 F   0  0  0  0  0  0  0  0  0  0  0  0
  -21.1760   -4.2800   25.9000 F   0  0  0  0  0  0  0  0  0  0  0  0
  -23.1280  -13.8510   21.1010 C   0  0  0  0  0  0  0  0  0  0  0  0
  -22.4040  -13.1390   21.9560 N   0  0  0  0  0  0  0  0  0  0  0  0
  -22.6870  -14.8830   20.5960 O   0  0  0  0  0  0  0  0  0  0  0  0
  -22.7750  -12.3030   22.3830 H   0  0  0  0  0  0  0  0  0  0  0  0
  -21.4660  -13.4330   22.1870 H   0  0  0  0  0  0  0  0  0  0  0  0
  -25.7380  -15.5540   20.3240 N   0  0  0  0  0  0  0  0  0  0  0  0
  -24.9560  -16.1900   20.4380 H   0  0  0  0  0  0  0  0  0  0  0  0
  -26.5640  -16.0070   19.9560 H   0  0  0  0  0  0  0  0  0  0  0  0
  -31.5430  -18.8790   20.1210 C   0  0  0  0  0  2  0  0  0  0  0  0
  -33.5140  -19.5620   21.6410 C   0  0  0  0  0  1  0  0  0  0  0  0
  -32.1290  -18.9090   21.5560 C   0  0  0  0  0  2  0  0  0  0  0  0
  -28.2890  -23.3910   20.1600 C   0  0  0  0  0  2  0  0  0  0  0  0
  -28.1630  -24.8800   19.2460 C   0  0  0  0  0  2  0  0  0  0  0  0
  -28.1560  -26.4460   19.6620 O   0  0  0  0  0  0  0  0  0  0  0  0
  -24.6900  -31.9490   23.2670 C   0  0  0  0  0  0  0  0  0  0  0  0
  -27.0940  -27.4630   19.6830 C   0  0  0  0  0  0  0  0  0  0  0  0
  -23.4050  -30.7030   21.5730 C   0  0  0  0  0  3  0  0  0  0  0  0
  -24.7720  -29.2610   19.9240 C   0  0  0  0  0  0  0  0  0  0  0  0
  -25.9480  -30.9750   21.2950 C   0  0  0  0  0  2  0  0  0  0  0  0
  -25.9840  -29.6380   20.5140 C   0  0  0  0  0  0  0  0  0  0  0  0
  -27.1340  -28.7590   20.3780 C   0  0  0  0  0  3  0  0  0  0  0  0
  -25.8550  -27.2180   19.0550 C   0  0  0  0  0  3  0  0  0  0  0  0
  -24.7270  -28.0710   19.1750 C   0  0  0  0  0  3  0  0  0  0  0  0
  -23.5500  -30.1530   20.1260 C   0  0  0  0  0  2  0  0  0  0  0  0
  -24.7050  -31.2300   22.1000 N   0  0  0  0  0  0  0  0  0  0  0  0
  -23.6340  -32.1750   23.8770 O   0  0  0  0  0  0  0  0  0  0  0  0
  -22.7760  -29.6130   22.4800 C   0  0  0  0  0  0  0  0  0  0  0  0
  -21.4510  -29.4050   22.3690 N   0  0  0  0  0  0  0  0  0  0  0  0
  -23.4850  -28.9600   23.2490 O   0  0  0  0  0  0  0  0  0  0  0  0
  -20.9280  -29.9830   21.7260 H   0  0  0  0  0  0  0  0  0  0  0  0
  -18.1430  -27.9860   22.8020 C   0  0  0  0  0  0  0  0  0  0  0  0
  -20.6830  -28.3840   23.0900 C   0  0  0  0  0  3  0  0  0  0  0  0
  -20.8670  -26.9920   22.4440 C   0  0  0  0  0  2  0  0  0  0  0  0
  -19.7870  -26.6560   21.4120 C   0  0  0  0  0  2  0  0  0  0  0  0
  -18.3970  -26.6880   22.0550 C   0  0  0  0  0  2  0  0  0  0  0  0
  -19.2150  -28.7890   23.2740 C   0  0  0  0  0  0  0  0  0  0  0  0
  -18.9220  -30.0030   23.9340 C   0  0  0  0  0  3  0  0  0  0  0  0
  -17.5900  -30.4150   24.1250 C   0  0  0  0  0  3  0  0  0  0  0  0
  -16.5320  -29.6100   23.6660 C   0  0  0  0  0  3  0  0  0  0  0  0
  -16.8090  -28.3980   23.0110 C   0  0  0  0  0  3  0  0  0  0  0  0
  -25.9970  -32.5380   23.8790 C   0  0  0  0  0  3  0  0  0  0  0  0
  -26.5580  -31.6810   25.0820 C   0  0  1  0  0  0  0  0  0  0  0  0
  -25.5080  -31.3890   26.1800 C   0  0  0  0  0  1  0  0  0  0  0  0
  -27.1080  -30.3260   24.5860 C   0  0  0  0  0  1  0  0  0  0  0  0
  -27.7460  -32.4200   25.7420 C   0  0  0  0  0  1  0  0  0  0  0  0
  -25.7090  -33.9120   24.3260 N   0  0  0  0  0  0  0  0  0  0  0  0
  -26.0690  -35.0240   23.6700 C   0  0  0  0  0  0  0  0  0  0  0  0
  -26.7420  -35.0000   22.6380 O   0  0  0  0  0  0  0  0  0  0  0  0
  -25.1150  -34.0080   25.1360 H   0  0  0  0  0  0  0  0  0  0  0  0
  -24.3960  -36.8940   23.4670 C   0  0  0  0  0  1  0  0  0  0  0  0
  -25.6100  -36.3760   24.2540 C   0  0  0  0  0  3  0  0  0  0  0  0
  -27.7480  -37.1240   25.2000 C   0  0  0  0  0  1  0  0  0  0  0  0
  -26.6690  -37.4080   24.2580 N   0  0  0  0  0  0  0  0  0  0  0  0
  -26.2810  -38.3210   24.4830 H   0  0  0  0  0  0  0  0  0  0  0  0
  1  3  1  0
  1  5  1  0
  3  6  1  0
  4  2  1  0
  5 16  1  0
  5 46  1  1
  5  2  1  0
  6 49  1  0
  6  4  1  0
  6  7  1  6
  8 14  1  0
  9 14  1  0
 10 11  1  0
 10  9  1  0
 12 11  1  0
 12 21  1  0
 12 13  1  0
 14 13  1  0
 15  8  2  0
 16  8  1  0
 16 17  1  0
 18 19  2  0
 19 38  1  0
 20 19  1  0
 20 23  1  0
 21 22  1  0
 21 18  1  0
 22 20  2  0
 23 24  1  0
 24 25  2  0
 26 29  1  0
 26 25  1  0
 27 26  2  0
 28 27  1  0
 28 23  2  0
 29 30  1  0
 30 35  2  0
 30 31  1  0
 31 32  2  0
 32 33  1  0
 33 37  1  0
 34 33  2  0
 35 34  1  0
 36 35  1  0
 38 39  1  0
 39 42  1  0
 39 41  1  0
 40 38  2  0
 43 44  1  0
 43 18  1  0
 45 43  1  0
 46 48  1  0
 48 47  1  0
 50 51  1  0
 50 49  1  0
 51 53  1  0
 52 63  2  0
 53 58  1  0
 54 62  1  0
 54 64  1  0
 55 61  1  0
 55 57  1  0
 56 62  1  0
 57 56  1  0
 58 57  2  0
 59 60  1  0
 59 53  2  0
 60 55  2  0
 61 54  1  0
 62 52  1  0
 64 66  2  0
 65 64  1  0
 67 65  1  0
 68 77  2  0
 68 73  1  0
 69 65  1  0
 69 73  1  0
 70 69  1  0
 71 72  1  0
 71 70  1  0
 72 68  1  0
 73 74  2  0
 74 75  1  0
 76 75  2  0
 77 76  1  0
 78 52  1  0
 78 83  1  0
 78 79  1  0
 79 82  1  1
 79 80  1  0
 81 79  1  0
 83 86  1  0
 84 88  1  0
 84 83  1  0
 85 84  2  0
 88 87  1  0
 88 90  1  0
 90 91  1  0
 90 89  1  0
M  ISO  4   8 100  16 100  50 101  51 101
M  END
>  <TORSDO>  (42) 
F 20

>  <SCORE>  (42) 
-13.763

>  <name>  (42) 
41

>  <ligand_id>  (42) 
41

>  <original_smiles>  (42) 
[H]c1c([H])c([H])c2c(c1[H])C([H])([H])C([H])([H])C([H])([H])C2([H])N([H])C(=O)C1([H])N(C(=O)C([H])(N([H])C(=O)C([H])(N([H])C([H])([H])[H])C([H])([H])[H])C(C([H])([H])[H])(C([H])([H])[H])C([H])([H])[H])C([H])([H])c2c([H])c(OC([H])([H])C([H])([H])[N+]3([H])C([H])([H])C([H])([H])C(N([H])C(=O)N4C([H])([H])C([H])([H])C([H])([H])C([H])(n5nc(-c6c([H])c([H])c(Oc7c([H])c([H])c(F)c([H])c7F)c([H])c6[H])c(C(=O)N([H])[H])c5N([H])[H])C4([H])[H])(C([H])([H])C([H])([H])C([H])([H])[H])C([H])([H])C3([H])[H])c([H])c([H])c2C1([H])[H]

>  <smiles>  (42) 
[H]c1c([H])c([H])c2c(c1[H])C([H])([H])C([H])([H])C([H])([H])C2([H])N([H])C(=O)C1([H])N(C(=O)C([H])(N([H])C(=O)C([H])(N([H])C([H])([H])[H])C([H])([H])[H])C(C([H])([H])[H])(C([H])([H])[H])C([H])([H])[H])C([H])([H])c2c([H])c(OC([H])([H])C([H])([H])[N+]3([H])C([H])([H])C([H])([H])C(N([H])C(=O)N4C([H])([H])C([H])([H])C([H])([H])C([H])(n5nc(-c6c([H])c([H])c(Oc7c([H])c([H])c(F)c([H])c7F)c([H])c6[H])c(C(=O)N([H])[H])c5N([H])[H])C4([H])[H])(C([H])([H])C([H])([H])C([H])([H])[H])C([H])([H])C3([H])[H])c([H])c([H])c2C1([H])[H]

$$$$
42:0:0
     RDKit          3D

 91 99  0  0  1  0  0  0  0  0999 V2000
  -30.0540  -21.6420   20.4540 N   0  0  0  0  0  4  0  0  0  0  0  0
  -30.6870  -21.7020   19.6710 H   0  0  0  0  0  0  0  0  0  0  0  0
  -30.5600  -21.9660   21.2610 H   0  0  0  0  0  0  0  0  0  0  0  0
  -28.9810  -17.8770   19.7680 C   0  0  0  0  0  2  0  0  0  0  0  0
  -30.6770  -17.9190   21.6080 C   0  0  0  0  0  2  0  0  0  0  0  0
  -29.2490  -19.3900   19.4750 C   0  0  0  0  0  2  0  0  0  0  0  0
  -30.9490  -19.4230   21.3000 C   0  0  0  0  0  2  0  0  0  0  0  0
  -30.1980  -17.1210   20.3720 C   0  0  0  0  0  3  0  0  0  0  0  0
  -29.7250  -20.1900   20.7200 C   0  0  0  0  0  3  0  0  0  0  0  0
  -30.6370  -14.5970   20.4080 C   0  0  0  0  0  0  0  0  0  0  0  0
  -30.3660  -12.3810   19.3530 C   0  0  0  0  0  2  0  0  0  0  0  0
  -29.4270  -12.5400   18.1360 C   0  0  0  0  0  2  0  0  0  0  0  0
  -27.9550  -12.3920   18.5690 C   0  0  0  0  0  2  0  0  0  0  0  0
  -27.6030  -13.2570   19.8100 C   0  0  0  0  0  3  0  0  0  0  0  0
  -28.6630  -13.0980   20.9240 C   0  0  0  0  0  2  0  0  0  0  0  0
  -29.9780  -13.4020   20.3420 N   0  0  0  0  0  0  0  0  0  0  0  0
  -31.8020  -14.7220   20.0220 O   0  0  0  0  0  0  0  0  0  0  0  0
  -29.8780  -15.6930   20.6810 N   0  0  0  0  0  0  0  0  0  0  0  0
  -28.9330  -15.4960   20.9730 H   0  0  0  0  0  0  0  0  0  0  0  0
  -25.2080  -13.8580   20.5270 C   0  0  0  0  0  0  0  0  0  0  0  0
  -24.1390  -13.0850   20.8940 C   0  0  0  0  0  0  0  0  0  0  0  0
  -24.5990  -11.7330   20.8600 C   0  0  0  0  0  0  0  0  0  0  0  0
  -26.2520  -12.9780   20.2930 N   0  0  0  0  0  0  0  0  0  0  0  0
  -25.8900  -11.6940   20.5520 N   0  0  0  0  0  0  0  0  0  0  0  0
  -23.8710  -10.4710   21.0450 C   0  0  0  0  0  0  0  0  0  0  0  0
  -24.2930   -9.5060   21.9850 C   0  0  0  0  0  3  0  0  0  0  0  0
  -23.5660   -8.3090   22.1570 C   0  0  0  0  0  3  0  0  0  0  0  0
  -22.4030   -8.0670   21.3870 C   0  0  0  0  0  0  0  0  0  0  0  0
  -22.0010   -9.0210   20.4360 C   0  0  0  0  0  3  0  0  0  0  0  0
  -22.7290  -10.2100   20.2620 C   0  0  0  0  0  3  0  0  0  0  0  0
  -21.6470   -6.9230   21.4690 O   0  0  0  0  0  0  0  0  0  0  0  0
  -21.5720   -6.1910   22.6280 C   0  0  0  0  0  0  0  0  0  0  0  0
  -21.0800   -6.7460   23.8280 C   0  0  0  0  0  3  0  0  0  0  0  0
  -20.9540   -5.9390   24.9770 C   0  0  0  0  0  3  0  0  0  0  0  0
  -21.3120   -4.5780   24.9250 C   0  0  0  0  0  0  0  0  0  0  0  0
  -21.7970   -4.0230   23.7270 C   0  0  0  0  0  3  0  0  0  0  0  0
  -21.9240   -4.8270   22.5810 C   0  0  0  0  0  0  0  0  0  0  0  0
  -22.3730   -4.2820   21.4250 F   0  0  0  0  0  0  0  0  0  0  0  0
  -21.1840   -3.8000   26.0250 F   0  0  0  0  0  0  0  0  0  0  0  0
  -22.7430  -13.5640   21.1670 C   0  0  0  0  0  0  0  0  0  0  0  0
  -22.0110  -12.8650   22.0280 N   0  0  0  0  0  0  0  0  0  0  0  0
  -22.3060  -14.5920   20.6510 O   0  0  0  0  0  0  0  0  0  0  0  0
  -22.3740  -12.0310   22.4660 H   0  0  0  0  0  0  0  0  0  0  0  0
  -21.0740  -13.1680   22.2520 H   0  0  0  0  0  0  0  0  0  0  0  0
  -25.3730  -15.2280   20.3530 N   0  0  0  0  0  0  0  0  0  0  0  0
  -24.6000  -15.8780   20.4480 H   0  0  0  0  0  0  0  0  0  0  0  0
  -26.2140  -15.6650   19.9970 H   0  0  0  0  0  0  0  0  0  0  0  0
  -28.9260  -22.6180   20.2440 C   0  0  0  0  0  2  0  0  0  0  0  0
  -29.3140  -24.1520   20.3360 C   0  0  0  0  0  2  0  0  0  0  0  0
  -28.1610  -25.1460   19.9540 C   0  0  0  0  0  2  0  0  0  0  0  0
  -28.3460  -26.5780   20.2070 O   0  0  0  0  0  0  0  0  0  0  0  0
  -24.5640  -31.8920   23.2290 C   0  0  0  0  0  0  0  0  0  0  0  0
  -27.2040  -27.3850   20.1610 C   0  0  0  0  0  0  0  0  0  0  0  0
  -23.3670  -30.4950   21.5810 C   0  0  0  0  0  3  0  0  0  0  0  0
  -24.8240  -28.9590   20.1580 C   0  0  0  0  0  0  0  0  0  0  0  0
  -25.9040  -30.8280   21.4070 C   0  0  0  0  0  2  0  0  0  0  0  0
  -25.9870  -29.4560   20.7570 C   0  0  0  0  0  0  0  0  0  0  0  0
  -27.1790  -28.6790   20.7520 C   0  0  0  0  0  3  0  0  0  0  0  0
  -26.0150  -26.9320   19.5370 C   0  0  0  0  0  3  0  0  0  0  0  0
  -24.8370  -27.6980   19.5420 C   0  0  0  0  0  3  0  0  0  0  0  0
  -23.5830  -29.8230   20.2000 C   0  0  0  0  0  2  0  0  0  0  0  0
  -24.6300  -31.0880   22.1300 N   0  0  0  0  0  0  0  0  0  0  0  0
  -23.4790  -32.1680   23.7590 O   0  0  0  0  0  0  0  0  0  0  0  0
  -22.7020  -29.4770   22.5350 C   0  0  0  0  0  0  0  0  0  0  0  0
  -21.3770  -29.2990   22.3980 N   0  0  0  0  0  0  0  0  0  0  0  0
  -23.3760  -28.8470   23.3540 O   0  0  0  0  0  0  0  0  0  0  0  0
  -20.8950  -29.8590   21.7080 H   0  0  0  0  0  0  0  0  0  0  0  0
  -17.9880  -28.1340   22.8860 C   0  0  0  0  0  0  0  0  0  0  0  0
  -20.5500  -28.3620   23.1580 C   0  0  0  0  0  3  0  0  0  0  0  0
  -20.6370  -26.9360   22.5680 C   0  0  0  0  0  2  0  0  0  0  0  0
  -19.5300  -26.6350   21.5530 C   0  0  0  0  0  2  0  0  0  0  0  0
  -18.1490  -26.7870   22.1990 C   0  0  0  0  0  2  0  0  0  0  0  0
  -19.1160  -28.8790   23.3220 C   0  0  0  0  0  0  0  0  0  0  0  0
  -18.9120  -30.1390   23.9240 C   0  0  0  0  0  3  0  0  0  0  0  0
  -17.6140  -30.6540   24.0970 C   0  0  0  0  0  3  0  0  0  0  0  0
  -16.5000  -29.9040   23.6820 C   0  0  0  0  0  3  0  0  0  0  0  0
  -16.6880  -28.6470   23.0790 C   0  0  0  0  0  3  0  0  0  0  0  0
  -25.8460  -32.5190   23.8600 C   0  0  0  0  0  3  0  0  0  0  0  0
  -26.3480  -31.7460   25.1400 C   0  0  1  0  0  0  0  0  0  0  0  0
  -25.2450  -31.5080   26.1970 C   0  0  0  0  0  1  0  0  0  0  0  0
  -26.9350  -30.3700   24.7510 C   0  0  0  0  0  1  0  0  0  0  0  0
  -27.4920  -32.5390   25.8140 C   0  0  0  0  0  1  0  0  0  0  0  0
  -25.5400  -33.9190   24.1860 N   0  0  0  0  0  0  0  0  0  0  0  0
  -25.8720  -34.9690   23.4230 C   0  0  0  0  0  0  0  0  0  0  0  0
  -26.5410  -34.8600   22.3920 O   0  0  0  0  0  0  0  0  0  0  0  0
  -24.9510  -34.0770   24.9900 H   0  0  0  0  0  0  0  0  0  0  0  0
  -24.1490  -36.7620   23.0610 C   0  0  0  0  0  1  0  0  0  0  0  0
  -25.3880  -36.3590   23.8760 C   0  0  0  0  0  3  0  0  0  0  0  0
  -27.5180  -37.2440   24.7120 C   0  0  0  0  0  1  0  0  0  0  0  0
  -26.4220  -37.4100   23.7620 N   0  0  0  0  0  0  0  0  0  0  0  0
  -26.0170  -38.3320   23.9010 H   0  0  0  0  0  0  0  0  0  0  0  0
  1  3  1  0
  2  1  1  0
  4  8  1  0
  6  4  1  0
  6  9  1  0
  7  5  1  0
  8 18  1  0
  8  5  1  0
  9  1  1  0
  9  7  1  0
 10 18  1  0
 11 16  1  0
 12 13  1  0
 12 11  1  0
 14 13  1  0
 14 23  1  0
 14 15  1  0
 16 10  1  0
 16 15  1  0
 17 10  2  0
 18 19  1  0
 20 21  2  0
 21 40  1  0
 22 21  1  0
 22 25  1  0
 23 20  1  0
 23 24  1  0
 24 22  2  0
 25 26  1  0
 26 27  2  0
 28 31  1  0
 28 27  1  0
 29 28  2  0
 30 29  1  0
 30 25  2  0
 31 32  1  0
 32 33  1  0
 33 34  2  0
 35 34  1  0
 35 39  1  0
 36 35  2  0
 37 32  2  0
 37 36  1  0
 38 37  1  0
 40 41  1  0
 41 44  1  0
 41 43  1  0
 42 40  2  0
 45 46  1  0
 45 20  1  0
 47 45  1  0
 48 49  1  0
 48  1  1  0
 50 51  1  0
 50 49  1  0
 52 63  2  0
 53 51  1  0
 53 58  1  0
 54 62  1  0
 54 64  1  0
 55 61  1  0
 55 57  1  0
 56 62  1  0
 57 56  1  0
 58 57  2  0
 59 60  1  0
 59 53  2  0
 60 55  2  0
 61 54  1  0
 62 52  1  0
 64 66  2  0
 65 64  1  0
 67 65  1  0
 68 77  2  0
 68 73  1  0
 69 65  1  0
 69 73  1  0
 70 69  1  0
 71 72  1  0
 71 70  1  0
 72 68  1  0
 73 74  2  0
 74 75  1  0
 76 75  2  0
 77 76  1  0
 78 52  1  0
 78 83  1  0
 78 79  1  0
 79 82  1  1
 79 80  1  0
 81 79  1  0
 83 86  1  0
 84 88  1  0
 84 83  1  0
 85 84  2  0
 88 87  1  0
 90 88  1  0
 90 91  1  0
 90 89  1  0
M  ISO  4  10 100  18 100  50 101  51 101
M  END
>  <TORSDO>  (43) 
F 20

>  <SCORE>  (43) 
-13.908

>  <name>  (43) 
42

>  <ligand_id>  (43) 
42

>  <original_smiles>  (43) 
[H]c1c([H])c([H])c2c(c1[H])C([H])([H])C([H])([H])C([H])([H])C2([H])N([H])C(=O)C1([H])N(C(=O)C([H])(N([H])C(=O)C([H])(N([H])C([H])([H])[H])C([H])([H])[H])C(C([H])([H])[H])(C([H])([H])[H])C([H])([H])[H])C([H])([H])c2c([H])c(OC([H])([H])C([H])([H])C([H])([H])[N+]([H])([H])C3([H])C([H])([H])C([H])([H])C([H])(N([H])C(=O)N4C([H])([H])C([H])([H])C([H])([H])C([H])(n5nc(-c6c([H])c([H])c(Oc7c([H])c([H])c(F)c([H])c7F)c([H])c6[H])c(C(=O)N([H])[H])c5N([H])[H])C4([H])[H])C([H])([H])C3([H])[H])c([H])c([H])c2C1([H])[H]

>  <smiles>  (43) 
[H]c1c([H])c([H])c2c(c1[H])C([H])([H])C([H])([H])C([H])([H])C2([H])N([H])C(=O)C1([H])N(C(=O)C([H])(N([H])C(=O)C([H])(N([H])C([H])([H])[H])C([H])([H])[H])C(C([H])([H])[H])(C([H])([H])[H])C([H])([H])[H])C([H])([H])c2c([H])c(OC([H])([H])C([H])([H])C([H])([H])[N+]([H])([H])C3([H])C([H])([H])C([H])([H])C([H])(N([H])C(=O)N4C([H])([H])C([H])([H])C([H])([H])C([H])(n5nc(-c6c([H])c([H])c(Oc7c([H])c([H])c(F)c([H])c7F)c([H])c6[H])c(C(=O)N([H])[H])c5N([H])[H])C4([H])[H])C([H])([H])C3([H])[H])c([H])c([H])c2C1([H])[H]

$$$$
43:0:0
     RDKit          3D

 97105  0  0  1  0  0  0  0  0999 V2000
  -25.4810  -22.1910   16.9500 C   0  0  0  0  0  2  0  0  0  0  0  0
  -25.4530  -21.1840   18.1210 C   0  0  0  0  0  2  0  0  0  0  0  0
  -27.9710  -21.1480   18.6020 C   0  0  0  0  0  2  0  0  0  0  0  0
  -26.1710  -23.5530   17.2110 C   0  0  0  0  0  2  0  0  0  0  0  0
  -28.3000  -22.3000   17.6330 C   0  0  0  0  0  2  0  0  0  0  0  0
  -26.7290  -20.3100   18.2060 C   0  0  0  0  0  3  0  0  0  0  0  0
  -27.4790  -23.5070   17.9230 N   0  0  1  0  0  4  0  0  0  0  0  0
  -27.2450  -23.4450   18.9020 H   0  0  0  0  0  0  0  0  0  0  0  0
  -26.5210  -19.1490   19.1120 N   0  0  0  0  0  4  0  0  0  0  0  0
  -25.6800  -18.6800   18.8140 H   0  0  0  0  0  0  0  0  0  0  0  0
  -26.3550  -19.4520   20.0570 H   0  0  0  0  0  0  0  0  0  0  0  0
  -27.5930  -18.1210   19.0890 C   0  0  0  0  0  2  0  0  0  0  0  0
  -28.3600  -18.0310   20.4290 C   0  0  0  0  0  2  0  0  0  0  0  0
  -29.8570  -17.6770   20.2720 C   0  0  0  0  0  2  0  0  0  0  0  0
  -30.4350  -16.8720   21.4550 C   0  0  0  0  0  2  0  0  0  0  0  0
  -30.7420  -14.5530   20.6220 C   0  0  0  0  0  0  0  0  0  0  0  0
  -30.4220  -12.5410   19.2450 C   0  0  0  0  0  2  0  0  0  0  0  0
  -29.4590  -12.8580   18.0830 C   0  0  0  0  0  2  0  0  0  0  0  0
  -27.9840  -12.7280   18.5160 C   0  0  0  0  0  2  0  0  0  0  0  0
  -27.6820  -13.4370   19.8670 C   0  0  0  0  0  3  0  0  0  0  0  0
  -28.7430  -13.0540   20.9240 C   0  0  0  0  0  2  0  0  0  0  0  0
  -30.0680  -13.4020   20.3830 N   0  0  0  0  0  0  0  0  0  0  0  0
  -31.8310  -14.8230   20.1070 O   0  0  0  0  0  0  0  0  0  0  0  0
  -30.0740  -15.4590   21.3530 N   0  0  0  0  0  0  0  0  0  0  0  0
  -29.2070  -15.1590   21.7740 H   0  0  0  0  0  0  0  0  0  0  0  0
  -25.2660  -14.0140   20.5520 C   0  0  0  0  0  0  0  0  0  0  0  0
  -24.2020  -13.2240   20.9030 C   0  0  0  0  0  0  0  0  0  0  0  0
  -24.6830  -11.8790   20.8650 C   0  0  0  0  0  0  0  0  0  0  0  0
  -26.3250  -13.1470   20.3270 N   0  0  0  0  0  0  0  0  0  0  0  0
  -25.9750  -11.8580   20.5700 N   0  0  0  0  0  0  0  0  0  0  0  0
  -23.9750  -10.6040   21.0420 C   0  0  0  0  0  0  0  0  0  0  0  0
  -24.4060   -9.6430   21.9820 C   0  0  0  0  0  3  0  0  0  0  0  0
  -23.7020   -8.4300   22.1420 C   0  0  0  0  0  3  0  0  0  0  0  0
  -22.5500   -8.1720   21.3620 C   0  0  0  0  0  0  0  0  0  0  0  0
  -22.1370   -9.1200   20.4110 C   0  0  0  0  0  3  0  0  0  0  0  0
  -22.8430  -10.3250   20.2490 C   0  0  0  0  0  3  0  0  0  0  0  0
  -21.8100   -7.0160   21.4340 O   0  0  0  0  0  0  0  0  0  0  0  0
  -21.7360   -6.2850   22.5900 C   0  0  0  0  0  0  0  0  0  0  0  0
  -21.2320   -6.8320   23.7900 C   0  0  0  0  0  3  0  0  0  0  0  0
  -21.1080   -6.0200   24.9350 C   0  0  0  0  0  3  0  0  0  0  0  0
  -21.4810   -4.6630   24.8830 C   0  0  0  0  0  0  0  0  0  0  0  0
  -21.9820   -4.1160   23.6870 C   0  0  0  0  0  3  0  0  0  0  0  0
  -22.1050   -4.9250   22.5450 C   0  0  0  0  0  0  0  0  0  0  0  0
  -22.5680   -4.3880   21.3900 F   0  0  0  0  0  0  0  0  0  0  0  0
  -21.3520   -3.8830   25.9810 F   0  0  0  0  0  0  0  0  0  0  0  0
  -22.7960  -13.6790   21.1650 C   0  0  0  0  0  0  0  0  0  0  0  0
  -22.0660  -12.9660   22.0170 N   0  0  0  0  0  0  0  0  0  0  0  0
  -22.3490  -14.7030   20.6490 O   0  0  0  0  0  0  0  0  0  0  0  0
  -22.4370  -12.1400   22.4630 H   0  0  0  0  0  0  0  0  0  0  0  0
  -21.1190  -13.2480   22.2210 H   0  0  0  0  0  0  0  0  0  0  0  0
  -25.4200  -15.3870   20.3920 N   0  0  0  0  0  0  0  0  0  0  0  0
  -24.6880  -16.0410   20.6400 H   0  0  0  0  0  0  0  0  0  0  0  0
  -26.3060  -15.8280   20.1890 H   0  0  0  0  0  0  0  0  0  0  0  0
  -28.2430  -24.7820   17.7820 C   0  0  0  0  0  2  0  0  0  0  0  0
  -29.2310  -25.0330   18.9420 C   0  0  0  0  0  2  0  0  0  0  0  0
  -28.5980  -25.5070   20.2670 C   0  0  0  0  0  2  0  0  0  0  0  0
  -28.5140  -26.9290   20.3030 O   0  0  0  0  0  0  0  0  0  0  0  0
  -24.5640  -31.9480   23.3660 C   0  0  0  0  0  0  0  0  0  0  0  0
  -27.2900  -27.5590   20.3070 C   0  0  0  0  0  0  0  0  0  0  0  0
  -23.3850  -30.5400   21.7070 C   0  0  0  0  0  3  0  0  0  0  0  0
  -24.8660  -29.0130   20.3010 C   0  0  0  0  0  0  0  0  0  0  0  0
  -25.9040  -30.9310   21.5280 C   0  0  0  0  0  2  0  0  0  0  0  0
  -26.0100  -29.5600   20.8950 C   0  0  0  0  0  0  0  0  0  0  0  0
  -27.2200  -28.8410   20.8920 C   0  0  0  0  0  3  0  0  0  0  0  0
  -26.1240  -27.0120   19.7230 C   0  0  0  0  0  3  0  0  0  0  0  0
  -24.9160  -27.7360   19.7180 C   0  0  0  0  0  3  0  0  0  0  0  0
  -23.6130  -29.8580   20.3310 C   0  0  0  0  0  2  0  0  0  0  0  0
  -24.6360  -31.1530   22.2620 N   0  0  0  0  0  0  0  0  0  0  0  0
  -23.4760  -32.2080   23.8990 O   0  0  0  0  0  0  0  0  0  0  0  0
  -22.7340  -29.5120   22.6600 C   0  0  0  0  0  0  0  0  0  0  0  0
  -21.4190  -29.2930   22.4940 N   0  0  0  0  0  0  0  0  0  0  0  0
  -23.4090  -28.9120   23.5020 O   0  0  0  0  0  0  0  0  0  0  0  0
  -20.9350  -29.8310   21.7870 H   0  0  0  0  0  0  0  0  0  0  0  0
  -18.0670  -28.0090   22.8850 C   0  0  0  0  0  0  0  0  0  0  0  0
  -20.6050  -28.3410   23.2480 C   0  0  0  0  0  3  0  0  0  0  0  0
  -20.7680  -26.9060   22.6950 C   0  0  0  0  0  2  0  0  0  0  0  0
  -19.7140  -26.5390   21.6460 C   0  0  0  0  0  2  0  0  0  0  0  0
  -18.3060  -26.6560   22.2360 C   0  0  0  0  0  2  0  0  0  0  0  0
  -19.1470  -28.8060   23.3450 C   0  0  0  0  0  0  0  0  0  0  0  0
  -18.8730  -30.0720   23.9080 C   0  0  0  0  0  3  0  0  0  0  0  0
  -17.5490  -30.5410   24.0160 C   0  0  0  0  0  3  0  0  0  0  0  0
  -16.4820  -29.7390   23.5740 C   0  0  0  0  0  3  0  0  0  0  0  0
  -16.7410  -28.4760   23.0130 C   0  0  0  0  0  3  0  0  0  0  0  0
  -25.8390  -32.5870   24.0010 C   0  0  0  0  0  3  0  0  0  0  0  0
  -25.5350  -33.9960   24.2800 N   0  0  0  0  0  0  0  0  0  0  0  0
  -25.9030  -35.0220   23.5000 C   0  0  0  0  0  0  0  0  0  0  0  0
  -26.6030  -34.8800   22.4930 O   0  0  0  0  0  0  0  0  0  0  0  0
  -24.9170  -34.1820   25.0570 H   0  0  0  0  0  0  0  0  0  0  0  0
  -24.2070  -36.8200   23.0320 C   0  0  0  0  0  1  0  0  0  0  0  0
  -25.4150  -36.4280   23.8980 C   0  0  0  0  0  3  0  0  0  0  0  0
  -27.5300  -37.3140   24.7750 C   0  0  0  0  0  1  0  0  0  0  0  0
  -26.4610  -37.4680   23.7920 N   0  0  0  0  0  0  0  0  0  0  0  0
  -26.0600  -38.3940   23.9030 H   0  0  0  0  0  0  0  0  0  0  0  0
  -26.3220  -31.8490   25.3100 C   0  0  1  0  0  0  0  0  0  0  0  0
  -25.1990  -31.6340   26.3510 C   0  0  0  0  0  1  0  0  0  0  0  0
  -26.9190  -30.4640   24.9640 C   0  0  0  0  0  1  0  0  0  0  0  0
  -27.4520  -32.6610   25.9850 C   0  0  0  0  0  1  0  0  0  0  0  0
  1  4  1  0
  1  2  1  0
  2  6  1  0
  4  7  1  0
  5  7  1  0
  5  3  1  0
  6  3  1  0
  6  9  1  0
  7  8  1  1
  9 11  1  0
 10  9  1  0
 12  9  1  0
 12 13  1  0
 14 13  1  0
 14 15  1  0
 16 24  1  0
 17 22  1  0
 18 19  1  0
 18 17  1  0
 20 19  1  0
 20 29  1  0
 20 21  1  0
 22 16  1  0
 22 21  1  0
 23 16  2  0
 24 15  1  0
 24 25  1  0
 26 27  2  0
 27 46  1  0
 28 27  1  0
 28 31  1  0
 29 26  1  0
 29 30  1  0
 30 28  2  0
 31 32  1  0
 32 33  2  0
 34 37  1  0
 34 33  1  0
 35 34  2  0
 36 35  1  0
 36 31  2  0
 37 38  1  0
 38 39  1  0
 39 40  2  0
 41 40  1  0
 41 45  1  0
 42 41  2  0
 43 38  2  0
 43 42  1  0
 44 43  1  0
 46 47  1  0
 47 50  1  0
 47 49  1  0
 48 46  2  0
 51 26  1  0
 51 52  1  0
 53 51  1  0
 54  7  1  0
 54 55  1  0
 55 56  1  0
 56 57  1  0
 57 59  1  0
 58 69  2  0
 59 64  1  0
 60 68  1  0
 60 70  1  0
 61 67  1  0
 61 63  1  0
 62 68  1  0
 63 62  1  0
 64 63  2  0
 65 59  2  0
 66 65  1  0
 66 61  2  0
 67 60  1  0
 68 58  1  0
 70 72  2  0
 71 70  1  0
 73 71  1  0
 74 83  2  0
 74 79  1  0
 75 71  1  0
 75 79  1  0
 76 75  1  0
 77 78  1  0
 77 76  1  0
 78 74  1  0
 79 80  2  0
 80 81  1  0
 82 81  2  0
 83 82  1  0
 84 58  1  0
 84 85  1  0
 84 94  1  0
 85 88  1  0
 86 90  1  0
 86 85  1  0
 87 86  2  0
 90 89  1  0
 92 90  1  0
 92 93  1  0
 92 91  1  0
 94 97  1  1
 94 95  1  0
 96 94  1  0
M  ISO  4  16 100  24 100  56 101  57 101
M  END
>  <TORSDO>  (44) 
F 24

>  <SCORE>  (44) 
-12.240

>  <name>  (44) 
43

>  <ligand_id>  (44) 
43

>  <original_smiles>  (44) 
[H]c1c([H])c([H])c2c(c1[H])C([H])([H])C([H])([H])C([H])([H])C2([H])N([H])C(=O)C1([H])N(C(=O)C([H])(N([H])C(=O)C([H])(N([H])C([H])([H])[H])C([H])([H])[H])C(C([H])([H])[H])(C([H])([H])[H])C([H])([H])[H])C([H])([H])c2c([H])c(OC([H])([H])C([H])([H])C([H])([H])[N+]3([H])C([H])([H])C([H])([H])C([H])([H])C([H])([N+]([H])([H])C([H])([H])C([H])([H])C([H])([H])C([H])([H])N([H])C(=O)N4C([H])([H])C([H])([H])C([H])([H])C([H])(n5nc(-c6c([H])c([H])c(Oc7c([H])c([H])c(F)c([H])c7F)c([H])c6[H])c(C(=O)N([H])[H])c5N([H])[H])C4([H])[H])C([H])([H])C3([H])[H])c([H])c([H])c2C1([H])[H]

>  <smiles>  (44) 
[H]c1c([H])c([H])c2c(c1[H])C([H])([H])C([H])([H])C([H])([H])C2([H])N([H])C(=O)C1([H])N(C(=O)C([H])(N([H])C(=O)C([H])(N([H])C([H])([H])[H])C([H])([H])[H])C(C([H])([H])[H])(C([H])([H])[H])C([H])([H])[H])C([H])([H])c2c([H])c(OC([H])([H])C([H])([H])C([H])([H])[N+]3([H])C([H])([H])C([H])([H])C([H])([H])C([H])([N+]([H])([H])C([H])([H])C([H])([H])C([H])([H])C([H])([H])N([H])C(=O)N4C([H])([H])C([H])([H])C([H])([H])C([H])(n5nc(-c6c([H])c([H])c(Oc7c([H])c([H])c(F)c([H])c7F)c([H])c6[H])c(C(=O)N([H])[H])c5N([H])[H])C4([H])[H])C([H])([H])C3([H])[H])c([H])c([H])c2C1([H])[H]

$$$$
44:0:0
     RDKit          3D

 94103  0  0  1  0  0  0  0  0999 V2000
  -31.3140  -19.1560   20.0510 C   0  0  0  0  0  3  0  0  0  0  0  0
  -29.1550  -18.0520   20.0110 C   0  0  0  0  0  3  0  0  0  0  0  0
  -30.7110  -20.3740   19.6710 C   0  0  0  0  0  3  0  0  0  0  0  0
  -28.5480  -19.2790   19.6350 C   0  0  0  0  0  3  0  0  0  0  0  0
  -30.5500  -17.9780   20.2320 C   0  0  0  0  0  0  0  0  0  0  0  0
  -29.3160  -20.4590   19.4660 C   0  0  0  0  0  0  0  0  0  0  0  0
  -30.8150  -14.5370   19.6730 C   0  0  0  0  0  0  0  0  0  0  0  0
  -30.2490  -12.4670   18.4240 C   0  0  0  0  0  2  0  0  0  0  0  0
  -29.1820  -12.7110   17.3390 C   0  0  0  0  0  2  0  0  0  0  0  0
  -27.7680  -12.5600   17.9270 C   0  0  0  0  0  2  0  0  0  0  0  0
  -27.5910  -13.3730   19.2330 C   0  0  0  0  0  3  0  0  0  0  0  0
  -28.7540  -13.1210   20.2100 C   0  0  0  0  0  2  0  0  0  0  0  0
  -30.0310  -13.4200   19.5330 N   0  0  0  0  0  0  0  0  0  0  0  0
  -31.7040  -14.7860   18.8510 O   0  0  0  0  0  0  0  0  0  0  0  0
  -31.5860  -15.5950   22.9090 C   0  0  0  0  0  2  0  0  0  0  0  0
  -31.5710  -16.9730   22.2890 C   0  0  0  0  0  2  0  0  0  0  0  0
  -30.5280  -14.8590   22.0990 C   0  0  0  0  0  2  0  0  0  0  0  0
  -31.2520  -16.7300   20.8070 C   0  0  0  0  0  3  0  0  0  0  0  0
  -30.5900  -15.3880   20.7240 N   0  0  0  0  0  0  0  0  0  0  0  0
  -25.3300  -13.9960   20.2930 C   0  0  0  0  0  0  0  0  0  0  0  0
  -24.2910  -13.2300   20.7510 C   0  0  0  0  0  0  0  0  0  0  0  0
  -24.6950  -11.8710   20.5750 C   0  0  0  0  0  0  0  0  0  0  0  0
  -26.3000  -13.1030   19.8660 N   0  0  0  0  0  0  0  0  0  0  0  0
  -25.9300  -11.8170   20.0950 N   0  0  0  0  0  0  0  0  0  0  0  0
  -23.9540  -10.6210   20.7790 C   0  0  0  0  0  0  0  0  0  0  0  0
  -24.4090   -9.6280   21.6770 C   0  0  0  0  0  3  0  0  0  0  0  0
  -23.6690   -8.4420   21.8690 C   0  0  0  0  0  3  0  0  0  0  0  0
  -22.4590   -8.2390   21.1650 C   0  0  0  0  0  0  0  0  0  0  0  0
  -22.0220   -9.2180   20.2560 C   0  0  0  0  0  3  0  0  0  0  0  0
  -22.7620  -10.3960   20.0620 C   0  0  0  0  0  3  0  0  0  0  0  0
  -21.6870   -7.1070   21.2680 O   0  0  0  0  0  0  0  0  0  0  0  0
  -21.6010   -6.3990   22.4390 C   0  0  0  0  0  0  0  0  0  0  0  0
  -21.1390   -6.9890   23.6350 C   0  0  0  0  0  3  0  0  0  0  0  0
  -21.0000   -6.2070   24.8000 C   0  0  0  0  0  3  0  0  0  0  0  0
  -21.3140   -4.8360   24.7690 C   0  0  0  0  0  0  0  0  0  0  0  0
  -21.7710   -4.2450   23.5770 C   0  0  0  0  0  3  0  0  0  0  0  0
  -21.9110   -5.0230   22.4150 C   0  0  0  0  0  0  0  0  0  0  0  0
  -22.3310   -4.4450   21.2650 F   0  0  0  0  0  0  0  0  0  0  0  0
  -21.1750   -4.0820   25.8840 F   0  0  0  0  0  0  0  0  0  0  0  0
  -22.9600  -13.7280   21.2350 C   0  0  0  0  0  0  0  0  0  0  0  0
  -22.3300  -13.0010   22.1520 N   0  0  0  0  0  0  0  0  0  0  0  0
  -22.4910  -14.7920   20.8350 O   0  0  0  0  0  0  0  0  0  0  0  0
  -22.7250  -12.1380   22.4950 H   0  0  0  0  0  0  0  0  0  0  0  0
  -21.4420  -13.3130   22.5170 H   0  0  0  0  0  0  0  0  0  0  0  0
  -25.5220  -15.3700   20.1850 N   0  0  0  0  0  0  0  0  0  0  0  0
  -24.8050  -16.0390   20.4410 H   0  0  0  0  0  0  0  0  0  0  0  0
  -26.3430  -15.8030   19.7800 H   0  0  0  0  0  0  0  0  0  0  0  0
  -28.6860  -21.7860   18.9940 C   0  0  0  0  0  2  0  0  0  0  0  0
  -28.6260  -22.8620   20.0220 N   0  0  0  0  0  4  0  0  0  0  0  0
  -29.4980  -22.8510   20.5260 H   0  0  0  0  0  0  0  0  0  0  0  0
  -27.8990  -22.6170   20.6750 H   0  0  0  0  0  0  0  0  0  0  0  0
  -28.3890  -24.2460   19.4840 C   0  0  0  0  0  2  0  0  0  0  0  0
  -28.2610  -25.3450   20.5820 C   0  0  0  0  0  2  0  0  0  0  0  0
  -28.3410  -26.7040   20.0910 O   0  0  0  0  0  0  0  0  0  0  0  0
  -24.5730  -31.9180   23.2020 C   0  0  0  0  0  0  0  0  0  0  0  0
  -27.1750  -27.4460   20.1160 C   0  0  0  0  0  0  0  0  0  0  0  0
  -23.3450  -30.5040   21.5870 C   0  0  0  0  0  3  0  0  0  0  0  0
  -24.7800  -28.9580   20.1500 C   0  0  0  0  0  0  0  0  0  0  0  0
  -25.8680  -30.8650   21.3460 C   0  0  0  0  0  2  0  0  0  0  0  0
  -25.9480  -29.4880   20.7130 C   0  0  0  0  0  0  0  0  0  0  0  0
  -27.1510  -28.7430   20.6850 C   0  0  0  0  0  3  0  0  0  0  0  0
  -25.9900  -26.9300   19.5490 C   0  0  0  0  0  3  0  0  0  0  0  0
  -24.7970  -27.6790   19.5630 C   0  0  0  0  0  3  0  0  0  0  0  0
  -23.5350  -29.8150   20.2090 C   0  0  0  0  0  2  0  0  0  0  0  0
  -24.6150  -31.1110   22.1030 N   0  0  0  0  0  0  0  0  0  0  0  0
  -23.4990  -32.1910   23.7570 O   0  0  0  0  0  0  0  0  0  0  0  0
  -22.7110  -29.4880   22.5630 C   0  0  0  0  0  0  0  0  0  0  0  0
  -21.3890  -29.2780   22.4360 N   0  0  0  0  0  0  0  0  0  0  0  0
  -23.4040  -28.8890   23.3910 O   0  0  0  0  0  0  0  0  0  0  0  0
  -20.8920  -29.8140   21.7390 H   0  0  0  0  0  0  0  0  0  0  0  0
  -18.0390  -28.0210   22.9370 C   0  0  0  0  0  0  0  0  0  0  0  0
  -20.5900  -28.3380   23.2190 C   0  0  0  0  0  3  0  0  0  0  0  0
  -20.7250  -26.8980   22.6700 C   0  0  0  0  0  2  0  0  0  0  0  0
  -19.6360  -26.5350   21.6550 C   0  0  0  0  0  2  0  0  0  0  0  0
  -18.2480  -26.6630   22.2890 C   0  0  0  0  0  2  0  0  0  0  0  0
  -19.1390  -28.8140   23.3590 C   0  0  0  0  0  0  0  0  0  0  0  0
  -18.8900  -30.0840   23.9250 C   0  0  0  0  0  3  0  0  0  0  0  0
  -17.5750  -30.5610   24.0730 C   0  0  0  0  0  3  0  0  0  0  0  0
  -16.4890  -29.7660   23.6680 C   0  0  0  0  0  3  0  0  0  0  0  0
  -16.7220  -28.4970   23.1050 C   0  0  0  0  0  3  0  0  0  0  0  0
  -25.8670  -32.5550   23.7990 C   0  0  0  0  0  3  0  0  0  0  0  0
  -26.4270  -31.7710   25.0490 C   0  0  1  0  0  0  0  0  0  0  0  0
  -25.3590  -31.4720   26.1250 C   0  0  0  0  0  1  0  0  0  0  0  0
  -27.0490  -30.4230   24.6120 C   0  0  0  0  0  1  0  0  0  0  0  0
  -27.5620  -32.5860   25.7140 C   0  0  0  0  0  1  0  0  0  0  0  0
  -25.5520  -33.9440   24.1560 N   0  0  0  0  0  0  0  0  0  0  0  0
  -25.8480  -35.0100   23.4000 C   0  0  0  0  0  0  0  0  0  0  0  0
  -26.4870  -34.9280   22.3480 O   0  0  0  0  0  0  0  0  0  0  0  0
  -24.9800  -34.0820   24.9770 H   0  0  0  0  0  0  0  0  0  0  0  0
  -24.0890  -36.7850   23.1180 C   0  0  0  0  0  1  0  0  0  0  0  0
  -25.3570  -36.3870   23.8900 C   0  0  0  0  0  3  0  0  0  0  0  0
  -27.5000  -37.2910   24.6770 C   0  0  0  0  0  1  0  0  0  0  0  0
  -26.3740  -37.4530   23.7610 N   0  0  0  0  0  0  0  0  0  0  0  0
  -25.9600  -38.3670   23.9260 H   0  0  0  0  0  0  0  0  0  0  0  0
  1  5  1  0
  2  5  2  0
  3  1  2  0
  4  2  1  0
  6  4  2  0
  6  3  1  0
  7 19  1  0
  8 13  1  0
  9 10  1  0
  9  8  1  0
 11 10  1  0
 11 23  1  0
 11 12  1  0
 13  7  1  0
 13 12  1  0
 14  7  2  0
 16 15  1  0
 17 15  1  0
 18  5  1  0
 18 16  1  0
 19 18  1  0
 19 17  1  0
 20 21  2  0
 21 40  1  0
 22 21  1  0
 22 25  1  0
 23 24  1  0
 23 20  1  0
 24 22  2  0
 25 26  1  0
 26 27  2  0
 28 31  1  0
 28 27  1  0
 29 28  2  0
 30 29  1  0
 30 25  2  0
 31 32  1  0
 32 33  1  0
 33 34  2  0
 35 34  1  0
 35 39  1  0
 36 35  2  0
 37 32  2  0
 37 36  1  0
 38 37  1  0
 40 41  1  0
 41 43  1  0
 41 44  1  0
 42 40  2  0
 45 20  1  0
 45 46  1  0
 47 45  1  0
 48  6  1  0
 48 49  1  0
 49 50  1  0
 49 51  1  0
 52 49  1  0
 52 53  1  0
 54 56  1  0
 54 53  1  0
 55 66  2  0
 56 61  1  0
 57 65  1  0
 57 67  1  0
 58 64  1  0
 58 60  1  0
 59 65  1  0
 60 59  1  0
 61 60  2  0
 62 63  1  0
 62 56  2  0
 63 58  2  0
 64 57  1  0
 65 55  1  0
 67 69  2  0
 68 67  1  0
 70 68  1  0
 71 80  2  0
 71 76  1  0
 72 68  1  0
 72 76  1  0
 73 72  1  0
 74 75  1  0
 74 73  1  0
 75 71  1  0
 76 77  2  0
 77 78  1  0
 79 78  2  0
 80 79  1  0
 81 55  1  0
 81 86  1  0
 81 82  1  0
 82 85  1  1
 82 83  1  0
 84 82  1  0
 86 89  1  0
 87 91  1  0
 87 86  1  0
 88 87  2  0
 91 90  1  0
 93 91  1  0
 93 94  1  0
 93 92  1  0
M  ISO  4   7 100  19 100  53 101  54 101
M  END
>  <TORSDO>  (45) 
F 20

>  <SCORE>  (45) 
-10.116

>  <name>  (45) 
44

>  <ligand_id>  (45) 
44

>  <original_smiles>  (45) 
[H]c1c([H])c([H])c2c(c1[H])C([H])([H])C([H])([H])C([H])([H])C2([H])N([H])C(=O)C1([H])N(C(=O)C([H])(N([H])C(=O)C([H])(N([H])C([H])([H])[H])C([H])([H])[H])C(C([H])([H])[H])(C([H])([H])[H])C([H])([H])[H])C([H])([H])c2c([H])c(OC([H])([H])C([H])([H])[N+]([H])([H])C([H])([H])c3c([H])c([H])c(C4([H])N(C(=O)N5C([H])([H])C([H])([H])C([H])([H])C([H])(n6nc(-c7c([H])c([H])c(Oc8c([H])c([H])c(F)c([H])c8F)c([H])c7[H])c(C(=O)N([H])[H])c6N([H])[H])C5([H])[H])C([H])([H])C([H])([H])C4([H])[H])c([H])c3[H])c([H])c([H])c2C1([H])[H]

>  <smiles>  (45) 
[H]c1c([H])c([H])c2c(c1[H])C([H])([H])C([H])([H])C([H])([H])C2([H])N([H])C(=O)C1([H])N(C(=O)C([H])(N([H])C(=O)C([H])(N([H])C([H])([H])[H])C([H])([H])[H])C(C([H])([H])[H])(C([H])([H])[H])C([H])([H])[H])C([H])([H])c2c([H])c(OC([H])([H])C([H])([H])[N+]([H])([H])C([H])([H])c3c([H])c([H])c(C4([H])N(C(=O)N5C([H])([H])C([H])([H])C([H])([H])C([H])(n6nc(-c7c([H])c([H])c(Oc8c([H])c([H])c(F)c([H])c8F)c([H])c7[H])c(C(=O)N([H])[H])c6N([H])[H])C5([H])[H])C([H])([H])C([H])([H])C4([H])[H])c([H])c3[H])c([H])c([H])c2C1([H])[H]

$$$$
45:0:0
     RDKit          3D

 93101  0  0  1  0  0  0  0  0999 V2000
  -29.9800  -20.7770   19.7090 C   0  0  0  0  0  2  0  0  0  0  0  0
  -31.0860  -15.2710   19.4150 C   0  0  0  0  0  0  0  0  0  0  0  0
  -30.8330  -12.9370   18.4300 C   0  0  0  0  0  2  0  0  0  0  0  0
  -29.6950  -12.8670   17.3840 C   0  0  0  0  0  2  0  0  0  0  0  0
  -28.3430  -12.5870   18.0650 C   0  0  0  0  0  2  0  0  0  0  0  0
  -28.1280  -13.4650   19.3220 C   0  0  0  0  0  3  0  0  0  0  0  0
  -29.3700  -13.4880   20.2340 C   0  0  0  0  0  2  0  0  0  0  0  0
  -30.4890  -14.0010   19.4280 N   0  0  0  0  0  0  0  0  0  0  0  0
  -32.1790  -15.3350   18.8370 O   0  0  0  0  0  0  0  0  0  0  0  0
  -29.3340  -18.4060   21.0200 C   0  0  0  0  0  2  0  0  0  0  0  0
  -30.6640  -17.9280   19.1710 C   0  0  0  0  0  2  0  0  0  0  0  0
  -29.6330  -19.1040   19.6800 C   0  0  0  0  0  3  0  0  0  0  0  0
  -29.5840  -16.8340   20.9320 C   0  0  0  0  0  3  0  0  0  0  0  0
  -30.4050  -16.5050   19.7340 N   0  0  0  0  0  0  0  0  0  0  0  0
  -26.0130  -13.9390   20.6790 C   0  0  0  0  0  0  0  0  0  0  0  0
  -25.0130  -13.1280   21.1410 C   0  0  0  0  0  0  0  0  0  0  0  0
  -25.3770  -11.7980   20.7640 C   0  0  0  0  0  0  0  0  0  0  0  0
  -26.9190  -13.1020   20.0500 N   0  0  0  0  0  0  0  0  0  0  0  0
  -26.5610  -11.7970   20.1630 N   0  0  0  0  0  0  0  0  0  0  0  0
  -24.6340  -10.5370   20.8870 C   0  0  0  0  0  0  0  0  0  0  0  0
  -25.0240   -9.5350   21.8030 C   0  0  0  0  0  3  0  0  0  0  0  0
  -24.2800   -8.3410   21.9170 C   0  0  0  0  0  3  0  0  0  0  0  0
  -23.1320   -8.1400   21.1130 C   0  0  0  0  0  0  0  0  0  0  0  0
  -22.7620   -9.1310   20.1870 C   0  0  0  0  0  3  0  0  0  0  0  0
  -23.5060  -10.3160   20.0710 C   0  0  0  0  0  3  0  0  0  0  0  0
  -22.3650   -7.0000   21.1370 O   0  0  0  0  0  0  0  0  0  0  0  0
  -21.9870   -6.4110   22.3170 C   0  0  0  0  0  0  0  0  0  0  0  0
  -21.2910   -7.1240   23.3170 C   0  0  0  0  0  3  0  0  0  0  0  0
  -20.8610   -6.4610   24.4840 C   0  0  0  0  0  3  0  0  0  0  0  0
  -21.1180   -5.0860   24.6490 C   0  0  0  0  0  0  0  0  0  0  0  0
  -21.8070   -4.3730   23.6520 C   0  0  0  0  0  3  0  0  0  0  0  0
  -22.2370   -5.0330   22.4880 C   0  0  0  0  0  0  0  0  0  0  0  0
  -22.8820   -4.3380   21.5210 F   0  0  0  0  0  0  0  0  0  0  0  0
  -20.6980   -4.4490   25.7670 F   0  0  0  0  0  0  0  0  0  0  0  0
  -23.7420  -13.5740   21.8010 C   0  0  0  0  0  0  0  0  0  0  0  0
  -23.1990  -12.7620   22.7010 N   0  0  0  0  0  0  0  0  0  0  0  0
  -23.2470  -14.6740   21.5560 O   0  0  0  0  0  0  0  0  0  0  0  0
  -23.6140  -11.8690   22.9170 H   0  0  0  0  0  0  0  0  0  0  0  0
  -22.3550  -13.0400   23.1820 H   0  0  0  0  0  0  0  0  0  0  0  0
  -26.2130  -15.3150   20.7150 N   0  0  0  0  0  0  0  0  0  0  0  0
  -25.4900  -15.9360   21.0650 H   0  0  0  0  0  0  0  0  0  0  0  0
  -26.9170  -15.7980   20.1730 H   0  0  0  0  0  0  0  0  0  0  0  0
  -30.2420  -16.3420   22.2550 C   0  0  0  0  0  2  0  0  0  0  0  0
  -29.5800  -16.8960   23.4500 N   0  0  0  0  0  4  0  0  0  0  0  0
  -29.6360  -17.8980   23.4690 H   0  0  0  0  0  0  0  0  0  0  0  0
  -30.0280  -16.5470   24.2800 H   0  0  0  0  0  0  0  0  0  0  0  0
  -28.6120  -16.6290   23.4840 H   0  0  0  0  0  0  0  0  0  0  0  0
  -28.9180  -21.9660   19.6910 N   0  0  0  0  0  4  0  0  0  0  0  0
  -28.3170  -21.8240   20.4880 H   0  0  0  0  0  0  0  0  0  0  0  0
  -28.3400  -21.8070   18.8810 H   0  0  0  0  0  0  0  0  0  0  0  0
  -29.3080  -23.5190   19.6800 C   0  0  0  0  0  3  0  0  0  0  0  0
  -28.1970  -24.7920   19.5000 C   0  0  0  0  0  3  0  0  0  0  0  0
  -28.4150  -26.3340   19.7080 O   0  0  0  0  0  0  0  0  0  0  0  0
  -24.5460  -31.6410   23.0930 C   0  0  0  0  0  0  0  0  0  0  0  0
  -27.3230  -27.2840   19.7120 C   0  0  0  0  0  0  0  0  0  0  0  0
  -23.4120  -30.3380   21.3360 C   0  0  0  0  0  3  0  0  0  0  0  0
  -24.9290  -28.9420   19.8000 C   0  0  0  0  0  0  0  0  0  0  0  0
  -25.9560  -30.7120   21.2160 C   0  0  0  0  0  2  0  0  0  0  0  0
  -26.0880  -29.3810   20.4530 C   0  0  0  0  0  0  0  0  0  0  0  0
  -27.2850  -28.5710   20.3920 C   0  0  0  0  0  3  0  0  0  0  0  0
  -26.1330  -26.9520   19.0280 C   0  0  0  0  0  3  0  0  0  0  0  0
  -24.9650  -27.7440   19.0730 C   0  0  0  0  0  3  0  0  0  0  0  0
  -23.6670  -29.7860   19.9080 C   0  0  0  0  0  2  0  0  0  0  0  0
  -24.6570  -30.9160   21.9380 N   0  0  0  0  0  0  0  0  0  0  0  0
  -23.4460  -31.8400   23.6320 O   0  0  0  0  0  0  0  0  0  0  0  0
  -22.7680  -29.2300   22.2080 C   0  0  0  0  0  0  0  0  0  0  0  0
  -21.4560  -28.9940   22.0290 N   0  0  0  0  0  0  0  0  0  0  0  0
  -23.4520  -28.5870   23.0070 O   0  0  0  0  0  0  0  0  0  0  0  0
  -20.9570  -29.5670   21.3630 H   0  0  0  0  0  0  0  0  0  0  0  0
  -18.1290  -27.6040   22.3820 C   0  0  0  0  0  0  0  0  0  0  0  0
  -20.6690  -27.9620   22.7100 C   0  0  0  0  0  3  0  0  0  0  0  0
  -20.8450  -26.5870   22.0250 C   0  0  0  0  0  2  0  0  0  0  0  0
  -19.7720  -26.2960   20.9720 C   0  0  0  0  0  2  0  0  0  0  0  0
  -18.3770  -26.3240   21.6030 C   0  0  0  0  0  2  0  0  0  0  0  0
  -19.2040  -28.3820   22.8880 C   0  0  0  0  0  0  0  0  0  0  0  0
  -18.9180  -29.5790   23.5790 C   0  0  0  0  0  3  0  0  0  0  0  0
  -17.5890  -30.0020   23.7670 C   0  0  0  0  0  3  0  0  0  0  0  0
  -16.5270  -29.2220   23.2760 C   0  0  0  0  0  3  0  0  0  0  0  0
  -16.7980  -28.0240   22.5900 C   0  0  0  0  0  3  0  0  0  0  0  0
  -25.7930  -32.2730   23.7810 C   0  0  0  0  0  3  0  0  0  0  0  0
  -25.4280  -33.6330   24.2100 N   0  0  0  0  0  0  0  0  0  0  0  0
  -25.6740  -34.7480   23.5080 C   0  0  0  0  0  0  0  0  0  0  0  0
  -26.2970  -34.7420   22.4430 O   0  0  0  0  0  0  0  0  0  0  0  0
  -24.8640  -33.7070   25.0440 H   0  0  0  0  0  0  0  0  0  0  0  0
  -23.8270  -36.4530   23.3760 C   0  0  0  0  0  1  0  0  0  0  0  0
  -25.1450  -36.0800   24.0750 C   0  0  0  0  0  3  0  0  0  0  0  0
  -27.2740  -37.0560   24.8160 C   0  0  0  0  0  1  0  0  0  0  0  0
  -26.1060  -37.1970   23.9490 N   0  0  0  0  0  0  0  0  0  0  0  0
  -25.6580  -38.0840   24.1630 H   0  0  0  0  0  0  0  0  0  0  0  0
  -26.3160  -31.4330   25.0120 C   0  0  1  0  0  0  0  0  0  0  0  0
  -25.2100  -31.0700   26.0310 C   0  0  0  0  0  1  0  0  0  0  0  0
  -26.9700  -30.1140   24.5400 C   0  0  0  0  0  1  0  0  0  0  0  0
  -27.4130  -32.2250   25.7590 C   0  0  0  0  0  1  0  0  0  0  0  0
  2  8  1  0
  2 14  1  0
  3  8  1  0
  4  5  1  0
  4  3  1  0
  6  5  1  0
  6 18  1  0
  6  7  1  0
  8  7  1  0
  9  2  2  0
 11 12  1  0
 11 14  1  0
 12  1  1  0
 12 10  1  0
 13 10  1  0
 13 43  1  0
 14 13  1  0
 15 40  1  0
 15 16  2  0
 16 35  1  0
 17 20  1  0
 17 16  1  0
 18 19  1  0
 18 15  1  0
 19 17  2  0
 20 21  1  0
 21 22  2  0
 23 26  1  0
 23 22  1  0
 24 23  2  0
 25 24  1  0
 25 20  2  0
 26 27  1  0
 27 32  2  0
 27 28  1  0
 28 29  2  0
 29 30  1  0
 30 34  1  0
 31 30  2  0
 32 31  1  0
 33 32  1  0
 35 36  1  0
 36 38  1  0
 36 39  1  0
 37 35  2  0
 40 41  1  0
 42 40  1  0
 43 44  1  0
 44 45  1  0
 44 47  1  0
 44 46  1  0
 48  1  1  0
 48 49  1  0
 50 48  1  0
 51 48  1  0
 52 51  2  0
 52 53  1  0
 53 55  1  0
 54 65  2  0
 55 60  1  0
 56 64  1  0
 56 66  1  0
 57 63  1  0
 57 59  1  0
 58 64  1  0
 59 58  1  0
 60 59  2  0
 61 62  1  0
 61 55  2  0
 62 57  2  0
 63 56  1  0
 64 54  1  0
 66 68  2  0
 67 66  1  0
 69 67  1  0
 70 79  2  0
 70 75  1  0
 71 67  1  0
 71 75  1  0
 72 71  1  0
 73 74  1  0
 73 72  1  0
 74 70  1  0
 75 76  2  0
 76 77  1  0
 78 77  2  0
 79 78  1  0
 80 54  1  0
 80 81  1  0
 80 90  1  0
 81 84  1  0
 82 86  1  0
 82 81  1  0
 83 82  2  0
 86 85  1  0
 88 86  1  0
 88 89  1  0
 88 87  1  0
 90 93  1  1
 90 91  1  0
 92 90  1  0
M  ISO  4   2 100  14 100  52 101  53 101
M  END
>  <TORSDO>  (46) 
F 21

>  <SCORE>  (46) 
-9.212

>  <name>  (46) 
45

>  <ligand_id>  (46) 
45

>  <original_smiles>  (46) 
[H]c1c([H])c([H])c2c(c1[H])C([H])([H])C([H])([H])C([H])([H])C2([H])N([H])C(=O)C1([H])N(C(=O)C([H])(N([H])C(=O)C([H])(N([H])C([H])([H])[H])C([H])([H])[H])C(C([H])([H])[H])(C([H])([H])[H])C([H])([H])[H])C([H])([H])c2c([H])c(OC([H])([H])C([H])([H])[N+]([H])([H])C([H])([H])C3([H])C([H])([H])N(C(=O)N4C([H])([H])C([H])([H])C([H])([H])C([H])(n5nc(-c6c([H])c([H])c(Oc7c([H])c([H])c(F)c([H])c7F)c([H])c6[H])c(C(=O)N([H])[H])c5N([H])[H])C4([H])[H])C([H])(C([H])([H])[N+]([H])([H])[H])C3([H])[H])c([H])c([H])c2C1([H])[H]

>  <smiles>  (46) 
[H]c1c([H])c([H])c2c(c1[H])C([H])([H])C([H])([H])C([H])([H])C2([H])N([H])C(=O)C1([H])N(C(=O)C([H])(N([H])C(=O)C([H])(N([H])C([H])([H])[H])C([H])([H])[H])C(C([H])([H])[H])(C([H])([H])[H])C([H])([H])[H])C([H])([H])c2c([H])c(OC([H])([H])C([H])([H])[N+]([H])([H])C([H])([H])C3([H])C([H])([H])N(C(=O)N4C([H])([H])C([H])([H])C([H])([H])C([H])(n5nc(-c6c([H])c([H])c(Oc7c([H])c([H])c(F)c([H])c7F)c([H])c6[H])c(C(=O)N([H])[H])c5N([H])[H])C4([H])[H])C([H])(C([H])([H])[N+]([H])([H])[H])C3([H])[H])c([H])c([H])c2C1([H])[H]

$$$$
46:0:0
     RDKit          3D

 90 98  0  0  1  0  0  0  0  0999 V2000
  -28.9620  -22.4070   19.9200 N   0  0  0  0  0  4  0  0  0  0  0  0
  -27.9990  -22.2130   20.1430 H   0  0  0  0  0  0  0  0  0  0  0  0
  -29.0530  -22.3300   18.9180 H   0  0  0  0  0  0  0  0  0  0  0  0
  -29.7780  -21.2670   20.5280 C   0  0  0  0  0  2  0  0  0  0  0  0
  -27.6850  -18.5030   20.5470 C   0  0  0  0  0  2  0  0  0  0  0  0
  -28.1720  -19.4810   19.4770 C   0  0  0  0  0  2  0  0  0  0  0  0
  -28.8770  -18.3470   21.4850 C   0  0  0  0  0  2  0  0  0  0  0  0
  -29.6390  -19.8060   19.8350 C   0  0  0  0  0  3  0  0  0  0  0  0
  -30.0450  -18.5820   20.6350 N   0  0  0  0  0  0  0  0  0  0  0  0
  -30.3850  -17.3160   19.8610 C   0  0  0  0  0  3  0  0  0  0  0  0
  -30.5740  -15.9490   20.6850 C   0  0  0  0  0  3  0  0  0  0  0  0
  -31.0310  -14.6200   19.9480 C   0  0  0  0  0  0  0  0  0  0  0  0
  -30.6090  -12.3950   18.8970 C   0  0  0  0  0  2  0  0  0  0  0  0
  -29.6390  -12.5760   17.7120 C   0  0  0  0  0  2  0  0  0  0  0  0
  -28.1810  -12.4770   18.1960 C   0  0  0  0  0  2  0  0  0  0  0  0
  -27.9060  -13.3430   19.4530 C   0  0  0  0  0  3  0  0  0  0  0  0
  -29.0070  -13.1750   20.5250 C   0  0  0  0  0  2  0  0  0  0  0  0
  -30.3080  -13.4490   19.8930 N   0  0  0  0  0  0  0  0  0  0  0  0
  -32.1230  -14.6810   19.3760 O   0  0  0  0  0  0  0  0  0  0  0  0
  -25.5680  -14.0080   20.2800 C   0  0  0  0  0  0  0  0  0  0  0  0
  -24.4910  -13.2680   20.6850 C   0  0  0  0  0  0  0  0  0  0  0  0
  -24.9010  -11.9000   20.6150 C   0  0  0  0  0  0  0  0  0  0  0  0
  -26.5710  -13.0960   19.9920 N   0  0  0  0  0  0  0  0  0  0  0  0
  -26.1760  -11.8220   20.2520 N   0  0  0  0  0  0  0  0  0  0  0  0
  -24.1350  -10.6650   20.8220 C   0  0  0  0  0  0  0  0  0  0  0  0
  -24.5420   -9.6880   21.7570 C   0  0  0  0  0  3  0  0  0  0  0  0
  -23.7770   -8.5180   21.9500 C   0  0  0  0  0  3  0  0  0  0  0  0
  -22.5890   -8.3170   21.2070 C   0  0  0  0  0  0  0  0  0  0  0  0
  -22.2010   -9.2810   20.2580 C   0  0  0  0  0  3  0  0  0  0  0  0
  -22.9690  -10.4410   20.0640 C   0  0  0  0  0  3  0  0  0  0  0  0
  -21.7960   -7.2000   21.3090 O   0  0  0  0  0  0  0  0  0  0  0  0
  -21.6930   -6.4910   22.4800 C   0  0  0  0  0  0  0  0  0  0  0  0
  -21.2760   -7.1000   23.6830 C   0  0  0  0  0  3  0  0  0  0  0  0
  -21.1180   -6.3220   24.8470 C   0  0  0  0  0  3  0  0  0  0  0  0
  -21.3690   -4.9380   24.8080 C   0  0  0  0  0  0  0  0  0  0  0  0
  -21.7810   -4.3280   23.6110 C   0  0  0  0  0  3  0  0  0  0  0  0
  -21.9400   -5.1030   22.4490 C   0  0  0  0  0  0  0  0  0  0  0  0
  -22.3150   -4.5080   21.2900 F   0  0  0  0  0  0  0  0  0  0  0  0
  -21.2100   -4.1890   25.9250 F   0  0  0  0  0  0  0  0  0  0  0  0
  -23.1240  -13.7890   21.0240 C   0  0  0  0  0  0  0  0  0  0  0  0
  -22.4180  -13.1180   21.9260 N   0  0  0  0  0  0  0  0  0  0  0  0
  -22.6950  -14.8290   20.5240 O   0  0  0  0  0  0  0  0  0  0  0  0
  -22.7800  -12.2770   22.3490 H   0  0  0  0  0  0  0  0  0  0  0  0
  -21.5010  -13.4480   22.1960 H   0  0  0  0  0  0  0  0  0  0  0  0
  -25.7700  -15.3750   20.1130 N   0  0  0  0  0  0  0  0  0  0  0  0
  -25.0270  -16.0520   20.2580 H   0  0  0  0  0  0  0  0  0  0  0  0
  -26.6170  -15.7900   19.7480 H   0  0  0  0  0  0  0  0  0  0  0  0
  -29.2360  -23.8640   20.3040 C   0  0  0  0  0  3  0  0  0  0  0  0
  -28.1500  -24.9320   19.8100 C   0  0  0  0  0  3  0  0  0  0  0  0
  -28.3040  -26.3870   20.0780 O   0  0  0  0  0  0  0  0  0  0  0  0
  -24.4140  -31.7050   23.0550 C   0  0  0  0  0  0  0  0  0  0  0  0
  -27.1580  -27.2060   20.0160 C   0  0  0  0  0  0  0  0  0  0  0  0
  -23.2470  -30.2620   21.4270 C   0  0  0  0  0  3  0  0  0  0  0  0
  -24.7410  -28.7490   20.0070 C   0  0  0  0  0  0  0  0  0  0  0  0
  -25.7770  -30.6490   21.2430 C   0  0  0  0  0  2  0  0  0  0  0  0
  -25.8950  -29.2730   20.6000 C   0  0  0  0  0  0  0  0  0  0  0  0
  -27.1040  -28.5120   20.6030 C   0  0  0  0  0  3  0  0  0  0  0  0
  -25.9760  -26.7440   19.3870 C   0  0  0  0  0  3  0  0  0  0  0  0
  -24.7820  -27.4890   19.3940 C   0  0  0  0  0  3  0  0  0  0  0  0
  -23.4770  -29.5850   20.0530 C   0  0  0  0  0  2  0  0  0  0  0  0
  -24.4970  -30.8900   21.9640 N   0  0  0  0  0  0  0  0  0  0  0  0
  -23.3240  -31.9570   23.5880 O   0  0  0  0  0  0  0  0  0  0  0  0
  -22.6160  -29.2320   22.3930 C   0  0  0  0  0  0  0  0  0  0  0  0
  -21.2940  -29.0230   22.2740 N   0  0  0  0  0  0  0  0  0  0  0  0
  -23.3140  -28.6260   23.2110 O   0  0  0  0  0  0  0  0  0  0  0  0
  -20.7900  -29.5600   21.5820 H   0  0  0  0  0  0  0  0  0  0  0  0
  -17.9480  -27.7580   22.8010 C   0  0  0  0  0  0  0  0  0  0  0  0
  -20.5020  -28.0710   23.0530 C   0  0  0  0  0  3  0  0  0  0  0  0
  -20.6320  -26.6420   22.4800 C   0  0  0  0  0  2  0  0  0  0  0  0
  -19.5300  -26.2930   21.4750 C   0  0  0  0  0  2  0  0  0  0  0  0
  -18.1490  -26.4100   22.1270 C   0  0  0  0  0  2  0  0  0  0  0  0
  -19.0540  -28.5440   23.2200 C   0  0  0  0  0  0  0  0  0  0  0  0
  -18.8110  -29.8050   23.8090 C   0  0  0  0  0  3  0  0  0  0  0  0
  -17.4980  -30.2780   23.9860 C   0  0  0  0  0  3  0  0  0  0  0  0
  -16.4070  -29.4880   23.5840 C   0  0  0  0  0  3  0  0  0  0  0  0
  -16.6330  -28.2310   22.9960 C   0  0  0  0  0  3  0  0  0  0  0  0
  -25.6790  -32.3760   23.6710 C   0  0  0  0  0  3  0  0  0  0  0  0
  -25.3170  -33.7540   24.0390 N   0  0  0  0  0  0  0  0  0  0  0  0
  -25.5940  -34.8360   23.3000 C   0  0  0  0  0  0  0  0  0  0  0  0
  -26.2490  -34.7850   22.2560 O   0  0  0  0  0  0  0  0  0  0  0  0
  -24.7320  -33.8650   24.8540 H   0  0  0  0  0  0  0  0  0  0  0  0
  -23.7820  -36.5570   23.0230 C   0  0  0  0  0  1  0  0  0  0  0  0
  -25.0570  -36.1920   23.7990 C   0  0  0  0  0  3  0  0  0  0  0  0
  -27.1680  -37.1470   24.6090 C   0  0  0  0  0  1  0  0  0  0  0  0
  -26.0400  -37.2920   23.6910 N   0  0  0  0  0  0  0  0  0  0  0  0
  -25.5980  -38.1880   23.8760 H   0  0  0  0  0  0  0  0  0  0  0  0
  -26.2500  -31.6010   24.9220 C   0  0  1  0  0  0  0  0  0  0  0  0
  -25.1840  -31.2860   25.9980 C   0  0  0  0  0  1  0  0  0  0  0  0
  -26.8910  -30.2630   24.4910 C   0  0  0  0  0  1  0  0  0  0  0  0
  -27.3760  -32.4300   25.5840 C   0  0  0  0  0  1  0  0  0  0  0  0
  1  2  1  0
  1 48  1  0
  1  4  1  0
  3  1  1  0
  5  7  1  0
  6  8  1  0
  6  5  1  0
  8  4  1  0
  8  9  1  0
  9  7  1  0
 10  9  1  0
 10 11  2  0
 12 11  1  0
 13 18  1  0
 14 15  1  0
 14 13  1  0
 16 15  1  0
 16 23  1  0
 16 17  1  0
 18 12  1  0
 18 17  1  0
 19 12  2  0
 20 21  2  0
 21 40  1  0
 22 21  1  0
 22 25  1  0
 23 24  1  0
 23 20  1  0
 24 22  2  0
 25 26  1  0
 26 27  2  0
 28 31  1  0
 28 27  1  0
 29 28  2  0
 30 29  1  0
 30 25  2  0
 31 32  1  0
 32 33  1  0
 33 34  2  0
 35 34  1  0
 35 39  1  0
 36 35  2  0
 37 32  2  0
 37 36  1  0
 38 37  1  0
 40 41  1  0
 41 44  1  0
 41 43  1  0
 42 40  2  0
 45 46  1  0
 45 20  1  0
 47 45  1  0
 49 50  1  0
 49 48  2  0
 51 62  2  0
 52 50  1  0
 52 57  1  0
 53 61  1  0
 53 63  1  0
 54 60  1  0
 54 56  1  0
 55 61  1  0
 56 57  2  0
 56 55  1  0
 58 59  1  0
 58 52  2  0
 59 54  2  0
 60 53  1  0
 61 51  1  0
 63 65  2  0
 64 63  1  0
 66 64  1  0
 67 76  2  0
 67 72  1  0
 68 64  1  0
 68 72  1  0
 69 68  1  0
 70 71  1  0
 70 69  1  0
 71 67  1  0
 72 73  2  0
 73 74  1  0
 75 74  2  0
 76 75  1  0
 77 51  1  0
 77 78  1  0
 77 87  1  0
 78 81  1  0
 79 83  1  0
 79 78  1  0
 80 79  2  0
 83 82  1  0
 85 83  1  0
 85 86  1  0
 85 84  1  0
 87 90  1  1
 87 88  1  0
 89 87  1  0
M  ISO  4  11 100  12 100  49 101  50 101
M  END
>  <TORSDO>  (47) 
F 22

>  <SCORE>  (47) 
-11.692

>  <name>  (47) 
46

>  <ligand_id>  (47) 
46

>  <original_smiles>  (47) 
[H]c1c([H])c([H])c2c(c1[H])C([H])([H])C([H])([H])C([H])([H])C2([H])N([H])C(=O)C1([H])N(C(=O)C([H])(N([H])C(=O)C([H])(N([H])C([H])([H])[H])C([H])([H])[H])C(C([H])([H])[H])(C([H])([H])[H])C([H])([H])[H])C([H])([H])c2c([H])c(OC([H])([H])C([H])([H])[N+]([H])([H])C([H])([H])C3([H])N(C([H])([H])C([H])([H])C(=O)N4C([H])([H])C([H])([H])C([H])([H])C([H])(n5nc(-c6c([H])c([H])c(Oc7c([H])c([H])c(F)c([H])c7F)c([H])c6[H])c(C(=O)N([H])[H])c5N([H])[H])C4([H])[H])C([H])([H])C([H])([H])C3([H])[H])c([H])c([H])c2C1([H])[H]

>  <smiles>  (47) 
[H]c1c([H])c([H])c2c(c1[H])C([H])([H])C([H])([H])C([H])([H])C2([H])N([H])C(=O)C1([H])N(C(=O)C([H])(N([H])C(=O)C([H])(N([H])C([H])([H])[H])C([H])([H])[H])C(C([H])([H])[H])(C([H])([H])[H])C([H])([H])[H])C([H])([H])c2c([H])c(OC([H])([H])C([H])([H])[N+]([H])([H])C([H])([H])C3([H])N(C([H])([H])C([H])([H])C(=O)N4C([H])([H])C([H])([H])C([H])([H])C([H])(n5nc(-c6c([H])c([H])c(Oc7c([H])c([H])c(F)c([H])c7F)c([H])c6[H])c(C(=O)N([H])[H])c5N([H])[H])C4([H])[H])C([H])([H])C([H])([H])C3([H])[H])c([H])c([H])c2C1([H])[H]

$$$$
47:0:0
     RDKit          3D

101107  0  0  1  0  0  0  0  0999 V2000
  -20.9610  -24.5580   21.4320 C   0  0  0  0  0  2  0  0  0  0  0  0
  -19.5170  -28.7210   22.6710 C   0  0  0  0  0 15  0  0  0  0  0  0
  -22.2860  -23.5200   21.1250 C   0  0  0  0  0  2  0  0  0  0  0  0
  -21.1830  -29.3830   24.1640 C   0  0  0  0  0 15  0  0  0  0  0  0
  -23.4470  -24.3510   22.9390 C   0  0  0  0  0  2  0  0  0  0  0  0
  -22.8130  -26.7200   24.5320 C   0  0  0  0  0  2  0  0  0  0  0  0
  -20.5720  -25.6970   22.6730 C   0  0  0  0  0  2  0  0  0  0  0  0
  -22.3420  -25.5970   23.2520 C   0  0  0  0  0  3  0  0  0  0  0  0
  -23.7580  -23.8100   21.4890 N   0  0  1  0  0  4  0  0  0  0  0  0
  -22.8290  -28.3740   24.3560 N   0  0  0  0  0  0  0  0  0  0  0  0
  -24.0170  -24.6010   20.9170 H   0  0  0  0  0  0  0  0  0  0  0  0
  -22.8250  -28.4280   23.3390 H   0  0  0  0  0  0  0  0  0  0  0  0
  -25.0840  -22.7470   21.2650 C   0  0  0  0  0  2  0  0  0  0  0  0
  -27.0260  -21.5060   17.8790 C   0  0  0  0  0  3  0  0  0  0  0  0
  -28.4390  -21.5000   18.0670 C   0  0  0  0  0  3  0  0  0  0  0  0
  -26.0630  -21.9310   18.8400 C   0  0  0  0  0  3  0  0  0  0  0  0
  -27.9680  -22.3930   20.2470 C   0  0  0  0  0  3  0  0  0  0  0  0
  -29.0770  -21.9310   19.2520 C   0  0  0  0  0  0  0  0  0  0  0  0
  -26.4080  -22.4090   20.1250 C   0  0  0  0  0  0  0  0  0  0  0  0
  -30.8570  -21.9880   19.2270 C   0  0  0  0  0  2  0  0  0  0  0  0
  -33.5680  -20.8330   18.3700 C   0  0  0  0  0  0  0  0  0  0  0  0
  -35.2330  -19.1070   17.2910 C   0  0  0  0  0  2  0  0  0  0  0  0
  -34.5390  -18.3200   16.1430 C   0  0  0  0  0  2  0  0  0  0  0  0
  -33.5690  -17.2510   16.6890 C   0  0  0  0  0  2  0  0  0  0  0  0
  -32.7540  -17.7940   17.8840 C   0  0  0  0  0  3  0  0  0  0  0  0
  -33.6610  -18.4150   18.9460 C   0  0  0  0  0  2  0  0  0  0  0  0
  -34.1920  -19.5770   18.2820 N   0  0  0  0  0  0  0  0  0  0  0  0
  -34.3250  -21.7380   17.9440 O   0  0  0  0  0  0  0  0  0  0  0  0
  -32.1240  -20.9370   18.8200 N   0  0  0  0  0  0  0  0  0  0  0  0
  -31.8280  -20.0020   19.0510 H   0  0  0  0  0  0  0  0  0  0  0  0
  -30.5630  -16.9750   18.8550 C   0  0  0  0  0  0  0  0  0  0  0  0
  -30.1920  -15.7660   19.3680 C   0  0  0  0  0  0  0  0  0  0  0  0
  -31.3580  -14.9430   19.3200 C   0  0  0  0  0  0  0  0  0  0  0  0
  -31.8890  -16.8250   18.4980 N   0  0  0  0  0  0  0  0  0  0  0  0
  -32.3940  -15.6230   18.8560 N   0  0  0  0  0  0  0  0  0  0  0  0
  -31.5370  -13.5260   19.6280 C   0  0  0  0  0  0  0  0  0  0  0  0
  -32.6090  -13.0730   20.4300 C   0  0  0  0  0  3  0  0  0  0  0  0
  -32.7480  -11.7000   20.7210 C   0  0  0  0  0  3  0  0  0  0  0  0
  -31.8100  -10.7700   20.2120 C   0  0  0  0  0  0  0  0  0  0  0  0
  -30.7620  -11.2250   19.3930 C   0  0  0  0  0  3  0  0  0  0  0  0
  -30.6280  -12.5910   19.1000 C   0  0  0  0  0  3  0  0  0  0  0  0
  -31.8780   -9.4150   20.4230 O   0  0  0  0  0  0  0  0  0  0  0  0
  -32.6250   -8.8850   21.4430 C   0  0  0  0  0  0  0  0  0  0  0  0
  -32.4240   -9.2610   22.7890 C   0  0  0  0  0  3  0  0  0  0  0  0
  -33.1660   -8.6380   23.8120 C   0  0  0  0  0  3  0  0  0  0  0  0
  -34.1020   -7.6360   23.4930 C   0  0  0  0  0  0  0  0  0  0  0  0
  -34.3000   -7.2560   22.1540 C   0  0  0  0  0  3  0  0  0  0  0  0
  -33.5610   -7.8780   21.1320 C   0  0  0  0  0  0  0  0  0  0  0  0
  -33.7400   -7.4960   19.8450 F   0  0  0  0  0  0  0  0  0  0  0  0
  -34.8090   -7.0300   24.4760 F   0  0  0  0  0  0  0  0  0  0  0  0
  -28.8060  -15.3660   19.7730 C   0  0  0  0  0  0  0  0  0  0  0  0
  -28.6860  -14.4890   20.7620 N   0  0  0  0  0  0  0  0  0  0  0  0
  -27.8160  -15.8710   19.2440 O   0  0  0  0  0  0  0  0  0  0  0  0
  -29.4960  -14.0920   21.2130 H   0  0  0  0  0  0  0  0  0  0  0  0
  -27.7660  -14.2100   21.0720 H   0  0  0  0  0  0  0  0  0  0  0  0
  -29.8810  -18.1690   18.6360 N   0  0  0  0  0  0  0  0  0  0  0  0
  -28.8970  -18.2600   18.8650 H   0  0  0  0  0  0  0  0  0  0  0  0
  -30.2200  -18.9410   18.0780 H   0  0  0  0  0  0  0  0  0  0  0  0
  -24.5080  -28.6250   24.1240 C   0  0  0  0  0  2  0  0  0  0  0  0
  -25.7660  -27.4160   23.3490 C   0  0  0  0  0  2  0  0  0  0  0  0
  -27.2770  -27.2390   22.5780 O   0  0  0  0  0  0  0  0  0  0  0  0
  -24.8720  -32.0500   22.9790 C   0  0  0  0  0  0  0  0  0  0  0  0
  -27.6760  -27.7470   21.3400 C   0  0  0  0  0  3  0  0  0  0  0  0
  -24.3990  -30.9260   20.7600 C   0  0  0  0  0  3  0  0  0  0  0  0
  -26.2970  -29.4940   19.7930 C   0  0  0  0  0  0  0  0  0  0  0  0
  -26.7610  -31.2650   21.5350 C   0  0  0  0  0  2  0  0  0  0  0  0
  -27.0960  -29.9450   20.8580 C   0  0  0  0  0  0  0  0  0  0  0  0
  -28.0030  -29.0830   21.4680 C   0  0  0  0  0  2  0  0  0  0  0  0
  -27.1140  -27.2540   20.1450 C   0  0  0  0  0  3  0  0  0  0  0  0
  -26.3830  -28.1510   19.3460 C   0  0  0  0  0  3  0  0  0  0  0  0
  -25.1390  -30.4380   19.4660 C   0  0  0  0  0  2  0  0  0  0  0  0
  -25.3250  -31.4260   21.8410 N   0  0  0  0  0  0  0  0  0  0  0  0
  -23.6650  -32.2360   23.1810 O   0  0  0  0  0  0  0  0  0  0  0  0
  -23.9240  -29.6020   21.1770 C   0  0  0  0  0  0  0  0  0  0  0  0
  -23.4930  -28.7030   20.4280 N   0  0  0  0  0  0  0  0  0  0  0  0
  -24.1490  -29.1830   22.2120 O   0  0  0  0  0  0  0  0  0  0  0  0
  -23.5430  -28.9310   19.4440 H   0  0  0  0  0  0  0  0  0  0  0  0
  -20.9340  -25.7690   18.2600 C   0  0  0  0  0  3  0  0  0  0  0  0
  -22.6120  -27.4570   20.6880 C   0  0  0  0  0  2  0  0  0  0  0  0
  -23.9190  -26.6060   20.0630 C   0  0  0  0  0  2  0  0  0  0  0  0
  -23.7150  -25.5980   18.7670 C   0  0  0  0  0  2  0  0  0  0  0  0
  -22.3200  -24.9780   18.1670 C   0  0  0  0  0  2  0  0  0  0  0  0
  -20.5710  -26.7580   19.4630 C   0  0  0  0  0  2  0  0  0  0  0  0
  -19.6210  -27.6460   18.6810 C   0  0  0  0  0  2  0  0  0  0  0  0
  -19.4520  -27.8830   17.2540 C   0  0  0  0  0  2  0  0  0  0  0  0
  -19.8680  -26.9350   16.3210 C   0  0  0  0  0  2  0  0  0  0  0  0
  -20.4930  -25.8230   16.8790 C   0  0  0  0  0  2  0  0  0  0  0  0
  -25.8530  -32.5960   24.0700 C   0  0  0  0  0  3  0  0  0  0  0  0
  -25.4730  -33.9900   24.3190 N   0  0  0  0  0  0  0  0  0  0  0  0
  -25.9420  -35.0310   23.6180 C   0  0  0  0  0  0  0  0  0  0  0  0
  -26.7940  -34.9080   22.7320 O   0  0  0  0  0  0  0  0  0  0  0  0
  -24.7130  -34.1430   24.9630 H   0  0  0  0  0  0  0  0  0  0  0  0
  -24.1760  -36.7270   23.0360 C   0  0  0  0  0  1  0  0  0  0  0  0
  -25.3760  -36.4220   23.9460 C   0  0  0  0  0  3  0  0  0  0  0  0
  -27.4570  -37.4070   24.8010 C   0  0  0  0  0  1  0  0  0  0  0  0
  -26.3740  -37.5060   23.8270 N   0  0  0  0  0  0  0  0  0  0  0  0
  -25.9320  -38.4150   23.9450 H   0  0  0  0  0  0  0  0  0  0  0  0
  -25.8900  -31.7730   25.4210 C   0  0  1  0  0  0  0  0  0  0  0  0
  -24.4860  -31.4150   25.9750 C   0  0  0  0  0  1  0  0  0  0  0  0
  -26.7630  -30.4980   25.2590 C   0  0  0  0  0  1  0  0  0  0  0  0
  -26.6100  -32.5960   26.5130 C   0  0  0  0  0  1  0  0  0  0  0  0
  1  7  1  0
  3  1  1  0
  3  9  1  0
  5  8  1  0
  7  8  1  0
  8  6  1  0
  9  5  1  0
 10  6  1  0
  9 11  1  6
 12 10  1  0
 13  9  1  0
 14 15  2  0
 14 16  1  0
 15 18  1  0
 16 19  2  0
 18 17  2  0
 19 17  1  0
 19 13  1  0
 20 18  1  0
 21 29  1  0
 22 27  1  0
 23 24  1  0
 23 22  1  0
 25 24  1  0
 25 34  1  0
 25 26  1  0
 27 21  1  0
 27 26  1  0
 28 21  2  0
 29 30  1  0
 29 20  1  0
 31 32  2  0
 32 51  1  0
 33 32  1  0
 33 36  1  0
 34 31  1  0
 34 35  1  0
 35 33  2  0
 36 37  1  0
 37 38  2  0
 39 42  1  0
 39 38  1  0
 40 39  2  0
 41 40  1  0
 41 36  2  0
 42 43  1  0
 43 44  1  0
 44 45  2  0
 46 45  1  0
 46 50  1  0
 47 46  2  0
 48 43  2  0
 48 47  1  0
 49 48  1  0
 51 52  1  0
 52 55  1  0
 52 54  1  0
 53 51  2  0
 56 31  1  0
 56 57  1  0
 58 56  1  0
 59 10  1  0
 60 59  1  0
 61 60  1  0
 62 73  2  0
 63 68  1  0
 63 61  1  0
 64 74  1  0
 64 72  1  0
 65 67  2  0
 66 72  1  0
 67 68  1  0
 67 66  1  0
 69 63  1  0
 70 65  1  0
 70 69  2  0
 71 65  1  0
 71 64  1  0
 72 62  1  0
 74 76  2  0
 75 79  1  0
 75 74  1  0
 77 75  1  0
 78 83  1  0
 80 79  1  0
 81 80  1  0
 82 78  1  0
 82 81  1  0
 84 83  1  0
 85 84  1  0
 86 87  1  0
 86 85  1  0
 87 78  1  0
 88 62  1  0
 88 89  1  0
 88 98  1  0
 89 92  1  0
 90 94  1  0
 90 89  1  0
 91 90  2  0
 94 93  1  0
 96 97  1  0
 96 94  1  0
 96 95  1  0
 98 99  1  1
 98101  1  0
100 98  1  0
M  ISO  4  21 100  29 100  60 101  61 101
M  END
>  <TORSDO>  (48) 
F 21

>  <SCORE>  (48) 
-5.258

>  <name>  (48) 
47

>  <ligand_id>  (48) 
47

>  <original_smiles>  (48) 
[H]c1c([H])c([H])c2c(c1[H])C([H])([H])C([H])([H])C([H])([H])C2([H])N([H])C(=O)C1([H])N(C(=O)C([H])(N([H])C(=O)C([H])(N([H])C([H])([H])[H])C([H])([H])[H])C(C([H])([H])[H])(C([H])([H])[H])C([H])([H])[H])C([H])([H])c2c([H])c(OC([H])([H])C([H])([H])[N+]3([H])C([H])([H])C([H])([H])C4([H])C([H])([H])C([H])([H])[N+]([H])(C([H])([H])c5c([H])c([H])c([H])c(C([H])([H])N([H])C(=O)N6C([H])([H])C([H])([H])C([H])([H])C([H])(n7nc(-c8c([H])c([H])c(Oc9c([H])c([H])c(F)c([H])c9F)c([H])c8[H])c(C(=O)N([H])[H])c7N([H])[H])C6([H])[H])c5[H])C([H])([H])C4([H])C3([H])[H])c([H])c([H])c2C1([H])[H]

>  <smiles>  (48) 
[H]c1c([H])c([H])c2c(c1[H])C([H])([H])C([H])([H])C([H])([H])C2([H])N([H])C(=O)C1([H])N(C(=O)C([H])(N([H])C(=O)C([H])(N([H])C([H])([H])[H])C([H])([H])[H])C(C([H])([H])[H])(C([H])([H])[H])C([H])([H])[H])C([H])([H])c2c([H])c(OC([H])([H])C([H])([H])[N+]3([H])C([H])([H])C([H])([H])C4([H])C([H])([H])C([H])([H])[N+]([H])(C([H])([H])c5c([H])c([H])c([H])c(C([H])([H])N([H])C(=O)N6C([H])([H])C([H])([H])C([H])([H])C([H])(n7nc(-c8c([H])c([H])c(Oc9c([H])c([H])c(F)c([H])c9F)c([H])c8[H])c(C(=O)N([H])[H])c7N([H])[H])C6([H])[H])c5[H])C([H])([H])C4([H])C3([H])[H])c([H])c([H])c2C1([H])[H]

$$$$
48:0:0
     RDKit          3D

 93101  0  0  1  0  0  0  0  0999 V2000
  -29.1390  -22.2350   22.0640 N   0  0  0  0  0  4  0  0  0  0  0  0
  -28.2670  -21.9210   22.4590 H   0  0  0  0  0  0  0  0  0  0  0  0
  -29.1720  -21.9000   21.1170 H   0  0  0  0  0  0  0  0  0  0  0  0
  -30.2500  -21.5530   22.7710 C   0  0  0  0  0  2  0  0  0  0  0  0
  -30.2770  -17.7020   22.4460 C   0  0  0  0  0  3  0  0  0  0  0  0
  -30.8460  -18.6720   20.2860 C   0  0  0  0  0  3  0  0  0  0  0  0
  -30.2030  -18.9970   23.0080 C   0  0  0  0  0  3  0  0  0  0  0  0
  -30.8010  -19.9630   20.8560 C   0  0  0  0  0  3  0  0  0  0  0  0
  -30.5500  -17.5340   21.0680 C   0  0  0  0  0  0  0  0  0  0  0  0
  -30.4310  -20.1400   22.2090 C   0  0  0  0  0  0  0  0  0  0  0  0
  -30.4350  -16.1500   20.4230 C   0  0  0  0  0  2  0  0  0  0  0  0
  -31.9090  -14.2290   19.9020 C   0  0  0  0  0  0  0  0  0  0  0  0
  -31.3750  -12.0130   18.9230 C   0  0  0  0  0  2  0  0  0  0  0  0
  -30.4090  -12.1580   17.7300 C   0  0  0  0  0  2  0  0  0  0  0  0
  -28.9450  -12.1670   18.2180 C   0  0  0  0  0  2  0  0  0  0  0  0
  -28.7130  -13.1580   19.3930 C   0  0  0  0  0  3  0  0  0  0  0  0
  -29.7910  -12.9650   20.4880 C   0  0  0  0  0  2  0  0  0  0  0  0
  -31.1120  -13.1220   19.8580 N   0  0  0  0  0  0  0  0  0  0  0  0
  -32.9770  -14.2980   19.2940 O   0  0  0  0  0  0  0  0  0  0  0  0
  -31.5510  -15.2430   20.7140 N   0  0  0  0  0  0  0  0  0  0  0  0
  -32.3570  -15.7810   20.9960 H   0  0  0  0  0  0  0  0  0  0  0  0
  -26.4510  -14.0410   20.2540 C   0  0  0  0  0  0  0  0  0  0  0  0
  -25.3140  -13.3990   20.6590 C   0  0  0  0  0  0  0  0  0  0  0  0
  -25.5910  -12.0000   20.5540 C   0  0  0  0  0  0  0  0  0  0  0  0
  -27.3610  -13.0430   19.9370 N   0  0  0  0  0  0  0  0  0  0  0  0
  -26.8470  -11.8090   20.1720 N   0  0  0  0  0  0  0  0  0  0  0  0
  -24.7180  -10.8370   20.7440 C   0  0  0  0  0  0  0  0  0  0  0  0
  -25.1370   -9.7120   21.4900 C   0  0  0  0  0  3  0  0  0  0  0  0
  -24.2710   -8.6130   21.6740 C   0  0  0  0  0  3  0  0  0  0  0  0
  -22.9720   -8.6320   21.1150 C   0  0  0  0  0  0  0  0  0  0  0  0
  -22.5670   -9.7450   20.3570 C   0  0  0  0  0  3  0  0  0  0  0  0
  -23.4310  -10.8350   20.1710 C   0  0  0  0  0  3  0  0  0  0  0  0
  -22.0710   -7.5990   21.2210 O   0  0  0  0  0  0  0  0  0  0  0  0
  -21.7980   -7.0030   22.4260 C   0  0  0  0  0  0  0  0  0  0  0  0
  -21.4730   -7.7600   23.5730 C   0  0  0  0  0  3  0  0  0  0  0  0
  -21.1310   -7.1080   24.7750 C   0  0  0  0  0  3  0  0  0  0  0  0
  -21.1050   -5.7020   24.8300 C   0  0  0  0  0  0  0  0  0  0  0  0
  -21.4230   -4.9450   23.6880 C   0  0  0  0  0  3  0  0  0  0  0  0
  -21.7670   -5.5950   22.4880 C   0  0  0  0  0  0  0  0  0  0  0  0
  -22.0520   -4.8620   21.3850 F   0  0  0  0  0  0  0  0  0  0  0  0
  -20.7680   -5.0740   25.9800 F   0  0  0  0  0  0  0  0  0  0  0  0
  -24.0110  -14.0390   21.0310 C   0  0  0  0  0  0  0  0  0  0  0  0
  -23.2970  -13.4700   21.9960 N   0  0  0  0  0  0  0  0  0  0  0  0
  -23.6410  -15.0880   20.5010 O   0  0  0  0  0  0  0  0  0  0  0  0
  -23.6080  -12.6240   22.4500 H   0  0  0  0  0  0  0  0  0  0  0  0
  -22.4220  -13.8860   22.2830 H   0  0  0  0  0  0  0  0  0  0  0  0
  -26.7750  -15.3870   20.1060 N   0  0  0  0  0  0  0  0  0  0  0  0
  -26.0800  -16.1120   20.2500 H   0  0  0  0  0  0  0  0  0  0  0  0
  -27.6310  -15.7330   19.6920 H   0  0  0  0  0  0  0  0  0  0  0  0
  -29.2120  -23.7190   22.0280 C   0  0  0  0  0  2  0  0  0  0  0  0
  -28.2840  -24.3760   20.9690 C   0  0  0  0  0  2  0  0  0  0  0  0
  -28.6720  -25.8500   20.6870 C   0  0  0  0  0  2  0  0  0  0  0  0
  -28.1260  -26.3650   19.4640 O   0  0  0  0  0  0  0  0  0  0  0  0
  -24.7280  -31.2780   23.3250 C   0  0  0  0  0  0  0  0  0  0  0  0
  -27.0320  -27.1800   19.6120 C   0  0  0  0  0  0  0  0  0  0  0  0
  -23.4110  -30.2060   21.5220 C   0  0  0  0  0  3  0  0  0  0  0  0
  -24.7420  -28.8090   19.8560 C   0  0  0  0  0  0  0  0  0  0  0  0
  -25.9450  -30.4460   21.3140 C   0  0  0  0  0  2  0  0  0  0  0  0
  -25.9350  -29.1740   20.4940 C   0  0  0  0  0  0  0  0  0  0  0  0
  -27.0850  -28.3660   20.3750 C   0  0  0  0  0  3  0  0  0  0  0  0
  -25.8380  -26.8300   18.9580 C   0  0  0  0  0  3  0  0  0  0  0  0
  -24.6890  -27.6370   19.0770 C   0  0  0  0  0  3  0  0  0  0  0  0
  -23.5570  -29.7290   20.0520 C   0  0  0  0  0  2  0  0  0  0  0  0
  -24.7140  -30.6530   22.1120 N   0  0  0  0  0  0  0  0  0  0  0  0
  -23.6750  -31.5280   23.9270 O   0  0  0  0  0  0  0  0  0  0  0  0
  -22.7110  -29.0980   22.3430 C   0  0  0  0  0  0  0  0  0  0  0  0
  -21.3830  -28.9850   22.1840 N   0  0  0  0  0  0  0  0  0  0  0  0
  -23.3610  -28.3510   23.0810 O   0  0  0  0  0  0  0  0  0  0  0  0
  -20.9270  -29.6480   21.5730 H   0  0  0  0  0  0  0  0  0  0  0  0
  -17.9620  -27.8280   22.4270 C   0  0  0  0  0  0  0  0  0  0  0  0
  -20.5140  -27.9880   22.8140 C   0  0  0  0  0  3  0  0  0  0  0  0
  -20.6080  -26.6260   22.0910 C   0  0  0  0  0  2  0  0  0  0  0  0
  -19.5360  -26.4440   21.0120 C   0  0  0  0  0  2  0  0  0  0  0  0
  -18.1340  -26.5530   21.6170 C   0  0  0  0  0  2  0  0  0  0  0  0
  -19.0810  -28.5070   22.9760 C   0  0  0  0  0  0  0  0  0  0  0  0
  -18.8730  -29.7040   23.6920 C   0  0  0  0  0  3  0  0  0  0  0  0
  -17.5770  -30.2230   23.8650 C   0  0  0  0  0  3  0  0  0  0  0  0
  -16.4700  -29.5360   23.3380 C   0  0  0  0  0  3  0  0  0  0  0  0
  -16.6630  -28.3420   22.6230 C   0  0  0  0  0  3  0  0  0  0  0  0
  -26.0620  -31.7270   23.9970 C   0  0  0  0  0  3  0  0  0  0  0  0
  -25.8890  -33.1170   24.4370 N   0  0  0  0  0  0  0  0  0  0  0  0
  -26.3500  -34.1880   23.7760 C   0  0  0  0  0  0  0  0  0  0  0  0
  -27.0380  -34.0990   22.7550 O   0  0  0  0  0  0  0  0  0  0  0  0
  -25.2840  -33.2600   25.2300 H   0  0  0  0  0  0  0  0  0  0  0  0
  -24.8190  -36.1670   23.5330 C   0  0  0  0  0  1  0  0  0  0  0  0
  -25.9900  -35.5780   24.3350 C   0  0  0  0  0  3  0  0  0  0  0  0
  -28.1670  -36.1910   25.2890 C   0  0  0  0  0  1  0  0  0  0  0  0
  -27.1250  -36.5270   24.3240 N   0  0  0  0  0  0  0  0  0  0  0  0
  -26.8080  -37.4750   24.5080 H   0  0  0  0  0  0  0  0  0  0  0  0
  -26.4850  -30.8070   25.2090 C   0  0  1  0  0  0  0  0  0  0  0  0
  -25.3780  -30.6220   26.2740 C   0  0  0  0  0  1  0  0  0  0  0  0
  -26.8980  -29.4040   24.7070 C   0  0  0  0  0  1  0  0  0  0  0  0
  -27.7210  -31.4100   25.9140 C   0  0  0  0  0  1  0  0  0  0  0  0
  1  2  1  0
  1  4  1  0
  3  1  1  0
  5  7  1  0
  6  8  2  0
  6  9  1  0
  8 10  1  0
  9  5  2  0
 10  4  1  0
 10  7  2  0
 11 20  1  0
 11  9  1  0
 12 20  1  0
 13 18  1  0
 14 15  1  0
 14 13  1  0
 16 15  1  0
 16 25  1  0
 16 17  1  0
 18 12  1  0
 18 17  1  0
 19 12  2  0
 20 21  1  0
 22 23  2  0
 23 42  1  0
 24 23  1  0
 24 27  1  0
 25 26  1  0
 25 22  1  0
 26 24  2  0
 27 28  1  0
 28 29  2  0
 30 33  1  0
 30 29  1  0
 31 30  2  0
 32 31  1  0
 32 27  2  0
 33 34  1  0
 34 39  2  0
 34 35  1  0
 35 36  2  0
 36 37  1  0
 37 41  1  0
 38 37  2  0
 39 38  1  0
 40 39  1  0
 42 43  1  0
 43 46  1  0
 43 45  1  0
 44 42  2  0
 47 48  1  0
 47 22  1  0
 49 47  1  0
 50  1  1  0
 51 50  1  0
 52 51  1  0
 53 55  1  0
 53 52  1  0
 54 65  2  0
 55 60  1  0
 56 64  1  0
 56 66  1  0
 57 63  1  0
 57 59  1  0
 58 64  1  0
 59 58  1  0
 60 59  2  0
 61 62  1  0
 61 55  2  0
 62 57  2  0
 63 56  1  0
 64 54  1  0
 66 68  2  0
 67 66  1  0
 69 67  1  0
 70 79  2  0
 70 75  1  0
 71 67  1  0
 71 75  1  0
 72 71  1  0
 73 74  1  0
 73 72  1  0
 74 70  1  0
 75 76  2  0
 76 77  1  0
 78 77  2  0
 79 78  1  0
 80 54  1  0
 80 81  1  0
 80 90  1  0
 81 84  1  0
 82 86  1  0
 82 81  1  0
 83 82  2  0
 86 85  1  0
 88 86  1  0
 88 89  1  0
 88 87  1  0
 90 93  1  1
 90 91  1  0
 92 90  1  0
M  ISO  4  12 100  20 100  52 101  53 101
M  END
>  <TORSDO>  (49) 
F 22

>  <SCORE>  (49) 
-10.198

>  <name>  (49) 
48

>  <ligand_id>  (49) 
48

>  <original_smiles>  (49) 
[H]c1c([H])c([H])c2c(c1[H])C([H])([H])C([H])([H])C([H])([H])C2([H])N([H])C(=O)C1([H])N(C(=O)C([H])(N([H])C(=O)C([H])(N([H])C([H])([H])[H])C([H])([H])[H])C(C([H])([H])[H])(C([H])([H])[H])C([H])([H])[H])C([H])([H])c2c([H])c(OC([H])([H])C([H])([H])C([H])([H])[N+]([H])([H])C([H])([H])c3c([H])c([H])c(C([H])([H])N([H])C(=O)N4C([H])([H])C([H])([H])C([H])([H])C([H])(n5nc(-c6c([H])c([H])c(Oc7c([H])c([H])c(F)c([H])c7F)c([H])c6[H])c(C(=O)N([H])[H])c5N([H])[H])C4([H])[H])c([H])c3[H])c([H])c([H])c2C1([H])[H]

>  <smiles>  (49) 
[H]c1c([H])c([H])c2c(c1[H])C([H])([H])C([H])([H])C([H])([H])C2([H])N([H])C(=O)C1([H])N(C(=O)C([H])(N([H])C(=O)C([H])(N([H])C([H])([H])[H])C([H])([H])[H])C(C([H])([H])[H])(C([H])([H])[H])C([H])([H])[H])C([H])([H])c2c([H])c(OC([H])([H])C([H])([H])C([H])([H])[N+]([H])([H])C([H])([H])c3c([H])c([H])c(C([H])([H])N([H])C(=O)N4C([H])([H])C([H])([H])C([H])([H])C([H])(n5nc(-c6c([H])c([H])c(Oc7c([H])c([H])c(F)c([H])c7F)c([H])c6[H])c(C(=O)N([H])[H])c5N([H])[H])C4([H])[H])c([H])c3[H])c([H])c([H])c2C1([H])[H]

$$$$
49:0:0
     RDKit          3D

 88 95  0  0  1  0  0  0  0  0999 V2000
  -28.7220  -22.7090   19.9650 C   0  0  0  0  0  0  0  0  0  0  0  0
  -29.3100  -22.8930   18.7780 N   0  0  0  0  0  4  0  0  0  0  0  0
  -28.7840  -21.2940   20.4740 N   0  0  0  0  0  0  0  0  0  0  0  0
  -29.7890  -22.1540   18.2920 H   0  0  0  0  0  0  0  0  0  0  0  0
  -29.3090  -23.8140   18.3640 H   0  0  0  0  0  0  0  0  0  0  0  0
  -28.3550  -21.2320   21.3880 H   0  0  0  0  0  0  0  0  0  0  0  0
  -27.9860  -24.1930   20.5500 C   0  0  0  0  0  2  0  0  0  0  0  0
  -28.2290  -25.7990   20.1980 O   0  0  0  0  0  0  0  0  0  0  0  0
  -24.6650  -31.8220   23.1690 C   0  0  0  0  0  0  0  0  0  0  0  0
  -27.2190  -26.9050   20.1950 C   0  0  0  0  0  0  0  0  0  0  0  0
  -23.4810  -30.4320   21.5190 C   0  0  0  0  0  3  0  0  0  0  0  0
  -24.9340  -28.8110   20.1200 C   0  0  0  0  0  0  0  0  0  0  0  0
  -26.0520  -30.6220   21.4010 C   0  0  0  0  0  2  0  0  0  0  0  0
  -26.1200  -29.2080   20.7500 C   0  0  0  0  0  0  0  0  0  0  0  0
  -27.2600  -28.2790   20.7560 C   0  0  0  0  0  3  0  0  0  0  0  0
  -26.0000  -26.6640   19.5220 C   0  0  0  0  0  3  0  0  0  0  0  0
  -24.9000  -27.5590   19.4850 C   0  0  0  0  0  3  0  0  0  0  0  0
  -23.7220  -29.7440   20.1480 C   0  0  0  0  0  2  0  0  0  0  0  0
  -24.7540  -30.9860   22.0830 N   0  0  0  0  0  0  0  0  0  0  0  0
  -23.5720  -32.1200   23.6770 O   0  0  0  0  0  0  0  0  0  0  0  0
  -22.7670  -29.4430   22.4780 C   0  0  0  0  0  0  0  0  0  0  0  0
  -21.4340  -29.3050   22.3530 N   0  0  0  0  0  0  0  0  0  0  0  0
  -23.4210  -28.8010   23.3030 O   0  0  0  0  0  0  0  0  0  0  0  0
  -20.9600  -29.8730   21.6650 H   0  0  0  0  0  0  0  0  0  0  0  0
  -18.0320  -28.1410   22.8470 C   0  0  0  0  0  0  0  0  0  0  0  0
  -20.5950  -28.3760   23.1180 C   0  0  0  0  0  3  0  0  0  0  0  0
  -20.6800  -26.9440   22.5400 C   0  0  0  0  0  2  0  0  0  0  0  0
  -19.5770  -26.6380   21.5210 C   0  0  0  0  0  2  0  0  0  0  0  0
  -18.1960  -26.7940   22.1620 C   0  0  0  0  0  2  0  0  0  0  0  0
  -19.1590  -28.8900   23.2810 C   0  0  0  0  0  0  0  0  0  0  0  0
  -18.9500  -30.1490   23.8850 C   0  0  0  0  0  3  0  0  0  0  0  0
  -17.6490  -30.6600   24.0550 C   0  0  0  0  0  3  0  0  0  0  0  0
  -16.5380  -29.9090   23.6340 C   0  0  0  0  0  3  0  0  0  0  0  0
  -16.7310  -28.6510   23.0360 C   0  0  0  0  0  3  0  0  0  0  0  0
  -25.9320  -32.4580   23.8160 C   0  0  0  0  0  3  0  0  0  0  0  0
  -26.4560  -31.6530   25.0700 C   0  0  1  0  0  0  0  0  0  0  0  0
  -25.3680  -31.3790   26.1350 C   0  0  0  0  0  1  0  0  0  0  0  0
  -27.0470  -30.2900   24.6450 C   0  0  0  0  0  1  0  0  0  0  0  0
  -27.6050  -32.4350   25.7510 C   0  0  0  0  0  1  0  0  0  0  0  0
  -25.5980  -33.8390   24.2060 N   0  0  0  0  0  0  0  0  0  0  0  0
  -25.9100  -34.9340   23.5000 C   0  0  0  0  0  0  0  0  0  0  0  0
  -26.5720  -34.8880   22.4600 O   0  0  0  0  0  0  0  0  0  0  0  0
  -25.0070  -33.9470   25.0180 H   0  0  0  0  0  0  0  0  0  0  0  0
  -24.1490  -36.7200   23.2650 C   0  0  0  0  0  1  0  0  0  0  0  0
  -25.4140  -36.2960   24.0300 C   0  0  0  0  0  3  0  0  0  0  0  0
  -27.5570  -37.1760   24.8460 C   0  0  0  0  0  1  0  0  0  0  0  0
  -26.4280  -37.3700   23.9410 N   0  0  0  0  0  0  0  0  0  0  0  0
  -26.0120  -38.2760   24.1420 H   0  0  0  0  0  0  0  0  0  0  0  0
  -29.1370  -19.7280   19.9100 C   0  0  0  0  0  2  0  0  0  0  0  0
  -29.8340  -18.2270   20.6570 C   0  0  0  0  0  2  0  0  0  0  0  0
  -30.4200  -15.2990   20.3710 C   0  0  0  0  0  0  0  0  0  0  0  0
  -30.4410  -12.8380   19.5120 C   0  0  0  0  0  2  0  0  0  0  0  0
  -29.5350  -12.5790   18.2810 C   0  0  0  0  0  2  0  0  0  0  0  0
  -28.0860  -12.2950   18.7160 C   0  0  0  0  0  2  0  0  0  0  0  0
  -27.6090  -13.2750   19.8160 C   0  0  0  0  0  3  0  0  0  0  0  0
  -28.6450  -13.4650   20.9440 C   0  0  0  0  0  2  0  0  0  0  0  0
  -29.8640  -13.9870   20.3030 N   0  0  0  0  0  0  0  0  0  0  0  0
  -31.6510  -15.2980   20.2260 O   0  0  0  0  0  0  0  0  0  0  0  0
  -29.6390  -16.5700   20.4060 N   0  0  0  0  0  0  0  0  0  0  0  0
  -28.6550  -16.3430   20.3750 H   0  0  0  0  0  0  0  0  0  0  0  0
  -25.2390  -13.8240   20.5750 C   0  0  0  0  0  0  0  0  0  0  0  0
  -24.1740  -13.0430   20.9260 C   0  0  0  0  0  0  0  0  0  0  0  0
  -24.6400  -11.6930   20.8760 C   0  0  0  0  0  0  0  0  0  0  0  0
  -26.2810  -12.9510   20.3200 N   0  0  0  0  0  0  0  0  0  0  0  0
  -25.9330  -11.6620   20.5710 N   0  0  0  0  0  0  0  0  0  0  0  0
  -23.9090  -10.4290   21.0410 C   0  0  0  0  0  0  0  0  0  0  0  0
  -24.3640   -9.4200   21.9180 C   0  0  0  0  0  3  0  0  0  0  0  0
  -23.6300   -8.2240   22.0760 C   0  0  0  0  0  3  0  0  0  0  0  0
  -22.4280   -8.0280   21.3540 C   0  0  0  0  0  0  0  0  0  0  0  0
  -21.9930   -9.0250   20.4650 C   0  0  0  0  0  3  0  0  0  0  0  0
  -22.7260  -10.2130   20.3050 C   0  0  0  0  0  3  0  0  0  0  0  0
  -21.6650   -6.8880   21.4240 O   0  0  0  0  0  0  0  0  0  0  0  0
  -21.6860   -6.0740   22.5280 C   0  0  0  0  0  0  0  0  0  0  0  0
  -21.4020   -6.5640   23.8210 C   0  0  0  0  0  3  0  0  0  0  0  0
  -21.3660   -5.6790   24.9170 C   0  0  0  0  0  3  0  0  0  0  0  0
  -21.6050   -4.3060   24.7220 C   0  0  0  0  0  0  0  0  0  0  0  0
  -21.8820   -3.8150   23.4340 C   0  0  0  0  0  3  0  0  0  0  0  0
  -21.9190   -4.6960   22.3400 C   0  0  0  0  0  0  0  0  0  0  0  0
  -22.1660   -4.2150   21.0980 F   0  0  0  0  0  0  0  0  0  0  0  0
  -21.5630   -3.4540   25.7740 F   0  0  0  0  0  0  0  0  0  0  0  0
  -22.7760  -13.5180   21.1910 C   0  0  0  0  0  0  0  0  0  0  0  0
  -22.0410  -12.8160   22.0460 N   0  0  0  0  0  0  0  0  0  0  0  0
  -22.3440  -14.5490   20.6750 O   0  0  0  0  0  0  0  0  0  0  0  0
  -22.4050  -11.9840   22.4850 H   0  0  0  0  0  0  0  0  0  0  0  0
  -21.1020  -13.1170   22.2660 H   0  0  0  0  0  0  0  0  0  0  0  0
  -25.4010  -15.1980   20.4180 N   0  0  0  0  0  0  0  0  0  0  0  0
  -24.6270  -15.8440   20.5310 H   0  0  0  0  0  0  0  0  0  0  0  0
  -26.2360  -15.6400   20.0600 H   0  0  0  0  0  0  0  0  0  0  0  0
  1  3  1  0
  1  7  1  0
  2  1  2  0
  3  6  1  0
  4  2  1  0
  5  2  1  0
  8  7  1  0
  9 20  2  0
 10  8  1  0
 10 15  1  0
 11 19  1  0
 11 21  1  0
 12 18  1  0
 12 14  1  0
 13 19  1  0
 14 15  2  0
 14 13  1  0
 16 10  2  0
 17 16  1  0
 17 12  2  0
 18 11  1  0
 19  9  1  0
 21 23  2  0
 22 21  1  0
 24 22  1  0
 25 34  2  0
 25 30  1  0
 26 22  1  0
 26 30  1  0
 27 26  1  0
 28 29  1  0
 28 27  1  0
 29 25  1  0
 30 31  2  0
 31 32  1  0
 33 32  2  0
 34 33  1  0
 35  9  1  0
 35 40  1  0
 35 36  1  0
 36 39  1  1
 36 37  1  0
 38 36  1  0
 40 43  1  0
 41 45  1  0
 41 40  1  0
 42 41  2  0
 45 44  1  0
 47 45  1  0
 47 48  1  0
 47 46  1  0
 49  3  1  0
 49 50  1  0
 51 59  1  0
 52 57  1  0
 53 54  1  0
 53 52  1  0
 55 54  1  0
 55 64  1  0
 55 56  1  0
 57 51  1  0
 57 56  1  0
 58 51  2  0
 59 50  1  0
 60 59  1  0
 61 62  2  0
 62 81  1  0
 63 62  1  0
 63 66  1  0
 64 65  1  0
 64 61  1  0
 65 63  2  0
 66 67  1  0
 67 68  2  0
 69 72  1  0
 69 68  1  0
 70 69  2  0
 71 70  1  0
 71 66  2  0
 72 73  1  0
 73 74  1  0
 74 75  2  0
 76 75  1  0
 76 80  1  0
 77 76  2  0
 78 73  2  0
 78 77  1  0
 79 78  1  0
 81 82  1  0
 82 85  1  0
 82 84  1  0
 83 81  2  0
 86 87  1  0
 86 61  1  0
 88 86  1  0
M  ISO  4   7 101   8 101  51 100  59 100
M  END
>  <TORSDO>  (50) 
F 19

>  <SCORE>  (50) 
-16.180

>  <name>  (50) 
49

>  <ligand_id>  (50) 
49

>  <original_smiles>  (50) 
[H]c1c([H])c([H])c2c(c1[H])C([H])([H])C([H])([H])C([H])([H])C2([H])N([H])C(=O)C1([H])N(C(=O)C([H])(N([H])C(=O)C([H])(N([H])C([H])([H])[H])C([H])([H])[H])C(C([H])([H])[H])(C([H])([H])[H])C([H])([H])[H])C([H])([H])c2c([H])c(OC([H])([H])C(N([H])[H])=[N+]([H])C([H])([H])C([H])([H])N([H])C(=O)N3C([H])([H])C([H])([H])C([H])([H])C([H])(n4nc(-c5c([H])c([H])c(Oc6c([H])c([H])c(F)c([H])c6F)c([H])c5[H])c(C(=O)N([H])[H])c4N([H])[H])C3([H])[H])c([H])c([H])c2C1([H])[H]

>  <smiles>  (50) 
[H]c1c([H])c([H])c2c(c1[H])C([H])([H])C([H])([H])C([H])([H])C2([H])N([H])C(=O)C1([H])N(C(=O)C([H])(N([H])C(=O)C([H])(N([H])C([H])([H])[H])C([H])([H])[H])C(C([H])([H])[H])(C([H])([H])[H])C([H])([H])[H])C([H])([H])c2c([H])c(OC([H])([H])C(N([H])[H])=[N+]([H])C([H])([H])C([H])([H])N([H])C(=O)N3C([H])([H])C([H])([H])C([H])([H])C([H])(n4nc(-c5c([H])c([H])c(Oc6c([H])c([H])c(F)c([H])c6F)c([H])c5[H])c(C(=O)N([H])[H])c4N([H])[H])C3([H])[H])c([H])c([H])c2C1([H])[H]

$$$$
50:0:0
     RDKit          3D

 91100  0  0  1  0  0  0  0  0999 V2000
  -30.7710  -14.8790   20.1360 C   0  0  0  0  0  0  0  0  0  0  0  0
  -30.6590  -12.4510   19.4480 C   0  0  0  0  0  2  0  0  0  0  0  0
  -29.7130  -12.2950   18.2300 C   0  0  0  0  0  2  0  0  0  0  0  0
  -28.2330  -12.1900   18.6630 C   0  0  0  0  0  2  0  0  0  0  0  0
  -27.8590  -13.2290   19.7550 C   0  0  0  0  0  3  0  0  0  0  0  0
  -28.9190  -13.2030   20.8800 C   0  0  0  0  0  2  0  0  0  0  0  0
  -30.1840  -13.6150   20.2490 N   0  0  0  0  0  0  0  0  0  0  0  0
  -31.9400  -14.9100   19.7330 O   0  0  0  0  0  0  0  0  0  0  0  0
  -30.4120  -21.1760   17.9170 C   0  0  0  0  0  2  0  0  0  0  0  0
  -30.3090  -19.5960   17.8870 C   0  0  0  0  0  2  0  0  0  0  0  0
  -28.1610  -17.6280   21.1770 C   0  0  0  0  0  2  0  0  0  0  0  0
  -29.0520  -16.3680   21.2430 C   0  0  0  0  0  2  0  0  0  0  0  0
  -30.0780  -17.1970   19.0640 C   0  0  0  0  0  2  0  0  0  0  0  0
  -28.8500  -18.9930   21.3100 C   0  0  0  0  0  2  0  0  0  0  0  0
  -29.2320  -21.1210   20.0520 C   0  0  0  0  0  2  0  0  0  0  0  0
  -29.2730  -21.9320   18.6830 C   0  0  0  0  0  3  0  0  0  0  0  0
  -30.2000  -18.8430   19.2630 C   0  0  0  0  0  3  0  0  0  0  0  0
  -29.9980  -16.0800   20.1390 N   0  0  0  0  0  0  0  0  0  0  0  0
  -29.1020  -19.5880   19.9810 N   0  0  1  0  0  4  0  0  0  0  0  0
  -28.2570  -19.4310   19.4530 H   0  0  0  0  0  0  0  0  0  0  0  0
  -25.5150  -13.9840   20.4690 C   0  0  0  0  0  0  0  0  0  0  0  0
  -24.4060  -13.2850   20.8600 C   0  0  0  0  0  0  0  0  0  0  0  0
  -24.7820  -11.9080   20.8450 C   0  0  0  0  0  0  0  0  0  0  0  0
  -26.5020  -13.0370   20.2490 N   0  0  0  0  0  0  0  0  0  0  0  0
  -26.0660  -11.7830   20.5300 N   0  0  0  0  0  0  0  0  0  0  0  0
  -23.9800  -10.6990   21.0590 C   0  0  0  0  0  0  0  0  0  0  0  0
  -24.3910   -9.6900   21.9570 C   0  0  0  0  0  3  0  0  0  0  0  0
  -23.5930   -8.5440   22.1600 C   0  0  0  0  0  3  0  0  0  0  0  0
  -22.3680   -8.4000   21.4660 C   0  0  0  0  0  0  0  0  0  0  0  0
  -21.9740   -9.3970   20.5560 C   0  0  0  0  0  3  0  0  0  0  0  0
  -22.7730  -10.5340   20.3500 C   0  0  0  0  0  3  0  0  0  0  0  0
  -21.5390   -7.3100   21.5820 O   0  0  0  0  0  0  0  0  0  0  0  0
  -21.5400   -6.5220   22.7050 C   0  0  0  0  0  0  0  0  0  0  0  0
  -21.2820   -7.0530   23.9890 C   0  0  0  0  0  3  0  0  0  0  0  0
  -21.2230   -6.1950   25.1050 C   0  0  0  0  0  3  0  0  0  0  0  0
  -21.4130   -4.8090   24.9420 C   0  0  0  0  0  0  0  0  0  0  0  0
  -21.6630   -4.2800   23.6640 C   0  0  0  0  0  3  0  0  0  0  0  0
  -21.7250   -5.1340   22.5490 C   0  0  0  0  0  0  0  0  0  0  0  0
  -21.9450   -4.6150   21.3170 F   0  0  0  0  0  0  0  0  0  0  0  0
  -21.3490   -3.9840   26.0130 F   0  0  0  0  0  0  0  0  0  0  0  0
  -23.0440  -13.8550   21.1350 C   0  0  0  0  0  0  0  0  0  0  0  0
  -22.2860  -13.2260   22.0260 N   0  0  0  0  0  0  0  0  0  0  0  0
  -22.6640  -14.8930   20.5930 O   0  0  0  0  0  0  0  0  0  0  0  0
  -22.6070  -12.3860   22.4850 H   0  0  0  0  0  0  0  0  0  0  0  0
  -21.3720  -13.5890   22.2540 H   0  0  0  0  0  0  0  0  0  0  0  0
  -25.7560  -15.3390   20.2610 N   0  0  0  0  0  0  0  0  0  0  0  0
  -25.0150  -16.0290   20.3410 H   0  0  0  0  0  0  0  0  0  0  0  0
  -26.6100  -15.7140   19.8730 H   0  0  0  0  0  0  0  0  0  0  0  0
  -29.4580  -23.5800   18.7690 C   0  0  0  0  0  3  0  0  0  0  0  0
  -28.3220  -24.6850   18.3460 C   0  0  0  0  0  3  0  0  0  0  0  0
  -28.4510  -26.1830   18.6050 O   0  0  0  0  0  0  0  0  0  0  0  0
  -24.5510  -30.9010   22.5820 C   0  0  0  0  0  0  0  0  0  0  0  0
  -27.2930  -27.0050   18.7320 C   0  0  0  0  0  0  0  0  0  0  0  0
  -23.3550  -29.6580   20.8190 C   0  0  0  0  0  3  0  0  0  0  0  0
  -24.8240  -28.4570   19.0940 C   0  0  0  0  0  0  0  0  0  0  0  0
  -25.8540  -30.1940   20.5520 C   0  0  0  0  0  2  0  0  0  0  0  0
  -25.9960  -28.9320   19.6950 C   0  0  0  0  0  0  0  0  0  0  0  0
  -27.2290  -28.2210   19.5040 C   0  0  0  0  0  3  0  0  0  0  0  0
  -26.0870  -26.6140   18.1060 C   0  0  0  0  0  3  0  0  0  0  0  0
  -24.8750  -27.3090   18.2890 C   0  0  0  0  0  3  0  0  0  0  0  0
  -23.5310  -29.2110   19.3440 C   0  0  0  0  0  2  0  0  0  0  0  0
  -24.6080  -30.2640   21.3750 N   0  0  0  0  0  0  0  0  0  0  0  0
  -23.4850  -31.0060   23.2080 O   0  0  0  0  0  0  0  0  0  0  0  0
  -22.8320  -28.4630   21.6520 C   0  0  0  0  0  0  0  0  0  0  0  0
  -21.5130  -28.2060   21.5880 N   0  0  0  0  0  0  0  0  0  0  0  0
  -23.6090  -27.7740   22.3170 O   0  0  0  0  0  0  0  0  0  0  0  0
  -20.9380  -28.8200   21.0280 H   0  0  0  0  0  0  0  0  0  0  0  0
  -18.2750  -26.6700   22.0980 C   0  0  0  0  0  0  0  0  0  0  0  0
  -20.8200  -27.1020   22.2540 C   0  0  0  0  0  3  0  0  0  0  0  0
  -20.9860  -25.7820   21.4650 C   0  0  0  0  0  2  0  0  0  0  0  0
  -19.8430  -25.5200   20.4800 C   0  0  0  0  0  2  0  0  0  0  0  0
  -18.5020  -25.4550   21.2170 C   0  0  0  0  0  2  0  0  0  0  0  0
  -19.3610  -27.4530   22.5720 C   0  0  0  0  0  0  0  0  0  0  0  0
  -19.0910  -28.5930   23.3610 C   0  0  0  0  0  3  0  0  0  0  0  0
  -17.7680  -28.9520   23.6770 C   0  0  0  0  0  3  0  0  0  0  0  0
  -16.6970  -28.1660   23.2180 C   0  0  0  0  0  3  0  0  0  0  0  0
  -16.9510  -27.0260   22.4350 C   0  0  0  0  0  3  0  0  0  0  0  0
  -25.8160  -31.5470   23.2250 C   0  0  0  0  0  3  0  0  0  0  0  0
  -25.4040  -32.8200   23.8380 N   0  0  0  0  0  0  0  0  0  0  0  0
  -25.5940  -34.0270   23.2890 C   0  0  0  0  0  0  0  0  0  0  0  0
  -26.2020  -34.1910   22.2280 O   0  0  0  0  0  0  0  0  0  0  0  0
  -24.8510  -32.7570   24.6790 H   0  0  0  0  0  0  0  0  0  0  0  0
  -23.6940  -35.6730   23.3850 C   0  0  0  0  0  1  0  0  0  0  0  0
  -25.0190  -35.2480   24.0350 C   0  0  0  0  0  3  0  0  0  0  0  0
  -27.1200  -36.1680   24.9130 C   0  0  0  0  0  1  0  0  0  0  0  0
  -25.9450  -36.4010   24.0790 N   0  0  0  0  0  0  0  0  0  0  0  0
  -25.4710  -37.2300   24.4250 H   0  0  0  0  0  0  0  0  0  0  0  0
  -26.5110  -30.6180   24.2960 C   0  0  1  0  0  0  0  0  0  0  0  0
  -25.5420  -30.0850   25.3770 C   0  0  0  0  0  1  0  0  0  0  0  0
  -27.1750  -29.3990   23.6170 C   0  0  0  0  0  1  0  0  0  0  0  0
  -27.6420  -31.3980   25.0080 C   0  0  0  0  0  1  0  0  0  0  0  0
  1 18  1  0
  1  7  1  0
  2  7  1  0
  3  4  1  0
  3  2  1  0
  5  4  1  0
  5 24  1  0
  5  6  1  0
  7  6  1  0
  8  1  2  0
  9 16  1  0
 10  9  1  0
 11 12  1  0
 11 14  1  0
 13 17  1  0
 13 18  1  0
 16 49  1  0
 16 15  1  0
 17 10  1  0
 17 19  1  0
 18 12  1  0
 19 20  1  6
 19 15  1  0
 19 14  1  0
 21 22  2  0
 22 41  1  0
 23 22  1  0
 23 26  1  0
 24 21  1  0
 24 25  1  0
 25 23  2  0
 26 27  1  0
 27 28  2  0
 29 32  1  0
 29 28  1  0
 30 29  2  0
 31 30  1  0
 31 26  2  0
 32 33  1  0
 33 34  1  0
 34 35  2  0
 36 35  1  0
 36 40  1  0
 37 36  2  0
 38 33  2  0
 38 37  1  0
 39 38  1  0
 41 42  1  0
 42 45  1  0
 42 44  1  0
 43 41  2  0
 46 47  1  0
 46 21  1  0
 48 46  1  0
 50 51  1  0
 50 49  2  0
 51 53  1  0
 52 63  2  0
 53 58  1  0
 54 62  1  0
 54 64  1  0
 55 61  1  0
 55 57  1  0
 56 62  1  0
 57 56  1  0
 58 57  2  0
 59 60  1  0
 59 53  2  0
 60 55  2  0
 61 54  1  0
 62 52  1  0
 64 66  2  0
 65 64  1  0
 67 65  1  0
 68 77  2  0
 68 73  1  0
 69 65  1  0
 69 73  1  0
 70 69  1  0
 71 72  1  0
 71 70  1  0
 72 68  1  0
 73 74  2  0
 74 75  1  0
 76 75  2  0
 77 76  1  0
 78 52  1  0
 78 79  1  0
 78 88  1  0
 79 82  1  0
 80 79  1  0
 80 84  1  0
 81 80  2  0
 84 83  1  0
 84 86  1  0
 86 87  1  0
 86 85  1  0
 88 91  1  1
 88 89  1  0
 90 88  1  0
M  ISO  4   1 100  18 100  50 101  51 101
M  END
>  <TORSDO>  (51) 
F 17

>  <SCORE>  (51) 
-10.130

>  <name>  (51) 
50

>  <ligand_id>  (51) 
50

>  <original_smiles>  (51) 
[H]c1c([H])c([H])c2c(c1[H])C([H])([H])C([H])([H])C([H])([H])C2([H])N([H])C(=O)C1([H])N(C(=O)C([H])(N([H])C(=O)C([H])(N([H])C([H])([H])[H])C([H])([H])[H])C(C([H])([H])[H])(C([H])([H])[H])C([H])([H])[H])C([H])([H])c2c([H])c(OC([H])([H])C([H])([H])C3([H])C([H])([H])C([H])([H])C4([H])C([H])([H])N(C(=O)N5C([H])([H])C([H])([H])C([H])([H])C([H])(n6nc(-c7c([H])c([H])c(Oc8c([H])c([H])c(F)c([H])c8F)c([H])c7[H])c(C(=O)N([H])[H])c6N([H])[H])C5([H])[H])C([H])([H])C([H])([H])C([H])([H])[N+]4([H])C3([H])[H])c([H])c([H])c2C1([H])[H]

>  <smiles>  (51) 
[H]c1c([H])c([H])c2c(c1[H])C([H])([H])C([H])([H])C([H])([H])C2([H])N([H])C(=O)C1([H])N(C(=O)C([H])(N([H])C(=O)C([H])(N([H])C([H])([H])[H])C([H])([H])[H])C(C([H])([H])[H])(C([H])([H])[H])C([H])([H])[H])C([H])([H])c2c([H])c(OC([H])([H])C([H])([H])C3([H])C([H])([H])C([H])([H])C4([H])C([H])([H])N(C(=O)N5C([H])([H])C([H])([H])C([H])([H])C([H])(n6nc(-c7c([H])c([H])c(Oc8c([H])c([H])c(F)c([H])c8F)c([H])c7[H])c(C(=O)N([H])[H])c6N([H])[H])C5([H])[H])C([H])([H])C([H])([H])C([H])([H])[N+]4([H])C3([H])[H])c([H])c([H])c2C1([H])[H]

$$$$
51:0:0
     RDKit          3D

 99108  0  0  1  0  0  0  0  0999 V2000
  -26.5080  -21.3160   19.5400 C   0  0  0  0  0  2  0  0  0  0  0  0
  -28.9510  -21.2920   20.1730 C   0  0  0  0  0  2  0  0  0  0  0  0
  -26.5840  -22.8180   19.1570 C   0  0  0  0  0  2  0  0  0  0  0  0
  -28.5780  -22.7270   20.6190 C   0  0  0  0  0  2  0  0  0  0  0  0
  -27.8450  -20.5660   19.3640 C   0  0  0  0  0  3  0  0  0  0  0  0
  -27.8640  -23.4810   19.5560 N   0  0  2  0  0  4  0  0  0  0  0  0
  -28.4780  -23.4570   18.7500 H   0  0  0  0  0  0  0  0  0  0  0  0
  -28.1900  -20.3750   17.8640 C   0  0  0  0  0  2  0  0  0  0  0  0
  -29.3660  -19.5110   17.6080 N   0  0  0  0  0  4  0  0  0  0  0  0
  -29.6250  -19.6580   16.6460 H   0  0  0  0  0  0  0  0  0  0  0  0
  -30.1410  -19.8120   18.1770 H   0  0  0  0  0  0  0  0  0  0  0  0
  -29.1710  -18.0570   17.7970 C   0  0  0  0  0  2  0  0  0  0  0  0
  -29.1820  -17.9430   21.6270 C   0  0  0  0  0  3  0  0  0  0  0  0
  -30.1010  -16.9130   21.9020 C   0  0  0  0  0  3  0  0  0  0  0  0
  -28.9060  -18.3050   20.2940 C   0  0  0  0  0  3  0  0  0  0  0  0
  -30.7450  -16.2430   20.8470 C   0  0  0  0  0  3  0  0  0  0  0  0
  -29.5350  -17.6330   19.2220 C   0  0  0  0  0  0  0  0  0  0  0  0
  -30.4470  -16.5810   19.5030 C   0  0  0  0  0  0  0  0  0  0  0  0
  -31.7280  -14.7100   18.4320 C   0  0  0  0  0  0  0  0  0  0  0  0
  -31.5390  -12.2650   18.5650 C   0  0  0  0  0  2  0  0  0  0  0  0
  -30.4810  -11.7680   17.5580 C   0  0  0  0  0  2  0  0  0  0  0  0
  -29.0700  -11.7950   18.1780 C   0  0  0  0  0  2  0  0  0  0  0  0
  -28.7510  -13.1400   18.8740 C   0  0  0  0  0  3  0  0  0  0  0  0
  -29.9100  -13.5430   19.8050 C   0  0  0  0  0  2  0  0  0  0  0  0
  -31.1520  -13.6160   19.0080 N   0  0  0  0  0  0  0  0  0  0  0  0
  -32.7560  -14.6440   17.7540 O   0  0  0  0  0  0  0  0  0  0  0  0
  -31.0670  -15.8820   18.4350 N   0  0  0  0  0  0  0  0  0  0  0  0
  -31.4180  -16.4830   17.7050 H   0  0  0  0  0  0  0  0  0  0  0  0
  -26.7310  -14.1270   20.1340 C   0  0  0  0  0  0  0  0  0  0  0  0
  -25.6140  -13.5450   20.6720 C   0  0  0  0  0  0  0  0  0  0  0  0
  -25.7370  -12.1480   20.4080 C   0  0  0  0  0  0  0  0  0  0  0  0
  -27.4850  -13.0910   19.6030 N   0  0  0  0  0  0  0  0  0  0  0  0
  -26.8970  -11.8860   19.8190 N   0  0  0  0  0  0  0  0  0  0  0  0
  -24.7870  -11.0480   20.6220 C   0  0  0  0  0  0  0  0  0  0  0  0
  -25.1210   -9.9280   21.4160 C   0  0  0  0  0  3  0  0  0  0  0  0
  -24.1840   -8.8930   21.6220 C   0  0  0  0  0  3  0  0  0  0  0  0
  -22.8990   -8.9730   21.0350 C   0  0  0  0  0  0  0  0  0  0  0  0
  -22.5800  -10.0790   20.2290 C   0  0  0  0  0  3  0  0  0  0  0  0
  -23.5150  -11.1060   20.0190 C   0  0  0  0  0  3  0  0  0  0  0  0
  -21.9320   -8.0050   21.1640 O   0  0  0  0  0  0  0  0  0  0  0  0
  -21.8090   -7.2570   22.3070 C   0  0  0  0  0  0  0  0  0  0  0  0
  -21.6630   -7.8560   23.5790 C   0  0  0  0  0  3  0  0  0  0  0  0
  -21.4720   -7.0510   24.7180 C   0  0  0  0  0  3  0  0  0  0  0  0
  -21.4180   -5.6490   24.5880 C   0  0  0  0  0  0  0  0  0  0  0  0
  -21.5550   -5.0530   23.3220 C   0  0  0  0  0  3  0  0  0  0  0  0
  -21.7490   -5.8550   22.1850 C   0  0  0  0  0  0  0  0  0  0  0  0
  -21.8600   -5.2760   20.9650 F   0  0  0  0  0  0  0  0  0  0  0  0
  -21.2290   -4.8750   25.6810 F   0  0  0  0  0  0  0  0  0  0  0  0
  -24.4410  -14.2610   21.2760 C   0  0  0  0  0  0  0  0  0  0  0  0
  -23.8240  -13.6740   22.2960 N   0  0  0  0  0  0  0  0  0  0  0  0
  -24.0910  -15.3700   20.8730 O   0  0  0  0  0  0  0  0  0  0  0  0
  -24.1180  -12.7710   22.6370 H   0  0  0  0  0  0  0  0  0  0  0  0
  -23.0460  -14.1380   22.7450 H   0  0  0  0  0  0  0  0  0  0  0  0
  -27.1460  -15.4500   20.0220 N   0  0  0  0  0  0  0  0  0  0  0  0
  -26.4030  -16.1150   20.2050 H   0  0  0  0  0  0  0  0  0  0  0  0
  -27.6230  -15.6700   19.1580 H   0  0  0  0  0  0  0  0  0  0  0  0
  -27.7080  -24.9210   19.9060 C   0  0  0  0  0  2  0  0  0  0  0  0
  -27.0460  -25.7900   18.8000 C   0  0  0  0  0  2  0  0  0  0  0  0
  -27.0440  -27.1860   19.1280 O   0  0  0  0  0  0  0  0  0  0  0  0
  -27.3470  -31.6180   24.6480 C   0  0  0  0  0  0  0  0  0  0  0  0
  -26.4170  -27.5900   20.2880 C   0  0  0  0  0  0  0  0  0  0  0  0
  -25.7080  -29.7780   24.8460 C   0  0  0  0  0  3  0  0  0  0  0  0
  -25.2540  -28.4690   22.7100 C   0  0  0  0  0  0  0  0  0  0  0  0
  -26.3670  -30.7010   22.5540 C   0  0  0  0  0  2  0  0  0  0  0  0
  -26.0940  -29.3250   21.9880 C   0  0  0  0  0  0  0  0  0  0  0  0
  -26.6680  -28.8940   20.7710 C   0  0  0  0  0  3  0  0  0  0  0  0
  -25.5500  -26.7480   21.0210 C   0  0  0  0  0  3  0  0  0  0  0  0
  -24.9830  -27.1770   22.2350 C   0  0  0  0  0  3  0  0  0  0  0  0
  -24.6670  -29.0080   23.9920 C   0  0  0  0  0  2  0  0  0  0  0  0
  -26.5290  -30.7250   24.0260 N   0  0  0  0  0  0  0  0  0  0  0  0
  -27.3970  -31.6910   25.8840 O   0  0  0  0  0  0  0  0  0  0  0  0
  -26.5580  -28.7530   25.6330 C   0  0  0  0  0  0  0  0  0  0  0  0
  -26.2850  -28.6260   26.9440 N   0  0  0  0  0  0  0  0  0  0  0  0
  -27.4220  -28.0780   25.0630 O   0  0  0  0  0  0  0  0  0  0  0  0
  -25.5740  -29.2230   27.3410 H   0  0  0  0  0  0  0  0  0  0  0  0
  -26.7620  -27.9050   30.4460 C   0  0  0  0  0  0  0  0  0  0  0  0
  -26.9380  -27.7070   27.8760 C   0  0  0  0  0  3  0  0  0  0  0  0
  -26.1310  -26.3930   28.0210 C   0  0  0  0  0  2  0  0  0  0  0  0
  -25.1340  -26.4200   29.1870 C   0  0  0  0  0  2  0  0  0  0  0  0
  -25.8550  -26.6870   30.5110 C   0  0  0  0  0  2  0  0  0  0  0  0
  -27.2570  -28.3940   29.2080 C   0  0  0  0  0  0  0  0  0  0  0  0
  -28.0730  -29.5480   29.2020 C   0  0  0  0  0  3  0  0  0  0  0  0
  -28.3920  -30.2130   30.4000 C   0  0  0  0  0  3  0  0  0  0  0  0
  -27.9100  -29.7170   31.6230 C   0  0  0  0  0  3  0  0  0  0  0  0
  -27.0980  -28.5670   31.6460 C   0  0  0  0  0  3  0  0  0  0  0  0
  -28.2380  -32.6100   23.8360 C   0  0  0  0  0  3  0  0  0  0  0  0
  -27.9620  -33.9610   24.3400 N   0  0  0  0  0  0  0  0  0  0  0  0
  -27.2920  -34.9030   23.6660 C   0  0  0  0  0  0  0  0  0  0  0  0
  -26.8960  -34.7450   22.5070 O   0  0  0  0  0  0  0  0  0  0  0  0
  -28.2050  -34.1350   25.3030 H   0  0  0  0  0  0  0  0  0  0  0  0
  -25.5280  -36.3160   24.7680 C   0  0  0  0  0  1  0  0  0  0  0  0
  -27.0150  -36.2320   24.3920 C   0  0  0  0  0  3  0  0  0  0  0  0
  -28.8400  -37.5970   23.4710 C   0  0  0  0  0  1  0  0  0  0  0  0
  -27.3960  -37.4250   23.6030 N   0  0  0  0  0  0  0  0  0  0  0  0
  -27.0120  -38.2700   24.0190 H   0  0  0  0  0  0  0  0  0  0  0  0
  -29.7760  -32.2770   23.9330 C   0  0  1  0  0  0  0  0  0  0  0  0
  -30.3010  -32.1830   25.3850 C   0  0  0  0  0  1  0  0  0  0  0  0
  -30.0950  -30.9370   23.2270 C   0  0  0  0  0  1  0  0  0  0  0  0
  -30.5900  -33.3680   23.2020 C   0  0  0  0  0  1  0  0  0  0  0  0
  2  4  1  0
  3  1  1  0
  3  6  1  0
  5  8  1  0
  5  1  1  0
  5  2  1  0
  6 57  1  0
  6  4  1  0
  6  7  1  6
  9 12  1  0
  9  8  1  0
  9 11  1  0
 10  9  1  0
 12 17  1  0
 13 14  1  0
 15 13  2  0
 16 14  2  0
 17 18  2  0
 17 15  1  0
 18 16  1  0
 19 27  1  0
 19 25  1  0
 20 25  1  0
 21 22  1  0
 21 20  1  0
 23 22  1  0
 23 32  1  0
 23 24  1  0
 25 24  1  0
 26 19  2  0
 27 18  1  0
 28 27  1  0
 29 30  2  0
 30 49  1  0
 31 34  1  0
 31 30  1  0
 32 33  1  0
 32 29  1  0
 33 31  2  0
 34 35  1  0
 35 36  2  0
 37 40  1  0
 37 36  1  0
 38 37  2  0
 39 38  1  0
 39 34  2  0
 40 41  1  0
 41 42  1  0
 42 43  2  0
 44 43  1  0
 44 48  1  0
 45 44  2  0
 46 41  2  0
 46 45  1  0
 47 46  1  0
 49 50  1  0
 50 52  1  0
 50 53  1  0
 51 49  2  0
 54 29  1  0
 54 55  1  0
 56 54  1  0
 58 59  1  0
 58 57  1  0
 59 61  1  0
 60 71  2  0
 61 66  2  0
 61 67  1  0
 62 72  1  0
 63 69  1  0
 64 70  1  0
 65 64  1  0
 65 63  2  0
 66 65  1  0
 67 68  2  0
 68 63  1  0
 69 62  1  0
 70 60  1  0
 70 62  1  0
 72 73  1  0
 73 75  1  0
 74 72  2  0
 76 80  1  0
 76 85  1  0
 77 73  1  0
 77 78  1  0
 77 81  1  0
 78 79  1  0
 79 80  1  0
 81 76  2  0
 82 81  1  0
 82 83  2  0
 83 84  1  0
 84 85  2  0
 86 96  1  0
 86 87  1  0
 86 60  1  0
 87 90  1  0
 88 87  1  0
 88 92  1  0
 89 88  2  0
 92 91  1  0
 93 94  1  0
 94 95  1  0
 94 92  1  0
 96 97  1  1
 98 96  1  0
 99 96  1  0
M  ISO  4  19 100  27 100  58 101  59 101
M  END
>  <TORSDO>  (52) 
F 22

>  <SCORE>  (52) 
-8.899

>  <name>  (52) 
51

>  <ligand_id>  (52) 
51

>  <original_smiles>  (52) 
[H]c1c([H])c([H])c(C([H])([H])[N+]([H])([H])C([H])([H])C2([H])C([H])([H])C([H])([H])[N+]([H])(C([H])([H])C([H])([H])Oc3c([H])c([H])c4c(c3[H])C([H])([H])N(C(=O)C([H])(N([H])C(=O)C([H])(N([H])C([H])([H])[H])C([H])([H])[H])C(C([H])([H])[H])(C([H])([H])[H])C([H])([H])[H])C([H])(C(=O)N([H])C3([H])c5c([H])c([H])c([H])c([H])c5C([H])([H])C([H])([H])C3([H])[H])C4([H])[H])C([H])([H])C2([H])[H])c(N([H])C(=O)N2C([H])([H])C([H])([H])C([H])([H])C([H])(n3nc(-c4c([H])c([H])c(Oc5c([H])c([H])c(F)c([H])c5F)c([H])c4[H])c(C(=O)N([H])[H])c3N([H])[H])C2([H])[H])c1[H]

>  <smiles>  (52) 
[H]c1c([H])c([H])c(C([H])([H])[N+]([H])([H])C([H])([H])C2([H])C([H])([H])C([H])([H])[N+]([H])(C([H])([H])C([H])([H])Oc3c([H])c([H])c4c(c3[H])C([H])([H])N(C(=O)C([H])(N([H])C(=O)C([H])(N([H])C([H])([H])[H])C([H])([H])[H])C(C([H])([H])[H])(C([H])([H])[H])C([H])([H])[H])C([H])(C(=O)N([H])C3([H])c5c([H])c([H])c([H])c([H])c5C([H])([H])C([H])([H])C3([H])[H])C4([H])[H])C([H])([H])C2([H])[H])c(N([H])C(=O)N2C([H])([H])C([H])([H])C([H])([H])C([H])(n3nc(-c4c([H])c([H])c(Oc5c([H])c([H])c(F)c([H])c5F)c([H])c4[H])c(C(=O)N([H])[H])c3N([H])[H])C2([H])[H])c1[H]

$$$$
52:0:0
     RDKit          3D

 97105  0  0  1  0  0  0  0  0999 V2000
  -28.1600  -22.1010   19.0020 C   0  0  0  0  0  2  0  0  0  0  0  0
  -28.5620  -20.6140   19.1780 C   0  0  0  0  0  2  0  0  0  0  0  0
  -29.1280  -21.7830   21.1510 C   0  0  0  0  0  3  0  0  0  0  0  0
  -28.9600  -22.8760   20.0650 C   0  0  0  0  0  3  0  0  0  0  0  0
  -29.4080  -20.5330   20.3960 N   0  0  1  0  0  4  0  0  0  0  0  0
  -30.3640  -20.6240   20.0870 H   0  0  0  0  0  0  0  0  0  0  0  0
  -30.2180  -22.0820   22.1530 C   0  0  0  0  0  0  0  0  0  0  0  0
  -30.0030  -21.7950   23.4410 N   0  0  0  0  0  0  0  0  0  0  0  0
  -31.3920  -22.5980   21.7640 N   0  0  0  0  0  4  0  0  0  0  0  0
  -29.1020  -21.4560   23.7490 H   0  0  0  0  0  0  0  0  0  0  0  0
  -30.6850  -21.9590   24.1650 H   0  0  0  0  0  0  0  0  0  0  0  0
  -31.5520  -22.9020   20.8150 H   0  0  0  0  0  0  0  0  0  0  0  0
  -32.1360  -22.7880   22.4160 H   0  0  0  0  0  0  0  0  0  0  0  0
  -28.3370  -24.2340   20.5300 C   0  0  0  0  0  2  0  0  0  0  0  0
  -28.5210  -25.4130   19.5360 C   0  0  0  0  0  2  0  0  0  0  0  0
  -28.3820  -26.7070   20.1570 O   0  0  0  0  0  0  0  0  0  0  0  0
  -24.5710  -31.8810   23.2420 C   0  0  0  0  0  0  0  0  0  0  0  0
  -27.1830  -27.3980   20.1560 C   0  0  0  0  0  0  0  0  0  0  0  0
  -23.3530  -30.4840   21.6040 C   0  0  0  0  0  3  0  0  0  0  0  0
  -24.7940  -28.9300   20.1820 C   0  0  0  0  0  0  0  0  0  0  0  0
  -25.8840  -30.8190   21.4060 C   0  0  0  0  0  2  0  0  0  0  0  0
  -25.9560  -29.4450   20.7650 C   0  0  0  0  0  0  0  0  0  0  0  0
  -27.1510  -28.6850   20.7490 C   0  0  0  0  0  3  0  0  0  0  0  0
  -25.9910  -26.8900   19.5910 C   0  0  0  0  0  3  0  0  0  0  0  0
  -24.8060  -27.6530   19.5970 C   0  0  0  0  0  3  0  0  0  0  0  0
  -23.5550  -29.8010   20.2270 C   0  0  0  0  0  2  0  0  0  0  0  0
  -24.6210  -31.0770   22.1430 N   0  0  0  0  0  0  0  0  0  0  0  0
  -23.4920  -32.1630   23.7830 O   0  0  0  0  0  0  0  0  0  0  0  0
  -22.7000  -29.4670   22.5690 C   0  0  0  0  0  0  0  0  0  0  0  0
  -21.3740  -29.2930   22.4480 N   0  0  0  0  0  0  0  0  0  0  0  0
  -23.3820  -28.8400   23.3830 O   0  0  0  0  0  0  0  0  0  0  0  0
  -20.8850  -29.8540   21.7650 H   0  0  0  0  0  0  0  0  0  0  0  0
  -17.9920  -28.1190   22.9490 C   0  0  0  0  0  0  0  0  0  0  0  0
  -20.5520  -28.3600   23.2190 C   0  0  0  0  0  3  0  0  0  0  0  0
  -20.6440  -26.9270   22.6460 C   0  0  0  0  0  2  0  0  0  0  0  0
  -19.5410  -26.6110   21.6310 C   0  0  0  0  0  2  0  0  0  0  0  0
  -18.1590  -26.7680   22.2740 C   0  0  0  0  0  2  0  0  0  0  0  0
  -19.1170  -28.8750   23.3760 C   0  0  0  0  0  0  0  0  0  0  0  0
  -18.9060  -30.1420   23.9630 C   0  0  0  0  0  3  0  0  0  0  0  0
  -17.6040  -30.6520   24.1280 C   0  0  0  0  0  3  0  0  0  0  0  0
  -16.4960  -29.8930   23.7170 C   0  0  0  0  0  3  0  0  0  0  0  0
  -16.6910  -28.6280   23.1330 C   0  0  0  0  0  3  0  0  0  0  0  0
  -25.8620  -32.5070   23.8580 C   0  0  0  0  0  3  0  0  0  0  0  0
  -25.5620  -33.9060   24.1860 N   0  0  0  0  0  0  0  0  0  0  0  0
  -25.9010  -34.9560   23.4260 C   0  0  0  0  0  0  0  0  0  0  0  0
  -26.5700  -34.8480   22.3940 O   0  0  0  0  0  0  0  0  0  0  0  0
  -24.9700  -34.0670   24.9880 H   0  0  0  0  0  0  0  0  0  0  0  0
  -24.1790  -36.7550   23.0680 C   0  0  0  0  0  1  0  0  0  0  0  0
  -25.4190  -36.3470   23.8800 C   0  0  0  0  0  3  0  0  0  0  0  0
  -27.5610  -37.2170   24.7110 C   0  0  0  0  0  1  0  0  0  0  0  0
  -26.4590  -37.3950   23.7680 N   0  0  0  0  0  0  0  0  0  0  0  0
  -26.0600  -38.3180   23.9140 H   0  0  0  0  0  0  0  0  0  0  0  0
  -26.3810  -31.7330   25.1330 C   0  0  1  0  0  0  0  0  0  0  0  0
  -25.2890  -31.5010   26.2040 C   0  0  0  0  0  1  0  0  0  0  0  0
  -26.9550  -30.3540   24.7360 C   0  0  0  0  0  1  0  0  0  0  0  0
  -27.5420  -32.5220   25.7850 C   0  0  0  0  0  1  0  0  0  0  0  0
  -29.3550  -19.2690   21.1980 C   0  0  0  0  0  2  0  0  0  0  0  0
  -29.6440  -17.9420   20.4230 C   0  0  0  0  0  2  0  0  0  0  0  0
  -30.1950  -16.8180   21.3550 C   0  0  0  0  0  2  0  0  0  0  0  0
  -30.6080  -14.4660   20.4350 C   0  0  0  0  0  0  0  0  0  0  0  0
  -30.3400  -12.3130   19.2490 C   0  0  0  0  0  2  0  0  0  0  0  0
  -29.3730  -12.5170   18.0630 C   0  0  0  0  0  2  0  0  0  0  0  0
  -27.9040  -12.3760   18.5110 C   0  0  0  0  0  2  0  0  0  0  0  0
  -27.5840  -13.2060   19.7820 C   0  0  0  0  0  3  0  0  0  0  0  0
  -28.6480  -12.9500   20.8720 C   0  0  0  0  0  2  0  0  0  0  0  0
  -29.9640  -13.2770   20.2920 N   0  0  0  0  0  0  0  0  0  0  0  0
  -31.7440  -14.6810   20.0010 O   0  0  0  0  0  0  0  0  0  0  0  0
  -29.8430  -15.4420   20.9650 N   0  0  0  0  0  0  0  0  0  0  0  0
  -28.9130  -15.1400   21.2160 H   0  0  0  0  0  0  0  0  0  0  0  0
  -25.1940  -13.8320   20.5030 C   0  0  0  0  0  0  0  0  0  0  0  0
  -24.1250  -13.0670   20.8850 C   0  0  0  0  0  0  0  0  0  0  0  0
  -24.5810  -11.7130   20.8570 C   0  0  0  0  0  0  0  0  0  0  0  0
  -26.2330  -12.9440   20.2690 N   0  0  0  0  0  0  0  0  0  0  0  0
  -25.8680  -11.6650   20.5400 N   0  0  0  0  0  0  0  0  0  0  0  0
  -23.8520  -10.4550   21.0580 C   0  0  0  0  0  0  0  0  0  0  0  0
  -24.2990   -9.4810   21.9780 C   0  0  0  0  0  3  0  0  0  0  0  0
  -23.5720   -8.2860   22.1660 C   0  0  0  0  0  3  0  0  0  0  0  0
  -22.3840   -8.0570   21.4330 C   0  0  0  0  0  0  0  0  0  0  0  0
  -21.9550   -9.0180   20.5010 C   0  0  0  0  0  3  0  0  0  0  0  0
  -22.6840  -10.2040   20.3120 C   0  0  0  0  0  3  0  0  0  0  0  0
  -21.6270   -6.9140   21.5300 O   0  0  0  0  0  0  0  0  0  0  0  0
  -21.6090   -6.1570   22.6730 C   0  0  0  0  0  0  0  0  0  0  0  0
  -21.2350   -6.7030   23.9210 C   0  0  0  0  0  3  0  0  0  0  0  0
  -21.1630   -5.8740   25.0580 C   0  0  0  0  0  3  0  0  0  0  0  0
  -21.4580   -4.5020   24.9500 C   0  0  0  0  0  0  0  0  0  0  0  0
  -21.8260   -3.9560   23.7080 C   0  0  0  0  0  3  0  0  0  0  0  0
  -21.8980   -4.7820   22.5720 C   0  0  0  0  0  0  0  0  0  0  0  0
  -22.2340   -4.2480   21.3730 F   0  0  0  0  0  0  0  0  0  0  0  0
  -21.3800   -3.7040   26.0390 F   0  0  0  0  0  0  0  0  0  0  0  0
  -22.7320  -13.5510   21.1660 C   0  0  0  0  0  0  0  0  0  0  0  0
  -22.0100  -12.8610   22.0410 N   0  0  0  0  0  0  0  0  0  0  0  0
  -22.2950  -14.5770   20.6460 O   0  0  0  0  0  0  0  0  0  0  0  0
  -22.3760  -12.0290   22.4800 H   0  0  0  0  0  0  0  0  0  0  0  0
  -21.0780  -13.1690   22.2790 H   0  0  0  0  0  0  0  0  0  0  0  0
  -25.3640  -15.2010   20.3170 N   0  0  0  0  0  0  0  0  0  0  0  0
  -24.5930  -15.8530   20.4170 H   0  0  0  0  0  0  0  0  0  0  0  0
  -26.2040  -15.6320   19.9500 H   0  0  0  0  0  0  0  0  0  0  0  0
  1  2  1  0
  1  4  1  0
  2  5  1  0
  3  7  1  0
  4 14  1  0
  4  3  1  0
  5  3  1  0
  5 57  1  0
  5  6  1  6
  7  8  1  0
  8 10  1  0
  8 11  1  0
  9  7  2  0
  9 13  1  0
 12  9  1  0
 15 16  1  0
 15 14  1  0
 17 28  2  0
 18 16  1  0
 18 23  1  0
 19 27  1  0
 19 29  1  0
 20 26  1  0
 20 22  1  0
 21 27  1  0
 22 21  1  0
 23 22  2  0
 24 25  1  0
 24 18  2  0
 25 20  2  0
 26 19  1  0
 27 17  1  0
 29 31  2  0
 30 29  1  0
 32 30  1  0
 33 42  2  0
 33 38  1  0
 34 30  1  0
 34 38  1  0
 35 34  1  0
 36 37  1  0
 36 35  1  0
 37 33  1  0
 38 39  2  0
 39 40  1  0
 41 40  2  0
 42 41  1  0
 43 17  1  0
 43 44  1  0
 43 53  1  0
 44 47  1  0
 45 49  1  0
 45 44  1  0
 46 45  2  0
 49 48  1  0
 51 49  1  0
 51 52  1  0
 51 50  1  0
 53 56  1  1
 53 54  1  0
 55 53  1  0
 58 57  1  0
 58 59  1  0
 60 68  1  0
 61 66  1  0
 62 63  1  0
 62 61  1  0
 64 63  1  0
 64 73  1  0
 64 65  1  0
 66 60  1  0
 66 65  1  0
 67 60  2  0
 68 69  1  0
 68 59  1  0
 70 71  2  0
 71 90  1  0
 72 71  1  0
 72 75  1  0
 73 70  1  0
 73 74  1  0
 74 72  2  0
 75 76  1  0
 76 77  2  0
 78 81  1  0
 78 77  1  0
 79 78  2  0
 80 79  1  0
 80 75  2  0
 81 82  1  0
 82 83  1  0
 83 84  2  0
 85 84  1  0
 85 89  1  0
 86 85  2  0
 87 82  2  0
 87 86  1  0
 88 87  1  0
 90 91  1  0
 91 94  1  0
 91 93  1  0
 92 90  2  0
 95 96  1  0
 95 70  1  0
 97 95  1  0
M  ISO  4  15 101  16 101  60 100  68 100
M  END
>  <TORSDO>  (53) 
F 22

>  <SCORE>  (53) 
-13.411

>  <name>  (53) 
52

>  <ligand_id>  (53) 
52

>  <original_smiles>  (53) 
[H]c1c([H])c([H])c2c(c1[H])C([H])([H])C([H])([H])C([H])([H])C2([H])N([H])C(=O)C1([H])N(C(=O)C([H])(N([H])C(=O)C([H])(N([H])C([H])([H])[H])C([H])([H])[H])C(C([H])([H])[H])(C([H])([H])[H])C([H])([H])[H])C([H])([H])c2c([H])c(OC([H])([H])C([H])([H])C3([H])C([H])([H])C([H])([H])[N+]([H])(C([H])([H])C([H])([H])C([H])([H])N([H])C(=O)N4C([H])([H])C([H])([H])C([H])([H])C([H])(n5nc(-c6c([H])c([H])c(Oc7c([H])c([H])c(F)c([H])c7F)c([H])c6[H])c(C(=O)N([H])[H])c5N([H])[H])C4([H])[H])C3([H])C(N([H])[H])=[N+]([H])[H])c([H])c([H])c2C1([H])[H]

>  <smiles>  (53) 
[H]c1c([H])c([H])c2c(c1[H])C([H])([H])C([H])([H])C([H])([H])C2([H])N([H])C(=O)C1([H])N(C(=O)C([H])(N([H])C(=O)C([H])(N([H])C([H])([H])[H])C([H])([H])[H])C(C([H])([H])[H])(C([H])([H])[H])C([H])([H])[H])C([H])([H])c2c([H])c(OC([H])([H])C([H])([H])C3([H])C([H])([H])C([H])([H])[N+]([H])(C([H])([H])C([H])([H])C([H])([H])N([H])C(=O)N4C([H])([H])C([H])([H])C([H])([H])C([H])(n5nc(-c6c([H])c([H])c(Oc7c([H])c([H])c(F)c([H])c7F)c([H])c6[H])c(C(=O)N([H])[H])c5N([H])[H])C4([H])[H])C3([H])C(N([H])[H])=[N+]([H])[H])c([H])c([H])c2C1([H])[H]

$$$$
53:0:0
     RDKit          3D

 89 97  0  0  1  0  0  0  0  0999 V2000
  -29.7500  -21.0250   20.0100 C   0  0  0  0  0  3  0  0  0  0  0  0
  -30.7400  -14.7720   19.8410 C   0  0  0  0  0  0  0  0  0  0  0  0
  -30.3990  -12.5570   18.7230 C   0  0  0  0  0  2  0  0  0  0  0  0
  -29.3570  -12.6690   17.5870 C   0  0  0  0  0  2  0  0  0  0  0  0
  -27.9360  -12.4690   18.1480 C   0  0  0  0  0  2  0  0  0  0  0  0
  -27.6740  -13.3180   19.4230 C   0  0  0  0  0  3  0  0  0  0  0  0
  -28.8270  -13.2040   20.4410 C   0  0  0  0  0  2  0  0  0  0  0  0
  -30.0650  -13.5760   19.7480 N   0  0  0  0  0  0  0  0  0  0  0  0
  -31.8700  -14.8610   19.3480 O   0  0  0  0  0  0  0  0  0  0  0  0
  -29.6630  -17.6920   22.1800 C   0  0  0  0  0  2  0  0  0  0  0  0
  -30.5710  -16.5510   21.5830 C   0  0  0  0  0  2  0  0  0  0  0  0
  -29.5220  -17.0010   19.4230 C   0  0  0  0  0  2  0  0  0  0  0  0
  -29.9320  -19.1840   21.7690 C   0  0  0  0  0  2  0  0  0  0  0  0
  -30.0950  -18.5090   19.4310 C   0  0  0  0  0  2  0  0  0  0  0  0
  -30.1020  -15.9280   20.3210 N   0  0  0  0  0  0  0  0  0  0  0  0
  -29.4970  -19.5390   20.3870 N   0  0  2  0  0  4  0  0  0  0  0  0
  -28.4960  -19.4210   20.3410 H   0  0  0  0  0  0  0  0  0  0  0  0
  -25.3670  -13.8740   20.3960 C   0  0  0  0  0  0  0  0  0  0  0  0
  -24.3370  -13.0860   20.8300 C   0  0  0  0  0  0  0  0  0  0  0  0
  -24.7920  -11.7370   20.7050 C   0  0  0  0  0  0  0  0  0  0  0  0
  -26.3810  -13.0060   20.0260 N   0  0  0  0  0  0  0  0  0  0  0  0
  -26.0490  -11.7140   20.2770 N   0  0  0  0  0  0  0  0  0  0  0  0
  -24.0840  -10.4680   20.9150 C   0  0  0  0  0  0  0  0  0  0  0  0
  -24.5550   -9.4960   21.8250 C   0  0  0  0  0  3  0  0  0  0  0  0
  -23.8420   -8.2950   22.0220 C   0  0  0  0  0  3  0  0  0  0  0  0
  -22.6420   -8.0570   21.3110 C   0  0  0  0  0  0  0  0  0  0  0  0
  -22.1910   -9.0170   20.3880 C   0  0  0  0  0  3  0  0  0  0  0  0
  -22.9070  -10.2100   20.1880 C   0  0  0  0  0  3  0  0  0  0  0  0
  -21.8970   -6.9060   21.4150 O   0  0  0  0  0  0  0  0  0  0  0  0
  -21.8370   -6.1920   22.5840 C   0  0  0  0  0  0  0  0  0  0  0  0
  -21.3890   -6.7750   23.7900 C   0  0  0  0  0  3  0  0  0  0  0  0
  -21.2740   -5.9870   24.9530 C   0  0  0  0  0  3  0  0  0  0  0  0
  -21.6020   -4.6180   24.9130 C   0  0  0  0  0  0  0  0  0  0  0  0
  -22.0430   -4.0370   23.7110 C   0  0  0  0  0  3  0  0  0  0  0  0
  -22.1580   -4.8210   22.5500 C   0  0  0  0  0  0  0  0  0  0  0  0
  -22.5640   -4.2510   21.3910 F   0  0  0  0  0  0  0  0  0  0  0  0
  -21.4890   -3.8600   26.0280 F   0  0  0  0  0  0  0  0  0  0  0  0
  -22.9720  -13.5530   21.2440 C   0  0  0  0  0  0  0  0  0  0  0  0
  -22.3240  -12.8340   22.1540 N   0  0  0  0  0  0  0  0  0  0  0  0
  -22.4890  -14.5900   20.7940 O   0  0  0  0  0  0  0  0  0  0  0  0
  -22.7260  -11.9960   22.5460 H   0  0  0  0  0  0  0  0  0  0  0  0
  -21.4100  -13.1290   22.4650 H   0  0  0  0  0  0  0  0  0  0  0  0
  -25.5200  -15.2500   20.2600 N   0  0  0  0  0  0  0  0  0  0  0  0
  -24.7840  -15.9040   20.5000 H   0  0  0  0  0  0  0  0  0  0  0  0
  -26.3570  -15.7030   19.9200 H   0  0  0  0  0  0  0  0  0  0  0  0
  -28.8110  -22.2350   20.5470 C   0  0  0  0  0  3  0  0  0  0  0  0
  -29.0920  -23.7660   20.0710 C   0  0  0  0  0  3  0  0  0  0  0  0
  -28.2210  -24.9790   20.6820 C   0  0  0  0  0  3  0  0  0  0  0  0
  -28.4660  -26.4080   20.3030 O   0  0  0  0  0  0  0  0  0  0  0  0
  -24.6680  -31.8380   23.2460 C   0  0  0  0  0  0  0  0  0  0  0  0
  -27.3610  -27.2770   20.2560 C   0  0  0  0  0  0  0  0  0  0  0  0
  -23.5010  -30.4240   21.5910 C   0  0  0  0  0  3  0  0  0  0  0  0
  -24.9880  -28.8820   20.1940 C   0  0  0  0  0  0  0  0  0  0  0  0
  -26.0390  -30.7670   21.4400 C   0  0  0  0  0  2  0  0  0  0  0  0
  -26.1450  -29.3830   20.8040 C   0  0  0  0  0  0  0  0  0  0  0  0
  -27.3390  -28.5950   20.8210 C   0  0  0  0  0  3  0  0  0  0  0  0
  -26.1840  -26.8400   19.6130 C   0  0  0  0  0  3  0  0  0  0  0  0
  -25.0100  -27.6160   19.5880 C   0  0  0  0  0  3  0  0  0  0  0  0
  -23.7430  -29.7450   20.2170 C   0  0  0  0  0  2  0  0  0  0  0  0
  -24.7540  -31.0280   22.1490 N   0  0  0  0  0  0  0  0  0  0  0  0
  -23.5760  -32.1050   23.7640 O   0  0  0  0  0  0  0  0  0  0  0  0
  -22.8330  -29.4040   22.5460 C   0  0  0  0  0  0  0  0  0  0  0  0
  -21.5110  -29.2070   22.3960 N   0  0  0  0  0  0  0  0  0  0  0  0
  -23.5040  -28.7920   23.3810 O   0  0  0  0  0  0  0  0  0  0  0  0
  -21.0270  -29.7570   21.6990 H   0  0  0  0  0  0  0  0  0  0  0  0
  -18.1480  -27.9410   22.8080 C   0  0  0  0  0  0  0  0  0  0  0  0
  -20.6900  -28.2630   23.1570 C   0  0  0  0  0  3  0  0  0  0  0  0
  -20.8420  -26.8230   22.6120 C   0  0  0  0  0  2  0  0  0  0  0  0
  -19.7820  -26.4590   21.5670 C   0  0  0  0  0  2  0  0  0  0  0  0
  -18.3760  -26.5840   22.1630 C   0  0  0  0  0  2  0  0  0  0  0  0
  -19.2350  -28.7360   23.2600 C   0  0  0  0  0  0  0  0  0  0  0  0
  -18.9680  -30.0050   23.8210 C   0  0  0  0  0  3  0  0  0  0  0  0
  -17.6470  -30.4770   23.9360 C   0  0  0  0  0  3  0  0  0  0  0  0
  -16.5750  -29.6800   23.5010 C   0  0  0  0  0  3  0  0  0  0  0  0
  -16.8260  -28.4140   22.9420 C   0  0  0  0  0  3  0  0  0  0  0  0
  -25.9370  -32.4850   23.8830 C   0  0  0  0  0  3  0  0  0  0  0  0
  -26.4390  -31.7250   25.1720 C   0  0  1  0  0  0  0  0  0  0  0  0
  -25.3330  -31.4880   26.2270 C   0  0  0  0  0  1  0  0  0  0  0  0
  -27.0380  -30.3490   24.7970 C   0  0  0  0  0  1  0  0  0  0  0  0
  -27.5720  -32.5330   25.8490 C   0  0  0  0  0  1  0  0  0  0  0  0
  -25.6130  -33.8830   24.2000 N   0  0  0  0  0  0  0  0  0  0  0  0
  -25.9490  -34.9330   23.4390 C   0  0  0  0  0  0  0  0  0  0  0  0
  -26.6320  -34.8260   22.4160 O   0  0  0  0  0  0  0  0  0  0  0  0
  -25.0120  -34.0390   24.9950 H   0  0  0  0  0  0  0  0  0  0  0  0
  -24.2100  -36.7100   23.0540 C   0  0  0  0  0  1  0  0  0  0  0  0
  -25.4480  -36.3210   23.8790 C   0  0  0  0  0  3  0  0  0  0  0  0
  -27.5690  -37.2300   24.7170 C   0  0  0  0  0  1  0  0  0  0  0  0
  -26.4720  -37.3820   23.7660 N   0  0  0  0  0  0  0  0  0  0  0  0
  -26.0560  -38.2990   23.9070 H   0  0  0  0  0  0  0  0  0  0  0  0
  1 16  1  0
  1 46  2  0
  2 15  1  0
  3  8  1  0
  4  5  1  0
  4  3  1  0
  6  5  1  0
  6 21  1  0
  6  7  1  0
  8  2  1  0
  8  7  1  0
  9  2  2  0
 11 10  1  0
 12 14  1  0
 12 15  1  0
 13 10  1  0
 14 16  1  0
 15 11  1  0
 16 13  1  0
 16 17  1  1
 18 19  2  0
 19 38  1  0
 20 19  1  0
 20 23  1  0
 21 22  1  0
 21 18  1  0
 22 20  2  0
 23 24  1  0
 24 25  2  0
 26 29  1  0
 26 25  1  0
 27 26  2  0
 28 27  1  0
 28 23  2  0
 29 30  1  0
 30 31  1  0
 31 32  2  0
 33 32  1  0
 33 37  1  0
 34 33  2  0
 35 30  2  0
 35 34  1  0
 36 35  1  0
 38 39  1  0
 39 42  1  0
 39 41  1  0
 40 38  2  0
 43 18  1  0
 43 44  1  0
 45 43  1  0
 47 46  1  0
 47 48  2  0
 49 48  1  0
 50 61  2  0
 51 49  1  0
 51 56  1  0
 52 60  1  0
 52 62  1  0
 53 59  1  0
 53 55  1  0
 54 60  1  0
 55 56  2  0
 55 54  1  0
 57 51  2  0
 58 57  1  0
 58 53  2  0
 59 52  1  0
 60 50  1  0
 62 64  2  0
 63 62  1  0
 65 63  1  0
 66 75  2  0
 66 71  1  0
 67 63  1  0
 67 71  1  0
 68 67  1  0
 69 70  1  0
 69 68  1  0
 70 66  1  0
 71 72  2  0
 72 73  1  0
 74 73  2  0
 75 74  1  0
 76 50  1  0
 76 81  1  0
 76 77  1  0
 77 80  1  1
 77 78  1  0
 79 77  1  0
 81 84  1  0
 82 86  1  0
 82 81  1  0
 83 82  2  0
 86 85  1  0
 88 86  1  0
 88 89  1  0
 88 87  1  0
M  ISO  4   2 100  15 100  48 101  49 101
M  END
>  <TORSDO>  (54) 
F 19

>  <SCORE>  (54) 
-12.698

>  <name>  (54) 
53

>  <ligand_id>  (54) 
53

>  <original_smiles>  (54) 
[H]c1c([H])c([H])c2c(c1[H])C([H])([H])C([H])([H])C([H])([H])C2([H])N([H])C(=O)C1([H])N(C(=O)C([H])(N([H])C(=O)C([H])(N([H])C([H])([H])[H])C([H])([H])[H])C(C([H])([H])[H])(C([H])([H])[H])C([H])([H])[H])C([H])([H])c2c([H])c(OC([H])([H])C([H])([H])C([H])([H])C([H])([H])[N+]3([H])C([H])([H])C([H])([H])N(C(=O)N4C([H])([H])C([H])([H])C([H])([H])C([H])(n5nc(-c6c([H])c([H])c(Oc7c([H])c([H])c(F)c([H])c7F)c([H])c6[H])c(C(=O)N([H])[H])c5N([H])[H])C4([H])[H])C([H])([H])C([H])([H])C3([H])[H])c([H])c([H])c2C1([H])[H]

>  <smiles>  (54) 
[H]c1c([H])c([H])c2c(c1[H])C([H])([H])C([H])([H])C([H])([H])C2([H])N([H])C(=O)C1([H])N(C(=O)C([H])(N([H])C(=O)C([H])(N([H])C([H])([H])[H])C([H])([H])[H])C(C([H])([H])[H])(C([H])([H])[H])C([H])([H])[H])C([H])([H])c2c([H])c(OC([H])([H])C([H])([H])C([H])([H])C([H])([H])[N+]3([H])C([H])([H])C([H])([H])N(C(=O)N4C([H])([H])C([H])([H])C([H])([H])C([H])(n5nc(-c6c([H])c([H])c(Oc7c([H])c([H])c(F)c([H])c7F)c([H])c6[H])c(C(=O)N([H])[H])c5N([H])[H])C4([H])[H])C([H])([H])C([H])([H])C3([H])[H])c([H])c([H])c2C1([H])[H]

$$$$
54:0:0
     RDKit          3D

 92100  0  0  1  0  0  0  0  0999 V2000
  -28.9600  -22.0610   21.7060 C   0  0  0  0  0  2  0  0  0  0  0  0
  -29.2100  -22.2350   20.1990 C   0  0  0  0  0  2  0  0  0  0  0  0
  -28.3340  -23.3210   19.5690 C   0  0  0  0  0  2  0  0  0  0  0  0
  -28.4770  -24.7450   20.1480 C   0  0  0  0  0  2  0  0  0  0  0  0
  -28.2090  -25.7660   19.0370 C   0  0  0  0  0  2  0  0  0  0  0  0
  -28.1260  -27.0960   19.5400 O   0  0  0  0  0  0  0  0  0  0  0  0
  -24.5230  -31.9020   23.2980 C   0  0  0  0  0  0  0  0  0  0  0  0
  -26.9070  -27.7230   19.6930 C   0  0  0  0  0  0  0  0  0  0  0  0
  -23.1820  -30.6060   21.6720 C   0  0  0  0  0  3  0  0  0  0  0  0
  -24.5080  -29.1870   20.0300 C   0  0  0  0  0  0  0  0  0  0  0  0
  -25.6790  -31.0180   21.2710 C   0  0  0  0  0  2  0  0  0  0  0  0
  -25.7130  -29.6980   20.5250 C   0  0  0  0  0  0  0  0  0  0  0  0
  -26.9150  -28.9780   20.3410 C   0  0  0  0  0  3  0  0  0  0  0  0
  -25.6690  -27.1990   19.2440 C   0  0  0  0  0  3  0  0  0  0  0  0
  -24.4770  -27.9310   19.4040 C   0  0  0  0  0  3  0  0  0  0  0  0
  -23.2640  -30.0150   20.2400 C   0  0  0  0  0  2  0  0  0  0  0  0
  -24.4870  -31.1820   22.1400 N   0  0  0  0  0  0  0  0  0  0  0  0
  -23.4900  -32.1260   23.9410 O   0  0  0  0  0  0  0  0  0  0  0  0
  -22.6200  -29.5130   22.6110 C   0  0  0  0  0  0  0  0  0  0  0  0
  -21.3200  -29.2090   22.4650 N   0  0  0  0  0  0  0  0  0  0  0  0
  -23.3490  -28.9390   23.4250 O   0  0  0  0  0  0  0  0  0  0  0  0
  -20.7890  -29.7230   21.7780 H   0  0  0  0  0  0  0  0  0  0  0  0
  -18.1160  -27.5780   22.7930 C   0  0  0  0  0  0  0  0  0  0  0  0
  -20.5870  -28.1860   23.2100 C   0  0  0  0  0  3  0  0  0  0  0  0
  -20.9200  -26.7750   22.6830 C   0  0  0  0  0  2  0  0  0  0  0  0
  -19.9370  -26.2710   21.6270 C   0  0  0  0  0  2  0  0  0  0  0  0
  -18.5180  -26.2400   22.1940 C   0  0  0  0  0  2  0  0  0  0  0  0
  -19.0890  -28.4980   23.2600 C   0  0  0  0  0  0  0  0  0  0  0  0
  -18.6650  -29.7370   23.7830 C   0  0  0  0  0  3  0  0  0  0  0  0
  -17.2960  -30.0570   23.8520 C   0  0  0  0  0  3  0  0  0  0  0  0
  -16.3320  -29.1390   23.4010 C   0  0  0  0  0  3  0  0  0  0  0  0
  -16.7460  -27.9010   22.8720 C   0  0  0  0  0  3  0  0  0  0  0  0
  -25.8560  -32.4990   23.8500 C   0  0  0  0  0  3  0  0  0  0  0  0
  -26.4340  -31.6990   25.0790 C   0  0  1  0  0  0  0  0  0  0  0  0
  -25.3980  -31.4490   26.1990 C   0  0  0  0  0  1  0  0  0  0  0  0
  -26.9900  -30.3310   24.6240 C   0  0  0  0  0  1  0  0  0  0  0  0
  -27.6270  -32.4730   25.6910 C   0  0  0  0  0  1  0  0  0  0  0  0
  -25.5970  -33.8960   24.2150 N   0  0  0  0  0  0  0  0  0  0  0  0
  -25.8940  -34.9500   23.4400 C   0  0  0  0  0  0  0  0  0  0  0  0
  -26.4870  -34.8420   22.3630 O   0  0  0  0  0  0  0  0  0  0  0  0
  -25.0630  -34.0610   25.0560 H   0  0  0  0  0  0  0  0  0  0  0  0
  -24.1660  -36.7630   23.2390 C   0  0  0  0  0  1  0  0  0  0  0  0
  -25.4650  -36.3410   23.9440 C   0  0  0  0  0  3  0  0  0  0  0  0
  -27.6680  -37.1920   24.6060 C   0  0  0  0  0  1  0  0  0  0  0  0
  -26.5000  -37.3800   23.7500 N   0  0  0  0  0  0  0  0  0  0  0  0
  -26.1180  -38.3040   23.9310 H   0  0  0  0  0  0  0  0  0  0  0  0
  -29.8590  -21.0070   22.3890 C   0  0  0  0  0  2  0  0  0  0  0  0
  -29.4020  -19.5330   22.2400 C   0  0  0  0  0  2  0  0  0  0  0  0
  -31.3070  -14.4310   19.5520 C   0  0  0  0  0  0  0  0  0  0  0  0
  -30.7090  -12.3290   18.3850 C   0  0  0  0  0  2  0  0  0  0  0  0
  -29.6320  -12.5740   17.3050 C   0  0  0  0  0  2  0  0  0  0  0  0
  -28.2250  -12.4970   17.9300 C   0  0  0  0  0  2  0  0  0  0  0  0
  -28.0910  -13.3740   19.1990 C   0  0  0  0  0  3  0  0  0  0  0  0
  -29.2560  -13.0940   20.1780 C   0  0  0  0  0  2  0  0  0  0  0  0
  -30.5240  -13.3210   19.4610 N   0  0  0  0  0  0  0  0  0  0  0  0
  -32.3090  -14.6030   18.8510 O   0  0  0  0  0  0  0  0  0  0  0  0
  -31.2880  -16.6970   22.6110 C   0  0  0  0  0  2  0  0  0  0  0  0
  -31.7640  -15.6010   21.6320 C   0  0  0  0  0  2  0  0  0  0  0  0
  -30.1010  -16.4860   19.8570 C   0  0  0  0  0  2  0  0  0  0  0  0
  -31.4490  -18.1270   22.0580 C   0  0  0  0  0  2  0  0  0  0  0  0
  -29.4440  -17.7560   20.5050 C   0  0  0  0  0  2  0  0  0  0  0  0
  -30.9150  -15.3880   20.4380 N   0  0  0  0  0  0  0  0  0  0  0  0
  -30.2570  -18.6840   21.3570 N   0  0  1  0  0  4  0  0  0  0  0  0
  -30.6490  -19.3430   20.7030 H   0  0  0  0  0  0  0  0  0  0  0  0
  -25.8640  -14.1510   20.2370 C   0  0  0  0  0  0  0  0  0  0  0  0
  -24.7820  -13.4490   20.7060 C   0  0  0  0  0  0  0  0  0  0  0  0
  -25.1090  -12.0690   20.5480 C   0  0  0  0  0  0  0  0  0  0  0  0
  -26.7860  -13.1960   19.8340 N   0  0  0  0  0  0  0  0  0  0  0  0
  -26.3400  -11.9370   20.0740 N   0  0  0  0  0  0  0  0  0  0  0  0
  -24.3030  -10.8610   20.7720 C   0  0  0  0  0  0  0  0  0  0  0  0
  -24.6900   -9.8810   21.7110 C   0  0  0  0  0  3  0  0  0  0  0  0
  -23.8900   -8.7360   21.9230 C   0  0  0  0  0  3  0  0  0  0  0  0
  -22.6870   -8.5670   21.1930 C   0  0  0  0  0  0  0  0  0  0  0  0
  -22.3190   -9.5350   20.2430 C   0  0  0  0  0  3  0  0  0  0  0  0
  -23.1210  -10.6710   20.0320 C   0  0  0  0  0  3  0  0  0  0  0  0
  -21.8630   -7.4750   21.3100 O   0  0  0  0  0  0  0  0  0  0  0  0
  -21.6790   -6.8390   22.5130 C   0  0  0  0  0  0  0  0  0  0  0  0
  -21.2260   -7.5290   23.6580 C   0  0  0  0  0  3  0  0  0  0  0  0
  -20.9850   -6.8230   24.8540 C   0  0  0  0  0  3  0  0  0  0  0  0
  -21.1820   -5.4310   24.9020 C   0  0  0  0  0  0  0  0  0  0  0  0
  -21.6250   -4.7410   23.7600 C   0  0  0  0  0  3  0  0  0  0  0  0
  -21.8680   -5.4440   22.5670 C   0  0  0  0  0  0  0  0  0  0  0  0
  -22.2740   -4.7720   21.4620 F   0  0  0  0  0  0  0  0  0  0  0  0
  -20.9410   -4.7510   26.0480 F   0  0  0  0  0  0  0  0  0  0  0  0
  -23.4790  -14.0250   21.1750 C   0  0  0  0  0  0  0  0  0  0  0  0
  -22.8310  -13.3650   22.1330 N   0  0  0  0  0  0  0  0  0  0  0  0
  -23.0480  -15.0860   20.7320 O   0  0  0  0  0  0  0  0  0  0  0  0
  -23.1950  -12.4990   22.5020 H   0  0  0  0  0  0  0  0  0  0  0  0
  -21.9600  -13.7230   22.4930 H   0  0  0  0  0  0  0  0  0  0  0  0
  -26.1340  -15.5100   20.1000 N   0  0  0  0  0  0  0  0  0  0  0  0
  -25.4560  -16.2260   20.3400 H   0  0  0  0  0  0  0  0  0  0  0  0
  -26.9420  -15.8760   19.6100 H   0  0  0  0  0  0  0  0  0  0  0  0
  1 47  1  0
  2  1  1  0
  3  4  1  0
  3  2  1  0
  5  6  1  0
  5  4  1  0
  6  8  1  0
  7 18  2  0
  8 13  1  0
  9 17  1  0
  9 19  1  0
 10 16  1  0
 10 12  1  0
 11 17  1  0
 12 11  1  0
 13 12  2  0
 14 15  1  0
 14  8  2  0
 15 10  2  0
 16  9  1  0
 17  7  1  0
 19 21  2  0
 20 19  1  0
 22 20  1  0
 23 32  2  0
 23 28  1  0
 24 20  1  0
 24 28  1  0
 25 24  1  0
 26 27  1  0
 26 25  1  0
 27 23  1  0
 28 29  2  0
 29 30  1  0
 31 30  2  0
 32 31  1  0
 33  7  1  0
 33 38  1  0
 33 34  1  0
 34 37  1  1
 34 35  1  0
 36 34  1  0
 38 41  1  0
 39 43  1  0
 39 38  1  0
 40 39  2  0
 43 42  1  0
 45 46  1  0
 45 43  1  0
 45 44  1  0
 48 47  1  0
 49 62  1  0
 50 55  1  0
 51 52  1  0
 51 50  1  0
 53 52  1  0
 53 68  1  0
 53 54  1  0
 55 49  1  0
 55 54  1  0
 56 49  2  0
 58 57  1  0
 59 62  1  0
 59 61  1  0
 60 57  1  0
 61 63  1  0
 62 58  1  0
 63 60  1  0
 63 48  1  0
 63 64  1  6
 65 66  2  0
 66 85  1  0
 67 66  1  0
 67 70  1  0
 68 69  1  0
 68 65  1  0
 69 67  2  0
 70 71  1  0
 71 72  2  0
 73 76  1  0
 73 72  1  0
 74 73  2  0
 75 74  1  0
 75 70  2  0
 76 77  1  0
 77 82  2  0
 77 78  1  0
 78 79  2  0
 79 80  1  0
 80 84  1  0
 81 80  2  0
 82 81  1  0
 83 82  1  0
 85 86  1  0
 86 89  1  0
 86 88  1  0
 87 85  2  0
 90 65  1  0
 90 91  1  0
 92 90  1  0
M  ISO  4   5 101   6 101  49 100  62 100
M  END
>  <TORSDO>  (55) 
F 22

>  <SCORE>  (55) 
-9.515

>  <name>  (55) 
54

>  <ligand_id>  (55) 
54

>  <original_smiles>  (55) 
[H]c1c([H])c([H])c2c(c1[H])C([H])([H])C([H])([H])C([H])([H])C2([H])N([H])C(=O)C1([H])N(C(=O)C([H])(N([H])C(=O)C([H])(N([H])C([H])([H])[H])C([H])([H])[H])C(C([H])([H])[H])(C([H])([H])[H])C([H])([H])[H])C([H])([H])c2c([H])c(OC([H])([H])C([H])([H])C([H])([H])C([H])([H])C([H])([H])C([H])([H])C([H])([H])[N+]3([H])C([H])([H])C([H])([H])N(C(=O)N4C([H])([H])C([H])([H])C([H])([H])C([H])(n5nc(-c6c([H])c([H])c(Oc7c([H])c([H])c(F)c([H])c7F)c([H])c6[H])c(C(=O)N([H])[H])c5N([H])[H])C4([H])[H])C([H])([H])C([H])([H])C3([H])[H])c([H])c([H])c2C1([H])[H]

>  <smiles>  (55) 
[H]c1c([H])c([H])c2c(c1[H])C([H])([H])C([H])([H])C([H])([H])C2([H])N([H])C(=O)C1([H])N(C(=O)C([H])(N([H])C(=O)C([H])(N([H])C([H])([H])[H])C([H])([H])[H])C(C([H])([H])[H])(C([H])([H])[H])C([H])([H])[H])C([H])([H])c2c([H])c(OC([H])([H])C([H])([H])C([H])([H])C([H])([H])C([H])([H])C([H])([H])C([H])([H])[N+]3([H])C([H])([H])C([H])([H])N(C(=O)N4C([H])([H])C([H])([H])C([H])([H])C([H])(n5nc(-c6c([H])c([H])c(Oc7c([H])c([H])c(F)c([H])c7F)c([H])c6[H])c(C(=O)N([H])[H])c5N([H])[H])C4([H])[H])C([H])([H])C([H])([H])C3([H])[H])c([H])c([H])c2C1([H])[H]

$$$$
55:0:0
     RDKit          3D

 92100  0  0  1  0  0  0  0  0999 V2000
  -29.6770  -24.3740   18.1290 C   0  0  0  0  0  2  0  0  0  0  0  0
  -30.2540  -23.6570   19.3610 C   0  0  0  0  0  2  0  0  0  0  0  0
  -28.1780  -24.5600   18.3820 C   0  0  0  0  0  2  0  0  0  0  0  0
  -29.0830  -23.3900   20.3240 C   0  0  0  0  0  3  0  0  0  0  0  0
  -28.0370  -24.6510   19.9050 C   0  0  0  0  0  3  0  0  0  0  0  0
  -29.4920  -20.6260   20.5240 C   0  0  0  0  0  0  0  0  0  0  0  0
  -30.7450  -20.8080   20.9750 N   0  0  0  0  0  4  0  0  0  0  0  0
  -28.7350  -21.8230   20.2560 N   0  0  0  0  0  0  0  0  0  0  0  0
  -31.3450  -20.0240   21.1920 H   0  0  0  0  0  0  0  0  0  0  0  0
  -31.1340  -21.7240   21.1440 H   0  0  0  0  0  0  0  0  0  0  0  0
  -27.7890  -21.6600   19.9320 H   0  0  0  0  0  0  0  0  0  0  0  0
  -29.0330  -19.0460   20.3860 C   0  0  0  0  0  3  0  0  0  0  0  0
  -30.0990  -17.7330   20.5600 C   0  0  0  0  0  3  0  0  0  0  0  0
  -30.4970  -14.9980   20.4520 C   0  0  0  0  0  0  0  0  0  0  0  0
  -30.3980  -12.6420   19.5210 C   0  0  0  0  0  2  0  0  0  0  0  0
  -29.4800  -12.5850   18.2780 C   0  0  0  0  0  2  0  0  0  0  0  0
  -28.0130  -12.3640   18.6980 C   0  0  0  0  0  2  0  0  0  0  0  0
  -27.5870  -13.2930   19.8640 C   0  0  0  0  0  3  0  0  0  0  0  0
  -28.6290  -13.3230   21.0010 C   0  0  0  0  0  2  0  0  0  0  0  0
  -29.9020  -13.7390   20.4000 N   0  0  0  0  0  0  0  0  0  0  0  0
  -31.7040  -15.0620   20.1980 O   0  0  0  0  0  0  0  0  0  0  0  0
  -29.7200  -16.1870   20.5820 N   0  0  0  0  0  0  0  0  0  0  0  0
  -28.7380  -16.0050   20.7280 H   0  0  0  0  0  0  0  0  0  0  0  0
  -25.1950  -13.8580   20.5780 C   0  0  0  0  0  0  0  0  0  0  0  0
  -24.1320  -13.0770   20.9390 C   0  0  0  0  0  0  0  0  0  0  0  0
  -24.6060  -11.7290   20.9160 C   0  0  0  0  0  0  0  0  0  0  0  0
  -26.2460  -12.9860   20.3500 N   0  0  0  0  0  0  0  0  0  0  0  0
  -25.9000  -11.7000   20.6200 N   0  0  0  0  0  0  0  0  0  0  0  0
  -23.8860  -10.4620   21.0990 C   0  0  0  0  0  0  0  0  0  0  0  0
  -24.3270   -9.4880   22.0210 C   0  0  0  0  0  3  0  0  0  0  0  0
  -23.6030   -8.2880   22.1940 C   0  0  0  0  0  3  0  0  0  0  0  0
  -22.4250   -8.0540   21.4450 C   0  0  0  0  0  0  0  0  0  0  0  0
  -22.0030   -9.0180   20.5120 C   0  0  0  0  0  3  0  0  0  0  0  0
  -22.7270  -10.2100   20.3380 C   0  0  0  0  0  3  0  0  0  0  0  0
  -21.6730   -6.9070   21.5270 O   0  0  0  0  0  0  0  0  0  0  0  0
  -21.6470   -6.1430   22.6670 C   0  0  0  0  0  0  0  0  0  0  0  0
  -21.2530   -6.6800   23.9130 C   0  0  0  0  0  3  0  0  0  0  0  0
  -21.1730   -5.8440   25.0440 C   0  0  0  0  0  3  0  0  0  0  0  0
  -21.4760   -4.4740   24.9320 C   0  0  0  0  0  0  0  0  0  0  0  0
  -21.8640   -3.9380   23.6910 C   0  0  0  0  0  3  0  0  0  0  0  0
  -21.9460   -4.7710   22.5620 C   0  0  0  0  0  0  0  0  0  0  0  0
  -22.2980   -4.2450   21.3640 F   0  0  0  0  0  0  0  0  0  0  0  0
  -21.3930   -3.6700   26.0170 F   0  0  0  0  0  0  0  0  0  0  0  0
  -22.7290  -13.5460   21.1890 C   0  0  0  0  0  0  0  0  0  0  0  0
  -21.9950  -12.8510   22.0510 N   0  0  0  0  0  0  0  0  0  0  0  0
  -22.2920  -14.5660   20.6560 O   0  0  0  0  0  0  0  0  0  0  0  0
  -22.3610  -12.0280   22.5050 H   0  0  0  0  0  0  0  0  0  0  0  0
  -21.0520  -13.1500   22.2610 H   0  0  0  0  0  0  0  0  0  0  0  0
  -25.3500  -15.2290   20.3960 N   0  0  0  0  0  0  0  0  0  0  0  0
  -24.5700  -15.8710   20.4850 H   0  0  0  0  0  0  0  0  0  0  0  0
  -26.1820  -15.6700   20.0260 H   0  0  0  0  0  0  0  0  0  0  0  0
  -28.2320  -26.1780   20.2070 O   0  0  0  0  0  0  0  0  0  0  0  0
  -24.6380  -31.8770   23.2210 C   0  0  0  0  0  0  0  0  0  0  0  0
  -27.1700  -27.1600   20.1460 C   0  0  0  0  0  0  0  0  0  0  0  0
  -23.4160  -30.4840   21.5990 C   0  0  0  0  0  3  0  0  0  0  0  0
  -24.8420  -28.9130   20.1510 C   0  0  0  0  0  0  0  0  0  0  0  0
  -25.9680  -30.7470   21.3980 C   0  0  0  0  0  2  0  0  0  0  0  0
  -26.0310  -29.3560   20.7420 C   0  0  0  0  0  0  0  0  0  0  0  0
  -27.1950  -28.4970   20.7210 C   0  0  0  0  0  3  0  0  0  0  0  0
  -25.9460  -26.8190   19.5260 C   0  0  0  0  0  3  0  0  0  0  0  0
  -24.8120  -27.6570   19.5270 C   0  0  0  0  0  3  0  0  0  0  0  0
  -23.6160  -29.8100   20.2160 C   0  0  0  0  0  2  0  0  0  0  0  0
  -24.6950  -31.0580   22.1270 N   0  0  0  0  0  0  0  0  0  0  0  0
  -23.5600  -32.1610   23.7650 O   0  0  0  0  0  0  0  0  0  0  0  0
  -22.7500  -29.4750   22.5690 C   0  0  0  0  0  0  0  0  0  0  0  0
  -21.4220  -29.2990   22.4540 N   0  0  0  0  0  0  0  0  0  0  0  0
  -23.4310  -28.8540   23.3880 O   0  0  0  0  0  0  0  0  0  0  0  0
  -20.9270  -29.8520   21.7680 H   0  0  0  0  0  0  0  0  0  0  0  0
  -18.0540  -28.0690   22.9730 C   0  0  0  0  0  0  0  0  0  0  0  0
  -20.6100  -28.3610   23.2350 C   0  0  0  0  0  3  0  0  0  0  0  0
  -20.7260  -26.9240   22.6750 C   0  0  0  0  0  2  0  0  0  0  0  0
  -19.6270  -26.5790   21.6650 C   0  0  0  0  0  2  0  0  0  0  0  0
  -18.2450  -26.7160   22.3090 C   0  0  0  0  0  2  0  0  0  0  0  0
  -19.1630  -28.8480   23.3940 C   0  0  0  0  0  0  0  0  0  0  0  0
  -18.9300  -30.1130   23.9760 C   0  0  0  0  0  3  0  0  0  0  0  0
  -17.6180  -30.5980   24.1410 C   0  0  0  0  0  3  0  0  0  0  0  0
  -16.5240  -29.8170   23.7350 C   0  0  0  0  0  3  0  0  0  0  0  0
  -16.7410  -28.5530   23.1560 C   0  0  0  0  0  3  0  0  0  0  0  0
  -25.9250  -32.5130   23.8320 C   0  0  0  0  0  3  0  0  0  0  0  0
  -26.4600  -31.7340   25.0970 C   0  0  1  0  0  0  0  0  0  0  0  0
  -25.3840  -31.4890   26.1800 C   0  0  0  0  0  1  0  0  0  0  0  0
  -27.0370  -30.3580   24.6920 C   0  0  0  0  0  1  0  0  0  0  0  0
  -27.6200  -32.5250   25.7450 C   0  0  0  0  0  1  0  0  0  0  0  0
  -25.6110  -33.9060   24.1850 N   0  0  0  0  0  0  0  0  0  0  0  0
  -25.9170  -34.9730   23.4340 C   0  0  0  0  0  0  0  0  0  0  0  0
  -26.5600  -34.8870   22.3850 O   0  0  0  0  0  0  0  0  0  0  0  0
  -25.0350  -34.0460   25.0020 H   0  0  0  0  0  0  0  0  0  0  0  0
  -24.1670  -36.7610   23.1600 C   0  0  0  0  0  1  0  0  0  0  0  0
  -25.4370  -36.3540   23.9250 C   0  0  0  0  0  3  0  0  0  0  0  0
  -27.5930  -37.2450   24.6920 C   0  0  0  0  0  1  0  0  0  0  0  0
  -26.4590  -37.4160   23.7880 N   0  0  0  0  0  0  0  0  0  0  0  0
  -26.0520  -38.3310   23.9590 H   0  0  0  0  0  0  0  0  0  0  0  0
  1  3  1  0
  1  2  1  0
  2  4  1  0
  3  5  1  0
  4  8  1  0
  5 52  1  0
  5  4  1  0
  6  7  2  0
  7 10  1  0
  7  9  1  0
  8  6  1  0
 11  8  1  0
 12  6  1  0
 12 13  2  0
 13 22  1  0
 14 22  1  0
 15 20  1  0
 16 17  1  0
 16 15  1  0
 18 17  1  0
 18 27  1  0
 18 19  1  0
 20 14  1  0
 20 19  1  0
 21 14  2  0
 22 23  1  0
 24 25  2  0
 25 44  1  0
 26 25  1  0
 26 29  1  0
 27 24  1  0
 27 28  1  0
 28 26  2  0
 29 30  1  0
 30 31  2  0
 32 35  1  0
 32 31  1  0
 33 32  2  0
 34 33  1  0
 34 29  2  0
 35 36  1  0
 36 37  1  0
 37 38  2  0
 39 38  1  0
 39 43  1  0
 40 39  2  0
 41 36  2  0
 41 40  1  0
 42 41  1  0
 44 45  1  0
 45 48  1  0
 45 47  1  0
 46 44  2  0
 49 50  1  0
 49 24  1  0
 51 49  1  0
 53 64  2  0
 54 52  1  0
 54 59  1  0
 55 63  1  0
 55 65  1  0
 56 62  1  0
 56 58  1  0
 57 63  1  0
 58 57  1  0
 59 58  2  0
 60 61  1  0
 60 54  2  0
 61 56  2  0
 62 55  1  0
 63 53  1  0
 65 67  2  0
 66 65  1  0
 68 66  1  0
 69 78  2  0
 69 74  1  0
 70 66  1  0
 70 74  1  0
 71 70  1  0
 72 73  1  0
 72 71  1  0
 73 69  1  0
 74 75  2  0
 75 76  1  0
 77 76  2  0
 78 77  1  0
 79 53  1  0
 79 84  1  0
 79 80  1  0
 80 83  1  1
 80 81  1  0
 82 80  1  0
 84 87  1  0
 85 89  1  0
 85 84  1  0
 86 85  2  0
 89 88  1  0
 91 89  1  0
 91 92  1  0
 91 90  1  0
M  ISO  4   5 101  14 100  22 100  52 101
M  END
>  <TORSDO>  (56) 
F 19

>  <SCORE>  (56) 
-14.895

>  <name>  (56) 
55

>  <ligand_id>  (56) 
55

>  <original_smiles>  (56) 
[H]c1c([H])c([H])c2c(c1[H])C([H])([H])C([H])([H])C([H])([H])C2([H])N([H])C(=O)C1([H])N(C(=O)C([H])(N([H])C(=O)C([H])(N([H])C([H])([H])[H])C([H])([H])[H])C(C([H])([H])[H])(C([H])([H])[H])C([H])([H])[H])C([H])([H])c2c([H])c(OC3([H])C([H])([H])C([H])([H])C([H])([H])C3([H])[N+]([H])=C(N([H])[H])C([H])([H])C([H])([H])N([H])C(=O)N3C([H])([H])C([H])([H])C([H])([H])C([H])(n4nc(-c5c([H])c([H])c(Oc6c([H])c([H])c(F)c([H])c6F)c([H])c5[H])c(C(=O)N([H])[H])c4N([H])[H])C3([H])[H])c([H])c([H])c2C1([H])[H]

>  <smiles>  (56) 
[H]c1c([H])c([H])c2c(c1[H])C([H])([H])C([H])([H])C([H])([H])C2([H])N([H])C(=O)C1([H])N(C(=O)C([H])(N([H])C(=O)C([H])(N([H])C([H])([H])[H])C([H])([H])[H])C(C([H])([H])[H])(C([H])([H])[H])C([H])([H])[H])C([H])([H])c2c([H])c(OC3([H])C([H])([H])C([H])([H])C([H])([H])C3([H])[N+]([H])=C(N([H])[H])C([H])([H])C([H])([H])N([H])C(=O)N3C([H])([H])C([H])([H])C([H])([H])C([H])(n4nc(-c5c([H])c([H])c(Oc6c([H])c([H])c(F)c([H])c6F)c([H])c5[H])c(C(=O)N([H])[H])c4N([H])[H])C3([H])[H])c([H])c([H])c2C1([H])[H]

$$$$
56:0:0
     RDKit          3D

 91 99  0  0  1  0  0  0  0  0999 V2000
  -28.6780  -22.7520   20.5610 N   0  0  0  0  0  4  0  0  0  0  0  0
  -28.0320  -22.6890   21.3340 H   0  0  0  0  0  0  0  0  0  0  0  0
  -28.1450  -22.5730   19.7230 H   0  0  0  0  0  0  0  0  0  0  0  0
  -29.6570  -21.6280   20.7050 C   0  0  0  0  0  2  0  0  0  0  0  0
  -28.9530  -20.2560   21.0110 C   0  0  0  0  0  2  0  0  0  0  0  0
  -30.6690  -14.5800   20.0790 C   0  0  0  0  0  0  0  0  0  0  0  0
  -30.2430  -12.4390   18.9040 C   0  0  0  0  0  2  0  0  0  0  0  0
  -29.2230  -12.6280   17.7640 C   0  0  0  0  0  2  0  0  0  0  0  0
  -27.7910  -12.4390   18.2940 C   0  0  0  0  0  2  0  0  0  0  0  0
  -27.5230  -13.2760   19.5700 C   0  0  0  0  0  3  0  0  0  0  0  0
  -28.6580  -13.1230   20.6120 C   0  0  0  0  0  2  0  0  0  0  0  0
  -29.9370  -13.4310   19.9540 N   0  0  0  0  0  0  0  0  0  0  0  0
  -31.7600  -14.7100   19.5150 O   0  0  0  0  0  0  0  0  0  0  0  0
  -31.6920  -17.5870   21.3120 C   0  0  0  0  0  2  0  0  0  0  0  0
  -31.0520  -16.2630   21.8120 C   0  0  0  0  0  2  0  0  0  0  0  0
  -30.8620  -18.8640   21.5840 C   0  0  0  0  0  2  0  0  0  0  0  0
  -29.2170  -16.5470   20.1750 C   0  0  0  0  0  2  0  0  0  0  0  0
  -28.8080  -17.8400   20.9460 C   0  0  0  0  0  2  0  0  0  0  0  0
  -30.1670  -15.6110   20.8250 N   0  0  0  0  0  0  0  0  0  0  0  0
  -29.6910  -19.0000   20.7110 N   0  0  0  0  0  0  0  0  0  0  0  0
  -25.2010  -13.8710   20.4960 C   0  0  0  0  0  0  0  0  0  0  0  0
  -24.1590  -13.0910   20.9160 C   0  0  0  0  0  0  0  0  0  0  0  0
  -24.6050  -11.7390   20.7970 C   0  0  0  0  0  0  0  0  0  0  0  0
  -26.2140  -12.9910   20.1470 N   0  0  0  0  0  0  0  0  0  0  0  0
  -25.8670  -11.7040   20.3900 N   0  0  0  0  0  0  0  0  0  0  0  0
  -23.8860  -10.4750   20.9900 C   0  0  0  0  0  0  0  0  0  0  0  0
  -24.3450   -9.4960   21.8980 C   0  0  0  0  0  3  0  0  0  0  0  0
  -23.6260   -8.2940   22.0800 C   0  0  0  0  0  3  0  0  0  0  0  0
  -22.4350   -8.0650   21.3500 C   0  0  0  0  0  0  0  0  0  0  0  0
  -21.9960   -9.0330   20.4290 C   0  0  0  0  0  3  0  0  0  0  0  0
  -22.7150  -10.2250   20.2470 C   0  0  0  0  0  3  0  0  0  0  0  0
  -21.6840   -6.9170   21.4430 O   0  0  0  0  0  0  0  0  0  0  0  0
  -21.6230   -6.1900   22.6040 C   0  0  0  0  0  0  0  0  0  0  0  0
  -21.1840   -6.7610   23.8180 C   0  0  0  0  0  3  0  0  0  0  0  0
  -21.0700   -5.9590   24.9720 C   0  0  0  0  0  3  0  0  0  0  0  0
  -21.3840   -4.5890   24.9110 C   0  0  0  0  0  0  0  0  0  0  0  0
  -21.8150   -4.0170   23.7010 C   0  0  0  0  0  3  0  0  0  0  0  0
  -21.9320   -4.8160   22.5500 C   0  0  0  0  0  0  0  0  0  0  0  0
  -22.3280   -4.2570   21.3810 F   0  0  0  0  0  0  0  0  0  0  0  0
  -21.2660   -3.8160   26.0160 F   0  0  0  0  0  0  0  0  0  0  0  0
  -22.7890  -13.5640   21.3100 C   0  0  0  0  0  0  0  0  0  0  0  0
  -22.1240  -12.8390   22.2030 N   0  0  0  0  0  0  0  0  0  0  0  0
  -22.3200  -14.6090   20.8630 O   0  0  0  0  0  0  0  0  0  0  0  0
  -22.5160  -11.9900   22.5830 H   0  0  0  0  0  0  0  0  0  0  0  0
  -21.2080  -13.1350   22.5090 H   0  0  0  0  0  0  0  0  0  0  0  0
  -25.3630  -15.2470   20.3590 N   0  0  0  0  0  0  0  0  0  0  0  0
  -24.6110  -15.9010   20.5450 H   0  0  0  0  0  0  0  0  0  0  0  0
  -26.1810  -15.6890   19.9620 H   0  0  0  0  0  0  0  0  0  0  0  0
  -29.1950  -24.1670   20.5040 C   0  0  0  0  0  2  0  0  0  0  0  0
  -28.0810  -25.1760   20.0690 C   0  0  0  0  0  2  0  0  0  0  0  0
  -28.3270  -26.6120   20.1810 O   0  0  0  0  0  0  0  0  0  0  0  0
  -24.5790  -31.8870   23.2510 C   0  0  0  0  0  0  0  0  0  0  0  0
  -27.1910  -27.4190   20.1300 C   0  0  0  0  0  0  0  0  0  0  0  0
  -23.3660  -30.5020   21.6050 C   0  0  0  0  0  3  0  0  0  0  0  0
  -24.8110  -28.9800   20.1550 C   0  0  0  0  0  0  0  0  0  0  0  0
  -25.8980  -30.8460   21.4020 C   0  0  0  0  0  2  0  0  0  0  0  0
  -25.9780  -29.4790   20.7440 C   0  0  0  0  0  0  0  0  0  0  0  0
  -27.1730  -28.7100   20.7260 C   0  0  0  0  0  3  0  0  0  0  0  0
  -26.0000  -26.9660   19.5090 C   0  0  0  0  0  3  0  0  0  0  0  0
  -24.8190  -27.7250   19.5300 C   0  0  0  0  0  3  0  0  0  0  0  0
  -23.5690  -29.8410   20.2170 C   0  0  0  0  0  2  0  0  0  0  0  0
  -24.6330  -31.0930   22.1440 N   0  0  0  0  0  0  0  0  0  0  0  0
  -23.5000  -32.1570   23.7950 O   0  0  0  0  0  0  0  0  0  0  0  0
  -22.7150  -29.4720   22.5590 C   0  0  0  0  0  0  0  0  0  0  0  0
  -21.3900  -29.2900   22.4350 N   0  0  0  0  0  0  0  0  0  0  0  0
  -23.4010  -28.8410   23.3680 O   0  0  0  0  0  0  0  0  0  0  0  0
  -20.8980  -29.8540   21.7550 H   0  0  0  0  0  0  0  0  0  0  0  0
  -18.0170  -28.0910   22.9390 C   0  0  0  0  0  0  0  0  0  0  0  0
  -20.5760  -28.3470   23.2020 C   0  0  0  0  0  3  0  0  0  0  0  0
  -20.6760  -26.9210   22.6140 C   0  0  0  0  0  2  0  0  0  0  0  0
  -19.5690  -26.6060   21.6010 C   0  0  0  0  0  2  0  0  0  0  0  0
  -18.1900  -26.7470   22.2520 C   0  0  0  0  0  2  0  0  0  0  0  0
  -19.1380  -28.8500   23.3710 C   0  0  0  0  0  0  0  0  0  0  0  0
  -18.9230  -30.1080   23.9740 C   0  0  0  0  0  3  0  0  0  0  0  0
  -17.6200  -30.6100   24.1480 C   0  0  0  0  0  3  0  0  0  0  0  0
  -16.5130  -29.8490   23.7330 C   0  0  0  0  0  3  0  0  0  0  0  0
  -16.7120  -28.5910   23.1350 C   0  0  0  0  0  3  0  0  0  0  0  0
  -25.8680  -32.5130   23.8690 C   0  0  0  0  0  3  0  0  0  0  0  0
  -26.3890  -31.7350   25.1390 C   0  0  1  0  0  0  0  0  0  0  0  0
  -25.2990  -31.4890   26.2110 C   0  0  0  0  0  1  0  0  0  0  0  0
  -26.9690  -30.3580   24.7380 C   0  0  0  0  0  1  0  0  0  0  0  0
  -27.5430  -32.5240   25.8000 C   0  0  0  0  0  1  0  0  0  0  0  0
  -25.5630  -33.9110   24.2040 N   0  0  0  0  0  0  0  0  0  0  0  0
  -25.8760  -34.9630   23.4350 C   0  0  0  0  0  0  0  0  0  0  0  0
  -26.5230  -34.8590   22.3900 O   0  0  0  0  0  0  0  0  0  0  0  0
  -24.9840  -34.0650   25.0160 H   0  0  0  0  0  0  0  0  0  0  0  0
  -24.1220  -36.7410   23.1330 C   0  0  0  0  0  1  0  0  0  0  0  0
  -25.3960  -36.3510   23.9010 C   0  0  0  0  0  3  0  0  0  0  0  0
  -27.5520  -37.2550   24.6490 C   0  0  0  0  0  1  0  0  0  0  0  0
  -26.4160  -37.4090   23.7450 N   0  0  0  0  0  0  0  0  0  0  0  0
  -26.0080  -38.3280   23.9010 H   0  0  0  0  0  0  0  0  0  0  0  0
  1  4  1  0
  1  2  1  0
  3  1  1  0
  4  5  1  0
  6 19  1  0
  7 12  1  0
  8  9  1  0
  8  7  1  0
 10  9  1  0
 10 24  1  0
 10 11  1  0
 12  6  1  0
 12 11  1  0
 13  6  2  0
 14 16  1  0
 14 15  1  0
 17 19  1  0
 17 18  1  0
 19 15  1  0
 20 18  1  0
 20  5  1  0
 20 16  1  0
 21 22  2  0
 22 41  1  0
 23 22  1  0
 23 26  1  0
 24 25  1  0
 24 21  1  0
 25 23  2  0
 26 27  1  0
 27 28  2  0
 29 32  1  0
 29 28  1  0
 30 29  2  0
 31 30  1  0
 31 26  2  0
 32 33  1  0
 33 34  1  0
 34 35  2  0
 36 35  1  0
 36 40  1  0
 37 36  2  0
 38 33  2  0
 38 37  1  0
 39 38  1  0
 41 42  1  0
 42 45  1  0
 42 44  1  0
 43 41  2  0
 46 21  1  0
 46 47  1  0
 48 46  1  0
 49  1  1  0
 50 51  1  0
 50 49  1  0
 52 63  2  0
 53 51  1  0
 53 58  1  0
 54 62  1  0
 54 64  1  0
 55 61  1  0
 55 57  1  0
 56 62  1  0
 57 56  1  0
 58 57  2  0
 59 60  1  0
 59 53  2  0
 60 55  2  0
 61 54  1  0
 62 52  1  0
 64 66  2  0
 65 64  1  0
 67 65  1  0
 68 77  2  0
 68 73  1  0
 69 65  1  0
 69 73  1  0
 70 69  1  0
 71 72  1  0
 71 70  1  0
 72 68  1  0
 73 74  2  0
 74 75  1  0
 76 75  2  0
 77 76  1  0
 78 52  1  0
 78 83  1  0
 78 79  1  0
 79 82  1  1
 79 80  1  0
 81 79  1  0
 83 86  1  0
 84 88  1  0
 84 83  1  0
 85 84  2  0
 88 87  1  0
 90 91  1  0
 90 88  1  0
 90 89  1  0
M  ISO  4   6 100  19 100  50 101  51 101
M  END
>  <TORSDO>  (57) 
F 20

>  <SCORE>  (57) 
-13.560

>  <name>  (57) 
56

>  <ligand_id>  (57) 
56

>  <original_smiles>  (57) 
[H]c1c([H])c([H])c2c(c1[H])C([H])([H])C([H])([H])C([H])([H])C2([H])N([H])C(=O)C1([H])N(C(=O)C([H])(N([H])C(=O)C([H])(N([H])C([H])([H])[H])C([H])([H])[H])C(C([H])([H])[H])(C([H])([H])[H])C([H])([H])[H])C([H])([H])c2c([H])c(OC([H])([H])C([H])([H])[N+]([H])([H])C([H])([H])C([H])([H])N3C([H])([H])C([H])([H])N(C(=O)N4C([H])([H])C([H])([H])C([H])([H])C([H])(n5nc(-c6c([H])c([H])c(Oc7c([H])c([H])c(F)c([H])c7F)c([H])c6[H])c(C(=O)N([H])[H])c5N([H])[H])C4([H])[H])C([H])([H])C([H])([H])C3([H])[H])c([H])c([H])c2C1([H])[H]

>  <smiles>  (57) 
[H]c1c([H])c([H])c2c(c1[H])C([H])([H])C([H])([H])C([H])([H])C2([H])N([H])C(=O)C1([H])N(C(=O)C([H])(N([H])C(=O)C([H])(N([H])C([H])([H])[H])C([H])([H])[H])C(C([H])([H])[H])(C([H])([H])[H])C([H])([H])[H])C([H])([H])c2c([H])c(OC([H])([H])C([H])([H])[N+]([H])([H])C([H])([H])C([H])([H])N3C([H])([H])C([H])([H])N(C(=O)N4C([H])([H])C([H])([H])C([H])([H])C([H])(n5nc(-c6c([H])c([H])c(Oc7c([H])c([H])c(F)c([H])c7F)c([H])c6[H])c(C(=O)N([H])[H])c5N([H])[H])C4([H])[H])C([H])([H])C([H])([H])C3([H])[H])c([H])c([H])c2C1([H])[H]

$$$$
57:0:0
     RDKit          3D

 94102  0  0  1  0  0  0  0  0999 V2000
  -30.6810  -15.0990   20.4390 C   0  0  0  0  0  0  0  0  0  0  0  0
  -30.4980  -12.7400   19.5340 C   0  0  0  0  0  2  0  0  0  0  0  0
  -29.5820  -12.6570   18.2950 C   0  0  0  0  0  2  0  0  0  0  0  0
  -28.1120  -12.4730   18.7160 C   0  0  0  0  0  2  0  0  0  0  0  0
  -27.6840  -13.4240   19.8650 C   0  0  0  0  0  3  0  0  0  0  0  0
  -28.7360  -13.4890   20.9940 C   0  0  0  0  0  2  0  0  0  0  0  0
  -30.0170  -13.8700   20.3740 N   0  0  0  0  0  0  0  0  0  0  0  0
  -31.9160  -15.0660   20.3860 O   0  0  0  0  0  0  0  0  0  0  0  0
  -28.1420  -18.7330   20.0660 C   0  0  0  0  0  2  0  0  0  0  0  0
  -29.2670  -16.5790   19.0370 C   0  0  0  0  0  2  0  0  0  0  0  0
  -30.3940  -17.8160   20.7500 C   0  0  0  0  0  2  0  0  0  0  0  0
  -27.9730  -17.4220   19.2400 C   0  0  0  0  0  3  0  0  0  0  0  0
  -29.6050  -19.1820   20.1490 C   0  0  0  0  0  3  0  0  0  0  0  0
  -29.9960  -16.3560   20.2950 N   0  0  0  0  0  0  0  0  0  0  0  0
  -25.2960  -14.0300   20.5560 C   0  0  0  0  0  0  0  0  0  0  0  0
  -24.2110  -13.2710   20.8820 C   0  0  0  0  0  0  0  0  0  0  0  0
  -24.6640  -11.9190   20.8690 C   0  0  0  0  0  0  0  0  0  0  0  0
  -26.3400  -13.1430   20.3490 N   0  0  0  0  0  0  0  0  0  0  0  0
  -25.9660  -11.8650   20.6070 N   0  0  0  0  0  0  0  0  0  0  0  0
  -23.9160  -10.6700   21.0380 C   0  0  0  0  0  0  0  0  0  0  0  0
  -24.3160   -9.6940   21.9750 C   0  0  0  0  0  3  0  0  0  0  0  0
  -23.5660   -8.5110   22.1350 C   0  0  0  0  0  3  0  0  0  0  0  0
  -22.4020   -8.2980   21.3580 C   0  0  0  0  0  0  0  0  0  0  0  0
  -22.0230   -9.2640   20.4090 C   0  0  0  0  0  3  0  0  0  0  0  0
  -22.7730  -10.4400   20.2480 C   0  0  0  0  0  3  0  0  0  0  0  0
  -21.6270   -7.1670   21.4270 O   0  0  0  0  0  0  0  0  0  0  0  0
  -21.5580   -6.4130   22.5720 C   0  0  0  0  0  0  0  0  0  0  0  0
  -21.1450   -6.9640   23.8050 C   0  0  0  0  0  3  0  0  0  0  0  0
  -21.0240   -6.1370   24.9400 C   0  0  0  0  0  3  0  0  0  0  0  0
  -21.3070   -4.7610   24.8420 C   0  0  0  0  0  0  0  0  0  0  0  0
  -21.7110   -4.2090   23.6130 C   0  0  0  0  0  3  0  0  0  0  0  0
  -21.8350   -5.0340   22.4820 C   0  0  0  0  0  0  0  0  0  0  0  0
  -22.2080   -4.4960   21.2940 F   0  0  0  0  0  0  0  0  0  0  0  0
  -21.1810   -3.9640   25.9280 F   0  0  0  0  0  0  0  0  0  0  0  0
  -22.8150  -13.7720   21.1040 C   0  0  0  0  0  0  0  0  0  0  0  0
  -22.0560  -13.1000   21.9610 N   0  0  0  0  0  0  0  0  0  0  0  0
  -22.4090  -14.7990   20.5590 O   0  0  0  0  0  0  0  0  0  0  0  0
  -22.4020  -12.2720   22.4240 H   0  0  0  0  0  0  0  0  0  0  0  0
  -21.1160  -13.4140   22.1530 H   0  0  0  0  0  0  0  0  0  0  0  0
  -25.4530  -15.3970   20.3970 N   0  0  0  0  0  0  0  0  0  0  0  0
  -24.6800  -16.0370   20.5470 H   0  0  0  0  0  0  0  0  0  0  0  0
  -26.3460  -15.8550   20.3020 H   0  0  0  0  0  0  0  0  0  0  0  0
  -27.1550  -17.6030   17.9360 C   0  0  0  0  0  2  0  0  0  0  0  0
  -27.8080  -18.4870   16.9530 N   0  0  0  0  0  4  0  0  0  0  0  0
  -27.8850  -19.4230   17.3030 H   0  0  0  0  0  0  0  0  0  0  0  0
  -27.2590  -18.5210   16.1110 H   0  0  0  0  0  0  0  0  0  0  0  0
  -28.7210  -18.1520   16.7080 H   0  0  0  0  0  0  0  0  0  0  0  0
  -29.7670  -20.7550   20.7530 C   0  0  0  0  0  2  0  0  0  0  0  0
  -28.9760  -22.0180   20.2030 N   0  0  0  0  0  4  0  0  0  0  0  0
  -29.1330  -22.0670   19.2070 H   0  0  0  0  0  0  0  0  0  0  0  0
  -27.9960  -21.8190   20.3200 H   0  0  0  0  0  0  0  0  0  0  0  0
  -29.1920  -23.5020   20.7370 C   0  0  0  0  0  3  0  0  0  0  0  0
  -28.2280  -24.8030   20.2660 C   0  0  0  0  0  3  0  0  0  0  0  0
  -28.4140  -26.3080   20.6160 O   0  0  0  0  0  0  0  0  0  0  0  0
  -24.6300  -31.9920   23.3530 C   0  0  0  0  0  0  0  0  0  0  0  0
  -27.3510  -27.2710   20.4830 C   0  0  0  0  0  0  0  0  0  0  0  0
  -23.5010  -30.5700   21.6850 C   0  0  0  0  0  3  0  0  0  0  0  0
  -25.0120  -28.9900   20.3370 C   0  0  0  0  0  0  0  0  0  0  0  0
  -26.0580  -30.8530   21.6150 C   0  0  0  0  0  2  0  0  0  0  0  0
  -26.1650  -29.4550   20.9840 C   0  0  0  0  0  0  0  0  0  0  0  0
  -27.3360  -28.6120   21.0380 C   0  0  0  0  0  3  0  0  0  0  0  0
  -26.1750  -26.9030   19.7910 C   0  0  0  0  0  3  0  0  0  0  0  0
  -25.0300  -27.7260   19.7290 C   0  0  0  0  0  3  0  0  0  0  0  0
  -23.7820  -29.8840   20.3230 C   0  0  0  0  0  2  0  0  0  0  0  0
  -24.7470  -31.1610   22.2720 N   0  0  0  0  0  0  0  0  0  0  0  0
  -23.5240  -32.2810   23.8330 O   0  0  0  0  0  0  0  0  0  0  0  0
  -22.7850  -29.5730   22.6320 C   0  0  0  0  0  0  0  0  0  0  0  0
  -21.4610  -29.4030   22.4600 N   0  0  0  0  0  0  0  0  0  0  0  0
  -23.4260  -28.9540   23.4840 O   0  0  0  0  0  0  0  0  0  0  0  0
  -21.0030  -29.9420   21.7380 H   0  0  0  0  0  0  0  0  0  0  0  0
  -18.0490  -28.2590   22.8890 C   0  0  0  0  0  0  0  0  0  0  0  0
  -20.6040  -28.4850   23.2170 C   0  0  0  0  0  3  0  0  0  0  0  0
  -20.6940  -27.0470   22.6500 C   0  0  0  0  0  2  0  0  0  0  0  0
  -19.6130  -26.7420   21.6060 C   0  0  0  0  0  2  0  0  0  0  0  0
  -18.2210  -26.9030   22.2230 C   0  0  0  0  0  2  0  0  0  0  0  0
  -19.1670  -29.0090   23.3440 C   0  0  0  0  0  0  0  0  0  0  0  0
  -18.9500  -30.2730   23.9330 C   0  0  0  0  0  3  0  0  0  0  0  0
  -17.6480  -30.7930   24.0660 C   0  0  0  0  0  3  0  0  0  0  0  0
  -16.5460  -30.0440   23.6200 C   0  0  0  0  0  3  0  0  0  0  0  0
  -16.7460  -28.7790   23.0410 C   0  0  0  0  0  3  0  0  0  0  0  0
  -25.8790  -32.6380   24.0250 C   0  0  0  0  0  3  0  0  0  0  0  0
  -25.5590  -34.0460   24.3130 N   0  0  0  0  0  0  0  0  0  0  0  0
  -25.9070  -35.0830   23.5390 C   0  0  0  0  0  0  0  0  0  0  0  0
  -26.5970  -34.9550   22.5230 O   0  0  0  0  0  0  0  0  0  0  0  0
  -24.9490  -34.2180   25.0990 H   0  0  0  0  0  0  0  0  0  0  0  0
  -24.1750  -36.8610   23.1230 C   0  0  0  0  0  1  0  0  0  0  0  0
  -25.4120  -36.4820   23.9540 C   0  0  0  0  0  3  0  0  0  0  0  0
  -27.5360  -37.4010   24.7770 C   0  0  0  0  0  1  0  0  0  0  0  0
  -26.4430  -37.5360   23.8170 N   0  0  0  0  0  0  0  0  0  0  0  0
  -26.0330  -38.4590   23.9330 H   0  0  0  0  0  0  0  0  0  0  0  0
  -26.3270  -31.8940   25.3440 C   0  0  1  0  0  0  0  0  0  0  0  0
  -25.1780  -31.6730   26.3590 C   0  0  0  0  0  1  0  0  0  0  0  0
  -26.9320  -30.5110   25.0120 C   0  0  0  0  0  1  0  0  0  0  0  0
  -27.4400  -32.7070   26.0470 C   0  0  0  0  0  1  0  0  0  0  0  0
  2  7  1  0
  3  4  1  0
  3  2  1  0
  5  4  1  0
  5 18  1  0
  5  6  1  0
  7  1  1  0
  7  6  1  0
  8  1  2  0
  9 13  1  0
 10 12  1  0
 10 14  1  0
 12 43  1  0
 12  9  1  0
 13 11  1  0
 13 48  1  0
 14  1  1  0
 14 11  1  0
 15 16  2  0
 16 35  1  0
 17 16  1  0
 17 20  1  0
 18 15  1  0
 18 19  1  0
 19 17  2  0
 20 21  1  0
 21 22  2  0
 23 26  1  0
 23 22  1  0
 24 23  2  0
 25 24  1  0
 25 20  2  0
 26 27  1  0
 27 28  1  0
 28 29  2  0
 30 29  1  0
 30 34  1  0
 31 30  2  0
 32 27  2  0
 32 31  1  0
 33 32  1  0
 35 36  1  0
 36 39  1  0
 36 38  1  0
 37 35  2  0
 40 41  1  0
 40 15  1  0
 42 40  1  0
 44 45  1  0
 44 43  1  0
 46 44  1  0
 47 44  1  0
 49 51  1  0
 49 52  1  0
 49 48  1  0
 50 49  1  0
 53 54  1  0
 53 52  2  0
 55 66  2  0
 56 54  1  0
 56 61  1  0
 57 65  1  0
 57 67  1  0
 58 60  1  0
 59 65  1  0
 60 61  2  0
 60 59  1  0
 62 56  2  0
 63 62  1  0
 63 58  2  0
 64 58  1  0
 64 57  1  0
 65 55  1  0
 67 69  2  0
 68 67  1  0
 70 68  1  0
 71 80  2  0
 71 76  1  0
 72 68  1  0
 72 76  1  0
 73 72  1  0
 74 75  1  0
 74 73  1  0
 75 71  1  0
 76 77  2  0
 77 78  1  0
 79 78  2  0
 80 79  1  0
 81 55  1  0
 81 82  1  0
 81 91  1  0
 82 85  1  0
 83 87  1  0
 83 82  1  0
 84 83  2  0
 87 86  1  0
 89 90  1  0
 89 87  1  0
 89 88  1  0
 91 94  1  1
 91 92  1  0
 93 91  1  0
M  ISO  4   1 100  14 100  53 101  54 101
M  END
>  <TORSDO>  (58) 
F 21

>  <SCORE>  (58) 
-12.742

>  <name>  (58) 
57

>  <ligand_id>  (58) 
57

>  <original_smiles>  (58) 
[H]c1c([H])c([H])c2c(c1[H])C([H])([H])C([H])([H])C([H])([H])C2([H])N([H])C(=O)C1([H])N(C(=O)C([H])(N([H])C(=O)C([H])(N([H])C([H])([H])[H])C([H])([H])[H])C(C([H])([H])[H])(C([H])([H])[H])C([H])([H])[H])C([H])([H])c2c([H])c(OC([H])([H])C([H])([H])[N+]([H])([H])C([H])([H])C3([H])C([H])([H])N(C(=O)N4C([H])([H])C([H])([H])C([H])([H])C([H])(n5nc(-c6c([H])c([H])c(Oc7c([H])c([H])c(F)c([H])c7F)c([H])c6[H])c(C(=O)N([H])[H])c5N([H])[H])C4([H])[H])C([H])([H])C([H])(C([H])([H])[N+]([H])([H])[H])C3([H])[H])c([H])c([H])c2C1([H])[H]

>  <smiles>  (58) 
[H]c1c([H])c([H])c2c(c1[H])C([H])([H])C([H])([H])C([H])([H])C2([H])N([H])C(=O)C1([H])N(C(=O)C([H])(N([H])C(=O)C([H])(N([H])C([H])([H])[H])C([H])([H])[H])C(C([H])([H])[H])(C([H])([H])[H])C([H])([H])[H])C([H])([H])c2c([H])c(OC([H])([H])C([H])([H])[N+]([H])([H])C([H])([H])C3([H])C([H])([H])N(C(=O)N4C([H])([H])C([H])([H])C([H])([H])C([H])(n5nc(-c6c([H])c([H])c(Oc7c([H])c([H])c(F)c([H])c7F)c([H])c6[H])c(C(=O)N([H])[H])c5N([H])[H])C4([H])[H])C([H])([H])C([H])(C([H])([H])[N+]([H])([H])[H])C3([H])[H])c([H])c([H])c2C1([H])[H]

$$$$
58:0:0
     RDKit          3D

 98107  0  0  1  0  0  0  0  0999 V2000
  -30.0410  -19.8630   19.3760 C   0  0  0  0  0  2  0  0  0  0  0  0
  -30.3760  -17.4310   18.7790 C   0  0  0  0  0  2  0  0  0  0  0  0
  -29.7950  -18.0710   21.1590 C   0  0  0  0  0  2  0  0  0  0  0  0
  -30.8370  -18.8750   18.5110 C   0  0  0  0  0  3  0  0  0  0  0  0
  -30.2120  -19.5520   20.8730 C   0  0  0  0  0  3  0  0  0  0  0  0
  -30.5590  -17.0480   20.2680 C   0  0  0  0  0  3  0  0  0  0  0  0
  -30.8570  -14.5650   20.0750 C   0  0  0  0  0  0  0  0  0  0  0  0
  -30.4740  -12.4180   18.9370 C   0  0  0  0  0  2  0  0  0  0  0  0
  -29.4760  -12.6410   17.7830 C   0  0  0  0  0  2  0  0  0  0  0  0
  -28.0260  -12.5120   18.2880 C   0  0  0  0  0  2  0  0  0  0  0  0
  -27.7590  -13.3400   19.5740 C   0  0  0  0  0  3  0  0  0  0  0  0
  -28.8690  -13.1130   20.6250 C   0  0  0  0  0  2  0  0  0  0  0  0
  -30.1630  -13.3990   19.9880 N   0  0  0  0  0  0  0  0  0  0  0  0
  -31.9860  -14.7030   19.5990 O   0  0  0  0  0  0  0  0  0  0  0  0
  -30.1590  -15.6410   20.5020 N   0  0  0  0  0  0  0  0  0  0  0  0
  -29.2360  -15.4660   20.8710 H   0  0  0  0  0  0  0  0  0  0  0  0
  -25.4070  -13.9530   20.4200 C   0  0  0  0  0  0  0  0  0  0  0  0
  -24.3530  -13.1830   20.8300 C   0  0  0  0  0  0  0  0  0  0  0  0
  -24.7990  -11.8270   20.7460 C   0  0  0  0  0  0  0  0  0  0  0  0
  -26.4310  -13.0670   20.1160 N   0  0  0  0  0  0  0  0  0  0  0  0
  -26.0710  -11.7830   20.3720 N   0  0  0  0  0  0  0  0  0  0  0  0
  -24.0710  -10.5670   20.9490 C   0  0  0  0  0  0  0  0  0  0  0  0
  -24.5130   -9.6000   21.8780 C   0  0  0  0  0  3  0  0  0  0  0  0
  -23.7880   -8.4040   22.0660 C   0  0  0  0  0  3  0  0  0  0  0  0
  -22.6030   -8.1700   21.3280 C   0  0  0  0  0  0  0  0  0  0  0  0
  -22.1810   -9.1250   20.3860 C   0  0  0  0  0  3  0  0  0  0  0  0
  -22.9080  -10.3120   20.1950 C   0  0  0  0  0  3  0  0  0  0  0  0
  -21.8470   -7.0260   21.4260 O   0  0  0  0  0  0  0  0  0  0  0  0
  -21.7800   -6.3070   22.5930 C   0  0  0  0  0  0  0  0  0  0  0  0
  -21.2680   -6.8660   23.7840 C   0  0  0  0  0  3  0  0  0  0  0  0
  -21.1510   -6.0710   24.9420 C   0  0  0  0  0  3  0  0  0  0  0  0
  -21.5360   -4.7170   24.9080 C   0  0  0  0  0  0  0  0  0  0  0  0
  -22.0400   -4.1570   23.7200 C   0  0  0  0  0  3  0  0  0  0  0  0
  -22.1580   -4.9500   22.5650 C   0  0  0  0  0  0  0  0  0  0  0  0
  -22.6240   -4.4000   21.4190 F   0  0  0  0  0  0  0  0  0  0  0  0
  -21.4160   -3.9500   26.0160 F   0  0  0  0  0  0  0  0  0  0  0  0
  -22.9760  -13.6650   21.1840 C   0  0  0  0  0  0  0  0  0  0  0  0
  -22.2840  -12.9480   22.0630 N   0  0  0  0  0  0  0  0  0  0  0  0
  -22.5250  -14.7100   20.7170 O   0  0  0  0  0  0  0  0  0  0  0  0
  -22.6630  -12.1010   22.4600 H   0  0  0  0  0  0  0  0  0  0  0  0
  -21.3620  -13.2520   22.3430 H   0  0  0  0  0  0  0  0  0  0  0  0
  -25.5760  -15.3250   20.2590 N   0  0  0  0  0  0  0  0  0  0  0  0
  -24.8210  -15.9840   20.4160 H   0  0  0  0  0  0  0  0  0  0  0  0
  -26.4060  -15.7600   19.8750 H   0  0  0  0  0  0  0  0  0  0  0  0
  -30.6990  -20.0320   14.3220 C   0  0  0  0  0  3  0  0  0  0  0  0
  -31.8760  -20.2160   15.0710 C   0  0  0  0  0  3  0  0  0  0  0  0
  -29.5620  -19.4670   14.9280 C   0  0  0  0  0  3  0  0  0  0  0  0
  -31.9170  -19.8330   16.4250 C   0  0  0  0  0  3  0  0  0  0  0  0
  -29.6020  -19.0820   16.2830 C   0  0  0  0  0  3  0  0  0  0  0  0
  -30.7810  -19.2610   17.0390 C   0  0  0  0  0  0  0  0  0  0  0  0
  -29.4680  -20.5900   21.7600 C   0  0  0  0  0  2  0  0  0  0  0  0
  -29.9970  -22.0600   21.7220 C   0  0  0  0  0  2  0  0  0  0  0  0
  -29.2350  -22.9670   20.8170 N   0  0  0  0  0  4  0  0  0  0  0  0
  -28.2560  -22.8030   20.9870 H   0  0  0  0  0  0  0  0  0  0  0  0
  -29.4220  -22.7100   19.8590 H   0  0  0  0  0  0  0  0  0  0  0  0
  -29.4940  -24.4330   20.9890 C   0  0  0  0  0  2  0  0  0  0  0  0
  -28.4630  -25.2980   20.2180 C   0  0  0  0  0  2  0  0  0  0  0  0
  -28.5970  -26.7260   20.4140 O   0  0  0  0  0  0  0  0  0  0  0  0
  -24.6260  -31.9010   23.2720 C   0  0  0  0  0  0  0  0  0  0  0  0
  -27.4370  -27.4770   20.3020 C   0  0  0  0  0  0  0  0  0  0  0  0
  -23.5010  -30.4820   21.5890 C   0  0  0  0  0  3  0  0  0  0  0  0
  -25.0270  -28.9750   20.2090 C   0  0  0  0  0  0  0  0  0  0  0  0
  -26.0280  -30.8740   21.4830 C   0  0  0  0  0  2  0  0  0  0  0  0
  -26.1580  -29.5050   20.8440 C   0  0  0  0  0  0  0  0  0  0  0  0
  -27.3640  -28.7650   20.8880 C   0  0  0  0  0  3  0  0  0  0  0  0
  -26.2910  -26.9870   19.6250 C   0  0  0  0  0  3  0  0  0  0  0  0
  -25.0900  -27.7150   19.5950 C   0  0  0  0  0  3  0  0  0  0  0  0
  -23.7700  -29.8140   20.2140 C   0  0  0  0  0  2  0  0  0  0  0  0
  -24.7340  -31.1010   22.1720 N   0  0  0  0  0  0  0  0  0  0  0  0
  -23.5230  -32.1580   23.7720 O   0  0  0  0  0  0  0  0  0  0  0  0
  -22.8340  -29.4470   22.5230 C   0  0  0  0  0  0  0  0  0  0  0  0
  -21.5130  -29.2630   22.3660 N   0  0  0  0  0  0  0  0  0  0  0  0
  -23.5010  -28.8150   23.3470 O   0  0  0  0  0  0  0  0  0  0  0  0
  -21.0380  -29.8260   21.6750 H   0  0  0  0  0  0  0  0  0  0  0  0
  -18.1200  -28.0980   22.8180 C   0  0  0  0  0  0  0  0  0  0  0  0
  -20.6800  -28.3160   23.1080 C   0  0  0  0  0  3  0  0  0  0  0  0
  -20.7680  -26.8980   22.4970 C   0  0  0  0  0  2  0  0  0  0  0  0
  -19.6660  -26.6170   21.4700 C   0  0  0  0  0  2  0  0  0  0  0  0
  -18.2830  -26.7620   22.1100 C   0  0  0  0  0  2  0  0  0  0  0  0
  -19.2470  -28.8330   23.2710 C   0  0  0  0  0  0  0  0  0  0  0  0
  -19.0430  -30.0850   23.8920 C   0  0  0  0  0  3  0  0  0  0  0  0
  -17.7440  -30.6010   24.0650 C   0  0  0  0  0  3  0  0  0  0  0  0
  -16.6320  -29.8600   23.6290 C   0  0  0  0  0  3  0  0  0  0  0  0
  -16.8200  -28.6110   23.0110 C   0  0  0  0  0  3  0  0  0  0  0  0
  -25.8800  -32.5510   23.9350 C   0  0  0  0  0  3  0  0  0  0  0  0
  -25.5500  -33.9510   24.2290 N   0  0  0  0  0  0  0  0  0  0  0  0
  -25.8930  -34.9920   23.4570 C   0  0  0  0  0  0  0  0  0  0  0  0
  -26.5950  -34.8740   22.4480 O   0  0  0  0  0  0  0  0  0  0  0  0
  -24.9330  -34.1170   25.0100 H   0  0  0  0  0  0  0  0  0  0  0  0
  -24.1650  -36.7600   23.0010 C   0  0  0  0  0  1  0  0  0  0  0  0
  -25.3770  -36.3820   23.8680 C   0  0  0  0  0  3  0  0  0  0  0  0
  -27.4610  -37.3100   24.7770 C   0  0  0  0  0  1  0  0  0  0  0  0
  -26.4050  -37.4420   23.7760 N   0  0  0  0  0  0  0  0  0  0  0  0
  -25.9830  -38.3610   23.8840 H   0  0  0  0  0  0  0  0  0  0  0  0
  -26.3490  -31.8020   25.2440 C   0  0  1  0  0  0  0  0  0  0  0  0
  -25.2120  -31.5640   26.2650 C   0  0  0  0  0  1  0  0  0  0  0  0
  -26.9660  -30.4280   24.8930 C   0  0  0  0  0  1  0  0  0  0  0  0
  -27.4580  -32.6190   25.9470 C   0  0  0  0  0  1  0  0  0  0  0  0
  1  5  1  0
  2  6  1  0
  4 50  1  0
  4  2  1  0
  4  1  1  0
  5  3  1  0
  5 51  1  0
  6 15  1  0
  6  3  1  0
  7 15  1  0
  8 13  1  0
  9 10  1  0
  9  8  1  0
 11 10  1  0
 11 20  1  0
 11 12  1  0
 13  7  1  0
 13 12  1  0
 14  7  2  0
 15 16  1  0
 17 18  2  0
 18 37  1  0
 19 18  1  0
 19 22  1  0
 20 21  1  0
 20 17  1  0
 21 19  2  0
 22 23  1  0
 23 24  2  0
 25 28  1  0
 25 24  1  0
 26 25  2  0
 27 26  1  0
 27 22  2  0
 28 29  1  0
 29 30  1  0
 30 31  2  0
 32 31  1  0
 32 36  1  0
 33 32  2  0
 34 29  2  0
 34 33  1  0
 35 34  1  0
 37 38  1  0
 38 41  1  0
 38 40  1  0
 39 37  2  0
 42 43  1  0
 42 17  1  0
 44 42  1  0
 45 47  2  0
 45 46  1  0
 46 48  2  0
 47 49  1  0
 48 50  1  0
 49 50  2  0
 52 51  1  0
 53 54  1  0
 53 56  1  0
 53 52  1  0
 55 53  1  0
 57 58  1  0
 57 56  1  0
 59 70  2  0
 60 58  1  0
 60 65  1  0
 61 69  1  0
 61 71  1  0
 62 68  1  0
 62 64  1  0
 63 69  1  0
 64 65  2  0
 64 63  1  0
 66 60  2  0
 67 66  1  0
 67 62  2  0
 68 61  1  0
 69 59  1  0
 71 73  2  0
 72 71  1  0
 74 72  1  0
 75 84  2  0
 75 80  1  0
 76 72  1  0
 76 80  1  0
 77 76  1  0
 78 79  1  0
 78 77  1  0
 79 75  1  0
 80 81  2  0
 81 82  1  0
 83 82  2  0
 84 83  1  0
 85 59  1  0
 85 86  1  0
 85 95  1  0
 86 89  1  0
 87 91  1  0
 87 86  1  0
 88 87  2  0
 91 90  1  0
 93 91  1  0
 93 94  1  0
 93 92  1  0
 95 98  1  1
 95 96  1  0
 97 95  1  0
M  ISO  4   7 100  15 100  57 101  58 101
M  END
>  <TORSDO>  (59) 
F 22

>  <SCORE>  (59) 
-13.152

>  <name>  (59) 
58

>  <ligand_id>  (59) 
58

>  <original_smiles>  (59) 
[H]c1c([H])c([H])c(C2([H])C([H])([H])C([H])(N([H])C(=O)N3C([H])([H])C([H])([H])C([H])([H])C([H])(n4nc(-c5c([H])c([H])c(Oc6c([H])c([H])c(F)c([H])c6F)c([H])c5[H])c(C(=O)N([H])[H])c4N([H])[H])C3([H])[H])C([H])([H])C([H])(C([H])([H])C([H])([H])[N+]([H])([H])C([H])([H])C([H])([H])Oc3c([H])c([H])c4c(c3[H])C([H])([H])N(C(=O)C([H])(N([H])C(=O)C([H])(N([H])C([H])([H])[H])C([H])([H])[H])C(C([H])([H])[H])(C([H])([H])[H])C([H])([H])[H])C([H])(C(=O)N([H])C3([H])c5c([H])c([H])c([H])c([H])c5C([H])([H])C([H])([H])C3([H])[H])C4([H])[H])C2([H])[H])c([H])c1[H]

>  <smiles>  (59) 
[H]c1c([H])c([H])c(C2([H])C([H])([H])C([H])(N([H])C(=O)N3C([H])([H])C([H])([H])C([H])([H])C([H])(n4nc(-c5c([H])c([H])c(Oc6c([H])c([H])c(F)c([H])c6F)c([H])c5[H])c(C(=O)N([H])[H])c4N([H])[H])C3([H])[H])C([H])([H])C([H])(C([H])([H])C([H])([H])[N+]([H])([H])C([H])([H])C([H])([H])Oc3c([H])c([H])c4c(c3[H])C([H])([H])N(C(=O)C([H])(N([H])C(=O)C([H])(N([H])C([H])([H])[H])C([H])([H])[H])C(C([H])([H])[H])(C([H])([H])[H])C([H])([H])[H])C([H])(C(=O)N([H])C3([H])c5c([H])c([H])c([H])c([H])c5C([H])([H])C([H])([H])C3([H])[H])C4([H])[H])C2([H])[H])c([H])c1[H]

$$$$
60:0:0
     RDKit          3D

 87 95  0  0  1  0  0  0  0  0999 V2000
  -29.3360  -19.9890   20.4800 C   0  0  0  0  0  0  0  0  0  0  0  0
  -29.5820  -19.1540   18.3120 C   0  0  0  0  0  2  0  0  0  0  0  0
  -29.4830  -20.7560   18.3930 C   0  0  0  0  0  2  0  0  0  0  0  0
  -29.8950  -18.5710   19.7120 C   0  0  0  0  0  3  0  0  0  0  0  0
  -29.1390  -21.2420   19.7530 N   0  0  0  0  0  0  0  0  0  0  0  0
  -29.1670  -19.9460   21.7010 O   0  0  0  0  0  0  0  0  0  0  0  0
  -30.5280  -15.6200   19.7910 C   0  0  0  0  0  0  0  0  0  0  0  0
  -30.5060  -13.1450   18.9610 C   0  0  0  0  0  2  0  0  0  0  0  0
  -29.5260  -12.8860   17.7870 C   0  0  0  0  0  2  0  0  0  0  0  0
  -28.1110  -12.5920   18.3130 C   0  0  0  0  0  2  0  0  0  0  0  0
  -27.7040  -13.5670   19.4450 C   0  0  0  0  0  3  0  0  0  0  0  0
  -28.8080  -13.7650   20.5070 C   0  0  0  0  0  2  0  0  0  0  0  0
  -29.9870  -14.2950   19.7980 N   0  0  0  0  0  0  0  0  0  0  0  0
  -31.7270  -15.6230   19.4730 O   0  0  0  0  0  0  0  0  0  0  0  0
  -29.7540  -16.8930   19.9420 N   0  0  0  0  0  0  0  0  0  0  0  0
  -28.8120  -16.6710   20.2240 H   0  0  0  0  0  0  0  0  0  0  0  0
  -25.3930  -14.1030   20.3710 C   0  0  0  0  0  0  0  0  0  0  0  0
  -24.3560  -13.3180   20.7900 C   0  0  0  0  0  0  0  0  0  0  0  0
  -24.8170  -11.9680   20.6940 C   0  0  0  0  0  0  0  0  0  0  0  0
  -26.4140  -13.2350   20.0340 N   0  0  0  0  0  0  0  0  0  0  0  0
  -26.0850  -11.9410   20.2960 N   0  0  0  0  0  0  0  0  0  0  0  0
  -24.0990  -10.7030   20.8990 C   0  0  0  0  0  0  0  0  0  0  0  0
  -24.5380   -9.7470   21.8420 C   0  0  0  0  0  3  0  0  0  0  0  0
  -23.8170   -8.5490   22.0350 C   0  0  0  0  0  3  0  0  0  0  0  0
  -22.6430   -8.2980   21.2860 C   0  0  0  0  0  0  0  0  0  0  0  0
  -22.2240   -9.2420   20.3320 C   0  0  0  0  0  3  0  0  0  0  0  0
  -22.9460  -10.4310   20.1370 C   0  0  0  0  0  3  0  0  0  0  0  0
  -21.8930   -7.1500   21.3880 O   0  0  0  0  0  0  0  0  0  0  0  0
  -21.7890   -6.4620   22.5700 C   0  0  0  0  0  0  0  0  0  0  0  0
  -21.1810   -7.0280   23.7120 C   0  0  0  0  0  3  0  0  0  0  0  0
  -21.0320   -6.2600   24.8840 C   0  0  0  0  0  3  0  0  0  0  0  0
  -21.4830   -4.9270   24.9150 C   0  0  0  0  0  0  0  0  0  0  0  0
  -22.0850   -4.3600   23.7780 C   0  0  0  0  0  3  0  0  0  0  0  0
  -22.2350   -5.1250   22.6080 C   0  0  0  0  0  0  0  0  0  0  0  0
  -22.7970   -4.5670   21.5080 F   0  0  0  0  0  0  0  0  0  0  0  0
  -21.3340   -4.1870   26.0390 F   0  0  0  0  0  0  0  0  0  0  0  0
  -22.9810  -13.7900   21.1600 C   0  0  0  0  0  0  0  0  0  0  0  0
  -22.3180  -13.0920   22.0740 N   0  0  0  0  0  0  0  0  0  0  0  0
  -22.5070  -14.8160   20.6730 O   0  0  0  0  0  0  0  0  0  0  0  0
  -22.7170  -12.2630   22.4890 H   0  0  0  0  0  0  0  0  0  0  0  0
  -21.3980  -13.3920   22.3640 H   0  0  0  0  0  0  0  0  0  0  0  0
  -25.5440  -15.4790   20.2160 N   0  0  0  0  0  0  0  0  0  0  0  0
  -24.7770  -16.1220   20.3830 H   0  0  0  0  0  0  0  0  0  0  0  0
  -26.3460  -15.9230   19.7920 H   0  0  0  0  0  0  0  0  0  0  0  0
  -29.1200  -22.9030   20.1320 C   0  0  0  0  0  3  0  0  0  0  0  0
  -28.1240  -24.3950   19.7540 C   0  0  0  0  0  3  0  0  0  0  0  0
  -28.2660  -26.0350   20.0700 O   0  0  0  0  0  0  0  0  0  0  0  0
  -24.6900  -31.9360   23.2290 C   0  0  0  0  0  0  0  0  0  0  0  0
  -27.2410  -27.1370   20.0360 C   0  0  0  0  0  0  0  0  0  0  0  0
  -23.4790  -30.5630   21.5850 C   0  0  0  0  0  3  0  0  0  0  0  0
  -24.9170  -29.0080   20.0870 C   0  0  0  0  0  0  0  0  0  0  0  0
  -26.0400  -30.8040   21.3870 C   0  0  0  0  0  2  0  0  0  0  0  0
  -26.1140  -29.4080   20.6930 C   0  0  0  0  0  0  0  0  0  0  0  0
  -27.2660  -28.4950   20.6420 C   0  0  0  0  0  3  0  0  0  0  0  0
  -26.0100  -26.8990   19.3820 C   0  0  0  0  0  3  0  0  0  0  0  0
  -24.8920  -27.7770   19.4100 C   0  0  0  0  0  3  0  0  0  0  0  0
  -23.6880  -29.9130   20.1870 C   0  0  0  0  0  2  0  0  0  0  0  0
  -24.7600  -31.1280   22.1200 N   0  0  0  0  0  0  0  0  0  0  0  0
  -23.6090  -32.1980   23.7810 O   0  0  0  0  0  0  0  0  0  0  0  0
  -22.8190  -29.5370   22.5420 C   0  0  0  0  0  0  0  0  0  0  0  0
  -21.4950  -29.3260   22.4160 N   0  0  0  0  0  0  0  0  0  0  0  0
  -23.5050  -28.9310   23.3690 O   0  0  0  0  0  0  0  0  0  0  0  0
  -20.9920  -29.8680   21.7280 H   0  0  0  0  0  0  0  0  0  0  0  0
  -18.1600  -27.9840   22.9140 C   0  0  0  0  0  0  0  0  0  0  0  0
  -20.7080  -28.3510   23.1800 C   0  0  0  0  0  3  0  0  0  0  0  0
  -20.8650  -26.9280   22.5940 C   0  0  0  0  0  2  0  0  0  0  0  0
  -19.7770  -26.5690   21.5760 C   0  0  0  0  0  2  0  0  0  0  0  0
  -18.3910  -26.6510   22.2220 C   0  0  0  0  0  2  0  0  0  0  0  0
  -19.2470  -28.7890   23.3490 C   0  0  0  0  0  0  0  0  0  0  0  0
  -18.9740  -30.0320   23.9600 C   0  0  0  0  0  3  0  0  0  0  0  0
  -17.6490  -30.4730   24.1380 C   0  0  0  0  0  3  0  0  0  0  0  0
  -16.5780  -29.6670   23.7160 C   0  0  0  0  0  3  0  0  0  0  0  0
  -16.8340  -28.4240   23.1110 C   0  0  0  0  0  3  0  0  0  0  0  0
  -25.9650  -32.5830   23.8490 C   0  0  0  0  0  3  0  0  0  0  0  0
  -25.6530  -33.9880   24.1690 N   0  0  0  0  0  0  0  0  0  0  0  0
  -25.9590  -35.0390   23.3960 C   0  0  0  0  0  0  0  0  0  0  0  0
  -26.5960  -34.9270   22.3450 O   0  0  0  0  0  0  0  0  0  0  0  0
  -25.0830  -34.1470   24.9850 H   0  0  0  0  0  0  0  0  0  0  0  0
  -24.2250  -36.8400   23.0830 C   0  0  0  0  0  1  0  0  0  0  0  0
  -25.4900  -36.4330   23.8580 C   0  0  0  0  0  3  0  0  0  0  0  0
  -27.6330  -37.3430   24.6430 C   0  0  0  0  0  1  0  0  0  0  0  0
  -26.5200  -37.4850   23.7080 N   0  0  0  0  0  0  0  0  0  0  0  0
  -26.1140  -38.4080   23.8350 H   0  0  0  0  0  0  0  0  0  0  0  0
  -26.4710  -31.8350   25.1450 C   0  0  1  0  0  0  0  0  0  0  0  0
  -25.3670  -31.6030   26.2040 C   0  0  0  0  0  1  0  0  0  0  0  0
  -27.0720  -30.4560   24.7900 C   0  0  0  0  0  1  0  0  0  0  0  0
  -27.6070  -32.6480   25.8100 C   0  0  0  0  0  1  0  0  0  0  0  0
  1  6  2  0
  2  3  1  0
  2  4  1  0
  3  5  1  0
  4 15  1  0
  4  1  1  0
  5 45  1  0
  5  1  1  0
  7 13  1  0
  7 15  1  0
  8 13  1  0
  9 10  1  0
  9  8  1  0
 11 10  1  0
 11 20  1  0
 11 12  1  0
 13 12  1  0
 14  7  2  0
 15 16  1  0
 17 18  2  0
 18 37  1  0
 19 18  1  0
 19 22  1  0
 20 21  1  0
 20 17  1  0
 21 19  2  0
 22 23  1  0
 23 24  2  0
 25 28  1  0
 25 24  1  0
 26 25  2  0
 27 26  1  0
 27 22  2  0
 28 29  1  0
 29 34  2  0
 29 30  1  0
 30 31  2  0
 31 32  1  0
 32 36  1  0
 33 32  2  0
 34 33  1  0
 35 34  1  0
 37 38  1  0
 38 41  1  0
 38 40  1  0
 39 37  2  0
 42 17  1  0
 42 43  1  0
 44 42  1  0
 46 47  1  0
 46 45  2  0
 48 59  2  0
 49 47  1  0
 49 54  1  0
 50 58  1  0
 50 60  1  0
 51 57  1  0
 51 53  1  0
 52 58  1  0
 53 52  1  0
 54 53  2  0
 55 56  1  0
 55 49  2  0
 56 51  2  0
 57 50  1  0
 58 48  1  0
 60 62  2  0
 61 60  1  0
 63 61  1  0
 64 73  2  0
 64 69  1  0
 65 61  1  0
 65 69  1  0
 66 65  1  0
 67 68  1  0
 67 66  1  0
 68 64  1  0
 69 70  2  0
 70 71  1  0
 72 71  2  0
 73 72  1  0
 74 48  1  0
 74 75  1  0
 74 84  1  0
 75 78  1  0
 76 80  1  0
 76 75  1  0
 77 76  2  0
 80 79  1  0
 82 83  1  0
 82 80  1  0
 82 81  1  0
 84 87  1  1
 84 85  1  0
 86 84  1  0
M  ISO  4   7 100  15 100  46 101  47 101
M  END
>  <TORSDO>  (60) 
F 18

>  <SCORE>  (60) 
-15.794

>  <name>  (60) 
60

>  <ligand_id>  (60) 
60

>  <original_smiles>  (60) 
[H]c1c([H])c([H])c2c(c1[H])C([H])([H])C([H])([H])C([H])([H])C2([H])N([H])C(=O)C1([H])N(C(=O)C([H])(N([H])C(=O)C([H])(N([H])C([H])([H])[H])C([H])([H])[H])C(C([H])([H])[H])(C([H])([H])[H])C([H])([H])[H])C([H])([H])c2c([H])c(OC([H])([H])C([H])([H])N3C(=O)C([H])(N([H])C(=O)N4C([H])([H])C([H])([H])C([H])([H])C([H])(n5nc(-c6c([H])c([H])c(Oc7c([H])c([H])c(F)c([H])c7F)c([H])c6[H])c(C(=O)N([H])[H])c5N([H])[H])C4([H])[H])C([H])([H])C3([H])[H])c([H])c([H])c2C1([H])[H]

>  <smiles>  (60) 
[H]c1c([H])c([H])c2c(c1[H])C([H])([H])C([H])([H])C([H])([H])C2([H])N([H])C(=O)C1([H])N(C(=O)C([H])(N([H])C(=O)C([H])(N([H])C([H])([H])[H])C([H])([H])[H])C(C([H])([H])[H])(C([H])([H])[H])C([H])([H])[H])C([H])([H])c2c([H])c(OC([H])([H])C([H])([H])N3C(=O)C([H])(N([H])C(=O)N4C([H])([H])C([H])([H])C([H])([H])C([H])(n5nc(-c6c([H])c([H])c(Oc7c([H])c([H])c(F)c([H])c7F)c([H])c6[H])c(C(=O)N([H])[H])c5N([H])[H])C4([H])[H])C([H])([H])C3([H])[H])c([H])c([H])c2C1([H])[H]

$$$$
61:0:0
     RDKit          3D

 96105  0  0  1  0  0  0  0  0999 V2000
  -28.4360  -19.3720   20.3190 C   0  0  0  0  0  3  0  0  0  0  0  0
  -28.6680  -20.1910   19.2090 C   0  0  0  0  0  3  0  0  0  0  0  0
  -30.4130  -18.6500   18.4500 C   0  0  0  0  0  3  0  0  0  0  0  0
  -29.2060  -18.2110   20.5210 C   0  0  0  0  0  0  0  0  0  0  0  0
  -30.1630  -17.7810   19.5640 C   0  0  0  0  0  0  0  0  0  0  0  0
  -29.6930  -19.8850   18.2830 C   0  0  0  0  0  0  0  0  0  0  0  0
  -31.9230  -16.7320   21.0950 C   0  0  0  0  0  3  0  0  0  0  0  0
  -29.1370  -17.5130   21.8720 C   0  0  0  0  0  2  0  0  0  0  0  0
  -30.4180  -17.8450   22.6720 C   0  0  0  0  0  2  0  0  0  0  0  0
  -30.9500  -16.4710   19.9300 C   0  0  0  0  0  3  0  0  0  0  0  0
  -31.6910  -17.2570   22.2370 N   0  0  0  0  0  0  0  0  0  0  0  0
  -32.1870  -14.4360   18.8950 C   0  0  0  0  0  0  0  0  0  0  0  0
  -31.6480  -12.1010   18.3000 C   0  0  0  0  0  2  0  0  0  0  0  0
  -30.5040  -12.0880   17.2640 C   0  0  0  0  0  2  0  0  0  0  0  0
  -29.1320  -12.0990   17.9670 C   0  0  0  0  0  2  0  0  0  0  0  0
  -29.0450  -13.1600   19.0990 C   0  0  0  0  0  3  0  0  0  0  0  0
  -30.2940  -13.1180   20.0070 C   0  0  0  0  0  2  0  0  0  0  0  0
  -31.4560  -13.3020   19.1320 N   0  0  0  0  0  0  0  0  0  0  0  0
  -33.2680  -14.3690   18.3200 O   0  0  0  0  0  0  0  0  0  0  0  0
  -31.5740  -15.6570   18.8590 N   0  0  0  0  0  0  0  0  0  0  0  0
  -32.0540  -16.2440   18.1960 H   0  0  0  0  0  0  0  0  0  0  0  0
  -27.0850  -14.0230   20.5180 C   0  0  0  0  0  0  0  0  0  0  0  0
  -25.9720  -13.4070   21.0150 C   0  0  0  0  0  0  0  0  0  0  0  0
  -26.0680  -12.0340   20.6240 C   0  0  0  0  0  0  0  0  0  0  0  0
  -27.8080  -13.0360   19.8660 N   0  0  0  0  0  0  0  0  0  0  0  0
  -27.2150  -11.8190   19.9880 N   0  0  0  0  0  0  0  0  0  0  0  0
  -25.1120  -10.9290   20.7660 C   0  0  0  0  0  0  0  0  0  0  0  0
  -25.3820   -9.8220   21.6020 C   0  0  0  0  0  3  0  0  0  0  0  0
  -24.4410   -8.7800   21.7400 C   0  0  0  0  0  3  0  0  0  0  0  0
  -23.2110   -8.8360   21.0410 C   0  0  0  0  0  0  0  0  0  0  0  0
  -22.9550   -9.9280   20.1920 C   0  0  0  0  0  3  0  0  0  0  0  0
  -23.8960  -10.9620   20.0510 C   0  0  0  0  0  3  0  0  0  0  0  0
  -22.2490   -7.8570   21.0910 O   0  0  0  0  0  0  0  0  0  0  0  0
  -21.9550   -7.1970   22.2580 C   0  0  0  0  0  0  0  0  0  0  0  0
  -21.5040   -7.8790   23.4090 C   0  0  0  0  0  3  0  0  0  0  0  0
  -21.1500   -7.1530   24.5630 C   0  0  0  0  0  3  0  0  0  0  0  0
  -21.2350   -5.7490   24.5690 C   0  0  0  0  0  0  0  0  0  0  0  0
  -21.6790   -5.0670   23.4220 C   0  0  0  0  0  3  0  0  0  0  0  0
  -22.0360   -5.7890   22.2690 C   0  0  0  0  0  0  0  0  0  0  0  0
  -22.4430   -5.1260   21.1610 F   0  0  0  0  0  0  0  0  0  0  0  0
  -20.8840   -5.0520   25.6740 F   0  0  0  0  0  0  0  0  0  0  0  0
  -24.8250  -14.0650   21.7320 C   0  0  0  0  0  0  0  0  0  0  0  0
  -24.1920  -13.3610   22.6610 N   0  0  0  0  0  0  0  0  0  0  0  0
  -24.5110  -15.2330   21.4980 O   0  0  0  0  0  0  0  0  0  0  0  0
  -24.4590  -12.4110   22.8790 H   0  0  0  0  0  0  0  0  0  0  0  0
  -23.4350  -13.7840   23.1800 H   0  0  0  0  0  0  0  0  0  0  0  0
  -27.5400  -15.3400   20.5390 N   0  0  0  0  0  0  0  0  0  0  0  0
  -26.9800  -16.1040   20.9060 H   0  0  0  0  0  0  0  0  0  0  0  0
  -28.3500  -15.6510   20.0130 H   0  0  0  0  0  0  0  0  0  0  0  0
  -30.0590  -20.9410   17.2010 C   0  0  0  0  0  2  0  0  0  0  0  0
  -29.1740  -22.1490   17.2030 N   0  0  0  0  0  4  0  0  0  0  0  0
  -28.7350  -22.1180   18.1080 H   0  0  0  0  0  0  0  0  0  0  0  0
  -28.4420  -22.0070   16.5210 H   0  0  0  0  0  0  0  0  0  0  0  0
  -29.7550  -23.5360   17.0230 C   0  0  0  0  0  2  0  0  0  0  0  0
  -28.6580  -24.6250   17.2930 C   0  0  0  0  0  2  0  0  0  0  0  0
  -28.9850  -25.9580   17.8010 O   0  0  0  0  0  0  0  0  0  0  0  0
  -26.2500  -29.3130   23.5460 C   0  0  0  0  0  0  0  0  0  0  0  0
  -27.9210  -26.6830   18.3540 C   0  0  0  0  0  0  0  0  0  0  0  0
  -24.6640  -28.8210   21.7140 C   0  0  0  0  0  3  0  0  0  0  0  0
  -25.7190  -28.0770   19.5180 C   0  0  0  0  0  0  0  0  0  0  0  0
  -27.1590  -29.1780   21.2300 C   0  0  0  0  0  2  0  0  0  0  0  0
  -27.0130  -28.2580   20.0290 C   0  0  0  0  0  0  0  0  0  0  0  0
  -28.1160  -27.5770   19.4440 C   0  0  0  0  0  3  0  0  0  0  0  0
  -26.6000  -26.5500   17.8570 C   0  0  0  0  0  3  0  0  0  0  0  0
  -25.5110  -27.2190   18.4310 C   0  0  0  0  0  3  0  0  0  0  0  0
  -24.5930  -28.8450   20.1710 C   0  0  0  0  0  2  0  0  0  0  0  0
  -26.0510  -29.0890   22.2150 N   0  0  0  0  0  0  0  0  0  0  0  0
  -25.2990  -29.3360   24.3410 O   0  0  0  0  0  0  0  0  0  0  0  0
  -24.0720  -27.4870   22.2190 C   0  0  0  0  0  0  0  0  0  0  0  0
  -22.7920  -27.2350   21.9020 N   0  0  0  0  0  0  0  0  0  0  0  0
  -24.7610  -26.6910   22.8630 O   0  0  0  0  0  0  0  0  0  0  0  0
  -22.2880  -27.9240   21.3620 H   0  0  0  0  0  0  0  0  0  0  0  0
  -19.6810  -25.4890   21.3490 C   0  0  0  0  0  0  0  0  0  0  0  0
  -22.0330  -26.0420   22.2720 C   0  0  0  0  0  3  0  0  0  0  0  0
  -22.5220  -24.7940   21.4910 C   0  0  0  0  0  2  0  0  0  0  0  0
  -21.7220  -24.5280   20.2120 C   0  0  0  0  0  2  0  0  0  0  0  0
  -20.2390  -24.3380   20.5340 C   0  0  0  0  0  2  0  0  0  0  0  0
  -20.5230  -26.2880   22.1710 C   0  0  0  0  0  0  0  0  0  0  0  0
  -19.9470  -27.3400   22.9130 C   0  0  0  0  0  3  0  0  0  0  0  0
  -18.5650  -27.6010   22.8530 C   0  0  0  0  0  3  0  0  0  0  0  0
  -17.7390  -26.8040   22.0420 C   0  0  0  0  0  3  0  0  0  0  0  0
  -18.2940  -25.7500   21.2950 C   0  0  0  0  0  3  0  0  0  0  0  0
  -27.6710  -29.5720   24.1260 C   0  0  0  0  0  3  0  0  0  0  0  0
  -28.2760  -28.3220   24.8770 C   0  0  1  0  0  0  0  0  0  0  0  0
  -27.3210  -27.7220   25.9350 C   0  0  0  0  0  1  0  0  0  0  0  0
  -28.6510  -27.1980   23.8770 C   0  0  0  0  0  1  0  0  0  0  0  0
  -29.5790  -28.7250   25.6070 C   0  0  0  0  0  1  0  0  0  0  0  0
  -27.5840  -30.7310   25.0250 N   0  0  0  0  0  0  0  0  0  0  0  0
  -28.0060  -31.9650   24.7220 C   0  0  0  0  0  0  0  0  0  0  0  0
  -28.5800  -32.2390   23.6630 O   0  0  0  0  0  0  0  0  0  0  0  0
  -27.0800  -30.5950   25.8900 H   0  0  0  0  0  0  0  0  0  0  0  0
  -26.5420  -33.9260   25.3060 C   0  0  0  0  0  1  0  0  0  0  0  0
  -27.7400  -33.0740   25.7530 C   0  0  0  0  0  3  0  0  0  0  0  0
  -30.0070  -33.2810   26.6730 C   0  0  0  0  0  1  0  0  0  0  0  0
  -28.9050  -33.9480   25.9880 N   0  0  0  0  0  0  0  0  0  0  0  0
  -28.6360  -34.7610   26.5370 H   0  0  0  0  0  0  0  0  0  0  0  0
  1  4  1  0
  2  1  2  0
  3  5  1  0
  4  8  1  0
  5 10  1  0
  5  4  2  0
  6  3  2  0
  6  2  1  0
  7 11  2  0
  8  9  1  0
 10 20  1  0
 10  7  1  0
 11  9  1  0
 12 18  1  0
 13 18  1  0
 14 15  1  0
 14 13  1  0
 16 15  1  0
 16 25  1  0
 16 17  1  0
 18 17  1  0
 19 12  2  0
 20 12  1  0
 21 20  1  0
 22 47  1  0
 22 23  2  0
 23 42  1  0
 24 27  1  0
 24 23  1  0
 25 26  1  0
 25 22  1  0
 26 24  2  0
 27 28  1  0
 28 29  2  0
 30 33  1  0
 30 29  1  0
 31 30  2  0
 32 31  1  0
 32 27  2  0
 33 34  1  0
 34 39  2  0
 34 35  1  0
 35 36  2  0
 36 37  1  0
 37 41  1  0
 38 37  2  0
 39 38  1  0
 40 39  1  0
 42 43  1  0
 43 45  1  0
 43 46  1  0
 44 42  2  0
 47 48  1  0
 49 47  1  0
 50 51  1  0
 50  6  1  0
 51 52  1  0
 53 51  1  0
 54 51  1  0
 54 55  1  0
 55 56  1  0
 56 58  1  0
 57 68  2  0
 58 63  1  0
 59 67  1  0
 59 69  1  0
 60 62  1  0
 60 66  1  0
 61 67  1  0
 62 61  1  0
 63 62  2  0
 64 58  2  0
 64 65  1  0
 65 60  2  0
 66 59  1  0
 67 57  1  0
 69 71  2  0
 70 69  1  0
 72 70  1  0
 73 78  1  0
 74 70  1  0
 75 74  1  0
 76 77  1  0
 76 75  1  0
 77 73  1  0
 78 74  1  0
 78 79  2  0
 80 79  1  0
 81 80  2  0
 82 73  2  0
 82 81  1  0
 83 57  1  0
 83 84  1  0
 83 88  1  0
 84 87  1  1
 84 85  1  0
 86 84  1  0
 88 91  1  0
 89 88  1  0
 89 93  1  0
 90 89  2  0
 93 92  1  0
 93 95  1  0
 95 96  1  0
 95 94  1  0
M  ISO  4  12 100  20 100  55 101  56 101
M  END
>  <TORSDO>  (61) 
F 20

>  <SCORE>  (61) 
-6.608

>  <name>  (61) 
61

>  <ligand_id>  (61) 
61

>  <original_smiles>  (61) 
[H]C1=NC([H])([H])C([H])([H])c2c([H])c([H])c(C([H])([H])[N+]([H])([H])C([H])([H])C([H])([H])Oc3c([H])c([H])c4c(c3[H])C([H])([H])N(C(=O)C([H])(N([H])C(=O)C([H])(N([H])C([H])([H])[H])C([H])([H])[H])C(C([H])([H])[H])(C([H])([H])[H])C([H])([H])[H])C([H])(C(=O)N([H])C3([H])c5c([H])c([H])c([H])c([H])c5C([H])([H])C([H])([H])C3([H])[H])C4([H])[H])c([H])c2C1([H])N([H])C(=O)N1C([H])([H])C([H])([H])C([H])([H])C([H])(n2nc(-c3c([H])c([H])c(Oc4c([H])c([H])c(F)c([H])c4F)c([H])c3[H])c(C(=O)N([H])[H])c2N([H])[H])C1([H])[H]

>  <smiles>  (61) 
[H]C1=NC([H])([H])C([H])([H])c2c([H])c([H])c(C([H])([H])[N+]([H])([H])C([H])([H])C([H])([H])Oc3c([H])c([H])c4c(c3[H])C([H])([H])N(C(=O)C([H])(N([H])C(=O)C([H])(N([H])C([H])([H])[H])C([H])([H])[H])C(C([H])([H])[H])(C([H])([H])[H])C([H])([H])[H])C([H])(C(=O)N([H])C3([H])c5c([H])c([H])c([H])c([H])c5C([H])([H])C([H])([H])C3([H])[H])C4([H])[H])c([H])c2C1([H])N([H])C(=O)N1C([H])([H])C([H])([H])C([H])([H])C([H])(n2nc(-c3c([H])c([H])c(Oc4c([H])c([H])c(F)c([H])c4F)c([H])c3[H])c(C(=O)N([H])[H])c2N([H])[H])C1([H])[H]

$$$$
62:0:0
     RDKit          3D

 96104  0  0  1  0  0  0  0  0999 V2000
  -30.5710  -19.2820   23.7540 C   0  0  0  0  0  3  0  0  0  0  0  0
  -30.8020  -17.9150   23.7200 C   0  0  0  0  0  3  0  0  0  0  0  0
  -30.4370  -19.9880   22.5560 C   0  0  0  0  0  3  0  0  0  0  0  0
  -30.8770  -17.2580   22.4890 C   0  0  0  0  0  3  0  0  0  0  0  0
  -30.4860  -19.4140   21.2510 C   0  0  0  0  0  0  0  0  0  0  0  0
  -30.7350  -17.8800   21.2120 C   0  0  0  0  0  0  0  0  0  0  0  0
  -31.4460  -15.4310   20.2420 C   0  0  0  0  0  0  0  0  0  0  0  0
  -31.1950  -13.0800   19.2890 C   0  0  0  0  0  2  0  0  0  0  0  0
  -30.2710  -13.0290   18.0530 C   0  0  0  0  0  2  0  0  0  0  0  0
  -28.8060  -12.8550   18.4880 C   0  0  0  0  0  2  0  0  0  0  0  0
  -28.4170  -13.8100   19.6470 C   0  0  0  0  0  3  0  0  0  0  0  0
  -29.4710  -13.8370   20.7720 C   0  0  0  0  0  2  0  0  0  0  0  0
  -30.7460  -14.2190   20.1470 N   0  0  0  0  0  0  0  0  0  0  0  0
  -32.6650  -15.3490   20.0500 O   0  0  0  0  0  0  0  0  0  0  0  0
  -30.8170  -16.7460   20.1590 N   0  0  0  0  0  0  0  0  0  0  0  0
  -26.0800  -14.4760   20.4310 C   0  0  0  0  0  0  0  0  0  0  0  0
  -24.9760  -13.7440   20.7720 C   0  0  0  0  0  0  0  0  0  0  0  0
  -25.3690  -12.3730   20.6810 C   0  0  0  0  0  0  0  0  0  0  0  0
  -27.0720  -13.5550   20.1490 N   0  0  0  0  0  0  0  0  0  0  0  0
  -26.6560  -12.2810   20.3660 N   0  0  0  0  0  0  0  0  0  0  0  0
  -24.5770  -11.1450   20.8200 C   0  0  0  0  0  0  0  0  0  0  0  0
  -24.9380  -10.1350   21.7380 C   0  0  0  0  0  3  0  0  0  0  0  0
  -24.1510   -8.9710   21.8700 C   0  0  0  0  0  3  0  0  0  0  0  0
  -22.9860   -8.8100   21.0850 C   0  0  0  0  0  0  0  0  0  0  0  0
  -22.6420   -9.8070   20.1540 C   0  0  0  0  0  3  0  0  0  0  0  0
  -23.4290  -10.9640   20.0210 C   0  0  0  0  0  3  0  0  0  0  0  0
  -22.1740   -7.7030   21.1260 O   0  0  0  0  0  0  0  0  0  0  0  0
  -21.9750   -6.9990   22.2860 C   0  0  0  0  0  0  0  0  0  0  0  0
  -21.4630   -7.6080   23.4520 C   0  0  0  0  0  3  0  0  0  0  0  0
  -21.2090   -6.8320   24.6000 C   0  0  0  0  0  3  0  0  0  0  0  0
  -21.4580   -5.4460   24.5810 C   0  0  0  0  0  0  0  0  0  0  0  0
  -21.9610   -4.8360   23.4180 C   0  0  0  0  0  3  0  0  0  0  0  0
  -22.2170   -5.6110   22.2740 C   0  0  0  0  0  0  0  0  0  0  0  0
  -22.6820   -5.0120   21.1500 F   0  0  0  0  0  0  0  0  0  0  0  0
  -21.2060   -4.6970   25.6810 F   0  0  0  0  0  0  0  0  0  0  0  0
  -23.6080  -14.2830   21.0650 C   0  0  0  0  0  0  0  0  0  0  0  0
  -22.8560  -13.6090   21.9280 N   0  0  0  0  0  0  0  0  0  0  0  0
  -23.2130  -15.3350   20.5640 O   0  0  0  0  0  0  0  0  0  0  0  0
  -23.1930  -12.7650   22.3640 H   0  0  0  0  0  0  0  0  0  0  0  0
  -21.9290  -13.9410   22.1500 H   0  0  0  0  0  0  0  0  0  0  0  0
  -26.3180  -15.8420   20.3110 N   0  0  0  0  0  0  0  0  0  0  0  0
  -25.5930  -16.5350   20.4650 H   0  0  0  0  0  0  0  0  0  0  0  0
  -27.2030  -16.2480   20.0410 H   0  0  0  0  0  0  0  0  0  0  0  0
  -30.4390  -17.1410   18.7910 C   0  0  0  0  0  2  0  0  0  0  0  0
  -31.6180  -17.5410   17.8710 C   0  0  0  0  0  2  0  0  0  0  0  0
  -31.1280  -18.0690   16.5860 N   0  0  0  0  0  4  0  0  0  0  0  0
  -30.5400  -18.8720   16.7310 H   0  0  0  0  0  0  0  0  0  0  0  0
  -30.6080  -17.3710   16.0840 H   0  0  0  0  0  0  0  0  0  0  0  0
  -31.9030  -18.3510   16.0110 H   0  0  0  0  0  0  0  0  0  0  0  0
  -30.3290  -20.7070   20.2020 C   0  0  0  0  0  2  0  0  0  0  0  0
  -29.5070  -22.0500   20.5820 N   0  0  0  0  0  4  0  0  0  0  0  0
  -29.5920  -22.1230   21.5820 H   0  0  0  0  0  0  0  0  0  0  0  0
  -28.5400  -21.8210   20.4100 H   0  0  0  0  0  0  0  0  0  0  0  0
  -29.7200  -23.5550   20.0530 C   0  0  0  0  0  3  0  0  0  0  0  0
  -28.6510  -24.8620   20.3850 C   0  0  0  0  0  3  0  0  0  0  0  0
  -28.8170  -26.4260   20.1790 O   0  0  0  0  0  0  0  0  0  0  0  0
  -24.7560  -31.8500   23.2370 C   0  0  0  0  0  0  0  0  0  0  0  0
  -27.7030  -27.3620   20.1470 C   0  0  0  0  0  0  0  0  0  0  0  0
  -23.6920  -30.4400   21.5200 C   0  0  0  0  0  3  0  0  0  0  0  0
  -25.2750  -28.9930   20.0950 C   0  0  0  0  0  0  0  0  0  0  0  0
  -26.2320  -30.8470   21.4450 C   0  0  0  0  0  2  0  0  0  0  0  0
  -26.4080  -29.4790   20.7590 C   0  0  0  0  0  0  0  0  0  0  0  0
  -27.6200  -28.6810   20.7670 C   0  0  0  0  0  3  0  0  0  0  0  0
  -26.5400  -26.9950   19.4370 C   0  0  0  0  0  3  0  0  0  0  0  0
  -25.3560  -27.7700   19.4150 C   0  0  0  0  0  3  0  0  0  0  0  0
  -23.9980  -29.8230   20.1300 C   0  0  0  0  0  2  0  0  0  0  0  0
  -24.9110  -31.0680   22.1240 N   0  0  0  0  0  0  0  0  0  0  0  0
  -23.6380  -32.0490   23.7400 O   0  0  0  0  0  0  0  0  0  0  0  0
  -23.0480  -29.3610   22.4280 C   0  0  0  0  0  0  0  0  0  0  0  0
  -21.7380  -29.1140   22.2550 N   0  0  0  0  0  0  0  0  0  0  0  0
  -23.7310  -28.7520   23.2550 O   0  0  0  0  0  0  0  0  0  0  0  0
  -21.2400  -29.6630   21.5700 H   0  0  0  0  0  0  0  0  0  0  0  0
  -18.4180  -27.7140   22.6450 C   0  0  0  0  0  0  0  0  0  0  0  0
  -20.9540  -28.1030   22.9720 C   0  0  0  0  0  3  0  0  0  0  0  0
  -21.1430  -26.7030   22.3430 C   0  0  0  0  0  2  0  0  0  0  0  0
  -20.0780  -26.3620   21.2960 C   0  0  0  0  0  2  0  0  0  0  0  0
  -18.6800  -26.4060   21.9160 C   0  0  0  0  0  2  0  0  0  0  0  0
  -19.4860  -28.5170   23.1280 C   0  0  0  0  0  0  0  0  0  0  0  0
  -19.1870  -29.7380   23.7710 C   0  0  0  0  0  3  0  0  0  0  0  0
  -17.8540  -30.1590   23.9330 C   0  0  0  0  0  3  0  0  0  0  0  0
  -16.8020  -29.3530   23.4670 C   0  0  0  0  0  3  0  0  0  0  0  0
  -17.0830  -28.1320   22.8280 C   0  0  0  0  0  3  0  0  0  0  0  0
  -25.9720  -32.5430   23.9220 C   0  0  0  0  0  3  0  0  0  0  0  0
  -25.5850  -33.9320   24.2210 N   0  0  0  0  0  0  0  0  0  0  0  0
  -25.9290  -34.9980   23.4870 C   0  0  0  0  0  0  0  0  0  0  0  0
  -26.6690  -34.9180   22.5040 O   0  0  0  0  0  0  0  0  0  0  0  0
  -24.9360  -34.0630   24.9830 H   0  0  0  0  0  0  0  0  0  0  0  0
  -24.1670  -36.7370   23.0210 C   0  0  0  0  0  1  0  0  0  0  0  0
  -25.3650  -36.3710   23.9100 C   0  0  0  0  0  3  0  0  0  0  0  0
  -27.4060  -37.3370   24.8790 C   0  0  0  0  0  1  0  0  0  0  0  0
  -26.3670  -37.4590   23.8600 N   0  0  0  0  0  0  0  0  0  0  0  0
  -25.9210  -38.3660   23.9710 H   0  0  0  0  0  0  0  0  0  0  0  0
  -26.4430  -31.8080   25.2370 C   0  0  1  0  0  0  0  0  0  0  0  0
  -25.2950  -31.5250   26.2370 C   0  0  0  0  0  1  0  0  0  0  0  0
  -27.1150  -30.4570   24.8980 C   0  0  0  0  0  1  0  0  0  0  0  0
  -27.5140  -32.6610   25.9580 C   0  0  0  0  0  1  0  0  0  0  0  0
  2  1  1  0
  3  1  2  0
  4  2  2  0
  5  3  1  0
  6  5  2  0
  6  4  1  0
  8 13  1  0
  9 10  1  0
  9  8  1  0
 11 10  1  0
 11 19  1  0
 11 12  1  0
 13  7  1  0
 13 12  1  0
 14  7  2  0
 15  7  1  0
 15  6  1  0
 16 17  2  0
 17 36  1  0
 18 17  1  0
 18 21  1  0
 19 20  1  0
 19 16  1  0
 20 18  2  0
 21 22  1  0
 22 23  2  0
 24 27  1  0
 24 23  1  0
 25 24  2  0
 26 25  1  0
 26 21  2  0
 27 28  1  0
 28 29  1  0
 29 30  2  0
 31 30  1  0
 31 35  1  0
 32 31  2  0
 33 28  2  0
 33 32  1  0
 34 33  1  0
 36 37  1  0
 37 40  1  0
 37 39  1  0
 38 36  2  0
 41 16  1  0
 41 42  1  0
 43 41  1  0
 44 15  1  0
 45 44  1  0
 46 47  1  0
 46 45  1  0
 48 46  1  0
 49 46  1  0
 50 51  1  0
 50  5  1  0
 51 52  1  0
 53 51  1  0
 54 55  2  0
 54 51  1  0
 56 55  1  0
 57 68  2  0
 58 56  1  0
 58 63  1  0
 59 67  1  0
 59 69  1  0
 60 66  1  0
 60 62  1  0
 61 67  1  0
 62 63  2  0
 62 61  1  0
 64 58  2  0
 65 64  1  0
 65 60  2  0
 66 59  1  0
 67 57  1  0
 69 71  2  0
 70 69  1  0
 72 70  1  0
 73 82  2  0
 73 78  1  0
 74 70  1  0
 74 78  1  0
 75 74  1  0
 76 77  1  0
 76 75  1  0
 77 73  1  0
 78 79  2  0
 79 80  1  0
 81 80  2  0
 82 81  1  0
 83 57  1  0
 83 84  1  0
 83 93  1  0
 84 87  1  0
 85 89  1  0
 85 84  1  0
 86 85  2  0
 89 88  1  0
 91 89  1  0
 91 92  1  0
 91 90  1  0
 93 96  1  1
 93 94  1  0
 95 93  1  0
M  ISO  4   7 100  15 100  55 101  56 101
M  END
>  <TORSDO>  (62) 
F 23

>  <SCORE>  (62) 
-11.304

>  <name>  (62) 
62

>  <ligand_id>  (62) 
62

>  <original_smiles>  (62) 
[H]c1c([H])c([H])c(C([H])([H])[N+]([H])([H])C([H])([H])C([H])([H])Oc2c([H])c([H])c3c(c2[H])C([H])([H])N(C(=O)C([H])(N([H])C(=O)C([H])(N([H])C([H])([H])[H])C([H])([H])[H])C(C([H])([H])[H])(C([H])([H])[H])C([H])([H])[H])C([H])(C(=O)N([H])C2([H])c4c([H])c([H])c([H])c([H])c4C([H])([H])C([H])([H])C2([H])[H])C3([H])[H])c(N(C(=O)N2C([H])([H])C([H])([H])C([H])([H])C([H])(n3nc(-c4c([H])c([H])c(Oc5c([H])c([H])c(F)c([H])c5F)c([H])c4[H])c(C(=O)N([H])[H])c3N([H])[H])C2([H])[H])C([H])([H])C([H])([H])[N+]([H])([H])[H])c1[H]

>  <smiles>  (62) 
[H]c1c([H])c([H])c(C([H])([H])[N+]([H])([H])C([H])([H])C([H])([H])Oc2c([H])c([H])c3c(c2[H])C([H])([H])N(C(=O)C([H])(N([H])C(=O)C([H])(N([H])C([H])([H])[H])C([H])([H])[H])C(C([H])([H])[H])(C([H])([H])[H])C([H])([H])[H])C([H])(C(=O)N([H])C2([H])c4c([H])c([H])c([H])c([H])c4C([H])([H])C([H])([H])C2([H])[H])C3([H])[H])c(N(C(=O)N2C([H])([H])C([H])([H])C([H])([H])C([H])(n3nc(-c4c([H])c([H])c(Oc5c([H])c([H])c(F)c([H])c5F)c([H])c4[H])c(C(=O)N([H])[H])c3N([H])[H])C2([H])[H])C([H])([H])C([H])([H])[N+]([H])([H])[H])c1[H]

$$$$
63:0:0
     RDKit          3D

 94102  0  0  1  0  0  0  0  0999 V2000
  -29.8500  -22.8220   18.2400 C   0  0  0  0  0  2  0  0  0  0  0  0
  -30.2790  -21.7070   19.2510 C   0  0  0  0  0  2  0  0  0  0  0  0
  -28.2070  -22.6560   20.3590 C   0  0  0  0  0  2  0  0  0  0  0  0
  -29.6300  -24.2860   18.7890 C   0  0  0  0  0  3  0  0  0  0  0  0
  -28.6650  -24.3490   20.0230 C   0  0  0  0  0  3  0  0  0  0  0  0
  -29.2260  -21.3460   20.2420 N   0  0  1  0  0  4  0  0  0  0  0  0
  -29.7350  -21.4120   21.1120 H   0  0  0  0  0  0  0  0  0  0  0  0
  -28.2830  -25.9440   20.3390 O   0  0  0  0  0  0  0  0  0  0  0  0
  -24.6340  -31.8500   23.2100 C   0  0  0  0  0  0  0  0  0  0  0  0
  -27.2070  -26.9690   20.1810 C   0  0  0  0  0  0  0  0  0  0  0  0
  -23.4340  -30.4450   21.5770 C   0  0  0  0  0  3  0  0  0  0  0  0
  -24.8810  -28.8320   20.1460 C   0  0  0  0  0  0  0  0  0  0  0  0
  -25.9950  -30.6580   21.4200 C   0  0  0  0  0  2  0  0  0  0  0  0
  -26.0660  -29.2490   20.7610 C   0  0  0  0  0  0  0  0  0  0  0  0
  -27.2140  -28.3380   20.7540 C   0  0  0  0  0  3  0  0  0  0  0  0
  -25.9890  -26.6940   19.5230 C   0  0  0  0  0  3  0  0  0  0  0  0
  -24.8690  -27.5740   19.5110 C   0  0  0  0  0  3  0  0  0  0  0  0
  -23.6580  -29.7500   20.2020 C   0  0  0  0  0  2  0  0  0  0  0  0
  -24.7080  -31.0150   22.1210 N   0  0  0  0  0  0  0  0  0  0  0  0
  -23.5450  -32.1400   23.7350 O   0  0  0  0  0  0  0  0  0  0  0  0
  -22.7400  -29.4590   22.5520 C   0  0  0  0  0  0  0  0  0  0  0  0
  -21.4090  -29.2960   22.4340 N   0  0  0  0  0  0  0  0  0  0  0  0
  -23.4090  -28.8360   23.3810 O   0  0  0  0  0  0  0  0  0  0  0  0
  -20.9230  -29.8520   21.7430 H   0  0  0  0  0  0  0  0  0  0  0  0
  -18.0300  -28.0730   22.9400 C   0  0  0  0  0  0  0  0  0  0  0  0
  -20.5890  -28.3580   23.2080 C   0  0  0  0  0  3  0  0  0  0  0  0
  -20.6990  -26.9210   22.6440 C   0  0  0  0  0  2  0  0  0  0  0  0
  -19.6020  -26.5850   21.6300 C   0  0  0  0  0  2  0  0  0  0  0  0
  -18.2170  -26.7220   22.2700 C   0  0  0  0  0  2  0  0  0  0  0  0
  -19.1430  -28.8480   23.3670 C   0  0  0  0  0  0  0  0  0  0  0  0
  -18.9120  -30.1100   23.9560 C   0  0  0  0  0  3  0  0  0  0  0  0
  -17.6020  -30.5990   24.1220 C   0  0  0  0  0  3  0  0  0  0  0  0
  -16.5040  -29.8230   23.7100 C   0  0  0  0  0  3  0  0  0  0  0  0
  -16.7180  -28.5610   23.1260 C   0  0  0  0  0  3  0  0  0  0  0  0
  -25.9050  -32.4940   23.8410 C   0  0  0  0  0  3  0  0  0  0  0  0
  -25.5870  -33.8910   24.1820 N   0  0  0  0  0  0  0  0  0  0  0  0
  -25.9100  -34.9580   23.4360 C   0  0  0  0  0  0  0  0  0  0  0  0
  -26.5660  -34.8680   22.3960 O   0  0  0  0  0  0  0  0  0  0  0  0
  -25.0020  -34.0370   24.9910 H   0  0  0  0  0  0  0  0  0  0  0  0
  -24.1700  -36.7560   23.1400 C   0  0  0  0  0  1  0  0  0  0  0  0
  -25.4300  -36.3430   23.9190 C   0  0  0  0  0  3  0  0  0  0  0  0
  -27.5770  -37.2350   24.7100 C   0  0  0  0  0  1  0  0  0  0  0  0
  -26.4570  -37.4010   23.7890 N   0  0  0  0  0  0  0  0  0  0  0  0
  -26.0500  -38.3190   23.9490 H   0  0  0  0  0  0  0  0  0  0  0  0
  -26.4170  -31.7280   25.1240 C   0  0  1  0  0  0  0  0  0  0  0  0
  -25.3220  -31.5000   26.1940 C   0  0  0  0  0  1  0  0  0  0  0  0
  -26.9990  -30.3470   24.7460 C   0  0  0  0  0  1  0  0  0  0  0  0
  -27.5690  -32.5230   25.7840 C   0  0  0  0  0  1  0  0  0  0  0  0
  -30.9720  -25.0280   19.0880 C   0  0  0  0  0  2  0  0  0  0  0  0
  -31.9420  -25.2180   17.8970 C   0  0  0  0  0  2  0  0  0  0  0  0
  -33.0990  -26.0700   18.2430 N   0  0  0  0  0  4  0  0  0  0  0  0
  -32.8100  -27.0020   18.4780 H   0  0  0  0  0  0  0  0  0  0  0  0
  -33.7300  -26.1330   17.4610 H   0  0  0  0  0  0  0  0  0  0  0  0
  -33.6090  -25.6850   19.0170 H   0  0  0  0  0  0  0  0  0  0  0  0
  -28.8630  -19.7040   20.2570 C   0  0  0  0  0  3  0  0  0  0  0  0
  -29.9350  -18.2430   20.3080 C   0  0  0  0  0  3  0  0  0  0  0  0
  -30.3880  -15.3120   20.2370 C   0  0  0  0  0  0  0  0  0  0  0  0
  -30.3380  -12.8690   19.3530 C   0  0  0  0  0  2  0  0  0  0  0  0
  -29.3920  -12.6930   18.1410 C   0  0  0  0  0  2  0  0  0  0  0  0
  -27.9560  -12.4050   18.6070 C   0  0  0  0  0  2  0  0  0  0  0  0
  -27.5250  -13.3460   19.7590 C   0  0  0  0  0  3  0  0  0  0  0  0
  -28.6040  -13.4950   20.8570 C   0  0  0  0  0  2  0  0  0  0  0  0
  -29.8150  -14.0060   20.1980 N   0  0  0  0  0  0  0  0  0  0  0  0
  -31.6040  -15.3060   19.9980 O   0  0  0  0  0  0  0  0  0  0  0  0
  -29.6350  -16.5890   20.3530 N   0  0  0  0  0  0  0  0  0  0  0  0
  -28.6570  -16.3950   20.4880 H   0  0  0  0  0  0  0  0  0  0  0  0
  -25.1700  -13.8750   20.5740 C   0  0  0  0  0  0  0  0  0  0  0  0
  -24.1230  -13.0860   20.9550 C   0  0  0  0  0  0  0  0  0  0  0  0
  -24.5970  -11.7380   20.8960 C   0  0  0  0  0  0  0  0  0  0  0  0
  -26.2130  -13.0090   20.2980 N   0  0  0  0  0  0  0  0  0  0  0  0
  -25.8820  -11.7160   20.5540 N   0  0  0  0  0  0  0  0  0  0  0  0
  -23.8800  -10.4710   21.0850 C   0  0  0  0  0  0  0  0  0  0  0  0
  -24.3370   -9.4910   21.9950 C   0  0  0  0  0  3  0  0  0  0  0  0
  -23.6180   -8.2900   22.1720 C   0  0  0  0  0  3  0  0  0  0  0  0
  -22.4290   -8.0590   21.4430 C   0  0  0  0  0  0  0  0  0  0  0  0
  -21.9880   -9.0270   20.5240 C   0  0  0  0  0  3  0  0  0  0  0  0
  -22.7060  -10.2200   20.3450 C   0  0  0  0  0  3  0  0  0  0  0  0
  -21.6770   -6.9110   21.5330 O   0  0  0  0  0  0  0  0  0  0  0  0
  -21.6610   -6.1500   22.6730 C   0  0  0  0  0  0  0  0  0  0  0  0
  -21.2570   -6.6780   23.9170 C   0  0  0  0  0  3  0  0  0  0  0  0
  -21.1900   -5.8440   25.0510 C   0  0  0  0  0  3  0  0  0  0  0  0
  -21.5140   -4.4770   24.9400 C   0  0  0  0  0  0  0  0  0  0  0  0
  -21.9070   -3.9460   23.6980 C   0  0  0  0  0  3  0  0  0  0  0  0
  -21.9760   -4.7800   22.5680 C   0  0  0  0  0  0  0  0  0  0  0  0
  -22.3390   -4.2590   21.3710 F   0  0  0  0  0  0  0  0  0  0  0  0
  -21.4380   -3.6730   26.0260 F   0  0  0  0  0  0  0  0  0  0  0  0
  -22.7320  -13.5530   21.2560 C   0  0  0  0  0  0  0  0  0  0  0  0
  -22.0240  -12.8450   22.1300 N   0  0  0  0  0  0  0  0  0  0  0  0
  -22.2800  -14.5810   20.7540 O   0  0  0  0  0  0  0  0  0  0  0  0
  -22.3990  -12.0090   22.5560 H   0  0  0  0  0  0  0  0  0  0  0  0
  -21.0920  -13.1410   22.3740 H   0  0  0  0  0  0  0  0  0  0  0  0
  -25.3190  -15.2490   20.4040 N   0  0  0  0  0  0  0  0  0  0  0  0
  -24.5400  -15.8910   20.5070 H   0  0  0  0  0  0  0  0  0  0  0  0
  -26.1360  -15.6850   19.9990 H   0  0  0  0  0  0  0  0  0  0  0  0
  1  4  1  0
  1  2  1  0
  2  6  1  0
  4 49  1  0
  4  5  1  0
  5  8  1  0
  5  3  1  0
  6 55  1  0
  6  3  1  0
  6  7  1  1
  9 20  2  0
 10  8  1  0
 10 15  1  0
 11 19  1  0
 11 21  1  0
 12 18  1  0
 12 14  1  0
 13 19  1  0
 14 13  1  0
 15 14  2  0
 16 10  2  0
 17 16  1  0
 17 12  2  0
 18 11  1  0
 19  9  1  0
 21 23  2  0
 22 21  1  0
 24 22  1  0
 25 34  2  0
 25 30  1  0
 26 22  1  0
 26 30  1  0
 27 26  1  0
 28 29  1  0
 28 27  1  0
 29 25  1  0
 30 31  2  0
 31 32  1  0
 33 32  2  0
 34 33  1  0
 35  9  1  0
 35 36  1  0
 35 45  1  0
 36 39  1  0
 37 41  1  0
 37 36  1  0
 38 37  2  0
 41 40  1  0
 43 41  1  0
 43 44  1  0
 43 42  1  0
 45 48  1  1
 45 46  1  0
 47 45  1  0
 50 51  1  0
 50 49  1  0
 51 52  1  0
 51 54  1  0
 53 51  1  0
 55 56  2  0
 56 65  1  0
 57 65  1  0
 58 63  1  0
 59 60  1  0
 59 58  1  0
 61 60  1  0
 61 70  1  0
 61 62  1  0
 63 57  1  0
 63 62  1  0
 64 57  2  0
 65 66  1  0
 67 68  2  0
 68 87  1  0
 69 68  1  0
 69 72  1  0
 70 71  1  0
 70 67  1  0
 71 69  2  0
 72 73  1  0
 73 74  2  0
 75 78  1  0
 75 74  1  0
 76 75  2  0
 77 76  1  0
 77 72  2  0
 78 79  1  0
 79 80  1  0
 80 81  2  0
 82 81  1  0
 82 86  1  0
 83 82  2  0
 84 79  2  0
 84 83  1  0
 85 84  1  0
 87 88  1  0
 88 91  1  0
 88 90  1  0
 89 87  2  0
 92 93  1  0
 92 67  1  0
 94 92  1  0
M  ISO  4   5 101   8 101  57 100  65 100
M  END
>  <TORSDO>  (63) 
F 21

>  <SCORE>  (63) 
-15.287

>  <name>  (63) 
63

>  <ligand_id>  (63) 
63

>  <original_smiles>  (63) 
[H]c1c([H])c([H])c2c(c1[H])C([H])([H])C([H])([H])C([H])([H])C2([H])N([H])C(=O)C1([H])N(C(=O)C([H])(N([H])C(=O)C([H])(N([H])C([H])([H])[H])C([H])([H])[H])C(C([H])([H])[H])(C([H])([H])[H])C([H])([H])[H])C([H])([H])c2c([H])c(OC3([H])C([H])(C([H])([H])C([H])([H])[N+]([H])([H])[H])C([H])([H])C([H])([H])[N+]([H])(C([H])([H])C([H])([H])N([H])C(=O)N4C([H])([H])C([H])([H])C([H])([H])C([H])(n5nc(-c6c([H])c([H])c(Oc7c([H])c([H])c(F)c([H])c7F)c([H])c6[H])c(C(=O)N([H])[H])c5N([H])[H])C4([H])[H])C3([H])[H])c([H])c([H])c2C1([H])[H]

>  <smiles>  (63) 
[H]c1c([H])c([H])c2c(c1[H])C([H])([H])C([H])([H])C([H])([H])C2([H])N([H])C(=O)C1([H])N(C(=O)C([H])(N([H])C(=O)C([H])(N([H])C([H])([H])[H])C([H])([H])[H])C(C([H])([H])[H])(C([H])([H])[H])C([H])([H])[H])C([H])([H])c2c([H])c(OC3([H])C([H])(C([H])([H])C([H])([H])[N+]([H])([H])[H])C([H])([H])C([H])([H])[N+]([H])(C([H])([H])C([H])([H])N([H])C(=O)N4C([H])([H])C([H])([H])C([H])([H])C([H])(n5nc(-c6c([H])c([H])c(Oc7c([H])c([H])c(F)c([H])c7F)c([H])c6[H])c(C(=O)N([H])[H])c5N([H])[H])C4([H])[H])C3([H])[H])c([H])c([H])c2C1([H])[H]

$$$$
64:0:0
     RDKit          3D

 93102  0  0  1  0  0  0  0  0999 V2000
  -27.1570  -22.3440   17.5720 C   0  0  0  0  0  2  0  0  0  0  0  0
  -27.4790  -23.8290   17.3240 C   0  0  0  0  0  2  0  0  0  0  0  0
  -27.6060  -21.8590   18.9650 C   0  0  0  0  0  2  0  0  0  0  0  0
  -28.9250  -24.2230   17.7060 C   0  0  0  0  0  2  0  0  0  0  0  0
  -29.1020  -22.1670   19.1680 C   0  0  0  0  0  3  0  0  0  0  0  0
  -29.2990  -23.8070   19.1510 C   0  0  0  0  0  3  0  0  0  0  0  0
  -29.8580  -21.1090   20.1320 C   0  0  0  0  0  2  0  0  0  0  0  0
  -31.0390  -14.7690   19.8690 C   0  0  0  0  0  0  0  0  0  0  0  0
  -30.7260  -12.4820   18.8850 C   0  0  0  0  0  2  0  0  0  0  0  0
  -29.7400  -12.5310   17.6960 C   0  0  0  0  0  2  0  0  0  0  0  0
  -28.2840  -12.3990   18.1870 C   0  0  0  0  0  2  0  0  0  0  0  0
  -27.9800  -13.3170   19.4000 C   0  0  0  0  0  3  0  0  0  0  0  0
  -29.0800  -13.2100   20.4720 C   0  0  0  0  0  2  0  0  0  0  0  0
  -30.3510  -13.5680   19.8270 N   0  0  0  0  0  0  0  0  0  0  0  0
  -32.1980  -14.7850   19.4400 O   0  0  0  0  0  0  0  0  0  0  0  0
  -28.6060  -17.4720   21.1090 C   0  0  0  0  0  2  0  0  0  0  0  0
  -29.8110  -16.4920   21.2840 C   0  0  0  0  0  2  0  0  0  0  0  0
  -30.5540  -17.1800   19.0660 C   0  0  0  0  0  2  0  0  0  0  0  0
  -28.9230  -19.0020   21.1490 C   0  0  0  0  0  2  0  0  0  0  0  0
  -30.8030  -18.6910   19.6010 C   0  0  0  0  0  2  0  0  0  0  0  0
  -30.3530  -15.9930   20.0030 N   0  0  0  0  0  0  0  0  0  0  0  0
  -29.6100  -19.5760   19.9510 N   0  0  2  0  0  4  0  0  0  0  0  0
  -28.9630  -19.4960   19.1810 H   0  0  0  0  0  0  0  0  0  0  0  0
  -25.6510  -13.9810   20.2460 C   0  0  0  0  0  0  0  0  0  0  0  0
  -24.5810  -13.2420   20.6650 C   0  0  0  0  0  0  0  0  0  0  0  0
  -24.9970  -11.8760   20.6080 C   0  0  0  0  0  0  0  0  0  0  0  0
  -26.6520  -13.0690   19.9550 N   0  0  0  0  0  0  0  0  0  0  0  0
  -26.2690  -11.7970   20.2380 N   0  0  0  0  0  0  0  0  0  0  0  0
  -24.2380  -10.6380   20.8270 C   0  0  0  0  0  0  0  0  0  0  0  0
  -24.6490   -9.6770   21.7760 C   0  0  0  0  0  3  0  0  0  0  0  0
  -23.8920   -8.5030   21.9800 C   0  0  0  0  0  3  0  0  0  0  0  0
  -22.7070   -8.2850   21.2380 C   0  0  0  0  0  0  0  0  0  0  0  0
  -22.3150   -9.2340   20.2770 C   0  0  0  0  0  3  0  0  0  0  0  0
  -23.0740  -10.3980   20.0710 C   0  0  0  0  0  3  0  0  0  0  0  0
  -21.9200   -7.1650   21.3520 O   0  0  0  0  0  0  0  0  0  0  0  0
  -21.8090   -6.4810   22.5360 C   0  0  0  0  0  0  0  0  0  0  0  0
  -21.3640   -7.1080   23.7210 C   0  0  0  0  0  3  0  0  0  0  0  0
  -21.1990   -6.3520   24.8980 C   0  0  0  0  0  3  0  0  0  0  0  0
  -21.4710   -4.9690   24.8900 C   0  0  0  0  0  0  0  0  0  0  0  0
  -21.9090   -4.3430   23.7110 C   0  0  0  0  0  3  0  0  0  0  0  0
  -22.0760   -5.0980   22.5370 C   0  0  0  0  0  0  0  0  0  0  0  0
  -22.4770   -4.4860   21.3970 F   0  0  0  0  0  0  0  0  0  0  0  0
  -21.3060   -4.2410   26.0190 F   0  0  0  0  0  0  0  0  0  0  0  0
  -23.2140  -13.7650   21.0010 C   0  0  0  0  0  0  0  0  0  0  0  0
  -22.5090  -13.1020   21.9120 N   0  0  0  0  0  0  0  0  0  0  0  0
  -22.7830  -14.7970   20.4910 O   0  0  0  0  0  0  0  0  0  0  0  0
  -22.8700  -12.2670   22.3490 H   0  0  0  0  0  0  0  0  0  0  0  0
  -21.5930  -13.4370   22.1740 H   0  0  0  0  0  0  0  0  0  0  0  0
  -25.8490  -15.3460   20.0630 N   0  0  0  0  0  0  0  0  0  0  0  0
  -25.1080  -16.0220   20.2070 H   0  0  0  0  0  0  0  0  0  0  0  0
  -26.6910  -15.7480   19.6710 H   0  0  0  0  0  0  0  0  0  0  0  0
  -28.5440  -24.8660   20.1340 C   0  0  0  0  0  2  0  0  0  0  0  0
  -28.7050  -26.3650   19.9550 O   0  0  0  0  0  0  0  0  0  0  0  0
  -24.7580  -31.6280   23.1070 C   0  0  0  0  0  0  0  0  0  0  0  0
  -27.5730  -27.2190   19.9510 C   0  0  0  0  0  0  0  0  0  0  0  0
  -23.6380  -30.2480   21.3990 C   0  0  0  0  0  3  0  0  0  0  0  0
  -25.1670  -28.7980   19.9490 C   0  0  0  0  0  0  0  0  0  0  0  0
  -26.1760  -30.6450   21.2810 C   0  0  0  0  0  2  0  0  0  0  0  0
  -26.3130  -29.2900   20.5860 C   0  0  0  0  0  0  0  0  0  0  0  0
  -27.5220  -28.5160   20.5710 C   0  0  0  0  0  3  0  0  0  0  0  0
  -26.3970  -26.8020   19.2900 C   0  0  0  0  0  3  0  0  0  0  0  0
  -25.2150  -27.5630   19.2900 C   0  0  0  0  0  3  0  0  0  0  0  0
  -23.9030  -29.6360   19.9990 C   0  0  0  0  0  2  0  0  0  0  0  0
  -24.8750  -30.8570   21.9860 N   0  0  0  0  0  0  0  0  0  0  0  0
  -23.6540  -31.8480   23.6270 O   0  0  0  0  0  0  0  0  0  0  0  0
  -22.9910  -29.1750   22.3080 C   0  0  0  0  0  0  0  0  0  0  0  0
  -21.6690  -28.9730   22.1630 N   0  0  0  0  0  0  0  0  0  0  0  0
  -23.6780  -28.5310   23.1030 O   0  0  0  0  0  0  0  0  0  0  0  0
  -21.1740  -29.5460   21.4970 H   0  0  0  0  0  0  0  0  0  0  0  0
  -18.3170  -27.6740   22.5870 C   0  0  0  0  0  0  0  0  0  0  0  0
  -20.8670  -27.9840   22.8870 C   0  0  0  0  0  3  0  0  0  0  0  0
  -21.0090  -26.5810   22.2530 C   0  0  0  0  0  2  0  0  0  0  0  0
  -19.9210  -26.2740   21.2180 C   0  0  0  0  0  2  0  0  0  0  0  0
  -18.5320  -26.3600   21.8560 C   0  0  0  0  0  2  0  0  0  0  0  0
  -19.4140  -28.4450   23.0570 C   0  0  0  0  0  0  0  0  0  0  0  0
  -19.1600  -29.6760   23.7000 C   0  0  0  0  0  3  0  0  0  0  0  0
  -17.8420  -30.1360   23.8780 C   0  0  0  0  0  3  0  0  0  0  0  0
  -16.7600  -29.3630   23.4240 C   0  0  0  0  0  3  0  0  0  0  0  0
  -16.9980  -28.1340   22.7830 C   0  0  0  0  0  3  0  0  0  0  0  0
  -26.0020  -32.2850   23.7780 C   0  0  0  0  0  3  0  0  0  0  0  0
  -25.6310  -33.6540   24.1620 N   0  0  0  0  0  0  0  0  0  0  0  0
  -25.9260  -34.7520   23.4550 C   0  0  0  0  0  0  0  0  0  0  0  0
  -26.6100  -34.7210   22.4270 O   0  0  0  0  0  0  0  0  0  0  0  0
  -25.0240  -33.7500   24.9650 H   0  0  0  0  0  0  0  0  0  0  0  0
  -24.1260  -36.4850   23.1610 C   0  0  0  0  0  1  0  0  0  0  0  0
  -25.3770  -36.0990   23.9660 C   0  0  0  0  0  3  0  0  0  0  0  0
  -27.4690  -37.0350   24.8500 C   0  0  0  0  0  1  0  0  0  0  0  0
  -26.3650  -37.1990   23.9070 N   0  0  0  0  0  0  0  0  0  0  0  0
  -25.9200  -38.0940   24.0930 H   0  0  0  0  0  0  0  0  0  0  0  0
  -26.5270  -31.4820   25.0310 C   0  0  1  0  0  0  0  0  0  0  0  0
  -25.4290  -31.1680   26.0740 C   0  0  0  0  0  1  0  0  0  0  0  0
  -27.1600  -30.1410   24.5960 C   0  0  0  0  0  1  0  0  0  0  0  0
  -27.6440  -32.2870   25.7380 C   0  0  0  0  0  1  0  0  0  0  0  0
  1  3  1  0
  2  1  1  0
  2  4  1  0
  3  5  1  0
  4  6  1  0
  5  7  1  0
  6  5  1  0
  6 52  1  0
  8 21  1  0
  9 14  1  0
 10 11  1  0
 10  9  1  0
 12 11  1  0
 12 27  1  0
 12 13  1  0
 14  8  1  0
 14 13  1  0
 15  8  2  0
 16 19  1  0
 16 17  1  0
 18 20  1  0
 18 21  1  0
 20 22  1  0
 21 17  1  0
 22  7  1  0
 22 19  1  0
 22 23  1  6
 24 25  2  0
 25 44  1  0
 26 25  1  0
 26 29  1  0
 27 28  1  0
 27 24  1  0
 28 26  2  0
 29 30  1  0
 30 31  2  0
 32 35  1  0
 32 31  1  0
 33 32  2  0
 34 33  1  0
 34 29  2  0
 35 36  1  0
 36 41  2  0
 36 37  1  0
 37 38  2  0
 39 38  1  0
 39 43  1  0
 40 39  2  0
 41 40  1  0
 42 41  1  0
 44 45  1  0
 45 48  1  0
 45 47  1  0
 46 44  2  0
 49 50  1  0
 49 24  1  0
 51 49  1  0
 53 52  1  0
 54 65  2  0
 55 53  1  0
 55 60  1  0
 56 64  1  0
 56 66  1  0
 57 63  1  0
 57 59  1  0
 58 64  1  0
 59 58  1  0
 60 59  2  0
 61 55  2  0
 62 61  1  0
 62 57  2  0
 63 56  1  0
 64 54  1  0
 66 68  2  0
 67 66  1  0
 69 67  1  0
 70 79  2  0
 70 75  1  0
 71 67  1  0
 71 75  1  0
 72 71  1  0
 73 74  1  0
 73 72  1  0
 74 70  1  0
 75 76  2  0
 76 77  1  0
 78 77  2  0
 79 78  1  0
 80 54  1  0
 80 81  1  0
 80 90  1  0
 81 84  1  0
 82 86  1  0
 82 81  1  0
 83 82  2  0
 86 85  1  0
 88 86  1  0
 88 89  1  0
 88 87  1  0
 90 93  1  1
 90 91  1  0
 92 90  1  0
M  ISO  4   8 100  21 100  52 101  53 101
M  END
>  <TORSDO>  (64) 
F 18

>  <SCORE>  (64) 
-12.805

>  <name>  (64) 
64

>  <ligand_id>  (64) 
64

>  <original_smiles>  (64) 
[H]c1c([H])c([H])c2c(c1[H])C([H])([H])C([H])([H])C([H])([H])C2([H])N([H])C(=O)C1([H])N(C(=O)C([H])(N([H])C(=O)C([H])(N([H])C([H])([H])[H])C([H])([H])[H])C(C([H])([H])[H])(C([H])([H])[H])C([H])([H])[H])C([H])([H])c2c([H])c(OC([H])([H])C3([H])C([H])([H])C([H])([H])C([H])([H])C([H])([H])C3([H])C([H])([H])[N+]3([H])C([H])([H])C([H])([H])N(C(=O)N4C([H])([H])C([H])([H])C([H])([H])C([H])(n5nc(-c6c([H])c([H])c(Oc7c([H])c([H])c(F)c([H])c7F)c([H])c6[H])c(C(=O)N([H])[H])c5N([H])[H])C4([H])[H])C([H])([H])C([H])([H])C3([H])[H])c([H])c([H])c2C1([H])[H]

>  <smiles>  (64) 
[H]c1c([H])c([H])c2c(c1[H])C([H])([H])C([H])([H])C([H])([H])C2([H])N([H])C(=O)C1([H])N(C(=O)C([H])(N([H])C(=O)C([H])(N([H])C([H])([H])[H])C([H])([H])[H])C(C([H])([H])[H])(C([H])([H])[H])C([H])([H])[H])C([H])([H])c2c([H])c(OC([H])([H])C3([H])C([H])([H])C([H])([H])C([H])([H])C([H])([H])C3([H])C([H])([H])[N+]3([H])C([H])([H])C([H])([H])N(C(=O)N4C([H])([H])C([H])([H])C([H])([H])C([H])(n5nc(-c6c([H])c([H])c(Oc7c([H])c([H])c(F)c([H])c7F)c([H])c6[H])c(C(=O)N([H])[H])c5N([H])[H])C4([H])[H])C([H])([H])C([H])([H])C3([H])[H])c([H])c([H])c2C1([H])[H]

$$$$
65:0:0
     RDKit          3D

 97105  0  0  1  0  0  0  0  0999 V2000
  -31.1290  -22.8250   19.1510 C   0  0  0  0  0  2  0  0  0  0  0  0
  -29.3850  -21.9450   20.7970 C   0  0  0  0  0  2  0  0  0  0  0  0
  -30.9690  -21.5120   18.3540 C   0  0  0  0  0  2  0  0  0  0  0  0
  -30.2480  -20.6860   20.6000 C   0  0  0  0  0  2  0  0  0  0  0  0
  -29.8130  -23.1190   19.8850 C   0  0  0  0  0  3  0  0  0  0  0  0
  -30.4150  -20.3780   19.1570 N   0  0  2  0  0  4  0  0  0  0  0  0
  -29.4870  -20.2180   18.7890 H   0  0  0  0  0  0  0  0  0  0  0  0
  -29.7770  -24.4800   20.6050 C   0  0  0  0  0  2  0  0  0  0  0  0
  -28.4110  -25.1300   20.3660 C   0  0  0  0  0  2  0  0  0  0  0  0
  -28.4570  -26.5120   20.6520 O   0  0  0  0  0  0  0  0  0  0  0  0
  -24.6580  -31.7710   23.4340 C   0  0  0  0  0  0  0  0  0  0  0  0
  -27.2730  -27.2080   20.5670 C   0  0  0  0  0  0  0  0  0  0  0  0
  -23.4620  -30.3630   21.7880 C   0  0  0  0  0  3  0  0  0  0  0  0
  -24.9100  -28.7480   20.4550 C   0  0  0  0  0  0  0  0  0  0  0  0
  -25.9960  -30.6560   21.6560 C   0  0  0  0  0  2  0  0  0  0  0  0
  -26.0600  -29.2680   21.0570 C   0  0  0  0  0  0  0  0  0  0  0  0
  -27.2440  -28.5070   21.1060 C   0  0  0  0  0  3  0  0  0  0  0  0
  -26.1000  -26.6890   19.9660 C   0  0  0  0  0  3  0  0  0  0  0  0
  -24.9220  -27.4560   19.9040 C   0  0  0  0  0  3  0  0  0  0  0  0
  -23.6910  -29.6390   20.4350 C   0  0  0  0  0  2  0  0  0  0  0  0
  -24.7220  -30.9450   22.3530 N   0  0  0  0  0  0  0  0  0  0  0  0
  -23.5700  -32.0900   23.9320 O   0  0  0  0  0  0  0  0  0  0  0  0
  -22.7490  -29.3880   22.7530 C   0  0  0  0  0  0  0  0  0  0  0  0
  -21.4300  -29.2200   22.5660 N   0  0  0  0  0  0  0  0  0  0  0  0
  -23.3810  -28.7800   23.6210 O   0  0  0  0  0  0  0  0  0  0  0  0
  -20.9840  -29.7610   21.8370 H   0  0  0  0  0  0  0  0  0  0  0  0
  -18.0170  -28.0910   22.9180 C   0  0  0  0  0  0  0  0  0  0  0  0
  -20.5590  -28.3270   23.3270 C   0  0  0  0  0  3  0  0  0  0  0  0
  -20.6730  -26.8730   22.8140 C   0  0  0  0  0  2  0  0  0  0  0  0
  -19.6230  -26.5230   21.7510 C   0  0  0  0  0  2  0  0  0  0  0  0
  -18.2100  -26.7120   22.3100 C   0  0  0  0  0  2  0  0  0  0  0  0
  -19.1210  -28.8560   23.3810 C   0  0  0  0  0  0  0  0  0  0  0  0
  -18.8900  -30.1450   23.9060 C   0  0  0  0  0  3  0  0  0  0  0  0
  -17.5850  -30.6720   23.9720 C   0  0  0  0  0  3  0  0  0  0  0  0
  -16.4940  -29.9040   23.5280 C   0  0  0  0  0  3  0  0  0  0  0  0
  -16.7110  -28.6150   23.0080 C   0  0  0  0  0  3  0  0  0  0  0  0
  -25.9440  -32.3760   24.0830 C   0  0  0  0  0  3  0  0  0  0  0  0
  -26.4000  -31.6110   25.3870 C   0  0  1  0  0  0  0  0  0  0  0  0
  -25.2680  -31.4100   26.4210 C   0  0  0  0  0  1  0  0  0  0  0  0
  -26.9650  -30.2160   25.0270 C   0  0  0  0  0  1  0  0  0  0  0  0
  -27.5480  -32.3860   26.0780 C   0  0  0  0  0  1  0  0  0  0  0  0
  -25.6680  -33.7880   24.3800 N   0  0  0  0  0  0  0  0  0  0  0  0
  -26.0590  -34.8150   23.6120 C   0  0  0  0  0  0  0  0  0  0  0  0
  -26.7630  -34.6710   22.6080 O   0  0  0  0  0  0  0  0  0  0  0  0
  -25.0490  -33.9740   25.1540 H   0  0  0  0  0  0  0  0  0  0  0  0
  -24.3720  -36.6310   23.1940 C   0  0  0  0  0  1  0  0  0  0  0  0
  -25.5990  -36.2250   24.0260 C   0  0  0  0  0  3  0  0  0  0  0  0
  -27.7530  -37.0780   24.8360 C   0  0  0  0  0  1  0  0  0  0  0  0
  -26.6540  -37.2510   23.8910 N   0  0  0  0  0  0  0  0  0  0  0  0
  -26.2710  -38.1830   24.0190 H   0  0  0  0  0  0  0  0  0  0  0  0
  -31.1620  -19.1350   18.8850 C   0  0  0  0  0  2  0  0  0  0  0  0
  -30.6810  -17.8770   19.6430 C   0  0  0  0  0  2  0  0  0  0  0  0
  -31.6000  -16.7300   19.1960 C   0  0  0  0  0  2  0  0  0  0  0  0
  -32.9220  -14.8510   19.6240 C   0  0  0  0  0  0  0  0  0  0  0  0
  -33.4510  -12.6460   18.6800 C   0  0  0  0  0  2  0  0  0  0  0  0
  -32.4390  -12.2740   17.5830 C   0  0  0  0  0  2  0  0  0  0  0  0
  -31.2520  -11.5240   18.2130 C   0  0  0  0  0  2  0  0  0  0  0  0
  -30.6470  -12.2870   19.4210 C   0  0  0  0  0  3  0  0  0  0  0  0
  -31.7450  -12.7500   20.4070 C   0  0  0  0  0  2  0  0  0  0  0  0
  -32.7550  -13.5040   19.6540 N   0  0  0  0  0  0  0  0  0  0  0  0
  -33.8170  -15.3640   18.9410 O   0  0  0  0  0  0  0  0  0  0  0  0
  -31.9410  -15.6380   20.1420 N   0  0  0  0  0  0  0  0  0  0  0  0
  -28.3230  -11.8200   20.4100 C   0  0  0  0  0  0  0  0  0  0  0  0
  -27.7760  -10.6980   20.9670 C   0  0  0  0  0  0  0  0  0  0  0  0
  -28.8060   -9.7070   20.9570 C   0  0  0  0  0  0  0  0  0  0  0  0
  -29.6290  -11.4900   20.0930 N   0  0  0  0  0  0  0  0  0  0  0  0
  -29.9310  -10.2240   20.4810 N   0  0  0  0  0  0  0  0  0  0  0  0
  -28.7710   -8.2870   21.3230 C   0  0  0  0  0  0  0  0  0  0  0  0
  -29.7400   -7.7190   22.1800 C   0  0  0  0  0  3  0  0  0  0  0  0
  -29.6680   -6.3540   22.5290 C   0  0  0  0  0  3  0  0  0  0  0  0
  -28.6250   -5.5440   22.0260 C   0  0  0  0  0  0  0  0  0  0  0  0
  -27.6780   -6.1100   21.1550 C   0  0  0  0  0  3  0  0  0  0  0  0
  -27.7520   -7.4670   20.8020 C   0  0  0  0  0  3  0  0  0  0  0  0
  -28.4900   -4.2050   22.2940 O   0  0  0  0  0  0  0  0  0  0  0  0
  -29.0280   -3.6370   23.4210 C   0  0  0  0  0  0  0  0  0  0  0  0
  -28.6940   -4.0920   24.7150 C   0  0  0  0  0  3  0  0  0  0  0  0
  -29.2160   -3.4360   25.8470 C   0  0  0  0  0  3  0  0  0  0  0  0
  -30.0630   -2.3230   25.6890 C   0  0  0  0  0  0  0  0  0  0  0  0
  -30.3920   -1.8660   24.4000 C   0  0  0  0  0  3  0  0  0  0  0  0
  -29.8730   -2.5190   23.2700 C   0  0  0  0  0  0  0  0  0  0  0  0
  -30.1760   -2.0640   22.0300 F   0  0  0  0  0  0  0  0  0  0  0  0
  -30.5580   -1.6860   26.7750 F   0  0  0  0  0  0  0  0  0  0  0  0
  -26.3490  -10.5210   21.3960 C   0  0  0  0  0  0  0  0  0  0  0  0
  -26.1110   -9.6870   22.4000 N   0  0  0  0  0  0  0  0  0  0  0  0
  -25.4420  -11.1670   20.8730 O   0  0  0  0  0  0  0  0  0  0  0  0
  -26.8610   -9.1720   22.8420 H   0  0  0  0  0  0  0  0  0  0  0  0
  -25.1650   -9.5620   22.7320 H   0  0  0  0  0  0  0  0  0  0  0  0
  -27.8180  -13.0870   20.1270 N   0  0  0  0  0  0  0  0  0  0  0  0
  -26.8520  -13.3340   20.3030 H   0  0  0  0  0  0  0  0  0  0  0  0
  -28.3400  -13.8250   19.6720 H   0  0  0  0  0  0  0  0  0  0  0  0
  -32.1360  -16.1370   21.5200 C   0  0  0  0  0  2  0  0  0  0  0  0
  -30.8150  -16.3700   22.2890 C   0  0  0  0  0  2  0  0  0  0  0  0
  -30.9460  -17.5010   23.3370 C   0  0  0  0  0  2  0  0  0  0  0  0
  -29.6480  -17.9410   23.8760 N   0  0  0  0  0  4  0  0  0  0  0  0
  -29.2310  -17.2380   24.4620 H   0  0  0  0  0  0  0  0  0  0  0  0
  -29.0100  -18.1750   23.1360 H   0  0  0  0  0  0  0  0  0  0  0  0
  -29.7730  -18.7670   24.4340 H   0  0  0  0  0  0  0  0  0  0  0  0
  1  5  1  0
  3  1  1  0
  3  6  1  0
  4  2  1  0
  5  8  1  0
  5  2  1  0
  6  4  1  0
  6  7  1  6
  9  8  1  0
  9 10  1  0
 11 22  2  0
 12 10  1  0
 12 17  1  0
 13 21  1  0
 13 23  1  0
 14 16  1  0
 15 21  1  0
 16 17  2  0
 16 15  1  0
 18 12  2  0
 19 18  1  0
 19 14  2  0
 20 14  1  0
 20 13  1  0
 21 11  1  0
 23 25  2  0
 24 23  1  0
 26 24  1  0
 27 36  2  0
 27 32  1  0
 28 24  1  0
 28 32  1  0
 29 28  1  0
 30 31  1  0
 30 29  1  0
 31 27  1  0
 32 33  2  0
 33 34  1  0
 35 34  2  0
 36 35  1  0
 37 11  1  0
 37 42  1  0
 37 38  1  0
 38 41  1  1
 38 39  1  0
 40 38  1  0
 42 45  1  0
 43 47  1  0
 43 42  1  0
 44 43  2  0
 47 46  1  0
 49 50  1  0
 49 47  1  0
 49 48  1  0
 51  6  1  0
 51 52  1  0
 53 52  1  0
 53 62  1  0
 54 60  1  0
 54 62  1  0
 55 60  1  0
 56 57  1  0
 56 55  1  0
 58 57  1  0
 58 66  1  0
 58 59  1  0
 60 59  1  0
 61 54  2  0
 62 91  1  0
 63 64  2  0
 64 83  1  0
 65 64  1  0
 65 68  1  0
 66 63  1  0
 66 67  1  0
 67 65  2  0
 68 69  1  0
 69 70  2  0
 71 74  1  0
 71 70  1  0
 72 71  2  0
 73 72  1  0
 73 68  2  0
 74 75  1  0
 75 76  1  0
 76 77  2  0
 78 77  1  0
 78 82  1  0
 79 78  2  0
 80 75  2  0
 80 79  1  0
 81 80  1  0
 83 84  1  0
 84 87  1  0
 84 86  1  0
 85 83  2  0
 88 89  1  0
 88 63  1  0
 90 88  1  0
 91 92  1  0
 92 93  1  0
 93 94  1  0
 94 97  1  0
 94 95  1  0
 96 94  1  0
M  ISO  4   9 101  10 101  54 100  62 100
M  END
>  <TORSDO>  (65) 
F 25

>  <SCORE>  (65) 
-1.826

>  <name>  (65) 
65

>  <ligand_id>  (65) 
65

>  <original_smiles>  (65) 
[H]c1c([H])c([H])c2c(c1[H])C([H])([H])C([H])([H])C([H])([H])C2([H])N([H])C(=O)C1([H])N(C(=O)C([H])(N([H])C(=O)C([H])(N([H])C([H])([H])[H])C([H])([H])[H])C(C([H])([H])[H])(C([H])([H])[H])C([H])([H])[H])C([H])([H])c2c([H])c(OC([H])([H])C([H])([H])C3([H])C([H])([H])C([H])([H])[N+]([H])(C([H])([H])C([H])([H])C([H])([H])N(C(=O)N4C([H])([H])C([H])([H])C([H])([H])C([H])(n5nc(-c6c([H])c([H])c(Oc7c([H])c([H])c(F)c([H])c7F)c([H])c6[H])c(C(=O)N([H])[H])c5N([H])[H])C4([H])[H])C([H])([H])C([H])([H])C([H])([H])[N+]([H])([H])[H])C([H])([H])C3([H])[H])c([H])c([H])c2C1([H])[H]

>  <smiles>  (65) 
[H]c1c([H])c([H])c2c(c1[H])C([H])([H])C([H])([H])C([H])([H])C2([H])N([H])C(=O)C1([H])N(C(=O)C([H])(N([H])C(=O)C([H])(N([H])C([H])([H])[H])C([H])([H])[H])C(C([H])([H])[H])(C([H])([H])[H])C([H])([H])[H])C([H])([H])c2c([H])c(OC([H])([H])C([H])([H])C3([H])C([H])([H])C([H])([H])[N+]([H])(C([H])([H])C([H])([H])C([H])([H])N(C(=O)N4C([H])([H])C([H])([H])C([H])([H])C([H])(n5nc(-c6c([H])c([H])c(Oc7c([H])c([H])c(F)c([H])c7F)c([H])c6[H])c(C(=O)N([H])[H])c5N([H])[H])C4([H])[H])C([H])([H])C([H])([H])C([H])([H])[N+]([H])([H])[H])C([H])([H])C3([H])[H])c([H])c([H])c2C1([H])[H]

$$$$
66:0:0
     RDKit          3D

 99107  0  0  1  0  0  0  0  0999 V2000
  -30.3190  -18.6900   19.3070 C   0  0  0  0  0  3  0  0  0  0  0  0
  -29.7470  -19.8300   18.6960 C   0  0  0  0  0  3  0  0  0  0  0  0
  -29.7950  -19.6040   21.4910 C   0  0  0  0  0  3  0  0  0  0  0  0
  -29.2510  -20.7620   20.8870 C   0  0  0  0  0  0  0  0  0  0  0  0
  -30.3510  -18.5700   20.7140 C   0  0  0  0  0  0  0  0  0  0  0  0
  -29.2080  -20.8880   19.4690 C   0  0  0  0  0  0  0  0  0  0  0  0
  -28.7150  -21.7900   21.7720 C   0  0  0  0  0  0  0  0  0  0  0  0
  -27.6240  -21.5280   22.4850 N   0  0  0  0  0  0  0  0  0  0  0  0
  -29.2930  -22.9870   21.8380 N   0  0  0  0  0  4  0  0  0  0  0  0
  -27.2050  -20.6100   22.4000 H   0  0  0  0  0  0  0  0  0  0  0  0
  -27.1360  -22.2190   23.0320 H   0  0  0  0  0  0  0  0  0  0  0  0
  -30.2530  -23.0740   21.5420 H   0  0  0  0  0  0  0  0  0  0  0  0
  -28.9140  -23.7310   22.4010 H   0  0  0  0  0  0  0  0  0  0  0  0
  -31.0730  -17.4100   21.4030 C   0  0  0  0  0  2  0  0  0  0  0  0
  -31.1540  -14.9960   20.8110 C   0  0  0  0  0  0  0  0  0  0  0  0
  -30.9400  -12.7200   19.9010 C   0  0  0  0  0  2  0  0  0  0  0  0
  -30.1310  -12.7750   18.5910 C   0  0  0  0  0  2  0  0  0  0  0  0
  -28.6200  -12.6770   18.8850 C   0  0  0  0  0  2  0  0  0  0  0  0
  -28.1540  -13.6540   19.9990 C   0  0  0  0  0  3  0  0  0  0  0  0
  -29.0940  -13.5860   21.2230 C   0  0  0  0  0  2  0  0  0  0  0  0
  -30.4690  -13.8240   20.7520 N   0  0  0  0  0  0  0  0  0  0  0  0
  -32.3120  -15.1070   20.3990 O   0  0  0  0  0  0  0  0  0  0  0  0
  -30.4790  -16.0730   21.2460 N   0  0  0  0  0  0  0  0  0  0  0  0
  -29.5300  -15.9430   21.5610 H   0  0  0  0  0  0  0  0  0  0  0  0
  -25.7230  -14.3090   20.5280 C   0  0  0  0  0  0  0  0  0  0  0  0
  -24.6130  -13.5630   20.8150 C   0  0  0  0  0  0  0  0  0  0  0  0
  -25.0440  -12.2000   20.8140 C   0  0  0  0  0  0  0  0  0  0  0  0
  -26.7630  -13.4060   20.3750 N   0  0  0  0  0  0  0  0  0  0  0  0
  -26.3530  -12.1300   20.6050 N   0  0  0  0  0  0  0  0  0  0  0  0
  -24.2760  -10.9550   20.9460 C   0  0  0  0  0  0  0  0  0  0  0  0
  -24.6390   -9.9550   21.8760 C   0  0  0  0  0  3  0  0  0  0  0  0
  -23.8740   -8.7760   21.9960 C   0  0  0  0  0  3  0  0  0  0  0  0
  -22.7270   -8.5870   21.1880 C   0  0  0  0  0  0  0  0  0  0  0  0
  -22.3830   -9.5750   20.2490 C   0  0  0  0  0  3  0  0  0  0  0  0
  -23.1490  -10.7460   20.1270 C   0  0  0  0  0  3  0  0  0  0  0  0
  -21.9390   -7.4630   21.2190 O   0  0  0  0  0  0  0  0  0  0  0  0
  -21.8420   -6.6820   22.3440 C   0  0  0  0  0  0  0  0  0  0  0  0
  -21.4220   -7.2110   23.5840 C   0  0  0  0  0  3  0  0  0  0  0  0
  -21.2700   -6.3590   24.6970 C   0  0  0  0  0  3  0  0  0  0  0  0
  -21.5240   -4.9810   24.5700 C   0  0  0  0  0  0  0  0  0  0  0  0
  -21.9350   -4.4510   23.3330 C   0  0  0  0  0  3  0  0  0  0  0  0
  -22.0900   -5.3000   22.2230 C   0  0  0  0  0  0  0  0  0  0  0  0
  -22.4650   -4.7830   21.0290 F   0  0  0  0  0  0  0  0  0  0  0  0
  -21.3690   -4.1590   25.6350 F   0  0  0  0  0  0  0  0  0  0  0  0
  -23.2110  -14.0730   20.9860 C   0  0  0  0  0  0  0  0  0  0  0  0
  -22.4030  -13.3990   21.7980 N   0  0  0  0  0  0  0  0  0  0  0  0
  -22.8360  -15.1080   20.4370 O   0  0  0  0  0  0  0  0  0  0  0  0
  -22.7160  -12.5630   22.2710 H   0  0  0  0  0  0  0  0  0  0  0  0
  -21.4550  -13.7180   21.9480 H   0  0  0  0  0  0  0  0  0  0  0  0
  -25.9330  -15.6760   20.3660 N   0  0  0  0  0  0  0  0  0  0  0  0
  -25.1740  -16.3470   20.4120 H   0  0  0  0  0  0  0  0  0  0  0  0
  -26.8160  -16.1010   20.1100 H   0  0  0  0  0  0  0  0  0  0  0  0
  -28.5040  -22.0670   18.7600 C   0  0  0  0  0  2  0  0  0  0  0  0
  -29.3200  -23.3050   18.6340 N   0  0  0  0  0  4  0  0  0  0  0  0
  -29.4930  -23.4370   17.6490 H   0  0  0  0  0  0  0  0  0  0  0  0
  -30.2180  -23.1530   19.0620 H   0  0  0  0  0  0  0  0  0  0  0  0
  -28.7080  -24.5580   19.1740 C   0  0  0  0  0  2  0  0  0  0  0  0
  -29.1220  -25.8300   18.3880 C   0  0  0  0  0  2  0  0  0  0  0  0
  -28.9120  -27.0540   19.1170 O   0  0  0  0  0  0  0  0  0  0  0  0
  -24.7010  -31.3960   22.8770 C   0  0  0  0  0  0  0  0  0  0  0  0
  -27.6510  -27.6140   19.2240 C   0  0  0  0  0  0  0  0  0  0  0  0
  -23.5770  -30.0750   21.1140 C   0  0  0  0  0  3  0  0  0  0  0  0
  -25.1180  -28.8580   19.4870 C   0  0  0  0  0  0  0  0  0  0  0  0
  -26.0490  -30.7000   20.8970 C   0  0  0  0  0  2  0  0  0  0  0  0
  -26.2420  -29.4230   20.1030 C   0  0  0  0  0  0  0  0  0  0  0  0
  -27.5060  -28.8050   19.9740 C   0  0  0  0  0  3  0  0  0  0  0  0
  -26.5020  -27.0530   18.6210 C   0  0  0  0  0  3  0  0  0  0  0  0
  -25.2440  -27.6710   18.7470 C   0  0  0  0  0  3  0  0  0  0  0  0
  -23.8000  -29.5760   19.6630 C   0  0  0  0  0  2  0  0  0  0  0  0
  -24.7940  -30.7350   21.6880 N   0  0  0  0  0  0  0  0  0  0  0  0
  -23.6210  -31.4950   23.4750 O   0  0  0  0  0  0  0  0  0  0  0  0
  -23.0670  -28.8910   21.9650 C   0  0  0  0  0  0  0  0  0  0  0  0
  -21.7650  -28.5840   21.8410 N   0  0  0  0  0  0  0  0  0  0  0  0
  -23.8360  -28.2550   22.6910 O   0  0  0  0  0  0  0  0  0  0  0  0
  -21.2030  -29.1500   21.2210 H   0  0  0  0  0  0  0  0  0  0  0  0
  -18.5600  -26.9690   22.2550 C   0  0  0  0  0  0  0  0  0  0  0  0
  -21.0780  -27.4810   22.5110 C   0  0  0  0  0  3  0  0  0  0  0  0
  -21.3310  -26.1390   21.7800 C   0  0  0  0  0  2  0  0  0  0  0  0
  -20.2350  -25.7750   20.7730 C   0  0  0  0  0  2  0  0  0  0  0  0
  -18.8690  -25.7150   21.4600 C   0  0  0  0  0  2  0  0  0  0  0  0
  -19.5980  -27.8030   22.7450 C   0  0  0  0  0  0  0  0  0  0  0  0
  -19.2580  -28.9680   23.4630 C   0  0  0  0  0  3  0  0  0  0  0  0
  -17.9120  -29.3010   23.7080 C   0  0  0  0  0  3  0  0  0  0  0  0
  -16.8870  -28.4630   23.2320 C   0  0  0  0  0  3  0  0  0  0  0  0
  -17.2110  -27.3020   22.5060 C   0  0  0  0  0  3  0  0  0  0  0  0
  -25.9430  -32.0820   23.5300 C   0  0  0  0  0  3  0  0  0  0  0  0
  -25.5060  -33.3860   24.0450 N   0  0  0  0  0  0  0  0  0  0  0  0
  -25.7030  -34.5540   23.4200 C   0  0  0  0  0  0  0  0  0  0  0  0
  -26.3410  -34.6550   22.3690 O   0  0  0  0  0  0  0  0  0  0  0  0
  -24.9340  -33.3770   24.8760 H   0  0  0  0  0  0  0  0  0  0  0  0
  -23.7840  -36.1800   23.3420 C   0  0  0  0  0  1  0  0  0  0  0  0
  -25.0920  -35.8140   24.0630 C   0  0  0  0  0  3  0  0  0  0  0  0
  -27.1560  -36.8140   24.9420 C   0  0  0  0  0  1  0  0  0  0  0  0
  -26.0040  -36.9780   24.0590 N   0  0  0  0  0  0  0  0  0  0  0  0
  -25.5100  -37.8230   24.3350 H   0  0  0  0  0  0  0  0  0  0  0  0
  -26.5980  -31.2190   24.6770 C   0  0  1  0  0  0  0  0  0  0  0  0
  -25.5870  -30.7380   25.7440 C   0  0  0  0  0  1  0  0  0  0  0  0
  -27.2990  -29.9710   24.0930 C   0  0  0  0  0  1  0  0  0  0  0  0
  -27.6930  -32.0430   25.3950 C   0  0  0  0  0  1  0  0  0  0  0  0
  1  5  1  0
  2  1  2  0
  2  6  1  0
  4  3  1  0
  4  7  1  0
  5 14  1  0
  5  3  2  0
  6  4  2  0
  7  9  2  0
  7  8  1  0
  8 11  1  0
  9 13  1  0
 10  8  1  0
 12  9  1  0
 15 23  1  0
 16 21  1  0
 17 18  1  0
 17 16  1  0
 19 18  1  0
 19 28  1  0
 19 20  1  0
 21 15  1  0
 21 20  1  0
 22 15  2  0
 23 14  1  0
 23 24  1  0
 25 26  2  0
 26 45  1  0
 27 26  1  0
 27 30  1  0
 28 25  1  0
 28 29  1  0
 29 27  2  0
 30 31  1  0
 31 32  2  0
 33 36  1  0
 33 32  1  0
 34 33  2  0
 35 34  1  0
 35 30  2  0
 36 37  1  0
 37 38  1  0
 38 39  2  0
 40 39  1  0
 40 44  1  0
 41 40  2  0
 42 37  2  0
 42 41  1  0
 43 42  1  0
 45 46  1  0
 46 49  1  0
 46 48  1  0
 47 45  2  0
 50 51  1  0
 50 25  1  0
 52 50  1  0
 53  6  1  0
 54 53  1  0
 54 56  1  0
 54 57  1  0
 55 54  1  0
 58 59  1  0
 58 57  1  0
 59 61  1  0
 60 71  2  0
 61 66  1  0
 62 70  1  0
 62 72  1  0
 63 69  1  0
 63 65  1  0
 64 70  1  0
 65 64  1  0
 66 65  2  0
 67 68  1  0
 67 61  2  0
 68 63  2  0
 69 62  1  0
 70 60  1  0
 72 74  2  0
 73 72  1  0
 75 73  1  0
 76 85  2  0
 76 81  1  0
 77 73  1  0
 77 81  1  0
 78 77  1  0
 79 80  1  0
 79 78  1  0
 80 76  1  0
 81 82  2  0
 82 83  1  0
 84 83  2  0
 85 84  1  0
 86 60  1  0
 86 87  1  0
 86 96  1  0
 87 90  1  0
 88 87  1  0
 88 92  1  0
 89 88  2  0
 92 91  1  0
 94 92  1  0
 94 95  1  0
 94 93  1  0
 96 99  1  1
 96 97  1  0
 98 96  1  0
M  ISO  4  15 100  23 100  58 101  59 101
M  END
>  <TORSDO>  (66) 
F 22

>  <SCORE>  (66) 
-9.919

>  <name>  (66) 
66

>  <ligand_id>  (66) 
66

>  <original_smiles>  (66) 
[H]c1c([H])c([H])c2c(c1[H])C([H])([H])C([H])([H])C([H])([H])C2([H])N([H])C(=O)C1([H])N(C(=O)C([H])(N([H])C(=O)C([H])(N([H])C([H])([H])[H])C([H])([H])[H])C(C([H])([H])[H])(C([H])([H])[H])C([H])([H])[H])C([H])([H])c2c([H])c(OC([H])([H])C([H])([H])[N+]([H])([H])C([H])([H])c3c([H])c([H])c(C([H])([H])N([H])C(=O)N4C([H])([H])C([H])([H])C([H])([H])C([H])(n5nc(-c6c([H])c([H])c(Oc7c([H])c([H])c(F)c([H])c7F)c([H])c6[H])c(C(=O)N([H])[H])c5N([H])[H])C4([H])[H])c([H])c3C(N([H])[H])=[N+]([H])[H])c([H])c([H])c2C1([H])[H]

>  <smiles>  (66) 
[H]c1c([H])c([H])c2c(c1[H])C([H])([H])C([H])([H])C([H])([H])C2([H])N([H])C(=O)C1([H])N(C(=O)C([H])(N([H])C(=O)C([H])(N([H])C([H])([H])[H])C([H])([H])[H])C(C([H])([H])[H])(C([H])([H])[H])C([H])([H])[H])C([H])([H])c2c([H])c(OC([H])([H])C([H])([H])[N+]([H])([H])C([H])([H])c3c([H])c([H])c(C([H])([H])N([H])C(=O)N4C([H])([H])C([H])([H])C([H])([H])C([H])(n5nc(-c6c([H])c([H])c(Oc7c([H])c([H])c(F)c([H])c7F)c([H])c6[H])c(C(=O)N([H])[H])c5N([H])[H])C4([H])[H])c([H])c3C(N([H])[H])=[N+]([H])[H])c([H])c([H])c2C1([H])[H]

$$$$
67:0:0
     RDKit          3D

 98106  0  0  1  0  0  0  0  0999 V2000
  -30.2180  -18.8240   22.8360 C   0  0  0  0  0  3  0  0  0  0  0  0
  -31.6530  -18.8630   20.8810 C   0  0  0  0  0  3  0  0  0  0  0  0
  -30.1000  -20.2330   22.7840 C   0  0  0  0  0  3  0  0  0  0  0  0
  -31.5410  -20.2760   20.8320 C   0  0  0  0  0  3  0  0  0  0  0  0
  -30.9960  -18.1160   21.8870 C   0  0  0  0  0  0  0  0  0  0  0  0
  -30.7740  -20.9810   21.7900 C   0  0  0  0  0  0  0  0  0  0  0  0
  -31.1520  -16.5770   21.9860 C   0  0  0  0  0  2  0  0  0  0  0  0
  -30.8020  -14.6150   20.4940 C   0  0  0  0  0  0  0  0  0  0  0  0
  -30.4550  -12.4530   19.3180 C   0  0  0  0  0  2  0  0  0  0  0  0
  -29.5110  -12.5860   18.1080 C   0  0  0  0  0  2  0  0  0  0  0  0
  -28.0450  -12.4070   18.5450 C   0  0  0  0  0  2  0  0  0  0  0  0
  -27.6930  -13.2750   19.7740 C   0  0  0  0  0  3  0  0  0  0  0  0
  -28.7580  -13.1250   20.8940 C   0  0  0  0  0  2  0  0  0  0  0  0
  -30.0670  -13.4690   20.3210 N   0  0  0  0  0  0  0  0  0  0  0  0
  -31.9440  -14.6920   20.0320 O   0  0  0  0  0  0  0  0  0  0  0  0
  -30.2730  -15.7080   21.1460 N   0  0  0  0  0  0  0  0  0  0  0  0
  -25.3060  -13.9020   20.5120 C   0  0  0  0  0  0  0  0  0  0  0  0
  -24.2360  -13.1330   20.8830 C   0  0  0  0  0  0  0  0  0  0  0  0
  -24.6930  -11.7810   20.8450 C   0  0  0  0  0  0  0  0  0  0  0  0
  -26.3440  -13.0150   20.2690 N   0  0  0  0  0  0  0  0  0  0  0  0
  -25.9810  -11.7350   20.5340 N   0  0  0  0  0  0  0  0  0  0  0  0
  -23.9640  -10.5210   21.0300 C   0  0  0  0  0  0  0  0  0  0  0  0
  -24.3910   -9.5530   21.9640 C   0  0  0  0  0  3  0  0  0  0  0  0
  -23.6650   -8.3560   22.1360 C   0  0  0  0  0  3  0  0  0  0  0  0
  -22.4980   -8.1190   21.3720 C   0  0  0  0  0  0  0  0  0  0  0  0
  -22.0910   -9.0750   20.4250 C   0  0  0  0  0  3  0  0  0  0  0  0
  -22.8180  -10.2650   20.2530 C   0  0  0  0  0  3  0  0  0  0  0  0
  -21.7450   -6.9720   21.4530 O   0  0  0  0  0  0  0  0  0  0  0  0
  -21.6720   -6.2390   22.6100 C   0  0  0  0  0  0  0  0  0  0  0  0
  -21.2190   -6.8040   23.8230 C   0  0  0  0  0  3  0  0  0  0  0  0
  -21.0960   -5.9970   24.9710 C   0  0  0  0  0  3  0  0  0  0  0  0
  -21.4120   -4.6270   24.9070 C   0  0  0  0  0  0  0  0  0  0  0  0
  -21.8580   -4.0620   23.7000 C   0  0  0  0  0  3  0  0  0  0  0  0
  -21.9860   -4.8650   22.5540 C   0  0  0  0  0  0  0  0  0  0  0  0
  -22.3950   -4.3140   21.3860 F   0  0  0  0  0  0  0  0  0  0  0  0
  -21.2860   -3.8500   26.0070 F   0  0  0  0  0  0  0  0  0  0  0  0
  -22.8410  -13.6160   21.1610 C   0  0  0  0  0  0  0  0  0  0  0  0
  -22.1120  -12.9200   22.0250 N   0  0  0  0  0  0  0  0  0  0  0  0
  -22.4080  -14.6460   20.6480 O   0  0  0  0  0  0  0  0  0  0  0  0
  -22.4780  -12.0850   22.4600 H   0  0  0  0  0  0  0  0  0  0  0  0
  -21.1750  -13.2250   22.2500 H   0  0  0  0  0  0  0  0  0  0  0  0
  -25.4700  -15.2710   20.3360 N   0  0  0  0  0  0  0  0  0  0  0  0
  -24.6980  -15.9180   20.4540 H   0  0  0  0  0  0  0  0  0  0  0  0
  -26.3090  -15.7160   19.9930 H   0  0  0  0  0  0  0  0  0  0  0  0
  -28.9660  -16.3310   20.8350 C   0  0  0  0  0  2  0  0  0  0  0  0
  -28.9480  -17.3730   19.6780 C   0  0  0  0  0  2  0  0  0  0  0  0
  -29.8920  -17.1380   18.4740 C   0  0  0  0  0  2  0  0  0  0  0  0
  -29.8800  -18.2630   17.5250 N   0  0  0  0  0  4  0  0  0  0  0  0
  -30.5080  -18.0620   16.7650 H   0  0  0  0  0  0  0  0  0  0  0  0
  -30.2020  -19.1080   17.9700 H   0  0  0  0  0  0  0  0  0  0  0  0
  -28.9650  -18.4160   17.1400 H   0  0  0  0  0  0  0  0  0  0  0  0
  -30.7570  -22.5250   21.8170 C   0  0  0  0  0  2  0  0  0  0  0  0
  -29.6720  -23.1720   21.0290 N   0  0  0  0  0  4  0  0  0  0  0  0
  -29.7550  -22.8560   20.0770 H   0  0  0  0  0  0  0  0  0  0  0  0
  -28.7930  -22.8300   21.3840 H   0  0  0  0  0  0  0  0  0  0  0  0
  -29.6790  -24.6730   21.0560 C   0  0  0  0  0  2  0  0  0  0  0  0
  -28.4820  -25.3310   20.3090 C   0  0  0  0  0  2  0  0  0  0  0  0
  -28.5780  -26.7730   20.2630 O   0  0  0  0  0  0  0  0  0  0  0  0
  -24.6730  -31.9060   23.2420 C   0  0  0  0  0  0  0  0  0  0  0  0
  -27.3980  -27.4940   20.1920 C   0  0  0  0  0  0  0  0  0  0  0  0
  -23.4960  -30.5060   21.5780 C   0  0  0  0  0  3  0  0  0  0  0  0
  -24.9820  -28.9880   20.1590 C   0  0  0  0  0  0  0  0  0  0  0  0
  -26.0200  -30.8920   21.4050 C   0  0  0  0  0  2  0  0  0  0  0  0
  -26.1280  -29.5230   20.7610 C   0  0  0  0  0  0  0  0  0  0  0  0
  -27.3370  -28.7870   20.7670 C   0  0  0  0  0  3  0  0  0  0  0  0
  -26.2360  -26.9820   19.5680 C   0  0  0  0  0  3  0  0  0  0  0  0
  -25.0330  -27.7190   19.5550 C   0  0  0  0  0  3  0  0  0  0  0  0
  -23.7280  -29.8350   20.1960 C   0  0  0  0  0  2  0  0  0  0  0  0
  -24.7470  -31.1160   22.1330 N   0  0  0  0  0  0  0  0  0  0  0  0
  -23.5840  -32.1640   23.7750 O   0  0  0  0  0  0  0  0  0  0  0  0
  -22.8450  -29.4730   22.5260 C   0  0  0  0  0  0  0  0  0  0  0  0
  -21.5240  -29.2790   22.3820 N   0  0  0  0  0  0  0  0  0  0  0  0
  -23.5250  -28.8460   23.3430 O   0  0  0  0  0  0  0  0  0  0  0  0
  -21.0340  -29.8330   21.6940 H   0  0  0  0  0  0  0  0  0  0  0  0
  -18.1530  -28.0610   22.8480 C   0  0  0  0  0  0  0  0  0  0  0  0
  -20.7080  -28.3290   23.1390 C   0  0  0  0  0  3  0  0  0  0  0  0
  -20.8230  -26.9050   22.5460 C   0  0  0  0  0  2  0  0  0  0  0  0
  -19.7290  -26.5890   21.5200 C   0  0  0  0  0  2  0  0  0  0  0  0
  -18.3420  -26.7190   22.1570 C   0  0  0  0  0  2  0  0  0  0  0  0
  -19.2660  -28.8240   23.2940 C   0  0  0  0  0  0  0  0  0  0  0  0
  -19.0380  -30.0790   23.8960 C   0  0  0  0  0  3  0  0  0  0  0  0
  -17.7290  -30.5730   24.0590 C   0  0  0  0  0  3  0  0  0  0  0  0
  -16.6310  -29.8080   23.6300 C   0  0  0  0  0  3  0  0  0  0  0  0
  -16.8440  -28.5530   23.0280 C   0  0  0  0  0  3  0  0  0  0  0  0
  -25.9460  -32.5450   23.8790 C   0  0  0  0  0  3  0  0  0  0  0  0
  -26.4560  -31.7720   25.1570 C   0  0  1  0  0  0  0  0  0  0  0  0
  -25.3510  -31.5170   26.2080 C   0  0  0  0  0  1  0  0  0  0  0  0
  -27.0610  -30.4040   24.7630 C   0  0  0  0  0  1  0  0  0  0  0  0
  -27.5860  -32.5780   25.8420 C   0  0  0  0  0  1  0  0  0  0  0  0
  -25.6270  -33.9400   24.2080 N   0  0  0  0  0  0  0  0  0  0  0  0
  -25.9490  -34.9940   23.4450 C   0  0  0  0  0  0  0  0  0  0  0  0
  -26.6200  -34.8940   22.4130 O   0  0  0  0  0  0  0  0  0  0  0  0
  -25.0330  -34.0910   25.0090 H   0  0  0  0  0  0  0  0  0  0  0  0
  -24.1960  -36.7620   23.0950 C   0  0  0  0  0  1  0  0  0  0  0  0
  -25.4490  -36.3780   23.8990 C   0  0  0  0  0  3  0  0  0  0  0  0
  -27.5770  -37.2950   24.7090 C   0  0  0  0  0  1  0  0  0  0  0  0
  -26.4670  -37.4430   23.7720 N   0  0  0  0  0  0  0  0  0  0  0  0
  -26.0490  -38.3590   23.9180 H   0  0  0  0  0  0  0  0  0  0  0  0
  2  5  1  0
  3  1  1  0
  4  2  2  0
  4  6  1  0
  5  7  1  0
  5  1  2  0
  6 52  1  0
  6  3  2  0
  8 16  1  0
  9 14  1  0
 10 11  1  0
 10  9  1  0
 12 11  1  0
 12 20  1  0
 12 13  1  0
 14  8  1  0
 14 13  1  0
 15  8  2  0
 16  7  1  0
 17 18  2  0
 18 37  1  0
 19 18  1  0
 19 22  1  0
 20 17  1  0
 20 21  1  0
 21 19  2  0
 22 23  1  0
 23 24  2  0
 25 28  1  0
 25 24  1  0
 26 25  2  0
 27 26  1  0
 27 22  2  0
 28 29  1  0
 29 30  1  0
 30 31  2  0
 32 31  1  0
 32 36  1  0
 33 32  2  0
 34 29  2  0
 34 33  1  0
 35 34  1  0
 37 38  1  0
 38 41  1  0
 38 40  1  0
 39 37  2  0
 42 43  1  0
 42 17  1  0
 44 42  1  0
 45 16  1  0
 46 45  1  0
 47 46  1  0
 48 50  1  0
 48 47  1  0
 49 48  1  0
 51 48  1  0
 53 56  1  0
 53 55  1  0
 53 52  1  0
 54 53  1  0
 57 56  1  0
 58 57  1  0
 59 70  2  0
 60 58  1  0
 60 65  1  0
 61 69  1  0
 61 71  1  0
 62 68  1  0
 62 64  1  0
 63 69  1  0
 64 65  2  0
 64 63  1  0
 66 60  2  0
 67 66  1  0
 67 62  2  0
 68 61  1  0
 69 59  1  0
 71 73  2  0
 72 71  1  0
 74 72  1  0
 75 84  2  0
 75 80  1  0
 76 72  1  0
 76 80  1  0
 77 76  1  0
 78 79  1  0
 78 77  1  0
 79 75  1  0
 80 81  2  0
 81 82  1  0
 83 82  2  0
 84 83  1  0
 85 59  1  0
 85 90  1  0
 85 86  1  0
 86 89  1  1
 86 87  1  0
 88 86  1  0
 90 93  1  0
 91 95  1  0
 91 90  1  0
 92 91  2  0
 95 94  1  0
 97 95  1  0
 97 98  1  0
 97 96  1  0
M  ISO  4   8 100  16 100  57 101  58 101
M  END
>  <TORSDO>  (67) 
F 25

>  <SCORE>  (67) 
-11.520

>  <name>  (67) 
67

>  <ligand_id>  (67) 
67

>  <original_smiles>  (67) 
[H]c1c([H])c([H])c2c(c1[H])C([H])([H])C([H])([H])C([H])([H])C2([H])N([H])C(=O)C1([H])N(C(=O)C([H])(N([H])C(=O)C([H])(N([H])C([H])([H])[H])C([H])([H])[H])C(C([H])([H])[H])(C([H])([H])[H])C([H])([H])[H])C([H])([H])c2c([H])c(OC([H])([H])C([H])([H])[N+]([H])([H])C([H])([H])c3c([H])c([H])c(C([H])([H])N(C(=O)N4C([H])([H])C([H])([H])C([H])([H])C([H])(n5nc(-c6c([H])c([H])c(Oc7c([H])c([H])c(F)c([H])c7F)c([H])c6[H])c(C(=O)N([H])[H])c5N([H])[H])C4([H])[H])C([H])([H])C([H])([H])C([H])([H])[N+]([H])([H])[H])c([H])c3[H])c([H])c([H])c2C1([H])[H]

>  <smiles>  (67) 
[H]c1c([H])c([H])c2c(c1[H])C([H])([H])C([H])([H])C([H])([H])C2([H])N([H])C(=O)C1([H])N(C(=O)C([H])(N([H])C(=O)C([H])(N([H])C([H])([H])[H])C([H])([H])[H])C(C([H])([H])[H])(C([H])([H])[H])C([H])([H])[H])C([H])([H])c2c([H])c(OC([H])([H])C([H])([H])[N+]([H])([H])C([H])([H])c3c([H])c([H])c(C([H])([H])N(C(=O)N4C([H])([H])C([H])([H])C([H])([H])C([H])(n5nc(-c6c([H])c([H])c(Oc7c([H])c([H])c(F)c([H])c7F)c([H])c6[H])c(C(=O)N([H])[H])c5N([H])[H])C4([H])[H])C([H])([H])C([H])([H])C([H])([H])[N+]([H])([H])[H])c([H])c3[H])c([H])c([H])c2C1([H])[H]

$$$$
68:0:0
     RDKit          3D

 90 98  0  0  1  0  0  0  0  0999 V2000
  -31.5640  -22.2180   20.4230 C   0  0  0  0  0  2  0  0  0  0  0  0
  -30.6740  -22.7050   19.2710 C   0  0  0  0  0  2  0  0  0  0  0  0
  -30.6280  -21.4560   21.3760 C   0  0  0  0  0  2  0  0  0  0  0  0
  -29.2340  -22.4930   19.7690 C   0  0  0  0  0  3  0  0  0  0  0  0
  -29.3710  -21.2280   20.6260 N   0  0  1  0  0  4  0  0  0  0  0  0
  -28.5950  -21.1800   21.2700 H   0  0  0  0  0  0  0  0  0  0  0  0
  -28.7140  -23.8490   20.4840 C   0  0  0  0  0  3  0  0  0  0  0  0
  -28.4860  -25.1680   19.5920 C   0  0  0  0  0  3  0  0  0  0  0  0
  -28.3650  -26.5110   20.2250 O   0  0  0  0  0  0  0  0  0  0  0  0
  -24.6100  -31.8840   23.2370 C   0  0  0  0  0  0  0  0  0  0  0  0
  -27.2170  -27.3220   20.1610 C   0  0  0  0  0  0  0  0  0  0  0  0
  -23.4010  -30.4870   21.6000 C   0  0  0  0  0  3  0  0  0  0  0  0
  -24.8460  -28.9380   20.1690 C   0  0  0  0  0  0  0  0  0  0  0  0
  -25.9410  -30.8050   21.4090 C   0  0  0  0  0  2  0  0  0  0  0  0
  -26.0170  -29.4250   20.7600 C   0  0  0  0  0  0  0  0  0  0  0  0
  -27.1990  -28.6290   20.7470 C   0  0  0  0  0  3  0  0  0  0  0  0
  -26.0120  -26.8810   19.5630 C   0  0  0  0  0  3  0  0  0  0  0  0
  -24.8460  -27.6710   19.5650 C   0  0  0  0  0  3  0  0  0  0  0  0
  -23.6110  -29.8150   20.2190 C   0  0  0  0  0  2  0  0  0  0  0  0
  -24.6700  -31.0760   22.1380 N   0  0  0  0  0  0  0  0  0  0  0  0
  -23.5280  -32.1600   23.7750 O   0  0  0  0  0  0  0  0  0  0  0  0
  -22.7430  -29.4690   22.5610 C   0  0  0  0  0  0  0  0  0  0  0  0
  -21.4170  -29.2850   22.4320 N   0  0  0  0  0  0  0  0  0  0  0  0
  -23.4220  -28.8480   23.3820 O   0  0  0  0  0  0  0  0  0  0  0  0
  -20.9290  -29.8390   21.7430 H   0  0  0  0  0  0  0  0  0  0  0  0
  -18.0490  -28.0560   22.9070 C   0  0  0  0  0  0  0  0  0  0  0  0
  -20.6010  -28.3480   23.2040 C   0  0  0  0  0  3  0  0  0  0  0  0
  -20.7260  -26.9110   22.6450 C   0  0  0  0  0  2  0  0  0  0  0  0
  -19.6380  -26.5640   21.6220 C   0  0  0  0  0  2  0  0  0  0  0  0
  -18.2480  -26.7010   22.2490 C   0  0  0  0  0  2  0  0  0  0  0  0
  -19.1540  -28.8350   23.3420 C   0  0  0  0  0  0  0  0  0  0  0  0
  -18.9150  -30.1020   23.9190 C   0  0  0  0  0  3  0  0  0  0  0  0
  -17.6030  -30.5890   24.0660 C   0  0  0  0  0  3  0  0  0  0  0  0
  -16.5120  -29.8080   23.6470 C   0  0  0  0  0  3  0  0  0  0  0  0
  -16.7360  -28.5440   23.0730 C   0  0  0  0  0  3  0  0  0  0  0  0
  -25.8930  -32.5150   23.8560 C   0  0  0  0  0  3  0  0  0  0  0  0
  -25.5840  -33.9140   24.1880 N   0  0  0  0  0  0  0  0  0  0  0  0
  -25.9130  -34.9680   23.4300 C   0  0  0  0  0  0  0  0  0  0  0  0
  -26.5780  -34.8660   22.3950 O   0  0  0  0  0  0  0  0  0  0  0  0
  -24.9890  -34.0660   24.9900 H   0  0  0  0  0  0  0  0  0  0  0  0
  -24.1780  -36.7590   23.0910 C   0  0  0  0  0  1  0  0  0  0  0  0
  -25.4270  -36.3550   23.8910 C   0  0  0  0  0  3  0  0  0  0  0  0
  -27.5680  -37.2430   24.7020 C   0  0  0  0  0  1  0  0  0  0  0  0
  -26.4550  -37.4100   23.7700 N   0  0  0  0  0  0  0  0  0  0  0  0
  -26.0490  -38.3290   23.9240 H   0  0  0  0  0  0  0  0  0  0  0  0
  -26.4130  -31.7440   25.1320 C   0  0  1  0  0  0  0  0  0  0  0  0
  -25.3230  -31.5090   26.2050 C   0  0  0  0  0  1  0  0  0  0  0  0
  -26.9910  -30.3650   24.7400 C   0  0  0  0  0  1  0  0  0  0  0  0
  -27.5670  -32.5360   25.7880 C   0  0  0  0  0  1  0  0  0  0  0  0
  -29.4280  -19.8830   19.8810 C   0  0  0  0  0  2  0  0  0  0  0  0
  -29.4440  -18.4960   20.7090 C   0  0  0  0  0  3  0  0  0  0  0  0
  -30.0630  -17.2030   19.9860 C   0  0  0  0  0  3  0  0  0  0  0  0
  -30.5800  -14.6880   20.3150 C   0  0  0  0  0  0  0  0  0  0  0  0
  -30.3430  -12.4350   19.3010 C   0  0  0  0  0  2  0  0  0  0  0  0
  -29.3970  -12.5540   18.0850 C   0  0  0  0  0  2  0  0  0  0  0  0
  -27.9270  -12.4020   18.5230 C   0  0  0  0  0  2  0  0  0  0  0  0
  -27.5770  -13.2780   19.7570 C   0  0  0  0  0  3  0  0  0  0  0  0
  -28.6430  -13.1470   20.8690 C   0  0  0  0  0  2  0  0  0  0  0  0
  -29.9450  -13.4730   20.2750 N   0  0  0  0  0  0  0  0  0  0  0  0
  -31.7490  -14.7980   19.9340 O   0  0  0  0  0  0  0  0  0  0  0  0
  -29.8090  -15.8090   20.5300 N   0  0  0  0  0  0  0  0  0  0  0  0
  -28.8680  -15.6220   20.8470 H   0  0  0  0  0  0  0  0  0  0  0  0
  -25.1930  -13.8830   20.4940 C   0  0  0  0  0  0  0  0  0  0  0  0
  -24.1270  -13.1130   20.8730 C   0  0  0  0  0  0  0  0  0  0  0  0
  -24.5860  -11.7610   20.8440 C   0  0  0  0  0  0  0  0  0  0  0  0
  -26.2330  -13.0000   20.2540 N   0  0  0  0  0  0  0  0  0  0  0  0
  -25.8740  -11.7190   20.5270 N   0  0  0  0  0  0  0  0  0  0  0  0
  -23.8590  -10.5000   21.0420 C   0  0  0  0  0  0  0  0  0  0  0  0
  -24.3050   -9.5250   21.9620 C   0  0  0  0  0  3  0  0  0  0  0  0
  -23.5760   -8.3310   22.1500 C   0  0  0  0  0  3  0  0  0  0  0  0
  -22.3870   -8.1030   21.4170 C   0  0  0  0  0  0  0  0  0  0  0  0
  -21.9590   -9.0660   20.4870 C   0  0  0  0  0  3  0  0  0  0  0  0
  -22.6890  -10.2520   20.2970 C   0  0  0  0  0  3  0  0  0  0  0  0
  -21.6290   -6.9600   21.5140 O   0  0  0  0  0  0  0  0  0  0  0  0
  -21.6150   -6.2010   22.6560 C   0  0  0  0  0  0  0  0  0  0  0  0
  -21.2480   -6.7440   23.9070 C   0  0  0  0  0  3  0  0  0  0  0  0
  -21.1780   -5.9130   25.0420 C   0  0  0  0  0  3  0  0  0  0  0  0
  -21.4670   -4.5390   24.9290 C   0  0  0  0  0  0  0  0  0  0  0  0
  -21.8280   -3.9960   23.6830 C   0  0  0  0  0  3  0  0  0  0  0  0
  -21.8990   -4.8250   22.5500 C   0  0  0  0  0  0  0  0  0  0  0  0
  -22.2270   -4.2920   21.3470 F   0  0  0  0  0  0  0  0  0  0  0  0
  -21.3920   -3.7390   26.0170 F   0  0  0  0  0  0  0  0  0  0  0  0
  -22.7320  -13.5950   21.1500 C   0  0  0  0  0  0  0  0  0  0  0  0
  -22.0080  -12.9070   22.0260 N   0  0  0  0  0  0  0  0  0  0  0  0
  -22.2940  -14.6180   20.6260 O   0  0  0  0  0  0  0  0  0  0  0  0
  -22.3760  -12.0770   22.4700 H   0  0  0  0  0  0  0  0  0  0  0  0
  -21.0730  -13.2110   22.2540 H   0  0  0  0  0  0  0  0  0  0  0  0
  -25.3590  -15.2530   20.3100 N   0  0  0  0  0  0  0  0  0  0  0  0
  -24.5930  -15.9070   20.4260 H   0  0  0  0  0  0  0  0  0  0  0  0
  -26.1940  -15.6860   19.9380 H   0  0  0  0  0  0  0  0  0  0  0  0
  1  3  1  0
  2  4  1  0
  2  1  1  0
  4  7  1  0
  4  5  1  0
  5  6  1  1
  5  3  1  0
  8  9  1  0
  8  7  2  0
 10 21  2  0
 11  9  1  0
 11 16  1  0
 12 20  1  0
 12 22  1  0
 13 19  1  0
 13 15  1  0
 14 20  1  0
 15 14  1  0
 16 15  2  0
 17 18  1  0
 17 11  2  0
 18 13  2  0
 19 12  1  0
 20 10  1  0
 22 24  2  0
 23 22  1  0
 25 23  1  0
 26 35  2  0
 26 31  1  0
 27 23  1  0
 27 31  1  0
 28 27  1  0
 29 30  1  0
 29 28  1  0
 30 26  1  0
 31 32  2  0
 32 33  1  0
 34 33  2  0
 35 34  1  0
 36 10  1  0
 36 37  1  0
 36 46  1  0
 37 40  1  0
 38 42  1  0
 38 37  1  0
 39 38  2  0
 42 41  1  0
 44 42  1  0
 44 45  1  0
 44 43  1  0
 46 49  1  1
 46 47  1  0
 48 46  1  0
 50  5  1  0
 50 51  1  0
 52 61  1  0
 52 51  2  0
 53 61  1  0
 54 59  1  0
 55 56  1  0
 55 54  1  0
 57 56  1  0
 57 66  1  0
 57 58  1  0
 59 53  1  0
 59 58  1  0
 60 53  2  0
 61 62  1  0
 63 64  2  0
 64 83  1  0
 65 64  1  0
 65 68  1  0
 66 63  1  0
 66 67  1  0
 67 65  2  0
 68 69  1  0
 69 70  2  0
 71 74  1  0
 71 70  1  0
 72 71  2  0
 73 72  1  0
 73 68  2  0
 74 75  1  0
 75 76  1  0
 76 77  2  0
 78 77  1  0
 78 82  1  0
 79 78  2  0
 80 75  2  0
 80 79  1  0
 81 80  1  0
 83 84  1  0
 84 87  1  0
 84 86  1  0
 85 83  2  0
 88 89  1  0
 88 63  1  0
 90 88  1  0
M  ISO  4   8 101   9 101  53 100  61 100
M  END
>  <TORSDO>  (68) 
F 21

>  <SCORE>  (68) 
-13.358

>  <name>  (68) 
68

>  <ligand_id>  (68) 
68

>  <original_smiles>  (68) 
[H]c1c([H])c([H])c2c(c1[H])C([H])([H])C([H])([H])C([H])([H])C2([H])N([H])C(=O)C1([H])N(C(=O)C([H])(N([H])C(=O)C([H])(N([H])C([H])([H])[H])C([H])([H])[H])C(C([H])([H])[H])(C([H])([H])[H])C([H])([H])[H])C([H])([H])c2c([H])c(OC([H])([H])C([H])([H])C3([H])C([H])([H])C([H])([H])C([H])([H])[N+]3([H])C([H])([H])C([H])([H])C([H])([H])N([H])C(=O)N3C([H])([H])C([H])([H])C([H])([H])C([H])(n4nc(-c5c([H])c([H])c(Oc6c([H])c([H])c(F)c([H])c6F)c([H])c5[H])c(C(=O)N([H])[H])c4N([H])[H])C3([H])[H])c([H])c([H])c2C1([H])[H]

>  <smiles>  (68) 
[H]c1c([H])c([H])c2c(c1[H])C([H])([H])C([H])([H])C([H])([H])C2([H])N([H])C(=O)C1([H])N(C(=O)C([H])(N([H])C(=O)C([H])(N([H])C([H])([H])[H])C([H])([H])[H])C(C([H])([H])[H])(C([H])([H])[H])C([H])([H])[H])C([H])([H])c2c([H])c(OC([H])([H])C([H])([H])C3([H])C([H])([H])C([H])([H])C([H])([H])[N+]3([H])C([H])([H])C([H])([H])C([H])([H])N([H])C(=O)N3C([H])([H])C([H])([H])C([H])([H])C([H])(n4nc(-c5c([H])c([H])c(Oc6c([H])c([H])c(F)c([H])c6F)c([H])c5[H])c(C(=O)N([H])[H])c4N([H])[H])C3([H])[H])c([H])c([H])c2C1([H])[H]

$$$$
69:0:0
     RDKit          3D

 88 96  0  0  1  0  0  0  0  0999 V2000
  -28.8550  -21.7200   20.8200 C   0  0  0  0  0  2  0  0  0  0  0  0
  -30.5240  -15.1130   20.2130 C   0  0  0  0  0  0  0  0  0  0  0  0
  -30.3650  -12.7260   19.3140 C   0  0  0  0  0  2  0  0  0  0  0  0
  -29.4330  -12.5870   18.0930 C   0  0  0  0  0  2  0  0  0  0  0  0
  -27.9980  -12.3020   18.5680 C   0  0  0  0  0  2  0  0  0  0  0  0
  -27.5560  -13.2850   19.6790 C   0  0  0  0  0  3  0  0  0  0  0  0
  -28.6220  -13.4320   20.7930 C   0  0  0  0  0  2  0  0  0  0  0  0
  -29.8650  -13.8700   20.1450 N   0  0  0  0  0  0  0  0  0  0  0  0
  -31.7380  -15.0570   19.9830 O   0  0  0  0  0  0  0  0  0  0  0  0
  -28.1740  -18.0420   19.2350 C   0  0  0  0  0  2  0  0  0  0  0  0
  -28.4790  -16.8540   20.2550 C   0  0  0  0  0  2  0  0  0  0  0  0
  -30.6470  -17.7980   20.4190 C   0  0  0  0  0  2  0  0  0  0  0  0
  -27.9800  -19.5270   19.7640 C   0  0  0  0  0  2  0  0  0  0  0  0
  -30.0180  -19.2330   21.0360 C   0  0  0  0  0  2  0  0  0  0  0  0
  -29.9020  -16.4320   20.3490 N   0  0  0  0  0  0  0  0  0  0  0  0
  -29.2100  -20.2750   20.1930 N   0  0  2  0  0  4  0  0  0  0  0  0
  -29.7770  -20.4540   19.3760 H   0  0  0  0  0  0  0  0  0  0  0  0
  -25.1970  -13.8690   20.4830 C   0  0  0  0  0  0  0  0  0  0  0  0
  -24.1460  -13.0940   20.8810 C   0  0  0  0  0  0  0  0  0  0  0  0
  -24.6170  -11.7440   20.8420 C   0  0  0  0  0  0  0  0  0  0  0  0
  -26.2360  -12.9920   20.2160 N   0  0  0  0  0  0  0  0  0  0  0  0
  -25.9000  -11.7110   20.5030 N   0  0  0  0  0  0  0  0  0  0  0  0
  -23.8990  -10.4780   21.0390 C   0  0  0  0  0  0  0  0  0  0  0  0
  -24.3570   -9.5030   21.9520 C   0  0  0  0  0  3  0  0  0  0  0  0
  -23.6380   -8.3030   22.1420 C   0  0  0  0  0  3  0  0  0  0  0  0
  -22.4500   -8.0650   21.4100 C   0  0  0  0  0  0  0  0  0  0  0  0
  -22.0090   -9.0290   20.4860 C   0  0  0  0  0  3  0  0  0  0  0  0
  -22.7290  -10.2220   20.2980 C   0  0  0  0  0  3  0  0  0  0  0  0
  -21.7010   -6.9160   21.5090 O   0  0  0  0  0  0  0  0  0  0  0  0
  -21.6840   -6.1640   22.6550 C   0  0  0  0  0  0  0  0  0  0  0  0
  -21.2880   -6.7050   23.8970 C   0  0  0  0  0  3  0  0  0  0  0  0
  -21.2230   -5.8760   25.0350 C   0  0  0  0  0  3  0  0  0  0  0  0
  -21.5370   -4.5090   24.9310 C   0  0  0  0  0  0  0  0  0  0  0  0
  -21.9260   -3.9680   23.6950 C   0  0  0  0  0  3  0  0  0  0  0  0
  -21.9970   -4.7930   22.5580 C   0  0  0  0  0  0  0  0  0  0  0  0
  -22.3490   -4.2620   21.3620 F   0  0  0  0  0  0  0  0  0  0  0  0
  -21.4680   -3.7100   26.0220 F   0  0  0  0  0  0  0  0  0  0  0  0
  -22.7500  -13.5640   21.1720 C   0  0  0  0  0  0  0  0  0  0  0  0
  -22.0430  -12.8710   22.0560 N   0  0  0  0  0  0  0  0  0  0  0  0
  -22.2940  -14.5820   20.6510 O   0  0  0  0  0  0  0  0  0  0  0  0
  -22.4130  -12.0460   22.4990 H   0  0  0  0  0  0  0  0  0  0  0  0
  -21.1040  -13.1680   22.2780 H   0  0  0  0  0  0  0  0  0  0  0  0
  -25.3490  -15.2390   20.2860 N   0  0  0  0  0  0  0  0  0  0  0  0
  -24.5780  -15.8930   20.3660 H   0  0  0  0  0  0  0  0  0  0  0  0
  -26.1560  -15.6410   19.8310 H   0  0  0  0  0  0  0  0  0  0  0  0
  -28.7940  -23.2360   20.0320 C   0  0  0  0  0  3  0  0  0  0  0  0
  -28.1690  -24.6840   20.6950 C   0  0  0  0  0  3  0  0  0  0  0  0
  -28.3260  -26.1880   20.2600 O   0  0  0  0  0  0  0  0  0  0  0  0
  -24.6210  -31.8750   23.2390 C   0  0  0  0  0  0  0  0  0  0  0  0
  -27.2480  -27.1520   20.2610 C   0  0  0  0  0  0  0  0  0  0  0  0
  -23.4390  -30.4670   21.5940 C   0  0  0  0  0  3  0  0  0  0  0  0
  -24.9060  -28.8840   20.1940 C   0  0  0  0  0  0  0  0  0  0  0  0
  -25.9930  -30.7470   21.4440 C   0  0  0  0  0  2  0  0  0  0  0  0
  -26.0820  -29.3460   20.8030 C   0  0  0  0  0  0  0  0  0  0  0  0
  -27.2570  -28.5020   20.8070 C   0  0  0  0  0  3  0  0  0  0  0  0
  -26.0480  -26.7890   19.6170 C   0  0  0  0  0  3  0  0  0  0  0  0
  -24.9040  -27.6200   19.5800 C   0  0  0  0  0  3  0  0  0  0  0  0
  -23.6740  -29.7750   20.2220 C   0  0  0  0  0  2  0  0  0  0  0  0
  -24.7040  -31.0530   22.1470 N   0  0  0  0  0  0  0  0  0  0  0  0
  -23.5320  -32.1550   23.7590 O   0  0  0  0  0  0  0  0  0  0  0  0
  -22.7530  -29.4700   22.5590 C   0  0  0  0  0  0  0  0  0  0  0  0
  -21.4250  -29.3000   22.4300 N   0  0  0  0  0  0  0  0  0  0  0  0
  -23.4180  -28.8470   23.3920 O   0  0  0  0  0  0  0  0  0  0  0  0
  -20.9420  -29.8550   21.7370 H   0  0  0  0  0  0  0  0  0  0  0  0
  -18.0410  -28.0940   22.9190 C   0  0  0  0  0  0  0  0  0  0  0  0
  -20.5980  -28.3660   23.1980 C   0  0  0  0  0  3  0  0  0  0  0  0
  -20.7060  -26.9310   22.6320 C   0  0  0  0  0  2  0  0  0  0  0  0
  -19.6110  -26.6000   21.6120 C   0  0  0  0  0  2  0  0  0  0  0  0
  -18.2250  -26.7430   22.2460 C   0  0  0  0  0  2  0  0  0  0  0  0
  -19.1550  -28.8630   23.3510 C   0  0  0  0  0  0  0  0  0  0  0  0
  -18.9270  -30.1250   23.9390 C   0  0  0  0  0  3  0  0  0  0  0  0
  -17.6180  -30.6190   24.1000 C   0  0  0  0  0  3  0  0  0  0  0  0
  -16.5190  -29.8480   23.6820 C   0  0  0  0  0  3  0  0  0  0  0  0
  -16.7320  -28.5880   23.0960 C   0  0  0  0  0  3  0  0  0  0  0  0
  -25.8930  -32.5200   23.8720 C   0  0  0  0  0  3  0  0  0  0  0  0
  -25.5740  -33.9210   24.1920 N   0  0  0  0  0  0  0  0  0  0  0  0
  -25.9110  -34.9770   23.4340 C   0  0  0  0  0  0  0  0  0  0  0  0
  -26.5870  -34.8710   22.4070 O   0  0  0  0  0  0  0  0  0  0  0  0
  -24.9780  -34.0740   24.9900 H   0  0  0  0  0  0  0  0  0  0  0  0
  -24.1860  -36.7760   23.0710 C   0  0  0  0  0  1  0  0  0  0  0  0
  -25.4230  -36.3680   23.8890 C   0  0  0  0  0  3  0  0  0  0  0  0
  -27.5550  -37.2580   24.7220 C   0  0  0  0  0  1  0  0  0  0  0  0
  -26.4570  -37.4210   23.7740 N   0  0  0  0  0  0  0  0  0  0  0  0
  -26.0490  -38.3410   23.9140 H   0  0  0  0  0  0  0  0  0  0  0  0
  -26.3910  -31.7640   25.1660 C   0  0  1  0  0  0  0  0  0  0  0  0
  -25.2870  -31.5410   26.2270 C   0  0  0  0  0  1  0  0  0  0  0  0
  -26.9730  -30.3780   24.8030 C   0  0  0  0  0  1  0  0  0  0  0  0
  -27.5330  -32.5640   25.8350 C   0  0  0  0  0  1  0  0  0  0  0  0
  2 15  1  0
  3  8  1  0
  4  5  1  0
  4  3  1  0
  6  5  1  0
  6 21  1  0
  6  7  1  0
  8  2  1  0
  8  7  1  0
  9  2  2  0
 10 13  1  0
 10 11  1  0
 11 15  1  0
 12 14  1  0
 13 16  1  0
 15 12  1  0
 16  1  1  0
 16 14  1  0
 16 17  1  6
 18 19  2  0
 19 38  1  0
 20 19  1  0
 20 23  1  0
 21 18  1  0
 21 22  1  0
 22 20  2  0
 23 24  1  0
 24 25  2  0
 26 29  1  0
 26 25  1  0
 27 26  2  0
 28 27  1  0
 28 23  2  0
 29 30  1  0
 30 31  1  0
 31 32  2  0
 33 32  1  0
 33 37  1  0
 34 33  2  0
 35 30  2  0
 35 34  1  0
 36 35  1  0
 38 39  1  0
 39 42  1  0
 39 41  1  0
 40 38  2  0
 43 44  1  0
 43 18  1  0
 45 43  1  0
 46 47  2  0
 46  1  1  0
 48 50  1  0
 48 47  1  0
 49 60  2  0
 50 55  1  0
 51 59  1  0
 51 61  1  0
 52 58  1  0
 52 54  1  0
 53 59  1  0
 54 55  2  0
 54 53  1  0
 56 50  2  0
 57 56  1  0
 57 52  2  0
 58 51  1  0
 59 49  1  0
 61 63  2  0
 62 61  1  0
 64 62  1  0
 65 74  2  0
 65 70  1  0
 66 62  1  0
 66 70  1  0
 67 66  1  0
 68 69  1  0
 68 67  1  0
 69 65  1  0
 70 71  2  0
 71 72  1  0
 73 72  2  0
 74 73  1  0
 75 49  1  0
 75 76  1  0
 75 85  1  0
 76 79  1  0
 77 81  1  0
 77 76  1  0
 78 77  2  0
 81 80  1  0
 83 81  1  0
 83 84  1  0
 83 82  1  0
 85 88  1  1
 85 86  1  0
 87 85  1  0
M  ISO  4   2 100  15 100  47 101  48 101
M  END
>  <TORSDO>  (69) 
F 18

>  <SCORE>  (69) 
-16.015

>  <name>  (69) 
69

>  <ligand_id>  (69) 
69

>  <original_smiles>  (69) 
[H]c1c([H])c([H])c2c(c1[H])C([H])([H])C([H])([H])C([H])([H])C2([H])N([H])C(=O)C1([H])N(C(=O)C([H])(N([H])C(=O)C([H])(N([H])C([H])([H])[H])C([H])([H])[H])C(C([H])([H])[H])(C([H])([H])[H])C([H])([H])[H])C([H])([H])c2c([H])c(OC([H])([H])C([H])([H])C([H])([H])[N+]3([H])C([H])([H])C([H])([H])N(C(=O)N4C([H])([H])C([H])([H])C([H])([H])C([H])(n5nc(-c6c([H])c([H])c(Oc7c([H])c([H])c(F)c([H])c7F)c([H])c6[H])c(C(=O)N([H])[H])c5N([H])[H])C4([H])[H])C([H])([H])C([H])([H])C3([H])[H])c([H])c([H])c2C1([H])[H]

>  <smiles>  (69) 
[H]c1c([H])c([H])c2c(c1[H])C([H])([H])C([H])([H])C([H])([H])C2([H])N([H])C(=O)C1([H])N(C(=O)C([H])(N([H])C(=O)C([H])(N([H])C([H])([H])[H])C([H])([H])[H])C(C([H])([H])[H])(C([H])([H])[H])C([H])([H])[H])C([H])([H])c2c([H])c(OC([H])([H])C([H])([H])C([H])([H])[N+]3([H])C([H])([H])C([H])([H])N(C(=O)N4C([H])([H])C([H])([H])C([H])([H])C([H])(n5nc(-c6c([H])c([H])c(Oc7c([H])c([H])c(F)c([H])c7F)c([H])c6[H])c(C(=O)N([H])[H])c5N([H])[H])C4([H])[H])C([H])([H])C([H])([H])C3([H])[H])c([H])c([H])c2C1([H])[H]

$$$$
70:0:0
     RDKit          3D

 93101  0  0  1  0  0  0  0  0999 V2000
  -29.4090  -18.3400   21.5050 C   0  0  0  0  0  2  0  0  0  0  0  0
  -29.5830  -19.9180   21.6240 C   0  0  0  0  0  2  0  0  0  0  0  0
  -29.6250  -18.5040   19.0840 C   0  0  0  0  0  2  0  0  0  0  0  0
  -29.8080  -20.1130   19.1610 C   0  0  0  0  0  3  0  0  0  0  0  0
  -30.1130  -17.6130   20.3040 C   0  0  0  0  0  3  0  0  0  0  0  0
  -29.1300  -20.8320   20.4130 C   0  0  0  0  0  3  0  0  0  0  0  0
  -30.6270  -14.9490   19.9870 C   0  0  0  0  0  0  0  0  0  0  0  0
  -30.3990  -12.6720   18.9450 C   0  0  0  0  0  2  0  0  0  0  0  0
  -29.3820  -12.7380   17.7850 C   0  0  0  0  0  2  0  0  0  0  0  0
  -27.9430  -12.5480   18.3040 C   0  0  0  0  0  2  0  0  0  0  0  0
  -27.6440  -13.4120   19.5560 C   0  0  0  0  0  3  0  0  0  0  0  0
  -28.7710  -13.3140   20.6060 C   0  0  0  0  0  2  0  0  0  0  0  0
  -30.0170  -13.7090   19.9350 N   0  0  0  0  0  0  0  0  0  0  0  0
  -31.8000  -15.0540   19.6160 O   0  0  0  0  0  0  0  0  0  0  0  0
  -29.8440  -16.0790   20.2580 N   0  0  0  0  0  0  0  0  0  0  0  0
  -28.8950  -15.8290   20.5050 H   0  0  0  0  0  0  0  0  0  0  0  0
  -25.3140  -13.9900   20.4490 C   0  0  0  0  0  0  0  0  0  0  0  0
  -24.2710  -13.2090   20.8680 C   0  0  0  0  0  0  0  0  0  0  0  0
  -24.7270  -11.8580   20.7790 C   0  0  0  0  0  0  0  0  0  0  0  0
  -26.3350  -13.1140   20.1260 N   0  0  0  0  0  0  0  0  0  0  0  0
  -25.9950  -11.8260   20.3860 N   0  0  0  0  0  0  0  0  0  0  0  0
  -24.0090  -10.5940   20.9810 C   0  0  0  0  0  0  0  0  0  0  0  0
  -24.4710   -9.6190   21.8930 C   0  0  0  0  0  3  0  0  0  0  0  0
  -23.7510   -8.4210   22.0850 C   0  0  0  0  0  3  0  0  0  0  0  0
  -22.5550   -8.1890   21.3640 C   0  0  0  0  0  0  0  0  0  0  0  0
  -22.1130   -9.1510   20.4400 C   0  0  0  0  0  3  0  0  0  0  0  0
  -22.8330  -10.3410   20.2470 C   0  0  0  0  0  3  0  0  0  0  0  0
  -21.8030   -7.0430   21.4670 O   0  0  0  0  0  0  0  0  0  0  0  0
  -21.7650   -6.3090   22.6250 C   0  0  0  0  0  0  0  0  0  0  0  0
  -21.3070   -6.8610   23.8430 C   0  0  0  0  0  3  0  0  0  0  0  0
  -21.2190   -6.0500   24.9930 C   0  0  0  0  0  3  0  0  0  0  0  0
  -21.5780   -4.6900   24.9270 C   0  0  0  0  0  0  0  0  0  0  0  0
  -22.0290   -4.1390   23.7140 C   0  0  0  0  0  3  0  0  0  0  0  0
  -22.1190   -4.9460   22.5660 C   0  0  0  0  0  0  0  0  0  0  0  0
  -22.5340   -4.4050   21.3960 F   0  0  0  0  0  0  0  0  0  0  0  0
  -21.4860   -3.9110   26.0290 F   0  0  0  0  0  0  0  0  0  0  0  0
  -22.8940  -13.6830   21.2350 C   0  0  0  0  0  0  0  0  0  0  0  0
  -22.2180  -12.9680   22.1250 N   0  0  0  0  0  0  0  0  0  0  0  0
  -22.4330  -14.7250   20.7720 O   0  0  0  0  0  0  0  0  0  0  0  0
  -22.6050  -12.1220   22.5170 H   0  0  0  0  0  0  0  0  0  0  0  0
  -21.2990  -13.2680   22.4210 H   0  0  0  0  0  0  0  0  0  0  0  0
  -25.4690  -15.3640   20.2920 N   0  0  0  0  0  0  0  0  0  0  0  0
  -24.7030  -16.0090   20.4520 H   0  0  0  0  0  0  0  0  0  0  0  0
  -26.2770  -15.8070   19.8690 H   0  0  0  0  0  0  0  0  0  0  0  0
  -31.2730  -20.4980   18.9740 C   0  0  0  0  0  3  0  0  0  0  0  0
  -31.9410  -20.2490   17.9280 N   0  0  0  0  0  0  0  0  0  0  0  0
  -31.3930  -19.7650   17.2240 H   0  0  0  0  0  0  0  0  0  0  0  0
  -29.3310  -22.3690   20.7060 N   0  0  0  0  0  4  0  0  0  0  0  0
  -30.3140  -22.5430   20.8470 H   0  0  0  0  0  0  0  0  0  0  0  0
  -28.9230  -22.4660   21.6240 H   0  0  0  0  0  0  0  0  0  0  0  0
  -28.7510  -23.5950   19.9250 C   0  0  0  0  0  2  0  0  0  0  0  0
  -28.4430  -25.0100   20.7420 C   0  0  0  0  0  2  0  0  0  0  0  0
  -28.5200  -26.4480   20.2270 O   0  0  0  0  0  0  0  0  0  0  0  0
  -24.6720  -31.9180   23.2540 C   0  0  0  0  0  0  0  0  0  0  0  0
  -27.4010  -27.3280   20.2450 C   0  0  0  0  0  0  0  0  0  0  0  0
  -23.5250  -30.5130   21.5810 C   0  0  0  0  0  3  0  0  0  0  0  0
  -25.0260  -28.9720   20.1840 C   0  0  0  0  0  0  0  0  0  0  0  0
  -26.0700  -30.8440   21.4570 C   0  0  0  0  0  2  0  0  0  0  0  0
  -26.1840  -29.4570   20.8100 C   0  0  0  0  0  0  0  0  0  0  0  0
  -27.3760  -28.6540   20.8180 C   0  0  0  0  0  3  0  0  0  0  0  0
  -26.2160  -26.9120   19.6040 C   0  0  0  0  0  3  0  0  0  0  0  0
  -25.0500  -27.7080   19.5700 C   0  0  0  0  0  3  0  0  0  0  0  0
  -23.7830  -29.8450   20.2040 C   0  0  0  0  0  2  0  0  0  0  0  0
  -24.7750  -31.1120   22.1550 N   0  0  0  0  0  0  0  0  0  0  0  0
  -23.5730  -32.1820   23.7620 O   0  0  0  0  0  0  0  0  0  0  0  0
  -22.8470  -29.4870   22.5210 C   0  0  0  0  0  0  0  0  0  0  0  0
  -21.5230  -29.3070   22.3720 N   0  0  0  0  0  0  0  0  0  0  0  0
  -23.5130  -28.8570   23.3470 O   0  0  0  0  0  0  0  0  0  0  0  0
  -21.0420  -29.8700   21.6850 H   0  0  0  0  0  0  0  0  0  0  0  0
  -18.1380  -28.0980   22.8240 C   0  0  0  0  0  0  0  0  0  0  0  0
  -20.6940  -28.3570   23.1180 C   0  0  0  0  0  3  0  0  0  0  0  0
  -20.8010  -26.9360   22.5190 C   0  0  0  0  0  2  0  0  0  0  0  0
  -19.7100  -26.6310   21.4900 C   0  0  0  0  0  2  0  0  0  0  0  0
  -18.3210  -26.7620   22.1230 C   0  0  0  0  0  2  0  0  0  0  0  0
  -19.2520  -28.8540   23.2750 C   0  0  0  0  0  0  0  0  0  0  0  0
  -19.0280  -30.1050   23.8890 C   0  0  0  0  0  3  0  0  0  0  0  0
  -17.7210  -30.6030   24.0530 C   0  0  0  0  0  3  0  0  0  0  0  0
  -16.6210  -29.8440   23.6170 C   0  0  0  0  0  3  0  0  0  0  0  0
  -16.8300  -28.5930   23.0090 C   0  0  0  0  0  3  0  0  0  0  0  0
  -25.9300  -32.5670   23.9110 C   0  0  0  0  0  3  0  0  0  0  0  0
  -26.4000  -31.8180   25.2180 C   0  0  1  0  0  0  0  0  0  0  0  0
  -25.2680  -31.5910   26.2470 C   0  0  0  0  0  1  0  0  0  0  0  0
  -26.9990  -30.4360   24.8680 C   0  0  0  0  0  1  0  0  0  0  0  0
  -27.5250  -32.6260   25.9110 C   0  0  0  0  0  1  0  0  0  0  0  0
  -25.6030  -33.9690   24.2140 N   0  0  0  0  0  0  0  0  0  0  0  0
  -25.9480  -35.0150   23.4500 C   0  0  0  0  0  0  0  0  0  0  0  0
  -26.6420  -34.9010   22.4360 O   0  0  0  0  0  0  0  0  0  0  0  0
  -24.9880  -34.1280   24.9970 H   0  0  0  0  0  0  0  0  0  0  0  0
  -24.2230  -36.7990   23.0300 C   0  0  0  0  0  1  0  0  0  0  0  0
  -25.4440  -36.4060   23.8780 C   0  0  0  0  0  3  0  0  0  0  0  0
  -27.5490  -37.3160   24.7590 C   0  0  0  0  0  1  0  0  0  0  0  0
  -26.4760  -37.4630   23.7780 N   0  0  0  0  0  0  0  0  0  0  0  0
  -26.0620  -38.3830   23.8980 H   0  0  0  0  0  0  0  0  0  0  0  0
  1  2  1  0
  3  4  1  0
  3  5  1  0
  4 45  1  0
  4  6  1  0
  5 15  1  0
  5  1  1  0
  6 48  1  0
  6  2  1  0
  7 15  1  0
  8 13  1  0
  9 10  1  0
  9  8  1  0
 11 10  1  0
 11 20  1  0
 11 12  1  0
 13  7  1  0
 13 12  1  0
 14  7  2  0
 15 16  1  0
 17 18  2  0
 18 37  1  0
 19 18  1  0
 19 22  1  0
 20 21  1  0
 20 17  1  0
 21 19  2  0
 22 23  1  0
 23 24  2  0
 25 28  1  0
 25 24  1  0
 26 25  2  0
 27 26  1  0
 27 22  2  0
 28 29  1  0
 29 30  1  0
 30 31  2  0
 32 31  1  0
 32 36  1  0
 33 32  2  0
 34 29  2  0
 34 33  1  0
 35 34  1  0
 37 38  1  0
 38 41  1  0
 38 40  1  0
 39 37  2  0
 42 17  1  0
 42 43  1  0
 44 42  1  0
 46 45  2  0
 47 46  1  0
 48 49  1  0
 48 50  1  0
 51 48  1  0
 51 52  1  0
 53 55  1  0
 53 52  1  0
 54 65  2  0
 55 60  1  0
 56 64  1  0
 56 66  1  0
 57 63  1  0
 57 59  1  0
 58 64  1  0
 59 60  2  0
 59 58  1  0
 61 55  2  0
 62 61  1  0
 62 57  2  0
 63 56  1  0
 64 54  1  0
 66 68  2  0
 67 66  1  0
 69 67  1  0
 70 79  2  0
 70 75  1  0
 71 67  1  0
 71 75  1  0
 72 71  1  0
 73 74  1  0
 73 72  1  0
 74 70  1  0
 75 76  2  0
 76 77  1  0
 78 77  2  0
 79 78  1  0
 80 54  1  0
 80 85  1  0
 80 81  1  0
 81 84  1  1
 81 82  1  0
 83 81  1  0
 85 88  1  0
 86 90  1  0
 86 85  1  0
 87 86  2  0
 90 89  1  0
 92 90  1  0
 92 93  1  0
 92 91  1  0
M  ISO  4   7 100  15 100  52 101  53 101
M  END
>  <TORSDO>  (70) 
F 20

>  <SCORE>  (70) 
-12.919

>  <name>  (70) 
70

>  <ligand_id>  (70) 
70

>  <original_smiles>  (70) 
[H]N=C([H])C1([H])C([H])([H])C([H])(N([H])C(=O)N2C([H])([H])C([H])([H])C([H])([H])C([H])(n3nc(-c4c([H])c([H])c(Oc5c([H])c([H])c(F)c([H])c5F)c([H])c4[H])c(C(=O)N([H])[H])c3N([H])[H])C2([H])[H])C([H])([H])C([H])([H])C1([H])[N+]([H])([H])C([H])([H])C([H])([H])Oc1c([H])c([H])c2c(c1[H])C([H])([H])N(C(=O)C([H])(N([H])C(=O)C([H])(N([H])C([H])([H])[H])C([H])([H])[H])C(C([H])([H])[H])(C([H])([H])[H])C([H])([H])[H])C([H])(C(=O)N([H])C1([H])c3c([H])c([H])c([H])c([H])c3C([H])([H])C([H])([H])C1([H])[H])C2([H])[H]

>  <smiles>  (70) 
[H]N=C([H])C1([H])C([H])([H])C([H])(N([H])C(=O)N2C([H])([H])C([H])([H])C([H])([H])C([H])(n3nc(-c4c([H])c([H])c(Oc5c([H])c([H])c(F)c([H])c5F)c([H])c4[H])c(C(=O)N([H])[H])c3N([H])[H])C2([H])[H])C([H])([H])C([H])([H])C1([H])[N+]([H])([H])C([H])([H])C([H])([H])Oc1c([H])c([H])c2c(c1[H])C([H])([H])N(C(=O)C([H])(N([H])C(=O)C([H])(N([H])C([H])([H])[H])C([H])([H])[H])C(C([H])([H])[H])(C([H])([H])[H])C([H])([H])[H])C([H])(C(=O)N([H])C1([H])c3c([H])c([H])c([H])c([H])c3C([H])([H])C([H])([H])C1([H])[H])C2([H])[H]

$$$$
71:0:0
     RDKit          3D

 96104  0  0  1  0  0  0  0  0999 V2000
  -33.5090  -19.2620   10.5770 C   0  0  0  0  0  2  0  0  0  0  0  0
  -34.3350  -20.2470    9.7260 C   0  0  0  0  0  2  0  0  0  0  0  0
  -35.5200  -18.5080    8.5110 C   0  0  0  0  0  2  0  0  0  0  0  0
  -34.5910  -17.2610    8.4110 C   0  0  0  0  0  2  0  0  0  0  0  0
  -32.7820  -18.0960    9.8690 C   0  0  0  0  0  3  0  0  0  0  0  0
  -34.8260  -19.8080    8.4120 N   0  0  0  0  0  0  0  0  0  0  0  0
  -33.6620  -16.9640    9.5270 N   0  0  0  0  0  0  0  0  0  0  0  0
  -31.8450  -18.5530    8.7170 C   0  0  0  0  0  2  0  0  0  0  0  0
  -31.1800  -17.4220    8.0460 N   0  0  0  0  0  4  0  0  0  0  0  0
  -31.8590  -16.7980    7.6500 H   0  0  0  0  0  0  0  0  0  0  0  0
  -30.5980  -17.7670    7.3040 H   0  0  0  0  0  0  0  0  0  0  0  0
  -30.6000  -16.9140    8.6880 H   0  0  0  0  0  0  0  0  0  0  0  0
  -35.6820  -20.8850    7.8600 C   0  0  0  0  0  2  0  0  0  0  0  0
  -35.0000  -21.9370    6.9480 C   0  0  0  0  0  2  0  0  0  0  0  0
  -33.5210  -21.5720    6.6460 C   0  0  0  0  0  2  0  0  0  0  0  0
  -33.3680  -20.5960    5.6060 O   0  0  0  0  0  0  0  0  0  0  0  0
  -26.9880  -23.5910    4.4340 C   0  0  0  0  0  0  0  0  0  0  0  0
  -32.3120  -20.8110    4.7510 C   0  0  0  0  0  0  0  0  0  0  0  0
  -27.7590  -21.9650    2.7360 C   0  0  0  0  0  3  0  0  0  0  0  0
  -30.1980  -21.2380    2.9240 C   0  0  0  0  0  0  0  0  0  0  0  0
  -29.4430  -23.3020    4.1190 C   0  0  0  0  0  2  0  0  0  0  0  0
  -30.3950  -22.1290    3.9880 C   0  0  0  0  0  0  0  0  0  0  0  0
  -31.4530  -21.9230    4.9030 C   0  0  0  0  0  3  0  0  0  0  0  0
  -32.1070  -19.9250    3.6750 C   0  0  0  0  0  3  0  0  0  0  0  0
  -31.0500  -20.1290    2.7650 C   0  0  0  0  0  3  0  0  0  0  0  0
  -29.0480  -21.5320    1.9870 C   0  0  0  0  0  2  0  0  0  0  0  0
  -28.0310  -22.9690    3.8160 N   0  0  0  0  0  0  0  0  0  0  0  0
  -25.8170  -23.3740    4.0930 O   0  0  0  0  0  0  0  0  0  0  0  0
  -27.0360  -20.6980    3.2480 C   0  0  0  0  0  0  0  0  0  0  0  0
  -27.1600  -20.4290    4.5570 N   0  0  0  0  0  0  0  0  0  0  0  0
  -26.3640  -20.0030    2.4840 O   0  0  0  0  0  0  0  0  0  0  0  0
  -27.7330  -21.0470    5.1150 H   0  0  0  0  0  0  0  0  0  0  0  0
  -25.7600  -19.4180    7.7320 C   0  0  0  0  0  0  0  0  0  0  0  0
  -26.5350  -19.3140    5.2680 C   0  0  0  0  0  3  0  0  0  0  0  0
  -25.0370  -19.1960    4.9080 C   0  0  0  0  0  2  0  0  0  0  0  0
  -24.1220  -19.9500    5.8770 C   0  0  0  0  0  2  0  0  0  0  0  0
  -24.3020  -19.4240    7.3050 C   0  0  0  0  0  2  0  0  0  0  0  0
  -26.8090  -19.3810    6.7750 C   0  0  0  0  0  0  0  0  0  0  0  0
  -28.1470  -19.4100    7.2220 C   0  0  0  0  0  3  0  0  0  0  0  0
  -28.4450  -19.4730    8.5970 C   0  0  0  0  0  3  0  0  0  0  0  0
  -27.4030  -19.4930    9.5410 C   0  0  0  0  0  3  0  0  0  0  0  0
  -26.0660  -19.4600    9.1080 C   0  0  0  0  0  3  0  0  0  0  0  0
  -27.2160  -24.6230    5.5840 C   0  0  0  0  0  3  0  0  0  0  0  0
  -26.3950  -24.2910    6.8900 C   0  0  1  0  0  0  0  0  0  0  0  0
  -26.3430  -22.7820    7.2240 C   0  0  0  0  0  1  0  0  0  0  0  0
  -26.9940  -25.0220    8.1140 C   0  0  0  0  0  1  0  0  0  0  0  0
  -24.9420  -24.7990    6.7400 C   0  0  0  0  0  1  0  0  0  0  0  0
  -26.8560  -25.9500    5.0660 N   0  0  0  0  0  0  0  0  0  0  0  0
  -27.7050  -26.9820    4.9650 C   0  0  0  0  0  0  0  0  0  0  0  0
  -28.8690  -26.9340    5.3730 O   0  0  0  0  0  0  0  0  0  0  0  0
  -25.9370  -26.0440    4.6610 H   0  0  0  0  0  0  0  0  0  0  0  0
  -27.6610  -29.4910    5.1110 C   0  0  0  0  0  1  0  0  0  0  0  0
  -27.1780  -28.2730    4.3090 C   0  0  0  0  0  3  0  0  0  0  0  0
  -25.2440  -28.3750    2.7980 C   0  0  0  0  0  1  0  0  0  0  0  0
  -25.7040  -28.3100    4.1840 N   0  0  0  0  0  0  0  0  0  0  0  0
  -25.3210  -29.1080    4.6820 H   0  0  0  0  0  0  0  0  0  0  0  0
  -34.2760  -16.3070   10.7030 C   0  0  0  0  0  2  0  0  0  0  0  0
  -33.2900  -15.8290   11.7990 C   0  0  0  0  0  2  0  0  0  0  0  0
  -34.3280  -14.4780   13.6200 C   0  0  0  0  0  0  0  0  0  0  0  0
  -34.4570  -13.2120   15.7320 C   0  0  0  0  0  2  0  0  0  0  0  0
  -33.0730  -13.2420   16.4150 C   0  0  0  0  0  2  0  0  0  0  0  0
  -32.9250  -14.5010   17.2930 C   0  0  0  0  0  2  0  0  0  0  0  0
  -33.3410  -15.8030   16.5560 C   0  0  0  0  0  3  0  0  0  0  0  0
  -34.6980  -15.6270   15.8380 C   0  0  0  0  0  2  0  0  0  0  0  0
  -34.5950  -14.4540   14.9550 N   0  0  0  0  0  0  0  0  0  0  0  0
  -34.2890  -13.4560   12.9300 O   0  0  0  0  0  0  0  0  0  0  0  0
  -33.9290  -15.6600   13.1160 N   0  0  0  0  0  0  0  0  0  0  0  0
  -33.9350  -16.4540   13.7390 H   0  0  0  0  0  0  0  0  0  0  0  0
  -32.3190  -17.4730   18.2250 C   0  0  0  0  0  0  0  0  0  0  0  0
  -32.8670  -18.5020   18.9430 C   0  0  0  0  0  0  0  0  0  0  0  0
  -34.2460  -18.5490   18.5750 C   0  0  0  0  0  0  0  0  0  0  0  0
  -33.3500  -16.9530   17.4590 N   0  0  0  0  0  0  0  0  0  0  0  0
  -34.5040  -17.6450   17.6360 N   0  0  0  0  0  0  0  0  0  0  0  0
  -35.3490  -19.3650   19.1010 C   0  0  0  0  0  0  0  0  0  0  0  0
  -35.7850  -20.5340   18.4390 C   0  0  0  0  0  3  0  0  0  0  0  0
  -36.8350  -21.3100   18.9740 C   0  0  0  0  0  3  0  0  0  0  0  0
  -37.4600  -20.9210   20.1830 C   0  0  0  0  0  0  0  0  0  0  0  0
  -37.0390  -19.7430   20.8250 C   0  0  0  0  0  3  0  0  0  0  0  0
  -35.9960  -18.9690   20.2880 C   0  0  0  0  0  3  0  0  0  0  0  0
  -38.5050  -21.5990   20.7640 O   0  0  0  0  0  0  0  0  0  0  0  0
  -38.3080  -22.4600   21.8150 C   0  0  0  0  0  0  0  0  0  0  0  0
  -38.5240  -22.0630   23.1520 C   0  0  0  0  0  3  0  0  0  0  0  0
  -38.3800  -22.9990   24.1960 C   0  0  0  0  0  3  0  0  0  0  0  0
  -38.0300  -24.3300   23.9050 C   0  0  0  0  0  0  0  0  0  0  0  0
  -37.8180  -24.7290   22.5740 C   0  0  0  0  0  3  0  0  0  0  0  0
  -37.9600  -23.7960   21.5310 C   0  0  0  0  0  0  0  0  0  0  0  0
  -37.7760  -24.1910   20.2480 F   0  0  0  0  0  0  0  0  0  0  0  0
  -37.8990  -25.2320   24.9070 F   0  0  0  0  0  0  0  0  0  0  0  0
  -32.1760  -19.3310   19.9870 C   0  0  0  0  0  0  0  0  0  0  0  0
  -32.4170  -19.0400   21.2610 N   0  0  0  0  0  0  0  0  0  0  0  0
  -31.4540  -20.2760   19.6760 O   0  0  0  0  0  0  0  0  0  0  0  0
  -33.0260  -18.2780   21.5200 H   0  0  0  0  0  0  0  0  0  0  0  0
  -31.9870  -19.5920   21.9900 H   0  0  0  0  0  0  0  0  0  0  0  0
  -31.0390  -16.9260   18.1790 N   0  0  0  0  0  0  0  0  0  0  0  0
  -30.3580  -17.1780   18.8850 H   0  0  0  0  0  0  0  0  0  0  0  0
  -30.8310  -16.0510   17.7140 H   0  0  0  0  0  0  0  0  0  0  0  0
  2  1  1  0
  4  3  1  0
  4  7  1  0
  5  8  1  0
  5  1  1  0
  6  3  1  0
  6  2  1  0
  7  5  1  0
  7 57  1  0
  9 12  1  0
  9  8  1  0
 10  9  1  0
 11  9  1  0
 13  6  1  0
 14 13  1  0
 15 14  1  0
 16 15  1  0
 18 23  1  0
 18 16  1  0
 19 29  1  0
 19 27  1  0
 20 22  1  0
 22 21  1  0
 22 23  2  0
 24 18  2  0
 25 20  2  0
 25 24  1  0
 26 19  1  0
 26 20  1  0
 27 21  1  0
 27 17  1  0
 28 17  2  0
 29 30  1  0
 30 32  1  0
 31 29  2  0
 33 42  1  0
 34 30  1  0
 34 38  1  0
 35 34  1  0
 35 36  1  0
 36 37  1  0
 37 33  1  0
 38 39  1  0
 38 33  2  0
 39 40  2  0
 40 41  1  0
 42 41  2  0
 43 17  1  0
 43 44  1  0
 44 45  1  1
 44 46  1  0
 47 44  1  0
 48 43  1  0
 49 48  1  0
 49 50  2  0
 51 48  1  0
 53 49  1  0
 53 52  1  0
 54 55  1  0
 55 53  1  0
 55 56  1  0
 57 58  1  0
 58 67  1  0
 59 65  1  0
 60 61  1  0
 61 62  1  0
 63 64  1  0
 63 62  1  0
 63 72  1  0
 65 60  1  0
 65 64  1  0
 66 59  2  0
 67 59  1  0
 67 68  1  0
 69 70  2  0
 70 89  1  0
 71 70  1  0
 71 74  1  0
 72 73  1  0
 72 69  1  0
 73 71  2  0
 74 79  1  0
 75 76  1  0
 75 74  2  0
 76 77  2  0
 77 80  1  0
 77 78  1  0
 79 78  2  0
 80 81  1  0
 81 82  1  0
 82 83  2  0
 84 83  1  0
 84 88  1  0
 85 84  2  0
 86 81  2  0
 86 85  1  0
 87 86  1  0
 89 90  1  0
 90 92  1  0
 90 93  1  0
 91 89  2  0
 94 69  1  0
 94 95  1  0
 96 94  1  0
M  ISO  4  15 101  16 101  59 100  67 100
M  END
>  <TORSDO>  (71) 
F 23

>  <SCORE>  (71) 
-2.957

>  <name>  (71) 
71

>  <ligand_id>  (71) 
71

>  <original_smiles>  (71) 
[H]c1c([H])c([H])c2c(c1[H])C([H])([H])C([H])([H])C([H])([H])C2([H])N([H])C(=O)C1([H])N(C(=O)C([H])(N([H])C(=O)C([H])(N([H])C([H])([H])[H])C([H])([H])[H])C(C([H])([H])[H])(C([H])([H])[H])C([H])([H])[H])C([H])([H])c2c([H])c(OC([H])([H])C([H])([H])C([H])([H])N3C([H])([H])C([H])([H])N(C([H])([H])C([H])([H])N([H])C(=O)N4C([H])([H])C([H])([H])C([H])([H])C([H])(n5nc(-c6c([H])c([H])c(Oc7c([H])c([H])c(F)c([H])c7F)c([H])c6[H])c(C(=O)N([H])[H])c5N([H])[H])C4([H])[H])C([H])(C([H])([H])[N+]([H])([H])[H])C([H])([H])C3([H])[H])c([H])c([H])c2C1([H])[H]

>  <smiles>  (71) 
[H]c1c([H])c([H])c2c(c1[H])C([H])([H])C([H])([H])C([H])([H])C2([H])N([H])C(=O)C1([H])N(C(=O)C([H])(N([H])C(=O)C([H])(N([H])C([H])([H])[H])C([H])([H])[H])C(C([H])([H])[H])(C([H])([H])[H])C([H])([H])[H])C([H])([H])c2c([H])c(OC([H])([H])C([H])([H])C([H])([H])N3C([H])([H])C([H])([H])N(C([H])([H])C([H])([H])N([H])C(=O)N4C([H])([H])C([H])([H])C([H])([H])C([H])(n5nc(-c6c([H])c([H])c(Oc7c([H])c([H])c(F)c([H])c7F)c([H])c6[H])c(C(=O)N([H])[H])c5N([H])[H])C4([H])[H])C([H])(C([H])([H])[N+]([H])([H])[H])C([H])([H])C3([H])[H])c([H])c([H])c2C1([H])[H]

$$$$
72:0:0
     RDKit          3D

 94102  0  0  1  0  0  0  0  0999 V2000
  -29.6700  -20.6150   22.0680 N   0  0  0  0  0  4  0  0  0  0  0  0
  -28.8850  -20.3440   21.4950 H   0  0  0  0  0  0  0  0  0  0  0  0
  -29.3320  -20.7670   23.0040 H   0  0  0  0  0  0  0  0  0  0  0  0
  -30.1780  -21.9200   21.5270 C   0  0  0  0  0  2  0  0  0  0  0  0
  -29.0660  -23.0200   21.4310 C   0  0  0  0  0  2  0  0  0  0  0  0
  -29.4580  -24.3890   20.7750 C   0  0  0  0  0  2  0  0  0  0  0  0
  -28.3030  -25.4450   20.8420 C   0  0  0  0  0  2  0  0  0  0  0  0
  -28.5100  -26.7330   20.1980 O   0  0  0  0  0  0  0  0  0  0  0  0
  -24.5760  -31.8570   23.2450 C   0  0  0  0  0  0  0  0  0  0  0  0
  -27.3630  -27.5110   20.1400 C   0  0  0  0  0  0  0  0  0  0  0  0
  -23.4290  -30.4600   21.5590 C   0  0  0  0  0  3  0  0  0  0  0  0
  -24.9450  -28.9940   20.1130 C   0  0  0  0  0  0  0  0  0  0  0  0
  -25.9510  -30.8800   21.4020 C   0  0  0  0  0  2  0  0  0  0  0  0
  -26.0810  -29.5240   20.7380 C   0  0  0  0  0  0  0  0  0  0  0  0
  -27.2980  -28.7950   20.7420 C   0  0  0  0  0  3  0  0  0  0  0  0
  -26.2130  -27.0190   19.4850 C   0  0  0  0  0  3  0  0  0  0  0  0
  -25.0070  -27.7420   19.4760 C   0  0  0  0  0  3  0  0  0  0  0  0
  -23.6780  -29.8200   20.1690 C   0  0  0  0  0  2  0  0  0  0  0  0
  -24.6690  -31.0800   22.1280 N   0  0  0  0  0  0  0  0  0  0  0  0
  -23.4830  -32.0970   23.7750 O   0  0  0  0  0  0  0  0  0  0  0  0
  -22.7830  -29.4080   22.4920 C   0  0  0  0  0  0  0  0  0  0  0  0
  -21.4670  -29.1800   22.3330 N   0  0  0  0  0  0  0  0  0  0  0  0
  -23.4660  -28.7930   23.3150 O   0  0  0  0  0  0  0  0  0  0  0  0
  -20.9680  -29.7120   21.6330 H   0  0  0  0  0  0  0  0  0  0  0  0
  -18.1270  -27.8450   22.7450 C   0  0  0  0  0  0  0  0  0  0  0  0
  -20.6670  -28.2090   23.0760 C   0  0  0  0  0  3  0  0  0  0  0  0
  -20.8330  -26.7810   22.5090 C   0  0  0  0  0  2  0  0  0  0  0  0
  -19.7770  -26.4160   21.4580 C   0  0  0  0  0  2  0  0  0  0  0  0
  -18.3780  -26.4980   22.0810 C   0  0  0  0  0  2  0  0  0  0  0  0
  -19.2060  -28.6520   23.2000 C   0  0  0  0  0  0  0  0  0  0  0  0
  -18.9300  -29.9080   23.7800 C   0  0  0  0  0  3  0  0  0  0  0  0
  -17.6040  -30.3650   23.9080 C   0  0  0  0  0  3  0  0  0  0  0  0
  -16.5400  -29.5600   23.4700 C   0  0  0  0  0  3  0  0  0  0  0  0
  -16.8020  -28.3040   22.8910 C   0  0  0  0  0  3  0  0  0  0  0  0
  -25.8370  -32.5100   23.8900 C   0  0  0  0  0  3  0  0  0  0  0  0
  -25.5110  -33.9120   24.1880 N   0  0  0  0  0  0  0  0  0  0  0  0
  -25.8840  -34.9580   23.4380 C   0  0  0  0  0  0  0  0  0  0  0  0
  -26.6080  -34.8430   22.4470 O   0  0  0  0  0  0  0  0  0  0  0  0
  -24.8850  -34.0720   24.9630 H   0  0  0  0  0  0  0  0  0  0  0  0
  -24.1870  -36.7490   22.9640 C   0  0  0  0  0  1  0  0  0  0  0  0
  -25.3730  -36.3510   23.8550 C   0  0  0  0  0  3  0  0  0  0  0  0
  -27.4550  -37.2420   24.8090 C   0  0  0  0  0  1  0  0  0  0  0  0
  -26.4130  -37.4010   23.7980 N   0  0  0  0  0  0  0  0  0  0  0  0
  -26.0020  -38.3230   23.9040 H   0  0  0  0  0  0  0  0  0  0  0  0
  -26.3260  -31.7610   25.1900 C   0  0  1  0  0  0  0  0  0  0  0  0
  -25.2080  -31.5220   26.2300 C   0  0  0  0  0  1  0  0  0  0  0  0
  -26.9360  -30.3870   24.8310 C   0  0  0  0  0  1  0  0  0  0  0  0
  -27.4520  -32.5740   25.8720 C   0  0  0  0  0  1  0  0  0  0  0  0
  -30.6290  -19.4620   22.0870 C   0  0  0  0  0  2  0  0  0  0  0  0
  -29.9500  -18.0470   22.3120 C   0  0  0  0  0  2  0  0  0  0  0  0
  -29.8540  -16.9790   21.1460 C   0  0  0  0  0  3  0  0  0  0  0  0
  -31.2660  -14.8390   20.6210 C   0  0  0  0  0  0  0  0  0  0  0  0
  -30.8830  -12.7110   19.4020 C   0  0  0  0  0  2  0  0  0  0  0  0
  -29.9830  -12.9080   18.1670 C   0  0  0  0  0  2  0  0  0  0  0  0
  -28.5000  -12.8060   18.5600 C   0  0  0  0  0  2  0  0  0  0  0  0
  -28.1390  -13.6190   19.8310 C   0  0  0  0  0  3  0  0  0  0  0  0
  -29.1730  -13.4250   20.9650 C   0  0  0  0  0  2  0  0  0  0  0  0
  -30.5060  -13.7150   20.4190 N   0  0  0  0  0  0  0  0  0  0  0  0
  -32.3960  -14.9370   20.1510 O   0  0  0  0  0  0  0  0  0  0  0  0
  -30.8200  -15.8610   21.3970 N   0  0  0  0  0  0  0  0  0  0  0  0
  -31.6360  -16.2630   21.8330 H   0  0  0  0  0  0  0  0  0  0  0  0
  -25.7370  -14.2350   20.4900 C   0  0  0  0  0  0  0  0  0  0  0  0
  -24.6510  -13.4800   20.8170 C   0  0  0  0  0  0  0  0  0  0  0  0
  -25.0900  -12.1240   20.7610 C   0  0  0  0  0  0  0  0  0  0  0  0
  -26.7730  -13.3470   20.2640 N   0  0  0  0  0  0  0  0  0  0  0  0
  -26.3870  -12.0660   20.4890 N   0  0  0  0  0  0  0  0  0  0  0  0
  -24.3340  -10.8750   20.8950 C   0  0  0  0  0  0  0  0  0  0  0  0
  -24.7100   -9.8890   21.8320 C   0  0  0  0  0  3  0  0  0  0  0  0
  -23.9580   -8.7030   21.9580 C   0  0  0  0  0  3  0  0  0  0  0  0
  -22.8130   -8.5000   21.1470 C   0  0  0  0  0  0  0  0  0  0  0  0
  -22.4610   -9.4760   20.1990 C   0  0  0  0  0  3  0  0  0  0  0  0
  -23.2130  -10.6540   20.0710 C   0  0  0  0  0  3  0  0  0  0  0  0
  -22.0350   -7.3710   21.1870 O   0  0  0  0  0  0  0  0  0  0  0  0
  -21.8920   -6.6360   22.3360 C   0  0  0  0  0  0  0  0  0  0  0  0
  -21.3720   -7.1980   23.5220 C   0  0  0  0  0  3  0  0  0  0  0  0
  -21.1800   -6.3890   24.6590 C   0  0  0  0  0  3  0  0  0  0  0  0
  -21.4930   -5.0190   24.6100 C   0  0  0  0  0  0  0  0  0  0  0  0
  -22.0020   -4.4540   23.4270 C   0  0  0  0  0  3  0  0  0  0  0  0
  -22.2000   -5.2600   22.2930 C   0  0  0  0  0  0  0  0  0  0  0  0
  -22.6750   -4.7110   21.1510 F   0  0  0  0  0  0  0  0  0  0  0  0
  -21.2990   -4.2360   25.6990 F   0  0  0  0  0  0  0  0  0  0  0  0
  -23.2590  -13.9840   21.0670 C   0  0  0  0  0  0  0  0  0  0  0  0
  -22.4960  -13.2910   21.9070 N   0  0  0  0  0  0  0  0  0  0  0  0
  -22.8610  -15.0290   20.5560 O   0  0  0  0  0  0  0  0  0  0  0  0
  -22.8270  -12.4460   22.3470 H   0  0  0  0  0  0  0  0  0  0  0  0
  -21.5610  -13.6110   22.1140 H   0  0  0  0  0  0  0  0  0  0  0  0
  -25.9260  -15.6040   20.3420 N   0  0  0  0  0  0  0  0  0  0  0  0
  -25.1480  -16.2510   20.3830 H   0  0  0  0  0  0  0  0  0  0  0  0
  -26.7500  -16.0040   19.9150 H   0  0  0  0  0  0  0  0  0  0  0  0
  -27.9210  -17.4880   18.2250 C   0  0  0  0  0  2  0  0  0  0  0  0
  -27.7160  -18.6450   19.1940 C   0  0  0  0  0  2  0  0  0  0  0  0
  -29.2840  -16.8730   18.5700 C   0  0  0  0  0  2  0  0  0  0  0  0
  -29.1210  -19.0070   19.6510 C   0  0  0  0  0  2  0  0  0  0  0  0
  -29.8960  -17.6690   19.7340 C   0  0  0  0  0  3  0  0  0  0  0  0
  1 49  1  0
  1  3  1  0
  2  1  1  0
  4  1  1  0
  5  4  1  0
  6  7  1  0
  6  5  1  0
  8  7  1  0
  9 20  2  0
 10  8  1  0
 10 15  1  0
 11 19  1  0
 11 21  1  0
 12 18  1  0
 12 14  1  0
 13 19  1  0
 14 15  2  0
 14 13  1  0
 16 10  2  0
 17 16  1  0
 17 12  2  0
 18 11  1  0
 19  9  1  0
 21 23  2  0
 22 21  1  0
 24 22  1  0
 25 34  2  0
 25 30  1  0
 26 22  1  0
 26 30  1  0
 27 26  1  0
 28 29  1  0
 28 27  1  0
 29 25  1  0
 30 31  2  0
 31 32  1  0
 33 32  2  0
 34 33  1  0
 35  9  1  0
 35 36  1  0
 35 45  1  0
 36 39  1  0
 37 41  1  0
 37 36  1  0
 38 37  2  0
 41 40  1  0
 43 41  1  0
 43 44  1  0
 43 42  1  0
 45 48  1  1
 45 46  1  0
 47 45  1  0
 49 50  1  0
 51 60  1  0
 51 50  1  0
 52 60  1  0
 53 58  1  0
 54 55  1  0
 54 53  1  0
 56 55  1  0
 56 65  1  0
 56 57  1  0
 58 52  1  0
 58 57  1  0
 59 52  2  0
 60 61  1  0
 62 63  2  0
 63 82  1  0
 64 63  1  0
 64 67  1  0
 65 66  1  0
 65 62  1  0
 66 64  2  0
 67 68  1  0
 68 69  2  0
 70 73  1  0
 70 69  1  0
 71 70  2  0
 72 71  1  0
 72 67  2  0
 73 74  1  0
 74 75  1  0
 75 76  2  0
 77 76  1  0
 77 81  1  0
 78 77  2  0
 79 74  2  0
 79 78  1  0
 80 79  1  0
 82 83  1  0
 83 86  1  0
 83 85  1  0
 84 82  2  0
 87 88  1  0
 87 62  1  0
 89 87  1  0
 90 92  1  0
 90 91  1  0
 91 93  1  0
 92 94  1  0
 93 94  1  0
 94 51  1  0
M  ISO  4   7 101   8 101  52 100  60 100
M  END
>  <TORSDO>  (72) 
F 24

>  <SCORE>  (72) 
-11.591

>  <name>  (72) 
72

>  <ligand_id>  (72) 
72

>  <original_smiles>  (72) 
[H]c1c([H])c([H])c2c(c1[H])C([H])([H])C([H])([H])C([H])([H])C2([H])N([H])C(=O)C1([H])N(C(=O)C([H])(N([H])C(=O)C([H])(N([H])C([H])([H])[H])C([H])([H])[H])C(C([H])([H])[H])(C([H])([H])[H])C([H])([H])[H])C([H])([H])c2c([H])c(OC([H])([H])C([H])([H])C([H])([H])C([H])([H])[N+]([H])([H])C([H])([H])C([H])([H])C([H])(N([H])C(=O)N3C([H])([H])C([H])([H])C([H])([H])C([H])(n4nc(-c5c([H])c([H])c(Oc6c([H])c([H])c(F)c([H])c6F)c([H])c5[H])c(C(=O)N([H])[H])c4N([H])[H])C3([H])[H])C3([H])C([H])([H])C([H])([H])C([H])([H])C3([H])[H])c([H])c([H])c2C1([H])[H]

>  <smiles>  (72) 
[H]c1c([H])c([H])c2c(c1[H])C([H])([H])C([H])([H])C([H])([H])C2([H])N([H])C(=O)C1([H])N(C(=O)C([H])(N([H])C(=O)C([H])(N([H])C([H])([H])[H])C([H])([H])[H])C(C([H])([H])[H])(C([H])([H])[H])C([H])([H])[H])C([H])([H])c2c([H])c(OC([H])([H])C([H])([H])C([H])([H])C([H])([H])[N+]([H])([H])C([H])([H])C([H])([H])C([H])(N([H])C(=O)N3C([H])([H])C([H])([H])C([H])([H])C([H])(n4nc(-c5c([H])c([H])c(Oc6c([H])c([H])c(F)c([H])c6F)c([H])c5[H])c(C(=O)N([H])[H])c4N([H])[H])C3([H])[H])C3([H])C([H])([H])C([H])([H])C([H])([H])C3([H])[H])c([H])c([H])c2C1([H])[H]

$$$$
73:0:0
     RDKit          3D

 94102  0  0  1  0  0  0  0  0999 V2000
  -30.8540  -23.0350   21.4720 C   0  0  0  0  0  2  0  0  0  0  0  0
  -29.7840  -25.0440   20.2500 C   0  0  0  0  0  2  0  0  0  0  0  0
  -29.5750  -22.2050   21.6560 C   0  0  0  0  0  2  0  0  0  0  0  0
  -27.9680  -23.1630   19.9180 C   0  0  0  0  0  2  0  0  0  0  0  0
  -30.6460  -24.5620   21.4400 C   0  0  0  0  0  3  0  0  0  0  0  0
  -28.2510  -24.7970   20.3200 C   0  0  0  0  0  3  0  0  0  0  0  0
  -28.8840  -21.9220   20.3740 N   0  0  2  0  0  4  0  0  0  0  0  0
  -29.6150  -21.8940   19.6780 H   0  0  0  0  0  0  0  0  0  0  0  0
  -31.9630  -25.2360   21.4160 N   0  0  0  0  0  4  0  0  0  0  0  0
  -32.4850  -25.0020   20.5890 H   0  0  0  0  0  0  0  0  0  0  0  0
  -32.5160  -24.9780   22.2160 H   0  0  0  0  0  0  0  0  0  0  0  0
  -31.8560  -26.2350   21.4410 H   0  0  0  0  0  0  0  0  0  0  0  0
  -27.8330  -26.1220   19.5970 O   0  0  0  0  0  0  0  0  0  0  0  0
  -24.4820  -31.7930   23.0330 C   0  0  0  0  0  0  0  0  0  0  0  0
  -26.7520  -27.0410   19.8270 C   0  0  0  0  0  0  0  0  0  0  0  0
  -23.1490  -30.4490   21.4520 C   0  0  0  0  0  3  0  0  0  0  0  0
  -24.4680  -28.8370   19.9460 C   0  0  0  0  0  0  0  0  0  0  0  0
  -25.6940  -30.6490   21.1380 C   0  0  0  0  0  2  0  0  0  0  0  0
  -25.6920  -29.2550   20.4830 C   0  0  0  0  0  0  0  0  0  0  0  0
  -26.8370  -28.3770   20.3970 C   0  0  0  0  0  3  0  0  0  0  0  0
  -25.4990  -26.7140   19.2730 C   0  0  0  0  0  3  0  0  0  0  0  0
  -24.3820  -27.5780   19.3280 C   0  0  0  0  0  3  0  0  0  0  0  0
  -23.2730  -29.7730   20.0600 C   0  0  0  0  0  2  0  0  0  0  0  0
  -24.4650  -30.9850   21.9290 N   0  0  0  0  0  0  0  0  0  0  0  0
  -23.4380  -32.0990   23.6280 O   0  0  0  0  0  0  0  0  0  0  0  0
  -22.5000  -29.4510   22.4440 C   0  0  0  0  0  0  0  0  0  0  0  0
  -21.1670  -29.2920   22.3700 N   0  0  0  0  0  0  0  0  0  0  0  0
  -23.1980  -28.8190   23.2410 O   0  0  0  0  0  0  0  0  0  0  0  0
  -20.6580  -29.8520   21.7010 H   0  0  0  0  0  0  0  0  0  0  0  0
  -17.8040  -28.0850   22.9710 C   0  0  0  0  0  0  0  0  0  0  0  0
  -20.3680  -28.3630   23.1750 C   0  0  0  0  0  3  0  0  0  0  0  0
  -20.4630  -26.9230   22.6200 C   0  0  0  0  0  2  0  0  0  0  0  0
  -19.3400  -26.5800   21.6360 C   0  0  0  0  0  2  0  0  0  0  0  0
  -17.9730  -26.7270   22.3090 C   0  0  0  0  0  2  0  0  0  0  0  0
  -18.9290  -28.8600   23.3620 C   0  0  0  0  0  0  0  0  0  0  0  0
  -18.7170  -30.1280   23.9450 C   0  0  0  0  0  3  0  0  0  0  0  0
  -17.4140  -30.6240   24.1370 C   0  0  0  0  0  3  0  0  0  0  0  0
  -16.3030  -29.8480   23.7610 C   0  0  0  0  0  3  0  0  0  0  0  0
  -16.5010  -28.5800   23.1830 C   0  0  0  0  0  3  0  0  0  0  0  0
  -25.8130  -32.3840   23.5910 C   0  0  0  0  0  3  0  0  0  0  0  0
  -26.4020  -31.5580   24.8010 C   0  0  1  0  0  0  0  0  0  0  0  0
  -25.3790  -31.3030   25.9330 C   0  0  0  0  0  1  0  0  0  0  0  0
  -26.9310  -30.1850   24.3270 C   0  0  0  0  0  1  0  0  0  0  0  0
  -27.6090  -32.3090   25.4110 C   0  0  0  0  0  1  0  0  0  0  0  0
  -25.5480  -33.7740   24.0000 N   0  0  0  0  0  0  0  0  0  0  0  0
  -25.8930  -34.8580   23.2920 C   0  0  0  0  0  0  0  0  0  0  0  0
  -26.5340  -34.7910   22.2390 O   0  0  0  0  0  0  0  0  0  0  0  0
  -24.9750  -33.9000   24.8210 H   0  0  0  0  0  0  0  0  0  0  0  0
  -24.2240  -36.7290   23.0700 C   0  0  0  0  0  1  0  0  0  0  0  0
  -25.4610  -36.2340   23.8360 C   0  0  0  0  0  3  0  0  0  0  0  0
  -27.6280  -37.0040   24.6940 C   0  0  0  0  0  1  0  0  0  0  0  0
  -26.5270  -37.2570   23.7690 N   0  0  0  0  0  0  0  0  0  0  0  0
  -26.1520  -38.1810   23.9680 H   0  0  0  0  0  0  0  0  0  0  0  0
  -28.3680  -20.4120   20.4050 C   0  0  0  0  0  2  0  0  0  0  0  0
  -29.2140  -19.0140   19.9010 C   0  0  0  0  0  2  0  0  0  0  0  0
  -29.6590  -17.6240   20.7640 C   0  0  0  0  0  2  0  0  0  0  0  0
  -30.3660  -14.9540   20.2070 C   0  0  0  0  0  0  0  0  0  0  0  0
  -30.3040  -12.6060   19.2320 C   0  0  0  0  0  2  0  0  0  0  0  0
  -29.3360  -12.5290   18.0300 C   0  0  0  0  0  2  0  0  0  0  0  0
  -27.8870  -12.2870   18.5000 C   0  0  0  0  0  2  0  0  0  0  0  0
  -27.4900  -13.1970   19.6940 C   0  0  0  0  0  3  0  0  0  0  0  0
  -28.5760  -13.2210   20.7870 C   0  0  0  0  0  2  0  0  0  0  0  0
  -29.8130  -13.6790   20.1400 N   0  0  0  0  0  0  0  0  0  0  0  0
  -31.5730  -15.0610   19.9700 O   0  0  0  0  0  0  0  0  0  0  0  0
  -29.5200  -16.0950   20.3400 N   0  0  0  0  0  0  0  0  0  0  0  0
  -28.5540  -15.8010   20.3510 H   0  0  0  0  0  0  0  0  0  0  0  0
  -25.1110  -13.7160   20.4810 C   0  0  0  0  0  0  0  0  0  0  0  0
  -24.0800  -12.9170   20.8890 C   0  0  0  0  0  0  0  0  0  0  0  0
  -24.5860  -11.5810   20.8720 C   0  0  0  0  0  0  0  0  0  0  0  0
  -26.1740  -12.8670   20.2300 N   0  0  0  0  0  0  0  0  0  0  0  0
  -25.8690  -11.5780   20.5320 N   0  0  0  0  0  0  0  0  0  0  0  0
  -23.9020  -10.3010   21.0960 C   0  0  0  0  0  0  0  0  0  0  0  0
  -24.3560   -9.3820   22.0660 C   0  0  0  0  0  3  0  0  0  0  0  0
  -23.6680   -8.1680   22.2800 C   0  0  0  0  0  3  0  0  0  0  0  0
  -22.5130   -7.8630   21.5210 C   0  0  0  0  0  0  0  0  0  0  0  0
  -22.0790   -8.7720   20.5390 C   0  0  0  0  0  3  0  0  0  0  0  0
  -22.7670   -9.9760   20.3250 C   0  0  0  0  0  3  0  0  0  0  0  0
  -21.7940   -6.6970   21.6410 O   0  0  0  0  0  0  0  0  0  0  0  0
  -21.7300   -6.0100   22.8260 C   0  0  0  0  0  0  0  0  0  0  0  0
  -21.2020   -6.5920   23.9990 C   0  0  0  0  0  3  0  0  0  0  0  0
  -21.0910   -5.8270   25.1770 C   0  0  0  0  0  3  0  0  0  0  0  0
  -21.5000   -4.4800   25.1830 C   0  0  0  0  0  0  0  0  0  0  0  0
  -22.0220   -3.8960   24.0150 C   0  0  0  0  0  3  0  0  0  0  0  0
  -22.1350   -4.6600   22.8390 C   0  0  0  0  0  0  0  0  0  0  0  0
  -22.6180   -4.0860   21.7110 F   0  0  0  0  0  0  0  0  0  0  0  0
  -21.3870   -3.7410   26.3120 F   0  0  0  0  0  0  0  0  0  0  0  0
  -22.6750  -13.3570   21.1810 C   0  0  0  0  0  0  0  0  0  0  0  0
  -21.9850  -12.6510   22.0690 N   0  0  0  0  0  0  0  0  0  0  0  0
  -22.1990  -14.3610   20.6540 O   0  0  0  0  0  0  0  0  0  0  0  0
  -22.3850  -11.8410   22.5180 H   0  0  0  0  0  0  0  0  0  0  0  0
  -21.0410  -12.9250   22.3040 H   0  0  0  0  0  0  0  0  0  0  0  0
  -25.2240  -15.0890   20.2750 N   0  0  0  0  0  0  0  0  0  0  0  0
  -24.4300  -15.7110   20.3840 H   0  0  0  0  0  0  0  0  0  0  0  0
  -26.0290  -15.5480   19.8690 H   0  0  0  0  0  0  0  0  0  0  0  0
  1  3  1  0
  2  6  1  0
  2  5  1  0
  4  6  1  0
  4  7  1  0
  5  9  1  0
  5  1  1  0
  6 13  1  0
  7 54  1  0
  7  3  1  0
  7  8  1  6
  9 12  1  0
  9 11  1  0
 10  9  1  0
 13 15  1  0
 14 25  2  0
 15 20  1  0
 16 24  1  0
 16 26  1  0
 17 23  1  0
 17 19  1  0
 18 24  1  0
 19 18  1  0
 20 19  2  0
 21 22  1  0
 21 15  2  0
 22 17  2  0
 23 16  1  0
 24 14  1  0
 26 28  2  0
 27 26  1  0
 29 27  1  0
 30 39  2  0
 30 35  1  0
 31 27  1  0
 31 35  1  0
 32 31  1  0
 33 34  1  0
 33 32  1  0
 34 30  1  0
 35 36  2  0
 36 37  1  0
 38 37  2  0
 39 38  1  0
 40 14  1  0
 40 45  1  0
 40 41  1  0
 41 44  1  1
 41 42  1  0
 43 41  1  0
 45 48  1  0
 46 50  1  0
 46 45  1  0
 47 46  2  0
 50 49  1  0
 52 50  1  0
 52 53  1  0
 52 51  1  0
 55 54  1  0
 55 56  1  0
 57 65  1  0
 58 63  1  0
 59 60  1  0
 59 58  1  0
 61 60  1  0
 61 70  1  0
 61 62  1  0
 63 57  1  0
 63 62  1  0
 64 57  2  0
 65 66  1  0
 65 56  1  0
 67 68  2  0
 68 87  1  0
 69 68  1  0
 69 72  1  0
 70 67  1  0
 70 71  1  0
 71 69  2  0
 72 73  1  0
 73 74  2  0
 75 78  1  0
 75 74  1  0
 76 75  2  0
 77 76  1  0
 77 72  2  0
 78 79  1  0
 79 84  2  0
 79 80  1  0
 80 81  2  0
 81 82  1  0
 82 86  1  0
 83 82  2  0
 84 83  1  0
 85 84  1  0
 87 88  1  0
 88 91  1  0
 88 90  1  0
 89 87  2  0
 92 93  1  0
 92 67  1  0
 94 92  1  0
M  ISO  4   6 101  13 101  57 100  65 100
M  END
>  <TORSDO>  (73) 
F 20

>  <SCORE>  (73) 
-14.783

>  <name>  (73) 
73

>  <ligand_id>  (73) 
73

>  <original_smiles>  (73) 
[H]c1c([H])c([H])c2c(c1[H])C([H])([H])C([H])([H])C([H])([H])C2([H])N([H])C(=O)C1([H])N(C(=O)C([H])(N([H])C(=O)C([H])(N([H])C([H])([H])[H])C([H])([H])[H])C(C([H])([H])[H])(C([H])([H])[H])C([H])([H])[H])C([H])([H])c2c([H])c(OC3([H])C([H])([H])C([H])([N+]([H])([H])[H])C([H])([H])C([H])([H])[N+]([H])(C([H])([H])C([H])([H])C([H])([H])N([H])C(=O)N4C([H])([H])C([H])([H])C([H])([H])C([H])(n5nc(-c6c([H])c([H])c(Oc7c([H])c([H])c(F)c([H])c7F)c([H])c6[H])c(C(=O)N([H])[H])c5N([H])[H])C4([H])[H])C3([H])[H])c([H])c([H])c2C1([H])[H]

>  <smiles>  (73) 
[H]c1c([H])c([H])c2c(c1[H])C([H])([H])C([H])([H])C([H])([H])C2([H])N([H])C(=O)C1([H])N(C(=O)C([H])(N([H])C(=O)C([H])(N([H])C([H])([H])[H])C([H])([H])[H])C(C([H])([H])[H])(C([H])([H])[H])C([H])([H])[H])C([H])([H])c2c([H])c(OC3([H])C([H])([H])C([H])([N+]([H])([H])[H])C([H])([H])C([H])([H])[N+]([H])(C([H])([H])C([H])([H])C([H])([H])N([H])C(=O)N4C([H])([H])C([H])([H])C([H])([H])C([H])(n5nc(-c6c([H])c([H])c(Oc7c([H])c([H])c(F)c([H])c7F)c([H])c6[H])c(C(=O)N([H])[H])c5N([H])[H])C4([H])[H])C3([H])[H])c([H])c([H])c2C1([H])[H]

$$$$
74:0:0
     RDKit          3D

 94103  0  0  1  0  0  0  0  0999 V2000
  -27.4660  -21.2410   20.2290 C   0  0  0  0  0  2  0  0  0  0  0  0
  -28.9160  -23.0410   20.9600 C   0  0  0  0  0  2  0  0  0  0  0  0
  -28.6020  -21.3080   19.1830 C   0  0  0  0  0  3  0  0  0  0  0  0
  -28.8950  -23.0490   19.4340 C   0  0  0  0  0  3  0  0  0  0  0  0
  -27.8380  -22.1200   21.3620 N   0  0  0  0  0  4  0  0  0  0  0  0
  -28.1430  -21.5770   22.1520 H   0  0  0  0  0  0  0  0  0  0  0  0
  -27.0290  -22.6510   21.6470 H   0  0  0  0  0  0  0  0  0  0  0  0
  -29.6540  -19.8330   19.2910 C   0  0  0  0  0  2  0  0  0  0  0  0
  -30.7350  -15.4000   19.1540 C   0  0  0  0  0  0  0  0  0  0  0  0
  -30.5340  -12.9220   18.4490 C   0  0  0  0  0  2  0  0  0  0  0  0
  -29.4820  -12.6400   17.3470 C   0  0  0  0  0  2  0  0  0  0  0  0
  -28.0970  -12.4070   17.9660 C   0  0  0  0  0  2  0  0  0  0  0  0
  -27.7730  -13.4570   19.0550 C   0  0  0  0  0  3  0  0  0  0  0  0
  -28.9410  -13.6760   20.0380 C   0  0  0  0  0  2  0  0  0  0  0  0
  -30.1110  -14.1250   19.2620 N   0  0  0  0  0  0  0  0  0  0  0  0
  -31.8570  -15.3430   18.6340 O   0  0  0  0  0  0  0  0  0  0  0  0
  -30.6280  -17.0380   20.9900 C   0  0  0  0  0  2  0  0  0  0  0  0
  -29.3700  -16.9970   21.8810 C   0  0  0  0  0  2  0  0  0  0  0  0
  -28.0680  -17.7060   19.8170 C   0  0  0  0  0  2  0  0  0  0  0  0
  -29.3880  -18.0490   19.0960 C   0  0  0  0  0  3  0  0  0  0  0  0
  -30.2330  -16.7180   19.6150 N   0  0  0  0  0  0  0  0  0  0  0  0
  -28.2260  -17.7550   21.3020 N   0  0  0  0  0  4  0  0  0  0  0  0
  -28.3390  -18.7130   21.5820 H   0  0  0  0  0  0  0  0  0  0  0  0
  -27.3780  -17.4200   21.7320 H   0  0  0  0  0  0  0  0  0  0  0  0
  -25.5630  -14.0820   20.1760 C   0  0  0  0  0  0  0  0  0  0  0  0
  -24.5330  -13.3380   20.6770 C   0  0  0  0  0  0  0  0  0  0  0  0
  -24.9200  -11.9760   20.5160 C   0  0  0  0  0  0  0  0  0  0  0  0
  -26.5150  -13.1770   19.7420 N   0  0  0  0  0  0  0  0  0  0  0  0
  -26.1480  -11.8970   20.0130 N   0  0  0  0  0  0  0  0  0  0  0  0
  -24.1590  -10.7420   20.7520 C   0  0  0  0  0  0  0  0  0  0  0  0
  -24.5990   -9.7740   21.6810 C   0  0  0  0  0  3  0  0  0  0  0  0
  -23.8420   -8.6040   21.9050 C   0  0  0  0  0  3  0  0  0  0  0  0
  -22.6310   -8.3950   21.2010 C   0  0  0  0  0  0  0  0  0  0  0  0
  -22.2100   -9.3530   20.2620 C   0  0  0  0  0  3  0  0  0  0  0  0
  -22.9670  -10.5150   20.0370 C   0  0  0  0  0  3  0  0  0  0  0  0
  -21.8430   -7.2780   21.3370 O   0  0  0  0  0  0  0  0  0  0  0  0
  -21.7170   -6.6270   22.5380 C   0  0  0  0  0  0  0  0  0  0  0  0
  -21.2580   -7.2860   23.6990 C   0  0  0  0  0  3  0  0  0  0  0  0
  -21.0770   -6.5630   24.8940 C   0  0  0  0  0  3  0  0  0  0  0  0
  -21.3420   -5.1800   24.9260 C   0  0  0  0  0  0  0  0  0  0  0  0
  -21.7950   -4.5200   23.7700 C   0  0  0  0  0  3  0  0  0  0  0  0
  -21.9760   -5.2430   22.5760 C   0  0  0  0  0  0  0  0  0  0  0  0
  -22.3910   -4.5990   21.4590 F   0  0  0  0  0  0  0  0  0  0  0  0
  -21.1620   -4.4830   26.0720 F   0  0  0  0  0  0  0  0  0  0  0  0
  -23.2170  -13.8700   21.1620 C   0  0  0  0  0  0  0  0  0  0  0  0
  -22.5990  -13.2010   22.1310 N   0  0  0  0  0  0  0  0  0  0  0  0
  -22.7550  -14.9200   20.7170 O   0  0  0  0  0  0  0  0  0  0  0  0
  -22.9870  -12.3580   22.5230 H   0  0  0  0  0  0  0  0  0  0  0  0
  -21.7210  -13.5510   22.4890 H   0  0  0  0  0  0  0  0  0  0  0  0
  -25.7390  -15.4470   20.0150 N   0  0  0  0  0  0  0  0  0  0  0  0
  -24.8840  -15.9790   20.1480 H   0  0  0  0  0  0  0  0  0  0  0  0
  -26.2010  -15.7140   19.1560 H   0  0  0  0  0  0  0  0  0  0  0  0
  -27.9220  -24.4960   19.0850 C   0  0  0  0  0  2  0  0  0  0  0  0
  -28.0360  -26.0580   19.5260 O   0  0  0  0  0  0  0  0  0  0  0  0
  -24.4130  -31.6160   23.0270 C   0  0  0  0  0  0  0  0  0  0  0  0
  -26.9780  -27.0930   19.5580 C   0  0  0  0  0  0  0  0  0  0  0  0
  -23.1860  -30.2960   21.3540 C   0  0  0  0  0  3  0  0  0  0  0  0
  -24.6130  -28.8570   19.7550 C   0  0  0  0  0  0  0  0  0  0  0  0
  -25.7310  -30.6200   21.1020 C   0  0  0  0  0  2  0  0  0  0  0  0
  -25.8140  -29.2670   20.3440 C   0  0  0  0  0  0  0  0  0  0  0  0
  -26.9900  -28.4090   20.2250 C   0  0  0  0  0  3  0  0  0  0  0  0
  -25.7410  -26.8280   18.9250 C   0  0  0  0  0  3  0  0  0  0  0  0
  -24.5980  -27.6590   19.0250 C   0  0  0  0  0  3  0  0  0  0  0  0
  -23.3660  -29.7240   19.9230 C   0  0  0  0  0  2  0  0  0  0  0  0
  -24.4670  -30.8650   21.8830 N   0  0  0  0  0  0  0  0  0  0  0  0
  -23.3420  -31.8300   23.6180 O   0  0  0  0  0  0  0  0  0  0  0  0
  -22.5720  -29.2070   22.2700 C   0  0  0  0  0  0  0  0  0  0  0  0
  -21.2530  -28.9680   22.1550 N   0  0  0  0  0  0  0  0  0  0  0  0
  -23.2870  -28.5780   23.0550 O   0  0  0  0  0  0  0  0  0  0  0  0
  -20.7240  -29.5310   21.5040 H   0  0  0  0  0  0  0  0  0  0  0  0
  -17.9700  -27.4930   22.5690 C   0  0  0  0  0  0  0  0  0  0  0  0
  -20.4980  -27.9470   22.8850 C   0  0  0  0  0  3  0  0  0  0  0  0
  -20.7170  -26.5410   22.2710 C   0  0  0  0  0  2  0  0  0  0  0  0
  -19.6540  -26.1670   21.2300 C   0  0  0  0  0  2  0  0  0  0  0  0
  -18.2580  -26.1850   21.8570 C   0  0  0  0  0  2  0  0  0  0  0  0
  -19.0190  -28.3290   23.0390 C   0  0  0  0  0  0  0  0  0  0  0  0
  -18.6870  -29.5510   23.6620 C   0  0  0  0  0  3  0  0  0  0  0  0
  -17.3430  -29.9390   23.8240 C   0  0  0  0  0  3  0  0  0  0  0  0
  -16.3100  -29.0990   23.3690 C   0  0  0  0  0  3  0  0  0  0  0  0
  -16.6250  -27.8780   22.7500 C   0  0  0  0  0  3  0  0  0  0  0  0
  -25.6940  -32.2530   23.6470 C   0  0  0  0  0  3  0  0  0  0  0  0
  -25.3640  -33.6310   24.0480 N   0  0  0  0  0  0  0  0  0  0  0  0
  -25.6490  -34.7240   23.3280 C   0  0  0  0  0  0  0  0  0  0  0  0
  -26.2750  -34.6790   22.2680 O   0  0  0  0  0  0  0  0  0  0  0  0
  -24.8070  -33.7370   24.8830 H   0  0  0  0  0  0  0  0  0  0  0  0
  -23.8740  -36.4990   23.1290 C   0  0  0  0  0  1  0  0  0  0  0  0
  -25.1570  -36.0840   23.8690 C   0  0  0  0  0  3  0  0  0  0  0  0
  -27.3070  -36.9810   24.6480 C   0  0  0  0  0  1  0  0  0  0  0  0
  -26.1630  -37.1630   23.7570 N   0  0  0  0  0  0  0  0  0  0  0  0
  -25.7450  -38.0680   23.9580 H   0  0  0  0  0  0  0  0  0  0  0  0
  -26.2470  -31.4470   24.8870 C   0  0  1  0  0  0  0  0  0  0  0  0
  -25.1890  -31.1570   25.9780 C   0  0  0  0  0  1  0  0  0  0  0  0
  -26.8370  -30.0900   24.4450 C   0  0  0  0  0  1  0  0  0  0  0  0
  -27.4030  -32.2330   25.5480 C   0  0  0  0  0  1  0  0  0  0  0  0
  1  5  1  0
  2  5  1  0
  3  8  1  0
  3  4  1  0
  3  1  1  0
  4 53  1  0
  4  2  1  0
  5  7  1  0
  5  6  1  0
  9 15  1  0
  9 21  1  0
 10 15  1  0
 11 12  1  0
 11 10  1  0
 13 12  1  0
 13 28  1  0
 13 14  1  0
 15 14  1  0
 16  9  2  0
 17 18  1  0
 19 22  1  0
 20  8  1  0
 20 21  1  0
 20 19  1  0
 21 17  1  0
 22 23  1  0
 22 24  1  0
 22 18  1  0
 25 26  2  0
 26 45  1  0
 27 26  1  0
 27 30  1  0
 28 29  1  0
 28 25  1  0
 29 27  2  0
 30 31  1  0
 31 32  2  0
 33 36  1  0
 33 32  1  0
 34 33  2  0
 35 34  1  0
 35 30  2  0
 36 37  1  0
 37 42  2  0
 37 38  1  0
 38 39  2  0
 39 40  1  0
 40 44  1  0
 41 40  2  0
 42 41  1  0
 43 42  1  0
 45 46  1  0
 46 49  1  0
 46 48  1  0
 47 45  2  0
 50 51  1  0
 50 25  1  0
 52 50  1  0
 53 54  1  0
 54 56  1  0
 55 66  2  0
 56 61  1  0
 57 65  1  0
 57 67  1  0
 58 64  1  0
 58 60  1  0
 59 65  1  0
 60 59  1  0
 61 60  2  0
 62 63  1  0
 62 56  2  0
 63 58  2  0
 64 57  1  0
 65 55  1  0
 67 69  2  0
 68 67  1  0
 70 68  1  0
 71 80  2  0
 71 76  1  0
 72 68  1  0
 72 76  1  0
 73 72  1  0
 74 75  1  0
 74 73  1  0
 75 71  1  0
 76 77  2  0
 77 78  1  0
 79 78  2  0
 80 79  1  0
 81 55  1  0
 81 82  1  0
 81 91  1  0
 82 85  1  0
 83 87  1  0
 83 82  1  0
 84 83  2  0
 87 86  1  0
 89 87  1  0
 89 90  1  0
 89 88  1  0
 91 94  1  1
 91 92  1  0
 93 91  1  0
M  ISO  4   9 100  21 100  53 101  54 101
M  END
>  <TORSDO>  (74) 
F 18

>  <SCORE>  (74) 
-13.263

>  <name>  (74) 
74

>  <ligand_id>  (74) 
74

>  <original_smiles>  (74) 
[H]c1c([H])c([H])c2c(c1[H])C([H])([H])C([H])([H])C([H])([H])C2([H])N([H])C(=O)C1([H])N(C(=O)C([H])(N([H])C(=O)C([H])(N([H])C([H])([H])[H])C([H])([H])[H])C(C([H])([H])[H])(C([H])([H])[H])C([H])([H])[H])C([H])([H])c2c([H])c(OC([H])([H])C3([H])C([H])(C([H])([H])C4([H])N(C(=O)N5C([H])([H])C([H])([H])C([H])([H])C([H])(n6nc(-c7c([H])c([H])c(Oc8c([H])c([H])c(F)c([H])c8F)c([H])c7[H])c(C(=O)N([H])[H])c6N([H])[H])C5([H])[H])C([H])([H])C([H])([H])[N+]([H])([H])C4([H])[H])C([H])([H])[N+]([H])([H])C3([H])[H])c([H])c([H])c2C1([H])[H]

>  <smiles>  (74) 
[H]c1c([H])c([H])c2c(c1[H])C([H])([H])C([H])([H])C([H])([H])C2([H])N([H])C(=O)C1([H])N(C(=O)C([H])(N([H])C(=O)C([H])(N([H])C([H])([H])[H])C([H])([H])[H])C(C([H])([H])[H])(C([H])([H])[H])C([H])([H])[H])C([H])([H])c2c([H])c(OC([H])([H])C3([H])C([H])(C([H])([H])C4([H])N(C(=O)N5C([H])([H])C([H])([H])C([H])([H])C([H])(n6nc(-c7c([H])c([H])c(Oc8c([H])c([H])c(F)c([H])c8F)c([H])c7[H])c(C(=O)N([H])[H])c6N([H])[H])C5([H])[H])C([H])([H])C([H])([H])[N+]([H])([H])C4([H])[H])C([H])([H])[N+]([H])([H])C3([H])[H])c([H])c([H])c2C1([H])[H]

$$$$
75:0:0
     RDKit          3D

 97105  0  0  1  0  0  0  0  0999 V2000
  -29.9680  -19.3310   22.6730 C   0  0  0  0  0  3  0  0  0  0  0  0
  -30.4700  -18.2330   21.9570 C   0  0  0  0  0  3  0  0  0  0  0  0
  -29.5800  -20.4980   21.9970 C   0  0  0  0  0  3  0  0  0  0  0  0
  -30.6130  -18.2870   20.5540 C   0  0  0  0  0  0  0  0  0  0  0  0
  -29.6850  -20.6060   20.5920 C   0  0  0  0  0  0  0  0  0  0  0  0
  -30.2300  -19.4920   19.8590 C   0  0  0  0  0  0  0  0  0  0  0  0
  -31.2670  -17.0630   19.8650 C   0  0  0  0  0  2  0  0  0  0  0  0
  -31.7190  -14.6190   20.1390 C   0  0  0  0  0  0  0  0  0  0  0  0
  -31.3850  -12.3580   19.2160 C   0  0  0  0  0  2  0  0  0  0  0  0
  -30.4310  -12.4730   18.0090 C   0  0  0  0  0  2  0  0  0  0  0  0
  -28.9600  -12.4010   18.4650 C   0  0  0  0  0  2  0  0  0  0  0  0
  -28.6560  -13.3390   19.6640 C   0  0  0  0  0  3  0  0  0  0  0  0
  -29.7260  -13.2050   20.7730 C   0  0  0  0  0  2  0  0  0  0  0  0
  -31.0430  -13.4370   20.1610 N   0  0  0  0  0  0  0  0  0  0  0  0
  -32.8520  -14.7220   19.6610 O   0  0  0  0  0  0  0  0  0  0  0  0
  -30.9920  -15.7220   20.4340 N   0  0  0  0  0  0  0  0  0  0  0  0
  -30.0820  -15.5690   20.8390 H   0  0  0  0  0  0  0  0  0  0  0  0
  -26.3430  -14.0630   20.5250 C   0  0  0  0  0  0  0  0  0  0  0  0
  -25.2330  -13.3450   20.8840 C   0  0  0  0  0  0  0  0  0  0  0  0
  -25.5880  -11.9690   20.7330 C   0  0  0  0  0  0  0  0  0  0  0  0
  -27.3070  -13.1280   20.1840 N   0  0  0  0  0  0  0  0  0  0  0  0
  -26.8590  -11.8590   20.3660 N   0  0  0  0  0  0  0  0  0  0  0  0
  -24.7760  -10.7510   20.8620 C   0  0  0  0  0  0  0  0  0  0  0  0
  -25.1430   -9.7090   21.7420 C   0  0  0  0  0  3  0  0  0  0  0  0
  -24.3360   -8.5580   21.8650 C   0  0  0  0  0  3  0  0  0  0  0  0
  -23.1480   -8.4390   21.1060 C   0  0  0  0  0  0  0  0  0  0  0  0
  -22.7980   -9.4690   20.2150 C   0  0  0  0  0  3  0  0  0  0  0  0
  -23.6050  -10.6120   20.0890 C   0  0  0  0  0  3  0  0  0  0  0  0
  -22.3180   -7.3450   21.1390 O   0  0  0  0  0  0  0  0  0  0  0  0
  -22.1080   -6.6340   22.2950 C   0  0  0  0  0  0  0  0  0  0  0  0
  -21.5630   -7.2340   23.4510 C   0  0  0  0  0  3  0  0  0  0  0  0
  -21.2990   -6.4520   24.5930 C   0  0  0  0  0  3  0  0  0  0  0  0
  -21.5710   -5.0720   24.5800 C   0  0  0  0  0  0  0  0  0  0  0  0
  -22.1100   -4.4710   23.4290 C   0  0  0  0  0  3  0  0  0  0  0  0
  -22.3750   -5.2500   22.2890 C   0  0  0  0  0  0  0  0  0  0  0  0
  -22.8740   -4.6620   21.1750 F   0  0  0  0  0  0  0  0  0  0  0  0
  -21.3100   -4.3180   25.6730 F   0  0  0  0  0  0  0  0  0  0  0  0
  -23.8890  -13.9010   21.2540 C   0  0  0  0  0  0  0  0  0  0  0  0
  -23.1640  -13.2170   22.1330 N   0  0  0  0  0  0  0  0  0  0  0  0
  -23.4930  -14.9740   20.8010 O   0  0  0  0  0  0  0  0  0  0  0  0
  -23.4970  -12.3460   22.5190 H   0  0  0  0  0  0  0  0  0  0  0  0
  -22.2630  -13.5700   22.4210 H   0  0  0  0  0  0  0  0  0  0  0  0
  -26.6050  -15.4270   20.4400 N   0  0  0  0  0  0  0  0  0  0  0  0
  -25.8980  -16.1260   20.6430 H   0  0  0  0  0  0  0  0  0  0  0  0
  -27.4780  -15.8290   20.1270 H   0  0  0  0  0  0  0  0  0  0  0  0
  -29.1080  -21.9040   19.9600 C   0  0  0  0  0  2  0  0  0  0  0  0
  -29.8870  -23.1610   20.1780 N   0  0  0  0  0  4  0  0  0  0  0  0
  -30.4830  -23.3020   19.3780 H   0  0  0  0  0  0  0  0  0  0  0  0
  -30.4900  -23.0170   20.9720 H   0  0  0  0  0  0  0  0  0  0  0  0
  -29.0850  -24.4140   20.4240 C   0  0  0  0  0  2  0  0  0  0  0  0
  -29.7020  -25.7110   19.8030 C   0  0  0  0  0  2  0  0  0  0  0  0
  -29.3820  -26.9610   20.4590 O   0  0  0  0  0  0  0  0  0  0  0  0
  -24.8460  -31.5560   23.4470 C   0  0  0  0  0  0  0  0  0  0  0  0
  -28.1420  -27.5710   20.3400 C   0  0  0  0  0  0  0  0  0  0  0  0
  -23.9230  -30.1870   21.6050 C   0  0  0  0  0  3  0  0  0  0  0  0
  -25.6280  -28.8880   20.2190 C   0  0  0  0  0  0  0  0  0  0  0  0
  -26.4130  -30.7680   21.6690 C   0  0  0  0  0  2  0  0  0  0  0  0
  -26.6780  -29.4600   20.9460 C   0  0  0  0  0  0  0  0  0  0  0  0
  -27.9340  -28.8090   21.0010 C   0  0  0  0  0  3  0  0  0  0  0  0
  -27.0700  -27.0170   19.6040 C   0  0  0  0  0  3  0  0  0  0  0  0
  -25.8210  -27.6710   19.5440 C   0  0  0  0  0  3  0  0  0  0  0  0
  -24.3110  -29.6310   20.2070 C   0  0  0  0  0  2  0  0  0  0  0  0
  -25.0740  -30.8500   22.3000 N   0  0  0  0  0  0  0  0  0  0  0  0
  -23.7020  -31.6900   23.9020 O   0  0  0  0  0  0  0  0  0  0  0  0
  -23.2860  -29.0450   22.4280 C   0  0  0  0  0  0  0  0  0  0  0  0
  -22.0070  -28.7460   22.1500 N   0  0  0  0  0  0  0  0  0  0  0  0
  -23.9460  -28.4330   23.2720 O   0  0  0  0  0  0  0  0  0  0  0  0
  -21.5360  -29.2930   21.4420 H   0  0  0  0  0  0  0  0  0  0  0  0
  -18.7520  -27.1790   22.1950 C   0  0  0  0  0  0  0  0  0  0  0  0
  -21.2190  -27.6810   22.7710 C   0  0  0  0  0  3  0  0  0  0  0  0
  -21.5430  -26.3100   22.1360 C   0  0  0  0  0  2  0  0  0  0  0  0
  -20.5970  -25.9300   20.9920 C   0  0  0  0  0  2  0  0  0  0  0  0
  -19.1460  -25.8980   21.4780 C   0  0  0  0  0  2  0  0  0  0  0  0
  -19.7250  -28.0220   22.7890 C   0  0  0  0  0  0  0  0  0  0  0  0
  -19.3070  -29.2160   23.4170 C   0  0  0  0  0  3  0  0  0  0  0  0
  -17.9460  -29.5700   23.4570 C   0  0  0  0  0  3  0  0  0  0  0  0
  -16.9830  -28.7230   22.8800 C   0  0  0  0  0  3  0  0  0  0  0  0
  -17.3860  -27.5290   22.2540 C   0  0  0  0  0  3  0  0  0  0  0  0
  -26.0090  -32.2450   24.2250 C   0  0  0  0  0  3  0  0  0  0  0  0
  -25.6320  -33.6500   24.4360 N   0  0  0  0  0  0  0  0  0  0  0  0
  -26.0530  -34.6720   23.6800 C   0  0  0  0  0  0  0  0  0  0  0  0
  -26.8700  -34.5380   22.7660 O   0  0  0  0  0  0  0  0  0  0  0  0
  -24.9240  -33.8280   25.1330 H   0  0  0  0  0  0  0  0  0  0  0  0
  -24.3490  -36.3900   22.9980 C   0  0  0  0  0  1  0  0  0  0  0  0
  -25.4780  -36.0680   23.9900 C   0  0  0  0  0  3  0  0  0  0  0  0
  -27.4550  -37.0630   25.0520 C   0  0  0  0  0  1  0  0  0  0  0  0
  -26.4930  -37.1430   23.9550 N   0  0  0  0  0  0  0  0  0  0  0  0
  -26.0500  -38.0570   23.9890 H   0  0  0  0  0  0  0  0  0  0  0  0
  -26.3410  -31.5450   25.5990 C   0  0  1  0  0  0  0  0  0  0  0  0
  -25.1020  -31.3210   26.4980 C   0  0  0  0  0  1  0  0  0  0  0  0
  -27.0070  -30.1690   25.3650 C   0  0  0  0  0  1  0  0  0  0  0  0
  -27.3600  -32.3980   26.3910 C   0  0  0  0  0  1  0  0  0  0  0  0
  -30.4130  -19.5900   18.3400 C   0  0  0  0  0  2  0  0  0  0  0  0
  -29.2620  -19.0440   17.6050 N   0  0  0  0  0  4  0  0  0  0  0  0
  -29.3940  -19.1960   16.6210 H   0  0  0  0  0  0  0  0  0  0  0  0
  -28.4060  -19.4920   17.8760 H   0  0  0  0  0  0  0  0  0  0  0  0
  -29.1750  -18.0560   17.7550 H   0  0  0  0  0  0  0  0  0  0  0  0
  2  1  2  0
  3  1  1  0
  4  2  1  0
  5  3  2  0
  6  4  2  0
  6  5  1  0
  7 16  1  0
  7  4  1  0
  8 14  1  0
  8 16  1  0
  9 14  1  0
 10 11  1  0
 10  9  1  0
 12 11  1  0
 12 21  1  0
 12 13  1  0
 14 13  1  0
 15  8  2  0
 16 17  1  0
 18 19  2  0
 19 38  1  0
 20 23  1  0
 20 19  1  0
 21 22  1  0
 21 18  1  0
 22 20  2  0
 23 24  1  0
 24 25  2  0
 26 29  1  0
 26 25  1  0
 27 26  2  0
 28 27  1  0
 28 23  2  0
 29 30  1  0
 30 31  1  0
 31 32  2  0
 33 32  1  0
 33 37  1  0
 34 33  2  0
 35 30  2  0
 35 34  1  0
 36 35  1  0
 38 39  1  0
 39 42  1  0
 39 41  1  0
 40 38  2  0
 43 18  1  0
 43 44  1  0
 45 43  1  0
 46 47  1  0
 46  5  1  0
 47 50  1  0
 47 49  1  0
 48 47  1  0
 51 50  1  0
 51 52  1  0
 53 64  2  0
 54 52  1  0
 54 59  1  0
 55 63  1  0
 55 65  1  0
 56 58  1  0
 57 63  1  0
 58 59  2  0
 58 57  1  0
 60 54  2  0
 61 60  1  0
 61 56  2  0
 62 56  1  0
 62 55  1  0
 63 53  1  0
 65 67  2  0
 66 65  1  0
 68 66  1  0
 69 78  2  0
 69 74  1  0
 70 66  1  0
 70 74  1  0
 71 70  1  0
 72 73  1  0
 72 71  1  0
 73 69  1  0
 74 75  2  0
 75 76  1  0
 77 76  2  0
 78 77  1  0
 79 53  1  0
 79 80  1  0
 79 89  1  0
 80 83  1  0
 81 85  1  0
 81 80  1  0
 82 81  2  0
 85 84  1  0
 87 88  1  0
 87 85  1  0
 87 86  1  0
 89 92  1  1
 89 90  1  0
 91 89  1  0
 93  6  1  0
 94 97  1  0
 94 96  1  0
 94 93  1  0
 95 94  1  0
M  ISO  4   8 100  16 100  51 101  52 101
M  END
>  <TORSDO>  (75) 
F 23

>  <SCORE>  (75) 
-9.515

>  <name>  (75) 
75

>  <ligand_id>  (75) 
75

>  <original_smiles>  (75) 
[H]c1c([H])c([H])c2c(c1[H])C([H])([H])C([H])([H])C([H])([H])C2([H])N([H])C(=O)C1([H])N(C(=O)C([H])(N([H])C(=O)C([H])(N([H])C([H])([H])[H])C([H])([H])[H])C(C([H])([H])[H])(C([H])([H])[H])C([H])([H])[H])C([H])([H])c2c([H])c(OC([H])([H])C([H])([H])[N+]([H])([H])C([H])([H])c3c([H])c([H])c([H])c(C([H])([H])N([H])C(=O)N4C([H])([H])C([H])([H])C([H])([H])C([H])(n5nc(-c6c([H])c([H])c(Oc7c([H])c([H])c(F)c([H])c7F)c([H])c6[H])c(C(=O)N([H])[H])c5N([H])[H])C4([H])[H])c3C([H])([H])[N+]([H])([H])[H])c([H])c([H])c2C1([H])[H]

>  <smiles>  (75) 
[H]c1c([H])c([H])c2c(c1[H])C([H])([H])C([H])([H])C([H])([H])C2([H])N([H])C(=O)C1([H])N(C(=O)C([H])(N([H])C(=O)C([H])(N([H])C([H])([H])[H])C([H])([H])[H])C(C([H])([H])[H])(C([H])([H])[H])C([H])([H])[H])C([H])([H])c2c([H])c(OC([H])([H])C([H])([H])[N+]([H])([H])C([H])([H])c3c([H])c([H])c([H])c(C([H])([H])N([H])C(=O)N4C([H])([H])C([H])([H])C([H])([H])C([H])(n5nc(-c6c([H])c([H])c(Oc7c([H])c([H])c(F)c([H])c7F)c([H])c6[H])c(C(=O)N([H])[H])c5N([H])[H])C4([H])[H])c3C([H])([H])[N+]([H])([H])[H])c([H])c([H])c2C1([H])[H]

$$$$
76:0:0
     RDKit          3D

 96105  0  0  1  0  0  0  0  0999 V2000
  -28.6440  -20.1670   21.1080 C   0  0  0  0  0  2  0  0  0  0  0  0
  -31.0260  -20.0580   21.9850 C   0  0  0  0  0  2  0  0  0  0  0  0
  -29.2650  -21.2900   20.2410 C   0  0  0  0  0  2  0  0  0  0  0  0
  -30.7860  -21.5590   22.1970 C   0  0  0  0  0  2  0  0  0  0  0  0
  -29.6950  -19.2750   21.8330 C   0  0  0  0  0  3  0  0  0  0  0  0
  -30.1570  -22.2050   21.0140 N   0  0  2  0  0  4  0  0  0  0  0  0
  -30.9200  -22.4160   20.3880 H   0  0  0  0  0  0  0  0  0  0  0  0
  -29.8950  -17.8820   21.1630 C   0  0  0  0  0  2  0  0  0  0  0  0
  -31.8010  -15.9480   24.0560 C   0  0  0  0  0  2  0  0  0  0  0  0
  -32.5410  -14.9550   23.1660 C   0  0  0  0  0  2  0  0  0  0  0  0
  -31.3010  -17.1260   23.2160 C   0  0  0  0  0  2  0  0  0  0  0  0
  -31.5930  -14.4210   22.0900 C   0  0  0  0  0  2  0  0  0  0  0  0
  -30.3370  -16.7020   22.0820 C   0  0  0  0  0  3  0  0  0  0  0  0
  -30.9270  -15.5300   21.2380 C   0  0  0  0  0  3  0  0  0  0  0  0
  -29.9680  -14.3650   19.2510 C   0  0  0  0  0  0  0  0  0  0  0  0
  -29.2860  -12.4870   17.7990 C   0  0  0  0  0  2  0  0  0  0  0  0
  -28.0890  -12.8260   16.8970 C   0  0  0  0  0  2  0  0  0  0  0  0
  -26.7620  -12.5760   17.6380 C   0  0  0  0  0  2  0  0  0  0  0  0
  -26.7330  -13.2380   19.0410 C   0  0  0  0  0  3  0  0  0  0  0  0
  -28.0070  -12.8870   19.8340 C   0  0  0  0  0  2  0  0  0  0  0  0
  -29.1780  -13.2850   19.0280 N   0  0  0  0  0  0  0  0  0  0  0  0
  -30.8060  -14.7760   18.4410 O   0  0  0  0  0  0  0  0  0  0  0  0
  -29.8640  -14.8710   20.4850 N   0  0  0  0  0  0  0  0  0  0  0  0
  -29.0980  -14.5070   21.0310 H   0  0  0  0  0  0  0  0  0  0  0  0
  -24.5070  -13.6840   20.2560 C   0  0  0  0  0  0  0  0  0  0  0  0
  -23.5800  -12.8390   20.8060 C   0  0  0  0  0  0  0  0  0  0  0  0
  -24.0940  -11.5190   20.6250 C   0  0  0  0  0  0  0  0  0  0  0  0
  -25.5240  -12.8730   19.7780 N   0  0  0  0  0  0  0  0  0  0  0  0
  -25.2890  -11.5650   20.0520 N   0  0  0  0  0  0  0  0  0  0  0  0
  -23.4890  -10.2110   20.9080 C   0  0  0  0  0  0  0  0  0  0  0  0
  -24.0760   -9.3090   21.8230 C   0  0  0  0  0  3  0  0  0  0  0  0
  -23.4670   -8.0650   22.0930 C   0  0  0  0  0  3  0  0  0  0  0  0
  -22.2580   -7.7120   21.4470 C   0  0  0  0  0  0  0  0  0  0  0  0
  -21.6910   -8.6030   20.5190 C   0  0  0  0  0  3  0  0  0  0  0  0
  -22.3020   -9.8390   20.2470 C   0  0  0  0  0  3  0  0  0  0  0  0
  -21.6100   -6.5140   21.6260 O   0  0  0  0  0  0  0  0  0  0  0  0
  -21.6260   -5.8600   22.8310 C   0  0  0  0  0  0  0  0  0  0  0  0
  -21.1460   -6.4650   24.0130 C   0  0  0  0  0  3  0  0  0  0  0  0
  -21.1170   -5.7320   25.2170 C   0  0  0  0  0  3  0  0  0  0  0  0
  -21.5580   -4.3950   25.2390 C   0  0  0  0  0  0  0  0  0  0  0  0
  -22.0320   -3.7910   24.0610 C   0  0  0  0  0  3  0  0  0  0  0  0
  -22.0620   -4.5200   22.8600 C   0  0  0  0  0  0  0  0  0  0  0  0
  -22.4990   -3.9250   21.7240 F   0  0  0  0  0  0  0  0  0  0  0  0
  -21.5240   -3.6880   26.3930 F   0  0  0  0  0  0  0  0  0  0  0  0
  -22.2480  -13.2250   21.3810 C   0  0  0  0  0  0  0  0  0  0  0  0
  -21.7670  -12.4750   22.3680 N   0  0  0  0  0  0  0  0  0  0  0  0
  -21.6490  -14.2250   20.9910 O   0  0  0  0  0  0  0  0  0  0  0  0
  -22.2700  -11.6660   22.7020 H   0  0  0  0  0  0  0  0  0  0  0  0
  -20.8830  -12.7140   22.7940 H   0  0  0  0  0  0  0  0  0  0  0  0
  -24.5610  -15.0670   20.1060 N   0  0  0  0  0  0  0  0  0  0  0  0
  -23.8080  -15.6760   20.4010 H   0  0  0  0  0  0  0  0  0  0  0  0
  -25.3110  -15.5630   19.6370 H   0  0  0  0  0  0  0  0  0  0  0  0
  -29.5650  -23.5220   21.3760 C   0  0  0  0  0  2  0  0  0  0  0  0
  -29.3630  -24.4900   20.1880 C   0  0  0  0  0  2  0  0  0  0  0  0
  -28.7790  -25.8320   20.6660 C   0  0  0  0  0  2  0  0  0  0  0  0
  -28.6400  -26.7550   19.5870 O   0  0  0  0  0  0  0  0  0  0  0  0
  -24.6750  -31.5610   23.0140 C   0  0  0  0  0  0  0  0  0  0  0  0
  -27.4600  -27.4490   19.6430 C   0  0  0  0  0  0  0  0  0  0  0  0
  -23.5010  -30.1910   21.3230 C   0  0  0  0  0  3  0  0  0  0  0  0
  -24.9940  -28.8030   19.7890 C   0  0  0  0  0  0  0  0  0  0  0  0
  -25.9970  -30.6890   21.0940 C   0  0  0  0  0  2  0  0  0  0  0  0
  -26.1360  -29.3620   20.3820 C   0  0  0  0  0  0  0  0  0  0  0  0
  -27.3740  -28.6880   20.3120 C   0  0  0  0  0  3  0  0  0  0  0  0
  -26.3100  -26.8980   19.0460 C   0  0  0  0  0  3  0  0  0  0  0  0
  -25.0740  -27.5670   19.1230 C   0  0  0  0  0  3  0  0  0  0  0  0
  -23.7120  -29.5930   19.9050 C   0  0  0  0  0  2  0  0  0  0  0  0
  -24.7430  -30.8250   21.8690 N   0  0  0  0  0  0  0  0  0  0  0  0
  -23.5950  -31.7520   23.5900 O   0  0  0  0  0  0  0  0  0  0  0  0
  -22.9170  -29.0920   22.2390 C   0  0  0  0  0  0  0  0  0  0  0  0
  -21.6010  -28.8520   22.1210 N   0  0  0  0  0  0  0  0  0  0  0  0
  -23.6430  -28.4600   23.0100 O   0  0  0  0  0  0  0  0  0  0  0  0
  -21.0730  -29.4220   21.4740 H   0  0  0  0  0  0  0  0  0  0  0  0
  -18.3020  -27.4480   22.5720 C   0  0  0  0  0  0  0  0  0  0  0  0
  -20.8420  -27.8370   22.8500 C   0  0  0  0  0  3  0  0  0  0  0  0
  -21.0230  -26.4400   22.2130 C   0  0  0  0  0  2  0  0  0  0  0  0
  -19.9370  -26.1000   21.1870 C   0  0  0  0  0  2  0  0  0  0  0  0
  -18.5520  -26.1390   21.8390 C   0  0  0  0  0  2  0  0  0  0  0  0
  -19.3780  -28.2520   23.0320 C   0  0  0  0  0  0  0  0  0  0  0  0
  -19.0950  -29.4750   23.6760 C   0  0  0  0  0  3  0  0  0  0  0  0
  -17.7660  -29.8970   23.8660 C   0  0  0  0  0  3  0  0  0  0  0  0
  -16.7040  -29.0910   23.4230 C   0  0  0  0  0  3  0  0  0  0  0  0
  -16.9710  -27.8670   22.7830 C   0  0  0  0  0  3  0  0  0  0  0  0
  -25.9450  -32.2160   23.6440 C   0  0  0  0  0  3  0  0  0  0  0  0
  -25.5830  -33.5780   24.0570 N   0  0  0  0  0  0  0  0  0  0  0  0
  -25.8440  -34.6820   23.3440 C   0  0  0  0  0  0  0  0  0  0  0  0
  -26.4890  -34.6630   22.2910 O   0  0  0  0  0  0  0  0  0  0  0  0
  -25.0080  -33.6630   24.8820 H   0  0  0  0  0  0  0  0  0  0  0  0
  -24.0260  -36.4030   23.1230 C   0  0  0  0  0  1  0  0  0  0  0  0
  -25.3060  -36.0200   23.8840 C   0  0  0  0  0  3  0  0  0  0  0  0
  -27.4160  -36.9600   24.7100 C   0  0  0  0  0  1  0  0  0  0  0  0
  -26.2850  -37.1260   23.8020 N   0  0  0  0  0  0  0  0  0  0  0  0
  -25.8410  -38.0160   24.0100 H   0  0  0  0  0  0  0  0  0  0  0  0
  -26.5290  -31.3990   24.8620 C   0  0  1  0  0  0  0  0  0  0  0  0
  -25.4720  -31.0420   25.9330 C   0  0  0  0  0  1  0  0  0  0  0  0
  -27.1740  -30.0810   24.3750 C   0  0  0  0  0  1  0  0  0  0  0  0
  -27.6500  -32.2120   25.5500 C   0  0  0  0  0  1  0  0  0  0  0  0
  1  5  1  0
  2  4  1  0
  3  6  1  0
  3  1  1  0
  5  8  1  0
  5  2  1  0
  6 53  1  0
  6  4  1  0
  6  7  1  6
 10  9  1  0
 11  9  1  0
 12 10  1  0
 13  8  1  0
 13 11  1  0
 14 23  1  0
 14 13  1  0
 14 12  1  0
 15 23  1  0
 16 21  1  0
 17 18  1  0
 17 16  1  0
 19 18  1  0
 19 28  1  0
 19 20  1  0
 21 15  1  0
 21 20  1  0
 22 15  2  0
 23 24  1  0
 25 26  2  0
 26 45  1  0
 27 26  1  0
 27 30  1  0
 28 29  1  0
 28 25  1  0
 29 27  2  0
 30 31  1  0
 31 32  2  0
 33 36  1  0
 33 32  1  0
 34 33  2  0
 35 34  1  0
 35 30  2  0
 36 37  1  0
 37 42  2  0
 37 38  1  0
 38 39  2  0
 39 40  1  0
 40 44  1  0
 41 40  2  0
 42 41  1  0
 43 42  1  0
 45 46  1  0
 46 48  1  0
 46 49  1  0
 47 45  2  0
 50 25  1  0
 50 51  1  0
 52 50  1  0
 54 55  1  0
 54 53  1  0
 56 58  1  0
 56 55  1  0
 57 68  2  0
 58 63  1  0
 59 67  1  0
 59 69  1  0
 60 66  1  0
 60 62  1  0
 61 67  1  0
 62 61  1  0
 63 62  2  0
 64 65  1  0
 64 58  2  0
 65 60  2  0
 66 59  1  0
 67 57  1  0
 69 71  2  0
 70 69  1  0
 72 70  1  0
 73 82  2  0
 73 78  1  0
 74 70  1  0
 74 78  1  0
 75 74  1  0
 76 77  1  0
 76 75  1  0
 77 73  1  0
 78 79  2  0
 79 80  1  0
 81 80  2  0
 82 81  1  0
 83 57  1  0
 83 84  1  0
 83 93  1  0
 84 87  1  0
 85 89  1  0
 85 84  1  0
 86 85  2  0
 89 88  1  0
 91 89  1  0
 91 92  1  0
 91 90  1  0
 93 96  1  1
 93 94  1  0
 95 93  1  0
M  ISO  4  15 100  23 100  55 101  56 101
M  END
>  <TORSDO>  (76) 
F 21

>  <SCORE>  (76) 
0.306

>  <name>  (76) 
76

>  <ligand_id>  (76) 
76

>  <original_smiles>  (76) 
[H]c1c([H])c([H])c2c(c1[H])C([H])([H])C([H])([H])C([H])([H])C2([H])N([H])C(=O)C1([H])N(C(=O)C([H])(N([H])C(=O)C([H])(N([H])C([H])([H])[H])C([H])([H])[H])C(C([H])([H])[H])(C([H])([H])[H])C([H])([H])[H])C([H])([H])c2c([H])c(OC([H])([H])C([H])([H])C([H])([H])[N+]3([H])C([H])([H])C([H])([H])C([H])(C([H])([H])C4([H])C([H])([H])C([H])([H])C([H])([H])C([H])([H])C4([H])N([H])C(=O)N4C([H])([H])C([H])([H])C([H])([H])C([H])(n5nc(-c6c([H])c([H])c(Oc7c([H])c([H])c(F)c([H])c7F)c([H])c6[H])c(C(=O)N([H])[H])c5N([H])[H])C4([H])[H])C([H])([H])C3([H])[H])c([H])c([H])c2C1([H])[H]

>  <smiles>  (76) 
[H]c1c([H])c([H])c2c(c1[H])C([H])([H])C([H])([H])C([H])([H])C2([H])N([H])C(=O)C1([H])N(C(=O)C([H])(N([H])C(=O)C([H])(N([H])C([H])([H])[H])C([H])([H])[H])C(C([H])([H])[H])(C([H])([H])[H])C([H])([H])[H])C([H])([H])c2c([H])c(OC([H])([H])C([H])([H])C([H])([H])[N+]3([H])C([H])([H])C([H])([H])C([H])(C([H])([H])C4([H])C([H])([H])C([H])([H])C([H])([H])C([H])([H])C4([H])N([H])C(=O)N4C([H])([H])C([H])([H])C([H])([H])C([H])(n5nc(-c6c([H])c([H])c(Oc7c([H])c([H])c(F)c([H])c7F)c([H])c6[H])c(C(=O)N([H])[H])c5N([H])[H])C4([H])[H])C([H])([H])C3([H])[H])c([H])c([H])c2C1([H])[H]

$$$$
77:0:0
     RDKit          3D

 90 98  0  0  1  0  0  0  0  0999 V2000
  -29.3080  -21.3840   20.4230 N   0  0  0  0  0  4  0  0  0  0  0  0
  -29.7480  -21.5860   21.3070 H   0  0  0  0  0  0  0  0  0  0  0  0
  -30.0760  -21.4100   19.7700 H   0  0  0  0  0  0  0  0  0  0  0  0
  -28.5300  -18.2690   17.9670 C   0  0  0  0  0  2  0  0  0  0  0  0
  -27.6710  -19.4880   18.3580 C   0  0  0  0  0  2  0  0  0  0  0  0
  -29.9280  -18.2680   18.6310 C   0  0  0  0  0  2  0  0  0  0  0  0
  -27.5110  -19.6320   19.8830 C   0  0  0  0  0  2  0  0  0  0  0  0
  -29.8050  -18.2240   20.1650 C   0  0  0  0  0  3  0  0  0  0  0  0
  -28.8950  -19.7650   20.5740 C   0  0  0  0  0  3  0  0  0  0  0  0
  -30.6400  -15.3460   20.3170 C   0  0  0  0  0  0  0  0  0  0  0  0
  -30.6310  -12.9100   19.4200 C   0  0  0  0  0  2  0  0  0  0  0  0
  -29.7200  -12.7240   18.1790 C   0  0  0  0  0  2  0  0  0  0  0  0
  -28.2610  -12.4690   18.5950 C   0  0  0  0  0  2  0  0  0  0  0  0
  -27.8100  -13.4210   19.7300 C   0  0  0  0  0  3  0  0  0  0  0  0
  -28.8440  -13.5270   20.8730 C   0  0  0  0  0  2  0  0  0  0  0  0
  -30.0930  -14.0320   20.2830 N   0  0  0  0  0  0  0  0  0  0  0  0
  -31.8260  -15.3790   19.9550 O   0  0  0  0  0  0  0  0  0  0  0  0
  -29.8760  -16.5930   20.5840 N   0  0  0  0  0  0  0  0  0  0  0  0
  -29.0200  -16.3390   21.0560 H   0  0  0  0  0  0  0  0  0  0  0  0
  -25.4290  -13.9920   20.4480 C   0  0  0  0  0  0  0  0  0  0  0  0
  -24.3570  -13.2240   20.8060 C   0  0  0  0  0  0  0  0  0  0  0  0
  -24.8160  -11.8690   20.7840 C   0  0  0  0  0  0  0  0  0  0  0  0
  -26.4690  -13.1130   20.2150 N   0  0  0  0  0  0  0  0  0  0  0  0
  -26.1120  -11.8290   20.4850 N   0  0  0  0  0  0  0  0  0  0  0  0
  -24.0780  -10.6130   20.9700 C   0  0  0  0  0  0  0  0  0  0  0  0
  -24.4770   -9.6550   21.9270 C   0  0  0  0  0  3  0  0  0  0  0  0
  -23.7380   -8.4670   22.1030 C   0  0  0  0  0  3  0  0  0  0  0  0
  -22.5830   -8.2260   21.3220 C   0  0  0  0  0  0  0  0  0  0  0  0
  -22.2020   -9.1720   20.3530 C   0  0  0  0  0  3  0  0  0  0  0  0
  -22.9430  -10.3530   20.1760 C   0  0  0  0  0  3  0  0  0  0  0  0
  -21.8180   -7.0860   21.4020 O   0  0  0  0  0  0  0  0  0  0  0  0
  -21.7030   -6.3790   22.5730 C   0  0  0  0  0  0  0  0  0  0  0  0
  -21.1620   -6.9560   23.7420 C   0  0  0  0  0  3  0  0  0  0  0  0
  -20.9980   -6.1740   24.9030 C   0  0  0  0  0  3  0  0  0  0  0  0
  -21.3660   -4.8150   24.8940 C   0  0  0  0  0  0  0  0  0  0  0  0
  -21.9010   -4.2360   23.7280 C   0  0  0  0  0  3  0  0  0  0  0  0
  -22.0670   -5.0170   22.5700 C   0  0  0  0  0  0  0  0  0  0  0  0
  -22.5610   -4.4490   21.4440 F   0  0  0  0  0  0  0  0  0  0  0  0
  -21.2020   -4.0600   26.0050 F   0  0  0  0  0  0  0  0  0  0  0  0
  -22.9620  -13.7110   21.0590 C   0  0  0  0  0  0  0  0  0  0  0  0
  -22.2160  -13.0290   21.9200 N   0  0  0  0  0  0  0  0  0  0  0  0
  -22.5390  -14.7380   20.5250 O   0  0  0  0  0  0  0  0  0  0  0  0
  -22.5670  -12.1990   22.3760 H   0  0  0  0  0  0  0  0  0  0  0  0
  -21.2790  -13.3450   22.1290 H   0  0  0  0  0  0  0  0  0  0  0  0
  -25.5980  -15.3620   20.2690 N   0  0  0  0  0  0  0  0  0  0  0  0
  -24.8290  -16.0140   20.3850 H   0  0  0  0  0  0  0  0  0  0  0  0
  -26.4300  -15.7960   19.8940 H   0  0  0  0  0  0  0  0  0  0  0  0
  -28.4020  -22.7580   20.0760 C   0  0  0  0  0  2  0  0  0  0  0  0
  -28.4980  -24.4390   20.6850 C   0  0  0  0  0  2  0  0  0  0  0  0
  -28.3360  -25.9960   20.1690 O   0  0  0  0  0  0  0  0  0  0  0  0
  -24.6040  -31.8590   23.1520 C   0  0  0  0  0  0  0  0  0  0  0  0
  -27.2500  -27.0090   20.2040 C   0  0  0  0  0  0  0  0  0  0  0  0
  -23.5790  -30.1920   21.6500 C   0  0  0  0  0  3  0  0  0  0  0  0
  -24.9430  -28.8490   20.0390 C   0  0  0  0  0  0  0  0  0  0  0  0
  -26.0210  -30.7320   21.3290 C   0  0  0  0  0  2  0  0  0  0  0  0
  -26.1260  -29.3080   20.6590 C   0  0  0  0  0  0  0  0  0  0  0  0
  -27.2750  -28.4030   20.6970 C   0  0  0  0  0  3  0  0  0  0  0  0
  -26.0330  -26.6900   19.5610 C   0  0  0  0  0  3  0  0  0  0  0  0
  -24.9190  -27.5620   19.4790 C   0  0  0  0  0  3  0  0  0  0  0  0
  -23.6620  -29.6750   20.1940 C   0  0  0  0  0  2  0  0  0  0  0  0
  -24.7150  -31.0620   22.0410 N   0  0  0  0  0  0  0  0  0  0  0  0
  -23.5050  -32.1040   23.6780 O   0  0  0  0  0  0  0  0  0  0  0  0
  -22.6810  -29.4390   22.6610 C   0  0  0  0  0  0  0  0  0  0  0  0
  -21.3840  -29.2660   22.3870 N   0  0  0  0  0  0  0  0  0  0  0  0
  -23.1900  -28.8980   23.6590 O   0  0  0  0  0  0  0  0  0  0  0  0
  -20.9920  -29.6770   21.5520 H   0  0  0  0  0  0  0  0  0  0  0  0
  -17.9960  -28.0930   22.9250 C   0  0  0  0  0  0  0  0  0  0  0  0
  -20.5460  -28.3350   23.1480 C   0  0  0  0  0  3  0  0  0  0  0  0
  -20.6370  -26.9040   22.5700 C   0  0  0  0  0  2  0  0  0  0  0  0
  -19.5240  -26.5930   21.5700 C   0  0  0  0  0  2  0  0  0  0  0  0
  -18.1540  -26.7470   22.2380 C   0  0  0  0  0  2  0  0  0  0  0  0
  -19.1230  -28.8470   23.3340 C   0  0  0  0  0  0  0  0  0  0  0  0
  -18.9320  -30.1060   23.9420 C   0  0  0  0  0  3  0  0  0  0  0  0
  -17.6340  -30.6130   24.1370 C   0  0  0  0  0  3  0  0  0  0  0  0
  -16.5180  -29.8520   23.7490 C   0  0  0  0  0  3  0  0  0  0  0  0
  -16.7000  -28.5940   23.1490 C   0  0  0  0  0  3  0  0  0  0  0  0
  -25.8480  -32.5320   23.7970 C   0  0  0  0  0  3  0  0  0  0  0  0
  -26.3550  -31.7840   25.0930 C   0  0  1  0  0  0  0  0  0  0  0  0
  -25.2500  -31.5370   26.1480 C   0  0  0  0  0  1  0  0  0  0  0  0
  -26.9630  -30.4130   24.7270 C   0  0  0  0  0  1  0  0  0  0  0  0
  -27.4840  -32.6040   25.7660 C   0  0  0  0  0  1  0  0  0  0  0  0
  -25.4990  -33.9260   24.1210 N   0  0  0  0  0  0  0  0  0  0  0  0
  -25.8510  -34.9890   23.3870 C   0  0  0  0  0  0  0  0  0  0  0  0
  -26.5530  -34.8990   22.3760 O   0  0  0  0  0  0  0  0  0  0  0  0
  -24.8470  -34.0630   24.8810 H   0  0  0  0  0  0  0  0  0  0  0  0
  -24.1260  -36.7890   23.0040 C   0  0  0  0  0  1  0  0  0  0  0  0
  -25.3430  -36.3750   23.8460 C   0  0  0  0  0  3  0  0  0  0  0  0
  -27.4440  -37.2610   24.7630 C   0  0  0  0  0  1  0  0  0  0  0  0
  -26.3780  -37.4310   23.7770 N   0  0  0  0  0  0  0  0  0  0  0  0
  -25.9640  -38.3500   23.9100 H   0  0  0  0  0  0  0  0  0  0  0  0
  1  2  1  0
  3  1  1  0
  4  5  1  0
  4  6  1  0
  5  7  1  0
  6  8  1  0
  7  9  1  0
  8  9  1  0
  8 18  1  0
  9  1  1  0
 10 18  1  0
 11 16  1  0
 12 13  1  0
 12 11  1  0
 14 13  1  0
 14 23  1  0
 14 15  1  0
 16 10  1  0
 16 15  1  0
 17 10  2  0
 18 19  1  0
 20 21  2  0
 21 40  1  0
 22 21  1  0
 22 25  1  0
 23 20  1  0
 23 24  1  0
 24 22  2  0
 25 26  1  0
 26 27  2  0
 28 31  1  0
 28 27  1  0
 29 28  2  0
 30 29  1  0
 30 25  2  0
 31 32  1  0
 32 33  1  0
 33 34  2  0
 35 34  1  0
 35 39  1  0
 36 35  2  0
 37 32  2  0
 37 36  1  0
 38 37  1  0
 40 41  1  0
 41 44  1  0
 41 43  1  0
 42 40  2  0
 45 46  1  0
 45 20  1  0
 47 45  1  0
 48  1  1  0
 48 49  1  0
 50 52  1  0
 50 49  1  0
 51 62  2  0
 52 57  1  0
 53 61  1  0
 53 63  1  0
 54 60  1  0
 54 56  1  0
 55 61  1  0
 56 57  2  0
 56 55  1  0
 58 52  2  0
 59 58  1  0
 59 54  2  0
 60 53  1  0
 61 51  1  0
 63 65  2  0
 64 63  1  0
 66 64  1  0
 67 76  2  0
 67 72  1  0
 68 64  1  0
 68 72  1  0
 69 68  1  0
 70 71  1  0
 70 69  1  0
 71 67  1  0
 72 73  2  0
 73 74  1  0
 75 74  2  0
 76 75  1  0
 77 51  1  0
 77 82  1  0
 77 78  1  0
 78 81  1  1
 78 79  1  0
 80 78  1  0
 82 85  1  0
 83 87  1  0
 83 82  1  0
 84 83  2  0
 87 86  1  0
 89 87  1  0
 89 90  1  0
 89 88  1  0
M  ISO  4  10 100  18 100  49 101  50 101
M  END
>  <TORSDO>  (77) 
F 19

>  <SCORE>  (77) 
-16.166

>  <name>  (77) 
77

>  <ligand_id>  (77) 
77

>  <original_smiles>  (77) 
[H]c1c([H])c([H])c2c(c1[H])C([H])([H])C([H])([H])C([H])([H])C2([H])N([H])C(=O)C1([H])N(C(=O)C([H])(N([H])C(=O)C([H])(N([H])C([H])([H])[H])C([H])([H])[H])C(C([H])([H])[H])(C([H])([H])[H])C([H])([H])[H])C([H])([H])c2c([H])c(OC([H])([H])C([H])([H])[N+]([H])([H])C3([H])C([H])([H])C([H])([H])C([H])([H])C([H])([H])C3([H])N([H])C(=O)N3C([H])([H])C([H])([H])C([H])([H])C([H])(n4nc(-c5c([H])c([H])c(Oc6c([H])c([H])c(F)c([H])c6F)c([H])c5[H])c(C(=O)N([H])[H])c4N([H])[H])C3([H])[H])c([H])c([H])c2C1([H])[H]

>  <smiles>  (77) 
[H]c1c([H])c([H])c2c(c1[H])C([H])([H])C([H])([H])C([H])([H])C2([H])N([H])C(=O)C1([H])N(C(=O)C([H])(N([H])C(=O)C([H])(N([H])C([H])([H])[H])C([H])([H])[H])C(C([H])([H])[H])(C([H])([H])[H])C([H])([H])[H])C([H])([H])c2c([H])c(OC([H])([H])C([H])([H])[N+]([H])([H])C3([H])C([H])([H])C([H])([H])C([H])([H])C([H])([H])C3([H])N([H])C(=O)N3C([H])([H])C([H])([H])C([H])([H])C([H])(n4nc(-c5c([H])c([H])c(Oc6c([H])c([H])c(F)c([H])c6F)c([H])c5[H])c(C(=O)N([H])[H])c4N([H])[H])C3([H])[H])c([H])c([H])c2C1([H])[H]

$$$$
78:0:0
     RDKit          3D

 97105  0  0  1  0  0  0  0  0999 V2000
  -34.3750  -21.6350   20.7870 C   0  0  0  0  0  3  0  0  0  0  0  0
  -34.0380  -22.9900   20.6490 C   0  0  0  0  0  3  0  0  0  0  0  0
  -33.4450  -20.6470   20.4270 C   0  0  0  0  0  3  0  0  0  0  0  0
  -32.7770  -23.3470   20.1430 C   0  0  0  0  0  3  0  0  0  0  0  0
  -32.1630  -20.9900   19.9310 C   0  0  0  0  0  0  0  0  0  0  0  0
  -31.8260  -22.3680   19.7590 C   0  0  0  0  0  0  0  0  0  0  0  0
  -31.2110  -19.8330   19.6070 C   0  0  0  0  0  2  0  0  0  0  0  0
  -31.0490  -18.9470   20.7790 N   0  0  0  0  0  4  0  0  0  0  0  0
  -30.5280  -19.4340   21.4900 H   0  0  0  0  0  0  0  0  0  0  0  0
  -31.9700  -18.7680   21.1420 H   0  0  0  0  0  0  0  0  0  0  0  0
  -30.4140  -17.6450   20.4900 C   0  0  0  0  0  2  0  0  0  0  0  0
  -30.6240  -16.6470   21.6510 C   0  0  0  0  0  2  0  0  0  0  0  0
  -30.6790  -14.4320   20.5230 C   0  0  0  0  0  0  0  0  0  0  0  0
  -30.3370  -12.3580   19.2370 C   0  0  0  0  0  2  0  0  0  0  0  0
  -29.3820  -12.6040   18.0530 C   0  0  0  0  0  2  0  0  0  0  0  0
  -27.9140  -12.4570   18.4960 C   0  0  0  0  0  2  0  0  0  0  0  0
  -27.5930  -13.2610   19.7840 C   0  0  0  0  0  3  0  0  0  0  0  0
  -28.6480  -12.9810   20.8770 C   0  0  0  0  0  2  0  0  0  0  0  0
  -29.9780  -13.2880   20.3180 N   0  0  0  0  0  0  0  0  0  0  0  0
  -31.7400  -14.6930   19.9520 O   0  0  0  0  0  0  0  0  0  0  0  0
  -30.1010  -15.3160   21.3460 N   0  0  0  0  0  0  0  0  0  0  0  0
  -29.2200  -15.0520   21.7600 H   0  0  0  0  0  0  0  0  0  0  0  0
  -25.1890  -13.8670   20.4870 C   0  0  0  0  0  0  0  0  0  0  0  0
  -24.1230  -13.0930   20.8610 C   0  0  0  0  0  0  0  0  0  0  0  0
  -24.5890  -11.7440   20.8370 C   0  0  0  0  0  0  0  0  0  0  0  0
  -26.2380  -12.9890   20.2610 N   0  0  0  0  0  0  0  0  0  0  0  0
  -25.8780  -11.7070   20.5260 N   0  0  0  0  0  0  0  0  0  0  0  0
  -23.8700  -10.4780   21.0340 C   0  0  0  0  0  0  0  0  0  0  0  0
  -24.3150   -9.5140   21.9640 C   0  0  0  0  0  3  0  0  0  0  0  0
  -23.5960   -8.3120   22.1510 C   0  0  0  0  0  3  0  0  0  0  0  0
  -22.4180   -8.0690   21.4050 C   0  0  0  0  0  0  0  0  0  0  0  0
  -21.9910   -9.0230   20.4650 C   0  0  0  0  0  3  0  0  0  0  0  0
  -22.7110  -10.2150   20.2770 C   0  0  0  0  0  3  0  0  0  0  0  0
  -21.6710   -6.9190   21.4970 O   0  0  0  0  0  0  0  0  0  0  0  0
  -21.6440   -6.1700   22.6460 C   0  0  0  0  0  0  0  0  0  0  0  0
  -21.2460   -6.7190   23.8850 C   0  0  0  0  0  3  0  0  0  0  0  0
  -21.1650   -5.8960   25.0260 C   0  0  0  0  0  3  0  0  0  0  0  0
  -21.4720   -4.5260   24.9310 C   0  0  0  0  0  0  0  0  0  0  0  0
  -21.8640   -3.9770   23.6970 C   0  0  0  0  0  3  0  0  0  0  0  0
  -21.9470   -4.7970   22.5580 C   0  0  0  0  0  0  0  0  0  0  0  0
  -22.3040   -4.2590   21.3680 F   0  0  0  0  0  0  0  0  0  0  0  0
  -21.3860   -3.7330   26.0240 F   0  0  0  0  0  0  0  0  0  0  0  0
  -22.7250  -13.5670   21.1320 C   0  0  0  0  0  0  0  0  0  0  0  0
  -21.9990  -12.8730   22.0030 N   0  0  0  0  0  0  0  0  0  0  0  0
  -22.2820  -14.5880   20.6070 O   0  0  0  0  0  0  0  0  0  0  0  0
  -22.3720  -12.0520   22.4570 H   0  0  0  0  0  0  0  0  0  0  0  0
  -21.0600  -13.1720   22.2230 H   0  0  0  0  0  0  0  0  0  0  0  0
  -25.3470  -15.2360   20.3020 N   0  0  0  0  0  0  0  0  0  0  0  0
  -24.5700  -15.8820   20.4020 H   0  0  0  0  0  0  0  0  0  0  0  0
  -26.1860  -15.6750   19.9470 H   0  0  0  0  0  0  0  0  0  0  0  0
  -30.4760  -22.8090   19.1600 C   0  0  0  0  0  2  0  0  0  0  0  0
  -30.5130  -24.1440   18.5210 N   0  0  0  0  0  4  0  0  0  0  0  0
  -29.9430  -24.1280   17.6890 H   0  0  0  0  0  0  0  0  0  0  0  0
  -31.4620  -24.2810   18.2120 H   0  0  0  0  0  0  0  0  0  0  0  0
  -30.1150  -25.2850   19.3840 C   0  0  0  0  0  2  0  0  0  0  0  0
  -28.6280  -25.6620   19.2740 C   0  0  0  0  0  2  0  0  0  0  0  0
  -28.4550  -26.8230   20.0820 O   0  0  0  0  0  0  0  0  0  0  0  0
  -24.6000  -31.8770   23.2240 C   0  0  0  0  0  0  0  0  0  0  0  0
  -27.2430  -27.4780   20.0880 C   0  0  0  0  0  0  0  0  0  0  0  0
  -23.3870  -30.4840   21.5790 C   0  0  0  0  0  3  0  0  0  0  0  0
  -24.8340  -28.9570   20.1390 C   0  0  0  0  0  0  0  0  0  0  0  0
  -25.9080  -30.8530   21.3660 C   0  0  0  0  0  2  0  0  0  0  0  0
  -25.9900  -29.4840   20.7230 C   0  0  0  0  0  0  0  0  0  0  0  0
  -27.1920  -28.7470   20.7040 C   0  0  0  0  0  3  0  0  0  0  0  0
  -26.0630  -26.9490   19.5130 C   0  0  0  0  0  3  0  0  0  0  0  0
  -24.8630  -27.6850   19.5390 C   0  0  0  0  0  3  0  0  0  0  0  0
  -23.5870  -29.8120   20.1940 C   0  0  0  0  0  2  0  0  0  0  0  0
  -24.6510  -31.0850   22.1150 N   0  0  0  0  0  0  0  0  0  0  0  0
  -23.5230  -32.1420   23.7720 O   0  0  0  0  0  0  0  0  0  0  0  0
  -22.7450  -29.4550   22.5370 C   0  0  0  0  0  0  0  0  0  0  0  0
  -21.4210  -29.2700   22.4130 N   0  0  0  0  0  0  0  0  0  0  0  0
  -23.4350  -28.8260   23.3440 O   0  0  0  0  0  0  0  0  0  0  0  0
  -20.9280  -29.8290   21.7300 H   0  0  0  0  0  0  0  0  0  0  0  0
  -18.0510  -28.0670   22.9100 C   0  0  0  0  0  0  0  0  0  0  0  0
  -20.6080  -28.3280   23.1810 C   0  0  0  0  0  3  0  0  0  0  0  0
  -20.7130  -26.8990   22.6010 C   0  0  0  0  0  2  0  0  0  0  0  0
  -19.6110  -26.5790   21.5860 C   0  0  0  0  0  2  0  0  0  0  0  0
  -18.2300  -26.7200   22.2310 C   0  0  0  0  0  2  0  0  0  0  0  0
  -19.1680  -28.8300   23.3420 C   0  0  0  0  0  0  0  0  0  0  0  0
  -18.9470  -30.0930   23.9350 C   0  0  0  0  0  3  0  0  0  0  0  0
  -17.6420  -30.5910   24.1010 C   0  0  0  0  0  3  0  0  0  0  0  0
  -16.5390  -29.8250   23.6840 C   0  0  0  0  0  3  0  0  0  0  0  0
  -16.7450  -28.5660   23.0950 C   0  0  0  0  0  3  0  0  0  0  0  0
  -25.8910  -32.5070   23.8380 C   0  0  0  0  0  3  0  0  0  0  0  0
  -25.5830  -33.9030   24.1750 N   0  0  0  0  0  0  0  0  0  0  0  0
  -25.9140  -34.9580   23.4190 C   0  0  0  0  0  0  0  0  0  0  0  0
  -26.5840  -34.8580   22.3860 O   0  0  0  0  0  0  0  0  0  0  0  0
  -24.9900  -34.0540   24.9780 H   0  0  0  0  0  0  0  0  0  0  0  0
  -24.1870  -36.7490   23.0680 C   0  0  0  0  0  1  0  0  0  0  0  0
  -25.4280  -36.3440   23.8800 C   0  0  0  0  0  3  0  0  0  0  0  0
  -27.5620  -37.2210   24.7150 C   0  0  0  0  0  1  0  0  0  0  0  0
  -26.4600  -37.3960   23.7740 N   0  0  0  0  0  0  0  0  0  0  0  0
  -26.0540  -38.3150   23.9300 H   0  0  0  0  0  0  0  0  0  0  0  0
  -26.4190  -31.7290   25.1050 C   0  0  1  0  0  0  0  0  0  0  0  0
  -25.3350  -31.4870   26.1810 C   0  0  0  0  0  1  0  0  0  0  0  0
  -26.9990  -30.3550   24.6990 C   0  0  0  0  0  1  0  0  0  0  0  0
  -27.5750  -32.5210   25.7610 C   0  0  0  0  0  1  0  0  0  0  0  0
  2  1  1  0
  3  1  2  0
  4  2  2  0
  5  3  1  0
  6  5  2  0
  6  4  1  0
  7  5  1  0
  7  8  1  0
  8 10  1  0
  8  9  1  0
 11  8  1  0
 11 12  1  0
 13 21  1  0
 14 19  1  0
 15 16  1  0
 15 14  1  0
 17 16  1  0
 17 26  1  0
 17 18  1  0
 19 13  1  0
 19 18  1  0
 20 13  2  0
 21 12  1  0
 21 22  1  0
 23 24  2  0
 24 43  1  0
 25 24  1  0
 25 28  1  0
 26 23  1  0
 26 27  1  0
 27 25  2  0
 28 29  1  0
 29 30  2  0
 31 34  1  0
 31 30  1  0
 32 31  2  0
 33 32  1  0
 33 28  2  0
 34 35  1  0
 35 36  1  0
 36 37  2  0
 38 37  1  0
 38 42  1  0
 39 38  2  0
 40 35  2  0
 40 39  1  0
 41 40  1  0
 43 44  1  0
 44 47  1  0
 44 46  1  0
 45 43  2  0
 48 49  1  0
 48 23  1  0
 50 48  1  0
 51  6  1  0
 52 51  1  0
 52 55  1  0
 53 52  1  0
 54 52  1  0
 56 55  1  0
 56 57  1  0
 57 59  1  0
 58 69  2  0
 59 64  1  0
 60 68  1  0
 60 70  1  0
 61 67  1  0
 61 63  1  0
 62 68  1  0
 63 62  1  0
 64 63  2  0
 65 66  1  0
 65 59  2  0
 66 61  2  0
 67 60  1  0
 68 58  1  0
 70 72  2  0
 71 70  1  0
 73 71  1  0
 74 83  2  0
 74 79  1  0
 75 71  1  0
 75 79  1  0
 76 75  1  0
 77 78  1  0
 77 76  1  0
 78 74  1  0
 79 80  2  0
 80 81  1  0
 82 81  2  0
 83 82  1  0
 84 58  1  0
 84 85  1  0
 84 94  1  0
 85 88  1  0
 86 90  1  0
 86 85  1  0
 87 86  2  0
 90 89  1  0
 92 90  1  0
 92 93  1  0
 92 91  1  0
 94 97  1  1
 94 95  1  0
 96 94  1  0
M  ISO  4  13 100  21 100  56 101  57 101
M  END
>  <TORSDO>  (78) 
F 24

>  <SCORE>  (78) 
-11.924

>  <name>  (78) 
78

>  <ligand_id>  (78) 
78

>  <original_smiles>  (78) 
[H]c1c([H])c([H])c2c(c1[H])C([H])([H])C([H])([H])C([H])([H])C2([H])N([H])C(=O)C1([H])N(C(=O)C([H])(N([H])C(=O)C([H])(N([H])C([H])([H])[H])C([H])([H])[H])C(C([H])([H])[H])(C([H])([H])[H])C([H])([H])[H])C([H])([H])c2c([H])c(OC([H])([H])C([H])([H])[N+]([H])([H])C([H])([H])c3c([H])c([H])c([H])c([H])c3C([H])([H])[N+]([H])([H])C([H])([H])C([H])([H])N([H])C(=O)N3C([H])([H])C([H])([H])C([H])([H])C([H])(n4nc(-c5c([H])c([H])c(Oc6c([H])c([H])c(F)c([H])c6F)c([H])c5[H])c(C(=O)N([H])[H])c4N([H])[H])C3([H])[H])c([H])c([H])c2C1([H])[H]

>  <smiles>  (78) 
[H]c1c([H])c([H])c2c(c1[H])C([H])([H])C([H])([H])C([H])([H])C2([H])N([H])C(=O)C1([H])N(C(=O)C([H])(N([H])C(=O)C([H])(N([H])C([H])([H])[H])C([H])([H])[H])C(C([H])([H])[H])(C([H])([H])[H])C([H])([H])[H])C([H])([H])c2c([H])c(OC([H])([H])C([H])([H])[N+]([H])([H])C([H])([H])c3c([H])c([H])c([H])c([H])c3C([H])([H])[N+]([H])([H])C([H])([H])C([H])([H])N([H])C(=O)N3C([H])([H])C([H])([H])C([H])([H])C([H])(n4nc(-c5c([H])c([H])c(Oc6c([H])c([H])c(F)c([H])c6F)c([H])c5[H])c(C(=O)N([H])[H])c4N([H])[H])C3([H])[H])c([H])c([H])c2C1([H])[H]

$$$$
79:0:0
     RDKit          3D

102110  0  0  1  0  0  0  0  0999 V2000
  -29.4170  -19.7930   20.1480 N   0  0  1  0  0  4  0  0  0  0  0  0
  -28.4650  -19.4720   20.0530 H   0  0  0  0  0  0  0  0  0  0  0  0
  -29.6790  -19.3420   21.5430 C   0  0  0  0  0  2  0  0  0  0  0  0
  -33.3170  -20.4240   23.7040 C   0  0  0  0  0  3  0  0  0  0  0  0
  -32.9210  -21.2160   22.6090 C   0  0  0  0  0  3  0  0  0  0  0  0
  -32.5160  -19.3410   24.1040 C   0  0  0  0  0  3  0  0  0  0  0  0
  -31.7330  -20.9230   21.9030 C   0  0  0  0  0  3  0  0  0  0  0  0
  -31.3470  -19.0320   23.3850 C   0  0  0  0  0  3  0  0  0  0  0  0
  -30.9450  -19.8050   22.2740 C   0  0  0  0  0  0  0  0  0  0  0  0
  -29.2210  -21.3220   19.9730 C   0  0  0  0  0  3  0  0  0  0  0  0
  -28.4230  -22.1810   21.1020 C   0  0  0  0  0  3  0  0  0  0  0  0
  -28.1530  -23.7750   20.9470 C   0  0  0  0  0  3  0  0  0  0  0  0
  -27.2760  -24.5210   22.0770 C   0  0  0  0  0  3  0  0  0  0  0  0
  -26.8570  -25.9620   22.0100 O   0  0  0  0  0  0  0  0  0  0  0  0
  -26.8630  -30.6610   27.5440 C   0  0  0  0  0  0  0  0  0  0  0  0
  -26.1930  -26.4990   23.1370 C   0  0  0  0  0  0  0  0  0  0  0  0
  -25.3550  -28.7200   27.7230 C   0  0  0  0  0  3  0  0  0  0  0  0
  -24.9510  -27.4090   25.5640 C   0  0  0  0  0  0  0  0  0  0  0  0
  -25.9650  -29.6790   25.4190 C   0  0  0  0  0  2  0  0  0  0  0  0
  -25.7670  -28.2840   24.8330 C   0  0  0  0  0  0  0  0  0  0  0  0
  -26.3680  -27.8420   23.6080 C   0  0  0  0  0  3  0  0  0  0  0  0
  -25.3200  -25.6790   23.8890 C   0  0  0  0  0  3  0  0  0  0  0  0
  -24.7110  -26.1150   25.0800 C   0  0  0  0  0  3  0  0  0  0  0  0
  -24.3510  -27.9100   26.8630 C   0  0  0  0  0  2  0  0  0  0  0  0
  -26.1110  -29.7200   26.9040 N   0  0  0  0  0  0  0  0  0  0  0  0
  -26.9120  -30.7180   28.7830 O   0  0  0  0  0  0  0  0  0  0  0  0
  -26.2730  -27.7430   28.4930 C   0  0  0  0  0  0  0  0  0  0  0  0
  -25.8140  -27.2750   29.6690 N   0  0  0  0  0  0  0  0  0  0  0  0
  -27.3660  -27.4120   28.0280 O   0  0  0  0  0  0  0  0  0  0  0  0
  -24.9150  -27.6070   29.9910 H   0  0  0  0  0  0  0  0  0  0  0  0
  -25.4590  -25.2780   32.6660 C   0  0  0  0  0  0  0  0  0  0  0  0
  -26.5000  -26.3180   30.5410 C   0  0  0  0  0  3  0  0  0  0  0  0
  -26.4510  -24.8930   29.9440 C   0  0  0  0  0  2  0  0  0  0  0  0
  -25.2660  -24.0650   30.4530 C   0  0  0  0  0  2  0  0  0  0  0  0
  -25.3180  -23.9290   31.9770 C   0  0  0  0  0  2  0  0  0  0  0  0
  -25.9990  -26.4010   31.9880 C   0  0  0  0  0  0  0  0  0  0  0  0
  -26.0750  -27.6370   32.6660 C   0  0  0  0  0  3  0  0  0  0  0  0
  -25.6160  -27.7630   33.9920 C   0  0  0  0  0  3  0  0  0  0  0  0
  -25.0950  -26.6440   34.6640 C   0  0  0  0  0  3  0  0  0  0  0  0
  -25.0270  -25.4030   34.0050 C   0  0  0  0  0  3  0  0  0  0  0  0
  -27.6830  -31.7260   26.7530 C   0  0  0  0  0  3  0  0  0  0  0  0
  -28.0200  -32.8140   27.6800 N   0  0  0  0  0  0  0  0  0  0  0  0
  -27.4210  -34.0110   27.7000 C   0  0  0  0  0  0  0  0  0  0  0  0
  -26.5650  -34.3450   26.8750 O   0  0  0  0  0  0  0  0  0  0  0  0
  -28.6810  -32.5940   28.4110 H   0  0  0  0  0  0  0  0  0  0  0  0
  -26.8120  -34.9530   29.9500 C   0  0  0  0  0  1  0  0  0  0  0  0
  -27.8380  -35.0010   28.8060 C   0  0  0  0  0  3  0  0  0  0  0  0
  -29.1180  -36.5780   27.4250 C   0  0  0  0  0  1  0  0  0  0  0  0
  -27.9830  -36.3940   28.3260 N   0  0  0  0  0  0  0  0  0  0  0  0
  -28.0930  -37.0340   29.1080 H   0  0  0  0  0  0  0  0  0  0  0  0
  -28.9940  -31.1370   26.0990 C   0  0  1  0  0  0  0  0  0  0  0  0
  -29.8960  -30.3650   27.0900 C   0  0  0  0  0  1  0  0  0  0  0  0
  -28.6440  -30.1800   24.9350 C   0  0  0  0  0  1  0  0  0  0  0  0
  -29.8280  -32.2870   25.4900 C   0  0  0  0  0  1  0  0  0  0  0  0
  -30.0710  -18.9770   19.0040 C   0  0  0  0  0  2  0  0  0  0  0  0
  -30.1320  -17.3370   18.9970 C   0  0  0  0  0  3  0  0  0  0  0  0
  -30.8890  -15.6530   17.0380 C   0  0  0  0  0  0  0  0  0  0  0  0
  -30.8850  -13.2290   16.4780 C   0  0  0  0  0  2  0  0  0  0  0  0
  -29.4750  -12.6240   16.6280 C   0  0  0  0  0  2  0  0  0  0  0  0
  -29.2930  -12.0770   18.0510 C   0  0  0  0  0  2  0  0  0  0  0  0
  -29.7210  -13.1050   19.1250 C   0  0  0  0  0  3  0  0  0  0  0  0
  -31.0580  -13.8000   18.8090 C   0  0  0  0  0  2  0  0  0  0  0  0
  -31.0190  -14.3480   17.4480 N   0  0  0  0  0  0  0  0  0  0  0  0
  -30.9020  -15.9240   15.8390 O   0  0  0  0  0  0  0  0  0  0  0  0
  -30.9120  -16.7540   17.8510 N   0  0  0  0  0  0  0  0  0  0  0  0
  -31.2070  -17.5110   17.2550 H   0  0  0  0  0  0  0  0  0  0  0  0
  -28.9570  -12.8490   21.5590 C   0  0  0  0  0  0  0  0  0  0  0  0
  -29.2810  -11.9540   22.5380 C   0  0  0  0  0  0  0  0  0  0  0  0
  -30.2880  -11.1080   21.9820 C   0  0  0  0  0  0  0  0  0  0  0  0
  -29.7350  -12.5190   20.4630 N   0  0  0  0  0  0  0  0  0  0  0  0
  -30.5870  -11.4980   20.7480 N   0  0  0  0  0  0  0  0  0  0  0  0
  -30.9300   -9.9050   22.5300 C   0  0  0  0  0  0  0  0  0  0  0  0
  -32.3030   -9.6350   22.3340 C   0  0  0  0  0  3  0  0  0  0  0  0
  -32.8860   -8.4700   22.8810 C   0  0  0  0  0  3  0  0  0  0  0  0
  -32.1000   -7.5710   23.6400 C   0  0  0  0  0  0  0  0  0  0  0  0
  -30.7310   -7.8400   23.8230 C   0  0  0  0  0  3  0  0  0  0  0  0
  -30.1490   -8.9920   23.2680 C   0  0  0  0  0  3  0  0  0  0  0  0
  -32.5790   -6.4050   24.1890 O   0  0  0  0  0  0  0  0  0  0  0  0
  -33.9240   -6.1360   24.2470 C   0  0  0  0  0  0  0  0  0  0  0  0
  -34.8470   -7.0910   24.7230 C   0  0  0  0  0  3  0  0  0  0  0  0
  -36.2120   -6.7590   24.8270 C   0  0  0  0  0  3  0  0  0  0  0  0
  -36.6530   -5.4710   24.4720 C   0  0  0  0  0  0  0  0  0  0  0  0
  -35.7340   -4.5140   24.0090 C   0  0  0  0  0  3  0  0  0  0  0  0
  -34.3710   -4.8460   23.8960 C   0  0  0  0  0  0  0  0  0  0  0  0
  -33.4860   -3.9130   23.4650 F   0  0  0  0  0  0  0  0  0  0  0  0
  -37.9630   -5.1450   24.5850 F   0  0  0  0  0  0  0  0  0  0  0  0
  -28.6290  -11.8320   23.8820 C   0  0  0  0  0  0  0  0  0  0  0  0
  -29.3690  -11.3710   24.8780 N   0  0  0  0  0  0  0  0  0  0  0  0
  -27.4680  -12.1990   24.0650 O   0  0  0  0  0  0  0  0  0  0  0  0
  -28.9870  -11.3260   25.8120 H   0  0  0  0  0  0  0  0  0  0  0  0
  -30.3180  -11.0700   24.7170 H   0  0  0  0  0  0  0  0  0  0  0  0
  -28.0400  -13.8910   21.5060 N   0  0  0  0  0  0  0  0  0  0  0  0
  -27.4190  -14.0650   22.2890 H   0  0  0  0  0  0  0  0  0  0  0  0
  -27.7880  -14.4060   20.6760 H   0  0  0  0  0  0  0  0  0  0  0  0
  -30.8380  -16.8170   20.2960 C   0  0  0  0  0  2  0  0  0  0  0  0
  -32.0200  -15.8050   20.2260 C   0  0  0  0  0  2  0  0  0  0  0  0
  -33.3780  -16.3560   19.7210 C   0  0  0  0  0  2  0  0  0  0  0  0
  -34.0640  -15.4510   18.6620 C   0  0  0  0  0  2  0  0  0  0  0  0
  -35.4390  -15.8860   18.3410 N   0  0  0  0  0  4  0  0  0  0  0  0
  -35.4590  -16.8480   18.0570 H   0  0  0  0  0  0  0  0  0  0  0  0
  -35.8050  -15.3390   17.5810 H   0  0  0  0  0  0  0  0  0  0  0  0
  -36.0590  -15.7670   19.1240 H   0  0  0  0  0  0  0  0  0  0  0  0
  1  3  1  0
  1  2  1  6
  3  9  1  0
  4  6  1  0
  5  4  2  0
  7  9  2  0
  7  5  1  0
  8  6  2  0
  9  8  1  0
 10  1  1  0
 10 11  2  0
 12 11  1  0
 12 13  2  0
 14 13  1  0
 14 16  1  0
 15 26  2  0
 16 21  2  0
 16 22  1  0
 17 27  1  0
 18 24  1  0
 19 25  1  0
 20 19  1  0
 20 18  2  0
 21 20  1  0
 22 23  2  0
 23 18  1  0
 24 17  1  0
 25 15  1  0
 25 17  1  0
 27 28  1  0
 28 30  1  0
 29 27  2  0
 31 40  1  0
 32 28  1  0
 32 36  1  0
 33 34  1  0
 33 32  1  0
 34 35  1  0
 35 31  1  0
 36 31  2  0
 36 37  1  0
 37 38  2  0
 38 39  1  0
 40 39  2  0
 41 15  1  0
 41 42  1  0
 42 43  1  0
 42 45  1  0
 43 47  1  0
 44 43  2  0
 47 46  1  0
 48 49  1  0
 49 47  1  0
 49 50  1  0
 51 41  1  0
 51 52  1  1
 53 51  1  0
 54 51  1  0
 55  1  1  0
 56 55  1  0
 56 95  1  0
 57 63  1  0
 57 65  1  0
 58 59  1  0
 58 63  1  0
 59 60  1  0
 61 60  1  0
 61 70  1  0
 62 61  1  0
 63 62  1  0
 64 57  2  0
 65 56  1  0
 66 65  1  0
 67 68  2  0
 68 87  1  0
 69 72  1  0
 69 68  1  0
 70 71  1  0
 70 67  1  0
 71 69  2  0
 72 77  1  0
 73 72  2  0
 73 74  1  0
 74 75  2  0
 75 76  1  0
 75 78  1  0
 77 76  2  0
 78 79  1  0
 79 80  1  0
 80 81  2  0
 82 86  1  0
 82 81  1  0
 83 82  2  0
 84 83  1  0
 84 79  2  0
 85 84  1  0
 87 89  2  0
 87 88  1  0
 88 90  1  0
 91 88  1  0
 92 67  1  0
 92 93  1  0
 94 92  1  0
 96 95  1  0
 97 96  1  0
 98 97  1  0
 99 98  1  0
 99102  1  0
100 99  1  0
101 99  1  0
M  ISO  4  13 101  14 101  57 100  65 100
M  END
>  <TORSDO>  (79) 
F 29

>  <SCORE>  (79) 
13.104

>  <name>  (79) 
79

>  <ligand_id>  (79) 
79

>  <original_smiles>  (79) 
[H]c1c([H])c([H])c(C([H])([H])[N+]([H])(C([H])([H])C([H])([H])C([H])([H])C([H])([H])Oc2c([H])c([H])c3c(c2[H])C([H])([H])N(C(=O)C([H])(N([H])C(=O)C([H])(N([H])C([H])([H])[H])C([H])([H])[H])C(C([H])([H])[H])(C([H])([H])[H])C([H])([H])[H])C([H])(C(=O)N([H])C2([H])c4c([H])c([H])c([H])c([H])c4C([H])([H])C([H])([H])C2([H])[H])C3([H])[H])C([H])([H])C([H])(N([H])C(=O)N2C([H])([H])C([H])([H])C([H])([H])C([H])(n3nc(-c4c([H])c([H])c(Oc5c([H])c([H])c(F)c([H])c5F)c([H])c4[H])c(C(=O)N([H])[H])c3N([H])[H])C2([H])[H])C([H])([H])C([H])([H])C([H])([H])C([H])([H])[N+]([H])([H])[H])c([H])c1[H]

>  <smiles>  (79) 
[H]c1c([H])c([H])c(C([H])([H])[N+]([H])(C([H])([H])C([H])([H])C([H])([H])C([H])([H])Oc2c([H])c([H])c3c(c2[H])C([H])([H])N(C(=O)C([H])(N([H])C(=O)C([H])(N([H])C([H])([H])[H])C([H])([H])[H])C(C([H])([H])[H])(C([H])([H])[H])C([H])([H])[H])C([H])(C(=O)N([H])C2([H])c4c([H])c([H])c([H])c([H])c4C([H])([H])C([H])([H])C2([H])[H])C3([H])[H])C([H])([H])C([H])(N([H])C(=O)N2C([H])([H])C([H])([H])C([H])([H])C([H])(n3nc(-c4c([H])c([H])c(Oc5c([H])c([H])c(F)c([H])c5F)c([H])c4[H])c(C(=O)N([H])[H])c3N([H])[H])C2([H])[H])C([H])([H])C([H])([H])C([H])([H])C([H])([H])[N+]([H])([H])[H])c([H])c1[H]

$$$$
80:0:0
     RDKit          3D

 94102  0  0  1  0  0  0  0  0999 V2000
  -28.8730  -21.6010   19.8030 N   0  0  0  0  0  4  0  0  0  0  0  0
  -29.7400  -21.6620   20.3150 H   0  0  0  0  0  0  0  0  0  0  0  0
  -28.1320  -21.7470   20.4740 H   0  0  0  0  0  0  0  0  0  0  0  0
  -28.7010  -20.2320   19.2550 C   0  0  0  0  0  2  0  0  0  0  0  0
  -31.3270  -18.8450   17.0550 C   0  0  0  0  0  2  0  0  0  0  0  0
  -30.9740  -20.0120   17.9680 C   0  0  0  0  0  2  0  0  0  0  0  0
  -30.9470  -17.6170   17.8610 C   0  0  0  0  0  2  0  0  0  0  0  0
  -30.0400  -19.4580   19.0700 C   0  0  0  0  0  3  0  0  0  0  0  0
  -29.7930  -18.0790   18.6260 N   0  0  0  0  0  0  0  0  0  0  0  0
  -29.3440  -17.0960   19.6150 C   0  0  0  0  0  2  0  0  0  0  0  0
  -30.3150  -16.8100   20.7890 C   0  0  0  0  0  2  0  0  0  0  0  0
  -30.7570  -14.4200   20.5410 C   0  0  0  0  0  0  0  0  0  0  0  0
  -30.3940  -12.3150   19.3380 C   0  0  0  0  0  2  0  0  0  0  0  0
  -29.4640  -12.5740   18.1360 C   0  0  0  0  0  2  0  0  0  0  0  0
  -27.9860  -12.4500   18.5580 C   0  0  0  0  0  2  0  0  0  0  0  0
  -27.6590  -13.2610   19.8400 C   0  0  0  0  0  3  0  0  0  0  0  0
  -28.7070  -13.0100   20.9510 C   0  0  0  0  0  2  0  0  0  0  0  0
  -30.0480  -13.2710   20.3970 N   0  0  0  0  0  0  0  0  0  0  0  0
  -31.8400  -14.6160   19.9810 O   0  0  0  0  0  0  0  0  0  0  0  0
  -30.1320  -15.4120   21.1810 N   0  0  0  0  0  0  0  0  0  0  0  0
  -29.2810  -15.1750   21.6720 H   0  0  0  0  0  0  0  0  0  0  0  0
  -25.2540  -13.8810   20.5200 C   0  0  0  0  0  0  0  0  0  0  0  0
  -24.1790  -13.1120   20.8840 C   0  0  0  0  0  0  0  0  0  0  0  0
  -24.6370  -11.7590   20.8650 C   0  0  0  0  0  0  0  0  0  0  0  0
  -26.2990  -12.9960   20.3070 N   0  0  0  0  0  0  0  0  0  0  0  0
  -25.9300  -11.7160   20.5680 N   0  0  0  0  0  0  0  0  0  0  0  0
  -23.9070  -10.4990   21.0530 C   0  0  0  0  0  0  0  0  0  0  0  0
  -24.3380   -9.5260   21.9830 C   0  0  0  0  0  3  0  0  0  0  0  0
  -23.6070   -8.3310   22.1610 C   0  0  0  0  0  3  0  0  0  0  0  0
  -22.4300   -8.1030   21.4140 C   0  0  0  0  0  0  0  0  0  0  0  0
  -22.0180   -9.0610   20.4710 C   0  0  0  0  0  3  0  0  0  0  0  0
  -22.7490  -10.2470   20.2880 C   0  0  0  0  0  3  0  0  0  0  0  0
  -21.6690   -6.9620   21.5040 O   0  0  0  0  0  0  0  0  0  0  0  0
  -21.6320   -6.2110   22.6510 C   0  0  0  0  0  0  0  0  0  0  0  0
  -21.2350   -6.7580   23.8910 C   0  0  0  0  0  3  0  0  0  0  0  0
  -21.1480   -5.9330   25.0310 C   0  0  0  0  0  3  0  0  0  0  0  0
  -21.4440   -4.5590   24.9270 C   0  0  0  0  0  0  0  0  0  0  0  0
  -21.8350   -4.0120   23.6930 C   0  0  0  0  0  3  0  0  0  0  0  0
  -21.9250   -4.8350   22.5580 C   0  0  0  0  0  0  0  0  0  0  0  0
  -22.2820   -4.2990   21.3650 F   0  0  0  0  0  0  0  0  0  0  0  0
  -21.3500   -3.7630   26.0170 F   0  0  0  0  0  0  0  0  0  0  0  0
  -22.7810  -13.5930   21.1420 C   0  0  0  0  0  0  0  0  0  0  0  0
  -22.0430  -12.9040   22.0080 N   0  0  0  0  0  0  0  0  0  0  0  0
  -22.3500  -14.6150   20.6110 O   0  0  0  0  0  0  0  0  0  0  0  0
  -22.3990  -12.0750   22.4590 H   0  0  0  0  0  0  0  0  0  0  0  0
  -21.1060  -13.2130   22.2220 H   0  0  0  0  0  0  0  0  0  0  0  0
  -25.4220  -15.2480   20.3360 N   0  0  0  0  0  0  0  0  0  0  0  0
  -24.6500  -15.9000   20.4180 H   0  0  0  0  0  0  0  0  0  0  0  0
  -26.2820  -15.6830   20.0270 H   0  0  0  0  0  0  0  0  0  0  0  0
  -28.7530  -22.6880   18.8000 C   0  0  0  0  0  2  0  0  0  0  0  0
  -29.2330  -24.0540   19.3350 C   0  0  0  0  0  2  0  0  0  0  0  0
  -28.8280  -25.1870   18.3700 C   0  0  0  0  0  2  0  0  0  0  0  0
  -29.0430  -26.6120   18.9040 C   0  0  0  0  0  2  0  0  0  0  0  0
  -28.4030  -26.7900   20.1620 O   0  0  0  0  0  0  0  0  0  0  0  0
  -24.5490  -31.8880   23.2380 C   0  0  0  0  0  0  0  0  0  0  0  0
  -27.2200  -27.4870   20.1460 C   0  0  0  0  0  0  0  0  0  0  0  0
  -23.3480  -30.4780   21.5950 C   0  0  0  0  0  3  0  0  0  0  0  0
  -24.8080  -28.9440   20.1720 C   0  0  0  0  0  0  0  0  0  0  0  0
  -25.8620  -30.8560   21.3910 C   0  0  0  0  0  2  0  0  0  0  0  0
  -25.9560  -29.4800   20.7690 C   0  0  0  0  0  0  0  0  0  0  0  0
  -27.1590  -28.7450   20.7750 C   0  0  0  0  0  3  0  0  0  0  0  0
  -26.0590  -26.9500   19.5500 C   0  0  0  0  0  3  0  0  0  0  0  0
  -24.8490  -27.6690   19.5740 C   0  0  0  0  0  3  0  0  0  0  0  0
  -23.5620  -29.8010   20.2130 C   0  0  0  0  0  2  0  0  0  0  0  0
  -24.6050  -31.0870   22.1380 N   0  0  0  0  0  0  0  0  0  0  0  0
  -23.4690  -32.1550   23.7800 O   0  0  0  0  0  0  0  0  0  0  0  0
  -22.7000  -29.4570   22.5550 C   0  0  0  0  0  0  0  0  0  0  0  0
  -21.3750  -29.2750   22.4350 N   0  0  0  0  0  0  0  0  0  0  0  0
  -23.3880  -28.8370   23.3700 O   0  0  0  0  0  0  0  0  0  0  0  0
  -20.8770  -29.8330   21.7550 H   0  0  0  0  0  0  0  0  0  0  0  0
  -18.0040  -28.0890   22.9450 C   0  0  0  0  0  0  0  0  0  0  0  0
  -20.5640  -28.3340   23.2060 C   0  0  0  0  0  3  0  0  0  0  0  0
  -20.6590  -26.9060   22.6230 C   0  0  0  0  0  2  0  0  0  0  0  0
  -19.5510  -26.5920   21.6120 C   0  0  0  0  0  2  0  0  0  0  0  0
  -18.1730  -26.7420   22.2640 C   0  0  0  0  0  2  0  0  0  0  0  0
  -19.1280  -28.8430   23.3750 C   0  0  0  0  0  0  0  0  0  0  0  0
  -18.9180  -30.1090   23.9660 C   0  0  0  0  0  3  0  0  0  0  0  0
  -17.6160  -30.6160   24.1350 C   0  0  0  0  0  3  0  0  0  0  0  0
  -16.5050  -29.8560   23.7260 C   0  0  0  0  0  3  0  0  0  0  0  0
  -16.7020  -28.5970   23.1330 C   0  0  0  0  0  3  0  0  0  0  0  0
  -25.8360  -32.5270   23.8510 C   0  0  0  0  0  3  0  0  0  0  0  0
  -25.5230  -33.9220   24.1750 N   0  0  0  0  0  0  0  0  0  0  0  0
  -25.8610  -34.9750   23.4150 C   0  0  0  0  0  0  0  0  0  0  0  0
  -26.5390  -34.8730   22.3890 O   0  0  0  0  0  0  0  0  0  0  0  0
  -24.9140  -34.0740   24.9650 H   0  0  0  0  0  0  0  0  0  0  0  0
  -24.1370  -36.7670   23.0430 C   0  0  0  0  0  1  0  0  0  0  0  0
  -25.3680  -36.3630   23.8690 C   0  0  0  0  0  3  0  0  0  0  0  0
  -27.4950  -37.2450   24.7220 C   0  0  0  0  0  1  0  0  0  0  0  0
  -26.4020  -37.4140   23.7680 N   0  0  0  0  0  0  0  0  0  0  0  0
  -25.9950  -38.3320   23.9190 H   0  0  0  0  0  0  0  0  0  0  0  0
  -26.3580  -31.7570   25.1250 C   0  0  1  0  0  0  0  0  0  0  0  0
  -25.2750  -31.5170   26.2010 C   0  0  0  0  0  1  0  0  0  0  0  0
  -26.9340  -30.3820   24.7210 C   0  0  0  0  0  1  0  0  0  0  0  0
  -27.5040  -32.5570   25.7860 C   0  0  0  0  0  1  0  0  0  0  0  0
  1  2  1  0
  1  3  1  0
  4  1  1  0
  5  7  1  0
  5  6  1  0
  6  8  1  0
  7  9  1  0
  8  4  1  0
  9  8  1  0
  9 10  1  0
 10 11  1  0
 11 20  1  0
 12 20  1  0
 13 18  1  0
 14 15  1  0
 14 13  1  0
 16 15  1  0
 16 25  1  0
 16 17  1  0
 18 12  1  0
 18 17  1  0
 19 12  2  0
 20 21  1  0
 22 23  2  0
 23 42  1  0
 24 23  1  0
 24 27  1  0
 25 22  1  0
 25 26  1  0
 26 24  2  0
 27 28  1  0
 28 29  2  0
 30 33  1  0
 30 29  1  0
 31 30  2  0
 32 31  1  0
 32 27  2  0
 33 34  1  0
 34 35  1  0
 35 36  2  0
 37 36  1  0
 37 41  1  0
 38 37  2  0
 39 34  2  0
 39 38  1  0
 40 39  1  0
 42 43  1  0
 43 46  1  0
 43 45  1  0
 44 42  2  0
 47 48  1  0
 47 22  1  0
 49 47  1  0
 50 51  1  0
 50  1  1  0
 52 53  1  0
 52 51  1  0
 53 54  1  0
 55 66  2  0
 56 54  1  0
 56 61  1  0
 57 65  1  0
 57 67  1  0
 58 64  1  0
 58 60  1  0
 59 65  1  0
 60 61  2  0
 60 59  1  0
 62 63  1  0
 62 56  2  0
 63 58  2  0
 64 57  1  0
 65 55  1  0
 67 69  2  0
 68 67  1  0
 70 68  1  0
 71 80  2  0
 71 76  1  0
 72 68  1  0
 72 76  1  0
 73 72  1  0
 74 75  1  0
 74 73  1  0
 75 71  1  0
 76 77  2  0
 77 78  1  0
 79 78  2  0
 80 79  1  0
 81 55  1  0
 81 82  1  0
 81 91  1  0
 82 85  1  0
 83 87  1  0
 83 82  1  0
 84 83  2  0
 87 86  1  0
 89 87  1  0
 89 90  1  0
 89 88  1  0
 91 94  1  1
 91 92  1  0
 93 91  1  0
M  ISO  4  12 100  20 100  53 101  54 101
M  END
>  <TORSDO>  (80) 
F 24

>  <SCORE>  (80) 
-12.492

>  <name>  (80) 
80

>  <ligand_id>  (80) 
80

>  <original_smiles>  (80) 
[H]c1c([H])c([H])c2c(c1[H])C([H])([H])C([H])([H])C([H])([H])C2([H])N([H])C(=O)C1([H])N(C(=O)C([H])(N([H])C(=O)C([H])(N([H])C([H])([H])[H])C([H])([H])[H])C(C([H])([H])[H])(C([H])([H])[H])C([H])([H])[H])C([H])([H])c2c([H])c(OC([H])([H])C([H])([H])C([H])([H])C([H])([H])[N+]([H])([H])C([H])([H])C3([H])N(C([H])([H])C([H])([H])N([H])C(=O)N4C([H])([H])C([H])([H])C([H])([H])C([H])(n5nc(-c6c([H])c([H])c(Oc7c([H])c([H])c(F)c([H])c7F)c([H])c6[H])c(C(=O)N([H])[H])c5N([H])[H])C4([H])[H])C([H])([H])C([H])([H])C3([H])[H])c([H])c([H])c2C1([H])[H]

>  <smiles>  (80) 
[H]c1c([H])c([H])c2c(c1[H])C([H])([H])C([H])([H])C([H])([H])C2([H])N([H])C(=O)C1([H])N(C(=O)C([H])(N([H])C(=O)C([H])(N([H])C([H])([H])[H])C([H])([H])[H])C(C([H])([H])[H])(C([H])([H])[H])C([H])([H])[H])C([H])([H])c2c([H])c(OC([H])([H])C([H])([H])C([H])([H])C([H])([H])[N+]([H])([H])C([H])([H])C3([H])N(C([H])([H])C([H])([H])N([H])C(=O)N4C([H])([H])C([H])([H])C([H])([H])C([H])(n5nc(-c6c([H])c([H])c(Oc7c([H])c([H])c(F)c([H])c7F)c([H])c6[H])c(C(=O)N([H])[H])c5N([H])[H])C4([H])[H])C([H])([H])C([H])([H])C3([H])[H])c([H])c([H])c2C1([H])[H]

$$$$
81:0:0
     RDKit          3D

 91 99  0  0  1  0  0  0  0  0999 V2000
  -29.3710  -19.3990   18.7860 C   0  0  0  0  0  2  0  0  0  0  0  0
  -29.2870  -19.4520   21.1330 C   0  0  0  0  0  2  0  0  0  0  0  0
  -28.4960  -20.8250   18.9340 C   0  0  0  0  0  2  0  0  0  0  0  0
  -29.3940  -21.1070   21.1080 C   0  0  0  0  0  2  0  0  0  0  0  0
  -30.0250  -18.5450   20.0280 C   0  0  1  0  0  0  0  0  0  0  0  0
  -29.0110  -21.9340   19.8630 N   0  0  2  0  0  4  0  0  0  0  0  0
  -29.8980  -22.1890   19.4510 H   0  0  0  0  0  0  0  0  0  0  0  0
  -30.7220  -15.6970   20.1300 C   0  0  0  0  0  0  0  0  0  0  0  0
  -30.8120  -13.2050   19.4910 C   0  0  0  0  0  2  0  0  0  0  0  0
  -29.9320  -12.8690   18.2640 C   0  0  0  0  0  2  0  0  0  0  0  0
  -28.4800  -12.5950   18.6920 C   0  0  0  0  0  2  0  0  0  0  0  0
  -27.9630  -13.6410   19.7130 C   0  0  0  0  0  3  0  0  0  0  0  0
  -28.9730  -13.9240   20.8440 C   0  0  0  0  0  2  0  0  0  0  0  0
  -30.2080  -14.3840   20.1980 N   0  0  0  0  0  0  0  0  0  0  0  0
  -31.9420  -15.7460   19.9240 O   0  0  0  0  0  0  0  0  0  0  0  0
  -29.8840  -16.9000   20.1160 N   0  0  0  0  0  0  0  0  0  0  0  0
  -28.9160  -16.6310   20.2050 H   0  0  0  0  0  0  0  0  0  0  0  0
  -25.5880  -14.1790   20.4770 C   0  0  0  0  0  0  0  0  0  0  0  0
  -24.5290  -13.3880   20.8290 C   0  0  0  0  0  0  0  0  0  0  0  0
  -25.0040  -12.0410   20.7700 C   0  0  0  0  0  0  0  0  0  0  0  0
  -26.6360  -13.3140   20.2160 N   0  0  0  0  0  0  0  0  0  0  0  0
  -26.2970  -12.0220   20.4620 N   0  0  0  0  0  0  0  0  0  0  0  0
  -24.2850  -10.7700   20.9300 C   0  0  0  0  0  0  0  0  0  0  0  0
  -24.6690   -9.8180   21.8980 C   0  0  0  0  0  3  0  0  0  0  0  0
  -23.9440   -8.6150   22.0460 C   0  0  0  0  0  3  0  0  0  0  0  0
  -22.8220   -8.3570   21.2240 C   0  0  0  0  0  0  0  0  0  0  0  0
  -22.4570   -9.2990   20.2450 C   0  0  0  0  0  3  0  0  0  0  0  0
  -23.1830  -10.4920   20.0970 C   0  0  0  0  0  3  0  0  0  0  0  0
  -22.0740   -7.2060   21.2790 O   0  0  0  0  0  0  0  0  0  0  0  0
  -21.8880   -6.5240   22.4550 C   0  0  0  0  0  0  0  0  0  0  0  0
  -21.2670   -7.1240   23.5730 C   0  0  0  0  0  3  0  0  0  0  0  0
  -21.0320   -6.3670   24.7380 C   0  0  0  0  0  3  0  0  0  0  0  0
  -21.4080   -5.0110   24.7840 C   0  0  0  0  0  0  0  0  0  0  0  0
  -22.0200   -4.4110   23.6700 C   0  0  0  0  0  3  0  0  0  0  0  0
  -22.2560   -5.1650   22.5080 C   0  0  0  0  0  0  0  0  0  0  0  0
  -22.8270   -4.5760   21.4290 F   0  0  0  0  0  0  0  0  0  0  0  0
  -21.1760   -4.2800   25.9000 F   0  0  0  0  0  0  0  0  0  0  0  0
  -23.1280  -13.8510   21.1010 C   0  0  0  0  0  0  0  0  0  0  0  0
  -22.4040  -13.1390   21.9560 N   0  0  0  0  0  0  0  0  0  0  0  0
  -22.6870  -14.8830   20.5960 O   0  0  0  0  0  0  0  0  0  0  0  0
  -22.7750  -12.3030   22.3830 H   0  0  0  0  0  0  0  0  0  0  0  0
  -21.4660  -13.4330   22.1870 H   0  0  0  0  0  0  0  0  0  0  0  0
  -25.7380  -15.5540   20.3240 N   0  0  0  0  0  0  0  0  0  0  0  0
  -24.9560  -16.1900   20.4380 H   0  0  0  0  0  0  0  0  0  0  0  0
  -26.5640  -16.0070   19.9560 H   0  0  0  0  0  0  0  0  0  0  0  0
  -31.5430  -18.8790   20.1210 C   0  0  0  0  0  2  0  0  0  0  0  0
  -33.5140  -19.5620   21.6410 C   0  0  0  0  0  1  0  0  0  0  0  0
  -32.1290  -18.9090   21.5560 C   0  0  0  0  0  2  0  0  0  0  0  0
  -28.2890  -23.3910   20.1600 C   0  0  0  0  0  2  0  0  0  0  0  0
  -28.1630  -24.8800   19.2460 C   0  0  0  0  0  2  0  0  0  0  0  0
  -28.1560  -26.4460   19.6620 O   0  0  0  0  0  0  0  0  0  0  0  0
  -24.6900  -31.9490   23.2670 C   0  0  0  0  0  0  0  0  0  0  0  0
  -27.0940  -27.4630   19.6830 C   0  0  0  0  0  0  0  0  0  0  0  0
  -23.4050  -30.7030   21.5730 C   0  0  0  0  0  3  0  0  0  0  0  0
  -24.7720  -29.2610   19.9240 C   0  0  0  0  0  0  0  0  0  0  0  0
  -25.9480  -30.9750   21.2950 C   0  0  0  0  0  2  0  0  0  0  0  0
  -25.9840  -29.6380   20.5140 C   0  0  0  0  0  0  0  0  0  0  0  0
  -27.1340  -28.7590   20.3780 C   0  0  0  0  0  3  0  0  0  0  0  0
  -25.8550  -27.2180   19.0550 C   0  0  0  0  0  3  0  0  0  0  0  0
  -24.7270  -28.0710   19.1750 C   0  0  0  0  0  3  0  0  0  0  0  0
  -23.5500  -30.1530   20.1260 C   0  0  0  0  0  2  0  0  0  0  0  0
  -24.7050  -31.2300   22.1000 N   0  0  0  0  0  0  0  0  0  0  0  0
  -23.6340  -32.1750   23.8770 O   0  0  0  0  0  0  0  0  0  0  0  0
  -22.7760  -29.6130   22.4800 C   0  0  0  0  0  0  0  0  0  0  0  0
  -21.4510  -29.4050   22.3690 N   0  0  0  0  0  0  0  0  0  0  0  0
  -23.4850  -28.9600   23.2490 O   0  0  0  0  0  0  0  0  0  0  0  0
  -20.9280  -29.9830   21.7260 H   0  0  0  0  0  0  0  0  0  0  0  0
  -18.1430  -27.9860   22.8020 C   0  0  0  0  0  0  0  0  0  0  0  0
  -20.6830  -28.3840   23.0900 C   0  0  0  0  0  3  0  0  0  0  0  0
  -20.8670  -26.9920   22.4440 C   0  0  0  0  0  2  0  0  0  0  0  0
  -19.7870  -26.6560   21.4120 C   0  0  0  0  0  2  0  0  0  0  0  0
  -18.3970  -26.6880   22.0550 C   0  0  0  0  0  2  0  0  0  0  0  0
  -19.2150  -28.7890   23.2740 C   0  0  0  0  0  0  0  0  0  0  0  0
  -18.9220  -30.0030   23.9340 C   0  0  0  0  0  3  0  0  0  0  0  0
  -17.5900  -30.4150   24.1250 C   0  0  0  0  0  3  0  0  0  0  0  0
  -16.5320  -29.6100   23.6660 C   0  0  0  0  0  3  0  0  0  0  0  0
  -16.8090  -28.3980   23.0110 C   0  0  0  0  0  3  0  0  0  0  0  0
  -25.9970  -32.5380   23.8790 C   0  0  0  0  0  3  0  0  0  0  0  0
  -26.5580  -31.6810   25.0820 C   0  0  1  0  0  0  0  0  0  0  0  0
  -25.5080  -31.3890   26.1800 C   0  0  0  0  0  1  0  0  0  0  0  0
  -27.1080  -30.3260   24.5860 C   0  0  0  0  0  1  0  0  0  0  0  0
  -27.7460  -32.4200   25.7420 C   0  0  0  0  0  1  0  0  0  0  0  0
  -25.7090  -33.9120   24.3260 N   0  0  0  0  0  0  0  0  0  0  0  0
  -26.0690  -35.0240   23.6700 C   0  0  0  0  0  0  0  0  0  0  0  0
  -26.7420  -35.0000   22.6380 O   0  0  0  0  0  0  0  0  0  0  0  0
  -25.1150  -34.0080   25.1360 H   0  0  0  0  0  0  0  0  0  0  0  0
  -24.3960  -36.8940   23.4670 C   0  0  0  0  0  1  0  0  0  0  0  0
  -25.6100  -36.3760   24.2540 C   0  0  0  0  0  3  0  0  0  0  0  0
  -27.7480  -37.1240   25.2000 C   0  0  0  0  0  1  0  0  0  0  0  0
  -26.6690  -37.4080   24.2580 N   0  0  0  0  0  0  0  0  0  0  0  0
  -26.2810  -38.3210   24.4830 H   0  0  0  0  0  0  0  0  0  0  0  0
  1  3  1  0
  1  5  1  0
  3  6  1  0
  4  2  1  0
  5 16  1  0
  5 46  1  1
  5  2  1  0
  6 49  1  0
  6  4  1  0
  6  7  1  6
  8 14  1  0
  9 14  1  0
 10 11  1  0
 10  9  1  0
 12 11  1  0
 12 21  1  0
 12 13  1  0
 14 13  1  0
 15  8  2  0
 16  8  1  0
 16 17  1  0
 18 19  2  0
 19 38  1  0
 20 19  1  0
 20 23  1  0
 21 22  1  0
 21 18  1  0
 22 20  2  0
 23 24  1  0
 24 25  2  0
 26 29  1  0
 26 25  1  0
 27 26  2  0
 28 27  1  0
 28 23  2  0
 29 30  1  0
 30 35  2  0
 30 31  1  0
 31 32  2  0
 32 33  1  0
 33 37  1  0
 34 33  2  0
 35 34  1  0
 36 35  1  0
 38 39  1  0
 39 42  1  0
 39 41  1  0
 40 38  2  0
 43 44  1  0
 43 18  1  0
 45 43  1  0
 46 48  1  0
 48 47  1  0
 50 51  1  0
 50 49  1  0
 51 53  1  0
 52 63  2  0
 53 58  1  0
 54 62  1  0
 54 64  1  0
 55 61  1  0
 55 57  1  0
 56 62  1  0
 57 56  1  0
 58 57  2  0
 59 60  1  0
 59 53  2  0
 60 55  2  0
 61 54  1  0
 62 52  1  0
 64 66  2  0
 65 64  1  0
 67 65  1  0
 68 77  2  0
 68 73  1  0
 69 65  1  0
 69 73  1  0
 70 69  1  0
 71 72  1  0
 71 70  1  0
 72 68  1  0
 73 74  2  0
 74 75  1  0
 76 75  2  0
 77 76  1  0
 78 52  1  0
 78 83  1  0
 78 79  1  0
 79 82  1  1
 79 80  1  0
 81 79  1  0
 83 86  1  0
 84 88  1  0
 84 83  1  0
 85 84  2  0
 88 87  1  0
 88 90  1  0
 90 91  1  0
 90 89  1  0
M  ISO  4   8 100  16 100  50 101  51 101
M  END
>  <TORSDO>  (81) 
F 20

>  <SCORE>  (81) 
-13.763

>  <name>  (81) 
81

>  <ligand_id>  (81) 
81

>  <original_smiles>  (81) 
[H]c1c([H])c([H])c2c(c1[H])C([H])([H])C([H])([H])C([H])([H])C2([H])N([H])C(=O)C1([H])N(C(=O)C([H])(N([H])C(=O)C([H])(N([H])C([H])([H])[H])C([H])([H])[H])C(C([H])([H])[H])(C([H])([H])[H])C([H])([H])[H])C([H])([H])c2c([H])c(OC([H])([H])C([H])([H])[N+]3([H])C([H])([H])C([H])([H])C(N([H])C(=O)N4C([H])([H])C([H])([H])C([H])([H])C([H])(n5nc(-c6c([H])c([H])c(Oc7c([H])c([H])c(F)c([H])c7F)c([H])c6[H])c(C(=O)N([H])[H])c5N([H])[H])C4([H])[H])(C([H])([H])C([H])([H])C([H])([H])[H])C([H])([H])C3([H])[H])c([H])c([H])c2C1([H])[H]

>  <smiles>  (81) 
[H]c1c([H])c([H])c2c(c1[H])C([H])([H])C([H])([H])C([H])([H])C2([H])N([H])C(=O)C1([H])N(C(=O)C([H])(N([H])C(=O)C([H])(N([H])C([H])([H])[H])C([H])([H])[H])C(C([H])([H])[H])(C([H])([H])[H])C([H])([H])[H])C([H])([H])c2c([H])c(OC([H])([H])C([H])([H])[N+]3([H])C([H])([H])C([H])([H])C(N([H])C(=O)N4C([H])([H])C([H])([H])C([H])([H])C([H])(n5nc(-c6c([H])c([H])c(Oc7c([H])c([H])c(F)c([H])c7F)c([H])c6[H])c(C(=O)N([H])[H])c5N([H])[H])C4([H])[H])(C([H])([H])C([H])([H])C([H])([H])[H])C([H])([H])C3([H])[H])c([H])c([H])c2C1([H])[H]

$$$$
82:0:0
     RDKit          3D

 93101  0  0  1  0  0  0  0  0999 V2000
  -29.6410  -19.4610   20.6530 C   0  0  0  0  0  0  0  0  0  0  0  0
  -30.0800  -18.3140   21.2080 C   0  0  0  0  0  3  0  0  0  0  0  0
  -28.3080  -20.0780   21.0390 C   0  0  0  0  0  2  0  0  0  0  0  0
  -30.4160  -20.2780   19.6270 C   0  0  0  0  0  2  0  0  0  0  0  0
  -28.4920  -21.5300   21.5100 C   0  0  0  0  0  2  0  0  0  0  0  0
  -30.5630  -21.7460   20.0720 C   0  0  0  0  0  2  0  0  0  0  0  0
  -29.2040  -22.3850   20.4410 C   0  0  0  0  0  3  0  0  0  0  0  0
  -29.3690  -23.7790   20.9150 N   0  0  0  0  0  4  0  0  0  0  0  0
  -30.2670  -23.8680   21.3660 H   0  0  0  0  0  0  0  0  0  0  0  0
  -28.6660  -23.9430   21.6210 H   0  0  0  0  0  0  0  0  0  0  0  0
  -29.2140  -24.8230   19.8710 C   0  0  0  0  0  2  0  0  0  0  0  0
  -29.2520  -26.2410   20.4670 C   0  0  0  0  0  2  0  0  0  0  0  0
  -28.9710  -27.2070   19.4570 O   0  0  0  0  0  0  0  0  0  0  0  0
  -24.6840  -31.5560   23.1030 C   0  0  0  0  0  0  0  0  0  0  0  0
  -27.7350  -27.7920   19.5640 C   0  0  0  0  0  0  0  0  0  0  0  0
  -23.6110  -30.2400   21.3020 C   0  0  0  0  0  3  0  0  0  0  0  0
  -25.2030  -29.0170   19.7280 C   0  0  0  0  0  0  0  0  0  0  0  0
  -26.0850  -30.8670   21.1640 C   0  0  0  0  0  2  0  0  0  0  0  0
  -26.3020  -29.5890   20.3830 C   0  0  0  0  0  0  0  0  0  0  0  0
  -27.5720  -28.9830   20.3030 C   0  0  0  0  0  3  0  0  0  0  0  0
  -26.6270  -27.2210   18.9090 C   0  0  0  0  0  3  0  0  0  0  0  0
  -25.3570  -27.8270   18.9940 C   0  0  0  0  0  3  0  0  0  0  0  0
  -23.8810  -29.7390   19.8570 C   0  0  0  0  0  2  0  0  0  0  0  0
  -24.8100  -30.8980   21.9160 N   0  0  0  0  0  0  0  0  0  0  0  0
  -23.5830  -31.6610   23.6620 O   0  0  0  0  0  0  0  0  0  0  0  0
  -23.0630  -29.0610   22.1370 C   0  0  0  0  0  0  0  0  0  0  0  0
  -21.7670  -28.7580   21.9640 N   0  0  0  0  0  0  0  0  0  0  0  0
  -23.8030  -28.4250   22.8920 O   0  0  0  0  0  0  0  0  0  0  0  0
  -21.2270  -29.3310   21.3300 H   0  0  0  0  0  0  0  0  0  0  0  0
  -18.5370  -27.1650   22.2390 C   0  0  0  0  0  0  0  0  0  0  0  0
  -21.0450  -27.6650   22.6120 C   0  0  0  0  0  3  0  0  0  0  0  0
  -21.3140  -26.3190   21.8990 C   0  0  0  0  0  2  0  0  0  0  0  0
  -20.2750  -25.9870   20.8260 C   0  0  0  0  0  2  0  0  0  0  0  0
  -18.8720  -25.9180   21.4390 C   0  0  0  0  0  2  0  0  0  0  0  0
  -19.5570  -27.9930   22.7760 C   0  0  0  0  0  0  0  0  0  0  0  0
  -19.1910  -29.1610   23.4810 C   0  0  0  0  0  3  0  0  0  0  0  0
  -17.8370  -29.5020   23.6560 C   0  0  0  0  0  3  0  0  0  0  0  0
  -16.8300  -28.6700   23.1350 C   0  0  0  0  0  3  0  0  0  0  0  0
  -17.1810  -27.5030   22.4330 C   0  0  0  0  0  3  0  0  0  0  0  0
  -25.9070  -32.2300   23.8010 C   0  0  0  0  0  3  0  0  0  0  0  0
  -25.5100  -33.5950   24.1670 N   0  0  0  0  0  0  0  0  0  0  0  0
  -25.8400  -34.6930   23.4740 C   0  0  0  0  0  0  0  0  0  0  0  0
  -26.5810  -34.6670   22.4880 O   0  0  0  0  0  0  0  0  0  0  0  0
  -24.8580  -33.6880   24.9330 H   0  0  0  0  0  0  0  0  0  0  0  0
  -24.0580  -36.4200   23.0670 C   0  0  0  0  0  1  0  0  0  0  0  0
  -25.2540  -36.0360   23.9520 C   0  0  0  0  0  3  0  0  0  0  0  0
  -27.2690  -36.9840   24.9870 C   0  0  0  0  0  1  0  0  0  0  0  0
  -26.2400  -37.1380   23.9610 N   0  0  0  0  0  0  0  0  0  0  0  0
  -25.7810  -38.0330   24.1060 H   0  0  0  0  0  0  0  0  0  0  0  0
  -26.4160  -31.4370   25.0660 C   0  0  1  0  0  0  0  0  0  0  0  0
  -25.3000  -31.1080   26.0850 C   0  0  0  0  0  1  0  0  0  0  0  0
  -27.0770  -30.1040   24.6420 C   0  0  0  0  0  1  0  0  0  0  0  0
  -27.5060  -32.2570   25.7960 C   0  0  0  0  0  1  0  0  0  0  0  0
  -31.4110  -17.6380   20.9320 C   0  0  0  0  0  2  0  0  0  0  0  0
  -31.5990  -16.3290   21.7200 C   0  0  0  0  0  2  0  0  0  0  0  0
  -31.0520  -14.5040   20.1210 C   0  0  0  0  0  0  0  0  0  0  0  0
  -30.6150  -12.3830   18.9410 C   0  0  0  0  0  2  0  0  0  0  0  0
  -29.6050  -12.5500   17.7920 C   0  0  0  0  0  2  0  0  0  0  0  0
  -28.1640  -12.4060   18.3140 C   0  0  0  0  0  2  0  0  0  0  0  0
  -27.8930  -13.2940   19.5560 C   0  0  0  0  0  3  0  0  0  0  0  0
  -29.0030  -13.1170   20.6160 C   0  0  0  0  0  2  0  0  0  0  0  0
  -30.3090  -13.3770   19.9790 N   0  0  0  0  0  0  0  0  0  0  0  0
  -31.9900  -14.7980   19.3730 O   0  0  0  0  0  0  0  0  0  0  0  0
  -30.7770  -15.2320   21.2100 N   0  0  0  0  0  0  0  0  0  0  0  0
  -30.0140  -14.9130   21.7880 H   0  0  0  0  0  0  0  0  0  0  0  0
  -25.5680  -13.9260   20.4690 C   0  0  0  0  0  0  0  0  0  0  0  0
  -24.5090  -13.1620   20.8800 C   0  0  0  0  0  0  0  0  0  0  0  0
  -24.9280  -11.8030   20.7490 C   0  0  0  0  0  0  0  0  0  0  0  0
  -26.5690  -13.0330   20.1190 N   0  0  0  0  0  0  0  0  0  0  0  0
  -26.1890  -11.7470   20.3410 N   0  0  0  0  0  0  0  0  0  0  0  0
  -24.1830  -10.5510   20.9330 C   0  0  0  0  0  0  0  0  0  0  0  0
  -24.5790   -9.5880   21.8870 C   0  0  0  0  0  3  0  0  0  0  0  0
  -23.8350   -8.4010   22.0580 C   0  0  0  0  0  3  0  0  0  0  0  0
  -22.6810   -8.1670   21.2730 C   0  0  0  0  0  0  0  0  0  0  0  0
  -22.3040   -9.1190   20.3090 C   0  0  0  0  0  3  0  0  0  0  0  0
  -23.0480  -10.2970   20.1370 C   0  0  0  0  0  3  0  0  0  0  0  0
  -21.9120   -7.0310   21.3510 O   0  0  0  0  0  0  0  0  0  0  0  0
  -21.7260   -6.3680   22.5370 C   0  0  0  0  0  0  0  0  0  0  0  0
  -21.1250   -6.9910   23.6540 C   0  0  0  0  0  3  0  0  0  0  0  0
  -20.8900   -6.2520   24.8290 C   0  0  0  0  0  3  0  0  0  0  0  0
  -21.2440   -4.8910   24.8910 C   0  0  0  0  0  0  0  0  0  0  0  0
  -21.8390   -4.2680   23.7790 C   0  0  0  0  0  3  0  0  0  0  0  0
  -22.0760   -5.0030   22.6040 C   0  0  0  0  0  0  0  0  0  0  0  0
  -22.6290   -4.3930   21.5290 F   0  0  0  0  0  0  0  0  0  0  0  0
  -21.0110   -4.1790   26.0180 F   0  0  0  0  0  0  0  0  0  0  0  0
  -23.1490  -13.6590   21.2810 C   0  0  0  0  0  0  0  0  0  0  0  0
  -22.4750  -12.9460   22.1760 N   0  0  0  0  0  0  0  0  0  0  0  0
  -22.6970  -14.7130   20.8370 O   0  0  0  0  0  0  0  0  0  0  0  0
  -22.8540  -12.0900   22.5560 H   0  0  0  0  0  0  0  0  0  0  0  0
  -21.5650  -13.2590   22.4850 H   0  0  0  0  0  0  0  0  0  0  0  0
  -25.7590  -15.2990   20.3470 N   0  0  0  0  0  0  0  0  0  0  0  0
  -25.0250  -15.9690   20.5500 H   0  0  0  0  0  0  0  0  0  0  0  0
  -26.6050  -15.7320   19.9960 H   0  0  0  0  0  0  0  0  0  0  0  0
  1  3  1  0
  1  2  2  0
  3  5  1  0
  4  6  1  0
  4  1  1  0
  6  7  1  0
  7  8  1  0
  7  5  1  0
  8  9  1  0
  8 10  1  0
 11 12  1  0
 11  8  1  0
 13 15  1  0
 13 12  1  0
 14 25  2  0
 15 20  1  0
 16 24  1  0
 16 26  1  0
 17 23  1  0
 17 19  1  0
 18 24  1  0
 19 18  1  0
 20 19  2  0
 21 22  1  0
 21 15  2  0
 22 17  2  0
 23 16  1  0
 24 14  1  0
 26 28  2  0
 27 26  1  0
 29 27  1  0
 30 39  2  0
 30 35  1  0
 31 27  1  0
 31 35  1  0
 32 31  1  0
 33 34  1  0
 33 32  1  0
 34 30  1  0
 35 36  2  0
 36 37  1  0
 38 37  2  0
 39 38  1  0
 40 14  1  0
 40 41  1  0
 40 50  1  0
 41 44  1  0
 42 46  1  0
 42 41  1  0
 43 42  2  0
 46 45  1  0
 46 48  1  0
 48 49  1  0
 48 47  1  0
 50 53  1  1
 50 51  1  0
 52 50  1  0
 54  2  1  0
 54 55  1  0
 56 64  1  0
 57 62  1  0
 58 59  1  0
 58 57  1  0
 60 59  1  0
 60 69  1  0
 60 61  1  0
 62 56  1  0
 62 61  1  0
 63 56  2  0
 64 55  1  0
 64 65  1  0
 66 67  2  0
 67 86  1  0
 68 67  1  0
 68 71  1  0
 69 70  1  0
 69 66  1  0
 70 68  2  0
 71 72  1  0
 72 73  2  0
 74 77  1  0
 74 73  1  0
 75 74  2  0
 76 75  1  0
 76 71  2  0
 77 78  1  0
 78 83  2  0
 78 79  1  0
 79 80  2  0
 80 81  1  0
 81 85  1  0
 82 81  2  0
 83 82  1  0
 84 83  1  0
 86 87  1  0
 87 90  1  0
 87 89  1  0
 88 86  2  0
 91 66  1  0
 91 92  1  0
 93 91  1  0
M  ISO  4  12 101  13 101  56 100  64 100
M  END
>  <TORSDO>  (82) 
F 21

>  <SCORE>  (82) 
-11.189

>  <name>  (82) 
82

>  <ligand_id>  (82) 
82

>  <original_smiles>  (82) 
[H]C(=C1C([H])([H])C([H])([H])C([H])([N+]([H])([H])C([H])([H])C([H])([H])Oc2c([H])c([H])c3c(c2[H])C([H])([H])N(C(=O)C([H])(N([H])C(=O)C([H])(N([H])C([H])([H])[H])C([H])([H])[H])C(C([H])([H])[H])(C([H])([H])[H])C([H])([H])[H])C([H])(C(=O)N([H])C2([H])c4c([H])c([H])c([H])c([H])c4C([H])([H])C([H])([H])C2([H])[H])C3([H])[H])C([H])([H])C1([H])[H])C([H])([H])C([H])([H])N([H])C(=O)N1C([H])([H])C([H])([H])C([H])([H])C([H])(n2nc(-c3c([H])c([H])c(Oc4c([H])c([H])c(F)c([H])c4F)c([H])c3[H])c(C(=O)N([H])[H])c2N([H])[H])C1([H])[H]

>  <smiles>  (82) 
[H]C(=C1C([H])([H])C([H])([H])C([H])([N+]([H])([H])C([H])([H])C([H])([H])Oc2c([H])c([H])c3c(c2[H])C([H])([H])N(C(=O)C([H])(N([H])C(=O)C([H])(N([H])C([H])([H])[H])C([H])([H])[H])C(C([H])([H])[H])(C([H])([H])[H])C([H])([H])[H])C([H])(C(=O)N([H])C2([H])c4c([H])c([H])c([H])c([H])c4C([H])([H])C([H])([H])C2([H])[H])C3([H])[H])C([H])([H])C1([H])[H])C([H])([H])C([H])([H])N([H])C(=O)N1C([H])([H])C([H])([H])C([H])([H])C([H])(n2nc(-c3c([H])c([H])c(Oc4c([H])c([H])c(F)c([H])c4F)c([H])c3[H])c(C(=O)N([H])[H])c2N([H])[H])C1([H])[H]

$$$$
83:0:0
     RDKit          3D

 95104  0  0  1  0  0  0  0  0999 V2000
  -30.7950  -22.5640   19.3430 C   0  0  0  0  0  2  0  0  0  0  0  0
  -28.7350  -22.9580   20.7400 C   0  0  0  0  0  2  0  0  0  0  0  0
  -30.2730  -23.5910   18.3220 C   0  0  0  0  0  2  0  0  0  0  0  0
  -28.2330  -23.9180   19.6610 C   0  0  0  0  0  2  0  0  0  0  0  0
  -29.6360  -21.8940   20.1080 C   0  0  0  0  0  3  0  0  0  0  0  0
  -29.3830  -24.5740   18.9840 N   0  0  2  0  0  4  0  0  0  0  0  0
  -29.9320  -24.9920   19.7210 H   0  0  0  0  0  0  0  0  0  0  0  0
  -30.1270  -20.9000   21.1690 C   0  0  0  0  0  2  0  0  0  0  0  0
  -29.4020  -18.7930   19.9080 C   0  0  0  0  0  2  0  0  0  0  0  0
  -29.4760  -17.3710   20.4510 C   0  0  0  0  0  2  0  0  0  0  0  0
  -31.1850  -18.6180   21.5850 C   0  0  0  0  0  2  0  0  0  0  0  0
  -30.5680  -19.5690   20.5560 C   0  0  0  0  0  3  0  0  0  0  0  0
  -30.8970  -17.2410   21.0050 C   0  0  0  0  0  3  0  0  0  0  0  0
  -31.0900  -16.0810   21.9990 C   0  0  0  0  0  2  0  0  0  0  0  0
  -30.7520  -14.2530   20.3430 C   0  0  0  0  0  0  0  0  0  0  0  0
  -30.2550  -12.3000   18.9340 C   0  0  0  0  0  2  0  0  0  0  0  0
  -29.2640  -12.6270   17.8040 C   0  0  0  0  0  2  0  0  0  0  0  0
  -27.8130  -12.4780   18.2940 C   0  0  0  0  0  2  0  0  0  0  0  0
  -27.5560  -13.2410   19.6180 C   0  0  0  0  0  3  0  0  0  0  0  0
  -28.6440  -12.9110   20.6630 C   0  0  0  0  0  2  0  0  0  0  0  0
  -29.9720  -13.1800   20.0740 N   0  0  0  0  0  0  0  0  0  0  0  0
  -31.6880  -14.6160   19.6220 O   0  0  0  0  0  0  0  0  0  0  0  0
  -30.4820  -14.8530   21.5060 N   0  0  0  0  0  0  0  0  0  0  0  0
  -29.7460  -14.4440   22.0620 H   0  0  0  0  0  0  0  0  0  0  0  0
  -25.1710  -13.8450   20.3930 C   0  0  0  0  0  0  0  0  0  0  0  0
  -24.1180  -13.0670   20.7960 C   0  0  0  0  0  0  0  0  0  0  0  0
  -24.5830  -11.7180   20.7520 C   0  0  0  0  0  0  0  0  0  0  0  0
  -26.2140  -12.9680   20.1350 N   0  0  0  0  0  0  0  0  0  0  0  0
  -25.8630  -11.6840   20.4030 N   0  0  0  0  0  0  0  0  0  0  0  0
  -23.8690  -10.4520   20.9660 C   0  0  0  0  0  0  0  0  0  0  0  0
  -24.3300   -9.4930   21.8940 C   0  0  0  0  0  3  0  0  0  0  0  0
  -23.6160   -8.2920   22.0970 C   0  0  0  0  0  3  0  0  0  0  0  0
  -22.4280   -8.0420   21.3690 C   0  0  0  0  0  0  0  0  0  0  0  0
  -21.9870   -8.9900   20.4300 C   0  0  0  0  0  3  0  0  0  0  0  0
  -22.7000  -10.1820   20.2260 C   0  0  0  0  0  3  0  0  0  0  0  0
  -21.6850   -6.8920   21.4810 O   0  0  0  0  0  0  0  0  0  0  0  0
  -21.6660   -6.1550   22.6380 C   0  0  0  0  0  0  0  0  0  0  0  0
  -21.2610   -6.7150   23.8700 C   0  0  0  0  0  3  0  0  0  0  0  0
  -21.1900   -5.9040   25.0210 C   0  0  0  0  0  3  0  0  0  0  0  0
  -21.5130   -4.5370   24.9420 C   0  0  0  0  0  0  0  0  0  0  0  0
  -21.9100   -3.9770   23.7140 C   0  0  0  0  0  3  0  0  0  0  0  0
  -21.9830   -4.7840   22.5650 C   0  0  0  0  0  0  0  0  0  0  0  0
  -22.3460   -4.2360   21.3800 F   0  0  0  0  0  0  0  0  0  0  0  0
  -21.4360   -3.7560   26.0450 F   0  0  0  0  0  0  0  0  0  0  0  0
  -22.7270  -13.5390   21.1130 C   0  0  0  0  0  0  0  0  0  0  0  0
  -22.0310  -12.8390   22.0020 N   0  0  0  0  0  0  0  0  0  0  0  0
  -22.2670  -14.5610   20.6080 O   0  0  0  0  0  0  0  0  0  0  0  0
  -22.4170  -12.0110   22.4320 H   0  0  0  0  0  0  0  0  0  0  0  0
  -21.1000  -13.1350   22.2560 H   0  0  0  0  0  0  0  0  0  0  0  0
  -25.3240  -15.2160   20.2110 N   0  0  0  0  0  0  0  0  0  0  0  0
  -24.5610  -15.8700   20.3490 H   0  0  0  0  0  0  0  0  0  0  0  0
  -26.1720  -15.6600   19.8780 H   0  0  0  0  0  0  0  0  0  0  0  0
  -28.9790  -25.7070   18.1190 C   0  0  0  0  0  2  0  0  0  0  0  0
  -29.1290  -27.0200   18.8940 C   0  0  0  0  0  2  0  0  0  0  0  0
  -28.4690  -26.9050   20.1560 O   0  0  0  0  0  0  0  0  0  0  0  0
  -24.5680  -31.9250   23.2900 C   0  0  0  0  0  0  0  0  0  0  0  0
  -27.2680  -27.5530   20.2110 C   0  0  0  0  0  0  0  0  0  0  0  0
  -23.3760  -30.5110   21.6430 C   0  0  0  0  0  3  0  0  0  0  0  0
  -24.8470  -28.9800   20.2360 C   0  0  0  0  0  0  0  0  0  0  0  0
  -25.8930  -30.8990   21.4550 C   0  0  0  0  0  2  0  0  0  0  0  0
  -25.9910  -29.5270   20.8300 C   0  0  0  0  0  0  0  0  0  0  0  0
  -27.2020  -28.8120   20.8320 C   0  0  0  0  0  3  0  0  0  0  0  0
  -26.1100  -26.9940   19.6310 C   0  0  0  0  0  3  0  0  0  0  0  0
  -24.8960  -27.7040   19.6440 C   0  0  0  0  0  3  0  0  0  0  0  0
  -23.5960  -29.8250   20.2670 C   0  0  0  0  0  2  0  0  0  0  0  0
  -24.6290  -31.1260   22.1890 N   0  0  0  0  0  0  0  0  0  0  0  0
  -23.4830  -32.1920   23.8260 O   0  0  0  0  0  0  0  0  0  0  0  0
  -22.7300  -29.4880   22.6030 C   0  0  0  0  0  0  0  0  0  0  0  0
  -21.4080  -29.2950   22.4650 N   0  0  0  0  0  0  0  0  0  0  0  0
  -23.4130  -28.8690   23.4230 O   0  0  0  0  0  0  0  0  0  0  0  0
  -20.9190  -29.8470   21.7750 H   0  0  0  0  0  0  0  0  0  0  0  0
  -18.0380  -28.0920   22.9440 C   0  0  0  0  0  0  0  0  0  0  0  0
  -20.5920  -28.3550   23.2320 C   0  0  0  0  0  3  0  0  0  0  0  0
  -20.7020  -26.9240   22.6560 C   0  0  0  0  0  2  0  0  0  0  0  0
  -19.6070  -26.5990   21.6360 C   0  0  0  0  0  2  0  0  0  0  0  0
  -18.2210  -26.7420   22.2710 C   0  0  0  0  0  2  0  0  0  0  0  0
  -19.1520  -28.8560   23.3800 C   0  0  0  0  0  0  0  0  0  0  0  0
  -18.9280  -30.1210   23.9660 C   0  0  0  0  0  3  0  0  0  0  0  0
  -17.6210  -30.6220   24.1210 C   0  0  0  0  0  3  0  0  0  0  0  0
  -16.5210  -29.8530   23.7020 C   0  0  0  0  0  3  0  0  0  0  0  0
  -16.7300  -28.5900   23.1200 C   0  0  0  0  0  3  0  0  0  0  0  0
  -25.8500  -32.5620   23.9130 C   0  0  0  0  0  3  0  0  0  0  0  0
  -25.5370  -33.9610   24.2320 N   0  0  0  0  0  0  0  0  0  0  0  0
  -25.8750  -35.0090   23.4670 C   0  0  0  0  0  0  0  0  0  0  0  0
  -26.5560  -34.8990   22.4440 O   0  0  0  0  0  0  0  0  0  0  0  0
  -24.9320  -34.1190   25.0250 H   0  0  0  0  0  0  0  0  0  0  0  0
  -24.1490  -36.7940   23.0760 C   0  0  0  0  0  1  0  0  0  0  0  0
  -25.3780  -36.3980   23.9080 C   0  0  0  0  0  3  0  0  0  0  0  0
  -27.4990  -37.2900   24.7640 C   0  0  0  0  0  1  0  0  0  0  0  0
  -26.4110  -37.4520   23.8040 N   0  0  0  0  0  0  0  0  0  0  0  0
  -26.0010  -38.3720   23.9420 H   0  0  0  0  0  0  0  0  0  0  0  0
  -26.3650  -31.7960   25.1930 C   0  0  1  0  0  0  0  0  0  0  0  0
  -25.2710  -31.5540   26.2560 C   0  0  0  0  0  1  0  0  0  0  0  0
  -26.9550  -30.4210   24.8030 C   0  0  0  0  0  1  0  0  0  0  0  0
  -27.5100  -32.5960   25.8580 C   0  0  0  0  0  1  0  0  0  0  0  0
  1  5  1  0
  3  6  1  0
  3  1  1  0
  4  2  1  0
  5  2  1  0
  5  8  1  0
  6  4  1  0
  6  7  1  1
  9 10  1  0
  9 12  1  0
 10 13  1  0
 12  8  1  0
 12 11  1  0
 13 11  1  0
 13 14  1  0
 15 23  1  0
 16 21  1  0
 17 18  1  0
 17 16  1  0
 19 18  1  0
 19 28  1  0
 19 20  1  0
 21 15  1  0
 21 20  1  0
 22 15  2  0
 23 14  1  0
 23 24  1  0
 25 26  2  0
 26 45  1  0
 27 26  1  0
 27 30  1  0
 28 25  1  0
 28 29  1  0
 29 27  2  0
 30 31  1  0
 31 32  2  0
 33 36  1  0
 33 32  1  0
 34 33  2  0
 35 34  1  0
 35 30  2  0
 36 37  1  0
 37 38  1  0
 38 39  2  0
 40 39  1  0
 40 44  1  0
 41 40  2  0
 42 37  2  0
 42 41  1  0
 43 42  1  0
 45 46  1  0
 46 49  1  0
 46 48  1  0
 47 45  2  0
 50 51  1  0
 50 25  1  0
 52 50  1  0
 53 54  1  0
 53  6  1  0
 54 55  1  0
 55 57  1  0
 56 67  2  0
 57 62  1  0
 58 66  1  0
 58 68  1  0
 59 65  1  0
 59 61  1  0
 60 66  1  0
 61 62  2  0
 61 60  1  0
 63 64  1  0
 63 57  2  0
 64 59  2  0
 65 58  1  0
 66 56  1  0
 68 70  2  0
 69 68  1  0
 71 69  1  0
 72 81  2  0
 72 77  1  0
 73 69  1  0
 73 77  1  0
 74 73  1  0
 75 76  1  0
 75 74  1  0
 76 72  1  0
 77 78  2  0
 78 79  1  0
 80 79  2  0
 81 80  1  0
 82 56  1  0
 82 83  1  0
 82 92  1  0
 83 86  1  0
 84 88  1  0
 84 83  1  0
 85 84  2  0
 88 87  1  0
 90 88  1  0
 90 91  1  0
 90 89  1  0
 92 95  1  1
 92 93  1  0
 94 92  1  0
M  ISO  4  15 100  23 100  54 101  55 101
M  END
>  <TORSDO>  (83) 
F 21

>  <SCORE>  (83) 
-13.547

>  <name>  (83) 
83

>  <ligand_id>  (83) 
83

>  <original_smiles>  (83) 
[H]c1c([H])c([H])c2c(c1[H])C([H])([H])C([H])([H])C([H])([H])C2([H])N([H])C(=O)C1([H])N(C(=O)C([H])(N([H])C(=O)C([H])(N([H])C([H])([H])[H])C([H])([H])[H])C(C([H])([H])[H])(C([H])([H])[H])C([H])([H])[H])C([H])([H])c2c([H])c(OC([H])([H])C([H])([H])[N+]3([H])C([H])([H])C([H])([H])C([H])(C([H])([H])C4([H])C([H])([H])C([H])([H])C([H])(C([H])([H])N([H])C(=O)N5C([H])([H])C([H])([H])C([H])([H])C([H])(n6nc(-c7c([H])c([H])c(Oc8c([H])c([H])c(F)c([H])c8F)c([H])c7[H])c(C(=O)N([H])[H])c6N([H])[H])C5([H])[H])C4([H])[H])C([H])([H])C3([H])[H])c([H])c([H])c2C1([H])[H]

>  <smiles>  (83) 
[H]c1c([H])c([H])c2c(c1[H])C([H])([H])C([H])([H])C([H])([H])C2([H])N([H])C(=O)C1([H])N(C(=O)C([H])(N([H])C(=O)C([H])(N([H])C([H])([H])[H])C([H])([H])[H])C(C([H])([H])[H])(C([H])([H])[H])C([H])([H])[H])C([H])([H])c2c([H])c(OC([H])([H])C([H])([H])[N+]3([H])C([H])([H])C([H])([H])C([H])(C([H])([H])C4([H])C([H])([H])C([H])([H])C([H])(C([H])([H])N([H])C(=O)N5C([H])([H])C([H])([H])C([H])([H])C([H])(n6nc(-c7c([H])c([H])c(Oc8c([H])c([H])c(F)c([H])c8F)c([H])c7[H])c(C(=O)N([H])[H])c6N([H])[H])C5([H])[H])C4([H])[H])C([H])([H])C3([H])[H])c([H])c([H])c2C1([H])[H]

$$$$
84:0:0
     RDKit          3D

 91 99  0  0  1  0  0  0  0  0999 V2000
  -28.9660  -21.3020   20.0030 N   0  0  0  0  0  4  0  0  0  0  0  0
  -28.1910  -21.1750   19.3720 H   0  0  0  0  0  0  0  0  0  0  0  0
  -29.7690  -21.4260   19.4060 H   0  0  0  0  0  0  0  0  0  0  0  0
  -29.1770  -19.7870   20.6850 C   0  0  0  0  0  2  0  0  0  0  0  0
  -31.5610  -18.2850   17.3750 C   0  0  0  0  0  2  0  0  0  0  0  0
  -32.2930  -18.2000   18.7150 C   0  0  0  0  0  2  0  0  0  0  0  0
  -30.1930  -17.6050   17.4730 C   0  0  0  0  0  2  0  0  0  0  0  0
  -31.4560  -18.7170   19.9090 C   0  0  0  0  0  2  0  0  0  0  0  0
  -29.3400  -18.3080   18.5370 C   0  0  0  0  0  2  0  0  0  0  0  0
  -29.9470  -18.3140   19.9670 C   0  0  2  0  0  0  0  0  0  0  0  0
  -30.6030  -15.4130   20.3100 C   0  0  0  0  0  0  0  0  0  0  0  0
  -30.5460  -12.9940   19.3840 C   0  0  0  0  0  2  0  0  0  0  0  0
  -29.6310  -12.8390   18.1450 C   0  0  0  0  0  2  0  0  0  0  0  0
  -28.1780  -12.5720   18.5710 C   0  0  0  0  0  2  0  0  0  0  0  0
  -27.7320  -13.5010   19.7290 C   0  0  0  0  0  3  0  0  0  0  0  0
  -28.7800  -13.6110   20.8580 C   0  0  0  0  0  2  0  0  0  0  0  0
  -30.0160  -14.1180   20.2420 N   0  0  0  0  0  0  0  0  0  0  0  0
  -31.8190  -15.3760   20.0840 O   0  0  0  0  0  0  0  0  0  0  0  0
  -29.8600  -16.6950   20.4330 N   0  0  0  0  0  0  0  0  0  0  0  0
  -28.9190  -16.4830   20.7260 H   0  0  0  0  0  0  0  0  0  0  0  0
  -25.3460  -14.0350   20.4500 C   0  0  0  0  0  0  0  0  0  0  0  0
  -24.2900  -13.2500   20.8130 C   0  0  0  0  0  0  0  0  0  0  0  0
  -24.7730  -11.9050   20.7990 C   0  0  0  0  0  0  0  0  0  0  0  0
  -26.4030  -13.1720   20.2260 N   0  0  0  0  0  0  0  0  0  0  0  0
  -26.0690  -11.8850   20.5050 N   0  0  0  0  0  0  0  0  0  0  0  0
  -24.0570  -10.6360   20.9910 C   0  0  0  0  0  0  0  0  0  0  0  0
  -24.4780   -9.6860   21.9480 C   0  0  0  0  0  3  0  0  0  0  0  0
  -23.7580   -8.4850   22.1280 C   0  0  0  0  0  3  0  0  0  0  0  0
  -22.6050   -8.2230   21.3500 C   0  0  0  0  0  0  0  0  0  0  0  0
  -22.2040   -9.1620   20.3830 C   0  0  0  0  0  3  0  0  0  0  0  0
  -22.9240  -10.3550   20.2010 C   0  0  0  0  0  3  0  0  0  0  0  0
  -21.8590   -7.0720   21.4380 O   0  0  0  0  0  0  0  0  0  0  0  0
  -21.7810   -6.3520   22.6030 C   0  0  0  0  0  0  0  0  0  0  0  0
  -21.2980   -6.9220   23.8000 C   0  0  0  0  0  3  0  0  0  0  0  0
  -21.1690   -6.1270   24.9560 C   0  0  0  0  0  3  0  0  0  0  0  0
  -21.5140   -4.7630   24.9160 C   0  0  0  0  0  0  0  0  0  0  0  0
  -21.9910   -4.1920   23.7220 C   0  0  0  0  0  3  0  0  0  0  0  0
  -22.1200   -4.9840   22.5690 C   0  0  0  0  0  0  0  0  0  0  0  0
  -22.5600   -4.4240   21.4150 F   0  0  0  0  0  0  0  0  0  0  0  0
  -21.3840   -3.9970   26.0240 F   0  0  0  0  0  0  0  0  0  0  0  0
  -22.8840  -13.7130   21.0550 C   0  0  0  0  0  0  0  0  0  0  0  0
  -22.1520  -13.0210   21.9210 N   0  0  0  0  0  0  0  0  0  0  0  0
  -22.4420  -14.7250   20.5140 O   0  0  0  0  0  0  0  0  0  0  0  0
  -22.5220  -12.2030   22.3830 H   0  0  0  0  0  0  0  0  0  0  0  0
  -21.2060  -13.3140   22.1260 H   0  0  0  0  0  0  0  0  0  0  0  0
  -25.4930  -15.4070   20.2610 N   0  0  0  0  0  0  0  0  0  0  0  0
  -24.7130  -16.0480   20.3570 H   0  0  0  0  0  0  0  0  0  0  0  0
  -26.3240  -15.8510   19.8940 H   0  0  0  0  0  0  0  0  0  0  0  0
  -28.7150  -22.8110   20.6850 C   0  0  0  0  0  2  0  0  0  0  0  0
  -28.0940  -24.3520   19.9720 C   0  0  0  0  0  2  0  0  0  0  0  0
  -28.1800  -25.9640   20.3520 O   0  0  0  0  0  0  0  0  0  0  0  0
  -24.6040  -31.9410   23.2370 C   0  0  0  0  0  0  0  0  0  0  0  0
  -27.1620  -27.0500   20.2410 C   0  0  0  0  0  0  0  0  0  0  0  0
  -23.4070  -30.5280   21.6160 C   0  0  0  0  0  3  0  0  0  0  0  0
  -24.8540  -28.9210   20.1920 C   0  0  0  0  0  0  0  0  0  0  0  0
  -25.9710  -30.7480   21.4530 C   0  0  0  0  0  2  0  0  0  0  0  0
  -26.0410  -29.3340   20.8080 C   0  0  0  0  0  0  0  0  0  0  0  0
  -27.1870  -28.4180   20.8110 C   0  0  0  0  0  3  0  0  0  0  0  0
  -25.9470  -26.7920   19.5660 C   0  0  0  0  0  3  0  0  0  0  0  0
  -24.8330  -27.6720   19.5500 C   0  0  0  0  0  3  0  0  0  0  0  0
  -23.6300  -29.8350   20.2420 C   0  0  0  0  0  2  0  0  0  0  0  0
  -24.6820  -31.1000   22.1560 N   0  0  0  0  0  0  0  0  0  0  0  0
  -23.5180  -32.2310   23.7620 O   0  0  0  0  0  0  0  0  0  0  0  0
  -22.7220  -29.5370   22.5930 C   0  0  0  0  0  0  0  0  0  0  0  0
  -21.3940  -29.3580   22.4690 N   0  0  0  0  0  0  0  0  0  0  0  0
  -23.3940  -28.9290   23.4300 O   0  0  0  0  0  0  0  0  0  0  0  0
  -20.9050  -29.8990   21.7710 H   0  0  0  0  0  0  0  0  0  0  0  0
  -18.0260  -28.1090   22.9810 C   0  0  0  0  0  0  0  0  0  0  0  0
  -20.5810  -28.4220   23.2540 C   0  0  0  0  0  3  0  0  0  0  0  0
  -20.7080  -26.9820   22.7060 C   0  0  0  0  0  2  0  0  0  0  0  0
  -19.6160  -26.6240   21.6910 C   0  0  0  0  0  2  0  0  0  0  0  0
  -18.2290  -26.7540   22.3250 C   0  0  0  0  0  2  0  0  0  0  0  0
  -19.1290  -28.9000   23.4030 C   0  0  0  0  0  0  0  0  0  0  0  0
  -18.8840  -30.1650   23.9800 C   0  0  0  0  0  3  0  0  0  0  0  0
  -17.5690  -30.6410   24.1380 C   0  0  0  0  0  3  0  0  0  0  0  0
  -16.4810  -29.8500   23.7310 C   0  0  0  0  0  3  0  0  0  0  0  0
  -16.7110  -28.5870   23.1580 C   0  0  0  0  0  3  0  0  0  0  0  0
  -25.8770  -32.5940   23.8570 C   0  0  0  0  0  3  0  0  0  0  0  0
  -26.3860  -31.8480   25.1530 C   0  0  1  0  0  0  0  0  0  0  0  0
  -25.2860  -31.6330   26.2190 C   0  0  0  0  0  1  0  0  0  0  0  0
  -26.9740  -30.4630   24.8010 C   0  0  0  0  0  1  0  0  0  0  0  0
  -27.5310  -32.6580   25.8080 C   0  0  0  0  0  1  0  0  0  0  0  0
  -25.5570  -33.9980   24.1740 N   0  0  0  0  0  0  0  0  0  0  0  0
  -25.9000  -35.0530   23.4240 C   0  0  0  0  0  0  0  0  0  0  0  0
  -26.5810  -34.9480   22.4010 O   0  0  0  0  0  0  0  0  0  0  0  0
  -24.9510  -34.1520   24.9670 H   0  0  0  0  0  0  0  0  0  0  0  0
  -24.1900  -36.8650   23.0480 C   0  0  0  0  0  1  0  0  0  0  0  0
  -25.4130  -36.4450   23.8780 C   0  0  0  0  0  3  0  0  0  0  0  0
  -27.5360  -37.3200   24.7550 C   0  0  0  0  0  1  0  0  0  0  0  0
  -26.4540  -37.4930   23.7890 N   0  0  0  0  0  0  0  0  0  0  0  0
  -26.0490  -38.4150   23.9260 H   0  0  0  0  0  0  0  0  0  0  0  0
  1  4  1  0
  1 49  1  0
  2  1  1  0
  3  1  1  0
  5  7  1  0
  5  6  1  0
  6  8  1  0
  7  9  1  0
  8 10  1  0
  9 10  1  0
 10 19  1  0
 10  4  1  1
 11 19  1  0
 12 17  1  0
 13 14  1  0
 13 12  1  0
 15 14  1  0
 15 24  1  0
 15 16  1  0
 17 11  1  0
 17 16  1  0
 18 11  2  0
 19 20  1  0
 21 22  2  0
 22 41  1  0
 23 22  1  0
 23 26  1  0
 24 21  1  0
 24 25  1  0
 25 23  2  0
 26 27  1  0
 27 28  2  0
 29 32  1  0
 29 28  1  0
 30 29  2  0
 31 30  1  0
 31 26  2  0
 32 33  1  0
 33 34  1  0
 34 35  2  0
 36 35  1  0
 36 40  1  0
 37 36  2  0
 38 33  2  0
 38 37  1  0
 39 38  1  0
 41 42  1  0
 42 45  1  0
 42 44  1  0
 43 41  2  0
 46 47  1  0
 46 21  1  0
 48 46  1  0
 50 51  1  0
 50 49  1  0
 52 63  2  0
 53 51  1  0
 53 58  1  0
 54 62  1  0
 54 64  1  0
 55 61  1  0
 55 57  1  0
 56 62  1  0
 57 58  2  0
 57 56  1  0
 59 53  2  0
 60 59  1  0
 60 55  2  0
 61 54  1  0
 62 52  1  0
 64 66  2  0
 65 64  1  0
 67 65  1  0
 68 77  2  0
 68 73  1  0
 69 65  1  0
 69 73  1  0
 70 69  1  0
 71 72  1  0
 71 70  1  0
 72 68  1  0
 73 74  2  0
 74 75  1  0
 76 75  2  0
 77 76  1  0
 78 52  1  0
 78 83  1  0
 78 79  1  0
 79 82  1  1
 79 80  1  0
 81 79  1  0
 83 86  1  0
 84 88  1  0
 84 83  1  0
 85 84  2  0
 88 87  1  0
 90 88  1  0
 90 91  1  0
 90 89  1  0
M  ISO  4  11 100  19 100  50 101  51 101
M  END
>  <TORSDO>  (84) 
F 20

>  <SCORE>  (84) 
-16.355

>  <name>  (84) 
84

>  <ligand_id>  (84) 
84

>  <original_smiles>  (84) 
[H]c1c([H])c([H])c2c(c1[H])C([H])([H])C([H])([H])C([H])([H])C2([H])N([H])C(=O)C1([H])N(C(=O)C([H])(N([H])C(=O)C([H])(N([H])C([H])([H])[H])C([H])([H])[H])C(C([H])([H])[H])(C([H])([H])[H])C([H])([H])[H])C([H])([H])c2c([H])c(OC([H])([H])C([H])([H])[N+]([H])([H])C([H])([H])C3(N([H])C(=O)N4C([H])([H])C([H])([H])C([H])([H])C([H])(n5nc(-c6c([H])c([H])c(Oc7c([H])c([H])c(F)c([H])c7F)c([H])c6[H])c(C(=O)N([H])[H])c5N([H])[H])C4([H])[H])C([H])([H])C([H])([H])C([H])([H])C([H])([H])C3([H])[H])c([H])c([H])c2C1([H])[H]

>  <smiles>  (84) 
[H]c1c([H])c([H])c2c(c1[H])C([H])([H])C([H])([H])C([H])([H])C2([H])N([H])C(=O)C1([H])N(C(=O)C([H])(N([H])C(=O)C([H])(N([H])C([H])([H])[H])C([H])([H])[H])C(C([H])([H])[H])(C([H])([H])[H])C([H])([H])[H])C([H])([H])c2c([H])c(OC([H])([H])C([H])([H])[N+]([H])([H])C([H])([H])C3(N([H])C(=O)N4C([H])([H])C([H])([H])C([H])([H])C([H])(n5nc(-c6c([H])c([H])c(Oc7c([H])c([H])c(F)c([H])c7F)c([H])c6[H])c(C(=O)N([H])[H])c5N([H])[H])C4([H])[H])C([H])([H])C([H])([H])C([H])([H])C([H])([H])C3([H])[H])c([H])c([H])c2C1([H])[H]

$$$$
85:0:0
     RDKit          3D

 91 99  0  0  1  0  0  0  0  0999 V2000
  -28.7100  -22.4380   20.4810 N   0  0  0  0  0  4  0  0  0  0  0  0
  -27.7230  -22.3570   20.6840 H   0  0  0  0  0  0  0  0  0  0  0  0
  -28.8220  -22.2530   19.4960 H   0  0  0  0  0  0  0  0  0  0  0  0
  -29.4070  -21.2880   21.2220 C   0  0  0  0  0  3  0  0  0  0  0  0
  -28.9550  -19.8050   20.7750 C   0  0  0  0  0  3  0  0  0  0  0  0
  -29.6020  -18.4060   21.3130 C   0  0  0  0  0  2  0  0  0  0  0  0
  -30.8240  -14.9340   21.2260 C   0  0  0  0  0  0  0  0  0  0  0  0
  -30.8600  -12.5140   20.6100 C   0  0  0  0  0  2  0  0  0  0  0  0
  -30.1220  -12.2320   19.2810 C   0  0  0  0  0  2  0  0  0  0  0  0
  -28.5840  -12.2080   19.4330 C   0  0  0  0  0  2  0  0  0  0  0  0
  -28.0000  -13.2170   20.4600 C   0  0  0  0  0  3  0  0  0  0  0  0
  -28.8820  -13.3640   21.7140 C   0  0  0  0  0  2  0  0  0  0  0  0
  -30.2300  -13.6900   21.2410 N   0  0  0  0  0  0  0  0  0  0  0  0
  -32.0360  -15.0090   21.4460 O   0  0  0  0  0  0  0  0  0  0  0  0
  -28.3800  -16.4020   18.1540 C   0  0  0  0  0  2  0  0  0  0  0  0
  -29.5400  -15.4070   17.9460 C   0  0  0  0  0  2  0  0  0  0  0  0
  -28.2630  -16.9800   19.5840 C   0  0  0  0  0  2  0  0  0  0  0  0
  -30.7560  -15.6110   18.8850 C   0  0  0  0  0  2  0  0  0  0  0  0
  -29.6380  -17.2370   20.2160 C   0  0  0  0  0  3  0  0  0  0  0  0
  -30.3090  -15.8390   20.2840 N   0  0  0  0  0  0  0  0  0  0  0  0
  -25.5080  -13.7780   20.7950 C   0  0  0  0  0  0  0  0  0  0  0  0
  -24.4190  -12.9890   21.0340 C   0  0  0  0  0  0  0  0  0  0  0  0
  -24.9150  -11.6600   21.1520 C   0  0  0  0  0  0  0  0  0  0  0  0
  -26.6040  -12.9250   20.7740 N   0  0  0  0  0  0  0  0  0  0  0  0
  -26.2400  -11.6500   21.0640 N   0  0  0  0  0  0  0  0  0  0  0  0
  -24.1980  -10.3880   21.2800 C   0  0  0  0  0  0  0  0  0  0  0  0
  -24.5430   -9.4470   22.2730 C   0  0  0  0  0  3  0  0  0  0  0  0
  -23.8230   -8.2380   22.3910 C   0  0  0  0  0  3  0  0  0  0  0  0
  -22.7460   -7.9660   21.5150 C   0  0  0  0  0  0  0  0  0  0  0  0
  -22.4220   -8.8970   20.5120 C   0  0  0  0  0  3  0  0  0  0  0  0
  -23.1440  -10.0960   20.3930 C   0  0  0  0  0  3  0  0  0  0  0  0
  -21.9980   -6.8120   21.5450 O   0  0  0  0  0  0  0  0  0  0  0  0
  -21.8830   -6.0580   22.6840 C   0  0  0  0  0  0  0  0  0  0  0  0
  -21.3820   -6.6020   23.8890 C   0  0  0  0  0  3  0  0  0  0  0  0
  -21.2190   -5.7740   25.0190 C   0  0  0  0  0  3  0  0  0  0  0  0
  -21.5420   -4.4050   24.9440 C   0  0  0  0  0  0  0  0  0  0  0  0
  -22.0330   -3.8600   23.7450 C   0  0  0  0  0  3  0  0  0  0  0  0
  -22.2020   -4.6860   22.6180 C   0  0  0  0  0  0  0  0  0  0  0  0
  -22.6580   -4.1540   21.4600 F   0  0  0  0  0  0  0  0  0  0  0  0
  -21.3730   -3.6100   26.0260 F   0  0  0  0  0  0  0  0  0  0  0  0
  -22.9890  -13.4430   21.0440 C   0  0  0  0  0  0  0  0  0  0  0  0
  -22.1460  -12.7870   21.8370 N   0  0  0  0  0  0  0  0  0  0  0  0
  -22.6240  -14.4180   20.3900 O   0  0  0  0  0  0  0  0  0  0  0  0
  -22.4510  -12.0070   22.4000 H   0  0  0  0  0  0  0  0  0  0  0  0
  -21.1780  -13.0710   21.8850 H   0  0  0  0  0  0  0  0  0  0  0  0
  -25.6210  -15.1380   20.5650 N   0  0  0  0  0  0  0  0  0  0  0  0
  -24.7990  -15.7280   20.5130 H   0  0  0  0  0  0  0  0  0  0  0  0
  -26.4600  -15.5930   20.2310 H   0  0  0  0  0  0  0  0  0  0  0  0
  -29.0860  -23.9100   20.6940 C   0  0  0  0  0  2  0  0  0  0  0  0
  -28.1370  -24.9670   19.9410 C   0  0  0  0  0  2  0  0  0  0  0  0
  -28.3290  -26.4440   20.0250 O   0  0  0  0  0  0  0  0  0  0  0  0
  -24.5250  -31.7780   23.0470 C   0  0  0  0  0  0  0  0  0  0  0  0
  -27.1980  -27.2870   19.9410 C   0  0  0  0  0  0  0  0  0  0  0  0
  -23.3320  -30.3700   21.4030 C   0  0  0  0  0  3  0  0  0  0  0  0
  -24.8030  -28.8680   19.9460 C   0  0  0  0  0  0  0  0  0  0  0  0
  -25.8670  -30.7340   21.2120 C   0  0  0  0  0  2  0  0  0  0  0  0
  -25.9640  -29.3660   20.5470 C   0  0  0  0  0  0  0  0  0  0  0  0
  -27.1610  -28.5870   20.5360 C   0  0  0  0  0  3  0  0  0  0  0  0
  -26.0160  -26.8590   19.2870 C   0  0  0  0  0  3  0  0  0  0  0  0
  -24.8310  -27.6210   19.3030 C   0  0  0  0  0  3  0  0  0  0  0  0
  -23.5490  -29.7180   20.0120 C   0  0  0  0  0  2  0  0  0  0  0  0
  -24.5920  -30.9790   21.9430 N   0  0  0  0  0  0  0  0  0  0  0  0
  -23.4420  -32.0310   23.5950 O   0  0  0  0  0  0  0  0  0  0  0  0
  -22.7010  -29.3300   22.3620 C   0  0  0  0  0  0  0  0  0  0  0  0
  -21.3750  -29.1330   22.2540 N   0  0  0  0  0  0  0  0  0  0  0  0
  -23.4010  -28.7090   23.1660 O   0  0  0  0  0  0  0  0  0  0  0  0
  -20.8670  -29.6860   21.5780 H   0  0  0  0  0  0  0  0  0  0  0  0
  -18.0320  -27.8490   22.7640 C   0  0  0  0  0  0  0  0  0  0  0  0
  -20.5850  -28.1750   23.0280 C   0  0  0  0  0  3  0  0  0  0  0  0
  -20.7230  -26.7450   22.4530 C   0  0  0  0  0  2  0  0  0  0  0  0
  -19.6270  -26.3930   21.4420 C   0  0  0  0  0  2  0  0  0  0  0  0
  -18.2430  -26.5050   22.0880 C   0  0  0  0  0  2  0  0  0  0  0  0
  -19.1330  -28.6400   23.1920 C   0  0  0  0  0  0  0  0  0  0  0  0
  -18.8820  -29.8970   23.7820 C   0  0  0  0  0  3  0  0  0  0  0  0
  -17.5650  -30.3640   23.9530 C   0  0  0  0  0  3  0  0  0  0  0  0
  -16.4800  -29.5710   23.5420 C   0  0  0  0  0  3  0  0  0  0  0  0
  -16.7130  -28.3150   22.9520 C   0  0  0  0  0  3  0  0  0  0  0  0
  -25.8020  -32.4320   23.6600 C   0  0  0  0  0  3  0  0  0  0  0  0
  -25.4600  -33.8110   24.0340 N   0  0  0  0  0  0  0  0  0  0  0  0
  -25.7740  -34.8980   23.3150 C   0  0  0  0  0  0  0  0  0  0  0  0
  -26.4530  -34.8450   22.2860 O   0  0  0  0  0  0  0  0  0  0  0  0
  -24.8590  -33.9250   24.8380 H   0  0  0  0  0  0  0  0  0  0  0  0
  -24.0050  -36.6600   23.0220 C   0  0  0  0  0  1  0  0  0  0  0  0
  -25.2540  -36.2570   23.8190 C   0  0  0  0  0  3  0  0  0  0  0  0
  -27.3690  -37.1580   24.6800 C   0  0  0  0  0  1  0  0  0  0  0  0
  -26.2610  -37.3380   23.7460 N   0  0  0  0  0  0  0  0  0  0  0  0
  -25.8330  -38.2390   23.9360 H   0  0  0  0  0  0  0  0  0  0  0  0
  -26.3700  -31.6460   24.9060 C   0  0  1  0  0  0  0  0  0  0  0  0
  -25.3100  -31.3590   25.9930 C   0  0  0  0  0  1  0  0  0  0  0  0
  -26.9780  -30.2920   24.4720 C   0  0  0  0  0  1  0  0  0  0  0  0
  -27.5130  -32.4570   25.5590 C   0  0  0  0  0  1  0  0  0  0  0  0
  1  2  1  0
  1 49  1  0
  1  4  1  0
  3  1  1  0
  5  4  2  0
  5  6  1  0
  7 13  1  0
  7 14  2  0
  8 13  1  0
  9 10  1  0
  9  8  1  0
 11 10  1  0
 11 24  1  0
 11 12  1  0
 13 12  1  0
 15 17  1  0
 16 15  1  0
 16 18  1  0
 17 19  1  0
 18 20  1  0
 19 20  1  0
 19  6  1  0
 20  7  1  0
 21 22  2  0
 22 41  1  0
 22 23  1  0
 23 26  1  0
 24 21  1  0
 24 25  1  0
 25 23  2  0
 26 27  1  0
 27 28  2  0
 29 32  1  0
 29 28  1  0
 30 29  2  0
 31 30  1  0
 31 26  2  0
 32 33  1  0
 33 34  1  0
 34 35  2  0
 36 35  1  0
 36 40  1  0
 37 36  2  0
 38 33  2  0
 38 37  1  0
 39 38  1  0
 41 42  1  0
 42 45  1  0
 42 44  1  0
 43 41  2  0
 46 21  1  0
 47 46  1  0
 48 46  1  0
 50 51  1  0
 50 49  1  0
 52 63  2  0
 53 51  1  0
 53 58  1  0
 54 62  1  0
 54 64  1  0
 55 61  1  0
 55 57  1  0
 56 62  1  0
 57 56  1  0
 58 57  2  0
 59 60  1  0
 59 53  2  0
 60 55  2  0
 61 54  1  0
 62 52  1  0
 64 66  2  0
 65 64  1  0
 67 65  1  0
 68 77  2  0
 68 73  1  0
 69 65  1  0
 69 73  1  0
 70 69  1  0
 71 72  1  0
 71 70  1  0
 72 68  1  0
 73 74  2  0
 74 75  1  0
 76 75  2  0
 77 76  1  0
 78 52  1  0
 78 79  1  0
 78 88  1  0
 79 82  1  0
 80 84  1  0
 80 79  1  0
 81 80  2  0
 84 83  1  0
 86 84  1  0
 86 87  1  0
 86 85  1  0
 88 91  1  1
 88 89  1  0
 90 88  1  0
M  ISO  4   7 100  20 100  50 101  51 101
M  END
>  <TORSDO>  (85) 
F 21

>  <SCORE>  (85) 
-10.094

>  <name>  (85) 
85

>  <ligand_id>  (85) 
85

>  <original_smiles>  (85) 
[H]c1c([H])c([H])c2c(c1[H])C([H])([H])C([H])([H])C([H])([H])C2([H])N([H])C(=O)C1([H])N(C(=O)C([H])(N([H])C(=O)C([H])(N([H])C([H])([H])[H])C([H])([H])[H])C(C([H])([H])[H])(C([H])([H])[H])C([H])([H])[H])C([H])([H])c2c([H])c(OC([H])([H])C([H])([H])[N+]([H])([H])C([H])([H])C([H])([H])C([H])([H])C3([H])N(C(=O)N4C([H])([H])C([H])([H])C([H])([H])C([H])(n5nc(-c6c([H])c([H])c(Oc7c([H])c([H])c(F)c([H])c7F)c([H])c6[H])c(C(=O)N([H])[H])c5N([H])[H])C4([H])[H])C([H])([H])C([H])([H])C([H])([H])C3([H])[H])c([H])c([H])c2C1([H])[H]

>  <smiles>  (85) 
[H]c1c([H])c([H])c2c(c1[H])C([H])([H])C([H])([H])C([H])([H])C2([H])N([H])C(=O)C1([H])N(C(=O)C([H])(N([H])C(=O)C([H])(N([H])C([H])([H])[H])C([H])([H])[H])C(C([H])([H])[H])(C([H])([H])[H])C([H])([H])[H])C([H])([H])c2c([H])c(OC([H])([H])C([H])([H])[N+]([H])([H])C([H])([H])C([H])([H])C([H])([H])C3([H])N(C(=O)N4C([H])([H])C([H])([H])C([H])([H])C([H])(n5nc(-c6c([H])c([H])c(Oc7c([H])c([H])c(F)c([H])c7F)c([H])c6[H])c(C(=O)N([H])[H])c5N([H])[H])C4([H])[H])C([H])([H])C([H])([H])C([H])([H])C3([H])[H])c([H])c([H])c2C1([H])[H]

$$$$
86:0:0
     RDKit          3D

 92100  0  0  1  0  0  0  0  0999 V2000
  -30.2210  -23.1780   23.1130 C   0  0  0  0  0  2  0  0  0  0  0  0
  -29.4140  -24.4480   22.8230 C   0  0  0  0  0  2  0  0  0  0  0  0
  -29.1510  -24.0710   20.2880 C   0  0  0  0  0  2  0  0  0  0  0  0
  -29.5280  -21.8550   22.7410 C   0  0  0  0  0  2  0  0  0  0  0  0
  -29.6980  -22.6110   20.3200 C   0  0  0  0  0  2  0  0  0  0  0  0
  -29.6340  -25.0310   21.4090 C   0  0  0  0  0  3  0  0  0  0  0  0
  -29.0360  -21.7450   21.3380 N   0  0  1  0  0  4  0  0  0  0  0  0
  -28.0940  -22.1040   21.3780 H   0  0  0  0  0  0  0  0  0  0  0  0
  -28.9990  -26.4520   21.3690 C   0  0  0  0  0  2  0  0  0  0  0  0
  -28.5200  -26.8570   20.0890 O   0  0  0  0  0  0  0  0  0  0  0  0
  -24.5890  -31.9290   23.2620 C   0  0  0  0  0  0  0  0  0  0  0  0
  -27.3580  -27.5990   20.1310 C   0  0  0  0  0  0  0  0  0  0  0  0
  -23.4210  -30.5100   21.6050 C   0  0  0  0  0  3  0  0  0  0  0  0
  -24.9170  -29.0210   20.1690 C   0  0  0  0  0  0  0  0  0  0  0  0
  -25.9330  -30.9370   21.4100 C   0  0  0  0  0  2  0  0  0  0  0  0
  -26.0570  -29.5700   20.7700 C   0  0  0  0  0  0  0  0  0  0  0  0
  -27.2790  -28.8620   20.7630 C   0  0  0  0  0  3  0  0  0  0  0  0
  -26.2070  -27.0640   19.5230 C   0  0  0  0  0  3  0  0  0  0  0  0
  -24.9830  -27.7610   19.5480 C   0  0  0  0  0  3  0  0  0  0  0  0
  -23.6490  -29.8450   20.2200 C   0  0  0  0  0  2  0  0  0  0  0  0
  -24.6660  -31.1390   22.1530 N   0  0  0  0  0  0  0  0  0  0  0  0
  -23.5010  -32.1670   23.8030 O   0  0  0  0  0  0  0  0  0  0  0  0
  -22.7920  -29.4670   22.5560 C   0  0  0  0  0  0  0  0  0  0  0  0
  -21.4710  -29.2630   22.4270 N   0  0  0  0  0  0  0  0  0  0  0  0
  -23.4880  -28.8460   23.3620 O   0  0  0  0  0  0  0  0  0  0  0  0
  -20.9710  -29.8180   21.7460 H   0  0  0  0  0  0  0  0  0  0  0  0
  -18.1170  -28.0200   22.9270 C   0  0  0  0  0  0  0  0  0  0  0  0
  -20.6730  -28.3030   23.1870 C   0  0  0  0  0  3  0  0  0  0  0  0
  -20.7900  -26.8850   22.5810 C   0  0  0  0  0  2  0  0  0  0  0  0
  -19.6840  -26.5680   21.5700 C   0  0  0  0  0  2  0  0  0  0  0  0
  -18.3040  -26.6860   22.2250 C   0  0  0  0  0  2  0  0  0  0  0  0
  -19.2300  -28.7860   23.3640 C   0  0  0  0  0  0  0  0  0  0  0  0
  -19.0020  -30.0370   23.9790 C   0  0  0  0  0  3  0  0  0  0  0  0
  -17.6940  -30.5210   24.1650 C   0  0  0  0  0  3  0  0  0  0  0  0
  -16.5940  -29.7500   23.7470 C   0  0  0  0  0  3  0  0  0  0  0  0
  -16.8070  -28.5020   23.1340 C   0  0  0  0  0  3  0  0  0  0  0  0
  -25.8570  -32.5840   23.8920 C   0  0  0  0  0  3  0  0  0  0  0  0
  -25.5290  -33.9840   24.1960 N   0  0  0  0  0  0  0  0  0  0  0  0
  -25.8670  -35.0280   23.4290 C   0  0  0  0  0  0  0  0  0  0  0  0
  -26.5580  -34.9190   22.4130 O   0  0  0  0  0  0  0  0  0  0  0  0
  -24.9200  -34.1460   24.9860 H   0  0  0  0  0  0  0  0  0  0  0  0
  -24.1250  -36.7940   23.0110 C   0  0  0  0  0  1  0  0  0  0  0  0
  -25.3520  -36.4180   23.8550 C   0  0  0  0  0  3  0  0  0  0  0  0
  -27.4560  -37.3370   24.7230 C   0  0  0  0  0  1  0  0  0  0  0  0
  -26.3760  -37.4790   23.7520 N   0  0  0  0  0  0  0  0  0  0  0  0
  -25.9560  -38.3970   23.8760 H   0  0  0  0  0  0  0  0  0  0  0  0
  -26.3680  -31.8360   25.1820 C   0  0  1  0  0  0  0  0  0  0  0  0
  -25.2640  -31.5950   26.2380 C   0  0  0  0  0  1  0  0  0  0  0  0
  -26.9750  -30.4630   24.8090 C   0  0  0  0  0  1  0  0  0  0  0  0
  -27.4990  -32.6530   25.8510 C   0  0  0  0  0  1  0  0  0  0  0  0
  -28.8110  -20.3330   20.8980 C   0  0  0  0  0  2  0  0  0  0  0  0
  -30.0740  -19.4380   20.8180 C   0  0  0  0  0  2  0  0  0  0  0  0
  -29.7030  -17.9640   20.5550 C   0  0  0  0  0  2  0  0  0  0  0  0
  -30.8390  -16.9860   20.8980 C   0  0  0  0  0  2  0  0  0  0  0  0
  -30.9810  -14.5530   20.3500 C   0  0  0  0  0  0  0  0  0  0  0  0
  -30.6140  -12.3430   19.3290 C   0  0  0  0  0  2  0  0  0  0  0  0
  -29.7060  -12.5370   18.0980 C   0  0  0  0  0  2  0  0  0  0  0  0
  -28.2240  -12.4330   18.5080 C   0  0  0  0  0  2  0  0  0  0  0  0
  -27.8800  -13.3240   19.7360 C   0  0  0  0  0  3  0  0  0  0  0  0
  -28.9240  -13.1790   20.8700 C   0  0  0  0  0  2  0  0  0  0  0  0
  -30.2650  -13.3980   20.2960 N   0  0  0  0  0  0  0  0  0  0  0  0
  -32.0880  -14.6920   19.8310 O   0  0  0  0  0  0  0  0  0  0  0  0
  -30.3540  -15.6010   20.9030 N   0  0  0  0  0  0  0  0  0  0  0  0
  -29.4660  -15.4170   21.3400 H   0  0  0  0  0  0  0  0  0  0  0  0
  -25.4890  -13.9790   20.4340 C   0  0  0  0  0  0  0  0  0  0  0  0
  -24.4090  -13.2290   20.8110 C   0  0  0  0  0  0  0  0  0  0  0  0
  -24.8450  -11.8690   20.7830 C   0  0  0  0  0  0  0  0  0  0  0  0
  -26.5210  -13.0780   20.2130 N   0  0  0  0  0  0  0  0  0  0  0  0
  -26.1340  -11.8040   20.4760 N   0  0  0  0  0  0  0  0  0  0  0  0
  -24.0930  -10.6210   20.9700 C   0  0  0  0  0  0  0  0  0  0  0  0
  -24.4970   -9.6480   21.9090 C   0  0  0  0  0  3  0  0  0  0  0  0
  -23.7440   -8.4660   22.0810 C   0  0  0  0  0  3  0  0  0  0  0  0
  -22.5740   -8.2510   21.3180 C   0  0  0  0  0  0  0  0  0  0  0  0
  -22.1920   -9.2120   20.3630 C   0  0  0  0  0  3  0  0  0  0  0  0
  -22.9440  -10.3830   20.1880 C   0  0  0  0  0  3  0  0  0  0  0  0
  -21.7940   -7.1220   21.4000 O   0  0  0  0  0  0  0  0  0  0  0  0
  -21.7050   -6.3910   22.5580 C   0  0  0  0  0  0  0  0  0  0  0  0
  -21.2520   -6.9640   23.7670 C   0  0  0  0  0  3  0  0  0  0  0  0
  -21.1050   -6.1590   24.9140 C   0  0  0  0  0  3  0  0  0  0  0  0
  -21.4070   -4.7850   24.8560 C   0  0  0  0  0  0  0  0  0  0  0  0
  -21.8580   -4.2140   23.6520 C   0  0  0  0  0  3  0  0  0  0  0  0
  -22.0020   -5.0150   22.5060 C   0  0  0  0  0  0  0  0  0  0  0  0
  -22.4130   -4.4530   21.3430 F   0  0  0  0  0  0  0  0  0  0  0  0
  -21.2630   -4.0130   25.9590 F   0  0  0  0  0  0  0  0  0  0  0  0
  -23.0200  -13.7310   21.0860 C   0  0  0  0  0  0  0  0  0  0  0  0
  -22.2790  -13.0530   21.9540 N   0  0  0  0  0  0  0  0  0  0  0  0
  -22.6040  -14.7650   20.5660 O   0  0  0  0  0  0  0  0  0  0  0  0
  -22.6310  -12.2200   22.4040 H   0  0  0  0  0  0  0  0  0  0  0  0
  -21.3480  -13.3750   22.1770 H   0  0  0  0  0  0  0  0  0  0  0  0
  -25.6750  -15.3460   20.2430 N   0  0  0  0  0  0  0  0  0  0  0  0
  -24.9120  -16.0050   20.3500 H   0  0  0  0  0  0  0  0  0  0  0  0
  -26.5310  -15.7820   19.9240 H   0  0  0  0  0  0  0  0  0  0  0  0
  2  1  1  0
  3  5  1  0
  3  6  1  0
  4  1  1  0
  5  7  1  0
  6  9  1  0
  6  2  1  0
  7  8  1  1
  7  4  1  0
 10 12  1  0
 10  9  1  0
 11 22  2  0
 12 17  1  0
 13 21  1  0
 13 23  1  0
 14 20  1  0
 14 16  1  0
 15 21  1  0
 16 15  1  0
 17 16  2  0
 18 19  1  0
 18 12  2  0
 19 14  2  0
 20 13  1  0
 21 11  1  0
 23 25  2  0
 24 23  1  0
 26 24  1  0
 27 36  2  0
 27 32  1  0
 28 24  1  0
 28 32  1  0
 29 28  1  0
 30 31  1  0
 30 29  1  0
 31 27  1  0
 32 33  2  0
 33 34  1  0
 35 34  2  0
 36 35  1  0
 37 11  1  0
 37 38  1  0
 37 47  1  0
 38 41  1  0
 39 43  1  0
 39 38  1  0
 40 39  2  0
 43 42  1  0
 45 43  1  0
 45 46  1  0
 45 44  1  0
 47 50  1  1
 47 48  1  0
 49 47  1  0
 51  7  1  0
 52 51  1  0
 53 52  1  0
 53 54  1  0
 54 63  1  0
 55 63  1  0
 56 61  1  0
 57 58  1  0
 57 56  1  0
 59 58  1  0
 59 68  1  0
 59 60  1  0
 61 55  1  0
 61 60  1  0
 62 55  2  0
 63 64  1  0
 65 66  2  0
 66 85  1  0
 67 66  1  0
 67 70  1  0
 68 65  1  0
 68 69  1  0
 69 67  2  0
 70 71  1  0
 71 72  2  0
 73 76  1  0
 73 72  1  0
 74 73  2  0
 75 74  1  0
 75 70  2  0
 76 77  1  0
 77 78  1  0
 78 79  2  0
 80 79  1  0
 80 84  1  0
 81 80  2  0
 82 77  2  0
 82 81  1  0
 83 82  1  0
 85 86  1  0
 86 89  1  0
 86 88  1  0
 87 85  2  0
 90 91  1  0
 90 65  1  0
 92 90  1  0
M  ISO  4   9 101  10 101  55 100  63 100
M  END
>  <TORSDO>  (86) 
F 21

>  <SCORE>  (86) 
-13.481

>  <name>  (86) 
86

>  <ligand_id>  (86) 
86

>  <original_smiles>  (86) 
[H]c1c([H])c([H])c2c(c1[H])C([H])([H])C([H])([H])C([H])([H])C2([H])N([H])C(=O)C1([H])N(C(=O)C([H])(N([H])C(=O)C([H])(N([H])C([H])([H])[H])C([H])([H])[H])C(C([H])([H])[H])(C([H])([H])[H])C([H])([H])[H])C([H])([H])c2c([H])c(OC([H])([H])C3([H])C([H])([H])C([H])([H])C([H])([H])[N+]([H])(C([H])([H])C([H])([H])C([H])([H])C([H])([H])N([H])C(=O)N4C([H])([H])C([H])([H])C([H])([H])C([H])(n5nc(-c6c([H])c([H])c(Oc7c([H])c([H])c(F)c([H])c7F)c([H])c6[H])c(C(=O)N([H])[H])c5N([H])[H])C4([H])[H])C([H])([H])C3([H])[H])c([H])c([H])c2C1([H])[H]

>  <smiles>  (86) 
[H]c1c([H])c([H])c2c(c1[H])C([H])([H])C([H])([H])C([H])([H])C2([H])N([H])C(=O)C1([H])N(C(=O)C([H])(N([H])C(=O)C([H])(N([H])C([H])([H])[H])C([H])([H])[H])C(C([H])([H])[H])(C([H])([H])[H])C([H])([H])[H])C([H])([H])c2c([H])c(OC([H])([H])C3([H])C([H])([H])C([H])([H])C([H])([H])[N+]([H])(C([H])([H])C([H])([H])C([H])([H])C([H])([H])N([H])C(=O)N4C([H])([H])C([H])([H])C([H])([H])C([H])(n5nc(-c6c([H])c([H])c(Oc7c([H])c([H])c(F)c([H])c7F)c([H])c6[H])c(C(=O)N([H])[H])c5N([H])[H])C4([H])[H])C([H])([H])C3([H])[H])c([H])c([H])c2C1([H])[H]

$$$$
87:0:0
     RDKit          3D

 97105  0  0  1  0  0  0  0  0999 V2000
  -31.7270  -18.7380   18.4800 C   0  0  0  0  0  2  0  0  0  0  0  0
  -30.8610  -17.4730   18.7310 C   0  0  0  0  0  2  0  0  0  0  0  0
  -31.8060  -19.2520   21.0380 C   0  0  0  0  0  2  0  0  0  0  0  0
  -32.6030  -19.1770   19.6910 C   0  0  0  0  0  3  0  0  0  0  0  0
  -30.3690  -18.6430   20.9770 C   0  0  0  0  0  3  0  0  0  0  0  0
  -30.6200  -17.2290   20.2320 C   0  0  0  0  0  3  0  0  0  0  0  0
  -30.6590  -14.6690   20.4100 C   0  0  0  0  0  0  0  0  0  0  0  0
  -30.3560  -12.4220   19.4030 C   0  0  0  0  0  2  0  0  0  0  0  0
  -29.4440  -12.5360   18.1670 C   0  0  0  0  0  2  0  0  0  0  0  0
  -27.9690  -12.3880   18.5860 C   0  0  0  0  0  2  0  0  0  0  0  0
  -27.5970  -13.2770   19.8030 C   0  0  0  0  0  3  0  0  0  0  0  0
  -28.6470  -13.1920   20.9340 C   0  0  0  0  0  2  0  0  0  0  0  0
  -29.9540  -13.4930   20.3430 N   0  0  0  0  0  0  0  0  0  0  0  0
  -31.8510  -14.6730   20.0980 O   0  0  0  0  0  0  0  0  0  0  0  0
  -30.0010  -15.8780   20.5720 N   0  0  0  0  0  0  0  0  0  0  0  0
  -29.0150  -15.8480   20.7840 H   0  0  0  0  0  0  0  0  0  0  0  0
  -25.2030  -13.8680   20.5100 C   0  0  0  0  0  0  0  0  0  0  0  0
  -24.1340  -13.0940   20.8740 C   0  0  0  0  0  0  0  0  0  0  0  0
  -24.5990  -11.7430   20.8500 C   0  0  0  0  0  0  0  0  0  0  0  0
  -26.2490  -12.9890   20.2850 N   0  0  0  0  0  0  0  0  0  0  0  0
  -25.8920  -11.7060   20.5530 N   0  0  0  0  0  0  0  0  0  0  0  0
  -23.8700  -10.4810   21.0350 C   0  0  0  0  0  0  0  0  0  0  0  0
  -24.2890   -9.5130   21.9750 C   0  0  0  0  0  3  0  0  0  0  0  0
  -23.5590   -8.3180   22.1490 C   0  0  0  0  0  3  0  0  0  0  0  0
  -22.3940   -8.0810   21.3820 C   0  0  0  0  0  0  0  0  0  0  0  0
  -21.9930   -9.0360   20.4310 C   0  0  0  0  0  3  0  0  0  0  0  0
  -22.7240  -10.2220   20.2550 C   0  0  0  0  0  3  0  0  0  0  0  0
  -21.6380   -6.9360   21.4650 O   0  0  0  0  0  0  0  0  0  0  0  0
  -21.5690   -6.2000   22.6200 C   0  0  0  0  0  0  0  0  0  0  0  0
  -21.1260   -6.7610   23.8380 C   0  0  0  0  0  3  0  0  0  0  0  0
  -21.0060   -5.9500   24.9840 C   0  0  0  0  0  3  0  0  0  0  0  0
  -21.3190   -4.5800   24.9140 C   0  0  0  0  0  0  0  0  0  0  0  0
  -21.7570   -4.0180   23.7010 C   0  0  0  0  0  3  0  0  0  0  0  0
  -21.8780   -4.8260   22.5570 C   0  0  0  0  0  0  0  0  0  0  0  0
  -22.2800   -4.2750   21.3850 F   0  0  0  0  0  0  0  0  0  0  0  0
  -21.1980   -3.7990   26.0120 F   0  0  0  0  0  0  0  0  0  0  0  0
  -22.7340  -13.5720   21.1280 C   0  0  0  0  0  0  0  0  0  0  0  0
  -21.9950  -12.8760   21.9850 N   0  0  0  0  0  0  0  0  0  0  0  0
  -22.3030  -14.5980   20.6030 O   0  0  0  0  0  0  0  0  0  0  0  0
  -22.3570  -12.0480   22.4340 H   0  0  0  0  0  0  0  0  0  0  0  0
  -21.0550  -13.1770   22.1970 H   0  0  0  0  0  0  0  0  0  0  0  0
  -25.3690  -15.2370   20.3300 N   0  0  0  0  0  0  0  0  0  0  0  0
  -24.6000  -15.8910   20.4340 H   0  0  0  0  0  0  0  0  0  0  0  0
  -26.2170  -15.6760   19.9960 H   0  0  0  0  0  0  0  0  0  0  0  0
  -29.3360  -19.7660   20.4210 C   0  0  0  0  0  3  0  0  0  0  0  0
  -29.6140  -21.3230   20.7640 C   0  0  0  0  0  3  0  0  0  0  0  0
  -28.6520  -22.4050   20.2950 N   0  0  0  0  0  4  0  0  0  0  0  0
  -28.5240  -22.2930   19.3010 H   0  0  0  0  0  0  0  0  0  0  0  0
  -27.7570  -22.2270   20.7240 H   0  0  0  0  0  0  0  0  0  0  0  0
  -29.0380  -23.8650   20.5680 C   0  0  0  0  0  3  0  0  0  0  0  0
  -28.0170  -24.9880   20.0700 C   0  0  0  0  0  3  0  0  0  0  0  0
  -28.2740  -26.4380   20.3020 O   0  0  0  0  0  0  0  0  0  0  0  0
  -24.5940  -31.8950   23.2870 C   0  0  0  0  0  0  0  0  0  0  0  0
  -27.1760  -27.3160   20.2280 C   0  0  0  0  0  0  0  0  0  0  0  0
  -23.3830  -30.5030   21.6490 C   0  0  0  0  0  3  0  0  0  0  0  0
  -24.8250  -28.9540   20.2190 C   0  0  0  0  0  0  0  0  0  0  0  0
  -25.9260  -30.8080   21.4660 C   0  0  0  0  0  2  0  0  0  0  0  0
  -25.9970  -29.4300   20.8170 C   0  0  0  0  0  0  0  0  0  0  0  0
  -27.1770  -28.6240   20.8140 C   0  0  0  0  0  3  0  0  0  0  0  0
  -25.9800  -26.9070   19.5910 C   0  0  0  0  0  3  0  0  0  0  0  0
  -24.8200  -27.6990   19.5960 C   0  0  0  0  0  3  0  0  0  0  0  0
  -23.5930  -29.8320   20.2670 C   0  0  0  0  0  2  0  0  0  0  0  0
  -24.6530  -31.0860   22.1900 N   0  0  0  0  0  0  0  0  0  0  0  0
  -23.5120  -32.1760   23.8220 O   0  0  0  0  0  0  0  0  0  0  0  0
  -22.7190  -29.4860   22.6080 C   0  0  0  0  0  0  0  0  0  0  0  0
  -21.3940  -29.3030   22.4730 N   0  0  0  0  0  0  0  0  0  0  0  0
  -23.3930  -28.8670   23.4340 O   0  0  0  0  0  0  0  0  0  0  0  0
  -20.9090  -29.8530   21.7780 H   0  0  0  0  0  0  0  0  0  0  0  0
  -18.0170  -28.0950   22.9490 C   0  0  0  0  0  0  0  0  0  0  0  0
  -20.5720  -28.3680   23.2430 C   0  0  0  0  0  3  0  0  0  0  0  0
  -20.6860  -26.9320   22.6820 C   0  0  0  0  0  2  0  0  0  0  0  0
  -19.5960  -26.5940   21.6600 C   0  0  0  0  0  2  0  0  0  0  0  0
  -18.2070  -26.7410   22.2870 C   0  0  0  0  0  2  0  0  0  0  0  0
  -19.1280  -28.8650   23.3840 C   0  0  0  0  0  0  0  0  0  0  0  0
  -18.8970  -30.1330   23.9610 C   0  0  0  0  0  3  0  0  0  0  0  0
  -17.5880  -30.6290   24.1080 C   0  0  0  0  0  3  0  0  0  0  0  0
  -16.4920  -29.8550   23.6890 C   0  0  0  0  0  3  0  0  0  0  0  0
  -16.7070  -28.5890   23.1150 C   0  0  0  0  0  3  0  0  0  0  0  0
  -25.8800  -32.5230   23.9070 C   0  0  0  0  0  3  0  0  0  0  0  0
  -25.5790  -33.9260   24.2260 N   0  0  0  0  0  0  0  0  0  0  0  0
  -25.9120  -34.9700   23.4550 C   0  0  0  0  0  0  0  0  0  0  0  0
  -26.5760  -34.8540   22.4210 O   0  0  0  0  0  0  0  0  0  0  0  0
  -24.9890  -34.0910   25.0280 H   0  0  0  0  0  0  0  0  0  0  0  0
  -24.1890  -36.7670   23.0990 C   0  0  0  0  0  1  0  0  0  0  0  0
  -25.4340  -36.3650   23.9040 C   0  0  0  0  0  3  0  0  0  0  0  0
  -27.5800  -37.2490   24.7090 C   0  0  0  0  0  1  0  0  0  0  0  0
  -26.4710  -37.4130   23.7710 N   0  0  0  0  0  0  0  0  0  0  0  0
  -26.0710  -38.3360   23.9120 H   0  0  0  0  0  0  0  0  0  0  0  0
  -26.3850  -31.7590   25.1920 C   0  0  1  0  0  0  0  0  0  0  0  0
  -25.2860  -31.5380   26.2570 C   0  0  0  0  0  1  0  0  0  0  0  0
  -26.9600  -30.3740   24.8150 C   0  0  0  0  0  1  0  0  0  0  0  0
  -27.5390  -32.5500   25.8510 C   0  0  0  0  0  1  0  0  0  0  0  0
  -33.3830  -20.4870   19.4180 C   0  0  0  0  0  2  0  0  0  0  0  0
  -34.3280  -20.3740   18.2930 N   0  0  0  0  0  4  0  0  0  0  0  0
  -33.8400  -20.2220   17.4280 H   0  0  0  0  0  0  0  0  0  0  0  0
  -34.9800  -19.6250   18.4380 H   0  0  0  0  0  0  0  0  0  0  0  0
  -34.8510  -21.2280   18.2040 H   0  0  0  0  0  0  0  0  0  0  0  0
  1  2  1  0
  1  4  1  0
  2  6  1  0
  4 93  1  0
  4  3  1  0
  5 45  1  0
  5  3  1  0
  6 15  1  0
  6  5  1  0
  7 15  1  0
  8 13  1  0
  9 10  1  0
  9  8  1  0
 11 10  1  0
 11 20  1  0
 11 12  1  0
 13  7  1  0
 13 12  1  0
 14  7  2  0
 15 16  1  0
 17 18  2  0
 18 37  1  0
 19 18  1  0
 19 22  1  0
 20 17  1  0
 20 21  1  0
 21 19  2  0
 22 23  1  0
 23 24  2  0
 25 28  1  0
 25 24  1  0
 26 25  2  0
 27 26  1  0
 27 22  2  0
 28 29  1  0
 29 30  1  0
 30 31  2  0
 32 31  1  0
 32 36  1  0
 33 32  2  0
 34 29  2  0
 34 33  1  0
 35 34  1  0
 37 38  1  0
 38 41  1  0
 38 40  1  0
 39 37  2  0
 42 43  1  0
 42 17  1  0
 44 42  1  0
 45 46  2  0
 47 50  1  0
 47 49  1  0
 47 46  1  0
 48 47  1  0
 51 52  1  0
 51 50  2  0
 53 64  2  0
 54 52  1  0
 54 59  1  0
 55 63  1  0
 55 65  1  0
 56 62  1  0
 56 58  1  0
 57 63  1  0
 58 57  1  0
 59 58  2  0
 60 61  1  0
 60 54  2  0
 61 56  2  0
 62 55  1  0
 63 53  1  0
 65 67  2  0
 66 65  1  0
 68 66  1  0
 69 78  2  0
 69 74  1  0
 70 66  1  0
 70 74  1  0
 71 70  1  0
 72 73  1  0
 72 71  1  0
 73 69  1  0
 74 75  2  0
 75 76  1  0
 77 76  2  0
 78 77  1  0
 79 53  1  0
 79 80  1  0
 79 89  1  0
 80 83  1  0
 81 85  1  0
 81 80  1  0
 82 81  2  0
 85 84  1  0
 87 85  1  0
 87 88  1  0
 87 86  1  0
 89 92  1  1
 89 90  1  0
 91 89  1  0
 94 96  1  0
 94 93  1  0
 95 94  1  0
 97 94  1  0
M  ISO  4   7 100  15 100  51 101  52 101
M  END
>  <TORSDO>  (87) 
F 23

>  <SCORE>  (87) 
-13.029

>  <name>  (87) 
87

>  <ligand_id>  (87) 
87

>  <original_smiles>  (87) 
[H]c1c([H])c([H])c2c(c1[H])C([H])([H])C([H])([H])C([H])([H])C2([H])N([H])C(=O)C1([H])N(C(=O)C([H])(N([H])C(=O)C([H])(N([H])C([H])([H])[H])C([H])([H])[H])C(C([H])([H])[H])(C([H])([H])[H])C([H])([H])[H])C([H])([H])c2c([H])c(OC([H])([H])C([H])([H])[N+]([H])([H])C([H])([H])C([H])([H])C3([H])C([H])([H])C([H])(C([H])([H])[N+]([H])([H])[H])C([H])([H])C([H])([H])C3([H])N([H])C(=O)N3C([H])([H])C([H])([H])C([H])([H])C([H])(n4nc(-c5c([H])c([H])c(Oc6c([H])c([H])c(F)c([H])c6F)c([H])c5[H])c(C(=O)N([H])[H])c4N([H])[H])C3([H])[H])c([H])c([H])c2C1([H])[H]

>  <smiles>  (87) 
[H]c1c([H])c([H])c2c(c1[H])C([H])([H])C([H])([H])C([H])([H])C2([H])N([H])C(=O)C1([H])N(C(=O)C([H])(N([H])C(=O)C([H])(N([H])C([H])([H])[H])C([H])([H])[H])C(C([H])([H])[H])(C([H])([H])[H])C([H])([H])[H])C([H])([H])c2c([H])c(OC([H])([H])C([H])([H])[N+]([H])([H])C([H])([H])C([H])([H])C3([H])C([H])([H])C([H])(C([H])([H])[N+]([H])([H])[H])C([H])([H])C([H])([H])C3([H])N([H])C(=O)N3C([H])([H])C([H])([H])C([H])([H])C([H])(n4nc(-c5c([H])c([H])c(Oc6c([H])c([H])c(F)c([H])c6F)c([H])c5[H])c(C(=O)N([H])[H])c4N([H])[H])C3([H])[H])c([H])c([H])c2C1([H])[H]

$$$$
88:0:0
     RDKit          3D

 91 93  0  0  1  0  0  0  0  0999 V2000
  -21.2150  -25.5370   22.3710 C   0  0  0  0  0  3  0  0  0  0  0  0
  -22.8470  -24.8670   22.4750 C   0  0  0  0  0  2  0  0  0  0  0  0
  -20.0660  -27.5660   20.6730 C   0  0  0  0  0  2  0  0  0  0  0  0
  -23.2220  -26.4860   23.4740 C   0  0  0  0  0  1  0  0  0  0  0  0
  -22.6120  -28.5030   23.4150 C   0  0  0  0  0 15  0  0  0  0  0  0
  -21.5650  -29.6860   21.8600 C   0  0  0  0  0  1  0  0  0  0  0  0
  -20.9360  -28.9450   20.2860 N   0  0  1  0  0  4  0  0  0  0  0  0
  -20.2790  -29.6000   19.8830 H   0  0  0  0  0  0  0  0  0  0  0  0
  -24.2850  -22.7910   22.0810 C   0  0  0  0  0 15  0  0  0  0  0  0
  -26.2670  -21.0570   21.2600 C   0  0  0  0  0 15  0  0  0  0  0  0
  -28.9880  -17.6910   20.3650 C   0  0  0  0  0  2  0  0  0  0  0  0
  -30.4810  -15.1720   19.2340 C   0  0  0  0  0  2  0  0  0  0  0  0
  -30.1250  -14.0100   18.1370 C   0  0  0  0  0  2  0  0  0  0  0  0
  -28.9470  -13.1390   18.5600 C   0  0  0  0  0  2  0  0  0  0  0  0
  -28.1380  -14.0860   19.4360 C   0  0  0  0  0  3  0  0  0  0  0  0
  -28.8470  -14.7930   20.6190 C   0  0  0  0  0  2  0  0  0  0  0  0
  -29.3100  -16.0860   20.0460 N   0  0  0  0  0  0  0  0  0  0  0  0
  -30.2750  -17.7910   20.0750 O   0  0  0  0  0  1  0  0  0  0  0  0
  -27.5890  -19.0640   20.8090 N   0  0  0  0  0  1  0  0  0  0  0  0
  -28.3930  -19.6800   20.7700 H   0  0  0  0  0  0  0  0  0  0  0  0
  -25.9110  -14.5080   20.3030 C   0  0  0  0  0  0  0  0  0  0  0  0
  -24.9250  -13.6970   20.7410 C   0  0  0  0  0  0  0  0  0  0  0  0
  -25.4150  -12.3590   20.6000 C   0  0  0  0  0  0  0  0  0  0  0  0
  -26.9060  -13.6460   19.9190 N   0  0  0  0  0  0  0  0  0  0  0  0
  -26.6630  -12.3470   20.1610 N   0  0  0  0  0  0  0  0  0  0  0  0
  -24.7330  -11.0890   20.7830 C   0  0  0  0  0  0  0  0  0  0  0  0
  -25.1350  -10.1680   21.7720 C   0  0  0  0  0  3  0  0  0  0  0  0
  -24.4320   -8.9570   21.9340 C   0  0  0  0  0  3  0  0  0  0  0  0
  -23.3210   -8.6690   21.1070 C   0  0  0  0  0  0  0  0  0  0  0  0
  -22.9470   -9.5810   20.1050 C   0  0  0  0  0  3  0  0  0  0  0  0
  -23.6500  -10.7820   19.9400 C   0  0  0  0  0  3  0  0  0  0  0  0
  -22.5880   -7.5120   21.1780 O   0  0  0  0  0  0  0  0  0  0  0  0
  -22.2560   -6.9500   22.3820 C   0  0  0  0  0  0  0  0  0  0  0  0
  -21.5770   -7.6760   23.3840 C   0  0  0  0  0  3  0  0  0  0  0  0
  -21.1950   -7.0360   24.5780 C   0  0  0  0  0  3  0  0  0  0  0  0
  -21.4830   -5.6710   24.7690 C   0  0  0  0  0  0  0  0  0  0  0  0
  -22.1570   -4.9460   23.7710 C   0  0  0  0  0  3  0  0  0  0  0  0
  -22.5410   -5.5840   22.5790 C   0  0  0  0  0  0  0  0  0  0  0  0
  -23.1720   -4.8780   21.6100 F   0  0  0  0  0  0  0  0  0  0  0  0
  -21.1070   -5.0520   25.9120 F   0  0  0  0  0  0  0  0  0  0  0  0
  -23.5720  -14.1600   21.1580 C   0  0  0  0  0  0  0  0  0  0  0  0
  -22.9500  -13.4470   22.0850 N   0  0  0  0  0  0  0  0  0  0  0  0
  -23.0890  -15.1950   20.7000 O   0  0  0  0  0  0  0  0  0  0  0  0
  -23.3690  -12.6140   22.4700 H   0  0  0  0  0  0  0  0  0  0  0  0
  -22.0400  -13.7360   22.4160 H   0  0  0  0  0  0  0  0  0  0  0  0
  -26.0470  -15.8930   20.1850 N   0  0  0  0  0  0  0  0  0  0  0  0
  -25.2760  -16.5210   20.3810 H   0  0  0  0  0  0  0  0  0  0  0  0
  -26.7960  -16.3320   19.6660 H   0  0  0  0  0  0  0  0  0  0  0  0
  -21.9220  -28.2850   18.9520 C   0  0  0  0  0  2  0  0  0  0  0  0
  -23.4540  -27.0710   18.7900 C   0  0  0  0  0  2  0  0  0  0  0  0
  -25.1350  -26.9630   19.0370 O   0  0  0  0  0  0  0  0  0  0  0  0
  -25.5230  -30.9530   23.1040 C   0  0  0  0  0  0  0  0  0  0  0  0
  -26.1780  -27.5480   18.3530 C   0  0  0  0  0  3  0  0  0  0  0  0
  -24.0230  -30.0690   21.3720 C   0  0  0  0  0  3  0  0  0  0  0  0
  -24.9010  -29.7580   19.0430 C   0  0  0  0  0  3  0  0  0  0  0  0
  -26.4620  -30.3690   20.8680 C   0  0  0  0  0  2  0  0  0  0  0  0
  -26.1160  -29.5010   19.6720 C   0  0  0  0  0  3  0  0  0  0  0  0
  -26.8770  -28.4110   19.2280 C   0  0  0  0  0  2  0  0  0  0  0  0
  -25.4530  -28.1140   17.3370 C   0  0  0  0  0  2  0  0  0  0  0  0
  -24.6590  -29.2060   17.7590 C   0  0  0  0  0  2  0  0  0  0  0  0
  -23.9890  -30.5970   19.8910 C   0  0  0  0  0  2  0  0  0  0  0  0
  -25.3350  -30.5580   21.8250 N   0  0  0  0  0  0  0  0  0  0  0  0
  -24.5800  -31.1040   23.8960 O   0  0  0  0  0  0  0  0  0  0  0  0
  -24.1780  -28.4880   21.7350 C   0  0  0  0  0  0  0  0  0  0  0  0
  -23.4930  -27.3220   21.4490 N   0  0  0  0  0  0  0  0  0  0  0  0
  -24.7330  -28.1740   22.7500 O   0  0  0  0  0  0  0  0  0  0  0  0
  -24.0960  -26.6230   21.8610 H   0  0  0  0  0  0  0  0  0  0  0  0
  -18.5550  -26.8830   21.9190 C   0  0  0  0  0  3  0  0  0  0  0  0
  -22.0690  -26.5760   21.2500 C   0  0  0  0  0  2  0  0  0  0  0  0
  -21.5340  -25.8110   19.3860 C   0  0  0  0  0  1  0  0  0  0  0  0
  -19.6100  -25.5390   19.2020 C   0  0  0  0  0  3  0  0  0  0  0  0
  -18.3690  -25.9460   20.5250 C   0  0  0  0  0  3  0  0  0  0  0  0
  -19.9890  -27.0300   22.5160 C   0  0  1  0  0  0  0  0  0  0  0  0
  -19.5920  -28.1530   23.5530 C   0  0  0  0  0  2  0  0  0  0  0  0
  -18.5440  -29.1770   23.6370 C   0  0  0  0  0  3  0  0  0  0  0  0
  -17.3870  -29.0130   22.8960 C   0  0  0  0  0  3  0  0  0  0  0  0
  -17.4120  -27.8270   22.1190 C   0  0  0  0  0  2  0  0  0  0  0  0
  -26.9710  -31.1950   23.5980 C   0  0  0  0  0  3  0  0  0  0  0  0
  -27.5640  -29.9980   24.4390 C   0  0  1  0  0  0  0  0  0  0  0  0
  -26.6180  -29.5030   25.5560 C   0  0  0  0  0  1  0  0  0  0  0  0
  -27.9570  -28.7820   23.5640 C   0  0  0  0  0  1  0  0  0  0  0  0
  -28.8920  -30.4490   25.0840 C   0  0  0  0  0  1  0  0  0  0  0  0
  -26.9420  -32.4330   24.3730 N   0  0  0  0  0  0  0  0  0  0  0  0
  -27.2750  -33.6300   23.8790 C   0  0  0  0  0  0  0  0  0  0  0  0
  -27.7060  -33.7870   22.7330 O   0  0  0  0  0  0  0  0  0  0  0  0
  -26.5480  -32.3850   25.3020 H   0  0  0  0  0  0  0  0  0  0  0  0
  -25.8460  -35.6240   24.4200 C   0  0  0  0  0  1  0  0  0  0  0  0
  -27.1100  -34.8420   24.8090 C   0  0  0  0  0  3  0  0  0  0  0  0
  -29.4700  -35.1440   25.4060 C   0  0  0  0  0  1  0  0  0  0  0  0
  -28.2810  -35.7430   24.8040 N   0  0  0  0  0  0  0  0  0  0  0  0
  -28.0750  -36.6060   25.2990 H   0  0  0  0  0  0  0  0  0  0  0  0
  1  2  1  0
  1 73  1  0
  2  4  1  0
  7  3  1  0
  7  6  1  0
  7  8  1  6
 12 17  1  0
 13 14  1  0
 13 12  1  0
 15 14  1  0
 15 24  1  0
 15 16  1  0
 17 11  1  0
 17 16  1  0
 18 11  1  0
 20 19  1  0
 21 22  2  0
 22 41  1  0
 23 22  1  0
 23 26  1  0
 24 25  1  0
 24 21  1  0
 25 23  2  0
 26 27  1  0
 27 28  2  0
 29 32  1  0
 29 28  1  0
 30 29  2  0
 31 30  1  0
 31 26  2  0
 32 33  1  0
 33 38  2  0
 33 34  1  0
 34 35  2  0
 35 36  1  0
 36 40  1  0
 37 36  2  0
 38 37  1  0
 39 38  1  0
 41 42  1  0
 42 45  1  0
 42 44  1  0
 43 41  2  0
 46 21  1  0
 46 47  1  0
 48 46  1  0
 49  7  1  0
 50 49  1  0
 50 51  1  0
 52 63  2  0
 53 59  1  0
 53 51  1  0
 53 58  1  0
 54 61  1  0
 54 64  1  0
 54 62  1  0
 55 60  1  0
 55 57  1  0
 55 61  1  0
 56 62  1  0
 57 58  1  0
 57 56  1  0
 59 60  1  0
 62 52  1  0
 64 66  2  0
 65 64  1  0
 65 67  1  0
 68 72  1  0
 68 77  1  0
 68 73  1  0
 69 65  1  0
 69  1  1  0
 71 70  1  0
 71 72  2  0
 73  3  1  6
 73 74  1  0
 74 75  1  0
 76 75  2  0
 77 76  1  0
 78 52  1  0
 78 83  1  0
 78 79  1  0
 79 82  1  1
 79 80  1  0
 81 79  1  0
 83 86  1  0
 84 83  1  0
 84 88  1  0
 85 84  2  0
 88 87  1  0
 90 88  1  0
 90 91  1  0
 90 89  1  0
M  ISO  4  11 100  19 100  50 101  51 101
M  END
>  <TORSDO>  (88) 
F 20

>  <SCORE>  (88) 
-4.258

>  <name>  (88) 
88

>  <ligand_id>  (88) 
88

>  <original_smiles>  (88) 
[H]C1=C(C([H])([H])C([H])([H])N([H])C(=O)N2C([H])([H])C([H])([H])C([H])([H])C([H])(n3nc(-c4c([H])c([H])c(Oc5c([H])c([H])c(F)c([H])c5F)c([H])c4[H])c(C(=O)N([H])[H])c3N([H])[H])C2([H])[H])C([H])([H])C([H])([H])C([H])([H])[N+]([H])(C([H])([H])C([H])([H])Oc2c([H])c([H])c3c(c2[H])C([H])([H])N(C(=O)C([H])(N([H])C(=O)C([H])(N([H])C([H])([H])[H])C([H])([H])[H])C(C([H])([H])[H])(C([H])([H])[H])C([H])([H])[H])C([H])(C(=O)N([H])C2([H])c4c([H])c([H])c([H])c([H])c4C([H])([H])C([H])([H])C2([H])[H])C3([H])[H])C1([H])[H]

>  <smiles>  (88) 
[H]C1=C(C([H])([H])C([H])([H])N([H])C(=O)N2C([H])([H])C([H])([H])C([H])([H])C([H])(n3nc(-c4c([H])c([H])c(Oc5c([H])c([H])c(F)c([H])c5F)c([H])c4[H])c(C(=O)N([H])[H])c3N([H])[H])C2([H])[H])C([H])([H])C([H])([H])C([H])([H])[N+]([H])(C([H])([H])C([H])([H])Oc2c([H])c([H])c3c(c2[H])C([H])([H])N(C(=O)C([H])(N([H])C(=O)C([H])(N([H])C([H])([H])[H])C([H])([H])[H])C(C([H])([H])[H])(C([H])([H])[H])C([H])([H])[H])C([H])(C(=O)N([H])C2([H])c4c([H])c([H])c([H])c([H])c4C([H])([H])C([H])([H])C2([H])[H])C3([H])[H])C1([H])[H]

$$$$
89:0:0
     RDKit          3D

 92100  0  0  1  0  0  0  0  0999 V2000
  -29.1270  -19.7130   20.5610 C   0  0  0  0  0  0  0  0  0  0  0  0
  -28.6590  -19.1600   21.6920 N   0  0  0  0  0  4  0  0  0  0  0  0
  -28.8690  -21.2060   20.5510 N   0  0  0  0  0  0  0  0  0  0  0  0
  -28.8540  -18.1860   21.8840 H   0  0  0  0  0  0  0  0  0  0  0  0
  -28.2080  -19.6640   22.4430 H   0  0  0  0  0  0  0  0  0  0  0  0
  -28.4260  -21.4040   21.4350 H   0  0  0  0  0  0  0  0  0  0  0  0
  -31.5290  -18.7280   17.8770 C   0  0  0  0  0  2  0  0  0  0  0  0
  -30.1940  -19.1350   17.2780 C   0  0  0  0  0  2  0  0  0  0  0  0
  -31.2960  -18.8340   19.3880 C   0  0  0  0  0  2  0  0  0  0  0  0
  -29.1620  -18.5870   18.2760 C   0  0  0  0  0  2  0  0  0  0  0  0
  -29.8340  -18.4070   19.6600 C   0  0  2  0  0  0  0  0  0  0  0  0
  -30.4950  -15.4570   19.8120 C   0  0  0  0  0  0  0  0  0  0  0  0
  -30.3970  -12.9880   18.9510 C   0  0  0  0  0  2  0  0  0  0  0  0
  -29.4060  -12.8180   17.7680 C   0  0  0  0  0  2  0  0  0  0  0  0
  -27.9950  -12.5170   18.2970 C   0  0  0  0  0  2  0  0  0  0  0  0
  -27.6120  -13.4650   19.4580 C   0  0  0  0  0  3  0  0  0  0  0  0
  -28.7300  -13.6200   20.5190 C   0  0  0  0  0  2  0  0  0  0  0  0
  -29.9220  -14.1390   19.8180 N   0  0  0  0  0  0  0  0  0  0  0  0
  -31.6780  -15.4310   19.4430 O   0  0  0  0  0  0  0  0  0  0  0  0
  -29.7640  -16.7470   20.0260 N   0  0  0  0  0  0  0  0  0  0  0  0
  -28.8390  -16.5340   20.3600 H   0  0  0  0  0  0  0  0  0  0  0  0
  -25.3060  -13.9970   20.3920 C   0  0  0  0  0  0  0  0  0  0  0  0
  -24.2660  -13.2140   20.8010 C   0  0  0  0  0  0  0  0  0  0  0  0
  -24.7220  -11.8640   20.7010 C   0  0  0  0  0  0  0  0  0  0  0  0
  -26.3220  -13.1290   20.0480 N   0  0  0  0  0  0  0  0  0  0  0  0
  -25.9910  -11.8360   20.3060 N   0  0  0  0  0  0  0  0  0  0  0  0
  -24.0090  -10.5980   20.9150 C   0  0  0  0  0  0  0  0  0  0  0  0
  -24.4760   -9.6330   21.8340 C   0  0  0  0  0  3  0  0  0  0  0  0
  -23.7570   -8.4340   22.0380 C   0  0  0  0  0  3  0  0  0  0  0  0
  -22.5600   -8.1900   21.3240 C   0  0  0  0  0  0  0  0  0  0  0  0
  -22.1100   -9.1480   20.4000 C   0  0  0  0  0  3  0  0  0  0  0  0
  -22.8250  -10.3390   20.1920 C   0  0  0  0  0  3  0  0  0  0  0  0
  -21.8130   -7.0410   21.4370 O   0  0  0  0  0  0  0  0  0  0  0  0
  -21.7890   -6.3080   22.5940 C   0  0  0  0  0  0  0  0  0  0  0  0
  -21.3640   -6.8670   23.8190 C   0  0  0  0  0  3  0  0  0  0  0  0
  -21.2890   -6.0600   24.9710 C   0  0  0  0  0  3  0  0  0  0  0  0
  -21.6260   -4.6950   24.9020 C   0  0  0  0  0  0  0  0  0  0  0  0
  -22.0440   -4.1370   23.6820 C   0  0  0  0  0  3  0  0  0  0  0  0
  -22.1230   -4.9400   22.5320 C   0  0  0  0  0  0  0  0  0  0  0  0
  -22.5090   -4.3900   21.3530 F   0  0  0  0  0  0  0  0  0  0  0  0
  -21.5460   -3.9210   26.0090 F   0  0  0  0  0  0  0  0  0  0  0  0
  -22.8900  -13.6860   21.1710 C   0  0  0  0  0  0  0  0  0  0  0  0
  -22.2140  -12.9700   22.0600 N   0  0  0  0  0  0  0  0  0  0  0  0
  -22.4220  -14.7200   20.6950 O   0  0  0  0  0  0  0  0  0  0  0  0
  -22.6050  -12.1290   22.4640 H   0  0  0  0  0  0  0  0  0  0  0  0
  -21.2940  -13.2680   22.3480 H   0  0  0  0  0  0  0  0  0  0  0  0
  -25.4690  -15.3710   20.2460 N   0  0  0  0  0  0  0  0  0  0  0  0
  -24.7460  -16.0340   20.4990 H   0  0  0  0  0  0  0  0  0  0  0  0
  -26.2750  -15.8030   19.8130 H   0  0  0  0  0  0  0  0  0  0  0  0
  -29.0280  -22.7690   19.9370 C   0  0  0  0  0  2  0  0  0  0  0  0
  -28.0430  -24.2810   20.2020 C   0  0  0  0  0  2  0  0  0  0  0  0
  -28.2910  -25.9250   20.1720 O   0  0  0  0  0  0  0  0  0  0  0  0
  -24.6350  -31.8560   23.1470 C   0  0  0  0  0  0  0  0  0  0  0  0
  -27.2730  -27.0190   20.1320 C   0  0  0  0  0  0  0  0  0  0  0  0
  -23.4750  -30.4670   21.4780 C   0  0  0  0  0  3  0  0  0  0  0  0
  -24.9590  -28.8910   20.0570 C   0  0  0  0  0  0  0  0  0  0  0  0
  -26.0400  -30.6960   21.3780 C   0  0  0  0  0  2  0  0  0  0  0  0
  -26.1320  -29.2960   20.7050 C   0  0  0  0  0  0  0  0  0  0  0  0
  -27.2840  -28.3820   20.7170 C   0  0  0  0  0  3  0  0  0  0  0  0
  -26.0650  -26.7700   19.4390 C   0  0  0  0  0  3  0  0  0  0  0  0
  -24.9520  -27.6480   19.4060 C   0  0  0  0  0  3  0  0  0  0  0  0
  -23.7300  -29.7990   20.0980 C   0  0  0  0  0  2  0  0  0  0  0  0
  -24.7350  -31.0330   22.0550 N   0  0  0  0  0  0  0  0  0  0  0  0
  -23.5370  -32.1320   23.6600 O   0  0  0  0  0  0  0  0  0  0  0  0
  -22.7780  -29.4550   22.4250 C   0  0  0  0  0  0  0  0  0  0  0  0
  -21.4470  -29.2940   22.2920 N   0  0  0  0  0  0  0  0  0  0  0  0
  -23.4370  -28.8130   23.2450 O   0  0  0  0  0  0  0  0  0  0  0  0
  -20.9650  -29.8630   21.6100 H   0  0  0  0  0  0  0  0  0  0  0  0
  -18.0580  -28.0970   22.7860 C   0  0  0  0  0  0  0  0  0  0  0  0
  -20.6190  -28.3440   23.0430 C   0  0  0  0  0  3  0  0  0  0  0  0
  -20.7100  -26.9250   22.4340 C   0  0  0  0  0  2  0  0  0  0  0  0
  -19.6030  -26.6350   21.4140 C   0  0  0  0  0  2  0  0  0  0  0  0
  -18.2250  -26.7660   22.0690 C   0  0  0  0  0  2  0  0  0  0  0  0
  -19.1810  -28.8460   23.2260 C   0  0  0  0  0  0  0  0  0  0  0  0
  -18.9690  -30.0910   23.8550 C   0  0  0  0  0  3  0  0  0  0  0  0
  -17.6650  -30.5880   24.0460 C   0  0  0  0  0  3  0  0  0  0  0  0
  -16.5570  -29.8370   23.6170 C   0  0  0  0  0  3  0  0  0  0  0  0
  -16.7540  -28.5930   22.9920 C   0  0  0  0  0  3  0  0  0  0  0  0
  -25.8940  -32.4970   23.8060 C   0  0  0  0  0  3  0  0  0  0  0  0
  -26.3770  -31.7250   25.0990 C   0  0  1  0  0  0  0  0  0  0  0  0
  -25.2540  -31.4850   26.1370 C   0  0  0  0  0  1  0  0  0  0  0  0
  -26.9750  -30.3470   24.7360 C   0  0  0  0  0  1  0  0  0  0  0  0
  -27.5130  -32.5210   25.7850 C   0  0  0  0  0  1  0  0  0  0  0  0
  -25.5680  -33.8930   24.1450 N   0  0  0  0  0  0  0  0  0  0  0  0
  -25.9150  -34.9600   23.4130 C   0  0  0  0  0  0  0  0  0  0  0  0
  -26.6050  -34.8730   22.3940 O   0  0  0  0  0  0  0  0  0  0  0  0
  -24.9550  -34.0350   24.9350 H   0  0  0  0  0  0  0  0  0  0  0  0
  -24.1960  -36.7600   23.0500 C   0  0  0  0  0  1  0  0  0  0  0  0
  -25.4200  -36.3430   23.8800 C   0  0  0  0  0  3  0  0  0  0  0  0
  -27.5290  -37.2230   24.7780 C   0  0  0  0  0  1  0  0  0  0  0  0
  -26.4530  -37.4000   23.8050 N   0  0  0  0  0  0  0  0  0  0  0  0
  -26.0430  -38.3190   23.9470 H   0  0  0  0  0  0  0  0  0  0  0  0
  1  2  2  0
  2  4  1  0
  2  5  1  0
  3  1  1  0
  3  6  1  0
  7  9  1  0
  8  7  1  0
  8 10  1  0
  9 11  1  0
 10 11  1  0
 11 20  1  1
 11  1  1  0
 12 18  1  0
 12 20  1  0
 13 18  1  0
 14 15  1  0
 14 13  1  0
 16 15  1  0
 16 25  1  0
 16 17  1  0
 18 17  1  0
 19 12  2  0
 20 21  1  0
 22 23  2  0
 23 42  1  0
 24 23  1  0
 24 27  1  0
 25 26  1  0
 25 22  1  0
 26 24  2  0
 27 28  1  0
 28 29  2  0
 30 33  1  0
 30 29  1  0
 31 30  2  0
 32 31  1  0
 32 27  2  0
 33 34  1  0
 34 35  1  0
 35 36  2  0
 37 36  1  0
 37 41  1  0
 38 37  2  0
 39 34  2  0
 39 38  1  0
 40 39  1  0
 42 43  1  0
 43 46  1  0
 43 45  1  0
 44 42  2  0
 47 22  1  0
 47 48  1  0
 49 47  1  0
 50 51  1  0
 50  3  1  0
 52 51  1  0
 53 64  2  0
 54 52  1  0
 54 59  1  0
 55 63  1  0
 55 65  1  0
 56 62  1  0
 56 58  1  0
 57 63  1  0
 58 59  2  0
 58 57  1  0
 60 54  2  0
 61 60  1  0
 61 56  2  0
 62 55  1  0
 63 53  1  0
 65 67  2  0
 66 65  1  0
 68 66  1  0
 69 78  2  0
 69 74  1  0
 70 66  1  0
 70 74  1  0
 71 70  1  0
 72 73  1  0
 72 71  1  0
 73 69  1  0
 74 75  2  0
 75 76  1  0
 77 76  2  0
 78 77  1  0
 79 53  1  0
 79 84  1  0
 79 80  1  0
 80 83  1  1
 80 81  1  0
 82 80  1  0
 84 87  1  0
 85 89  1  0
 85 84  1  0
 86 85  2  0
 89 88  1  0
 91 89  1  0
 91 92  1  0
 91 90  1  0
M  ISO  4  12 100  20 100  51 101  52 101
M  END
>  <TORSDO>  (89) 
F 19

>  <SCORE>  (89) 
-15.493

>  <name>  (89) 
89

>  <ligand_id>  (89) 
89

>  <original_smiles>  (89) 
[H]c1c([H])c([H])c2c(c1[H])C([H])([H])C([H])([H])C([H])([H])C2([H])N([H])C(=O)C1([H])N(C(=O)C([H])(N([H])C(=O)C([H])(N([H])C([H])([H])[H])C([H])([H])[H])C(C([H])([H])[H])(C([H])([H])[H])C([H])([H])[H])C([H])([H])c2c([H])c(OC([H])([H])C([H])([H])[N+]([H])=C(N([H])[H])C3(N([H])C(=O)N4C([H])([H])C([H])([H])C([H])([H])C([H])(n5nc(-c6c([H])c([H])c(Oc7c([H])c([H])c(F)c([H])c7F)c([H])c6[H])c(C(=O)N([H])[H])c5N([H])[H])C4([H])[H])C([H])([H])C([H])([H])C([H])([H])C3([H])[H])c([H])c([H])c2C1([H])[H]

>  <smiles>  (89) 
[H]c1c([H])c([H])c2c(c1[H])C([H])([H])C([H])([H])C([H])([H])C2([H])N([H])C(=O)C1([H])N(C(=O)C([H])(N([H])C(=O)C([H])(N([H])C([H])([H])[H])C([H])([H])[H])C(C([H])([H])[H])(C([H])([H])[H])C([H])([H])[H])C([H])([H])c2c([H])c(OC([H])([H])C([H])([H])[N+]([H])=C(N([H])[H])C3(N([H])C(=O)N4C([H])([H])C([H])([H])C([H])([H])C([H])(n5nc(-c6c([H])c([H])c(Oc7c([H])c([H])c(F)c([H])c7F)c([H])c6[H])c(C(=O)N([H])[H])c5N([H])[H])C4([H])[H])C([H])([H])C([H])([H])C([H])([H])C3([H])[H])c([H])c([H])c2C1([H])[H]

$$$$
90:0:0
     RDKit          3D

 92100  0  0  1  0  0  0  0  0999 V2000
  -30.4050  -22.0910   20.7060 C   0  0  0  0  0  2  0  0  0  0  0  0
  -30.7400  -20.3370   23.3230 C   0  0  0  0  0  2  0  0  0  0  0  0
  -29.4460  -20.6210   22.5790 C   0  0  0  0  0  2  0  0  0  0  0  0
  -31.7020  -19.8090   22.2420 C   0  0  0  0  0  2  0  0  0  0  0  0
  -29.8720  -20.6680   21.1040 C   0  0  0  0  0  3  0  0  0  0  0  0
  -30.9080  -19.6120   21.0190 N   0  0  0  0  0  0  0  0  0  0  0  0
  -30.3430  -18.2380   20.9270 C   0  0  0  0  0  2  0  0  0  0  0  0
  -31.4220  -17.1090   20.8950 C   0  0  0  0  0  2  0  0  0  0  0  0
  -31.4970  -14.7070   20.0450 C   0  0  0  0  0  0  0  0  0  0  0  0
  -31.0950  -12.4720   19.0440 C   0  0  0  0  0  2  0  0  0  0  0  0
  -30.1230  -12.5990   17.8510 C   0  0  0  0  0  2  0  0  0  0  0  0
  -28.6560  -12.5600   18.3300 C   0  0  0  0  0  2  0  0  0  0  0  0
  -28.3930  -13.5260   19.5180 C   0  0  0  0  0  3  0  0  0  0  0  0
  -29.4600  -13.3320   20.6170 C   0  0  0  0  0  2  0  0  0  0  0  0
  -30.7790  -13.5480   19.9990 N   0  0  0  0  0  0  0  0  0  0  0  0
  -32.5990  -14.8260   19.5040 O   0  0  0  0  0  0  0  0  0  0  0  0
  -30.8800  -15.7530   20.6480 N   0  0  0  0  0  0  0  0  0  0  0  0
  -29.9520  -15.5660   20.9970 H   0  0  0  0  0  0  0  0  0  0  0  0
  -26.1280  -14.3460   20.4300 C   0  0  0  0  0  0  0  0  0  0  0  0
  -24.9930  -13.6760   20.7970 C   0  0  0  0  0  0  0  0  0  0  0  0
  -25.2790  -12.2880   20.6170 C   0  0  0  0  0  0  0  0  0  0  0  0
  -27.0400  -13.3710   20.0500 N   0  0  0  0  0  0  0  0  0  0  0  0
  -26.5340  -12.1240   20.2190 N   0  0  0  0  0  0  0  0  0  0  0  0
  -24.4110  -11.1100   20.7430 C   0  0  0  0  0  0  0  0  0  0  0  0
  -24.7330  -10.0450   21.6130 C   0  0  0  0  0  3  0  0  0  0  0  0
  -23.8770   -8.9280   21.7250 C   0  0  0  0  0  3  0  0  0  0  0  0
  -22.6830   -8.8730   20.9680 C   0  0  0  0  0  0  0  0  0  0  0  0
  -22.3780   -9.9240   20.0850 C   0  0  0  0  0  3  0  0  0  0  0  0
  -23.2350  -11.0320   19.9700 C   0  0  0  0  0  3  0  0  0  0  0  0
  -21.8010   -7.8200   20.9990 O   0  0  0  0  0  0  0  0  0  0  0  0
  -21.6180   -7.0640   22.1280 C   0  0  0  0  0  0  0  0  0  0  0  0
  -21.1850   -7.6350   23.3450 C   0  0  0  0  0  3  0  0  0  0  0  0
  -20.9450   -6.8120   24.4630 C   0  0  0  0  0  3  0  0  0  0  0  0
  -21.1230   -5.4180   24.3640 C   0  0  0  0  0  0  0  0  0  0  0  0
  -21.5460   -4.8470   23.1500 C   0  0  0  0  0  3  0  0  0  0  0  0
  -21.7890   -5.6670   22.0350 C   0  0  0  0  0  0  0  0  0  0  0  0
  -22.1790   -5.1100   20.8620 F   0  0  0  0  0  0  0  0  0  0  0  0
  -20.8830   -4.6240   25.4350 F   0  0  0  0  0  0  0  0  0  0  0  0
  -23.6820  -14.2910   21.1950 C   0  0  0  0  0  0  0  0  0  0  0  0
  -22.9160  -13.6160   22.0470 N   0  0  0  0  0  0  0  0  0  0  0  0
  -23.3450  -15.4000   20.7870 O   0  0  0  0  0  0  0  0  0  0  0  0
  -23.1960  -12.7130   22.4010 H   0  0  0  0  0  0  0  0  0  0  0  0
  -22.0390  -14.0120   22.3520 H   0  0  0  0  0  0  0  0  0  0  0  0
  -26.4520  -15.6980   20.3720 N   0  0  0  0  0  0  0  0  0  0  0  0
  -25.7780  -16.4170   20.6120 H   0  0  0  0  0  0  0  0  0  0  0  0
  -27.3280  -16.0730   20.0310 H   0  0  0  0  0  0  0  0  0  0  0  0
  -29.2900  -23.0500   20.4940 N   0  0  0  0  0  4  0  0  0  0  0  0
  -28.6690  -22.9310   21.2780 H   0  0  0  0  0  0  0  0  0  0  0  0
  -28.7850  -22.7660   19.6700 H   0  0  0  0  0  0  0  0  0  0  0  0
  -29.6290  -24.5050   20.4070 C   0  0  0  0  0  2  0  0  0  0  0  0
  -28.3660  -25.3290   20.0500 C   0  0  0  0  0  2  0  0  0  0  0  0
  -28.5200  -26.7580   19.8720 O   0  0  0  0  0  0  0  0  0  0  0  0
  -24.4830  -31.6690   23.0850 C   0  0  0  0  0  0  0  0  0  0  0  0
  -27.3280  -27.4670   19.8420 C   0  0  0  0  0  0  0  0  0  0  0  0
  -23.3280  -30.2150   21.4570 C   0  0  0  0  0  3  0  0  0  0  0  0
  -24.8400  -28.8300   19.9400 C   0  0  0  0  0  0  0  0  0  0  0  0
  -25.8140  -30.7650   21.1750 C   0  0  0  0  0  2  0  0  0  0  0  0
  -25.9810  -29.4130   20.5070 C   0  0  0  0  0  0  0  0  0  0  0  0
  -27.2280  -28.7420   20.4540 C   0  0  0  0  0  3  0  0  0  0  0  0
  -26.1660  -26.9230   19.2390 C   0  0  0  0  0  3  0  0  0  0  0  0
  -24.9300  -27.5890   19.2960 C   0  0  0  0  0  3  0  0  0  0  0  0
  -23.5380  -29.5910   20.0530 C   0  0  0  0  0  2  0  0  0  0  0  0
  -24.5640  -30.8970   21.9650 N   0  0  0  0  0  0  0  0  0  0  0  0
  -23.4030  -31.8460   23.6670 O   0  0  0  0  0  0  0  0  0  0  0  0
  -22.7930  -29.1230   22.4100 C   0  0  0  0  0  0  0  0  0  0  0  0
  -21.4990  -28.7900   22.2730 N   0  0  0  0  0  0  0  0  0  0  0  0
  -23.5380  -28.5800   23.2300 O   0  0  0  0  0  0  0  0  0  0  0  0
  -20.9550  -29.2840   21.5800 H   0  0  0  0  0  0  0  0  0  0  0  0
  -18.2980  -27.1650   22.6800 C   0  0  0  0  0  0  0  0  0  0  0  0
  -20.7880  -27.7680   23.0380 C   0  0  0  0  0  3  0  0  0  0  0  0
  -21.1030  -26.3530   22.5020 C   0  0  0  0  0  2  0  0  0  0  0  0
  -20.0940  -25.8650   21.4590 C   0  0  0  0  0  2  0  0  0  0  0  0
  -18.6800  -25.8380   22.0470 C   0  0  0  0  0  2  0  0  0  0  0  0
  -19.2890  -28.0780   23.1320 C   0  0  0  0  0  0  0  0  0  0  0  0
  -18.8810  -29.3140   23.6790 C   0  0  0  0  0  3  0  0  0  0  0  0
  -17.5150  -29.6410   23.7830 C   0  0  0  0  0  3  0  0  0  0  0  0
  -16.5390  -28.7260   23.3520 C   0  0  0  0  0  3  0  0  0  0  0  0
  -16.9310  -27.4900   22.8060 C   0  0  0  0  0  3  0  0  0  0  0  0
  -25.7370  -32.3850   23.6730 C   0  0  0  0  0  3  0  0  0  0  0  0
  -25.3430  -33.7540   24.0300 N   0  0  0  0  0  0  0  0  0  0  0  0
  -25.6320  -34.8410   23.3020 C   0  0  0  0  0  0  0  0  0  0  0  0
  -26.3300  -34.8000   22.2860 O   0  0  0  0  0  0  0  0  0  0  0  0
  -24.7290  -33.8570   24.8240 H   0  0  0  0  0  0  0  0  0  0  0  0
  -23.8230  -36.5450   22.9250 C   0  0  0  0  0  1  0  0  0  0  0  0
  -25.0510  -36.1860   23.7760 C   0  0  0  0  0  3  0  0  0  0  0  0
  -27.1040  -37.1540   24.7140 C   0  0  0  0  0  1  0  0  0  0  0  0
  -26.0260  -37.2970   23.7390 N   0  0  0  0  0  0  0  0  0  0  0  0
  -25.5620  -38.1860   23.9080 H   0  0  0  0  0  0  0  0  0  0  0  0
  -26.3480  -31.6360   24.9200 C   0  0  1  0  0  0  0  0  0  0  0  0
  -25.3090  -31.3080   26.0170 C   0  0  0  0  0  1  0  0  0  0  0  0
  -27.0100  -30.3080   24.4800 C   0  0  0  0  0  1  0  0  0  0  0  0
  -27.4630  -32.4970   25.5570 C   0  0  0  0  0  1  0  0  0  0  0  0
  3  2  1  0
  4  2  1  0
  5  1  1  0
  5  3  1  0
  6  5  1  0
  6  4  1  0
  7  6  1  0
  8  7  1  0
  9 17  1  0
 10 15  1  0
 11 12  1  0
 11 10  1  0
 13 12  1  0
 13 22  1  0
 13 14  1  0
 15  9  1  0
 15 14  1  0
 16  9  2  0
 17  8  1  0
 17 18  1  0
 19 20  2  0
 20 39  1  0
 21 24  1  0
 21 20  1  0
 22 23  1  0
 22 19  1  0
 23 21  2  0
 24 25  1  0
 25 26  2  0
 27 30  1  0
 27 26  1  0
 28 27  2  0
 29 28  1  0
 29 24  2  0
 30 31  1  0
 31 32  1  0
 32 33  2  0
 34 33  1  0
 34 38  1  0
 35 34  2  0
 36 31  2  0
 36 35  1  0
 37 36  1  0
 39 40  1  0
 40 43  1  0
 40 42  1  0
 41 39  2  0
 44 19  1  0
 44 45  1  0
 46 44  1  0
 47  1  1  0
 47 48  1  0
 49 47  1  0
 50 47  1  0
 51 50  1  0
 52 51  1  0
 53 64  2  0
 54 52  1  0
 54 59  1  0
 55 63  1  0
 55 65  1  0
 56 62  1  0
 56 58  1  0
 57 63  1  0
 58 57  1  0
 59 58  2  0
 60 61  1  0
 60 54  2  0
 61 56  2  0
 62 55  1  0
 63 53  1  0
 65 67  2  0
 66 65  1  0
 68 66  1  0
 69 78  2  0
 69 74  1  0
 70 66  1  0
 70 74  1  0
 71 70  1  0
 72 73  1  0
 72 71  1  0
 73 69  1  0
 74 75  2  0
 75 76  1  0
 77 76  2  0
 78 77  1  0
 79 53  1  0
 79 80  1  0
 79 89  1  0
 80 83  1  0
 81 85  1  0
 81 80  1  0
 82 81  2  0
 85 84  1  0
 87 85  1  0
 87 88  1  0
 87 86  1  0
 89 92  1  1
 89 90  1  0
 91 89  1  0
M  ISO  4   9 100  17 100  51 101  52 101
M  END
>  <TORSDO>  (90) 
F 22

>  <SCORE>  (90) 
-10.699

>  <name>  (90) 
90

>  <ligand_id>  (90) 
90

>  <original_smiles>  (90) 
[H]c1c([H])c([H])c2c(c1[H])C([H])([H])C([H])([H])C([H])([H])C2([H])N([H])C(=O)C1([H])N(C(=O)C([H])(N([H])C(=O)C([H])(N([H])C([H])([H])[H])C([H])([H])[H])C(C([H])([H])[H])(C([H])([H])[H])C([H])([H])[H])C([H])([H])c2c([H])c(OC([H])([H])C([H])([H])[N+]([H])([H])C([H])([H])C3([H])N(C([H])([H])C([H])([H])N([H])C(=O)N4C([H])([H])C([H])([H])C([H])([H])C([H])(n5nc(-c6c([H])c([H])c(Oc7c([H])c([H])c(F)c([H])c7F)c([H])c6[H])c(C(=O)N([H])[H])c5N([H])[H])C4([H])[H])C([H])([H])C([H])([H])C3([H])[H])c([H])c([H])c2C1([H])[H]

>  <smiles>  (90) 
[H]c1c([H])c([H])c2c(c1[H])C([H])([H])C([H])([H])C([H])([H])C2([H])N([H])C(=O)C1([H])N(C(=O)C([H])(N([H])C(=O)C([H])(N([H])C([H])([H])[H])C([H])([H])[H])C(C([H])([H])[H])(C([H])([H])[H])C([H])([H])[H])C([H])([H])c2c([H])c(OC([H])([H])C([H])([H])[N+]([H])([H])C([H])([H])C3([H])N(C([H])([H])C([H])([H])N([H])C(=O)N4C([H])([H])C([H])([H])C([H])([H])C([H])(n5nc(-c6c([H])c([H])c(Oc7c([H])c([H])c(F)c([H])c7F)c([H])c6[H])c(C(=O)N([H])[H])c5N([H])[H])C4([H])[H])C([H])([H])C([H])([H])C3([H])[H])c([H])c([H])c2C1([H])[H]

$$$$
91:0:0
     RDKit          3D

 99103  0  0  1  0  0  0  0  0999 V2000
  -27.8080  -18.5510   17.6990 C   0  0  0  0  0  3  0  0  0  0  0  0
  -26.6620  -18.5780   19.7480 C   0  0  0  0  0  3  0  0  0  0  0  0
  -27.6280  -17.1070   17.6050 C   0  0  0  0  0  3  0  0  0  0  0  0
  -26.4930  -17.1370   19.6550 C   0  0  0  0  0  3  0  0  0  0  0  0
  -27.3390  -19.3820   18.7750 C   0  0  0  0  0  0  0  0  0  0  0  0
  -26.9950  -16.2820   18.6110 C   0  0  0  0  0  0  0  0  0  0  0  0
  -27.2730  -21.0350   18.7050 C   0  0  0  0  0  2  0  0  0  0  0  0
  -28.0380  -22.1140   19.5580 N   0  0  0  0  0  4  0  0  0  0  0  0
  -29.0160  -21.8770   19.5140 H   0  0  0  0  0  0  0  0  0  0  0  0
  -27.7550  -21.9660   20.5130 H   0  0  0  0  0  0  0  0  0  0  0  0
  -27.9100  -23.6660   19.2340 C   0  0  0  0  0  3  0  0  0  0  0  0
  -28.5230  -24.8670   20.2380 C   0  0  0  0  0  3  0  0  0  0  0  0
  -28.8120  -26.3840   19.9980 O   0  0  0  0  0  0  0  0  0  0  0  0
  -25.3370  -31.7290   23.8320 C   0  0  0  0  0  0  0  0  0  0  0  0
  -27.8260  -27.3890   20.1980 C   0  0  0  0  0  0  0  0  0  0  0  0
  -24.1630  -30.5930   21.9980 C   0  0  0  0  0  3  0  0  0  0  0  0
  -25.5950  -29.1840   20.4210 C   0  0  0  0  0  0  0  0  0  0  0  0
  -26.7330  -30.7890   21.9460 C   0  0  0  0  0  2  0  0  0  0  0  0
  -26.7780  -29.4990   21.1050 C   0  0  0  0  0  0  0  0  0  0  0  0
  -27.9130  -28.6110   20.9810 C   0  0  0  0  0  3  0  0  0  0  0  0
  -26.6180  -27.1650   19.5290 C   0  0  0  0  0  3  0  0  0  0  0  0
  -25.5240  -28.0310   19.6350 C   0  0  0  0  0  3  0  0  0  0  0  0
  -24.4060  -30.1110   20.5490 C   0  0  0  0  0  2  0  0  0  0  0  0
  -25.4320  -31.0520   22.6490 N   0  0  0  0  0  0  0  0  0  0  0  0
  -24.2390  -31.9730   24.3550 O   0  0  0  0  0  0  0  0  0  0  0  0
  -23.4350  -29.4770   22.7890 C   0  0  0  0  0  0  0  0  0  0  0  0
  -22.1150  -29.3400   22.5740 N   0  0  0  0  0  0  0  0  0  0  0  0
  -24.0600  -28.7450   23.5610 O   0  0  0  0  0  0  0  0  0  0  0  0
  -21.6720  -29.9820   21.9320 H   0  0  0  0  0  0  0  0  0  0  0  0
  -18.7130  -28.1090   22.7050 C   0  0  0  0  0  0  0  0  0  0  0  0
  -21.2450  -28.3320   23.1850 C   0  0  0  0  0  3  0  0  0  0  0  0
  -21.3950  -26.9660   22.4770 C   0  0  0  0  0  2  0  0  0  0  0  0
  -20.3710  -26.7500   21.3580 C   0  0  0  0  0  2  0  0  0  0  0  0
  -18.9450  -26.8330   21.9120 C   0  0  0  0  0  2  0  0  0  0  0  0
  -19.7960  -28.8200   23.2890 C   0  0  0  0  0  0  0  0  0  0  0  0
  -19.5290  -30.0170   23.9890 C   0  0  0  0  0  3  0  0  0  0  0  0
  -18.2130  -30.5020   24.1110 C   0  0  0  0  0  3  0  0  0  0  0  0
  -17.1450  -29.7850   23.5440 C   0  0  0  0  0  3  0  0  0  0  0  0
  -17.3960  -28.5900   22.8480 C   0  0  0  0  0  3  0  0  0  0  0  0
  -26.6050  -32.2460   24.5760 C   0  0  0  0  0  3  0  0  0  0  0  0
  -27.0380  -31.3150   25.7740 C   0  0  1  0  0  0  0  0  0  0  0  0
  -25.8940  -30.9980   26.7650 C   0  0  0  0  0  1  0  0  0  0  0  0
  -27.5910  -29.9680   25.2540 C   0  0  0  0  0  1  0  0  0  0  0  0
  -28.1830  -31.9840   26.5690 C   0  0  0  0  0  1  0  0  0  0  0  0
  -26.3090  -33.6030   25.0640 N   0  0  0  0  0  0  0  0  0  0  0  0
  -26.7540  -34.7330   24.5000 C   0  0  0  0  0  0  0  0  0  0  0  0
  -27.5220  -34.7370   23.5350 O   0  0  0  0  0  0  0  0  0  0  0  0
  -25.6370  -33.6730   25.8140 H   0  0  0  0  0  0  0  0  0  0  0  0
  -25.1620  -36.6620   24.2170 C   0  0  0  0  0  1  0  0  0  0  0  0
  -26.2720  -36.0690   25.0980 C   0  0  0  0  0  3  0  0  0  0  0  0
  -28.3250  -36.6890   26.2950 C   0  0  0  0  0  1  0  0  0  0  0  0
  -27.3540  -37.0630   25.2700 N   0  0  0  0  0  0  0  0  0  0  0  0
  -26.9740  -37.9740   25.5090 H   0  0  0  0  0  0  0  0  0  0  0  0
  -26.7570  -14.6050   18.6420 C   0  0  0  0  0  2  0  0  0  0  0  0
  -27.6190  -13.3650   18.0800 N   0  0  0  0  0  4  0  0  0  0  0  0
  -28.3670  -13.7890   17.5540 H   0  0  0  0  0  0  0  0  0  0  0  0
  -27.0060  -12.9830   17.3770 H   0  0  0  0  0  0  0  0  0  0  0  0
  -28.2610  -12.0340   18.7870 C   0  0  0  0  0  2  0  0  0  0  0  0
  -29.6380  -11.6970   19.9500 C   0  0  0  0  0  2  0  0  0  0  0  0
  -31.8220  -13.1850   21.9140 C   0  0  0  0  0  3  0  0  0  0  0  0
  -32.0740  -11.8510   19.7940 C   0  0  0  0  0  1  0  0  0  0  0  0
  -31.1040  -13.0870   18.6650 C   0  0  0  0  0  1  0  0  0  0  0  0
  -29.5860  -14.0810   19.4530 C   0  0  0  0  0 15  0  0  0  0  0  0
  -28.6430  -13.5310   21.1510 C   0  0  0  0  0  2  0  0  0  0  0  0
  -29.5510  -12.3420   22.3380 C   0  0  0  0  0  1  0  0  0  0  0  0
  -31.2770  -12.0770   21.5380 N   0  0  0  0  0  2  0  0  0  0  0  0
  -32.7780  -13.9200   21.5960 O   0  0  0  0  0  1  0  0  0  0  0  0
  -30.9560  -13.1740   21.0000 N   0  0  0  0  0  0  0  0  0  0  0  0
  -31.0390  -14.0250   20.4720 H   0  0  0  0  0  0  0  0  0  0  0  0
  -26.1710  -13.8660   21.3490 C   0  0  0  0  0  0  0  0  0  0  0  0
  -25.0830  -13.0660   21.5130 C   0  0  0  0  0  0  0  0  0  0  0  0
  -25.5280  -11.7160   21.4320 C   0  0  0  0  0  0  0  0  0  0  0  0
  -27.2400  -13.0530   21.1790 N   0  0  0  0  0  0  0  0  0  0  0  0
  -26.8450  -11.7310   21.2910 N   0  0  0  0  0  0  0  0  0  0  0  0
  -24.7640  -10.4490   21.4570 C   0  0  0  0  0  0  0  0  0  0  0  0
  -25.0670   -9.3940   22.3490 C   0  0  0  0  0  3  0  0  0  0  0  0
  -24.2620   -8.2300   22.3910 C   0  0  0  0  0  3  0  0  0  0  0  0
  -23.1380   -8.1100   21.5380 C   0  0  0  0  0  0  0  0  0  0  0  0
  -22.8620   -9.1450   20.6250 C   0  0  0  0  0  3  0  0  0  0  0  0
  -23.6660  -10.2970   20.5850 C   0  0  0  0  0  3  0  0  0  0  0  0
  -22.3150   -7.0080   21.4870 O   0  0  0  0  0  0  0  0  0  0  0  0
  -22.0990   -6.2080   22.5810 C   0  0  0  0  0  0  0  0  0  0  0  0
  -21.5830   -6.7250   23.7890 C   0  0  0  0  0  3  0  0  0  0  0  0
  -21.3120   -5.8590   24.8680 C   0  0  0  0  0  3  0  0  0  0  0  0
  -21.5430   -4.4770   24.7390 C   0  0  0  0  0  0  0  0  0  0  0  0
  -22.0450   -3.9580   23.5330 C   0  0  0  0  0  3  0  0  0  0  0  0
  -22.3180   -4.8210   22.4550 C   0  0  0  0  0  0  0  0  0  0  0  0
  -22.7830   -4.3110   21.2890 F   0  0  0  0  0  0  0  0  0  0  0  0
  -21.2800   -3.6450   25.7730 F   0  0  0  0  0  0  0  0  0  0  0  0
  -23.6950  -13.5620   21.6880 C   0  0  0  0  0  0  0  0  0  0  0  0
  -22.8930  -12.8510   22.4700 N   0  0  0  0  0  0  0  0  0  0  0  0
  -23.3450  -14.6270   21.1810 O   0  0  0  0  0  0  0  0  0  0  0  0
  -23.2120  -11.9950   22.9030 H   0  0  0  0  0  0  0  0  0  0  0  0
  -21.9480  -13.1630   22.6460 H   0  0  0  0  0  0  0  0  0  0  0  0
  -26.3540  -15.2350   21.3450 N   0  0  0  0  0  0  0  0  0  0  0  0
  -25.5620  -15.8630   21.4340 H   0  0  0  0  0  0  0  0  0  0  0  0
  -27.2130  -15.7170   21.1020 H   0  0  0  0  0  0  0  0  0  0  0  0
  -30.3080   -9.7740   18.1710 C   0  0  0  0  0  1  0  0  0  0  0  0
  -30.0460  -10.1620   19.6470 C   0  0  0  0  0  2  0  0  0  0  0  0
  1  5  1  0
  3  1  2  0
  3  6  1  0
  4  2  1  0
  5  2  2  0
  6 54  1  0
  6  4  2  0
  7  5  1  0
  7  8  1  0
  8 10  1  0
  9  8  1  0
 11  8  1  0
 11 12  2  0
 13 15  1  0
 13 12  1  0
 14 25  2  0
 15 20  1  0
 16 24  1  0
 16 26  1  0
 17 23  1  0
 17 19  1  0
 18 24  1  0
 19 18  1  0
 20 19  2  0
 21 22  1  0
 21 15  2  0
 22 17  2  0
 23 16  1  0
 24 14  1  0
 26 28  2  0
 27 26  1  0
 29 27  1  0
 30 39  2  0
 30 35  1  0
 31 27  1  0
 31 35  1  0
 32 31  1  0
 33 34  1  0
 33 32  1  0
 34 30  1  0
 35 36  2  0
 36 37  1  0
 38 37  2  0
 39 38  1  0
 40 14  1  0
 40 45  1  0
 40 41  1  0
 41 44  1  1
 41 42  1  0
 43 41  1  0
 45 48  1  0
 46 45  1  0
 46 50  1  0
 47 46  2  0
 50 49  1  0
 50 52  1  0
 52 53  1  0
 52 51  1  0
 55 54  1  0
 55 58  1  0
 56 55  1  0
 57 55  1  0
 58 59  1  0
 60 67  1  0
 62 61  1  0
 64 73  1  0
 64 65  1  0
 66 60  1  0
 68 66  1  0
 68 60  1  0
 69 68  1  0
 70 71  2  0
 71 90  1  0
 72 75  1  0
 72 71  1  0
 73 74  1  0
 73 70  1  0
 74 72  2  0
 75 76  1  0
 76 77  2  0
 78 77  1  0
 79 78  2  0
 80 79  1  0
 80 75  2  0
 81 78  1  0
 81 82  1  0
 82 83  1  0
 83 84  2  0
 85 84  1  0
 85 89  1  0
 86 85  2  0
 87 82  2  0
 87 86  1  0
 88 87  1  0
 90 91  1  0
 91 94  1  0
 91 93  1  0
 92 90  2  0
 95 70  1  0
 95 96  1  0
 97 95  1  0
 98 99  1  0
 99 59  1  0
M  ISO  4  12 101  13 101  60 100  68 100
M  END
>  <TORSDO>  (91) 
F 25

>  <SCORE>  (91) 
-4.095

>  <name>  (91) 
91

>  <ligand_id>  (91) 
91

>  <original_smiles>  (91) 
[H]c1c([H])c([H])c2c(c1[H])C([H])([H])C([H])([H])C([H])([H])C2([H])N([H])C(=O)C1([H])N(C(=O)C([H])(N([H])C(=O)C([H])(N([H])C([H])([H])[H])C([H])([H])[H])C(C([H])([H])[H])(C([H])([H])[H])C([H])([H])[H])C([H])([H])c2c([H])c(OC([H])([H])C([H])([H])[N+]([H])([H])C([H])([H])c3c([H])c([H])c(C([H])([H])[N+]([H])([H])C([H])([H])C([H])(N([H])C(=O)N4C([H])([H])C([H])([H])C([H])([H])C([H])(n5nc(-c6c([H])c([H])c(Oc7c([H])c([H])c(F)c([H])c7F)c([H])c6[H])c(C(=O)N([H])[H])c5N([H])[H])C4([H])[H])C([H])([H])C([H])([H])[H])c([H])c3[H])c([H])c([H])c2C1([H])[H]

>  <smiles>  (91) 
[H]c1c([H])c([H])c2c(c1[H])C([H])([H])C([H])([H])C([H])([H])C2([H])N([H])C(=O)C1([H])N(C(=O)C([H])(N([H])C(=O)C([H])(N([H])C([H])([H])[H])C([H])([H])[H])C(C([H])([H])[H])(C([H])([H])[H])C([H])([H])[H])C([H])([H])c2c([H])c(OC([H])([H])C([H])([H])[N+]([H])([H])C([H])([H])c3c([H])c([H])c(C([H])([H])[N+]([H])([H])C([H])([H])C([H])(N([H])C(=O)N4C([H])([H])C([H])([H])C([H])([H])C([H])(n5nc(-c6c([H])c([H])c(Oc7c([H])c([H])c(F)c([H])c7F)c([H])c6[H])c(C(=O)N([H])[H])c5N([H])[H])C4([H])[H])C([H])([H])C([H])([H])[H])c([H])c3[H])c([H])c([H])c2C1([H])[H]

$$$$
92:0:0
     RDKit          3D

 96105  0  0  1  0  0  0  0  0999 V2000
  -27.9620  -24.7510   16.1790 C   0  0  0  0  0  2  0  0  0  0  0  0
  -28.3810  -26.0940   16.7820 C   0  0  0  0  0  2  0  0  0  0  0  0
  -27.7400  -23.6830   17.2620 C   0  0  0  0  0  2  0  0  0  0  0  0
  -29.6040  -25.9240   17.6940 C   0  0  0  0  0  2  0  0  0  0  0  0
  -28.9850  -23.4940   18.1700 C   0  0  0  0  0  3  0  0  0  0  0  0
  -29.3960  -24.8650   18.8040 C   0  0  0  0  0  3  0  0  0  0  0  0
  -30.2130  -21.9370   19.8200 C   0  0  0  0  0  2  0  0  0  0  0  0
  -28.2490  -21.0360   18.5660 C   0  0  0  0  0  2  0  0  0  0  0  0
  -30.1270  -20.7190   20.7660 C   0  0  0  0  0  2  0  0  0  0  0  0
  -28.2020  -19.8460   19.5420 C   0  0  0  0  0  2  0  0  0  0  0  0
  -28.8500  -22.3170   19.1930 C   0  0  0  0  0  3  0  0  0  0  0  0
  -29.5460  -19.5300   20.0860 N   0  0  2  0  0  4  0  0  0  0  0  0
  -30.1280  -19.3260   19.2870 H   0  0  0  0  0  0  0  0  0  0  0  0
  -29.5440  -18.2950   20.9230 C   0  0  0  0  0  2  0  0  0  0  0  0
  -30.9330  -17.6220   21.0150 C   0  0  0  0  0  2  0  0  0  0  0  0
  -30.9830  -16.3490   21.8920 C   0  0  0  0  0  2  0  0  0  0  0  0
  -30.7370  -14.3620   20.3920 C   0  0  0  0  0  0  0  0  0  0  0  0
  -30.3150  -12.3080   19.0900 C   0  0  0  0  0  2  0  0  0  0  0  0
  -29.3510  -12.5760   17.9190 C   0  0  0  0  0  2  0  0  0  0  0  0
  -27.8850  -12.4530   18.3780 C   0  0  0  0  0  2  0  0  0  0  0  0
  -27.5980  -13.2580   19.6720 C   0  0  0  0  0  3  0  0  0  0  0  0
  -28.6640  -12.9650   20.7500 C   0  0  0  0  0  2  0  0  0  0  0  0
  -29.9930  -13.2470   20.1740 N   0  0  0  0  0  0  0  0  0  0  0  0
  -31.7780  -14.6120   19.7770 O   0  0  0  0  0  0  0  0  0  0  0  0
  -30.2720  -15.1930   21.3360 N   0  0  0  0  0  0  0  0  0  0  0  0
  -29.4200  -14.9070   21.7970 H   0  0  0  0  0  0  0  0  0  0  0  0
  -25.2120  -13.8990   20.4020 C   0  0  0  0  0  0  0  0  0  0  0  0
  -24.1400  -13.1410   20.7880 C   0  0  0  0  0  0  0  0  0  0  0  0
  -24.5850  -11.7850   20.7590 C   0  0  0  0  0  0  0  0  0  0  0  0
  -26.2450  -13.0050   20.1670 N   0  0  0  0  0  0  0  0  0  0  0  0
  -25.8710  -11.7280   20.4370 N   0  0  0  0  0  0  0  0  0  0  0  0
  -23.8470  -10.5310   20.9660 C   0  0  0  0  0  0  0  0  0  0  0  0
  -24.2730   -9.5680   21.9080 C   0  0  0  0  0  3  0  0  0  0  0  0
  -23.5360   -8.3800   22.1000 C   0  0  0  0  0  3  0  0  0  0  0  0
  -22.3600   -8.1450   21.3500 C   0  0  0  0  0  0  0  0  0  0  0  0
  -21.9540   -9.0960   20.3970 C   0  0  0  0  0  3  0  0  0  0  0  0
  -22.6900  -10.2760   20.2020 C   0  0  0  0  0  3  0  0  0  0  0  0
  -21.5940   -7.0090   21.4500 O   0  0  0  0  0  0  0  0  0  0  0  0
  -21.5390   -6.2790   22.6100 C   0  0  0  0  0  0  0  0  0  0  0  0
  -21.1080   -6.8480   23.8290 C   0  0  0  0  0  3  0  0  0  0  0  0
  -21.0010   -6.0440   24.9810 C   0  0  0  0  0  3  0  0  0  0  0  0
  -21.3130   -4.6740   24.9170 C   0  0  0  0  0  0  0  0  0  0  0  0
  -21.7370   -4.1040   23.7040 C   0  0  0  0  0  3  0  0  0  0  0  0
  -21.8460   -4.9050   22.5530 C   0  0  0  0  0  0  0  0  0  0  0  0
  -22.2350   -4.3470   21.3810 F   0  0  0  0  0  0  0  0  0  0  0  0
  -21.2020   -3.9000   26.0220 F   0  0  0  0  0  0  0  0  0  0  0  0
  -22.7510  -13.6350   21.0760 C   0  0  0  0  0  0  0  0  0  0  0  0
  -22.0250  -12.9480   21.9520 N   0  0  0  0  0  0  0  0  0  0  0  0
  -22.3190  -14.6650   20.5600 O   0  0  0  0  0  0  0  0  0  0  0  0
  -22.3890  -12.1150   22.3900 H   0  0  0  0  0  0  0  0  0  0  0  0
  -21.0940  -13.2620   22.1880 H   0  0  0  0  0  0  0  0  0  0  0  0
  -25.3910  -15.2670   20.2150 N   0  0  0  0  0  0  0  0  0  0  0  0
  -24.6300  -15.9300   20.3220 H   0  0  0  0  0  0  0  0  0  0  0  0
  -26.2400  -15.6910   19.8670 H   0  0  0  0  0  0  0  0  0  0  0  0
  -28.4580  -25.3270   19.9540 C   0  0  0  0  0  2  0  0  0  0  0  0
  -28.4470  -26.7510   20.1450 O   0  0  0  0  0  0  0  0  0  0  0  0
  -24.5780  -31.8690   23.2140 C   0  0  0  0  0  0  0  0  0  0  0  0
  -27.2450  -27.4340   20.1370 C   0  0  0  0  0  0  0  0  0  0  0  0
  -23.3810  -30.4700   21.5640 C   0  0  0  0  0  3  0  0  0  0  0  0
  -24.8420  -28.9370   20.1490 C   0  0  0  0  0  0  0  0  0  0  0  0
  -25.9090  -30.8280   21.3850 C   0  0  0  0  0  2  0  0  0  0  0  0
  -25.9970  -29.4590   20.7430 C   0  0  0  0  0  0  0  0  0  0  0  0
  -27.1980  -28.7140   20.7350 C   0  0  0  0  0  3  0  0  0  0  0  0
  -26.0650  -26.9320   19.5340 C   0  0  0  0  0  3  0  0  0  0  0  0
  -24.8710  -27.6720   19.5460 C   0  0  0  0  0  3  0  0  0  0  0  0
  -23.5970  -29.7920   20.1860 C   0  0  0  0  0  2  0  0  0  0  0  0
  -24.6410  -31.0700   22.1120 N   0  0  0  0  0  0  0  0  0  0  0  0
  -23.4930  -32.1400   23.7480 O   0  0  0  0  0  0  0  0  0  0  0  0
  -22.7250  -29.4450   22.5180 C   0  0  0  0  0  0  0  0  0  0  0  0
  -21.4010  -29.2700   22.3860 N   0  0  0  0  0  0  0  0  0  0  0  0
  -23.4040  -28.8110   23.3300 O   0  0  0  0  0  0  0  0  0  0  0  0
  -20.9150  -29.8320   21.7000 H   0  0  0  0  0  0  0  0  0  0  0  0
  -18.0160  -28.1110   22.8810 C   0  0  0  0  0  0  0  0  0  0  0  0
  -20.5760  -28.3340   23.1490 C   0  0  0  0  0  3  0  0  0  0  0  0
  -20.6610  -26.9070   22.5560 C   0  0  0  0  0  2  0  0  0  0  0  0
  -19.5530  -26.6100   21.5420 C   0  0  0  0  0  2  0  0  0  0  0  0
  -18.1740  -26.7670   22.1890 C   0  0  0  0  0  2  0  0  0  0  0  0
  -19.1450  -28.8540   23.3170 C   0  0  0  0  0  0  0  0  0  0  0  0
  -18.9440  -30.1140   23.9200 C   0  0  0  0  0  3  0  0  0  0  0  0
  -17.6460  -30.6320   24.0930 C   0  0  0  0  0  3  0  0  0  0  0  0
  -16.5310  -29.8830   23.6770 C   0  0  0  0  0  3  0  0  0  0  0  0
  -16.7160  -28.6250   23.0780 C   0  0  0  0  0  3  0  0  0  0  0  0
  -25.8610  -32.4970   23.8430 C   0  0  0  0  0  3  0  0  0  0  0  0
  -25.5530  -33.8960   24.1710 N   0  0  0  0  0  0  0  0  0  0  0  0
  -25.8910  -34.9460   23.4110 C   0  0  0  0  0  0  0  0  0  0  0  0
  -26.5680  -34.8410   22.3850 O   0  0  0  0  0  0  0  0  0  0  0  0
  -24.9580  -34.0540   24.9710 H   0  0  0  0  0  0  0  0  0  0  0  0
  -24.1700  -36.7390   23.0360 C   0  0  0  0  0  1  0  0  0  0  0  0
  -25.4000  -36.3340   23.8630 C   0  0  0  0  0  3  0  0  0  0  0  0
  -27.5240  -37.2170   24.7230 C   0  0  0  0  0  1  0  0  0  0  0  0
  -26.4360  -37.3860   23.7640 N   0  0  0  0  0  0  0  0  0  0  0  0
  -26.0290  -38.3060   23.9050 H   0  0  0  0  0  0  0  0  0  0  0  0
  -26.3710  -31.7240   25.1210 C   0  0  1  0  0  0  0  0  0  0  0  0
  -25.2720  -31.4800   26.1810 C   0  0  0  0  0  1  0  0  0  0  0  0
  -26.9570  -30.3490   24.7270 C   0  0  0  0  0  1  0  0  0  0  0  0
  -27.5170  -32.5180   25.7910 C   0  0  0  0  0  1  0  0  0  0  0  0
  1  2  1  0
  1  3  1  0
  2  4  1  0
  4  6  1  0
  5  3  1  0
  5  6  1  0
  5 11  1  0
  6 55  1  0
  7  9  1  0
  8 10  1  0
 10 12  1  0
 11  8  1  0
 11  7  1  0
 12  9  1  0
 12 14  1  0
 12 13  1  6
 14 15  1  0
 15 16  1  0
 17 25  1  0
 18 23  1  0
 19 20  1  0
 19 18  1  0
 21 20  1  0
 21 30  1  0
 21 22  1  0
 23 17  1  0
 23 22  1  0
 24 17  2  0
 25 26  1  0
 25 16  1  0
 27 28  2  0
 28 47  1  0
 29 28  1  0
 29 32  1  0
 30 27  1  0
 30 31  1  0
 31 29  2  0
 32 33  1  0
 33 34  2  0
 35 38  1  0
 35 34  1  0
 36 35  2  0
 37 36  1  0
 37 32  2  0
 38 39  1  0
 39 40  1  0
 40 41  2  0
 42 41  1  0
 42 46  1  0
 43 42  2  0
 44 39  2  0
 44 43  1  0
 45 44  1  0
 47 48  1  0
 48 51  1  0
 48 50  1  0
 49 47  2  0
 52 53  1  0
 52 27  1  0
 54 52  1  0
 55 56  1  0
 57 68  2  0
 58 56  1  0
 58 63  1  0
 59 67  1  0
 59 69  1  0
 60 66  1  0
 60 62  1  0
 61 67  1  0
 62 61  1  0
 63 62  2  0
 64 65  1  0
 64 58  2  0
 65 60  2  0
 66 59  1  0
 67 57  1  0
 69 71  2  0
 70 69  1  0
 72 70  1  0
 73 82  2  0
 73 78  1  0
 74 70  1  0
 74 78  1  0
 75 74  1  0
 76 77  1  0
 76 75  1  0
 77 73  1  0
 78 79  2  0
 79 80  1  0
 81 80  2  0
 82 81  1  0
 83 57  1  0
 83 84  1  0
 83 93  1  0
 84 87  1  0
 85 89  1  0
 85 84  1  0
 86 85  2  0
 89 88  1  0
 91 89  1  0
 91 92  1  0
 91 90  1  0
 93 96  1  1
 93 94  1  0
 95 93  1  0
M  ISO  4  17 100  25 100  55 101  56 101
M  END
>  <TORSDO>  (92) 
F 21

>  <SCORE>  (92) 
-13.309

>  <name>  (92) 
92

>  <ligand_id>  (92) 
92

>  <original_smiles>  (92) 
[H]c1c([H])c([H])c2c(c1[H])C([H])([H])C([H])([H])C([H])([H])C2([H])N([H])C(=O)C1([H])N(C(=O)C([H])(N([H])C(=O)C([H])(N([H])C([H])([H])[H])C([H])([H])[H])C(C([H])([H])[H])(C([H])([H])[H])C([H])([H])[H])C([H])([H])c2c([H])c(OC([H])([H])C3([H])C([H])([H])C([H])([H])C([H])([H])C([H])([H])C3([H])C3([H])C([H])([H])C([H])([H])[N+]([H])(C([H])([H])C([H])([H])C([H])([H])N([H])C(=O)N4C([H])([H])C([H])([H])C([H])([H])C([H])(n5nc(-c6c([H])c([H])c(Oc7c([H])c([H])c(F)c([H])c7F)c([H])c6[H])c(C(=O)N([H])[H])c5N([H])[H])C4([H])[H])C([H])([H])C3([H])[H])c([H])c([H])c2C1([H])[H]

>  <smiles>  (92) 
[H]c1c([H])c([H])c2c(c1[H])C([H])([H])C([H])([H])C([H])([H])C2([H])N([H])C(=O)C1([H])N(C(=O)C([H])(N([H])C(=O)C([H])(N([H])C([H])([H])[H])C([H])([H])[H])C(C([H])([H])[H])(C([H])([H])[H])C([H])([H])[H])C([H])([H])c2c([H])c(OC([H])([H])C3([H])C([H])([H])C([H])([H])C([H])([H])C([H])([H])C3([H])C3([H])C([H])([H])C([H])([H])[N+]([H])(C([H])([H])C([H])([H])C([H])([H])N([H])C(=O)N4C([H])([H])C([H])([H])C([H])([H])C([H])(n5nc(-c6c([H])c([H])c(Oc7c([H])c([H])c(F)c([H])c7F)c([H])c6[H])c(C(=O)N([H])[H])c5N([H])[H])C4([H])[H])C([H])([H])C3([H])[H])c([H])c([H])c2C1([H])[H]

$$$$
93:0:0
     RDKit          3D

 95103  0  0  1  0  0  0  0  0999 V2000
  -26.9470  -18.7330   18.9960 C   0  0  0  0  0  2  0  0  0  0  0  0
  -27.8690  -17.8250   19.7870 C   0  0  0  0  0  2  0  0  0  0  0  0
  -27.7420  -20.0300   18.8240 C   0  0  0  0  0  2  0  0  0  0  0  0
  -28.5740  -18.7600   20.7650 C   0  0  0  0  0  3  0  0  0  0  0  0
  -28.7910  -20.1020   19.9670 C   0  0  0  0  0  3  0  0  0  0  0  0
  -29.7540  -18.0280   21.4890 C   0  0  0  0  0  2  0  0  0  0  0  0
  -30.7590  -14.4880   20.1050 C   0  0  0  0  0  0  0  0  0  0  0  0
  -30.3740  -12.3450   18.9270 C   0  0  0  0  0  2  0  0  0  0  0  0
  -29.3740  -12.5790   17.7730 C   0  0  0  0  0  2  0  0  0  0  0  0
  -27.9150  -12.4760   18.2710 C   0  0  0  0  0  2  0  0  0  0  0  0
  -27.6670  -13.2730   19.5810 C   0  0  0  0  0  3  0  0  0  0  0  0
  -28.7760  -13.0060   20.6270 C   0  0  0  0  0  2  0  0  0  0  0  0
  -30.0690  -13.3120   19.9990 N   0  0  0  0  0  0  0  0  0  0  0  0
  -31.8480  -14.6690   19.5390 O   0  0  0  0  0  0  0  0  0  0  0  0
  -30.4760  -16.9480   20.6770 C   0  0  0  0  0  0  0  0  0  0  0  0
  -30.0980  -15.6210   20.7580 N   0  0  0  0  0  0  0  0  0  0  0  0
  -31.5020  -17.3740   19.9130 N   0  0  0  0  0  4  0  0  0  0  0  0
  -29.2500  -15.4750   21.2790 H   0  0  0  0  0  0  0  0  0  0  0  0
  -31.7740  -18.3440   19.8510 H   0  0  0  0  0  0  0  0  0  0  0  0
  -32.0940  -16.6890   19.4500 H   0  0  0  0  0  0  0  0  0  0  0  0
  -25.3180  -13.9100   20.4160 C   0  0  0  0  0  0  0  0  0  0  0  0
  -24.2570  -13.1590   20.8430 C   0  0  0  0  0  0  0  0  0  0  0  0
  -24.6880  -11.8010   20.7670 C   0  0  0  0  0  0  0  0  0  0  0  0
  -26.3330  -13.0150   20.1200 N   0  0  0  0  0  0  0  0  0  0  0  0
  -25.9590  -11.7370   20.3850 N   0  0  0  0  0  0  0  0  0  0  0  0
  -23.9430  -10.5550   20.9800 C   0  0  0  0  0  0  0  0  0  0  0  0
  -24.4030   -9.5660   21.8780 C   0  0  0  0  0  3  0  0  0  0  0  0
  -23.6630   -8.3820   22.0800 C   0  0  0  0  0  3  0  0  0  0  0  0
  -22.4460   -8.1780   21.3860 C   0  0  0  0  0  0  0  0  0  0  0  0
  -22.0040   -9.1550   20.4790 C   0  0  0  0  0  3  0  0  0  0  0  0
  -22.7440  -10.3320   20.2730 C   0  0  0  0  0  3  0  0  0  0  0  0
  -21.6730   -7.0490   21.5010 O   0  0  0  0  0  0  0  0  0  0  0  0
  -21.6680   -6.2950   22.6480 C   0  0  0  0  0  0  0  0  0  0  0  0
  -21.3290   -6.8480   23.9000 C   0  0  0  0  0  3  0  0  0  0  0  0
  -21.2670   -6.0230   25.0410 C   0  0  0  0  0  3  0  0  0  0  0  0
  -21.5320   -4.6440   24.9290 C   0  0  0  0  0  0  0  0  0  0  0  0
  -21.8610   -4.0900   23.6800 C   0  0  0  0  0  3  0  0  0  0  0  0
  -21.9260   -4.9130   22.5430 C   0  0  0  0  0  0  0  0  0  0  0  0
  -22.2250   -4.3710   21.3390 F   0  0  0  0  0  0  0  0  0  0  0  0
  -21.4670   -3.8510   26.0230 F   0  0  0  0  0  0  0  0  0  0  0  0
  -22.8880  -13.6670   21.2000 C   0  0  0  0  0  0  0  0  0  0  0  0
  -22.1930  -12.9770   22.0940 N   0  0  0  0  0  0  0  0  0  0  0  0
  -22.4480  -14.7080   20.7160 O   0  0  0  0  0  0  0  0  0  0  0  0
  -22.5670  -12.1370   22.5140 H   0  0  0  0  0  0  0  0  0  0  0  0
  -21.2760  -13.2990   22.3710 H   0  0  0  0  0  0  0  0  0  0  0  0
  -25.4940  -15.2750   20.2250 N   0  0  0  0  0  0  0  0  0  0  0  0
  -24.7140  -15.9180   20.3080 H   0  0  0  0  0  0  0  0  0  0  0  0
  -26.2580  -15.6550   19.6840 H   0  0  0  0  0  0  0  0  0  0  0  0
  -28.6720  -21.4580   20.7690 C   0  0  0  0  0  2  0  0  0  0  0  0
  -28.7840  -22.6850   19.9040 N   0  0  0  0  0  4  0  0  0  0  0  0
  -28.1580  -22.5480   19.1260 H   0  0  0  0  0  0  0  0  0  0  0  0
  -29.7210  -22.7130   19.5310 H   0  0  0  0  0  0  0  0  0  0  0  0
  -28.4710  -24.0210   20.5290 C   0  0  0  0  0  2  0  0  0  0  0  0
  -28.5520  -25.2330   19.5270 C   0  0  0  0  0  2  0  0  0  0  0  0
  -28.4290  -26.5800   20.0820 O   0  0  0  0  0  0  0  0  0  0  0  0
  -24.5260  -31.7660   23.1070 C   0  0  0  0  0  0  0  0  0  0  0  0
  -27.2440  -27.3120   20.0360 C   0  0  0  0  0  0  0  0  0  0  0  0
  -23.3600  -30.3640   21.4420 C   0  0  0  0  0  3  0  0  0  0  0  0
  -24.8420  -28.8490   20.0210 C   0  0  0  0  0  0  0  0  0  0  0  0
  -25.8890  -30.7300   21.2860 C   0  0  0  0  0  2  0  0  0  0  0  0
  -25.9920  -29.3620   20.6310 C   0  0  0  0  0  0  0  0  0  0  0  0
  -27.1920  -28.6030   20.6290 C   0  0  0  0  0  3  0  0  0  0  0  0
  -26.0630  -26.8220   19.4290 C   0  0  0  0  0  3  0  0  0  0  0  0
  -24.8750  -27.5800   19.4190 C   0  0  0  0  0  3  0  0  0  0  0  0
  -23.5930  -29.7020   20.0580 C   0  0  0  0  0  2  0  0  0  0  0  0
  -24.6090  -30.9720   22.0020 N   0  0  0  0  0  0  0  0  0  0  0  0
  -23.4330  -32.0220   23.6320 O   0  0  0  0  0  0  0  0  0  0  0  0
  -22.7040  -29.3280   22.3840 C   0  0  0  0  0  0  0  0  0  0  0  0
  -21.3790  -29.1450   22.2480 N   0  0  0  0  0  0  0  0  0  0  0  0
  -23.3840  -28.6920   23.1930 O   0  0  0  0  0  0  0  0  0  0  0  0
  -20.8910  -29.7060   21.5650 H   0  0  0  0  0  0  0  0  0  0  0  0
  -18.0060  -27.9360   22.7180 C   0  0  0  0  0  0  0  0  0  0  0  0
  -20.5620  -28.1940   23.0020 C   0  0  0  0  0  3  0  0  0  0  0  0
  -20.6710  -26.7730   22.4000 C   0  0  0  0  0  2  0  0  0  0  0  0
  -19.5710  -26.4650   21.3780 C   0  0  0  0  0  2  0  0  0  0  0  0
  -18.1870  -26.5980   22.0190 C   0  0  0  0  0  2  0  0  0  0  0  0
  -19.1220  -28.6920   23.1650 C   0  0  0  0  0  0  0  0  0  0  0  0
  -18.8990  -29.9450   23.7760 C   0  0  0  0  0  3  0  0  0  0  0  0
  -17.5930  -30.4420   23.9460 C   0  0  0  0  0  3  0  0  0  0  0  0
  -16.4910  -29.6810   23.5190 C   0  0  0  0  0  3  0  0  0  0  0  0
  -16.6990  -28.4300   22.9100 C   0  0  0  0  0  3  0  0  0  0  0  0
  -25.7920  -32.4070   23.7520 C   0  0  0  0  0  3  0  0  0  0  0  0
  -25.4580  -33.7920   24.1080 N   0  0  0  0  0  0  0  0  0  0  0  0
  -25.7740  -34.8650   23.3720 C   0  0  0  0  0  0  0  0  0  0  0  0
  -26.4480  -34.7950   22.3410 O   0  0  0  0  0  0  0  0  0  0  0  0
  -24.8610  -33.9210   24.9120 H   0  0  0  0  0  0  0  0  0  0  0  0
  -24.0090  -36.6270   23.0480 C   0  0  0  0  0  1  0  0  0  0  0  0
  -25.2580  -36.2360   23.8550 C   0  0  0  0  0  3  0  0  0  0  0  0
  -27.3750  -37.1450   24.7030 C   0  0  0  0  0  1  0  0  0  0  0  0
  -26.2690  -37.3110   23.7630 N   0  0  0  0  0  0  0  0  0  0  0  0
  -25.8450  -38.2210   23.9270 H   0  0  0  0  0  0  0  0  0  0  0  0
  -26.3130  -31.6200   25.0170 C   0  0  1  0  0  0  0  0  0  0  0  0
  -25.2160  -31.3460   26.0720 C   0  0  0  0  0  1  0  0  0  0  0  0
  -26.9200  -30.2610   24.6010 C   0  0  0  0  0  1  0  0  0  0  0  0
  -27.4490  -32.4190   25.7000 C   0  0  0  0  0  1  0  0  0  0  0  0
  1  2  1  0
  2  4  1  0
  3  1  1  0
  3  5  1  0
  4  6  1  0
  5  4  1  0
  5 49  1  0
  7 16  1  0
  8 13  1  0
  9 10  1  0
  9  8  1  0
 11 10  1  0
 11 24  1  0
 11 12  1  0
 13  7  1  0
 13 12  1  0
 14  7  2  0
 15 16  1  0
 15  6  1  0
 16 18  1  0
 17 15  2  0
 19 17  1  0
 20 17  1  0
 21 22  2  0
 22 41  1  0
 23 22  1  0
 23 26  1  0
 24 25  1  0
 24 21  1  0
 25 23  2  0
 26 27  1  0
 27 28  2  0
 29 32  1  0
 29 28  1  0
 30 29  2  0
 31 30  1  0
 31 26  2  0
 32 33  1  0
 33 34  1  0
 34 35  2  0
 36 35  1  0
 36 40  1  0
 37 36  2  0
 38 33  2  0
 38 37  1  0
 39 38  1  0
 41 42  1  0
 42 45  1  0
 42 44  1  0
 43 41  2  0
 46 47  1  0
 46 21  1  0
 48 46  1  0
 50 53  1  0
 50 49  1  0
 51 50  1  0
 52 50  1  0
 54 55  1  0
 54 53  1  0
 56 67  2  0
 57 55  1  0
 57 62  1  0
 58 66  1  0
 58 68  1  0
 59 65  1  0
 59 61  1  0
 60 66  1  0
 61 60  1  0
 62 61  2  0
 63 57  2  0
 64 63  1  0
 64 59  2  0
 65 58  1  0
 66 56  1  0
 68 70  2  0
 69 68  1  0
 71 69  1  0
 72 81  2  0
 72 77  1  0
 73 69  1  0
 73 77  1  0
 74 73  1  0
 75 76  1  0
 75 74  1  0
 76 72  1  0
 77 78  2  0
 78 79  1  0
 80 79  2  0
 81 80  1  0
 82 56  1  0
 82 83  1  0
 82 92  1  0
 83 86  1  0
 84 88  1  0
 84 83  1  0
 85 84  2  0
 88 87  1  0
 90 88  1  0
 90 91  1  0
 90 89  1  0
 92 95  1  1
 92 93  1  0
 94 92  1  0
M  ISO  4   7 100  16 100  54 101  55 101
M  END
>  <TORSDO>  (93) 
F 21

>  <SCORE>  (93) 
-13.113

>  <name>  (93) 
93

>  <ligand_id>  (93) 
93

>  <original_smiles>  (93) 
[H]c1c([H])c([H])c2c(c1[H])C([H])([H])C([H])([H])C([H])([H])C2([H])N([H])C(=O)C1([H])N(C(=O)C([H])(N([H])C(=O)C([H])(N([H])C([H])([H])[H])C([H])([H])[H])C(C([H])([H])[H])(C([H])([H])[H])C([H])([H])[H])C([H])([H])c2c([H])c(OC([H])([H])C([H])([H])[N+]([H])([H])C([H])([H])C3([H])C([H])([H])C([H])([H])C([H])([H])C3([H])C([H])([H])C(N([H])C(=O)N3C([H])([H])C([H])([H])C([H])([H])C([H])(n4nc(-c5c([H])c([H])c(Oc6c([H])c([H])c(F)c([H])c6F)c([H])c5[H])c(C(=O)N([H])[H])c4N([H])[H])C3([H])[H])=[N+]([H])[H])c([H])c([H])c2C1([H])[H]

>  <smiles>  (93) 
[H]c1c([H])c([H])c2c(c1[H])C([H])([H])C([H])([H])C([H])([H])C2([H])N([H])C(=O)C1([H])N(C(=O)C([H])(N([H])C(=O)C([H])(N([H])C([H])([H])[H])C([H])([H])[H])C(C([H])([H])[H])(C([H])([H])[H])C([H])([H])[H])C([H])([H])c2c([H])c(OC([H])([H])C([H])([H])[N+]([H])([H])C([H])([H])C3([H])C([H])([H])C([H])([H])C([H])([H])C3([H])C([H])([H])C(N([H])C(=O)N3C([H])([H])C([H])([H])C([H])([H])C([H])(n4nc(-c5c([H])c([H])c(Oc6c([H])c([H])c(F)c([H])c6F)c([H])c5[H])c(C(=O)N([H])[H])c4N([H])[H])C3([H])[H])=[N+]([H])[H])c([H])c([H])c2C1([H])[H]

$$$$
94:0:0
     RDKit          3D

 92100  0  0  1  0  0  0  0  0999 V2000
  -29.6900  -21.9380   21.1270 C   0  0  0  0  0  2  0  0  0  0  0  0
  -32.2790  -19.3690   19.8630 C   0  0  0  0  0  3  0  0  0  0  0  0
  -31.6090  -18.1400   20.0430 C   0  0  0  0  0  3  0  0  0  0  0  0
  -31.6500  -20.5890   20.1800 C   0  0  0  0  0  3  0  0  0  0  0  0
  -29.6540  -19.3540   20.8260 C   0  0  0  0  0  3  0  0  0  0  0  0
  -30.2840  -18.1090   20.5230 C   0  0  0  0  0  0  0  0  0  0  0  0
  -30.3250  -20.6020   20.6700 C   0  0  0  0  0  0  0  0  0  0  0  0
  -29.4800  -16.7850   20.5970 C   0  0  0  0  0  2  0  0  0  0  0  0
  -30.6600  -14.5410   20.4360 C   0  0  0  0  0  0  0  0  0  0  0  0
  -30.3730  -12.3570   19.3140 C   0  0  0  0  0  2  0  0  0  0  0  0
  -29.4440  -12.5620   18.0970 C   0  0  0  0  0  2  0  0  0  0  0  0
  -27.9620  -12.4390   18.5030 C   0  0  0  0  0  2  0  0  0  0  0  0
  -27.6200  -13.2710   19.7700 C   0  0  0  0  0  3  0  0  0  0  0  0
  -28.6670  -13.0450   20.8880 C   0  0  0  0  0  2  0  0  0  0  0  0
  -30.0060  -13.3430   20.3460 N   0  0  0  0  0  0  0  0  0  0  0  0
  -31.7260  -14.7520   19.8540 O   0  0  0  0  0  0  0  0  0  0  0  0
  -30.0380  -15.5160   21.1380 N   0  0  0  0  0  0  0  0  0  0  0  0
  -29.4330  -15.1250   21.8430 H   0  0  0  0  0  0  0  0  0  0  0  0
  -25.2140  -13.8880   20.4560 C   0  0  0  0  0  0  0  0  0  0  0  0
  -24.1430  -13.1230   20.8280 C   0  0  0  0  0  0  0  0  0  0  0  0
  -24.6000  -11.7690   20.8100 C   0  0  0  0  0  0  0  0  0  0  0  0
  -26.2610  -13.0050   20.2400 N   0  0  0  0  0  0  0  0  0  0  0  0
  -25.8930  -11.7260   20.5090 N   0  0  0  0  0  0  0  0  0  0  0  0
  -23.8660  -10.5110   21.0080 C   0  0  0  0  0  0  0  0  0  0  0  0
  -24.2970   -9.5460   21.9460 C   0  0  0  0  0  3  0  0  0  0  0  0
  -23.5650   -8.3530   22.1340 C   0  0  0  0  0  3  0  0  0  0  0  0
  -22.3880   -8.1170   21.3840 C   0  0  0  0  0  0  0  0  0  0  0  0
  -21.9750   -9.0730   20.4360 C   0  0  0  0  0  3  0  0  0  0  0  0
  -22.7080  -10.2560   20.2480 C   0  0  0  0  0  3  0  0  0  0  0  0
  -21.6280   -6.9770   21.4800 O   0  0  0  0  0  0  0  0  0  0  0  0
  -21.5870   -6.2310   22.6310 C   0  0  0  0  0  0  0  0  0  0  0  0
  -21.1870   -6.7880   23.8660 C   0  0  0  0  0  3  0  0  0  0  0  0
  -21.0950   -5.9690   25.0090 C   0  0  0  0  0  3  0  0  0  0  0  0
  -21.3920   -4.5970   24.9190 C   0  0  0  0  0  0  0  0  0  0  0  0
  -21.7830   -4.0390   23.6890 C   0  0  0  0  0  3  0  0  0  0  0  0
  -21.8780   -4.8540   22.5480 C   0  0  0  0  0  0  0  0  0  0  0  0
  -22.2370   -4.3100   21.3600 F   0  0  0  0  0  0  0  0  0  0  0  0
  -21.2940   -3.8080   26.0150 F   0  0  0  0  0  0  0  0  0  0  0  0
  -22.7450  -13.6080   21.0900 C   0  0  0  0  0  0  0  0  0  0  0  0
  -22.0110  -12.9250   21.9600 N   0  0  0  0  0  0  0  0  0  0  0  0
  -22.3130  -14.6280   20.5550 O   0  0  0  0  0  0  0  0  0  0  0  0
  -22.3760  -12.1030   22.4170 H   0  0  0  0  0  0  0  0  0  0  0  0
  -21.0700  -13.2300   22.1710 H   0  0  0  0  0  0  0  0  0  0  0  0
  -25.3790  -15.2570   20.2690 N   0  0  0  0  0  0  0  0  0  0  0  0
  -24.6010  -15.9020   20.3610 H   0  0  0  0  0  0  0  0  0  0  0  0
  -26.2300  -15.7030   19.9540 H   0  0  0  0  0  0  0  0  0  0  0  0
  -29.5380  -22.9980   20.0810 N   0  0  0  0  0  4  0  0  0  0  0  0
  -30.3400  -22.9520   19.4720 H   0  0  0  0  0  0  0  0  0  0  0  0
  -28.7370  -22.7620   19.5180 H   0  0  0  0  0  0  0  0  0  0  0  0
  -29.4110  -24.4100   20.5870 C   0  0  0  0  0  2  0  0  0  0  0  0
  -28.4140  -25.2920   19.7760 C   0  0  0  0  0  2  0  0  0  0  0  0
  -28.4030  -26.6840   20.1840 O   0  0  0  0  0  0  0  0  0  0  0  0
  -24.5920  -31.8910   23.2290 C   0  0  0  0  0  0  0  0  0  0  0  0
  -27.2220  -27.4160   20.1390 C   0  0  0  0  0  0  0  0  0  0  0  0
  -23.3780  -30.4930   21.5900 C   0  0  0  0  0  3  0  0  0  0  0  0
  -24.8260  -28.9540   20.1540 C   0  0  0  0  0  0  0  0  0  0  0  0
  -25.9070  -30.8390   21.3850 C   0  0  0  0  0  2  0  0  0  0  0  0
  -25.9870  -29.4650   20.7460 C   0  0  0  0  0  0  0  0  0  0  0  0
  -27.1820  -28.7040   20.7380 C   0  0  0  0  0  3  0  0  0  0  0  0
  -26.0360  -26.9390   19.5250 C   0  0  0  0  0  3  0  0  0  0  0  0
  -24.8490  -27.6920   19.5400 C   0  0  0  0  0  3  0  0  0  0  0  0
  -23.5820  -29.8140   20.2090 C   0  0  0  0  0  2  0  0  0  0  0  0
  -24.6440  -31.0880   22.1280 N   0  0  0  0  0  0  0  0  0  0  0  0
  -23.5130  -32.1650   23.7730 O   0  0  0  0  0  0  0  0  0  0  0  0
  -22.7270  -29.4730   22.5510 C   0  0  0  0  0  0  0  0  0  0  0  0
  -21.4000  -29.2950   22.4290 N   0  0  0  0  0  0  0  0  0  0  0  0
  -23.4110  -28.8420   23.3640 O   0  0  0  0  0  0  0  0  0  0  0  0
  -20.9100  -29.8530   21.7430 H   0  0  0  0  0  0  0  0  0  0  0  0
  -18.0250  -28.1150   22.9390 C   0  0  0  0  0  0  0  0  0  0  0  0
  -20.5830  -28.3580   23.2010 C   0  0  0  0  0  3  0  0  0  0  0  0
  -20.6770  -26.9300   22.6180 C   0  0  0  0  0  2  0  0  0  0  0  0
  -19.5690  -26.6180   21.6070 C   0  0  0  0  0  2  0  0  0  0  0  0
  -18.1900  -26.7670   22.2570 C   0  0  0  0  0  2  0  0  0  0  0  0
  -19.1480  -28.8690   23.3680 C   0  0  0  0  0  0  0  0  0  0  0  0
  -18.9390  -30.1330   23.9630 C   0  0  0  0  0  3  0  0  0  0  0  0
  -17.6390  -30.6420   24.1320 C   0  0  0  0  0  3  0  0  0  0  0  0
  -16.5290  -29.8850   23.7200 C   0  0  0  0  0  3  0  0  0  0  0  0
  -16.7220  -28.6230   23.1300 C   0  0  0  0  0  3  0  0  0  0  0  0
  -25.8810  -32.5170   23.8470 C   0  0  0  0  0  3  0  0  0  0  0  0
  -25.5770  -33.9140   24.1800 N   0  0  0  0  0  0  0  0  0  0  0  0
  -25.9130  -34.9690   23.4240 C   0  0  0  0  0  0  0  0  0  0  0  0
  -26.5820  -34.8650   22.3930 O   0  0  0  0  0  0  0  0  0  0  0  0
  -24.9780  -34.0690   24.9790 H   0  0  0  0  0  0  0  0  0  0  0  0
  -24.1870  -36.7650   23.0710 C   0  0  0  0  0  1  0  0  0  0  0  0
  -25.4260  -36.3580   23.8840 C   0  0  0  0  0  3  0  0  0  0  0  0
  -27.5640  -37.2320   24.7140 C   0  0  0  0  0  1  0  0  0  0  0  0
  -26.4620  -37.4080   23.7720 N   0  0  0  0  0  0  0  0  0  0  0  0
  -26.0610  -38.3300   23.9220 H   0  0  0  0  0  0  0  0  0  0  0  0
  -26.4000  -31.7410   25.1200 C   0  0  1  0  0  0  0  0  0  0  0  0
  -25.3080  -31.5050   26.1890 C   0  0  0  0  0  1  0  0  0  0  0  0
  -26.9750  -30.3640   24.7170 C   0  0  0  0  0  1  0  0  0  0  0  0
  -27.5530  -32.5300   25.7800 C   0  0  0  0  0  1  0  0  0  0  0  0
  2  3  2  0
  2  4  1  0
  3  6  1  0
  4  7  2  0
  6  8  1  0
  6  5  2  0
  7  5  1  0
  7  1  1  0
  8 17  1  0
  9 17  1  0
 10 15  1  0
 11 12  1  0
 11 10  1  0
 13 12  1  0
 13 22  1  0
 13 14  1  0
 15  9  1  0
 15 14  1  0
 16  9  2  0
 17 18  1  0
 19 20  2  0
 20 39  1  0
 21 20  1  0
 21 24  1  0
 22 19  1  0
 22 23  1  0
 23 21  2  0
 24 25  1  0
 25 26  2  0
 27 30  1  0
 27 26  1  0
 28 27  2  0
 29 28  1  0
 29 24  2  0
 30 31  1  0
 31 32  1  0
 32 33  2  0
 34 33  1  0
 34 38  1  0
 35 34  2  0
 36 31  2  0
 36 35  1  0
 37 36  1  0
 39 40  1  0
 40 43  1  0
 40 42  1  0
 41 39  2  0
 44 45  1  0
 44 19  1  0
 46 44  1  0
 47 50  1  0
 47  1  1  0
 48 47  1  0
 49 47  1  0
 51 52  1  0
 51 50  1  0
 53 64  2  0
 54 52  1  0
 54 59  1  0
 55 63  1  0
 55 65  1  0
 56 62  1  0
 56 58  1  0
 57 63  1  0
 58 57  1  0
 59 58  2  0
 60 61  1  0
 60 54  2  0
 61 56  2  0
 62 55  1  0
 63 53  1  0
 65 67  2  0
 66 65  1  0
 68 66  1  0
 69 78  2  0
 69 74  1  0
 70 66  1  0
 70 74  1  0
 71 70  1  0
 72 73  1  0
 72 71  1  0
 73 69  1  0
 74 75  2  0
 75 76  1  0
 77 76  2  0
 78 77  1  0
 79 53  1  0
 79 80  1  0
 79 89  1  0
 80 83  1  0
 81 85  1  0
 81 80  1  0
 82 81  2  0
 85 84  1  0
 87 85  1  0
 87 88  1  0
 87 86  1  0
 89 92  1  1
 89 90  1  0
 91 89  1  0
M  ISO  4   9 100  17 100  51 101  52 101
M  END
>  <TORSDO>  (94) 
F 21

>  <SCORE>  (94) 
-13.521

>  <name>  (94) 
94

>  <ligand_id>  (94) 
94

>  <original_smiles>  (94) 
[H]c1c([H])c([H])c2c(c1[H])C([H])([H])C([H])([H])C([H])([H])C2([H])N([H])C(=O)C1([H])N(C(=O)C([H])(N([H])C(=O)C([H])(N([H])C([H])([H])[H])C([H])([H])[H])C(C([H])([H])[H])(C([H])([H])[H])C([H])([H])[H])C([H])([H])c2c([H])c(OC([H])([H])C([H])([H])[N+]([H])([H])C([H])([H])c3c([H])c([H])c([H])c(C([H])([H])N([H])C(=O)N4C([H])([H])C([H])([H])C([H])([H])C([H])(n5nc(-c6c([H])c([H])c(Oc7c([H])c([H])c(F)c([H])c7F)c([H])c6[H])c(C(=O)N([H])[H])c5N([H])[H])C4([H])[H])c3[H])c([H])c([H])c2C1([H])[H]

>  <smiles>  (94) 
[H]c1c([H])c([H])c2c(c1[H])C([H])([H])C([H])([H])C([H])([H])C2([H])N([H])C(=O)C1([H])N(C(=O)C([H])(N([H])C(=O)C([H])(N([H])C([H])([H])[H])C([H])([H])[H])C(C([H])([H])[H])(C([H])([H])[H])C([H])([H])[H])C([H])([H])c2c([H])c(OC([H])([H])C([H])([H])[N+]([H])([H])C([H])([H])c3c([H])c([H])c([H])c(C([H])([H])N([H])C(=O)N4C([H])([H])C([H])([H])C([H])([H])C([H])(n5nc(-c6c([H])c([H])c(Oc7c([H])c([H])c(F)c([H])c7F)c([H])c6[H])c(C(=O)N([H])[H])c5N([H])[H])C4([H])[H])c3[H])c([H])c([H])c2C1([H])[H]

$$$$
95:0:0
     RDKit          3D

 91100  0  0  1  0  0  0  0  0999 V2000
  -28.8160  -22.3070   20.0210 N   0  0  0  0  0  4  0  0  0  0  0  0
  -28.2750  -22.1000   20.8460 H   0  0  0  0  0  0  0  0  0  0  0  0
  -28.1870  -22.2160   19.2370 H   0  0  0  0  0  0  0  0  0  0  0  0
  -29.8670  -21.1940   19.8680 C   0  0  0  0  0  2  0  0  0  0  0  0
  -30.8490  -14.8750   19.8400 C   0  0  0  0  0  0  0  0  0  0  0  0
  -30.5620  -12.6050   18.8100 C   0  0  0  0  0  2  0  0  0  0  0  0
  -29.5050  -12.6290   17.6850 C   0  0  0  0  0  2  0  0  0  0  0  0
  -28.0900  -12.4130   18.2560 C   0  0  0  0  0  2  0  0  0  0  0  0
  -27.8200  -13.2810   19.5140 C   0  0  0  0  0  3  0  0  0  0  0  0
  -28.9940  -13.1880   20.5170 C   0  0  0  0  0  2  0  0  0  0  0  0
  -30.1850  -13.6550   19.7940 N   0  0  0  0  0  0  0  0  0  0  0  0
  -32.0220  -14.8790   19.4530 O   0  0  0  0  0  0  0  0  0  0  0  0
  -28.6430  -17.6580   21.4340 C   0  0  0  0  0  2  0  0  0  0  0  0
  -31.0120  -18.2190   21.1750 C   0  0  0  0  0  2  0  0  0  0  0  0
  -30.1990  -18.5900   18.9790 C   0  0  0  0  0  2  0  0  0  0  0  0
  -28.8180  -16.4400   20.4540 C   0  0  0  0  0  2  0  0  0  0  0  0
  -29.6190  -18.8590   21.2490 C   0  0  0  0  0  3  0  0  0  0  0  0
  -29.4180  -19.6210   19.9020 C   0  0  0  0  0  3  0  0  0  0  0  0
  -30.9210  -17.4660   19.8460 C   0  0  0  0  0  3  0  0  0  0  0  0
  -30.2130  -16.1270   20.0450 N   0  0  0  0  0  0  0  0  0  0  0  0
  -25.5280  -13.8380   20.5230 C   0  0  0  0  0  0  0  0  0  0  0  0
  -24.4990  -13.0470   20.9500 C   0  0  0  0  0  0  0  0  0  0  0  0
  -24.9400  -11.6990   20.7810 C   0  0  0  0  0  0  0  0  0  0  0  0
  -26.5340  -12.9720   20.1270 N   0  0  0  0  0  0  0  0  0  0  0  0
  -26.1930  -11.6750   20.3400 N   0  0  0  0  0  0  0  0  0  0  0  0
  -24.2220  -10.4320   20.9560 C   0  0  0  0  0  0  0  0  0  0  0  0
  -24.6700   -9.4500   21.8670 C   0  0  0  0  0  3  0  0  0  0  0  0
  -23.9520   -8.2470   22.0330 C   0  0  0  0  0  3  0  0  0  0  0  0
  -22.7710   -8.0180   21.2880 C   0  0  0  0  0  0  0  0  0  0  0  0
  -22.3410   -8.9880   20.3670 C   0  0  0  0  0  3  0  0  0  0  0  0
  -23.0610  -10.1830   20.1980 C   0  0  0  0  0  3  0  0  0  0  0  0
  -22.0210   -6.8680   21.3660 O   0  0  0  0  0  0  0  0  0  0  0  0
  -21.9010   -6.1670   22.5390 C   0  0  0  0  0  0  0  0  0  0  0  0
  -21.3600   -6.7520   23.7040 C   0  0  0  0  0  3  0  0  0  0  0  0
  -21.1890   -5.9750   24.8680 C   0  0  0  0  0  3  0  0  0  0  0  0
  -21.5490   -4.6130   24.8650 C   0  0  0  0  0  0  0  0  0  0  0  0
  -22.0820   -4.0280   23.7030 C   0  0  0  0  0  3  0  0  0  0  0  0
  -22.2540   -4.8030   22.5420 C   0  0  0  0  0  0  0  0  0  0  0  0
  -22.7490   -4.2280   21.4190 F   0  0  0  0  0  0  0  0  0  0  0  0
  -21.3770   -3.8640   25.9790 F   0  0  0  0  0  0  0  0  0  0  0  0
  -23.1420  -13.5130   21.3970 C   0  0  0  0  0  0  0  0  0  0  0  0
  -22.5080  -12.7750   22.3010 N   0  0  0  0  0  0  0  0  0  0  0  0
  -22.6580  -14.5650   20.9790 O   0  0  0  0  0  0  0  0  0  0  0  0
  -22.9150  -11.9230   22.6590 H   0  0  0  0  0  0  0  0  0  0  0  0
  -21.6030  -13.0670   22.6420 H   0  0  0  0  0  0  0  0  0  0  0  0
  -25.6790  -15.2170   20.4140 N   0  0  0  0  0  0  0  0  0  0  0  0
  -24.9260  -15.8580   20.6450 H   0  0  0  0  0  0  0  0  0  0  0  0
  -26.4870  -15.6790   20.0210 H   0  0  0  0  0  0  0  0  0  0  0  0
  -29.2540  -23.7920   20.1020 C   0  0  0  0  0  3  0  0  0  0  0  0
  -28.1220  -24.9430   19.9420 C   0  0  0  0  0  3  0  0  0  0  0  0
  -28.3800  -26.4160   20.1540 O   0  0  0  0  0  0  0  0  0  0  0  0
  -24.6940  -31.8700   23.2490 C   0  0  0  0  0  0  0  0  0  0  0  0
  -27.2840  -27.3150   20.1140 C   0  0  0  0  0  0  0  0  0  0  0  0
  -23.4880  -30.5050   21.5860 C   0  0  0  0  0  3  0  0  0  0  0  0
  -24.9330  -28.9750   20.1320 C   0  0  0  0  0  0  0  0  0  0  0  0
  -26.0330  -30.8070   21.4110 C   0  0  0  0  0  2  0  0  0  0  0  0
  -26.1080  -29.4370   20.7370 C   0  0  0  0  0  0  0  0  0  0  0  0
  -27.2870  -28.6210   20.7140 C   0  0  0  0  0  3  0  0  0  0  0  0
  -26.0800  -26.9260   19.4800 C   0  0  0  0  0  3  0  0  0  0  0  0
  -24.9240  -27.7290   19.4920 C   0  0  0  0  0  3  0  0  0  0  0  0
  -23.7010  -29.8570   20.1950 C   0  0  0  0  0  2  0  0  0  0  0  0
  -24.7580  -31.0780   22.1390 N   0  0  0  0  0  0  0  0  0  0  0  0
  -23.6110  -32.1430   23.7860 O   0  0  0  0  0  0  0  0  0  0  0  0
  -22.8200  -29.4740   22.5280 C   0  0  0  0  0  0  0  0  0  0  0  0
  -21.4980  -29.2830   22.3800 N   0  0  0  0  0  0  0  0  0  0  0  0
  -23.4920  -28.8490   23.3540 O   0  0  0  0  0  0  0  0  0  0  0  0
  -21.0130  -29.8390   21.6890 H   0  0  0  0  0  0  0  0  0  0  0  0
  -18.1230  -28.0530   22.8310 C   0  0  0  0  0  0  0  0  0  0  0  0
  -20.6770  -28.3300   23.1310 C   0  0  0  0  0  3  0  0  0  0  0  0
  -20.7960  -26.9060   22.5420 C   0  0  0  0  0  2  0  0  0  0  0  0
  -19.7080  -26.5840   21.5130 C   0  0  0  0  0  2  0  0  0  0  0  0
  -18.3180  -26.7120   22.1430 C   0  0  0  0  0  2  0  0  0  0  0  0
  -19.2310  -28.8190   23.2810 C   0  0  0  0  0  0  0  0  0  0  0  0
  -18.9950  -30.0740   23.8850 C   0  0  0  0  0  3  0  0  0  0  0  0
  -17.6840  -30.5620   24.0430 C   0  0  0  0  0  3  0  0  0  0  0  0
  -16.5910  -29.7920   23.6090 C   0  0  0  0  0  3  0  0  0  0  0  0
  -16.8110  -28.5390   23.0100 C   0  0  0  0  0  3  0  0  0  0  0  0
  -25.9770  -32.4910   23.8830 C   0  0  0  0  0  3  0  0  0  0  0  0
  -26.4670  -31.7200   25.1700 C   0  0  1  0  0  0  0  0  0  0  0  0
  -25.3560  -31.5010   26.2240 C   0  0  0  0  0  1  0  0  0  0  0  0
  -27.0390  -30.3340   24.7950 C   0  0  0  0  0  1  0  0  0  0  0  0
  -27.6180  -32.5050   25.8420 C   0  0  0  0  0  1  0  0  0  0  0  0
  -25.6810  -33.8950   24.2030 N   0  0  0  0  0  0  0  0  0  0  0  0
  -25.9850  -34.9360   23.4170 C   0  0  0  0  0  0  0  0  0  0  0  0
  -26.6130  -34.8170   22.3610 O   0  0  0  0  0  0  0  0  0  0  0  0
  -25.1190  -34.0610   25.0250 H   0  0  0  0  0  0  0  0  0  0  0  0
  -24.2240  -36.7120   23.1350 C   0  0  0  0  0  1  0  0  0  0  0  0
  -25.5190  -36.3330   23.8730 C   0  0  0  0  0  3  0  0  0  0  0  0
  -27.6910  -37.2550   24.5510 C   0  0  0  0  0  1  0  0  0  0  0  0
  -26.5340  -37.3890   23.6690 N   0  0  0  0  0  0  0  0  0  0  0  0
  -26.1300  -38.3110   23.8130 H   0  0  0  0  0  0  0  0  0  0  0  0
  1 49  1  0
  1  2  1  0
  3  1  1  0
  4  1  1  0
  5 20  1  0
  6 11  1  0
  7  8  1  0
  7  6  1  0
  9  8  1  0
  9 24  1  0
  9 10  1  0
 11  5  1  0
 11 10  1  0
 12  5  2  0
 15 18  1  0
 16 13  1  0
 17 14  1  0
 17 13  1  0
 18  4  1  0
 18 17  1  0
 19 15  1  0
 19 20  1  0
 19 14  1  0
 20 16  1  0
 21 22  2  0
 22 41  1  0
 23 22  1  0
 23 26  1  0
 24 25  1  0
 24 21  1  0
 25 23  2  0
 26 27  1  0
 27 28  2  0
 29 32  1  0
 29 28  1  0
 30 29  2  0
 31 30  1  0
 31 26  2  0
 32 33  1  0
 33 38  2  0
 33 34  1  0
 34 35  2  0
 36 35  1  0
 36 40  1  0
 37 36  2  0
 38 37  1  0
 39 38  1  0
 41 42  1  0
 42 45  1  0
 42 44  1  0
 43 41  2  0
 46 21  1  0
 46 47  1  0
 48 46  1  0
 50 49  2  0
 50 51  1  0
 52 63  2  0
 53 51  1  0
 53 58  1  0
 54 62  1  0
 54 64  1  0
 55 61  1  0
 55 57  1  0
 56 62  1  0
 57 56  1  0
 58 57  2  0
 59 60  1  0
 59 53  2  0
 60 55  2  0
 61 54  1  0
 62 52  1  0
 64 66  2  0
 65 64  1  0
 67 65  1  0
 68 77  2  0
 68 73  1  0
 69 65  1  0
 69 73  1  0
 70 69  1  0
 71 72  1  0
 71 70  1  0
 72 68  1  0
 73 74  2  0
 74 75  1  0
 76 75  2  0
 77 76  1  0
 78 52  1  0
 78 83  1  0
 78 79  1  0
 79 82  1  1
 79 80  1  0
 81 79  1  0
 83 86  1  0
 84 88  1  0
 84 83  1  0
 85 84  2  0
 88 87  1  0
 90 91  1  0
 90 88  1  0
 90 89  1  0
M  ISO  4   5 100  20 100  50 101  51 101
M  END
>  <TORSDO>  (95) 
F 19

>  <SCORE>  (95) 
-12.613

>  <name>  (95) 
95

>  <ligand_id>  (95) 
95

>  <original_smiles>  (95) 
[H]c1c([H])c([H])c2c(c1[H])C([H])([H])C([H])([H])C([H])([H])C2([H])N([H])C(=O)C1([H])N(C(=O)C([H])(N([H])C(=O)C([H])(N([H])C([H])([H])[H])C([H])([H])[H])C(C([H])([H])[H])(C([H])([H])[H])C([H])([H])[H])C([H])([H])c2c([H])c(OC([H])([H])C([H])([H])[N+]([H])([H])C([H])([H])C3([H])C([H])([H])C4([H])N(C(=O)N5C([H])([H])C([H])([H])C([H])([H])C([H])(n6nc(-c7c([H])c([H])c(Oc8c([H])c([H])c(F)c([H])c8F)c([H])c7[H])c(C(=O)N([H])[H])c6N([H])[H])C5([H])[H])C([H])([H])C([H])([H])C3([H])C4([H])[H])c([H])c([H])c2C1([H])[H]

>  <smiles>  (95) 
[H]c1c([H])c([H])c2c(c1[H])C([H])([H])C([H])([H])C([H])([H])C2([H])N([H])C(=O)C1([H])N(C(=O)C([H])(N([H])C(=O)C([H])(N([H])C([H])([H])[H])C([H])([H])[H])C(C([H])([H])[H])(C([H])([H])[H])C([H])([H])[H])C([H])([H])c2c([H])c(OC([H])([H])C([H])([H])[N+]([H])([H])C([H])([H])C3([H])C([H])([H])C4([H])N(C(=O)N5C([H])([H])C([H])([H])C([H])([H])C([H])(n6nc(-c7c([H])c([H])c(Oc8c([H])c([H])c(F)c([H])c8F)c([H])c7[H])c(C(=O)N([H])[H])c6N([H])[H])C5([H])[H])C([H])([H])C([H])([H])C3([H])C4([H])[H])c([H])c([H])c2C1([H])[H]

$$$$
