0:0:0
     RDKit          3D

 99109  0  0  1  0  0  0  0  0999 V2000
  -28.4850  -23.5310   23.6770 C   0  0  0  0  0  2  0  0  0  0  0  0
  -29.4790  -22.6100   22.9790 C   0  0  0  0  0  2  0  0  0  0  0  0
  -29.5070  -23.9300   20.9460 C   0  0  0  0  0  2  0  0  0  0  0  0
  -28.5050  -24.9790   23.1420 C   0  0  0  0  0  3  0  0  0  0  0  0
  -28.6860  -25.1060   21.5880 C   0  0  0  0  0  3  0  0  0  0  0  0
  -29.1940  -22.5870   21.5260 N   0  0  1  0  0  4  0  0  0  0  0  0
  -28.2020  -22.4450   21.4070 H   0  0  0  0  0  0  0  0  0  0  0  0
  -24.9050  -26.8430   24.7520 C   0  0  0  0  0  3  0  0  0  0  0  0
  -24.8070  -25.9130   23.7020 C   0  0  0  0  0  3  0  0  0  0  0  0
  -26.1690  -27.2070   25.2470 C   0  0  0  0  0  3  0  0  0  0  0  0
  -25.9720  -25.3410   23.1570 C   0  0  0  0  0  3  0  0  0  0  0  0
  -27.3390  -26.6390   24.7020 C   0  0  0  0  0  3  0  0  0  0  0  0
  -27.2500  -25.6890   23.6590 C   0  0  0  0  0  0  0  0  0  0  0  0
  -29.3260  -26.4990   21.2730 C   0  0  0  0  0  2  0  0  0  0  0  0
  -28.9740  -27.0620   20.0020 O   0  0  0  0  0  0  0  0  0  0  0  0
  -24.8290  -31.9080   23.1940 C   0  0  0  0  0  0  0  0  0  0  0  0
  -27.8000  -27.7770   20.0020 C   0  0  0  0  0  0  0  0  0  0  0  0
  -23.7420  -30.5000   21.4710 C   0  0  0  0  0  3  0  0  0  0  0  0
  -25.3190  -29.1220   20.0100 C   0  0  0  0  0  0  0  0  0  0  0  0
  -26.2380  -31.0360   21.3320 C   0  0  0  0  0  2  0  0  0  0  0  0
  -26.4270  -29.6990   20.6440 C   0  0  0  0  0  0  0  0  0  0  0  0
  -27.6730  -29.0320   20.6420 C   0  0  0  0  0  3  0  0  0  0  0  0
  -26.6850  -27.2230   19.3440 C   0  0  0  0  0  3  0  0  0  0  0  0
  -25.4430  -27.8850   19.3550 C   0  0  0  0  0  3  0  0  0  0  0  0
  -24.0170  -29.8900   20.0710 C   0  0  0  0  0  2  0  0  0  0  0  0
  -24.9520  -31.1610   22.0580 N   0  0  0  0  0  0  0  0  0  0  0  0
  -23.7250  -32.0860   23.7260 O   0  0  0  0  0  0  0  0  0  0  0  0
  -23.1460  -29.4010   22.3810 C   0  0  0  0  0  0  0  0  0  0  0  0
  -21.8390  -29.1300   22.2200 N   0  0  0  0  0  0  0  0  0  0  0  0
  -23.8550  -28.7990   23.1870 O   0  0  0  0  0  0  0  0  0  0  0  0
  -21.3280  -29.6590   21.5290 H   0  0  0  0  0  0  0  0  0  0  0  0
  -18.5400  -27.7290   22.6520 C   0  0  0  0  0  0  0  0  0  0  0  0
  -21.0780  -28.1190   22.9530 C   0  0  0  0  0  3  0  0  0  0  0  0
  -21.2610  -26.7200   22.3230 C   0  0  0  0  0  2  0  0  0  0  0  0
  -20.1900  -26.3860   21.2800 C   0  0  0  0  0  2  0  0  0  0  0  0
  -18.7930  -26.4300   21.9040 C   0  0  0  0  0  2  0  0  0  0  0  0
  -19.6120  -28.5310   23.1270 C   0  0  0  0  0  0  0  0  0  0  0  0
  -19.3180  -29.7470   23.7810 C   0  0  0  0  0  3  0  0  0  0  0  0
  -17.9850  -30.1640   23.9640 C   0  0  0  0  0  3  0  0  0  0  0  0
  -16.9300  -29.3580   23.5020 C   0  0  0  0  0  3  0  0  0  0  0  0
  -17.2070  -28.1440   22.8530 C   0  0  0  0  0  3  0  0  0  0  0  0
  -26.0640  -32.5960   23.8600 C   0  0  0  0  0  3  0  0  0  0  0  0
  -26.5750  -31.8460   25.1490 C   0  0  1  0  0  0  0  0  0  0  0  0
  -25.4560  -31.5180   26.1650 C   0  0  0  0  0  1  0  0  0  0  0  0
  -27.2680  -30.5190   24.7600 C   0  0  0  0  0  1  0  0  0  0  0  0
  -27.6420  -32.7030   25.8690 C   0  0  0  0  0  1  0  0  0  0  0  0
  -25.6800  -33.9770   24.1800 N   0  0  0  0  0  0  0  0  0  0  0  0
  -25.9860  -35.0440   23.4310 C   0  0  0  0  0  0  0  0  0  0  0  0
  -26.6970  -34.9750   22.4250 O   0  0  0  0  0  0  0  0  0  0  0  0
  -25.0500  -34.0980   24.9600 H   0  0  0  0  0  0  0  0  0  0  0  0
  -24.1800  -36.7460   23.0220 C   0  0  0  0  0  1  0  0  0  0  0  0
  -25.4150  -36.4050   23.8700 C   0  0  0  0  0  3  0  0  0  0  0  0
  -27.4770  -37.3980   24.7620 C   0  0  0  0  0  1  0  0  0  0  0  0
  -26.3960  -37.5090   23.7860 N   0  0  0  0  0  0  0  0  0  0  0  0
  -25.9380  -38.4050   23.9260 H   0  0  0  0  0  0  0  0  0  0  0  0
  -29.8460  -21.4240   20.8460 C   0  0  0  0  0  2  0  0  0  0  0  0
  -29.0670  -20.0810   21.0380 C   0  0  0  0  0  2  0  0  0  0  0  0
  -31.1570  -14.7670   19.9420 C   0  0  0  0  0  0  0  0  0  0  0  0
  -30.7480  -12.5760   18.9020 C   0  0  0  0  0  2  0  0  0  0  0  0
  -29.7530  -12.7490   17.7390 C   0  0  0  0  0  2  0  0  0  0  0  0
  -28.3050  -12.6360   18.2510 C   0  0  0  0  0  2  0  0  0  0  0  0
  -28.0350  -13.5190   19.4990 C   0  0  0  0  0  3  0  0  0  0  0  0
  -29.1480  -13.3580   20.5570 C   0  0  0  0  0  2  0  0  0  0  0  0
  -30.4360  -13.6130   19.9000 N   0  0  0  0  0  0  0  0  0  0  0  0
  -32.2950  -14.8460   19.4670 O   0  0  0  0  0  0  0  0  0  0  0  0
  -29.7010  -18.2020   19.3760 C   0  0  0  0  0  2  0  0  0  0  0  0
  -29.5850  -17.6530   21.7800 C   0  0  0  0  0  2  0  0  0  0  0  0
  -30.6150  -16.9760   19.1640 C   0  0  0  0  0  2  0  0  0  0  0  0
  -30.5190  -16.4400   21.5610 C   0  0  0  0  0  2  0  0  0  0  0  0
  -29.8910  -18.7880   20.7810 C   0  0  0  0  0  3  0  0  0  0  0  0
  -30.4640  -15.9110   20.1860 N   0  0  0  0  0  0  0  0  0  0  0  0
  -25.7170  -14.1560   20.4140 C   0  0  0  0  0  0  0  0  0  0  0  0
  -24.6490  -13.3980   20.8090 C   0  0  0  0  0  0  0  0  0  0  0  0
  -25.0580  -12.0370   20.6680 C   0  0  0  0  0  0  0  0  0  0  0  0
  -26.7110  -13.2580   20.0590 N   0  0  0  0  0  0  0  0  0  0  0  0
  -26.3220  -11.9730   20.2710 N   0  0  0  0  0  0  0  0  0  0  0  0
  -24.2990  -10.7900   20.8330 C   0  0  0  0  0  0  0  0  0  0  0  0
  -24.7000   -9.8000   21.7570 C   0  0  0  0  0  3  0  0  0  0  0  0
  -23.9430   -8.6180   21.9130 C   0  0  0  0  0  3  0  0  0  0  0  0
  -22.7720   -8.4180   21.1430 C   0  0  0  0  0  0  0  0  0  0  0  0
  -22.3920   -9.3960   20.2070 C   0  0  0  0  0  3  0  0  0  0  0  0
  -23.1490  -10.5690   20.0510 C   0  0  0  0  0  3  0  0  0  0  0  0
  -21.9890   -7.2900   21.2070 O   0  0  0  0  0  0  0  0  0  0  0  0
  -21.8250   -6.5940   22.3790 C   0  0  0  0  0  0  0  0  0  0  0  0
  -21.3210   -7.2090   23.5460 C   0  0  0  0  0  3  0  0  0  0  0  0
  -21.1000   -6.4410   24.7070 C   0  0  0  0  0  3  0  0  0  0  0  0
  -21.3730   -5.0600   24.7010 C   0  0  0  0  0  0  0  0  0  0  0  0
  -21.8710   -4.4450   23.5380 C   0  0  0  0  0  3  0  0  0  0  0  0
  -22.0920   -5.2100   22.3790 C   0  0  0  0  0  0  0  0  0  0  0  0
  -22.5490   -4.6090   21.2540 F   0  0  0  0  0  0  0  0  0  0  0  0
  -21.1560   -4.3200   25.8130 F   0  0  0  0  0  0  0  0  0  0  0  0
  -23.2910  -13.9020   21.2040 C   0  0  0  0  0  0  0  0  0  0  0  0
  -22.6070  -13.1890   22.0920 N   0  0  0  0  0  0  0  0  0  0  0  0
  -22.8470  -14.9620   20.7610 O   0  0  0  0  0  0  0  0  0  0  0  0
  -22.9790  -12.3290   22.4680 H   0  0  0  0  0  0  0  0  0  0  0  0
  -21.6990  -13.5050   22.4000 H   0  0  0  0  0  0  0  0  0  0  0  0
  -25.9250  -15.5290   20.3040 N   0  0  0  0  0  0  0  0  0  0  0  0
  -25.2010  -16.2100   20.5040 H   0  0  0  0  0  0  0  0  0  0  0  0
  -26.7890  -15.9490   19.9830 H   0  0  0  0  0  0  0  0  0  0  0  0
  2  1  1  0
  3  6  1  0
  3  5  1  0
  4 13  1  0
  4  1  1  0
  5 14  1  0
  5  4  1  0
  6  2  1  0
  6  7  1  1
  8 10  1  0
  9  8  2  0
 11 13  2  0
 11  9  1  0
 12 10  2  0
 13 12  1  0
 15 17  1  0
 15 14  1  0
 16 27  2  0
 17 22  1  0
 18 26  1  0
 18 28  1  0
 19 25  1  0
 19 21  1  0
 20 26  1  0
 21 20  1  0
 22 21  2  0
 23 24  1  0
 23 17  2  0
 24 19  2  0
 25 18  1  0
 26 16  1  0
 28 30  2  0
 29 28  1  0
 31 29  1  0
 32 41  2  0
 32 37  1  0
 33 29  1  0
 33 37  1  0
 34 33  1  0
 35 36  1  0
 35 34  1  0
 36 32  1  0
 37 38  2  0
 38 39  1  0
 40 39  2  0
 41 40  1  0
 42 16  1  0
 42 47  1  0
 42 43  1  0
 43 46  1  1
 43 44  1  0
 45 43  1  0
 47 50  1  0
 48 52  1  0
 48 47  1  0
 49 48  2  0
 52 51  1  0
 54 52  1  0
 54 55  1  0
 54 53  1  0
 56 57  1  0
 56  6  1  0
 58 71  1  0
 59 64  1  0
 60 61  1  0
 60 59  1  0
 62 61  1  0
 62 75  1  0
 62 63  1  0
 64 58  1  0
 64 63  1  0
 65 58  2  0
 66 70  1  0
 68 66  1  0
 68 71  1  0
 69 67  1  0
 70 57  1  0
 70 67  1  0
 71 69  1  0
 72 73  2  0
 73 92  1  0
 74 73  1  0
 74 77  1  0
 75 76  1  0
 75 72  1  0
 76 74  2  0
 77 78  1  0
 78 79  2  0
 80 83  1  0
 80 79  1  0
 81 80  2  0
 82 81  1  0
 82 77  2  0
 83 84  1  0
 84 89  2  0
 84 85  1  0
 85 86  2  0
 87 86  1  0
 87 91  1  0
 88 87  2  0
 89 88  1  0
 90 89  1  0
 92 93  1  0
 93 96  1  0
 93 95  1  0
 94 92  2  0
 97 72  1  0
 97 98  1  0
 99 97  1  0
M  ISO  4  14 101  15 101  58 100  71 100
M  END
>  <TORSDO>  (1) 
F 20

>  <SCORE>  (1) 
-11.295

>  <name>  (1) 
0

>  <ligand_id>  (1) 
0

>  <original_smiles>  (1) 
[H]c1c([H])c([H])c(C2([H])C([H])([H])C([H])([H])[N+]([H])(C([H])([H])C([H])([H])C3([H])C([H])([H])C([H])([H])N(C(=O)N4C([H])([H])C([H])([H])C([H])([H])C([H])(n5nc(-c6c([H])c([H])c(Oc7c([H])c([H])c(F)c([H])c7F)c([H])c6[H])c(C(=O)N([H])[H])c5N([H])[H])C4([H])[H])C([H])([H])C3([H])[H])C([H])([H])C2([H])C([H])([H])Oc2c([H])c([H])c3c(c2[H])C([H])([H])N(C(=O)C([H])(N([H])C(=O)C([H])(N([H])C([H])([H])[H])C([H])([H])[H])C(C([H])([H])[H])(C([H])([H])[H])C([H])([H])[H])C([H])(C(=O)N([H])C2([H])c4c([H])c([H])c([H])c([H])c4C([H])([H])C([H])([H])C2([H])[H])C3([H])[H])c([H])c1[H]

>  <smiles>  (1) 
[H]c1c([H])c([H])c(C2([H])C([H])([H])C([H])([H])[N+]([H])(C([H])([H])C([H])([H])C3([H])C([H])([H])C([H])([H])N(C(=O)N4C([H])([H])C([H])([H])C([H])([H])C([H])(n5nc(-c6c([H])c([H])c(Oc7c([H])c([H])c(F)c([H])c7F)c([H])c6[H])c(C(=O)N([H])[H])c5N([H])[H])C4([H])[H])C([H])([H])C3([H])[H])C([H])([H])C2([H])C([H])([H])Oc2c([H])c([H])c3c(c2[H])C([H])([H])N(C(=O)C([H])(N([H])C(=O)C([H])(N([H])C([H])([H])[H])C([H])([H])[H])C(C([H])([H])[H])(C([H])([H])[H])C([H])([H])[H])C([H])(C(=O)N([H])C2([H])c4c([H])c([H])c([H])c([H])c4C([H])([H])C([H])([H])C2([H])[H])C3([H])[H])c([H])c1[H]

$$$$
1:0:0
     RDKit          3D

 99107  0  0  1  0  0  0  0  0999 V2000
  -29.5870  -23.3720   20.2000 C   0  0  0  0  0  0  0  0  0  0  0  0
  -27.5680  -24.3080   22.1090 C   0  0  0  0  0  2  0  0  0  0  0  0
  -27.6840  -24.9520   20.7090 C   0  0  0  0  0  2  0  0  0  0  0  0
  -28.1220  -22.8680   22.1540 C   0  0  0  0  0  2  0  0  0  0  0  0
  -29.1020  -24.8270   20.0980 C   0  0  0  0  0  3  0  0  0  0  0  0
  -29.5750  -22.8010   21.6250 C   0  0  0  0  0  3  0  0  0  0  0  0
  -29.9040  -22.7180   19.2000 O   0  0  0  0  0  0  0  0  0  0  0  0
  -30.1250  -21.4330   21.5330 N   0  0  0  0  0  4  0  0  0  0  0  0
  -31.1220  -21.5460   21.4370 H   0  0  0  0  0  0  0  0  0  0  0  0
  -29.7990  -21.0290   20.6700 H   0  0  0  0  0  0  0  0  0  0  0  0
  -29.8500  -20.5080   22.6570 C   0  0  0  0  0  2  0  0  0  0  0  0
  -30.3960  -19.0890   22.3790 C   0  0  0  0  0  2  0  0  0  0  0  0
  -30.3120  -18.6810   20.8920 C   0  0  0  0  0  2  0  0  0  0  0  0
  -31.6520  -18.6840   20.1410 C   0  0  0  0  0  2  0  0  0  0  0  0
  -32.1320  -17.2630   19.7760 C   0  0  0  0  0  2  0  0  0  0  0  0
  -31.3270  -16.6240   18.6250 C   0  0  0  0  0  2  0  0  0  0  0  0
  -31.6600  -15.1520   18.3430 C   0  0  0  0  0  2  0  0  0  0  0  0
  -31.3780  -13.0910   19.6730 C   0  0  0  0  0  0  0  0  0  0  0  0
  -31.3950  -11.8630   21.8000 C   0  0  0  0  0  2  0  0  0  0  0  0
  -31.0220  -10.3780   21.6740 C   0  0  0  0  0  2  0  0  0  0  0  0
  -29.4990  -10.2060   21.7790 C   0  0  0  0  0  2  0  0  0  0  0  0
  -28.7320  -11.1440   20.8120 C   0  0  0  0  0  3  0  0  0  0  0  0
  -29.2390  -12.6040   20.9120 C   0  0  0  0  0  2  0  0  0  0  0  0
  -30.7050  -12.6240   20.7510 N   0  0  0  0  0  0  0  0  0  0  0  0
  -32.5050  -12.6960   19.3540 O   0  0  0  0  0  0  0  0  0  0  0  0
  -30.8650  -14.2070   19.1350 N   0  0  0  0  0  0  0  0  0  0  0  0
  -29.9710  -14.5150   19.4870 H   0  0  0  0  0  0  0  0  0  0  0  0
  -26.2910  -11.9640   20.7040 C   0  0  0  0  0  0  0  0  0  0  0  0
  -25.1090  -11.3650   21.0500 C   0  0  0  0  0  0  0  0  0  0  0  0
  -25.4540  -10.0790   21.5690 C   0  0  0  0  0  0  0  0  0  0  0  0
  -27.2870  -11.0550   21.0270 N   0  0  0  0  0  0  0  0  0  0  0  0
  -26.7730   -9.9330   21.5970 N   0  0  0  0  0  0  0  0  0  0  0  0
  -24.6020   -8.9590   21.9890 C   0  0  0  0  0  0  0  0  0  0  0  0
  -24.2830   -8.7420   23.3480 C   0  0  0  0  0  3  0  0  0  0  0  0
  -23.4470   -7.6680   23.7250 C   0  0  0  0  0  3  0  0  0  0  0  0
  -22.9170   -6.8020   22.7400 C   0  0  0  0  0  0  0  0  0  0  0  0
  -23.2540   -7.0090   21.3910 C   0  0  0  0  0  3  0  0  0  0  0  0
  -24.0900   -8.0740   21.0170 C   0  0  0  0  0  3  0  0  0  0  0  0
  -22.1180   -5.7180   23.0160 O   0  0  0  0  0  0  0  0  0  0  0  0
  -21.0020   -5.8290   23.8040 C   0  0  0  0  0  0  0  0  0  0  0  0
  -19.9310   -6.6840   23.4640 C   0  0  0  0  0  3  0  0  0  0  0  0
  -18.7730   -6.7160   24.2660 C   0  0  0  0  0  3  0  0  0  0  0  0
  -18.6780   -5.8890   25.4020 C   0  0  0  0  0  0  0  0  0  0  0  0
  -19.7420   -5.0340   25.7400 C   0  0  0  0  0  3  0  0  0  0  0  0
  -20.8990   -5.0010   24.9410 C   0  0  0  0  0  0  0  0  0  0  0  0
  -21.9110   -4.1600   25.2590 F   0  0  0  0  0  0  0  0  0  0  0  0
  -17.5640   -5.9140   26.1700 F   0  0  0  0  0  0  0  0  0  0  0  0
  -23.7290  -11.9140   20.8240 C   0  0  0  0  0  0  0  0  0  0  0  0
  -22.7880  -11.5910   21.7040 N   0  0  0  0  0  0  0  0  0  0  0  0
  -23.4880  -12.6740   19.8870 O   0  0  0  0  0  0  0  0  0  0  0  0
  -22.9900  -10.9830   22.4850 H   0  0  0  0  0  0  0  0  0  0  0  0
  -21.8530  -11.9590   21.5980 H   0  0  0  0  0  0  0  0  0  0  0  0
  -26.6010  -13.1920   20.1290 N   0  0  0  0  0  0  0  0  0  0  0  0
  -25.8880  -13.8480   19.8340 H   0  0  0  0  0  0  0  0  0  0  0  0
  -27.5390  -13.4910   19.8910 H   0  0  0  0  0  0  0  0  0  0  0  0
  -29.2160  -25.4320   18.6750 C   0  0  0  0  0  2  0  0  0  0  0  0
  -28.9500  -26.9450   18.6710 C   0  0  0  0  0  2  0  0  0  0  0  0
  -28.9500  -27.5580   17.2570 C   0  0  0  0  0  2  0  0  0  0  0  0
  -28.3270  -28.8440   17.2690 O   0  0  0  0  0  0  0  0  0  0  0  0
  -24.7060  -30.9320   23.0020 C   0  0  0  0  0  0  0  0  0  0  0  0
  -27.0850  -28.9610   17.8510 C   0  0  0  0  0  0  0  0  0  0  0  0
  -23.4200  -29.6370   21.3330 C   0  0  0  0  0  3  0  0  0  0  0  0
  -24.5690  -29.2720   19.0900 C   0  0  0  0  0  0  0  0  0  0  0  0
  -25.4190  -31.0590   20.6120 C   0  0  0  0  0  2  0  0  0  0  0  0
  -25.6510  -30.0560   19.5030 C   0  0  0  0  0  0  0  0  0  0  0  0
  -26.9100  -29.9060   18.8830 C   0  0  0  0  0  3  0  0  0  0  0  0
  -25.9790  -28.1800   17.4430 C   0  0  0  0  0  3  0  0  0  0  0  0
  -24.7260  -28.3320   18.0590 C   0  0  0  0  0  3  0  0  0  0  0  0
  -23.2520  -29.4900   19.7970 C   0  0  0  0  0  2  0  0  0  0  0  0
  -24.5550  -30.5450   21.7020 N   0  0  0  0  0  0  0  0  0  0  0  0
  -23.8990  -30.5760   23.8720 O   0  0  0  0  0  0  0  0  0  0  0  0
  -23.5370  -28.2260   21.9520 C   0  0  0  0  0  0  0  0  0  0  0  0
  -22.5750  -27.3470   21.6210 N   0  0  0  0  0  0  0  0  0  0  0  0
  -24.4850  -27.9320   22.6860 O   0  0  0  0  0  0  0  0  0  0  0  0
  -21.8300  -27.6650   21.0190 H   0  0  0  0  0  0  0  0  0  0  0  0
  -20.8960  -24.2090   21.0190 C   0  0  0  0  0  0  0  0  0  0  0  0
  -22.4960  -25.9540   22.0580 C   0  0  0  0  0  3  0  0  0  0  0  0
  -23.6430  -25.1150   21.4480 C   0  0  0  0  0  2  0  0  0  0  0  0
  -23.2540  -24.4270   20.1350 C   0  0  0  0  0  2  0  0  0  0  0  0
  -22.0560  -23.5000   20.3470 C   0  0  0  0  0  2  0  0  0  0  0  0
  -21.1000  -25.3710   21.8110 C   0  0  0  0  0  0  0  0  0  0  0  0
  -19.9790  -26.0110   22.3840 C   0  0  0  0  0  3  0  0  0  0  0  0
  -18.6810  -25.5070   22.1830 C   0  0  0  0  0  3  0  0  0  0  0  0
  -18.4870  -24.3430   21.4170 C   0  0  0  0  0  3  0  0  0  0  0  0
  -19.5950  -23.6990   20.8360 C   0  0  0  0  0  3  0  0  0  0  0  0
  -25.8800  -31.8540   23.4510 C   0  0  0  0  0  3  0  0  0  0  0  0
  -25.2990  -33.0850   23.9990 N   0  0  0  0  0  0  0  0  0  0  0  0
  -25.2600  -34.2580   23.3550 C   0  0  0  0  0  0  0  0  0  0  0  0
  -25.7850  -34.4350   22.2520 O   0  0  0  0  0  0  0  0  0  0  0  0
  -24.7980  -32.9990   24.8710 H   0  0  0  0  0  0  0  0  0  0  0  0
  -23.1360  -35.6070   23.3990 C   0  0  0  0  0  1  0  0  0  0  0  0
  -24.5190  -35.4230   24.0430 C   0  0  0  0  0  3  0  0  0  0  0  0
  -26.4890  -36.6770   24.7970 C   0  0  0  0  0  1  0  0  0  0  0  0
  -25.2640  -36.7000   24.0020 N   0  0  0  0  0  0  0  0  0  0  0  0
  -24.6860  -37.4650   24.3390 H   0  0  0  0  0  0  0  0  0  0  0  0
  -26.8350  -31.1700   24.5020 C   0  0  1  0  0  0  0  0  0  0  0  0
  -26.0860  -30.4630   25.6580 C   0  0  0  0  0  1  0  0  0  0  0  0
  -27.7290  -30.1170   23.8070 C   0  0  0  0  0  1  0  0  0  0  0  0
  -27.7880  -32.2240   25.1140 C   0  0  0  0  0  1  0  0  0  0  0  0
  1  6  1  0
  2  4  1  0
  3  2  1  0
  5 56  1  0
  5  1  1  0
  5  3  1  0
  6  8  1  0
  6  4  1  0
  7  1  2  0
  8 11  1  0
  9  8  1  0
 10  8  1  0
 12 11  1  0
 13 12  1  0
 14 13  1  0
 15 14  1  0
 16 15  1  0
 17 16  1  0
 17 26  1  0
 18 24  1  0
 20 21  1  0
 20 19  1  0
 22 23  1  0
 22 31  1  0
 22 21  1  0
 24 23  1  0
 24 19  1  0
 25 18  2  0
 26 27  1  0
 26 18  1  0
 28 31  1  0
 28 29  2  0
 29 30  1  0
 30 32  2  0
 30 33  1  0
 31 32  1  0
 33 34  1  0
 34 35  2  0
 36 39  1  0
 36 35  1  0
 37 36  2  0
 38 37  1  0
 38 33  2  0
 39 40  1  0
 40 45  1  0
 41 40  2  0
 41 42  1  0
 42 43  2  0
 43 44  1  0
 43 47  1  0
 45 46  1  0
 45 44  2  0
 48 29  1  0
 48 49  1  0
 49 51  1  0
 50 48  2  0
 52 49  1  0
 53 28  1  0
 54 53  1  0
 55 53  1  0
 57 56  1  0
 58 59  1  0
 58 57  1  0
 59 61  1  0
 60 71  2  0
 61 66  1  0
 62 70  1  0
 62 72  1  0
 63 65  1  0
 63 69  1  0
 64 70  1  0
 65 64  1  0
 66 65  2  0
 67 61  2  0
 67 68  1  0
 68 63  2  0
 69 62  1  0
 70 60  1  0
 72 74  2  0
 73 72  1  0
 75 73  1  0
 76 81  1  0
 77 73  1  0
 78 77  1  0
 79 80  1  0
 79 78  1  0
 80 76  1  0
 81 77  1  0
 81 82  2  0
 83 82  1  0
 84 83  2  0
 85 76  2  0
 85 84  1  0
 86 60  1  0
 86 87  1  0
 86 96  1  0
 87 90  1  0
 88 87  1  0
 88 92  1  0
 89 88  2  0
 92 91  1  0
 94 92  1  0
 94 95  1  0
 94 93  1  0
 96 99  1  1
 96 97  1  0
 98 96  1  0
M  ISO  4  18 100  26 100  58 101  59 101
M  END
>  <TORSDO>  (2) 
F 27

>  <SCORE>  (2) 
-0.594

>  <name>  (2) 
1

>  <ligand_id>  (2) 
1

>  <original_smiles>  (2) 
[H]c1c([H])c([H])c2c(c1[H])C([H])([H])C([H])([H])C([H])([H])C2([H])N([H])C(=O)C1([H])N(C(=O)C([H])(N([H])C(=O)C([H])(N([H])C([H])([H])[H])C([H])([H])[H])C(C([H])([H])[H])(C([H])([H])[H])C([H])([H])[H])C([H])([H])c2c([H])c(OC([H])([H])C([H])([H])C([H])([H])C3([H])C(=O)C([H])([N+]([H])([H])C([H])([H])C([H])([H])C([H])([H])C([H])([H])C([H])([H])C([H])([H])C([H])([H])N([H])C(=O)N4C([H])([H])C([H])([H])C([H])([H])C([H])(n5nc(-c6c([H])c([H])c(Oc7c([H])c([H])c(F)c([H])c7F)c([H])c6[H])c(C(=O)N([H])[H])c5N([H])[H])C4([H])[H])C([H])([H])C([H])([H])C3([H])[H])c([H])c([H])c2C1([H])[H]

>  <smiles>  (2) 
[H]c1c([H])c([H])c2c(c1[H])C([H])([H])C([H])([H])C([H])([H])C2([H])N([H])C(=O)C1([H])N(C(=O)C([H])(N([H])C(=O)C([H])(N([H])C([H])([H])[H])C([H])([H])[H])C(C([H])([H])[H])(C([H])([H])[H])C([H])([H])[H])C([H])([H])c2c([H])c(OC([H])([H])C([H])([H])C([H])([H])C3([H])C(=O)C([H])([N+]([H])([H])C([H])([H])C([H])([H])C([H])([H])C([H])([H])C([H])([H])C([H])([H])C([H])([H])N([H])C(=O)N4C([H])([H])C([H])([H])C([H])([H])C([H])(n5nc(-c6c([H])c([H])c(Oc7c([H])c([H])c(F)c([H])c7F)c([H])c6[H])c(C(=O)N([H])[H])c5N([H])[H])C4([H])[H])C([H])([H])C([H])([H])C3([H])[H])c([H])c([H])c2C1([H])[H]

$$$$
2:0:0
     RDKit          3D

 95104  0  0  1  0  0  0  0  0999 V2000
  -30.3270  -21.2710   17.8180 C   0  0  0  0  0  2  0  0  0  0  0  0
  -30.8630  -17.5860   18.7280 C   0  0  0  0  0  2  0  0  0  0  0  0
  -30.7480  -18.9290   20.8400 C   0  0  0  0  0  2  0  0  0  0  0  0
  -30.3000  -18.8060   17.9730 C   0  0  0  0  0  2  0  0  0  0  0  0
  -30.2110  -20.1210   20.0290 C   0  0  0  0  0  2  0  0  0  0  0  0
  -30.4040  -17.5690   20.1980 C   0  0  0  0  0  3  0  0  0  0  0  0
  -30.6990  -20.0790   18.6280 N   0  0  2  0  0  4  0  0  0  0  0  0
  -31.7080  -20.0690   18.6620 H   0  0  0  0  0  0  0  0  0  0  0  0
  -30.7870  -14.2110   19.8600 C   0  0  0  0  0  0  0  0  0  0  0  0
  -30.1770  -12.2580   18.4650 C   0  0  0  0  0  2  0  0  0  0  0  0
  -29.1020  -12.5870   17.4110 C   0  0  0  0  0  2  0  0  0  0  0  0
  -27.6900  -12.4540   18.0120 C   0  0  0  0  0  2  0  0  0  0  0  0
  -27.5500  -13.2080   19.3570 C   0  0  0  0  0  3  0  0  0  0  0  0
  -28.7050  -12.8390   20.3080 C   0  0  0  0  0  2  0  0  0  0  0  0
  -29.9790  -13.1410   19.6310 N   0  0  0  0  0  0  0  0  0  0  0  0
  -31.7670  -14.4520   19.1430 O   0  0  0  0  0  0  0  0  0  0  0  0
  -30.5900  -16.3110   22.4840 C   0  0  0  0  0  2  0  0  0  0  0  0
  -30.5380  -14.8080   22.2730 C   0  0  0  0  0  2  0  0  0  0  0  0
  -31.0090  -16.4230   21.0300 C   0  0  0  0  0  3  0  0  0  0  0  0
  -30.4000  -15.0870   20.8260 N   0  0  0  0  0  0  0  0  0  0  0  0
  -25.2800  -13.8750   20.3760 C   0  0  0  0  0  0  0  0  0  0  0  0
  -24.2330  -13.1240   20.8400 C   0  0  0  0  0  0  0  0  0  0  0  0
  -24.6330  -11.7600   20.7040 C   0  0  0  0  0  0  0  0  0  0  0  0
  -26.2500  -12.9660   19.9810 N   0  0  0  0  0  0  0  0  0  0  0  0
  -25.8720  -11.6860   20.2410 N   0  0  0  0  0  0  0  0  0  0  0  0
  -23.8850  -10.5180   20.9390 C   0  0  0  0  0  0  0  0  0  0  0  0
  -24.3740   -9.5170   21.8080 C   0  0  0  0  0  3  0  0  0  0  0  0
  -23.6310   -8.3380   22.0300 C   0  0  0  0  0  3  0  0  0  0  0  0
  -22.3830   -8.1570   21.3850 C   0  0  0  0  0  0  0  0  0  0  0  0
  -21.9120   -9.1440   20.5020 C   0  0  0  0  0  3  0  0  0  0  0  0
  -22.6560  -10.3140   20.2790 C   0  0  0  0  0  3  0  0  0  0  0  0
  -21.6060   -7.0320   21.5200 O   0  0  0  0  0  0  0  0  0  0  0  0
  -21.6190   -6.2830   22.6680 C   0  0  0  0  0  0  0  0  0  0  0  0
  -21.3140   -6.8440   23.9280 C   0  0  0  0  0  3  0  0  0  0  0  0
  -21.2680   -6.0230   25.0710 C   0  0  0  0  0  3  0  0  0  0  0  0
  -21.5150   -4.6410   24.9570 C   0  0  0  0  0  0  0  0  0  0  0  0
  -21.8150   -4.0790   23.7040 C   0  0  0  0  0  3  0  0  0  0  0  0
  -21.8640   -4.8980   22.5610 C   0  0  0  0  0  0  0  0  0  0  0  0
  -22.1310   -4.3500   21.3520 F   0  0  0  0  0  0  0  0  0  0  0  0
  -21.4620   -3.8480   26.0530 F   0  0  0  0  0  0  0  0  0  0  0  0
  -22.8980  -13.6390   21.2960 C   0  0  0  0  0  0  0  0  0  0  0  0
  -22.2550  -12.9490   22.2320 N   0  0  0  0  0  0  0  0  0  0  0  0
  -22.4350  -14.6910   20.8580 O   0  0  0  0  0  0  0  0  0  0  0  0
  -22.6430  -12.1050   22.6280 H   0  0  0  0  0  0  0  0  0  0  0  0
  -21.3550  -13.2700   22.5610 H   0  0  0  0  0  0  0  0  0  0  0  0
  -25.4740  -15.2480   20.2420 N   0  0  0  0  0  0  0  0  0  0  0  0
  -24.7890  -15.9210   20.5700 H   0  0  0  0  0  0  0  0  0  0  0  0
  -26.3050  -15.6810   19.8600 H   0  0  0  0  0  0  0  0  0  0  0  0
  -30.8970  -22.6110   18.3490 C   0  0  0  0  0  2  0  0  0  0  0  0
  -30.9750  -23.6650   17.2280 C   0  0  0  0  0  2  0  0  0  0  0  0
  -31.5450  -25.0330   17.6530 C   0  0  0  0  0  2  0  0  0  0  0  0
  -30.5090  -25.9970   18.2640 C   0  0  0  0  0  2  0  0  0  0  0  0
  -30.7450  -26.3140   19.7510 C   0  0  0  0  0  2  0  0  0  0  0  0
  -29.7050  -27.2950   20.3160 C   0  0  0  0  0  2  0  0  0  0  0  0
  -28.4420  -26.6460   20.2710 O   0  0  0  0  0  0  0  0  0  0  0  0
  -24.6130  -31.9020   23.2620 C   0  0  0  0  0  0  0  0  0  0  0  0
  -27.3100  -27.4240   20.3100 C   0  0  0  0  0  0  0  0  0  0  0  0
  -23.4250  -30.4610   21.6360 C   0  0  0  0  0  3  0  0  0  0  0  0
  -24.9000  -28.8910   20.2730 C   0  0  0  0  0  0  0  0  0  0  0  0
  -25.9490  -30.8280   21.4590 C   0  0  0  0  0  2  0  0  0  0  0  0
  -26.0470  -29.4440   20.8570 C   0  0  0  0  0  0  0  0  0  0  0  0
  -27.2560  -28.7190   20.8790 C   0  0  0  0  0  3  0  0  0  0  0  0
  -26.1430  -26.8710   19.7480 C   0  0  0  0  0  3  0  0  0  0  0  0
  -24.9390  -27.5990   19.7190 C   0  0  0  0  0  3  0  0  0  0  0  0
  -23.6540  -29.7450   20.2770 C   0  0  0  0  0  2  0  0  0  0  0  0
  -24.6800  -31.0790   22.1780 N   0  0  0  0  0  0  0  0  0  0  0  0
  -23.5250  -32.1870   23.7810 O   0  0  0  0  0  0  0  0  0  0  0  0
  -22.7630  -29.4630   22.6130 C   0  0  0  0  0  0  0  0  0  0  0  0
  -21.4390  -29.2840   22.4750 N   0  0  0  0  0  0  0  0  0  0  0  0
  -23.4360  -28.8510   23.4470 O   0  0  0  0  0  0  0  0  0  0  0  0
  -20.9590  -29.8330   21.7760 H   0  0  0  0  0  0  0  0  0  0  0  0
  -18.0540  -28.1200   22.9540 C   0  0  0  0  0  0  0  0  0  0  0  0
  -20.6090  -28.3650   23.2520 C   0  0  0  0  0  3  0  0  0  0  0  0
  -20.7080  -26.9220   22.7050 C   0  0  0  0  0  2  0  0  0  0  0  0
  -19.6150  -26.5880   21.6850 C   0  0  0  0  0  2  0  0  0  0  0  0
  -18.2280  -26.7560   22.3100 C   0  0  0  0  0  2  0  0  0  0  0  0
  -19.1720  -28.8830   23.3830 C   0  0  0  0  0  0  0  0  0  0  0  0
  -18.9550  -30.1610   23.9420 C   0  0  0  0  0  3  0  0  0  0  0  0
  -17.6530  -30.6750   24.0800 C   0  0  0  0  0  3  0  0  0  0  0  0
  -16.5470  -29.9080   23.6710 C   0  0  0  0  0  3  0  0  0  0  0  0
  -16.7490  -28.6320   23.1130 C   0  0  0  0  0  3  0  0  0  0  0  0
  -25.8930  -32.5450   23.8830 C   0  0  0  0  0  3  0  0  0  0  0  0
  -25.5700  -33.9390   24.2120 N   0  0  0  0  0  0  0  0  0  0  0  0
  -25.9010  -34.9940   23.4560 C   0  0  0  0  0  0  0  0  0  0  0  0
  -26.5790  -34.8960   22.4290 O   0  0  0  0  0  0  0  0  0  0  0  0
  -24.9620  -34.0860   25.0030 H   0  0  0  0  0  0  0  0  0  0  0  0
  -24.1600  -36.7710   23.0900 C   0  0  0  0  0  1  0  0  0  0  0  0
  -25.3980  -36.3760   23.9100 C   0  0  0  0  0  3  0  0  0  0  0  0
  -27.5230  -37.2740   24.7550 C   0  0  0  0  0  1  0  0  0  0  0  0
  -26.4230  -37.4380   23.8070 N   0  0  0  0  0  0  0  0  0  0  0  0
  -26.0090  -38.3540   23.9570 H   0  0  0  0  0  0  0  0  0  0  0  0
  -26.4170  -31.7760   25.1570 C   0  0  1  0  0  0  0  0  0  0  0  0
  -25.3250  -31.5280   26.2240 C   0  0  0  0  0  1  0  0  0  0  0  0
  -27.0150  -30.4060   24.7610 C   0  0  0  0  0  1  0  0  0  0  0  0
  -27.5600  -32.5810   25.8230 C   0  0  0  0  0  1  0  0  0  0  0  0
  1 49  1  0
  1  7  1  0
  4  7  1  0
  4  2  1  0
  5  3  1  0
  6  2  1  0
  6  3  1  0
  6 19  1  0
  7  8  1  1
  7  5  1  0
  9 20  1  0
 10 15  1  0
 11 12  1  0
 11 10  1  0
 13 12  1  0
 13 24  1  0
 13 14  1  0
 15  9  1  0
 15 14  1  0
 16  9  2  0
 18 17  1  0
 19 17  1  0
 20 19  1  0
 20 18  1  0
 21 22  2  0
 22 41  1  0
 23 22  1  0
 23 26  1  0
 24 25  1  0
 24 21  1  0
 25 23  2  0
 26 27  1  0
 27 28  2  0
 29 32  1  0
 29 28  1  0
 30 29  2  0
 31 30  1  0
 31 26  2  0
 32 33  1  0
 33 34  1  0
 34 35  2  0
 36 35  1  0
 36 40  1  0
 37 36  2  0
 38 33  2  0
 38 37  1  0
 39 38  1  0
 41 42  1  0
 42 45  1  0
 42 44  1  0
 43 41  2  0
 46 21  1  0
 46 47  1  0
 48 46  1  0
 50 51  1  0
 50 49  1  0
 51 52  1  0
 52 53  1  0
 53 54  1  0
 55 57  1  0
 55 54  1  0
 56 67  2  0
 57 62  1  0
 58 66  1  0
 58 68  1  0
 59 65  1  0
 59 61  1  0
 60 66  1  0
 61 62  2  0
 61 60  1  0
 63 57  2  0
 64 63  1  0
 64 59  2  0
 65 58  1  0
 66 56  1  0
 68 70  2  0
 69 68  1  0
 71 69  1  0
 72 81  2  0
 72 77  1  0
 73 69  1  0
 73 77  1  0
 74 73  1  0
 75 76  1  0
 75 74  1  0
 76 72  1  0
 77 78  2  0
 78 79  1  0
 80 79  2  0
 81 80  1  0
 82 56  1  0
 82 83  1  0
 82 92  1  0
 83 86  1  0
 84 88  1  0
 84 83  1  0
 85 84  2  0
 88 87  1  0
 90 88  1  0
 90 91  1  0
 90 89  1  0
 92 95  1  1
 92 93  1  0
 94 92  1  0
M  ISO  4   9 100  20 100  54 101  55 101
M  END
>  <TORSDO>  (3) 
F 23

>  <SCORE>  (3) 
-11.239

>  <name>  (3) 
2

>  <ligand_id>  (3) 
2

>  <original_smiles>  (3) 
[H]c1c([H])c([H])c2c(c1[H])C([H])([H])C([H])([H])C([H])([H])C2([H])N([H])C(=O)C1([H])N(C(=O)C([H])(N([H])C(=O)C([H])(N([H])C([H])([H])[H])C([H])([H])[H])C(C([H])([H])[H])(C([H])([H])[H])C([H])([H])[H])C([H])([H])c2c([H])c(OC([H])([H])C([H])([H])C([H])([H])C([H])([H])C([H])([H])C([H])([H])C([H])([H])[N+]3([H])C([H])([H])C([H])([H])C([H])(C4([H])N(C(=O)N5C([H])([H])C([H])([H])C([H])([H])C([H])(n6nc(-c7c([H])c([H])c(Oc8c([H])c([H])c(F)c([H])c8F)c([H])c7[H])c(C(=O)N([H])[H])c6N([H])[H])C5([H])[H])C([H])([H])C4([H])[H])C([H])([H])C3([H])[H])c([H])c([H])c2C1([H])[H]

>  <smiles>  (3) 
[H]c1c([H])c([H])c2c(c1[H])C([H])([H])C([H])([H])C([H])([H])C2([H])N([H])C(=O)C1([H])N(C(=O)C([H])(N([H])C(=O)C([H])(N([H])C([H])([H])[H])C([H])([H])[H])C(C([H])([H])[H])(C([H])([H])[H])C([H])([H])[H])C([H])([H])c2c([H])c(OC([H])([H])C([H])([H])C([H])([H])C([H])([H])C([H])([H])C([H])([H])C([H])([H])[N+]3([H])C([H])([H])C([H])([H])C([H])(C4([H])N(C(=O)N5C([H])([H])C([H])([H])C([H])([H])C([H])(n6nc(-c7c([H])c([H])c(Oc8c([H])c([H])c(F)c([H])c8F)c([H])c7[H])c(C(=O)N([H])[H])c6N([H])[H])C5([H])[H])C([H])([H])C4([H])[H])C([H])([H])C3([H])[H])c([H])c([H])c2C1([H])[H]

$$$$
3:0:0
     RDKit          3D

 90 98  0  0  1  0  0  0  0  0999 V2000
  -29.9470  -20.6920   21.7280 C   0  0  0  0  0  2  0  0  0  0  0  0
  -31.5160  -19.0400   20.4830 C   0  0  0  0  0  2  0  0  0  0  0  0
  -31.0590  -18.7130   22.9820 C   0  0  0  0  0  2  0  0  0  0  0  0
  -30.6970  -17.7620   20.2090 C   0  0  0  0  0  2  0  0  0  0  0  0
  -30.2520  -17.4440   22.6420 C   0  0  0  0  0  2  0  0  0  0  0  0
  -31.1620  -19.7370   21.8200 C   0  0  0  0  0  3  0  0  0  0  0  0
  -30.8310  -16.7750   21.3860 C   0  0  0  0  0  3  0  0  0  0  0  0
  -30.8060  -14.4860   20.3950 C   0  0  0  0  0  0  0  0  0  0  0  0
  -30.4350  -12.3690   19.1900 C   0  0  0  0  0  2  0  0  0  0  0  0
  -29.4930  -12.6050   17.9940 C   0  0  0  0  0  2  0  0  0  0  0  0
  -28.0210  -12.4790   18.4320 C   0  0  0  0  0  2  0  0  0  0  0  0
  -27.7030  -13.3080   19.7050 C   0  0  0  0  0  3  0  0  0  0  0  0
  -28.7590  -13.0630   20.8060 C   0  0  0  0  0  2  0  0  0  0  0  0
  -30.0870  -13.3440   20.2350 N   0  0  0  0  0  0  0  0  0  0  0  0
  -31.8980  -14.6700   19.8520 O   0  0  0  0  0  0  0  0  0  0  0  0
  -30.2270  -15.4610   21.1190 N   0  0  0  0  0  0  0  0  0  0  0  0
  -29.3220  -15.2630   21.5200 H   0  0  0  0  0  0  0  0  0  0  0  0
  -25.3070  -13.9310   20.4110 C   0  0  0  0  0  0  0  0  0  0  0  0
  -24.2350  -13.1660   20.7870 C   0  0  0  0  0  0  0  0  0  0  0  0
  -24.6880  -11.8120   20.7630 C   0  0  0  0  0  0  0  0  0  0  0  0
  -26.3480  -13.0430   20.1860 N   0  0  0  0  0  0  0  0  0  0  0  0
  -25.9780  -11.7640   20.4530 N   0  0  0  0  0  0  0  0  0  0  0  0
  -23.9560  -10.5540   20.9610 C   0  0  0  0  0  0  0  0  0  0  0  0
  -24.3800   -9.5940   21.9060 C   0  0  0  0  0  3  0  0  0  0  0  0
  -23.6480   -8.4020   22.0910 C   0  0  0  0  0  3  0  0  0  0  0  0
  -22.4780   -8.1610   21.3320 C   0  0  0  0  0  0  0  0  0  0  0  0
  -22.0740   -9.1100   20.3780 C   0  0  0  0  0  3  0  0  0  0  0  0
  -22.8060  -10.2940   20.1900 C   0  0  0  0  0  3  0  0  0  0  0  0
  -21.7190   -7.0200   21.4270 O   0  0  0  0  0  0  0  0  0  0  0  0
  -21.6510   -6.2930   22.5890 C   0  0  0  0  0  0  0  0  0  0  0  0
  -21.2120   -6.8690   23.8010 C   0  0  0  0  0  3  0  0  0  0  0  0
  -21.0920   -6.0690   24.9560 C   0  0  0  0  0  3  0  0  0  0  0  0
  -21.4000   -4.6970   24.8990 C   0  0  0  0  0  0  0  0  0  0  0  0
  -21.8320   -4.1210   23.6910 C   0  0  0  0  0  3  0  0  0  0  0  0
  -21.9540   -4.9180   22.5380 C   0  0  0  0  0  0  0  0  0  0  0  0
  -22.3510   -4.3550   21.3720 F   0  0  0  0  0  0  0  0  0  0  0  0
  -21.2770   -3.9270   26.0050 F   0  0  0  0  0  0  0  0  0  0  0  0
  -22.8410  -13.6530   21.0600 C   0  0  0  0  0  0  0  0  0  0  0  0
  -22.1110  -12.9650   21.9320 N   0  0  0  0  0  0  0  0  0  0  0  0
  -22.4070  -14.6780   20.5350 O   0  0  0  0  0  0  0  0  0  0  0  0
  -22.4760  -12.1360   22.3780 H   0  0  0  0  0  0  0  0  0  0  0  0
  -21.1760  -13.2730   22.1580 H   0  0  0  0  0  0  0  0  0  0  0  0
  -25.4800  -15.2990   20.2260 N   0  0  0  0  0  0  0  0  0  0  0  0
  -24.7190  -15.9620   20.3330 H   0  0  0  0  0  0  0  0  0  0  0  0
  -26.3360  -15.7310   19.9000 H   0  0  0  0  0  0  0  0  0  0  0  0
  -30.2580  -22.0360   21.0200 C   0  0  0  0  0  2  0  0  0  0  0  0
  -29.1320  -23.0780   21.1810 C   0  0  0  0  0  2  0  0  0  0  0  0
  -29.4370  -24.4700   20.5740 C   0  0  0  0  0  2  0  0  0  0  0  0
  -28.2620  -25.4410   20.7900 C   0  0  0  0  0  2  0  0  0  0  0  0
  -28.4530  -26.7350   20.1940 O   0  0  0  0  0  0  0  0  0  0  0  0
  -24.6040  -31.9070   23.2150 C   0  0  0  0  0  0  0  0  0  0  0  0
  -27.2980  -27.4880   20.1560 C   0  0  0  0  0  0  0  0  0  0  0  0
  -23.4170  -30.4910   21.5730 C   0  0  0  0  0  3  0  0  0  0  0  0
  -24.8920  -28.9720   20.1520 C   0  0  0  0  0  0  0  0  0  0  0  0
  -25.9410  -30.8760   21.3830 C   0  0  0  0  0  2  0  0  0  0  0  0
  -26.0430  -29.5070   20.7430 C   0  0  0  0  0  0  0  0  0  0  0  0
  -27.2530  -28.7730   20.7420 C   0  0  0  0  0  3  0  0  0  0  0  0
  -26.1350  -26.9780   19.5390 C   0  0  0  0  0  3  0  0  0  0  0  0
  -24.9320  -27.7060   19.5450 C   0  0  0  0  0  3  0  0  0  0  0  0
  -23.6380  -29.8140   20.1940 C   0  0  0  0  0  2  0  0  0  0  0  0
  -24.6720  -31.1050   22.1150 N   0  0  0  0  0  0  0  0  0  0  0  0
  -23.5180  -32.1690   23.7510 O   0  0  0  0  0  0  0  0  0  0  0  0
  -22.7740  -29.4630   22.5310 C   0  0  0  0  0  0  0  0  0  0  0  0
  -21.4500  -29.2750   22.4070 N   0  0  0  0  0  0  0  0  0  0  0  0
  -23.4620  -28.8380   23.3420 O   0  0  0  0  0  0  0  0  0  0  0  0
  -20.9560  -29.8310   21.7230 H   0  0  0  0  0  0  0  0  0  0  0  0
  -18.0800  -28.0740   22.9130 C   0  0  0  0  0  0  0  0  0  0  0  0
  -20.6380  -28.3330   23.1770 C   0  0  0  0  0  3  0  0  0  0  0  0
  -20.7400  -26.9050   22.5940 C   0  0  0  0  0  2  0  0  0  0  0  0
  -19.6340  -26.5850   21.5820 C   0  0  0  0  0  2  0  0  0  0  0  0
  -18.2550  -26.7270   22.2320 C   0  0  0  0  0  2  0  0  0  0  0  0
  -19.2000  -28.8350   23.3430 C   0  0  0  0  0  0  0  0  0  0  0  0
  -18.9830  -30.0970   23.9380 C   0  0  0  0  0  3  0  0  0  0  0  0
  -17.6790  -30.5970   24.1100 C   0  0  0  0  0  3  0  0  0  0  0  0
  -16.5730  -29.8330   23.6980 C   0  0  0  0  0  3  0  0  0  0  0  0
  -16.7750  -28.5730   23.1060 C   0  0  0  0  0  3  0  0  0  0  0  0
  -25.8820  -32.5520   23.8380 C   0  0  0  0  0  3  0  0  0  0  0  0
  -25.5630  -33.9500   24.1520 N   0  0  0  0  0  0  0  0  0  0  0  0
  -25.9000  -34.9970   23.3880 C   0  0  0  0  0  0  0  0  0  0  0  0
  -26.5840  -34.8880   22.3660 O   0  0  0  0  0  0  0  0  0  0  0  0
  -24.9570  -34.1080   24.9440 H   0  0  0  0  0  0  0  0  0  0  0  0
  -24.1730  -36.7800   22.9860 C   0  0  0  0  0  1  0  0  0  0  0  0
  -25.3990  -36.3870   23.8250 C   0  0  0  0  0  3  0  0  0  0  0  0
  -27.5140  -37.2820   24.6910 C   0  0  0  0  0  1  0  0  0  0  0  0
  -26.4300  -37.4420   23.7260 N   0  0  0  0  0  0  0  0  0  0  0  0
  -26.0180  -38.3620   23.8620 H   0  0  0  0  0  0  0  0  0  0  0  0
  -26.3980  -31.7930   25.1220 C   0  0  1  0  0  0  0  0  0  0  0  0
  -25.3020  -31.5540   26.1850 C   0  0  0  0  0  1  0  0  0  0  0  0
  -26.9940  -30.4180   24.7400 C   0  0  0  0  0  1  0  0  0  0  0  0
  -27.5390  -32.6010   25.7840 C   0  0  0  0  0  1  0  0  0  0  0  0
  2  6  1  0
  4  2  1  0
  4  7  1  0
  5  3  1  0
  6  1  1  0
  6  3  1  0
  7 16  1  0
  7  5  1  0
  8 16  1  0
  9 14  1  0
 10 11  1  0
 10  9  1  0
 12 11  1  0
 12 21  1  0
 12 13  1  0
 14  8  1  0
 14 13  1  0
 15  8  2  0
 16 17  1  0
 18 19  2  0
 19 38  1  0
 20 19  1  0
 20 23  1  0
 21 18  1  0
 21 22  1  0
 22 20  2  0
 23 24  1  0
 24 25  2  0
 26 29  1  0
 26 25  1  0
 27 26  2  0
 28 27  1  0
 28 23  2  0
 29 30  1  0
 30 31  1  0
 31 32  2  0
 33 32  1  0
 33 37  1  0
 34 33  2  0
 35 30  2  0
 35 34  1  0
 36 35  1  0
 38 39  1  0
 39 42  1  0
 39 41  1  0
 40 38  2  0
 43 44  1  0
 43 18  1  0
 45 43  1  0
 46 47  1  0
 46  1  1  0
 48 49  1  0
 48 47  1  0
 50 49  1  0
 51 62  2  0
 52 50  1  0
 52 57  1  0
 53 61  1  0
 53 63  1  0
 54 60  1  0
 54 56  1  0
 55 61  1  0
 56 55  1  0
 57 56  2  0
 58 59  1  0
 58 52  2  0
 59 54  2  0
 60 53  1  0
 61 51  1  0
 63 65  2  0
 64 63  1  0
 66 64  1  0
 67 76  2  0
 67 72  1  0
 68 64  1  0
 68 72  1  0
 69 68  1  0
 70 71  1  0
 70 69  1  0
 71 67  1  0
 72 73  2  0
 73 74  1  0
 75 74  2  0
 76 75  1  0
 77 51  1  0
 77 78  1  0
 77 87  1  0
 78 81  1  0
 79 83  1  0
 79 78  1  0
 80 79  2  0
 83 82  1  0
 85 83  1  0
 85 86  1  0
 85 84  1  0
 87 90  1  1
 87 88  1  0
 89 87  1  0
M  ISO  4   8 100  16 100  49 101  50 101
M  END
>  <TORSDO>  (4) 
F 21

>  <SCORE>  (4) 
-13.097

>  <name>  (4) 
3

>  <ligand_id>  (4) 
3

>  <original_smiles>  (4) 
[H]c1c([H])c([H])c2c(c1[H])C([H])([H])C([H])([H])C([H])([H])C2([H])N([H])C(=O)C1([H])N(C(=O)C([H])(N([H])C(=O)C([H])(N([H])C([H])([H])[H])C([H])([H])[H])C(C([H])([H])[H])(C([H])([H])[H])C([H])([H])[H])C([H])([H])c2c([H])c(OC([H])([H])C([H])([H])C([H])([H])C([H])([H])C([H])([H])C3([H])C([H])([H])C([H])([H])C([H])(N([H])C(=O)N4C([H])([H])C([H])([H])C([H])([H])C([H])(n5nc(-c6c([H])c([H])c(Oc7c([H])c([H])c(F)c([H])c7F)c([H])c6[H])c(C(=O)N([H])[H])c5N([H])[H])C4([H])[H])C([H])([H])C3([H])[H])c([H])c([H])c2C1([H])[H]

>  <smiles>  (4) 
[H]c1c([H])c([H])c2c(c1[H])C([H])([H])C([H])([H])C([H])([H])C2([H])N([H])C(=O)C1([H])N(C(=O)C([H])(N([H])C(=O)C([H])(N([H])C([H])([H])[H])C([H])([H])[H])C(C([H])([H])[H])(C([H])([H])[H])C([H])([H])[H])C([H])([H])c2c([H])c(OC([H])([H])C([H])([H])C([H])([H])C([H])([H])C([H])([H])C3([H])C([H])([H])C([H])([H])C([H])(N([H])C(=O)N4C([H])([H])C([H])([H])C([H])([H])C([H])(n5nc(-c6c([H])c([H])c(Oc7c([H])c([H])c(F)c([H])c7F)c([H])c6[H])c(C(=O)N([H])[H])c5N([H])[H])C4([H])[H])C([H])([H])C3([H])[H])c([H])c([H])c2C1([H])[H]

$$$$
4:0:0
     RDKit          3D

 94103  0  0  1  0  0  0  0  0999 V2000
  -30.3490  -20.1180   21.8150 C   0  0  0  0  0  2  0  0  0  0  0  0
  -28.2340  -20.2210   20.5670 C   0  0  0  0  0  2  0  0  0  0  0  0
  -30.6650  -21.5850   21.4510 C   0  0  0  0  0  2  0  0  0  0  0  0
  -28.5310  -21.6790   20.1540 C   0  0  0  0  0  2  0  0  0  0  0  0
  -29.5520  -19.4490   20.6840 C   0  0  0  0  0  3  0  0  0  0  0  0
  -29.4630  -22.3960   21.0750 N   0  0  2  0  0  4  0  0  0  0  0  0
  -28.9400  -22.5630   21.9250 H   0  0  0  0  0  0  0  0  0  0  0  0
  -29.4070  -17.9010   20.8120 C   0  0  0  0  0  2  0  0  0  0  0  0
  -31.0400  -14.6160   20.2550 C   0  0  0  0  0  0  0  0  0  0  0  0
  -30.7590  -12.3370   19.3950 C   0  0  0  0  0  2  0  0  0  0  0  0
  -29.8280  -12.3370   18.1610 C   0  0  0  0  0  2  0  0  0  0  0  0
  -28.3440  -12.3110   18.5720 C   0  0  0  0  0  2  0  0  0  0  0  0
  -27.9870  -13.2830   19.7290 C   0  0  0  0  0  3  0  0  0  0  0  0
  -29.0300  -13.2280   20.8660 C   0  0  0  0  0  2  0  0  0  0  0  0
  -30.3500  -13.4460   20.2650 N   0  0  0  0  0  0  0  0  0  0  0  0
  -32.2670  -14.6640   20.1400 O   0  0  0  0  0  0  0  0  0  0  0  0
  -31.1190  -17.0950   18.1460 C   0  0  0  0  0  2  0  0  0  0  0  0
  -31.4160  -17.7090   19.2790 C   0  0  0  0  0  2  0  0  0  0  0  0
  -30.2430  -15.9130   18.4270 C   0  0  0  0  0  2  0  0  0  0  0  0
  -30.6760  -17.0670   20.4280 C   0  0  0  0  0  3  0  0  0  0  0  0
  -30.3120  -15.7140   19.9000 N   0  0  0  0  0  0  0  0  0  0  0  0
  -25.6010  -13.9470   20.4230 C   0  0  0  0  0  0  0  0  0  0  0  0
  -24.5140  -13.1970   20.7860 C   0  0  0  0  0  0  0  0  0  0  0  0
  -24.9510  -11.8380   20.7790 C   0  0  0  0  0  0  0  0  0  0  0  0
  -26.6300  -13.0430   20.2150 N   0  0  0  0  0  0  0  0  0  0  0  0
  -26.2440  -11.7720   20.4930 N   0  0  0  0  0  0  0  0  0  0  0  0
  -24.2020  -10.5900   20.9680 C   0  0  0  0  0  0  0  0  0  0  0  0
  -24.6020   -9.6240   21.9200 C   0  0  0  0  0  3  0  0  0  0  0  0
  -23.8520   -8.4410   22.0960 C   0  0  0  0  0  3  0  0  0  0  0  0
  -22.6890   -8.2150   21.3220 C   0  0  0  0  0  0  0  0  0  0  0  0
  -22.3090   -9.1680   20.3600 C   0  0  0  0  0  3  0  0  0  0  0  0
  -23.0600  -10.3420   20.1810 C   0  0  0  0  0  3  0  0  0  0  0  0
  -21.9130   -7.0840   21.4070 O   0  0  0  0  0  0  0  0  0  0  0  0
  -21.8190   -6.3640   22.5710 C   0  0  0  0  0  0  0  0  0  0  0  0
  -21.3520   -6.9440   23.7710 C   0  0  0  0  0  3  0  0  0  0  0  0
  -21.2060   -6.1500   24.9260 C   0  0  0  0  0  3  0  0  0  0  0  0
  -21.5150   -4.7760   24.8830 C   0  0  0  0  0  0  0  0  0  0  0  0
  -21.9730   -4.1970   23.6860 C   0  0  0  0  0  3  0  0  0  0  0  0
  -22.1210   -4.9880   22.5340 C   0  0  0  0  0  0  0  0  0  0  0  0
  -22.5440   -4.4210   21.3790 F   0  0  0  0  0  0  0  0  0  0  0  0
  -21.3660   -4.0110   25.9890 F   0  0  0  0  0  0  0  0  0  0  0  0
  -23.1230  -13.7030   21.0360 C   0  0  0  0  0  0  0  0  0  0  0  0
  -22.3780  -13.0300   21.9050 N   0  0  0  0  0  0  0  0  0  0  0  0
  -22.7060  -14.7290   20.4980 O   0  0  0  0  0  0  0  0  0  0  0  0
  -22.7310  -12.2000   22.3570 H   0  0  0  0  0  0  0  0  0  0  0  0
  -21.4450  -13.3490   22.1200 H   0  0  0  0  0  0  0  0  0  0  0  0
  -25.7980  -15.3100   20.2320 N   0  0  0  0  0  0  0  0  0  0  0  0
  -25.0540  -15.9920   20.3360 H   0  0  0  0  0  0  0  0  0  0  0  0
  -26.6800  -15.7220   19.9490 H   0  0  0  0  0  0  0  0  0  0  0  0
  -29.8300  -23.7320   20.5150 C   0  0  0  0  0  2  0  0  0  0  0  0
  -30.4330  -24.7050   21.5540 C   0  0  0  0  0  2  0  0  0  0  0  0
  -30.8780  -26.0680   20.9770 C   0  0  0  0  0  2  0  0  0  0  0  0
  -29.8070  -27.1690   21.0030 C   0  0  0  0  0  2  0  0  0  0  0  0
  -28.7510  -26.8220   20.1220 O   0  0  0  0  0  0  0  0  0  0  0  0
  -24.6800  -31.8370   23.2420 C   0  0  0  0  0  0  0  0  0  0  0  0
  -27.5990  -27.5740   20.1670 C   0  0  0  0  0  0  0  0  0  0  0  0
  -23.5820  -30.4250   21.5310 C   0  0  0  0  0  3  0  0  0  0  0  0
  -25.1400  -28.9680   20.1340 C   0  0  0  0  0  0  0  0  0  0  0  0
  -26.0970  -30.8780   21.4370 C   0  0  0  0  0  2  0  0  0  0  0  0
  -26.2530  -29.5270   20.7720 C   0  0  0  0  0  0  0  0  0  0  0  0
  -27.4830  -28.8380   20.7940 C   0  0  0  0  0  3  0  0  0  0  0  0
  -26.4700  -27.0270   19.5230 C   0  0  0  0  0  3  0  0  0  0  0  0
  -25.2410  -27.7100   19.5110 C   0  0  0  0  0  3  0  0  0  0  0  0
  -23.8630  -29.7800   20.1490 C   0  0  0  0  0  2  0  0  0  0  0  0
  -24.8000  -31.0620   22.1280 N   0  0  0  0  0  0  0  0  0  0  0  0
  -23.5730  -32.0660   23.7460 O   0  0  0  0  0  0  0  0  0  0  0  0
  -22.9360  -29.3620   22.4490 C   0  0  0  0  0  0  0  0  0  0  0  0
  -21.6200  -29.1570   22.2850 N   0  0  0  0  0  0  0  0  0  0  0  0
  -23.6170  -28.7280   23.2600 O   0  0  0  0  0  0  0  0  0  0  0  0
  -21.1330  -29.7240   21.6030 H   0  0  0  0  0  0  0  0  0  0  0  0
  -18.2500  -27.9280   22.7170 C   0  0  0  0  0  0  0  0  0  0  0  0
  -20.8060  -28.1830   23.0090 C   0  0  0  0  0  3  0  0  0  0  0  0
  -20.9160  -26.7800   22.3710 C   0  0  0  0  0  2  0  0  0  0  0  0
  -19.8180  -26.4990   21.3390 C   0  0  0  0  0  2  0  0  0  0  0  0
  -18.4330  -26.6100   21.9830 C   0  0  0  0  0  2  0  0  0  0  0  0
  -19.3660  -28.6730   23.1840 C   0  0  0  0  0  0  0  0  0  0  0  0
  -19.1430  -29.9080   23.8320 C   0  0  0  0  0  3  0  0  0  0  0  0
  -17.8370  -30.4010   24.0140 C   0  0  0  0  0  3  0  0  0  0  0  0
  -16.7350  -29.6530   23.5610 C   0  0  0  0  0  3  0  0  0  0  0  0
  -16.9420  -28.4180   22.9210 C   0  0  0  0  0  3  0  0  0  0  0  0
  -25.9230  -32.4960   23.9200 C   0  0  0  0  0  3  0  0  0  0  0  0
  -25.5710  -33.8890   24.2210 N   0  0  0  0  0  0  0  0  0  0  0  0
  -25.9230  -34.9410   23.4700 C   0  0  0  0  0  0  0  0  0  0  0  0
  -26.6480  -34.8440   22.4760 O   0  0  0  0  0  0  0  0  0  0  0  0
  -24.9160  -34.0370   24.9760 H   0  0  0  0  0  0  0  0  0  0  0  0
  -24.1700  -36.6880   23.0190 C   0  0  0  0  0  1  0  0  0  0  0  0
  -25.3840  -36.3230   23.8880 C   0  0  0  0  0  3  0  0  0  0  0  0
  -27.4550  -37.2620   24.8120 C   0  0  0  0  0  1  0  0  0  0  0  0
  -26.3980  -37.3970   23.8130 N   0  0  0  0  0  0  0  0  0  0  0  0
  -25.9670  -38.3110   23.9330 H   0  0  0  0  0  0  0  0  0  0  0  0
  -26.3980  -31.7390   25.2220 C   0  0  1  0  0  0  0  0  0  0  0  0
  -25.2610  -31.4810   26.2370 C   0  0  0  0  0  1  0  0  0  0  0  0
  -27.0270  -30.3710   24.8660 C   0  0  0  0  0  1  0  0  0  0  0  0
  -27.4960  -32.5600   25.9370 C   0  0  0  0  0  1  0  0  0  0  0  0
  2  5  1  0
  3  1  1  0
  4  2  1  0
  4  6  1  0
  5  8  1  0
  5  1  1  0
  6  3  1  0
  6  7  1  1
  9 15  1  0
 10 15  1  0
 11 12  1  0
 11 10  1  0
 13 12  1  0
 13 25  1  0
 13 14  1  0
 15 14  1  0
 16  9  2  0
 17 19  1  0
 17 18  1  0
 18 20  1  0
 19 21  1  0
 20  8  1  0
 21  9  1  0
 21 20  1  0
 22 23  2  0
 23 42  1  0
 24 23  1  0
 24 27  1  0
 25 22  1  0
 25 26  1  0
 26 24  2  0
 27 28  1  0
 28 29  2  0
 30 33  1  0
 30 29  1  0
 31 30  2  0
 32 31  1  0
 32 27  2  0
 33 34  1  0
 34 35  1  0
 35 36  2  0
 37 36  1  0
 37 41  1  0
 38 37  2  0
 39 34  2  0
 39 38  1  0
 40 39  1  0
 42 43  1  0
 43 46  1  0
 43 45  1  0
 44 42  2  0
 47 48  1  0
 47 22  1  0
 49 47  1  0
 50  6  1  0
 50 51  1  0
 52 53  1  0
 52 51  1  0
 54 56  1  0
 54 53  1  0
 55 66  2  0
 56 61  1  0
 57 65  1  0
 57 67  1  0
 58 64  1  0
 58 60  1  0
 59 65  1  0
 60 61  2  0
 60 59  1  0
 62 56  2  0
 63 62  1  0
 63 58  2  0
 64 57  1  0
 65 55  1  0
 67 69  2  0
 68 67  1  0
 70 68  1  0
 71 80  2  0
 71 76  1  0
 72 68  1  0
 72 76  1  0
 73 72  1  0
 74 75  1  0
 74 73  1  0
 75 71  1  0
 76 77  2  0
 77 78  1  0
 79 78  2  0
 80 79  1  0
 81 55  1  0
 81 82  1  0
 81 91  1  0
 82 85  1  0
 83 87  1  0
 83 82  1  0
 84 83  2  0
 87 86  1  0
 89 87  1  0
 89 90  1  0
 89 88  1  0
 91 94  1  1
 91 92  1  0
 93 91  1  0
M  ISO  4   9 100  21 100  53 101  54 101
M  END
>  <TORSDO>  (5) 
F 21

>  <SCORE>  (5) 
-13.087

>  <name>  (5) 
4

>  <ligand_id>  (5) 
4

>  <original_smiles>  (5) 
[H]C1=C([H])C([H])(C([H])([H])C2([H])C([H])([H])C([H])([H])[N+]([H])(C([H])([H])C([H])([H])C([H])([H])C([H])([H])Oc3c([H])c([H])c4c(c3[H])C([H])([H])N(C(=O)C([H])(N([H])C(=O)C([H])(N([H])C([H])([H])[H])C([H])([H])[H])C(C([H])([H])[H])(C([H])([H])[H])C([H])([H])[H])C([H])(C(=O)N([H])C3([H])c5c([H])c([H])c([H])c([H])c5C([H])([H])C([H])([H])C3([H])[H])C4([H])[H])C([H])([H])C2([H])[H])N(C(=O)N2C([H])([H])C([H])([H])C([H])([H])C([H])(n3nc(-c4c([H])c([H])c(Oc5c([H])c([H])c(F)c([H])c5F)c([H])c4[H])c(C(=O)N([H])[H])c3N([H])[H])C2([H])[H])C1([H])[H]

>  <smiles>  (5) 
[H]C1=C([H])C([H])(C([H])([H])C2([H])C([H])([H])C([H])([H])[N+]([H])(C([H])([H])C([H])([H])C([H])([H])C([H])([H])Oc3c([H])c([H])c4c(c3[H])C([H])([H])N(C(=O)C([H])(N([H])C(=O)C([H])(N([H])C([H])([H])[H])C([H])([H])[H])C(C([H])([H])[H])(C([H])([H])[H])C([H])([H])[H])C([H])(C(=O)N([H])C3([H])c5c([H])c([H])c([H])c([H])c5C([H])([H])C([H])([H])C3([H])[H])C4([H])[H])C([H])([H])C2([H])[H])N(C(=O)N2C([H])([H])C([H])([H])C([H])([H])C([H])(n3nc(-c4c([H])c([H])c(Oc5c([H])c([H])c(F)c([H])c5F)c([H])c4[H])c(C(=O)N([H])[H])c3N([H])[H])C2([H])[H])C1([H])[H]

$$$$
5:0:0
     RDKit          3D

 95103  0  0  1  0  0  0  0  0999 V2000
  -28.1750  -23.3830   24.5860 C   0  0  0  0  0  0  0  0  0  0  0  0
  -29.2180  -22.5290   24.6190 C   0  0  0  0  0  3  0  0  0  0  0  0
  -26.7470  -22.8900   24.4020 C   0  0  0  0  0  2  0  0  0  0  0  0
  -28.2950  -24.8930   24.7190 C   0  0  0  0  0  2  0  0  0  0  0  0
  -26.1940  -23.1140   22.9830 C   0  0  0  0  0  2  0  0  0  0  0  0
  -28.4720  -25.6210   23.3770 C   0  0  0  0  0  2  0  0  0  0  0  0
  -26.3190  -24.5500   22.4390 C   0  0  0  0  0  2  0  0  0  0  0  0
  -27.7790  -24.9740   22.1520 C   0  0  0  0  0  3  0  0  0  0  0  0
  -30.6950  -22.8590   24.7730 C   0  0  0  0  0  2  0  0  0  0  0  0
  -31.4330  -22.8610   23.4100 C   0  0  0  0  0  2  0  0  0  0  0  0
  -32.6750  -21.9150   23.3240 C   0  0  0  0  0  2  0  0  0  0  0  0
  -32.7180  -20.4770   22.7090 C   0  0  0  0  0  2  0  0  0  0  0  0
  -33.7600  -20.2590   21.5860 C   0  0  0  0  0  2  0  0  0  0  0  0
  -34.2900  -18.3090   20.0790 C   0  0  0  0  0  0  0  0  0  0  0  0
  -34.2770  -16.3930   18.5150 C   0  0  0  0  0  2  0  0  0  0  0  0
  -33.4600  -16.7150   17.2460 C   0  0  0  0  0  2  0  0  0  0  0  0
  -31.9550  -16.4500   17.4660 C   0  0  0  0  0  2  0  0  0  0  0  0
  -31.4250  -17.0870   18.7790 C   0  0  0  0  0  3  0  0  0  0  0  0
  -32.3480  -16.7100   19.9570 C   0  0  0  0  0  2  0  0  0  0  0  0
  -33.7170  -17.1600   19.6360 N   0  0  0  0  0  0  0  0  0  0  0  0
  -35.3460  -18.7710   19.6360 O   0  0  0  0  0  0  0  0  0  0  0  0
  -33.5870  -18.9160   21.0440 N   0  0  0  0  0  0  0  0  0  0  0  0
  -32.7720  -18.4080   21.3510 H   0  0  0  0  0  0  0  0  0  0  0  0
  -28.8890  -17.4770   19.0170 C   0  0  0  0  0  0  0  0  0  0  0  0
  -27.8520  -16.6180   19.2640 C   0  0  0  0  0  0  0  0  0  0  0  0
  -28.4400  -15.3260   19.4190 C   0  0  0  0  0  0  0  0  0  0  0  0
  -30.0390  -16.7020   19.0380 N   0  0  0  0  0  0  0  0  0  0  0  0
  -29.7610  -15.4060   19.3310 N   0  0  0  0  0  0  0  0  0  0  0  0
  -27.8200  -14.0060   19.5870 C   0  0  0  0  0  0  0  0  0  0  0  0
  -28.1020  -13.1950   20.7090 C   0  0  0  0  0  3  0  0  0  0  0  0
  -27.4800  -11.9380   20.8580 C   0  0  0  0  0  3  0  0  0  0  0  0
  -26.5650  -11.4780   19.8800 C   0  0  0  0  0  0  0  0  0  0  0  0
  -26.3050  -12.2790   18.7540 C   0  0  0  0  0  3  0  0  0  0  0  0
  -26.9290  -13.5290   18.6060 C   0  0  0  0  0  3  0  0  0  0  0  0
  -25.9320  -10.2610   19.9290 O   0  0  0  0  0  0  0  0  0  0  0  0
  -25.4150   -9.7640   21.0980 C   0  0  0  0  0  0  0  0  0  0  0  0
  -24.4990  -10.5000   21.8800 C   0  0  0  0  0  3  0  0  0  0  0  0
  -23.9390   -9.9230   23.0370 C   0  0  0  0  0  3  0  0  0  0  0  0
  -24.2850   -8.6110   23.4090 C   0  0  0  0  0  0  0  0  0  0  0  0
  -25.1940   -7.8750   22.6280 C   0  0  0  0  0  3  0  0  0  0  0  0
  -25.7540   -8.4490   21.4750 C   0  0  0  0  0  0  0  0  0  0  0  0
  -26.6130   -7.7270   20.7140 F   0  0  0  0  0  0  0  0  0  0  0  0
  -23.7410   -8.0540   24.5160 F   0  0  0  0  0  0  0  0  0  0  0  0
  -26.3890  -16.9560   19.2630 C   0  0  0  0  0  0  0  0  0  0  0  0
  -25.5990  -16.2660   20.0770 N   0  0  0  0  0  0  0  0  0  0  0  0
  -25.9430  -17.8690   18.5690 O   0  0  0  0  0  0  0  0  0  0  0  0
  -25.9660  -15.5310   20.6650 H   0  0  0  0  0  0  0  0  0  0  0  0
  -24.6120  -16.4750   20.1150 H   0  0  0  0  0  0  0  0  0  0  0  0
  -28.9490  -18.8440   18.7590 N   0  0  0  0  0  0  0  0  0  0  0  0
  -28.1190  -19.4210   18.6890 H   0  0  0  0  0  0  0  0  0  0  0  0
  -29.8030  -19.3490   18.5520 H   0  0  0  0  0  0  0  0  0  0  0  0
  -27.8440  -25.8880   20.9140 C   0  0  0  0  0  2  0  0  0  0  0  0
  -29.2310  -25.9710   20.2470 C   0  0  0  0  0  2  0  0  0  0  0  0
  -29.2450  -26.6150   18.8500 C   0  0  0  0  0  2  0  0  0  0  0  0
  -28.9760  -28.0160   18.9060 O   0  0  0  0  0  0  0  0  0  0  0  0
  -24.5840  -31.6610   23.1140 C   0  0  0  0  0  0  0  0  0  0  0  0
  -27.6820  -28.4600   19.0780 C   0  0  0  0  0  0  0  0  0  0  0  0
  -23.5050  -30.4520   21.2450 C   0  0  0  0  0  3  0  0  0  0  0  0
  -25.0850  -29.4950   19.4900 C   0  0  0  0  0  0  0  0  0  0  0  0
  -25.9280  -31.2490   21.0590 C   0  0  0  0  0  2  0  0  0  0  0  0
  -26.1800  -30.0730   20.1420 C   0  0  0  0  0  0  0  0  0  0  0  0
  -27.4770  -29.5610   19.9350 C   0  0  0  0  0  3  0  0  0  0  0  0
  -26.5640  -27.8890   18.4240 C   0  0  0  0  0  3  0  0  0  0  0  0
  -25.2700  -28.3980   18.6350 C   0  0  0  0  0  3  0  0  0  0  0  0
  -23.7300  -30.1110   19.7470 C   0  0  0  0  0  2  0  0  0  0  0  0
  -24.6910  -31.1270   21.8660 N   0  0  0  0  0  0  0  0  0  0  0  0
  -23.5080  -31.6400   23.7300 O   0  0  0  0  0  0  0  0  0  0  0  0
  -23.0760  -29.1640   21.9830 C   0  0  0  0  0  0  0  0  0  0  0  0
  -21.8010  -28.7790   21.8140 N   0  0  0  0  0  0  0  0  0  0  0  0
  -23.8840  -28.5230   22.6590 O   0  0  0  0  0  0  0  0  0  0  0  0
  -21.2010  -29.3630   21.2500 H   0  0  0  0  0  0  0  0  0  0  0  0
  -18.7170  -26.9110   22.0040 C   0  0  0  0  0  0  0  0  0  0  0  0
  -21.1850  -27.5810   22.3810 C   0  0  0  0  0  3  0  0  0  0  0  0
  -21.5460  -26.3250   21.5550 C   0  0  0  0  0  2  0  0  0  0  0  0
  -20.5120  -25.9970   20.4720 C   0  0  0  0  0  2  0  0  0  0  0  0
  -19.1340  -25.7640   21.0990 C   0  0  0  0  0  2  0  0  0  0  0  0
  -19.6790  -27.7730   22.5930 C   0  0  0  0  0  0  0  0  0  0  0  0
  -19.2360  -28.8460   23.3970 C   0  0  0  0  0  3  0  0  0  0  0  0
  -17.8620  -29.0590   23.6200 C   0  0  0  0  0  3  0  0  0  0  0  0
  -16.9150  -28.1930   23.0480 C   0  0  0  0  0  3  0  0  0  0  0  0
  -17.3430  -27.1200   22.2460 C   0  0  0  0  0  3  0  0  0  0  0  0
  -25.7970  -32.3460   23.8180 C   0  0  0  0  0  3  0  0  0  0  0  0
  -25.3780  -33.6990   24.2040 N   0  0  0  0  0  0  0  0  0  0  0  0
  -25.6880  -34.8130   23.5260 C   0  0  0  0  0  0  0  0  0  0  0  0
  -26.4280  -34.8130   22.5380 O   0  0  0  0  0  0  0  0  0  0  0  0
  -24.7240  -33.7690   24.9700 H   0  0  0  0  0  0  0  0  0  0  0  0
  -23.8760  -36.5150   23.1460 C   0  0  0  0  0  1  0  0  0  0  0  0
  -25.0800  -36.1380   24.0230 C   0  0  0  0  0  3  0  0  0  0  0  0
  -27.1030  -37.0850   25.0420 C   0  0  0  0  0  1  0  0  0  0  0  0
  -26.0480  -37.2570   24.0460 N   0  0  0  0  0  0  0  0  0  0  0  0
  -25.5770  -38.1370   24.2330 H   0  0  0  0  0  0  0  0  0  0  0  0
  -26.3230  -31.5430   25.0710 C   0  0  1  0  0  0  0  0  0  0  0  0
  -25.2060  -31.1210   26.0520 C   0  0  0  0  0  1  0  0  0  0  0  0
  -27.0660  -30.2610   24.6240 C   0  0  0  0  0  1  0  0  0  0  0  0
  -27.3500  -32.3990   25.8500 C   0  0  0  0  0  1  0  0  0  0  0  0
  1  2  2  0
  1  4  1  0
  2  9  1  0
  3  1  1  0
  5  3  1  0
  6  4  1  0
  7  5  1  0
  8 52  1  0
  8  7  1  0
  8  6  1  0
 10  9  1  0
 11 10  1  0
 12 11  1  0
 13 12  1  0
 14 22  1  0
 15 20  1  0
 16 17  1  0
 16 15  1  0
 18 17  1  0
 18 27  1  0
 18 19  1  0
 20 19  1  0
 20 14  1  0
 21 14  2  0
 22 23  1  0
 22 13  1  0
 24 27  1  0
 24 25  2  0
 25 26  1  0
 26 29  1  0
 27 28  1  0
 28 26  2  0
 29 30  1  0
 30 31  2  0
 32 35  1  0
 32 31  1  0
 33 32  2  0
 34 33  1  0
 34 29  2  0
 35 36  1  0
 36 41  2  0
 36 37  1  0
 37 38  2  0
 38 39  1  0
 39 43  1  0
 40 39  2  0
 41 40  1  0
 42 41  1  0
 44 25  1  0
 44 45  1  0
 45 48  1  0
 45 47  1  0
 46 44  2  0
 49 24  1  0
 50 49  1  0
 51 49  1  0
 53 52  1  0
 54 55  1  0
 54 53  1  0
 55 57  1  0
 56 67  2  0
 57 62  1  0
 58 66  1  0
 58 68  1  0
 59 65  1  0
 59 61  1  0
 60 66  1  0
 61 60  1  0
 62 61  2  0
 63 64  1  0
 63 57  2  0
 64 59  2  0
 65 58  1  0
 66 56  1  0
 68 70  2  0
 69 68  1  0
 71 69  1  0
 72 81  2  0
 72 77  1  0
 73 69  1  0
 73 77  1  0
 74 73  1  0
 75 76  1  0
 75 74  1  0
 76 72  1  0
 77 78  2  0
 78 79  1  0
 80 79  2  0
 81 80  1  0
 82 56  1  0
 82 83  1  0
 82 92  1  0
 83 86  1  0
 84 88  1  0
 84 83  1  0
 85 84  2  0
 88 87  1  0
 88 90  1  0
 90 91  1  0
 90 89  1  0
 92 95  1  1
 92 93  1  0
 94 92  1  0
M  ISO  4  14 100  22 100  54 101  55 101
M  END
>  <TORSDO>  (6) 
F 24

>  <SCORE>  (6) 
14.991

>  <name>  (6) 
5

>  <ligand_id>  (6) 
5

>  <original_smiles>  (6) 
[H]C(=C1C([H])([H])C([H])([H])C([H])([H])C([H])(C([H])([H])C([H])([H])C([H])([H])Oc2c([H])c([H])c3c(c2[H])C([H])([H])N(C(=O)C([H])(N([H])C(=O)C([H])(N([H])C([H])([H])[H])C([H])([H])[H])C(C([H])([H])[H])(C([H])([H])[H])C([H])([H])[H])C([H])(C(=O)N([H])C2([H])c4c([H])c([H])c([H])c([H])c4C([H])([H])C([H])([H])C2([H])[H])C3([H])[H])C([H])([H])C1([H])[H])C([H])([H])C([H])([H])C([H])([H])C([H])([H])C([H])([H])N([H])C(=O)N1C([H])([H])C([H])([H])C([H])([H])C([H])(n2nc(-c3c([H])c([H])c(Oc4c([H])c([H])c(F)c([H])c4F)c([H])c3[H])c(C(=O)N([H])[H])c2N([H])[H])C1([H])[H]

>  <smiles>  (6) 
[H]C(=C1C([H])([H])C([H])([H])C([H])([H])C([H])(C([H])([H])C([H])([H])C([H])([H])Oc2c([H])c([H])c3c(c2[H])C([H])([H])N(C(=O)C([H])(N([H])C(=O)C([H])(N([H])C([H])([H])[H])C([H])([H])[H])C(C([H])([H])[H])(C([H])([H])[H])C([H])([H])[H])C([H])(C(=O)N([H])C2([H])c4c([H])c([H])c([H])c([H])c4C([H])([H])C([H])([H])C2([H])[H])C3([H])[H])C([H])([H])C1([H])[H])C([H])([H])C([H])([H])C([H])([H])C([H])([H])C([H])([H])N([H])C(=O)N1C([H])([H])C([H])([H])C([H])([H])C([H])(n2nc(-c3c([H])c([H])c(Oc4c([H])c([H])c(F)c([H])c4F)c([H])c3[H])c(C(=O)N([H])[H])c2N([H])[H])C1([H])[H]

$$$$
6:0:0
     RDKit          3D

102110  0  0  1  0  0  0  0  0999 V2000
  -26.6100  -18.2960   23.2370 C   0  0  0  0  0  2  0  0  0  0  0  0
  -28.0950  -18.4920   22.8530 C   0  0  0  0  0  2  0  0  0  0  0  0
  -29.7990  -20.6590   20.1700 C   0  0  0  0  0  2  0  0  0  0  0  0
  -28.8690  -22.1640   21.9110 C   0  0  0  0  0  2  0  0  0  0  0  0
  -29.4960  -19.4430   21.0690 C   0  0  0  0  0  2  0  0  0  0  0  0
  -28.5510  -20.9300   22.7930 C   0  0  0  0  0  2  0  0  0  0  0  0
  -30.0870  -21.9280   20.9950 C   0  0  0  0  0  3  0  0  0  0  0  0
  -28.3580  -19.6840   21.9970 N   0  0  2  0  0  4  0  0  0  0  0  0
  -27.5420  -19.8130   21.4170 H   0  0  0  0  0  0  0  0  0  0  0  0
  -30.4240  -23.1330   20.0760 C   0  0  0  0  0  2  0  0  0  0  0  0
  -30.9140  -24.4010   20.8080 C   0  0  0  0  0  2  0  0  0  0  0  0
  -30.8790  -25.5500   19.9510 O   0  0  0  0  0  0  0  0  0  0  0  0
  -28.5090  -30.9810   23.8710 C   0  0  0  0  0  0  0  0  0  0  0  0
  -29.8480  -26.4200   20.2080 C   0  0  0  0  0  0  0  0  0  0  0  0
  -26.8130  -29.8310   22.4830 C   0  0  0  0  0  3  0  0  0  0  0  0
  -27.7240  -28.1960   20.7480 C   0  0  0  0  0  0  0  0  0  0  0  0
  -29.2660  -29.8860   21.7650 C   0  0  0  0  0  2  0  0  0  0  0  0
  -29.0360  -28.5490   21.0910 C   0  0  0  0  0  0  0  0  0  0  0  0
  -30.1040  -27.6680   20.8130 C   0  0  0  0  0  3  0  0  0  0  0  0
  -28.5250  -26.0740   19.8660 C   0  0  0  0  0  3  0  0  0  0  0  0
  -27.4630  -26.9600   20.1320 C   0  0  0  0  0  3  0  0  0  0  0  0
  -26.6410  -29.1990   21.0740 C   0  0  0  0  0  2  0  0  0  0  0  0
  -28.2280  -30.2410   22.7610 N   0  0  0  0  0  0  0  0  0  0  0  0
  -27.6090  -31.3600   24.6330 O   0  0  0  0  0  0  0  0  0  0  0  0
  -26.2420  -28.8520   23.5350 C   0  0  0  0  0  0  0  0  0  0  0  0
  -24.9070  -28.7100   23.5550 N   0  0  0  0  0  0  0  0  0  0  0  0
  -26.9920  -28.2230   24.2860 O   0  0  0  0  0  0  0  0  0  0  0  0
  -24.3620  -29.2690   22.9120 H   0  0  0  0  0  0  0  0  0  0  0  0
  -21.5830  -27.5320   24.3380 C   0  0  0  0  0  0  0  0  0  0  0  0
  -24.1510  -27.8160   24.4310 C   0  0  0  0  0  3  0  0  0  0  0  0
  -24.2290  -26.3540   23.9330 C   0  0  0  0  0  2  0  0  0  0  0  0
  -23.0670  -25.9670   23.0130 C   0  0  0  0  0  2  0  0  0  0  0  0
  -21.7280  -26.1440   23.7350 C   0  0  0  0  0  2  0  0  0  0  0  0
  -22.7200  -28.3220   24.6510 C   0  0  0  0  0  0  0  0  0  0  0  0
  -22.5300  -29.6200   25.1760 C   0  0  0  0  0  3  0  0  0  0  0  0
  -21.2350  -30.1250   25.3950 C   0  0  0  0  0  3  0  0  0  0  0  0
  -20.1120  -29.3310   25.1000 C   0  0  0  0  0  3  0  0  0  0  0  0
  -20.2880  -28.0380   24.5770 C   0  0  0  0  0  3  0  0  0  0  0  0
  -29.9690  -31.4090   24.2210 C   0  0  0  0  0  3  0  0  0  0  0  0
  -29.9280  -32.8170   24.6400 N   0  0  0  0  0  0  0  0  0  0  0  0
  -30.2620  -33.8520   23.8580 C   0  0  0  0  0  0  0  0  0  0  0  0
  -30.7100  -33.7120   22.7160 O   0  0  0  0  0  0  0  0  0  0  0  0
  -29.5190  -33.0080   25.5420 H   0  0  0  0  0  0  0  0  0  0  0  0
  -28.7640  -35.8710   23.8880 C   0  0  0  0  0  1  0  0  0  0  0  0
  -30.0680  -35.2670   24.4330 C   0  0  0  0  0  3  0  0  0  0  0  0
  -32.4270  -35.8120   24.8420 C   0  0  0  0  0  1  0  0  0  0  0  0
  -31.1970  -36.1790   24.1460 N   0  0  0  0  0  0  0  0  0  0  0  0
  -30.9620  -37.1350   24.4000 H   0  0  0  0  0  0  0  0  0  0  0  0
  -30.6270  -30.5120   25.3400 C   0  0  1  0  0  0  0  0  0  0  0  0
  -29.7580  -30.3630   26.6090 C   0  0  0  0  0  1  0  0  0  0  0  0
  -30.9210  -29.0940   24.7980 C   0  0  0  0  0  1  0  0  0  0  0  0
  -31.9890  -31.1140   25.7620 C   0  0  0  0  0  1  0  0  0  0  0  0
  -26.3740  -16.9140   23.8840 C   0  0  0  0  0  2  0  0  0  0  0  0
  -24.9140  -16.6660   24.3110 C   0  0  0  0  0  2  0  0  0  0  0  0
  -24.5710  -15.1660   24.3210 C   0  0  0  0  0  2  0  0  0  0  0  0
  -23.2650  -14.8130   25.0590 C   0  0  0  0  0  2  0  0  0  0  0  0
  -22.6910  -13.4050   24.7660 C   0  0  0  0  0  2  0  0  0  0  0  0
  -21.7440  -13.2780   23.5500 C   0  0  0  0  0  2  0  0  0  0  0  0
  -22.4150  -13.5950   22.1930 C   0  0  0  0  0  2  0  0  0  0  0  0
  -21.4690  -14.0930   21.0770 C   0  0  0  0  0  2  0  0  0  0  0  0
  -20.5050  -15.2190   21.5220 C   0  0  0  0  0  2  0  0  0  0  0  0
  -20.7720  -16.6380   20.9530 C   0  0  0  0  0  2  0  0  0  0  0  0
  -20.4190  -17.7120   21.9930 C   0  0  0  0  0  2  0  0  0  0  0  0
  -20.6380  -19.1710   21.5620 C   0  0  0  0  0  2  0  0  0  0  0  0
  -19.7000  -21.1380   22.7700 C   0  0  0  0  0  0  0  0  0  0  0  0
  -17.4790  -21.8280   21.9810 C   0  0  0  0  0  2  0  0  0  0  0  0
  -16.5330  -22.3780   23.0560 C   0  0  0  0  0  2  0  0  0  0  0  0
  -15.7470  -21.2420   23.7260 C   0  0  0  0  0  2  0  0  0  0  0  0
  -16.6800  -20.1290   24.2470 C   0  0  0  0  0  3  0  0  0  0  0  0
  -17.6960  -19.6880   23.1770 C   0  0  0  0  0  2  0  0  0  0  0  0
  -18.3900  -20.8500   22.5870 N   0  0  0  0  0  0  0  0  0  0  0  0
  -20.1470  -22.2860   22.8540 O   0  0  0  0  0  0  0  0  0  0  0  0
  -20.5420  -20.0950   22.7010 N   0  0  0  0  0  0  0  0  0  0  0  0
  -21.4520  -20.3230   23.0730 H   0  0  0  0  0  0  0  0  0  0  0  0
  -16.1030  -18.2530   25.9140 C   0  0  0  0  0  0  0  0  0  0  0  0
  -15.0880  -17.3320   25.9470 C   0  0  0  0  0  0  0  0  0  0  0  0
  -14.3210  -17.5510   24.7620 C   0  0  0  0  0  0  0  0  0  0  0  0
  -15.9220  -18.9810   24.7500 N   0  0  0  0  0  0  0  0  0  0  0  0
  -14.8710  -18.5110   24.0280 N   0  0  0  0  0  0  0  0  0  0  0  0
  -13.0580  -16.9480   24.3160 C   0  0  0  0  0  0  0  0  0  0  0  0
  -12.9080  -16.4300   23.0110 C   0  0  0  0  0  3  0  0  0  0  0  0
  -11.6910  -15.8400   22.6090 C   0  0  0  0  0  3  0  0  0  0  0  0
  -10.6090  -15.7560   23.5180 C   0  0  0  0  0  0  0  0  0  0  0  0
  -10.7540  -16.2920   24.8090 C   0  0  0  0  0  3  0  0  0  0  0  0
  -11.9660  -16.8860   25.2060 C   0  0  0  0  0  3  0  0  0  0  0  0
   -9.3800  -15.2210   23.2100 O   0  0  0  0  0  0  0  0  0  0  0  0
   -9.2230  -14.3260   22.1830 C   0  0  0  0  0  0  0  0  0  0  0  0
   -9.9640  -13.1240   22.1170 C   0  0  0  0  0  3  0  0  0  0  0  0
   -9.7180  -12.2020   21.0820 C   0  0  0  0  0  3  0  0  0  0  0  0
   -8.7270  -12.4710   20.1180 C   0  0  0  0  0  0  0  0  0  0  0  0
   -7.9850  -13.6640   20.1860 C   0  0  0  0  0  3  0  0  0  0  0  0
   -8.2310  -14.5860   21.2170 C   0  0  0  0  0  0  0  0  0  0  0  0
   -7.4980  -15.7230   21.2890 F   0  0  0  0  0  0  0  0  0  0  0  0
   -8.4850  -11.5810   19.1270 F   0  0  0  0  0  0  0  0  0  0  0  0
  -14.7840  -16.3780   27.0660 C   0  0  0  0  0  0  0  0  0  0  0  0
  -14.2000  -15.2280   26.7500 N   0  0  0  0  0  0  0  0  0  0  0  0
  -15.1050  -16.6290   28.2260 O   0  0  0  0  0  0  0  0  0  0  0  0
  -13.9600  -15.0060   25.7960 H   0  0  0  0  0  0  0  0  0  0  0  0
  -13.9910  -14.5590   27.4770 H   0  0  0  0  0  0  0  0  0  0  0  0
  -17.1460  -18.5470   26.7830 N   0  0  0  0  0  0  0  0  0  0  0  0
  -17.2520  -18.0810   27.6770 H   0  0  0  0  0  0  0  0  0  0  0  0
  -17.7920  -19.3160   26.6510 H   0  0  0  0  0  0  0  0  0  0  0  0
  1 53  1  0
  2  1  1  0
  3  7  1  0
  3  5  1  0
  4  6  1  0
  5  8  1  0
  7 10  1  0
  7  4  1  0
  8  6  1  0
  8  2  1  0
  8  9  1  6
 10 11  1  0
 12 14  1  0
 12 11  1  0
 13 24  2  0
 14 19  1  0
 15 23  1  0
 15 25  1  0
 16 22  1  0
 16 18  1  0
 17 23  1  0
 18 17  1  0
 19 18  2  0
 20 21  1  0
 20 14  2  0
 21 16  2  0
 22 15  1  0
 23 13  1  0
 25 26  1  0
 25 27  2  0
 28 26  1  0
 29 38  2  0
 29 34  1  0
 30 26  1  0
 30 34  1  0
 31 30  1  0
 32 33  1  0
 32 31  1  0
 33 29  1  0
 34 35  2  0
 35 36  1  0
 37 36  2  0
 38 37  1  0
 39 13  1  0
 39 40  1  0
 39 49  1  0
 40 43  1  0
 41 45  1  0
 41 40  1  0
 42 41  2  0
 45 44  1  0
 47 48  1  0
 47 45  1  0
 47 46  1  0
 49 52  1  1
 49 50  1  0
 51 49  1  0
 53 54  1  0
 54 55  1  0
 55 56  1  0
 57 56  1  0
 58 57  1  0
 59 58  1  0
 60 61  1  0
 60 59  1  0
 62 61  1  0
 62 63  1  0
 64 63  1  0
 64 73  1  0
 65 72  2  0
 66 71  1  0
 66 67  1  0
 67 68  1  0
 68 69  1  0
 69 70  1  0
 69 78  1  0
 71 65  1  0
 71 70  1  0
 73 65  1  0
 73 74  1  0
 75 76  2  0
 75100  1  0
 76 95  1  0
 77 76  1  0
 78 75  1  0
 79 78  1  0
 79 77  2  0
 80 77  1  0
 80 85  1  0
 81 80  2  0
 82 81  1  0
 82 83  2  0
 83 84  1  0
 84 85  2  0
 86 83  1  0
 87 86  1  0
 88 87  1  0
 89 88  2  0
 90 91  2  0
 90 89  1  0
 91 92  1  0
 92 93  1  0
 92 87  2  0
 94 90  1  0
 95 97  2  0
 96 95  1  0
 96 99  1  0
 98 96  1  0
100101  1  0
102100  1  0
M  ISO  4  11 101  12 101  65 100  73 100
M  END
>  <TORSDO>  (7) 
F 32

>  <SCORE>  (7) 
68.831

>  <name>  (7) 
6

>  <ligand_id>  (7) 
6

>  <original_smiles>  (7) 
[H]c1c([H])c([H])c2c(c1[H])C([H])([H])C([H])([H])C([H])([H])C2([H])N([H])C(=O)C1([H])N(C(=O)C([H])(N([H])C(=O)C([H])(N([H])C([H])([H])[H])C([H])([H])[H])C(C([H])([H])[H])(C([H])([H])[H])C([H])([H])[H])C([H])([H])c2c([H])c(OC([H])([H])C([H])([H])C3([H])C([H])([H])C([H])([H])[N+]([H])(C([H])([H])C([H])([H])C([H])([H])C([H])([H])C([H])([H])C([H])([H])C([H])([H])C([H])([H])C([H])([H])C([H])([H])C([H])([H])C([H])([H])C([H])([H])C([H])([H])N([H])C(=O)N4C([H])([H])C([H])([H])C([H])([H])C([H])(n5nc(-c6c([H])c([H])c(Oc7c([H])c([H])c(F)c([H])c7F)c([H])c6[H])c(C(=O)N([H])[H])c5N([H])[H])C4([H])[H])C([H])([H])C3([H])[H])c([H])c([H])c2C1([H])[H]

>  <smiles>  (7) 
[H]c1c([H])c([H])c2c(c1[H])C([H])([H])C([H])([H])C([H])([H])C2([H])N([H])C(=O)C1([H])N(C(=O)C([H])(N([H])C(=O)C([H])(N([H])C([H])([H])[H])C([H])([H])[H])C(C([H])([H])[H])(C([H])([H])[H])C([H])([H])[H])C([H])([H])c2c([H])c(OC([H])([H])C([H])([H])C3([H])C([H])([H])C([H])([H])[N+]([H])(C([H])([H])C([H])([H])C([H])([H])C([H])([H])C([H])([H])C([H])([H])C([H])([H])C([H])([H])C([H])([H])C([H])([H])C([H])([H])C([H])([H])C([H])([H])C([H])([H])N([H])C(=O)N4C([H])([H])C([H])([H])C([H])([H])C([H])(n5nc(-c6c([H])c([H])c(Oc7c([H])c([H])c(F)c([H])c7F)c([H])c6[H])c(C(=O)N([H])[H])c5N([H])[H])C4([H])[H])C([H])([H])C3([H])[H])c([H])c([H])c2C1([H])[H]

$$$$
7:0:0
     RDKit          3D

100108  0  0  1  0  0  0  0  0999 V2000
  -27.6590  -18.9470   19.8350 C   0  0  0  0  0  2  0  0  0  0  0  0
  -28.8070  -17.9880   20.2140 C   0  0  0  0  0  2  0  0  0  0  0  0
  -30.6170  -19.0490   18.7800 C   0  0  0  0  0  2  0  0  0  0  0  0
  -27.9310  -20.4630   19.9490 C   0  0  0  0  0  2  0  0  0  0  0  0
  -29.7520  -20.1810   18.2280 C   0  0  0  0  0  2  0  0  0  0  0  0
  -29.8220  -17.7560   19.0660 C   0  0  0  0  0  3  0  0  0  0  0  0
  -29.1960  -20.9730   19.3450 N   0  0  1  0  0  4  0  0  0  0  0  0
  -29.8940  -20.9040   20.0710 H   0  0  0  0  0  0  0  0  0  0  0  0
  -29.1450  -22.4090   19.0010 C   0  0  0  0  0  2  0  0  0  0  0  0
  -28.8680  -23.3090   20.2060 C   0  0  0  0  0  2  0  0  0  0  0  0
  -28.7610  -24.7410   19.7240 C   0  0  0  0  0  2  0  0  0  0  0  0
  -28.5020  -25.7130   20.8540 C   0  0  0  0  0  2  0  0  0  0  0  0
  -28.4430  -26.9630   20.2150 O   0  0  0  0  0  0  0  0  0  0  0  0
  -24.5540  -31.9580   23.2440 C   0  0  0  0  0  0  0  0  0  0  0  0
  -27.2230  -27.5710   20.2220 C   0  0  0  0  0  0  0  0  0  0  0  0
  -23.3430  -30.5410   21.6110 C   0  0  0  0  0  3  0  0  0  0  0  0
  -24.8000  -28.9920   20.2110 C   0  0  0  0  0  0  0  0  0  0  0  0
  -25.8550  -30.9300   21.3980 C   0  0  0  0  0  2  0  0  0  0  0  0
  -25.9470  -29.5530   20.7860 C   0  0  0  0  0  0  0  0  0  0  0  0
  -27.1580  -28.8490   20.7900 C   0  0  0  0  0  3  0  0  0  0  0  0
  -26.0650  -26.9900   19.6550 C   0  0  0  0  0  3  0  0  0  0  0  0
  -24.8490  -27.7030   19.6490 C   0  0  0  0  0  3  0  0  0  0  0  0
  -23.5490  -29.8380   20.2420 C   0  0  0  0  0  2  0  0  0  0  0  0
  -24.6030  -31.1560   22.1460 N   0  0  0  0  0  0  0  0  0  0  0  0
  -23.4760  -32.2340   23.7890 O   0  0  0  0  0  0  0  0  0  0  0  0
  -22.6960  -29.5290   22.5820 C   0  0  0  0  0  0  0  0  0  0  0  0
  -21.3720  -29.3520   22.4590 N   0  0  0  0  0  0  0  0  0  0  0  0
  -23.3830  -28.9030   23.3930 O   0  0  0  0  0  0  0  0  0  0  0  0
  -20.8850  -29.9050   21.7680 H   0  0  0  0  0  0  0  0  0  0  0  0
  -17.9920  -28.2030   22.9740 C   0  0  0  0  0  0  0  0  0  0  0  0
  -20.5530  -28.4260   23.2360 C   0  0  0  0  0  3  0  0  0  0  0  0
  -20.6360  -26.9950   22.6610 C   0  0  0  0  0  2  0  0  0  0  0  0
  -19.5270  -26.6850   21.6530 C   0  0  0  0  0  2  0  0  0  0  0  0
  -18.1480  -26.8490   22.3010 C   0  0  0  0  0  2  0  0  0  0  0  0
  -19.1220  -28.9510   23.3970 C   0  0  0  0  0  0  0  0  0  0  0  0
  -18.9220  -30.2200   23.9820 C   0  0  0  0  0  3  0  0  0  0  0  0
  -17.6250  -30.7400   24.1470 C   0  0  0  0  0  3  0  0  0  0  0  0
  -16.5090  -29.9890   23.7410 C   0  0  0  0  0  3  0  0  0  0  0  0
  -16.6930  -28.7220   23.1590 C   0  0  0  0  0  3  0  0  0  0  0  0
  -25.8460  -32.5860   23.8610 C   0  0  0  0  0  3  0  0  0  0  0  0
  -26.3700  -31.8110   25.1310 C   0  0  1  0  0  0  0  0  0  0  0  0
  -25.2830  -31.5690   26.2040 C   0  0  0  0  0  1  0  0  0  0  0  0
  -26.9510  -30.4350   24.7250 C   0  0  0  0  0  1  0  0  0  0  0  0
  -27.5250  -32.6030   25.7890 C   0  0  0  0  0  1  0  0  0  0  0  0
  -25.5430  -33.9820   24.1880 N   0  0  0  0  0  0  0  0  0  0  0  0
  -25.8850  -35.0310   23.4260 C   0  0  0  0  0  0  0  0  0  0  0  0
  -26.5600  -34.9220   22.3980 O   0  0  0  0  0  0  0  0  0  0  0  0
  -24.9480  -34.1430   24.9870 H   0  0  0  0  0  0  0  0  0  0  0  0
  -24.1670  -36.8230   23.0450 C   0  0  0  0  0  1  0  0  0  0  0  0
  -25.3960  -36.4200   23.8740 C   0  0  0  0  0  3  0  0  0  0  0  0
  -27.5250  -37.2960   24.7270 C   0  0  0  0  0  1  0  0  0  0  0  0
  -26.4330  -37.4690   23.7720 N   0  0  0  0  0  0  0  0  0  0  0  0
  -26.0310  -38.3910   23.9150 H   0  0  0  0  0  0  0  0  0  0  0  0
  -30.8050  -16.5690   19.2800 C   0  0  0  0  0  3  0  0  0  0  0  0
  -30.7930  -14.4880   20.6430 C   0  0  0  0  0  0  0  0  0  0  0  0
  -30.4970  -12.2880   19.7080 C   0  0  0  0  0  2  0  0  0  0  0  0
  -29.6350  -12.4690   18.4420 C   0  0  0  0  0  2  0  0  0  0  0  0
  -28.1400  -12.3760   18.7970 C   0  0  0  0  0  2  0  0  0  0  0  0
  -27.7300  -13.2780   19.9950 C   0  0  0  0  0  3  0  0  0  0  0  0
  -28.7340  -13.1560   21.1660 C   0  0  0  0  0  2  0  0  0  0  0  0
  -30.0950  -13.3350   20.6460 N   0  0  0  0  0  0  0  0  0  0  0  0
  -32.0140  -14.5630   20.7510 O   0  0  0  0  0  0  0  0  0  0  0  0
  -30.1530  -15.4580   19.9840 N   0  0  0  0  0  0  0  0  0  0  0  0
  -29.1840  -15.2810   19.7730 H   0  0  0  0  0  0  0  0  0  0  0  0
  -25.2980  -13.9010   20.5760 C   0  0  0  0  0  0  0  0  0  0  0  0
  -24.2110  -13.1350   20.8940 C   0  0  0  0  0  0  0  0  0  0  0  0
  -24.6730  -11.7820   20.9280 C   0  0  0  0  0  0  0  0  0  0  0  0
  -26.3560  -13.0160   20.4240 N   0  0  0  0  0  0  0  0  0  0  0  0
  -25.9810  -11.7370   20.7020 N   0  0  0  0  0  0  0  0  0  0  0  0
  -23.9370  -10.5250   21.1020 C   0  0  0  0  0  0  0  0  0  0  0  0
  -24.3300   -9.5660   22.0650 C   0  0  0  0  0  3  0  0  0  0  0  0
  -23.5960   -8.3710   22.2230 C   0  0  0  0  0  3  0  0  0  0  0  0
  -22.4570   -8.1280   21.4200 C   0  0  0  0  0  0  0  0  0  0  0  0
  -22.0820   -9.0720   20.4480 C   0  0  0  0  0  3  0  0  0  0  0  0
  -22.8210  -10.2560   20.2840 C   0  0  0  0  0  3  0  0  0  0  0  0
  -21.7040   -6.9790   21.4840 O   0  0  0  0  0  0  0  0  0  0  0  0
  -21.6120   -6.2390   22.6360 C   0  0  0  0  0  0  0  0  0  0  0  0
  -21.1620   -6.8010   23.8510 C   0  0  0  0  0  3  0  0  0  0  0  0
  -21.0170   -5.9910   24.9950 C   0  0  0  0  0  3  0  0  0  0  0  0
  -21.3190   -4.6170   24.9250 C   0  0  0  0  0  0  0  0  0  0  0  0
  -21.7660   -4.0540   23.7210 C   0  0  0  0  0  3  0  0  0  0  0  0
  -21.9080   -4.8630   22.5780 C   0  0  0  0  0  0  0  0  0  0  0  0
  -22.3190   -4.3120   21.4100 F   0  0  0  0  0  0  0  0  0  0  0  0
  -21.1780   -3.8350   26.0220 F   0  0  0  0  0  0  0  0  0  0  0  0
  -22.7980  -13.6120   21.0700 C   0  0  0  0  0  0  0  0  0  0  0  0
  -22.0280  -12.9380   21.9110 N   0  0  0  0  0  0  0  0  0  0  0  0
  -22.3880  -14.6240   20.5000 O   0  0  0  0  0  0  0  0  0  0  0  0
  -22.3700  -12.1200   22.3920 H   0  0  0  0  0  0  0  0  0  0  0  0
  -21.0840  -13.2400   22.0900 H   0  0  0  0  0  0  0  0  0  0  0  0
  -25.4710  -15.2720   20.3790 N   0  0  0  0  0  0  0  0  0  0  0  0
  -24.6950  -15.9190   20.4510 H   0  0  0  0  0  0  0  0  0  0  0  0
  -26.3350  -15.7190   20.1010 H   0  0  0  0  0  0  0  0  0  0  0  0
  -31.3590  -16.0910   17.8990 C   0  0  0  0  0  2  0  0  0  0  0  0
  -32.6630  -15.2670   17.9050 C   0  0  0  0  0  2  0  0  0  0  0  0
  -33.2860  -15.1620   16.4990 C   0  0  0  0  0  2  0  0  0  0  0  0
  -34.4760  -14.1940   16.3910 C   0  0  0  0  0  2  0  0  0  0  0  0
  -35.7330  -14.8000   16.8630 N   0  0  0  0  0  4  0  0  0  0  0  0
  -35.9370  -15.6370   16.3430 H   0  0  0  0  0  0  0  0  0  0  0  0
  -36.4970  -14.1630   16.7290 H   0  0  0  0  0  0  0  0  0  0  0  0
  -35.6630  -15.0170   17.8420 H   0  0  0  0  0  0  0  0  0  0  0  0
  1  4  1  0
  1  2  1  0
  3  6  1  0
  5  3  1  0
  5  7  1  0
  6 54  1  0
  6  2  1  0
  7  4  1  0
  7  8  1  1
  9  7  1  0
  9 10  1  0
 11 10  1  0
 11 12  1  0
 13 15  1  0
 13 12  1  0
 14 25  2  0
 15 20  1  0
 16 24  1  0
 16 26  1  0
 17 23  1  0
 17 19  1  0
 18 24  1  0
 19 20  2  0
 19 18  1  0
 21 15  2  0
 22 21  1  0
 22 17  2  0
 23 16  1  0
 24 14  1  0
 26 28  2  0
 27 26  1  0
 29 27  1  0
 30 39  2  0
 30 35  1  0
 31 27  1  0
 31 35  1  0
 32 31  1  0
 33 34  1  0
 33 32  1  0
 34 30  1  0
 35 36  2  0
 36 37  1  0
 38 37  2  0
 39 38  1  0
 40 14  1  0
 40 45  1  0
 40 41  1  0
 41 44  1  1
 41 42  1  0
 43 41  1  0
 45 48  1  0
 46 50  1  0
 46 45  1  0
 47 46  2  0
 50 49  1  0
 52 50  1  0
 52 53  1  0
 52 51  1  0
 54 93  1  0
 54 63  1  0
 55 61  1  0
 55 62  2  0
 56 61  1  0
 57 58  1  0
 57 56  1  0
 59 58  1  0
 59 68  1  0
 59 60  1  0
 61 60  1  0
 63 55  1  0
 64 63  1  0
 65 66  2  0
 66 67  1  0
 66 85  1  0
 67 70  1  0
 68 65  1  0
 68 69  1  0
 69 67  2  0
 70 71  1  0
 71 72  2  0
 73 76  1  0
 73 72  1  0
 74 73  2  0
 75 74  1  0
 75 70  2  0
 76 77  1  0
 77 78  1  0
 78 79  2  0
 80 79  1  0
 80 84  1  0
 81 80  2  0
 82 77  2  0
 82 81  1  0
 83 82  1  0
 85 86  1  0
 86 89  1  0
 86 88  1  0
 87 85  2  0
 90 91  1  0
 90 65  1  0
 92 90  1  0
 93 94  1  0
 95 94  1  0
 96 95  1  0
 96 97  1  0
 97100  1  0
 98 97  1  0
 99 97  1  0
M  ISO  4  12 101  13 101  55 100  63 100
M  END
>  <TORSDO>  (8) 
F 26

>  <SCORE>  (8) 
-12.018

>  <name>  (8) 
7

>  <ligand_id>  (8) 
7

>  <original_smiles>  (8) 
[H]c1c([H])c([H])c2c(c1[H])C([H])([H])C([H])([H])C([H])([H])C2([H])N([H])C(=O)C1([H])N(C(=O)C([H])(N([H])C(=O)C([H])(N([H])C([H])([H])[H])C([H])([H])[H])C(C([H])([H])[H])(C([H])([H])[H])C([H])([H])[H])C([H])([H])c2c([H])c(OC([H])([H])C([H])([H])C([H])([H])C([H])([H])[N+]3([H])C([H])([H])C([H])([H])C([H])([H])C([H])(C([H])(N([H])C(=O)N4C([H])([H])C([H])([H])C([H])([H])C([H])(n5nc(-c6c([H])c([H])c(Oc7c([H])c([H])c(F)c([H])c7F)c([H])c6[H])c(C(=O)N([H])[H])c5N([H])[H])C4([H])[H])C([H])([H])C([H])([H])C([H])([H])C([H])([H])[N+]([H])([H])[H])C([H])([H])C3([H])[H])c([H])c([H])c2C1([H])[H]

>  <smiles>  (8) 
[H]c1c([H])c([H])c2c(c1[H])C([H])([H])C([H])([H])C([H])([H])C2([H])N([H])C(=O)C1([H])N(C(=O)C([H])(N([H])C(=O)C([H])(N([H])C([H])([H])[H])C([H])([H])[H])C(C([H])([H])[H])(C([H])([H])[H])C([H])([H])[H])C([H])([H])c2c([H])c(OC([H])([H])C([H])([H])C([H])([H])C([H])([H])[N+]3([H])C([H])([H])C([H])([H])C([H])([H])C([H])(C([H])(N([H])C(=O)N4C([H])([H])C([H])([H])C([H])([H])C([H])(n5nc(-c6c([H])c([H])c(Oc7c([H])c([H])c(F)c([H])c7F)c([H])c6[H])c(C(=O)N([H])[H])c5N([H])[H])C4([H])[H])C([H])([H])C([H])([H])C([H])([H])C([H])([H])[N+]([H])([H])[H])C([H])([H])C3([H])[H])c([H])c([H])c2C1([H])[H]

$$$$
8:0:0
     RDKit          3D

 91 99  0  0  1  0  0  0  0  0999 V2000
  -30.0670  -19.4710   21.1270 C   0  0  0  0  0  0  0  0  0  0  0  0
  -29.8490  -18.0190   20.6230 C   0  0  0  0  0  0  0  0  0  0  0  0
  -30.6300  -19.5950   22.5580 C   0  0  0  0  0  2  0  0  0  0  0  0
  -31.4870  -18.4180   23.0590 C   0  0  0  0  0  2  0  0  0  0  0  0
  -30.8410  -17.0640   22.7610 C   0  0  0  0  0  2  0  0  0  0  0  0
  -30.7190  -16.8780   21.2410 C   0  0  0  0  0  3  0  0  0  0  0  0
  -29.7260  -20.5170   20.4410 N   0  0  0  0  0  0  0  0  0  0  0  0
  -29.0370  -17.7750   19.7220 O   0  0  0  0  0  0  0  0  0  0  0  0
  -30.7680  -14.5650   20.2310 C   0  0  0  0  0  0  0  0  0  0  0  0
  -30.4090  -12.4370   19.0260 C   0  0  0  0  0  2  0  0  0  0  0  0
  -29.4280  -12.6500   17.8550 C   0  0  0  0  0  2  0  0  0  0  0  0
  -27.9700  -12.5050   18.3320 C   0  0  0  0  0  2  0  0  0  0  0  0
  -27.6730  -13.3300   19.6120 C   0  0  0  0  0  3  0  0  0  0  0  0
  -28.7620  -13.0960   20.6840 C   0  0  0  0  0  2  0  0  0  0  0  0
  -30.0690  -13.4060   20.0810 N   0  0  0  0  0  0  0  0  0  0  0  0
  -31.8500  -14.7660   19.6700 O   0  0  0  0  0  0  0  0  0  0  0  0
  -30.1800  -15.5250   20.9670 N   0  0  0  0  0  0  0  0  0  0  0  0
  -29.2650  -15.3140   21.3360 H   0  0  0  0  0  0  0  0  0  0  0  0
  -25.2960  -13.9290   20.3930 C   0  0  0  0  0  0  0  0  0  0  0  0
  -24.2400  -13.1530   20.7900 C   0  0  0  0  0  0  0  0  0  0  0  0
  -24.7030  -11.8020   20.7420 C   0  0  0  0  0  0  0  0  0  0  0  0
  -26.3360  -13.0510   20.1300 N   0  0  0  0  0  0  0  0  0  0  0  0
  -25.9840  -11.7660   20.3960 N   0  0  0  0  0  0  0  0  0  0  0  0
  -23.9850  -10.5380   20.9490 C   0  0  0  0  0  0  0  0  0  0  0  0
  -24.4350   -9.5760   21.8790 C   0  0  0  0  0  3  0  0  0  0  0  0
  -23.7170   -8.3760   22.0730 C   0  0  0  0  0  3  0  0  0  0  0  0
  -22.5340   -8.1300   21.3360 C   0  0  0  0  0  0  0  0  0  0  0  0
  -22.1030   -9.0800   20.3940 C   0  0  0  0  0  3  0  0  0  0  0  0
  -22.8220  -10.2720   20.1980 C   0  0  0  0  0  3  0  0  0  0  0  0
  -21.7860   -6.9830   21.4390 O   0  0  0  0  0  0  0  0  0  0  0  0
  -21.7380   -6.2560   22.6020 C   0  0  0  0  0  0  0  0  0  0  0  0
  -21.2800   -6.8190   23.8140 C   0  0  0  0  0  3  0  0  0  0  0  0
  -21.1820   -6.0170   24.9700 C   0  0  0  0  0  3  0  0  0  0  0  0
  -21.5320   -4.6540   24.9140 C   0  0  0  0  0  0  0  0  0  0  0  0
  -21.9840   -4.0920   23.7070 C   0  0  0  0  0  3  0  0  0  0  0  0
  -22.0830   -4.8900   22.5540 C   0  0  0  0  0  0  0  0  0  0  0  0
  -22.4990   -4.3380   21.3890 F   0  0  0  0  0  0  0  0  0  0  0  0
  -21.4310   -3.8830   26.0220 F   0  0  0  0  0  0  0  0  0  0  0  0
  -22.8500  -13.6260   21.1050 C   0  0  0  0  0  0  0  0  0  0  0  0
  -22.1480  -12.9240   21.9870 N   0  0  0  0  0  0  0  0  0  0  0  0
  -22.3970  -14.6550   20.6060 O   0  0  0  0  0  0  0  0  0  0  0  0
  -22.5260  -12.0910   22.4130 H   0  0  0  0  0  0  0  0  0  0  0  0
  -21.2160  -13.2230   22.2390 H   0  0  0  0  0  0  0  0  0  0  0  0
  -25.4540  -15.3000   20.2150 N   0  0  0  0  0  0  0  0  0  0  0  0
  -24.6870  -15.9520   20.3380 H   0  0  0  0  0  0  0  0  0  0  0  0
  -26.2940  -15.7410   19.8600 H   0  0  0  0  0  0  0  0  0  0  0  0
  -29.9140  -21.8850   20.9470 C   0  0  0  0  0  2  0  0  0  0  0  0
  -29.1180  -22.9170   20.1060 C   0  0  0  0  0  2  0  0  0  0  0  0
  -29.2910  -24.4050   20.5350 C   0  0  0  0  0  2  0  0  0  0  0  0
  -28.2230  -25.3360   19.9100 C   0  0  0  0  0  2  0  0  0  0  0  0
  -28.3350  -26.7340   20.2630 O   0  0  0  0  0  0  0  0  0  0  0  0
  -24.5160  -31.9440   23.3050 C   0  0  0  0  0  0  0  0  0  0  0  0
  -27.1730  -27.4960   20.2120 C   0  0  0  0  0  0  0  0  0  0  0  0
  -23.3190  -30.5480   21.6530 C   0  0  0  0  0  3  0  0  0  0  0  0
  -24.7790  -29.0270   20.2210 C   0  0  0  0  0  0  0  0  0  0  0  0
  -25.8490  -30.9050   21.4690 C   0  0  0  0  0  2  0  0  0  0  0  0
  -25.9380  -29.5370   20.8200 C   0  0  0  0  0  0  0  0  0  0  0  0
  -27.1350  -28.7800   20.8140 C   0  0  0  0  0  3  0  0  0  0  0  0
  -25.9930  -27.0230   19.5850 C   0  0  0  0  0  3  0  0  0  0  0  0
  -24.8040  -27.7700   19.6010 C   0  0  0  0  0  3  0  0  0  0  0  0
  -23.5340  -29.8840   20.2690 C   0  0  0  0  0  2  0  0  0  0  0  0
  -24.5790  -31.1470   22.2000 N   0  0  0  0  0  0  0  0  0  0  0  0
  -23.4320  -32.2100   23.8410 O   0  0  0  0  0  0  0  0  0  0  0  0
  -22.6680  -29.5180   22.6040 C   0  0  0  0  0  0  0  0  0  0  0  0
  -21.3480  -29.3180   22.4610 N   0  0  0  0  0  0  0  0  0  0  0  0
  -23.3490  -28.9010   23.4280 O   0  0  0  0  0  0  0  0  0  0  0  0
  -20.8590  -29.8680   21.7690 H   0  0  0  0  0  0  0  0  0  0  0  0
  -17.9790  -28.0970   22.9280 C   0  0  0  0  0  0  0  0  0  0  0  0
  -20.5320  -28.3720   23.2220 C   0  0  0  0  0  3  0  0  0  0  0  0
  -20.6510  -26.9440   22.6440 C   0  0  0  0  0  2  0  0  0  0  0  0
  -19.5600  -26.6160   21.6200 C   0  0  0  0  0  2  0  0  0  0  0  0
  -18.1710  -26.7500   22.2510 C   0  0  0  0  0  2  0  0  0  0  0  0
  -19.0890  -28.8650   23.3700 C   0  0  0  0  0  0  0  0  0  0  0  0
  -18.8560  -30.1260   23.9620 C   0  0  0  0  0  3  0  0  0  0  0  0
  -17.5460  -30.6180   24.1170 C   0  0  0  0  0  3  0  0  0  0  0  0
  -16.4510  -29.8460   23.6920 C   0  0  0  0  0  3  0  0  0  0  0  0
  -16.6670  -28.5880   23.1030 C   0  0  0  0  0  3  0  0  0  0  0  0
  -25.7970  -32.5760   23.9300 C   0  0  0  0  0  3  0  0  0  0  0  0
  -26.3030  -31.8120   25.2150 C   0  0  1  0  0  0  0  0  0  0  0  0
  -25.1990  -31.5750   26.2710 C   0  0  0  0  0  1  0  0  0  0  0  0
  -26.8970  -30.4360   24.8340 C   0  0  0  0  0  1  0  0  0  0  0  0
  -27.4430  -32.6140   25.8860 C   0  0  0  0  0  1  0  0  0  0  0  0
  -25.4890  -33.9770   24.2470 N   0  0  0  0  0  0  0  0  0  0  0  0
  -25.8140  -35.0200   23.4710 C   0  0  0  0  0  0  0  0  0  0  0  0
  -26.4750  -34.9060   22.4360 O   0  0  0  0  0  0  0  0  0  0  0  0
  -24.8990  -34.1410   25.0490 H   0  0  0  0  0  0  0  0  0  0  0  0
  -24.0720  -36.7990   23.1150 C   0  0  0  0  0  1  0  0  0  0  0  0
  -25.3270  -36.4130   23.9150 C   0  0  0  0  0  3  0  0  0  0  0  0
  -27.4640  -37.3220   24.7090 C   0  0  0  0  0  1  0  0  0  0  0  0
  -26.3530  -37.4680   23.7720 N   0  0  0  0  0  0  0  0  0  0  0  0
  -25.9440  -38.3880   23.9060 H   0  0  0  0  0  0  0  0  0  0  0  0
  1  3  1  0
  2  1  1  0
  2  6  1  0
  3  4  1  0
  5  4  1  0
  6 17  1  0
  6  5  1  0
  7 47  1  0
  7  1  2  0
  8  2  2  0
  9 17  1  0
 10 15  1  0
 11 12  1  0
 11 10  1  0
 13 12  1  0
 13 22  1  0
 13 14  1  0
 15  9  1  0
 15 14  1  0
 16  9  2  0
 17 18  1  0
 19 20  2  0
 20 39  1  0
 21 20  1  0
 21 24  1  0
 22 19  1  0
 22 23  1  0
 23 21  2  0
 24 25  1  0
 25 26  2  0
 27 30  1  0
 27 26  1  0
 28 27  2  0
 29 28  1  0
 29 24  2  0
 30 31  1  0
 31 32  1  0
 32 33  2  0
 34 33  1  0
 34 38  1  0
 35 34  2  0
 36 31  2  0
 36 35  1  0
 37 36  1  0
 39 40  1  0
 40 43  1  0
 40 42  1  0
 41 39  2  0
 44 45  1  0
 44 19  1  0
 46 44  1  0
 48 49  1  0
 48 47  1  0
 50 51  1  0
 50 49  1  0
 52 63  2  0
 53 51  1  0
 53 58  1  0
 54 62  1  0
 54 64  1  0
 55 61  1  0
 55 57  1  0
 56 62  1  0
 57 56  1  0
 58 57  2  0
 59 60  1  0
 59 53  2  0
 60 55  2  0
 61 54  1  0
 62 52  1  0
 64 66  2  0
 65 64  1  0
 67 65  1  0
 68 77  2  0
 68 73  1  0
 69 65  1  0
 69 73  1  0
 70 69  1  0
 71 72  1  0
 71 70  1  0
 72 68  1  0
 73 74  2  0
 74 75  1  0
 76 75  2  0
 77 76  1  0
 78 52  1  0
 78 83  1  0
 78 79  1  0
 79 82  1  1
 79 80  1  0
 81 79  1  0
 83 86  1  0
 84 88  1  0
 84 83  1  0
 85 84  2  0
 88 87  1  0
 90 91  1  0
 90 88  1  0
 90 89  1  0
M  ISO  4   9 100  17 100  50 101  51 101
M  END
>  <TORSDO>  (9) 
F 20

>  <SCORE>  (9) 
-13.154

>  <name>  (9) 
8

>  <ligand_id>  (9) 
8

>  <original_smiles>  (9) 
[H]c1c([H])c([H])c2c(c1[H])C([H])([H])C([H])([H])C([H])([H])C2([H])N([H])C(=O)C1([H])N(C(=O)C([H])(N([H])C(=O)C([H])(N([H])C([H])([H])[H])C([H])([H])[H])C(C([H])([H])[H])(C([H])([H])[H])C([H])([H])[H])C([H])([H])c2c([H])c(OC([H])([H])C([H])([H])C([H])([H])C([H])([H])N=C3C(=O)C([H])(N([H])C(=O)N4C([H])([H])C([H])([H])C([H])([H])C([H])(n5nc(-c6c([H])c([H])c(Oc7c([H])c([H])c(F)c([H])c7F)c([H])c6[H])c(C(=O)N([H])[H])c5N([H])[H])C4([H])[H])C([H])([H])C([H])([H])C3([H])[H])c([H])c([H])c2C1([H])[H]

>  <smiles>  (9) 
[H]c1c([H])c([H])c2c(c1[H])C([H])([H])C([H])([H])C([H])([H])C2([H])N([H])C(=O)C1([H])N(C(=O)C([H])(N([H])C(=O)C([H])(N([H])C([H])([H])[H])C([H])([H])[H])C(C([H])([H])[H])(C([H])([H])[H])C([H])([H])[H])C([H])([H])c2c([H])c(OC([H])([H])C([H])([H])C([H])([H])C([H])([H])N=C3C(=O)C([H])(N([H])C(=O)N4C([H])([H])C([H])([H])C([H])([H])C([H])(n5nc(-c6c([H])c([H])c(Oc7c([H])c([H])c(F)c([H])c7F)c([H])c6[H])c(C(=O)N([H])[H])c5N([H])[H])C4([H])[H])C([H])([H])C([H])([H])C3([H])[H])c([H])c([H])c2C1([H])[H]

$$$$
9:0:0
     RDKit          3D

 99109  0  0  1  0  0  0  0  0999 V2000
  -24.9700  -22.9890   20.8580 C   0  0  0  0  0  2  0  0  0  0  0  0
  -23.5760  -23.3340   20.3150 C   0  0  0  0  0  2  0  0  0  0  0  0
  -24.5330  -25.0860   18.9440 C   0  0  0  0  0  2  0  0  0  0  0  0
  -26.0120  -23.2350   19.7360 C   0  0  0  0  0  3  0  0  0  0  0  0
  -26.0000  -24.7720   19.4280 C   0  0  0  0  0  3  0  0  0  0  0  0
  -23.5400  -24.7670   19.9960 N   0  0  0  0  0  4  0  0  0  0  0  0
  -23.7390  -25.2870   20.8350 H   0  0  0  0  0  0  0  0  0  0  0  0
  -22.6060  -25.0180   19.7050 H   0  0  0  0  0  0  0  0  0  0  0  0
  -27.3610  -22.4950   19.9530 C   0  0  0  0  0  2  0  0  0  0  0  0
  -27.1680  -20.9910   20.2700 C   0  0  0  0  0  2  0  0  0  0  0  0
  -31.2080  -14.7300   19.2740 C   0  0  0  0  0  0  0  0  0  0  0  0
  -30.7820  -12.4050   18.5200 C   0  0  0  0  0  2  0  0  0  0  0  0
  -29.7220  -12.3740   17.4060 C   0  0  0  0  0  2  0  0  0  0  0  0
  -28.3070  -12.3050   18.0060 C   0  0  0  0  0  2  0  0  0  0  0  0
  -28.0800  -13.3370   19.1410 C   0  0  0  0  0  3  0  0  0  0  0  0
  -29.2570  -13.3500   20.1500 C   0  0  0  0  0  2  0  0  0  0  0  0
  -30.5040  -13.5620   19.4030 N   0  0  0  0  0  0  0  0  0  0  0  0
  -32.1760  -14.7920   18.5090 O   0  0  0  0  0  0  0  0  0  0  0  0
  -30.5900  -19.8850   21.6140 C   0  0  0  0  0  3  0  0  0  0  0  0
  -29.5020  -20.7090   21.2670 C   0  0  0  0  0  3  0  0  0  0  0  0
  -28.5270  -18.8510   20.0170 C   0  0  0  0  0  3  0  0  0  0  0  0
  -30.6440  -18.5480   21.1640 C   0  0  0  0  0  0  0  0  0  0  0  0
  -29.6330  -18.0290   20.3340 C   0  0  0  0  0  0  0  0  0  0  0  0
  -28.4410  -20.1790   20.4980 C   0  0  0  0  0  0  0  0  0  0  0  0
  -31.7780  -17.6500   21.5790 C   0  0  0  0  0  2  0  0  0  0  0  0
  -29.7010  -16.5920   19.7940 C   0  0  0  0  0  2  0  0  0  0  0  0
  -32.0920  -16.6120   20.4920 C   0  0  0  0  0  2  0  0  0  0  0  0
  -30.9210  -15.7940   20.0850 N   0  0  0  0  0  0  0  0  0  0  0  0
  -25.8850  -14.0540   20.2800 C   0  0  0  0  0  0  0  0  0  0  0  0
  -24.8250  -13.3390   20.7610 C   0  0  0  0  0  0  0  0  0  0  0  0
  -25.1440  -11.9600   20.5430 C   0  0  0  0  0  0  0  0  0  0  0  0
  -26.7960  -13.1210   19.8060 N   0  0  0  0  0  0  0  0  0  0  0  0
  -26.3610  -11.8530   20.0200 N   0  0  0  0  0  0  0  0  0  0  0  0
  -24.3410  -10.7480   20.7510 C   0  0  0  0  0  0  0  0  0  0  0  0
  -24.7230   -9.7600   21.6870 C   0  0  0  0  0  3  0  0  0  0  0  0
  -23.9220   -8.6160   21.8850 C   0  0  0  0  0  3  0  0  0  0  0  0
  -22.7240   -8.4470   21.1500 C   0  0  0  0  0  0  0  0  0  0  0  0
  -22.3620   -9.4210   20.2020 C   0  0  0  0  0  3  0  0  0  0  0  0
  -23.1620  -10.5570   20.0010 C   0  0  0  0  0  3  0  0  0  0  0  0
  -21.9000   -7.3520   21.2560 O   0  0  0  0  0  0  0  0  0  0  0  0
  -21.6910   -6.7250   22.4590 C   0  0  0  0  0  0  0  0  0  0  0  0
  -21.1650   -7.4110   23.5740 C   0  0  0  0  0  3  0  0  0  0  0  0
  -20.8970   -6.7120   24.7690 C   0  0  0  0  0  3  0  0  0  0  0  0
  -21.1460   -5.3290   24.8480 C   0  0  0  0  0  0  0  0  0  0  0  0
  -21.6610   -4.6420   23.7350 C   0  0  0  0  0  3  0  0  0  0  0  0
  -21.9320   -5.3380   22.5430 C   0  0  0  0  0  0  0  0  0  0  0  0
  -22.4100   -4.6670   21.4660 F   0  0  0  0  0  0  0  0  0  0  0  0
  -20.8820   -4.6540   25.9920 F   0  0  0  0  0  0  0  0  0  0  0  0
  -23.5400  -13.8930   21.3030 C   0  0  0  0  0  0  0  0  0  0  0  0
  -22.9090  -13.1870   22.2320 N   0  0  0  0  0  0  0  0  0  0  0  0
  -23.1140  -14.9910   20.9350 O   0  0  0  0  0  0  0  0  0  0  0  0
  -23.2630  -12.2970   22.5480 H   0  0  0  0  0  0  0  0  0  0  0  0
  -22.0510  -13.5380   22.6340 H   0  0  0  0  0  0  0  0  0  0  0  0
  -26.1470  -15.4220   20.1880 N   0  0  0  0  0  0  0  0  0  0  0  0
  -25.4760  -16.1200   20.4870 H   0  0  0  0  0  0  0  0  0  0  0  0
  -26.9650  -15.8210   19.7520 H   0  0  0  0  0  0  0  0  0  0  0  0
  -27.1460  -25.2320   18.4570 C   0  0  0  0  0  2  0  0  0  0  0  0
  -28.2090  -26.1980   19.0750 C   0  0  0  0  0  2  0  0  0  0  0  0
  -28.1710  -27.5660   18.6420 O   0  0  0  0  0  0  0  0  0  0  0  0
  -24.4780  -31.5910   23.2150 C   0  0  0  0  0  0  0  0  0  0  0  0
  -27.0080  -28.2250   18.9350 C   0  0  0  0  0  0  0  0  0  0  0  0
  -23.1780  -30.5190   21.4050 C   0  0  0  0  0  3  0  0  0  0  0  0
  -24.5590  -29.4780   19.5320 C   0  0  0  0  0  0  0  0  0  0  0  0
  -25.6560  -31.0820   21.0950 C   0  0  0  0  0  2  0  0  0  0  0  0
  -25.7380  -29.9060   20.1530 C   0  0  0  0  0  0  0  0  0  0  0  0
  -26.9670  -29.2600   19.8880 C   0  0  0  0  0  3  0  0  0  0  0  0
  -25.8420  -27.9110   18.2280 C   0  0  0  0  0  3  0  0  0  0  0  0
  -24.6000  -28.4710   18.5570 C   0  0  0  0  0  3  0  0  0  0  0  0
  -23.2830  -30.1950   19.8910 C   0  0  0  0  0  2  0  0  0  0  0  0
  -24.4590  -31.0640   21.9610 N   0  0  0  0  0  0  0  0  0  0  0  0
  -23.4470  -31.6560   23.9000 O   0  0  0  0  0  0  0  0  0  0  0  0
  -22.6870  -29.2510   22.1410 C   0  0  0  0  0  0  0  0  0  0  0  0
  -21.3990  -28.9160   21.9700 N   0  0  0  0  0  0  0  0  0  0  0  0
  -23.4620  -28.5810   22.8320 O   0  0  0  0  0  0  0  0  0  0  0  0
  -20.8310  -29.5060   21.3780 H   0  0  0  0  0  0  0  0  0  0  0  0
  -18.2750  -27.0930   22.0670 C   0  0  0  0  0  0  0  0  0  0  0  0
  -20.7280  -27.7500   22.5550 C   0  0  0  0  0  3  0  0  0  0  0  0
  -21.1160  -26.4530   21.8160 C   0  0  0  0  0  2  0  0  0  0  0  0
  -20.1450  -26.0850   20.6890 C   0  0  0  0  0  2  0  0  0  0  0  0
  -18.7270  -25.8990   21.2460 C   0  0  0  0  0  2  0  0  0  0  0  0
  -19.2160  -27.9680   22.6700 C   0  0  0  0  0  0  0  0  0  0  0  0
  -18.7490  -29.0880   23.3880 C   0  0  0  0  0  3  0  0  0  0  0  0
  -17.3710  -29.3390   23.5160 C   0  0  0  0  0  3  0  0  0  0  0  0
  -16.4410  -28.4580   22.9340 C   0  0  0  0  0  3  0  0  0  0  0  0
  -16.8920  -27.3350   22.2170 C   0  0  0  0  0  3  0  0  0  0  0  0
  -25.7920  -32.1580   23.8380 C   0  0  0  0  0  3  0  0  0  0  0  0
  -26.2980  -31.3320   25.0830 C   0  0  1  0  0  0  0  0  0  0  0  0
  -25.2150  -31.1170   26.1650 C   0  0  0  0  0  1  0  0  0  0  0  0
  -26.8130  -29.9400   24.6490 C   0  0  0  0  0  1  0  0  0  0  0  0
  -27.4980  -32.0560   25.7380 C   0  0  0  0  0  1  0  0  0  0  0  0
  -25.5380  -33.5580   24.2050 N   0  0  0  0  0  0  0  0  0  0  0  0
  -25.9470  -34.6110   23.4850 C   0  0  0  0  0  0  0  0  0  0  0  0
  -26.6450  -34.5060   22.4760 O   0  0  0  0  0  0  0  0  0  0  0  0
  -24.9270  -33.7190   24.9920 H   0  0  0  0  0  0  0  0  0  0  0  0
  -24.3570  -36.5110   23.0760 C   0  0  0  0  0  1  0  0  0  0  0  0
  -25.5060  -36.0080   23.9640 C   0  0  0  0  0  3  0  0  0  0  0  0
  -27.6170  -36.7230   24.9880 C   0  0  0  0  0  1  0  0  0  0  0  0
  -26.6040  -36.9980   23.9740 N   0  0  0  0  0  0  0  0  0  0  0  0
  -26.2450  -37.9340   24.1340 H   0  0  0  0  0  0  0  0  0  0  0  0
  2  1  1  0
  3  5  1  0
  3  6  1  0
  4  9  1  0
  4  1  1  0
  5 57  1  0
  5  4  1  0
  6  2  1  0
  6  7  1  0
  8  6  1  0
  9 10  1  0
 10 24  1  0
 11 17  1  0
 11 28  1  0
 12 17  1  0
 13 14  1  0
 13 12  1  0
 15 14  1  0
 15 32  1  0
 15 16  1  0
 17 16  1  0
 18 11  2  0
 20 19  1  0
 21 23  2  0
 21 24  1  0
 22 25  1  0
 22 19  2  0
 23 22  1  0
 24 20  2  0
 26 28  1  0
 26 23  1  0
 27 25  1  0
 28 27  1  0
 29 30  2  0
 30 49  1  0
 31 34  1  0
 31 30  1  0
 32 33  1  0
 32 29  1  0
 33 31  2  0
 34 35  1  0
 35 36  2  0
 37 40  1  0
 37 36  1  0
 38 37  2  0
 39 38  1  0
 39 34  2  0
 40 41  1  0
 41 46  2  0
 41 42  1  0
 42 43  2  0
 43 44  1  0
 44 48  1  0
 45 44  2  0
 46 45  1  0
 47 46  1  0
 49 50  1  0
 50 52  1  0
 50 53  1  0
 51 49  2  0
 54 29  1  0
 54 55  1  0
 56 54  1  0
 57 58  1  0
 59 61  1  0
 59 58  1  0
 60 71  2  0
 61 66  1  0
 62 70  1  0
 62 72  1  0
 63 69  1  0
 63 65  1  0
 64 70  1  0
 65 64  1  0
 66 65  2  0
 67 68  1  0
 67 61  2  0
 68 63  2  0
 69 62  1  0
 70 60  1  0
 72 74  2  0
 73 72  1  0
 75 73  1  0
 76 85  2  0
 76 81  1  0
 77 73  1  0
 77 81  1  0
 78 77  1  0
 79 80  1  0
 79 78  1  0
 80 76  1  0
 81 82  2  0
 82 83  1  0
 84 83  2  0
 85 84  1  0
 86 60  1  0
 86 91  1  0
 86 87  1  0
 87 90  1  1
 87 88  1  0
 89 87  1  0
 91 94  1  0
 92 96  1  0
 92 91  1  0
 93 92  2  0
 96 95  1  0
 96 98  1  0
 98 99  1  0
 98 97  1  0
M  ISO  4  11 100  28 100  58 101  59 101
M  END
>  <TORSDO>  (10) 
F 20

>  <SCORE>  (10) 
-10.610

>  <name>  (10) 
9

>  <ligand_id>  (10) 
9

>  <original_smiles>  (10) 
[H]c1c([H])c([H])c2c(c1[H])C([H])([H])C([H])([H])C([H])([H])C2([H])N([H])C(=O)C1([H])N(C(=O)C([H])(N([H])C(=O)C([H])(N([H])C([H])([H])[H])C([H])([H])[H])C(C([H])([H])[H])(C([H])([H])[H])C([H])([H])[H])C([H])([H])c2c([H])c(OC([H])([H])C([H])([H])C3([H])C([H])(C([H])([H])C([H])([H])c4c([H])c([H])c5c(c4[H])C([H])([H])N(C(=O)N4C([H])([H])C([H])([H])C([H])([H])C([H])(n6nc(-c7c([H])c([H])c(Oc8c([H])c([H])c(F)c([H])c8F)c([H])c7[H])c(C(=O)N([H])[H])c6N([H])[H])C4([H])[H])C([H])([H])C5([H])[H])C([H])([H])C([H])([H])[N+]([H])([H])C3([H])[H])c([H])c([H])c2C1([H])[H]

>  <smiles>  (10) 
[H]c1c([H])c([H])c2c(c1[H])C([H])([H])C([H])([H])C([H])([H])C2([H])N([H])C(=O)C1([H])N(C(=O)C([H])(N([H])C(=O)C([H])(N([H])C([H])([H])[H])C([H])([H])[H])C(C([H])([H])[H])(C([H])([H])[H])C([H])([H])[H])C([H])([H])c2c([H])c(OC([H])([H])C([H])([H])C3([H])C([H])(C([H])([H])C([H])([H])c4c([H])c([H])c5c(c4[H])C([H])([H])N(C(=O)N4C([H])([H])C([H])([H])C([H])([H])C([H])(n6nc(-c7c([H])c([H])c(Oc8c([H])c([H])c(F)c([H])c8F)c([H])c7[H])c(C(=O)N([H])[H])c6N([H])[H])C4([H])[H])C([H])([H])C5([H])[H])C([H])([H])C([H])([H])[N+]([H])([H])C3([H])[H])c([H])c([H])c2C1([H])[H]

$$$$
10:0:0
     RDKit          3D

 93101  0  0  1  0  0  0  0  0999 V2000
  -26.7210  -21.2740   19.1860 C   0  0  0  0  0  2  0  0  0  0  0  0
  -28.3900  -22.7290   20.4840 C   0  0  0  0  0  2  0  0  0  0  0  0
  -27.5240  -20.1540   19.8660 C   0  0  0  0  0  2  0  0  0  0  0  0
  -29.4060  -21.8160   19.7740 C   0  0  0  0  0  2  0  0  0  0  0  0
  -26.9720  -22.6360   19.8740 C   0  0  0  0  0  3  0  0  0  0  0  0
  -28.9970  -20.3800   19.7770 N   0  0  2  0  0  4  0  0  0  0  0  0
  -29.3440  -19.9870   20.6400 H   0  0  0  0  0  0  0  0  0  0  0  0
  -26.5900  -23.8530   19.0040 C   0  0  0  0  0  2  0  0  0  0  0  0
  -27.4520  -24.0890   17.7470 C   0  0  0  0  0  2  0  0  0  0  0  0
  -27.8860  -25.5590   17.6190 C   0  0  0  0  0  2  0  0  0  0  0  0
  -27.5380  -26.1890   16.2520 C   0  0  0  0  0  2  0  0  0  0  0  0
  -27.5100  -27.6160   16.3190 O   0  0  0  0  0  0  0  0  0  0  0  0
  -25.3860  -29.1560   22.8980 C   0  0  0  0  0  0  0  0  0  0  0  0
  -26.5200  -28.2030   17.0790 C   0  0  0  0  0  0  0  0  0  0  0  0
  -23.6830  -29.4610   21.1300 C   0  0  0  0  0  3  0  0  0  0  0  0
  -24.5430  -29.3570   18.7350 C   0  0  0  0  0  0  0  0  0  0  0  0
  -26.1740  -29.6980   20.6000 C   0  0  0  0  0  2  0  0  0  0  0  0
  -25.8570  -29.2240   19.1990 C   0  0  0  0  0  0  0  0  0  0  0  0
  -26.8490  -28.6550   18.3710 C   0  0  0  0  0  3  0  0  0  0  0  0
  -25.1880  -28.3520   16.6200 C   0  0  0  0  0  3  0  0  0  0  0  0
  -24.2020  -28.9220   17.4430 C   0  0  0  0  0  3  0  0  0  0  0  0
  -23.5430  -29.9850   19.6760 C   0  0  0  0  0  2  0  0  0  0  0  0
  -25.1090  -29.4050   21.5870 N   0  0  0  0  0  0  0  0  0  0  0  0
  -24.4790  -29.0170   23.7300 O   0  0  0  0  0  0  0  0  0  0  0  0
  -22.9520  -28.1040   21.2380 C   0  0  0  0  0  0  0  0  0  0  0  0
  -21.6110  -28.1410   21.1710 N   0  0  0  0  0  0  0  0  0  0  0  0
  -23.5850  -27.0510   21.3500 O   0  0  0  0  0  0  0  0  0  0  0  0
  -21.1680  -29.0440   21.0860 H   0  0  0  0  0  0  0  0  0  0  0  0
  -18.1550  -27.1280   20.8930 C   0  0  0  0  0  0  0  0  0  0  0  0
  -20.7150  -26.9850   21.2160 C   0  0  0  0  0  3  0  0  0  0  0  0
  -20.7380  -26.2090   19.8790 C   0  0  0  0  0  2  0  0  0  0  0  0
  -19.6470  -26.6590   18.9020 C   0  0  0  0  0  2  0  0  0  0  0  0
  -18.2610  -26.4730   19.5250 C   0  0  0  0  0  2  0  0  0  0  0  0
  -19.3100  -27.3820   21.6790 C   0  0  0  0  0  0  0  0  0  0  0  0
  -19.1630  -28.0270   22.9260 C   0  0  0  0  0  3  0  0  0  0  0  0
  -17.8900  -28.4080   23.3930 C   0  0  0  0  0  3  0  0  0  0  0  0
  -16.7480  -28.1380   22.6200 C   0  0  0  0  0  3  0  0  0  0  0  0
  -16.8820  -27.4950   21.3760 C   0  0  0  0  0  3  0  0  0  0  0  0
  -26.8550  -29.0610   23.4200 C   0  0  0  0  0  3  0  0  0  0  0  0
  -26.9050  -29.7330   24.7250 N   0  0  0  0  0  0  0  0  0  0  0  0
  -27.4580  -30.9340   24.9380 C   0  0  0  0  0  0  0  0  0  0  0  0
  -28.0520  -31.5650   24.0600 O   0  0  0  0  0  0  0  0  0  0  0  0
  -26.3920  -29.2990   25.4770 H   0  0  0  0  0  0  0  0  0  0  0  0
  -26.2550  -32.6250   26.3590 C   0  0  0  0  0  1  0  0  0  0  0  0
  -27.3330  -31.5310   26.3540 C   0  0  0  0  0  3  0  0  0  0  0  0
  -29.6030  -31.0550   27.1610 C   0  0  0  0  0  1  0  0  0  0  0  0
  -28.6040  -32.0810   26.8740 N   0  0  0  0  0  0  0  0  0  0  0  0
  -28.4450  -32.6140   27.7240 H   0  0  0  0  0  0  0  0  0  0  0  0
  -27.3790  -27.5770   23.5350 C   0  0  1  0  0  0  0  0  0  0  0  0
  -26.4350  -26.6440   24.3310 C   0  0  0  0  0  1  0  0  0  0  0  0
  -27.5820  -26.9570   22.1330 C   0  0  0  0  0  1  0  0  0  0  0  0
  -28.7610  -27.5610   24.2290 C   0  0  0  0  0  1  0  0  0  0  0  0
  -29.6720  -19.6030   18.7040 C   0  0  0  0  0  2  0  0  0  0  0  0
  -30.9610  -18.9330   19.2220 C   0  0  0  0  0  2  0  0  0  0  0  0
  -31.4240  -17.7380   18.3640 C   0  0  0  0  0  2  0  0  0  0  0  0
  -32.3840  -15.5200   18.8820 C   0  0  0  0  0  0  0  0  0  0  0  0
  -32.2900  -13.0650   18.7800 C   0  0  0  0  0  2  0  0  0  0  0  0
  -31.2690  -12.6510   17.7000 C   0  0  0  0  0  2  0  0  0  0  0  0
  -29.8380  -12.6090   18.2740 C   0  0  0  0  0  2  0  0  0  0  0  0
  -29.4720  -13.8890   19.0700 C   0  0  0  0  0  3  0  0  0  0  0  0
  -30.5940  -14.2240   20.0820 C   0  0  0  0  0  2  0  0  0  0  0  0
  -31.8650  -14.3540   19.3390 N   0  0  0  0  0  0  0  0  0  0  0  0
  -33.3530  -15.5990   18.1190 O   0  0  0  0  0  0  0  0  0  0  0  0
  -31.6630  -16.5880   19.2250 N   0  0  0  0  0  0  0  0  0  0  0  0
  -30.9690  -16.4010   19.9320 H   0  0  0  0  0  0  0  0  0  0  0  0
  -27.3160  -14.7390   20.2030 C   0  0  0  0  0  0  0  0  0  0  0  0
  -26.2090  -14.0820   20.6700 C   0  0  0  0  0  0  0  0  0  0  0  0
  -26.4490  -12.6920   20.4380 C   0  0  0  0  0  0  0  0  0  0  0  0
  -28.1730  -13.7560   19.7290 N   0  0  0  0  0  0  0  0  0  0  0  0
  -27.6580  -12.5140   19.9220 N   0  0  0  0  0  0  0  0  0  0  0  0
  -25.5770  -11.5250   20.6240 C   0  0  0  0  0  0  0  0  0  0  0  0
  -25.8420  -10.5580   21.6180 C   0  0  0  0  0  3  0  0  0  0  0  0
  -24.9780   -9.4560   21.7910 C   0  0  0  0  0  3  0  0  0  0  0  0
  -23.8360   -9.3120   20.9690 C   0  0  0  0  0  0  0  0  0  0  0  0
  -23.5890  -10.2670   19.9660 C   0  0  0  0  0  3  0  0  0  0  0  0
  -24.4520  -11.3610   19.7910 C   0  0  0  0  0  3  0  0  0  0  0  0
  -22.9560   -8.2600   21.0470 O   0  0  0  0  0  0  0  0  0  0  0  0
  -22.5460   -7.7530   22.2550 C   0  0  0  0  0  0  0  0  0  0  0  0
  -21.8590   -8.5450   23.2000 C   0  0  0  0  0  3  0  0  0  0  0  0
  -21.3950   -7.9670   24.3990 C   0  0  0  0  0  3  0  0  0  0  0  0
  -21.6080   -6.5980   24.6500 C   0  0  0  0  0  0  0  0  0  0  0  0
  -22.2870   -5.8060   23.7060 C   0  0  0  0  0  3  0  0  0  0  0  0
  -22.7520   -6.3820   22.5110 C   0  0  0  0  0  0  0  0  0  0  0  0
  -23.3870   -5.6110   21.5970 F   0  0  0  0  0  0  0  0  0  0  0  0
  -21.1550   -6.0400   25.7960 F   0  0  0  0  0  0  0  0  0  0  0  0
  -24.9570  -14.7080   21.2110 C   0  0  0  0  0  0  0  0  0  0  0  0
  -24.3030  -14.0520   22.1640 N   0  0  0  0  0  0  0  0  0  0  0  0
  -24.5740  -15.8120   20.8220 O   0  0  0  0  0  0  0  0  0  0  0  0
  -24.6270  -13.1570   22.4990 H   0  0  0  0  0  0  0  0  0  0  0  0
  -23.4690  -14.4540   22.5670 H   0  0  0  0  0  0  0  0  0  0  0  0
  -27.6570  -16.0880   20.1220 N   0  0  0  0  0  0  0  0  0  0  0  0
  -26.9370  -16.7860   20.2710 H   0  0  0  0  0  0  0  0  0  0  0  0
  -28.3970  -16.3990   19.5050 H   0  0  0  0  0  0  0  0  0  0  0  0
  1  3  1  0
  1  5  1  0
  4  6  1  0
  4  2  1  0
  5  8  1  0
  5  2  1  0
  6  3  1  0
  6  7  1  1
  9  8  1  0
 10  9  1  0
 11 12  1  0
 11 10  1  0
 12 14  1  0
 13 24  2  0
 14 19  1  0
 15 25  1  0
 15 23  1  0
 16 18  1  0
 16 22  1  0
 17 23  1  0
 18 17  1  0
 19 18  2  0
 20 14  2  0
 20 21  1  0
 21 16  2  0
 22 15  1  0
 23 13  1  0
 25 27  2  0
 26 25  1  0
 28 26  1  0
 29 38  2  0
 29 34  1  0
 30 26  1  0
 30 34  1  0
 31 30  1  0
 32 33  1  0
 32 31  1  0
 33 29  1  0
 34 35  2  0
 35 36  1  0
 37 36  2  0
 38 37  1  0
 39 13  1  0
 39 49  1  0
 39 40  1  0
 40 41  1  0
 40 43  1  0
 41 45  1  0
 42 41  2  0
 45 44  1  0
 45 47  1  0
 47 46  1  0
 47 48  1  0
 49 52  1  1
 49 50  1  0
 51 49  1  0
 53 54  1  0
 53  6  1  0
 55 54  1  0
 55 64  1  0
 56 64  1  0
 56 62  1  0
 57 62  1  0
 58 59  1  0
 58 57  1  0
 60 59  1  0
 60 69  1  0
 60 61  1  0
 62 61  1  0
 63 56  2  0
 64 65  1  0
 66 67  2  0
 67 86  1  0
 68 71  1  0
 68 67  1  0
 69 70  1  0
 69 66  1  0
 70 68  2  0
 71 72  1  0
 72 73  2  0
 74 77  1  0
 74 73  1  0
 75 74  2  0
 76 75  1  0
 76 71  2  0
 77 78  1  0
 78 83  2  0
 78 79  1  0
 79 80  2  0
 80 81  1  0
 81 85  1  0
 82 81  2  0
 83 82  1  0
 84 83  1  0
 86 87  1  0
 87 89  1  0
 87 90  1  0
 88 86  2  0
 91 66  1  0
 91 92  1  0
 93 91  1  0
M  ISO  4  11 101  12 101  56 100  64 100
M  END
>  <TORSDO>  (11) 
F 23

>  <SCORE>  (11) 
-6.897

>  <name>  (11) 
10

>  <ligand_id>  (11) 
10

>  <original_smiles>  (11) 
[H]c1c([H])c([H])c2c(c1[H])C([H])([H])C([H])([H])C([H])([H])C2([H])N([H])C(=O)C1([H])N(C(=O)C([H])(N([H])C(=O)C([H])(N([H])C([H])([H])[H])C([H])([H])[H])C(C([H])([H])[H])(C([H])([H])[H])C([H])([H])[H])C([H])([H])c2c([H])c(OC([H])([H])C([H])([H])C([H])([H])C([H])([H])C3([H])C([H])([H])C([H])([H])[N+]([H])(C([H])([H])C([H])([H])C([H])([H])N([H])C(=O)N4C([H])([H])C([H])([H])C([H])([H])C([H])(n5nc(-c6c([H])c([H])c(Oc7c([H])c([H])c(F)c([H])c7F)c([H])c6[H])c(C(=O)N([H])[H])c5N([H])[H])C4([H])[H])C([H])([H])C3([H])[H])c([H])c([H])c2C1([H])[H]

>  <smiles>  (11) 
[H]c1c([H])c([H])c2c(c1[H])C([H])([H])C([H])([H])C([H])([H])C2([H])N([H])C(=O)C1([H])N(C(=O)C([H])(N([H])C(=O)C([H])(N([H])C([H])([H])[H])C([H])([H])[H])C(C([H])([H])[H])(C([H])([H])[H])C([H])([H])[H])C([H])([H])c2c([H])c(OC([H])([H])C([H])([H])C([H])([H])C([H])([H])C3([H])C([H])([H])C([H])([H])[N+]([H])(C([H])([H])C([H])([H])C([H])([H])N([H])C(=O)N4C([H])([H])C([H])([H])C([H])([H])C([H])(n5nc(-c6c([H])c([H])c(Oc7c([H])c([H])c(F)c([H])c7F)c([H])c6[H])c(C(=O)N([H])[H])c5N([H])[H])C4([H])[H])C([H])([H])C3([H])[H])c([H])c([H])c2C1([H])[H]

$$$$
11:0:0
     RDKit          3D

 94103  0  0  1  0  0  0  0  0999 V2000
  -31.6620  -23.9640   20.9600 C   0  0  0  0  0  2  0  0  0  0  0  0
  -29.2370  -24.1800   21.4630 C   0  0  0  0  0  2  0  0  0  0  0  0
  -31.4630  -22.4880   20.5360 C   0  0  0  0  0  2  0  0  0  0  0  0
  -28.9750  -22.7550   20.9770 C   0  0  0  0  0  2  0  0  0  0  0  0
  -30.4030  -24.8110   20.6800 C   0  0  0  0  0  3  0  0  0  0  0  0
  -30.1980  -21.8290   21.1520 C   0  0  0  0  0  3  0  0  0  0  0  0
  -30.5750  -26.3130   21.0120 C   0  0  0  0  0  2  0  0  0  0  0  0
  -29.6850  -27.2590   20.1740 C   0  0  0  0  0  2  0  0  0  0  0  0
  -28.3680  -26.7200   20.0540 O   0  0  0  0  0  0  0  0  0  0  0  0
  -24.5810  -31.9000   23.2490 C   0  0  0  0  0  0  0  0  0  0  0  0
  -27.2410  -27.5080   20.1370 C   0  0  0  0  0  0  0  0  0  0  0  0
  -23.3620  -30.4930   21.6150 C   0  0  0  0  0  3  0  0  0  0  0  0
  -24.8120  -28.9580   20.1850 C   0  0  0  0  0  0  0  0  0  0  0  0
  -25.8800  -30.8700   21.3930 C   0  0  0  0  0  2  0  0  0  0  0  0
  -25.9680  -29.5000   20.7610 C   0  0  0  0  0  0  0  0  0  0  0  0
  -27.1820  -28.7830   20.7470 C   0  0  0  0  0  3  0  0  0  0  0  0
  -26.0640  -26.9650   19.5830 C   0  0  0  0  0  3  0  0  0  0  0  0
  -24.8500  -27.6810   19.6000 C   0  0  0  0  0  3  0  0  0  0  0  0
  -23.5620  -29.8080   20.2370 C   0  0  0  0  0  2  0  0  0  0  0  0
  -24.6270  -31.1000   22.1450 N   0  0  0  0  0  0  0  0  0  0  0  0
  -23.5030  -32.1720   23.7970 O   0  0  0  0  0  0  0  0  0  0  0  0
  -22.7190  -29.4750   22.5810 C   0  0  0  0  0  0  0  0  0  0  0  0
  -21.3950  -29.2910   22.4580 N   0  0  0  0  0  0  0  0  0  0  0  0
  -23.4060  -28.8510   23.3940 O   0  0  0  0  0  0  0  0  0  0  0  0
  -20.8980  -29.8490   21.7760 H   0  0  0  0  0  0  0  0  0  0  0  0
  -18.0240  -28.0910   22.9560 C   0  0  0  0  0  0  0  0  0  0  0  0
  -20.5800  -28.3560   23.2340 C   0  0  0  0  0  3  0  0  0  0  0  0
  -20.6870  -26.9220   22.6660 C   0  0  0  0  0  2  0  0  0  0  0  0
  -19.5900  -26.5910   21.6500 C   0  0  0  0  0  2  0  0  0  0  0  0
  -18.2060  -26.7380   22.2900 C   0  0  0  0  0  2  0  0  0  0  0  0
  -19.1400  -28.8590   23.3840 C   0  0  0  0  0  0  0  0  0  0  0  0
  -18.9170  -30.1270   23.9650 C   0  0  0  0  0  3  0  0  0  0  0  0
  -17.6100  -30.6270   24.1230 C   0  0  0  0  0  3  0  0  0  0  0  0
  -16.5100  -29.8560   23.7130 C   0  0  0  0  0  3  0  0  0  0  0  0
  -16.7170  -28.5910   23.1360 C   0  0  0  0  0  3  0  0  0  0  0  0
  -25.8740  -32.5290   23.8580 C   0  0  0  0  0  3  0  0  0  0  0  0
  -26.4070  -31.7530   25.1240 C   0  0  1  0  0  0  0  0  0  0  0  0
  -25.3280  -31.5110   26.2050 C   0  0  0  0  0  1  0  0  0  0  0  0
  -26.9820  -30.3770   24.7150 C   0  0  0  0  0  1  0  0  0  0  0  0
  -27.5660  -32.5430   25.7760 C   0  0  0  0  0  1  0  0  0  0  0  0
  -25.5700  -33.9260   24.1920 N   0  0  0  0  0  0  0  0  0  0  0  0
  -25.9050  -34.9760   23.4310 C   0  0  0  0  0  0  0  0  0  0  0  0
  -26.5700  -34.8710   22.3960 O   0  0  0  0  0  0  0  0  0  0  0  0
  -24.9770  -34.0800   24.9940 H   0  0  0  0  0  0  0  0  0  0  0  0
  -24.1760  -36.7700   23.0860 C   0  0  0  0  0  1  0  0  0  0  0  0
  -25.4210  -36.3650   23.8920 C   0  0  0  0  0  3  0  0  0  0  0  0
  -27.5640  -37.2430   24.7060 C   0  0  0  0  0  1  0  0  0  0  0  0
  -26.4550  -37.4150   23.7720 N   0  0  0  0  0  0  0  0  0  0  0  0
  -26.0530  -38.3360   23.9280 H   0  0  0  0  0  0  0  0  0  0  0  0
  -29.8550  -20.4560   20.5120 C   0  0  0  0  0  2  0  0  0  0  0  0
  -30.4330  -19.2700   21.1910 N   0  0  0  0  0  4  0  0  0  0  0  0
  -31.4320  -19.2550   21.0570 H   0  0  0  0  0  0  0  0  0  0  0  0
  -30.2540  -19.3600   22.1780 H   0  0  0  0  0  0  0  0  0  0  0  0
  -30.6560  -14.4880   20.4540 C   0  0  0  0  0  0  0  0  0  0  0  0
  -30.3520  -12.3130   19.3590 C   0  0  0  0  0  2  0  0  0  0  0  0
  -29.4180  -12.5040   18.1480 C   0  0  0  0  0  2  0  0  0  0  0  0
  -27.9430  -12.3720   18.5760 C   0  0  0  0  0  2  0  0  0  0  0  0
  -27.5910  -13.2220   19.8270 C   0  0  0  0  0  3  0  0  0  0  0  0
  -28.6480  -13.0430   20.9410 C   0  0  0  0  0  2  0  0  0  0  0  0
  -29.9710  -13.3190   20.3590 N   0  0  0  0  0  0  0  0  0  0  0  0
  -31.8470  -14.6020   20.1520 O   0  0  0  0  0  0  0  0  0  0  0  0
  -30.0770  -17.6530   19.2690 C   0  0  0  0  0  2  0  0  0  0  0  0
  -29.5480  -16.2240   19.2310 C   0  0  0  0  0  2  0  0  0  0  0  0
  -30.2500  -16.7080   21.4390 C   0  0  0  0  0  2  0  0  0  0  0  0
  -29.8200  -17.9980   20.7220 C   0  0  0  0  0  3  0  0  0  0  0  0
  -29.8890  -15.5990   20.5290 N   0  0  0  0  0  0  0  0  0  0  0  0
  -25.1860  -13.8310   20.5170 C   0  0  0  0  0  0  0  0  0  0  0  0
  -24.1170  -13.0560   20.8810 C   0  0  0  0  0  0  0  0  0  0  0  0
  -24.5870  -11.7090   20.8690 C   0  0  0  0  0  0  0  0  0  0  0  0
  -26.2370  -12.9520   20.3040 N   0  0  0  0  0  0  0  0  0  0  0  0
  -25.8790  -11.6710   20.5730 N   0  0  0  0  0  0  0  0  0  0  0  0
  -23.8690  -10.4440   21.0630 C   0  0  0  0  0  0  0  0  0  0  0  0
  -24.3160   -9.4760   21.9900 C   0  0  0  0  0  3  0  0  0  0  0  0
  -23.5950   -8.2770   22.1720 C   0  0  0  0  0  3  0  0  0  0  0  0
  -22.4170   -8.0360   21.4260 C   0  0  0  0  0  0  0  0  0  0  0  0
  -21.9930   -8.9910   20.4870 C   0  0  0  0  0  3  0  0  0  0  0  0
  -22.7130  -10.1830   20.3020 C   0  0  0  0  0  3  0  0  0  0  0  0
  -21.6680   -6.8870   21.5190 O   0  0  0  0  0  0  0  0  0  0  0  0
  -21.6450   -6.1310   22.6640 C   0  0  0  0  0  0  0  0  0  0  0  0
  -21.2580   -6.6760   23.9090 C   0  0  0  0  0  3  0  0  0  0  0  0
  -21.1830   -5.8480   25.0470 C   0  0  0  0  0  3  0  0  0  0  0  0
  -21.4840   -4.4770   24.9430 C   0  0  0  0  0  0  0  0  0  0  0  0
  -21.8620   -3.9330   23.7040 C   0  0  0  0  0  3  0  0  0  0  0  0
  -21.9400   -4.7570   22.5670 C   0  0  0  0  0  0  0  0  0  0  0  0
  -22.2870   -4.2220   21.3710 F   0  0  0  0  0  0  0  0  0  0  0  0
  -21.4040   -3.6800   26.0340 F   0  0  0  0  0  0  0  0  0  0  0  0
  -22.7140  -13.5290   21.1300 C   0  0  0  0  0  0  0  0  0  0  0  0
  -21.9790  -12.8350   21.9920 N   0  0  0  0  0  0  0  0  0  0  0  0
  -22.2740  -14.5430   20.5930 O   0  0  0  0  0  0  0  0  0  0  0  0
  -22.3510  -12.0160   22.4490 H   0  0  0  0  0  0  0  0  0  0  0  0
  -21.0360  -13.1310   22.2010 H   0  0  0  0  0  0  0  0  0  0  0  0
  -25.3440  -15.2000   20.3270 N   0  0  0  0  0  0  0  0  0  0  0  0
  -24.5710  -15.8500   20.4250 H   0  0  0  0  0  0  0  0  0  0  0  0
  -26.2060  -15.6410   20.0340 H   0  0  0  0  0  0  0  0  0  0  0  0
  3  1  1  0
  3  6  1  0
  4  6  1  0
  4  2  1  0
  5  1  1  0
  5  7  1  0
  5  2  1  0
  6 50  1  0
  8  7  1  0
  9 11  1  0
  9  8  1  0
 10 21  2  0
 11 16  1  0
 12 20  1  0
 12 22  1  0
 13 19  1  0
 13 15  1  0
 14 20  1  0
 15 14  1  0
 16 15  2  0
 17 18  1  0
 17 11  2  0
 18 13  2  0
 19 12  1  0
 20 10  1  0
 22 24  2  0
 23 22  1  0
 25 23  1  0
 26 35  2  0
 26 31  1  0
 27 23  1  0
 27 31  1  0
 28 27  1  0
 29 30  1  0
 29 28  1  0
 30 26  1  0
 31 32  2  0
 32 33  1  0
 34 33  2  0
 35 34  1  0
 36 10  1  0
 36 41  1  0
 36 37  1  0
 37 40  1  1
 37 38  1  0
 39 37  1  0
 41 44  1  0
 42 46  1  0
 42 41  1  0
 43 42  2  0
 46 45  1  0
 48 46  1  0
 48 49  1  0
 48 47  1  0
 50 51  1  0
 51 53  1  0
 52 51  1  0
 54 66  1  0
 55 60  1  0
 56 57  1  0
 56 55  1  0
 58 57  1  0
 58 70  1  0
 58 59  1  0
 60 54  1  0
 60 59  1  0
 61 54  2  0
 62 65  1  0
 63 62  1  0
 63 66  1  0
 65 51  1  0
 65 64  1  0
 66 64  1  0
 67 68  2  0
 68 87  1  0
 69 68  1  0
 69 72  1  0
 70 67  1  0
 70 71  1  0
 71 69  2  0
 72 73  1  0
 73 74  2  0
 75 78  1  0
 75 74  1  0
 76 75  2  0
 77 76  1  0
 77 72  2  0
 78 79  1  0
 79 80  1  0
 80 81  2  0
 82 81  1  0
 82 86  1  0
 83 82  2  0
 84 79  2  0
 84 83  1  0
 85 84  1  0
 87 88  1  0
 88 91  1  0
 88 90  1  0
 89 87  2  0
 92 93  1  0
 92 67  1  0
 94 92  1  0
M  ISO  4   8 101   9 101  54 100  66 100
M  END
>  <TORSDO>  (12) 
F 20

>  <SCORE>  (12) 
-13.917

>  <name>  (12) 
11

>  <ligand_id>  (12) 
11

>  <original_smiles>  (12) 
[H]c1c([H])c([H])c2c(c1[H])C([H])([H])C([H])([H])C([H])([H])C2([H])N([H])C(=O)C1([H])N(C(=O)C([H])(N([H])C(=O)C([H])(N([H])C([H])([H])[H])C([H])([H])[H])C(C([H])([H])[H])(C([H])([H])[H])C([H])([H])[H])C([H])([H])c2c([H])c(OC([H])([H])C([H])([H])C3([H])C([H])([H])C([H])([H])C([H])(C([H])([H])[N+]([H])([H])C4([H])C([H])([H])N(C(=O)N5C([H])([H])C([H])([H])C([H])([H])C([H])(n6nc(-c7c([H])c([H])c(Oc8c([H])c([H])c(F)c([H])c8F)c([H])c7[H])c(C(=O)N([H])[H])c6N([H])[H])C5([H])[H])C([H])([H])C4([H])[H])C([H])([H])C3([H])[H])c([H])c([H])c2C1([H])[H]

>  <smiles>  (12) 
[H]c1c([H])c([H])c2c(c1[H])C([H])([H])C([H])([H])C([H])([H])C2([H])N([H])C(=O)C1([H])N(C(=O)C([H])(N([H])C(=O)C([H])(N([H])C([H])([H])[H])C([H])([H])[H])C(C([H])([H])[H])(C([H])([H])[H])C([H])([H])[H])C([H])([H])c2c([H])c(OC([H])([H])C([H])([H])C3([H])C([H])([H])C([H])([H])C([H])(C([H])([H])[N+]([H])([H])C4([H])C([H])([H])N(C(=O)N5C([H])([H])C([H])([H])C([H])([H])C([H])(n6nc(-c7c([H])c([H])c(Oc8c([H])c([H])c(F)c([H])c8F)c([H])c7[H])c(C(=O)N([H])[H])c6N([H])[H])C5([H])[H])C([H])([H])C4([H])[H])C([H])([H])C3([H])[H])c([H])c([H])c2C1([H])[H]

$$$$
12:0:0
     RDKit          3D

 93101  0  0  1  0  0  0  0  0999 V2000
  -29.6820  -21.6210   23.0680 C   0  0  0  0  0  0  0  0  0  0  0  0
  -29.7100  -22.4230   21.8230 C   0  0  0  0  0  0  0  0  0  0  0  0
  -30.0770  -20.2650   22.6140 C   0  0  0  0  0  2  0  0  0  0  0  0
  -30.1710  -20.3790   21.0740 C   0  0  0  0  0  3  0  0  0  0  0  0
  -30.0450  -21.8020   20.7640 N   0  0  0  0  0  0  0  0  0  0  0  0
  -29.3840  -21.9670   24.2510 N   0  0  0  0  0  0  0  0  0  0  0  0
  -29.1360  -22.9480   24.3030 H   0  0  0  0  0  0  0  0  0  0  0  0
  -29.2850  -23.8760   21.9780 C   0  0  0  0  0  2  0  0  0  0  0  0
  -29.6410  -24.8650   20.8400 C   0  0  0  0  0  2  0  0  0  0  0  0
  -28.3840  -25.5460   20.2670 C   0  0  0  0  0  2  0  0  0  0  0  0
  -28.5890  -26.9220   19.9290 O   0  0  0  0  0  0  0  0  0  0  0  0
  -24.7160  -31.8020   23.3400 C   0  0  0  0  0  0  0  0  0  0  0  0
  -27.4190  -27.6490   19.9380 C   0  0  0  0  0  0  0  0  0  0  0  0
  -23.5200  -30.4670   21.6370 C   0  0  0  0  0  3  0  0  0  0  0  0
  -24.9880  -29.0760   20.0920 C   0  0  0  0  0  0  0  0  0  0  0  0
  -26.0300  -30.9140   21.4150 C   0  0  0  0  0  2  0  0  0  0  0  0
  -26.1430  -29.5930   20.6890 C   0  0  0  0  0  0  0  0  0  0  0  0
  -27.3650  -28.8880   20.6110 C   0  0  0  0  0  3  0  0  0  0  0  0
  -26.2460  -27.1510   19.3240 C   0  0  0  0  0  3  0  0  0  0  0  0
  -25.0330  -27.8510   19.4070 C   0  0  0  0  0  3  0  0  0  0  0  0
  -23.7210  -29.8890   20.2150 C   0  0  0  0  0  2  0  0  0  0  0  0
  -24.7740  -31.0720   22.1900 N   0  0  0  0  0  0  0  0  0  0  0  0
  -23.6370  -32.0090   23.9150 O   0  0  0  0  0  0  0  0  0  0  0  0
  -22.9160  -29.3660   22.5410 C   0  0  0  0  0  0  0  0  0  0  0  0
  -21.6160  -29.0860   22.3580 N   0  0  0  0  0  0  0  0  0  0  0  0
  -23.6160  -28.7710   23.3640 O   0  0  0  0  0  0  0  0  0  0  0  0
  -21.1060  -29.6210   21.6690 H   0  0  0  0  0  0  0  0  0  0  0  0
  -18.3540  -27.5580   22.6310 C   0  0  0  0  0  0  0  0  0  0  0  0
  -20.8500  -28.0690   23.0780 C   0  0  0  0  0  3  0  0  0  0  0  0
  -21.1350  -26.6570   22.5170 C   0  0  0  0  0  2  0  0  0  0  0  0
  -20.1450  -26.2320   21.4280 C   0  0  0  0  0  2  0  0  0  0  0  0
  -18.7120  -26.2370   21.9730 C   0  0  0  0  0  2  0  0  0  0  0  0
  -19.3590  -28.4250   23.1360 C   0  0  0  0  0  0  0  0  0  0  0  0
  -18.9770  -29.6560   23.7100 C   0  0  0  0  0  3  0  0  0  0  0  0
  -17.6210  -30.0270   23.7850 C   0  0  0  0  0  3  0  0  0  0  0  0
  -16.6270  -29.1570   23.3020 C   0  0  0  0  0  3  0  0  0  0  0  0
  -16.9950  -27.9270   22.7300 C   0  0  0  0  0  3  0  0  0  0  0  0
  -25.9930  -32.4380   23.9680 C   0  0  0  0  0  3  0  0  0  0  0  0
  -25.6670  -33.8250   24.3270 N   0  0  0  0  0  0  0  0  0  0  0  0
  -26.0020  -34.8960   23.5950 C   0  0  0  0  0  0  0  0  0  0  0  0
  -26.6850  -34.8240   22.5710 O   0  0  0  0  0  0  0  0  0  0  0  0
  -25.0630  -33.9560   25.1250 H   0  0  0  0  0  0  0  0  0  0  0  0
  -24.2590  -36.6790   23.2620 C   0  0  0  0  0  1  0  0  0  0  0  0
  -25.4970  -36.2700   24.0770 C   0  0  0  0  0  3  0  0  0  0  0  0
  -27.6110  -37.1530   24.9580 C   0  0  0  0  0  1  0  0  0  0  0  0
  -26.5220  -37.3340   24.0030 N   0  0  0  0  0  0  0  0  0  0  0  0
  -26.1040  -38.2460   24.1720 H   0  0  0  0  0  0  0  0  0  0  0  0
  -26.5290  -31.6460   25.2220 C   0  0  1  0  0  0  0  0  0  0  0  0
  -25.4370  -31.3510   26.2780 C   0  0  0  0  0  1  0  0  0  0  0  0
  -27.1480  -30.2940   24.7930 C   0  0  0  0  0  1  0  0  0  0  0  0
  -27.6620  -32.4480   25.9070 C   0  0  0  0  0  1  0  0  0  0  0  0
  -31.4600  -19.7580   20.4830 C   0  0  0  0  0  2  0  0  0  0  0  0
  -31.4290  -18.2140   20.3330 C   0  0  0  0  0  2  0  0  0  0  0  0
  -31.0160  -17.4490   21.6070 C   0  0  0  0  0  2  0  0  0  0  0  0
  -31.3580  -15.9520   21.6370 C   0  0  0  0  0  2  0  0  0  0  0  0
  -30.7300  -14.3750   19.8140 C   0  0  0  0  0  0  0  0  0  0  0  0
  -30.2900  -12.2750   18.6020 C   0  0  0  0  0  2  0  0  0  0  0  0
  -29.2400  -12.4300   17.4900 C   0  0  0  0  0  2  0  0  0  0  0  0
  -27.8180  -12.2540   18.0540 C   0  0  0  0  0  2  0  0  0  0  0  0
  -27.5720  -13.1360   19.3060 C   0  0  0  0  0  3  0  0  0  0  0  0
  -28.7080  -12.9430   20.3340 C   0  0  0  0  0  2  0  0  0  0  0  0
  -29.9880  -13.2470   19.6610 N   0  0  0  0  0  0  0  0  0  0  0  0
  -31.6960  -14.6480   19.0950 O   0  0  0  0  0  0  0  0  0  0  0  0
  -30.4180  -15.1180   20.8850 N   0  0  0  0  0  0  0  0  0  0  0  0
  -29.5410  -14.9040   21.3430 H   0  0  0  0  0  0  0  0  0  0  0  0
  -25.2390  -13.7620   20.1960 C   0  0  0  0  0  0  0  0  0  0  0  0
  -24.2040  -12.9960   20.6670 C   0  0  0  0  0  0  0  0  0  0  0  0
  -24.6600  -11.6440   20.6170 C   0  0  0  0  0  0  0  0  0  0  0  0
  -26.2610  -12.8730   19.8940 N   0  0  0  0  0  0  0  0  0  0  0  0
  -25.9180  -11.5960   20.1980 N   0  0  0  0  0  0  0  0  0  0  0  0
  -23.9510  -10.3860   20.8880 C   0  0  0  0  0  0  0  0  0  0  0  0
  -24.4000   -9.4830   21.8760 C   0  0  0  0  0  3  0  0  0  0  0  0
  -23.6920   -8.2880   22.1300 C   0  0  0  0  0  3  0  0  0  0  0  0
  -22.5200   -7.9890   21.3940 C   0  0  0  0  0  0  0  0  0  0  0  0
  -22.0900   -8.8810   20.3950 C   0  0  0  0  0  3  0  0  0  0  0  0
  -22.8000  -10.0670   20.1410 C   0  0  0  0  0  3  0  0  0  0  0  0
  -21.7810   -6.8400   21.5530 O   0  0  0  0  0  0  0  0  0  0  0  0
  -21.6860   -6.2110   22.7670 C   0  0  0  0  0  0  0  0  0  0  0  0
  -21.1680   -6.8640   23.9060 C   0  0  0  0  0  3  0  0  0  0  0  0
  -21.0220   -6.1570   25.1170 C   0  0  0  0  0  3  0  0  0  0  0  0
  -21.3800   -4.7980   25.1880 C   0  0  0  0  0  0  0  0  0  0  0  0
  -21.8920   -4.1450   24.0530 C   0  0  0  0  0  3  0  0  0  0  0  0
  -22.0400   -4.8480   22.8450 C   0  0  0  0  0  0  0  0  0  0  0  0
  -22.5110   -4.2080   21.7480 F   0  0  0  0  0  0  0  0  0  0  0  0
  -21.2330   -4.1170   26.3490 F   0  0  0  0  0  0  0  0  0  0  0  0
  -22.8370  -13.4820   21.0530 C   0  0  0  0  0  0  0  0  0  0  0  0
  -22.1860  -12.7960   21.9890 N   0  0  0  0  0  0  0  0  0  0  0  0
  -22.3580  -14.5030   20.5620 O   0  0  0  0  0  0  0  0  0  0  0  0
  -22.5890  -11.9720   22.4070 H   0  0  0  0  0  0  0  0  0  0  0  0
  -21.2700  -13.1010   22.2880 H   0  0  0  0  0  0  0  0  0  0  0  0
  -25.3900  -15.1280   19.9850 N   0  0  0  0  0  0  0  0  0  0  0  0
  -24.6340  -15.7850   20.1400 H   0  0  0  0  0  0  0  0  0  0  0  0
  -26.2110  -15.5600   19.5760 H   0  0  0  0  0  0  0  0  0  0  0  0
  1  6  2  0
  2  8  1  0
  2  1  1  0
  3  1  1  0
  4 52  1  0
  4  3  1  0
  5  4  1  0
  5  2  2  0
  6  7  1  0
  9  8  1  0
 10  9  1  0
 11 13  1  0
 11 10  1  0
 12 23  2  0
 13 18  1  0
 14 22  1  0
 14 24  1  0
 15 21  1  0
 15 17  1  0
 16 22  1  0
 17 16  1  0
 18 17  2  0
 19 20  1  0
 19 13  2  0
 20 15  2  0
 21 14  1  0
 22 12  1  0
 24 26  2  0
 25 24  1  0
 27 25  1  0
 28 37  2  0
 28 33  1  0
 29 25  1  0
 29 33  1  0
 30 29  1  0
 31 32  1  0
 31 30  1  0
 32 28  1  0
 33 34  2  0
 34 35  1  0
 36 35  2  0
 37 36  1  0
 38 12  1  0
 38 39  1  0
 38 48  1  0
 39 42  1  0
 40 44  1  0
 40 39  1  0
 41 40  2  0
 44 43  1  0
 46 44  1  0
 46 47  1  0
 46 45  1  0
 48 51  1  1
 48 49  1  0
 50 48  1  0
 53 52  1  0
 53 54  1  0
 54 55  1  0
 56 64  1  0
 57 62  1  0
 58 59  1  0
 58 57  1  0
 60 59  1  0
 60 69  1  0
 60 61  1  0
 62 56  1  0
 62 61  1  0
 63 56  2  0
 64 65  1  0
 64 55  1  0
 66 67  2  0
 67 86  1  0
 68 67  1  0
 68 71  1  0
 69 66  1  0
 69 70  1  0
 70 68  2  0
 71 72  1  0
 72 73  2  0
 74 77  1  0
 74 73  1  0
 75 74  2  0
 76 75  1  0
 76 71  2  0
 77 78  1  0
 78 83  2  0
 78 79  1  0
 79 80  2  0
 80 81  1  0
 81 85  1  0
 82 81  2  0
 83 82  1  0
 84 83  1  0
 86 87  1  0
 87 90  1  0
 87 89  1  0
 88 86  2  0
 91 92  1  0
 91 66  1  0
 93 91  1  0
M  ISO  4  10 101  11 101  56 100  64 100
M  END
>  <TORSDO>  (13) 
F 23

>  <SCORE>  (13) 
-11.584

>  <name>  (13) 
12

>  <ligand_id>  (13) 
12

>  <original_smiles>  (13) 
[H]N=C1C(C([H])([H])C([H])([H])C([H])([H])Oc2c([H])c([H])c3c(c2[H])C([H])([H])N(C(=O)C([H])(N([H])C(=O)C([H])(N([H])C([H])([H])[H])C([H])([H])[H])C(C([H])([H])[H])(C([H])([H])[H])C([H])([H])[H])C([H])(C(=O)N([H])C2([H])c4c([H])c([H])c([H])c([H])c4C([H])([H])C([H])([H])C2([H])[H])C3([H])[H])=NC([H])(C([H])([H])C([H])([H])C([H])([H])C([H])([H])N([H])C(=O)N2C([H])([H])C([H])([H])C([H])([H])C([H])(n3nc(-c4c([H])c([H])c(Oc5c([H])c([H])c(F)c([H])c5F)c([H])c4[H])c(C(=O)N([H])[H])c3N([H])[H])C2([H])[H])C1([H])[H]

>  <smiles>  (13) 
[H]N=C1C(C([H])([H])C([H])([H])C([H])([H])Oc2c([H])c([H])c3c(c2[H])C([H])([H])N(C(=O)C([H])(N([H])C(=O)C([H])(N([H])C([H])([H])[H])C([H])([H])[H])C(C([H])([H])[H])(C([H])([H])[H])C([H])([H])[H])C([H])(C(=O)N([H])C2([H])c4c([H])c([H])c([H])c([H])c4C([H])([H])C([H])([H])C2([H])[H])C3([H])[H])=NC([H])(C([H])([H])C([H])([H])C([H])([H])C([H])([H])N([H])C(=O)N2C([H])([H])C([H])([H])C([H])([H])C([H])(n3nc(-c4c([H])c([H])c(Oc5c([H])c([H])c(F)c([H])c5F)c([H])c4[H])c(C(=O)N([H])[H])c3N([H])[H])C2([H])[H])C1([H])[H]

$$$$
13:0:0
     RDKit          3D

 94103  0  0  1  0  0  0  0  0999 V2000
  -31.2070  -21.2910   20.0160 C   0  0  0  0  0  3  0  0  0  0  0  0
  -30.8980  -20.7730   21.2250 C   0  0  0  0  0  0  0  0  0  0  0  0
  -30.9350  -22.7160   19.5910 C   0  0  0  0  0  2  0  0  0  0  0  0
  -30.2690  -21.6520   22.3070 C   0  0  0  0  0  2  0  0  0  0  0  0
  -30.3030  -23.1530   21.9740 C   0  0  0  0  0  2  0  0  0  0  0  0
  -29.9140  -23.4010   20.5080 C   0  0  0  0  0  3  0  0  0  0  0  0
  -32.2010  -18.6710   20.7920 C   0  0  0  0  0  3  0  0  0  0  0  0
  -30.4220  -18.6510   22.4630 C   0  0  0  0  0  3  0  0  0  0  0  0
  -32.3840  -17.2910   20.9730 C   0  0  0  0  0  3  0  0  0  0  0  0
  -30.6080  -17.2670   22.6420 C   0  0  0  0  0  3  0  0  0  0  0  0
  -31.1960  -19.3560   21.5140 C   0  0  0  0  0  0  0  0  0  0  0  0
  -31.5720  -16.5810   21.8770 C   0  0  0  0  0  0  0  0  0  0  0  0
  -31.6900  -15.0750   21.9710 C   0  0  0  0  0  2  0  0  0  0  0  0
  -30.4730  -14.2530   19.9590 C   0  0  0  0  0  0  0  0  0  0  0  0
  -29.7770  -12.4900   18.3920 C   0  0  0  0  0  2  0  0  0  0  0  0
  -28.6840  -12.8870   17.3910 C   0  0  0  0  0  2  0  0  0  0  0  0
  -27.2900  -12.6860   18.0090 C   0  0  0  0  0  2  0  0  0  0  0  0
  -27.1600  -13.3620   19.3980 C   0  0  0  0  0  3  0  0  0  0  0  0
  -28.3400  -12.9790   20.3180 C   0  0  0  0  0  2  0  0  0  0  0  0
  -29.6080  -13.2700   19.6250 N   0  0  0  0  0  0  0  0  0  0  0  0
  -31.2560  -14.7780   19.1600 O   0  0  0  0  0  0  0  0  0  0  0  0
  -30.5970  -14.4000   21.2830 N   0  0  0  0  0  0  0  0  0  0  0  0
  -29.9620  -13.8610   21.8530 H   0  0  0  0  0  0  0  0  0  0  0  0
  -24.8370  -13.8990   20.3740 C   0  0  0  0  0  0  0  0  0  0  0  0
  -23.8360  -13.0930   20.8460 C   0  0  0  0  0  0  0  0  0  0  0  0
  -24.3240  -11.7550   20.7440 C   0  0  0  0  0  0  0  0  0  0  0  0
  -25.8730  -13.0490   20.0180 N   0  0  0  0  0  0  0  0  0  0  0  0
  -25.5720  -11.7540   20.2930 N   0  0  0  0  0  0  0  0  0  0  0  0
  -23.6560  -10.4710   20.9920 C   0  0  0  0  0  0  0  0  0  0  0  0
  -24.1690   -9.5380   21.9190 C   0  0  0  0  0  3  0  0  0  0  0  0
  -23.4970   -8.3180   22.1530 C   0  0  0  0  0  3  0  0  0  0  0  0
  -22.3000   -8.0220   21.4590 C   0  0  0  0  0  0  0  0  0  0  0  0
  -21.8070   -8.9450   20.5190 C   0  0  0  0  0  3  0  0  0  0  0  0
  -22.4790  -10.1560   20.2850 C   0  0  0  0  0  3  0  0  0  0  0  0
  -21.5930   -6.8520   21.6030 O   0  0  0  0  0  0  0  0  0  0  0  0
  -21.5910   -6.1530   22.7840 C   0  0  0  0  0  0  0  0  0  0  0  0
  -21.1530   -6.7350   23.9940 C   0  0  0  0  0  3  0  0  0  0  0  0
  -21.1010   -5.9600   25.1690 C   0  0  0  0  0  3  0  0  0  0  0  0
  -21.4780   -4.6050   25.1370 C   0  0  0  0  0  0  0  0  0  0  0  0
  -21.9090   -4.0230   23.9330 C   0  0  0  0  0  3  0  0  0  0  0  0
  -21.9630   -4.7940   22.7590 C   0  0  0  0  0  0  0  0  0  0  0  0
  -22.3580   -4.2220   21.5970 F   0  0  0  0  0  0  0  0  0  0  0  0
  -21.4210   -3.8580   26.2630 F   0  0  0  0  0  0  0  0  0  0  0  0
  -22.4650  -13.5280   21.2790 C   0  0  0  0  0  0  0  0  0  0  0  0
  -21.8640  -12.8140   22.2260 N   0  0  0  0  0  0  0  0  0  0  0  0
  -21.9360  -14.5360   20.8130 O   0  0  0  0  0  0  0  0  0  0  0  0
  -22.3020  -11.9950   22.6220 H   0  0  0  0  0  0  0  0  0  0  0  0
  -20.9490  -13.0880   22.5560 H   0  0  0  0  0  0  0  0  0  0  0  0
  -24.9470  -15.2760   20.2010 N   0  0  0  0  0  0  0  0  0  0  0  0
  -24.1890  -15.9150   20.4120 H   0  0  0  0  0  0  0  0  0  0  0  0
  -25.7560  -15.7370   19.8020 H   0  0  0  0  0  0  0  0  0  0  0  0
  -29.7910  -24.8900   20.1650 C   0  0  0  0  0  2  0  0  0  0  0  0
  -28.4600  -25.4950   20.6070 C   0  0  0  0  0  2  0  0  0  0  0  0
  -28.4650  -26.8430   20.1790 O   0  0  0  0  0  0  0  0  0  0  0  0
  -24.5600  -31.8770   23.2820 C   0  0  0  0  0  0  0  0  0  0  0  0
  -27.2590  -27.4860   20.2230 C   0  0  0  0  0  0  0  0  0  0  0  0
  -23.3650  -30.4480   21.6500 C   0  0  0  0  0  3  0  0  0  0  0  0
  -24.8340  -28.9150   20.2390 C   0  0  0  0  0  0  0  0  0  0  0  0
  -25.8800  -30.8490   21.4380 C   0  0  0  0  0  2  0  0  0  0  0  0
  -25.9810  -29.4750   20.8150 C   0  0  0  0  0  0  0  0  0  0  0  0
  -27.1980  -28.7670   20.8040 C   0  0  0  0  0  3  0  0  0  0  0  0
  -26.0980  -26.9240   19.6480 C   0  0  0  0  0  3  0  0  0  0  0  0
  -24.8830  -27.6350   19.6570 C   0  0  0  0  0  3  0  0  0  0  0  0
  -23.5770  -29.7550   20.2760 C   0  0  0  0  0  2  0  0  0  0  0  0
  -24.6200  -31.0720   22.1830 N   0  0  0  0  0  0  0  0  0  0  0  0
  -23.4780  -32.1380   23.8230 O   0  0  0  0  0  0  0  0  0  0  0  0
  -22.7300  -29.4270   22.6200 C   0  0  0  0  0  0  0  0  0  0  0  0
  -21.4110  -29.2190   22.4850 N   0  0  0  0  0  0  0  0  0  0  0  0
  -23.4200  -28.8230   23.4450 O   0  0  0  0  0  0  0  0  0  0  0  0
  -20.9160  -29.7590   21.7890 H   0  0  0  0  0  0  0  0  0  0  0  0
  -18.0610  -27.9540   22.9510 C   0  0  0  0  0  0  0  0  0  0  0  0
  -20.6050  -28.2770   23.2600 C   0  0  0  0  0  3  0  0  0  0  0  0
  -20.7510  -26.8380   22.7130 C   0  0  0  0  0  2  0  0  0  0  0  0
  -19.6750  -26.4720   21.6850 C   0  0  0  0  0  2  0  0  0  0  0  0
  -18.2800  -26.5980   22.3010 C   0  0  0  0  0  2  0  0  0  0  0  0
  -19.1540  -28.7500   23.3830 C   0  0  0  0  0  0  0  0  0  0  0  0
  -18.8960  -30.0220   23.9420 C   0  0  0  0  0  3  0  0  0  0  0  0
  -17.5770  -30.4960   24.0770 C   0  0  0  0  0  3  0  0  0  0  0  0
  -16.4980  -29.6970   23.6610 C   0  0  0  0  0  3  0  0  0  0  0  0
  -16.7400  -28.4270   23.1060 C   0  0  0  0  0  3  0  0  0  0  0  0
  -25.8420  -32.5230   23.8950 C   0  0  0  0  0  3  0  0  0  0  0  0
  -26.3800  -31.7540   25.1640 C   0  0  1  0  0  0  0  0  0  0  0  0
  -25.2960  -31.4760   26.2320 C   0  0  0  0  0  1  0  0  0  0  0  0
  -26.9990  -30.3970   24.7550 C   0  0  0  0  0  1  0  0  0  0  0  0
  -27.5080  -32.5730   25.8330 C   0  0  0  0  0  1  0  0  0  0  0  0
  -25.5200  -33.9180   24.2250 N   0  0  0  0  0  0  0  0  0  0  0  0
  -25.8490  -34.9730   23.4680 C   0  0  0  0  0  0  0  0  0  0  0  0
  -26.5280  -34.8750   22.4410 O   0  0  0  0  0  0  0  0  0  0  0  0
  -24.9210  -34.0670   25.0240 H   0  0  0  0  0  0  0  0  0  0  0  0
  -24.1160  -36.7530   23.0820 C   0  0  0  0  0  1  0  0  0  0  0  0
  -25.3420  -36.3550   23.9180 C   0  0  0  0  0  3  0  0  0  0  0  0
  -27.4570  -37.2480   24.7910 C   0  0  0  0  0  1  0  0  0  0  0  0
  -26.3670  -37.4180   23.8340 N   0  0  0  0  0  0  0  0  0  0  0  0
  -25.9510  -38.3330   23.9900 H   0  0  0  0  0  0  0  0  0  0  0  0
  1  2  2  0
  2 11  1  0
  2  4  1  0
  3  1  1  0
  3  6  1  0
  5  4  1  0
  6 52  1  0
  6  5  1  0
  7  9  2  0
  7 11  1  0
  8 10  1  0
  9 12  1  0
 11  8  2  0
 12 13  1  0
 12 10  2  0
 14 22  1  0
 15 20  1  0
 16 17  1  0
 16 15  1  0
 18 17  1  0
 18 27  1  0
 18 19  1  0
 20 14  1  0
 20 19  1  0
 21 14  2  0
 22 23  1  0
 22 13  1  0
 24 25  2  0
 25 44  1  0
 26 25  1  0
 26 29  1  0
 27 28  1  0
 27 24  1  0
 28 26  2  0
 29 30  1  0
 30 31  2  0
 32 35  1  0
 32 31  1  0
 33 32  2  0
 34 33  1  0
 34 29  2  0
 35 36  1  0
 36 37  1  0
 37 38  2  0
 39 38  1  0
 39 43  1  0
 40 39  2  0
 41 36  2  0
 41 40  1  0
 42 41  1  0
 44 45  1  0
 45 48  1  0
 45 47  1  0
 46 44  2  0
 49 24  1  0
 49 50  1  0
 51 49  1  0
 52 53  1  0
 54 56  1  0
 54 53  1  0
 55 66  2  0
 56 61  1  0
 57 65  1  0
 57 67  1  0
 58 64  1  0
 58 60  1  0
 59 65  1  0
 60 59  1  0
 61 60  2  0
 62 63  1  0
 62 56  2  0
 63 58  2  0
 64 57  1  0
 65 55  1  0
 67 69  2  0
 68 67  1  0
 70 68  1  0
 71 80  2  0
 71 76  1  0
 72 68  1  0
 72 76  1  0
 73 72  1  0
 74 75  1  0
 74 73  1  0
 75 71  1  0
 76 77  2  0
 77 78  1  0
 79 78  2  0
 80 79  1  0
 81 55  1  0
 81 86  1  0
 81 82  1  0
 82 85  1  1
 82 83  1  0
 84 82  1  0
 86 89  1  0
 87 91  1  0
 87 86  1  0
 88 87  2  0
 91 90  1  0
 93 91  1  0
 93 94  1  0
 93 92  1  0
M  ISO  4  14 100  22 100  53 101  54 101
M  END
>  <TORSDO>  (14) 
F 20

>  <SCORE>  (14) 
-11.151

>  <name>  (14) 
13

>  <ligand_id>  (14) 
13

>  <original_smiles>  (14) 
[H]C1=C(c2c([H])c([H])c(C([H])([H])N([H])C(=O)N3C([H])([H])C([H])([H])C([H])([H])C([H])(n4nc(-c5c([H])c([H])c(Oc6c([H])c([H])c(F)c([H])c6F)c([H])c5[H])c(C(=O)N([H])[H])c4N([H])[H])C3([H])[H])c([H])c2[H])C([H])([H])C([H])([H])C([H])(C([H])([H])C([H])([H])Oc2c([H])c([H])c3c(c2[H])C([H])([H])N(C(=O)C([H])(N([H])C(=O)C([H])(N([H])C([H])([H])[H])C([H])([H])[H])C(C([H])([H])[H])(C([H])([H])[H])C([H])([H])[H])C([H])(C(=O)N([H])C2([H])c4c([H])c([H])c([H])c([H])c4C([H])([H])C([H])([H])C2([H])[H])C3([H])[H])C1([H])[H]

>  <smiles>  (14) 
[H]C1=C(c2c([H])c([H])c(C([H])([H])N([H])C(=O)N3C([H])([H])C([H])([H])C([H])([H])C([H])(n4nc(-c5c([H])c([H])c(Oc6c([H])c([H])c(F)c([H])c6F)c([H])c5[H])c(C(=O)N([H])[H])c4N([H])[H])C3([H])[H])c([H])c2[H])C([H])([H])C([H])([H])C([H])(C([H])([H])C([H])([H])Oc2c([H])c([H])c3c(c2[H])C([H])([H])N(C(=O)C([H])(N([H])C(=O)C([H])(N([H])C([H])([H])[H])C([H])([H])[H])C(C([H])([H])[H])(C([H])([H])[H])C([H])([H])[H])C([H])(C(=O)N([H])C2([H])c4c([H])c([H])c([H])c([H])c4C([H])([H])C([H])([H])C2([H])[H])C3([H])[H])C1([H])[H]

$$$$
14:0:0
     RDKit          3D

 95104  0  0  1  0  0  0  0  0999 V2000
  -32.3660  -17.7770   20.8090 C   0  0  0  0  0  3  0  0  0  0  0  0
  -31.3050  -17.3660   21.5240 C   0  0  0  0  0  0  0  0  0  0  0  0
  -32.4570  -19.1170   20.1110 C   0  0  0  0  0  2  0  0  0  0  0  0
  -30.0790  -18.2430   21.7350 C   0  0  0  0  0  2  0  0  0  0  0  0
  -31.3370  -21.3700   19.7480 C   0  0  0  0  0  2  0  0  0  0  0  0
  -29.0380  -20.5460   21.3500 C   0  0  0  0  0  2  0  0  0  0  0  0
  -31.4340  -20.1300   20.6560 C   0  0  0  0  0  3  0  0  0  0  0  0
  -30.0390  -19.4930   20.8240 C   0  0  0  0  0  3  0  0  0  0  0  0
  -30.3150  -22.3960   20.2820 C   0  0  0  0  0  3  0  0  0  0  0  0
  -28.9950  -21.7460   20.4840 N   0  0  0  0  0  4  0  0  0  0  0  0
  -28.3540  -22.4050   20.8970 H   0  0  0  0  0  0  0  0  0  0  0  0
  -28.6130  -21.4760   19.5910 H   0  0  0  0  0  0  0  0  0  0  0  0
  -31.2910  -16.0140   22.2200 C   0  0  0  0  0  2  0  0  0  0  0  0
  -30.6190  -14.5090   20.3620 C   0  0  0  0  0  0  0  0  0  0  0  0
  -30.1450  -12.5660   18.9210 C   0  0  0  0  0  2  0  0  0  0  0  0
  -29.1370  -12.8760   17.8030 C   0  0  0  0  0  2  0  0  0  0  0  0
  -27.6980  -12.6780   18.3060 C   0  0  0  0  0  2  0  0  0  0  0  0
  -27.4330  -13.4150   19.6450 C   0  0  0  0  0  3  0  0  0  0  0  0
  -28.5420  -13.1110   20.6770 C   0  0  0  0  0  2  0  0  0  0  0  0
  -29.8510  -13.4290   20.0740 N   0  0  0  0  0  0  0  0  0  0  0  0
  -31.5440  -14.8900   19.6400 O   0  0  0  0  0  0  0  0  0  0  0  0
  -30.4040  -15.0560   21.5660 N   0  0  0  0  0  0  0  0  0  0  0  0
  -29.6490  -14.6690   22.1140 H   0  0  0  0  0  0  0  0  0  0  0  0
  -25.0440  -13.9440   20.4500 C   0  0  0  0  0  0  0  0  0  0  0  0
  -24.0140  -13.1350   20.8510 C   0  0  0  0  0  0  0  0  0  0  0  0
  -24.5140  -11.7980   20.7840 C   0  0  0  0  0  0  0  0  0  0  0  0
  -26.1060  -13.0970   20.1710 N   0  0  0  0  0  0  0  0  0  0  0  0
  -25.7910  -11.8010   20.4250 N   0  0  0  0  0  0  0  0  0  0  0  0
  -23.8340  -10.5120   20.9860 C   0  0  0  0  0  0  0  0  0  0  0  0
  -24.3080   -9.5650   21.9200 C   0  0  0  0  0  3  0  0  0  0  0  0
  -23.6270   -8.3420   22.1080 C   0  0  0  0  0  3  0  0  0  0  0  0
  -22.4580   -8.0590   21.3630 C   0  0  0  0  0  0  0  0  0  0  0  0
  -22.0040   -8.9950   20.4180 C   0  0  0  0  0  3  0  0  0  0  0  0
  -22.6850  -10.2100   20.2280 C   0  0  0  0  0  3  0  0  0  0  0  0
  -21.7460   -6.8870   21.4600 O   0  0  0  0  0  0  0  0  0  0  0  0
  -21.7040   -6.1660   22.6260 C   0  0  0  0  0  0  0  0  0  0  0  0
  -21.2390   -6.7290   23.8340 C   0  0  0  0  0  3  0  0  0  0  0  0
  -21.1470   -5.9320   24.9930 C   0  0  0  0  0  3  0  0  0  0  0  0
  -21.5100   -4.5730   24.9440 C   0  0  0  0  0  0  0  0  0  0  0  0
  -21.9670   -4.0080   23.7400 C   0  0  0  0  0  3  0  0  0  0  0  0
  -22.0610   -4.8030   22.5830 C   0  0  0  0  0  0  0  0  0  0  0  0
  -22.4830   -4.2490   21.4210 F   0  0  0  0  0  0  0  0  0  0  0  0
  -21.4140   -3.8040   26.0540 F   0  0  0  0  0  0  0  0  0  0  0  0
  -22.6150  -13.5660   21.1860 C   0  0  0  0  0  0  0  0  0  0  0  0
  -21.9460  -12.8420   22.0750 N   0  0  0  0  0  0  0  0  0  0  0  0
  -22.1250  -14.5810   20.6940 O   0  0  0  0  0  0  0  0  0  0  0  0
  -22.3560  -12.0200   22.4950 H   0  0  0  0  0  0  0  0  0  0  0  0
  -21.0110  -13.1150   22.3430 H   0  0  0  0  0  0  0  0  0  0  0  0
  -25.1620  -15.3210   20.2830 N   0  0  0  0  0  0  0  0  0  0  0  0
  -24.3840  -15.9550   20.4280 H   0  0  0  0  0  0  0  0  0  0  0  0
  -25.9930  -15.7840   19.9410 H   0  0  0  0  0  0  0  0  0  0  0  0
  -30.1960  -23.6110   19.3310 C   0  0  0  0  0  2  0  0  0  0  0  0
  -29.7430  -24.9140   20.0210 C   0  0  0  0  0  2  0  0  0  0  0  0
  -28.5570  -25.6010   19.3290 C   0  0  0  0  0  2  0  0  0  0  0  0
  -28.4070  -26.8840   19.9240 O   0  0  0  0  0  0  0  0  0  0  0  0
  -24.4610  -31.8190   23.1070 C   0  0  0  0  0  0  0  0  0  0  0  0
  -27.1880  -27.5250   19.9040 C   0  0  0  0  0  0  0  0  0  0  0  0
  -23.2770  -30.4400   21.4290 C   0  0  0  0  0  3  0  0  0  0  0  0
  -24.7550  -28.9650   19.9640 C   0  0  0  0  0  0  0  0  0  0  0  0
  -25.7950  -30.8490   21.2430 C   0  0  0  0  0  2  0  0  0  0  0  0
  -25.9000  -29.4980   20.5670 C   0  0  0  0  0  0  0  0  0  0  0  0
  -27.1140  -28.7820   20.5410 C   0  0  0  0  0  3  0  0  0  0  0  0
  -26.0240  -27.0000   19.2920 C   0  0  0  0  0  3  0  0  0  0  0  0
  -24.8100  -27.7130   19.3310 C   0  0  0  0  0  3  0  0  0  0  0  0
  -23.4940  -29.7960   20.0330 C   0  0  0  0  0  2  0  0  0  0  0  0
  -24.5290  -31.0500   21.9850 N   0  0  0  0  0  0  0  0  0  0  0  0
  -23.3750  -32.0600   23.6540 O   0  0  0  0  0  0  0  0  0  0  0  0
  -22.6460  -29.3830   22.3610 C   0  0  0  0  0  0  0  0  0  0  0  0
  -21.3190  -29.2030   22.2480 N   0  0  0  0  0  0  0  0  0  0  0  0
  -23.3430  -28.7280   23.1400 O   0  0  0  0  0  0  0  0  0  0  0  0
  -20.8180  -29.7820   21.5870 H   0  0  0  0  0  0  0  0  0  0  0  0
  -17.9500  -28.0180   22.7760 C   0  0  0  0  0  0  0  0  0  0  0  0
  -20.5150  -28.2390   22.9970 C   0  0  0  0  0  3  0  0  0  0  0  0
  -20.5890  -26.8340   22.3560 C   0  0  0  0  0  2  0  0  0  0  0  0
  -19.4600  -26.5680   21.3540 C   0  0  0  0  0  2  0  0  0  0  0  0
  -18.0940  -26.7000   22.0340 C   0  0  0  0  0  2  0  0  0  0  0  0
  -19.0860  -28.7490   23.2120 C   0  0  0  0  0  0  0  0  0  0  0  0
  -18.8950  -29.9880   23.8610 C   0  0  0  0  0  3  0  0  0  0  0  0
  -17.5990  -30.4930   24.0840 C   0  0  0  0  0  3  0  0  0  0  0  0
  -16.4780  -29.7560   23.6650 C   0  0  0  0  0  3  0  0  0  0  0  0
  -16.6540  -28.5210   23.0160 C   0  0  0  0  0  3  0  0  0  0  0  0
  -25.7380  -32.4530   23.7430 C   0  0  0  0  0  3  0  0  0  0  0  0
  -26.2700  -31.6580   24.9990 C   0  0  1  0  0  0  0  0  0  0  0  0
  -25.1790  -31.3720   26.0580 C   0  0  0  0  0  1  0  0  0  0  0  0
  -26.8800  -30.3040   24.5730 C   0  0  0  0  0  1  0  0  0  0  0  0
  -27.4040  -32.4580   25.6820 C   0  0  0  0  0  1  0  0  0  0  0  0
  -25.4100  -33.8380   24.1050 N   0  0  0  0  0  0  0  0  0  0  0  0
  -25.7370  -34.9120   23.3740 C   0  0  0  0  0  0  0  0  0  0  0  0
  -26.4170  -34.8420   22.3470 O   0  0  0  0  0  0  0  0  0  0  0  0
  -24.8070  -33.9660   24.9030 H   0  0  0  0  0  0  0  0  0  0  0  0
  -23.9960  -36.6940   23.0360 C   0  0  0  0  0  1  0  0  0  0  0  0
  -25.2260  -36.2830   23.8600 C   0  0  0  0  0  3  0  0  0  0  0  0
  -27.3320  -37.1670   24.7600 C   0  0  0  0  0  1  0  0  0  0  0  0
  -26.2510  -37.3470   23.7940 N   0  0  0  0  0  0  0  0  0  0  0  0
  -25.8330  -38.2600   23.9540 H   0  0  0  0  0  0  0  0  0  0  0  0
  1  2  2  0
  2  4  1  0
  2 13  1  0
  3  7  1  0
  3  1  1  0
  5  9  1  0
  7  5  1  0
  7  8  1  0
  8  6  1  0
  8  4  1  0
  9 52  1  0
  9 10  1  0
 10 11  1  0
 10  6  1  0
 12 10  1  0
 14 22  1  0
 15 20  1  0
 16 17  1  0
 16 15  1  0
 18 17  1  0
 18 27  1  0
 18 19  1  0
 20 14  1  0
 20 19  1  0
 21 14  2  0
 22 23  1  0
 22 13  1  0
 24 25  2  0
 25 44  1  0
 26 25  1  0
 26 29  1  0
 27 28  1  0
 27 24  1  0
 28 26  2  0
 29 30  1  0
 30 31  2  0
 32 35  1  0
 32 31  1  0
 33 32  2  0
 34 33  1  0
 34 29  2  0
 35 36  1  0
 36 37  1  0
 37 38  2  0
 39 38  1  0
 39 43  1  0
 40 39  2  0
 41 36  2  0
 41 40  1  0
 42 41  1  0
 44 45  1  0
 45 48  1  0
 45 47  1  0
 46 44  2  0
 49 50  1  0
 49 24  1  0
 51 49  1  0
 52 53  1  0
 54 55  1  0
 54 53  1  0
 56 67  2  0
 57 55  1  0
 57 62  1  0
 58 66  1  0
 58 68  1  0
 59 65  1  0
 59 61  1  0
 60 66  1  0
 61 60  1  0
 62 61  2  0
 63 64  1  0
 63 57  2  0
 64 59  2  0
 65 58  1  0
 66 56  1  0
 68 70  2  0
 69 68  1  0
 71 69  1  0
 72 81  2  0
 72 77  1  0
 73 69  1  0
 73 77  1  0
 74 73  1  0
 75 76  1  0
 75 74  1  0
 76 72  1  0
 77 78  2  0
 78 79  1  0
 80 79  2  0
 81 80  1  0
 82 56  1  0
 82 87  1  0
 82 83  1  0
 83 86  1  1
 83 84  1  0
 85 83  1  0
 87 90  1  0
 88 92  1  0
 88 87  1  0
 89 88  2  0
 92 91  1  0
 94 92  1  0
 94 95  1  0
 94 93  1  0
M  ISO  4  14 100  22 100  54 101  55 101
M  END
>  <TORSDO>  (15) 
F 20

>  <SCORE>  (15) 
-12.997

>  <name>  (15) 
14

>  <ligand_id>  (15) 
14

>  <original_smiles>  (15) 
[H]C1=C(C([H])([H])N([H])C(=O)N2C([H])([H])C([H])([H])C([H])([H])C([H])(n3nc(-c4c([H])c([H])c(Oc5c([H])c([H])c(F)c([H])c5F)c([H])c4[H])c(C(=O)N([H])[H])c3N([H])[H])C2([H])[H])C([H])([H])C2([H])C([H])(C1([H])[H])C([H])([H])C([H])(C([H])([H])C([H])([H])C([H])([H])Oc1c([H])c([H])c3c(c1[H])C([H])([H])N(C(=O)C([H])(N([H])C(=O)C([H])(N([H])C([H])([H])[H])C([H])([H])[H])C(C([H])([H])[H])(C([H])([H])[H])C([H])([H])[H])C([H])(C(=O)N([H])C1([H])c4c([H])c([H])c([H])c([H])c4C([H])([H])C([H])([H])C1([H])[H])C3([H])[H])[N+]([H])([H])C2([H])[H]

>  <smiles>  (15) 
[H]C1=C(C([H])([H])N([H])C(=O)N2C([H])([H])C([H])([H])C([H])([H])C([H])(n3nc(-c4c([H])c([H])c(Oc5c([H])c([H])c(F)c([H])c5F)c([H])c4[H])c(C(=O)N([H])[H])c3N([H])[H])C2([H])[H])C([H])([H])C2([H])C([H])(C1([H])[H])C([H])([H])C([H])(C([H])([H])C([H])([H])C([H])([H])Oc1c([H])c([H])c3c(c1[H])C([H])([H])N(C(=O)C([H])(N([H])C(=O)C([H])(N([H])C([H])([H])[H])C([H])([H])[H])C(C([H])([H])[H])(C([H])([H])[H])C([H])([H])[H])C([H])(C(=O)N([H])C1([H])c4c([H])c([H])c([H])c([H])c4C([H])([H])C([H])([H])C1([H])[H])C3([H])[H])[N+]([H])([H])C2([H])[H]

$$$$
15:0:0
     RDKit          3D

 97106  0  0  1  0  0  0  0  0999 V2000
  -28.4680  -23.6490   22.1540 C   0  0  0  0  0  2  0  0  0  0  0  0
  -30.2900  -22.9630   20.8180 C   0  0  0  0  0  2  0  0  0  0  0  0
  -28.8990  -22.4770   21.2620 C   0  0  0  0  0  3  0  0  0  0  0  0
  -28.9430  -24.8510   21.3080 C   0  0  0  0  0  3  0  0  0  0  0  0
  -30.2060  -24.4200   20.6810 N   0  0  0  0  0  4  0  0  0  0  0  0
  -30.2390  -24.6940   19.7090 H   0  0  0  0  0  0  0  0  0  0  0  0
  -30.9970  -24.8220   21.1520 H   0  0  0  0  0  0  0  0  0  0  0  0
  -28.8400  -21.0570   21.9010 C   0  0  0  0  0  2  0  0  0  0  0  0
  -29.8780  -18.6450   21.7150 C   0  0  0  0  0  2  0  0  0  0  0  0
  -29.0010  -19.7110   19.6900 C   0  0  0  0  0  2  0  0  0  0  0  0
  -31.0200  -17.9600   20.9300 C   0  0  0  0  0  2  0  0  0  0  0  0
  -30.1050  -19.1570   18.7890 C   0  0  0  0  0  2  0  0  0  0  0  0
  -29.6100  -20.0070   21.0680 C   0  0  0  0  0  3  0  0  0  0  0  0
  -30.8490  -17.9350   19.3810 C   0  0  0  0  0  3  0  0  0  0  0  0
  -32.2280  -17.8270   18.6800 C   0  0  0  0  0  2  0  0  0  0  0  0
  -33.1770  -16.7490   19.2280 C   0  0  0  0  0  2  0  0  0  0  0  0
  -32.5520  -14.3800   18.8100 C   0  0  0  0  0  0  0  0  0  0  0  0
  -32.1760  -11.9630   19.0770 C   0  0  0  0  0  2  0  0  0  0  0  0
  -31.1640  -11.3860   18.0770 C   0  0  0  0  0  2  0  0  0  0  0  0
  -29.7360  -11.5200   18.6250 C   0  0  0  0  0  2  0  0  0  0  0  0
  -29.4150  -12.9650   19.0830 C   0  0  0  0  0  3  0  0  0  0  0  0
  -30.5230  -13.5170   20.0070 C   0  0  0  0  0  2  0  0  0  0  0  0
  -31.8340  -13.3650   19.3450 N   0  0  0  0  0  0  0  0  0  0  0  0
  -33.3590  -14.2470   17.8850 O   0  0  0  0  0  0  0  0  0  0  0  0
  -32.4660  -15.5110   19.5160 N   0  0  0  0  0  0  0  0  0  0  0  0
  -31.8960  -15.4830   20.3480 H   0  0  0  0  0  0  0  0  0  0  0  0
  -27.3720  -14.1400   20.1290 C   0  0  0  0  0  0  0  0  0  0  0  0
  -26.1800  -13.6570   20.5940 C   0  0  0  0  0  0  0  0  0  0  0  0
  -26.2390  -12.2380   20.4340 C   0  0  0  0  0  0  0  0  0  0  0  0
  -28.1000  -13.0330   19.7200 N   0  0  0  0  0  0  0  0  0  0  0  0
  -27.4250  -11.8790   19.9590 N   0  0  0  0  0  0  0  0  0  0  0  0
  -25.2170  -11.2070   20.6570 C   0  0  0  0  0  0  0  0  0  0  0  0
  -25.4540  -10.1040   21.5080 C   0  0  0  0  0  3  0  0  0  0  0  0
  -24.4490   -9.1350   21.7190 C   0  0  0  0  0  3  0  0  0  0  0  0
  -23.1940   -9.2640   21.0790 C   0  0  0  0  0  0  0  0  0  0  0  0
  -22.9740  -10.3490   20.2130 C   0  0  0  0  0  3  0  0  0  0  0  0
  -23.9760  -11.3110   20.0000 C   0  0  0  0  0  3  0  0  0  0  0  0
  -22.1680   -8.3590   21.2040 O   0  0  0  0  0  0  0  0  0  0  0  0
  -21.9790   -7.6390   22.3560 C   0  0  0  0  0  0  0  0  0  0  0  0
  -21.8120   -8.2670   23.6090 C   0  0  0  0  0  3  0  0  0  0  0  0
  -21.5520   -7.4920   24.7580 C   0  0  0  0  0  3  0  0  0  0  0  0
  -21.4500   -6.0920   24.6540 C   0  0  0  0  0  0  0  0  0  0  0  0
  -21.6110   -5.4650   23.4060 C   0  0  0  0  0  3  0  0  0  0  0  0
  -21.8730   -6.2370   22.2600 C   0  0  0  0  0  0  0  0  0  0  0  0
  -22.0070   -5.6290   21.0560 F   0  0  0  0  0  0  0  0  0  0  0  0
  -21.1940   -5.3460   25.7540 F   0  0  0  0  0  0  0  0  0  0  0  0
  -25.0080  -14.4660   21.0710 C   0  0  0  0  0  0  0  0  0  0  0  0
  -24.2600  -13.9500   22.0390 N   0  0  0  0  0  0  0  0  0  0  0  0
  -24.7790  -15.5880   20.6200 O   0  0  0  0  0  0  0  0  0  0  0  0
  -24.4590  -13.0360   22.4190 H   0  0  0  0  0  0  0  0  0  0  0  0
  -23.4750  -14.4720   22.4000 H   0  0  0  0  0  0  0  0  0  0  0  0
  -27.8910  -15.4260   20.0030 N   0  0  0  0  0  0  0  0  0  0  0  0
  -27.3710  -16.2540   20.2730 H   0  0  0  0  0  0  0  0  0  0  0  0
  -28.8080  -15.6400   19.6310 H   0  0  0  0  0  0  0  0  0  0  0  0
  -29.0930  -26.2110   22.0220 C   0  0  0  0  0  2  0  0  0  0  0  0
  -29.7060  -27.2740   21.0800 C   0  0  0  0  0  2  0  0  0  0  0  0
  -28.9330  -27.3410   19.8730 O   0  0  0  0  0  0  0  0  0  0  0  0
  -24.7070  -31.8130   23.4040 C   0  0  0  0  0  0  0  0  0  0  0  0
  -27.7060  -27.9570   19.9620 C   0  0  0  0  0  0  0  0  0  0  0  0
  -23.6040  -30.4780   21.6280 C   0  0  0  0  0  3  0  0  0  0  0  0
  -25.1700  -29.1890   20.0850 C   0  0  0  0  0  0  0  0  0  0  0  0
  -26.0760  -31.0730   21.4670 C   0  0  0  0  0  2  0  0  0  0  0  0
  -26.2680  -29.7740   20.7220 C   0  0  0  0  0  0  0  0  0  0  0  0
  -27.5330  -29.1760   20.6510 C   0  0  0  0  0  3  0  0  0  0  0  0
  -26.5940  -27.3670   19.3220 C   0  0  0  0  0  3  0  0  0  0  0  0
  -25.3240  -27.9830   19.3760 C   0  0  0  0  0  3  0  0  0  0  0  0
  -23.8590  -29.9310   20.1950 C   0  0  0  0  0  2  0  0  0  0  0  0
  -24.8120  -31.1290   22.2290 N   0  0  0  0  0  0  0  0  0  0  0  0
  -23.6090  -31.9560   23.9580 O   0  0  0  0  0  0  0  0  0  0  0  0
  -23.0270  -29.3360   22.4910 C   0  0  0  0  0  0  0  0  0  0  0  0
  -21.7310  -29.0430   22.2970 N   0  0  0  0  0  0  0  0  0  0  0  0
  -23.7380  -28.7190   23.2890 O   0  0  0  0  0  0  0  0  0  0  0  0
  -21.2140  -29.6110   21.6410 H   0  0  0  0  0  0  0  0  0  0  0  0
  -18.4790  -27.4920   22.5430 C   0  0  0  0  0  0  0  0  0  0  0  0
  -20.9830  -27.9770   22.9610 C   0  0  0  0  0  3  0  0  0  0  0  0
  -21.2550  -26.6100   22.2960 C   0  0  0  0  0  2  0  0  0  0  0  0
  -20.2380  -26.2500   21.2080 C   0  0  0  0  0  2  0  0  0  0  0  0
  -18.8210  -26.2160   21.7920 C   0  0  0  0  0  2  0  0  0  0  0  0
  -19.4960  -28.3260   23.0800 C   0  0  0  0  0  0  0  0  0  0  0  0
  -19.1300  -29.5170   23.7420 C   0  0  0  0  0  3  0  0  0  0  0  0
  -17.7780  -29.8830   23.8670 C   0  0  0  0  0  3  0  0  0  0  0  0
  -16.7730  -29.0460   23.3510 C   0  0  0  0  0  3  0  0  0  0  0  0
  -17.1260  -27.8510   22.6990 C   0  0  0  0  0  3  0  0  0  0  0  0
  -25.9500  -32.4640   24.0930 C   0  0  0  0  0  3  0  0  0  0  0  0
  -25.6110  -33.8620   24.3870 N   0  0  0  0  0  0  0  0  0  0  0  0
  -25.9980  -34.9060   23.6430 C   0  0  0  0  0  0  0  0  0  0  0  0
  -26.7480  -34.7970   22.6700 O   0  0  0  0  0  0  0  0  0  0  0  0
  -24.9470  -34.0270   25.1300 H   0  0  0  0  0  0  0  0  0  0  0  0
  -24.2930  -36.6830   23.1260 C   0  0  0  0  0  1  0  0  0  0  0  0
  -25.4620  -36.2930   24.0450 C   0  0  0  0  0  3  0  0  0  0  0  0
  -27.5260  -37.1880   25.0290 C   0  0  0  0  0  1  0  0  0  0  0  0
  -26.4930  -37.3530   24.0090 N   0  0  0  0  0  0  0  0  0  0  0  0
  -26.0680  -38.2680   24.1310 H   0  0  0  0  0  0  0  0  0  0  0  0
  -26.4130  -31.7110   25.3960 C   0  0  1  0  0  0  0  0  0  0  0  0
  -25.2580  -31.3950   26.3740 C   0  0  0  0  0  1  0  0  0  0  0  0
  -27.1100  -30.3760   25.0350 C   0  0  0  0  0  1  0  0  0  0  0  0
  -27.4570  -32.5700   26.1540 C   0  0  0  0  0  1  0  0  0  0  0  0
  2  3  1  0
  3  8  1  0
  3  1  1  0
  4 55  1  0
  4  1  1  0
  5  2  1  0
  5  7  1  0
  5  4  1  0
  6  5  1  0
 10 13  1  0
 11  9  1  0
 12 14  1  0
 12 10  1  0
 13  9  1  0
 13  8  1  0
 14 15  1  0
 14 11  1  0
 15 16  1  0
 16 25  1  0
 17 23  1  0
 17 25  1  0
 18 23  1  0
 19 20  1  0
 19 18  1  0
 21 20  1  0
 21 30  1  0
 21 22  1  0
 23 22  1  0
 24 17  2  0
 25 26  1  0
 27 28  2  0
 28 47  1  0
 29 28  1  0
 29 32  1  0
 30 31  1  0
 30 27  1  0
 31 29  2  0
 32 33  1  0
 33 34  2  0
 35 38  1  0
 35 34  1  0
 36 35  2  0
 37 36  1  0
 37 32  2  0
 38 39  1  0
 39 40  1  0
 40 41  2  0
 42 41  1  0
 42 46  1  0
 43 42  2  0
 44 39  2  0
 44 43  1  0
 45 44  1  0
 47 48  1  0
 48 51  1  0
 48 50  1  0
 49 47  2  0
 52 27  1  0
 52 53  1  0
 54 52  1  0
 56 55  1  0
 57 59  1  0
 57 56  1  0
 58 69  2  0
 59 64  1  0
 60 68  1  0
 60 70  1  0
 61 67  1  0
 61 63  1  0
 62 68  1  0
 63 62  1  0
 64 63  2  0
 65 66  1  0
 65 59  2  0
 66 61  2  0
 67 60  1  0
 68 58  1  0
 70 72  2  0
 71 70  1  0
 73 71  1  0
 74 83  2  0
 74 79  1  0
 75 71  1  0
 75 79  1  0
 76 75  1  0
 77 78  1  0
 77 76  1  0
 78 74  1  0
 79 80  2  0
 80 81  1  0
 82 81  2  0
 83 82  1  0
 84 58  1  0
 84 85  1  0
 84 94  1  0
 85 88  1  0
 86 90  1  0
 86 85  1  0
 87 86  2  0
 90 89  1  0
 92 90  1  0
 92 93  1  0
 92 91  1  0
 94 97  1  1
 94 95  1  0
 96 94  1  0
M  ISO  4  17 100  25 100  56 101  57 101
M  END
>  <TORSDO>  (16) 
F 22

>  <SCORE>  (16) 
-10.057

>  <name>  (16) 
15

>  <ligand_id>  (16) 
15

>  <original_smiles>  (16) 
[H]c1c([H])c([H])c2c(c1[H])C([H])([H])C([H])([H])C([H])([H])C2([H])N([H])C(=O)C1([H])N(C(=O)C([H])(N([H])C(=O)C([H])(N([H])C([H])([H])[H])C([H])([H])[H])C(C([H])([H])[H])(C([H])([H])[H])C([H])([H])[H])C([H])([H])c2c([H])c(OC([H])([H])C([H])([H])C3([H])C([H])([H])C([H])(C([H])([H])C4([H])C([H])([H])C([H])([H])C([H])(C([H])([H])C([H])([H])N([H])C(=O)N5C([H])([H])C([H])([H])C([H])([H])C([H])(n6nc(-c7c([H])c([H])c(Oc8c([H])c([H])c(F)c([H])c8F)c([H])c7[H])c(C(=O)N([H])[H])c6N([H])[H])C5([H])[H])C([H])([H])C4([H])[H])C([H])([H])[N+]3([H])[H])c([H])c([H])c2C1([H])[H]

>  <smiles>  (16) 
[H]c1c([H])c([H])c2c(c1[H])C([H])([H])C([H])([H])C([H])([H])C2([H])N([H])C(=O)C1([H])N(C(=O)C([H])(N([H])C(=O)C([H])(N([H])C([H])([H])[H])C([H])([H])[H])C(C([H])([H])[H])(C([H])([H])[H])C([H])([H])[H])C([H])([H])c2c([H])c(OC([H])([H])C([H])([H])C3([H])C([H])([H])C([H])(C([H])([H])C4([H])C([H])([H])C([H])([H])C([H])(C([H])([H])C([H])([H])N([H])C(=O)N5C([H])([H])C([H])([H])C([H])([H])C([H])(n6nc(-c7c([H])c([H])c(Oc8c([H])c([H])c(F)c([H])c8F)c([H])c7[H])c(C(=O)N([H])[H])c6N([H])[H])C5([H])[H])C([H])([H])C4([H])[H])C([H])([H])[N+]3([H])[H])c([H])c([H])c2C1([H])[H]

$$$$
16:0:0
     RDKit          3D

 94103  0  0  1  0  0  0  0  0999 V2000
  -28.7530  -17.9940   20.1830 C   0  0  0  0  0  0  0  0  0  0  0  0
  -31.3650  -17.9810   20.0710 C   0  0  0  0  0  2  0  0  0  0  0  0
  -28.5810  -20.6850   20.5280 C   0  0  0  0  0  2  0  0  0  0  0  0
  -31.1200  -20.6930   19.9840 C   0  0  0  0  0  2  0  0  0  0  0  0
  -30.0440  -17.1900   19.7940 C   0  0  0  0  0  3  0  0  0  0  0  0
  -28.8560  -19.2580   21.1310 C   0  0  0  0  0  3  0  0  0  0  0  0
  -29.7130  -21.3430   19.6760 C   0  0  0  0  0  3  0  0  0  0  0  0
  -31.2340  -19.3550   20.8150 C   0  0  0  0  0  3  0  0  0  0  0  0
  -30.1590  -19.2550   21.8090 N   0  0  0  0  0  4  0  0  0  0  0  0
  -27.6560  -17.5910   19.7920 O   0  0  0  0  0  0  0  0  0  0  0  0
  -30.2680  -18.4140   22.3520 H   0  0  0  0  0  0  0  0  0  0  0  0
  -30.2060  -20.0340   22.4460 H   0  0  0  0  0  0  0  0  0  0  0  0
  -30.7500  -14.6740   19.8820 C   0  0  0  0  0  0  0  0  0  0  0  0
  -30.4770  -12.3950   18.9330 C   0  0  0  0  0  2  0  0  0  0  0  0
  -29.4650  -12.4770   17.7690 C   0  0  0  0  0  2  0  0  0  0  0  0
  -28.0210  -12.3360   18.2890 C   0  0  0  0  0  2  0  0  0  0  0  0
  -27.7340  -13.2480   19.5130 C   0  0  0  0  0  3  0  0  0  0  0  0
  -28.8570  -13.1400   20.5710 C   0  0  0  0  0  2  0  0  0  0  0  0
  -30.1310  -13.4510   19.9060 N   0  0  0  0  0  0  0  0  0  0  0  0
  -31.8590  -14.8220   19.3630 O   0  0  0  0  0  0  0  0  0  0  0  0
  -30.0020  -15.7510   20.2700 N   0  0  0  0  0  0  0  0  0  0  0  0
  -29.1270  -15.4880   20.7000 H   0  0  0  0  0  0  0  0  0  0  0  0
  -25.4140  -13.8790   20.4190 C   0  0  0  0  0  0  0  0  0  0  0  0
  -24.3580  -13.1190   20.8450 C   0  0  0  0  0  0  0  0  0  0  0  0
  -24.7840  -11.7590   20.7450 C   0  0  0  0  0  0  0  0  0  0  0  0
  -26.4180  -12.9830   20.0860 N   0  0  0  0  0  0  0  0  0  0  0  0
  -26.0480  -11.7000   20.3410 N   0  0  0  0  0  0  0  0  0  0  0  0
  -24.0430  -10.5080   20.9540 C   0  0  0  0  0  0  0  0  0  0  0  0
  -24.4990   -9.5200   21.8540 C   0  0  0  0  0  3  0  0  0  0  0  0
  -23.7590   -8.3360   22.0520 C   0  0  0  0  0  3  0  0  0  0  0  0
  -22.5470   -8.1290   21.3500 C   0  0  0  0  0  0  0  0  0  0  0  0
  -22.1090   -9.1050   20.4380 C   0  0  0  0  0  3  0  0  0  0  0  0
  -22.8500  -10.2820   20.2380 C   0  0  0  0  0  3  0  0  0  0  0  0
  -21.7740   -6.9980   21.4600 O   0  0  0  0  0  0  0  0  0  0  0  0
  -21.7390   -6.2600   22.6160 C   0  0  0  0  0  0  0  0  0  0  0  0
  -21.3200   -6.8180   23.8440 C   0  0  0  0  0  3  0  0  0  0  0  0
  -21.2330   -6.0050   24.9920 C   0  0  0  0  0  3  0  0  0  0  0  0
  -21.5530   -4.6360   24.9140 C   0  0  0  0  0  0  0  0  0  0  0  0
  -21.9660   -4.0790   23.6910 C   0  0  0  0  0  3  0  0  0  0  0  0
  -22.0550   -4.8880   22.5450 C   0  0  0  0  0  0  0  0  0  0  0  0
  -22.4320   -4.3410   21.3640 F   0  0  0  0  0  0  0  0  0  0  0  0
  -21.4620   -3.8550   26.0150 F   0  0  0  0  0  0  0  0  0  0  0  0
  -22.9970  -13.6190   21.2330 C   0  0  0  0  0  0  0  0  0  0  0  0
  -22.3180  -12.9170   22.1330 N   0  0  0  0  0  0  0  0  0  0  0  0
  -22.5460  -14.6670   20.7720 O   0  0  0  0  0  0  0  0  0  0  0  0
  -22.6980  -12.0680   22.5270 H   0  0  0  0  0  0  0  0  0  0  0  0
  -21.4080  -13.2330   22.4350 H   0  0  0  0  0  0  0  0  0  0  0  0
  -25.5940  -15.2510   20.2690 N   0  0  0  0  0  0  0  0  0  0  0  0
  -24.8390  -15.9040   20.4500 H   0  0  0  0  0  0  0  0  0  0  0  0
  -26.4160  -15.7070   19.8880 H   0  0  0  0  0  0  0  0  0  0  0  0
  -29.8050  -22.9520   19.7260 C   0  0  0  0  0  2  0  0  0  0  0  0
  -28.5600  -23.9120   19.4840 C   0  0  0  0  0  2  0  0  0  0  0  0
  -28.8130  -25.4140   18.9890 C   0  0  0  0  0  2  0  0  0  0  0  0
  -28.5980  -26.6060   19.8300 O   0  0  0  0  0  0  0  0  0  0  0  0
  -24.6390  -31.6570   23.0800 C   0  0  0  0  0  0  0  0  0  0  0  0
  -27.4180  -27.3630   19.8000 C   0  0  0  0  0  0  0  0  0  0  0  0
  -23.4830  -30.2950   21.3730 C   0  0  0  0  0  3  0  0  0  0  0  0
  -24.9860  -28.8670   19.8720 C   0  0  0  0  0  0  0  0  0  0  0  0
  -26.0050  -30.7180   21.2020 C   0  0  0  0  0  2  0  0  0  0  0  0
  -26.1320  -29.3760   20.4920 C   0  0  0  0  0  0  0  0  0  0  0  0
  -27.3460  -28.6320   20.4500 C   0  0  0  0  0  3  0  0  0  0  0  0
  -26.2420  -26.8910   19.1750 C   0  0  0  0  0  3  0  0  0  0  0  0
  -25.0410  -27.6290   19.2100 C   0  0  0  0  0  3  0  0  0  0  0  0
  -23.7170  -29.6920   19.9620 C   0  0  0  0  0  2  0  0  0  0  0  0
  -24.7270  -30.9060   21.9430 N   0  0  0  0  0  0  0  0  0  0  0  0
  -23.5480  -31.8700   23.6270 O   0  0  0  0  0  0  0  0  0  0  0  0
  -22.8600  -29.2120   22.2840 C   0  0  0  0  0  0  0  0  0  0  0  0
  -21.5370  -29.0110   22.1650 N   0  0  0  0  0  0  0  0  0  0  0  0
  -23.5640  -28.5580   23.0570 O   0  0  0  0  0  0  0  0  0  0  0  0
  -21.0260  -29.5930   21.5150 H   0  0  0  0  0  0  0  0  0  0  0  0
  -18.1920  -27.7240   22.6480 C   0  0  0  0  0  0  0  0  0  0  0  0
  -20.7500  -28.0150   22.8920 C   0  0  0  0  0  3  0  0  0  0  0  0
  -20.8680  -26.6220   22.2300 C   0  0  0  0  0  2  0  0  0  0  0  0
  -19.7540  -26.3400   21.2180 C   0  0  0  0  0  2  0  0  0  0  0  0
  -18.3810  -26.4200   21.8920 C   0  0  0  0  0  2  0  0  0  0  0  0
  -19.3040  -28.4800   23.1040 C   0  0  0  0  0  0  0  0  0  0  0  0
  -19.0720  -29.7020   23.7740 C   0  0  0  0  0  3  0  0  0  0  0  0
  -17.7610  -30.1670   23.9910 C   0  0  0  0  0  3  0  0  0  0  0  0
  -16.6640  -29.4070   23.5510 C   0  0  0  0  0  3  0  0  0  0  0  0
  -16.8800  -28.1870   22.8850 C   0  0  0  0  0  3  0  0  0  0  0  0
  -25.9000  -32.3020   23.7320 C   0  0  0  0  0  3  0  0  0  0  0  0
  -26.4290  -31.5050   24.9860 C   0  0  1  0  0  0  0  0  0  0  0  0
  -25.3370  -31.2100   26.0410 C   0  0  0  0  0  1  0  0  0  0  0  0
  -27.0430  -30.1530   24.5530 C   0  0  0  0  0  1  0  0  0  0  0  0
  -27.5600  -32.3020   25.6770 C   0  0  0  0  0  1  0  0  0  0  0  0
  -25.5520  -33.6800   24.1070 N   0  0  0  0  0  0  0  0  0  0  0  0
  -25.8460  -34.7660   23.3780 C   0  0  0  0  0  0  0  0  0  0  0  0
  -26.5090  -34.7140   22.3380 O   0  0  0  0  0  0  0  0  0  0  0  0
  -24.9590  -33.7920   24.9160 H   0  0  0  0  0  0  0  0  0  0  0  0
  -24.0540  -36.5090   23.1000 C   0  0  0  0  0  1  0  0  0  0  0  0
  -25.3210  -36.1230   23.8820 C   0  0  0  0  0  3  0  0  0  0  0  0
  -27.4330  -37.0610   24.7110 C   0  0  0  0  0  1  0  0  0  0  0  0
  -26.3160  -37.2130   23.7830 N   0  0  0  0  0  0  0  0  0  0  0  0
  -25.8800  -38.1150   23.9560 H   0  0  0  0  0  0  0  0  0  0  0  0
  1  6  1  0
  2  8  1  0
  5  2  1  0
  5  1  1  0
  5 21  1  0
  6  3  1  0
  6  9  1  0
  7 51  1  0
  7  4  1  0
  7  3  1  0
  8  4  1  0
  8  9  1  0
  9 11  1  0
  9 12  1  0
 10  1  2  0
 13 19  1  0
 13 21  1  0
 14 19  1  0
 15 16  1  0
 15 14  1  0
 17 16  1  0
 17 26  1  0
 17 18  1  0
 19 18  1  0
 20 13  2  0
 21 22  1  0
 23 24  2  0
 24 43  1  0
 25 24  1  0
 25 28  1  0
 26 27  1  0
 26 23  1  0
 27 25  2  0
 28 29  1  0
 29 30  2  0
 31 34  1  0
 31 30  1  0
 32 31  2  0
 33 32  1  0
 33 28  2  0
 34 35  1  0
 35 36  1  0
 36 37  2  0
 38 37  1  0
 38 42  1  0
 39 38  2  0
 40 35  2  0
 40 39  1  0
 41 40  1  0
 43 44  1  0
 44 47  1  0
 44 46  1  0
 45 43  2  0
 48 23  1  0
 48 49  1  0
 50 48  1  0
 52 51  1  0
 53 52  1  0
 53 54  1  0
 55 66  2  0
 56 54  1  0
 56 61  1  0
 57 65  1  0
 57 67  1  0
 58 64  1  0
 58 60  1  0
 59 65  1  0
 60 59  1  0
 61 60  2  0
 62 63  1  0
 62 56  2  0
 63 58  2  0
 64 57  1  0
 65 55  1  0
 67 69  2  0
 68 67  1  0
 70 68  1  0
 71 80  2  0
 71 76  1  0
 72 68  1  0
 72 76  1  0
 73 72  1  0
 74 75  1  0
 74 73  1  0
 75 71  1  0
 76 77  2  0
 77 78  1  0
 79 78  2  0
 80 79  1  0
 81 55  1  0
 81 86  1  0
 81 82  1  0
 82 85  1  1
 82 83  1  0
 84 82  1  0
 86 89  1  0
 87 91  1  0
 87 86  1  0
 88 87  2  0
 91 90  1  0
 93 91  1  0
 93 94  1  0
 93 92  1  0
M  ISO  4  13 100  21 100  53 101  54 101
M  END
>  <TORSDO>  (17) 
F 19

>  <SCORE>  (17) 
-13.562

>  <name>  (17) 
16

>  <ligand_id>  (17) 
16

>  <original_smiles>  (17) 
[H]c1c([H])c([H])c2c(c1[H])C([H])([H])C([H])([H])C([H])([H])C2([H])N([H])C(=O)C1([H])N(C(=O)C([H])(N([H])C(=O)C([H])(N([H])C([H])([H])[H])C([H])([H])[H])C(C([H])([H])[H])(C([H])([H])[H])C([H])([H])[H])C([H])([H])c2c([H])c(OC([H])([H])C([H])([H])C([H])([H])C3([H])C([H])([H])C4([H])C(=O)C([H])(N([H])C(=O)N5C([H])([H])C([H])([H])C([H])([H])C([H])(n6nc(-c7c([H])c([H])c(Oc8c([H])c([H])c(F)c([H])c8F)c([H])c7[H])c(C(=O)N([H])[H])c6N([H])[H])C5([H])[H])C([H])([H])C([H])(C3([H])[H])[N+]4([H])[H])c([H])c([H])c2C1([H])[H]

>  <smiles>  (17) 
[H]c1c([H])c([H])c2c(c1[H])C([H])([H])C([H])([H])C([H])([H])C2([H])N([H])C(=O)C1([H])N(C(=O)C([H])(N([H])C(=O)C([H])(N([H])C([H])([H])[H])C([H])([H])[H])C(C([H])([H])[H])(C([H])([H])[H])C([H])([H])[H])C([H])([H])c2c([H])c(OC([H])([H])C([H])([H])C([H])([H])C3([H])C([H])([H])C4([H])C(=O)C([H])(N([H])C(=O)N5C([H])([H])C([H])([H])C([H])([H])C([H])(n6nc(-c7c([H])c([H])c(Oc8c([H])c([H])c(F)c([H])c8F)c([H])c7[H])c(C(=O)N([H])[H])c6N([H])[H])C5([H])[H])C([H])([H])C([H])(C3([H])[H])[N+]4([H])[H])c([H])c([H])c2C1([H])[H]

$$$$
17:0:0
     RDKit          3D

 98108  0  0  1  0  0  0  0  0999 V2000
  -25.1510  -24.3370   22.5870 C   0  0  0  0  0  2  0  0  0  0  0  0
  -25.9900  -23.1190   22.1570 C   0  0  0  0  0  2  0  0  0  0  0  0
  -26.5950  -25.7480   21.1270 C   0  0  0  0  0  2  0  0  0  0  0  0
  -27.3690  -24.4780   20.6800 C   0  0  0  0  0  3  0  0  0  0  0  0
  -25.1620  -25.2130   21.3060 C   0  0  0  0  0  3  0  0  0  0  0  0
  -26.2560  -23.4230   20.6720 C   0  0  0  0  0  3  0  0  0  0  0  0
  -25.0410  -24.1600   20.2940 N   0  0  2  0  0  4  0  0  0  0  0  0
  -24.2420  -23.6100   20.5720 H   0  0  0  0  0  0  0  0  0  0  0  0
  -28.1020  -24.5230   19.3330 C   0  0  0  0  0  2  0  0  0  0  0  0
  -31.1860  -23.6670   17.7570 C   0  0  0  0  0  3  0  0  0  0  0  0
  -31.0070  -22.6010   18.5220 C   0  0  0  0  0  0  0  0  0  0  0  0
  -30.4270  -24.8530   18.2530 C   0  0  0  0  0  2  0  0  0  0  0  0
  -30.0840  -22.8470   19.6800 C   0  0  0  0  0  2  0  0  0  0  0  0
  -29.6320  -24.3190   19.4790 C   0  0  0  0  0  3  0  0  0  0  0  0
  -31.6320  -21.2600   18.2920 C   0  0  0  0  0  2  0  0  0  0  0  0
  -32.6840  -19.8100   19.9390 C   0  0  0  0  0  0  0  0  0  0  0  0
  -33.2690  -17.5200   20.5430 C   0  0  0  0  0  2  0  0  0  0  0  0
  -32.9540  -16.6340   19.3170 C   0  0  0  0  0  2  0  0  0  0  0  0
  -31.4840  -16.1710   19.3410 C   0  0  0  0  0  2  0  0  0  0  0  0
  -30.4940  -17.3460   19.5660 C   0  0  0  0  0  3  0  0  0  0  0  0
  -30.9460  -18.1920   20.7800 C   0  0  0  0  0  2  0  0  0  0  0  0
  -32.3300  -18.6460   20.5260 N   0  0  0  0  0  0  0  0  0  0  0  0
  -33.8370  -20.1200   19.6160 O   0  0  0  0  0  0  0  0  0  0  0  0
  -31.6340  -20.5300   19.5420 N   0  0  0  0  0  0  0  0  0  0  0  0
  -30.7390  -20.2940   19.9500 H   0  0  0  0  0  0  0  0  0  0  0  0
  -27.9230  -17.5480   19.5940 C   0  0  0  0  0  0  0  0  0  0  0  0
  -26.9340  -16.6070   19.7770 C   0  0  0  0  0  0  0  0  0  0  0  0
  -27.6070  -15.3710   19.9940 C   0  0  0  0  0  0  0  0  0  0  0  0
  -29.1220  -16.8620   19.7250 N   0  0  0  0  0  0  0  0  0  0  0  0
  -28.9210  -15.5510   20.0060 N   0  0  0  0  0  0  0  0  0  0  0  0
  -27.0810  -14.0060   20.1310 C   0  0  0  0  0  0  0  0  0  0  0  0
  -27.1030  -13.3310   21.3700 C   0  0  0  0  0  3  0  0  0  0  0  0
  -26.5750  -12.0270   21.4830 C   0  0  0  0  0  3  0  0  0  0  0  0
  -26.0170  -11.3870   20.3520 C   0  0  0  0  0  0  0  0  0  0  0  0
  -26.0210  -12.0540   19.1150 C   0  0  0  0  0  3  0  0  0  0  0  0
  -26.5520  -13.3500   19.0020 C   0  0  0  0  0  3  0  0  0  0  0  0
  -25.5050  -10.1110   20.3610 O   0  0  0  0  0  0  0  0  0  0  0  0
  -24.4640   -9.7600   21.1800 C   0  0  0  0  0  0  0  0  0  0  0  0
  -23.2310  -10.4460   21.1540 C   0  0  0  0  0  3  0  0  0  0  0  0
  -22.1640  -10.0100   21.9630 C   0  0  0  0  0  3  0  0  0  0  0  0
  -22.3240   -8.8830   22.7920 C   0  0  0  0  0  0  0  0  0  0  0  0
  -23.5500   -8.1940   22.8160 C   0  0  0  0  0  3  0  0  0  0  0  0
  -24.6160   -8.6310   22.0100 C   0  0  0  0  0  0  0  0  0  0  0  0
  -25.7880   -7.9510   22.0210 F   0  0  0  0  0  0  0  0  0  0  0  0
  -21.2970   -8.4560   23.5660 F   0  0  0  0  0  0  0  0  0  0  0  0
  -25.4570  -16.8380   19.6610 C   0  0  0  0  0  0  0  0  0  0  0  0
  -24.6620  -16.0660   20.4050 N   0  0  0  0  0  0  0  0  0  0  0  0
  -24.9960  -17.7210   18.9450 O   0  0  0  0  0  0  0  0  0  0  0  0
  -25.0440  -15.3550   21.0080 H   0  0  0  0  0  0  0  0  0  0  0  0
  -23.6620  -16.1980   20.3690 H   0  0  0  0  0  0  0  0  0  0  0  0
  -27.8990  -18.9080   19.3230 N   0  0  0  0  0  0  0  0  0  0  0  0
  -27.0400  -19.4170   19.1450 H   0  0  0  0  0  0  0  0  0  0  0  0
  -28.7290  -19.4650   19.1510 H   0  0  0  0  0  0  0  0  0  0  0  0
  -24.7750  -24.4490   18.8520 C   0  0  0  0  0  2  0  0  0  0  0  0
  -25.7080  -25.4010   18.0220 C   0  0  0  0  0  2  0  0  0  0  0  0
  -24.8310  -26.1620   17.0170 C   0  0  0  0  0  2  0  0  0  0  0  0
  -25.4360  -27.2970   16.1380 C   0  0  0  0  0  2  0  0  0  0  0  0
  -25.6880  -28.6220   16.6500 O   0  0  0  0  0  0  0  0  0  0  0  0
  -25.5640  -30.3880   23.4780 C   0  0  0  0  0  0  0  0  0  0  0  0
  -24.8910  -29.1710   17.6330 C   0  0  0  0  0  0  0  0  0  0  0  0
  -23.3630  -30.0960   22.4010 C   0  0  0  0  0  3  0  0  0  0  0  0
  -23.3780  -30.0090   19.8570 C   0  0  0  0  0  0  0  0  0  0  0  0
  -25.4030  -30.8530   21.0430 C   0  0  0  0  0  2  0  0  0  0  0  0
  -24.7620  -30.2080   19.8400 C   0  0  0  0  0  0  0  0  0  0  0  0
  -25.5340  -29.7900   18.7300 C   0  0  0  0  0  3  0  0  0  0  0  0
  -23.4790  -29.1070   17.6150 C   0  0  0  0  0  3  0  0  0  0  0  0
  -22.7270  -29.4570   18.7450 C   0  0  0  0  0  3  0  0  0  0  0  0
  -22.6240  -30.4420   21.0880 C   0  0  0  0  0  2  0  0  0  0  0  0
  -24.8270  -30.4240   22.3380 N   0  0  0  0  0  0  0  0  0  0  0  0
  -25.0500  -30.1230   24.5760 O   0  0  0  0  0  0  0  0  0  0  0  0
  -23.0710  -28.6200   22.7560 C   0  0  0  0  0  0  0  0  0  0  0  0
  -21.8240  -28.1850   22.4870 N   0  0  0  0  0  0  0  0  0  0  0  0
  -23.9430  -27.8940   23.2390 O   0  0  0  0  0  0  0  0  0  0  0  0
  -21.1690  -28.8320   22.0650 H   0  0  0  0  0  0  0  0  0  0  0  0
  -19.3580  -25.8000   21.4440 C   0  0  0  0  0  0  0  0  0  0  0  0
  -21.3260  -26.8330   22.7440 C   0  0  0  0  0  3  0  0  0  0  0  0
  -22.2020  -25.7750   22.0420 C   0  0  0  0  0  2  0  0  0  0  0  0
  -21.7470  -25.5080   20.6090 C   0  0  0  0  0  2  0  0  0  0  0  0
  -20.3080  -24.9900   20.5720 C   0  0  0  0  0  2  0  0  0  0  0  0
  -19.8350  -26.7040   22.4240 C   0  0  0  0  0  0  0  0  0  0  0  0
  -18.9140  -27.4940   23.1420 C   0  0  0  0  0  3  0  0  0  0  0  0
  -17.5330  -27.3960   22.8830 C   0  0  0  0  0  3  0  0  0  0  0  0
  -17.0560  -26.4890   21.9200 C   0  0  0  0  0  3  0  0  0  0  0  0
  -17.9670  -25.6730   21.2200 C   0  0  0  0  0  3  0  0  0  0  0  0
  -27.0860  -30.6950   23.4720 C   0  0  0  0  0  3  0  0  0  0  0  0
  -27.3410  -31.6670   24.5400 N   0  0  0  0  0  0  0  0  0  0  0  0
  -27.5620  -32.9760   24.3510 C   0  0  0  0  0  0  0  0  0  0  0  0
  -27.6450  -33.4810   23.2280 O   0  0  0  0  0  0  0  0  0  0  0  0
  -27.2370  -31.3310   25.4850 H   0  0  0  0  0  0  0  0  0  0  0  0
  -26.4200  -34.6350   25.8530 C   0  0  0  0  0  1  0  0  0  0  0  0
  -27.7230  -33.8580   25.6020 C   0  0  0  0  0  3  0  0  0  0  0  0
  -30.1600  -34.1520   25.5520 C   0  0  0  0  0  1  0  0  0  0  0  0
  -28.8550  -34.8060   25.5170 N   0  0  0  0  0  0  0  0  0  0  0  0
  -28.8170  -35.4830   26.2740 H   0  0  0  0  0  0  0  0  0  0  0  0
  -27.9780  -29.4070   23.6590 C   0  0  1  0  0  0  0  0  0  0  0  0
  -27.5220  -28.4970   24.8240 C   0  0  0  0  0  1  0  0  0  0  0  0
  -27.9840  -28.5550   22.3690 C   0  0  0  0  0  1  0  0  0  0  0  0
  -29.4430  -29.8290   23.9220 C   0  0  0  0  0  1  0  0  0  0  0  0
  2  1  1  0
  4  9  1  0
  4  3  1  0
  5  3  1  0
  5  1  1  0
  6  4  1  0
  6  2  1  0
  7  8  1  1
  7  6  1  0
  7  5  1  0
 10 12  1  0
 10 11  2  0
 11 13  1  0
 12 14  1  0
 14  9  1  0
 14 13  1  0
 15 11  1  0
 15 24  1  0
 16 22  1  0
 18 19  1  0
 18 17  1  0
 20 19  1  0
 20 29  1  0
 20 21  1  0
 22 17  1  0
 22 21  1  0
 23 16  2  0
 24 16  1  0
 24 25  1  0
 26 29  1  0
 26 27  2  0
 27 28  1  0
 28 30  2  0
 28 31  1  0
 29 30  1  0
 31 32  1  0
 32 33  2  0
 34 37  1  0
 34 33  1  0
 35 34  2  0
 36 35  1  0
 36 31  2  0
 37 38  1  0
 38 43  1  0
 39 38  2  0
 39 40  1  0
 40 41  2  0
 41 42  1  0
 41 45  1  0
 43 44  1  0
 43 42  2  0
 46 27  1  0
 46 47  1  0
 47 49  1  0
 48 46  2  0
 50 47  1  0
 51 26  1  0
 52 51  1  0
 53 51  1  0
 54  7  1  0
 55 54  1  0
 56 55  1  0
 57 58  1  0
 57 56  1  0
 58 60  1  0
 59 70  2  0
 60 65  1  0
 61 71  1  0
 62 68  1  0
 63 69  1  0
 64 62  1  0
 64 63  1  0
 65 64  2  0
 66 60  2  0
 66 67  1  0
 67 62  2  0
 68 61  1  0
 69 61  1  0
 69 59  1  0
 71 73  2  0
 72 71  1  0
 74 72  1  0
 75 80  1  0
 76 72  1  0
 77 76  1  0
 78 77  1  0
 79 78  1  0
 79 75  1  0
 80 76  1  0
 80 81  2  0
 82 81  1  0
 83 82  2  0
 84 75  2  0
 84 83  1  0
 85 59  1  0
 85 95  1  0
 85 86  1  0
 86 89  1  0
 87 86  1  0
 87 91  1  0
 88 87  2  0
 91 90  1  0
 93 92  1  0
 93 91  1  0
 93 94  1  0
 95 98  1  1
 95 96  1  0
 97 95  1  0
M  ISO  4  16 100  24 100  57 101  58 101
M  END
>  <TORSDO>  (18) 
F 23

>  <SCORE>  (18) 
-3.806

>  <name>  (18) 
17

>  <ligand_id>  (18) 
17

>  <original_smiles>  (18) 
[H]C1=C(C([H])([H])N([H])C(=O)N2C([H])([H])C([H])([H])C([H])([H])C([H])(n3nc(-c4c([H])c([H])c(Oc5c([H])c([H])c(F)c([H])c5F)c([H])c4[H])c(C(=O)N([H])[H])c3N([H])[H])C2([H])[H])C([H])([H])C([H])(C([H])([H])C2([H])C([H])([H])C3([H])C([H])([H])C([H])([H])C2([H])[N+]3([H])C([H])([H])C([H])([H])C([H])([H])C([H])([H])Oc2c([H])c([H])c3c(c2[H])C([H])([H])N(C(=O)C([H])(N([H])C(=O)C([H])(N([H])C([H])([H])[H])C([H])([H])[H])C(C([H])([H])[H])(C([H])([H])[H])C([H])([H])[H])C([H])(C(=O)N([H])C2([H])c4c([H])c([H])c([H])c([H])c4C([H])([H])C([H])([H])C2([H])[H])C3([H])[H])C1([H])[H]

>  <smiles>  (18) 
[H]C1=C(C([H])([H])N([H])C(=O)N2C([H])([H])C([H])([H])C([H])([H])C([H])(n3nc(-c4c([H])c([H])c(Oc5c([H])c([H])c(F)c([H])c5F)c([H])c4[H])c(C(=O)N([H])[H])c3N([H])[H])C2([H])[H])C([H])([H])C([H])(C([H])([H])C2([H])C([H])([H])C3([H])C([H])([H])C([H])([H])C2([H])[N+]3([H])C([H])([H])C([H])([H])C([H])([H])C([H])([H])Oc2c([H])c([H])c3c(c2[H])C([H])([H])N(C(=O)C([H])(N([H])C(=O)C([H])(N([H])C([H])([H])[H])C([H])([H])[H])C(C([H])([H])[H])(C([H])([H])[H])C([H])([H])[H])C([H])(C(=O)N([H])C2([H])c4c([H])c([H])c([H])c([H])c4C([H])([H])C([H])([H])C2([H])[H])C3([H])[H])C1([H])[H]

$$$$
18:0:0
     RDKit          3D

 91 99  0  0  1  0  0  0  0  0999 V2000
  -23.3720  -24.1710   20.8130 C   0  0  0  0  0  3  0  0  0  0  0  0
  -22.3690  -25.1640   21.6260 C   0  0  0  0  0  2  0  0  0  0  0  0
  -22.1570  -26.3450   20.6300 C   0  0  0  0  0  2  0  0  0  0  0  0
  -23.1690  -26.0880   19.5860 C   0  0  0  0  0  3  0  0  0  0  0  0
  -23.4700  -24.5660   19.6310 N   0  0  0  0  0  2  0  0  0  0  0  0
  -24.3170  -23.1180   21.5610 C   0  0  0  0  0  2  0  0  0  0  0  0
  -24.8670  -21.7430   20.7990 C   0  0  0  0  0  2  0  0  0  0  0  0
  -26.4680  -21.3100   20.2150 C   0  0  0  0  0  2  0  0  0  0  0  0
  -27.7840  -20.1370   20.6010 C   0  0  0  0  0  3  0  0  0  0  0  0
  -28.9700  -19.1180   19.5480 C   0  0  0  0  0  3  0  0  0  0  0  0
  -31.2230  -16.7900   19.1180 C   0  0  0  0  0  0  0  0  0  0  0  0
  -31.9620  -14.2790   18.3940 C   0  0  0  0  0  2  0  0  0  0  0  0
  -30.9310  -13.6010   17.4620 C   0  0  0  0  0  2  0  0  0  0  0  0
  -29.6070  -13.2190   18.1570 C   0  0  0  0  0  2  0  0  0  0  0  0
  -29.1920  -14.3420   19.1260 C   0  0  0  0  0  3  0  0  0  0  0  0
  -30.3070  -14.6990   20.0760 C   0  0  0  0  0  2  0  0  0  0  0  0
  -31.2420  -15.3700   19.2410 N   0  0  0  0  0  0  0  0  0  0  0  0
  -32.2580  -17.0980   18.4800 O   0  0  0  0  0  0  0  0  0  0  0  0
  -30.0550  -17.6770   19.7140 N   0  0  0  0  0  0  0  0  0  0  0  0
  -29.8190  -17.0850   20.5290 H   0  0  0  0  0  0  0  0  0  0  0  0
  -27.2360  -14.9700   20.5790 C   0  0  0  0  0  0  0  0  0  0  0  0
  -26.1910  -14.2330   21.0750 C   0  0  0  0  0  0  0  0  0  0  0  0
  -26.4160  -12.8980   20.6260 C   0  0  0  0  0  0  0  0  0  0  0  0
  -28.0120  -14.0630   19.8770 N   0  0  0  0  0  0  0  0  0  0  0  0
  -27.5530  -12.7990   19.9520 N   0  0  0  0  0  0  0  0  0  0  0  0
  -25.5760  -11.7130   20.7390 C   0  0  0  0  0  0  0  0  0  0  0  0
  -25.9380  -10.6320   21.5660 C   0  0  0  0  0  3  0  0  0  0  0  0
  -25.0970   -9.5020   21.6520 C   0  0  0  0  0  3  0  0  0  0  0  0
  -23.8940   -9.4640   20.9080 C   0  0  0  0  0  0  0  0  0  0  0  0
  -23.5590  -10.5350   20.0670 C   0  0  0  0  0  3  0  0  0  0  0  0
  -24.3990  -11.6560   19.9760 C   0  0  0  0  0  3  0  0  0  0  0  0
  -23.0250   -8.3990   20.9140 O   0  0  0  0  0  0  0  0  0  0  0  0
  -22.6860   -7.7680   22.0810 C   0  0  0  0  0  0  0  0  0  0  0  0
  -22.0850   -8.4590   23.1560 C   0  0  0  0  0  3  0  0  0  0  0  0
  -21.6910   -7.7540   24.3100 C   0  0  0  0  0  3  0  0  0  0  0  0
  -21.8870   -6.3610   24.3850 C   0  0  0  0  0  0  0  0  0  0  0  0
  -22.4840   -5.6730   23.3130 C   0  0  0  0  0  3  0  0  0  0  0  0
  -22.8810   -6.3770   22.1630 C   0  0  0  0  0  0  0  0  0  0  0  0
  -23.4400   -5.7100   21.1240 F   0  0  0  0  0  0  0  0  0  0  0  0
  -21.4950   -5.6800   25.4870 F   0  0  0  0  0  0  0  0  0  0  0  0
  -25.0260  -14.7840   21.8410 C   0  0  0  0  0  0  0  0  0  0  0  0
  -24.4490  -13.9710   22.7330 N   0  0  0  0  0  0  0  0  0  0  0  0
  -24.6520  -15.9410   21.7090 O   0  0  0  0  0  0  0  0  0  0  0  0
  -24.7720  -13.0280   22.8590 H   0  0  0  0  0  0  0  0  0  0  0  0
  -23.6840  -14.3060   23.2900 H   0  0  0  0  0  0  0  0  0  0  0  0
  -27.5520  -16.3020   20.6390 N   0  0  0  0  0  0  0  0  0  0  0  0
  -26.9530  -16.9750   21.0930 H   0  0  0  0  0  0  0  0  0  0  0  0
  -28.3640  -16.7200   20.1900 H   0  0  0  0  0  0  0  0  0  0  0  0
  -24.3410  -27.1020   19.5650 C   0  0  0  0  0  3  0  0  0  0  0  0
  -25.8520  -26.5220   19.5520 C   0  0  0  0  0  3  0  0  0  0  0  0
  -27.1950  -27.2030   19.6730 O   0  0  0  0  0  0  0  0  0  0  0  0
  -24.7440  -32.0960   23.5120 C   0  0  0  0  0  0  0  0  0  0  0  0
  -27.2490  -28.5240   19.4250 C   0  0  0  0  0  0  0  0  0  0  0  0
  -23.5730  -31.0570   21.5910 C   0  0  0  0  0  3  0  0  0  0  0  0
  -25.1220  -30.2260   19.6930 C   0  0  0  0  0  0  0  0  0  0  0  0
  -26.1150  -31.4440   21.5920 C   0  0  0  0  0  2  0  0  0  0  0  0
  -26.2080  -30.3540   20.5720 C   0  0  0  0  0  0  0  0  0  0  0  0
  -27.3000  -29.4760   20.4680 C   0  0  0  0  0  3  0  0  0  0  0  0
  -26.4520  -28.7340   18.3190 C   0  0  0  0  0  3  0  0  0  0  0  0
  -25.3370  -29.5560   18.4820 C   0  0  0  0  0  3  0  0  0  0  0  0
  -23.8120  -30.8670   20.0600 C   0  0  0  0  0  2  0  0  0  0  0  0
  -24.8220  -31.5250   22.2820 N   0  0  0  0  0  0  0  0  0  0  0  0
  -23.6440  -32.2470   24.0660 O   0  0  0  0  0  0  0  0  0  0  0  0
  -22.9180  -29.8000   22.2790 C   0  0  0  0  0  0  0  0  0  0  0  0
  -21.5690  -29.7250   22.2820 N   0  0  0  0  0  0  0  0  0  0  0  0
  -23.6210  -28.9620   22.8410 O   0  0  0  0  0  0  0  0  0  0  0  0
  -21.1400  -30.6100   22.0080 H   0  0  0  0  0  0  0  0  0  0  0  0
  -18.1140  -28.5290   22.4660 C   0  0  0  0  0  0  0  0  0  0  0  0
  -20.6650  -28.7060   22.9050 C   0  0  0  0  0  3  0  0  0  0  0  0
  -20.6700  -27.3440   22.3780 C   0  0  0  0  0  2  0  0  0  0  0  0
  -19.4880  -26.7830   21.4310 C   0  0  0  0  0  2  0  0  0  0  0  0
  -18.1820  -27.3680   21.5620 C   0  0  0  0  0  2  0  0  0  0  0  0
  -19.2610  -29.1510   23.0960 C   0  0  0  0  0  0  0  0  0  0  0  0
  -18.9990  -30.2090   23.9540 C   0  0  0  0  0  3  0  0  0  0  0  0
  -17.7110  -30.6600   24.1770 C   0  0  0  0  0  3  0  0  0  0  0  0
  -16.5820  -30.0360   23.5380 C   0  0  0  0  0  3  0  0  0  0  0  0
  -16.8110  -28.9690   22.6670 C   0  0  0  0  0  3  0  0  0  0  0  0
  -26.0130  -32.6060   24.2460 C   0  0  0  0  0  3  0  0  0  0  0  0
  -25.7200  -33.9610   24.7450 N   0  0  0  0  0  0  0  0  0  0  0  0
  -26.1460  -35.0930   24.1710 C   0  0  0  0  0  0  0  0  0  0  0  0
  -26.9120  -35.1080   23.2040 O   0  0  0  0  0  0  0  0  0  0  0  0
  -25.0820  -34.0310   25.5240 H   0  0  0  0  0  0  0  0  0  0  0  0
  -24.5270  -37.0000   23.8830 C   0  0  0  0  0  1  0  0  0  0  0  0
  -25.6440  -36.4250   24.7700 C   0  0  0  0  0  3  0  0  0  0  0  0
  -27.6930  -37.0560   25.9650 C   0  0  0  0  0  1  0  0  0  0  0  0
  -26.7120  -37.4320   24.9490 N   0  0  0  0  0  0  0  0  0  0  0  0
  -26.3170  -38.3320   25.2110 H   0  0  0  0  0  0  0  0  0  0  0  0
  -26.4570  -31.6620   25.4300 C   0  0  1  0  0  0  0  0  0  0  0  0
  -25.2960  -31.3010   26.3850 C   0  0  0  0  0  1  0  0  0  0  0  0
  -27.0510  -30.3360   24.9000 C   0  0  0  0  0  1  0  0  0  0  0  0
  -27.5750  -32.3360   26.2610 C   0  0  0  0  0  1  0  0  0  0  0  0
  1  6  1  0
  1  2  1  0
  3  2  1  0
  4 49  1  0
  4  5  1  0
  4  3  1  0
  5  1  1  0
  7  6  1  0
  8  9  1  0
  8  7  1  0
 10 19  1  0
 10  9  2  0
 11 17  1  0
 11 19  1  0
 12 17  1  0
 13 14  1  0
 13 12  1  0
 15 14  1  0
 15 24  1  0
 15 16  1  0
 17 16  1  0
 18 11  2  0
 19 20  1  0
 21 46  1  0
 21 22  2  0
 22 41  1  0
 23 26  1  0
 23 22  1  0
 24 25  1  0
 24 21  1  0
 25 23  2  0
 26 27  1  0
 27 28  2  0
 29 32  1  0
 29 28  1  0
 30 29  2  0
 31 30  1  0
 31 26  2  0
 32 33  1  0
 33 38  2  0
 33 34  1  0
 34 35  2  0
 35 36  1  0
 36 40  1  0
 37 36  2  0
 38 37  1  0
 39 38  1  0
 41 42  1  0
 42 44  1  0
 42 45  1  0
 43 41  2  0
 46 47  1  0
 48 46  1  0
 50 49  2  0
 50 51  1  0
 52 63  2  0
 53 51  1  0
 53 58  1  0
 54 64  1  0
 54 62  1  0
 55 61  1  0
 55 57  1  0
 56 62  1  0
 57 56  1  0
 58 57  2  0
 59 60  1  0
 59 53  2  0
 60 55  2  0
 61 54  1  0
 62 52  1  0
 64 65  1  0
 64 66  2  0
 67 65  1  0
 68 77  2  0
 68 73  1  0
 69 65  1  0
 69 73  1  0
 70 69  1  0
 71 72  1  0
 71 70  1  0
 72 68  1  0
 73 74  2  0
 74 75  1  0
 76 75  2  0
 77 76  1  0
 78 52  1  0
 78 79  1  0
 78 88  1  0
 79 82  1  0
 80 79  1  0
 80 84  1  0
 81 80  2  0
 84 83  1  0
 84 86  1  0
 86 87  1  0
 86 85  1  0
 88 91  1  1
 88 89  1  0
 90 88  1  0
M  ISO  4  11 100  19 100  50 101  51 101
M  END
>  <TORSDO>  (19) 
F 23

>  <SCORE>  (19) 
-1.088

>  <name>  (19) 
18

>  <ligand_id>  (19) 
18

>  <original_smiles>  (19) 
[H]c1c([H])c([H])c2c(c1[H])C([H])([H])C([H])([H])C([H])([H])C2([H])N([H])C(=O)C1([H])N(C(=O)C([H])(N([H])C(=O)C([H])(N([H])C([H])([H])[H])C([H])([H])[H])C(C([H])([H])[H])(C([H])([H])[H])C([H])([H])[H])C([H])([H])c2c([H])c(OC([H])([H])C([H])([H])C3([H])N=C(C([H])([H])C([H])([H])C([H])([H])C([H])([H])C([H])([H])N([H])C(=O)N4C([H])([H])C([H])([H])C([H])([H])C([H])(n5nc(-c6c([H])c([H])c(Oc7c([H])c([H])c(F)c([H])c7F)c([H])c6[H])c(C(=O)N([H])[H])c5N([H])[H])C4([H])[H])C([H])([H])C3([H])[H])c([H])c([H])c2C1([H])[H]

>  <smiles>  (19) 
[H]c1c([H])c([H])c2c(c1[H])C([H])([H])C([H])([H])C([H])([H])C2([H])N([H])C(=O)C1([H])N(C(=O)C([H])(N([H])C(=O)C([H])(N([H])C([H])([H])[H])C([H])([H])[H])C(C([H])([H])[H])(C([H])([H])[H])C([H])([H])[H])C([H])([H])c2c([H])c(OC([H])([H])C([H])([H])C3([H])N=C(C([H])([H])C([H])([H])C([H])([H])C([H])([H])C([H])([H])N([H])C(=O)N4C([H])([H])C([H])([H])C([H])([H])C([H])(n5nc(-c6c([H])c([H])c(Oc7c([H])c([H])c(F)c([H])c7F)c([H])c6[H])c(C(=O)N([H])[H])c5N([H])[H])C4([H])[H])C([H])([H])C3([H])[H])c([H])c([H])c2C1([H])[H]

$$$$
19:0:0
     RDKit          3D

 94102  0  0  1  0  0  0  0  0999 V2000
  -29.6420  -22.3370   19.4550 N   0  0  0  0  0  4  0  0  0  0  0  0
  -29.1490  -22.4370   20.3270 H   0  0  0  0  0  0  0  0  0  0  0  0
  -29.0850  -21.7630   18.8440 H   0  0  0  0  0  0  0  0  0  0  0  0
  -30.9240  -21.6500   19.7150 C   0  0  0  0  0  2  0  0  0  0  0  0
  -29.8050  -17.9990   20.7060 C   0  0  0  0  0  2  0  0  0  0  0  0
  -32.0050  -18.5370   21.8190 C   0  0  0  0  0  2  0  0  0  0  0  0
  -29.9330  -19.2700   19.8440 C   0  0  0  0  0  2  0  0  0  0  0  0
  -32.1320  -19.8040   20.9610 C   0  0  0  0  0  2  0  0  0  0  0  0
  -31.1890  -17.4470   21.1050 C   0  0  0  0  0  3  0  0  0  0  0  0
  -30.7540  -20.3670   20.5600 C   0  0  0  0  0  3  0  0  0  0  0  0
  -31.1080  -16.1750   21.9780 C   0  0  0  0  0  2  0  0  0  0  0  0
  -30.7240  -14.3600   20.3060 C   0  0  0  0  0  0  0  0  0  0  0  0
  -30.2600  -12.3590   18.9410 C   0  0  0  0  0  2  0  0  0  0  0  0
  -29.2640  -12.6580   17.8050 C   0  0  0  0  0  2  0  0  0  0  0  0
  -27.8140  -12.5100   18.3010 C   0  0  0  0  0  2  0  0  0  0  0  0
  -27.5550  -13.2820   19.6200 C   0  0  0  0  0  3  0  0  0  0  0  0
  -28.6500  -12.9670   20.6620 C   0  0  0  0  0  2  0  0  0  0  0  0
  -29.9650  -13.2620   20.0620 N   0  0  0  0  0  0  0  0  0  0  0  0
  -31.7190  -14.6570   19.6380 O   0  0  0  0  0  0  0  0  0  0  0  0
  -30.3570  -15.0770   21.3730 N   0  0  0  0  0  0  0  0  0  0  0  0
  -29.5350  -14.7590   21.8640 H   0  0  0  0  0  0  0  0  0  0  0  0
  -25.1800  -13.8860   20.4120 C   0  0  0  0  0  0  0  0  0  0  0  0
  -24.1260  -13.1110   20.8170 C   0  0  0  0  0  0  0  0  0  0  0  0
  -24.5880  -11.7600   20.7640 C   0  0  0  0  0  0  0  0  0  0  0  0
  -26.2180  -13.0070   20.1430 N   0  0  0  0  0  0  0  0  0  0  0  0
  -25.8650  -11.7230   20.4090 N   0  0  0  0  0  0  0  0  0  0  0  0
  -23.8710  -10.4950   20.9770 C   0  0  0  0  0  0  0  0  0  0  0  0
  -24.3350   -9.5290   21.8960 C   0  0  0  0  0  3  0  0  0  0  0  0
  -23.6190   -8.3290   22.0950 C   0  0  0  0  0  3  0  0  0  0  0  0
  -22.4250   -8.0870   21.3750 C   0  0  0  0  0  0  0  0  0  0  0  0
  -21.9790   -9.0430   20.4460 C   0  0  0  0  0  3  0  0  0  0  0  0
  -22.6960  -10.2340   20.2440 C   0  0  0  0  0  3  0  0  0  0  0  0
  -21.6780   -6.9400   21.4850 O   0  0  0  0  0  0  0  0  0  0  0  0
  -21.6660   -6.1950   22.6370 C   0  0  0  0  0  0  0  0  0  0  0  0
  -21.2860   -6.7490   23.8790 C   0  0  0  0  0  3  0  0  0  0  0  0
  -21.2220   -5.9310   25.0240 C   0  0  0  0  0  3  0  0  0  0  0  0
  -21.5280   -4.5610   24.9300 C   0  0  0  0  0  0  0  0  0  0  0  0
  -21.9010   -4.0060   23.6930 C   0  0  0  0  0  3  0  0  0  0  0  0
  -21.9670   -4.8200   22.5490 C   0  0  0  0  0  0  0  0  0  0  0  0
  -22.3060   -4.2770   21.3560 F   0  0  0  0  0  0  0  0  0  0  0  0
  -21.4580   -3.7720   26.0280 F   0  0  0  0  0  0  0  0  0  0  0  0
  -22.7400  -13.5850   21.1430 C   0  0  0  0  0  0  0  0  0  0  0  0
  -22.0440  -12.8820   22.0300 N   0  0  0  0  0  0  0  0  0  0  0  0
  -22.2820  -14.6140   20.6470 O   0  0  0  0  0  0  0  0  0  0  0  0
  -22.4270  -12.0490   22.4530 H   0  0  0  0  0  0  0  0  0  0  0  0
  -21.1150  -13.1820   22.2920 H   0  0  0  0  0  0  0  0  0  0  0  0
  -25.3370  -15.2580   20.2340 N   0  0  0  0  0  0  0  0  0  0  0  0
  -24.5790  -15.9150   20.3780 H   0  0  0  0  0  0  0  0  0  0  0  0
  -26.1850  -15.6970   19.8950 H   0  0  0  0  0  0  0  0  0  0  0  0
  -29.7950  -23.6760   18.8470 C   0  0  0  0  0  2  0  0  0  0  0  0
  -28.4340  -24.3120   18.5140 C   0  0  0  0  0  2  0  0  0  0  0  0
  -28.5330  -25.7290   17.9140 C   0  0  0  0  0  2  0  0  0  0  0  0
  -29.0250  -26.8090   18.8980 C   0  0  0  0  0  2  0  0  0  0  0  0
  -28.3140  -26.7970   20.1340 O   0  0  0  0  0  0  0  0  0  0  0  0
  -24.5440  -31.9530   23.2540 C   0  0  0  0  0  0  0  0  0  0  0  0
  -27.1480  -27.5200   20.1510 C   0  0  0  0  0  0  0  0  0  0  0  0
  -23.3170  -30.5530   21.6230 C   0  0  0  0  0  3  0  0  0  0  0  0
  -24.7520  -29.0040   20.1960 C   0  0  0  0  0  0  0  0  0  0  0  0
  -25.8410  -30.9040   21.4050 C   0  0  0  0  0  2  0  0  0  0  0  0
  -25.9150  -29.5330   20.7720 C   0  0  0  0  0  0  0  0  0  0  0  0
  -27.1160  -28.7930   20.7560 C   0  0  0  0  0  3  0  0  0  0  0  0
  -25.9660  -26.9840   19.6000 C   0  0  0  0  0  3  0  0  0  0  0  0
  -24.7700  -27.7240   19.6140 C   0  0  0  0  0  3  0  0  0  0  0  0
  -23.5120  -29.8660   20.2450 C   0  0  0  0  0  2  0  0  0  0  0  0
  -24.5850  -31.1510   22.1530 N   0  0  0  0  0  0  0  0  0  0  0  0
  -23.4680  -32.2330   23.8010 O   0  0  0  0  0  0  0  0  0  0  0  0
  -22.6670  -29.5400   22.5900 C   0  0  0  0  0  0  0  0  0  0  0  0
  -21.3410  -29.3630   22.4680 N   0  0  0  0  0  0  0  0  0  0  0  0
  -23.3510  -28.9130   23.4030 O   0  0  0  0  0  0  0  0  0  0  0  0
  -20.8510  -29.9190   21.7820 H   0  0  0  0  0  0  0  0  0  0  0  0
  -17.9650  -28.1860   22.9760 C   0  0  0  0  0  0  0  0  0  0  0  0
  -20.5230  -28.4320   23.2450 C   0  0  0  0  0  3  0  0  0  0  0  0
  -20.6190  -26.9980   22.6760 C   0  0  0  0  0  2  0  0  0  0  0  0
  -19.5140  -26.6750   21.6650 C   0  0  0  0  0  2  0  0  0  0  0  0
  -18.1340  -26.8310   22.3090 C   0  0  0  0  0  2  0  0  0  0  0  0
  -19.0870  -28.9450   23.4010 C   0  0  0  0  0  0  0  0  0  0  0  0
  -18.8760  -30.2140   23.9830 C   0  0  0  0  0  3  0  0  0  0  0  0
  -17.5740  -30.7240   24.1440 C   0  0  0  0  0  3  0  0  0  0  0  0
  -16.4650  -29.9610   23.7380 C   0  0  0  0  0  3  0  0  0  0  0  0
  -16.6620  -28.6950   23.1590 C   0  0  0  0  0  3  0  0  0  0  0  0
  -25.8380  -32.5750   23.8620 C   0  0  0  0  0  3  0  0  0  0  0  0
  -25.5440  -33.9760   24.1900 N   0  0  0  0  0  0  0  0  0  0  0  0
  -25.8840  -35.0220   23.4250 C   0  0  0  0  0  0  0  0  0  0  0  0
  -26.5530  -34.9100   22.3930 O   0  0  0  0  0  0  0  0  0  0  0  0
  -24.9530  -34.1390   24.9920 H   0  0  0  0  0  0  0  0  0  0  0  0
  -24.1740  -36.8300   23.0590 C   0  0  0  0  0  1  0  0  0  0  0  0
  -25.4090  -36.4160   23.8760 C   0  0  0  0  0  3  0  0  0  0  0  0
  -27.5490  -37.2810   24.7110 C   0  0  0  0  0  1  0  0  0  0  0  0
  -26.4510  -37.4590   23.7650 N   0  0  0  0  0  0  0  0  0  0  0  0
  -26.0540  -38.3830   23.9100 H   0  0  0  0  0  0  0  0  0  0  0  0
  -26.3630  -31.8030   25.1350 C   0  0  1  0  0  0  0  0  0  0  0  0
  -25.2790  -31.5710   26.2130 C   0  0  0  0  0  1  0  0  0  0  0  0
  -26.9340  -30.4220   24.7370 C   0  0  0  0  0  1  0  0  0  0  0  0
  -27.5250  -32.5900   25.7860 C   0  0  0  0  0  1  0  0  0  0  0  0
  1  4  1  0
  1  2  1  0
  3  1  1  0
  5  9  1  0
  7 10  1  0
  7  5  1  0
  8  6  1  0
  9  6  1  0
  9 11  1  0
 10  4  1  0
 10  8  1  0
 12 20  1  0
 13 18  1  0
 14 15  1  0
 14 13  1  0
 16 15  1  0
 16 25  1  0
 16 17  1  0
 18 12  1  0
 18 17  1  0
 19 12  2  0
 20 21  1  0
 20 11  1  0
 22 23  2  0
 23 42  1  0
 24 23  1  0
 24 27  1  0
 25 26  1  0
 25 22  1  0
 26 24  2  0
 27 28  1  0
 28 29  2  0
 30 33  1  0
 30 29  1  0
 31 30  2  0
 32 31  1  0
 32 27  2  0
 33 34  1  0
 34 35  1  0
 35 36  2  0
 37 36  1  0
 37 41  1  0
 38 37  2  0
 39 34  2  0
 39 38  1  0
 40 39  1  0
 42 43  1  0
 43 46  1  0
 43 45  1  0
 44 42  2  0
 47 48  1  0
 47 22  1  0
 49 47  1  0
 50  1  1  0
 51 50  1  0
 52 51  1  0
 52 53  1  0
 53 54  1  0
 54 56  1  0
 55 66  2  0
 56 61  1  0
 57 65  1  0
 57 67  1  0
 58 64  1  0
 58 60  1  0
 59 65  1  0
 60 59  1  0
 61 60  2  0
 62 63  1  0
 62 56  2  0
 63 58  2  0
 64 57  1  0
 65 55  1  0
 67 69  2  0
 68 67  1  0
 70 68  1  0
 71 80  2  0
 71 76  1  0
 72 68  1  0
 72 76  1  0
 73 72  1  0
 74 75  1  0
 74 73  1  0
 75 71  1  0
 76 77  2  0
 77 78  1  0
 79 78  2  0
 80 79  1  0
 81 55  1  0
 81 82  1  0
 81 91  1  0
 82 85  1  0
 83 87  1  0
 83 82  1  0
 84 83  2  0
 87 86  1  0
 89 87  1  0
 89 90  1  0
 89 88  1  0
 91 94  1  1
 91 92  1  0
 93 91  1  0
M  ISO  4  12 100  20 100  53 101  54 101
M  END
>  <TORSDO>  (20) 
F 23

>  <SCORE>  (20) 
-12.665

>  <name>  (20) 
19

>  <ligand_id>  (20) 
19

>  <original_smiles>  (20) 
[H]c1c([H])c([H])c2c(c1[H])C([H])([H])C([H])([H])C([H])([H])C2([H])N([H])C(=O)C1([H])N(C(=O)C([H])(N([H])C(=O)C([H])(N([H])C([H])([H])[H])C([H])([H])[H])C(C([H])([H])[H])(C([H])([H])[H])C([H])([H])[H])C([H])([H])c2c([H])c(OC([H])([H])C([H])([H])C([H])([H])C([H])([H])[N+]([H])([H])C([H])([H])C3([H])C([H])([H])C([H])([H])C([H])(C([H])([H])N([H])C(=O)N4C([H])([H])C([H])([H])C([H])([H])C([H])(n5nc(-c6c([H])c([H])c(Oc7c([H])c([H])c(F)c([H])c7F)c([H])c6[H])c(C(=O)N([H])[H])c5N([H])[H])C4([H])[H])C([H])([H])C3([H])[H])c([H])c([H])c2C1([H])[H]

>  <smiles>  (20) 
[H]c1c([H])c([H])c2c(c1[H])C([H])([H])C([H])([H])C([H])([H])C2([H])N([H])C(=O)C1([H])N(C(=O)C([H])(N([H])C(=O)C([H])(N([H])C([H])([H])[H])C([H])([H])[H])C(C([H])([H])[H])(C([H])([H])[H])C([H])([H])[H])C([H])([H])c2c([H])c(OC([H])([H])C([H])([H])C([H])([H])C([H])([H])[N+]([H])([H])C([H])([H])C3([H])C([H])([H])C([H])([H])C([H])(C([H])([H])N([H])C(=O)N4C([H])([H])C([H])([H])C([H])([H])C([H])(n5nc(-c6c([H])c([H])c(Oc7c([H])c([H])c(F)c([H])c7F)c([H])c6[H])c(C(=O)N([H])[H])c5N([H])[H])C4([H])[H])C([H])([H])C3([H])[H])c([H])c([H])c2C1([H])[H]

$$$$
20:0:0
     RDKit          3D

 98106  0  0  1  0  0  0  0  0999 V2000
  -31.2450  -22.5970   20.1260 C   0  0  0  0  0  2  0  0  0  0  0  0
  -30.1940  -23.1660   17.9400 C   0  0  0  0  0  2  0  0  0  0  0  0
  -31.4070  -21.1340   19.6550 C   0  0  0  0  0  2  0  0  0  0  0  0
  -30.3830  -21.7030   17.4860 C   0  0  0  0  0  2  0  0  0  0  0  0
  -30.0280  -23.2800   19.4670 C   0  0  0  0  0  3  0  0  0  0  0  0
  -31.5150  -21.0260   18.1740 N   0  0  2  0  0  4  0  0  0  0  0  0
  -32.3500  -21.5210   17.9000 H   0  0  0  0  0  0  0  0  0  0  0  0
  -31.6810  -19.6200   17.7130 C   0  0  0  0  0  2  0  0  0  0  0  0
  -33.1570  -19.1870   17.5750 C   0  0  0  0  0  2  0  0  0  0  0  0
  -33.2880  -17.6710   17.3150 C   0  0  0  0  0  2  0  0  0  0  0  0
  -34.7390  -17.1960   17.0680 C   0  0  0  0  0  2  0  0  0  0  0  0
  -34.9250  -15.6810   17.2960 C   0  0  0  0  0  2  0  0  0  0  0  0
  -35.0230  -15.3190   18.7940 C   0  0  0  0  0  2  0  0  0  0  0  0
  -34.8050  -13.8250   19.0980 C   0  0  0  0  0  2  0  0  0  0  0  0
  -34.5350  -13.5650   20.6020 C   0  0  0  0  0  2  0  0  0  0  0  0
  -33.5530  -12.4020   20.8800 C   0  0  0  0  0  2  0  0  0  0  0  0
  -32.3380  -12.7740   21.7780 C   0  0  0  0  0  2  0  0  0  0  0  0
  -31.0050  -13.8020   19.9760 C   0  0  0  0  0  0  0  0  0  0  0  0
  -30.2390  -11.9990   18.5160 C   0  0  0  0  0  2  0  0  0  0  0  0
  -29.1700  -12.3930   17.4900 C   0  0  0  0  0  2  0  0  0  0  0  0
  -27.7700  -12.2600   18.1080 C   0  0  0  0  0  2  0  0  0  0  0  0
  -27.6480  -13.0240   19.4500 C   0  0  0  0  0  3  0  0  0  0  0  0
  -28.8150  -12.6720   20.4140 C   0  0  0  0  0  2  0  0  0  0  0  0
  -30.1070  -12.8250   19.7210 N   0  0  0  0  0  0  0  0  0  0  0  0
  -31.6020  -14.4430   19.1160 O   0  0  0  0  0  0  0  0  0  0  0  0
  -31.4620  -13.8280   21.2310 N   0  0  0  0  0  0  0  0  0  0  0  0
  -31.8210  -14.7470   21.4460 H   0  0  0  0  0  0  0  0  0  0  0  0
  -25.3440  -13.7220   20.3960 C   0  0  0  0  0  0  0  0  0  0  0  0
  -24.2780  -12.9850   20.8480 C   0  0  0  0  0  0  0  0  0  0  0  0
  -24.6740  -11.6180   20.7440 C   0  0  0  0  0  0  0  0  0  0  0  0
  -26.3280  -12.8050   20.0550 N   0  0  0  0  0  0  0  0  0  0  0  0
  -25.9270  -11.5330   20.3160 N   0  0  0  0  0  0  0  0  0  0  0  0
  -23.9120  -10.3800   20.9730 C   0  0  0  0  0  0  0  0  0  0  0  0
  -24.3860   -9.3710   21.8400 C   0  0  0  0  0  3  0  0  0  0  0  0
  -23.6270   -8.2010   22.0620 C   0  0  0  0  0  3  0  0  0  0  0  0
  -22.3780   -8.0320   21.4160 C   0  0  0  0  0  0  0  0  0  0  0  0
  -21.9230   -9.0280   20.5330 C   0  0  0  0  0  3  0  0  0  0  0  0
  -22.6840  -10.1890   20.3090 C   0  0  0  0  0  3  0  0  0  0  0  0
  -21.5870   -6.9190   21.5500 O   0  0  0  0  0  0  0  0  0  0  0  0
  -21.6140   -6.1460   22.6850 C   0  0  0  0  0  0  0  0  0  0  0  0
  -21.3460   -6.6910   23.9600 C   0  0  0  0  0  3  0  0  0  0  0  0
  -21.3190   -5.8530   25.0910 C   0  0  0  0  0  3  0  0  0  0  0  0
  -21.5440   -4.4720   24.9510 C   0  0  0  0  0  0  0  0  0  0  0  0
  -21.8010   -3.9250   23.6830 C   0  0  0  0  0  3  0  0  0  0  0  0
  -21.8310   -4.7600   22.5510 C   0  0  0  0  0  0  0  0  0  0  0  0
  -22.0610   -4.2240   21.3280 F   0  0  0  0  0  0  0  0  0  0  0  0
  -21.5090   -3.6660   26.0390 F   0  0  0  0  0  0  0  0  0  0  0  0
  -22.9350  -13.5130   21.2720 C   0  0  0  0  0  0  0  0  0  0  0  0
  -22.2750  -12.8320   22.2040 N   0  0  0  0  0  0  0  0  0  0  0  0
  -22.4820  -14.5550   20.8090 O   0  0  0  0  0  0  0  0  0  0  0  0
  -22.6530  -11.9770   22.5860 H   0  0  0  0  0  0  0  0  0  0  0  0
  -21.3790  -13.1620   22.5310 H   0  0  0  0  0  0  0  0  0  0  0  0
  -25.5550  -15.0890   20.2310 N   0  0  0  0  0  0  0  0  0  0  0  0
  -24.8610  -15.7950   20.4510 H   0  0  0  0  0  0  0  0  0  0  0  0
  -26.4050  -15.4790   19.8380 H   0  0  0  0  0  0  0  0  0  0  0  0
  -29.8410  -24.7480   19.9340 C   0  0  0  0  0  2  0  0  0  0  0  0
  -28.4280  -25.3230   19.6980 C   0  0  0  0  0  2  0  0  0  0  0  0
  -28.4000  -26.6860   20.1230 O   0  0  0  0  0  0  0  0  0  0  0  0
  -24.5840  -31.8380   23.2060 C   0  0  0  0  0  0  0  0  0  0  0  0
  -27.1970  -27.3670   20.1280 C   0  0  0  0  0  0  0  0  0  0  0  0
  -23.3600  -30.4250   21.5840 C   0  0  0  0  0  3  0  0  0  0  0  0
  -24.7970  -28.8690   20.1640 C   0  0  0  0  0  0  0  0  0  0  0  0
  -25.8850  -30.7750   21.3620 C   0  0  0  0  0  2  0  0  0  0  0  0
  -25.9600  -29.3970   20.7360 C   0  0  0  0  0  0  0  0  0  0  0  0
  -27.1600  -28.6520   20.7140 C   0  0  0  0  0  3  0  0  0  0  0  0
  -26.0090  -26.8440   19.5670 C   0  0  0  0  0  3  0  0  0  0  0  0
  -24.8130  -27.5890   19.5830 C   0  0  0  0  0  3  0  0  0  0  0  0
  -23.5560  -29.7330   20.2090 C   0  0  0  0  0  2  0  0  0  0  0  0
  -24.6290  -31.0290   22.1090 N   0  0  0  0  0  0  0  0  0  0  0  0
  -23.5060  -32.1180   23.7490 O   0  0  0  0  0  0  0  0  0  0  0  0
  -22.7130  -29.4150   22.5570 C   0  0  0  0  0  0  0  0  0  0  0  0
  -21.3870  -29.2390   22.4390 N   0  0  0  0  0  0  0  0  0  0  0  0
  -23.4000  -28.7920   23.3720 O   0  0  0  0  0  0  0  0  0  0  0  0
  -20.8970  -29.7900   21.7470 H   0  0  0  0  0  0  0  0  0  0  0  0
  -18.0080  -28.0720   22.9640 C   0  0  0  0  0  0  0  0  0  0  0  0
  -20.5690  -28.3110   23.2210 C   0  0  0  0  0  3  0  0  0  0  0  0
  -20.6590  -26.8770   22.6500 C   0  0  0  0  0  2  0  0  0  0  0  0
  -19.5480  -26.5570   21.6460 C   0  0  0  0  0  2  0  0  0  0  0  0
  -18.1710  -26.7160   22.2970 C   0  0  0  0  0  2  0  0  0  0  0  0
  -19.1350  -28.8280   23.3830 C   0  0  0  0  0  0  0  0  0  0  0  0
  -18.9290  -30.0970   23.9660 C   0  0  0  0  0  3  0  0  0  0  0  0
  -17.6290  -30.6090   24.1360 C   0  0  0  0  0  3  0  0  0  0  0  0
  -16.5160  -29.8490   23.7330 C   0  0  0  0  0  3  0  0  0  0  0  0
  -16.7070  -28.5820   23.1530 C   0  0  0  0  0  3  0  0  0  0  0  0
  -25.8770  -32.4670   23.8130 C   0  0  0  0  0  3  0  0  0  0  0  0
  -26.4180  -31.6830   25.0710 C   0  0  1  0  0  0  0  0  0  0  0  0
  -25.3430  -31.4280   26.1530 C   0  0  0  0  0  1  0  0  0  0  0  0
  -26.9970  -30.3130   24.6460 C   0  0  0  0  0  1  0  0  0  0  0  0
  -27.5770  -32.4730   25.7210 C   0  0  0  0  0  1  0  0  0  0  0  0
  -25.5690  -33.8600   24.1620 N   0  0  0  0  0  0  0  0  0  0  0  0
  -25.8850  -34.9200   23.4050 C   0  0  0  0  0  0  0  0  0  0  0  0
  -26.5370  -34.8260   22.3610 O   0  0  0  0  0  0  0  0  0  0  0  0
  -24.9950  -34.0080   24.9780 H   0  0  0  0  0  0  0  0  0  0  0  0
  -24.1450  -36.7050   23.0890 C   0  0  0  0  0  1  0  0  0  0  0  0
  -25.4000  -36.3020   23.8800 C   0  0  0  0  0  3  0  0  0  0  0  0
  -27.5460  -37.1830   24.6850 C   0  0  0  0  0  1  0  0  0  0  0  0
  -26.4280  -37.3590   23.7610 N   0  0  0  0  0  0  0  0  0  0  0  0
  -26.0220  -38.2760   23.9230 H   0  0  0  0  0  0  0  0  0  0  0  0
  2  5  1  0
  3  1  1  0
  4  2  1  0
  4  6  1  0
  5 56  1  0
  5  1  1  0
  6  3  1  0
  6  7  1  6
  8  6  1  0
  9  8  1  0
 10  9  1  0
 11 12  1  0
 11 10  1  0
 12 13  1  0
 13 14  1  0
 14 15  1  0
 15 16  1  0
 16 17  1  0
 18 26  1  0
 19 24  1  0
 20 21  1  0
 20 19  1  0
 22 21  1  0
 22 31  1  0
 22 23  1  0
 24 18  1  0
 24 23  1  0
 25 18  2  0
 26 27  1  0
 26 17  1  0
 28 29  2  0
 29 48  1  0
 30 29  1  0
 30 33  1  0
 31 32  1  0
 31 28  1  0
 32 30  2  0
 33 34  1  0
 34 35  2  0
 36 39  1  0
 36 35  1  0
 37 36  2  0
 38 37  1  0
 38 33  2  0
 39 40  1  0
 40 41  1  0
 41 42  2  0
 43 42  1  0
 43 47  1  0
 44 43  2  0
 45 40  2  0
 45 44  1  0
 46 45  1  0
 48 49  1  0
 49 52  1  0
 49 51  1  0
 50 48  2  0
 53 28  1  0
 53 54  1  0
 55 53  1  0
 57 56  1  0
 57 58  1  0
 58 60  1  0
 59 70  2  0
 60 65  1  0
 61 69  1  0
 61 71  1  0
 62 68  1  0
 62 64  1  0
 63 69  1  0
 64 63  1  0
 65 64  2  0
 66 67  1  0
 66 60  2  0
 67 62  2  0
 68 61  1  0
 69 59  1  0
 71 73  2  0
 72 71  1  0
 74 72  1  0
 75 84  2  0
 75 80  1  0
 76 72  1  0
 76 80  1  0
 77 76  1  0
 78 79  1  0
 78 77  1  0
 79 75  1  0
 80 81  2  0
 81 82  1  0
 83 82  2  0
 84 83  1  0
 85 59  1  0
 85 90  1  0
 85 86  1  0
 86 89  1  1
 86 87  1  0
 88 86  1  0
 90 93  1  0
 91 95  1  0
 91 90  1  0
 92 91  2  0
 95 94  1  0
 97 95  1  0
 97 98  1  0
 97 96  1  0
M  ISO  4  18 100  26 100  57 101  58 101
M  END
>  <TORSDO>  (21) 
F 28

>  <SCORE>  (21) 
-10.714

>  <name>  (21) 
20

>  <ligand_id>  (21) 
20

>  <original_smiles>  (21) 
[H]c1c([H])c([H])c2c(c1[H])C([H])([H])C([H])([H])C([H])([H])C2([H])N([H])C(=O)C1([H])N(C(=O)C([H])(N([H])C(=O)C([H])(N([H])C([H])([H])[H])C([H])([H])[H])C(C([H])([H])[H])(C([H])([H])[H])C([H])([H])[H])C([H])([H])c2c([H])c(OC([H])([H])C([H])([H])C3([H])C([H])([H])C([H])([H])[N+]([H])(C([H])([H])C([H])([H])C([H])([H])C([H])([H])C([H])([H])C([H])([H])C([H])([H])C([H])([H])C([H])([H])C([H])([H])N([H])C(=O)N4C([H])([H])C([H])([H])C([H])([H])C([H])(n5nc(-c6c([H])c([H])c(Oc7c([H])c([H])c(F)c([H])c7F)c([H])c6[H])c(C(=O)N([H])[H])c5N([H])[H])C4([H])[H])C([H])([H])C3([H])[H])c([H])c([H])c2C1([H])[H]

>  <smiles>  (21) 
[H]c1c([H])c([H])c2c(c1[H])C([H])([H])C([H])([H])C([H])([H])C2([H])N([H])C(=O)C1([H])N(C(=O)C([H])(N([H])C(=O)C([H])(N([H])C([H])([H])[H])C([H])([H])[H])C(C([H])([H])[H])(C([H])([H])[H])C([H])([H])[H])C([H])([H])c2c([H])c(OC([H])([H])C([H])([H])C3([H])C([H])([H])C([H])([H])[N+]([H])(C([H])([H])C([H])([H])C([H])([H])C([H])([H])C([H])([H])C([H])([H])C([H])([H])C([H])([H])C([H])([H])C([H])([H])N([H])C(=O)N4C([H])([H])C([H])([H])C([H])([H])C([H])(n5nc(-c6c([H])c([H])c(Oc7c([H])c([H])c(F)c([H])c7F)c([H])c6[H])c(C(=O)N([H])[H])c5N([H])[H])C4([H])[H])C([H])([H])C3([H])[H])c([H])c([H])c2C1([H])[H]

$$$$
21:0:0
     RDKit          3D

 94 97  0  0  1  0  0  0  0  0999 V2000
  -25.1990  -14.2910   18.9080 C   0  0  0  0  0  1  0  0  0  0  0  0
  -24.7150  -13.6350   22.7720 C   0  0  0  0  0  2  0  0  0  0  0  0
  -25.5240  -16.1260   19.3300 C   0  0  0  0  0  2  0  0  0  0  0  0
  -25.5810  -15.9150   22.6050 C   0  0  0  0  0 15  0  0  0  0  0  0
  -24.7390  -12.7810   20.1870 C   0  0  0  0  0  1  0  0  0  0  0  0
  -25.8960  -16.8550   20.8610 N   0  0  0  0  0  0  0  0  0  0  0  0
  -26.8840  -16.5940   20.8220 H   0  0  0  0  0  0  0  0  0  0  0  0
  -26.8830  -12.6190   17.9940 C   0  0  0  0  0  2  0  0  0  0  0  0
  -26.1620  -12.1050   19.2330 C   0  0  0  0  0  3  0  0  0  0  0  0
  -27.9150  -12.5420   19.1130 C   0  0  0  0  0  3  0  0  0  0  0  0
  -29.5880  -12.0030   19.0740 C   0  0  0  0  0  2  0  0  0  0  0  0
  -31.5700  -11.0070   21.0900 C   0  0  0  0  0  0  0  0  0  0  0  0
  -31.0790   -8.7690   20.5550 C   0  0  0  0  0  2  0  0  0  0  0  0
  -30.1490   -9.0890   19.3930 C   0  0  0  0  0  2  0  0  0  0  0  0
  -28.7450   -9.5190   19.9430 C   0  0  0  0  0  2  0  0  0  0  0  0
  -28.7740  -10.3610   21.2880 C   0  0  0  0  0  3  0  0  0  0  0  0
  -29.7570   -9.8650   22.2860 C   0  0  0  0  0  2  0  0  0  0  0  0
  -30.9570   -9.8770   21.4810 N   0  0  0  0  0  0  0  0  0  0  0  0
  -32.7590  -11.0900   21.4580 O   0  0  0  0  0  0  0  0  0  0  0  0
  -30.8810  -11.8980   20.1390 N   0  0  0  0  0  0  0  0  0  0  0  0
  -31.4970  -12.6830   19.9790 H   0  0  0  0  0  0  0  0  0  0  0  0
  -27.2920  -12.1720   22.1480 C   0  0  0  0  0  3  0  0  0  0  0  0
  -25.9580  -12.2960   22.1910 C   0  0  0  0  0  3  0  0  0  0  0  0
  -25.7130  -10.6100   22.0000 C   0  0  0  0  0  3  0  0  0  0  0  0
  -27.6070  -10.8430   21.8310 N   0  0  0  0  0  0  0  0  0  0  0  0
  -26.7430   -9.8990   21.9290 N   0  0  0  0  0  2  0  0  0  0  0  0
  -24.4670   -9.5290   21.7950 C   0  0  0  0  0  0  0  0  0  0  0  0
  -24.3880   -8.3040   22.5500 C   0  0  0  0  0  3  0  0  0  0  0  0
  -23.2660   -7.4070   22.5530 C   0  0  0  0  0  3  0  0  0  0  0  0
  -22.1030   -7.6710   21.7900 C   0  0  0  0  0  0  0  0  0  0  0  0
  -22.1350   -8.8390   21.0160 C   0  0  0  0  0  3  0  0  0  0  0  0
  -23.2590   -9.7050   21.0150 C   0  0  0  0  0  3  0  0  0  0  0  0
  -20.9790   -6.8620   21.6860 O   0  0  0  0  0  0  0  0  0  0  0  0
  -20.5830   -5.9790   22.6690 C   0  0  0  0  0  0  0  0  0  0  0  0
  -20.2170   -6.4230   23.9600 C   0  0  0  0  0  3  0  0  0  0  0  0
  -19.7650   -5.5010   24.9270 C   0  0  0  0  0  3  0  0  0  0  0  0
  -19.6650   -4.1320   24.6090 C   0  0  0  0  0  0  0  0  0  0  0  0
  -20.0010   -3.6880   23.3190 C   0  0  0  0  0  3  0  0  0  0  0  0
  -20.4490   -4.6080   22.3510 C   0  0  0  0  0  0  0  0  0  0  0  0
  -20.7410   -4.1660   21.1040 F   0  0  0  0  0  0  0  0  0  0  0  0
  -19.2470   -3.2440   25.5430 F   0  0  0  0  0  0  0  0  0  0  0  0
  -24.3360  -13.9060   22.1060 C   0  0  0  0  0  3  0  0  0  0  0  0
  -23.0950  -13.9250   22.6960 N   0  0  0  0  0  0  0  0  0  0  0  0
  -24.0970  -14.8330   21.3720 O   0  0  0  0  0  1  0  0  0  0  0  0
  -22.7680  -13.1670   23.2750 H   0  0  0  0  0  0  0  0  0  0  0  0
  -22.4600  -14.6660   22.4390 H   0  0  0  0  0  0  0  0  0  0  0  0
  -28.3060  -13.0920   22.2310 N   0  0  0  0  0  0  0  0  0  0  0  0
  -28.4430  -13.5580   21.3400 H   0  0  0  0  0  0  0  0  0  0  0  0
  -29.1840  -12.6170   22.4000 H   0  0  0  0  0  0  0  0  0  0  0  0
  -26.0230  -18.5930   20.3620 C   0  0  0  0  0  1  0  0  0  0  0  0
  -26.5040  -19.7280   18.7780 C   0  0  0  0  0 15  0  0  0  0  0  0
  -26.4680  -21.5230   17.8510 C   0  0  0  0  0 15  0  0  0  0  0  0
  -27.1650  -23.4000   17.6780 C   0  0  0  0  0  1  0  0  0  0  0  0
  -27.1050  -25.0560   16.9120 O   0  0  0  0  0  0  0  0  0  0  0  0
  -25.7080  -30.1440   22.3940 C   0  0  0  0  0  0  0  0  0  0  0  0
  -26.6880  -26.4580   17.3950 C   0  0  0  0  0  0  0  0  0  0  0  0
  -24.0880  -29.5500   20.6550 C   0  0  0  0  0  3  0  0  0  0  0  0
  -25.0070  -28.6620   18.4140 C   0  0  0  0  0  0  0  0  0  0  0  0
  -26.5880  -29.6520   20.0350 C   0  0  0  0  0  2  0  0  0  0  0  0
  -26.3150  -28.5980   18.9000 C   0  0  0  0  0  0  0  0  0  0  0  0
  -27.1790  -27.5140   18.3640 C   0  0  0  0  0  3  0  0  0  0  0  0
  -25.4960  -26.8690   16.8010 C   0  0  0  0  0  3  0  0  0  0  0  0
  -24.6550  -27.8740   17.3150 C   0  0  0  0  0  3  0  0  0  0  0  0
  -23.9740  -29.5440   19.1070 C   0  0  0  0  0  2  0  0  0  0  0  0
  -25.5010  -29.8020   21.0800 N   0  0  0  0  0  0  0  0  0  0  0  0
  -24.7720  -30.2100   23.2100 O   0  0  0  0  0  0  0  0  0  0  0  0
  -23.5180  -28.2330   21.2510 C   0  0  0  0  0  0  0  0  0  0  0  0
  -22.1980  -28.0050   21.1200 N   0  0  0  0  0  0  0  0  0  0  0  0
  -24.2680  -27.4350   21.8180 O   0  0  0  0  0  0  0  0  0  0  0  0
  -21.6370  -28.7090   20.6610 H   0  0  0  0  0  0  0  0  0  0  0  0
  -19.0020  -26.2870   21.0890 C   0  0  0  0  0  0  0  0  0  0  0  0
  -21.4890  -26.8040   21.5780 C   0  0  0  0  0  3  0  0  0  0  0  0
  -21.8090  -25.5900   20.6750 C   0  0  0  0  0  2  0  0  0  0  0  0
  -20.7970  -25.4000   19.5400 C   0  0  0  0  0  2  0  0  0  0  0  0
  -19.3890  -25.1950   20.1060 C   0  0  0  0  0  2  0  0  0  0  0  0
  -19.9880  -27.0520   21.7690 C   0  0  0  0  0  0  0  0  0  0  0  0
  -19.5720  -28.0730   22.6500 C   0  0  0  0  0  3  0  0  0  0  0  0
  -18.2030  -28.3350   22.8540 C   0  0  0  0  0  3  0  0  0  0  0  0
  -17.2320  -27.5680   22.1860 C   0  0  0  0  0  3  0  0  0  0  0  0
  -17.6330  -26.5440   21.3100 C   0  0  0  0  0  3  0  0  0  0  0  0
  -27.1270  -30.4870   22.9350 C   0  0  0  0  0  3  0  0  0  0  0  0
  -26.9730  -31.5100   23.9880 N   0  0  0  0  0  0  0  0  0  0  0  0
  -27.2840  -32.8080   23.8590 C   0  0  0  0  0  0  0  0  0  0  0  0
  -27.7910  -33.2690   22.8340 O   0  0  0  0  0  0  0  0  0  0  0  0
  -26.5070  -31.2160   24.8340 H   0  0  0  0  0  0  0  0  0  0  0  0
  -25.7000  -34.5390   24.7830 C   0  0  0  0  0  1  0  0  0  0  0  0
  -26.9860  -33.7420   25.0530 C   0  0  0  0  0  3  0  0  0  0  0  0
  -29.2750  -34.0190   25.9020 C   0  0  0  0  0  1  0  0  0  0  0  0
  -28.0900  -34.6780   25.3600 N   0  0  0  0  0  0  0  0  0  0  0  0
  -27.7880  -35.3850   26.0240 H   0  0  0  0  0  0  0  0  0  0  0  0
  -27.8860  -29.2310   23.5200 C   0  0  1  0  0  0  0  0  0  0  0  0
  -27.0620  -28.4330   24.5590 C   0  0  0  0  0  1  0  0  0  0  0  0
  -28.2910  -28.2470   22.4010 C   0  0  0  0  0  1  0  0  0  0  0  0
  -29.2010  -29.6850   24.1970 C   0  0  0  0  0  1  0  0  0  0  0  0
  1  3  1  0
  3  6  1  0
  7  6  1  0
  8 10  1  0
  8  9  1  0
  9  5  1  0
 10 11  1  0
 10  9  1  0
 11 20  1  0
 12 19  2  0
 12 18  1  0
 13 18  1  0
 14 15  1  0
 14 13  1  0
 16 15  1  0
 16 25  1  0
 16 17  1  0
 18 17  1  0
 20 12  1  0
 21 20  1  0
 22 23  1  0
 22 47  1  0
 23  2  1  0
 24 27  1  0
 24 23  1  0
 25 26  1  0
 25 22  1  0
 26 24  1  0
 27 28  1  0
 28 29  2  0
 30 29  1  0
 31 30  2  0
 32 31  1  0
 32 27  2  0
 33 30  1  0
 33 34  1  0
 34 35  1  0
 35 36  2  0
 37 36  1  0
 37 41  1  0
 38 37  2  0
 39 34  2  0
 39 38  1  0
 40 39  1  0
 42 44  1  0
 42 43  1  0
 42  2  1  0
 43 45  1  0
 46 43  1  0
 47 49  1  0
 48 47  1  0
 50  6  1  0
 54 56  1  0
 54 53  1  0
 55 66  2  0
 56 61  1  0
 57 65  1  0
 57 67  1  0
 58 60  1  0
 58 64  1  0
 59 65  1  0
 60 59  1  0
 61 60  2  0
 62 63  1  0
 62 56  2  0
 63 58  2  0
 64 57  1  0
 65 55  1  0
 67 69  2  0
 68 67  1  0
 70 68  1  0
 71 80  2  0
 71 76  1  0
 72 68  1  0
 72 76  1  0
 73 72  1  0
 74 75  1  0
 74 73  1  0
 75 71  1  0
 76 77  2  0
 77 78  1  0
 79 78  2  0
 80 79  1  0
 81 55  1  0
 81 91  1  0
 81 82  1  0
 82 85  1  0
 83 82  1  0
 83 87  1  0
 84 83  2  0
 87 86  1  0
 87 89  1  0
 89 88  1  0
 89 90  1  0
 91 94  1  1
 91 92  1  0
 93 91  1  0
M  ISO  4  12 100  20 100  53 101  54 101
M  END
>  <TORSDO>  (22) 
F 22

>  <SCORE>  (22) 
7.247

>  <name>  (22) 
21

>  <ligand_id>  (22) 
21

>  <original_smiles>  (22) 
[H]c1c([H])c([H])c2c(c1[H])C([H])([H])C([H])([H])C([H])([H])C2([H])N([H])C(=O)C1([H])N(C(=O)C([H])(N([H])C(=O)C([H])(N([H])C([H])([H])[H])C([H])([H])[H])C(C([H])([H])[H])(C([H])([H])[H])C([H])([H])[H])C([H])([H])c2c([H])c(OC([H])([H])C([H])([H])C([H])([H])C([H])([H])[N+]3([H])C([H])([H])C([H])([H])C([H])(C4([H])C([H])([H])C4([H])C([H])([H])N([H])C(=O)N4C([H])([H])C([H])([H])C([H])([H])C([H])(n5nc(-c6c([H])c([H])c(Oc7c([H])c([H])c(F)c([H])c7F)c([H])c6[H])c(C(=O)N([H])[H])c5N([H])[H])C4([H])[H])C([H])([H])C3([H])[H])c([H])c([H])c2C1([H])[H]

>  <smiles>  (22) 
[H]c1c([H])c([H])c2c(c1[H])C([H])([H])C([H])([H])C([H])([H])C2([H])N([H])C(=O)C1([H])N(C(=O)C([H])(N([H])C(=O)C([H])(N([H])C([H])([H])[H])C([H])([H])[H])C(C([H])([H])[H])(C([H])([H])[H])C([H])([H])[H])C([H])([H])c2c([H])c(OC([H])([H])C([H])([H])C([H])([H])C([H])([H])[N+]3([H])C([H])([H])C([H])([H])C([H])(C4([H])C([H])([H])C4([H])C([H])([H])N([H])C(=O)N4C([H])([H])C([H])([H])C([H])([H])C([H])(n5nc(-c6c([H])c([H])c(Oc7c([H])c([H])c(F)c([H])c7F)c([H])c6[H])c(C(=O)N([H])[H])c5N([H])[H])C4([H])[H])C([H])([H])C3([H])[H])c([H])c([H])c2C1([H])[H]

$$$$
22:0:0
     RDKit          3D

101110  0  0  1  0  0  0  0  0999 V2000
  -28.7480  -20.4500   19.5480 N   0  0  0  0  0  0  0  0  0  0  0  0
  -29.8550  -18.9500   17.1410 C   0  0  0  0  0  2  0  0  0  0  0  0
  -30.0380  -20.3800   16.6250 C   0  0  0  0  0  2  0  0  0  0  0  0
  -28.4260  -18.8800   17.6860 C   0  0  0  0  0  2  0  0  0  0  0  0
  -28.8050  -21.1610   17.1070 C   0  0  0  0  0  2  0  0  0  0  0  0
  -28.1050  -20.3100   18.2030 C   0  0  2  0  0  0  0  0  0  0  0  0
  -26.5690  -20.6480   18.2730 C   0  0  0  0  0  2  0  0  0  0  0  0
  -24.5560  -21.3180   16.9850 C   0  0  0  0  0  1  0  0  0  0  0  0
  -25.9150  -20.7410   16.9510 N   0  0  0  0  0  4  0  0  0  0  0  0
  -26.4840  -21.3100   16.3470 H   0  0  0  0  0  0  0  0  0  0  0  0
  -25.8590  -19.8210   16.5440 H   0  0  0  0  0  0  0  0  0  0  0  0
  -28.5270  -19.2100   20.3820 C   0  0  0  0  0  2  0  0  0  0  0  0
  -31.4410  -19.7180   23.0070 C   0  0  0  0  0  2  0  0  0  0  0  0
  -31.5410  -18.2450   23.3930 C   0  0  0  0  0  2  0  0  0  0  0  0
  -30.5240  -19.9430   21.7950 C   0  0  0  0  0  2  0  0  0  0  0  0
  -31.7190  -17.3760   22.1450 C   0  0  0  0  0  2  0  0  0  0  0  0
  -29.6260  -18.7350   21.4100 C   0  0  0  0  0  3  0  0  0  0  0  0
  -30.5220  -17.4250   21.1290 C   0  0  0  0  0  3  0  0  0  0  0  0
  -30.5210  -14.9590   20.5000 C   0  0  0  0  0  0  0  0  0  0  0  0
  -30.2680  -12.7820   19.3470 C   0  0  0  0  0  2  0  0  0  0  0  0
  -29.3320  -12.9490   18.1340 C   0  0  0  0  0  2  0  0  0  0  0  0
  -27.8730  -12.7290   18.5670 C   0  0  0  0  0  2  0  0  0  0  0  0
  -27.4960  -13.5360   19.8400 C   0  0  0  0  0  3  0  0  0  0  0  0
  -28.5630  -13.3970   20.9500 C   0  0  0  0  0  2  0  0  0  0  0  0
  -29.8600  -13.7670   20.3730 N   0  0  0  0  0  0  0  0  0  0  0  0
  -31.6420  -15.0940   20.0040 O   0  0  0  0  0  0  0  0  0  0  0  0
  -29.8950  -16.0480   21.0610 N   0  0  0  0  0  0  0  0  0  0  0  0
  -28.9650  -15.9200   21.4320 H   0  0  0  0  0  0  0  0  0  0  0  0
  -25.0810  -14.0080   20.5670 C   0  0  0  0  0  0  0  0  0  0  0  0
  -24.0520  -13.1810   20.9260 C   0  0  0  0  0  0  0  0  0  0  0  0
  -24.5780  -11.8530   20.8800 C   0  0  0  0  0  0  0  0  0  0  0  0
  -26.1650  -13.1820   20.3230 N   0  0  0  0  0  0  0  0  0  0  0  0
  -25.8690  -11.8810   20.5720 N   0  0  0  0  0  0  0  0  0  0  0  0
  -23.9120  -10.5570   21.0550 C   0  0  0  0  0  0  0  0  0  0  0  0
  -24.3610   -9.6180   22.0110 C   0  0  0  0  0  3  0  0  0  0  0  0
  -23.6910   -8.3850   22.1730 C   0  0  0  0  0  3  0  0  0  0  0  0
  -22.5600   -8.0820   21.3780 C   0  0  0  0  0  0  0  0  0  0  0  0
  -22.1330   -9.0090   20.4120 C   0  0  0  0  0  3  0  0  0  0  0  0
  -22.8030  -10.2340   20.2490 C   0  0  0  0  0  3  0  0  0  0  0  0
  -21.8630   -6.8990   21.4480 O   0  0  0  0  0  0  0  0  0  0  0  0
  -21.7930   -6.1740   22.6100 C   0  0  0  0  0  0  0  0  0  0  0  0
  -21.2690   -6.7220   23.8020 C   0  0  0  0  0  3  0  0  0  0  0  0
  -21.1500   -5.9190   24.9540 C   0  0  0  0  0  3  0  0  0  0  0  0
  -21.5450   -4.5680   24.9150 C   0  0  0  0  0  0  0  0  0  0  0  0
  -22.0630   -4.0200   23.7290 C   0  0  0  0  0  3  0  0  0  0  0  0
  -22.1850   -4.8200   22.5790 C   0  0  0  0  0  0  0  0  0  0  0  0
  -22.6640   -4.2810   21.4320 F   0  0  0  0  0  0  0  0  0  0  0  0
  -21.4250   -3.7950   26.0200 F   0  0  0  0  0  0  0  0  0  0  0  0
  -22.6340  -13.5900   21.2030 C   0  0  0  0  0  0  0  0  0  0  0  0
  -21.9400  -12.8470   22.0560 N   0  0  0  0  0  0  0  0  0  0  0  0
  -22.1500  -14.6010   20.6960 O   0  0  0  0  0  0  0  0  0  0  0  0
  -22.3440  -12.0280   22.4870 H   0  0  0  0  0  0  0  0  0  0  0  0
  -20.9880  -13.1000   22.2830 H   0  0  0  0  0  0  0  0  0  0  0  0
  -25.1830  -15.3870   20.4050 N   0  0  0  0  0  0  0  0  0  0  0  0
  -24.3930  -16.0080   20.5390 H   0  0  0  0  0  0  0  0  0  0  0  0
  -26.0240  -15.8640   20.1060 H   0  0  0  0  0  0  0  0  0  0  0  0
  -28.4480  -21.7510   20.2470 C   0  0  0  0  0  3  0  0  0  0  0  0
  -29.4870  -22.9220   20.0250 C   0  0  0  0  0  3  0  0  0  0  0  0
  -29.1800  -24.3690   20.5860 C   0  0  0  0  0  3  0  0  0  0  0  0
  -28.3330  -25.3570   19.7110 C   0  0  0  0  0  3  0  0  0  0  0  0
  -28.4020  -26.7740   20.1020 O   0  0  0  0  0  0  0  0  0  0  0  0
  -24.6400  -32.0020   23.2940 C   0  0  0  0  0  0  0  0  0  0  0  0
  -27.2550  -27.5720   20.0700 C   0  0  0  0  0  0  0  0  0  0  0  0
  -23.4260  -30.6190   21.6510 C   0  0  0  0  0  3  0  0  0  0  0  0
  -24.8660  -29.1320   20.1550 C   0  0  0  0  0  0  0  0  0  0  0  0
  -25.9530  -30.9860   21.4220 C   0  0  0  0  0  2  0  0  0  0  0  0
  -26.0380  -29.6260   20.7450 C   0  0  0  0  0  0  0  0  0  0  0  0
  -27.2310  -28.8500   20.7040 C   0  0  0  0  0  3  0  0  0  0  0  0
  -26.0630  -27.1420   19.4370 C   0  0  0  0  0  3  0  0  0  0  0  0
  -24.8800  -27.8980   19.4930 C   0  0  0  0  0  3  0  0  0  0  0  0
  -23.6170  -29.9810   20.2510 C   0  0  0  0  0  2  0  0  0  0  0  0
  -24.6930  -31.2180   22.1790 N   0  0  0  0  0  0  0  0  0  0  0  0
  -23.5630  -32.2510   23.8530 O   0  0  0  0  0  0  0  0  0  0  0  0
  -22.8020  -29.5680   22.5980 C   0  0  0  0  0  0  0  0  0  0  0  0
  -21.4820  -29.3530   22.4670 N   0  0  0  0  0  0  0  0  0  0  0  0
  -23.5010  -28.9550   23.4080 O   0  0  0  0  0  0  0  0  0  0  0  0
  -20.9790  -29.8990   21.7810 H   0  0  0  0  0  0  0  0  0  0  0  0
  -18.1410  -28.0460   22.9410 C   0  0  0  0  0  0  0  0  0  0  0  0
  -20.6890  -28.3830   23.2240 C   0  0  0  0  0  3  0  0  0  0  0  0
  -20.8380  -26.9610   22.6340 C   0  0  0  0  0  2  0  0  0  0  0  0
  -19.7490  -26.6140   21.6130 C   0  0  0  0  0  2  0  0  0  0  0  0
  -18.3620  -26.7080   22.2530 C   0  0  0  0  0  2  0  0  0  0  0  0
  -19.2330  -28.8390   23.3830 C   0  0  0  0  0  0  0  0  0  0  0  0
  -18.9740  -30.0890   23.9850 C   0  0  0  0  0  3  0  0  0  0  0  0
  -17.6540  -30.5500   24.1470 C   0  0  0  0  0  3  0  0  0  0  0  0
  -16.5760  -29.7530   23.7250 C   0  0  0  0  0  3  0  0  0  0  0  0
  -16.8200  -28.5020   23.1280 C   0  0  0  0  0  3  0  0  0  0  0  0
  -25.9260  -32.6370   23.9060 C   0  0  0  0  0  3  0  0  0  0  0  0
  -26.4500  -31.8710   25.1820 C   0  0  1  0  0  0  0  0  0  0  0  0
  -25.3560  -31.6190   26.2480 C   0  0  0  0  0  1  0  0  0  0  0  0
  -27.0460  -30.4980   24.7880 C   0  0  0  0  0  1  0  0  0  0  0  0
  -27.5970  -32.6750   25.8410 C   0  0  0  0  0  1  0  0  0  0  0  0
  -25.6130  -34.0340   24.2350 N   0  0  0  0  0  0  0  0  0  0  0  0
  -25.9370  -35.0860   23.4700 C   0  0  0  0  0  0  0  0  0  0  0  0
  -26.6020  -34.9810   22.4360 O   0  0  0  0  0  0  0  0  0  0  0  0
  -25.0150  -34.1880   25.0340 H   0  0  0  0  0  0  0  0  0  0  0  0
  -24.1980  -36.8700   23.1300 C   0  0  0  0  0  1  0  0  0  0  0  0
  -25.4510  -36.4750   23.9260 C   0  0  0  0  0  3  0  0  0  0  0  0
  -27.5930  -37.3730   24.7260 C   0  0  0  0  0  1  0  0  0  0  0  0
  -26.4780  -37.5300   23.7950 N   0  0  0  0  0  0  0  0  0  0  0  0
  -26.0710  -38.4510   23.9430 H   0  0  0  0  0  0  0  0  0  0  0  0
  1 57  1  0
  1 12  1  0
  2  4  1  0
  3  5  1  0
  3  2  1  0
  4  6  1  0
  5  6  1  0
  6  7  1  1
  6  1  1  0
  9  8  1  0
  9  7  1  0
 10  9  1  0
 11  9  1  0
 13 14  1  0
 15 13  1  0
 16 14  1  0
 17 12  1  0
 17 15  1  0
 18 27  1  0
 18 17  1  0
 18 16  1  0
 19 27  1  0
 20 25  1  0
 21 22  1  0
 21 20  1  0
 23 22  1  0
 23 32  1  0
 23 24  1  0
 25 19  1  0
 25 24  1  0
 26 19  2  0
 27 28  1  0
 29 30  2  0
 30 49  1  0
 31 30  1  0
 31 34  1  0
 32 29  1  0
 32 33  1  0
 33 31  2  0
 34 35  1  0
 35 36  2  0
 37 40  1  0
 37 36  1  0
 38 37  2  0
 39 38  1  0
 39 34  2  0
 40 41  1  0
 41 42  1  0
 42 43  2  0
 44 43  1  0
 44 48  1  0
 45 44  2  0
 46 41  2  0
 46 45  1  0
 47 46  1  0
 49 50  1  0
 50 53  1  0
 50 52  1  0
 51 49  2  0
 54 55  1  0
 54 29  1  0
 56 54  1  0
 58 57  2  0
 58 59  1  0
 60 61  1  0
 60 59  2  0
 62 73  2  0
 63 61  1  0
 63 68  1  0
 64 72  1  0
 64 74  1  0
 65 71  1  0
 65 67  1  0
 66 72  1  0
 67 66  1  0
 68 67  2  0
 69 70  1  0
 69 63  2  0
 70 65  2  0
 71 64  1  0
 72 62  1  0
 74 76  2  0
 75 74  1  0
 77 75  1  0
 78 87  2  0
 78 83  1  0
 79 75  1  0
 79 83  1  0
 80 79  1  0
 81 82  1  0
 81 80  1  0
 82 78  1  0
 83 84  2  0
 84 85  1  0
 86 85  2  0
 87 86  1  0
 88 62  1  0
 88 93  1  0
 88 89  1  0
 89 92  1  1
 89 90  1  0
 91 89  1  0
 93 96  1  0
 94 98  1  0
 94 93  1  0
 95 94  2  0
 98 97  1  0
100 98  1  0
100101  1  0
100 99  1  0
M  ISO  4  19 100  27 100  60 101  61 101
M  END
>  <TORSDO>  (23) 
F 25

>  <SCORE>  (23) 
-11.135

>  <name>  (23) 
22

>  <ligand_id>  (23) 
22

>  <original_smiles>  (23) 
[H]c1c([H])c([H])c2c(c1[H])C([H])([H])C([H])([H])C([H])([H])C2([H])N([H])C(=O)C1([H])N(C(=O)C([H])(N([H])C(=O)C([H])(N([H])C([H])([H])[H])C([H])([H])[H])C(C([H])([H])[H])(C([H])([H])[H])C([H])([H])[H])C([H])([H])c2c([H])c(OC([H])([H])C([H])([H])C([H])([H])C([H])([H])N(C([H])([H])C3([H])C([H])([H])C([H])([H])C([H])([H])C([H])([H])C3([H])N([H])C(=O)N3C([H])([H])C([H])([H])C([H])([H])C([H])(n4nc(-c5c([H])c([H])c(Oc6c([H])c([H])c(F)c([H])c6F)c([H])c5[H])c(C(=O)N([H])[H])c4N([H])[H])C3([H])[H])C3(C([H])([H])[N+]([H])([H])C([H])([H])[H])C([H])([H])C([H])([H])C([H])([H])C3([H])[H])c([H])c([H])c2C1([H])[H]

>  <smiles>  (23) 
[H]c1c([H])c([H])c2c(c1[H])C([H])([H])C([H])([H])C([H])([H])C2([H])N([H])C(=O)C1([H])N(C(=O)C([H])(N([H])C(=O)C([H])(N([H])C([H])([H])[H])C([H])([H])[H])C(C([H])([H])[H])(C([H])([H])[H])C([H])([H])[H])C([H])([H])c2c([H])c(OC([H])([H])C([H])([H])C([H])([H])C([H])([H])N(C([H])([H])C3([H])C([H])([H])C([H])([H])C([H])([H])C([H])([H])C3([H])N([H])C(=O)N3C([H])([H])C([H])([H])C([H])([H])C([H])(n4nc(-c5c([H])c([H])c(Oc6c([H])c([H])c(F)c([H])c6F)c([H])c5[H])c(C(=O)N([H])[H])c4N([H])[H])C3([H])[H])C3(C([H])([H])[N+]([H])([H])C([H])([H])[H])C([H])([H])C([H])([H])C([H])([H])C3([H])[H])c([H])c([H])c2C1([H])[H]

$$$$
23:0:0
     RDKit          3D

 96105  0  0  1  0  0  0  0  0999 V2000
  -30.7800  -21.9630   18.8580 C   0  0  0  0  0  2  0  0  0  0  0  0
  -28.3750  -22.1370   17.9580 C   0  0  0  0  0  2  0  0  0  0  0  0
  -31.1890  -22.9870   17.7840 C   0  0  0  0  0  2  0  0  0  0  0  0
  -28.9020  -23.1740   16.9450 C   0  0  0  0  0  2  0  0  0  0  0  0
  -29.4740  -21.1970   18.5180 C   0  0  0  0  0  3  0  0  0  0  0  0
  -30.0390  -23.8810   17.5720 N   0  0  2  0  0  4  0  0  0  0  0  0
  -29.7130  -24.0590   18.5080 H   0  0  0  0  0  0  0  0  0  0  0  0
  -28.9170  -20.4120   19.7340 C   0  0  0  0  0  2  0  0  0  0  0  0
  -30.1550  -16.8150   20.8610 C   0  0  0  0  0  3  0  0  0  0  0  0
  -29.1910  -17.9710   20.6420 C   0  0  0  0  0  0  0  0  0  0  0  0
  -31.5960  -17.3010   21.1500 C   0  0  0  0  0  2  0  0  0  0  0  0
  -31.6460  -18.6040   21.9940 C   0  0  0  0  0  2  0  0  0  0  0  0
  -30.7930  -19.7590   21.4180 C   0  0  0  0  0  2  0  0  0  0  0  0
  -29.8690  -19.3070   20.2660 C   0  0  0  0  0  3  0  0  0  0  0  0
  -29.7550  -15.5930   20.7850 N   0  0  0  0  0  2  0  0  0  0  0  0
  -27.9600  -17.8530   20.7110 O   0  0  0  0  0  0  0  0  0  0  0  0
  -30.6080  -14.5410   20.4640 C   0  0  0  0  0  0  0  0  0  0  0  0
  -30.3620  -12.3260   19.4150 C   0  0  0  0  0  2  0  0  0  0  0  0
  -29.4510  -12.5080   18.1830 C   0  0  0  0  0  2  0  0  0  0  0  0
  -27.9640  -12.3790   18.5750 C   0  0  0  0  0  2  0  0  0  0  0  0
  -27.5940  -13.2360   19.8160 C   0  0  0  0  0  3  0  0  0  0  0  0
  -28.6290  -13.0580   20.9490 C   0  0  0  0  0  2  0  0  0  0  0  0
  -29.9690  -13.3400   20.4040 N   0  0  0  0  0  0  0  0  0  0  0  0
  -31.7630  -14.6620   20.0460 O   0  0  0  0  0  0  0  0  0  0  0  0
  -25.1840  -13.8280   20.4950 C   0  0  0  0  0  0  0  0  0  0  0  0
  -24.1180  -13.0500   20.8530 C   0  0  0  0  0  0  0  0  0  0  0  0
  -24.5860  -11.7010   20.8330 C   0  0  0  0  0  0  0  0  0  0  0  0
  -26.2370  -12.9540   20.2780 N   0  0  0  0  0  0  0  0  0  0  0  0
  -25.8800  -11.6690   20.5370 N   0  0  0  0  0  0  0  0  0  0  0  0
  -23.8630  -10.4360   21.0230 C   0  0  0  0  0  0  0  0  0  0  0  0
  -24.2820   -9.4830   21.9780 C   0  0  0  0  0  3  0  0  0  0  0  0
  -23.5620   -8.2820   22.1540 C   0  0  0  0  0  3  0  0  0  0  0  0
  -22.4080   -8.0250   21.3760 C   0  0  0  0  0  0  0  0  0  0  0  0
  -22.0080   -8.9680   20.4110 C   0  0  0  0  0  3  0  0  0  0  0  0
  -22.7290  -10.1590   20.2340 C   0  0  0  0  0  3  0  0  0  0  0  0
  -21.6610   -6.8750   21.4630 O   0  0  0  0  0  0  0  0  0  0  0  0
  -21.5910   -6.1440   22.6230 C   0  0  0  0  0  0  0  0  0  0  0  0
  -21.1110   -6.7020   23.8280 C   0  0  0  0  0  3  0  0  0  0  0  0
  -20.9910   -5.8980   24.9770 C   0  0  0  0  0  3  0  0  0  0  0  0
  -21.3390   -4.5350   24.9240 C   0  0  0  0  0  0  0  0  0  0  0  0
  -21.8120   -3.9760   23.7240 C   0  0  0  0  0  3  0  0  0  0  0  0
  -21.9360   -4.7790   22.5760 C   0  0  0  0  0  0  0  0  0  0  0  0
  -22.3700   -4.2270   21.4160 F   0  0  0  0  0  0  0  0  0  0  0  0
  -21.2190   -3.7610   26.0270 F   0  0  0  0  0  0  0  0  0  0  0  0
  -22.7140  -13.5180   21.1110 C   0  0  0  0  0  0  0  0  0  0  0  0
  -21.9830  -12.8180   21.9700 N   0  0  0  0  0  0  0  0  0  0  0  0
  -22.2740  -14.5410   20.5860 O   0  0  0  0  0  0  0  0  0  0  0  0
  -22.3540  -11.9910   22.4140 H   0  0  0  0  0  0  0  0  0  0  0  0
  -21.0410  -13.1110   22.1840 H   0  0  0  0  0  0  0  0  0  0  0  0
  -25.3410  -15.1990   20.3190 N   0  0  0  0  0  0  0  0  0  0  0  0
  -24.5810  -15.8530   20.4630 H   0  0  0  0  0  0  0  0  0  0  0  0
  -26.2160  -15.6550   20.0820 H   0  0  0  0  0  0  0  0  0  0  0  0
  -30.3250  -25.2500   17.0890 C   0  0  0  0  0  2  0  0  0  0  0  0
  -30.1260  -26.2250   18.2680 C   0  0  0  0  0  2  0  0  0  0  0  0
  -28.6890  -26.1680   18.8070 C   0  0  0  0  0  2  0  0  0  0  0  0
  -28.5340  -26.9130   20.0120 O   0  0  0  0  0  0  0  0  0  0  0  0
  -24.6080  -31.9090   23.2410 C   0  0  0  0  0  0  0  0  0  0  0  0
  -27.3170  -27.5400   20.1360 C   0  0  0  0  0  0  0  0  0  0  0  0
  -23.4260  -30.5050   21.5860 C   0  0  0  0  0  3  0  0  0  0  0  0
  -24.8980  -28.9860   20.1800 C   0  0  0  0  0  0  0  0  0  0  0  0
  -25.9480  -30.8900   21.4060 C   0  0  0  0  0  2  0  0  0  0  0  0
  -26.0460  -29.5220   20.7740 C   0  0  0  0  0  0  0  0  0  0  0  0
  -27.2590  -28.7990   20.7660 C   0  0  0  0  0  3  0  0  0  0  0  0
  -26.1320  -26.9810   19.6020 C   0  0  0  0  0  3  0  0  0  0  0  0
  -24.9280  -27.7060   19.6070 C   0  0  0  0  0  3  0  0  0  0  0  0
  -23.6500  -29.8370   20.2070 C   0  0  0  0  0  2  0  0  0  0  0  0
  -24.6790  -31.1150   22.1370 N   0  0  0  0  0  0  0  0  0  0  0  0
  -23.5200  -32.1690   23.7730 O   0  0  0  0  0  0  0  0  0  0  0  0
  -22.7790  -29.4700   22.5330 C   0  0  0  0  0  0  0  0  0  0  0  0
  -21.4570  -29.2810   22.3990 N   0  0  0  0  0  0  0  0  0  0  0  0
  -23.4640  -28.8410   23.3440 O   0  0  0  0  0  0  0  0  0  0  0  0
  -20.9610  -29.8410   21.7190 H   0  0  0  0  0  0  0  0  0  0  0  0
  -18.0820  -28.1040   22.9160 C   0  0  0  0  0  0  0  0  0  0  0  0
  -20.6450  -28.3330   23.1610 C   0  0  0  0  0  3  0  0  0  0  0  0
  -20.7280  -26.9130   22.5540 C   0  0  0  0  0  2  0  0  0  0  0  0
  -19.6120  -26.6200   21.5470 C   0  0  0  0  0  2  0  0  0  0  0  0
  -18.2390  -26.7670   22.2090 C   0  0  0  0  0  2  0  0  0  0  0  0
  -19.2130  -28.8470   23.3490 C   0  0  0  0  0  0  0  0  0  0  0  0
  -19.0150  -30.1020   23.9660 C   0  0  0  0  0  3  0  0  0  0  0  0
  -17.7180  -30.6160   24.1490 C   0  0  0  0  0  3  0  0  0  0  0  0
  -16.6010  -29.8700   23.7340 C   0  0  0  0  0  3  0  0  0  0  0  0
  -16.7850  -28.6160   23.1250 C   0  0  0  0  0  3  0  0  0  0  0  0
  -25.8840  -32.5480   23.8690 C   0  0  0  0  0  3  0  0  0  0  0  0
  -25.5660  -33.9470   24.1820 N   0  0  0  0  0  0  0  0  0  0  0  0
  -25.9110  -34.9940   23.4200 C   0  0  0  0  0  0  0  0  0  0  0  0
  -26.6020  -34.8860   22.4020 O   0  0  0  0  0  0  0  0  0  0  0  0
  -24.9560  -34.1100   24.9690 H   0  0  0  0  0  0  0  0  0  0  0  0
  -24.1920  -36.7820   23.0050 C   0  0  0  0  0  1  0  0  0  0  0  0
  -25.4060  -36.3830   23.8580 C   0  0  0  0  0  3  0  0  0  0  0  0
  -27.5130  -37.2690   24.7540 C   0  0  0  0  0  1  0  0  0  0  0  0
  -26.4390  -37.4360   23.7780 N   0  0  0  0  0  0  0  0  0  0  0  0
  -26.0280  -38.3570   23.9130 H   0  0  0  0  0  0  0  0  0  0  0  0
  -26.3930  -31.7900   25.1560 C   0  0  1  0  0  0  0  0  0  0  0  0
  -25.2890  -31.5450   26.2100 C   0  0  0  0  0  1  0  0  0  0  0  0
  -26.9940  -30.4170   24.7770 C   0  0  0  0  0  1  0  0  0  0  0  0
  -27.5300  -32.5960   25.8250 C   0  0  0  0  0  1  0  0  0  0  0  0
  2  5  1  0
  3  1  1  0
  4  6  1  0
  4  2  1  0
  5  1  1  0
  5  8  1  0
  6  3  1  0
  6  7  1  1
  9 15  1  0
  9 11  1  0
 10 16  2  0
 10  9  1  0
 11 12  1  0
 13 12  1  0
 14  8  1  0
 14 10  1  0
 14 13  1  0
 17 15  1  0
 18 23  1  0
 19 20  1  0
 19 18  1  0
 21 20  1  0
 21 28  1  0
 21 22  1  0
 23 17  1  0
 23 22  1  0
 24 17  2  0
 25 26  2  0
 26 45  1  0
 27 26  1  0
 27 30  1  0
 28 25  1  0
 28 29  1  0
 29 27  2  0
 30 31  1  0
 31 32  2  0
 33 36  1  0
 33 32  1  0
 34 33  2  0
 35 34  1  0
 35 30  2  0
 36 37  1  0
 37 38  1  0
 38 39  2  0
 40 39  1  0
 40 44  1  0
 41 40  2  0
 42 37  2  0
 42 41  1  0
 43 42  1  0
 45 46  1  0
 46 49  1  0
 46 48  1  0
 47 45  2  0
 50 51  1  0
 50 25  1  0
 52 50  1  0
 53  6  1  0
 53 54  1  0
 54 55  1  0
 55 56  1  0
 56 58  1  0
 57 68  2  0
 58 63  1  0
 59 67  1  0
 59 69  1  0
 60 66  1  0
 60 62  1  0
 61 67  1  0
 62 61  1  0
 63 62  2  0
 64 65  1  0
 64 58  2  0
 65 60  2  0
 66 59  1  0
 67 57  1  0
 69 71  2  0
 70 69  1  0
 72 70  1  0
 73 82  2  0
 73 78  1  0
 74 70  1  0
 74 78  1  0
 75 74  1  0
 76 77  1  0
 76 75  1  0
 77 73  1  0
 78 79  2  0
 79 80  1  0
 81 80  2  0
 82 81  1  0
 83 57  1  0
 83 84  1  0
 83 93  1  0
 84 87  1  0
 85 89  1  0
 85 84  1  0
 86 85  2  0
 89 88  1  0
 91 89  1  0
 91 92  1  0
 91 90  1  0
 93 96  1  1
 93 94  1  0
 95 93  1  0
M  ISO  4  15 100  17 100  55 101  56 101
M  END
>  <TORSDO>  (24) 
F 21

>  <SCORE>  (24) 
-13.619

>  <name>  (24) 
23

>  <ligand_id>  (24) 
23

>  <original_smiles>  (24) 
[H]c1c([H])c([H])c2c(c1[H])C([H])([H])C([H])([H])C([H])([H])C2([H])N([H])C(=O)C1([H])N(C(=O)C([H])(N([H])C(=O)C([H])(N([H])C([H])([H])[H])C([H])([H])[H])C(C([H])([H])[H])(C([H])([H])[H])C([H])([H])[H])C([H])([H])c2c([H])c(OC([H])([H])C([H])([H])C([H])([H])[N+]3([H])C([H])([H])C([H])([H])C([H])(C([H])([H])C4([H])C(=O)C(=NC(=O)N5C([H])([H])C([H])([H])C([H])([H])C([H])(n6nc(-c7c([H])c([H])c(Oc8c([H])c([H])c(F)c([H])c8F)c([H])c7[H])c(C(=O)N([H])[H])c6N([H])[H])C5([H])[H])C([H])([H])C([H])([H])C4([H])[H])C([H])([H])C3([H])[H])c([H])c([H])c2C1([H])[H]

>  <smiles>  (24) 
[H]c1c([H])c([H])c2c(c1[H])C([H])([H])C([H])([H])C([H])([H])C2([H])N([H])C(=O)C1([H])N(C(=O)C([H])(N([H])C(=O)C([H])(N([H])C([H])([H])[H])C([H])([H])[H])C(C([H])([H])[H])(C([H])([H])[H])C([H])([H])[H])C([H])([H])c2c([H])c(OC([H])([H])C([H])([H])C([H])([H])[N+]3([H])C([H])([H])C([H])([H])C([H])(C([H])([H])C4([H])C(=O)C(=NC(=O)N5C([H])([H])C([H])([H])C([H])([H])C([H])(n6nc(-c7c([H])c([H])c(Oc8c([H])c([H])c(F)c([H])c8F)c([H])c7[H])c(C(=O)N([H])[H])c6N([H])[H])C5([H])[H])C([H])([H])C([H])([H])C4([H])[H])C([H])([H])C3([H])[H])c([H])c([H])c2C1([H])[H]

$$$$
24:0:0
     RDKit          3D

 90 98  0  0  1  0  0  0  0  0999 V2000
  -29.2800  -22.0690   20.0250 C   0  0  0  0  0  0  0  0  0  0  0  0
  -29.5970  -24.5450   19.3010 C   0  0  0  0  0  0  0  0  0  0  0  0
  -29.5860  -23.0560   18.8830 C   0  0  0  0  0  2  0  0  0  0  0  0
  -28.6480  -22.7470   21.2690 C   0  0  0  0  0  2  0  0  0  0  0  0
  -27.8440  -24.1000   21.0290 C   0  0  0  0  0  2  0  0  0  0  0  0
  -28.2790  -25.0780   19.8800 C   0  0  0  0  0  3  0  0  0  0  0  0
  -29.6020  -20.8140   19.8640 N   0  0  0  0  0  0  0  0  0  0  0  0
  -30.5920  -25.2610   19.1460 O   0  0  0  0  0  0  0  0  0  0  0  0
  -28.3440  -26.5250   20.1970 O   0  0  0  0  0  0  0  0  0  0  0  0
  -24.6120  -31.8830   23.2330 C   0  0  0  0  0  0  0  0  0  0  0  0
  -27.1950  -27.3280   20.1640 C   0  0  0  0  0  0  0  0  0  0  0  0
  -23.3920  -30.4870   21.6010 C   0  0  0  0  0  3  0  0  0  0  0  0
  -24.8280  -28.9340   20.1700 C   0  0  0  0  0  0  0  0  0  0  0  0
  -25.9290  -30.8050   21.3990 C   0  0  0  0  0  2  0  0  0  0  0  0
  -26.0000  -29.4260   20.7540 C   0  0  0  0  0  0  0  0  0  0  0  0
  -27.1860  -28.6350   20.7400 C   0  0  0  0  0  3  0  0  0  0  0  0
  -25.9900  -26.8800   19.5710 C   0  0  0  0  0  3  0  0  0  0  0  0
  -24.8250  -27.6660   19.5710 C   0  0  0  0  0  3  0  0  0  0  0  0
  -23.5950  -29.8110   20.2200 C   0  0  0  0  0  2  0  0  0  0  0  0
  -24.6630  -31.0760   22.1350 N   0  0  0  0  0  0  0  0  0  0  0  0
  -23.5330  -32.1630   23.7760 O   0  0  0  0  0  0  0  0  0  0  0  0
  -22.7360  -29.4700   22.5660 C   0  0  0  0  0  0  0  0  0  0  0  0
  -21.4080  -29.2970   22.4480 N   0  0  0  0  0  0  0  0  0  0  0  0
  -23.4180  -28.8420   23.3790 O   0  0  0  0  0  0  0  0  0  0  0  0
  -20.9170  -29.8550   21.7610 H   0  0  0  0  0  0  0  0  0  0  0  0
  -18.0300  -28.1140   22.9650 C   0  0  0  0  0  0  0  0  0  0  0  0
  -20.5900  -28.3650   23.2250 C   0  0  0  0  0  3  0  0  0  0  0  0
  -20.6850  -26.9310   22.6520 C   0  0  0  0  0  2  0  0  0  0  0  0
  -19.5780  -26.6100   21.6450 C   0  0  0  0  0  2  0  0  0  0  0  0
  -18.1990  -26.7610   22.2940 C   0  0  0  0  0  2  0  0  0  0  0  0
  -19.1520  -28.8740   23.3880 C   0  0  0  0  0  0  0  0  0  0  0  0
  -18.9410  -30.1380   23.9770 C   0  0  0  0  0  3  0  0  0  0  0  0
  -17.6390  -30.6450   24.1470 C   0  0  0  0  0  3  0  0  0  0  0  0
  -16.5300  -29.8820   23.7410 C   0  0  0  0  0  3  0  0  0  0  0  0
  -16.7260  -28.6190   23.1560 C   0  0  0  0  0  3  0  0  0  0  0  0
  -25.9000  -32.5120   23.8450 C   0  0  0  0  0  3  0  0  0  0  0  0
  -26.4290  -31.7350   25.1120 C   0  0  1  0  0  0  0  0  0  0  0  0
  -25.3480  -31.4930   26.1910 C   0  0  0  0  0  1  0  0  0  0  0  0
  -27.0070  -30.3590   24.7090 C   0  0  0  0  0  1  0  0  0  0  0  0
  -27.5880  -32.5250   25.7660 C   0  0  0  0  0  1  0  0  0  0  0  0
  -25.5940  -33.9080   24.1860 N   0  0  0  0  0  0  0  0  0  0  0  0
  -25.9150  -34.9650   23.4280 C   0  0  0  0  0  0  0  0  0  0  0  0
  -26.5730  -34.8670   22.3880 O   0  0  0  0  0  0  0  0  0  0  0  0
  -25.0100  -34.0590   24.9960 H   0  0  0  0  0  0  0  0  0  0  0  0
  -24.1800  -36.7560   23.1040 C   0  0  0  0  0  1  0  0  0  0  0  0
  -25.4330  -36.3510   23.8970 C   0  0  0  0  0  3  0  0  0  0  0  0
  -27.5770  -37.2330   24.7030 C   0  0  0  0  0  1  0  0  0  0  0  0
  -26.4630  -37.4050   23.7740 N   0  0  0  0  0  0  0  0  0  0  0  0
  -26.0580  -38.3240   23.9320 H   0  0  0  0  0  0  0  0  0  0  0  0
  -29.5640  -19.7350   20.8910 C   0  0  0  0  0  2  0  0  0  0  0  0
  -29.6200  -18.2620   20.2780 C   0  0  0  0  0  2  0  0  0  0  0  0
  -30.1850  -17.0890   21.1900 C   0  0  0  0  0  2  0  0  0  0  0  0
  -30.6110  -14.6170   20.4460 C   0  0  0  0  0  0  0  0  0  0  0  0
  -30.3840  -12.4000   19.3360 C   0  0  0  0  0  2  0  0  0  0  0  0
  -29.4410  -12.5420   18.1210 C   0  0  0  0  0  2  0  0  0  0  0  0
  -27.9670  -12.3870   18.5480 C   0  0  0  0  0  2  0  0  0  0  0  0
  -27.6120  -13.2460   19.7910 C   0  0  0  0  0  3  0  0  0  0  0  0
  -28.6660  -13.0730   20.9070 C   0  0  0  0  0  2  0  0  0  0  0  0
  -29.9760  -13.4110   20.3300 N   0  0  0  0  0  0  0  0  0  0  0  0
  -31.7770  -14.7780   20.0730 O   0  0  0  0  0  0  0  0  0  0  0  0
  -29.8320  -15.6690   20.8400 N   0  0  0  0  0  0  0  0  0  0  0  0
  -28.8800  -15.4050   21.0460 H   0  0  0  0  0  0  0  0  0  0  0  0
  -25.2150  -13.8570   20.4920 C   0  0  0  0  0  0  0  0  0  0  0  0
  -24.1450  -13.0890   20.8620 C   0  0  0  0  0  0  0  0  0  0  0  0
  -24.6060  -11.7370   20.8470 C   0  0  0  0  0  0  0  0  0  0  0  0
  -26.2600  -12.9730   20.2710 N   0  0  0  0  0  0  0  0  0  0  0  0
  -25.8970  -11.6930   20.5440 N   0  0  0  0  0  0  0  0  0  0  0  0
  -23.8770  -10.4780   21.0430 C   0  0  0  0  0  0  0  0  0  0  0  0
  -24.3160   -9.5060   21.9700 C   0  0  0  0  0  3  0  0  0  0  0  0
  -23.5870   -8.3120   22.1550 C   0  0  0  0  0  3  0  0  0  0  0  0
  -22.4050   -8.0780   21.4100 C   0  0  0  0  0  0  0  0  0  0  0  0
  -21.9860   -9.0390   20.4730 C   0  0  0  0  0  3  0  0  0  0  0  0
  -22.7160  -10.2250   20.2860 C   0  0  0  0  0  3  0  0  0  0  0  0
  -21.6480   -6.9360   21.5030 O   0  0  0  0  0  0  0  0  0  0  0  0
  -21.6220   -6.1820   22.6490 C   0  0  0  0  0  0  0  0  0  0  0  0
  -21.2390   -6.7300   23.8930 C   0  0  0  0  0  3  0  0  0  0  0  0
  -21.1570   -5.9040   25.0310 C   0  0  0  0  0  3  0  0  0  0  0  0
  -21.4490   -4.5300   24.9270 C   0  0  0  0  0  0  0  0  0  0  0  0
  -21.8250   -3.9810   23.6880 C   0  0  0  0  0  3  0  0  0  0  0  0
  -21.9090   -4.8050   22.5530 C   0  0  0  0  0  0  0  0  0  0  0  0
  -22.2510   -4.2670   21.3570 F   0  0  0  0  0  0  0  0  0  0  0  0
  -21.3640   -3.7340   26.0190 F   0  0  0  0  0  0  0  0  0  0  0  0
  -22.7460  -13.5710   21.1230 C   0  0  0  0  0  0  0  0  0  0  0  0
  -22.0120  -12.8860   21.9930 N   0  0  0  0  0  0  0  0  0  0  0  0
  -22.3130  -14.5930   20.5920 O   0  0  0  0  0  0  0  0  0  0  0  0
  -22.3720  -12.0600   22.4470 H   0  0  0  0  0  0  0  0  0  0  0  0
  -21.0750  -13.1950   22.2100 H   0  0  0  0  0  0  0  0  0  0  0  0
  -25.3820  -15.2270   20.3030 N   0  0  0  0  0  0  0  0  0  0  0  0
  -24.6130  -15.8800   20.4010 H   0  0  0  0  0  0  0  0  0  0  0  0
  -26.2260  -15.6610   19.9500 H   0  0  0  0  0  0  0  0  0  0  0  0
  1  4  1  0
  2  6  1  0
  3  2  1  0
  3  1  1  0
  5  4  1  0
  6  9  1  0
  6  5  1  0
  7  1  2  0
  7 50  1  0
  8  2  2  0
 10 21  2  0
 11  9  1  0
 11 16  1  0
 12 20  1  0
 12 22  1  0
 13 19  1  0
 13 15  1  0
 14 20  1  0
 15 14  1  0
 16 15  2  0
 17 11  2  0
 18 17  1  0
 18 13  2  0
 19 12  1  0
 20 10  1  0
 22 24  2  0
 23 22  1  0
 25 23  1  0
 26 35  2  0
 26 31  1  0
 27 23  1  0
 27 31  1  0
 28 27  1  0
 29 30  1  0
 29 28  1  0
 30 26  1  0
 31 32  2  0
 32 33  1  0
 34 33  2  0
 35 34  1  0
 36 10  1  0
 36 41  1  0
 36 37  1  0
 37 40  1  1
 37 38  1  0
 39 37  1  0
 41 44  1  0
 42 46  1  0
 42 41  1  0
 43 42  2  0
 46 45  1  0
 48 46  1  0
 48 49  1  0
 48 47  1  0
 51 50  1  0
 51 52  1  0
 53 61  1  0
 54 59  1  0
 55 56  1  0
 55 54  1  0
 57 56  1  0
 57 66  1  0
 57 58  1  0
 59 53  1  0
 59 58  1  0
 60 53  2  0
 61 62  1  0
 61 52  1  0
 63 64  2  0
 64 83  1  0
 65 64  1  0
 65 68  1  0
 66 63  1  0
 66 67  1  0
 67 65  2  0
 68 69  1  0
 69 70  2  0
 71 74  1  0
 71 70  1  0
 72 71  2  0
 73 72  1  0
 73 68  2  0
 74 75  1  0
 75 76  1  0
 76 77  2  0
 78 77  1  0
 78 82  1  0
 79 78  2  0
 80 75  2  0
 80 79  1  0
 81 80  1  0
 83 84  1  0
 84 87  1  0
 84 86  1  0
 85 83  2  0
 88 89  1  0
 88 63  1  0
 90 88  1  0
M  ISO  4   6 101   9 101  53 100  61 100
M  END
>  <TORSDO>  (25) 
F 19

>  <SCORE>  (25) 
-14.171

>  <name>  (25) 
24

>  <ligand_id>  (25) 
24

>  <original_smiles>  (25) 
[H]c1c([H])c([H])c2c(c1[H])C([H])([H])C([H])([H])C([H])([H])C2([H])N([H])C(=O)C1([H])N(C(=O)C([H])(N([H])C(=O)C([H])(N([H])C([H])([H])[H])C([H])([H])[H])C(C([H])([H])[H])(C([H])([H])[H])C([H])([H])[H])C([H])([H])c2c([H])c(OC3([H])C(=O)C([H])([H])C(=NC([H])([H])C([H])([H])C([H])([H])N([H])C(=O)N4C([H])([H])C([H])([H])C([H])([H])C([H])(n5nc(-c6c([H])c([H])c(Oc7c([H])c([H])c(F)c([H])c7F)c([H])c6[H])c(C(=O)N([H])[H])c5N([H])[H])C4([H])[H])C([H])([H])C3([H])[H])c([H])c([H])c2C1([H])[H]

>  <smiles>  (25) 
[H]c1c([H])c([H])c2c(c1[H])C([H])([H])C([H])([H])C([H])([H])C2([H])N([H])C(=O)C1([H])N(C(=O)C([H])(N([H])C(=O)C([H])(N([H])C([H])([H])[H])C([H])([H])[H])C(C([H])([H])[H])(C([H])([H])[H])C([H])([H])[H])C([H])([H])c2c([H])c(OC3([H])C(=O)C([H])([H])C(=NC([H])([H])C([H])([H])C([H])([H])N([H])C(=O)N4C([H])([H])C([H])([H])C([H])([H])C([H])(n5nc(-c6c([H])c([H])c(Oc7c([H])c([H])c(F)c([H])c7F)c([H])c6[H])c(C(=O)N([H])[H])c5N([H])[H])C4([H])[H])C([H])([H])C3([H])[H])c([H])c([H])c2C1([H])[H]

$$$$
25:0:0
     RDKit          3D

 98107  0  0  1  0  0  0  0  0999 V2000
  -24.3570  -23.3810   23.4840 C   0  0  0  0  0  2  0  0  0  0  0  0
  -25.8510  -22.1800   25.1810 C   0  0  0  0  0  2  0  0  0  0  0  0
  -25.3730  -24.5080   23.7850 C   0  0  0  0  0  2  0  0  0  0  0  0
  -27.0860  -22.8950   24.5870 C   0  0  0  0  0  2  0  0  0  0  0  0
  -24.6410  -22.0540   24.2340 C   0  0  0  0  0  3  0  0  0  0  0  0
  -26.7710  -24.0140   23.6480 N   0  0  2  0  0  4  0  0  0  0  0  0
  -26.8180  -23.6150   22.7230 H   0  0  0  0  0  0  0  0  0  0  0  0
  -24.6910  -20.7920   23.3350 C   0  0  0  0  0  2  0  0  0  0  0  0
  -25.8400  -19.5160   21.4740 C   0  0  0  0  0  3  0  0  0  0  0  0
  -25.0960  -21.1790   20.7440 C   0  0  0  0  0  2  0  0  0  0  0  0
  -25.6450  -20.8590   22.1350 C   0  0  0  0  0  3  0  0  0  0  0  0
  -25.3140  -19.7330   20.3570 N   0  0  0  0  0  2  0  0  0  0  0  0
  -26.4980  -18.2660   22.0150 C   0  0  0  0  0  2  0  0  0  0  0  0
  -28.0240  -18.1950   21.7940 C   0  0  0  0  0  2  0  0  0  0  0  0
  -28.5380  -16.7720   22.0650 C   0  0  0  0  0  2  0  0  0  0  0  0
  -30.0210  -16.5180   21.7310 C   0  0  0  0  0  2  0  0  0  0  0  0
  -30.7260  -14.3530   20.7080 C   0  0  0  0  0  0  0  0  0  0  0  0
  -30.4220  -12.2750   19.4050 C   0  0  0  0  0  2  0  0  0  0  0  0
  -29.4910  -12.5320   18.2030 C   0  0  0  0  0  2  0  0  0  0  0  0
  -28.0130  -12.3700   18.6100 C   0  0  0  0  0  2  0  0  0  0  0  0
  -27.6690  -13.1870   19.8820 C   0  0  0  0  0  3  0  0  0  0  0  0
  -28.6950  -12.8970   21.0000 C   0  0  0  0  0  2  0  0  0  0  0  0
  -30.0520  -13.1960   20.4860 N   0  0  0  0  0  0  0  0  0  0  0  0
  -31.7090  -14.7220   20.0520 O   0  0  0  0  0  0  0  0  0  0  0  0
  -30.2120  -15.0730   21.7070 N   0  0  0  0  0  0  0  0  0  0  0  0
  -29.5520  -14.5530   22.2670 H   0  0  0  0  0  0  0  0  0  0  0  0
  -25.2570  -13.8050   20.5540 C   0  0  0  0  0  0  0  0  0  0  0  0
  -24.1820  -13.0380   20.9130 C   0  0  0  0  0  0  0  0  0  0  0  0
  -24.6370  -11.6860   20.8710 C   0  0  0  0  0  0  0  0  0  0  0  0
  -26.3030  -12.9230   20.3320 N   0  0  0  0  0  0  0  0  0  0  0  0
  -25.9290  -11.6410   20.5730 N   0  0  0  0  0  0  0  0  0  0  0  0
  -23.9040  -10.4270   21.0380 C   0  0  0  0  0  0  0  0  0  0  0  0
  -24.3590   -9.4190   21.9160 C   0  0  0  0  0  3  0  0  0  0  0  0
  -23.6280   -8.2230   22.0740 C   0  0  0  0  0  3  0  0  0  0  0  0
  -22.4260   -8.0270   21.3530 C   0  0  0  0  0  0  0  0  0  0  0  0
  -21.9880   -9.0230   20.4620 C   0  0  0  0  0  3  0  0  0  0  0  0
  -22.7210  -10.2110   20.3020 C   0  0  0  0  0  3  0  0  0  0  0  0
  -21.6640   -6.8860   21.4230 O   0  0  0  0  0  0  0  0  0  0  0  0
  -21.6850   -6.0730   22.5270 C   0  0  0  0  0  0  0  0  0  0  0  0
  -21.4040   -6.5640   23.8210 C   0  0  0  0  0  3  0  0  0  0  0  0
  -21.3660   -5.6780   24.9160 C   0  0  0  0  0  3  0  0  0  0  0  0
  -21.6020   -4.3040   24.7210 C   0  0  0  0  0  0  0  0  0  0  0  0
  -21.8840   -3.8140   23.4340 C   0  0  0  0  0  3  0  0  0  0  0  0
  -21.9210   -4.6960   22.3400 C   0  0  0  0  0  0  0  0  0  0  0  0
  -22.1670   -4.2150   21.0970 F   0  0  0  0  0  0  0  0  0  0  0  0
  -21.5610   -3.4520   25.7720 F   0  0  0  0  0  0  0  0  0  0  0  0
  -22.7860  -13.5200   21.1830 C   0  0  0  0  0  0  0  0  0  0  0  0
  -22.0540  -12.8180   22.0420 N   0  0  0  0  0  0  0  0  0  0  0  0
  -22.3560  -14.5520   20.6720 O   0  0  0  0  0  0  0  0  0  0  0  0
  -22.4180  -11.9800   22.4730 H   0  0  0  0  0  0  0  0  0  0  0  0
  -21.1160  -13.1170   22.2660 H   0  0  0  0  0  0  0  0  0  0  0  0
  -25.4260  -15.1720   20.3790 N   0  0  0  0  0  0  0  0  0  0  0  0
  -24.6530  -15.8210   20.4650 H   0  0  0  0  0  0  0  0  0  0  0  0
  -26.2770  -15.6120   20.0570 H   0  0  0  0  0  0  0  0  0  0  0  0
  -27.8330  -25.0620   23.7070 C   0  0  0  0  0  2  0  0  0  0  0  0
  -27.8140  -26.1370   22.5950 C   0  0  0  0  0  2  0  0  0  0  0  0
  -28.1940  -25.6450   21.1690 C   0  0  0  0  0  2  0  0  0  0  0  0
  -28.3490  -26.7120   20.2180 O   0  0  0  0  0  0  0  0  0  0  0  0
  -24.6070  -31.8700   23.2160 C   0  0  0  0  0  0  0  0  0  0  0  0
  -27.2210  -27.4790   20.1050 C   0  0  0  0  0  0  0  0  0  0  0  0
  -23.3920  -30.4900   21.5600 C   0  0  0  0  0  3  0  0  0  0  0  0
  -24.8360  -28.9700   20.1090 C   0  0  0  0  0  0  0  0  0  0  0  0
  -25.9130  -30.8530   21.3590 C   0  0  0  0  0  2  0  0  0  0  0  0
  -25.9930  -29.4970   20.6960 C   0  0  0  0  0  0  0  0  0  0  0  0
  -27.1950  -28.7620   20.6830 C   0  0  0  0  0  3  0  0  0  0  0  0
  -26.0590  -26.9560   19.5010 C   0  0  0  0  0  3  0  0  0  0  0  0
  -24.8630  -27.6990   19.5030 C   0  0  0  0  0  3  0  0  0  0  0  0
  -23.5920  -29.8250   20.1710 C   0  0  0  0  0  2  0  0  0  0  0  0
  -24.6560  -31.0840   22.1040 N   0  0  0  0  0  0  0  0  0  0  0  0
  -23.5270  -32.1430   23.7600 O   0  0  0  0  0  0  0  0  0  0  0  0
  -22.7400  -29.4600   22.5080 C   0  0  0  0  0  0  0  0  0  0  0  0
  -21.4130  -29.2970   22.3830 N   0  0  0  0  0  0  0  0  0  0  0  0
  -23.4210  -28.8110   23.3060 O   0  0  0  0  0  0  0  0  0  0  0  0
  -20.9260  -29.8750   21.7140 H   0  0  0  0  0  0  0  0  0  0  0  0
  -18.0230  -28.1330   22.8550 C   0  0  0  0  0  0  0  0  0  0  0  0
  -20.5840  -28.3550   23.1340 C   0  0  0  0  0  3  0  0  0  0  0  0
  -20.6740  -26.9270   22.5390 C   0  0  0  0  0  2  0  0  0  0  0  0
  -19.5580  -26.6100   21.5390 C   0  0  0  0  0  2  0  0  0  0  0  0
  -18.1790  -26.7820   22.1820 C   0  0  0  0  0  2  0  0  0  0  0  0
  -19.1510  -28.8750   23.2930 C   0  0  0  0  0  0  0  0  0  0  0  0
  -18.9500  -30.1360   23.8940 C   0  0  0  0  0  3  0  0  0  0  0  0
  -17.6530  -30.6550   24.0590 C   0  0  0  0  0  3  0  0  0  0  0  0
  -16.5380  -29.9090   23.6370 C   0  0  0  0  0  3  0  0  0  0  0  0
  -16.7230  -28.6500   23.0400 C   0  0  0  0  0  3  0  0  0  0  0  0
  -25.8990  -32.4820   23.8420 C   0  0  0  0  0  3  0  0  0  0  0  0
  -26.4450  -31.6570   25.0720 C   0  0  1  0  0  0  0  0  0  0  0  0
  -25.3740  -31.3660   26.1500 C   0  0  0  0  0  1  0  0  0  0  0  0
  -27.0290  -30.3020   24.6060 C   0  0  0  0  0  1  0  0  0  0  0  0
  -27.6030  -32.4280   25.7480 C   0  0  0  0  0  1  0  0  0  0  0  0
  -25.5890  -33.8630   24.2360 N   0  0  0  0  0  0  0  0  0  0  0  0
  -25.9030  -34.9470   23.5150 C   0  0  0  0  0  0  0  0  0  0  0  0
  -26.5570  -34.8910   22.4700 O   0  0  0  0  0  0  0  0  0  0  0  0
  -25.0130  -33.9800   25.0580 H   0  0  0  0  0  0  0  0  0  0  0  0
  -24.1500  -36.7310   23.2640 C   0  0  0  0  0  1  0  0  0  0  0  0
  -25.4110  -36.3110   24.0350 C   0  0  0  0  0  3  0  0  0  0  0  0
  -27.5590  -37.1810   24.8470 C   0  0  0  0  0  1  0  0  0  0  0  0
  -26.4300  -37.3780   23.9420 N   0  0  0  0  0  0  0  0  0  0  0  0
  -26.0200  -38.2860   24.1380 H   0  0  0  0  0  0  0  0  0  0  0  0
  1  3  1  0
  1  5  1  0
  4  2  1  0
  5  8  1  0
  5  2  1  0
  6 55  1  0
  6  3  1  0
  6  4  1  0
  6  7  1  6
  9 13  1  0
  9 11  1  0
 10 11  1  0
 11  8  1  0
 12 10  1  0
 12  9  1  0
 14 13  1  0
 14 15  1  0
 16 15  1  0
 17 25  1  0
 18 23  1  0
 19 20  1  0
 19 18  1  0
 21 20  1  0
 21 30  1  0
 21 22  1  0
 23 17  1  0
 23 22  1  0
 24 17  2  0
 25 16  1  0
 25 26  1  0
 27 28  2  0
 28 47  1  0
 29 28  1  0
 29 32  1  0
 30 27  1  0
 30 31  1  0
 31 29  2  0
 32 33  1  0
 33 34  2  0
 35 38  1  0
 35 34  1  0
 36 35  2  0
 37 36  1  0
 37 32  2  0
 38 39  1  0
 39 40  1  0
 40 41  2  0
 42 41  1  0
 42 46  1  0
 43 42  2  0
 44 39  2  0
 44 43  1  0
 45 44  1  0
 47 48  1  0
 48 51  1  0
 48 50  1  0
 49 47  2  0
 52 53  1  0
 52 27  1  0
 54 52  1  0
 56 55  1  0
 57 56  1  0
 58 57  1  0
 59 70  2  0
 60 58  1  0
 60 65  1  0
 61 69  1  0
 61 71  1  0
 62 68  1  0
 62 64  1  0
 63 69  1  0
 64 63  1  0
 65 64  2  0
 66 67  1  0
 66 60  2  0
 67 62  2  0
 68 61  1  0
 69 59  1  0
 71 73  2  0
 72 71  1  0
 74 72  1  0
 75 84  2  0
 75 80  1  0
 76 72  1  0
 76 80  1  0
 77 76  1  0
 78 79  1  0
 78 77  1  0
 79 75  1  0
 80 81  2  0
 81 82  1  0
 83 82  2  0
 84 83  1  0
 85 59  1  0
 85 90  1  0
 85 86  1  0
 86 89  1  1
 86 87  1  0
 88 86  1  0
 90 93  1  0
 91 95  1  0
 91 90  1  0
 92 91  2  0
 95 94  1  0
 97 95  1  0
 97 98  1  0
 97 96  1  0
M  ISO  4  17 100  25 100  57 101  58 101
M  END
>  <TORSDO>  (26) 
F 25

>  <SCORE>  (26) 
49.815

>  <name>  (26) 
25

>  <ligand_id>  (26) 
25

>  <original_smiles>  (26) 
[H]c1c([H])c([H])c2c(c1[H])C([H])([H])C([H])([H])C([H])([H])C2([H])N([H])C(=O)C1([H])N(C(=O)C([H])(N([H])C(=O)C([H])(N([H])C([H])([H])[H])C([H])([H])[H])C(C([H])([H])[H])(C([H])([H])[H])C([H])([H])[H])C([H])([H])c2c([H])c(OC([H])([H])C([H])([H])C([H])([H])[N+]3([H])C([H])([H])C([H])([H])C([H])(C([H])([H])C4([H])C(C([H])([H])C([H])([H])C([H])([H])C([H])([H])N([H])C(=O)N5C([H])([H])C([H])([H])C([H])([H])C([H])(n6nc(-c7c([H])c([H])c(Oc8c([H])c([H])c(F)c([H])c8F)c([H])c7[H])c(C(=O)N([H])[H])c6N([H])[H])C5([H])[H])=NC4([H])[H])C([H])([H])C3([H])[H])c([H])c([H])c2C1([H])[H]

>  <smiles>  (26) 
[H]c1c([H])c([H])c2c(c1[H])C([H])([H])C([H])([H])C([H])([H])C2([H])N([H])C(=O)C1([H])N(C(=O)C([H])(N([H])C(=O)C([H])(N([H])C([H])([H])[H])C([H])([H])[H])C(C([H])([H])[H])(C([H])([H])[H])C([H])([H])[H])C([H])([H])c2c([H])c(OC([H])([H])C([H])([H])C([H])([H])[N+]3([H])C([H])([H])C([H])([H])C([H])(C([H])([H])C4([H])C(C([H])([H])C([H])([H])C([H])([H])C([H])([H])N([H])C(=O)N5C([H])([H])C([H])([H])C([H])([H])C([H])(n6nc(-c7c([H])c([H])c(Oc8c([H])c([H])c(F)c([H])c8F)c([H])c7[H])c(C(=O)N([H])[H])c6N([H])[H])C5([H])[H])=NC4([H])[H])C([H])([H])C3([H])[H])c([H])c([H])c2C1([H])[H]

$$$$
26:0:0
     RDKit          3D

 97105  0  0  1  0  0  0  0  0999 V2000
  -29.8340  -20.7250   22.2200 C   0  0  0  0  0  2  0  0  0  0  0  0
  -29.0970  -21.9080   22.8700 C   0  0  0  0  0  2  0  0  0  0  0  0
  -31.9030  -21.2700   23.5760 C   0  0  0  0  0  2  0  0  0  0  0  0
  -30.9450  -20.1460   23.1260 C   0  0  0  0  0  3  0  0  0  0  0  0
  -30.0840  -23.0190   23.2880 C   0  0  0  0  0  3  0  0  0  0  0  0
  -31.1700  -22.4560   24.2420 C   0  0  0  0  0  3  0  0  0  0  0  0
  -30.6220  -22.0830   25.5630 N   0  0  0  0  0  4  0  0  0  0  0  0
  -29.9100  -21.3790   25.4800 H   0  0  0  0  0  0  0  0  0  0  0  0
  -30.2210  -22.8830   26.0200 H   0  0  0  0  0  0  0  0  0  0  0  0
  -31.3520  -21.7280   26.1540 H   0  0  0  0  0  0  0  0  0  0  0  0
  -31.7070  -19.0070   22.4140 C   0  0  0  0  0  2  0  0  0  0  0  0
  -31.1610  -17.6100   22.7590 C   0  0  0  0  0  2  0  0  0  0  0  0
  -31.3010  -16.6020   21.6070 C   0  0  0  0  0  2  0  0  0  0  0  0
  -31.2950  -15.1470   22.1100 C   0  0  0  0  0  2  0  0  0  0  0  0
  -30.5830  -13.7630   20.1110 C   0  0  0  0  0  0  0  0  0  0  0  0
  -29.9970  -11.8360   18.6830 C   0  0  0  0  0  2  0  0  0  0  0  0
  -28.9230  -12.1360   17.6250 C   0  0  0  0  0  2  0  0  0  0  0  0
  -27.5140  -11.9610   18.2180 C   0  0  0  0  0  2  0  0  0  0  0  0
  -27.3360  -12.7300   19.5510 C   0  0  0  0  0  3  0  0  0  0  0  0
  -28.4950  -12.4120   20.5190 C   0  0  0  0  0  2  0  0  0  0  0  0
  -29.7760  -12.7080   19.8440 N   0  0  0  0  0  0  0  0  0  0  0  0
  -31.4700  -14.1590   19.3480 O   0  0  0  0  0  0  0  0  0  0  0  0
  -30.4330  -14.2420   21.3520 N   0  0  0  0  0  0  0  0  0  0  0  0
  -29.6940  -13.8020   21.8790 H   0  0  0  0  0  0  0  0  0  0  0  0
  -25.0360  -13.3300   20.5500 C   0  0  0  0  0  0  0  0  0  0  0  0
  -24.0030  -12.5500   20.9940 C   0  0  0  0  0  0  0  0  0  0  0  0
  -24.4360  -11.1980   20.8460 C   0  0  0  0  0  0  0  0  0  0  0  0
  -26.0370  -12.4510   20.1600 N   0  0  0  0  0  0  0  0  0  0  0  0
  -25.6820  -11.1610   20.3940 N   0  0  0  0  0  0  0  0  0  0  0  0
  -23.7160   -9.9350   21.0520 C   0  0  0  0  0  0  0  0  0  0  0  0
  -24.1650   -8.9700   21.9810 C   0  0  0  0  0  3  0  0  0  0  0  0
  -23.4440   -7.7720   22.1740 C   0  0  0  0  0  3  0  0  0  0  0  0
  -22.2610   -7.5290   21.4360 C   0  0  0  0  0  0  0  0  0  0  0  0
  -21.8320   -8.4830   20.4950 C   0  0  0  0  0  3  0  0  0  0  0  0
  -22.5530   -9.6720   20.3010 C   0  0  0  0  0  3  0  0  0  0  0  0
  -21.5110   -6.3830   21.5380 O   0  0  0  0  0  0  0  0  0  0  0  0
  -21.4240   -5.6810   22.7130 C   0  0  0  0  0  0  0  0  0  0  0  0
  -20.9220   -6.2690   23.8950 C   0  0  0  0  0  3  0  0  0  0  0  0
  -20.7830   -5.4930   25.0620 C   0  0  0  0  0  3  0  0  0  0  0  0
  -21.1350   -4.1300   25.0490 C   0  0  0  0  0  0  0  0  0  0  0  0
  -21.6300   -3.5420   23.8720 C   0  0  0  0  0  3  0  0  0  0  0  0
  -21.7690   -4.3150   22.7060 C   0  0  0  0  0  0  0  0  0  0  0  0
  -22.2260   -3.7390   21.5690 F   0  0  0  0  0  0  0  0  0  0  0  0
  -20.9950   -3.3820   26.1690 F   0  0  0  0  0  0  0  0  0  0  0  0
  -22.6510  -13.0280   21.4430 C   0  0  0  0  0  0  0  0  0  0  0  0
  -22.0110  -12.2950   22.3490 N   0  0  0  0  0  0  0  0  0  0  0  0
  -22.1740  -14.0840   21.0270 O   0  0  0  0  0  0  0  0  0  0  0  0
  -22.4100  -11.4420   22.7100 H   0  0  0  0  0  0  0  0  0  0  0  0
  -21.1080  -12.5960   22.6890 H   0  0  0  0  0  0  0  0  0  0  0  0
  -25.2050  -14.7050   20.4270 N   0  0  0  0  0  0  0  0  0  0  0  0
  -24.4730  -15.3670   20.6640 H   0  0  0  0  0  0  0  0  0  0  0  0
  -26.0320  -15.1490   20.0470 H   0  0  0  0  0  0  0  0  0  0  0  0
  -29.3870  -24.2950   23.8340 C   0  0  0  0  0  2  0  0  0  0  0  0
  -29.3660  -25.4660   22.8330 C   0  0  0  0  0  2  0  0  0  0  0  0
  -28.2630  -25.3660   21.7680 C   0  0  0  0  0  2  0  0  0  0  0  0
  -28.5630  -26.2410   20.5440 C   0  0  0  0  0  2  0  0  0  0  0  0
  -27.4510  -26.2040   19.6560 O   0  0  0  0  0  0  0  0  0  0  0  0
  -24.1600  -31.6470   22.9810 C   0  0  0  0  0  0  0  0  0  0  0  0
  -26.3730  -27.0460   19.8260 C   0  0  0  0  0  0  0  0  0  0  0  0
  -22.7770  -30.3080   21.4250 C   0  0  0  0  0  3  0  0  0  0  0  0
  -24.0540  -28.6610   19.9560 C   0  0  0  0  0  0  0  0  0  0  0  0
  -25.3020  -30.5100   21.0870 C   0  0  0  0  0  2  0  0  0  0  0  0
  -25.2660  -29.1280   20.4760 C   0  0  0  0  0  0  0  0  0  0  0  0
  -26.4250  -28.3270   20.4240 C   0  0  0  0  0  3  0  0  0  0  0  0
  -25.1420  -26.5860   19.3140 C   0  0  0  0  0  3  0  0  0  0  0  0
  -23.9820  -27.3810   19.3780 C   0  0  0  0  0  3  0  0  0  0  0  0
  -22.8670  -29.5940   20.0490 C   0  0  0  0  0  2  0  0  0  0  0  0
  -24.1020  -30.8360   21.8880 N   0  0  0  0  0  0  0  0  0  0  0  0
  -23.1290  -31.9950   23.5730 O   0  0  0  0  0  0  0  0  0  0  0  0
  -22.1180  -29.3410   22.4320 C   0  0  0  0  0  0  0  0  0  0  0  0
  -20.7830  -29.2130   22.3490 N   0  0  0  0  0  0  0  0  0  0  0  0
  -22.8010  -28.7060   23.2410 O   0  0  0  0  0  0  0  0  0  0  0  0
  -20.2950  -29.7720   21.6620 H   0  0  0  0  0  0  0  0  0  0  0  0
  -17.3760  -28.2140   23.0010 C   0  0  0  0  0  0  0  0  0  0  0  0
  -19.9520  -28.3350   23.1700 C   0  0  0  0  0  3  0  0  0  0  0  0
  -19.9540  -26.8910   22.6170 C   0  0  0  0  0  2  0  0  0  0  0  0
  -18.7970  -26.6120   21.6540 C   0  0  0  0  0  2  0  0  0  0  0  0
  -17.4520  -26.8450   22.3470 C   0  0  0  0  0  2  0  0  0  0  0  0
  -18.5500  -28.9210   23.3730 C   0  0  0  0  0  0  0  0  0  0  0  0
  -18.4230  -30.2060   23.9440 C   0  0  0  0  0  3  0  0  0  0  0  0
  -17.1550  -30.7820   24.1490 C   0  0  0  0  0  3  0  0  0  0  0  0
  -15.9950  -30.0710   23.7930 C   0  0  0  0  0  3  0  0  0  0  0  0
  -16.1090  -28.7890   23.2250 C   0  0  0  0  0  3  0  0  0  0  0  0
  -25.5180  -32.1960   23.5210 C   0  0  0  0  0  3  0  0  0  0  0  0
  -26.0840  -31.3690   24.7400 C   0  0  1  0  0  0  0  0  0  0  0  0
  -25.0470  -31.1330   25.8630 C   0  0  0  0  0  1  0  0  0  0  0  0
  -26.5960  -29.9870   24.2710 C   0  0  0  0  0  1  0  0  0  0  0  0
  -27.3000  -32.1040   25.3530 C   0  0  0  0  0  1  0  0  0  0  0  0
  -25.3090  -33.6000   23.8970 N   0  0  0  0  0  0  0  0  0  0  0  0
  -25.6630  -34.6490   23.1430 C   0  0  0  0  0  0  0  0  0  0  0  0
  -26.2730  -34.5310   22.0760 O   0  0  0  0  0  0  0  0  0  0  0  0
  -24.7620  -33.7690   24.7290 H   0  0  0  0  0  0  0  0  0  0  0  0
  -24.0230  -36.5410   22.9110 C   0  0  0  0  0  1  0  0  0  0  0  0
  -25.2790  -36.0510   23.6510 C   0  0  0  0  0  3  0  0  0  0  0  0
  -27.4970  -36.7970   24.3940 C   0  0  0  0  0  1  0  0  0  0  0  0
  -26.3640  -37.0460   23.5070 N   0  0  0  0  0  0  0  0  0  0  0  0
  -26.0170  -37.9840   23.6870 H   0  0  0  0  0  0  0  0  0  0  0  0
  1  2  1  0
  1  4  1  0
  2  5  1  0
  3  6  1  0
  4 11  1  0
  4  3  1  0
  5 53  1  0
  5  6  1  0
  6  7  1  0
  7  9  1  0
  7 10  1  0
  8  7  1  0
 11 12  1  0
 13 14  1  0
 13 12  1  0
 15 23  1  0
 16 21  1  0
 17 18  1  0
 17 16  1  0
 19 18  1  0
 19 28  1  0
 19 20  1  0
 21 15  1  0
 21 20  1  0
 22 15  2  0
 23 24  1  0
 23 14  1  0
 25 26  2  0
 26 45  1  0
 27 26  1  0
 27 30  1  0
 28 29  1  0
 28 25  1  0
 29 27  2  0
 30 31  1  0
 31 32  2  0
 33 36  1  0
 33 32  1  0
 34 33  2  0
 35 34  1  0
 35 30  2  0
 36 37  1  0
 37 38  1  0
 38 39  2  0
 40 39  1  0
 40 44  1  0
 41 40  2  0
 42 37  2  0
 42 41  1  0
 43 42  1  0
 45 46  1  0
 46 49  1  0
 46 48  1  0
 47 45  2  0
 50 25  1  0
 50 51  1  0
 52 50  1  0
 54 53  1  0
 55 54  1  0
 56 55  1  0
 57 59  1  0
 57 56  1  0
 58 69  2  0
 59 64  1  0
 60 68  1  0
 60 70  1  0
 61 67  1  0
 61 63  1  0
 62 68  1  0
 63 62  1  0
 64 63  2  0
 65 66  1  0
 65 59  2  0
 66 61  2  0
 67 60  1  0
 68 58  1  0
 70 72  2  0
 71 70  1  0
 73 71  1  0
 74 83  2  0
 74 79  1  0
 75 71  1  0
 75 79  1  0
 76 75  1  0
 77 78  1  0
 77 76  1  0
 78 74  1  0
 79 80  2  0
 80 81  1  0
 82 81  2  0
 83 82  1  0
 84 58  1  0
 84 89  1  0
 84 85  1  0
 85 88  1  1
 85 86  1  0
 87 85  1  0
 89 92  1  0
 90 94  1  0
 90 89  1  0
 91 90  2  0
 94 93  1  0
 96 94  1  0
 96 97  1  0
 96 95  1  0
M  ISO  4  15 100  23 100  56 101  57 101
M  END
>  <TORSDO>  (27) 
F 25

>  <SCORE>  (27) 
-8.119

>  <name>  (27) 
26

>  <ligand_id>  (27) 
26

>  <original_smiles>  (27) 
[H]c1c([H])c([H])c2c(c1[H])C([H])([H])C([H])([H])C([H])([H])C2([H])N([H])C(=O)C1([H])N(C(=O)C([H])(N([H])C(=O)C([H])(N([H])C([H])([H])[H])C([H])([H])[H])C(C([H])([H])[H])(C([H])([H])[H])C([H])([H])[H])C([H])([H])c2c([H])c(OC([H])([H])C([H])([H])C([H])([H])C([H])([H])C3([H])C([H])([H])C([H])([H])C([H])(C([H])([H])C([H])([H])C([H])([H])C([H])([H])N([H])C(=O)N4C([H])([H])C([H])([H])C([H])([H])C([H])(n5nc(-c6c([H])c([H])c(Oc7c([H])c([H])c(F)c([H])c7F)c([H])c6[H])c(C(=O)N([H])[H])c5N([H])[H])C4([H])[H])C([H])([H])C3([H])[N+]([H])([H])[H])c([H])c([H])c2C1([H])[H]

>  <smiles>  (27) 
[H]c1c([H])c([H])c2c(c1[H])C([H])([H])C([H])([H])C([H])([H])C2([H])N([H])C(=O)C1([H])N(C(=O)C([H])(N([H])C(=O)C([H])(N([H])C([H])([H])[H])C([H])([H])[H])C(C([H])([H])[H])(C([H])([H])[H])C([H])([H])[H])C([H])([H])c2c([H])c(OC([H])([H])C([H])([H])C([H])([H])C([H])([H])C3([H])C([H])([H])C([H])([H])C([H])(C([H])([H])C([H])([H])C([H])([H])C([H])([H])N([H])C(=O)N4C([H])([H])C([H])([H])C([H])([H])C([H])(n5nc(-c6c([H])c([H])c(Oc7c([H])c([H])c(F)c([H])c7F)c([H])c6[H])c(C(=O)N([H])[H])c5N([H])[H])C4([H])[H])C([H])([H])C3([H])[N+]([H])([H])[H])c([H])c([H])c2C1([H])[H]

$$$$
27:0:0
     RDKit          3D

 98108  0  0  1  0  0  0  0  0999 V2000
  -28.9940  -21.3070   22.8820 C   0  0  0  0  0  2  0  0  0  0  0  0
  -30.0690  -21.4870   20.6490 C   0  0  0  0  0  2  0  0  0  0  0  0
  -28.9160  -22.8450   22.9560 C   0  0  0  0  0  2  0  0  0  0  0  0
  -30.0100  -23.0230   20.7550 C   0  0  0  0  0  2  0  0  0  0  0  0
  -30.2000  -20.8470   22.0440 C   0  0  0  0  0  3  0  0  0  0  0  0
  -28.8720  -23.4690   21.6050 N   0  0  2  0  0  4  0  0  0  0  0  0
  -28.0300  -23.1280   21.1670 H   0  0  0  0  0  0  0  0  0  0  0  0
  -30.3270  -19.3070   22.0190 C   0  0  0  0  0  2  0  0  0  0  0  0
  -31.7430  -18.7960   21.6760 C   0  0  0  0  0  2  0  0  0  0  0  0
  -32.6490  -14.4160   18.2250 C   0  0  0  0  0  0  0  0  0  0  0  0
  -32.0540  -12.0730   17.6960 C   0  0  0  0  0  2  0  0  0  0  0  0
  -30.7950  -12.0040   16.8080 C   0  0  0  0  0  2  0  0  0  0  0  0
  -29.5120  -12.0270   17.6640 C   0  0  0  0  0  2  0  0  0  0  0  0
  -29.5220  -13.1740   18.7060 C   0  0  0  0  0  3  0  0  0  0  0  0
  -30.8470  -13.1560   19.4900 C   0  0  0  0  0  2  0  0  0  0  0  0
  -31.9640  -13.2790   18.5350 N   0  0  0  0  0  0  0  0  0  0  0  0
  -33.3940  -14.4870   17.2390 O   0  0  0  0  0  0  0  0  0  0  0  0
  -33.8190  -16.6740   20.4380 C   0  0  0  0  0  2  0  0  0  0  0  0
  -32.5530  -16.8820   18.4800 C   0  0  0  0  0  2  0  0  0  0  0  0
  -31.5970  -16.3460   21.1480 C   0  0  0  0  0  2  0  0  0  0  0  0
  -32.7340  -15.6030   20.4100 C   0  0  0  0  0  3  0  0  0  0  0  0
  -32.9130  -17.6800   19.7490 C   0  0  0  0  0  3  0  0  0  0  0  0
  -32.3800  -15.5080   18.9810 N   0  0  0  0  0  0  0  0  0  0  0  0
  -31.7160  -17.7340   20.6330 N   0  0  2  0  0  4  0  0  0  0  0  0
  -30.9180  -17.9250   20.0450 H   0  0  0  0  0  0  0  0  0  0  0  0
  -27.8330  -14.0700   20.4350 C   0  0  0  0  0  0  0  0  0  0  0  0
  -26.7240  -13.5030   21.0060 C   0  0  0  0  0  0  0  0  0  0  0  0
  -26.6380  -12.1810   20.4720 C   0  0  0  0  0  0  0  0  0  0  0  0
  -28.3700  -13.0980   19.6030 N   0  0  0  0  0  0  0  0  0  0  0  0
  -27.6680  -11.9390   19.6710 N   0  0  0  0  0  0  0  0  0  0  0  0
  -25.6030  -11.1500   20.6300 C   0  0  0  0  0  0  0  0  0  0  0  0
  -25.8440   -9.9690   21.3650 C   0  0  0  0  0  3  0  0  0  0  0  0
  -24.8290   -9.0020   21.5170 C   0  0  0  0  0  3  0  0  0  0  0  0
  -23.5570   -9.2100   20.9340 C   0  0  0  0  0  0  0  0  0  0  0  0
  -23.3290  -10.3790   20.1840 C   0  0  0  0  0  3  0  0  0  0  0  0
  -24.3420  -11.3390   20.0300 C   0  0  0  0  0  3  0  0  0  0  0  0
  -22.5170   -8.3150   21.0060 O   0  0  0  0  0  0  0  0  0  0  0  0
  -22.0710   -7.8270   22.2080 C   0  0  0  0  0  0  0  0  0  0  0  0
  -21.7960   -8.6780   23.3020 C   0  0  0  0  0  3  0  0  0  0  0  0
  -21.2720   -8.1430   24.4950 C   0  0  0  0  0  3  0  0  0  0  0  0
  -21.0150   -6.7620   24.5960 C   0  0  0  0  0  0  0  0  0  0  0  0
  -21.2830   -5.9140   23.5070 C   0  0  0  0  0  3  0  0  0  0  0  0
  -21.8070   -6.4470   22.3150 C   0  0  0  0  0  0  0  0  0  0  0  0
  -22.0450   -5.6280   21.2620 F   0  0  0  0  0  0  0  0  0  0  0  0
  -20.5040   -6.2490   25.7390 F   0  0  0  0  0  0  0  0  0  0  0  0
  -25.7430  -14.1790   21.9200 C   0  0  0  0  0  0  0  0  0  0  0  0
  -25.1730  -13.4370   22.8630 N   0  0  0  0  0  0  0  0  0  0  0  0
  -25.5140  -15.3840   21.8330 O   0  0  0  0  0  0  0  0  0  0  0  0
  -25.3740  -12.4520   22.9460 H   0  0  0  0  0  0  0  0  0  0  0  0
  -24.5230  -13.8610   23.5100 H   0  0  0  0  0  0  0  0  0  0  0  0
  -28.4190  -15.3280   20.5390 N   0  0  0  0  0  0  0  0  0  0  0  0
  -27.9900  -16.0760   21.0720 H   0  0  0  0  0  0  0  0  0  0  0  0
  -29.1890  -15.6440   19.9610 H   0  0  0  0  0  0  0  0  0  0  0  0
  -28.7300  -24.9480   21.6820 C   0  0  0  0  0  2  0  0  0  0  0  0
  -28.7350  -25.6360   20.3030 C   0  0  0  0  0  2  0  0  0  0  0  0
  -28.6830  -27.1710   20.3990 C   0  0  0  0  0  2  0  0  0  0  0  0
  -28.5300  -27.8390   19.0220 C   0  0  0  0  0  2  0  0  0  0  0  0
  -27.2260  -27.6110   18.4840 O   0  0  0  0  0  0  0  0  0  0  0  0
  -24.3600  -31.8430   23.4960 C   0  0  0  0  0  0  0  0  0  0  0  0
  -26.1520  -28.3160   18.9820 C   0  0  0  0  0  0  0  0  0  0  0  0
  -22.7750  -30.8190   21.8890 C   0  0  0  0  0  3  0  0  0  0  0  0
  -23.8370  -29.6780   19.8710 C   0  0  0  0  0  0  0  0  0  0  0  0
  -25.1930  -31.2930   21.2170 C   0  0  0  0  0  2  0  0  0  0  0  0
  -25.1040  -30.0990   20.2930 C   0  0  0  0  0  0  0  0  0  0  0  0
  -26.2610  -29.4210   19.8610 C   0  0  0  0  0  3  0  0  0  0  0  0
  -24.8690  -27.9090   18.5590 C   0  0  0  0  0  3  0  0  0  0  0  0
  -23.7110  -28.5760   19.0060 C   0  0  0  0  0  3  0  0  0  0  0  0
  -22.6520  -30.4650   20.3820 C   0  0  0  0  0  2  0  0  0  0  0  0
  -24.1390  -31.3210   22.2570 N   0  0  0  0  0  0  0  0  0  0  0  0
  -23.4370  -31.9590   24.3130 O   0  0  0  0  0  0  0  0  0  0  0  0
  -22.3300  -29.5930   22.7160 C   0  0  0  0  0  0  0  0  0  0  0  0
  -21.0480  -29.2170   22.5830 N   0  0  0  0  0  0  0  0  0  0  0  0
  -23.1320  -28.9860   23.4300 O   0  0  0  0  0  0  0  0  0  0  0  0
  -20.4530  -29.7750   21.9870 H   0  0  0  0  0  0  0  0  0  0  0  0
  -18.0680  -27.1760   22.6240 C   0  0  0  0  0  0  0  0  0  0  0  0
  -20.4170  -28.0690   23.2330 C   0  0  0  0  0  3  0  0  0  0  0  0
  -20.9570  -26.7380   22.6600 C   0  0  0  0  0  2  0  0  0  0  0  0
  -20.1110  -26.1880   21.5070 C   0  0  0  0  0  2  0  0  0  0  0  0
  -18.6710  -25.9470   21.9650 C   0  0  0  0  0  2  0  0  0  0  0  0
  -18.8880  -28.1800   23.2050 C   0  0  0  0  0  0  0  0  0  0  0  0
  -18.2790  -29.3200   23.7740 C   0  0  0  0  0  3  0  0  0  0  0  0
  -16.8800  -29.4660   23.7700 C   0  0  0  0  0  3  0  0  0  0  0  0
  -16.0720  -28.4620   23.2080 C   0  0  0  0  0  3  0  0  0  0  0  0
  -16.6640  -27.3180   22.6430 C   0  0  0  0  0  3  0  0  0  0  0  0
  -25.7720  -32.3440   23.9370 C   0  0  0  0  0  3  0  0  0  0  0  0
  -25.6430  -33.7570   24.3130 N   0  0  0  0  0  0  0  0  0  0  0  0
  -26.0550  -34.7820   23.5550 C   0  0  0  0  0  0  0  0  0  0  0  0
  -26.6560  -34.6300   22.4890 O   0  0  0  0  0  0  0  0  0  0  0  0
  -25.1180  -33.9580   25.1500 H   0  0  0  0  0  0  0  0  0  0  0  0
  -24.5650  -36.7860   23.2760 C   0  0  0  0  0  1  0  0  0  0  0  0
  -25.7490  -36.2030   24.0640 C   0  0  0  0  0  3  0  0  0  0  0  0
  -27.9870  -36.7740   24.8960 C   0  0  0  0  0  1  0  0  0  0  0  0
  -26.9060  -37.1200   23.9760 N   0  0  0  0  0  0  0  0  0  0  0  0
  -26.6230  -38.0780   24.1660 H   0  0  0  0  0  0  0  0  0  0  0  0
  -26.3890  -31.5020   25.1210 C   0  0  1  0  0  0  0  0  0  0  0  0
  -25.4430  -31.3480   26.3330 C   0  0  0  0  0  1  0  0  0  0  0  0
  -26.7780  -30.0850   24.6350 C   0  0  0  0  0  1  0  0  0  0  0  0
  -27.6890  -32.1770   25.6200 C   0  0  0  0  0  1  0  0  0  0  0  0
  1  3  1  0
  2  4  1  0
  2  5  1  0
  4  6  1  0
  5  8  1  0
  5  1  1  0
  6 54  1  0
  6  3  1  0
  6  7  1  6
  9  8  1  0
 10 16  1  0
 10 23  1  0
 11 16  1  0
 12 13  1  0
 12 11  1  0
 14 13  1  0
 14 15  1  0
 14 29  1  0
 16 15  1  0
 17 10  2  0
 19 23  1  0
 21 18  1  0
 21 20  1  0
 22 19  1  0
 22 18  1  0
 22 24  1  0
 23 21  1  0
 24 20  1  0
 24  9  1  0
 24 25  1  6
 26 51  1  0
 26 27  2  0
 27 46  1  0
 28 31  1  0
 28 27  1  0
 29 30  1  0
 29 26  1  0
 30 28  2  0
 31 32  1  0
 32 33  2  0
 34 37  1  0
 34 33  1  0
 35 34  2  0
 36 35  1  0
 36 31  2  0
 37 38  1  0
 38 43  2  0
 38 39  1  0
 39 40  2  0
 40 41  1  0
 41 45  1  0
 42 41  2  0
 43 42  1  0
 44 43  1  0
 46 47  1  0
 47 49  1  0
 47 50  1  0
 48 46  2  0
 51 52  1  0
 53 51  1  0
 55 56  1  0
 55 54  1  0
 57 56  1  0
 58 60  1  0
 58 57  1  0
 59 70  2  0
 60 65  1  0
 61 69  1  0
 61 71  1  0
 62 64  1  0
 62 68  1  0
 63 69  1  0
 64 63  1  0
 65 64  2  0
 66 60  2  0
 66 67  1  0
 67 62  2  0
 68 61  1  0
 69 59  1  0
 71 73  2  0
 72 71  1  0
 74 72  1  0
 75 84  2  0
 75 80  1  0
 76 72  1  0
 77 76  1  0
 78 79  1  0
 78 77  1  0
 79 75  1  0
 80 76  1  0
 80 81  2  0
 82 81  1  0
 83 82  2  0
 84 83  1  0
 85 59  1  0
 85 86  1  0
 85 95  1  0
 86 89  1  0
 87 91  1  0
 87 86  1  0
 88 87  2  0
 91 90  1  0
 93 91  1  0
 93 94  1  0
 93 92  1  0
 95 98  1  1
 95 96  1  0
 97 95  1  0
M  ISO  4  10 100  23 100  57 101  58 101
M  END
>  <TORSDO>  (28) 
F 22

>  <SCORE>  (28) 
-2.765

>  <name>  (28) 
27

>  <ligand_id>  (28) 
27

>  <original_smiles>  (28) 
[H]c1c([H])c([H])c2c(c1[H])C([H])([H])C([H])([H])C([H])([H])C2([H])N([H])C(=O)C1([H])N(C(=O)C([H])(N([H])C(=O)C([H])(N([H])C([H])([H])[H])C([H])([H])[H])C(C([H])([H])[H])(C([H])([H])[H])C([H])([H])[H])C([H])([H])c2c([H])c(OC([H])([H])C([H])([H])C([H])([H])C([H])([H])[N+]3([H])C([H])([H])C([H])([H])C([H])(C([H])([H])C([H])([H])[N+]4([H])C([H])([H])C5([H])N(C(=O)N6C([H])([H])C([H])([H])C([H])([H])C([H])(n7nc(-c8c([H])c([H])c(Oc9c([H])c([H])c(F)c([H])c9F)c([H])c8[H])c(C(=O)N([H])[H])c7N([H])[H])C6([H])[H])C([H])([H])C4([H])C5([H])[H])C([H])([H])C3([H])[H])c([H])c([H])c2C1([H])[H]

>  <smiles>  (28) 
[H]c1c([H])c([H])c2c(c1[H])C([H])([H])C([H])([H])C([H])([H])C2([H])N([H])C(=O)C1([H])N(C(=O)C([H])(N([H])C(=O)C([H])(N([H])C([H])([H])[H])C([H])([H])[H])C(C([H])([H])[H])(C([H])([H])[H])C([H])([H])[H])C([H])([H])c2c([H])c(OC([H])([H])C([H])([H])C([H])([H])C([H])([H])[N+]3([H])C([H])([H])C([H])([H])C([H])(C([H])([H])C([H])([H])[N+]4([H])C([H])([H])C5([H])N(C(=O)N6C([H])([H])C([H])([H])C([H])([H])C([H])(n7nc(-c8c([H])c([H])c(Oc9c([H])c([H])c(F)c([H])c9F)c([H])c8[H])c(C(=O)N([H])[H])c7N([H])[H])C6([H])[H])C([H])([H])C4([H])C5([H])[H])C([H])([H])C3([H])[H])c([H])c([H])c2C1([H])[H]

$$$$
28:0:0
     RDKit          3D

 94104  0  0  1  0  0  0  0  0999 V2000
  -30.4170  -16.8450   20.9340 C   0  0  0  0  0  0  0  0  0  0  0  0
  -31.9150  -17.2130   20.7990 C   0  0  0  0  0  2  0  0  0  0  0  0
  -29.4500  -18.0660   21.0350 C   0  0  0  0  0  2  0  0  0  0  0  0
  -30.8640  -21.6890   18.9400 C   0  0  0  0  0  2  0  0  0  0  0  0
  -28.9920  -20.4840   20.1330 C   0  0  0  0  0  2  0  0  0  0  0  0
  -32.2640  -18.7010   20.9060 C   0  0  0  0  0  2  0  0  0  0  0  0
  -31.8640  -20.8250   19.7350 C   0  0  0  0  0  2  0  0  0  0  0  0
  -29.5150  -21.8730   19.6590 C   0  0  0  0  0  3  0  0  0  0  0  0
  -30.0140  -19.5290   20.8290 C   0  0  0  0  0  3  0  0  0  0  0  0
  -29.9160  -15.6410   20.9050 N   0  0  0  0  0  0  0  0  0  0  0  0
  -31.3120  -19.4990   20.1080 N   0  0  2  0  0  4  0  0  0  0  0  0
  -31.1710  -19.0130   19.2340 H   0  0  0  0  0  0  0  0  0  0  0  0
  -30.6590  -14.5210   20.4700 C   0  0  0  0  0  0  0  0  0  0  0  0
  -30.3140  -12.3430   19.3520 C   0  0  0  0  0  2  0  0  0  0  0  0
  -29.4020  -12.5880   18.1330 C   0  0  0  0  0  2  0  0  0  0  0  0
  -27.9230  -12.4540   18.5500 C   0  0  0  0  0  2  0  0  0  0  0  0
  -27.5820  -13.2790   19.8240 C   0  0  0  0  0  3  0  0  0  0  0  0
  -28.6330  -13.0550   20.9330 C   0  0  0  0  0  2  0  0  0  0  0  0
  -29.9620  -13.3480   20.3730 N   0  0  0  0  0  0  0  0  0  0  0  0
  -31.8050  -14.5650   20.0320 O   0  0  0  0  0  0  0  0  0  0  0  0
  -25.1810  -13.8720   20.5170 C   0  0  0  0  0  0  0  0  0  0  0  0
  -24.1130  -13.0950   20.8850 C   0  0  0  0  0  0  0  0  0  0  0  0
  -24.5770  -11.7450   20.8510 C   0  0  0  0  0  0  0  0  0  0  0  0
  -26.2300  -12.9940   20.2960 N   0  0  0  0  0  0  0  0  0  0  0  0
  -25.8700  -11.7100   20.5530 N   0  0  0  0  0  0  0  0  0  0  0  0
  -23.8540  -10.4790   21.0400 C   0  0  0  0  0  0  0  0  0  0  0  0
  -24.2870   -9.5140   21.9750 C   0  0  0  0  0  3  0  0  0  0  0  0
  -23.5660   -8.3130   22.1500 C   0  0  0  0  0  3  0  0  0  0  0  0
  -22.3980   -8.0690   21.3910 C   0  0  0  0  0  0  0  0  0  0  0  0
  -21.9840   -9.0220   20.4420 C   0  0  0  0  0  3  0  0  0  0  0  0
  -22.7060  -10.2150   20.2640 C   0  0  0  0  0  3  0  0  0  0  0  0
  -21.6470   -6.9200   21.4760 O   0  0  0  0  0  0  0  0  0  0  0  0
  -21.5900   -6.1810   22.6320 C   0  0  0  0  0  0  0  0  0  0  0  0
  -21.1400   -6.7360   23.8500 C   0  0  0  0  0  3  0  0  0  0  0  0
  -21.0300   -5.9200   24.9960 C   0  0  0  0  0  3  0  0  0  0  0  0
  -21.3660   -4.5530   24.9230 C   0  0  0  0  0  0  0  0  0  0  0  0
  -21.8100   -4.0020   23.7090 C   0  0  0  0  0  3  0  0  0  0  0  0
  -21.9200   -4.8140   22.5680 C   0  0  0  0  0  0  0  0  0  0  0  0
  -22.3270   -4.2730   21.3940 F   0  0  0  0  0  0  0  0  0  0  0  0
  -21.2560   -3.7700   26.0210 F   0  0  0  0  0  0  0  0  0  0  0  0
  -22.7130  -13.5660   21.1570 C   0  0  0  0  0  0  0  0  0  0  0  0
  -21.9860  -12.8620   22.0170 N   0  0  0  0  0  0  0  0  0  0  0  0
  -22.2710  -14.5900   20.6370 O   0  0  0  0  0  0  0  0  0  0  0  0
  -22.3590  -12.0350   22.4600 H   0  0  0  0  0  0  0  0  0  0  0  0
  -21.0440  -13.1530   22.2380 H   0  0  0  0  0  0  0  0  0  0  0  0
  -25.3550  -15.2410   20.3340 N   0  0  0  0  0  0  0  0  0  0  0  0
  -24.6170  -15.9260   20.4490 H   0  0  0  0  0  0  0  0  0  0  0  0
  -26.2380  -15.6530   20.0530 H   0  0  0  0  0  0  0  0  0  0  0  0
  -30.5860  -23.5620   21.5480 C   0  0  0  0  0  2  0  0  0  0  0  0
  -30.7440  -24.7720   20.6290 C   0  0  0  0  0  2  0  0  0  0  0  0
  -29.4170  -23.0570   20.6730 C   0  0  0  0  0  3  0  0  0  0  0  0
  -29.3220  -24.5150   20.1160 C   0  0  0  0  0  3  0  0  0  0  0  0
  -28.1950  -25.4270   20.6200 C   0  0  0  0  0  2  0  0  0  0  0  0
  -28.2870  -26.7430   20.0550 O   0  0  0  0  0  0  0  0  0  0  0  0
  -24.5470  -31.9210   23.2320 C   0  0  0  0  0  0  0  0  0  0  0  0
  -27.1230  -27.4780   20.0960 C   0  0  0  0  0  0  0  0  0  0  0  0
  -23.3140  -30.5320   21.6010 C   0  0  0  0  0  3  0  0  0  0  0  0
  -24.7380  -28.9940   20.1520 C   0  0  0  0  0  0  0  0  0  0  0  0
  -25.8420  -30.8780   21.3720 C   0  0  0  0  0  2  0  0  0  0  0  0
  -25.9090  -29.5110   20.7230 C   0  0  0  0  0  0  0  0  0  0  0  0
  -27.1060  -28.7590   20.6860 C   0  0  0  0  0  3  0  0  0  0  0  0
  -25.9370  -26.9790   19.5090 C   0  0  0  0  0  3  0  0  0  0  0  0
  -24.7470  -27.7290   19.5410 C   0  0  0  0  0  3  0  0  0  0  0  0
  -23.5010  -29.8580   20.2180 C   0  0  0  0  0  2  0  0  0  0  0  0
  -24.5870  -31.1260   22.1260 N   0  0  0  0  0  0  0  0  0  0  0  0
  -23.4740  -32.1950   23.7860 O   0  0  0  0  0  0  0  0  0  0  0  0
  -22.6680  -29.5110   22.5640 C   0  0  0  0  0  0  0  0  0  0  0  0
  -21.3430  -29.3330   22.4480 N   0  0  0  0  0  0  0  0  0  0  0  0
  -23.3570  -28.8790   23.3680 O   0  0  0  0  0  0  0  0  0  0  0  0
  -20.8490  -29.8990   21.7740 H   0  0  0  0  0  0  0  0  0  0  0  0
  -17.9650  -28.1570   22.9650 C   0  0  0  0  0  0  0  0  0  0  0  0
  -20.5270  -28.3980   23.2220 C   0  0  0  0  0  3  0  0  0  0  0  0
  -20.6170  -26.9670   22.6440 C   0  0  0  0  0  2  0  0  0  0  0  0
  -19.5050  -26.6520   21.6380 C   0  0  0  0  0  2  0  0  0  0  0  0
  -18.1280  -26.8060   22.2890 C   0  0  0  0  0  2  0  0  0  0  0  0
  -19.0910  -28.9120   23.3900 C   0  0  0  0  0  0  0  0  0  0  0  0
  -18.8820  -30.1760   23.9780 C   0  0  0  0  0  3  0  0  0  0  0  0
  -17.5820  -30.6860   24.1530 C   0  0  0  0  0  3  0  0  0  0  0  0
  -16.4710  -29.9250   23.7480 C   0  0  0  0  0  3  0  0  0  0  0  0
  -16.6640  -28.6640   23.1570 C   0  0  0  0  0  3  0  0  0  0  0  0
  -25.8430  -32.5440   23.8400 C   0  0  0  0  0  3  0  0  0  0  0  0
  -25.5540  -33.9450   24.1710 N   0  0  0  0  0  0  0  0  0  0  0  0
  -25.8980  -34.9910   23.4100 C   0  0  0  0  0  0  0  0  0  0  0  0
  -26.5680  -34.8780   22.3760 O   0  0  0  0  0  0  0  0  0  0  0  0
  -24.9680  -34.1110   24.9770 H   0  0  0  0  0  0  0  0  0  0  0  0
  -24.2090  -36.8130   23.0280 C   0  0  0  0  0  1  0  0  0  0  0  0
  -25.4280  -36.3860   23.8630 C   0  0  0  0  0  3  0  0  0  0  0  0
  -27.5620  -37.2270   24.7370 C   0  0  0  0  0  1  0  0  0  0  0  0
  -26.4800  -37.4230   23.7750 N   0  0  0  0  0  0  0  0  0  0  0  0
  -26.0880  -38.3490   23.9240 H   0  0  0  0  0  0  0  0  0  0  0  0
  -26.3710  -31.7640   25.1070 C   0  0  1  0  0  0  0  0  0  0  0  0
  -25.2990  -31.5270   26.1960 C   0  0  0  0  0  1  0  0  0  0  0  0
  -26.9280  -30.3830   24.6930 C   0  0  0  0  0  1  0  0  0  0  0  0
  -27.5320  -32.5520   25.7570 C   0  0  0  0  0  1  0  0  0  0  0  0
  1  3  1  0
  2  6  1  0
  2  1  1  0
  4  7  1  0
  7 11  1  0
  8  4  1  0
  8  5  1  0
  8 51  1  0
  9  5  1  0
  9  3  1  0
 10  1  2  0
 11 12  1  6
 11  9  1  0
 11  6  1  0
 13 10  1  0
 14 19  1  0
 15 16  1  0
 15 14  1  0
 17 16  1  0
 17 24  1  0
 17 18  1  0
 19 13  1  0
 19 18  1  0
 20 13  2  0
 21 22  2  0
 22 41  1  0
 23 22  1  0
 23 26  1  0
 24 21  1  0
 24 25  1  0
 25 23  2  0
 26 27  1  0
 27 28  2  0
 29 32  1  0
 29 28  1  0
 30 29  2  0
 31 30  1  0
 31 26  2  0
 32 33  1  0
 33 34  1  0
 34 35  2  0
 36 35  1  0
 36 40  1  0
 37 36  2  0
 38 33  2  0
 38 37  1  0
 39 38  1  0
 41 42  1  0
 42 45  1  0
 42 44  1  0
 43 41  2  0
 46 47  1  0
 46 21  1  0
 48 46  1  0
 50 49  1  0
 51 49  1  0
 52 53  1  0
 52 50  1  0
 52 51  1  0
 54 56  1  0
 54 53  1  0
 55 66  2  0
 56 61  1  0
 57 65  1  0
 57 67  1  0
 58 64  1  0
 58 60  1  0
 59 65  1  0
 60 59  1  0
 61 60  2  0
 62 63  1  0
 62 56  2  0
 63 58  2  0
 64 57  1  0
 65 55  1  0
 67 69  2  0
 68 67  1  0
 70 68  1  0
 71 80  2  0
 71 76  1  0
 72 68  1  0
 72 76  1  0
 73 72  1  0
 74 75  1  0
 74 73  1  0
 75 71  1  0
 76 77  2  0
 77 78  1  0
 79 78  2  0
 80 79  1  0
 81 55  1  0
 81 82  1  0
 81 91  1  0
 82 85  1  0
 83 87  1  0
 83 82  1  0
 84 83  2  0
 87 86  1  0
 89 87  1  0
 89 90  1  0
 89 88  1  0
 91 94  1  1
 91 92  1  0
 93 91  1  0
M  ISO  4  10 100  13 100  53 101  54 101
M  END
>  <TORSDO>  (29) 
F 18

>  <SCORE>  (29) 
-14.875

>  <name>  (29) 
28

>  <ligand_id>  (29) 
28

>  <original_smiles>  (29) 
[H]c1c([H])c([H])c2c(c1[H])C([H])([H])C([H])([H])C([H])([H])C2([H])N([H])C(=O)C1([H])N(C(=O)C([H])(N([H])C(=O)C([H])(N([H])C([H])([H])[H])C([H])([H])[H])C(C([H])([H])[H])(C([H])([H])[H])C([H])([H])[H])C([H])([H])c2c([H])c(OC([H])([H])C3([H])C([H])([H])C([H])([H])C3([H])C3([H])C([H])([H])C([H])([H])[N+]4([H])C([H])([H])C([H])([H])C(=NC(=O)N5C([H])([H])C([H])([H])C([H])([H])C([H])(n6nc(-c7c([H])c([H])c(Oc8c([H])c([H])c(F)c([H])c8F)c([H])c7[H])c(C(=O)N([H])[H])c6N([H])[H])C5([H])[H])C([H])([H])C4([H])C3([H])[H])c([H])c([H])c2C1([H])[H]

>  <smiles>  (29) 
[H]c1c([H])c([H])c2c(c1[H])C([H])([H])C([H])([H])C([H])([H])C2([H])N([H])C(=O)C1([H])N(C(=O)C([H])(N([H])C(=O)C([H])(N([H])C([H])([H])[H])C([H])([H])[H])C(C([H])([H])[H])(C([H])([H])[H])C([H])([H])[H])C([H])([H])c2c([H])c(OC([H])([H])C3([H])C([H])([H])C([H])([H])C3([H])C3([H])C([H])([H])C([H])([H])[N+]4([H])C([H])([H])C([H])([H])C(=NC(=O)N5C([H])([H])C([H])([H])C([H])([H])C([H])(n6nc(-c7c([H])c([H])c(Oc8c([H])c([H])c(F)c([H])c8F)c([H])c7[H])c(C(=O)N([H])[H])c6N([H])[H])C5([H])[H])C([H])([H])C4([H])C3([H])[H])c([H])c([H])c2C1([H])[H]

$$$$
29:0:0
     RDKit          3D

105115  0  0  1  0  0  0  0  0999 V2000
  -24.2510  -24.2460   20.2480 C   0  0  0  0  0  2  0  0  0  0  0  0
  -25.6780  -23.7400   19.9000 C   0  0  0  0  0  2  0  0  0  0  0  0
  -24.1070  -23.9610   16.9080 C   0  0  0  0  0  2  0  0  0  0  0  0
  -21.6970  -24.1480   19.8770 C   0  0  0  0  0  2  0  0  0  0  0  0
  -21.6210  -24.2950   17.4840 C   0  0  0  0  0  2  0  0  0  0  0  0
  -23.0920  -23.8050   19.3200 C   0  0  0  0  0  3  0  0  0  0  0  0
  -23.0710  -24.4890   17.9390 C   0  0  0  0  0  3  0  0  0  0  0  0
  -25.9150  -23.1680   18.4720 C   0  0  0  0  0  3  0  0  0  0  0  0
  -25.5980  -24.1540   17.3030 C   0  0  0  0  0  3  0  0  0  0  0  0
  -20.8040  -24.2850   18.7110 N   0  0  0  0  0  4  0  0  0  0  0  0
  -20.2760  -25.1390   18.7860 H   0  0  0  0  0  0  0  0  0  0  0  0
  -20.1500  -23.5230   18.6750 H   0  0  0  0  0  0  0  0  0  0  0  0
  -27.2650  -22.4160   18.3060 C   0  0  0  0  0  2  0  0  0  0  0  0
  -26.8380  -18.5900   20.3620 C   0  0  0  0  0  3  0  0  0  0  0  0
  -26.4250  -19.7950   20.9400 C   0  0  0  0  0  3  0  0  0  0  0  0
  -27.4660  -18.5950   19.1030 C   0  0  0  0  0  3  0  0  0  0  0  0
  -26.6370  -21.0000   20.2520 C   0  0  0  0  0  3  0  0  0  0  0  0
  -27.6850  -19.7990   18.3780 C   0  0  0  0  0  0  0  0  0  0  0  0
  -27.2390  -21.0300   18.9760 C   0  0  0  0  0  0  0  0  0  0  0  0
  -28.4310  -19.6980   17.0650 C   0  0  0  0  0  0  0  0  0  0  0  0
  -28.6810  -20.6750   16.3550 O   0  0  0  0  0  0  0  0  0  0  0  0
  -28.9040  -18.2940   16.6090 C   0  0  0  0  0  2  0  0  0  0  0  0
  -30.3400  -18.2050   16.0290 C   0  0  0  0  0  2  0  0  0  0  0  0
  -31.4260  -18.2350   17.1310 C   0  0  0  0  0  2  0  0  0  0  0  0
  -32.0480  -15.9480   17.9160 C   0  0  0  0  0  0  0  0  0  0  0  0
  -32.1930  -13.5490   18.4640 C   0  0  0  0  0  2  0  0  0  0  0  0
  -31.2550  -12.7220   17.5630 C   0  0  0  0  0  2  0  0  0  0  0  0
  -29.8430  -12.6510   18.1770 C   0  0  0  0  0  2  0  0  0  0  0  0
  -29.2990  -14.0460   18.5800 C   0  0  0  0  0  3  0  0  0  0  0  0
  -30.3420  -14.8290   19.4070 C   0  0  0  0  0  2  0  0  0  0  0  0
  -31.6040  -14.8880   18.6420 N   0  0  0  0  0  0  0  0  0  0  0  0
  -33.0320  -15.8940   17.1730 O   0  0  0  0  0  0  0  0  0  0  0  0
  -31.3060  -17.0630   18.0020 N   0  0  0  0  0  0  0  0  0  0  0  0
  -30.5200  -17.0150   18.6310 H   0  0  0  0  0  0  0  0  0  0  0  0
  -27.2060  -14.9460   19.7830 C   0  0  0  0  0  0  0  0  0  0  0  0
  -26.1000  -14.3170   20.2860 C   0  0  0  0  0  0  0  0  0  0  0  0
  -26.3030  -12.9180   20.0630 C   0  0  0  0  0  0  0  0  0  0  0  0
  -28.0220  -13.9410   19.2840 N   0  0  0  0  0  0  0  0  0  0  0  0
  -27.4890  -12.7120   19.5010 N   0  0  0  0  0  0  0  0  0  0  0  0
  -25.4150  -11.7720   20.2930 C   0  0  0  0  0  0  0  0  0  0  0  0
  -25.7600  -10.7330   21.1840 C   0  0  0  0  0  3  0  0  0  0  0  0
  -24.8810   -9.6510   21.4010 C   0  0  0  0  0  3  0  0  0  0  0  0
  -23.6400   -9.6020   20.7230 C   0  0  0  0  0  0  0  0  0  0  0  0
  -23.3100  -10.6280   19.8200 C   0  0  0  0  0  3  0  0  0  0  0  0
  -24.1890  -11.6990   19.6020 C   0  0  0  0  0  3  0  0  0  0  0  0
  -22.7330   -8.5760   20.8530 O   0  0  0  0  0  0  0  0  0  0  0  0
  -22.5150   -7.9540   22.0550 C   0  0  0  0  0  0  0  0  0  0  0  0
  -22.0950   -8.6700   23.2010 C   0  0  0  0  0  3  0  0  0  0  0  0
  -21.8140   -7.9800   24.3980 C   0  0  0  0  0  3  0  0  0  0  0  0
  -21.9450   -6.5790   24.4510 C   0  0  0  0  0  0  0  0  0  0  0  0
  -22.3610   -5.8670   23.3130 C   0  0  0  0  0  3  0  0  0  0  0  0
  -22.6430   -6.5530   22.1200 C   0  0  0  0  0  0  0  0  0  0  0  0
  -23.0200   -5.8590   21.0180 F   0  0  0  0  0  0  0  0  0  0  0  0
  -21.6700   -5.9150   25.5980 F   0  0  0  0  0  0  0  0  0  0  0  0
  -24.8780  -14.9730   20.8630 C   0  0  0  0  0  0  0  0  0  0  0  0
  -24.2110  -14.3120   21.8020 N   0  0  0  0  0  0  0  0  0  0  0  0
  -24.5310  -16.1010   20.5120 O   0  0  0  0  0  0  0  0  0  0  0  0
  -24.5020  -13.3920   22.0980 H   0  0  0  0  0  0  0  0  0  0  0  0
  -23.3970  -14.7320   22.2290 H   0  0  0  0  0  0  0  0  0  0  0  0
  -27.5810  -16.2840   19.6840 N   0  0  0  0  0  0  0  0  0  0  0  0
  -26.9900  -17.0450   20.0000 H   0  0  0  0  0  0  0  0  0  0  0  0
  -28.4210  -16.5990   19.2190 H   0  0  0  0  0  0  0  0  0  0  0  0
  -25.8230  -25.6670   17.5540 C   0  0  0  0  0  2  0  0  0  0  0  0
  -27.1530  -26.3210   17.9900 C   0  0  0  0  0  2  0  0  0  0  0  0
  -27.2300  -27.7230   17.6060 O   0  0  0  0  0  0  0  0  0  0  0  0
  -25.2680  -30.9930   23.6160 C   0  0  0  0  0  0  0  0  0  0  0  0
  -26.3160  -28.5590   18.2210 C   0  0  0  0  0  0  0  0  0  0  0  0
  -23.5230  -30.7400   21.8870 C   0  0  0  0  0  3  0  0  0  0  0  0
  -24.3490  -30.0690   19.5730 C   0  0  0  0  0  0  0  0  0  0  0  0
  -25.9920  -30.9200   21.2390 C   0  0  0  0  0  2  0  0  0  0  0  0
  -25.6730  -30.0710   20.0300 C   0  0  0  0  0  0  0  0  0  0  0  0
  -26.6630  -29.3020   19.3730 C   0  0  0  0  0  3  0  0  0  0  0  0
  -25.0150  -28.7130   17.6950 C   0  0  0  0  0  3  0  0  0  0  0  0
  -24.0110  -29.3870   18.3990 C   0  0  0  0  0  3  0  0  0  0  0  0
  -23.3350  -30.8700   20.3530 C   0  0  0  0  0  2  0  0  0  0  0  0
  -24.9570  -30.8650   22.2980 N   0  0  0  0  0  0  0  0  0  0  0  0
  -24.3810  -31.0430   24.4790 O   0  0  0  0  0  0  0  0  0  0  0  0
  -22.8610  -29.4250   22.3620 C   0  0  0  0  0  0  0  0  0  0  0  0
  -21.5220  -29.3690   22.2830 N   0  0  0  0  0  0  0  0  0  0  0  0
  -23.5470  -28.4850   22.7700 O   0  0  0  0  0  0  0  0  0  0  0  0
  -21.0300  -30.1840   21.9430 H   0  0  0  0  0  0  0  0  0  0  0  0
  -18.1500  -28.0710   22.1910 C   0  0  0  0  0  0  0  0  0  0  0  0
  -20.6870  -28.2250   22.6510 C   0  0  0  0  0  3  0  0  0  0  0  0
  -20.8400  -27.0750   21.6290 C   0  0  0  0  0  2  0  0  0  0  0  0
  -19.7870  -27.1050   20.5200 C   0  0  0  0  0  2  0  0  0  0  0  0
  -18.3800  -27.0210   21.1180 C   0  0  0  0  0  2  0  0  0  0  0  0
  -19.2360  -28.6480   22.9020 C   0  0  0  0  0  0  0  0  0  0  0  0
  -18.9710  -29.6460   23.8640 C   0  0  0  0  0  3  0  0  0  0  0  0
  -17.6510  -30.0610   24.1280 C   0  0  0  0  0  3  0  0  0  0  0  0
  -16.5810  -29.4710   23.4360 C   0  0  0  0  0  3  0  0  0  0  0  0
  -16.8300  -28.4780   22.4720 C   0  0  0  0  0  3  0  0  0  0  0  0
  -26.7470  -31.1050   24.0990 C   0  0  0  0  0  3  0  0  0  0  0  0
  -26.8370  -32.2800   24.9730 N   0  0  0  0  0  0  0  0  0  0  0  0
  -27.3890  -33.4490   24.6170 C   0  0  0  0  0  0  0  0  0  0  0  0
  -27.9460  -33.6240   23.5300 O   0  0  0  0  0  0  0  0  0  0  0  0
  -26.3590  -32.2250   25.8600 H   0  0  0  0  0  0  0  0  0  0  0  0
  -26.2210  -35.5990   25.1920 C   0  0  0  0  0  1  0  0  0  0  0  0
  -27.3090  -34.6070   25.6290 C   0  0  0  0  0  3  0  0  0  0  0  0
  -29.6170  -34.5170   26.4620 C   0  0  0  0  0  1  0  0  0  0  0  0
  -28.5920  -35.3220   25.8040 N   0  0  0  0  0  0  0  0  0  0  0  0
  -28.4610  -36.1700   26.3490 H   0  0  0  0  0  0  0  0  0  0  0  0
  -27.2580  -29.8100   24.8420 C   0  0  1  0  0  0  0  0  0  0  0  0
  -26.3290  -29.3400   25.9850 C   0  0  0  0  0  1  0  0  0  0  0  0
  -27.4160  -28.6350   23.8470 C   0  0  0  0  0  1  0  0  0  0  0  0
  -28.6600  -30.0710   25.4420 C   0  0  0  0  0  1  0  0  0  0  0  0
  2  1  1  0
  3  9  1  0
  5  7  1  0
  5 10  1  0
  6  4  1  0
  6  1  1  0
  7  3  1  0
  7  6  1  0
  8 13  1  0
  8  2  1  0
  9 63  1  0
  9  8  1  0
 10 11  1  0
 10  4  1  0
 12 10  1  0
 13 19  1  0
 14 15  1  0
 16 14  2  0
 17 15  2  0
 18 19  2  0
 18 16  1  0
 19 17  1  0
 20 18  1  0
 21 20  2  0
 22 20  1  0
 23 22  1  0
 23 24  1  0
 24 33  1  0
 25 33  1  0
 25 31  1  0
 26 31  1  0
 27 28  1  0
 27 26  1  0
 29 28  1  0
 29 38  1  0
 29 30  1  0
 31 30  1  0
 32 25  2  0
 33 34  1  0
 35 36  2  0
 36 55  1  0
 37 36  1  0
 37 40  1  0
 38 39  1  0
 38 35  1  0
 39 37  2  0
 40 41  1  0
 41 42  2  0
 43 46  1  0
 43 42  1  0
 44 43  2  0
 45 44  1  0
 45 40  2  0
 46 47  1  0
 47 52  2  0
 47 48  1  0
 48 49  2  0
 49 50  1  0
 50 54  1  0
 51 50  2  0
 52 51  1  0
 53 52  1  0
 55 56  1  0
 56 58  1  0
 56 59  1  0
 57 55  2  0
 60 35  1  0
 60 61  1  0
 62 60  1  0
 63 64  1  0
 65 64  1  0
 65 67  1  0
 66 77  2  0
 67 72  1  0
 68 76  1  0
 68 78  1  0
 69 71  1  0
 69 75  1  0
 70 76  1  0
 71 70  1  0
 72 71  2  0
 73 67  2  0
 73 74  1  0
 74 69  2  0
 75 68  1  0
 76 66  1  0
 78 80  2  0
 79 78  1  0
 81 79  1  0
 82 91  2  0
 82 87  1  0
 83 79  1  0
 83 87  1  0
 84 83  1  0
 85 86  1  0
 85 84  1  0
 86 82  1  0
 87 88  2  0
 88 89  1  0
 90 89  2  0
 91 90  1  0
 92 66  1  0
 92102  1  0
 92 93  1  0
 93 96  1  0
 94 93  1  0
 94 98  1  0
 95 94  2  0
 98 97  1  0
 98100  1  0
100101  1  0
100 99  1  0
102105  1  1
102103  1  0
104102  1  0
M  ISO  4  25 100  33 100  64 101  65 101
M  END
>  <TORSDO>  (30) 
F 24

>  <SCORE>  (30) 
-3.555

>  <name>  (30) 
29

>  <ligand_id>  (30) 
29

>  <original_smiles>  (30) 
[H]c1c([H])c([H])c(C([H])([H])C2([H])C([H])([H])C([H])([H])C3([H])C([H])(C([H])([H])C2([H])C([H])([H])C([H])([H])Oc2c([H])c([H])c4c(c2[H])C([H])([H])N(C(=O)C([H])(N([H])C(=O)C([H])(N([H])C([H])([H])[H])C([H])([H])[H])C(C([H])([H])[H])(C([H])([H])[H])C([H])([H])[H])C([H])(C(=O)N([H])C2([H])c5c([H])c([H])c([H])c([H])c5C([H])([H])C([H])([H])C2([H])[H])C4([H])[H])C([H])([H])[N+]([H])([H])C3([H])[H])c(C(=O)C([H])([H])C([H])([H])C([H])([H])N([H])C(=O)N2C([H])([H])C([H])([H])C([H])([H])C([H])(n3nc(-c4c([H])c([H])c(Oc5c([H])c([H])c(F)c([H])c5F)c([H])c4[H])c(C(=O)N([H])[H])c3N([H])[H])C2([H])[H])c1[H]

>  <smiles>  (30) 
[H]c1c([H])c([H])c(C([H])([H])C2([H])C([H])([H])C([H])([H])C3([H])C([H])(C([H])([H])C2([H])C([H])([H])C([H])([H])Oc2c([H])c([H])c4c(c2[H])C([H])([H])N(C(=O)C([H])(N([H])C(=O)C([H])(N([H])C([H])([H])[H])C([H])([H])[H])C(C([H])([H])[H])(C([H])([H])[H])C([H])([H])[H])C([H])(C(=O)N([H])C2([H])c5c([H])c([H])c([H])c([H])c5C([H])([H])C([H])([H])C2([H])[H])C4([H])[H])C([H])([H])[N+]([H])([H])C3([H])[H])c(C(=O)C([H])([H])C([H])([H])C([H])([H])N([H])C(=O)N2C([H])([H])C([H])([H])C([H])([H])C([H])(n3nc(-c4c([H])c([H])c(Oc5c([H])c([H])c(F)c([H])c5F)c([H])c4[H])c(C(=O)N([H])[H])c3N([H])[H])C2([H])[H])c1[H]

$$$$
30:0:0
     RDKit          3D

 97106  0  0  1  0  0  0  0  0999 V2000
  -29.4290  -23.0360   19.0100 C   0  0  0  0  0  2  0  0  0  0  0  0
  -31.5300  -23.7420   17.8560 C   0  0  0  0  0  2  0  0  0  0  0  0
  -29.3760  -21.7950   18.1400 C   0  0  0  0  0  2  0  0  0  0  0  0
  -31.4960  -22.4240   17.0420 C   0  0  0  0  0  2  0  0  0  0  0  0
  -30.1060  -24.1890   18.2420 C   0  0  0  0  0  3  0  0  0  0  0  0
  -30.7410  -21.3640   17.7610 N   0  0  2  0  0  4  0  0  0  0  0  0
  -31.2570  -21.2140   18.6140 H   0  0  0  0  0  0  0  0  0  0  0  0
  -30.0590  -25.5090   19.0330 C   0  0  0  0  0  2  0  0  0  0  0  0
  -28.6050  -25.9170   19.2870 C   0  0  0  0  0  2  0  0  0  0  0  0
  -28.4930  -26.9590   20.2290 O   0  0  0  0  0  0  0  0  0  0  0  0
  -24.5490  -31.9760   23.3100 C   0  0  0  0  0  0  0  0  0  0  0  0
  -27.2660  -27.5820   20.2690 C   0  0  0  0  0  0  0  0  0  0  0  0
  -23.3690  -30.5590   21.6620 C   0  0  0  0  0  3  0  0  0  0  0  0
  -24.8440  -29.0280   20.2730 C   0  0  0  0  0  0  0  0  0  0  0  0
  -25.8910  -30.9430   21.4880 C   0  0  0  0  0  2  0  0  0  0  0  0
  -25.9900  -29.5710   20.8670 C   0  0  0  0  0  0  0  0  0  0  0  0
  -27.2000  -28.8490   20.8730 C   0  0  0  0  0  3  0  0  0  0  0  0
  -26.0860  -27.0290   19.7040 C   0  0  0  0  0  3  0  0  0  0  0  0
  -24.8820  -27.7480   19.7000 C   0  0  0  0  0  3  0  0  0  0  0  0
  -23.5980  -29.8790   20.2890 C   0  0  0  0  0  2  0  0  0  0  0  0
  -24.6220  -31.1740   22.2130 N   0  0  0  0  0  0  0  0  0  0  0  0
  -23.4590  -32.2460   23.8340 O   0  0  0  0  0  0  0  0  0  0  0  0
  -22.7180  -29.5320   22.6160 C   0  0  0  0  0  0  0  0  0  0  0  0
  -21.3950  -29.3490   22.4790 N   0  0  0  0  0  0  0  0  0  0  0  0
  -23.3990  -28.9060   23.4340 O   0  0  0  0  0  0  0  0  0  0  0  0
  -20.9110  -29.9070   21.7890 H   0  0  0  0  0  0  0  0  0  0  0  0
  -18.0140  -28.1770   22.9580 C   0  0  0  0  0  0  0  0  0  0  0  0
  -20.5710  -28.4140   23.2430 C   0  0  0  0  0  3  0  0  0  0  0  0
  -20.6680  -26.9840   22.6610 C   0  0  0  0  0  2  0  0  0  0  0  0
  -19.5660  -26.6720   21.6430 C   0  0  0  0  0  2  0  0  0  0  0  0
  -18.1840  -26.8270   22.2820 C   0  0  0  0  0  2  0  0  0  0  0  0
  -19.1370  -28.9300   23.3950 C   0  0  0  0  0  0  0  0  0  0  0  0
  -18.9260  -30.1950   23.9850 C   0  0  0  0  0  3  0  0  0  0  0  0
  -17.6240  -30.7070   24.1430 C   0  0  0  0  0  3  0  0  0  0  0  0
  -16.5160  -29.9510   23.7240 C   0  0  0  0  0  3  0  0  0  0  0  0
  -16.7120  -28.6880   23.1370 C   0  0  0  0  0  3  0  0  0  0  0  0
  -25.8250  -32.6160   23.9390 C   0  0  0  0  0  3  0  0  0  0  0  0
  -25.5130  -34.0180   24.2380 N   0  0  0  0  0  0  0  0  0  0  0  0
  -25.8770  -35.0560   23.4740 C   0  0  0  0  0  0  0  0  0  0  0  0
  -26.5850  -34.9340   22.4700 O   0  0  0  0  0  0  0  0  0  0  0  0
  -24.8930  -34.1890   25.0160 H   0  0  0  0  0  0  0  0  0  0  0  0
  -24.1660  -36.8410   23.0270 C   0  0  0  0  0  1  0  0  0  0  0  0
  -25.3770  -36.4510   23.8890 C   0  0  0  0  0  3  0  0  0  0  0  0
  -27.4790  -37.3490   24.7850 C   0  0  0  0  0  1  0  0  0  0  0  0
  -26.4160  -37.5000   23.7960 N   0  0  0  0  0  0  0  0  0  0  0  0
  -26.0070  -38.4240   23.9090 H   0  0  0  0  0  0  0  0  0  0  0  0
  -26.3230  -31.8620   25.2340 C   0  0  1  0  0  0  0  0  0  0  0  0
  -25.2100  -31.6240   26.2800 C   0  0  0  0  0  1  0  0  0  0  0  0
  -26.9270  -30.4880   24.8640 C   0  0  0  0  0  1  0  0  0  0  0  0
  -27.4530  -32.6740   25.9110 C   0  0  0  0  0  1  0  0  0  0  0  0
  -30.6950  -20.0510   17.0840 C   0  0  0  0  0  2  0  0  0  0  0  0
  -30.6650  -18.9360   18.1520 C   0  0  0  0  0  2  0  0  0  0  0  0
  -30.9610  -14.9440   20.9330 C   0  0  0  0  0  0  0  0  0  0  0  0
  -30.7950  -12.6490   20.1790 C   0  0  0  0  0  2  0  0  0  0  0  0
  -30.0130  -12.6620   18.8480 C   0  0  0  0  0  2  0  0  0  0  0  0
  -28.4990  -12.5580   19.1150 C   0  0  0  0  0  2  0  0  0  0  0  0
  -27.9860  -13.5540   20.1920 C   0  0  0  0  0  3  0  0  0  0  0  0
  -28.9090  -13.5700   21.4340 C   0  0  0  0  0  2  0  0  0  0  0  0
  -30.2910  -13.7680   20.9790 N   0  0  0  0  0  0  0  0  0  0  0  0
  -32.1650  -15.0290   21.1710 O   0  0  0  0  0  0  0  0  0  0  0  0
  -28.8660  -17.2650   18.8630 C   0  0  0  0  0  2  0  0  0  0  0  0
  -29.5390  -16.8000   20.1710 C   0  0  0  0  0  2  0  0  0  0  0  0
  -31.4650  -15.9850   18.8140 C   0  0  0  0  0  2  0  0  0  0  0  0
  -29.8890  -17.6510   17.7690 C   0  0  0  0  0  3  0  0  0  0  0  0
  -30.8060  -16.4410   17.4970 C   0  0  0  0  0  3  0  0  0  0  0  0
  -30.5100  -15.7270   19.9190 N   0  0  0  0  0  0  0  0  0  0  0  0
  -25.5260  -14.1710   20.6300 C   0  0  0  0  0  0  0  0  0  0  0  0
  -24.4240  -13.4020   20.8810 C   0  0  0  0  0  0  0  0  0  0  0  0
  -24.8890  -12.0520   20.9440 C   0  0  0  0  0  0  0  0  0  0  0  0
  -26.5920  -13.2890   20.5420 N   0  0  0  0  0  0  0  0  0  0  0  0
  -26.2060  -12.0110   20.7960 N   0  0  0  0  0  0  0  0  0  0  0  0
  -24.1490  -10.7940   21.0810 C   0  0  0  0  0  0  0  0  0  0  0  0
  -24.5010   -9.8330   22.0550 C   0  0  0  0  0  3  0  0  0  0  0  0
  -23.7640   -8.6340   22.1780 C   0  0  0  0  0  3  0  0  0  0  0  0
  -22.6590   -8.3920   21.3280 C   0  0  0  0  0  0  0  0  0  0  0  0
  -22.3250   -9.3420   20.3470 C   0  0  0  0  0  3  0  0  0  0  0  0
  -23.0640  -10.5310   20.2250 C   0  0  0  0  0  3  0  0  0  0  0  0
  -21.9000   -7.2440   21.3600 O   0  0  0  0  0  0  0  0  0  0  0  0
  -21.7520   -6.5120   22.5080 C   0  0  0  0  0  0  0  0  0  0  0  0
  -21.1920   -7.0680   23.6810 C   0  0  0  0  0  3  0  0  0  0  0  0
  -20.9960   -6.2620   24.8190 C   0  0  0  0  0  3  0  0  0  0  0  0
  -21.3470   -4.8990   24.7840 C   0  0  0  0  0  0  0  0  0  0  0  0
  -21.8990   -4.3410   23.6170 C   0  0  0  0  0  3  0  0  0  0  0  0
  -22.0990   -5.1470   22.4830 C   0  0  0  0  0  0  0  0  0  0  0  0
  -22.6110   -4.6020   21.3530 F   0  0  0  0  0  0  0  0  0  0  0  0
  -21.1520   -4.1190   25.8730 F   0  0  0  0  0  0  0  0  0  0  0  0
  -23.0010  -13.8800   20.9630 C   0  0  0  0  0  0  0  0  0  0  0  0
  -22.1830  -13.2300   21.7810 N   0  0  0  0  0  0  0  0  0  0  0  0
  -22.6190  -14.8670   20.3350 O   0  0  0  0  0  0  0  0  0  0  0  0
  -22.5020  -12.4330   22.3130 H   0  0  0  0  0  0  0  0  0  0  0  0
  -21.2260  -13.5380   21.8780 H   0  0  0  0  0  0  0  0  0  0  0  0
  -25.7130  -15.5370   20.4460 N   0  0  0  0  0  0  0  0  0  0  0  0
  -24.9390  -16.1910   20.4900 H   0  0  0  0  0  0  0  0  0  0  0  0
  -26.6070  -15.9810   20.2750 H   0  0  0  0  0  0  0  0  0  0  0  0
  -31.8270  -16.7190   16.3630 C   0  0  0  0  0  2  0  0  0  0  0  0
  -34.1540  -15.6360   16.6220 C   0  0  0  0  0  1  0  0  0  0  0  0
  -32.7580  -15.5470   15.9830 C   0  0  0  0  0  2  0  0  0  0  0  0
  2  5  1  0
  3  1  1  0
  4  6  1  0
  4  2  1  0
  5  1  1  0
  5  8  1  0
  6  3  1  0
  6  7  1  1
  8  9  1  0
  9 10  1  0
 10 12  1  0
 11 22  2  0
 12 17  1  0
 13 21  1  0
 13 23  1  0
 14 20  1  0
 14 16  1  0
 15 21  1  0
 16 17  2  0
 16 15  1  0
 18 12  2  0
 19 18  1  0
 19 14  2  0
 20 13  1  0
 21 11  1  0
 23 25  2  0
 24 23  1  0
 26 24  1  0
 27 36  2  0
 27 32  1  0
 28 24  1  0
 28 32  1  0
 29 28  1  0
 30 31  1  0
 30 29  1  0
 31 27  1  0
 32 33  2  0
 33 34  1  0
 35 34  2  0
 36 35  1  0
 37 11  1  0
 37 38  1  0
 37 47  1  0
 38 41  1  0
 39 43  1  0
 39 38  1  0
 40 39  2  0
 43 42  1  0
 45 43  1  0
 45 46  1  0
 45 44  1  0
 47 50  1  1
 47 48  1  0
 49 47  1  0
 51  6  1  0
 51 52  1  0
 53 59  1  0
 53 60  2  0
 54 59  1  0
 55 56  1  0
 55 54  1  0
 57 56  1  0
 57 70  1  0
 57 58  1  0
 59 58  1  0
 61 62  1  0
 63 66  1  0
 64 52  1  0
 64 61  1  0
 65 95  1  0
 65 64  1  0
 65 63  1  0
 66 62  1  0
 66 53  1  0
 67 68  2  0
 68 69  1  0
 68 87  1  0
 69 72  1  0
 70 67  1  0
 70 71  1  0
 71 69  2  0
 72 73  1  0
 73 74  2  0
 75 78  1  0
 75 74  1  0
 76 75  2  0
 77 76  1  0
 77 72  2  0
 78 79  1  0
 79 80  1  0
 80 81  2  0
 82 81  1  0
 82 86  1  0
 83 82  2  0
 84 79  2  0
 84 83  1  0
 85 84  1  0
 87 88  1  0
 88 91  1  0
 88 90  1  0
 89 87  2  0
 92 93  1  0
 92 67  1  0
 94 92  1  0
 97 95  1  0
 97 96  1  0
M  ISO  4   9 101  10 101  53 100  66 100
M  END
>  <TORSDO>  (31) 
F 22

>  <SCORE>  (31) 
-11.938

>  <name>  (31) 
30

>  <ligand_id>  (31) 
30

>  <original_smiles>  (31) 
[H]c1c([H])c([H])c2c(c1[H])C([H])([H])C([H])([H])C([H])([H])C2([H])N([H])C(=O)C1([H])N(C(=O)C([H])(N([H])C(=O)C([H])(N([H])C([H])([H])[H])C([H])([H])[H])C(C([H])([H])[H])(C([H])([H])[H])C([H])([H])[H])C([H])([H])c2c([H])c(OC([H])([H])C([H])([H])C3([H])C([H])([H])C([H])([H])[N+]([H])(C([H])([H])C([H])([H])C4([H])C([H])([H])C([H])([H])N(C(=O)N5C([H])([H])C([H])([H])C([H])([H])C([H])(n6nc(-c7c([H])c([H])c(Oc8c([H])c([H])c(F)c([H])c8F)c([H])c7[H])c(C(=O)N([H])[H])c6N([H])[H])C5([H])[H])C([H])([H])C4([H])C([H])([H])C([H])([H])C([H])([H])[H])C([H])([H])C3([H])[H])c([H])c([H])c2C1([H])[H]

>  <smiles>  (31) 
[H]c1c([H])c([H])c2c(c1[H])C([H])([H])C([H])([H])C([H])([H])C2([H])N([H])C(=O)C1([H])N(C(=O)C([H])(N([H])C(=O)C([H])(N([H])C([H])([H])[H])C([H])([H])[H])C(C([H])([H])[H])(C([H])([H])[H])C([H])([H])[H])C([H])([H])c2c([H])c(OC([H])([H])C([H])([H])C3([H])C([H])([H])C([H])([H])[N+]([H])(C([H])([H])C([H])([H])C4([H])C([H])([H])C([H])([H])N(C(=O)N5C([H])([H])C([H])([H])C([H])([H])C([H])(n6nc(-c7c([H])c([H])c(Oc8c([H])c([H])c(F)c([H])c8F)c([H])c7[H])c(C(=O)N([H])[H])c6N([H])[H])C5([H])[H])C([H])([H])C4([H])C([H])([H])C([H])([H])C([H])([H])[H])C([H])([H])C3([H])[H])c([H])c([H])c2C1([H])[H]

$$$$
31:0:0
     RDKit          3D

 89 97  0  0  1  0  0  0  0  0999 V2000
  -27.4390  -22.8050   20.6380 C   0  0  0  0  0  3  0  0  0  0  0  0
  -28.6340  -22.2200   20.8550 C   0  0  0  0  0  0  0  0  0  0  0  0
  -27.2260  -24.2750   20.2790 C   0  0  0  0  0  2  0  0  0  0  0  0
  -29.8980  -23.0760   20.8330 C   0  0  0  0  0  2  0  0  0  0  0  0
  -29.7060  -24.5370   20.3060 C   0  0  0  0  0  2  0  0  0  0  0  0
  -28.3750  -25.2420   20.6850 C   0  0  0  0  0  3  0  0  0  0  0  0
  -28.3630  -26.5990   20.1060 O   0  0  0  0  0  0  0  0  0  0  0  0
  -24.6220  -31.8750   23.2440 C   0  0  0  0  0  0  0  0  0  0  0  0
  -27.2100  -27.3840   20.1410 C   0  0  0  0  0  0  0  0  0  0  0  0
  -23.3970  -30.4840   21.6090 C   0  0  0  0  0  3  0  0  0  0  0  0
  -24.8340  -28.9540   20.1590 C   0  0  0  0  0  0  0  0  0  0  0  0
  -25.9260  -30.8270   21.3900 C   0  0  0  0  0  2  0  0  0  0  0  0
  -26.0040  -29.4530   20.7460 C   0  0  0  0  0  0  0  0  0  0  0  0
  -27.1950  -28.6750   20.7390 C   0  0  0  0  0  3  0  0  0  0  0  0
  -26.0300  -26.9460   19.5030 C   0  0  0  0  0  3  0  0  0  0  0  0
  -24.8450  -27.7000   19.5360 C   0  0  0  0  0  3  0  0  0  0  0  0
  -23.5930  -29.8170   20.2240 C   0  0  0  0  0  2  0  0  0  0  0  0
  -24.6670  -31.0800   22.1370 N   0  0  0  0  0  0  0  0  0  0  0  0
  -23.5470  -32.1440   23.7990 O   0  0  0  0  0  0  0  0  0  0  0  0
  -22.7580  -29.4540   22.5700 C   0  0  0  0  0  0  0  0  0  0  0  0
  -21.4330  -29.2610   22.4560 N   0  0  0  0  0  0  0  0  0  0  0  0
  -23.4520  -28.8310   23.3780 O   0  0  0  0  0  0  0  0  0  0  0  0
  -20.9350  -29.8180   21.7760 H   0  0  0  0  0  0  0  0  0  0  0  0
  -18.0760  -28.0190   22.9630 C   0  0  0  0  0  0  0  0  0  0  0  0
  -20.6300  -28.3130   23.2290 C   0  0  0  0  0  3  0  0  0  0  0  0
  -20.7500  -26.8810   22.6570 C   0  0  0  0  0  2  0  0  0  0  0  0
  -19.6500  -26.5400   21.6460 C   0  0  0  0  0  2  0  0  0  0  0  0
  -18.2680  -26.6700   22.2920 C   0  0  0  0  0  2  0  0  0  0  0  0
  -19.1840  -28.7970   23.3900 C   0  0  0  0  0  0  0  0  0  0  0  0
  -18.9510  -30.0580   23.9770 C   0  0  0  0  0  3  0  0  0  0  0  0
  -17.6390  -30.5450   24.1410 C   0  0  0  0  0  3  0  0  0  0  0  0
  -16.5440  -29.7640   23.7320 C   0  0  0  0  0  3  0  0  0  0  0  0
  -16.7640  -28.5030   23.1500 C   0  0  0  0  0  3  0  0  0  0  0  0
  -25.9140  -32.5060   23.8490 C   0  0  0  0  0  3  0  0  0  0  0  0
  -26.4510  -31.7290   25.1130 C   0  0  1  0  0  0  0  0  0  0  0  0
  -25.3760  -31.4880   26.1970 C   0  0  0  0  0  1  0  0  0  0  0  0
  -27.0310  -30.3540   24.7070 C   0  0  0  0  0  1  0  0  0  0  0  0
  -27.6120  -32.5230   25.7570 C   0  0  0  0  0  1  0  0  0  0  0  0
  -25.6080  -33.9030   24.1880 N   0  0  0  0  0  0  0  0  0  0  0  0
  -25.9270  -34.9570   23.4280 C   0  0  0  0  0  0  0  0  0  0  0  0
  -26.5830  -34.8590   22.3860 O   0  0  0  0  0  0  0  0  0  0  0  0
  -25.0270  -34.0520   25.0010 H   0  0  0  0  0  0  0  0  0  0  0  0
  -24.1920  -36.7480   23.1030 C   0  0  0  0  0  1  0  0  0  0  0  0
  -25.4450  -36.3440   23.8970 C   0  0  0  0  0  3  0  0  0  0  0  0
  -27.5930  -37.2250   24.6950 C   0  0  0  0  0  1  0  0  0  0  0  0
  -26.4750  -37.3980   23.7710 N   0  0  0  0  0  0  0  0  0  0  0  0
  -26.0710  -38.3170   23.9310 H   0  0  0  0  0  0  0  0  0  0  0  0
  -28.7440  -20.7320   21.2820 C   0  0  0  0  0  2  0  0  0  0  0  0
  -29.5270  -19.7150   20.3830 C   0  0  0  0  0  2  0  0  0  0  0  0
  -29.2880  -18.2120   20.8040 C   0  0  0  0  0  3  0  0  0  0  0  0
  -30.2950  -17.1180   20.2960 C   0  0  0  0  0  3  0  0  0  0  0  0
  -30.6300  -14.6000   20.2410 C   0  0  0  0  0  0  0  0  0  0  0  0
  -30.3210  -12.3950   19.1710 C   0  0  0  0  0  2  0  0  0  0  0  0
  -29.3600  -12.5570   17.9740 C   0  0  0  0  0  2  0  0  0  0  0  0
  -27.8930  -12.4270   18.4270 C   0  0  0  0  0  2  0  0  0  0  0  0
  -27.5700  -13.2860   19.6770 C   0  0  0  0  0  3  0  0  0  0  0  0
  -28.6490  -13.1230   20.7740 C   0  0  0  0  0  2  0  0  0  0  0  0
  -29.9590  -13.4140   20.1710 N   0  0  0  0  0  0  0  0  0  0  0  0
  -31.7840  -14.7220   19.8230 O   0  0  0  0  0  0  0  0  0  0  0  0
  -29.9000  -15.7030   20.5650 N   0  0  0  0  0  0  0  0  0  0  0  0
  -28.9520  -15.5340   20.8710 H   0  0  0  0  0  0  0  0  0  0  0  0
  -25.1940  -13.8970   20.4450 C   0  0  0  0  0  0  0  0  0  0  0  0
  -24.1330  -13.1260   20.8410 C   0  0  0  0  0  0  0  0  0  0  0  0
  -24.5890  -11.7730   20.8030 C   0  0  0  0  0  0  0  0  0  0  0  0
  -26.2300  -13.0110   20.1890 N   0  0  0  0  0  0  0  0  0  0  0  0
  -25.8750  -11.7300   20.4710 N   0  0  0  0  0  0  0  0  0  0  0  0
  -23.8630  -10.5130   21.0040 C   0  0  0  0  0  0  0  0  0  0  0  0
  -24.3100   -9.5410   21.9270 C   0  0  0  0  0  3  0  0  0  0  0  0
  -23.5820   -8.3480   22.1220 C   0  0  0  0  0  3  0  0  0  0  0  0
  -22.3940   -8.1150   21.3900 C   0  0  0  0  0  0  0  0  0  0  0  0
  -21.9660   -9.0720   20.4560 C   0  0  0  0  0  3  0  0  0  0  0  0
  -22.6940  -10.2580   20.2590 C   0  0  0  0  0  3  0  0  0  0  0  0
  -21.6380   -6.9710   21.4910 O   0  0  0  0  0  0  0  0  0  0  0  0
  -21.6090   -6.2260   22.6430 C   0  0  0  0  0  0  0  0  0  0  0  0
  -21.2180   -6.7820   23.8810 C   0  0  0  0  0  3  0  0  0  0  0  0
  -21.1330   -5.9630   25.0250 C   0  0  0  0  0  3  0  0  0  0  0  0
  -21.4310   -4.5910   24.9360 C   0  0  0  0  0  0  0  0  0  0  0  0
  -21.8150   -4.0340   23.7020 C   0  0  0  0  0  3  0  0  0  0  0  0
  -21.9000   -4.8480   22.5600 C   0  0  0  0  0  0  0  0  0  0  0  0
  -22.2480   -4.3020   21.3700 F   0  0  0  0  0  0  0  0  0  0  0  0
  -21.3440   -3.8030   26.0330 F   0  0  0  0  0  0  0  0  0  0  0  0
  -22.7430  -13.6060   21.1340 C   0  0  0  0  0  0  0  0  0  0  0  0
  -22.0300  -12.9170   22.0180 N   0  0  0  0  0  0  0  0  0  0  0  0
  -22.2940  -14.6280   20.6150 O   0  0  0  0  0  0  0  0  0  0  0  0
  -22.4090  -12.0960   22.4660 H   0  0  0  0  0  0  0  0  0  0  0  0
  -21.0940  -13.2160   22.2490 H   0  0  0  0  0  0  0  0  0  0  0  0
  -25.3620  -15.2660   20.2590 N   0  0  0  0  0  0  0  0  0  0  0  0
  -24.5930  -15.9220   20.3600 H   0  0  0  0  0  0  0  0  0  0  0  0
  -26.1990  -15.6920   19.8850 H   0  0  0  0  0  0  0  0  0  0  0  0
  1  2  2  0
  2 48  1  0
  3  1  1  0
  3  6  1  0
  4  2  1  0
  5  6  1  0
  5  4  1  0
  6  7  1  0
  7  9  1  0
  8 19  2  0
  9 14  1  0
 10 18  1  0
 10 20  1  0
 11 17  1  0
 11 13  1  0
 12 18  1  0
 13 12  1  0
 14 13  2  0
 15 16  1  0
 15  9  2  0
 16 11  2  0
 17 10  1  0
 18  8  1  0
 20 22  2  0
 21 20  1  0
 23 21  1  0
 24 33  2  0
 24 29  1  0
 25 21  1  0
 25 29  1  0
 26 25  1  0
 27 28  1  0
 27 26  1  0
 28 24  1  0
 29 30  2  0
 30 31  1  0
 32 31  2  0
 33 32  1  0
 34  8  1  0
 34 39  1  0
 34 35  1  0
 35 38  1  1
 35 36  1  0
 37 35  1  0
 39 42  1  0
 40 44  1  0
 40 39  1  0
 41 40  2  0
 44 43  1  0
 46 44  1  0
 46 47  1  0
 46 45  1  0
 49 50  1  0
 49 48  1  0
 51 60  1  0
 51 50  2  0
 52 60  1  0
 53 58  1  0
 54 55  1  0
 54 53  1  0
 56 55  1  0
 56 65  1  0
 56 57  1  0
 58 52  1  0
 58 57  1  0
 59 52  2  0
 60 61  1  0
 62 63  2  0
 63 82  1  0
 64 63  1  0
 64 67  1  0
 65 62  1  0
 65 66  1  0
 66 64  2  0
 67 68  1  0
 68 69  2  0
 70 73  1  0
 70 69  1  0
 71 70  2  0
 72 71  1  0
 72 67  2  0
 73 74  1  0
 74 75  1  0
 75 76  2  0
 77 76  1  0
 77 81  1  0
 78 77  2  0
 79 74  2  0
 79 78  1  0
 80 79  1  0
 82 83  1  0
 83 86  1  0
 83 85  1  0
 84 82  2  0
 87 88  1  0
 87 62  1  0
 89 87  1  0
M  ISO  4   6 101   7 101  52 100  60 100
M  END
>  <TORSDO>  (32) 
F 20

>  <SCORE>  (32) 
-13.611

>  <name>  (32) 
31

>  <ligand_id>  (32) 
31

>  <original_smiles>  (32) 
[H]C1=C(C([H])([H])C([H])([H])C([H])([H])C([H])([H])N([H])C(=O)N2C([H])([H])C([H])([H])C([H])([H])C([H])(n3nc(-c4c([H])c([H])c(Oc5c([H])c([H])c(F)c([H])c5F)c([H])c4[H])c(C(=O)N([H])[H])c3N([H])[H])C2([H])[H])C([H])([H])C([H])([H])C([H])(Oc2c([H])c([H])c3c(c2[H])C([H])([H])N(C(=O)C([H])(N([H])C(=O)C([H])(N([H])C([H])([H])[H])C([H])([H])[H])C(C([H])([H])[H])(C([H])([H])[H])C([H])([H])[H])C([H])(C(=O)N([H])C2([H])c4c([H])c([H])c([H])c([H])c4C([H])([H])C([H])([H])C2([H])[H])C3([H])[H])C1([H])[H]

>  <smiles>  (32) 
[H]C1=C(C([H])([H])C([H])([H])C([H])([H])C([H])([H])N([H])C(=O)N2C([H])([H])C([H])([H])C([H])([H])C([H])(n3nc(-c4c([H])c([H])c(Oc5c([H])c([H])c(F)c([H])c5F)c([H])c4[H])c(C(=O)N([H])[H])c3N([H])[H])C2([H])[H])C([H])([H])C([H])([H])C([H])(Oc2c([H])c([H])c3c(c2[H])C([H])([H])N(C(=O)C([H])(N([H])C(=O)C([H])(N([H])C([H])([H])[H])C([H])([H])[H])C(C([H])([H])[H])(C([H])([H])[H])C([H])([H])[H])C([H])(C(=O)N([H])C2([H])c4c([H])c([H])c([H])c([H])c4C([H])([H])C([H])([H])C2([H])[H])C3([H])[H])C1([H])[H]

$$$$
32:0:0
     RDKit          3D

 97105  0  0  1  0  0  0  0  0999 V2000
  -28.9350  -20.4650   19.7120 C   0  0  0  0  0  0  0  0  0  0  0  0
  -26.9900  -20.6680   18.2880 C   0  0  0  0  0  2  0  0  0  0  0  0
  -27.0220  -21.8870   19.2260 C   0  0  0  0  0  2  0  0  0  0  0  0
  -28.4080  -20.0640   18.3310 C   0  0  0  0  0  3  0  0  0  0  0  0
  -28.0290  -21.5130   20.3360 C   0  0  0  0  0  3  0  0  0  0  0  0
  -29.9570  -20.0280   20.2460 O   0  0  0  0  0  0  0  0  0  0  0  0
  -28.8540  -22.6110   20.9000 N   0  0  0  0  0  4  0  0  0  0  0  0
  -28.2410  -23.2410   21.3900 H   0  0  0  0  0  0  0  0  0  0  0  0
  -29.4520  -22.1940   21.5970 H   0  0  0  0  0  0  0  0  0  0  0  0
  -29.7340  -23.3610   19.9670 C   0  0  0  0  0  2  0  0  0  0  0  0
  -29.7240  -24.8630   20.2690 C   0  0  0  0  0  2  0  0  0  0  0  0
  -28.3560  -25.4690   19.9510 C   0  0  0  0  0  2  0  0  0  0  0  0
  -28.3940  -26.8610   20.1980 O   0  0  0  0  0  0  0  0  0  0  0  0
  -24.5350  -31.9300   23.2580 C   0  0  0  0  0  0  0  0  0  0  0  0
  -27.1920  -27.5250   20.1830 C   0  0  0  0  0  0  0  0  0  0  0  0
  -23.3270  -30.5260   21.6170 C   0  0  0  0  0  3  0  0  0  0  0  0
  -24.7840  -28.9950   20.1980 C   0  0  0  0  0  0  0  0  0  0  0  0
  -25.8490  -30.9030   21.4140 C   0  0  0  0  0  2  0  0  0  0  0  0
  -25.9400  -29.5350   20.7770 C   0  0  0  0  0  0  0  0  0  0  0  0
  -27.1470  -28.8080   20.7640 C   0  0  0  0  0  3  0  0  0  0  0  0
  -26.0140  -26.9880   19.6070 C   0  0  0  0  0  3  0  0  0  0  0  0
  -24.8140  -27.7160   19.6170 C   0  0  0  0  0  3  0  0  0  0  0  0
  -23.5390  -29.8470   20.2380 C   0  0  0  0  0  2  0  0  0  0  0  0
  -24.5890  -31.1330   22.1550 N   0  0  0  0  0  0  0  0  0  0  0  0
  -23.4540  -32.2000   23.8010 O   0  0  0  0  0  0  0  0  0  0  0  0
  -22.6820  -29.5020   22.5750 C   0  0  0  0  0  0  0  0  0  0  0  0
  -21.3560  -29.3230   22.4490 N   0  0  0  0  0  0  0  0  0  0  0  0
  -23.3660  -28.8700   23.3830 O   0  0  0  0  0  0  0  0  0  0  0  0
  -20.8670  -29.8840   21.7650 H   0  0  0  0  0  0  0  0  0  0  0  0
  -17.9770  -28.1550   22.9530 C   0  0  0  0  0  0  0  0  0  0  0  0
  -20.5370  -28.3890   23.2180 C   0  0  0  0  0  3  0  0  0  0  0  0
  -20.6260  -26.9590   22.6340 C   0  0  0  0  0  2  0  0  0  0  0  0
  -19.5180  -26.6510   21.6220 C   0  0  0  0  0  2  0  0  0  0  0  0
  -18.1400  -26.8060   22.2720 C   0  0  0  0  0  2  0  0  0  0  0  0
  -19.1030  -28.9040   23.3830 C   0  0  0  0  0  0  0  0  0  0  0  0
  -18.8990  -30.1670   23.9790 C   0  0  0  0  0  3  0  0  0  0  0  0
  -17.5990  -30.6820   24.1460 C   0  0  0  0  0  3  0  0  0  0  0  0
  -16.4860  -29.9280   23.7340 C   0  0  0  0  0  3  0  0  0  0  0  0
  -16.6760  -28.6660   23.1440 C   0  0  0  0  0  3  0  0  0  0  0  0
  -25.8230  -32.5600   23.8760 C   0  0  0  0  0  3  0  0  0  0  0  0
  -25.5220  -33.9610   24.1900 N   0  0  0  0  0  0  0  0  0  0  0  0
  -25.8710  -35.0010   23.4220 C   0  0  0  0  0  0  0  0  0  0  0  0
  -26.5540  -34.8820   22.4000 O   0  0  0  0  0  0  0  0  0  0  0  0
  -24.9210  -34.1260   24.9840 H   0  0  0  0  0  0  0  0  0  0  0  0
  -24.1680  -36.8050   23.0100 C   0  0  0  0  0  1  0  0  0  0  0  0
  -25.3860  -36.3970   23.8560 C   0  0  0  0  0  3  0  0  0  0  0  0
  -27.5090  -37.2670   24.7300 C   0  0  0  0  0  1  0  0  0  0  0  0
  -26.4310  -37.4390   23.7600 N   0  0  0  0  0  0  0  0  0  0  0  0
  -26.0320  -38.3640   23.8930 H   0  0  0  0  0  0  0  0  0  0  0  0
  -26.3330  -31.7950   25.1590 C   0  0  1  0  0  0  0  0  0  0  0  0
  -25.2360  -31.5700   26.2260 C   0  0  0  0  0  1  0  0  0  0  0  0
  -26.9110  -30.4130   24.7770 C   0  0  0  0  0  1  0  0  0  0  0  0
  -27.4840  -32.5890   25.8200 C   0  0  0  0  0  1  0  0  0  0  0  0
  -28.4260  -18.5910   18.2070 N   0  0  0  0  0  4  0  0  0  0  0  0
  -27.8090  -18.3200   17.4570 H   0  0  0  0  0  0  0  0  0  0  0  0
  -28.0630  -18.2010   19.0610 H   0  0  0  0  0  0  0  0  0  0  0  0
  -29.7520  -17.9930   17.9300 C   0  0  0  0  0  2  0  0  0  0  0  0
  -29.9310  -16.6720   18.6910 C   0  0  0  0  0  2  0  0  0  0  0  0
  -30.1460  -16.8190   20.2240 C   0  0  0  0  0  2  0  0  0  0  0  0
  -30.7700  -14.4900   20.6730 C   0  0  0  0  0  0  0  0  0  0  0  0
  -30.5050  -12.3240   19.5800 C   0  0  0  0  0  2  0  0  0  0  0  0
  -29.6140  -12.5470   18.3380 C   0  0  0  0  0  2  0  0  0  0  0  0
  -28.1220  -12.4150   18.7110 C   0  0  0  0  0  2  0  0  0  0  0  0
  -27.7370  -13.2720   19.9450 C   0  0  0  0  0  3  0  0  0  0  0  0
  -28.7470  -13.0560   21.1000 C   0  0  0  0  0  2  0  0  0  0  0  0
  -30.1050  -13.3150   20.5860 N   0  0  0  0  0  0  0  0  0  0  0  0
  -31.9260  -14.6660   20.2840 O   0  0  0  0  0  0  0  0  0  0  0  0
  -29.9690  -15.5330   20.8890 N   0  0  0  0  0  0  0  0  0  0  0  0
  -29.0490  -15.3180   21.2480 H   0  0  0  0  0  0  0  0  0  0  0  0
  -25.3050  -13.8960   20.5360 C   0  0  0  0  0  0  0  0  0  0  0  0
  -24.2230  -13.1280   20.8740 C   0  0  0  0  0  0  0  0  0  0  0  0
  -24.6890  -11.7770   20.8880 C   0  0  0  0  0  0  0  0  0  0  0  0
  -26.3630  -13.0130   20.3690 N   0  0  0  0  0  0  0  0  0  0  0  0
  -25.9900  -11.7360   20.6350 N   0  0  0  0  0  0  0  0  0  0  0  0
  -23.9630  -10.5150   21.0640 C   0  0  0  0  0  0  0  0  0  0  0  0
  -24.3620   -9.5610   22.0260 C   0  0  0  0  0  3  0  0  0  0  0  0
  -23.6360   -8.3620   22.1900 C   0  0  0  0  0  3  0  0  0  0  0  0
  -22.4950   -8.1080   21.3910 C   0  0  0  0  0  0  0  0  0  0  0  0
  -22.1180   -9.0490   20.4170 C   0  0  0  0  0  3  0  0  0  0  0  0
  -22.8450  -10.2380   20.2510 C   0  0  0  0  0  3  0  0  0  0  0  0
  -21.7430   -6.9610   21.4660 O   0  0  0  0  0  0  0  0  0  0  0  0
  -21.6580   -6.2300   22.6240 C   0  0  0  0  0  0  0  0  0  0  0  0
  -21.1950   -6.7970   23.8320 C   0  0  0  0  0  3  0  0  0  0  0  0
  -21.0570   -5.9930   24.9810 C   0  0  0  0  0  3  0  0  0  0  0  0
  -21.3750   -4.6220   24.9240 C   0  0  0  0  0  0  0  0  0  0  0  0
  -21.8320   -4.0540   23.7230 C   0  0  0  0  0  3  0  0  0  0  0  0
  -21.9700   -4.8560   22.5750 C   0  0  0  0  0  0  0  0  0  0  0  0
  -22.3930   -4.2980   21.4150 F   0  0  0  0  0  0  0  0  0  0  0  0
  -21.2330   -3.8480   26.0260 F   0  0  0  0  0  0  0  0  0  0  0  0
  -22.8120  -13.6010   21.0750 C   0  0  0  0  0  0  0  0  0  0  0  0
  -22.0500  -12.9140   21.9200 N   0  0  0  0  0  0  0  0  0  0  0  0
  -22.3920  -14.6120   20.5150 O   0  0  0  0  0  0  0  0  0  0  0  0
  -22.4010  -12.0970   22.3970 H   0  0  0  0  0  0  0  0  0  0  0  0
  -21.0960  -13.2030   22.0870 H   0  0  0  0  0  0  0  0  0  0  0  0
  -25.4770  -15.2630   20.3370 N   0  0  0  0  0  0  0  0  0  0  0  0
  -24.7060  -15.9220   20.3940 H   0  0  0  0  0  0  0  0  0  0  0  0
  -26.3420  -15.6870   20.0380 H   0  0  0  0  0  0  0  0  0  0  0  0
  1  6  2  0
  1  5  1  0
  2  4  1  0
  2  3  1  0
  3  5  1  0
  4 54  1  0
  4  1  1  0
  5  7  1  0
  7  8  1  0
  7  9  1  0
 10 11  1  0
 10  7  1  0
 12 13  1  0
 12 11  1  0
 14 25  2  0
 15 13  1  0
 15 20  1  0
 16 24  1  0
 16 26  1  0
 17 23  1  0
 17 19  1  0
 18 24  1  0
 19 18  1  0
 20 19  2  0
 21 22  1  0
 21 15  2  0
 22 17  2  0
 23 16  1  0
 24 14  1  0
 26 28  2  0
 27 26  1  0
 29 27  1  0
 30 39  2  0
 30 35  1  0
 31 27  1  0
 31 35  1  0
 32 31  1  0
 33 34  1  0
 33 32  1  0
 34 30  1  0
 35 36  2  0
 36 37  1  0
 38 37  2  0
 39 38  1  0
 40 14  1  0
 40 41  1  0
 40 50  1  0
 41 44  1  0
 42 46  1  0
 42 41  1  0
 43 42  2  0
 46 45  1  0
 48 46  1  0
 48 49  1  0
 48 47  1  0
 50 53  1  1
 50 51  1  0
 52 50  1  0
 54 56  1  0
 55 54  1  0
 57 54  1  0
 57 58  1  0
 58 59  1  0
 59 68  1  0
 60 68  1  0
 61 66  1  0
 62 63  1  0
 62 61  1  0
 64 63  1  0
 64 73  1  0
 64 65  1  0
 66 60  1  0
 66 65  1  0
 67 60  2  0
 68 69  1  0
 70 71  2  0
 71 72  1  0
 71 90  1  0
 72 75  1  0
 73 70  1  0
 73 74  1  0
 74 72  2  0
 75 76  1  0
 76 77  2  0
 78 81  1  0
 78 77  1  0
 79 78  2  0
 80 79  1  0
 80 75  2  0
 81 82  1  0
 82 83  1  0
 83 84  2  0
 85 84  1  0
 85 89  1  0
 86 85  2  0
 87 82  2  0
 87 86  1  0
 88 87  1  0
 90 91  1  0
 91 94  1  0
 91 93  1  0
 92 90  2  0
 95 96  1  0
 95 70  1  0
 97 95  1  0
M  ISO  4  12 101  13 101  60 100  68 100
M  END
>  <TORSDO>  (33) 
F 24

>  <SCORE>  (33) 
-12.409

>  <name>  (33) 
32

>  <ligand_id>  (33) 
32

>  <original_smiles>  (33) 
[H]c1c([H])c([H])c2c(c1[H])C([H])([H])C([H])([H])C([H])([H])C2([H])N([H])C(=O)C1([H])N(C(=O)C([H])(N([H])C(=O)C([H])(N([H])C([H])([H])[H])C([H])([H])[H])C(C([H])([H])[H])(C([H])([H])[H])C([H])([H])[H])C([H])([H])c2c([H])c(OC([H])([H])C([H])([H])C([H])([H])[N+]([H])([H])C3([H])C(=O)C([H])([N+]([H])([H])C([H])([H])C([H])([H])C([H])([H])N([H])C(=O)N4C([H])([H])C([H])([H])C([H])([H])C([H])(n5nc(-c6c([H])c([H])c(Oc7c([H])c([H])c(F)c([H])c7F)c([H])c6[H])c(C(=O)N([H])[H])c5N([H])[H])C4([H])[H])C([H])([H])C3([H])[H])c([H])c([H])c2C1([H])[H]

>  <smiles>  (33) 
[H]c1c([H])c([H])c2c(c1[H])C([H])([H])C([H])([H])C([H])([H])C2([H])N([H])C(=O)C1([H])N(C(=O)C([H])(N([H])C(=O)C([H])(N([H])C([H])([H])[H])C([H])([H])[H])C(C([H])([H])[H])(C([H])([H])[H])C([H])([H])[H])C([H])([H])c2c([H])c(OC([H])([H])C([H])([H])C([H])([H])[N+]([H])([H])C3([H])C(=O)C([H])([N+]([H])([H])C([H])([H])C([H])([H])C([H])([H])N([H])C(=O)N4C([H])([H])C([H])([H])C([H])([H])C([H])(n5nc(-c6c([H])c([H])c(Oc7c([H])c([H])c(F)c([H])c7F)c([H])c6[H])c(C(=O)N([H])[H])c5N([H])[H])C4([H])[H])C([H])([H])C3([H])[H])c([H])c([H])c2C1([H])[H]

$$$$
33:0:0
     RDKit          3D

 91 99  0  0  1  0  0  0  0  0999 V2000
  -28.3040  -20.5250   19.8220 C   0  0  0  0  0  2  0  0  0  0  0  0
  -29.9860  -20.1430   21.6130 C   0  0  0  0  0  3  0  0  0  0  0  0
  -29.2830  -19.6370   20.5830 C   0  0  0  0  0  0  0  0  0  0  0  0
  -30.9830  -19.3610   22.4420 C   0  0  0  0  0  2  0  0  0  0  0  0
  -29.4270  -18.1720   20.1510 C   0  0  0  0  0  2  0  0  0  0  0  0
  -30.8350  -17.8450   22.2530 C   0  0  0  0  0  2  0  0  0  0  0  0
  -30.6520  -17.4430   20.7790 C   0  0  0  0  0  3  0  0  0  0  0  0
  -30.5760  -15.8990   20.6890 C   0  0  0  0  0  2  0  0  0  0  0  0
  -32.0390  -14.1140   19.5940 C   0  0  0  0  0  0  0  0  0  0  0  0
  -31.4860  -11.8230   18.8860 C   0  0  0  0  0  2  0  0  0  0  0  0
  -30.4970  -11.8830   17.7030 C   0  0  0  0  0  2  0  0  0  0  0  0
  -29.0390  -11.9880   18.1980 C   0  0  0  0  0  2  0  0  0  0  0  0
  -28.8560  -13.0730   19.2900 C   0  0  0  0  0  3  0  0  0  0  0  0
  -29.9360  -12.9020   20.3810 C   0  0  0  0  0  2  0  0  0  0  0  0
  -31.2460  -13.0130   19.7200 N   0  0  0  0  0  0  0  0  0  0  0  0
  -33.1570  -14.0630   19.0780 O   0  0  0  0  0  0  0  0  0  0  0  0
  -31.4720  -15.3320   19.6830 N   0  0  0  0  0  0  0  0  0  0  0  0
  -32.0280  -16.0340   19.2190 H   0  0  0  0  0  0  0  0  0  0  0  0
  -26.6690  -14.1090   20.1710 C   0  0  0  0  0  0  0  0  0  0  0  0
  -25.4990  -13.5420   20.5970 C   0  0  0  0  0  0  0  0  0  0  0  0
  -25.6890  -12.1290   20.5040 C   0  0  0  0  0  0  0  0  0  0  0  0
  -27.5090  -13.0520   19.8520 N   0  0  0  0  0  0  0  0  0  0  0  0
  -26.9240  -11.8550   20.1060 N   0  0  0  0  0  0  0  0  0  0  0  0
  -24.7500  -11.0210   20.7160 C   0  0  0  0  0  0  0  0  0  0  0  0
  -25.0420   -9.9660   21.6080 C   0  0  0  0  0  3  0  0  0  0  0  0
  -24.1160   -8.9200   21.8080 C   0  0  0  0  0  3  0  0  0  0  0  0
  -22.8810   -8.9230   21.1150 C   0  0  0  0  0  0  0  0  0  0  0  0
  -22.6050   -9.9640   20.2110 C   0  0  0  0  0  3  0  0  0  0  0  0
  -23.5310  -11.0010   20.0090 C   0  0  0  0  0  3  0  0  0  0  0  0
  -21.9330   -7.9350   21.2270 O   0  0  0  0  0  0  0  0  0  0  0  0
  -21.7800   -7.2100   22.3810 C   0  0  0  0  0  0  0  0  0  0  0  0
  -21.5080   -7.8290   23.6210 C   0  0  0  0  0  3  0  0  0  0  0  0
  -21.2900   -7.0410   24.7700 C   0  0  0  0  0  3  0  0  0  0  0  0
  -21.3350   -5.6370   24.6780 C   0  0  0  0  0  0  0  0  0  0  0  0
  -21.6000   -5.0190   23.4420 C   0  0  0  0  0  3  0  0  0  0  0  0
  -21.8200   -5.8040   22.2970 C   0  0  0  0  0  0  0  0  0  0  0  0
  -22.0540   -5.2030   21.1060 F   0  0  0  0  0  0  0  0  0  0  0  0
  -21.1160   -4.8790   25.7780 F   0  0  0  0  0  0  0  0  0  0  0  0
  -24.2400  -14.2640   20.9770 C   0  0  0  0  0  0  0  0  0  0  0  0
  -23.4930  -13.7300   21.9370 N   0  0  0  0  0  0  0  0  0  0  0  0
  -23.9340  -15.3360   20.4570 O   0  0  0  0  0  0  0  0  0  0  0  0
  -23.7540  -12.8610   22.3800 H   0  0  0  0  0  0  0  0  0  0  0  0
  -22.6470  -14.1950   22.2340 H   0  0  0  0  0  0  0  0  0  0  0  0
  -27.0820  -15.4280   20.0060 N   0  0  0  0  0  0  0  0  0  0  0  0
  -26.4650  -16.2130   20.1820 H   0  0  0  0  0  0  0  0  0  0  0  0
  -27.9810  -15.7010   19.6310 H   0  0  0  0  0  0  0  0  0  0  0  0
  -28.9860  -21.7800   19.2380 C   0  0  0  0  0  2  0  0  0  0  0  0
  -28.0320  -22.8440   18.6330 C   0  0  0  0  0  2  0  0  0  0  0  0
  -27.9740  -24.1840   19.4170 C   0  0  0  0  0  2  0  0  0  0  0  0
  -27.8170  -25.4350   18.5210 C   0  0  0  0  0  2  0  0  0  0  0  0
  -27.8190  -26.6580   19.2720 O   0  0  0  0  0  0  0  0  0  0  0  0
  -24.5140  -31.6910   23.0710 C   0  0  0  0  0  0  0  0  0  0  0  0
  -26.6510  -27.3750   19.4500 C   0  0  0  0  0  0  0  0  0  0  0  0
  -23.0900  -30.4390   21.4810 C   0  0  0  0  0  3  0  0  0  0  0  0
  -24.3270  -28.9500   19.8220 C   0  0  0  0  0  0  0  0  0  0  0  0
  -25.5960  -30.7250   21.0440 C   0  0  0  0  0  2  0  0  0  0  0  0
  -25.5580  -29.3960   20.3160 C   0  0  0  0  0  0  0  0  0  0  0  0
  -26.7190  -28.6120   20.1330 C   0  0  0  0  0  3  0  0  0  0  0  0
  -25.3920  -26.9330   18.9770 C   0  0  0  0  0  3  0  0  0  0  0  0
  -24.2370  -27.7160   19.1580 C   0  0  0  0  0  3  0  0  0  0  0  0
  -23.1300  -29.8450   20.0480 C   0  0  0  0  0  2  0  0  0  0  0  0
  -24.4230  -30.9660   21.9200 N   0  0  0  0  0  0  0  0  0  0  0  0
  -23.5050  -31.9650   23.7380 O   0  0  0  0  0  0  0  0  0  0  0  0
  -22.5050  -29.3790   22.4380 C   0  0  0  0  0  0  0  0  0  0  0  0
  -21.1800  -29.1760   22.3670 N   0  0  0  0  0  0  0  0  0  0  0  0
  -23.2370  -28.7430   23.2010 O   0  0  0  0  0  0  0  0  0  0  0  0
  -20.6470  -29.7470   21.7240 H   0  0  0  0  0  0  0  0  0  0  0  0
  -17.8750  -27.8060   22.8640 C   0  0  0  0  0  0  0  0  0  0  0  0
  -20.4130  -28.2030   23.1440 C   0  0  0  0  0  3  0  0  0  0  0  0
  -20.5940  -26.7750   22.5790 C   0  0  0  0  0  2  0  0  0  0  0  0
  -19.5160  -26.3840   21.5640 C   0  0  0  0  0  2  0  0  0  0  0  0
  -18.1260  -26.4620   22.2030 C   0  0  0  0  0  2  0  0  0  0  0  0
  -18.9500  -28.6310   23.2900 C   0  0  0  0  0  0  0  0  0  0  0  0
  -18.6650  -29.8860   23.8690 C   0  0  0  0  0  3  0  0  0  0  0  0
  -17.3350  -30.3200   24.0230 C   0  0  0  0  0  3  0  0  0  0  0  0
  -16.2740  -29.4940   23.6130 C   0  0  0  0  0  3  0  0  0  0  0  0
  -16.5450  -28.2380   23.0420 C   0  0  0  0  0  3  0  0  0  0  0  0
  -25.8830  -32.2350   23.5920 C   0  0  0  0  0  3  0  0  0  0  0  0
  -25.6650  -33.6140   24.0460 N   0  0  0  0  0  0  0  0  0  0  0  0
  -25.9660  -34.7070   23.3320 C   0  0  0  0  0  0  0  0  0  0  0  0
  -26.5310  -34.6560   22.2350 O   0  0  0  0  0  0  0  0  0  0  0  0
  -25.1590  -33.7320   24.9110 H   0  0  0  0  0  0  0  0  0  0  0  0
  -24.2860  -36.5790   23.2670 C   0  0  0  0  0  1  0  0  0  0  0  0
  -25.5780  -36.0730   23.9290 C   0  0  0  0  0  3  0  0  0  0  0  0
  -27.8120  -36.8210   24.6230 C   0  0  0  0  0  1  0  0  0  0  0  0
  -26.6380  -37.0950   23.7970 N   0  0  0  0  0  0  0  0  0  0  0  0
  -26.2840  -38.0160   24.0450 H   0  0  0  0  0  0  0  0  0  0  0  0
  -26.5060  -31.3550   24.7450 C   0  0  1  0  0  0  0  0  0  0  0  0
  -25.5280  -31.0730   25.9090 C   0  0  0  0  0  1  0  0  0  0  0  0
  -26.9920  -29.9930   24.1930 C   0  0  0  0  0  1  0  0  0  0  0  0
  -27.7490  -32.0650   25.3310 C   0  0  0  0  0  1  0  0  0  0  0  0
  1  3  1  0
  2  4  1  0
  3  2  2  0
  5  3  1  0
  5  7  1  0
  6  4  1  0
  7  8  1  0
  7  6  1  0
  9 17  1  0
  9 15  1  0
 10 15  1  0
 11 12  1  0
 11 10  1  0
 13 12  1  0
 13 22  1  0
 13 14  1  0
 15 14  1  0
 16  9  2  0
 17  8  1  0
 18 17  1  0
 19 20  2  0
 20 39  1  0
 21 20  1  0
 21 24  1  0
 22 23  1  0
 22 19  1  0
 23 21  2  0
 24 25  1  0
 25 26  2  0
 27 30  1  0
 27 26  1  0
 28 27  2  0
 29 28  1  0
 29 24  2  0
 30 31  1  0
 31 32  1  0
 32 33  2  0
 34 33  1  0
 34 38  1  0
 35 34  2  0
 36 31  2  0
 36 35  1  0
 37 36  1  0
 39 40  1  0
 40 43  1  0
 40 42  1  0
 41 39  2  0
 44 19  1  0
 44 45  1  0
 46 44  1  0
 47  1  1  0
 48 47  1  0
 48 49  1  0
 50 51  1  0
 50 49  1  0
 51 53  1  0
 52 63  2  0
 53 58  1  0
 54 62  1  0
 54 64  1  0
 55 61  1  0
 55 57  1  0
 56 62  1  0
 57 56  1  0
 58 57  2  0
 59 60  1  0
 59 53  2  0
 60 55  2  0
 61 54  1  0
 62 52  1  0
 64 66  2  0
 65 64  1  0
 67 65  1  0
 68 77  2  0
 68 73  1  0
 69 65  1  0
 69 73  1  0
 70 69  1  0
 71 72  1  0
 71 70  1  0
 72 68  1  0
 73 74  2  0
 74 75  1  0
 76 75  2  0
 77 76  1  0
 78 52  1  0
 78 79  1  0
 78 88  1  0
 79 82  1  0
 80 84  1  0
 80 79  1  0
 81 80  2  0
 84 83  1  0
 86 84  1  0
 86 87  1  0
 86 85  1  0
 88 91  1  1
 88 89  1  0
 90 88  1  0
M  ISO  4   9 100  17 100  50 101  51 101
M  END
>  <TORSDO>  (34) 
F 22

>  <SCORE>  (34) 
-11.272

>  <name>  (34) 
33

>  <ligand_id>  (34) 
33

>  <original_smiles>  (34) 
[H]C1=C(C([H])([H])C([H])([H])C([H])([H])C([H])([H])C([H])([H])Oc2c([H])c([H])c3c(c2[H])C([H])([H])N(C(=O)C([H])(N([H])C(=O)C([H])(N([H])C([H])([H])[H])C([H])([H])[H])C(C([H])([H])[H])(C([H])([H])[H])C([H])([H])[H])C([H])(C(=O)N([H])C2([H])c4c([H])c([H])c([H])c([H])c4C([H])([H])C([H])([H])C2([H])[H])C3([H])[H])C([H])([H])C([H])(C([H])([H])N([H])C(=O)N2C([H])([H])C([H])([H])C([H])([H])C([H])(n3nc(-c4c([H])c([H])c(Oc5c([H])c([H])c(F)c([H])c5F)c([H])c4[H])c(C(=O)N([H])[H])c3N([H])[H])C2([H])[H])C([H])([H])C1([H])[H]

>  <smiles>  (34) 
[H]C1=C(C([H])([H])C([H])([H])C([H])([H])C([H])([H])C([H])([H])Oc2c([H])c([H])c3c(c2[H])C([H])([H])N(C(=O)C([H])(N([H])C(=O)C([H])(N([H])C([H])([H])[H])C([H])([H])[H])C(C([H])([H])[H])(C([H])([H])[H])C([H])([H])[H])C([H])(C(=O)N([H])C2([H])c4c([H])c([H])c([H])c([H])c4C([H])([H])C([H])([H])C2([H])[H])C3([H])[H])C([H])([H])C([H])(C([H])([H])N([H])C(=O)N2C([H])([H])C([H])([H])C([H])([H])C([H])(n3nc(-c4c([H])c([H])c(Oc5c([H])c([H])c(F)c([H])c5F)c([H])c4[H])c(C(=O)N([H])[H])c3N([H])[H])C2([H])[H])C([H])([H])C1([H])[H]

$$$$
34:0:0
     RDKit          3D

 93102  0  0  1  0  0  0  0  0999 V2000
  -29.9240  -24.4160   17.8820 C   0  0  0  0  0  2  0  0  0  0  0  0
  -30.2720  -23.9050   19.0650 C   0  0  0  0  0  3  0  0  0  0  0  0
  -28.9070  -25.4340   18.1020 C   0  0  0  0  0  0  0  0  0  0  0  0
  -31.2140  -22.7360   19.3170 C   0  0  0  0  0  2  0  0  0  0  0  0
  -28.9650  -23.4430   21.1670 C   0  0  0  0  0  2  0  0  0  0  0  0
  -29.9700  -22.3120   21.4650 C   0  0  0  0  0  2  0  0  0  0  0  0
  -29.5550  -24.5330   20.2460 C   0  0  0  0  0  3  0  0  0  0  0  0
  -28.4800  -25.4340   19.5770 C   0  0  0  0  0  3  0  0  0  0  0  0
  -30.4810  -21.6680   20.1550 C   0  0  0  0  0  3  0  0  0  0  0  0
  -28.4400  -26.1930   17.2480 O   0  0  0  0  0  0  0  0  0  0  0  0
  -28.4230  -26.7710   20.1030 O   0  0  0  0  0  0  0  0  0  0  0  0
  -24.6030  -31.9020   23.2050 C   0  0  0  0  0  0  0  0  0  0  0  0
  -27.2210  -27.4610   20.0910 C   0  0  0  0  0  0  0  0  0  0  0  0
  -23.3800  -30.4990   21.5720 C   0  0  0  0  0  3  0  0  0  0  0  0
  -24.8200  -28.9680   20.1310 C   0  0  0  0  0  0  0  0  0  0  0  0
  -25.9040  -30.8620   21.3500 C   0  0  0  0  0  2  0  0  0  0  0  0
  -25.9810  -29.4900   20.7110 C   0  0  0  0  0  0  0  0  0  0  0  0
  -27.1800  -28.7400   20.6950 C   0  0  0  0  0  3  0  0  0  0  0  0
  -26.0320  -26.9550   19.5100 C   0  0  0  0  0  3  0  0  0  0  0  0
  -24.8390  -27.6990   19.5300 C   0  0  0  0  0  3  0  0  0  0  0  0
  -23.5760  -29.8230   20.1880 C   0  0  0  0  0  2  0  0  0  0  0  0
  -24.6470  -31.1040   22.0990 N   0  0  0  0  0  0  0  0  0  0  0  0
  -23.5280  -32.1690   23.7610 O   0  0  0  0  0  0  0  0  0  0  0  0
  -22.7390  -29.4770   22.5380 C   0  0  0  0  0  0  0  0  0  0  0  0
  -21.4140  -29.2910   22.4210 N   0  0  0  0  0  0  0  0  0  0  0  0
  -23.4300  -28.8530   23.3480 O   0  0  0  0  0  0  0  0  0  0  0  0
  -20.9180  -29.8470   21.7370 H   0  0  0  0  0  0  0  0  0  0  0  0
  -18.0450  -28.0910   22.9350 C   0  0  0  0  0  0  0  0  0  0  0  0
  -20.6050  -28.3540   23.1990 C   0  0  0  0  0  3  0  0  0  0  0  0
  -20.7090  -26.9220   22.6260 C   0  0  0  0  0  2  0  0  0  0  0  0
  -19.6040  -26.5960   21.6150 C   0  0  0  0  0  2  0  0  0  0  0  0
  -18.2230  -26.7410   22.2630 C   0  0  0  0  0  2  0  0  0  0  0  0
  -19.1640  -28.8540   23.3620 C   0  0  0  0  0  0  0  0  0  0  0  0
  -18.9440  -30.1200   23.9500 C   0  0  0  0  0  3  0  0  0  0  0  0
  -17.6390  -30.6210   24.1150 C   0  0  0  0  0  3  0  0  0  0  0  0
  -16.5360  -29.8520   23.7090 C   0  0  0  0  0  3  0  0  0  0  0  0
  -16.7390  -28.5900   23.1250 C   0  0  0  0  0  3  0  0  0  0  0  0
  -25.8970  -32.5310   23.8120 C   0  0  0  0  0  3  0  0  0  0  0  0
  -26.4350  -31.7480   25.0720 C   0  0  1  0  0  0  0  0  0  0  0  0
  -25.3590  -31.5010   26.1540 C   0  0  0  0  0  1  0  0  0  0  0  0
  -27.0090  -30.3740   24.6540 C   0  0  0  0  0  1  0  0  0  0  0  0
  -27.5960  -32.5350   25.7260 C   0  0  0  0  0  1  0  0  0  0  0  0
  -25.5920  -33.9240   24.1590 N   0  0  0  0  0  0  0  0  0  0  0  0
  -25.9130  -34.9820   23.4040 C   0  0  0  0  0  0  0  0  0  0  0  0
  -26.5740  -34.8910   22.3660 O   0  0  0  0  0  0  0  0  0  0  0  0
  -25.0130  -34.0730   24.9720 H   0  0  0  0  0  0  0  0  0  0  0  0
  -24.1850  -36.7750   23.0710 C   0  0  0  0  0  1  0  0  0  0  0  0
  -25.4270  -36.3650   23.8770 C   0  0  0  0  0  3  0  0  0  0  0  0
  -27.5630  -37.2380   24.7120 C   0  0  0  0  0  1  0  0  0  0  0  0
  -26.4590  -37.4200   23.7740 N   0  0  0  0  0  0  0  0  0  0  0  0
  -26.0540  -38.3390   23.9330 H   0  0  0  0  0  0  0  0  0  0  0  0
  -31.2830  -20.3630   20.3860 C   0  0  0  0  0  2  0  0  0  0  0  0
  -30.3170  -19.1590   20.4220 C   0  0  0  0  0  2  0  0  0  0  0  0
  -30.8680  -17.7760   20.8270 C   0  0  0  0  0  2  0  0  0  0  0  0
  -29.7290  -16.7430   20.6740 C   0  0  0  0  0  2  0  0  0  0  0  0
  -30.6730  -14.4510   20.5090 C   0  0  0  0  0  0  0  0  0  0  0  0
  -30.3860  -12.3380   19.2850 C   0  0  0  0  0  2  0  0  0  0  0  0
  -29.4340  -12.6100   18.0990 C   0  0  0  0  0  2  0  0  0  0  0  0
  -27.9530  -12.4900   18.5210 C   0  0  0  0  0  2  0  0  0  0  0  0
  -27.6350  -13.2540   19.8330 C   0  0  0  0  0  3  0  0  0  0  0  0
  -28.6930  -12.9450   20.9200 C   0  0  0  0  0  2  0  0  0  0  0  0
  -30.0280  -13.2620   20.3700 N   0  0  0  0  0  0  0  0  0  0  0  0
  -31.7380  -14.7190   19.9440 O   0  0  0  0  0  0  0  0  0  0  0  0
  -29.9700  -15.3840   21.1610 N   0  0  0  0  0  0  0  0  0  0  0  0
  -29.2060  -15.0000   21.7000 H   0  0  0  0  0  0  0  0  0  0  0  0
  -25.2280  -13.8590   20.5200 C   0  0  0  0  0  0  0  0  0  0  0  0
  -24.1620  -13.0820   20.8880 C   0  0  0  0  0  0  0  0  0  0  0  0
  -24.6260  -11.7310   20.8570 C   0  0  0  0  0  0  0  0  0  0  0  0
  -26.2780  -12.9780   20.2990 N   0  0  0  0  0  0  0  0  0  0  0  0
  -25.9180  -11.6950   20.5540 N   0  0  0  0  0  0  0  0  0  0  0  0
  -23.9050  -10.4660   21.0470 C   0  0  0  0  0  0  0  0  0  0  0  0
  -24.3430   -9.4970   21.9780 C   0  0  0  0  0  3  0  0  0  0  0  0
  -23.6210   -8.2980   22.1590 C   0  0  0  0  0  3  0  0  0  0  0  0
  -22.4450   -8.0590   21.4090 C   0  0  0  0  0  0  0  0  0  0  0  0
  -22.0250   -9.0160   20.4680 C   0  0  0  0  0  3  0  0  0  0  0  0
  -22.7490  -10.2050   20.2860 C   0  0  0  0  0  3  0  0  0  0  0  0
  -21.6940   -6.9110   21.4980 O   0  0  0  0  0  0  0  0  0  0  0  0
  -21.6560   -6.1610   22.6450 C   0  0  0  0  0  0  0  0  0  0  0  0
  -21.2350   -6.7090   23.8770 C   0  0  0  0  0  3  0  0  0  0  0  0
  -21.1450   -5.8860   25.0180 C   0  0  0  0  0  3  0  0  0  0  0  0
  -21.4640   -4.5180   24.9280 C   0  0  0  0  0  0  0  0  0  0  0  0
  -21.8810   -3.9700   23.7020 C   0  0  0  0  0  3  0  0  0  0  0  0
  -21.9730   -4.7900   22.5620 C   0  0  0  0  0  0  0  0  0  0  0  0
  -22.3510   -4.2540   21.3780 F   0  0  0  0  0  0  0  0  0  0  0  0
  -21.3710   -3.7260   26.0210 F   0  0  0  0  0  0  0  0  0  0  0  0
  -22.7610  -13.5530   21.1610 C   0  0  0  0  0  0  0  0  0  0  0  0
  -22.0400  -12.8490   22.0280 N   0  0  0  0  0  0  0  0  0  0  0  0
  -22.3170  -14.5770   20.6460 O   0  0  0  0  0  0  0  0  0  0  0  0
  -22.4140  -12.0180   22.4620 H   0  0  0  0  0  0  0  0  0  0  0  0
  -21.1000  -13.1400   22.2600 H   0  0  0  0  0  0  0  0  0  0  0  0
  -25.3920  -15.2280   20.3360 N   0  0  0  0  0  0  0  0  0  0  0  0
  -24.6280  -15.8910   20.4340 H   0  0  0  0  0  0  0  0  0  0  0  0
  -26.2530  -15.6590   20.0210 H   0  0  0  0  0  0  0  0  0  0  0  0
  1  3  1  0
  2  1  1  0
  2  4  1  0
  2  7  1  0
  3  8  1  0
  4  9  1  0
  5  6  1  0
  7  5  1  0
  8 11  1  0
  8  7  1  0
  9 52  1  0
  9  6  1  0
 10  3  2  0
 12 23  2  0
 13 11  1  0
 13 18  1  0
 14 22  1  0
 14 24  1  0
 15 21  1  0
 15 17  1  0
 16 22  1  0
 17 16  1  0
 18 17  2  0
 19 20  1  0
 19 13  2  0
 20 15  2  0
 21 14  1  0
 22 12  1  0
 24 26  2  0
 25 24  1  0
 27 25  1  0
 28 37  2  0
 28 33  1  0
 29 25  1  0
 29 33  1  0
 30 29  1  0
 31 32  1  0
 31 30  1  0
 32 28  1  0
 33 34  2  0
 34 35  1  0
 36 35  2  0
 37 36  1  0
 38 12  1  0
 38 43  1  0
 38 39  1  0
 39 42  1  1
 39 40  1  0
 41 39  1  0
 43 46  1  0
 44 48  1  0
 44 43  1  0
 45 44  2  0
 48 47  1  0
 50 48  1  0
 50 51  1  0
 50 49  1  0
 52 53  1  0
 53 54  1  0
 55 54  1  0
 55 64  1  0
 56 64  1  0
 57 62  1  0
 58 59  1  0
 58 57  1  0
 60 59  1  0
 60 69  1  0
 60 61  1  0
 62 56  1  0
 62 61  1  0
 63 56  2  0
 64 65  1  0
 66 67  2  0
 67 86  1  0
 68 67  1  0
 68 71  1  0
 69 66  1  0
 69 70  1  0
 70 68  2  0
 71 72  1  0
 72 73  2  0
 74 77  1  0
 74 73  1  0
 75 74  2  0
 76 75  1  0
 76 71  2  0
 77 78  1  0
 78 79  1  0
 79 80  2  0
 81 80  1  0
 81 85  1  0
 82 81  2  0
 83 78  2  0
 83 82  1  0
 84 83  1  0
 86 87  1  0
 87 90  1  0
 87 89  1  0
 88 86  2  0
 91 92  1  0
 91 66  1  0
 93 91  1  0
M  ISO  4   8 101  11 101  56 100  64 100
M  END
>  <TORSDO>  (35) 
F 20

>  <SCORE>  (35) 
-13.911

>  <name>  (35) 
34

>  <ligand_id>  (35) 
34

>  <original_smiles>  (35) 
[H]C1=C2C([H])([H])C([H])(C([H])([H])C([H])([H])C([H])([H])C([H])([H])N([H])C(=O)N3C([H])([H])C([H])([H])C([H])([H])C([H])(n4nc(-c5c([H])c([H])c(Oc6c([H])c([H])c(F)c([H])c6F)c([H])c5[H])c(C(=O)N([H])[H])c4N([H])[H])C3([H])[H])C([H])([H])C([H])([H])C2([H])C([H])(Oc2c([H])c([H])c3c(c2[H])C([H])([H])N(C(=O)C([H])(N([H])C(=O)C([H])(N([H])C([H])([H])[H])C([H])([H])[H])C(C([H])([H])[H])(C([H])([H])[H])C([H])([H])[H])C([H])(C(=O)N([H])C2([H])c4c([H])c([H])c([H])c([H])c4C([H])([H])C([H])([H])C2([H])[H])C3([H])[H])C1=O

>  <smiles>  (35) 
[H]C1=C2C([H])([H])C([H])(C([H])([H])C([H])([H])C([H])([H])C([H])([H])N([H])C(=O)N3C([H])([H])C([H])([H])C([H])([H])C([H])(n4nc(-c5c([H])c([H])c(Oc6c([H])c([H])c(F)c([H])c6F)c([H])c5[H])c(C(=O)N([H])[H])c4N([H])[H])C3([H])[H])C([H])([H])C([H])([H])C2([H])C([H])(Oc2c([H])c([H])c3c(c2[H])C([H])([H])N(C(=O)C([H])(N([H])C(=O)C([H])(N([H])C([H])([H])[H])C([H])([H])[H])C(C([H])([H])[H])(C([H])([H])[H])C([H])([H])[H])C([H])(C(=O)N([H])C2([H])c4c([H])c([H])c([H])c([H])c4C([H])([H])C([H])([H])C2([H])[H])C3([H])[H])C1=O

$$$$
35:0:0
     RDKit          3D

 95104  0  0  1  0  0  0  0  0999 V2000
  -28.7380  -20.8790   20.4770 C   0  0  0  0  0  3  0  0  0  0  0  0
  -28.2470  -22.1890   20.5590 C   0  0  0  0  0  3  0  0  0  0  0  0
  -30.1250  -22.7910   22.0050 C   0  0  0  0  0  3  0  0  0  0  0  0
  -29.9170  -20.5230   21.1620 C   0  0  0  0  0  0  0  0  0  0  0  0
  -28.9450  -23.1430   21.3190 C   0  0  0  0  0  0  0  0  0  0  0  0
  -30.6250  -21.4720   21.9380 C   0  0  0  0  0  0  0  0  0  0  0  0
  -30.7330  -18.5990   19.9280 C   0  0  0  0  0  3  0  0  0  0  0  0
  -30.3090  -19.1180   21.0980 C   0  0  0  0  0  0  0  0  0  0  0  0
  -30.9710  -17.1200   19.7030 C   0  0  0  0  0  2  0  0  0  0  0  0
  -30.0720  -18.2510   22.3280 C   0  0  0  0  0  2  0  0  0  0  0  0
  -30.5940  -16.8160   22.1660 C   0  0  0  0  0  2  0  0  0  0  0  0
  -30.2290  -16.2970   20.7730 C   0  0  0  0  0  3  0  0  0  0  0  0
  -30.8430  -14.0600   19.7590 C   0  0  0  0  0  0  0  0  0  0  0  0
  -30.3500  -12.0320   18.4530 C   0  0  0  0  0  2  0  0  0  0  0  0
  -29.2740  -12.3720   17.4020 C   0  0  0  0  0  2  0  0  0  0  0  0
  -27.8540  -12.2350   17.9930 C   0  0  0  0  0  2  0  0  0  0  0  0
  -27.7030  -12.9720   19.3490 C   0  0  0  0  0  3  0  0  0  0  0  0
  -28.8680  -12.5920   20.2900 C   0  0  0  0  0  2  0  0  0  0  0  0
  -30.1430  -12.9080   19.6120 N   0  0  0  0  0  0  0  0  0  0  0  0
  -31.7990  -14.3830   19.0440 O   0  0  0  0  0  0  0  0  0  0  0  0
  -30.3430  -14.8460   20.7150 N   0  0  0  0  0  0  0  0  0  0  0  0
  -29.6590  -14.3610   21.2760 H   0  0  0  0  0  0  0  0  0  0  0  0
  -25.3900  -13.5880   20.3160 C   0  0  0  0  0  0  0  0  0  0  0  0
  -24.3640  -12.8160   20.7910 C   0  0  0  0  0  0  0  0  0  0  0  0
  -24.8110  -11.4630   20.6900 C   0  0  0  0  0  0  0  0  0  0  0  0
  -26.4010  -12.7050   19.9630 N   0  0  0  0  0  0  0  0  0  0  0  0
  -26.0580  -11.4210   20.2390 N   0  0  0  0  0  0  0  0  0  0  0  0
  -24.1050  -10.1990   20.9440 C   0  0  0  0  0  0  0  0  0  0  0  0
  -24.5350   -9.3010   21.9450 C   0  0  0  0  0  3  0  0  0  0  0  0
  -23.8290   -8.1020   22.1830 C   0  0  0  0  0  3  0  0  0  0  0  0
  -22.6790   -7.7920   21.4190 C   0  0  0  0  0  0  0  0  0  0  0  0
  -22.2670   -8.6800   20.4100 C   0  0  0  0  0  3  0  0  0  0  0  0
  -22.9730   -9.8700   20.1710 C   0  0  0  0  0  3  0  0  0  0  0  0
  -21.9470   -6.6380   21.5610 O   0  0  0  0  0  0  0  0  0  0  0  0
  -21.7630   -6.0480   22.7860 C   0  0  0  0  0  0  0  0  0  0  0  0
  -21.1390   -6.7290   23.8530 C   0  0  0  0  0  3  0  0  0  0  0  0
  -20.9060   -6.0640   25.0730 C   0  0  0  0  0  3  0  0  0  0  0  0
  -21.2860   -4.7170   25.2250 C   0  0  0  0  0  0  0  0  0  0  0  0
  -21.9020   -4.0350   24.1610 C   0  0  0  0  0  3  0  0  0  0  0  0
  -22.1360   -4.6980   22.9440 C   0  0  0  0  0  0  0  0  0  0  0  0
  -22.7120   -4.0300   21.9150 F   0  0  0  0  0  0  0  0  0  0  0  0
  -21.0550   -4.0750   26.3950 F   0  0  0  0  0  0  0  0  0  0  0  0
  -23.0080  -13.2940   21.2260 C   0  0  0  0  0  0  0  0  0  0  0  0
  -22.3870  -12.6000   22.1740 N   0  0  0  0  0  0  0  0  0  0  0  0
  -22.5110  -14.3150   20.7570 O   0  0  0  0  0  0  0  0  0  0  0  0
  -22.8030  -11.7730   22.5760 H   0  0  0  0  0  0  0  0  0  0  0  0
  -21.4820  -12.9040   22.5060 H   0  0  0  0  0  0  0  0  0  0  0  0
  -25.5420  -14.9600   20.1400 N   0  0  0  0  0  0  0  0  0  0  0  0
  -24.7990  -15.6200   20.3430 H   0  0  0  0  0  0  0  0  0  0  0  0
  -26.3670  -15.3990   19.7460 H   0  0  0  0  0  0  0  0  0  0  0  0
  -32.9570  -22.1830   22.8150 C   0  0  0  0  0  1  0  0  0  0  0  0
  -31.8920  -21.0800   22.7010 C   0  0  0  0  0  2  0  0  0  0  0  0
  -28.4580  -24.5690   21.3510 C   0  0  0  0  0  2  0  0  0  0  0  0
  -28.8090  -25.2770   20.0380 C   0  0  0  0  0  2  0  0  0  0  0  0
  -28.7160  -26.6750   20.2150 O   0  0  0  0  0  0  0  0  0  0  0  0
  -24.7140  -31.7060   23.1430 C   0  0  0  0  0  0  0  0  0  0  0  0
  -27.4830  -27.2770   20.1960 C   0  0  0  0  0  0  0  0  0  0  0  0
  -23.5550  -30.2630   21.4950 C   0  0  0  0  0  3  0  0  0  0  0  0
  -25.0540  -28.7080   20.1390 C   0  0  0  0  0  0  0  0  0  0  0  0
  -26.0760  -30.6480   21.3490 C   0  0  0  0  0  2  0  0  0  0  0  0
  -26.1850  -29.2680   20.7430 C   0  0  0  0  0  0  0  0  0  0  0  0
  -27.3980  -28.5560   20.7730 C   0  0  0  0  0  3  0  0  0  0  0  0
  -26.3310  -26.7060   19.6020 C   0  0  0  0  0  3  0  0  0  0  0  0
  -25.1190  -27.4210   19.5720 C   0  0  0  0  0  3  0  0  0  0  0  0
  -23.8040  -29.5550   20.1340 C   0  0  0  0  0  2  0  0  0  0  0  0
  -24.7980  -30.8880   22.0550 N   0  0  0  0  0  0  0  0  0  0  0  0
  -23.6190  -31.9830   23.6510 O   0  0  0  0  0  0  0  0  0  0  0  0
  -22.8900  -29.2570   22.4600 C   0  0  0  0  0  0  0  0  0  0  0  0
  -21.5680  -29.0740   22.3100 N   0  0  0  0  0  0  0  0  0  0  0  0
  -23.5590  -28.6440   23.2960 O   0  0  0  0  0  0  0  0  0  0  0  0
  -21.0930  -29.6190   21.6030 H   0  0  0  0  0  0  0  0  0  0  0  0
  -18.1790  -27.9150   22.7630 C   0  0  0  0  0  0  0  0  0  0  0  0
  -20.7340  -28.1500   23.0760 C   0  0  0  0  0  3  0  0  0  0  0  0
  -20.8350  -26.7140   22.5120 C   0  0  0  0  0  2  0  0  0  0  0  0
  -19.7450  -26.3940   21.4840 C   0  0  0  0  0  2  0  0  0  0  0  0
  -18.3550  -26.5560   22.1050 C   0  0  0  0  0  2  0  0  0  0  0  0
  -19.2980  -28.6700   23.2050 C   0  0  0  0  0  0  0  0  0  0  0  0
  -19.0820  -29.9410   23.7770 C   0  0  0  0  0  3  0  0  0  0  0  0
  -17.7800  -30.4570   23.9180 C   0  0  0  0  0  3  0  0  0  0  0  0
  -16.6740  -29.6990   23.4950 C   0  0  0  0  0  3  0  0  0  0  0  0
  -16.8750  -28.4300   22.9220 C   0  0  0  0  0  3  0  0  0  0  0  0
  -25.9830  -32.3520   23.7830 C   0  0  0  0  0  3  0  0  0  0  0  0
  -26.5150  -31.5620   25.0410 C   0  0  1  0  0  0  0  0  0  0  0  0
  -25.4220  -31.2500   26.0900 C   0  0  0  0  0  1  0  0  0  0  0  0
  -27.1530  -30.2200   24.6080 C   0  0  0  0  0  1  0  0  0  0  0  0
  -27.6290  -32.3780   25.7390 C   0  0  0  0  0  1  0  0  0  0  0  0
  -25.6410  -33.7340   24.1420 N   0  0  0  0  0  0  0  0  0  0  0  0
  -25.9390  -34.8070   23.3970 C   0  0  0  0  0  0  0  0  0  0  0  0
  -26.6030  -34.7410   22.3590 O   0  0  0  0  0  0  0  0  0  0  0  0
  -25.0510  -33.8580   24.9520 H   0  0  0  0  0  0  0  0  0  0  0  0
  -24.1570  -36.5520   23.0900 C   0  0  0  0  0  1  0  0  0  0  0  0
  -25.4170  -36.1730   23.8820 C   0  0  0  0  0  3  0  0  0  0  0  0
  -27.5300  -37.1070   24.7100 C   0  0  0  0  0  1  0  0  0  0  0  0
  -26.4170  -37.2570   23.7760 N   0  0  0  0  0  0  0  0  0  0  0  0
  -25.9850  -38.1630   23.9390 H   0  0  0  0  0  0  0  0  0  0  0  0
  1  2  2  0
  1  4  1  0
  2  5  1  0
  4  6  2  0
  5 53  1  0
  5  3  2  0
  6  3  1  0
  6 52  1  0
  7  8  2  0
  8  4  1  0
  8 10  1  0
  9  7  1  0
  9 12  1  0
 11 10  1  0
 12 21  1  0
 12 11  1  0
 13 21  1  0
 14 19  1  0
 15 16  1  0
 15 14  1  0
 17 16  1  0
 17 26  1  0
 17 18  1  0
 19 13  1  0
 19 18  1  0
 20 13  2  0
 21 22  1  0
 23 24  2  0
 24 43  1  0
 25 24  1  0
 25 28  1  0
 26 27  1  0
 26 23  1  0
 27 25  2  0
 28 29  1  0
 29 30  2  0
 31 34  1  0
 31 30  1  0
 32 31  2  0
 33 32  1  0
 33 28  2  0
 34 35  1  0
 35 40  2  0
 35 36  1  0
 36 37  2  0
 37 38  1  0
 38 42  1  0
 39 38  2  0
 40 39  1  0
 41 40  1  0
 43 44  1  0
 44 47  1  0
 44 46  1  0
 45 43  2  0
 48 23  1  0
 48 49  1  0
 50 48  1  0
 52 51  1  0
 54 55  1  0
 54 53  1  0
 56 67  2  0
 57 55  1  0
 57 62  1  0
 58 66  1  0
 58 68  1  0
 59 61  1  0
 60 66  1  0
 61 62  2  0
 61 60  1  0
 63 57  2  0
 64 63  1  0
 64 59  2  0
 65 59  1  0
 65 58  1  0
 66 56  1  0
 68 70  2  0
 69 68  1  0
 71 69  1  0
 72 81  2  0
 72 77  1  0
 73 69  1  0
 73 77  1  0
 74 73  1  0
 75 76  1  0
 75 74  1  0
 76 72  1  0
 77 78  2  0
 78 79  1  0
 80 79  2  0
 81 80  1  0
 82 56  1  0
 82 87  1  0
 82 83  1  0
 83 86  1  1
 83 84  1  0
 85 83  1  0
 87 90  1  0
 88 92  1  0
 88 87  1  0
 89 88  2  0
 92 91  1  0
 94 92  1  0
 94 95  1  0
 94 93  1  0
M  ISO  4  13 100  21 100  54 101  55 101
M  END
>  <TORSDO>  (36) 
F 20

>  <SCORE>  (36) 
-10.779

>  <name>  (36) 
35

>  <ligand_id>  (36) 
35

>  <original_smiles>  (36) 
[H]C1=C(c2c([H])c([H])c(C([H])([H])C([H])([H])Oc3c([H])c([H])c4c(c3[H])C([H])([H])N(C(=O)C([H])(N([H])C(=O)C([H])(N([H])C([H])([H])[H])C([H])([H])[H])C(C([H])([H])[H])(C([H])([H])[H])C([H])([H])[H])C([H])(C(=O)N([H])C3([H])c5c([H])c([H])c([H])c([H])c5C([H])([H])C([H])([H])C3([H])[H])C4([H])[H])c([H])c2C([H])([H])C([H])([H])[H])C([H])([H])C([H])([H])C([H])(N([H])C(=O)N2C([H])([H])C([H])([H])C([H])([H])C([H])(n3nc(-c4c([H])c([H])c(Oc5c([H])c([H])c(F)c([H])c5F)c([H])c4[H])c(C(=O)N([H])[H])c3N([H])[H])C2([H])[H])C1([H])[H]

>  <smiles>  (36) 
[H]C1=C(c2c([H])c([H])c(C([H])([H])C([H])([H])Oc3c([H])c([H])c4c(c3[H])C([H])([H])N(C(=O)C([H])(N([H])C(=O)C([H])(N([H])C([H])([H])[H])C([H])([H])[H])C(C([H])([H])[H])(C([H])([H])[H])C([H])([H])[H])C([H])(C(=O)N([H])C3([H])c5c([H])c([H])c([H])c([H])c5C([H])([H])C([H])([H])C3([H])[H])C4([H])[H])c([H])c2C([H])([H])C([H])([H])[H])C([H])([H])C([H])([H])C([H])(N([H])C(=O)N2C([H])([H])C([H])([H])C([H])([H])C([H])(n3nc(-c4c([H])c([H])c(Oc5c([H])c([H])c(F)c([H])c5F)c([H])c4[H])c(C(=O)N([H])[H])c3N([H])[H])C2([H])[H])C1([H])[H]

$$$$
36:0:0
     RDKit          3D

 99109  0  0  1  0  0  0  0  0999 V2000
  -29.0290  -21.3040   18.5060 C   0  0  0  0  0  3  0  0  0  0  0  0
  -28.6820  -22.6890   18.5830 C   0  0  0  0  0  3  0  0  0  0  0  0
  -29.1150  -21.1870   20.8840 C   0  0  0  0  0  3  0  0  0  0  0  0
  -29.2180  -20.4780   19.6480 C   0  0  0  0  0  0  0  0  0  0  0  0
  -28.7680  -22.5910   20.9730 C   0  0  0  0  0  0  0  0  0  0  0  0
  -28.4890  -23.3850   19.8100 C   0  0  0  0  0  0  0  0  0  0  0  0
  -30.5970  -14.6890   19.2170 C   0  0  0  0  0  0  0  0  0  0  0  0
  -30.1180  -12.4370   18.2180 C   0  0  0  0  0  2  0  0  0  0  0  0
  -28.9440  -12.5100   17.2190 C   0  0  0  0  0  2  0  0  0  0  0  0
  -27.6050  -12.2860   17.9460 C   0  0  0  0  0  2  0  0  0  0  0  0
  -27.4870  -13.1230   19.2480 C   0  0  0  0  0  3  0  0  0  0  0  0
  -28.7750  -13.0750   20.1050 C   0  0  0  0  0  2  0  0  0  0  0  0
  -29.8970  -13.4880   19.2490 N   0  0  0  0  0  0  0  0  0  0  0  0
  -31.6620  -14.7000   18.5940 O   0  0  0  0  0  0  0  0  0  0  0  0
  -31.0440  -16.9840   20.0840 C   0  0  0  0  0  3  0  0  0  0  0  0
  -28.4490  -17.8990   19.9820 C   0  0  0  0  0  2  0  0  0  0  0  0
  -28.7330  -16.3840   19.6060 C   0  0  0  0  0  2  0  0  0  0  0  0
  -29.5010  -18.9090   19.4670 C   0  0  0  0  0  3  0  0  0  0  0  0
  -30.1320  -15.9000   19.7750 N   0  0  0  0  0  0  0  0  0  0  0  0
  -30.7610  -18.3320   19.9740 N   0  0  0  0  0  0  0  0  0  0  0  0
  -31.4510  -19.0060   20.2820 H   0  0  0  0  0  0  0  0  0  0  0  0
  -25.3980  -13.6240   20.6470 C   0  0  0  0  0  0  0  0  0  0  0  0
  -24.4220  -12.8170   21.1570 C   0  0  0  0  0  0  0  0  0  0  0  0
  -24.7880  -11.4820   20.8080 C   0  0  0  0  0  0  0  0  0  0  0  0
  -26.3000  -12.7790   20.0200 N   0  0  0  0  0  0  0  0  0  0  0  0
  -25.9570  -11.4740   20.1780 N   0  0  0  0  0  0  0  0  0  0  0  0
  -24.0640  -10.2160   20.9860 C   0  0  0  0  0  0  0  0  0  0  0  0
  -24.5460   -9.2010   21.8410 C   0  0  0  0  0  3  0  0  0  0  0  0
  -23.8200   -8.0030   22.0090 C   0  0  0  0  0  3  0  0  0  0  0  0
  -22.5970   -7.8120   21.3240 C   0  0  0  0  0  0  0  0  0  0  0  0
  -22.1330   -8.8160   20.4540 C   0  0  0  0  0  3  0  0  0  0  0  0
  -22.8610  -10.0050   20.2830 C   0  0  0  0  0  3  0  0  0  0  0  0
  -21.8390   -6.6690   21.4040 O   0  0  0  0  0  0  0  0  0  0  0  0
  -21.6980   -5.9820   22.5830 C   0  0  0  0  0  0  0  0  0  0  0  0
  -21.1540   -6.5870   23.7380 C   0  0  0  0  0  3  0  0  0  0  0  0
  -20.9600   -5.8240   24.9070 C   0  0  0  0  0  3  0  0  0  0  0  0
  -21.3030   -4.4590   24.9220 C   0  0  0  0  0  0  0  0  0  0  0  0
  -21.8400   -3.8540   23.7720 C   0  0  0  0  0  3  0  0  0  0  0  0
  -22.0350   -4.6140   22.6040 C   0  0  0  0  0  0  0  0  0  0  0  0
  -22.5320   -4.0220   21.4920 F   0  0  0  0  0  0  0  0  0  0  0  0
  -21.1100   -3.7240   26.0410 F   0  0  0  0  0  0  0  0  0  0  0  0
  -23.1620  -13.2680   21.8410 C   0  0  0  0  0  0  0  0  0  0  0  0
  -22.6670  -12.4830   22.7910 N   0  0  0  0  0  0  0  0  0  0  0  0
  -22.6380  -14.3460   21.5700 O   0  0  0  0  0  0  0  0  0  0  0  0
  -23.1110  -11.6090   23.0310 H   0  0  0  0  0  0  0  0  0  0  0  0
  -21.8350  -12.7660   23.2890 H   0  0  0  0  0  0  0  0  0  0  0  0
  -25.5790  -15.0050   20.6390 N   0  0  0  0  0  0  0  0  0  0  0  0
  -24.8730  -15.6280   21.0190 H   0  0  0  0  0  0  0  0  0  0  0  0
  -26.2840  -15.4920   20.1020 H   0  0  0  0  0  0  0  0  0  0  0  0
  -32.4130  -16.6410   20.6290 C   0  0  0  0  0  2  0  0  0  0  0  0
  -33.4970  -17.1110   19.6390 C   0  0  0  0  0  2  0  0  0  0  0  0
  -35.9240  -16.9000   18.8680 C   0  0  0  0  0  1  0  0  0  0  0  0
  -34.8570  -16.4350   19.8660 C   0  0  0  0  0  2  0  0  0  0  0  0
  -29.4480  -24.0400   24.1420 C   0  0  0  0  0  2  0  0  0  0  0  0
  -29.2940  -22.6160   23.6010 C   0  0  0  0  0  2  0  0  0  0  0  0
  -29.4320  -24.5030   22.6820 C   0  0  0  0  0  2  0  0  0  0  0  0
  -28.6370  -23.2280   22.3500 C   0  0  0  0  0  3  0  0  0  0  0  0
  -27.6330  -24.7430   19.8000 C   0  0  0  0  0  2  0  0  0  0  0  0
  -28.0800  -26.1770   19.9570 O   0  0  0  0  0  0  0  0  0  0  0  0
  -24.6100  -31.7190   23.1980 C   0  0  0  0  0  0  0  0  0  0  0  0
  -27.0330  -27.1480   19.9320 C   0  0  0  0  0  0  0  0  0  0  0  0
  -23.3380  -30.3920   21.5570 C   0  0  0  0  0  3  0  0  0  0  0  0
  -24.7200  -28.8700   20.0380 C   0  0  0  0  0  0  0  0  0  0  0  0
  -25.8890  -30.6440   21.3270 C   0  0  0  0  0  2  0  0  0  0  0  0
  -25.9210  -29.2880   20.6240 C   0  0  0  0  0  0  0  0  0  0  0  0
  -27.0820  -28.4410   20.5630 C   0  0  0  0  0  3  0  0  0  0  0  0
  -25.8030  -26.8270   19.3010 C   0  0  0  0  0  3  0  0  0  0  0  0
  -24.6670  -27.6470   19.3650 C   0  0  0  0  0  3  0  0  0  0  0  0
  -23.5070  -29.7720   20.1500 C   0  0  0  0  0  2  0  0  0  0  0  0
  -24.6330  -30.9360   22.0800 N   0  0  0  0  0  0  0  0  0  0  0  0
  -23.5460  -32.0020   23.7680 O   0  0  0  0  0  0  0  0  0  0  0  0
  -22.6830  -29.3540   22.5010 C   0  0  0  0  0  0  0  0  0  0  0  0
  -21.3660  -29.1310   22.3400 N   0  0  0  0  0  0  0  0  0  0  0  0
  -23.3580  -28.7570   23.3440 O   0  0  0  0  0  0  0  0  0  0  0  0
  -20.8800  -29.6630   21.6310 H   0  0  0  0  0  0  0  0  0  0  0  0
  -18.0210  -27.8120   22.7520 C   0  0  0  0  0  0  0  0  0  0  0  0
  -20.5580  -28.1750   23.0980 C   0  0  0  0  0  3  0  0  0  0  0  0
  -20.7330  -26.7390   22.5500 C   0  0  0  0  0  2  0  0  0  0  0  0
  -19.6780  -26.3600   21.5060 C   0  0  0  0  0  2  0  0  0  0  0  0
  -18.2710  -26.4610   22.1020 C   0  0  0  0  0  2  0  0  0  0  0  0
  -19.0960  -28.6220   23.2060 C   0  0  0  0  0  0  0  0  0  0  0  0
  -18.8090  -29.8820   23.7760 C   0  0  0  0  0  3  0  0  0  0  0  0
  -17.4810  -30.3330   23.8940 C   0  0  0  0  0  3  0  0  0  0  0  0
  -16.4210  -29.5210   23.4570 C   0  0  0  0  0  3  0  0  0  0  0  0
  -16.6920  -28.2620   22.8910 C   0  0  0  0  0  3  0  0  0  0  0  0
  -25.9190  -32.3130   23.7990 C   0  0  0  0  0  3  0  0  0  0  0  0
  -25.6410  -33.7090   24.1690 N   0  0  0  0  0  0  0  0  0  0  0  0
  -25.9180  -34.7710   23.4020 C   0  0  0  0  0  0  0  0  0  0  0  0
  -26.5060  -34.6800   22.3210 O   0  0  0  0  0  0  0  0  0  0  0  0
  -25.1080  -33.8530   25.0140 H   0  0  0  0  0  0  0  0  0  0  0  0
  -24.1700  -36.5710   23.2240 C   0  0  0  0  0  1  0  0  0  0  0  0
  -25.4770  -36.1560   23.9170 C   0  0  0  0  0  3  0  0  0  0  0  0
  -27.6780  -37.0290   24.5650 C   0  0  0  0  0  1  0  0  0  0  0  0
  -26.4970  -37.2090   23.7240 N   0  0  0  0  0  0  0  0  0  0  0  0
  -26.1070  -38.1280   23.9180 H   0  0  0  0  0  0  0  0  0  0  0  0
  -26.4530  -31.5050   25.0460 C   0  0  1  0  0  0  0  0  0  0  0  0
  -25.3730  -31.2320   26.1190 C   0  0  0  0  0  1  0  0  0  0  0  0
  -27.0360  -30.1390   24.6130 C   0  0  0  0  0  1  0  0  0  0  0  0
  -27.6090  -32.2840   25.7150 C   0  0  0  0  0  1  0  0  0  0  0  0
  1  2  2  0
  1  4  1  0
  2  6  1  0
  3  5  1  0
  4  3  2  0
  5 57  1  0
  6  5  2  0
  7 13  1  0
  7 19  1  0
  8 13  1  0
  9 10  1  0
  9  8  1  0
 11 10  1  0
 11 25  1  0
 11 12  1  0
 13 12  1  0
 14  7  2  0
 15 50  1  0
 17 19  1  0
 17 16  1  0
 18  4  1  0
 18 20  1  0
 18 16  1  0
 19 15  1  0
 20 15  1  0
 20 21  1  0
 22 23  2  0
 23 42  1  0
 24 27  1  0
 24 23  1  0
 25 26  1  0
 25 22  1  0
 26 24  2  0
 27 28  1  0
 28 29  2  0
 30 33  1  0
 30 29  1  0
 31 30  2  0
 32 31  1  0
 32 27  2  0
 33 34  1  0
 34 39  2  0
 34 35  1  0
 35 36  2  0
 36 37  1  0
 37 41  1  0
 38 37  2  0
 39 38  1  0
 40 39  1  0
 42 43  1  0
 43 45  1  0
 43 46  1  0
 44 42  2  0
 47 22  1  0
 47 48  1  0
 49 47  1  0
 51 53  1  0
 51 50  1  0
 52 53  1  0
 55 54  1  0
 56 54  1  0
 57 56  1  0
 57 55  1  0
 58  6  1  0
 58 59  1  0
 60 71  2  0
 61 59  1  0
 61 66  1  0
 62 70  1  0
 62 72  1  0
 63 69  1  0
 63 65  1  0
 64 70  1  0
 65 64  1  0
 66 65  2  0
 67 68  1  0
 67 61  2  0
 68 63  2  0
 69 62  1  0
 70 60  1  0
 72 74  2  0
 73 72  1  0
 75 73  1  0
 76 85  2  0
 76 81  1  0
 77 73  1  0
 77 81  1  0
 78 77  1  0
 79 80  1  0
 79 78  1  0
 80 76  1  0
 81 82  2  0
 82 83  1  0
 84 83  2  0
 85 84  1  0
 86 60  1  0
 86 87  1  0
 86 96  1  0
 87 90  1  0
 88 92  1  0
 88 87  1  0
 89 88  2  0
 92 91  1  0
 94 92  1  0
 94 95  1  0
 94 93  1  0
 96 99  1  1
 96 97  1  0
 98 96  1  0
M  ISO  4   7 100  19 100  58 101  59 101
M  END
>  <TORSDO>  (37) 
F 21

>  <SCORE>  (37) 
-9.857

>  <name>  (37) 
36

>  <ligand_id>  (37) 
36

>  <original_smiles>  (37) 
[H]c1c([H])c([H])c2c(c1[H])C([H])([H])C([H])([H])C([H])([H])C2([H])N([H])C(=O)C1([H])N(C(=O)C([H])(N([H])C(=O)C([H])(N([H])C([H])([H])[H])C([H])([H])[H])C(C([H])([H])[H])(C([H])([H])[H])C([H])([H])[H])C([H])([H])c2c([H])c(OC([H])([H])c3c([H])c([H])c(C4([H])[N+]([H])=C(C([H])([H])C([H])([H])C([H])([H])C([H])([H])[H])N(C(=O)N5C([H])([H])C([H])([H])C([H])([H])C([H])(n6nc(-c7c([H])c([H])c(Oc8c([H])c([H])c(F)c([H])c8F)c([H])c7[H])c(C(=O)N([H])[H])c6N([H])[H])C5([H])[H])C([H])([H])C4([H])[H])c([H])c3C3([H])C([H])([H])C([H])([H])C3([H])[H])c([H])c([H])c2C1([H])[H]

>  <smiles>  (37) 
[H]c1c([H])c([H])c2c(c1[H])C([H])([H])C([H])([H])C([H])([H])C2([H])N([H])C(=O)C1([H])N(C(=O)C([H])(N([H])C(=O)C([H])(N([H])C([H])([H])[H])C([H])([H])[H])C(C([H])([H])[H])(C([H])([H])[H])C([H])([H])[H])C([H])([H])c2c([H])c(OC([H])([H])c3c([H])c([H])c(C4([H])[N+]([H])=C(C([H])([H])C([H])([H])C([H])([H])C([H])([H])[H])N(C(=O)N5C([H])([H])C([H])([H])C([H])([H])C([H])(n6nc(-c7c([H])c([H])c(Oc8c([H])c([H])c(F)c([H])c8F)c([H])c7[H])c(C(=O)N([H])[H])c6N([H])[H])C5([H])[H])C([H])([H])C4([H])[H])c([H])c3C3([H])C([H])([H])C([H])([H])C3([H])[H])c([H])c([H])c2C1([H])[H]

$$$$
37:0:0
     RDKit          3D

 93102  0  0  1  0  0  0  0  0999 V2000
  -29.2530  -20.1560   21.2310 C   0  0  0  0  0  0  0  0  0  0  0  0
  -29.1680  -21.4810   21.0180 N   0  0  0  0  0  0  0  0  0  0  0  0
  -29.4550  -19.6860   22.3510 O   0  0  0  0  0  0  0  0  0  0  0  0
  -28.9780  -21.7820   20.0730 H   0  0  0  0  0  0  0  0  0  0  0  0
  -31.0540  -14.6780   19.9330 C   0  0  0  0  0  0  0  0  0  0  0  0
  -30.7430  -12.4410   18.9830 C   0  0  0  0  0  2  0  0  0  0  0  0
  -29.7380  -12.5870   17.8200 C   0  0  0  0  0  2  0  0  0  0  0  0
  -28.2860  -12.4760   18.3310 C   0  0  0  0  0  2  0  0  0  0  0  0
  -28.0090  -13.3710   19.5710 C   0  0  0  0  0  3  0  0  0  0  0  0
  -29.1250  -13.2240   20.6300 C   0  0  0  0  0  2  0  0  0  0  0  0
  -30.4110  -13.4790   19.9670 N   0  0  0  0  0  0  0  0  0  0  0  0
  -32.2430  -14.8000   19.6230 O   0  0  0  0  0  0  0  0  0  0  0  0
  -28.9570  -19.8310   18.7660 C   0  0  0  0  0  2  0  0  0  0  0  0
  -29.1340  -19.3540   20.0150 C   0  0  0  0  0  3  0  0  0  0  0  0
  -29.0560  -18.7300   17.7160 C   0  0  0  0  0  2  0  0  0  0  0  0
  -30.1280  -16.8750   20.7060 C   0  0  0  0  0  2  0  0  0  0  0  0
  -29.9080  -16.2070   18.3860 C   0  0  0  0  0  2  0  0  0  0  0  0
  -29.2290  -17.8440   19.9330 C   0  0  0  0  0  3  0  0  0  0  0  0
  -29.8240  -17.7060   18.5630 C   0  0  0  0  0  3  0  0  0  0  0  0
  -30.2110  -15.7260   19.7640 N   0  0  0  0  0  0  0  0  0  0  0  0
  -25.6880  -14.0430   20.4450 C   0  0  0  0  0  0  0  0  0  0  0  0
  -24.6130  -13.2970   20.8440 C   0  0  0  0  0  0  0  0  0  0  0  0
  -25.0200  -11.9340   20.7360 C   0  0  0  0  0  0  0  0  0  0  0  0
  -26.6830  -13.1310   20.1250 N   0  0  0  0  0  0  0  0  0  0  0  0
  -26.2880  -11.8550   20.3580 N   0  0  0  0  0  0  0  0  0  0  0  0
  -24.2610  -10.6910   20.9140 C   0  0  0  0  0  0  0  0  0  0  0  0
  -24.6510   -9.7190   21.8620 C   0  0  0  0  0  3  0  0  0  0  0  0
  -23.8940   -8.5410   22.0290 C   0  0  0  0  0  3  0  0  0  0  0  0
  -22.7350   -8.3250   21.2490 C   0  0  0  0  0  0  0  0  0  0  0  0
  -22.3660   -9.2840   20.2880 C   0  0  0  0  0  3  0  0  0  0  0  0
  -23.1220  -10.4550   20.1180 C   0  0  0  0  0  3  0  0  0  0  0  0
  -21.9540   -7.1970   21.3250 O   0  0  0  0  0  0  0  0  0  0  0  0
  -21.7970   -6.5100   22.5010 C   0  0  0  0  0  0  0  0  0  0  0  0
  -21.2080   -7.1030   23.6380 C   0  0  0  0  0  3  0  0  0  0  0  0
  -20.9990   -6.3390   24.8040 C   0  0  0  0  0  3  0  0  0  0  0  0
  -21.3710   -4.9820   24.8330 C   0  0  0  0  0  0  0  0  0  0  0  0
  -21.9560   -4.3870   23.7000 C   0  0  0  0  0  3  0  0  0  0  0  0
  -22.1640   -5.1490   22.5360 C   0  0  0  0  0  0  0  0  0  0  0  0
  -22.7080   -4.5650   21.4410 F   0  0  0  0  0  0  0  0  0  0  0  0
  -21.1660   -4.2460   25.9500 F   0  0  0  0  0  0  0  0  0  0  0  0
  -23.2510  -13.8130   21.2120 C   0  0  0  0  0  0  0  0  0  0  0  0
  -22.5430  -13.1040   22.0840 N   0  0  0  0  0  0  0  0  0  0  0  0
  -22.8270  -14.8770   20.7630 O   0  0  0  0  0  0  0  0  0  0  0  0
  -22.9010  -12.2430   22.4690 H   0  0  0  0  0  0  0  0  0  0  0  0
  -21.6290  -13.4280   22.3710 H   0  0  0  0  0  0  0  0  0  0  0  0
  -25.8940  -15.4140   20.3100 N   0  0  0  0  0  0  0  0  0  0  0  0
  -25.1600  -16.0890   20.4870 H   0  0  0  0  0  0  0  0  0  0  0  0
  -26.7490  -15.8320   19.9680 H   0  0  0  0  0  0  0  0  0  0  0  0
  -29.4810  -22.5110   22.0070 C   0  0  0  0  0  2  0  0  0  0  0  0
  -28.6630  -23.8070   21.8480 C   0  0  0  0  0  2  0  0  0  0  0  0
  -28.9590  -24.6740   20.6020 C   0  0  0  0  0  2  0  0  0  0  0  0
  -28.5910  -26.1510   20.8530 C   0  0  0  0  0  2  0  0  0  0  0  0
  -28.4480  -26.9150   19.6490 O   0  0  0  0  0  0  0  0  0  0  0  0
  -24.5710  -31.7660   23.0910 C   0  0  0  0  0  0  0  0  0  0  0  0
  -27.2940  -27.6580   19.6670 C   0  0  0  0  0  0  0  0  0  0  0  0
  -23.3730  -30.4280   21.3870 C   0  0  0  0  0  3  0  0  0  0  0  0
  -24.8490  -29.0490   19.8250 C   0  0  0  0  0  0  0  0  0  0  0  0
  -25.8760  -30.9040   21.1550 C   0  0  0  0  0  2  0  0  0  0  0  0
  -25.9980  -29.5840   20.4240 C   0  0  0  0  0  0  0  0  0  0  0  0
  -27.2270  -28.8940   20.3440 C   0  0  0  0  0  3  0  0  0  0  0  0
  -26.1390  -27.1320   19.0580 C   0  0  0  0  0  3  0  0  0  0  0  0
  -24.9130  -27.8220   19.1370 C   0  0  0  0  0  3  0  0  0  0  0  0
  -23.5730  -29.8490   19.9600 C   0  0  0  0  0  2  0  0  0  0  0  0
  -24.6260  -31.0450   21.9380 N   0  0  0  0  0  0  0  0  0  0  0  0
  -23.4950  -31.9580   23.6750 O   0  0  0  0  0  0  0  0  0  0  0  0
  -22.7860  -29.3240   22.2950 C   0  0  0  0  0  0  0  0  0  0  0  0
  -21.4690  -29.0900   22.1750 N   0  0  0  0  0  0  0  0  0  0  0  0
  -23.5090  -28.6800   23.0570 O   0  0  0  0  0  0  0  0  0  0  0  0
  -20.9430  -29.6670   21.5330 H   0  0  0  0  0  0  0  0  0  0  0  0
  -18.1610  -27.7180   22.6310 C   0  0  0  0  0  0  0  0  0  0  0  0
  -20.7080  -28.0700   22.8940 C   0  0  0  0  0  3  0  0  0  0  0  0
  -20.8650  -26.6850   22.2240 C   0  0  0  0  0  2  0  0  0  0  0  0
  -19.7680  -26.3820   21.2000 C   0  0  0  0  0  2  0  0  0  0  0  0
  -18.3880  -26.4220   21.8700 C   0  0  0  0  0  2  0  0  0  0  0  0
  -19.2500  -28.4980   23.0970 C   0  0  0  0  0  0  0  0  0  0  0  0
  -18.9870  -29.7100   23.7680 C   0  0  0  0  0  3  0  0  0  0  0  0
  -17.6650  -30.1440   23.9790 C   0  0  0  0  0  3  0  0  0  0  0  0
  -16.5870  -29.3570   23.5340 C   0  0  0  0  0  3  0  0  0  0  0  0
  -16.8370  -28.1480   22.8610 C   0  0  0  0  0  3  0  0  0  0  0  0
  -25.8500  -32.4000   23.7220 C   0  0  0  0  0  3  0  0  0  0  0  0
  -26.3900  -31.6040   24.9730 C   0  0  1  0  0  0  0  0  0  0  0  0
  -25.3090  -31.3170   26.0410 C   0  0  0  0  0  1  0  0  0  0  0  0
  -26.9950  -30.2480   24.5380 C   0  0  0  0  0  1  0  0  0  0  0  0
  -27.5290  -32.4020   25.6500 C   0  0  0  0  0  1  0  0  0  0  0  0
  -25.5220  -33.7830   24.0870 N   0  0  0  0  0  0  0  0  0  0  0  0
  -25.8520  -34.8610   23.3610 C   0  0  0  0  0  0  0  0  0  0  0  0
  -26.5350  -34.7930   22.3360 O   0  0  0  0  0  0  0  0  0  0  0  0
  -24.9170  -33.9100   24.8850 H   0  0  0  0  0  0  0  0  0  0  0  0
  -24.1260  -36.6560   23.0090 C   0  0  0  0  0  1  0  0  0  0  0  0
  -25.3410  -36.2290   23.8490 C   0  0  0  0  0  3  0  0  0  0  0  0
  -27.4310  -37.1020   24.7960 C   0  0  0  0  0  1  0  0  0  0  0  0
  -26.3710  -37.2890   23.8100 N   0  0  0  0  0  0  0  0  0  0  0  0
  -25.9530  -38.2040   23.9630 H   0  0  0  0  0  0  0  0  0  0  0  0
  1  3  2  0
  2  1  1  0
  2 49  1  0
  4  2  1  0
  5 11  1  0
  6 11  1  0
  7  8  1  0
  7  6  1  0
  9  8  1  0
  9 24  1  0
  9 10  1  0
 11 10  1  0
 12  5  2  0
 13 14  1  0
 14  1  1  0
 15 13  1  0
 17 19  1  0
 17 20  1  0
 18 14  1  0
 18 16  1  0
 19 15  1  0
 19 18  1  0
 20  5  1  0
 20 16  1  0
 21 22  2  0
 22 41  1  0
 23 22  1  0
 23 26  1  0
 24 25  1  0
 24 21  1  0
 25 23  2  0
 26 27  1  0
 27 28  2  0
 29 32  1  0
 29 28  1  0
 30 29  2  0
 31 30  1  0
 31 26  2  0
 32 33  1  0
 33 38  2  0
 33 34  1  0
 34 35  2  0
 35 36  1  0
 36 40  1  0
 37 36  2  0
 38 37  1  0
 39 38  1  0
 41 42  1  0
 42 45  1  0
 42 44  1  0
 43 41  2  0
 46 21  1  0
 46 47  1  0
 48 46  1  0
 50 49  1  0
 51 52  1  0
 51 50  1  0
 53 55  1  0
 53 52  1  0
 54 65  2  0
 55 60  1  0
 56 64  1  0
 56 66  1  0
 57 63  1  0
 57 59  1  0
 58 64  1  0
 59 58  1  0
 60 59  2  0
 61 62  1  0
 61 55  2  0
 62 57  2  0
 63 56  1  0
 64 54  1  0
 66 68  2  0
 67 66  1  0
 69 67  1  0
 70 79  2  0
 70 75  1  0
 71 67  1  0
 71 75  1  0
 72 71  1  0
 73 74  1  0
 73 72  1  0
 74 70  1  0
 75 76  2  0
 76 77  1  0
 78 77  2  0
 79 78  1  0
 80 54  1  0
 80 85  1  0
 80 81  1  0
 81 84  1  1
 81 82  1  0
 83 81  1  0
 85 88  1  0
 86 90  1  0
 86 85  1  0
 87 86  2  0
 90 89  1  0
 92 90  1  0
 92 93  1  0
 92 91  1  0
M  ISO  4   5 100  20 100  52 101  53 101
M  END
>  <TORSDO>  (38) 
F 20

>  <SCORE>  (38) 
-11.941

>  <name>  (38) 
37

>  <ligand_id>  (38) 
37

>  <original_smiles>  (38) 
[H]C1=C(C(=O)N([H])C([H])([H])C([H])([H])C([H])([H])C([H])([H])Oc2c([H])c([H])c3c(c2[H])C([H])([H])N(C(=O)C([H])(N([H])C(=O)C([H])(N([H])C([H])([H])[H])C([H])([H])[H])C(C([H])([H])[H])(C([H])([H])[H])C([H])([H])[H])C([H])(C(=O)N([H])C2([H])c4c([H])c([H])c([H])c([H])c4C([H])([H])C([H])([H])C2([H])[H])C3([H])[H])C2([H])C([H])([H])N(C(=O)N3C([H])([H])C([H])([H])C([H])([H])C([H])(n4nc(-c5c([H])c([H])c(Oc6c([H])c([H])c(F)c([H])c6F)c([H])c5[H])c(C(=O)N([H])[H])c4N([H])[H])C3([H])[H])C([H])([H])C2([H])C1([H])[H]

>  <smiles>  (38) 
[H]C1=C(C(=O)N([H])C([H])([H])C([H])([H])C([H])([H])C([H])([H])Oc2c([H])c([H])c3c(c2[H])C([H])([H])N(C(=O)C([H])(N([H])C(=O)C([H])(N([H])C([H])([H])[H])C([H])([H])[H])C(C([H])([H])[H])(C([H])([H])[H])C([H])([H])[H])C([H])(C(=O)N([H])C2([H])c4c([H])c([H])c([H])c([H])c4C([H])([H])C([H])([H])C2([H])[H])C3([H])[H])C2([H])C([H])([H])N(C(=O)N3C([H])([H])C([H])([H])C([H])([H])C([H])(n4nc(-c5c([H])c([H])c(Oc6c([H])c([H])c(F)c([H])c6F)c([H])c5[H])c(C(=O)N([H])[H])c4N([H])[H])C3([H])[H])C([H])([H])C2([H])C1([H])[H]

$$$$
38:0:0
     RDKit          3D

 95104  0  0  1  0  0  0  0  0999 V2000
  -28.4070  -20.7410   18.7700 C   0  0  0  0  0  2  0  0  0  0  0  0
  -31.1520  -18.4480   20.1410 C   0  0  0  0  0  3  0  0  0  0  0  0
  -29.0580  -17.2040   20.1320 C   0  0  0  0  0  3  0  0  0  0  0  0
  -30.4920  -19.5740   19.6170 C   0  0  0  0  0  3  0  0  0  0  0  0
  -28.3920  -18.3360   19.6170 C   0  0  0  0  0  3  0  0  0  0  0  0
  -30.4460  -17.2540   20.3900 C   0  0  0  0  0  0  0  0  0  0  0  0
  -29.1070  -19.5240   19.3510 C   0  0  0  0  0  0  0  0  0  0  0  0
  -30.6870  -14.1680   19.4750 C   0  0  0  0  0  0  0  0  0  0  0  0
  -29.9300  -12.3050   18.0330 C   0  0  0  0  0  2  0  0  0  0  0  0
  -28.8220  -12.7070   17.0450 C   0  0  0  0  0  2  0  0  0  0  0  0
  -27.4370  -12.5550   17.6970 C   0  0  0  0  0  2  0  0  0  0  0  0
  -27.3630  -13.2650   19.0690 C   0  0  0  0  0  3  0  0  0  0  0  0
  -28.5580  -12.8890   19.9620 C   0  0  0  0  0  2  0  0  0  0  0  0
  -29.8240  -13.1390   19.2440 N   0  0  0  0  0  0  0  0  0  0  0  0
  -31.4760  -14.5680   18.6080 O   0  0  0  0  0  0  0  0  0  0  0  0
  -31.6360  -14.7630   22.9230 C   0  0  0  0  0  2  0  0  0  0  0  0
  -31.3420  -16.1840   22.4910 C   0  0  0  0  0  2  0  0  0  0  0  0
  -30.8160  -13.9230   21.9430 C   0  0  0  0  0  2  0  0  0  0  0  0
  -31.2120  -16.0690   20.9710 C   0  0  0  0  0  3  0  0  0  0  0  0
  -30.6590  -14.7270   20.7140 N   0  0  0  0  0  0  0  0  0  0  0  0
  -25.1260  -13.8880   20.1860 C   0  0  0  0  0  0  0  0  0  0  0  0
  -24.1150  -13.1200   20.6970 C   0  0  0  0  0  0  0  0  0  0  0  0
  -24.5310  -11.7630   20.5420 C   0  0  0  0  0  0  0  0  0  0  0  0
  -26.0950  -12.9980   19.7490 N   0  0  0  0  0  0  0  0  0  0  0  0
  -25.7510  -11.7120   20.0200 N   0  0  0  0  0  0  0  0  0  0  0  0
  -23.8140  -10.5060   20.7970 C   0  0  0  0  0  0  0  0  0  0  0  0
  -24.3310   -9.5240   21.6710 C   0  0  0  0  0  3  0  0  0  0  0  0
  -23.6130   -8.3320   21.9130 C   0  0  0  0  0  3  0  0  0  0  0  0
  -22.3640   -8.1150   21.2830 C   0  0  0  0  0  0  0  0  0  0  0  0
  -21.8660   -9.0870   20.3980 C   0  0  0  0  0  3  0  0  0  0  0  0
  -22.5840  -10.2690   20.1520 C   0  0  0  0  0  3  0  0  0  0  0  0
  -21.6090   -6.9780   21.4390 O   0  0  0  0  0  0  0  0  0  0  0  0
  -21.6340   -6.2510   22.6020 C   0  0  0  0  0  0  0  0  0  0  0  0
  -21.3090   -6.8270   23.8500 C   0  0  0  0  0  3  0  0  0  0  0  0
  -21.2810   -6.0270   25.0090 C   0  0  0  0  0  3  0  0  0  0  0  0
  -21.5700   -4.6520   24.9240 C   0  0  0  0  0  0  0  0  0  0  0  0
  -21.8870   -4.0750   23.6820 C   0  0  0  0  0  3  0  0  0  0  0  0
  -21.9170   -4.8730   22.5240 C   0  0  0  0  0  0  0  0  0  0  0  0
  -22.2030   -4.3080   21.3260 F   0  0  0  0  0  0  0  0  0  0  0  0
  -21.5350   -3.8810   26.0360 F   0  0  0  0  0  0  0  0  0  0  0  0
  -22.7910  -13.6100   21.2130 C   0  0  0  0  0  0  0  0  0  0  0  0
  -22.2090  -12.9010   22.1740 N   0  0  0  0  0  0  0  0  0  0  0  0
  -22.2880  -14.6530   20.7970 O   0  0  0  0  0  0  0  0  0  0  0  0
  -22.6290  -12.0550   22.5300 H   0  0  0  0  0  0  0  0  0  0  0  0
  -21.3290  -13.2090   22.5640 H   0  0  0  0  0  0  0  0  0  0  0  0
  -25.2990  -15.2600   20.0370 N   0  0  0  0  0  0  0  0  0  0  0  0
  -24.5870  -15.9350   20.2990 H   0  0  0  0  0  0  0  0  0  0  0  0
  -26.1000  -15.6850   19.5900 H   0  0  0  0  0  0  0  0  0  0  0  0
  -28.4750  -21.8770   19.7070 N   0  0  0  0  0  4  0  0  0  0  0  0
  -29.3470  -21.8010   20.2070 H   0  0  0  0  0  0  0  0  0  0  0  0
  -27.7330  -21.7780   20.3790 H   0  0  0  0  0  0  0  0  0  0  0  0
  -28.4190  -23.2030   19.0550 C   0  0  0  0  0  2  0  0  0  0  0  0
  -28.4020  -24.3530   20.0770 C   0  0  0  0  0  2  0  0  0  0  0  0
  -28.8010  -25.6900   19.4380 C   0  0  0  0  0  2  0  0  0  0  0  0
  -28.5640  -26.7780   20.3270 O   0  0  0  0  0  0  0  0  0  0  0  0
  -24.5880  -31.8940   23.2080 C   0  0  0  0  0  0  0  0  0  0  0  0
  -27.3450  -27.4190   20.2960 C   0  0  0  0  0  0  0  0  0  0  0  0
  -23.4230  -30.4290   21.5910 C   0  0  0  0  0  3  0  0  0  0  0  0
  -24.9180  -28.8670   20.2430 C   0  0  0  0  0  0  0  0  0  0  0  0
  -25.9460  -30.8170   21.4240 C   0  0  0  0  0  2  0  0  0  0  0  0
  -26.0570  -29.4300   20.8300 C   0  0  0  0  0  0  0  0  0  0  0  0
  -27.2680  -28.7100   20.8610 C   0  0  0  0  0  3  0  0  0  0  0  0
  -26.1790  -26.8580   19.7210 C   0  0  0  0  0  3  0  0  0  0  0  0
  -24.9710  -27.5750   19.6950 C   0  0  0  0  0  3  0  0  0  0  0  0
  -23.6630  -29.7090   20.2370 C   0  0  0  0  0  2  0  0  0  0  0  0
  -24.6680  -31.0620   22.1320 N   0  0  0  0  0  0  0  0  0  0  0  0
  -23.4960  -32.1710   23.7210 O   0  0  0  0  0  0  0  0  0  0  0  0
  -22.7710  -29.4270   22.5700 C   0  0  0  0  0  0  0  0  0  0  0  0
  -21.4480  -29.2360   22.4360 N   0  0  0  0  0  0  0  0  0  0  0  0
  -23.4500  -28.8250   23.4060 O   0  0  0  0  0  0  0  0  0  0  0  0
  -20.9630  -29.7700   21.7270 H   0  0  0  0  0  0  0  0  0  0  0  0
  -18.0700  -28.0650   22.9480 C   0  0  0  0  0  0  0  0  0  0  0  0
  -20.6270  -28.3180   23.2240 C   0  0  0  0  0  3  0  0  0  0  0  0
  -20.7280  -26.8750   22.6760 C   0  0  0  0  0  2  0  0  0  0  0  0
  -19.6270  -26.5360   21.6670 C   0  0  0  0  0  2  0  0  0  0  0  0
  -18.2430  -26.7000   22.3030 C   0  0  0  0  0  2  0  0  0  0  0  0
  -19.1900  -28.8310   23.3670 C   0  0  0  0  0  0  0  0  0  0  0  0
  -18.9750  -30.1090   23.9290 C   0  0  0  0  0  3  0  0  0  0  0  0
  -17.6720  -30.6210   24.0730 C   0  0  0  0  0  3  0  0  0  0  0  0
  -16.5660  -29.8510   23.6740 C   0  0  0  0  0  3  0  0  0  0  0  0
  -16.7660  -28.5740   23.1190 C   0  0  0  0  0  3  0  0  0  0  0  0
  -25.8560  -32.5590   23.8250 C   0  0  0  0  0  3  0  0  0  0  0  0
  -25.5090  -33.9470   24.1570 N   0  0  0  0  0  0  0  0  0  0  0  0
  -25.8080  -35.0090   23.3980 C   0  0  0  0  0  0  0  0  0  0  0  0
  -26.4770  -34.9260   22.3640 O   0  0  0  0  0  0  0  0  0  0  0  0
  -24.9140  -34.0860   24.9610 H   0  0  0  0  0  0  0  0  0  0  0  0
  -24.0270  -36.7470   23.0510 C   0  0  0  0  0  1  0  0  0  0  0  0
  -25.2820  -36.3810   23.8590 C   0  0  0  0  0  3  0  0  0  0  0  0
  -27.3940  -37.3210   24.6830 C   0  0  0  0  0  1  0  0  0  0  0  0
  -26.2800  -37.4650   23.7470 N   0  0  0  0  0  0  0  0  0  0  0  0
  -25.8490  -38.3710   23.9030 H   0  0  0  0  0  0  0  0  0  0  0  0
  -26.4040  -31.7970   25.0940 C   0  0  1  0  0  0  0  0  0  0  0  0
  -25.3210  -31.5070   26.1590 C   0  0  0  0  0  1  0  0  0  0  0  0
  -27.0370  -30.4450   24.6890 C   0  0  0  0  0  1  0  0  0  0  0  0
  -27.5270  -32.6290   25.7580 C   0  0  0  0  0  1  0  0  0  0  0  0
  1  7  1  0
  1 49  1  0
  2  6  1  0
  3  6  2  0
  4  2  2  0
  5  3  1  0
  7  5  2  0
  7  4  1  0
  8 20  1  0
  9 14  1  0
 10 11  1  0
 10  9  1  0
 12 11  1  0
 12 24  1  0
 12 13  1  0
 14  8  1  0
 14 13  1  0
 15  8  2  0
 17 16  1  0
 18 16  1  0
 19  6  1  0
 19 17  1  0
 20 19  1  0
 20 18  1  0
 21 22  2  0
 22 41  1  0
 23 22  1  0
 23 26  1  0
 24 25  1  0
 24 21  1  0
 25 23  2  0
 26 27  1  0
 27 28  2  0
 29 32  1  0
 29 28  1  0
 30 29  2  0
 31 30  1  0
 31 26  2  0
 32 33  1  0
 33 34  1  0
 34 35  2  0
 36 35  1  0
 36 40  1  0
 37 36  2  0
 38 33  2  0
 38 37  1  0
 39 38  1  0
 41 42  1  0
 42 44  1  0
 42 45  1  0
 43 41  2  0
 46 21  1  0
 46 47  1  0
 48 46  1  0
 49 50  1  0
 49 51  1  0
 52 49  1  0
 52 53  1  0
 54 53  1  0
 54 55  1  0
 56 67  2  0
 57 55  1  0
 57 62  1  0
 58 66  1  0
 58 68  1  0
 59 61  1  0
 60 66  1  0
 61 62  2  0
 61 60  1  0
 63 57  2  0
 64 63  1  0
 64 59  2  0
 65 59  1  0
 65 58  1  0
 66 56  1  0
 68 70  2  0
 69 68  1  0
 71 69  1  0
 72 81  2  0
 72 77  1  0
 73 69  1  0
 73 77  1  0
 74 73  1  0
 75 76  1  0
 75 74  1  0
 76 72  1  0
 77 78  2  0
 78 79  1  0
 80 79  2  0
 81 80  1  0
 82 56  1  0
 82 83  1  0
 82 92  1  0
 83 86  1  0
 84 88  1  0
 84 83  1  0
 85 84  2  0
 88 87  1  0
 90 88  1  0
 90 91  1  0
 90 89  1  0
 92 95  1  1
 92 93  1  0
 94 92  1  0
M  ISO  4   8 100  20 100  54 101  55 101
M  END
>  <TORSDO>  (39) 
F 21

>  <SCORE>  (39) 
-8.925

>  <name>  (39) 
38

>  <ligand_id>  (39) 
38

>  <original_smiles>  (39) 
[H]c1c([H])c([H])c2c(c1[H])C([H])([H])C([H])([H])C([H])([H])C2([H])N([H])C(=O)C1([H])N(C(=O)C([H])(N([H])C(=O)C([H])(N([H])C([H])([H])[H])C([H])([H])[H])C(C([H])([H])[H])(C([H])([H])[H])C([H])([H])[H])C([H])([H])c2c([H])c(OC([H])([H])C([H])([H])C([H])([H])[N+]([H])([H])C([H])([H])c3c([H])c([H])c(C4([H])N(C(=O)N5C([H])([H])C([H])([H])C([H])([H])C([H])(n6nc(-c7c([H])c([H])c(Oc8c([H])c([H])c(F)c([H])c8F)c([H])c7[H])c(C(=O)N([H])[H])c6N([H])[H])C5([H])[H])C([H])([H])C([H])([H])C4([H])[H])c([H])c3[H])c([H])c([H])c2C1([H])[H]

>  <smiles>  (39) 
[H]c1c([H])c([H])c2c(c1[H])C([H])([H])C([H])([H])C([H])([H])C2([H])N([H])C(=O)C1([H])N(C(=O)C([H])(N([H])C(=O)C([H])(N([H])C([H])([H])[H])C([H])([H])[H])C(C([H])([H])[H])(C([H])([H])[H])C([H])([H])[H])C([H])([H])c2c([H])c(OC([H])([H])C([H])([H])C([H])([H])[N+]([H])([H])C([H])([H])c3c([H])c([H])c(C4([H])N(C(=O)N5C([H])([H])C([H])([H])C([H])([H])C([H])(n6nc(-c7c([H])c([H])c(Oc8c([H])c([H])c(F)c([H])c8F)c([H])c7[H])c(C(=O)N([H])[H])c6N([H])[H])C5([H])[H])C([H])([H])C([H])([H])C4([H])[H])c([H])c3[H])c([H])c([H])c2C1([H])[H]

$$$$
39:0:0
     RDKit          3D

 97107  0  0  1  0  0  0  0  0999 V2000
  -30.7750  -14.6380   20.3940 C   0  0  0  0  0  0  0  0  0  0  0  0
  -30.4660  -12.3430   19.5400 C   0  0  0  0  0  2  0  0  0  0  0  0
  -29.5600  -12.2670   18.2960 C   0  0  0  0  0  2  0  0  0  0  0  0
  -28.0650  -12.2640   18.6770 C   0  0  0  0  0  2  0  0  0  0  0  0
  -27.6800  -13.2510   19.8070 C   0  0  0  0  0  3  0  0  0  0  0  0
  -28.7140  -13.2770   20.9510 C   0  0  0  0  0  2  0  0  0  0  0  0
  -30.0370  -13.4930   20.3520 N   0  0  0  0  0  0  0  0  0  0  0  0
  -32.0010  -14.6210   20.2790 O   0  0  0  0  0  0  0  0  0  0  0  0
  -27.9480  -20.5980   21.2810 C   0  0  0  0  0  3  0  0  0  0  0  0
  -28.3580  -21.7660   21.7930 C   0  0  0  0  0  3  0  0  0  0  0  0
  -31.5010  -18.0210   20.8210 C   0  0  0  0  0  2  0  0  0  0  0  0
  -28.2620  -18.5400   19.8290 C   0  0  0  0  0  2  0  0  0  0  0  0
  -30.6610  -21.4050   20.9850 C   0  0  0  0  0  2  0  0  0  0  0  0
  -30.5230  -16.9050   21.3170 C   0  0  0  0  0  2  0  0  0  0  0  0
  -28.6340  -20.0040   20.0600 C   0  0  0  0  0  3  0  0  0  0  0  0
  -29.5400  -22.4690   21.1550 C   0  0  0  0  0  3  0  0  0  0  0  0
  -30.1700  -20.3010   20.0090 C   0  0  0  0  0  3  0  0  0  0  0  0
  -31.0820  -19.0600   19.7270 C   0  0  0  0  0  3  0  0  0  0  0  0
  -29.1770  -17.7840   18.8270 C   0  0  0  0  0  3  0  0  0  0  0  0
  -29.3020  -16.2810   19.1390 C   0  0  0  0  0  3  0  0  0  0  0  0
  -29.6590  -15.5940   17.7910 C   0  0  0  0  0  1  0  0  0  0  0  0
  -30.1300  -15.8520   20.3280 N   0  0  0  0  0  0  0  0  0  0  0  0
  -30.5130  -18.3680   18.5730 N   0  0  0  0  0  4  0  0  0  0  0  0
  -31.1370  -17.6480   18.2420 H   0  0  0  0  0  0  0  0  0  0  0  0
  -30.4300  -19.0400   17.8260 H   0  0  0  0  0  0  0  0  0  0  0  0
  -25.2990  -13.9760   20.4340 C   0  0  0  0  0  0  0  0  0  0  0  0
  -24.1940  -13.2510   20.7920 C   0  0  0  0  0  0  0  0  0  0  0  0
  -24.6190  -11.8880   20.8350 C   0  0  0  0  0  0  0  0  0  0  0  0
  -26.3190  -13.0470   20.2790 N   0  0  0  0  0  0  0  0  0  0  0  0
  -25.9170  -11.7960   20.5910 N   0  0  0  0  0  0  0  0  0  0  0  0
  -23.8590  -10.6540   21.0430 C   0  0  0  0  0  0  0  0  0  0  0  0
  -24.2640   -9.6940   21.9940 C   0  0  0  0  0  3  0  0  0  0  0  0
  -23.5080   -8.5180   22.1850 C   0  0  0  0  0  3  0  0  0  0  0  0
  -22.3350   -8.2980   21.4210 C   0  0  0  0  0  0  0  0  0  0  0  0
  -21.9520   -9.2480   20.4570 C   0  0  0  0  0  3  0  0  0  0  0  0
  -22.7080  -10.4170   20.2670 C   0  0  0  0  0  3  0  0  0  0  0  0
  -21.5550   -7.1720   21.5220 O   0  0  0  0  0  0  0  0  0  0  0  0
  -21.5060   -6.4290   22.6750 C   0  0  0  0  0  0  0  0  0  0  0  0
  -21.1500   -7.0030   23.9160 C   0  0  0  0  0  3  0  0  0  0  0  0
  -21.0440   -6.1910   25.0640 C   0  0  0  0  0  3  0  0  0  0  0  0
  -21.2870   -4.8070   24.9710 C   0  0  0  0  0  0  0  0  0  0  0  0
  -21.6340   -4.2320   23.7350 C   0  0  0  0  0  3  0  0  0  0  0  0
  -21.7400   -5.0410   22.5910 C   0  0  0  0  0  0  0  0  0  0  0  0
  -22.0540   -4.4820   21.3980 F   0  0  0  0  0  0  0  0  0  0  0  0
  -21.1830   -4.0220   26.0690 F   0  0  0  0  0  0  0  0  0  0  0  0
  -22.8020  -13.7750   20.9910 C   0  0  0  0  0  0  0  0  0  0  0  0
  -22.0320  -13.1340   21.8650 N   0  0  0  0  0  0  0  0  0  0  0  0
  -22.4020  -14.7810   20.4080 O   0  0  0  0  0  0  0  0  0  0  0  0
  -22.3590  -12.3050   22.3400 H   0  0  0  0  0  0  0  0  0  0  0  0
  -21.0960  -13.4660   22.0480 H   0  0  0  0  0  0  0  0  0  0  0  0
  -25.5150  -15.3330   20.2030 N   0  0  0  0  0  0  0  0  0  0  0  0
  -24.7810  -16.0270   20.2820 H   0  0  0  0  0  0  0  0  0  0  0  0
  -26.3820  -15.7100   19.8480 H   0  0  0  0  0  0  0  0  0  0  0  0
  -29.9350  -23.7880   21.8550 C   0  0  0  0  0  2  0  0  0  0  0  0
  -29.9240  -25.0230   20.9130 C   0  0  0  0  0  2  0  0  0  0  0  0
  -28.5380  -25.4370   20.3640 C   0  0  0  0  0  2  0  0  0  0  0  0
  -28.5710  -26.7970   19.9050 O   0  0  0  0  0  0  0  0  0  0  0  0
  -24.5660  -31.7460   23.0490 C   0  0  0  0  0  0  0  0  0  0  0  0
  -27.3640  -27.4660   19.9010 C   0  0  0  0  0  0  0  0  0  0  0  0
  -23.4060  -30.3360   21.3810 C   0  0  0  0  0  3  0  0  0  0  0  0
  -24.9100  -28.8720   19.9260 C   0  0  0  0  0  0  0  0  0  0  0  0
  -25.9120  -30.7970   21.1760 C   0  0  0  0  0  2  0  0  0  0  0  0
  -26.0460  -29.4370   20.5180 C   0  0  0  0  0  0  0  0  0  0  0  0
  -27.2770  -28.7450   20.4940 C   0  0  0  0  0  3  0  0  0  0  0  0
  -26.2110  -26.9080   19.3080 C   0  0  0  0  0  3  0  0  0  0  0  0
  -24.9860  -27.6070   19.3140 C   0  0  0  0  0  3  0  0  0  0  0  0
  -23.6330  -29.6790   19.9900 C   0  0  0  0  0  2  0  0  0  0  0  0
  -24.6470  -30.9750   21.9280 N   0  0  0  0  0  0  0  0  0  0  0  0
  -23.4750  -31.9710   23.5980 O   0  0  0  0  0  0  0  0  0  0  0  0
  -22.7880  -29.2810   22.3270 C   0  0  0  0  0  0  0  0  0  0  0  0
  -21.4680  -29.0720   22.2040 N   0  0  0  0  0  0  0  0  0  0  0  0
  -23.4950  -28.6560   23.1240 O   0  0  0  0  0  0  0  0  0  0  0  0
  -20.9580  -29.6340   21.5350 H   0  0  0  0  0  0  0  0  0  0  0  0
  -18.1300  -27.7800   22.6850 C   0  0  0  0  0  0  0  0  0  0  0  0
  -20.6820  -28.0960   22.9580 C   0  0  0  0  0  3  0  0  0  0  0  0
  -20.8240  -26.6840   22.3520 C   0  0  0  0  0  2  0  0  0  0  0  0
  -19.7300  -26.3550   21.3300 C   0  0  0  0  0  2  0  0  0  0  0  0
  -18.3430  -26.4520   21.9770 C   0  0  0  0  0  2  0  0  0  0  0  0
  -19.2330  -28.5590   23.1280 C   0  0  0  0  0  0  0  0  0  0  0  0
  -18.9890  -29.8020   23.7490 C   0  0  0  0  0  3  0  0  0  0  0  0
  -17.6750  -30.2670   23.9350 C   0  0  0  0  0  3  0  0  0  0  0  0
  -16.5860  -29.4850   23.5130 C   0  0  0  0  0  3  0  0  0  0  0  0
  -16.8130  -28.2440   22.8940 C   0  0  0  0  0  3  0  0  0  0  0  0
  -25.8320  -32.4050   23.6850 C   0  0  0  0  0  3  0  0  0  0  0  0
  -25.4720  -33.7770   24.0630 N   0  0  0  0  0  0  0  0  0  0  0  0
  -25.7610  -34.8650   23.3360 C   0  0  0  0  0  0  0  0  0  0  0  0
  -26.4290  -34.8190   22.2990 O   0  0  0  0  0  0  0  0  0  0  0  0
  -24.8690  -33.8810   24.8660 H   0  0  0  0  0  0  0  0  0  0  0  0
  -23.9560  -36.5950   23.0620 C   0  0  0  0  0  1  0  0  0  0  0  0
  -25.2260  -36.2190   23.8410 C   0  0  0  0  0  3  0  0  0  0  0  0
  -27.3410  -37.1600   24.6580 C   0  0  0  0  0  1  0  0  0  0  0  0
  -26.2130  -37.3150   23.7420 N   0  0  0  0  0  0  0  0  0  0  0  0
  -25.7770  -38.2150   23.9220 H   0  0  0  0  0  0  0  0  0  0  0  0
  -26.3880  -31.6090   24.9290 C   0  0  1  0  0  0  0  0  0  0  0  0
  -25.3170  -31.3000   26.0010 C   0  0  0  0  0  1  0  0  0  0  0  0
  -27.0120  -30.2670   24.4820 C   0  0  0  0  0  1  0  0  0  0  0  0
  -27.5210  -32.4170   25.6040 C   0  0  0  0  0  1  0  0  0  0  0  0
  2  7  1  0
  3  4  1  0
  3  2  1  0
  5  4  1  0
  5 29  1  0
  5  6  1  0
  7  1  1  0
  7  6  1  0
  8  1  2  0
  9 10  2  0
 11 14  1  0
 13 16  1  0
 15 12  1  0
 15  9  1  0
 16 10  1  0
 16 54  1  0
 17 15  1  0
 17 13  1  0
 18 17  1  0
 18 11  1  0
 19 20  1  0
 19 12  1  0
 20 21  1  0
 20 22  1  0
 22  1  1  0
 22 14  1  0
 23 19  1  0
 23 18  1  0
 24 23  1  0
 25 23  1  0
 26 27  2  0
 27 28  1  0
 27 46  1  0
 28 31  1  0
 29 26  1  0
 29 30  1  0
 30 28  2  0
 31 32  1  0
 32 33  2  0
 34 37  1  0
 34 33  1  0
 35 34  2  0
 36 35  1  0
 36 31  2  0
 37 38  1  0
 38 39  1  0
 39 40  2  0
 41 40  1  0
 41 45  1  0
 42 41  2  0
 43 38  2  0
 43 42  1  0
 44 43  1  0
 46 47  1  0
 47 50  1  0
 47 49  1  0
 48 46  2  0
 51 52  1  0
 51 26  1  0
 53 51  1  0
 55 54  1  0
 56 55  1  0
 57 56  1  0
 58 69  2  0
 59 57  1  0
 59 64  1  0
 60 68  1  0
 60 70  1  0
 61 67  1  0
 61 63  1  0
 62 68  1  0
 63 62  1  0
 64 63  2  0
 65 66  1  0
 65 59  2  0
 66 61  2  0
 67 60  1  0
 68 58  1  0
 70 72  2  0
 71 70  1  0
 73 71  1  0
 74 83  2  0
 74 79  1  0
 75 71  1  0
 75 79  1  0
 76 75  1  0
 77 78  1  0
 77 76  1  0
 78 74  1  0
 79 80  2  0
 80 81  1  0
 82 81  2  0
 83 82  1  0
 84 58  1  0
 84 85  1  0
 84 94  1  0
 85 88  1  0
 86 90  1  0
 86 85  1  0
 87 86  2  0
 90 89  1  0
 92 90  1  0
 92 93  1  0
 92 91  1  0
 94 97  1  1
 94 95  1  0
 96 94  1  0
M  ISO  4   1 100  22 100  56 101  57 101
M  END
>  <TORSDO>  (40) 
F 18

>  <SCORE>  (40) 
-12.482

>  <name>  (40) 
39

>  <ligand_id>  (40) 
39

>  <original_smiles>  (40) 
[H]C1=C([H])C2([H])C([H])([H])C3([H])C([H])(C([H])([H])[H])N(C(=O)N4C([H])([H])C([H])([H])C([H])([H])C([H])(n5nc(-c6c([H])c([H])c(Oc7c([H])c([H])c(F)c([H])c7F)c([H])c6[H])c(C(=O)N([H])[H])c5N([H])[H])C4([H])[H])C([H])([H])C([H])([H])C([H])(C2([H])C([H])([H])C1([H])C([H])([H])C([H])([H])C([H])([H])Oc1c([H])c([H])c2c(c1[H])C([H])([H])N(C(=O)C([H])(N([H])C(=O)C([H])(N([H])C([H])([H])[H])C([H])([H])[H])C(C([H])([H])[H])(C([H])([H])[H])C([H])([H])[H])C([H])(C(=O)N([H])C1([H])c4c([H])c([H])c([H])c([H])c4C([H])([H])C([H])([H])C1([H])[H])C2([H])[H])[N+]3([H])[H]

>  <smiles>  (40) 
[H]C1=C([H])C2([H])C([H])([H])C3([H])C([H])(C([H])([H])[H])N(C(=O)N4C([H])([H])C([H])([H])C([H])([H])C([H])(n5nc(-c6c([H])c([H])c(Oc7c([H])c([H])c(F)c([H])c7F)c([H])c6[H])c(C(=O)N([H])[H])c5N([H])[H])C4([H])[H])C([H])([H])C([H])([H])C([H])(C2([H])C([H])([H])C1([H])C([H])([H])C([H])([H])C([H])([H])Oc1c([H])c([H])c2c(c1[H])C([H])([H])N(C(=O)C([H])(N([H])C(=O)C([H])(N([H])C([H])([H])[H])C([H])([H])[H])C(C([H])([H])[H])(C([H])([H])[H])C([H])([H])[H])C([H])(C(=O)N([H])C1([H])c4c([H])c([H])c([H])c([H])c4C([H])([H])C([H])([H])C1([H])[H])C2([H])[H])[N+]3([H])[H]

$$$$
40:0:0
     RDKit          3D

 96104  0  0  1  0  0  0  0  0999 V2000
  -30.2910  -20.5560   21.4570 C   0  0  0  0  0  3  0  0  0  0  0  0
  -30.5530  -21.6640   22.1830 C   0  0  0  0  0  0  0  0  0  0  0  0
  -31.9410  -21.9490   22.7300 C   0  0  0  0  0  2  0  0  0  0  0  0
  -33.0320  -21.1430   22.0200 C   0  0  0  0  0  2  0  0  0  0  0  0
  -32.6190  -19.6740   21.9100 C   0  0  0  0  0  2  0  0  0  0  0  0
  -31.2990  -19.4520   21.1130 C   0  0  2  0  0  0  0  0  0  0  0  0
  -29.5150  -22.6420   22.4290 C   0  0  0  0  0  3  0  0  0  0  0  0
  -29.1720  -23.5820   21.5310 C   0  0  0  0  0  3  0  0  0  0  0  0
  -28.1510  -24.6740   21.7810 C   0  0  0  0  0  2  0  0  0  0  0  0
  -28.7840  -26.0790   21.6970 C   0  0  0  0  0  2  0  0  0  0  0  0
  -28.4930  -26.6890   20.4440 O   0  0  0  0  0  0  0  0  0  0  0  0
  -24.6270  -31.9230   23.3360 C   0  0  0  0  0  0  0  0  0  0  0  0
  -27.3300  -27.4150   20.4370 C   0  0  0  0  0  0  0  0  0  0  0  0
  -23.4480  -30.4690   21.7150 C   0  0  0  0  0  3  0  0  0  0  0  0
  -24.9280  -28.8870   20.3650 C   0  0  0  0  0  0  0  0  0  0  0  0
  -25.9720  -30.8300   21.5480 C   0  0  0  0  0  2  0  0  0  0  0  0
  -26.0710  -29.4400   20.9590 C   0  0  0  0  0  0  0  0  0  0  0  0
  -27.2750  -28.7070   21.0010 C   0  0  0  0  0  3  0  0  0  0  0  0
  -26.1820  -26.8690   19.8320 C   0  0  0  0  0  3  0  0  0  0  0  0
  -24.9760  -27.5990   19.8030 C   0  0  0  0  0  3  0  0  0  0  0  0
  -23.6810  -29.7430   20.3620 C   0  0  0  0  0  2  0  0  0  0  0  0
  -24.7000  -31.0900   22.2580 N   0  0  0  0  0  0  0  0  0  0  0  0
  -23.5390  -32.2120   23.8510 O   0  0  0  0  0  0  0  0  0  0  0  0
  -22.7820  -29.4780   22.6960 C   0  0  0  0  0  0  0  0  0  0  0  0
  -21.4660  -29.2690   22.5300 N   0  0  0  0  0  0  0  0  0  0  0  0
  -23.4450  -28.8990   23.5610 O   0  0  0  0  0  0  0  0  0  0  0  0
  -20.9960  -29.7880   21.8020 H   0  0  0  0  0  0  0  0  0  0  0  0
  -18.0970  -28.0360   22.9470 C   0  0  0  0  0  0  0  0  0  0  0  0
  -20.6360  -28.3530   23.3110 C   0  0  0  0  0  3  0  0  0  0  0  0
  -20.7860  -26.9000   22.8020 C   0  0  0  0  0  2  0  0  0  0  0  0
  -19.7310  -26.5110   21.7610 C   0  0  0  0  0  2  0  0  0  0  0  0
  -18.3220  -26.6600   22.3420 C   0  0  0  0  0  2  0  0  0  0  0  0
  -19.1840  -28.8360   23.3860 C   0  0  0  0  0  0  0  0  0  0  0  0
  -18.9210  -30.1220   23.9070 C   0  0  0  0  0  3  0  0  0  0  0  0
  -17.6040  -30.6080   23.9940 C   0  0  0  0  0  3  0  0  0  0  0  0
  -16.5300  -29.8050   23.5730 C   0  0  0  0  0  3  0  0  0  0  0  0
  -16.7760  -28.5210   23.0550 C   0  0  0  0  0  3  0  0  0  0  0  0
  -25.9050  -32.5680   23.9570 C   0  0  0  0  0  3  0  0  0  0  0  0
  -26.4140  -31.8210   25.2490 C   0  0  1  0  0  0  0  0  0  0  0  0
  -25.3110  -31.5800   26.3060 C   0  0  0  0  0  1  0  0  0  0  0  0
  -27.0200  -30.4470   24.8780 C   0  0  0  0  0  1  0  0  0  0  0  0
  -27.5480  -32.6350   25.9150 C   0  0  0  0  0  1  0  0  0  0  0  0
  -25.5900  -33.9710   24.2580 N   0  0  0  0  0  0  0  0  0  0  0  0
  -25.9340  -35.0090   23.4850 C   0  0  0  0  0  0  0  0  0  0  0  0
  -26.6230  -34.8870   22.4680 O   0  0  0  0  0  0  0  0  0  0  0  0
  -24.9790  -34.1370   25.0430 H   0  0  0  0  0  0  0  0  0  0  0  0
  -24.2130  -36.7910   23.0500 C   0  0  0  0  0  1  0  0  0  0  0  0
  -25.4320  -36.4040   23.9030 C   0  0  0  0  0  3  0  0  0  0  0  0
  -27.5400  -37.3050   24.7780 C   0  0  0  0  0  1  0  0  0  0  0  0
  -26.4660  -37.4560   23.8000 N   0  0  0  0  0  0  0  0  0  0  0  0
  -26.0570  -38.3800   23.9190 H   0  0  0  0  0  0  0  0  0  0  0  0
  -31.5950  -19.5240   19.5870 C   0  0  0  0  0  2  0  0  0  0  0  0
  -30.4090  -19.1970   18.6510 C   0  0  0  0  0  2  0  0  0  0  0  0
  -29.5650  -19.0900   16.2460 C   0  0  0  0  0  1  0  0  0  0  0  0
  -30.7370  -19.4390   17.1720 C   0  0  0  0  0  2  0  0  0  0  0  0
  -30.7050  -18.0700   21.5200 C   0  0  0  0  0  2  0  0  0  0  0  0
  -31.6390  -16.8700   21.2520 C   0  0  0  0  0  2  0  0  0  0  0  0
  -31.2170  -15.5510   21.9310 C   0  0  0  0  0  2  0  0  0  0  0  0
  -30.3530  -14.1670   20.0440 C   0  0  0  0  0  0  0  0  0  0  0  0
  -29.8380  -12.1400   18.7390 C   0  0  0  0  0  2  0  0  0  0  0  0
  -28.7650  -12.3680   17.6620 C   0  0  0  0  0  2  0  0  0  0  0  0
  -27.3590  -12.1740   18.2550 C   0  0  0  0  0  2  0  0  0  0  0  0
  -27.1520  -12.9740   19.5670 C   0  0  0  0  0  3  0  0  0  0  0  0
  -28.3230  -12.7470   20.5480 C   0  0  0  0  0  2  0  0  0  0  0  0
  -29.5850  -13.0630   19.8560 N   0  0  0  0  0  0  0  0  0  0  0  0
  -31.2450  -14.5040   19.2630 O   0  0  0  0  0  0  0  0  0  0  0  0
  -30.1910  -14.7730   21.2290 N   0  0  0  0  0  0  0  0  0  0  0  0
  -29.4290  -14.4280   21.7940 H   0  0  0  0  0  0  0  0  0  0  0  0
  -24.8260  -13.5080   20.5340 C   0  0  0  0  0  0  0  0  0  0  0  0
  -23.8230  -12.7020   21.0030 C   0  0  0  0  0  0  0  0  0  0  0  0
  -24.3150  -11.3650   20.9030 C   0  0  0  0  0  0  0  0  0  0  0  0
  -25.8650  -12.6600   20.1830 N   0  0  0  0  0  0  0  0  0  0  0  0
  -25.5650  -11.3640   20.4590 N   0  0  0  0  0  0  0  0  0  0  0  0
  -23.6460  -10.0800   21.1520 C   0  0  0  0  0  0  0  0  0  0  0  0
  -24.1590   -9.1480   22.0810 C   0  0  0  0  0  3  0  0  0  0  0  0
  -23.4890   -7.9280   22.3160 C   0  0  0  0  0  3  0  0  0  0  0  0
  -22.2920   -7.6300   21.6220 C   0  0  0  0  0  0  0  0  0  0  0  0
  -21.7980   -8.5510   20.6810 C   0  0  0  0  0  3  0  0  0  0  0  0
  -22.4690   -9.7630   20.4450 C   0  0  0  0  0  3  0  0  0  0  0  0
  -21.5870   -6.4590   21.7660 O   0  0  0  0  0  0  0  0  0  0  0  0
  -21.5860   -5.7610   22.9470 C   0  0  0  0  0  0  0  0  0  0  0  0
  -21.1380   -6.3400   24.1540 C   0  0  0  0  0  3  0  0  0  0  0  0
  -21.0870   -5.5640   25.3300 C   0  0  0  0  0  3  0  0  0  0  0  0
  -21.4770   -4.2110   25.3000 C   0  0  0  0  0  0  0  0  0  0  0  0
  -21.9180   -3.6330   24.0980 C   0  0  0  0  0  3  0  0  0  0  0  0
  -21.9700   -4.4050   22.9240 C   0  0  0  0  0  0  0  0  0  0  0  0
  -22.3760   -3.8360   21.7630 F   0  0  0  0  0  0  0  0  0  0  0  0
  -21.4210   -3.4650   26.4280 F   0  0  0  0  0  0  0  0  0  0  0  0
  -22.4520  -13.1360   21.4310 C   0  0  0  0  0  0  0  0  0  0  0  0
  -21.8440  -12.4150   22.3660 N   0  0  0  0  0  0  0  0  0  0  0  0
  -21.9280  -14.1490   20.9680 O   0  0  0  0  0  0  0  0  0  0  0  0
  -22.2810  -11.5960   22.7610 H   0  0  0  0  0  0  0  0  0  0  0  0
  -20.9280  -12.6880   22.6940 H   0  0  0  0  0  0  0  0  0  0  0  0
  -24.9370  -14.8850   20.3590 N   0  0  0  0  0  0  0  0  0  0  0  0
  -24.1760  -15.5240   20.5600 H   0  0  0  0  0  0  0  0  0  0  0  0
  -25.7460  -15.3450   19.9590 H   0  0  0  0  0  0  0  0  0  0  0  0
  1  2  2  0
  2  7  1  0
  2  3  1  0
  4  3  1  0
  5  4  1  0
  6 52  1  6
  6  1  1  0
  6 56  1  0
  6  5  1  0
  8  9  1  0
  8  7  2  0
 10  9  1  0
 11 10  1  0
 12 23  2  0
 13 11  1  0
 13 18  1  0
 14 22  1  0
 14 24  1  0
 15 17  1  0
 16 22  1  0
 17 18  2  0
 17 16  1  0
 19 13  2  0
 20 19  1  0
 20 15  2  0
 21 15  1  0
 21 14  1  0
 22 12  1  0
 24 26  2  0
 25 24  1  0
 27 25  1  0
 28 37  2  0
 28 33  1  0
 29 25  1  0
 29 33  1  0
 30 29  1  0
 31 32  1  0
 31 30  1  0
 32 28  1  0
 33 34  2  0
 34 35  1  0
 36 35  2  0
 37 36  1  0
 38 12  1  0
 38 43  1  0
 38 39  1  0
 39 42  1  1
 39 40  1  0
 41 39  1  0
 43 46  1  0
 44 48  1  0
 44 43  1  0
 45 44  2  0
 48 47  1  0
 50 48  1  0
 50 51  1  0
 50 49  1  0
 53 52  1  0
 54 55  1  0
 55 53  1  0
 57 56  1  0
 57 58  1  0
 59 67  1  0
 60 65  1  0
 61 62  1  0
 61 60  1  0
 63 62  1  0
 63 72  1  0
 63 64  1  0
 65 59  1  0
 65 64  1  0
 66 59  2  0
 67 68  1  0
 67 58  1  0
 69 70  2  0
 70 89  1  0
 71 70  1  0
 71 74  1  0
 72 73  1  0
 72 69  1  0
 73 71  2  0
 74 75  1  0
 75 76  2  0
 77 80  1  0
 77 76  1  0
 78 77  2  0
 79 78  1  0
 79 74  2  0
 80 81  1  0
 81 82  1  0
 82 83  2  0
 84 83  1  0
 84 88  1  0
 85 84  2  0
 86 81  2  0
 86 85  1  0
 87 86  1  0
 89 90  1  0
 90 93  1  0
 90 92  1  0
 91 89  2  0
 94 69  1  0
 94 95  1  0
 96 94  1  0
M  ISO  4  10 101  11 101  59 100  67 100
M  END
>  <TORSDO>  (41) 
F 25

>  <SCORE>  (41) 
-11.126

>  <name>  (41) 
40

>  <ligand_id>  (41) 
40

>  <original_smiles>  (41) 
[H]C(=C([H])C([H])([H])C([H])([H])Oc1c([H])c([H])c2c(c1[H])C([H])([H])N(C(=O)C([H])(N([H])C(=O)C([H])(N([H])C([H])([H])[H])C([H])([H])[H])C(C([H])([H])[H])(C([H])([H])[H])C([H])([H])[H])C([H])(C(=O)N([H])C1([H])c3c([H])c([H])c([H])c([H])c3C([H])([H])C([H])([H])C1([H])[H])C2([H])[H])C1=C([H])C(C([H])([H])C([H])([H])C([H])([H])N([H])C(=O)N2C([H])([H])C([H])([H])C([H])([H])C([H])(n3nc(-c4c([H])c([H])c(Oc5c([H])c([H])c(F)c([H])c5F)c([H])c4[H])c(C(=O)N([H])[H])c3N([H])[H])C2([H])[H])(C([H])([H])C([H])([H])C([H])([H])C([H])([H])[H])C([H])([H])C([H])([H])C1([H])[H]

>  <smiles>  (41) 
[H]C(=C([H])C([H])([H])C([H])([H])Oc1c([H])c([H])c2c(c1[H])C([H])([H])N(C(=O)C([H])(N([H])C(=O)C([H])(N([H])C([H])([H])[H])C([H])([H])[H])C(C([H])([H])[H])(C([H])([H])[H])C([H])([H])[H])C([H])(C(=O)N([H])C1([H])c3c([H])c([H])c([H])c([H])c3C([H])([H])C([H])([H])C1([H])[H])C2([H])[H])C1=C([H])C(C([H])([H])C([H])([H])C([H])([H])N([H])C(=O)N2C([H])([H])C([H])([H])C([H])([H])C([H])(n3nc(-c4c([H])c([H])c(Oc5c([H])c([H])c(F)c([H])c5F)c([H])c4[H])c(C(=O)N([H])[H])c3N([H])[H])C2([H])[H])(C([H])([H])C([H])([H])C([H])([H])C([H])([H])[H])C([H])([H])C([H])([H])C1([H])[H]

$$$$
41:0:0
     RDKit          3D

 94103  0  0  1  0  0  0  0  0999 V2000
  -27.8190  -21.0280   20.1930 C   0  0  0  0  0  2  0  0  0  0  0  0
  -26.9980  -21.0370   18.8890 C   0  0  0  0  0  2  0  0  0  0  0  0
  -27.3970  -22.1280   17.8780 C   0  0  0  0  0  2  0  0  0  0  0  0
  -27.1370  -23.5810   18.3420 C   0  0  0  0  0  2  0  0  0  0  0  0
  -28.3780  -24.3060   18.9190 C   0  0  0  0  0  2  0  0  0  0  0  0
  -28.4530  -25.8220   18.6060 C   0  0  0  0  0  2  0  0  0  0  0  0
  -28.2010  -26.6750   19.7250 O   0  0  0  0  0  0  0  0  0  0  0  0
  -24.5270  -31.6670   23.1870 C   0  0  0  0  0  0  0  0  0  0  0  0
  -27.0230  -27.3910   19.7730 C   0  0  0  0  0  0  0  0  0  0  0  0
  -23.2560  -30.3830   21.4970 C   0  0  0  0  0  3  0  0  0  0  0  0
  -24.6460  -28.9150   19.9460 C   0  0  0  0  0  0  0  0  0  0  0  0
  -25.7780  -30.7190   21.2530 C   0  0  0  0  0  2  0  0  0  0  0  0
  -25.8240  -29.3850   20.5390 C   0  0  0  0  0  0  0  0  0  0  0  0
  -27.0130  -28.6240   20.4590 C   0  0  0  0  0  3  0  0  0  0  0  0
  -25.8220  -26.9270   19.1940 C   0  0  0  0  0  3  0  0  0  0  0  0
  -24.6390  -27.6800   19.2770 C   0  0  0  0  0  3  0  0  0  0  0  0
  -23.4220  -29.7910   20.0730 C   0  0  0  0  0  2  0  0  0  0  0  0
  -24.5400  -30.9350   22.0380 N   0  0  0  0  0  0  0  0  0  0  0  0
  -23.4650  -31.9220   23.7720 O   0  0  0  0  0  0  0  0  0  0  0  0
  -22.6170  -29.3150   22.4130 C   0  0  0  0  0  0  0  0  0  0  0  0
  -21.2930  -29.1310   22.2780 N   0  0  0  0  0  0  0  0  0  0  0  0
  -23.3070  -28.6630   23.2020 O   0  0  0  0  0  0  0  0  0  0  0  0
  -20.7970  -29.7090   21.6130 H   0  0  0  0  0  0  0  0  0  0  0  0
  -17.9340  -27.8650   22.6900 C   0  0  0  0  0  0  0  0  0  0  0  0
  -20.4820  -28.1550   23.0070 C   0  0  0  0  0  3  0  0  0  0  0  0
  -20.6190  -26.7430   22.3900 C   0  0  0  0  0  2  0  0  0  0  0  0
  -19.5370  -26.4340   21.3530 C   0  0  0  0  0  2  0  0  0  0  0  0
  -18.1430  -26.5400   21.9780 C   0  0  0  0  0  2  0  0  0  0  0  0
  -19.0330  -28.6320   23.1580 C   0  0  0  0  0  0  0  0  0  0  0  0
  -18.7840  -29.8760   23.7810 C   0  0  0  0  0  3  0  0  0  0  0  0
  -17.4670  -30.3480   23.9410 C   0  0  0  0  0  3  0  0  0  0  0  0
  -16.3840  -29.5760   23.4930 C   0  0  0  0  0  3  0  0  0  0  0  0
  -16.6160  -28.3360   22.8720 C   0  0  0  0  0  3  0  0  0  0  0  0
  -25.8410  -32.2400   23.8050 C   0  0  0  0  0  3  0  0  0  0  0  0
  -25.5810  -33.6410   24.1640 N   0  0  0  0  0  0  0  0  0  0  0  0
  -25.9230  -34.6970   23.4140 C   0  0  0  0  0  0  0  0  0  0  0  0
  -26.5640  -34.5920   22.3640 O   0  0  0  0  0  0  0  0  0  0  0  0
  -25.0160  -33.8020   24.9860 H   0  0  0  0  0  0  0  0  0  0  0  0
  -24.2380  -36.5450   23.1340 C   0  0  0  0  0  1  0  0  0  0  0  0
  -25.4860  -36.0900   23.9080 C   0  0  0  0  0  3  0  0  0  0  0  0
  -27.6590  -36.9110   24.7080 C   0  0  0  0  0  1  0  0  0  0  0  0
  -26.5450  -37.1160   23.7880 N   0  0  0  0  0  0  0  0  0  0  0  0
  -26.1630  -38.0430   23.9530 H   0  0  0  0  0  0  0  0  0  0  0  0
  -26.3520  -31.4210   25.0550 C   0  0  1  0  0  0  0  0  0  0  0  0
  -25.2700  -31.2040   26.1360 C   0  0  0  0  0  1  0  0  0  0  0  0
  -26.8760  -30.0300   24.6220 C   0  0  0  0  0  1  0  0  0  0  0  0
  -27.5420  -32.1590   25.7120 C   0  0  0  0  0  1  0  0  0  0  0  0
  -29.2580  -20.5090   20.0140 C   0  0  0  0  0  2  0  0  0  0  0  0
  -31.0920  -16.1040   20.9250 C   0  0  0  0  0  0  0  0  0  0  0  0
  -30.8270  -16.7760   22.2720 C   0  0  0  0  0  2  0  0  0  0  0  0
  -30.5750  -16.9040   19.6970 C   0  0  0  0  0  2  0  0  0  0  0  0
  -31.5870  -18.8400   21.0340 C   0  0  0  0  0  2  0  0  0  0  0  0
  -29.2840  -18.7550   21.7540 C   0  0  0  0  0  2  0  0  0  0  0  0
  -30.7000  -18.3150   22.1780 C   0  0  0  0  0  3  0  0  0  0  0  0
  -30.6660  -18.4650   19.8660 C   0  0  0  0  0  3  0  0  0  0  0  0
  -31.7520  -15.0100   20.9440 N   0  0  0  0  0  0  0  0  0  0  0  0
  -29.3750  -19.0460   20.3030 N   0  0  2  0  0  4  0  0  0  0  0  0
  -28.6250  -18.5880   19.8090 H   0  0  0  0  0  0  0  0  0  0  0  0
  -31.9960  -14.3150   19.7770 C   0  0  0  0  0  0  0  0  0  0  0  0
  -31.3790  -12.2760   18.5290 C   0  0  0  0  0  2  0  0  0  0  0  0
  -30.3480  -12.5070   17.4140 C   0  0  0  0  0  2  0  0  0  0  0  0
  -28.9130  -12.4720   17.9740 C   0  0  0  0  0  2  0  0  0  0  0  0
  -28.7410  -13.3710   19.2270 C   0  0  0  0  0  3  0  0  0  0  0  0
  -29.8530  -13.0690   20.2560 C   0  0  0  0  0  2  0  0  0  0  0  0
  -31.1520  -13.2720   19.5830 N   0  0  0  0  0  0  0  0  0  0  0  0
  -32.9210  -14.5720   19.0010 O   0  0  0  0  0  0  0  0  0  0  0  0
  -26.4740  -14.1990   20.1290 C   0  0  0  0  0  0  0  0  0  0  0  0
  -25.3760  -13.5240   20.5860 C   0  0  0  0  0  0  0  0  0  0  0  0
  -25.7030  -12.1350   20.5010 C   0  0  0  0  0  0  0  0  0  0  0  0
  -27.4110  -13.2270   19.8090 N   0  0  0  0  0  0  0  0  0  0  0  0
  -26.9520  -11.9810   20.0850 N   0  0  0  0  0  0  0  0  0  0  0  0
  -24.8800  -10.9430   20.7350 C   0  0  0  0  0  0  0  0  0  0  0  0
  -25.2070  -10.0080   21.7420 C   0  0  0  0  0  3  0  0  0  0  0  0
  -24.3930   -8.8770   21.9630 C   0  0  0  0  0  3  0  0  0  0  0  0
  -23.2330   -8.6730   21.1770 C   0  0  0  0  0  0  0  0  0  0  0  0
  -22.9230   -9.5950   20.1610 C   0  0  0  0  0  3  0  0  0  0  0  0
  -23.7380  -10.7170   19.9400 C   0  0  0  0  0  3  0  0  0  0  0  0
  -22.3960   -7.5910   21.3040 O   0  0  0  0  0  0  0  0  0  0  0  0
  -22.0980   -7.0510   22.5300 C   0  0  0  0  0  0  0  0  0  0  0  0
  -21.5930   -7.8380   23.5870 C   0  0  0  0  0  3  0  0  0  0  0  0
  -21.2350   -7.2320   24.8080 C   0  0  0  0  0  3  0  0  0  0  0  0
  -21.3720   -5.8390   24.9680 C   0  0  0  0  0  0  0  0  0  0  0  0
  -21.8670   -5.0530   23.9130 C   0  0  0  0  0  3  0  0  0  0  0  0
  -22.2280   -5.6580   22.6970 C   0  0  0  0  0  0  0  0  0  0  0  0
  -22.6860   -4.8950   21.6750 F   0  0  0  0  0  0  0  0  0  0  0  0
  -21.0200   -5.2530   26.1360 F   0  0  0  0  0  0  0  0  0  0  0  0
  -24.0560  -14.1210   20.9810 C   0  0  0  0  0  0  0  0  0  0  0  0
  -23.3990  -13.5550   21.9850 N   0  0  0  0  0  0  0  0  0  0  0  0
  -23.6190  -15.1270   20.4240 O   0  0  0  0  0  0  0  0  0  0  0  0
  -23.7640  -12.7400   22.4570 H   0  0  0  0  0  0  0  0  0  0  0  0
  -22.5200  -13.9450   22.2950 H   0  0  0  0  0  0  0  0  0  0  0  0
  -26.7490  -15.5520   19.9370 N   0  0  0  0  0  0  0  0  0  0  0  0
  -26.0190  -16.2460   20.0470 H   0  0  0  0  0  0  0  0  0  0  0  0
  -27.5460  -15.8880   19.4140 H   0  0  0  0  0  0  0  0  0  0  0  0
  2  1  1  0
  3  4  1  0
  3  2  1  0
  4  5  1  0
  6  5  1  0
  6  7  1  0
  7  9  1  0
  8 19  2  0
  9 14  1  0
 10 18  1  0
 10 20  1  0
 11 17  1  0
 11 13  1  0
 12 18  1  0
 13 12  1  0
 14 13  2  0
 15 16  1  0
 15  9  2  0
 16 11  2  0
 17 10  1  0
 18  8  1  0
 20 22  2  0
 21 20  1  0
 23 21  1  0
 24 33  2  0
 24 29  1  0
 25 21  1  0
 25 29  1  0
 26 25  1  0
 27 28  1  0
 27 26  1  0
 28 24  1  0
 29 30  2  0
 30 31  1  0
 32 31  2  0
 33 32  1  0
 34  8  1  0
 34 35  1  0
 34 44  1  0
 35 38  1  0
 36 40  1  0
 36 35  1  0
 37 36  2  0
 40 39  1  0
 42 40  1  0
 42 43  1  0
 42 41  1  0
 44 47  1  1
 44 45  1  0
 46 44  1  0
 48  1  1  0
 48 57  1  0
 49 56  2  0
 49 50  1  0
 51 49  1  0
 53 54  1  0
 54 52  1  0
 54 50  1  0
 55 51  1  0
 55 57  1  0
 55 52  1  0
 57 53  1  0
 57 58  1  6
 59 56  1  0
 60 65  1  0
 61 62  1  0
 61 60  1  0
 63 62  1  0
 63 70  1  0
 63 64  1  0
 65 59  1  0
 65 64  1  0
 66 59  2  0
 67 68  2  0
 68 87  1  0
 69 68  1  0
 69 72  1  0
 70 71  1  0
 70 67  1  0
 71 69  2  0
 72 73  1  0
 73 74  2  0
 75 78  1  0
 75 74  1  0
 76 75  2  0
 77 76  1  0
 77 72  2  0
 78 79  1  0
 79 84  2  0
 79 80  1  0
 80 81  2  0
 81 82  1  0
 82 86  1  0
 83 82  2  0
 84 83  1  0
 85 84  1  0
 87 88  1  0
 88 91  1  0
 88 90  1  0
 89 87  2  0
 92 93  1  0
 92 67  1  0
 94 92  1  0
M  ISO  4   6 101   7 101  56 100  59 100
M  END
>  <TORSDO>  (42) 
F 23

>  <SCORE>  (42) 
-10.165

>  <name>  (42) 
41

>  <ligand_id>  (42) 
41

>  <original_smiles>  (42) 
[H]c1c([H])c([H])c2c(c1[H])C([H])([H])C([H])([H])C([H])([H])C2([H])N([H])C(=O)C1([H])N(C(=O)C([H])(N([H])C(=O)C([H])(N([H])C([H])([H])[H])C([H])([H])[H])C(C([H])([H])[H])(C([H])([H])[H])C([H])([H])[H])C([H])([H])c2c([H])c(OC([H])([H])C([H])([H])C([H])([H])C([H])([H])C([H])([H])C([H])([H])C([H])([H])[N+]3([H])C([H])([H])C4([H])C([H])([H])C(=NC(=O)N5C([H])([H])C([H])([H])C([H])([H])C([H])(n6nc(-c7c([H])c([H])c(Oc8c([H])c([H])c(F)c([H])c8F)c([H])c7[H])c(C(=O)N([H])[H])c6N([H])[H])C5([H])[H])C([H])([H])C3([H])C4([H])[H])c([H])c([H])c2C1([H])[H]

>  <smiles>  (42) 
[H]c1c([H])c([H])c2c(c1[H])C([H])([H])C([H])([H])C([H])([H])C2([H])N([H])C(=O)C1([H])N(C(=O)C([H])(N([H])C(=O)C([H])(N([H])C([H])([H])[H])C([H])([H])[H])C(C([H])([H])[H])(C([H])([H])[H])C([H])([H])[H])C([H])([H])c2c([H])c(OC([H])([H])C([H])([H])C([H])([H])C([H])([H])C([H])([H])C([H])([H])C([H])([H])[N+]3([H])C([H])([H])C4([H])C([H])([H])C(=NC(=O)N5C([H])([H])C([H])([H])C([H])([H])C([H])(n6nc(-c7c([H])c([H])c(Oc8c([H])c([H])c(F)c([H])c8F)c([H])c7[H])c(C(=O)N([H])[H])c6N([H])[H])C5([H])[H])C([H])([H])C3([H])C4([H])[H])c([H])c([H])c2C1([H])[H]

$$$$
42:0:0
     RDKit          3D

 98106  0  0  1  0  0  0  0  0999 V2000
  -27.5910  -23.7120   20.0870 C   0  0  0  0  0  0  0  0  0  0  0  0
  -29.7690  -24.3480   21.0540 C   0  0  0  0  0  2  0  0  0  0  0  0
  -30.1530  -22.8480   20.6280 C   0  0  0  0  0  2  0  0  0  0  0  0
  -27.7130  -22.3280   20.8640 C   0  0  0  0  0  3  0  0  0  0  0  0
  -28.3250  -24.9320   20.7560 C   0  0  0  0  0  3  0  0  0  0  0  0
  -29.1630  -21.6680   20.9910 C   0  0  0  0  0  3  0  0  0  0  0  0
  -27.0030  -23.7900   19.0050 O   0  0  0  0  0  0  0  0  0  0  0  0
  -28.3190  -26.3220   20.1190 O   0  0  0  0  0  0  0  0  0  0  0  0
  -24.6360  -31.8540   23.1930 C   0  0  0  0  0  0  0  0  0  0  0  0
  -27.2130  -27.2140   20.1610 C   0  0  0  0  0  0  0  0  0  0  0  0
  -23.4330  -30.4780   21.5380 C   0  0  0  0  0  3  0  0  0  0  0  0
  -24.8800  -28.9090   20.1240 C   0  0  0  0  0  0  0  0  0  0  0  0
  -25.9820  -30.7540   21.3800 C   0  0  0  0  0  2  0  0  0  0  0  0
  -26.0530  -29.3670   20.7340 C   0  0  0  0  0  0  0  0  0  0  0  0
  -27.2260  -28.5360   20.7350 C   0  0  0  0  0  3  0  0  0  0  0  0
  -26.0170  -26.8370   19.5170 C   0  0  0  0  0  3  0  0  0  0  0  0
  -24.8680  -27.6520   19.5030 C   0  0  0  0  0  3  0  0  0  0  0  0
  -23.6560  -29.8070   20.1590 C   0  0  0  0  0  2  0  0  0  0  0  0
  -24.7020  -31.0500   22.0920 N   0  0  0  0  0  0  0  0  0  0  0  0
  -23.5510  -32.1370   23.7210 O   0  0  0  0  0  0  0  0  0  0  0  0
  -22.7500  -29.4630   22.4890 C   0  0  0  0  0  0  0  0  0  0  0  0
  -21.4210  -29.3090   22.3650 N   0  0  0  0  0  0  0  0  0  0  0  0
  -23.4190  -28.8180   23.3010 O   0  0  0  0  0  0  0  0  0  0  0  0
  -20.9380  -29.8840   21.6890 H   0  0  0  0  0  0  0  0  0  0  0  0
  -18.0280  -28.1370   22.8500 C   0  0  0  0  0  0  0  0  0  0  0  0
  -20.5910  -28.3730   23.1260 C   0  0  0  0  0  3  0  0  0  0  0  0
  -20.6790  -26.9430   22.5430 C   0  0  0  0  0  2  0  0  0  0  0  0
  -19.5740  -26.6380   21.5250 C   0  0  0  0  0  2  0  0  0  0  0  0
  -18.1930  -26.7910   22.1660 C   0  0  0  0  0  2  0  0  0  0  0  0
  -19.1550  -28.8860   23.2870 C   0  0  0  0  0  0  0  0  0  0  0  0
  -18.9470  -30.1470   23.8870 C   0  0  0  0  0  3  0  0  0  0  0  0
  -17.6460  -30.6580   24.0550 C   0  0  0  0  0  3  0  0  0  0  0  0
  -16.5350  -29.9070   23.6330 C   0  0  0  0  0  3  0  0  0  0  0  0
  -16.7280  -28.6480   23.0360 C   0  0  0  0  0  3  0  0  0  0  0  0
  -25.9170  -32.4740   23.8310 C   0  0  0  0  0  3  0  0  0  0  0  0
  -26.4520  -31.6550   25.0700 C   0  0  1  0  0  0  0  0  0  0  0  0
  -25.3730  -31.3710   26.1420 C   0  0  0  0  0  1  0  0  0  0  0  0
  -27.0390  -30.2960   24.6230 C   0  0  0  0  0  1  0  0  0  0  0  0
  -27.6050  -32.4300   25.7490 C   0  0  0  0  0  1  0  0  0  0  0  0
  -25.5920  -33.8540   24.2240 N   0  0  0  0  0  0  0  0  0  0  0  0
  -25.9060  -34.9430   23.5090 C   0  0  0  0  0  0  0  0  0  0  0  0
  -26.5640  -34.8910   22.4670 O   0  0  0  0  0  0  0  0  0  0  0  0
  -25.0020  -33.9660   25.0350 H   0  0  0  0  0  0  0  0  0  0  0  0
  -24.1490  -36.7290   23.2640 C   0  0  0  0  0  1  0  0  0  0  0  0
  -25.4110  -36.3060   24.0330 C   0  0  0  0  0  3  0  0  0  0  0  0
  -27.5580  -37.1800   24.8460 C   0  0  0  0  0  1  0  0  0  0  0  0
  -26.4290  -37.3770   23.9410 N   0  0  0  0  0  0  0  0  0  0  0  0
  -26.0170  -38.2850   24.1380 H   0  0  0  0  0  0  0  0  0  0  0  0
  -26.5670  -21.3200   20.6130 C   0  0  0  0  0  2  0  0  0  0  0  0
  -26.1480  -20.5350   21.8780 C   0  0  0  0  0  2  0  0  0  0  0  0
  -25.3680  -21.3850   22.9070 C   0  0  0  0  0  2  0  0  0  0  0  0
  -24.8010  -20.5630   24.0790 C   0  0  0  0  0  2  0  0  0  0  0  0
  -23.9620  -21.4260   25.0460 C   0  0  0  0  0  2  0  0  0  0  0  0
  -23.3350  -20.6320   26.1170 N   0  0  0  0  0  4  0  0  0  0  0  0
  -22.7140  -19.9410   25.7360 H   0  0  0  0  0  0  0  0  0  0  0  0
  -22.8010  -21.2310   26.7210 H   0  0  0  0  0  0  0  0  0  0  0  0
  -24.0310  -20.1720   26.6750 H   0  0  0  0  0  0  0  0  0  0  0  0
  -29.5530  -20.2190   20.2910 C   0  0  0  0  0  2  0  0  0  0  0  0
  -29.3230  -18.7230   20.9280 C   0  0  0  0  0  3  0  0  0  0  0  0
  -30.1050  -17.4160   20.2980 C   0  0  0  0  0  3  0  0  0  0  0  0
  -30.5840  -14.7970   20.4670 C   0  0  0  0  0  0  0  0  0  0  0  0
  -30.4330  -12.4900   19.4980 C   0  0  0  0  0  2  0  0  0  0  0  0
  -29.5190  -12.5210   18.2510 C   0  0  0  0  0  2  0  0  0  0  0  0
  -28.0440  -12.3300   18.6550 C   0  0  0  0  0  2  0  0  0  0  0  0
  -27.6350  -13.2380   19.8470 C   0  0  0  0  0  3  0  0  0  0  0  0
  -28.6710  -13.1930   20.9920 C   0  0  0  0  0  2  0  0  0  0  0  0
  -29.9740  -13.5570   20.4220 N   0  0  0  0  0  0  0  0  0  0  0  0
  -31.7650  -14.8930   20.1170 O   0  0  0  0  0  0  0  0  0  0  0  0
  -29.8130  -15.9440   20.6890 N   0  0  0  0  0  0  0  0  0  0  0  0
  -28.8630  -15.7580   20.9730 H   0  0  0  0  0  0  0  0  0  0  0  0
  -25.2430  -13.8210   20.5640 C   0  0  0  0  0  0  0  0  0  0  0  0
  -24.1750  -13.0430   20.9180 C   0  0  0  0  0  0  0  0  0  0  0  0
  -24.6360  -11.6910   20.8710 C   0  0  0  0  0  0  0  0  0  0  0  0
  -26.2850  -12.9430   20.3200 N   0  0  0  0  0  0  0  0  0  0  0  0
  -25.9280  -11.6550   20.5690 N   0  0  0  0  0  0  0  0  0  0  0  0
  -23.9040  -10.4290   21.0390 C   0  0  0  0  0  0  0  0  0  0  0  0
  -24.3620   -9.4210   21.9160 C   0  0  0  0  0  3  0  0  0  0  0  0
  -23.6300   -8.2250   22.0730 C   0  0  0  0  0  3  0  0  0  0  0  0
  -22.4270   -8.0280   21.3550 C   0  0  0  0  0  0  0  0  0  0  0  0
  -21.9900   -9.0240   20.4630 C   0  0  0  0  0  3  0  0  0  0  0  0
  -22.7220  -10.2120   20.3030 C   0  0  0  0  0  3  0  0  0  0  0  0
  -21.6640   -6.8890   21.4250 O   0  0  0  0  0  0  0  0  0  0  0  0
  -21.6860   -6.0730   22.5280 C   0  0  0  0  0  0  0  0  0  0  0  0
  -21.4010   -6.5630   23.8210 C   0  0  0  0  0  3  0  0  0  0  0  0
  -21.3660   -5.6790   24.9180 C   0  0  0  0  0  3  0  0  0  0  0  0
  -21.6050   -4.3050   24.7230 C   0  0  0  0  0  0  0  0  0  0  0  0
  -21.8820   -3.8130   23.4350 C   0  0  0  0  0  3  0  0  0  0  0  0
  -21.9190   -4.6960   22.3410 C   0  0  0  0  0  0  0  0  0  0  0  0
  -22.1660   -4.2130   21.0990 F   0  0  0  0  0  0  0  0  0  0  0  0
  -21.5650   -3.4540   25.7750 F   0  0  0  0  0  0  0  0  0  0  0  0
  -22.7770  -13.5170   21.1890 C   0  0  0  0  0  0  0  0  0  0  0  0
  -22.0460  -12.8140   22.0470 N   0  0  0  0  0  0  0  0  0  0  0  0
  -22.3440  -14.5490   20.6760 O   0  0  0  0  0  0  0  0  0  0  0  0
  -22.4110  -11.9800   22.4850 H   0  0  0  0  0  0  0  0  0  0  0  0
  -21.1040  -13.1080   22.2680 H   0  0  0  0  0  0  0  0  0  0  0  0
  -25.4110  -15.1940   20.4070 N   0  0  0  0  0  0  0  0  0  0  0  0
  -24.6400  -15.8440   20.5170 H   0  0  0  0  0  0  0  0  0  0  0  0
  -26.2600  -15.6390   20.0850 H   0  0  0  0  0  0  0  0  0  0  0  0
  1  5  1  0
  1  4  1  0
  3  6  1  0
  3  2  1  0
  4 49  1  0
  4  6  1  0
  5  8  1  0
  5  2  1  0
  6 58  1  0
  7  1  2  0
  8 10  1  0
  9 20  2  0
 10 15  1  0
 11 19  1  0
 11 21  1  0
 12 18  1  0
 12 14  1  0
 13 19  1  0
 14 15  2  0
 14 13  1  0
 16 10  2  0
 17 16  1  0
 17 12  2  0
 18 11  1  0
 19  9  1  0
 21 23  2  0
 22 21  1  0
 24 22  1  0
 25 34  2  0
 25 30  1  0
 26 22  1  0
 26 30  1  0
 27 26  1  0
 28 29  1  0
 28 27  1  0
 29 25  1  0
 30 31  2  0
 31 32  1  0
 33 32  2  0
 34 33  1  0
 35  9  1  0
 35 40  1  0
 35 36  1  0
 36 39  1  1
 36 37  1  0
 38 36  1  0
 40 43  1  0
 41 45  1  0
 41 40  1  0
 42 41  2  0
 45 44  1  0
 47 45  1  0
 47 48  1  0
 47 46  1  0
 49 50  1  0
 50 51  1  0
 51 52  1  0
 52 53  1  0
 53 54  1  0
 54 57  1  0
 54 56  1  0
 55 54  1  0
 58 59  1  0
 60 69  1  0
 60 59  2  0
 61 69  1  0
 62 67  1  0
 63 64  1  0
 63 62  1  0
 65 64  1  0
 65 74  1  0
 65 66  1  0
 67 61  1  0
 67 66  1  0
 68 61  2  0
 69 70  1  0
 71 72  2  0
 72 91  1  0
 73 72  1  0
 73 76  1  0
 74 71  1  0
 74 75  1  0
 75 73  2  0
 76 77  1  0
 77 78  2  0
 79 82  1  0
 79 78  1  0
 80 79  2  0
 81 80  1  0
 81 76  2  0
 82 83  1  0
 83 84  1  0
 84 85  2  0
 86 85  1  0
 86 90  1  0
 87 86  2  0
 88 83  2  0
 88 87  1  0
 89 88  1  0
 91 92  1  0
 92 95  1  0
 92 94  1  0
 93 91  2  0
 96 97  1  0
 96 71  1  0
 98 96  1  0
M  ISO  4   5 101   8 101  61 100  69 100
M  END
>  <TORSDO>  (43) 
F 25

>  <SCORE>  (43) 
20.371

>  <name>  (43) 
42

>  <ligand_id>  (43) 
42

>  <original_smiles>  (43) 
[H]c1c([H])c([H])c2c(c1[H])C([H])([H])C([H])([H])C([H])([H])C2([H])N([H])C(=O)C1([H])N(C(=O)C([H])(N([H])C(=O)C([H])(N([H])C([H])([H])[H])C([H])([H])[H])C(C([H])([H])[H])(C([H])([H])[H])C([H])([H])[H])C([H])([H])c2c([H])c(OC3([H])C(=O)C([H])(C([H])([H])C([H])([H])C([H])([H])C([H])([H])C([H])([H])[N+]([H])([H])[H])C([H])(C([H])([H])C([H])([H])C([H])([H])N([H])C(=O)N4C([H])([H])C([H])([H])C([H])([H])C([H])(n5nc(-c6c([H])c([H])c(Oc7c([H])c([H])c(F)c([H])c7F)c([H])c6[H])c(C(=O)N([H])[H])c5N([H])[H])C4([H])[H])C([H])([H])C3([H])[H])c([H])c([H])c2C1([H])[H]

>  <smiles>  (43) 
[H]c1c([H])c([H])c2c(c1[H])C([H])([H])C([H])([H])C([H])([H])C2([H])N([H])C(=O)C1([H])N(C(=O)C([H])(N([H])C(=O)C([H])(N([H])C([H])([H])[H])C([H])([H])[H])C(C([H])([H])[H])(C([H])([H])[H])C([H])([H])[H])C([H])([H])c2c([H])c(OC3([H])C(=O)C([H])(C([H])([H])C([H])([H])C([H])([H])C([H])([H])C([H])([H])[N+]([H])([H])[H])C([H])(C([H])([H])C([H])([H])C([H])([H])N([H])C(=O)N4C([H])([H])C([H])([H])C([H])([H])C([H])(n5nc(-c6c([H])c([H])c(Oc7c([H])c([H])c(F)c([H])c7F)c([H])c6[H])c(C(=O)N([H])[H])c5N([H])[H])C4([H])[H])C([H])([H])C3([H])[H])c([H])c([H])c2C1([H])[H]

$$$$
43:0:0
     RDKit          3D

 94105  0  0  1  0  0  0  0  0999 V2000
  -28.2530  -21.3140   19.8590 C   0  0  0  0  0  2  0  0  0  0  0  0
  -30.6450  -22.4430   24.2930 C   0  0  0  0  0  2  0  0  0  0  0  0
  -29.0930  -20.2800   20.3550 C   0  0  0  0  0  3  0  0  0  0  0  0
  -29.8030  -23.6110   23.8960 C   0  0  0  0  0  2  0  0  0  0  0  0
  -30.1250  -23.0370   19.4560 C   0  0  0  0  0  3  0  0  0  0  0  0
  -30.9920  -21.9440   20.1670 C   0  0  0  0  0  3  0  0  0  0  0  0
  -28.1210  -23.9310   21.9900 C   0  0  0  0  0  2  0  0  0  0  0  0
  -28.5840  -22.9410   19.6560 C   0  0  0  0  0  3  0  0  0  0  0  0
  -30.2340  -20.9690   21.1120 C   0  0  0  0  0  3  0  0  0  0  0  0
  -29.4970  -23.3030   22.4310 C   0  0  0  0  0  3  0  0  0  0  0  0
  -29.7060  -21.7220   22.4070 C   0  0  0  0  0  3  0  0  0  0  0  0
  -27.9140  -24.2940   20.4850 C   0  0  0  0  0  3  0  0  0  0  0  0
  -30.6220  -21.4510   23.5060 N   0  0  0  0  0  2  0  0  0  0  0  0
  -30.3570  -15.0720   20.1360 C   0  0  0  0  0  0  0  0  0  0  0  0
  -30.2560  -12.6960   19.1550 C   0  0  0  0  0  2  0  0  0  0  0  0
  -29.2770  -12.5860   17.9620 C   0  0  0  0  0  2  0  0  0  0  0  0
  -27.8480  -12.3070   18.4620 C   0  0  0  0  0  2  0  0  0  0  0  0
  -27.4590  -13.2110   19.6600 C   0  0  0  0  0  3  0  0  0  0  0  0
  -28.5620  -13.2930   20.7350 C   0  0  0  0  0  2  0  0  0  0  0  0
  -29.7670  -13.7920   20.0580 N   0  0  0  0  0  0  0  0  0  0  0  0
  -31.5610  -15.0890   19.8490 O   0  0  0  0  0  0  0  0  0  0  0  0
  -29.7350  -17.5630   19.3020 C   0  0  0  0  0  2  0  0  0  0  0  0
  -29.6160  -17.4610   21.2760 C   0  0  0  0  0  2  0  0  0  0  0  0
  -28.9610  -18.5620   20.2960 C   0  0  0  0  0  3  0  0  0  0  0  0
  -29.6000  -16.3290   20.2220 N   0  0  0  0  0  0  0  0  0  0  0  0
  -25.1150  -13.7160   20.5340 C   0  0  0  0  0  0  0  0  0  0  0  0
  -24.0810  -12.9140   20.9280 C   0  0  0  0  0  0  0  0  0  0  0  0
  -24.5670  -11.5720   20.8430 C   0  0  0  0  0  0  0  0  0  0  0  0
  -26.1590  -12.8640   20.2200 N   0  0  0  0  0  0  0  0  0  0  0  0
  -25.8440  -11.5670   20.4750 N   0  0  0  0  0  0  0  0  0  0  0  0
  -23.8670  -10.2940   21.0360 C   0  0  0  0  0  0  0  0  0  0  0  0
  -24.3350   -9.3250   21.9520 C   0  0  0  0  0  3  0  0  0  0  0  0
  -23.6340   -8.1140   22.1320 C   0  0  0  0  0  3  0  0  0  0  0  0
  -22.4500   -7.8620   21.3990 C   0  0  0  0  0  0  0  0  0  0  0  0
  -22.0010   -8.8190   20.4730 C   0  0  0  0  0  3  0  0  0  0  0  0
  -22.7040  -10.0220   20.2890 C   0  0  0  0  0  3  0  0  0  0  0  0
  -21.7180   -6.7020   21.4900 O   0  0  0  0  0  0  0  0  0  0  0  0
  -21.6810   -5.9630   22.6450 C   0  0  0  0  0  0  0  0  0  0  0  0
  -21.2210   -6.5080   23.8640 C   0  0  0  0  0  3  0  0  0  0  0  0
  -21.1340   -5.6930   25.0100 C   0  0  0  0  0  3  0  0  0  0  0  0
  -21.4960   -4.3350   24.9390 C   0  0  0  0  0  0  0  0  0  0  0  0
  -21.9490   -3.7890   23.7250 C   0  0  0  0  0  3  0  0  0  0  0  0
  -22.0390   -4.6010   22.5810 C   0  0  0  0  0  0  0  0  0  0  0  0
  -22.4560   -4.0650   21.4080 F   0  0  0  0  0  0  0  0  0  0  0  0
  -21.4050   -3.5500   26.0380 F   0  0  0  0  0  0  0  0  0  0  0  0
  -22.6910  -13.3630   21.2690 C   0  0  0  0  0  0  0  0  0  0  0  0
  -22.0150  -12.6450   22.1580 N   0  0  0  0  0  0  0  0  0  0  0  0
  -22.2120  -14.3860   20.7800 O   0  0  0  0  0  0  0  0  0  0  0  0
  -22.4170  -11.8190   22.5770 H   0  0  0  0  0  0  0  0  0  0  0  0
  -21.0830  -12.9280   22.4270 H   0  0  0  0  0  0  0  0  0  0  0  0
  -25.2520  -15.0940   20.3870 N   0  0  0  0  0  0  0  0  0  0  0  0
  -24.4880  -15.7380   20.5570 H   0  0  0  0  0  0  0  0  0  0  0  0
  -26.0960  -15.5540   20.0680 H   0  0  0  0  0  0  0  0  0  0  0  0
  -28.1250  -25.8880   20.2770 O   0  0  0  0  0  0  0  0  0  0  0  0
  -24.6380  -31.8640   23.1940 C   0  0  0  0  0  0  0  0  0  0  0  0
  -27.0940  -26.9410   20.2630 C   0  0  0  0  0  0  0  0  0  0  0  0
  -23.4070  -30.4630   21.5860 C   0  0  0  0  0  3  0  0  0  0  0  0
  -24.8160  -28.8080   20.1950 C   0  0  0  0  0  0  0  0  0  0  0  0
  -25.9720  -30.6410   21.4180 C   0  0  0  0  0  2  0  0  0  0  0  0
  -26.0130  -29.2230   20.7920 C   0  0  0  0  0  0  0  0  0  0  0  0
  -27.1520  -28.3100   20.7980 C   0  0  0  0  0  3  0  0  0  0  0  0
  -25.8690  -26.6540   19.6250 C   0  0  0  0  0  3  0  0  0  0  0  0
  -24.7640  -27.5410   19.5920 C   0  0  0  0  0  3  0  0  0  0  0  0
  -23.6140  -29.7480   20.2230 C   0  0  0  0  0  2  0  0  0  0  0  0
  -24.6940  -31.0150   22.1190 N   0  0  0  0  0  0  0  0  0  0  0  0
  -23.5580  -32.1840   23.7170 O   0  0  0  0  0  0  0  0  0  0  0  0
  -22.7010  -29.4960   22.5720 C   0  0  0  0  0  0  0  0  0  0  0  0
  -21.3700  -29.3450   22.4470 N   0  0  0  0  0  0  0  0  0  0  0  0
  -23.3570  -28.8830   23.4180 O   0  0  0  0  0  0  0  0  0  0  0  0
  -20.8950  -29.8870   21.7380 H   0  0  0  0  0  0  0  0  0  0  0  0
  -17.9700  -28.2070   22.9790 C   0  0  0  0  0  0  0  0  0  0  0  0
  -20.5330  -28.4390   23.2390 C   0  0  0  0  0  3  0  0  0  0  0  0
  -20.6120  -26.9930   22.6970 C   0  0  0  0  0  2  0  0  0  0  0  0
  -19.5060  -26.6650   21.6880 C   0  0  0  0  0  2  0  0  0  0  0  0
  -18.1260  -26.8430   22.3280 C   0  0  0  0  0  2  0  0  0  0  0  0
  -19.0980  -28.9630   23.3920 C   0  0  0  0  0  0  0  0  0  0  0  0
  -18.8960  -30.2370   23.9640 C   0  0  0  0  0  3  0  0  0  0  0  0
  -17.5970  -30.7560   24.1240 C   0  0  0  0  0  3  0  0  0  0  0  0
  -16.4830  -29.9980   23.7260 C   0  0  0  0  0  3  0  0  0  0  0  0
  -16.6700  -28.7260   23.1590 C   0  0  0  0  0  3  0  0  0  0  0  0
  -25.9260  -32.4900   23.8080 C   0  0  0  0  0  3  0  0  0  0  0  0
  -25.6240  -33.8860   24.1680 N   0  0  0  0  0  0  0  0  0  0  0  0
  -25.9270  -34.9540   23.4170 C   0  0  0  0  0  0  0  0  0  0  0  0
  -26.5560  -34.8680   22.3590 O   0  0  0  0  0  0  0  0  0  0  0  0
  -25.0580  -34.0250   24.9920 H   0  0  0  0  0  0  0  0  0  0  0  0
  -24.1840  -36.7550   23.1710 C   0  0  0  0  0  1  0  0  0  0  0  0
  -25.4610  -36.3360   23.9180 C   0  0  0  0  0  3  0  0  0  0  0  0
  -27.6290  -37.2160   24.6690 C   0  0  0  0  0  1  0  0  0  0  0  0
  -26.4870  -37.3940   23.7750 N   0  0  0  0  0  0  0  0  0  0  0  0
  -26.0860  -38.3110   23.9530 H   0  0  0  0  0  0  0  0  0  0  0  0
  -26.4530  -31.7050   25.0740 C   0  0  1  0  0  0  0  0  0  0  0  0
  -25.3710  -31.4650   26.1540 C   0  0  0  0  0  1  0  0  0  0  0  0
  -27.0240  -30.3270   24.6710 C   0  0  0  0  0  1  0  0  0  0  0  0
  -27.6160  -32.4880   25.7300 C   0  0  0  0  0  1  0  0  0  0  0  0
  3  1  1  0
  3  9  1  0
  4  2  1  0
  5  6  2  0
  8  5  1  0
  8  1  1  0
  8 12  1  0
  9  6  1  0
  9 11  1  0
 10  7  1  0
 10  4  1  0
 11 10  1  0
 11 13  1  0
 12 54  1  0
 12  7  1  0
 13  2  1  0
 14 25  1  0
 15 20  1  0
 16 17  1  0
 16 15  1  0
 18 17  1  0
 18 29  1  0
 18 19  1  0
 20 14  1  0
 20 19  1  0
 21 14  2  0
 22 25  1  0
 24 22  1  0
 24  3  1  0
 24 23  1  0
 25 23  1  0
 26 27  2  0
 27 46  1  0
 28 27  1  0
 28 31  1  0
 29 30  1  0
 29 26  1  0
 30 28  2  0
 31 32  1  0
 32 33  2  0
 34 37  1  0
 34 33  1  0
 35 34  2  0
 36 35  1  0
 36 31  2  0
 37 38  1  0
 38 39  1  0
 39 40  2  0
 41 40  1  0
 41 45  1  0
 42 41  2  0
 43 38  2  0
 43 42  1  0
 44 43  1  0
 46 47  1  0
 47 50  1  0
 47 49  1  0
 48 46  2  0
 51 26  1  0
 51 52  1  0
 53 51  1  0
 55 66  2  0
 56 54  1  0
 56 61  1  0
 57 65  1  0
 57 67  1  0
 58 64  1  0
 58 60  1  0
 59 65  1  0
 60 61  2  0
 60 59  1  0
 62 56  2  0
 63 62  1  0
 63 58  2  0
 64 57  1  0
 65 55  1  0
 67 69  2  0
 68 67  1  0
 70 68  1  0
 71 80  2  0
 71 76  1  0
 72 68  1  0
 72 76  1  0
 73 72  1  0
 74 75  1  0
 74 73  1  0
 75 71  1  0
 76 77  2  0
 77 78  1  0
 79 78  2  0
 80 79  1  0
 81 55  1  0
 81 82  1  0
 81 91  1  0
 82 85  1  0
 83 87  1  0
 83 82  1  0
 84 83  2  0
 87 86  1  0
 89 87  1  0
 89 90  1  0
 89 88  1  0
 91 94  1  1
 91 92  1  0
 93 91  1  0
M  ISO  4  12 101  14 100  25 100  54 101
M  END
>  <TORSDO>  (44) 
F 16

>  <SCORE>  (44) 
-16.063

>  <name>  (44) 
43

>  <ligand_id>  (44) 
43

>  <original_smiles>  (44) 
[H]C1=NC2([H])C3([H])C(C4([H])C([H])([H])N(C(=O)N5C([H])([H])C([H])([H])C([H])([H])C([H])(n6nc(-c7c([H])c([H])c(Oc8c([H])c([H])c(F)c([H])c8F)c([H])c7[H])c(C(=O)N([H])[H])c6N([H])[H])C5([H])[H])C4([H])[H])=C([H])C([H])(C([H])([H])C3([H])[H])C([H])(Oc3c([H])c([H])c4c(c3[H])C([H])([H])N(C(=O)C([H])(N([H])C(=O)C([H])(N([H])C([H])([H])[H])C([H])([H])[H])C(C([H])([H])[H])(C([H])([H])[H])C([H])([H])[H])C([H])(C(=O)N([H])C3([H])c5c([H])c([H])c([H])c([H])c5C([H])([H])C([H])([H])C3([H])[H])C4([H])[H])C([H])([H])C2([H])C1([H])[H]

>  <smiles>  (44) 
[H]C1=NC2([H])C3([H])C(C4([H])C([H])([H])N(C(=O)N5C([H])([H])C([H])([H])C([H])([H])C([H])(n6nc(-c7c([H])c([H])c(Oc8c([H])c([H])c(F)c([H])c8F)c([H])c7[H])c(C(=O)N([H])[H])c6N([H])[H])C5([H])[H])C4([H])[H])=C([H])C([H])(C([H])([H])C3([H])[H])C([H])(Oc3c([H])c([H])c4c(c3[H])C([H])([H])N(C(=O)C([H])(N([H])C(=O)C([H])(N([H])C([H])([H])[H])C([H])([H])[H])C(C([H])([H])[H])(C([H])([H])[H])C([H])([H])[H])C([H])(C(=O)N([H])C3([H])c5c([H])c([H])c([H])c([H])c5C([H])([H])C([H])([H])C3([H])[H])C4([H])[H])C([H])([H])C2([H])C1([H])[H]

$$$$
44:0:0
     RDKit          3D

 95103  0  0  1  0  0  0  0  0999 V2000
  -26.8330  -19.2430   19.2630 C   0  0  0  0  0  3  0  0  0  0  0  0
  -28.9290  -18.8030   20.1430 C   0  0  0  0  0  3  0  0  0  0  0  0
  -26.8990  -20.6300   19.7880 C   0  0  0  0  0  3  0  0  0  0  0  0
  -29.0020  -20.1820   20.6340 C   0  0  0  0  0  3  0  0  0  0  0  0
  -27.8620  -18.2000   19.3760 C   0  0  0  0  0  0  0  0  0  0  0  0
  -28.0180  -21.2380   20.4800 C   0  0  0  0  0  0  0  0  0  0  0  0
  -28.0430  -16.7660   18.5300 C   0  0  0  0  0  0  0  0  0  0  0  0
  -28.2450  -16.9710   17.2980 N   0  0  0  0  0  0  0  0  0  0  0  0
  -28.2020  -17.9610   17.0880 H   0  0  0  0  0  0  0  0  0  0  0  0
  -27.9310  -15.0640   18.7730 C   0  0  0  0  0  2  0  0  0  0  0  0
  -28.7750  -13.6880   18.0680 C   0  0  0  0  0  2  0  0  0  0  0  0
  -29.2670  -12.0760   18.5920 C   0  0  0  0  0  2  0  0  0  0  0  0
  -30.6670  -11.2180   19.2890 C   0  0  0  0  0  2  0  0  0  0  0  0
  -31.2940  -10.6040   20.7940 C   0  0  0  0  0  2  0  0  0  0  0  0
  -33.2690  -12.0040   22.1980 C   0  0  0  0  0  0  0  0  0  0  0  0
  -33.2130  -12.8860   20.3440 C   0  0  0  0  0  2  0  0  0  0  0  0
  -32.3010  -13.3510   19.3030 C   0  0  0  0  0  2  0  0  0  0  0  0
  -31.1620  -14.0180   20.0270 C   0  0  0  0  0  2  0  0  0  0  0  0
  -30.3410  -13.5270   21.2540 C   0  0  0  0  0  3  0  0  0  0  0  0
  -31.2200  -12.9820   22.3090 C   0  0  0  0  0  2  0  0  0  0  0  0
  -32.5720  -12.8550   21.7150 N   0  0  0  0  0  0  0  0  0  0  0  0
  -34.4230  -12.3640   22.5320 O   0  0  0  0  0  0  0  0  0  0  0  0
  -32.6500  -10.8240   21.6790 N   0  0  0  0  0  0  0  0  0  0  0  0
  -33.0900   -9.9660   21.9750 H   0  0  0  0  0  0  0  0  0  0  0  0
  -27.8720  -14.1420   21.3730 C   0  0  0  0  0  0  0  0  0  0  0  0
  -26.6930  -13.4810   21.3710 C   0  0  0  0  0  0  0  0  0  0  0  0
  -27.0110  -12.0850   21.3950 C   0  0  0  0  0  0  0  0  0  0  0  0
  -28.8860  -13.2110   21.3070 N   0  0  0  0  0  0  0  0  0  0  0  0
  -28.3490  -11.9490   21.4550 N   0  0  0  0  0  0  0  0  0  0  0  0
  -26.0850  -10.9230   21.3590 C   0  0  0  0  0  0  0  0  0  0  0  0
  -26.1140   -9.9180   22.3600 C   0  0  0  0  0  3  0  0  0  0  0  0
  -25.1860   -8.8580   22.3560 C   0  0  0  0  0  3  0  0  0  0  0  0
  -24.2010   -8.7700   21.3400 C   0  0  0  0  0  0  0  0  0  0  0  0
  -24.1720   -9.7480   20.3350 C   0  0  0  0  0  3  0  0  0  0  0  0
  -25.1100  -10.8070   20.3380 C   0  0  0  0  0  3  0  0  0  0  0  0
  -23.2720   -7.7640   21.2550 O   0  0  0  0  0  0  0  0  0  0  0  0
  -22.7850   -7.1130   22.3640 C   0  0  0  0  0  0  0  0  0  0  0  0
  -22.1000   -7.8060   23.3830 C   0  0  0  0  0  3  0  0  0  0  0  0
  -21.5470   -7.1000   24.4710 C   0  0  0  0  0  3  0  0  0  0  0  0
  -21.6880   -5.7020   24.5530 C   0  0  0  0  0  0  0  0  0  0  0  0
  -22.3720   -5.0100   23.5400 C   0  0  0  0  0  3  0  0  0  0  0  0
  -22.9170   -5.7100   22.4480 C   0  0  0  0  0  0  0  0  0  0  0  0
  -23.5580   -5.0330   21.4630 F   0  0  0  0  0  0  0  0  0  0  0  0
  -21.1550   -5.0230   25.5920 F   0  0  0  0  0  0  0  0  0  0  0  0
  -25.3400  -14.1070   21.3000 C   0  0  0  0  0  0  0  0  0  0  0  0
  -24.3620  -13.5550   21.9970 N   0  0  0  0  0  0  0  0  0  0  0  0
  -25.1500  -15.1370   20.6490 O   0  0  0  0  0  0  0  0  0  0  0  0
  -24.5190  -12.7110   22.5290 H   0  0  0  0  0  0  0  0  0  0  0  0
  -23.4450  -13.9800   22.0170 H   0  0  0  0  0  0  0  0  0  0  0  0
  -28.1490  -15.5100   21.4190 N   0  0  0  0  0  0  0  0  0  0  0  0
  -27.4230  -16.2160   21.3010 H   0  0  0  0  0  0  0  0  0  0  0  0
  -29.0900  -15.8460   21.2740 H   0  0  0  0  0  0  0  0  0  0  0  0
  -28.2120  -22.7820   21.2100 C   0  0  0  0  0  2  0  0  0  0  0  0
  -27.8110  -24.4320   20.8010 C   0  0  0  0  0  2  0  0  0  0  0  0
  -28.4160  -25.9030   21.1950 O   0  0  0  0  0  0  0  0  0  0  0  0
  -25.1380  -32.2430   23.7130 C   0  0  0  0  0  0  0  0  0  0  0  0
  -27.5850  -27.1050   21.0890 C   0  0  0  0  0  0  0  0  0  0  0  0
  -23.9840  -30.7540   22.1470 C   0  0  0  0  0  3  0  0  0  0  0  0
  -25.4320  -29.0590   20.8850 C   0  0  0  0  0  0  0  0  0  0  0  0
  -26.5670  -30.8880   22.0990 C   0  0  0  0  0  2  0  0  0  0  0  0
  -26.6110  -29.4470   21.5310 C   0  0  0  0  0  0  0  0  0  0  0  0
  -27.7070  -28.4760   21.6280 C   0  0  0  0  0  3  0  0  0  0  0  0
  -26.3990  -26.8930   20.3730 C   0  0  0  0  0  3  0  0  0  0  0  0
  -25.3480  -27.8050   20.2990 C   0  0  0  0  0  3  0  0  0  0  0  0
  -24.2450  -30.0080   20.8190 C   0  0  0  0  0  2  0  0  0  0  0  0
  -25.2530  -31.3230   22.7050 N   0  0  0  0  0  0  0  0  0  0  0  0
  -24.0350  -32.5880   24.1640 O   0  0  0  0  0  0  0  0  0  0  0  0
  -23.2520  -29.8200   23.1400 C   0  0  0  0  0  0  0  0  0  0  0  0
  -21.9600  -29.5480   22.8850 N   0  0  0  0  0  0  0  0  0  0  0  0
  -23.8510  -29.3420   24.1060 O   0  0  0  0  0  0  0  0  0  0  0  0
  -21.5350  -29.9800   22.0750 H   0  0  0  0  0  0  0  0  0  0  0  0
  -18.6250  -28.1420   23.1120 C   0  0  0  0  0  0  0  0  0  0  0  0
  -21.0940  -28.6630   23.6740 C   0  0  0  0  0  3  0  0  0  0  0  0
  -21.3730  -27.1760   23.3520 C   0  0  0  0  0  2  0  0  0  0  0  0
  -20.4560  -26.6140   22.2610 C   0  0  0  0  0  2  0  0  0  0  0  0
  -18.9880  -26.7300   22.6830 C   0  0  0  0  0  2  0  0  0  0  0  0
  -19.6160  -29.0530   23.5610 C   0  0  0  0  0  0  0  0  0  0  0  0
  -19.2320  -30.3630   23.9170 C   0  0  0  0  0  3  0  0  0  0  0  0
  -17.8870  -30.7650   23.8310 C   0  0  0  0  0  3  0  0  0  0  0  0
  -16.9070  -29.8530   23.4020 C   0  0  0  0  0  3  0  0  0  0  0  0
  -17.2760  -28.5440   23.0440 C   0  0  0  0  0  3  0  0  0  0  0  0
  -26.3890  -32.9140   24.3460 C   0  0  0  0  0  3  0  0  0  0  0  0
  -26.0900  -34.3450   24.5200 N   0  0  0  0  0  0  0  0  0  0  0  0
  -26.6210  -35.3320   23.7870 C   0  0  0  0  0  0  0  0  0  0  0  0
  -27.4780  -35.1340   22.9220 O   0  0  0  0  0  0  0  0  0  0  0  0
  -25.3540  -34.5770   25.1710 H   0  0  0  0  0  0  0  0  0  0  0  0
  -25.1440  -37.1930   22.9520 C   0  0  0  0  0  1  0  0  0  0  0  0
  -26.1240  -36.7670   24.0550 C   0  0  0  0  0  3  0  0  0  0  0  0
  -28.0630  -37.5690   25.3350 C   0  0  0  0  0  1  0  0  0  0  0  0
  -27.2150  -37.7600   24.1600 N   0  0  0  0  0  0  0  0  0  0  0  0
  -26.8400  -38.7050   24.1920 H   0  0  0  0  0  0  0  0  0  0  0  0
  -26.8020  -32.2750   25.7320 C   0  0  1  0  0  0  0  0  0  0  0  0
  -25.6270  -32.1300   26.7270 C   0  0  0  0  0  1  0  0  0  0  0  0
  -27.4170  -30.8710   25.5360 C   0  0  0  0  0  1  0  0  0  0  0  0
  -27.8930  -33.1440   26.4040 C   0  0  0  0  0  1  0  0  0  0  0  0
  1  5  2  0
  1  3  1  0
  2  4  2  0
  3  6  2  0
  5  2  1  0
  6  4  1  0
  6 53  1  0
  7 10  1  0
  7  5  1  0
  8  7  2  0
  9  8  1  0
 11 12  1  0
 11 10  1  0
 12 13  1  0
 13 14  1  0
 14 23  1  0
 15 22  2  0
 16 21  1  0
 17 18  1  0
 17 16  1  0
 19 18  1  0
 19 28  1  0
 19 20  1  0
 21 15  1  0
 21 20  1  0
 23 24  1  0
 23 15  1  0
 25 50  1  0
 26 25  2  0
 26 27  1  0
 27 29  2  0
 28 25  1  0
 28 29  1  0
 30 27  1  0
 30 31  1  0
 32 31  2  0
 33 32  1  0
 34 35  1  0
 34 33  2  0
 35 30  2  0
 36 33  1  0
 36 37  1  0
 37 42  2  0
 37 38  1  0
 38 39  2  0
 39 40  1  0
 40 44  1  0
 41 40  2  0
 42 41  1  0
 43 42  1  0
 45 26  1  0
 45 46  1  0
 46 49  1  0
 46 48  1  0
 47 45  2  0
 51 50  1  0
 52 50  1  0
 54 55  1  0
 54 53  1  0
 56 67  2  0
 57 55  1  0
 57 62  1  0
 58 66  1  0
 58 68  1  0
 59 61  1  0
 60 66  1  0
 61 62  2  0
 61 60  1  0
 63 57  2  0
 64 63  1  0
 64 59  2  0
 65 59  1  0
 65 58  1  0
 66 56  1  0
 68 70  2  0
 69 68  1  0
 71 69  1  0
 72 77  1  0
 73 69  1  0
 74 73  1  0
 75 76  1  0
 75 74  1  0
 76 72  1  0
 77 73  1  0
 77 78  2  0
 79 78  1  0
 80 79  2  0
 81 72  2  0
 81 80  1  0
 82 56  1  0
 82 83  1  0
 82 92  1  0
 83 86  1  0
 84 88  1  0
 84 83  1  0
 85 84  2  0
 88 87  1  0
 88 90  1  0
 90 91  1  0
 90 89  1  0
 92 95  1  1
 92 93  1  0
 94 92  1  0
M  ISO  4  15 100  23 100  54 101  55 101
M  END
>  <TORSDO>  (45) 
F 24

>  <SCORE>  (45) 
-6.269

>  <name>  (45) 
44

>  <ligand_id>  (45) 
44

>  <original_smiles>  (45) 
[H]N=C(c1c([H])c([H])c(C([H])([H])C([H])([H])Oc2c([H])c([H])c3c(c2[H])C([H])([H])N(C(=O)C([H])(N([H])C(=O)C([H])(N([H])C([H])([H])[H])C([H])([H])[H])C(C([H])([H])[H])(C([H])([H])[H])C([H])([H])[H])C([H])(C(=O)N([H])C2([H])c4c([H])c([H])c([H])c([H])c4C([H])([H])C([H])([H])C2([H])[H])C3([H])[H])c([H])c1[H])C([H])([H])C([H])([H])C([H])([H])C([H])([H])C([H])([H])N([H])C(=O)N1C([H])([H])C([H])([H])C([H])([H])C([H])(n2nc(-c3c([H])c([H])c(Oc4c([H])c([H])c(F)c([H])c4F)c([H])c3[H])c(C(=O)N([H])[H])c2N([H])[H])C1([H])[H]

>  <smiles>  (45) 
[H]N=C(c1c([H])c([H])c(C([H])([H])C([H])([H])Oc2c([H])c([H])c3c(c2[H])C([H])([H])N(C(=O)C([H])(N([H])C(=O)C([H])(N([H])C([H])([H])[H])C([H])([H])[H])C(C([H])([H])[H])(C([H])([H])[H])C([H])([H])[H])C([H])(C(=O)N([H])C2([H])c4c([H])c([H])c([H])c([H])c4C([H])([H])C([H])([H])C2([H])[H])C3([H])[H])c([H])c1[H])C([H])([H])C([H])([H])C([H])([H])C([H])([H])C([H])([H])N([H])C(=O)N1C([H])([H])C([H])([H])C([H])([H])C([H])(n2nc(-c3c([H])c([H])c(Oc4c([H])c([H])c(F)c([H])c4F)c([H])c3[H])c(C(=O)N([H])[H])c2N([H])[H])C1([H])[H]

$$$$
45:0:0
     RDKit          3D

 97105  0  0  1  0  0  0  0  0999 V2000
  -29.7670  -21.8830   22.2830 C   0  0  0  0  0  2  0  0  0  0  0  0
  -30.8420  -20.7980   22.4320 C   0  0  0  0  0  2  0  0  0  0  0  0
  -30.6350  -19.7330   21.4330 N   0  0  0  0  0  4  0  0  0  0  0  0
  -29.6480  -19.6230   21.2520 H   0  0  0  0  0  0  0  0  0  0  0  0
  -31.0640  -20.0080   20.5640 H   0  0  0  0  0  0  0  0  0  0  0  0
  -30.4620  -17.3920   20.9210 C   0  0  0  0  0  0  0  0  0  0  0  0
  -32.7840  -16.8130   20.8880 C   0  0  0  0  0  2  0  0  0  0  0  0
  -32.6570  -18.2090   21.5170 C   0  0  0  0  0  2  0  0  0  0  0  0
  -31.4800  -16.6140   20.0980 C   0  0  0  0  0  3  0  0  0  0  0  0
  -31.1570  -18.4080   21.8150 C   0  0  0  0  0  3  0  0  0  0  0  0
  -29.2420  -17.2090   20.8800 O   0  0  0  0  0  0  0  0  0  0  0  0
  -31.0670  -14.4790   18.9110 C   0  0  0  0  0  0  0  0  0  0  0  0
  -30.5530  -12.2330   18.0480 C   0  0  0  0  0  2  0  0  0  0  0  0
  -29.3680  -12.2320   17.0680 C   0  0  0  0  0  2  0  0  0  0  0  0
  -28.0360  -12.0990   17.8280 C   0  0  0  0  0  2  0  0  0  0  0  0
  -27.9110  -13.1270   18.9820 C   0  0  0  0  0  3  0  0  0  0  0  0
  -29.1800  -13.1180   19.8660 C   0  0  0  0  0  2  0  0  0  0  0  0
  -30.3680  -13.3240   19.0130 N   0  0  0  0  0  0  0  0  0  0  0  0
  -31.7600  -14.7830   17.9330 O   0  0  0  0  0  0  0  0  0  0  0  0
  -31.0780  -15.2120   20.0270 N   0  0  0  0  0  0  0  0  0  0  0  0
  -30.5320  -14.8510   20.7950 H   0  0  0  0  0  0  0  0  0  0  0  0
  -25.8580  -13.8050   20.3880 C   0  0  0  0  0  0  0  0  0  0  0  0
  -24.8400  -13.0710   20.9330 C   0  0  0  0  0  0  0  0  0  0  0  0
  -25.1190  -11.7080   20.6070 C   0  0  0  0  0  0  0  0  0  0  0  0
  -26.7020  -12.8920   19.7720 N   0  0  0  0  0  0  0  0  0  0  0  0
  -26.2700  -11.6170   19.9530 N   0  0  0  0  0  0  0  0  0  0  0  0
  -24.3290  -10.4900   20.8300 C   0  0  0  0  0  0  0  0  0  0  0  0
  -24.7410   -9.4970   21.7470 C   0  0  0  0  0  3  0  0  0  0  0  0
  -23.9530   -8.3450   21.9570 C   0  0  0  0  0  3  0  0  0  0  0  0
  -22.7400   -8.1760   21.2490 C   0  0  0  0  0  0  0  0  0  0  0  0
  -22.3450   -9.1570   20.3220 C   0  0  0  0  0  3  0  0  0  0  0  0
  -23.1320  -10.3000   20.1100 C   0  0  0  0  0  3  0  0  0  0  0  0
  -21.9230   -7.0770   21.3690 O   0  0  0  0  0  0  0  0  0  0  0  0
  -21.6890   -6.4820   22.5830 C   0  0  0  0  0  0  0  0  0  0  0  0
  -21.0930   -7.1840   23.6530 C   0  0  0  0  0  3  0  0  0  0  0  0
  -20.8070   -6.5150   24.8610 C   0  0  0  0  0  3  0  0  0  0  0  0
  -21.1080   -5.1470   24.9960 C   0  0  0  0  0  0  0  0  0  0  0  0
  -21.6990   -4.4460   23.9310 C   0  0  0  0  0  3  0  0  0  0  0  0
  -21.9870   -5.1120   22.7260 C   0  0  0  0  0  0  0  0  0  0  0  0
  -22.5350   -4.4270   21.6940 F   0  0  0  0  0  0  0  0  0  0  0  0
  -20.8280   -4.5030   26.1540 F   0  0  0  0  0  0  0  0  0  0  0  0
  -23.6280  -13.6060   21.6410 C   0  0  0  0  0  0  0  0  0  0  0  0
  -23.1040  -12.8640   22.6090 N   0  0  0  0  0  0  0  0  0  0  0  0
  -23.1650  -14.7130   21.3670 O   0  0  0  0  0  0  0  0  0  0  0  0
  -23.4920  -11.9630   22.8470 H   0  0  0  0  0  0  0  0  0  0  0  0
  -22.3020  -13.2030   23.1220 H   0  0  0  0  0  0  0  0  0  0  0  0
  -26.1310  -15.1700   20.3530 N   0  0  0  0  0  0  0  0  0  0  0  0
  -25.5200  -15.8580   20.7790 H   0  0  0  0  0  0  0  0  0  0  0  0
  -26.9520  -15.5820   19.9260 H   0  0  0  0  0  0  0  0  0  0  0  0
  -30.0990  -23.2120   22.9770 C   0  0  0  0  0  2  0  0  0  0  0  0
  -29.3270  -24.3470   22.2940 C   0  0  0  0  0  2  0  0  0  0  0  0
  -29.6910  -25.7670   22.7490 C   0  0  0  0  0  2  0  0  0  0  0  0
  -30.1790  -26.6760   21.5980 C   0  0  0  0  0  2  0  0  0  0  0  0
  -29.0820  -27.2410   20.6660 C   0  0  0  0  0  2  0  0  0  0  0  0
  -28.3200  -26.2180   19.7960 C   0  0  0  0  0  2  0  0  0  0  0  0
  -28.5580  -26.3250   18.2800 C   0  0  0  0  0  2  0  0  0  0  0  0
  -27.3060  -26.5450   17.6240 O   0  0  0  0  0  0  0  0  0  0  0  0
  -25.0200  -30.3450   23.2420 C   0  0  0  0  0  0  0  0  0  0  0  0
  -26.3870  -27.4050   18.1930 C   0  0  0  0  0  0  0  0  0  0  0  0
  -23.4460  -30.1610   21.3390 C   0  0  0  0  0  3  0  0  0  0  0  0
  -24.4170  -29.1750   19.1970 C   0  0  0  0  0  0  0  0  0  0  0  0
  -25.9680  -30.0290   20.9650 C   0  0  0  0  0  2  0  0  0  0  0  0
  -25.6810  -29.1190   19.7910 C   0  0  0  0  0  0  0  0  0  0  0  0
  -26.6630  -28.2380   19.3050 C   0  0  0  0  0  3  0  0  0  0  0  0
  -25.1010  -27.4610   17.6100 C   0  0  0  0  0  3  0  0  0  0  0  0
  -24.1120  -28.3360   18.1080 C   0  0  0  0  0  3  0  0  0  0  0  0
  -23.4390  -30.1680   19.7850 C   0  0  0  0  0  2  0  0  0  0  0  0
  -24.8340  -30.1610   21.9050 N   0  0  0  0  0  0  0  0  0  0  0  0
  -24.0610  -30.5630   23.9960 O   0  0  0  0  0  0  0  0  0  0  0  0
  -22.5810  -28.9800   21.8330 C   0  0  0  0  0  0  0  0  0  0  0  0
  -21.2500  -29.1550   21.7880 N   0  0  0  0  0  0  0  0  0  0  0  0
  -23.1020  -27.9300   22.2180 O   0  0  0  0  0  0  0  0  0  0  0  0
  -20.9020  -30.0490   21.4720 H   0  0  0  0  0  0  0  0  0  0  0  0
  -17.6970  -28.6210   22.1460 C   0  0  0  0  0  0  0  0  0  0  0  0
  -20.2420  -28.1670   22.1660 C   0  0  0  0  0  3  0  0  0  0  0  0
  -19.9690  -27.1760   21.0120 C   0  0  0  0  0  2  0  0  0  0  0  0
  -18.8040  -27.5980   20.1120 C   0  0  0  0  0  2  0  0  0  0  0  0
  -17.5150  -27.7270   20.9310 C   0  0  0  0  0  2  0  0  0  0  0  0
  -18.9790  -28.8380   22.7170 C   0  0  0  0  0  0  0  0  0  0  0  0
  -19.0980  -29.7020   23.8280 C   0  0  0  0  0  3  0  0  0  0  0  0
  -17.9650  -30.3440   24.3640 C   0  0  0  0  0  3  0  0  0  0  0  0
  -16.6960  -30.1120   23.8050 C   0  0  0  0  0  3  0  0  0  0  0  0
  -16.5640  -29.2480   22.7030 C   0  0  0  0  0  3  0  0  0  0  0  0
  -26.4440  -30.3150   23.8840 C   0  0  0  0  0  3  0  0  0  0  0  0
  -26.7290  -28.9930   24.6990 C   0  0  1  0  0  0  0  0  0  0  0  0
  -25.5880  -28.5980   25.6650 C   0  0  0  0  0  1  0  0  0  0  0  0
  -26.9680  -27.8000   23.7400 C   0  0  0  0  0  1  0  0  0  0  0  0
  -28.0140  -29.1640   25.5410 C   0  0  0  0  0  1  0  0  0  0  0  0
  -26.5630  -31.4970   24.7460 N   0  0  0  0  0  0  0  0  0  0  0  0
  -27.3180  -32.5700   24.4650 C   0  0  0  0  0  0  0  0  0  0  0  0
  -28.0510  -32.6340   23.4750 O   0  0  0  0  0  0  0  0  0  0  0  0
  -25.9500  -31.5370   25.5470 H   0  0  0  0  0  0  0  0  0  0  0  0
  -26.3550  -34.8650   24.8370 C   0  0  0  0  0  1  0  0  0  0  0  0
  -27.2440  -33.7630   25.4370 C   0  0  0  0  0  3  0  0  0  0  0  0
  -29.3990  -33.4250   26.5700 C   0  0  0  0  0  1  0  0  0  0  0  0
  -28.5680  -34.3270   25.7760 N   0  0  0  0  0  0  0  0  0  0  0  0
  -28.4650  -35.1990   26.2880 H   0  0  0  0  0  0  0  0  0  0  0  0
  1  2  1  0
  1 50  1  0
  3  2  1  0
  4  3  1  0
  5  3  1  0
  6 10  1  0
  7  8  1  0
  8 10  1  0
  9 20  1  0
  9  7  1  0
  9  6  1  0
 10  3  1  0
 11  6  2  0
 12 18  1  0
 12 20  1  0
 13 18  1  0
 14 15  1  0
 14 13  1  0
 16 15  1  0
 16 25  1  0
 16 17  1  0
 18 17  1  0
 19 12  2  0
 20 21  1  0
 22 23  2  0
 23 42  1  0
 24 27  1  0
 24 23  1  0
 25 26  1  0
 25 22  1  0
 26 24  2  0
 27 28  1  0
 28 29  2  0
 30 33  1  0
 30 29  1  0
 31 30  2  0
 32 31  1  0
 32 27  2  0
 33 34  1  0
 34 39  2  0
 34 35  1  0
 35 36  2  0
 36 37  1  0
 37 41  1  0
 38 37  2  0
 39 38  1  0
 40 39  1  0
 42 43  1  0
 43 45  1  0
 43 46  1  0
 44 42  2  0
 47 22  1  0
 47 48  1  0
 49 47  1  0
 51 52  1  0
 51 50  1  0
 53 52  1  0
 54 53  1  0
 55 54  1  0
 56 55  1  0
 57 59  1  0
 57 56  1  0
 58 69  2  0
 59 64  1  0
 60 70  1  0
 60 68  1  0
 61 67  1  0
 61 63  1  0
 62 68  1  0
 63 62  1  0
 64 63  2  0
 65 66  1  0
 65 59  2  0
 66 61  2  0
 67 60  1  0
 68 58  1  0
 70 72  2  0
 71 70  1  0
 73 71  1  0
 74 83  2  0
 74 79  1  0
 75 71  1  0
 75 79  1  0
 76 75  1  0
 77 78  1  0
 77 76  1  0
 78 74  1  0
 79 80  2  0
 80 81  1  0
 82 81  2  0
 83 82  1  0
 84 58  1  0
 84 85  1  0
 84 89  1  0
 85 88  1  1
 85 86  1  0
 87 85  1  0
 89 92  1  0
 90 89  1  0
 90 94  1  0
 91 90  2  0
 94 93  1  0
 94 96  1  0
 96 97  1  0
 96 95  1  0
M  ISO  4  12 100  20 100  56 101  57 101
M  END
>  <TORSDO>  (46) 
F 26

>  <SCORE>  (46) 
-7.283

>  <name>  (46) 
45

>  <ligand_id>  (46) 
45

>  <original_smiles>  (46) 
[H]c1c([H])c([H])c2c(c1[H])C([H])([H])C([H])([H])C([H])([H])C2([H])N([H])C(=O)C1([H])N(C(=O)C([H])(N([H])C(=O)C([H])(N([H])C([H])([H])[H])C([H])([H])[H])C(C([H])([H])[H])(C([H])([H])[H])C([H])([H])[H])C([H])([H])c2c([H])c(OC([H])([H])C([H])([H])C([H])([H])C([H])([H])C([H])([H])C([H])([H])C([H])([H])C([H])([H])C([H])([H])[N+]([H])([H])C3([H])C(=O)C([H])(N([H])C(=O)N4C([H])([H])C([H])([H])C([H])([H])C([H])(n5nc(-c6c([H])c([H])c(Oc7c([H])c([H])c(F)c([H])c7F)c([H])c6[H])c(C(=O)N([H])[H])c5N([H])[H])C4([H])[H])C([H])([H])C3([H])[H])c([H])c([H])c2C1([H])[H]

>  <smiles>  (46) 
[H]c1c([H])c([H])c2c(c1[H])C([H])([H])C([H])([H])C([H])([H])C2([H])N([H])C(=O)C1([H])N(C(=O)C([H])(N([H])C(=O)C([H])(N([H])C([H])([H])[H])C([H])([H])[H])C(C([H])([H])[H])(C([H])([H])[H])C([H])([H])[H])C([H])([H])c2c([H])c(OC([H])([H])C([H])([H])C([H])([H])C([H])([H])C([H])([H])C([H])([H])C([H])([H])C([H])([H])C([H])([H])[N+]([H])([H])C3([H])C(=O)C([H])(N([H])C(=O)N4C([H])([H])C([H])([H])C([H])([H])C([H])(n5nc(-c6c([H])c([H])c(Oc7c([H])c([H])c(F)c([H])c7F)c([H])c6[H])c(C(=O)N([H])[H])c5N([H])[H])C4([H])[H])C([H])([H])C3([H])[H])c([H])c([H])c2C1([H])[H]

$$$$
46:0:0
     RDKit          3D

100109  0  0  1  0  0  0  0  0999 V2000
  -27.7050  -23.2810   15.0120 C   0  0  0  0  0  2  0  0  0  0  0  0
  -28.7630  -27.0300   15.2400 C   0  0  0  0  0  2  0  0  0  0  0  0
  -29.5890  -27.2200   16.5380 C   0  0  0  0  0  2  0  0  0  0  0  0
  -28.4730  -25.4300   17.9190 C   0  0  0  0  0  2  0  0  0  0  0  0
  -28.6100  -25.5920   14.6670 C   0  0  0  0  0  2  0  0  0  0  0  0
  -27.4860  -24.9720   16.8300 C   0  0  0  0  0  2  0  0  0  0  0  0
  -28.7810  -26.9310   17.8250 C   0  0  0  0  0  3  0  0  0  0  0  0
  -28.2440  -24.5230   15.6370 N   0  0  1  0  0  4  0  0  0  0  0  0
  -29.1350  -24.2260   16.0060 H   0  0  0  0  0  0  0  0  0  0  0  0
  -29.4670  -27.4720   19.1110 C   0  0  0  0  0  2  0  0  0  0  0  0
  -28.7230  -27.2430   20.3150 O   0  0  0  0  0  0  0  0  0  0  0  0
  -24.8380  -31.9940   23.9700 C   0  0  0  0  0  0  0  0  0  0  0  0
  -27.5580  -27.9620   20.4420 C   0  0  0  0  0  0  0  0  0  0  0  0
  -23.6680  -30.7860   22.1640 C   0  0  0  0  0  3  0  0  0  0  0  0
  -25.1530  -29.4280   20.6080 C   0  0  0  0  0  0  0  0  0  0  0  0
  -26.1960  -31.1750   22.0500 C   0  0  0  0  0  2  0  0  0  0  0  0
  -26.3030  -29.8910   21.2590 C   0  0  0  0  0  0  0  0  0  0  0  0
  -27.5130  -29.1670   21.1760 C   0  0  0  0  0  3  0  0  0  0  0  0
  -26.3760  -27.4800   19.8440 C   0  0  0  0  0  3  0  0  0  0  0  0
  -25.1810  -28.2170   19.9010 C   0  0  0  0  0  3  0  0  0  0  0  0
  -23.9070  -30.2720   20.7230 C   0  0  0  0  0  2  0  0  0  0  0  0
  -24.9200  -31.3240   22.7860 N   0  0  0  0  0  0  0  0  0  0  0  0
  -23.7450  -32.1990   24.5130 O   0  0  0  0  0  0  0  0  0  0  0  0
  -23.0060  -29.6590   22.9880 C   0  0  0  0  0  0  0  0  0  0  0  0
  -21.7060  -29.4290   22.7480 N   0  0  0  0  0  0  0  0  0  0  0  0
  -23.6630  -28.9980   23.7970 O   0  0  0  0  0  0  0  0  0  0  0  0
  -21.2360  -30.0190   22.0750 H   0  0  0  0  0  0  0  0  0  0  0  0
  -18.4020  -27.9690   22.8070 C   0  0  0  0  0  0  0  0  0  0  0  0
  -20.8860  -28.3960   23.3780 C   0  0  0  0  0  3  0  0  0  0  0  0
  -21.1640  -27.0070   22.7580 C   0  0  0  0  0  2  0  0  0  0  0  0
  -20.2110  -26.6570   21.6120 C   0  0  0  0  0  2  0  0  0  0  0  0
  -18.7580  -26.6710   22.0980 C   0  0  0  0  0  2  0  0  0  0  0  0
  -19.4020  -28.7860   23.3930 C   0  0  0  0  0  0  0  0  0  0  0  0
  -19.0240  -30.0020   24.0050 C   0  0  0  0  0  3  0  0  0  0  0  0
  -17.6750  -30.4010   24.0370 C   0  0  0  0  0  3  0  0  0  0  0  0
  -16.6850  -29.5800   23.4700 C   0  0  0  0  0  3  0  0  0  0  0  0
  -17.0490  -28.3670   22.8590 C   0  0  0  0  0  3  0  0  0  0  0  0
  -26.1100  -32.5560   24.6770 C   0  0  0  0  0  3  0  0  0  0  0  0
  -25.8160  -33.9390   25.0740 N   0  0  0  0  0  0  0  0  0  0  0  0
  -26.2240  -35.0270   24.4070 C   0  0  0  0  0  0  0  0  0  0  0  0
  -26.9600  -34.9690   23.4170 O   0  0  0  0  0  0  0  0  0  0  0  0
  -25.1710  -34.0640   25.8400 H   0  0  0  0  0  0  0  0  0  0  0  0
  -24.5700  -36.8900   24.0660 C   0  0  0  0  0  1  0  0  0  0  0  0
  -25.7440  -36.3960   24.9250 C   0  0  0  0  0  3  0  0  0  0  0  0
  -27.8440  -37.1570   25.9430 C   0  0  0  0  0  1  0  0  0  0  0  0
  -26.8070  -37.4230   24.9510 N   0  0  0  0  0  0  0  0  0  0  0  0
  -26.4150  -38.3410   25.1440 H   0  0  0  0  0  0  0  0  0  0  0  0
  -26.5630  -31.6960   25.9210 C   0  0  1  0  0  0  0  0  0  0  0  0
  -25.4240  -31.3970   26.9220 C   0  0  0  0  0  1  0  0  0  0  0  0
  -27.1510  -30.3400   25.4630 C   0  0  0  0  0  1  0  0  0  0  0  0
  -27.6880  -32.4310   26.6870 C   0  0  0  0  0  1  0  0  0  0  0  0
  -27.3830  -19.7700   16.7450 C   0  0  0  0  0  2  0  0  0  0  0  0
  -29.7360  -20.7560   17.1380 C   0  0  0  0  0  2  0  0  0  0  0  0
  -27.2110  -20.7760   15.5860 C   0  0  0  0  0  2  0  0  0  0  0  0
  -29.4780  -21.7020   15.9640 C   0  0  0  0  0  2  0  0  0  0  0  0
  -28.8620  -19.4770   17.1280 C   0  0  0  0  0  3  0  0  0  0  0  0
  -27.9890  -22.0570   15.9180 C   0  0  0  0  0  3  0  0  0  0  0  0
  -28.9130  -18.7680   18.5060 C   0  0  0  0  0  2  0  0  0  0  0  0
  -30.3290  -18.4560   19.0300 C   0  0  0  0  0  2  0  0  0  0  0  0
  -30.3440  -17.5860   20.2950 C   0  0  0  0  0  2  0  0  0  0  0  0
  -31.7670  -17.4860   20.8800 C   0  0  0  0  0  2  0  0  0  0  0  0
  -31.9320  -16.4580   22.0200 C   0  0  0  0  0  2  0  0  0  0  0  0
  -31.8710  -14.2780   20.8200 C   0  0  0  0  0  0  0  0  0  0  0  0
  -31.3350  -12.4030   19.3210 C   0  0  0  0  0  2  0  0  0  0  0  0
  -30.5040  -12.9050   18.1240 C   0  0  0  0  0  2  0  0  0  0  0  0
  -29.0020  -12.9190   18.4700 C   0  0  0  0  0  2  0  0  0  0  0  0
  -28.7050  -13.6160   19.8240 C   0  0  0  0  0  3  0  0  0  0  0  0
  -29.6480  -13.0890   20.9310 C   0  0  0  0  0  2  0  0  0  0  0  0
  -31.0390  -13.2630   20.4740 N   0  0  0  0  0  0  0  0  0  0  0  0
  -32.9880  -14.4410   20.3240 O   0  0  0  0  0  0  0  0  0  0  0  0
  -31.3630  -15.1540   21.6950 N   0  0  0  0  0  0  0  0  0  0  0  0
  -30.4700  -14.9230   22.1030 H   0  0  0  0  0  0  0  0  0  0  0  0
  -26.3380  -14.4540   20.3990 C   0  0  0  0  0  0  0  0  0  0  0  0
  -25.1680  -13.7870   20.6540 C   0  0  0  0  0  0  0  0  0  0  0  0
  -25.4850  -12.3960   20.5790 C   0  0  0  0  0  0  0  0  0  0  0  0
  -27.2980  -13.4750   20.1940 N   0  0  0  0  0  0  0  0  0  0  0  0
  -26.7810  -12.2290   20.3560 N   0  0  0  0  0  0  0  0  0  0  0  0
  -24.6180  -11.2120   20.6530 C   0  0  0  0  0  0  0  0  0  0  0  0
  -24.8580  -10.1760   21.5830 C   0  0  0  0  0  3  0  0  0  0  0  0
  -23.9990   -9.0580   21.6480 C   0  0  0  0  0  3  0  0  0  0  0  0
  -22.8880   -8.9660   20.7770 C   0  0  0  0  0  0  0  0  0  0  0  0
  -22.6650   -9.9910   19.8400 C   0  0  0  0  0  3  0  0  0  0  0  0
  -23.5240  -11.1000   19.7740 C   0  0  0  0  0  3  0  0  0  0  0  0
  -22.0150   -7.9050   20.7500 O   0  0  0  0  0  0  0  0  0  0  0  0
  -21.7210   -7.1850   21.8790 C   0  0  0  0  0  0  0  0  0  0  0  0
  -21.1930   -7.7980   23.0370 C   0  0  0  0  0  3  0  0  0  0  0  0
  -20.8390   -7.0100   24.1510 C   0  0  0  0  0  3  0  0  0  0  0  0
  -21.0090   -5.6140   24.1100 C   0  0  0  0  0  0  0  0  0  0  0  0
  -21.5290   -5.0020   22.9560 C   0  0  0  0  0  3  0  0  0  0  0  0
  -21.8840   -5.7860   21.8440 C   0  0  0  0  0  0  0  0  0  0  0  0
  -22.3650   -5.1890   20.7270 F   0  0  0  0  0  0  0  0  0  0  0  0
  -20.6630   -4.8570   25.1770 F   0  0  0  0  0  0  0  0  0  0  0  0
  -23.8150  -14.4010   20.8650 C   0  0  0  0  0  0  0  0  0  0  0  0
  -22.9670  -13.7570   21.6600 N   0  0  0  0  0  0  0  0  0  0  0  0
  -23.5190  -15.4830   20.3620 O   0  0  0  0  0  0  0  0  0  0  0  0
  -23.2200  -12.8800   22.0890 H   0  0  0  0  0  0  0  0  0  0  0  0
  -22.0560  -14.1500   21.8440 H   0  0  0  0  0  0  0  0  0  0  0  0
  -26.6610  -15.8040   20.3070 N   0  0  0  0  0  0  0  0  0  0  0  0
  -25.9640  -16.5350   20.3960 H   0  0  0  0  0  0  0  0  0  0  0  0
  -27.5790  -16.1570   20.0670 H   0  0  0  0  0  0  0  0  0  0  0  0
  1  8  1  0
  2  3  1  0
  3  7  1  0
  5  2  1  0
  5  8  1  0
  6  4  1  0
  7  4  1  0
  7 10  1  0
  8  9  1  1
  8  6  1  0
 10 11  1  0
 11 13  1  0
 12 23  2  0
 13 18  1  0
 14 22  1  0
 14 24  1  0
 15 21  1  0
 15 17  1  0
 16 22  1  0
 17 16  1  0
 18 17  2  0
 19 20  1  0
 19 13  2  0
 20 15  2  0
 21 14  1  0
 22 12  1  0
 24 26  2  0
 25 24  1  0
 27 25  1  0
 28 37  2  0
 28 33  1  0
 29 25  1  0
 29 33  1  0
 30 29  1  0
 31 32  1  0
 31 30  1  0
 32 28  1  0
 33 34  2  0
 34 35  1  0
 36 35  2  0
 37 36  1  0
 38 12  1  0
 38 39  1  0
 38 48  1  0
 39 42  1  0
 40 44  1  0
 40 39  1  0
 41 40  2  0
 44 43  1  0
 44 46  1  0
 46 47  1  0
 46 45  1  0
 48 51  1  1
 48 49  1  0
 50 48  1  0
 52 56  1  0
 54 57  1  0
 54 52  1  0
 55 53  1  0
 56 53  1  0
 56 58  1  0
 57  1  1  0
 57 55  1  0
 58 59  1  0
 59 60  1  0
 60 61  1  0
 61 62  1  0
 63 71  1  0
 64 69  1  0
 65 66  1  0
 65 64  1  0
 67 66  1  0
 67 76  1  0
 67 68  1  0
 69 63  1  0
 69 68  1  0
 70 63  2  0
 71 62  1  0
 71 72  1  0
 73 74  2  0
 74 93  1  0
 75 78  1  0
 75 74  1  0
 76 77  1  0
 76 73  1  0
 77 75  2  0
 78 79  1  0
 79 80  2  0
 81 80  1  0
 82 81  2  0
 83 82  1  0
 83 78  2  0
 84 81  1  0
 84 85  1  0
 85 86  1  0
 86 87  2  0
 88 87  1  0
 88 92  1  0
 89 88  2  0
 90 85  2  0
 90 89  1  0
 91 90  1  0
 93 94  1  0
 94 97  1  0
 94 96  1  0
 95 93  2  0
 98 99  1  0
 98 73  1  0
100 98  1  0
M  ISO  4  10 101  11 101  63 100  71 100
M  END
>  <TORSDO>  (47) 
F 24

>  <SCORE>  (47) 
-1.846

>  <name>  (47) 
46

>  <ligand_id>  (47) 
46

>  <original_smiles>  (47) 
[H]c1c([H])c([H])c2c(c1[H])C([H])([H])C([H])([H])C([H])([H])C2([H])N([H])C(=O)C1([H])N(C(=O)C([H])(N([H])C(=O)C([H])(N([H])C([H])([H])[H])C([H])([H])[H])C(C([H])([H])[H])(C([H])([H])[H])C([H])([H])[H])C([H])([H])c2c([H])c(OC([H])([H])C3([H])C([H])([H])C([H])([H])C([H])([H])[N+]([H])(C([H])([H])C4([H])C([H])([H])C([H])([H])C([H])(C([H])([H])C([H])([H])C([H])([H])C([H])([H])C([H])([H])N([H])C(=O)N5C([H])([H])C([H])([H])C([H])([H])C([H])(n6nc(-c7c([H])c([H])c(Oc8c([H])c([H])c(F)c([H])c8F)c([H])c7[H])c(C(=O)N([H])[H])c6N([H])[H])C5([H])[H])C([H])([H])C4([H])[H])C([H])([H])C3([H])[H])c([H])c([H])c2C1([H])[H]

>  <smiles>  (47) 
[H]c1c([H])c([H])c2c(c1[H])C([H])([H])C([H])([H])C([H])([H])C2([H])N([H])C(=O)C1([H])N(C(=O)C([H])(N([H])C(=O)C([H])(N([H])C([H])([H])[H])C([H])([H])[H])C(C([H])([H])[H])(C([H])([H])[H])C([H])([H])[H])C([H])([H])c2c([H])c(OC([H])([H])C3([H])C([H])([H])C([H])([H])C([H])([H])[N+]([H])(C([H])([H])C4([H])C([H])([H])C([H])([H])C([H])(C([H])([H])C([H])([H])C([H])([H])C([H])([H])C([H])([H])N([H])C(=O)N5C([H])([H])C([H])([H])C([H])([H])C([H])(n6nc(-c7c([H])c([H])c(Oc8c([H])c([H])c(F)c([H])c8F)c([H])c7[H])c(C(=O)N([H])[H])c6N([H])[H])C5([H])[H])C([H])([H])C4([H])[H])C([H])([H])C3([H])[H])c([H])c([H])c2C1([H])[H]

$$$$
47:0:0
     RDKit          3D

 99107  0  0  1  0  0  0  0  0999 V2000
  -29.1370  -21.7260   19.5970 N   0  0  0  0  0  4  0  0  0  0  0  0
  -29.8320  -21.1560   20.0510 H   0  0  0  0  0  0  0  0  0  0  0  0
  -29.5350  -22.0380   18.7240 H   0  0  0  0  0  0  0  0  0  0  0  0
  -28.9370  -25.3970   21.9280 C   0  0  0  0  0  0  0  0  0  0  0  0
  -28.2450  -24.1070   19.7880 C   0  0  0  0  0  2  0  0  0  0  0  0
  -30.1610  -23.3410   21.2010 C   0  0  0  0  0  2  0  0  0  0  0  0
  -27.8940  -25.2300   20.7960 C   0  0  0  0  0  3  0  0  0  0  0  0
  -28.8720  -22.8810   20.4920 C   0  0  0  0  0  3  0  0  0  0  0  0
  -29.9290  -24.5020   22.0560 N   0  0  0  0  0  0  0  0  0  0  0  0
  -28.8560  -26.3490   22.7050 O   0  0  0  0  0  0  0  0  0  0  0  0
  -30.5980  -24.6580   22.7980 H   0  0  0  0  0  0  0  0  0  0  0  0
  -27.7960  -26.4860   20.1320 O   0  0  0  0  0  0  0  0  0  0  0  0
  -24.4770  -31.8940   23.3890 C   0  0  0  0  0  0  0  0  0  0  0  0
  -26.6500  -27.2220   20.2970 C   0  0  0  0  0  0  0  0  0  0  0  0
  -23.0930  -30.5520   21.8360 C   0  0  0  0  0  3  0  0  0  0  0  0
  -24.3610  -28.8670   20.4040 C   0  0  0  0  0  0  0  0  0  0  0  0
  -25.6250  -30.7170   21.5160 C   0  0  0  0  0  2  0  0  0  0  0  0
  -25.5790  -29.3270   20.9190 C   0  0  0  0  0  0  0  0  0  0  0  0
  -26.7280  -28.5110   20.8650 C   0  0  0  0  0  3  0  0  0  0  0  0
  -25.4190  -26.7640   19.7840 C   0  0  0  0  0  3  0  0  0  0  0  0
  -24.2720  -27.5800   19.8390 C   0  0  0  0  0  3  0  0  0  0  0  0
  -23.1910  -29.8200   20.4700 C   0  0  0  0  0  2  0  0  0  0  0  0
  -24.4210  -31.0700   22.3050 N   0  0  0  0  0  0  0  0  0  0  0  0
  -23.4460  -32.2620   23.9690 O   0  0  0  0  0  0  0  0  0  0  0  0
  -22.4110  -29.6080   22.8500 C   0  0  0  0  0  0  0  0  0  0  0  0
  -21.0970  -29.3940   22.6740 N   0  0  0  0  0  0  0  0  0  0  0  0
  -23.0610  -29.0650   23.7470 O   0  0  0  0  0  0  0  0  0  0  0  0
  -20.6340  -29.8870   21.9230 H   0  0  0  0  0  0  0  0  0  0  0  0
  -17.7510  -28.0700   23.0050 C   0  0  0  0  0  0  0  0  0  0  0  0
  -20.2530  -28.5110   23.4800 C   0  0  0  0  0  3  0  0  0  0  0  0
  -20.4810  -27.0280   23.1060 C   0  0  0  0  0  2  0  0  0  0  0  0
  -19.5020  -26.5150   22.0450 C   0  0  0  0  0  2  0  0  0  0  0  0
  -18.0570  -26.6590   22.5320 C   0  0  0  0  0  2  0  0  0  0  0  0
  -18.7840  -28.9450   23.4350 C   0  0  0  0  0  0  0  0  0  0  0  0
  -18.4480  -30.2580   23.8300 C   0  0  0  0  0  3  0  0  0  0  0  0
  -17.1120  -30.6980   23.8050 C   0  0  0  0  0  3  0  0  0  0  0  0
  -16.0920  -29.8220   23.3930 C   0  0  0  0  0  3  0  0  0  0  0  0
  -16.4120  -28.5110   22.9980 C   0  0  0  0  0  3  0  0  0  0  0  0
  -25.8350  -32.4330   23.9390 C   0  0  0  0  0  3  0  0  0  0  0  0
  -26.3550  -31.6450   25.2020 C   0  0  1  0  0  0  0  0  0  0  0  0
  -25.2890  -31.4720   26.3100 C   0  0  0  0  0  1  0  0  0  0  0  0
  -26.8500  -30.2370   24.7950 C   0  0  0  0  0  1  0  0  0  0  0  0
  -27.5660  -32.3830   25.8190 C   0  0  0  0  0  1  0  0  0  0  0  0
  -25.6540  -33.8560   24.2510 N   0  0  0  0  0  0  0  0  0  0  0  0
  -26.0560  -34.8650   23.4670 C   0  0  0  0  0  0  0  0  0  0  0  0
  -26.6900  -34.6890   22.4220 O   0  0  0  0  0  0  0  0  0  0  0  0
  -25.1000  -34.0740   25.0680 H   0  0  0  0  0  0  0  0  0  0  0  0
  -24.4600  -36.7760   23.1310 C   0  0  0  0  0  1  0  0  0  0  0  0
  -25.6950  -36.2950   23.9090 C   0  0  0  0  0  3  0  0  0  0  0  0
  -27.9240  -37.0200   24.6400 C   0  0  0  0  0  1  0  0  0  0  0  0
  -26.8020  -37.2600   23.7360 N   0  0  0  0  0  0  0  0  0  0  0  0
  -26.4760  -38.2120   23.8820 H   0  0  0  0  0  0  0  0  0  0  0  0
  -27.9800  -20.8490   19.3200 C   0  0  0  0  0  2  0  0  0  0  0  0
  -28.3490  -18.3640   19.5740 C   0  0  0  0  0  3  0  0  0  0  0  0
  -28.4490  -19.4870   18.8420 C   0  0  0  0  0  3  0  0  0  0  0  0
  -28.8370  -17.0000   19.1300 C   0  0  0  0  0  2  0  0  0  0  0  0
  -29.1280  -16.0430   20.3060 C   0  0  0  0  0  2  0  0  0  0  0  0
  -30.1610  -16.5430   21.3420 C   0  0  0  0  0  2  0  0  0  0  0  0
  -30.9190  -15.4360   22.1000 C   0  0  0  0  0  2  0  0  0  0  0  0
  -31.6280  -14.4580   21.1610 C   0  0  0  0  0  2  0  0  0  0  0  0
  -32.6370  -13.5450   21.8660 C   0  0  0  0  0  2  0  0  0  0  0  0
  -33.2150  -11.1840   21.3140 C   0  0  0  0  0  0  0  0  0  0  0  0
  -32.2960   -8.9250   21.6260 C   0  0  0  0  0  2  0  0  0  0  0  0
  -31.5290   -8.4740   20.3660 C   0  0  0  0  0  2  0  0  0  0  0  0
  -30.0650   -8.9480   20.4170 C   0  0  0  0  0  2  0  0  0  0  0  0
  -29.9280  -10.4480   20.7850 C   0  0  0  0  0  3  0  0  0  0  0  0
  -30.7990  -10.7950   22.0100 C   0  0  0  0  0  2  0  0  0  0  0  0
  -32.1890  -10.3910   21.7230 N   0  0  0  0  0  0  0  0  0  0  0  0
  -34.3240  -10.7520   21.0030 O   0  0  0  0  0  0  0  0  0  0  0  0
  -32.9270  -12.4370   20.9660 N   0  0  0  0  0  0  0  0  0  0  0  0
  -33.5760  -12.7370   20.2530 H   0  0  0  0  0  0  0  0  0  0  0  0
  -27.9470  -12.0820   21.0080 C   0  0  0  0  0  0  0  0  0  0  0  0
  -26.6030  -11.8740   21.1760 C   0  0  0  0  0  0  0  0  0  0  0  0
  -26.4310  -10.4590   21.2600 C   0  0  0  0  0  0  0  0  0  0  0  0
  -28.5300  -10.8240   20.9960 N   0  0  0  0  0  0  0  0  0  0  0  0
  -27.6080   -9.8480   21.2080 N   0  0  0  0  0  0  0  0  0  0  0  0
  -25.2090   -9.6450   21.3280 C   0  0  0  0  0  0  0  0  0  0  0  0
  -25.0570   -8.6240   22.2910 C   0  0  0  0  0  3  0  0  0  0  0  0
  -23.8680   -7.8660   22.3510 C   0  0  0  0  0  3  0  0  0  0  0  0
  -22.8150   -8.1300   21.4450 C   0  0  0  0  0  0  0  0  0  0  0  0
  -22.9790   -9.1330   20.4740 C   0  0  0  0  0  3  0  0  0  0  0  0
  -24.1660   -9.8810   20.4120 C   0  0  0  0  0  3  0  0  0  0  0  0
  -21.6370   -7.4260   21.4110 O   0  0  0  0  0  0  0  0  0  0  0  0
  -21.1840   -6.7260   22.5000 C   0  0  0  0  0  0  0  0  0  0  0  0
  -20.9260   -7.3530   23.7380 C   0  0  0  0  0  3  0  0  0  0  0  0
  -20.3920   -6.6080   24.8090 C   0  0  0  0  0  3  0  0  0  0  0  0
  -20.1080   -5.2390   24.6400 C   0  0  0  0  0  0  0  0  0  0  0  0
  -20.3600   -4.6140   23.4060 C   0  0  0  0  0  3  0  0  0  0  0  0
  -20.8910   -5.3570   22.3390 C   0  0  0  0  0  0  0  0  0  0  0  0
  -21.1090   -4.7540   21.1450 F   0  0  0  0  0  0  0  0  0  0  0  0
  -19.5910   -4.5200   25.6640 F   0  0  0  0  0  0  0  0  0  0  0  0
  -25.5270  -12.9200   21.1680 C   0  0  0  0  0  0  0  0  0  0  0  0
  -24.4480  -12.6980   21.9130 N   0  0  0  0  0  0  0  0  0  0  0  0
  -25.6540  -13.9670   20.5360 O   0  0  0  0  0  0  0  0  0  0  0  0
  -24.3480  -11.8500   22.4500 H   0  0  0  0  0  0  0  0  0  0  0  0
  -23.7130  -13.3900   21.9470 H   0  0  0  0  0  0  0  0  0  0  0  0
  -28.7190  -13.2280   20.8520 N   0  0  0  0  0  0  0  0  0  0  0  0
  -28.3330  -14.1600   20.9380 H   0  0  0  0  0  0  0  0  0  0  0  0
  -29.7310  -13.2150   20.8190 H   0  0  0  0  0  0  0  0  0  0  0  0
  1  2  1  0
  3  1  1  0
  4  9  1  0
  4 10  2  0
  5  8  1  0
  5  7  1  0
  6  9  1  0
  7 12  1  0
  7  4  1  0
  8  1  1  0
  8  6  1  0
  9 11  1  0
 12 14  1  0
 13 24  2  0
 14 19  1  0
 15 23  1  0
 15 25  1  0
 16 22  1  0
 16 18  1  0
 17 23  1  0
 18 17  1  0
 19 18  2  0
 20 21  1  0
 20 14  2  0
 21 16  2  0
 22 15  1  0
 23 13  1  0
 25 27  2  0
 26 25  1  0
 28 26  1  0
 29 34  1  0
 30 26  1  0
 31 30  1  0
 32 33  1  0
 32 31  1  0
 33 29  1  0
 34 30  1  0
 34 35  2  0
 36 35  1  0
 37 36  2  0
 38 29  2  0
 38 37  1  0
 39 13  1  0
 39 44  1  0
 39 40  1  0
 40 43  1  1
 40 41  1  0
 42 40  1  0
 44 47  1  0
 45 49  1  0
 45 44  1  0
 46 45  2  0
 49 48  1  0
 51 52  1  0
 51 49  1  0
 51 50  1  0
 53  1  1  0
 55 53  1  0
 55 54  2  0
 56 54  1  0
 56 57  1  0
 57 58  1  0
 58 59  1  0
 60 61  1  0
 60 59  1  0
 62 68  1  0
 63 68  1  0
 64 65  1  0
 64 63  1  0
 66 65  1  0
 66 75  1  0
 66 67  1  0
 68 67  1  0
 69 62  2  0
 70 62  1  0
 70 61  1  0
 71 70  1  0
 72 73  2  0
 73 74  1  0
 74 77  1  0
 75 72  1  0
 75 76  1  0
 76 74  2  0
 77 78  1  0
 78 79  2  0
 80 79  1  0
 81 80  2  0
 82 81  1  0
 82 77  2  0
 83 80  1  0
 83 84  1  0
 84 85  1  0
 85 86  2  0
 87 86  1  0
 87 91  1  0
 88 87  2  0
 89 84  2  0
 89 88  1  0
 90 89  1  0
 92 73  1  0
 92 93  1  0
 93 96  1  0
 93 95  1  0
 94 92  2  0
 97 98  1  0
 97 72  1  0
 99 97  1  0
M  ISO  4   7 101  12 101  62 100  70 100
M  END
>  <TORSDO>  (48) 
F 25

>  <SCORE>  (48) 
-9.915

>  <name>  (48) 
47

>  <ligand_id>  (48) 
47

>  <original_smiles>  (48) 
[H]C(=C([H])C([H])([H])[N+]([H])([H])C1([H])C([H])([H])N([H])C(=O)C([H])(Oc2c([H])c([H])c3c(c2[H])C([H])([H])N(C(=O)C([H])(N([H])C(=O)C([H])(N([H])C([H])([H])[H])C([H])([H])[H])C(C([H])([H])[H])(C([H])([H])[H])C([H])([H])[H])C([H])(C(=O)N([H])C2([H])c4c([H])c([H])c([H])c([H])c4C([H])([H])C([H])([H])C2([H])[H])C3([H])[H])C1([H])[H])C([H])([H])C([H])([H])C([H])([H])C([H])([H])C([H])([H])C([H])([H])N([H])C(=O)N1C([H])([H])C([H])([H])C([H])([H])C([H])(n2nc(-c3c([H])c([H])c(Oc4c([H])c([H])c(F)c([H])c4F)c([H])c3[H])c(C(=O)N([H])[H])c2N([H])[H])C1([H])[H]

>  <smiles>  (48) 
[H]C(=C([H])C([H])([H])[N+]([H])([H])C1([H])C([H])([H])N([H])C(=O)C([H])(Oc2c([H])c([H])c3c(c2[H])C([H])([H])N(C(=O)C([H])(N([H])C(=O)C([H])(N([H])C([H])([H])[H])C([H])([H])[H])C(C([H])([H])[H])(C([H])([H])[H])C([H])([H])[H])C([H])(C(=O)N([H])C2([H])c4c([H])c([H])c([H])c([H])c4C([H])([H])C([H])([H])C2([H])[H])C3([H])[H])C1([H])[H])C([H])([H])C([H])([H])C([H])([H])C([H])([H])C([H])([H])C([H])([H])N([H])C(=O)N1C([H])([H])C([H])([H])C([H])([H])C([H])(n2nc(-c3c([H])c([H])c(Oc4c([H])c([H])c(F)c([H])c4F)c([H])c3[H])c(C(=O)N([H])[H])c2N([H])[H])C1([H])[H]

$$$$
48:0:0
     RDKit          3D

107115  0  0  1  0  0  0  0  0999 V2000
  -31.6480  -18.7860   22.4920 C   0  0  0  0  0  2  0  0  0  0  0  0
  -32.3760  -19.5180   21.3530 C   0  0  0  0  0  2  0  0  0  0  0  0
  -31.5400  -20.6020   20.8050 N   0  0  0  0  0  4  0  0  0  0  0  0
  -30.7090  -20.2170   20.3840 H   0  0  0  0  0  0  0  0  0  0  0  0
  -31.2530  -21.1970   21.5640 H   0  0  0  0  0  0  0  0  0  0  0  0
  -32.2110  -21.4570   19.8130 C   0  0  0  0  0  2  0  0  0  0  0  0
  -30.4020  -22.6690   18.5050 C   0  0  0  0  0  3  0  0  0  0  0  0
  -31.4970  -23.8350   20.3470 C   0  0  0  0  0  3  0  0  0  0  0  0
  -29.5840  -23.7930   18.2830 C   0  0  0  0  0  3  0  0  0  0  0  0
  -30.6760  -24.9580   20.1250 C   0  0  0  0  0  3  0  0  0  0  0  0
  -31.3580  -22.6830   19.5420 C   0  0  0  0  0  0  0  0  0  0  0  0
  -29.7090  -24.9380   19.0980 C   0  0  0  0  0  0  0  0  0  0  0  0
  -28.8170  -26.1410   18.8520 C   0  0  0  0  0  2  0  0  0  0  0  0
  -28.4200  -26.7660   20.0720 O   0  0  0  0  0  0  0  0  0  0  0  0
  -24.6120  -31.8720   23.2120 C   0  0  0  0  0  0  0  0  0  0  0  0
  -27.2400  -27.4720   20.0690 C   0  0  0  0  0  0  0  0  0  0  0  0
  -23.3980  -30.4960   21.5520 C   0  0  0  0  0  3  0  0  0  0  0  0
  -24.8430  -28.9650   20.1150 C   0  0  0  0  0  0  0  0  0  0  0  0
  -25.9240  -30.8440   21.3620 C   0  0  0  0  0  2  0  0  0  0  0  0
  -26.0000  -29.4790   20.7120 C   0  0  0  0  0  0  0  0  0  0  0  0
  -27.1980  -28.7330   20.6990 C   0  0  0  0  0  3  0  0  0  0  0  0
  -26.0570  -26.9520   19.4970 C   0  0  0  0  0  3  0  0  0  0  0  0
  -24.8630  -27.6950   19.5130 C   0  0  0  0  0  3  0  0  0  0  0  0
  -23.6050  -29.8290   20.1660 C   0  0  0  0  0  2  0  0  0  0  0  0
  -24.6630  -31.0840   22.1010 N   0  0  0  0  0  0  0  0  0  0  0  0
  -23.5320  -32.1450   23.7540 O   0  0  0  0  0  0  0  0  0  0  0  0
  -22.7390  -29.4680   22.5000 C   0  0  0  0  0  0  0  0  0  0  0  0
  -21.4130  -29.3040   22.3730 N   0  0  0  0  0  0  0  0  0  0  0  0
  -23.4180  -28.8220   23.3030 O   0  0  0  0  0  0  0  0  0  0  0  0
  -20.9280  -29.8760   21.6960 H   0  0  0  0  0  0  0  0  0  0  0  0
  -18.0270  -28.1380   22.8490 C   0  0  0  0  0  0  0  0  0  0  0  0
  -20.5860  -28.3670   23.1320 C   0  0  0  0  0  3  0  0  0  0  0  0
  -20.6770  -26.9410   22.5410 C   0  0  0  0  0  2  0  0  0  0  0  0
  -19.5750  -26.6390   21.5210 C   0  0  0  0  0  2  0  0  0  0  0  0
  -18.1920  -26.7930   22.1620 C   0  0  0  0  0  2  0  0  0  0  0  0
  -19.1520  -28.8840   23.2910 C   0  0  0  0  0  0  0  0  0  0  0  0
  -18.9450  -30.1450   23.8920 C   0  0  0  0  0  3  0  0  0  0  0  0
  -17.6450  -30.6590   24.0570 C   0  0  0  0  0  3  0  0  0  0  0  0
  -16.5340  -29.9090   23.6330 C   0  0  0  0  0  3  0  0  0  0  0  0
  -16.7260  -28.6510   23.0340 C   0  0  0  0  0  3  0  0  0  0  0  0
  -25.9030  -32.4830   23.8410 C   0  0  0  0  0  3  0  0  0  0  0  0
  -25.5900  -33.8630   24.2340 N   0  0  0  0  0  0  0  0  0  0  0  0
  -25.9030  -34.9480   23.5130 C   0  0  0  0  0  0  0  0  0  0  0  0
  -26.5590  -34.8930   22.4690 O   0  0  0  0  0  0  0  0  0  0  0  0
  -25.0060  -33.9800   25.0500 H   0  0  0  0  0  0  0  0  0  0  0  0
  -24.1490  -36.7320   23.2630 C   0  0  0  0  0  1  0  0  0  0  0  0
  -25.4110  -36.3120   24.0340 C   0  0  0  0  0  3  0  0  0  0  0  0
  -27.5580  -37.1820   24.8460 C   0  0  0  0  0  1  0  0  0  0  0  0
  -26.4300  -37.3800   23.9400 N   0  0  0  0  0  0  0  0  0  0  0  0
  -26.0190  -38.2880   24.1400 H   0  0  0  0  0  0  0  0  0  0  0  0
  -26.4460  -31.6600   25.0730 C   0  0  1  0  0  0  0  0  0  0  0  0
  -25.3730  -31.3690   26.1470 C   0  0  0  0  0  1  0  0  0  0  0  0
  -27.0290  -30.3050   24.6080 C   0  0  0  0  0  1  0  0  0  0  0  0
  -27.6040  -32.4310   25.7490 C   0  0  0  0  0  1  0  0  0  0  0  0
  -32.5250  -17.7480   23.2060 C   0  0  0  0  0  2  0  0  0  0  0  0
  -31.7520  -17.0050   24.3070 C   0  0  0  0  0  2  0  0  0  0  0  0
  -32.6220  -15.9930   25.0640 C   0  0  0  0  0  2  0  0  0  0  0  0
  -31.7880  -14.9760   25.8610 C   0  0  0  0  0  2  0  0  0  0  0  0
  -32.6190  -13.7650   26.3200 C   0  0  0  0  0  2  0  0  0  0  0  0
  -31.7620  -12.5910   26.8290 C   0  0  0  0  0  2  0  0  0  0  0  0
  -32.4340  -11.3050   26.5510 N   0  0  0  0  0  4  0  0  0  0  0  0
  -33.1550  -11.1360   27.2350 H   0  0  0  0  0  0  0  0  0  0  0  0
  -32.8800  -11.3870   25.6520 H   0  0  0  0  0  0  0  0  0  0  0  0
  -31.5470  -10.1260   26.4620 C   0  0  0  0  0  2  0  0  0  0  0  0
  -32.0980   -9.0930   25.4630 C   0  0  0  0  0  2  0  0  0  0  0  0
  -31.7970   -9.3880   23.9760 C   0  0  0  0  0  2  0  0  0  0  0  0
  -32.4830  -10.6340   23.3750 C   0  0  0  0  0  2  0  0  0  0  0  0
  -31.5090  -11.8030   23.1280 C   0  0  0  0  0  2  0  0  0  0  0  0
  -32.1970  -13.0390   22.5190 C   0  0  0  0  0  2  0  0  0  0  0  0
  -30.9270  -14.1530   20.7970 C   0  0  0  0  0  0  0  0  0  0  0  0
  -30.4050  -12.2730   19.3270 C   0  0  0  0  0  2  0  0  0  0  0  0
  -29.4590  -12.5460   18.1540 C   0  0  0  0  0  2  0  0  0  0  0  0
  -27.9970  -12.3870   18.6000 C   0  0  0  0  0  2  0  0  0  0  0  0
  -27.6720  -13.2120   19.8730 C   0  0  0  0  0  3  0  0  0  0  0  0
  -28.7260  -12.9860   20.9840 C   0  0  0  0  0  2  0  0  0  0  0  0
  -30.0770  -13.1750   20.4300 N   0  0  0  0  0  0  0  0  0  0  0  0
  -31.6700  -14.7710   20.0310 O   0  0  0  0  0  0  0  0  0  0  0  0
  -31.2410  -14.0720   22.0940 N   0  0  0  0  0  0  0  0  0  0  0  0
  -31.5100  -14.9720   22.4630 H   0  0  0  0  0  0  0  0  0  0  0  0
  -25.2630  -13.8180   20.5700 C   0  0  0  0  0  0  0  0  0  0  0  0
  -24.1880  -13.0430   20.9200 C   0  0  0  0  0  0  0  0  0  0  0  0
  -24.6460  -11.6910   20.8760 C   0  0  0  0  0  0  0  0  0  0  0  0
  -26.3110  -12.9390   20.3420 N   0  0  0  0  0  0  0  0  0  0  0  0
  -25.9400  -11.6530   20.5790 N   0  0  0  0  0  0  0  0  0  0  0  0
  -23.9120  -10.4300   21.0420 C   0  0  0  0  0  0  0  0  0  0  0  0
  -24.3650   -9.4210   21.9190 C   0  0  0  0  0  3  0  0  0  0  0  0
  -23.6300   -8.2250   22.0780 C   0  0  0  0  0  3  0  0  0  0  0  0
  -22.4270   -8.0310   21.3570 C   0  0  0  0  0  0  0  0  0  0  0  0
  -21.9930   -9.0300   20.4680 C   0  0  0  0  0  3  0  0  0  0  0  0
  -22.7300  -10.2160   20.3070 C   0  0  0  0  0  3  0  0  0  0  0  0
  -21.6610   -6.8910   21.4270 O   0  0  0  0  0  0  0  0  0  0  0  0
  -21.6850   -6.0760   22.5300 C   0  0  0  0  0  0  0  0  0  0  0  0
  -21.4030   -6.5660   23.8240 C   0  0  0  0  0  3  0  0  0  0  0  0
  -21.3630   -5.6800   24.9190 C   0  0  0  0  0  3  0  0  0  0  0  0
  -21.6030   -4.3070   24.7240 C   0  0  0  0  0  0  0  0  0  0  0  0
  -21.8820   -3.8170   23.4350 C   0  0  0  0  0  3  0  0  0  0  0  0
  -21.9190   -4.6990   22.3420 C   0  0  0  0  0  0  0  0  0  0  0  0
  -22.1650   -4.2190   21.0990 F   0  0  0  0  0  0  0  0  0  0  0  0
  -21.5590   -3.4540   25.7730 F   0  0  0  0  0  0  0  0  0  0  0  0
  -22.7900  -13.5230   21.1850 C   0  0  0  0  0  0  0  0  0  0  0  0
  -22.0490  -12.8250   22.0410 N   0  0  0  0  0  0  0  0  0  0  0  0
  -22.3580  -14.5530   20.6690 O   0  0  0  0  0  0  0  0  0  0  0  0
  -22.4070  -11.9940   22.4870 H   0  0  0  0  0  0  0  0  0  0  0  0
  -21.1080  -13.1300   22.2510 H   0  0  0  0  0  0  0  0  0  0  0  0
  -25.4290  -15.1900   20.4100 N   0  0  0  0  0  0  0  0  0  0  0  0
  -24.6640  -15.8460   20.5280 H   0  0  0  0  0  0  0  0  0  0  0  0
  -26.2920  -15.6370   20.1240 H   0  0  0  0  0  0  0  0  0  0  0  0
  1 55  1  0
  2  1  1  0
  3  2  1  0
  3  5  1  0
  4  3  1  0
  6  3  1  0
  7 11  1  0
  9  7  2  0
  9 12  1  0
 10  8  1  0
 11  6  1  0
 11  8  2  0
 12 10  2  0
 13 12  1  0
 13 14  1  0
 15 26  2  0
 16 14  1  0
 16 21  1  0
 17 25  1  0
 17 27  1  0
 18 24  1  0
 18 20  1  0
 19 25  1  0
 20 19  1  0
 21 20  2  0
 22 23  1  0
 22 16  2  0
 23 18  2  0
 24 17  1  0
 25 15  1  0
 27 29  2  0
 28 27  1  0
 30 28  1  0
 31 40  2  0
 31 36  1  0
 32 28  1  0
 32 36  1  0
 33 32  1  0
 34 35  1  0
 34 33  1  0
 35 31  1  0
 36 37  2  0
 37 38  1  0
 39 38  2  0
 40 39  1  0
 41 15  1  0
 41 42  1  0
 41 51  1  0
 42 45  1  0
 43 47  1  0
 43 42  1  0
 44 43  2  0
 47 46  1  0
 49 47  1  0
 49 50  1  0
 49 48  1  0
 51 54  1  1
 51 52  1  0
 53 51  1  0
 55 56  1  0
 56 57  1  0
 57 58  1  0
 58 59  1  0
 59 60  1  0
 61 60  1  0
 61 62  1  0
 63 61  1  0
 64 61  1  0
 65 64  1  0
 66 65  1  0
 67 66  1  0
 68 67  1  0
 69 68  1  0
 70 78  1  0
 71 76  1  0
 72 73  1  0
 72 71  1  0
 74 73  1  0
 74 83  1  0
 74 75  1  0
 76 70  1  0
 76 75  1  0
 77 70  2  0
 78 79  1  0
 78 69  1  0
 80 81  2  0
 81100  1  0
 82 81  1  0
 82 85  1  0
 83 80  1  0
 83 84  1  0
 84 82  2  0
 85 86  1  0
 86 87  2  0
 88 91  1  0
 88 87  1  0
 89 88  2  0
 90 89  1  0
 90 85  2  0
 91 92  1  0
 92 93  1  0
 93 94  2  0
 95 94  1  0
 95 99  1  0
 96 95  2  0
 97 92  2  0
 97 96  1  0
 98 97  1  0
100101  1  0
101104  1  0
101103  1  0
102100  2  0
105106  1  0
105 80  1  0
107105  1  0
M  ISO  4  13 101  14 101  70 100  78 100
M  END
>  <TORSDO>  (49) 
F 34

>  <SCORE>  (49) 
24.360

>  <name>  (49) 
48

>  <ligand_id>  (49) 
48

>  <original_smiles>  (49) 
[H]c1c([H])c([H])c2c(c1[H])C([H])([H])C([H])([H])C([H])([H])C2([H])N([H])C(=O)C1([H])N(C(=O)C([H])(N([H])C(=O)C([H])(N([H])C([H])([H])[H])C([H])([H])[H])C(C([H])([H])[H])(C([H])([H])[H])C([H])([H])[H])C([H])([H])c2c([H])c(OC([H])([H])c3c([H])c([H])c(C([H])([H])[N+]([H])([H])C([H])([H])C([H])([H])C([H])([H])C([H])([H])C([H])([H])C([H])([H])C([H])([H])C([H])([H])[N+]([H])([H])C([H])([H])C([H])([H])C([H])([H])C([H])([H])C([H])([H])C([H])([H])N([H])C(=O)N4C([H])([H])C([H])([H])C([H])([H])C([H])(n5nc(-c6c([H])c([H])c(Oc7c([H])c([H])c(F)c([H])c7F)c([H])c6[H])c(C(=O)N([H])[H])c5N([H])[H])C4([H])[H])c([H])c3[H])c([H])c([H])c2C1([H])[H]

>  <smiles>  (49) 
[H]c1c([H])c([H])c2c(c1[H])C([H])([H])C([H])([H])C([H])([H])C2([H])N([H])C(=O)C1([H])N(C(=O)C([H])(N([H])C(=O)C([H])(N([H])C([H])([H])[H])C([H])([H])[H])C(C([H])([H])[H])(C([H])([H])[H])C([H])([H])[H])C([H])([H])c2c([H])c(OC([H])([H])c3c([H])c([H])c(C([H])([H])[N+]([H])([H])C([H])([H])C([H])([H])C([H])([H])C([H])([H])C([H])([H])C([H])([H])C([H])([H])C([H])([H])[N+]([H])([H])C([H])([H])C([H])([H])C([H])([H])C([H])([H])C([H])([H])C([H])([H])N([H])C(=O)N4C([H])([H])C([H])([H])C([H])([H])C([H])(n5nc(-c6c([H])c([H])c(Oc7c([H])c([H])c(F)c([H])c7F)c([H])c6[H])c(C(=O)N([H])[H])c5N([H])[H])C4([H])[H])c([H])c3[H])c([H])c([H])c2C1([H])[H]

$$$$
49:0:0
     RDKit          3D

102110  0  0  1  0  0  0  0  0999 V2000
  -27.6940  -22.6280   21.1320 C   0  0  0  0  0  0  0  0  0  0  0  0
  -29.9860  -22.1260   20.6930 C   0  0  0  0  0  3  0  0  0  0  0  0
  -29.8440  -23.4280   21.4810 C   0  0  0  0  0  3  0  0  0  0  0  0
  -28.5630  -21.6780   20.2900 C   0  0  2  0  0  0  0  0  0  0  0  0
  -28.4250  -23.5570   21.7610 N   0  0  0  0  0  0  0  0  0  0  0  0
  -26.4640  -22.5330   21.1760 O   0  0  0  0  0  0  0  0  0  0  0  0
  -27.8380  -24.6160   22.5970 C   0  0  0  0  0  2  0  0  0  0  0  0
  -28.7720  -25.7540   23.0920 C   0  0  0  0  0  2  0  0  0  0  0  0
  -29.5020  -26.6140   22.0290 C   0  0  0  0  0  2  0  0  0  0  0  0
  -28.7820  -26.7180   20.8040 O   0  0  0  0  0  0  0  0  0  0  0  0
  -24.6180  -31.9420   23.3710 C   0  0  0  0  0  0  0  0  0  0  0  0
  -27.6230  -27.4560   20.7600 C   0  0  0  0  0  0  0  0  0  0  0  0
  -23.5810  -30.4170   21.7120 C   0  0  0  0  0  3  0  0  0  0  0  0
  -25.1890  -28.8580   20.4950 C   0  0  0  0  0  0  0  0  0  0  0  0
  -26.0980  -30.8580   21.6840 C   0  0  0  0  0  2  0  0  0  0  0  0
  -26.2760  -29.4550   21.1470 C   0  0  0  0  0  0  0  0  0  0  0  0
  -27.4900  -28.7560   21.2980 C   0  0  0  0  0  3  0  0  0  0  0  0
  -26.5260  -26.8730   20.0920 C   0  0  0  0  0  3  0  0  0  0  0  0
  -25.3020  -27.5560   19.9770 C   0  0  0  0  0  3  0  0  0  0  0  0
  -23.9210  -29.6720   20.3920 C   0  0  0  0  0  2  0  0  0  0  0  0
  -24.7790  -31.0880   22.3200 N   0  0  0  0  0  0  0  0  0  0  0  0
  -23.4910  -32.2190   23.8050 O   0  0  0  0  0  0  0  0  0  0  0  0
  -22.8810  -29.4290   22.6690 C   0  0  0  0  0  0  0  0  0  0  0  0
  -21.5740  -29.2170   22.4540 N   0  0  0  0  0  0  0  0  0  0  0  0
  -23.5150  -28.8510   23.5560 O   0  0  0  0  0  0  0  0  0  0  0  0
  -21.1290  -29.7270   21.7020 H   0  0  0  0  0  0  0  0  0  0  0  0
  -18.1810  -28.0270   22.7800 C   0  0  0  0  0  0  0  0  0  0  0  0
  -20.7170  -28.3000   23.2010 C   0  0  0  0  0  3  0  0  0  0  0  0
  -20.8630  -26.8540   22.6710 C   0  0  0  0  0  2  0  0  0  0  0  0
  -19.8230  -26.4990   21.6050 C   0  0  0  0  0  2  0  0  0  0  0  0
  -18.4030  -26.6570   22.1620 C   0  0  0  0  0  2  0  0  0  0  0  0
  -19.2710  -28.8040   23.2550 C   0  0  0  0  0  0  0  0  0  0  0  0
  -19.0190  -30.0850   23.7890 C   0  0  0  0  0  3  0  0  0  0  0  0
  -17.7070  -30.5930   23.8560 C   0  0  0  0  0  3  0  0  0  0  0  0
  -16.6300  -29.8110   23.4010 C   0  0  0  0  0  3  0  0  0  0  0  0
  -16.8660  -28.5310   22.8690 C   0  0  0  0  0  3  0  0  0  0  0  0
  -25.8360  -32.6350   24.0590 C   0  0  0  0  0  3  0  0  0  0  0  0
  -25.4840  -34.0450   24.2690 N   0  0  0  0  0  0  0  0  0  0  0  0
  -25.8700  -35.0500   23.4710 C   0  0  0  0  0  0  0  0  0  0  0  0
  -26.6300  -34.8920   22.5120 O   0  0  0  0  0  0  0  0  0  0  0  0
  -24.8070  -34.2460   24.9900 H   0  0  0  0  0  0  0  0  0  0  0  0
  -24.1450  -36.7670   22.8480 C   0  0  0  0  0  1  0  0  0  0  0  0
  -25.3200  -36.4550   23.7870 C   0  0  0  0  0  3  0  0  0  0  0  0
  -27.3640  -37.4300   24.7270 C   0  0  0  0  0  1  0  0  0  0  0  0
  -26.3410  -37.5210   23.6890 N   0  0  0  0  0  0  0  0  0  0  0  0
  -25.9080  -38.4380   23.7580 H   0  0  0  0  0  0  0  0  0  0  0  0
  -26.2580  -31.9520   25.4150 C   0  0  1  0  0  0  0  0  0  0  0  0
  -25.0710  -31.7110   26.3740 C   0  0  0  0  0  1  0  0  0  0  0  0
  -26.9340  -30.5860   25.1510 C   0  0  0  0  0  1  0  0  0  0  0  0
  -27.3090  -32.8240   26.1420 C   0  0  0  0  0  1  0  0  0  0  0  0
  -28.2950  -21.8800   18.7650 C   0  0  0  0  0  2  0  0  0  0  0  0
  -28.1960  -23.3440   18.2740 C   0  0  0  0  0  2  0  0  0  0  0  0
  -28.7670  -23.5680   16.8640 C   0  0  0  0  0  2  0  0  0  0  0  0
  -30.2330  -23.7630   16.8890 N   0  0  0  0  0  4  0  0  0  0  0  0
  -30.6900  -22.8740   17.0160 H   0  0  0  0  0  0  0  0  0  0  0  0
  -30.4560  -24.3530   17.6740 H   0  0  0  0  0  0  0  0  0  0  0  0
  -30.7710  -24.4120   15.6780 C   0  0  0  0  0  2  0  0  0  0  0  0
  -32.2190  -24.8900   15.8730 C   0  0  0  0  0  2  0  0  0  0  0  0
  -34.1820  -26.1680   14.8170 C   0  0  0  0  0  1  0  0  0  0  0  0
  -32.7370  -25.6730   14.6560 C   0  0  0  0  0  2  0  0  0  0  0  0
  -28.2910  -20.2010   20.7040 C   0  0  0  0  0  2  0  0  0  0  0  0
  -29.3060  -19.1690   20.1560 C   0  0  0  0  0  2  0  0  0  0  0  0
  -29.0630  -17.7350   20.6630 C   0  0  0  0  0  2  0  0  0  0  0  0
  -30.3530  -16.8910   20.6950 C   0  0  0  0  0  2  0  0  0  0  0  0
  -30.7850  -14.4650   20.3990 C   0  0  0  0  0  0  0  0  0  0  0  0
  -30.4830  -12.3010   19.2740 C   0  0  0  0  0  2  0  0  0  0  0  0
  -29.5540  -12.5040   18.0580 C   0  0  0  0  0  2  0  0  0  0  0  0
  -28.0720  -12.4030   18.4740 C   0  0  0  0  0  2  0  0  0  0  0  0
  -27.7350  -13.2740   19.7130 C   0  0  0  0  0  3  0  0  0  0  0  0
  -28.7660  -13.0370   20.8380 C   0  0  0  0  0  2  0  0  0  0  0  0
  -30.1100  -13.2940   20.2900 N   0  0  0  0  0  0  0  0  0  0  0  0
  -31.9190  -14.6460   19.9430 O   0  0  0  0  0  0  0  0  0  0  0  0
  -30.0520  -15.4760   20.8780 N   0  0  0  0  0  0  0  0  0  0  0  0
  -29.1320  -15.2350   21.2180 H   0  0  0  0  0  0  0  0  0  0  0  0
  -25.3350  -13.9510   20.3630 C   0  0  0  0  0  0  0  0  0  0  0  0
  -24.2480  -13.2080   20.7350 C   0  0  0  0  0  0  0  0  0  0  0  0
  -24.6820  -11.8470   20.7460 C   0  0  0  0  0  0  0  0  0  0  0  0
  -26.3690  -13.0440   20.1760 N   0  0  0  0  0  0  0  0  0  0  0  0
  -25.9770  -11.7760   20.4610 N   0  0  0  0  0  0  0  0  0  0  0  0
  -23.9300  -10.6050   20.9570 C   0  0  0  0  0  0  0  0  0  0  0  0
  -24.3410   -9.6440   21.9070 C   0  0  0  0  0  3  0  0  0  0  0  0
  -23.5910   -8.4650   22.1030 C   0  0  0  0  0  3  0  0  0  0  0  0
  -22.4140   -8.2380   21.3490 C   0  0  0  0  0  0  0  0  0  0  0  0
  -22.0220   -9.1870   20.3880 C   0  0  0  0  0  3  0  0  0  0  0  0
  -22.7730  -10.3580   20.1910 C   0  0  0  0  0  3  0  0  0  0  0  0
  -21.6350   -7.1110   21.4560 O   0  0  0  0  0  0  0  0  0  0  0  0
  -21.5790   -6.3810   22.6160 C   0  0  0  0  0  0  0  0  0  0  0  0
  -21.1890   -6.9600   23.8430 C   0  0  0  0  0  3  0  0  0  0  0  0
  -21.0790   -6.1560   24.9960 C   0  0  0  0  0  3  0  0  0  0  0  0
  -21.3470   -4.7770   24.9210 C   0  0  0  0  0  0  0  0  0  0  0  0
  -21.7320   -4.1980   23.7000 C   0  0  0  0  0  3  0  0  0  0  0  0
  -21.8450   -4.9990   22.5480 C   0  0  0  0  0  0  0  0  0  0  0  0
  -22.1940   -4.4320   21.3680 F   0  0  0  0  0  0  0  0  0  0  0  0
  -21.2320   -4.0040   26.0260 F   0  0  0  0  0  0  0  0  0  0  0  0
  -22.8540  -13.7190   20.9730 C   0  0  0  0  0  0  0  0  0  0  0  0
  -22.1050  -13.0650   21.8550 N   0  0  0  0  0  0  0  0  0  0  0  0
  -22.4390  -14.7290   20.4090 O   0  0  0  0  0  0  0  0  0  0  0  0
  -22.4530  -12.2460   22.3320 H   0  0  0  0  0  0  0  0  0  0  0  0
  -21.1700  -13.3880   22.0550 H   0  0  0  0  0  0  0  0  0  0  0  0
  -25.5250  -15.3130   20.1510 N   0  0  0  0  0  0  0  0  0  0  0  0
  -24.7560  -15.9720   20.2200 H   0  0  0  0  0  0  0  0  0  0  0  0
  -26.3780  -15.7340   19.8060 H   0  0  0  0  0  0  0  0  0  0  0  0
  1  6  2  0
  1  5  1  0
  2  3  2  0
  3  5  1  0
  4 51  1  6
  4  2  1  0
  4 61  1  0
  4  1  1  0
  5  7  1  0
  7  8  1  0
  9  8  1  0
 10  9  1  0
 11 22  2  0
 12 10  1  0
 12 17  1  0
 13 21  1  0
 13 23  1  0
 14 16  1  0
 15 21  1  0
 16 17  2  0
 16 15  1  0
 18 12  2  0
 19 18  1  0
 19 14  2  0
 20 14  1  0
 20 13  1  0
 21 11  1  0
 23 25  2  0
 24 23  1  0
 26 24  1  0
 27 36  2  0
 27 32  1  0
 28 24  1  0
 28 32  1  0
 29 28  1  0
 30 31  1  0
 30 29  1  0
 31 27  1  0
 32 33  2  0
 33 34  1  0
 35 34  2  0
 36 35  1  0
 37 11  1  0
 37 38  1  0
 37 47  1  0
 38 41  1  0
 39 43  1  0
 39 38  1  0
 40 39  2  0
 43 42  1  0
 45 46  1  0
 45 43  1  0
 45 44  1  0
 47 50  1  1
 47 48  1  0
 49 47  1  0
 52 51  1  0
 53 54  1  0
 53 52  1  0
 54 55  1  0
 54 56  1  0
 57 58  1  0
 57 54  1  0
 60 59  1  0
 60 58  1  0
 62 63  1  0
 62 61  1  0
 63 64  1  0
 64 73  1  0
 65 73  1  0
 66 71  1  0
 67 68  1  0
 67 66  1  0
 69 68  1  0
 69 78  1  0
 69 70  1  0
 71 65  1  0
 71 70  1  0
 72 65  2  0
 73 74  1  0
 75 76  2  0
 76 77  1  0
 76 95  1  0
 77 80  1  0
 78 75  1  0
 78 79  1  0
 79 77  2  0
 80 81  1  0
 81 82  2  0
 83 86  1  0
 83 82  1  0
 84 83  2  0
 85 84  1  0
 85 80  2  0
 86 87  1  0
 87 88  1  0
 88 89  2  0
 90 89  1  0
 90 94  1  0
 91 90  2  0
 92 87  2  0
 92 91  1  0
 93 92  1  0
 95 96  1  0
 96 99  1  0
 96 98  1  0
 97 95  2  0
100101  1  0
100 75  1  0
102100  1  0
M  ISO  4   9 101  10 101  65 100  73 100
M  END
>  <TORSDO>  (50) 
F 30

>  <SCORE>  (50) 
-10.574

>  <name>  (50) 
49

>  <ligand_id>  (50) 
49

>  <original_smiles>  (50) 
[H]c1c([H])c([H])c2c(c1[H])C([H])([H])C([H])([H])C([H])([H])C2([H])N([H])C(=O)C1([H])N(C(=O)C([H])(N([H])C(=O)C([H])(N([H])C([H])([H])[H])C([H])([H])[H])C(C([H])([H])[H])(C([H])([H])[H])C([H])([H])[H])C([H])([H])c2c([H])c(OC([H])([H])C([H])([H])C([H])([H])N3C(=O)C(C([H])([H])C([H])([H])C([H])([H])C([H])([H])N([H])C(=O)N4C([H])([H])C([H])([H])C([H])([H])C([H])(n5nc(-c6c([H])c([H])c(Oc7c([H])c([H])c(F)c([H])c7F)c([H])c6[H])c(C(=O)N([H])[H])c5N([H])[H])C4([H])[H])(C([H])([H])C([H])([H])C([H])([H])[N+]([H])([H])C([H])([H])C([H])([H])C([H])([H])C([H])([H])[H])C([H])([H])C3([H])[H])c([H])c([H])c2C1([H])[H]

>  <smiles>  (50) 
[H]c1c([H])c([H])c2c(c1[H])C([H])([H])C([H])([H])C([H])([H])C2([H])N([H])C(=O)C1([H])N(C(=O)C([H])(N([H])C(=O)C([H])(N([H])C([H])([H])[H])C([H])([H])[H])C(C([H])([H])[H])(C([H])([H])[H])C([H])([H])[H])C([H])([H])c2c([H])c(OC([H])([H])C([H])([H])C([H])([H])N3C(=O)C(C([H])([H])C([H])([H])C([H])([H])C([H])([H])N([H])C(=O)N4C([H])([H])C([H])([H])C([H])([H])C([H])(n5nc(-c6c([H])c([H])c(Oc7c([H])c([H])c(F)c([H])c7F)c([H])c6[H])c(C(=O)N([H])[H])c5N([H])[H])C4([H])[H])(C([H])([H])C([H])([H])C([H])([H])[N+]([H])([H])C([H])([H])C([H])([H])C([H])([H])C([H])([H])[H])C([H])([H])C3([H])[H])c([H])c([H])c2C1([H])[H]

$$$$
50:0:0
     RDKit          3D

101111  0  0  1  0  0  0  0  0999 V2000
  -30.9390  -22.6330   19.6810 C   0  0  0  0  0  3  0  0  0  0  0  0
  -31.6250  -21.5230   19.1540 C   0  0  0  0  0  3  0  0  0  0  0  0
  -29.8490  -21.1880   21.3050 C   0  0  0  0  0  3  0  0  0  0  0  0
  -30.5520  -20.0660   20.7960 C   0  0  0  0  0  0  0  0  0  0  0  0
  -30.0390  -22.4740   20.7520 C   0  0  0  0  0  0  0  0  0  0  0  0
  -31.4480  -20.2290   19.7020 C   0  0  0  0  0  0  0  0  0  0  0  0
  -32.0700  -17.8880   19.8880 C   0  0  0  0  0  3  0  0  0  0  0  0
  -30.3670  -18.7140   21.4250 C   0  0  0  0  0  0  0  0  0  0  0  0
  -31.2530  -17.6210   20.9220 C   0  0  0  0  0  0  0  0  0  0  0  0
  -32.1400  -19.0960   19.2130 N   0  0  0  0  0  0  0  0  0  0  0  0
  -29.5370  -18.5270   22.3230 O   0  0  0  0  0  0  0  0  0  0  0  0
  -32.6030  -19.2940   16.6890 C   0  0  0  0  0  2  0  0  0  0  0  0
  -33.0970  -19.2910   18.1250 C   0  0  0  0  0  3  0  0  0  0  0  0
  -33.4500  -18.1470   17.1910 C   0  0  0  0  0  3  0  0  0  0  0  0
  -34.8450  -18.1680   16.7130 N   0  0  0  0  0  4  0  0  0  0  0  0
  -35.2290  -19.0940   16.7020 H   0  0  0  0  0  0  0  0  0  0  0  0
  -34.9120  -17.7880   15.7860 H   0  0  0  0  0  0  0  0  0  0  0  0
  -35.4240  -17.6030   17.3080 H   0  0  0  0  0  0  0  0  0  0  0  0
  -29.2730  -23.6790   21.2890 C   0  0  0  0  0  2  0  0  0  0  0  0
  -28.1570  -24.1490   20.3300 C   0  0  0  0  0  2  0  0  0  0  0  0
  -28.5450  -25.3740   19.4740 C   0  0  0  0  0  2  0  0  0  0  0  0
  -28.4200  -26.6030   20.1980 O   0  0  0  0  0  0  0  0  0  0  0  0
  -24.5760  -31.7780   23.2090 C   0  0  0  0  0  0  0  0  0  0  0  0
  -27.2180  -27.2870   20.1870 C   0  0  0  0  0  0  0  0  0  0  0  0
  -23.3760  -30.3740   21.5650 C   0  0  0  0  0  3  0  0  0  0  0  0
  -24.8270  -28.8070   20.1760 C   0  0  0  0  0  0  0  0  0  0  0  0
  -25.9050  -30.7050   21.3930 C   0  0  0  0  0  2  0  0  0  0  0  0
  -25.9830  -29.3270   20.7690 C   0  0  0  0  0  0  0  0  0  0  0  0
  -27.1770  -28.5730   20.7730 C   0  0  0  0  0  3  0  0  0  0  0  0
  -26.0320  -26.7740   19.6060 C   0  0  0  0  0  3  0  0  0  0  0  0
  -24.8450  -27.5290   19.5960 C   0  0  0  0  0  3  0  0  0  0  0  0
  -23.5950  -29.6780   20.1960 C   0  0  0  0  0  2  0  0  0  0  0  0
  -24.6370  -30.9680   22.1140 N   0  0  0  0  0  0  0  0  0  0  0  0
  -23.4920  -32.0690   23.7320 O   0  0  0  0  0  0  0  0  0  0  0  0
  -22.7030  -29.3690   22.5270 C   0  0  0  0  0  0  0  0  0  0  0  0
  -21.3830  -29.1830   22.3700 N   0  0  0  0  0  0  0  0  0  0  0  0
  -23.3670  -28.7590   23.3700 O   0  0  0  0  0  0  0  0  0  0  0  0
  -20.9100  -29.7310   21.6660 H   0  0  0  0  0  0  0  0  0  0  0  0
  -18.0050  -27.9620   22.7760 C   0  0  0  0  0  0  0  0  0  0  0  0
  -20.5470  -28.2560   23.1340 C   0  0  0  0  0  3  0  0  0  0  0  0
  -20.6860  -26.8100   22.6030 C   0  0  0  0  0  2  0  0  0  0  0  0
  -19.6270  -26.4480   21.5580 C   0  0  0  0  0  2  0  0  0  0  0  0
  -18.2210  -26.5960   22.1450 C   0  0  0  0  0  2  0  0  0  0  0  0
  -19.0990  -28.7480   23.2270 C   0  0  0  0  0  0  0  0  0  0  0  0
  -18.8480  -30.0250   23.7740 C   0  0  0  0  0  3  0  0  0  0  0  0
  -17.5340  -30.5180   23.8770 C   0  0  0  0  0  3  0  0  0  0  0  0
  -16.4530  -29.7310   23.4440 C   0  0  0  0  0  3  0  0  0  0  0  0
  -16.6890  -28.4560   22.8990 C   0  0  0  0  0  3  0  0  0  0  0  0
  -25.8610  -32.4000   23.8400 C   0  0  0  0  0  3  0  0  0  0  0  0
  -25.5550  -33.7970   24.1740 N   0  0  0  0  0  0  0  0  0  0  0  0
  -25.8940  -34.8510   23.4190 C   0  0  0  0  0  0  0  0  0  0  0  0
  -26.5730  -34.7510   22.3930 O   0  0  0  0  0  0  0  0  0  0  0  0
  -24.9530  -33.9520   24.9690 H   0  0  0  0  0  0  0  0  0  0  0  0
  -24.1720  -36.6550   23.0590 C   0  0  0  0  0  1  0  0  0  0  0  0
  -25.4070  -36.2400   23.8780 C   0  0  0  0  0  3  0  0  0  0  0  0
  -27.5360  -37.1160   24.7270 C   0  0  0  0  0  1  0  0  0  0  0  0
  -26.4430  -37.2910   23.7760 N   0  0  0  0  0  0  0  0  0  0  0  0
  -26.0370  -38.2120   23.9240 H   0  0  0  0  0  0  0  0  0  0  0  0
  -26.3710  -31.6200   25.1120 C   0  0  1  0  0  0  0  0  0  0  0  0
  -25.2740  -31.3740   26.1750 C   0  0  0  0  0  1  0  0  0  0  0  0
  -26.9530  -30.2430   24.7150 C   0  0  0  0  0  1  0  0  0  0  0  0
  -27.5230  -32.4060   25.7820 C   0  0  0  0  0  1  0  0  0  0  0  0
  -31.3430  -16.3050   21.7010 C   0  0  0  0  0  2  0  0  0  0  0  0
  -31.1060  -14.2880   20.2020 C   0  0  0  0  0  0  0  0  0  0  0  0
  -30.6280  -12.2180   18.9390 C   0  0  0  0  0  2  0  0  0  0  0  0
  -29.6550  -12.4810   17.7720 C   0  0  0  0  0  2  0  0  0  0  0  0
  -28.1900  -12.4080   18.2500 C   0  0  0  0  0  2  0  0  0  0  0  0
  -27.9360  -13.2510   19.5270 C   0  0  0  0  0  3  0  0  0  0  0  0
  -29.0050  -12.9460   20.5980 C   0  0  0  0  0  2  0  0  0  0  0  0
  -30.3320  -13.1870   20.0040 N   0  0  0  0  0  0  0  0  0  0  0  0
  -32.1660  -14.4800   19.6010 O   0  0  0  0  0  0  0  0  0  0  0  0
  -30.6350  -15.1630   21.1050 N   0  0  0  0  0  0  0  0  0  0  0  0
  -29.7450  -14.9230   21.5190 H   0  0  0  0  0  0  0  0  0  0  0  0
  -25.5880  -13.9810   20.2940 C   0  0  0  0  0  0  0  0  0  0  0  0
  -24.4930  -13.2620   20.6960 C   0  0  0  0  0  0  0  0  0  0  0  0
  -24.8870  -11.8910   20.6610 C   0  0  0  0  0  0  0  0  0  0  0  0
  -26.5830  -13.0470   20.0410 N   0  0  0  0  0  0  0  0  0  0  0  0
  -26.1650  -11.7860   20.3180 N   0  0  0  0  0  0  0  0  0  0  0  0
  -24.1070  -10.6660   20.8780 C   0  0  0  0  0  0  0  0  0  0  0  0
  -24.5050   -9.6930   21.8210 C   0  0  0  0  0  3  0  0  0  0  0  0
  -23.7290   -8.5320   22.0240 C   0  0  0  0  0  3  0  0  0  0  0  0
  -22.5380   -8.3370   21.2850 C   0  0  0  0  0  0  0  0  0  0  0  0
  -22.1590   -9.2980   20.3300 C   0  0  0  0  0  3  0  0  0  0  0  0
  -22.9350  -10.4490   20.1260 C   0  0  0  0  0  3  0  0  0  0  0  0
  -21.7330   -7.2300   21.3970 O   0  0  0  0  0  0  0  0  0  0  0  0
  -21.6400   -6.5230   22.5690 C   0  0  0  0  0  0  0  0  0  0  0  0
  -21.2290   -7.1310   23.7760 C   0  0  0  0  0  3  0  0  0  0  0  0
  -21.0800   -6.3530   24.9410 C   0  0  0  0  0  3  0  0  0  0  0  0
  -21.3330   -4.9690   24.9020 C   0  0  0  0  0  0  0  0  0  0  0  0
  -21.7380   -4.3610   23.7010 C   0  0  0  0  0  3  0  0  0  0  0  0
  -21.8890   -5.1360   22.5380 C   0  0  0  0  0  0  0  0  0  0  0  0
  -22.2580   -4.5410   21.3770 F   0  0  0  0  0  0  0  0  0  0  0  0
  -21.1830   -4.2200   26.0200 F   0  0  0  0  0  0  0  0  0  0  0  0
  -23.1280  -13.8080   21.0050 C   0  0  0  0  0  0  0  0  0  0  0  0
  -22.3960  -13.1580   21.9010 N   0  0  0  0  0  0  0  0  0  0  0  0
  -22.7230  -14.8460   20.4850 O   0  0  0  0  0  0  0  0  0  0  0  0
  -22.7360  -12.3160   22.3440 H   0  0  0  0  0  0  0  0  0  0  0  0
  -21.4800  -13.5040   22.1490 H   0  0  0  0  0  0  0  0  0  0  0  0
  -25.8140  -15.3400   20.1030 N   0  0  0  0  0  0  0  0  0  0  0  0
  -25.0840  -16.0330   20.2330 H   0  0  0  0  0  0  0  0  0  0  0  0
  -26.6810  -15.7370   19.7610 H   0  0  0  0  0  0  0  0  0  0  0  0
  1  5  1  0
  2  1  2  0
  2  6  1  0
  4  3  1  0
  4  8  1  0
  5 19  1  0
  5  3  2  0
  6  4  2  0
  7  9  2  0
  8 11  2  0
  9  8  1  0
  9 63  1  0
 10  6  1  0
 10  7  1  0
 12 14  1  0
 13 12  1  0
 13 10  1  0
 14 15  1  0
 14 13  1  0
 15 18  1  0
 16 15  1  0
 17 15  1  0
 20 19  1  0
 21 22  1  0
 21 20  1  0
 23 34  2  0
 24 22  1  0
 24 29  1  0
 25 33  1  0
 25 35  1  0
 26 32  1  0
 26 28  1  0
 27 33  1  0
 28 29  2  0
 28 27  1  0
 30 24  2  0
 31 30  1  0
 31 26  2  0
 32 25  1  0
 33 23  1  0
 35 37  2  0
 36 35  1  0
 38 36  1  0
 39 48  2  0
 39 44  1  0
 40 36  1  0
 40 44  1  0
 41 40  1  0
 42 43  1  0
 42 41  1  0
 43 39  1  0
 44 45  2  0
 45 46  1  0
 47 46  2  0
 48 47  1  0
 49 23  1  0
 49 50  1  0
 49 59  1  0
 50 53  1  0
 51 55  1  0
 51 50  1  0
 52 51  2  0
 55 54  1  0
 57 55  1  0
 57 58  1  0
 57 56  1  0
 59 62  1  1
 59 60  1  0
 61 59  1  0
 64 72  1  0
 65 70  1  0
 66 67  1  0
 66 65  1  0
 68 67  1  0
 68 77  1  0
 68 69  1  0
 70 64  1  0
 70 69  1  0
 71 64  2  0
 72 73  1  0
 72 63  1  0
 74 75  2  0
 75 94  1  0
 76 75  1  0
 76 79  1  0
 77 74  1  0
 77 78  1  0
 78 76  2  0
 79 80  1  0
 80 81  2  0
 82 85  1  0
 82 81  1  0
 83 82  2  0
 84 83  1  0
 84 79  2  0
 85 86  1  0
 86 87  1  0
 87 88  2  0
 89 88  1  0
 89 93  1  0
 90 89  2  0
 91 86  2  0
 91 90  1  0
 92 91  1  0
 94 95  1  0
 95 98  1  0
 95 97  1  0
 96 94  2  0
 99100  1  0
 99 74  1  0
101 99  1  0
M  ISO  4  21 101  22 101  64 100  72 100
M  END
>  <TORSDO>  (51) 
F 22

>  <SCORE>  (51) 
-12.336

>  <name>  (51) 
50

>  <ligand_id>  (51) 
50

>  <original_smiles>  (51) 
[H]c1c([H])c([H])c2c(c1[H])C([H])([H])C([H])([H])C([H])([H])C2([H])N([H])C(=O)C1([H])N(C(=O)C([H])(N([H])C(=O)C([H])(N([H])C([H])([H])[H])C([H])([H])[H])C(C([H])([H])[H])(C([H])([H])[H])C([H])([H])[H])C([H])([H])c2c([H])c(OC([H])([H])C([H])([H])C([H])([H])c3c([H])c([H])c4c(c3[H])c(=O)c(C([H])([H])N([H])C(=O)N3C([H])([H])C([H])([H])C([H])([H])C([H])(n5nc(-c6c([H])c([H])c(Oc7c([H])c([H])c(F)c([H])c7F)c([H])c6[H])c(C(=O)N([H])[H])c5N([H])[H])C3([H])[H])c([H])n4C3([H])C([H])([H])C3([H])[N+]([H])([H])[H])c([H])c([H])c2C1([H])[H]

>  <smiles>  (51) 
[H]c1c([H])c([H])c2c(c1[H])C([H])([H])C([H])([H])C([H])([H])C2([H])N([H])C(=O)C1([H])N(C(=O)C([H])(N([H])C(=O)C([H])(N([H])C([H])([H])[H])C([H])([H])[H])C(C([H])([H])[H])(C([H])([H])[H])C([H])([H])[H])C([H])([H])c2c([H])c(OC([H])([H])C([H])([H])C([H])([H])c3c([H])c([H])c4c(c3[H])c(=O)c(C([H])([H])N([H])C(=O)N3C([H])([H])C([H])([H])C([H])([H])C([H])(n5nc(-c6c([H])c([H])c(Oc7c([H])c([H])c(F)c([H])c7F)c([H])c6[H])c(C(=O)N([H])[H])c5N([H])[H])C3([H])[H])c([H])n4C3([H])C([H])([H])C3([H])[N+]([H])([H])[H])c([H])c([H])c2C1([H])[H]

$$$$
51:0:0
     RDKit          3D

 96105  0  0  1  0  0  0  0  0999 V2000
  -31.0020  -21.7850   21.4010 C   0  0  0  0  0  3  0  0  0  0  0  0
  -31.1350  -21.4390   18.7080 C   0  0  0  0  0  2  0  0  0  0  0  0
  -30.7150  -20.0700   19.2140 C   0  0  0  0  0  3  0  0  0  0  0  0
  -31.4730  -21.0450   20.1230 C   0  0  0  0  0  3  0  0  0  0  0  0
  -29.2220  -19.7490   19.1670 C   0  0  0  0  0  2  0  0  0  0  0  0
  -30.7570  -14.4930   20.2810 C   0  0  0  0  0  0  0  0  0  0  0  0
  -30.4200  -12.3210   19.2080 C   0  0  0  0  0  2  0  0  0  0  0  0
  -29.4920  -12.5540   17.9970 C   0  0  0  0  0  2  0  0  0  0  0  0
  -28.0100  -12.4630   18.4190 C   0  0  0  0  0  2  0  0  0  0  0  0
  -27.6810  -13.2850   19.6980 C   0  0  0  0  0  3  0  0  0  0  0  0
  -28.7440  -13.0680   20.8020 C   0  0  0  0  0  2  0  0  0  0  0  0
  -30.0640  -13.3290   20.2140 N   0  0  0  0  0  0  0  0  0  0  0  0
  -31.9530  -14.5720   19.9870 O   0  0  0  0  0  0  0  0  0  0  0  0
  -29.0910  -17.2890   18.4940 C   0  0  0  0  0  2  0  0  0  0  0  0
  -29.4210  -17.8750   20.9700 C   0  0  0  0  0  2  0  0  0  0  0  0
  -30.2470  -16.3450   18.8370 C   0  0  0  0  0  2  0  0  0  0  0  0
  -29.3820  -16.3400   21.1840 C   0  0  0  0  0  2  0  0  0  0  0  0
  -28.8240  -18.3190   19.6090 C   0  0  0  0  0  3  0  0  0  0  0  0
  -29.9870  -15.5860   20.0710 N   0  0  0  0  0  0  0  0  0  0  0  0
  -25.2800  -13.8900   20.3990 C   0  0  0  0  0  0  0  0  0  0  0  0
  -24.2140  -13.1160   20.7760 C   0  0  0  0  0  0  0  0  0  0  0  0
  -24.6790  -11.7660   20.7570 C   0  0  0  0  0  0  0  0  0  0  0  0
  -26.3290  -13.0090   20.1820 N   0  0  0  0  0  0  0  0  0  0  0  0
  -25.9700  -11.7280   20.4530 N   0  0  0  0  0  0  0  0  0  0  0  0
  -23.9570  -10.5030   20.9590 C   0  0  0  0  0  0  0  0  0  0  0  0
  -24.3840   -9.5560   21.9150 C   0  0  0  0  0  3  0  0  0  0  0  0
  -23.6650   -8.3570   22.1070 C   0  0  0  0  0  3  0  0  0  0  0  0
  -22.5020   -8.0970   21.3430 C   0  0  0  0  0  0  0  0  0  0  0  0
  -22.0950   -9.0320   20.3760 C   0  0  0  0  0  3  0  0  0  0  0  0
  -22.8140  -10.2230   20.1830 C   0  0  0  0  0  3  0  0  0  0  0  0
  -21.7580   -6.9460   21.4390 O   0  0  0  0  0  0  0  0  0  0  0  0
  -21.6860   -6.2280   22.6070 C   0  0  0  0  0  0  0  0  0  0  0  0
  -21.2280   -6.8060   23.8100 C   0  0  0  0  0  3  0  0  0  0  0  0
  -21.1060   -6.0140   24.9700 C   0  0  0  0  0  3  0  0  0  0  0  0
  -21.4310   -4.6440   24.9250 C   0  0  0  0  0  0  0  0  0  0  0  0
  -21.8820   -4.0660   23.7250 C   0  0  0  0  0  3  0  0  0  0  0  0
  -22.0060   -4.8560   22.5680 C   0  0  0  0  0  0  0  0  0  0  0  0
  -22.4190   -4.2890   21.4100 F   0  0  0  0  0  0  0  0  0  0  0  0
  -21.3080   -3.8810   26.0360 F   0  0  0  0  0  0  0  0  0  0  0  0
  -22.8150  -13.5920   21.0400 C   0  0  0  0  0  0  0  0  0  0  0  0
  -22.0860  -12.9000   21.9100 N   0  0  0  0  0  0  0  0  0  0  0  0
  -22.3730  -14.6100   20.5070 O   0  0  0  0  0  0  0  0  0  0  0  0
  -22.4570  -12.0780   22.3640 H   0  0  0  0  0  0  0  0  0  0  0  0
  -21.1450  -13.1980   22.1280 H   0  0  0  0  0  0  0  0  0  0  0  0
  -25.4420  -15.2570   20.2020 N   0  0  0  0  0  0  0  0  0  0  0  0
  -24.6770  -15.9150   20.3060 H   0  0  0  0  0  0  0  0  0  0  0  0
  -26.3030  -15.6880   19.8860 H   0  0  0  0  0  0  0  0  0  0  0  0
  -32.9570  -21.0270   22.9170 C   0  0  0  0  0  1  0  0  0  0  0  0
  -31.4460  -21.0200   22.6670 C   0  0  0  0  0  2  0  0  0  0  0  0
  -29.4990  -22.1120   21.5620 C   0  0  0  0  0  2  0  0  0  0  0  0
  -28.9520  -22.9940   20.5120 N   0  0  0  0  0  4  0  0  0  0  0  0
  -29.2590  -22.6710   19.6070 H   0  0  0  0  0  0  0  0  0  0  0  0
  -27.9490  -22.8830   20.5470 H   0  0  0  0  0  0  0  0  0  0  0  0
  -29.2570  -24.4390   20.6780 C   0  0  0  0  0  2  0  0  0  0  0  0
  -28.2630  -25.2960   19.8920 C   0  0  0  0  0  2  0  0  0  0  0  0
  -28.4000  -26.6910   20.2030 O   0  0  0  0  0  0  0  0  0  0  0  0
  -24.5970  -31.8840   23.2460 C   0  0  0  0  0  0  0  0  0  0  0  0
  -27.2420  -27.4440   20.1570 C   0  0  0  0  0  0  0  0  0  0  0  0
  -23.4030  -30.4940   21.5880 C   0  0  0  0  0  3  0  0  0  0  0  0
  -24.8610  -28.9710   20.1640 C   0  0  0  0  0  0  0  0  0  0  0  0
  -25.9330  -30.8430   21.4150 C   0  0  0  0  0  2  0  0  0  0  0  0
  -26.0160  -29.4760   20.7710 C   0  0  0  0  0  0  0  0  0  0  0  0
  -27.2100  -28.7170   20.7710 C   0  0  0  0  0  3  0  0  0  0  0  0
  -26.0690  -26.9760   19.5160 C   0  0  0  0  0  3  0  0  0  0  0  0
  -24.8830  -27.7210   19.5320 C   0  0  0  0  0  3  0  0  0  0  0  0
  -23.6220  -29.8320   20.2030 C   0  0  0  0  0  2  0  0  0  0  0  0
  -24.6630  -31.0870   22.1420 N   0  0  0  0  0  0  0  0  0  0  0  0
  -23.5110  -32.1550   23.7780 O   0  0  0  0  0  0  0  0  0  0  0  0
  -22.7450  -29.4620   22.5350 C   0  0  0  0  0  0  0  0  0  0  0  0
  -21.4230  -29.2750   22.3900 N   0  0  0  0  0  0  0  0  0  0  0  0
  -23.4200  -28.8340   23.3550 O   0  0  0  0  0  0  0  0  0  0  0  0
  -20.9380  -29.8390   21.7050 H   0  0  0  0  0  0  0  0  0  0  0  0
  -18.0460  -28.0680   22.8310 C   0  0  0  0  0  0  0  0  0  0  0  0
  -20.5970  -28.3350   23.1480 C   0  0  0  0  0  3  0  0  0  0  0  0
  -20.7140  -26.9030   22.5780 C   0  0  0  0  0  2  0  0  0  0  0  0
  -19.6320  -26.5720   21.5470 C   0  0  0  0  0  2  0  0  0  0  0  0
  -18.2390  -26.7160   22.1650 C   0  0  0  0  0  2  0  0  0  0  0  0
  -19.1540  -28.8340   23.2790 C   0  0  0  0  0  0  0  0  0  0  0  0
  -18.9210  -30.0990   23.8610 C   0  0  0  0  0  3  0  0  0  0  0  0
  -17.6120  -30.5970   24.0040 C   0  0  0  0  0  3  0  0  0  0  0  0
  -16.5170  -29.8280   23.5720 C   0  0  0  0  0  3  0  0  0  0  0  0
  -16.7350  -28.5660   22.9900 C   0  0  0  0  0  3  0  0  0  0  0  0
  -25.8790  -32.5110   23.8760 C   0  0  0  0  0  3  0  0  0  0  0  0
  -25.5760  -33.9110   24.2010 N   0  0  0  0  0  0  0  0  0  0  0  0
  -25.9120  -34.9580   23.4350 C   0  0  0  0  0  0  0  0  0  0  0  0
  -26.5870  -34.8460   22.4070 O   0  0  0  0  0  0  0  0  0  0  0  0
  -24.9850  -34.0720   25.0030 H   0  0  0  0  0  0  0  0  0  0  0  0
  -24.1900  -36.7480   23.0570 C   0  0  0  0  0  1  0  0  0  0  0  0
  -25.4240  -36.3480   23.8810 C   0  0  0  0  0  3  0  0  0  0  0  0
  -27.5560  -37.2310   24.7200 C   0  0  0  0  0  1  0  0  0  0  0  0
  -26.4590  -37.3990   23.7690 N   0  0  0  0  0  0  0  0  0  0  0  0
  -26.0550  -38.3200   23.9090 H   0  0  0  0  0  0  0  0  0  0  0  0
  -26.3840  -31.7380   25.1550 C   0  0  1  0  0  0  0  0  0  0  0  0
  -25.2850  -31.4990   26.2160 C   0  0  0  0  0  1  0  0  0  0  0  0
  -26.9680  -30.3620   24.7620 C   0  0  0  0  0  1  0  0  0  0  0  0
  -27.5310  -32.5300   25.8260 C   0  0  0  0  0  1  0  0  0  0  0  0
  1 50  1  0
  1 49  1  0
  2  3  1  0
  2  4  1  0
  3  5  1  0
  3  4  1  0
  4  1  1  0
  7 12  1  0
  8  9  1  0
  8  7  1  0
 10  9  1  0
 10 23  1  0
 10 11  1  0
 12  6  1  0
 12 11  1  0
 13  6  2  0
 14 16  1  0
 14 18  1  0
 15 17  1  0
 16 19  1  0
 18  5  1  0
 18 15  1  0
 19  6  1  0
 19 17  1  0
 20 21  2  0
 21 40  1  0
 22 21  1  0
 22 25  1  0
 23 20  1  0
 23 24  1  0
 24 22  2  0
 25 26  1  0
 26 27  2  0
 28 31  1  0
 28 27  1  0
 29 28  2  0
 30 29  1  0
 30 25  2  0
 31 32  1  0
 32 33  1  0
 33 34  2  0
 35 34  1  0
 35 39  1  0
 36 35  2  0
 37 32  2  0
 37 36  1  0
 38 37  1  0
 40 41  1  0
 41 44  1  0
 41 43  1  0
 42 40  2  0
 45 46  1  0
 45 20  1  0
 47 45  1  0
 49 48  1  0
 51 53  1  0
 51 54  1  0
 51 50  1  0
 52 51  1  0
 55 56  1  0
 55 54  1  0
 57 68  2  0
 58 56  1  0
 58 63  1  0
 59 67  1  0
 59 69  1  0
 60 66  1  0
 60 62  1  0
 61 67  1  0
 62 63  2  0
 62 61  1  0
 64 65  1  0
 64 58  2  0
 65 60  2  0
 66 59  1  0
 67 57  1  0
 69 71  2  0
 70 69  1  0
 72 70  1  0
 73 82  2  0
 73 78  1  0
 74 70  1  0
 74 78  1  0
 75 74  1  0
 76 77  1  0
 76 75  1  0
 77 73  1  0
 78 79  2  0
 79 80  1  0
 81 80  2  0
 82 81  1  0
 83 57  1  0
 83 84  1  0
 83 93  1  0
 84 87  1  0
 85 89  1  0
 85 84  1  0
 86 85  2  0
 89 88  1  0
 91 89  1  0
 91 92  1  0
 91 90  1  0
 93 96  1  1
 93 94  1  0
 95 93  1  0
M  ISO  4   6 100  19 100  55 101  56 101
M  END
>  <TORSDO>  (52) 
F 23

>  <SCORE>  (52) 
-12.951

>  <name>  (52) 
51

>  <ligand_id>  (52) 
51

>  <original_smiles>  (52) 
[H]c1c([H])c([H])c2c(c1[H])C([H])([H])C([H])([H])C([H])([H])C2([H])N([H])C(=O)C1([H])N(C(=O)C([H])(N([H])C(=O)C([H])(N([H])C([H])([H])[H])C([H])([H])[H])C(C([H])([H])[H])(C([H])([H])[H])C([H])([H])[H])C([H])([H])c2c([H])c(OC([H])([H])C([H])([H])[N+]([H])([H])C([H])([H])C([H])(C([H])([H])C([H])([H])[H])C3([H])C([H])([H])C3([H])C([H])([H])C3([H])C([H])([H])C([H])([H])N(C(=O)N4C([H])([H])C([H])([H])C([H])([H])C([H])(n5nc(-c6c([H])c([H])c(Oc7c([H])c([H])c(F)c([H])c7F)c([H])c6[H])c(C(=O)N([H])[H])c5N([H])[H])C4([H])[H])C([H])([H])C3([H])[H])c([H])c([H])c2C1([H])[H]

>  <smiles>  (52) 
[H]c1c([H])c([H])c2c(c1[H])C([H])([H])C([H])([H])C([H])([H])C2([H])N([H])C(=O)C1([H])N(C(=O)C([H])(N([H])C(=O)C([H])(N([H])C([H])([H])[H])C([H])([H])[H])C(C([H])([H])[H])(C([H])([H])[H])C([H])([H])[H])C([H])([H])c2c([H])c(OC([H])([H])C([H])([H])[N+]([H])([H])C([H])([H])C([H])(C([H])([H])C([H])([H])[H])C3([H])C([H])([H])C3([H])C([H])([H])C3([H])C([H])([H])C([H])([H])N(C(=O)N4C([H])([H])C([H])([H])C([H])([H])C([H])(n5nc(-c6c([H])c([H])c(Oc7c([H])c([H])c(F)c([H])c7F)c([H])c6[H])c(C(=O)N([H])[H])c5N([H])[H])C4([H])[H])C([H])([H])C3([H])[H])c([H])c([H])c2C1([H])[H]

$$$$
52:0:0
     RDKit          3D

 92101  0  0  1  0  0  0  0  0999 V2000
  -31.3790  -19.7040   19.2570 C   0  0  0  0  0  2  0  0  0  0  0  0
  -31.1570  -14.7440   18.8170 C   0  0  0  0  0  0  0  0  0  0  0  0
  -30.5820  -12.5410   17.7370 C   0  0  0  0  0  2  0  0  0  0  0  0
  -29.3510  -12.6180   16.8060 C   0  0  0  0  0  2  0  0  0  0  0  0
  -28.0510  -12.3550   17.5950 C   0  0  0  0  0  2  0  0  0  0  0  0
  -27.9840  -13.2320   18.8570 C   0  0  0  0  0  3  0  0  0  0  0  0
  -29.3070  -13.1920   19.6770 C   0  0  0  0  0  2  0  0  0  0  0  0
  -30.4120  -13.5780   18.7860 N   0  0  0  0  0  0  0  0  0  0  0  0
  -32.2870  -14.7300   18.3150 O   0  0  0  0  0  0  0  0  0  0  0  0
  -29.4960  -16.6750   21.7140 C   0  0  0  0  0  0  0  0  0  0  0  0
  -31.0290  -16.6140   21.5330 C   0  0  0  0  0  2  0  0  0  0  0  0
  -29.2010  -16.3860   19.2470 C   0  0  0  0  0  2  0  0  0  0  0  0
  -29.3790  -18.6430   20.2290 C   0  0  0  0  0  2  0  0  0  0  0  0
  -28.8010  -17.2560   20.4690 C   0  0  0  0  0  3  0  0  0  0  0  0
  -31.3440  -17.0670   20.0650 C   0  0  0  0  0  3  0  0  0  0  0  0
  -30.6230  -15.9640   19.2880 N   0  0  0  0  0  0  0  0  0  0  0  0
  -30.8560  -18.5500   20.0890 N   0  0  1  0  0  4  0  0  0  0  0  0
  -28.8980  -16.2850   22.7190 O   0  0  0  0  0  0  0  0  0  0  0  0
  -31.2080  -18.8220   20.9930 H   0  0  0  0  0  0  0  0  0  0  0  0
  -26.0350  -13.9120   20.3950 C   0  0  0  0  0  0  0  0  0  0  0  0
  -25.0280  -13.1790   20.9560 C   0  0  0  0  0  0  0  0  0  0  0  0
  -25.2810  -11.8260   20.5800 C   0  0  0  0  0  0  0  0  0  0  0  0
  -26.8300  -13.0010   19.7100 N   0  0  0  0  0  0  0  0  0  0  0  0
  -26.4110  -11.7310   19.8970 N   0  0  0  0  0  0  0  0  0  0  0  0
  -24.4770  -10.6210   20.7630 C   0  0  0  0  0  0  0  0  0  0  0  0
  -24.9090   -9.5730   21.6040 C   0  0  0  0  0  3  0  0  0  0  0  0
  -24.1080   -8.4240   21.7720 C   0  0  0  0  0  3  0  0  0  0  0  0
  -22.8650   -8.3210   21.1030 C   0  0  0  0  0  0  0  0  0  0  0  0
  -22.4580   -9.3580   20.2450 C   0  0  0  0  0  3  0  0  0  0  0  0
  -23.2570  -10.4980   20.0740 C   0  0  0  0  0  3  0  0  0  0  0  0
  -22.0320   -7.2330   21.1880 O   0  0  0  0  0  0  0  0  0  0  0  0
  -21.7940   -6.6060   22.3840 C   0  0  0  0  0  0  0  0  0  0  0  0
  -21.3010   -7.3010   23.5080 C   0  0  0  0  0  3  0  0  0  0  0  0
  -21.0090   -6.6020   24.6970 C   0  0  0  0  0  3  0  0  0  0  0  0
  -21.2010   -5.2080   24.7590 C   0  0  0  0  0  0  0  0  0  0  0  0
  -21.6870   -4.5140   23.6390 C   0  0  0  0  0  3  0  0  0  0  0  0
  -21.9830   -5.2110   22.4540 C   0  0  0  0  0  0  0  0  0  0  0  0
  -22.4350   -4.5320   21.3710 F   0  0  0  0  0  0  0  0  0  0  0  0
  -20.9110   -4.5360   25.8970 F   0  0  0  0  0  0  0  0  0  0  0  0
  -23.8380  -13.7160   21.6960 C   0  0  0  0  0  0  0  0  0  0  0  0
  -23.3230  -12.9600   22.6600 N   0  0  0  0  0  0  0  0  0  0  0  0
  -23.3820  -14.8290   21.4440 O   0  0  0  0  0  0  0  0  0  0  0  0
  -23.7110  -12.0550   22.8780 H   0  0  0  0  0  0  0  0  0  0  0  0
  -22.5300  -13.2950   23.1890 H   0  0  0  0  0  0  0  0  0  0  0  0
  -26.2930  -15.2760   20.3770 N   0  0  0  0  0  0  0  0  0  0  0  0
  -25.6090  -15.9210   20.7590 H   0  0  0  0  0  0  0  0  0  0  0  0
  -26.9310  -15.7120   19.7240 H   0  0  0  0  0  0  0  0  0  0  0  0
  -30.9980  -21.1630   19.8350 C   0  0  0  0  0  3  0  0  0  0  0  0
  -30.4890  -22.3300   18.8650 C   0  0  0  0  0  3  0  0  0  0  0  0
  -30.1880  -23.8150   19.4550 C   0  0  0  0  0  2  0  0  0  0  0  0
  -28.8960  -24.7960   19.3110 C   0  0  0  0  0  2  0  0  0  0  0  0
  -28.9940  -26.2780   19.3980 O   0  0  0  0  0  0  0  0  0  0  0  0
  -24.7630  -31.1060   22.7540 C   0  0  0  0  0  0  0  0  0  0  0  0
  -27.8010  -27.0350   19.4060 C   0  0  0  0  0  0  0  0  0  0  0  0
  -23.7110  -29.8080   20.9360 C   0  0  0  0  0  3  0  0  0  0  0  0
  -25.3180  -28.4780   19.4490 C   0  0  0  0  0  0  0  0  0  0  0  0
  -26.2310  -30.3010   20.8870 C   0  0  0  0  0  2  0  0  0  0  0  0
  -26.4330  -28.9900   20.1290 C   0  0  0  0  0  0  0  0  0  0  0  0
  -27.6720  -28.2820   20.0970 C   0  0  0  0  0  3  0  0  0  0  0  0
  -26.6500  -26.5730   18.7190 C   0  0  0  0  0  3  0  0  0  0  0  0
  -25.4270  -27.2680   18.7450 C   0  0  0  0  0  3  0  0  0  0  0  0
  -24.0290  -29.2750   19.5130 C   0  0  0  0  0  2  0  0  0  0  0  0
  -24.9190  -30.4140   21.5860 N   0  0  0  0  0  0  0  0  0  0  0  0
  -23.6430  -31.2760   23.2590 O   0  0  0  0  0  0  0  0  0  0  0  0
  -23.0630  -28.6730   21.7660 C   0  0  0  0  0  0  0  0  0  0  0  0
  -21.7530  -28.4460   21.5670 N   0  0  0  0  0  0  0  0  0  0  0  0
  -23.7400  -28.0020   22.5450 O   0  0  0  0  0  0  0  0  0  0  0  0
  -21.2620  -29.0350   20.9130 H   0  0  0  0  0  0  0  0  0  0  0  0
  -18.4100  -27.0980   21.8500 C   0  0  0  0  0  0  0  0  0  0  0  0
  -20.9560  -27.4020   22.2100 C   0  0  0  0  0  3  0  0  0  0  0  0
  -21.1200  -26.0560   21.4710 C   0  0  0  0  0  2  0  0  0  0  0  0
  -20.0440  -25.8170   20.4070 C   0  0  0  0  0  2  0  0  0  0  0  0
  -18.6450  -25.8400   21.0300 C   0  0  0  0  0  2  0  0  0  0  0  0
  -19.4940  -27.8390   22.3930 C   0  0  0  0  0  0  0  0  0  0  0  0
  -19.2180  -29.0180   23.1200 C   0  0  0  0  0  3  0  0  0  0  0  0
  -17.8940  -29.4540   23.3150 C   0  0  0  0  0  3  0  0  0  0  0  0
  -16.8240  -28.7080   22.7880 C   0  0  0  0  0  3  0  0  0  0  0  0
  -17.0840  -27.5350   22.0590 C   0  0  0  0  0  3  0  0  0  0  0  0
  -25.9820  -31.7410   23.4910 C   0  0  0  0  0  3  0  0  0  0  0  0
  -26.5390  -30.8280   24.6480 C   0  0  1  0  0  0  0  0  0  0  0  0
  -25.4480  -30.3330   25.6270 C   0  0  0  0  0  1  0  0  0  0  0  0
  -27.2460  -29.5790   24.0690 C   0  0  0  0  0  1  0  0  0  0  0  0
  -27.6040  -31.6000   25.4580 C   0  0  0  0  0  1  0  0  0  0  0  0
  -25.5600  -33.0500   24.0120 N   0  0  0  0  0  0  0  0  0  0  0  0
  -25.8160  -34.2210   23.4150 C   0  0  0  0  0  0  0  0  0  0  0  0
  -26.4990  -34.3140   22.3930 O   0  0  0  0  0  0  0  0  0  0  0  0
  -24.9470  -33.0450   24.8150 H   0  0  0  0  0  0  0  0  0  0  0  0
  -23.9490  -35.8960   23.2900 C   0  0  0  0  0  1  0  0  0  0  0  0
  -25.2200  -35.4890   24.0530 C   0  0  0  0  0  3  0  0  0  0  0  0
  -27.2620  -36.4310   25.0330 C   0  0  0  0  0  1  0  0  0  0  0  0
  -26.1590  -36.6280   24.0950 N   0  0  0  0  0  0  0  0  0  0  0  0
  -25.6760  -37.4830   24.3460 H   0  0  0  0  0  0  0  0  0  0  0  0
  1 48  1  0
  1 17  1  0
  2 16  1  0
  3  8  1  0
  4  5  1  0
  4  3  1  0
  6  5  1  0
  6  7  1  0
  6 23  1  0
  8  2  1  0
  8  7  1  0
  9  2  2  0
 10 18  2  0
 11 10  1  0
 12 16  1  0
 13 14  1  0
 14 12  1  0
 14 10  1  0
 15 17  1  0
 15 11  1  0
 16 15  1  0
 17 13  1  0
 17 19  1  1
 20 21  2  0
 21 40  1  0
 22 25  1  0
 22 21  1  0
 23 24  1  0
 23 20  1  0
 24 22  2  0
 25 26  1  0
 26 27  2  0
 28 31  1  0
 28 27  1  0
 29 28  2  0
 30 29  1  0
 30 25  2  0
 31 32  1  0
 32 37  2  0
 32 33  1  0
 33 34  2  0
 34 35  1  0
 35 39  1  0
 36 35  2  0
 37 36  1  0
 38 37  1  0
 40 41  1  0
 41 43  1  0
 41 44  1  0
 42 40  2  0
 45 20  1  0
 45 46  1  0
 47 45  1  0
 49 50  1  0
 49 48  2  0
 51 52  1  0
 51 50  1  0
 52 54  1  0
 53 64  2  0
 54 59  1  0
 55 63  1  0
 55 65  1  0
 56 62  1  0
 56 58  1  0
 57 63  1  0
 58 57  1  0
 59 58  2  0
 60 61  1  0
 60 54  2  0
 61 56  2  0
 62 55  1  0
 63 53  1  0
 65 67  2  0
 66 65  1  0
 68 66  1  0
 69 78  2  0
 69 74  1  0
 70 66  1  0
 70 74  1  0
 71 70  1  0
 72 73  1  0
 72 71  1  0
 73 69  1  0
 74 75  2  0
 75 76  1  0
 77 76  2  0
 78 77  1  0
 79 53  1  0
 79 84  1  0
 79 80  1  0
 80 83  1  1
 80 81  1  0
 82 80  1  0
 84 87  1  0
 85 84  1  0
 85 89  1  0
 86 85  2  0
 89 88  1  0
 89 91  1  0
 91 92  1  0
 91 90  1  0
M  ISO  4   2 100  16 100  51 101  52 101
M  END
>  <TORSDO>  (53) 
F 20

>  <SCORE>  (53) 
-5.997

>  <name>  (53) 
52

>  <ligand_id>  (53) 
52

>  <original_smiles>  (53) 
[H]c1c([H])c([H])c2c(c1[H])C([H])([H])C([H])([H])C([H])([H])C2([H])N([H])C(=O)C1([H])N(C(=O)C([H])(N([H])C(=O)C([H])(N([H])C([H])([H])[H])C([H])([H])[H])C(C([H])([H])[H])(C([H])([H])[H])C([H])([H])[H])C([H])([H])c2c([H])c(OC([H])([H])C([H])([H])C([H])([H])C([H])([H])C([H])([H])[N+]3([H])C([H])([H])C4([H])C(=O)C([H])([H])C3([H])N(C(=O)N3C([H])([H])C([H])([H])C([H])([H])C([H])(n5nc(-c6c([H])c([H])c(Oc7c([H])c([H])c(F)c([H])c7F)c([H])c6[H])c(C(=O)N([H])[H])c5N([H])[H])C3([H])[H])C4([H])[H])c([H])c([H])c2C1([H])[H]

>  <smiles>  (53) 
[H]c1c([H])c([H])c2c(c1[H])C([H])([H])C([H])([H])C([H])([H])C2([H])N([H])C(=O)C1([H])N(C(=O)C([H])(N([H])C(=O)C([H])(N([H])C([H])([H])[H])C([H])([H])[H])C(C([H])([H])[H])(C([H])([H])[H])C([H])([H])[H])C([H])([H])c2c([H])c(OC([H])([H])C([H])([H])C([H])([H])C([H])([H])C([H])([H])[N+]3([H])C([H])([H])C4([H])C(=O)C([H])([H])C3([H])N(C(=O)N3C([H])([H])C([H])([H])C([H])([H])C([H])(n5nc(-c6c([H])c([H])c(Oc7c([H])c([H])c(F)c([H])c7F)c([H])c6[H])c(C(=O)N([H])[H])c5N([H])[H])C3([H])[H])C4([H])[H])c([H])c([H])c2C1([H])[H]

$$$$
53:0:0
     RDKit          3D

103113  0  0  1  0  0  0  0  0999 V2000
  -26.4800  -17.6370   18.8410 C   0  0  0  0  0  2  0  0  0  0  0  0
  -25.2980  -18.3580   19.4980 C   0  0  0  0  0  2  0  0  0  0  0  0
  -26.7250  -19.8610   20.7600 C   0  0  0  0  0  2  0  0  0  0  0  0
  -27.8370  -18.3920   18.8660 C   0  0  0  0  0  3  0  0  0  0  0  0
  -28.0290  -19.3390   20.0990 C   0  0  0  0  0  3  0  0  0  0  0  0
  -25.6720  -18.8320   20.8370 N   0  0  0  0  0  4  0  0  0  0  0  0
  -25.9680  -18.0430   21.3930 H   0  0  0  0  0  0  0  0  0  0  0  0
  -24.8570  -19.2360   21.2750 H   0  0  0  0  0  0  0  0  0  0  0  0
  -28.9660  -17.3210   18.6580 C   0  0  0  0  0  2  0  0  0  0  0  0
  -30.8820  -17.4530   20.4800 C   0  0  0  0  0  0  0  0  0  0  0  0
  -31.4700  -16.4920   18.6800 C   0  0  0  0  0  2  0  0  0  0  0  0
  -30.4510  -17.6130   18.9870 C   0  0  0  0  0  3  0  0  0  0  0  0
  -32.0080  -16.4750   20.1320 C   0  0  0  0  0  3  0  0  0  0  0  0
  -30.4300  -17.8110   21.5670 O   0  0  0  0  0  0  0  0  0  0  0  0
  -32.3350  -14.0560   20.4950 C   0  0  0  0  0  0  0  0  0  0  0  0
  -31.6980  -11.9460   19.4210 C   0  0  0  0  0  2  0  0  0  0  0  0
  -30.8410  -12.2190   18.1550 C   0  0  0  0  0  2  0  0  0  0  0  0
  -29.4390  -12.7950   18.4740 C   0  0  0  0  0  2  0  0  0  0  0  0
  -29.0830  -12.7000   19.9560 C   0  0  0  0  0  3  0  0  0  0  0  0
  -30.1350  -12.9950   21.0300 C   0  0  0  0  0  2  0  0  0  0  0  0
  -31.4760  -13.0130   20.4140 N   0  0  0  0  0  0  0  0  0  0  0  0
  -33.4810  -14.0410   20.0530 O   0  0  0  0  0  0  0  0  0  0  0  0
  -31.7530  -15.2130   20.8160 N   0  0  0  0  0  0  0  0  0  0  0  0
  -30.8560  -15.1370   21.2680 H   0  0  0  0  0  0  0  0  0  0  0  0
  -26.8320  -13.9710   20.6050 C   0  0  0  0  0  0  0  0  0  0  0  0
  -25.6110  -13.4030   20.8610 C   0  0  0  0  0  0  0  0  0  0  0  0
  -25.8150  -11.9970   20.7680 C   0  0  0  0  0  0  0  0  0  0  0  0
  -27.6890  -12.9010   20.3270 N   0  0  0  0  0  0  0  0  0  0  0  0
  -27.0530  -11.7330   20.4650 N   0  0  0  0  0  0  0  0  0  0  0  0
  -24.9330  -10.8510   20.8860 C   0  0  0  0  0  0  0  0  0  0  0  0
  -25.1540   -9.8650   21.8740 C   0  0  0  0  0  3  0  0  0  0  0  0
  -24.2930   -8.7530   21.9640 C   0  0  0  0  0  3  0  0  0  0  0  0
  -23.2000   -8.6370   21.0720 C   0  0  0  0  0  0  0  0  0  0  0  0
  -23.0150   -9.6060   20.0680 C   0  0  0  0  0  3  0  0  0  0  0  0
  -23.8810  -10.7020   19.9680 C   0  0  0  0  0  3  0  0  0  0  0  0
  -22.3130   -7.5910   21.0730 O   0  0  0  0  0  0  0  0  0  0  0  0
  -21.8750   -7.0320   22.2440 C   0  0  0  0  0  0  0  0  0  0  0  0
  -21.1160   -7.7610   23.1830 C   0  0  0  0  0  3  0  0  0  0  0  0
  -20.6290   -7.1240   24.3400 C   0  0  0  0  0  3  0  0  0  0  0  0
  -20.8950   -5.7600   24.5600 C   0  0  0  0  0  0  0  0  0  0  0  0
  -21.6460   -5.0300   23.6200 C   0  0  0  0  0  3  0  0  0  0  0  0
  -22.1360   -5.6650   22.4670 C   0  0  0  0  0  0  0  0  0  0  0  0
  -22.8480   -4.9540   21.5550 F   0  0  0  0  0  0  0  0  0  0  0  0
  -20.4130   -5.1420   25.6650 F   0  0  0  0  0  0  0  0  0  0  0  0
  -24.3030  -14.0850   21.1400 C   0  0  0  0  0  0  0  0  0  0  0  0
  -23.4620  -13.4600   21.9530 N   0  0  0  0  0  0  0  0  0  0  0  0
  -24.0360  -15.1910   20.6740 O   0  0  0  0  0  0  0  0  0  0  0  0
  -22.5790  -13.8860   22.1900 H   0  0  0  0  0  0  0  0  0  0  0  0
  -23.6740  -12.5470   22.3230 H   0  0  0  0  0  0  0  0  0  0  0  0
  -27.2670  -15.2880   20.6240 N   0  0  0  0  0  0  0  0  0  0  0  0
  -26.8770  -15.8130   21.3940 H   0  0  0  0  0  0  0  0  0  0  0  0
  -28.2680  -15.4150   20.5960 H   0  0  0  0  0  0  0  0  0  0  0  0
  -28.9100  -20.5230   19.6370 C   0  0  0  0  0  2  0  0  0  0  0  0
  -29.2870  -21.6280   20.6480 C   0  0  0  0  0  2  0  0  0  0  0  0
  -30.1580  -24.0940   20.7620 C   0  0  0  0  0  2  0  0  0  0  0  0
  -28.6180  -24.5090   19.0120 C   0  0  0  0  0  2  0  0  0  0  0  0
  -29.6770  -25.2280   19.8350 C   0  0  0  0  0  3  0  0  0  0  0  0
  -29.9840  -22.8070   19.9200 C   0  0  0  0  0  3  0  0  0  0  0  0
  -29.2270  -23.2180   18.7170 N   0  0  0  0  0  4  0  0  0  0  0  0
  -29.8810  -23.3460   17.9610 H   0  0  0  0  0  0  0  0  0  0  0  0
  -28.5380  -22.5370   18.4360 H   0  0  0  0  0  0  0  0  0  0  0  0
  -29.1670  -26.4920   20.5410 C   0  0  0  0  0  2  0  0  0  0  0  0
  -29.0410  -27.5750   19.6080 O   0  0  0  0  0  0  0  0  0  0  0  0
  -24.6070  -31.6060   23.3640 C   0  0  0  0  0  0  0  0  0  0  0  0
  -27.8000  -28.1560   19.6600 C   0  0  0  0  0  0  0  0  0  0  0  0
  -23.5750  -30.2530   21.5700 C   0  0  0  0  0  3  0  0  0  0  0  0
  -25.1980  -29.2030   19.9110 C   0  0  0  0  0  0  0  0  0  0  0  0
  -25.9910  -31.0710   21.3680 C   0  0  0  0  0  2  0  0  0  0  0  0
  -26.2780  -29.8370   20.5410 C   0  0  0  0  0  0  0  0  0  0  0  0
  -27.5860  -29.3220   20.4170 C   0  0  0  0  0  3  0  0  0  0  0  0
  -26.7110  -27.5450   19.0040 C   0  0  0  0  0  3  0  0  0  0  0  0
  -25.4090  -28.0510   19.1370 C   0  0  0  0  0  3  0  0  0  0  0  0
  -23.8310  -29.8150   20.1030 C   0  0  0  0  0  2  0  0  0  0  0  0
  -24.7420  -30.9840   22.1600 N   0  0  0  0  0  0  0  0  0  0  0  0
  -23.5200  -31.6170   23.9600 O   0  0  0  0  0  0  0  0  0  0  0  0
  -23.1490  -29.0130   22.3860 C   0  0  0  0  0  0  0  0  0  0  0  0
  -21.9070  -28.5540   22.1680 N   0  0  0  0  0  0  0  0  0  0  0  0
  -23.9380  -28.4700   23.1650 O   0  0  0  0  0  0  0  0  0  0  0  0
  -21.3260  -29.0590   21.5130 H   0  0  0  0  0  0  0  0  0  0  0  0
  -18.9630  -26.4600   22.1900 C   0  0  0  0  0  0  0  0  0  0  0  0
  -21.2980  -27.3850   22.8020 C   0  0  0  0  0  3  0  0  0  0  0  0
  -21.8610  -26.0740   22.2070 C   0  0  0  0  0  2  0  0  0  0  0  0
  -21.0200  -25.5260   21.0490 C   0  0  0  0  0  2  0  0  0  0  0  0
  -19.5850  -25.2530   21.5110 C   0  0  0  0  0  2  0  0  0  0  0  0
  -19.7680  -27.4680   22.7850 C   0  0  0  0  0  0  0  0  0  0  0  0
  -19.1420  -28.5870   23.3750 C   0  0  0  0  0  3  0  0  0  0  0  0
  -17.7400  -28.7080   23.3790 C   0  0  0  0  0  3  0  0  0  0  0  0
  -16.9460  -27.6980   22.8060 C   0  0  0  0  0  3  0  0  0  0  0  0
  -17.5580  -26.5750   22.2190 C   0  0  0  0  0  3  0  0  0  0  0  0
  -25.7980  -32.3580   24.0350 C   0  0  0  0  0  3  0  0  0  0  0  0
  -25.3880  -33.7560   24.2180 N   0  0  0  0  0  0  0  0  0  0  0  0
  -25.7820  -34.7710   23.4370 C   0  0  0  0  0  0  0  0  0  0  0  0
  -26.6010  -34.6380   22.5230 O   0  0  0  0  0  0  0  0  0  0  0  0
  -24.6790  -33.9330   24.9150 H   0  0  0  0  0  0  0  0  0  0  0  0
  -24.0620  -36.4480   22.7010 C   0  0  0  0  0  1  0  0  0  0  0  0
  -25.1760  -36.1590   23.7190 C   0  0  0  0  0  3  0  0  0  0  0  0
  -27.1100  -37.2040   24.8110 C   0  0  0  0  0  1  0  0  0  0  0  0
  -26.1710  -37.2520   23.6930 N   0  0  0  0  0  0  0  0  0  0  0  0
  -25.7100  -38.1580   23.7090 H   0  0  0  0  0  0  0  0  0  0  0  0
  -26.2440  -31.7180   25.4060 C   0  0  1  0  0  0  0  0  0  0  0  0
  -25.0780  -31.5090   26.4000 C   0  0  0  0  0  1  0  0  0  0  0  0
  -26.9180  -30.3450   25.1710 C   0  0  0  0  0  1  0  0  0  0  0  0
  -27.2980  -32.6210   26.0870 C   0  0  0  0  0  1  0  0  0  0  0  0
  1  4  1  0
  1  2  1  0
  2  6  1  0
  3  6  1  0
  4  9  1  0
  4  5  1  0
  5 53  1  0
  5  3  1  0
  6  8  1  0
  6  7  1  0
 10 14  2  0
 11 12  1  0
 11 13  1  0
 12  9  1  0
 12 10  1  0
 13 10  1  0
 13 23  1  0
 15 23  1  0
 16 21  1  0
 17 18  1  0
 17 16  1  0
 19 18  1  0
 19 28  1  0
 19 20  1  0
 21 15  1  0
 21 20  1  0
 22 15  2  0
 23 24  1  0
 25 50  1  0
 25 26  2  0
 26 45  1  0
 27 26  1  0
 27 30  1  0
 28 29  1  0
 28 25  1  0
 29 27  2  0
 30 31  1  0
 31 32  2  0
 33 36  1  0
 33 32  1  0
 34 33  2  0
 35 34  1  0
 35 30  2  0
 36 37  1  0
 37 42  2  0
 37 38  1  0
 38 39  2  0
 39 40  1  0
 40 44  1  0
 41 40  2  0
 42 41  1  0
 43 42  1  0
 45 46  1  0
 46 48  1  0
 46 49  1  0
 47 45  2  0
 50 51  1  0
 52 50  1  0
 53 54  1  0
 56 57  1  0
 57 62  1  0
 57 55  1  0
 58 54  1  0
 58 55  1  0
 59 56  1  0
 59 58  1  0
 60 59  1  0
 61 59  1  0
 63 65  1  0
 63 62  1  0
 64 75  2  0
 65 70  1  0
 66 74  1  0
 66 76  1  0
 67 73  1  0
 67 69  1  0
 68 74  1  0
 69 68  1  0
 70 69  2  0
 71 72  1  0
 71 65  2  0
 72 67  2  0
 73 66  1  0
 74 64  1  0
 76 78  2  0
 77 76  1  0
 79 77  1  0
 80 89  2  0
 80 85  1  0
 81 77  1  0
 82 81  1  0
 83 84  1  0
 83 82  1  0
 84 80  1  0
 85 81  1  0
 85 86  2  0
 86 87  1  0
 88 87  2  0
 89 88  1  0
 90 64  1  0
 90 91  1  0
 90100  1  0
 91 94  1  0
 92 96  1  0
 92 91  1  0
 93 92  2  0
 96 95  1  0
 98 99  1  0
 98 96  1  0
 98 97  1  0
100103  1  1
100101  1  0
102100  1  0
M  ISO  4  15 100  23 100  62 101  63 101
M  END
>  <TORSDO>  (54) 
F 22

>  <SCORE>  (54) 
-5.409

>  <name>  (54) 
53

>  <ligand_id>  (54) 
53

>  <original_smiles>  (54) 
[H]c1c([H])c([H])c2c(c1[H])C([H])([H])C([H])([H])C([H])([H])C2([H])N([H])C(=O)C1([H])N(C(=O)C([H])(N([H])C(=O)C([H])(N([H])C([H])([H])[H])C([H])([H])[H])C(C([H])([H])[H])(C([H])([H])[H])C([H])([H])[H])C([H])([H])c2c([H])c(OC([H])([H])C3([H])C([H])([H])C([H])(C([H])([H])C([H])([H])C4([H])C([H])(C([H])([H])C5([H])C(=O)C([H])(N([H])C(=O)N6C([H])([H])C([H])([H])C([H])([H])C([H])(n7nc(-c8c([H])c([H])c(Oc9c([H])c([H])c(F)c([H])c9F)c([H])c8[H])c(C(=O)N([H])[H])c7N([H])[H])C6([H])[H])C5([H])[H])C([H])([H])C([H])([H])[N+]([H])([H])C4([H])[H])[N+]([H])([H])C3([H])[H])c([H])c([H])c2C1([H])[H]

>  <smiles>  (54) 
[H]c1c([H])c([H])c2c(c1[H])C([H])([H])C([H])([H])C([H])([H])C2([H])N([H])C(=O)C1([H])N(C(=O)C([H])(N([H])C(=O)C([H])(N([H])C([H])([H])[H])C([H])([H])[H])C(C([H])([H])[H])(C([H])([H])[H])C([H])([H])[H])C([H])([H])c2c([H])c(OC([H])([H])C3([H])C([H])([H])C([H])(C([H])([H])C([H])([H])C4([H])C([H])(C([H])([H])C5([H])C(=O)C([H])(N([H])C(=O)N6C([H])([H])C([H])([H])C([H])([H])C([H])(n7nc(-c8c([H])c([H])c(Oc9c([H])c([H])c(F)c([H])c9F)c([H])c8[H])c(C(=O)N([H])[H])c7N([H])[H])C6([H])[H])C5([H])[H])C([H])([H])C([H])([H])[N+]([H])([H])C4([H])[H])[N+]([H])([H])C3([H])[H])c([H])c([H])c2C1([H])[H]

$$$$
54:0:0
     RDKit          3D

 95103  0  0  1  0  0  0  0  0999 V2000
  -28.9240  -23.7860   20.8580 C   0  0  0  0  0  2  0  0  0  0  0  0
  -28.6760  -22.7370   21.9330 C   0  0  0  0  0  2  0  0  0  0  0  0
  -29.5430  -24.6190   21.9830 C   0  0  0  0  0  3  0  0  0  0  0  0
  -28.6970  -23.8370   22.9020 N   0  0  2  0  0  4  0  0  0  0  0  0
  -27.7750  -24.2460   22.9410 H   0  0  0  0  0  0  0  0  0  0  0  0
  -29.3390  -26.1380   22.0430 C   0  0  0  0  0  2  0  0  0  0  0  0
  -29.8270  -26.8760   20.7720 C   0  0  0  0  0  2  0  0  0  0  0  0
  -28.9210  -26.7140   19.6690 O   0  0  0  0  0  0  0  0  0  0  0  0
  -24.9650  -31.5140   23.0980 C   0  0  0  0  0  0  0  0  0  0  0  0
  -27.7410  -27.4160   19.7370 C   0  0  0  0  0  0  0  0  0  0  0  0
  -23.7660  -30.1190   21.4390 C   0  0  0  0  0  3  0  0  0  0  0  0
  -25.2470  -28.7350   19.8860 C   0  0  0  0  0  0  0  0  0  0  0  0
  -26.2460  -30.6530   21.1450 C   0  0  0  0  0  2  0  0  0  0  0  0
  -26.3860  -29.3150   20.4550 C   0  0  0  0  0  0  0  0  0  0  0  0
  -27.6300  -28.6650   20.3860 C   0  0  0  0  0  3  0  0  0  0  0  0
  -26.5940  -26.8480   19.1420 C   0  0  0  0  0  3  0  0  0  0  0  0
  -25.3460  -27.4960   19.2220 C   0  0  0  0  0  3  0  0  0  0  0  0
  -23.9520  -29.5040   20.0210 C   0  0  0  0  0  2  0  0  0  0  0  0
  -25.0120  -30.7750   21.9540 N   0  0  0  0  0  0  0  0  0  0  0  0
  -23.8980  -31.6960   23.6980 O   0  0  0  0  0  0  0  0  0  0  0  0
  -23.2180  -29.0220   22.3790 C   0  0  0  0  0  0  0  0  0  0  0  0
  -21.9210  -28.7060   22.2350 N   0  0  0  0  0  0  0  0  0  0  0  0
  -23.9570  -28.4570   23.1890 O   0  0  0  0  0  0  0  0  0  0  0  0
  -21.3830  -29.2270   21.5570 H   0  0  0  0  0  0  0  0  0  0  0  0
  -18.7200  -27.0680   22.5650 C   0  0  0  0  0  0  0  0  0  0  0  0
  -21.1980  -27.6760   22.9780 C   0  0  0  0  0  3  0  0  0  0  0  0
  -21.5280  -26.2650   22.4390 C   0  0  0  0  0  2  0  0  0  0  0  0
  -20.5410  -25.7790   21.3720 C   0  0  0  0  0  2  0  0  0  0  0  0
  -19.1170  -25.7450   21.9340 C   0  0  0  0  0  2  0  0  0  0  0  0
  -19.6970  -27.9820   23.0430 C   0  0  0  0  0  0  0  0  0  0  0  0
  -19.2760  -29.2140   23.5850 C   0  0  0  0  0  3  0  0  0  0  0  0
  -17.9070  -29.5370   23.6660 C   0  0  0  0  0  3  0  0  0  0  0  0
  -16.9450  -28.6200   23.2050 C   0  0  0  0  0  3  0  0  0  0  0  0
  -17.3510  -27.3910   22.6600 C   0  0  0  0  0  3  0  0  0  0  0  0
  -26.2420  -32.1860   23.6950 C   0  0  0  0  0  3  0  0  0  0  0  0
  -26.8920  -31.3550   24.8690 C   0  0  1  0  0  0  0  0  0  0  0  0
  -25.8930  -30.9620   25.9810 C   0  0  0  0  0  1  0  0  0  0  0  0
  -27.5310  -30.0560   24.3230 C   0  0  0  0  0  1  0  0  0  0  0  0
  -28.0310  -32.1730   25.5230 C   0  0  0  0  0  1  0  0  0  0  0  0
  -25.8650  -33.5290   24.1520 N   0  0  0  0  0  0  0  0  0  0  0  0
  -26.0900  -34.6580   23.4650 C   0  0  0  0  0  0  0  0  0  0  0  0
  -26.7120  -34.6800   22.4000 O   0  0  0  0  0  0  0  0  0  0  0  0
  -25.3010  -33.5810   24.9880 H   0  0  0  0  0  0  0  0  0  0  0  0
  -24.2320  -36.3490   23.3350 C   0  0  0  0  0  1  0  0  0  0  0  0
  -25.5360  -35.9700   24.0540 C   0  0  0  0  0  3  0  0  0  0  0  0
  -27.6510  -36.9300   24.8510 C   0  0  0  0  0  1  0  0  0  0  0  0
  -26.4900  -37.0970   23.9810 N   0  0  0  0  0  0  0  0  0  0  0  0
  -26.0320  -37.9710   24.2250 H   0  0  0  0  0  0  0  0  0  0  0  0
  -29.1630  -23.5620   24.2930 C   0  0  0  0  0  2  0  0  0  0  0  0
  -30.4800  -22.7580   24.4640 C   0  0  0  0  0  2  0  0  0  0  0  0
  -30.3340  -21.2200   24.4640 C   0  0  0  0  0  2  0  0  0  0  0  0
  -31.4340  -20.5460   23.6270 C   0  0  0  0  0  2  0  0  0  0  0  0
  -31.2430  -19.0300   23.4590 C   0  0  0  0  0  2  0  0  0  0  0  0
  -31.7720  -18.5300   22.1070 C   0  0  0  0  0  2  0  0  0  0  0  0
  -31.5490  -17.0260   21.9060 C   0  0  0  0  0  2  0  0  0  0  0  0
  -32.2160  -16.4990   20.6280 C   0  0  0  0  0  2  0  0  0  0  0  0
  -32.3800  -14.9720   20.6240 C   0  0  0  0  0  2  0  0  0  0  0  0
  -30.8500  -13.8300   19.0410 C   0  0  0  0  0  0  0  0  0  0  0  0
  -30.1330  -11.6790   18.1060 C   0  0  0  0  0  2  0  0  0  0  0  0
  -28.9780  -11.7510   17.0990 C   0  0  0  0  0  2  0  0  0  0  0  0
  -27.6320  -11.6880   17.8350 C   0  0  0  0  0  2  0  0  0  0  0  0
  -27.5380  -12.7370   18.9720 C   0  0  0  0  0  3  0  0  0  0  0  0
  -28.7820  -12.6900   19.8900 C   0  0  0  0  0  2  0  0  0  0  0  0
  -30.0020  -12.7790   19.0660 N   0  0  0  0  0  0  0  0  0  0  0  0
  -31.5280  -14.1520   18.0600 O   0  0  0  0  0  0  0  0  0  0  0  0
  -31.1490  -14.2710   20.2670 N   0  0  0  0  0  0  0  0  0  0  0  0
  -30.6080  -13.8760   21.0230 H   0  0  0  0  0  0  0  0  0  0  0  0
  -25.4340  -13.5470   20.2200 C   0  0  0  0  0  0  0  0  0  0  0  0
  -24.3890  -12.8670   20.7860 C   0  0  0  0  0  0  0  0  0  0  0  0
  -24.6740  -11.4800   20.6030 C   0  0  0  0  0  0  0  0  0  0  0  0
  -26.2990  -12.5770   19.7320 N   0  0  0  0  0  0  0  0  0  0  0  0
  -25.8540  -11.3260   20.0150 N   0  0  0  0  0  0  0  0  0  0  0  0
  -23.8660  -10.2900   20.9010 C   0  0  0  0  0  0  0  0  0  0  0  0
  -24.3620   -9.2450   21.7100 C   0  0  0  0  0  3  0  0  0  0  0  0
  -23.5590   -8.1190   21.9970 C   0  0  0  0  0  3  0  0  0  0  0  0
  -22.2470   -8.0320   21.4780 C   0  0  0  0  0  0  0  0  0  0  0  0
  -21.7660   -9.0660   20.6530 C   0  0  0  0  0  3  0  0  0  0  0  0
  -22.5670  -10.1820   20.3640 C   0  0  0  0  0  3  0  0  0  0  0  0
  -21.4050   -6.9650   21.6820 O   0  0  0  0  0  0  0  0  0  0  0  0
  -21.4840   -6.1940   22.8130 C   0  0  0  0  0  0  0  0  0  0  0  0
  -21.3600   -6.7500   24.1050 C   0  0  0  0  0  3  0  0  0  0  0  0
  -21.3780   -5.9110   25.2360 C   0  0  0  0  0  3  0  0  0  0  0  0
  -21.5080   -4.5170   25.0800 C   0  0  0  0  0  0  0  0  0  0  0  0
  -21.6240   -3.9610   23.7940 C   0  0  0  0  0  3  0  0  0  0  0  0
  -21.6090   -4.7980   22.6630 C   0  0  0  0  0  0  0  0  0  0  0  0
  -21.7000   -4.2550   21.4250 F   0  0  0  0  0  0  0  0  0  0  0  0
  -21.5160   -3.7100   26.1660 F   0  0  0  0  0  0  0  0  0  0  0  0
  -23.1480  -13.4690   21.3810 C   0  0  0  0  0  0  0  0  0  0  0  0
  -22.5640  -12.8100   22.3750 N   0  0  0  0  0  0  0  0  0  0  0  0
  -22.7170  -14.5550   20.9960 O   0  0  0  0  0  0  0  0  0  0  0  0
  -22.9290  -11.9290   22.7050 H   0  0  0  0  0  0  0  0  0  0  0  0
  -21.7390  -13.1940   22.8150 H   0  0  0  0  0  0  0  0  0  0  0  0
  -25.7150  -14.9000   20.0620 N   0  0  0  0  0  0  0  0  0  0  0  0
  -25.0740  -15.6260   20.3610 H   0  0  0  0  0  0  0  0  0  0  0  0
  -26.5370  -15.2640   19.5950 H   0  0  0  0  0  0  0  0  0  0  0  0
  1  2  1  0
  1  3  1  0
  2  4  1  0
  3  6  1  0
  3  4  1  0
  4  5  1  1
  4 49  1  0
  7  6  1  0
  8 10  1  0
  8  7  1  0
  9 20  2  0
 10 15  1  0
 11 19  1  0
 11 21  1  0
 12 18  1  0
 12 14  1  0
 13 19  1  0
 14 13  1  0
 15 14  2  0
 16 17  1  0
 16 10  2  0
 17 12  2  0
 18 11  1  0
 19  9  1  0
 21 23  2  0
 22 21  1  0
 24 22  1  0
 25 34  2  0
 25 30  1  0
 26 22  1  0
 26 30  1  0
 27 26  1  0
 28 29  1  0
 28 27  1  0
 29 25  1  0
 30 31  2  0
 31 32  1  0
 33 32  2  0
 34 33  1  0
 35  9  1  0
 35 40  1  0
 35 36  1  0
 36 39  1  1
 36 37  1  0
 38 36  1  0
 40 43  1  0
 41 45  1  0
 41 40  1  0
 42 41  2  0
 45 44  1  0
 47 45  1  0
 47 48  1  0
 47 46  1  0
 49 50  1  0
 50 51  1  0
 52 51  1  0
 53 52  1  0
 54 53  1  0
 55 54  1  0
 56 55  1  0
 57 56  1  0
 58 64  1  0
 58 66  1  0
 59 64  1  0
 60 61  1  0
 60 59  1  0
 62 61  1  0
 62 71  1  0
 62 63  1  0
 64 63  1  0
 65 58  2  0
 66 57  1  0
 66 67  1  0
 68 69  2  0
 69 88  1  0
 70 69  1  0
 70 73  1  0
 71 72  1  0
 71 68  1  0
 72 70  2  0
 73 74  1  0
 74 75  2  0
 76 79  1  0
 76 75  1  0
 77 76  2  0
 78 77  1  0
 78 73  2  0
 79 80  1  0
 80 81  1  0
 81 82  2  0
 83 82  1  0
 83 87  1  0
 84 83  2  0
 85 80  2  0
 85 84  1  0
 86 85  1  0
 88 89  1  0
 89 91  1  0
 89 92  1  0
 90 88  2  0
 93 68  1  0
 93 94  1  0
 95 93  1  0
M  ISO  4   7 101   8 101  58 100  66 100
M  END
>  <TORSDO>  (55) 
F 27

>  <SCORE>  (55) 
-7.505

>  <name>  (55) 
54

>  <ligand_id>  (55) 
54

>  <original_smiles>  (55) 
[H]c1c([H])c([H])c2c(c1[H])C([H])([H])C([H])([H])C([H])([H])C2([H])N([H])C(=O)C1([H])N(C(=O)C([H])(N([H])C(=O)C([H])(N([H])C([H])([H])[H])C([H])([H])[H])C(C([H])([H])[H])(C([H])([H])[H])C([H])([H])[H])C([H])([H])c2c([H])c(OC([H])([H])C([H])([H])C3([H])C([H])([H])C([H])([H])[N+]3([H])C([H])([H])C([H])([H])C([H])([H])C([H])([H])C([H])([H])C([H])([H])C([H])([H])C([H])([H])C([H])([H])N([H])C(=O)N3C([H])([H])C([H])([H])C([H])([H])C([H])(n4nc(-c5c([H])c([H])c(Oc6c([H])c([H])c(F)c([H])c6F)c([H])c5[H])c(C(=O)N([H])[H])c4N([H])[H])C3([H])[H])c([H])c([H])c2C1([H])[H]

>  <smiles>  (55) 
[H]c1c([H])c([H])c2c(c1[H])C([H])([H])C([H])([H])C([H])([H])C2([H])N([H])C(=O)C1([H])N(C(=O)C([H])(N([H])C(=O)C([H])(N([H])C([H])([H])[H])C([H])([H])[H])C(C([H])([H])[H])(C([H])([H])[H])C([H])([H])[H])C([H])([H])c2c([H])c(OC([H])([H])C([H])([H])C3([H])C([H])([H])C([H])([H])[N+]3([H])C([H])([H])C([H])([H])C([H])([H])C([H])([H])C([H])([H])C([H])([H])C([H])([H])C([H])([H])C([H])([H])N([H])C(=O)N3C([H])([H])C([H])([H])C([H])([H])C([H])(n4nc(-c5c([H])c([H])c(Oc6c([H])c([H])c(F)c([H])c6F)c([H])c5[H])c(C(=O)N([H])[H])c4N([H])[H])C3([H])[H])c([H])c([H])c2C1([H])[H]

$$$$
55:0:0
     RDKit          3D

 96105  0  0  1  0  0  0  0  0999 V2000
  -27.5580  -23.0280   21.1800 C   0  0  0  0  0  2  0  0  0  0  0  0
  -28.9180  -22.3320   19.1880 C   0  0  0  0  0  2  0  0  0  0  0  0
  -27.7180  -24.4960   20.7910 C   0  0  0  0  0  2  0  0  0  0  0  0
  -29.1070  -23.8000   18.7840 C   0  0  0  0  0  2  0  0  0  0  0  0
  -27.5820  -22.1250   19.9360 C   0  0  0  0  0  3  0  0  0  0  0  0
  -29.0250  -24.7420   20.0000 C   0  0  0  0  0  3  0  0  0  0  0  0
  -27.3220  -20.6630   20.3280 C   0  0  0  0  0  2  0  0  0  0  0  0
  -27.1260  -19.7140   19.1300 C   0  0  0  0  0  2  0  0  0  0  0  0
  -27.7660  -18.3270   19.3290 C   0  0  0  0  0  2  0  0  0  0  0  0
  -29.2030  -18.3390   18.9830 N   0  0  0  0  0  4  0  0  0  0  0  0
  -29.2730  -18.8460   18.1150 H   0  0  0  0  0  0  0  0  0  0  0  0
  -29.7420  -18.8500   19.6650 H   0  0  0  0  0  0  0  0  0  0  0  0
  -31.6290  -14.3170   20.6820 C   0  0  0  0  0  0  0  0  0  0  0  0
  -31.2470  -12.0520   19.9050 C   0  0  0  0  0  2  0  0  0  0  0  0
  -30.4770  -12.1860   18.5760 C   0  0  0  0  0  2  0  0  0  0  0  0
  -28.9580  -12.2630   18.8330 C   0  0  0  0  0  2  0  0  0  0  0  0
  -28.5520  -13.2380   19.9710 C   0  0  0  0  0  3  0  0  0  0  0  0
  -29.4780  -13.1140   21.2030 C   0  0  0  0  0  2  0  0  0  0  0  0
  -30.8630  -13.2010   20.7270 N   0  0  0  0  0  0  0  0  0  0  0  0
  -32.8390  -14.2910   20.9120 O   0  0  0  0  0  0  0  0  0  0  0  0
  -31.5200  -15.8520   17.2820 C   0  0  0  0  0  2  0  0  0  0  0  0
  -30.8690  -17.1910   17.6010 C   0  0  0  0  0  2  0  0  0  0  0  0
  -32.1820  -15.3120   18.5550 C   0  0  0  0  0  2  0  0  0  0  0  0
  -30.4740  -16.3840   19.9960 C   0  0  0  0  0  2  0  0  0  0  0  0
  -29.8320  -17.0230   18.7260 C   0  0  0  0  0  3  0  0  0  0  0  0
  -31.2320  -15.1540   19.6870 N   0  0  0  0  0  0  0  0  0  0  0  0
  -26.1510  -14.0430   20.4160 C   0  0  0  0  0  0  0  0  0  0  0  0
  -24.9850  -13.3670   20.6570 C   0  0  0  0  0  0  0  0  0  0  0  0
  -25.3410  -11.9850   20.7070 C   0  0  0  0  0  0  0  0  0  0  0  0
  -27.1410  -13.0800   20.3160 N   0  0  0  0  0  0  0  0  0  0  0  0
  -26.6520  -11.8380   20.5600 N   0  0  0  0  0  0  0  0  0  0  0  0
  -24.5000  -10.7880   20.8300 C   0  0  0  0  0  0  0  0  0  0  0  0
  -24.8020   -9.7600   21.7520 C   0  0  0  0  0  3  0  0  0  0  0  0
  -23.9610   -8.6340   21.8670 C   0  0  0  0  0  3  0  0  0  0  0  0
  -22.8050   -8.5250   21.0600 C   0  0  0  0  0  0  0  0  0  0  0  0
  -22.5210   -9.5400   20.1320 C   0  0  0  0  0  3  0  0  0  0  0  0
  -23.3610  -10.6600   20.0110 C   0  0  0  0  0  3  0  0  0  0  0  0
  -21.9460   -7.4540   21.0870 O   0  0  0  0  0  0  0  0  0  0  0  0
  -21.7960   -6.6840   22.2140 C   0  0  0  0  0  0  0  0  0  0  0  0
  -21.3680   -7.2330   23.4420 C   0  0  0  0  0  3  0  0  0  0  0  0
  -21.1550   -6.3940   24.5550 C   0  0  0  0  0  3  0  0  0  0  0  0
  -21.3690   -5.0070   24.4400 C   0  0  0  0  0  0  0  0  0  0  0  0
  -21.7940   -4.4580   23.2190 C   0  0  0  0  0  3  0  0  0  0  0  0
  -22.0040   -5.2950   22.1080 C   0  0  0  0  0  0  0  0  0  0  0  0
  -22.3920   -4.7560   20.9260 F   0  0  0  0  0  0  0  0  0  0  0  0
  -21.1610   -4.1990   25.5070 F   0  0  0  0  0  0  0  0  0  0  0  0
  -23.6100  -13.9630   20.7620 C   0  0  0  0  0  0  0  0  0  0  0  0
  -22.7440  -13.3680   21.5750 N   0  0  0  0  0  0  0  0  0  0  0  0
  -23.3140  -14.9960   20.1620 O   0  0  0  0  0  0  0  0  0  0  0  0
  -22.9940  -12.5380   22.0920 H   0  0  0  0  0  0  0  0  0  0  0  0
  -21.8170  -13.7520   21.6900 H   0  0  0  0  0  0  0  0  0  0  0  0
  -26.4610  -15.3890   20.2760 N   0  0  0  0  0  0  0  0  0  0  0  0
  -25.7460  -16.0570   20.5400 H   0  0  0  0  0  0  0  0  0  0  0  0
  -27.3810  -15.6570   20.5900 H   0  0  0  0  0  0  0  0  0  0  0  0
  -29.2390  -26.2040   19.5520 C   0  0  0  0  0  2  0  0  0  0  0  0
  -28.8820  -27.1410   20.5650 O   0  0  0  0  0  0  0  0  0  0  0  0
  -24.5680  -32.0210   23.3980 C   0  0  0  0  0  0  0  0  0  0  0  0
  -27.6500  -27.7570   20.4850 C   0  0  0  0  0  0  0  0  0  0  0  0
  -23.5640  -30.6010   21.6410 C   0  0  0  0  0  3  0  0  0  0  0  0
  -25.1910  -29.1480   20.3320 C   0  0  0  0  0  0  0  0  0  0  0  0
  -26.0810  -31.0540   21.6750 C   0  0  0  0  0  2  0  0  0  0  0  0
  -26.2680  -29.6980   21.0360 C   0  0  0  0  0  0  0  0  0  0  0  0
  -27.4910  -29.0010   21.1300 C   0  0  0  0  0  3  0  0  0  0  0  0
  -26.5470  -27.2190   19.7750 C   0  0  0  0  0  3  0  0  0  0  0  0
  -25.3200  -27.8980   19.7090 C   0  0  0  0  0  3  0  0  0  0  0  0
  -23.9160  -29.9570   20.2760 C   0  0  0  0  0  2  0  0  0  0  0  0
  -24.7500  -31.2380   22.2980 N   0  0  0  0  0  0  0  0  0  0  0  0
  -23.4340  -32.2470   23.8410 O   0  0  0  0  0  0  0  0  0  0  0  0
  -22.8750  -29.5360   22.5230 C   0  0  0  0  0  0  0  0  0  0  0  0
  -21.5710  -29.3200   22.2860 N   0  0  0  0  0  0  0  0  0  0  0  0
  -23.5120  -28.9100   23.3750 O   0  0  0  0  0  0  0  0  0  0  0  0
  -21.1210  -29.8800   21.5760 H   0  0  0  0  0  0  0  0  0  0  0  0
  -18.1940  -28.0640   22.5130 C   0  0  0  0  0  0  0  0  0  0  0  0
  -20.7210  -28.3470   22.9700 C   0  0  0  0  0  3  0  0  0  0  0  0
  -20.8860  -26.9350   22.3590 C   0  0  0  0  0  2  0  0  0  0  0  0
  -19.8620  -26.6300   21.2620 C   0  0  0  0  0  2  0  0  0  0  0  0
  -18.4370  -26.7380   21.8140 C   0  0  0  0  0  2  0  0  0  0  0  0
  -19.2680  -28.8270   23.0420 C   0  0  0  0  0  0  0  0  0  0  0  0
  -18.9910  -30.0700   23.6510 C   0  0  0  0  0  3  0  0  0  0  0  0
  -17.6710  -30.5510   23.7380 C   0  0  0  0  0  3  0  0  0  0  0  0
  -16.6080  -29.7840   23.2290 C   0  0  0  0  0  3  0  0  0  0  0  0
  -16.8710  -28.5420   22.6230 C   0  0  0  0  0  3  0  0  0  0  0  0
  -25.7740  -32.6870   24.1320 C   0  0  0  0  0  3  0  0  0  0  0  0
  -25.4200  -34.0920   24.3690 N   0  0  0  0  0  0  0  0  0  0  0  0
  -25.8220  -35.1160   23.6040 C   0  0  0  0  0  0  0  0  0  0  0  0
  -26.6000  -34.9790   22.6550 O   0  0  0  0  0  0  0  0  0  0  0  0
  -24.7440  -34.2730   25.0950 H   0  0  0  0  0  0  0  0  0  0  0  0
  -24.1160  -36.8580   22.9910 C   0  0  0  0  0  1  0  0  0  0  0  0
  -25.2720  -36.5130   23.9430 C   0  0  0  0  0  3  0  0  0  0  0  0
  -27.3040  -37.4650   24.9410 C   0  0  0  0  0  1  0  0  0  0  0  0
  -26.2970  -37.5800   23.8890 N   0  0  0  0  0  0  0  0  0  0  0  0
  -25.8640  -38.4960   23.9630 H   0  0  0  0  0  0  0  0  0  0  0  0
  -26.1500  -31.9680   25.4850 C   0  0  1  0  0  0  0  0  0  0  0  0
  -24.9390  -31.7130   26.4130 C   0  0  0  0  0  1  0  0  0  0  0  0
  -26.8260  -30.6050   25.2080 C   0  0  0  0  0  1  0  0  0  0  0  0
  -27.1780  -32.8210   26.2650 C   0  0  0  0  0  1  0  0  0  0  0  0
  2  5  1  0
  3  1  1  0
  4  2  1  0
  4  6  1  0
  5  7  1  0
  5  1  1  0
  6 55  1  0
  6  3  1  0
  8  9  1  0
  8  7  1  0
 10  9  1  0
 10 12  1  0
 11 10  1  0
 13 19  1  0
 13 20  2  0
 14 19  1  0
 15 16  1  0
 15 14  1  0
 17 16  1  0
 17 30  1  0
 17 18  1  0
 19 18  1  0
 21 22  1  0
 21 23  1  0
 22 25  1  0
 23 26  1  0
 25 10  1  0
 25 24  1  0
 26 24  1  0
 26 13  1  0
 27 28  2  0
 28 29  1  0
 28 47  1  0
 29 32  1  0
 30 27  1  0
 30 31  1  0
 31 29  2  0
 32 33  1  0
 33 34  2  0
 35 38  1  0
 35 34  1  0
 36 35  2  0
 37 36  1  0
 37 32  2  0
 38 39  1  0
 39 40  1  0
 40 41  2  0
 42 41  1  0
 42 46  1  0
 43 42  2  0
 44 39  2  0
 44 43  1  0
 45 44  1  0
 47 48  1  0
 48 51  1  0
 48 50  1  0
 49 47  2  0
 52 27  1  0
 52 53  1  0
 52 54  1  0
 55 56  1  0
 57 68  2  0
 58 56  1  0
 58 63  1  0
 59 67  1  0
 59 69  1  0
 60 62  1  0
 61 67  1  0
 62 63  2  0
 62 61  1  0
 64 58  2  0
 65 64  1  0
 65 60  2  0
 66 60  1  0
 66 59  1  0
 67 57  1  0
 69 71  2  0
 70 69  1  0
 72 70  1  0
 73 82  2  0
 73 78  1  0
 74 70  1  0
 74 78  1  0
 75 74  1  0
 76 77  1  0
 76 75  1  0
 77 73  1  0
 78 79  2  0
 79 80  1  0
 81 80  2  0
 82 81  1  0
 83 57  1  0
 83 84  1  0
 83 93  1  0
 84 87  1  0
 85 89  1  0
 85 84  1  0
 86 85  2  0
 89 88  1  0
 91 89  1  0
 91 92  1  0
 91 90  1  0
 93 96  1  1
 93 94  1  0
 95 93  1  0
M  ISO  4  13 100  26 100  55 101  56 101
M  END
>  <TORSDO>  (56) 
F 21

>  <SCORE>  (56) 
-11.160

>  <name>  (56) 
55

>  <ligand_id>  (56) 
55

>  <original_smiles>  (56) 
[H]c1c([H])c([H])c2c(c1[H])C([H])([H])C([H])([H])C([H])([H])C2([H])N([H])C(=O)C1([H])N(C(=O)C([H])(N([H])C(=O)C([H])(N([H])C([H])([H])[H])C([H])([H])[H])C(C([H])([H])[H])(C([H])([H])[H])C([H])([H])[H])C([H])([H])c2c([H])c(OC([H])([H])C3([H])C([H])([H])C([H])([H])C([H])(C([H])([H])C([H])([H])C([H])([H])[N+]([H])([H])C4([H])C([H])([H])N(C(=O)N5C([H])([H])C([H])([H])C([H])([H])C([H])(n6nc(-c7c([H])c([H])c(Oc8c([H])c([H])c(F)c([H])c8F)c([H])c7[H])c(C(=O)N([H])[H])c6N([H])[H])C5([H])[H])C([H])([H])C([H])([H])C4([H])[H])C([H])([H])C3([H])[H])c([H])c([H])c2C1([H])[H]

>  <smiles>  (56) 
[H]c1c([H])c([H])c2c(c1[H])C([H])([H])C([H])([H])C([H])([H])C2([H])N([H])C(=O)C1([H])N(C(=O)C([H])(N([H])C(=O)C([H])(N([H])C([H])([H])[H])C([H])([H])[H])C(C([H])([H])[H])(C([H])([H])[H])C([H])([H])[H])C([H])([H])c2c([H])c(OC([H])([H])C3([H])C([H])([H])C([H])([H])C([H])(C([H])([H])C([H])([H])C([H])([H])[N+]([H])([H])C4([H])C([H])([H])N(C(=O)N5C([H])([H])C([H])([H])C([H])([H])C([H])(n6nc(-c7c([H])c([H])c(Oc8c([H])c([H])c(F)c([H])c8F)c([H])c7[H])c(C(=O)N([H])[H])c6N([H])[H])C5([H])[H])C([H])([H])C([H])([H])C4([H])[H])C([H])([H])C3([H])[H])c([H])c([H])c2C1([H])[H]

$$$$
56:0:0
     RDKit          3D

 96104  0  0  1  0  0  0  0  0999 V2000
  -33.0190  -25.3040   21.1770 C   0  0  0  0  0  2  0  0  0  0  0  0
  -31.8190  -25.4980   20.2400 C   0  0  0  0  0  2  0  0  0  0  0  0
  -30.7350  -23.4530   21.3750 C   0  0  0  0  0  2  0  0  0  0  0  0
  -33.8250  -24.0250   20.8580 C   0  0  0  0  0  2  0  0  0  0  0  0
  -31.7520  -22.5990   20.6050 C   0  0  0  0  0  2  0  0  0  0  0  0
  -30.5240  -24.8570   20.7810 C   0  0  0  0  0  3  0  0  0  0  0  0
  -33.1220  -22.7440   21.1620 N   0  0  1  0  0  4  0  0  0  0  0  0
  -33.0090  -22.7490   22.1640 H   0  0  0  0  0  0  0  0  0  0  0  0
  -29.8260  -25.7430   21.8220 C   0  0  0  0  0  2  0  0  0  0  0  0
  -29.2960  -27.0580   21.2560 C   0  0  0  0  0  2  0  0  0  0  0  0
  -28.4090  -26.7780   20.1630 O   0  0  0  0  0  0  0  0  0  0  0  0
  -24.6010  -31.8720   23.2140 C   0  0  0  0  0  0  0  0  0  0  0  0
  -27.2610  -27.5290   20.1240 C   0  0  0  0  0  0  0  0  0  0  0  0
  -23.3870  -30.4890   21.5500 C   0  0  0  0  0  3  0  0  0  0  0  0
  -24.8410  -28.9680   20.1110 C   0  0  0  0  0  0  0  0  0  0  0  0
  -25.8970  -30.8880   21.3350 C   0  0  0  0  0  2  0  0  0  0  0  0
  -25.9860  -29.5260   20.6890 C   0  0  0  0  0  0  0  0  0  0  0  0
  -27.1970  -28.8270   20.6740 C   0  0  0  0  0  3  0  0  0  0  0  0
  -26.1090  -26.9730   19.5290 C   0  0  0  0  0  3  0  0  0  0  0  0
  -24.8950  -27.6890   19.5210 C   0  0  0  0  0  3  0  0  0  0  0  0
  -23.5930  -29.8170   20.1620 C   0  0  0  0  0  2  0  0  0  0  0  0
  -24.6470  -31.0920   22.0950 N   0  0  0  0  0  0  0  0  0  0  0  0
  -23.5230  -32.1380   23.7610 O   0  0  0  0  0  0  0  0  0  0  0  0
  -22.7360  -29.4620   22.5020 C   0  0  0  0  0  0  0  0  0  0  0  0
  -21.4100  -29.3010   22.3820 N   0  0  0  0  0  0  0  0  0  0  0  0
  -23.4180  -28.8160   23.3000 O   0  0  0  0  0  0  0  0  0  0  0  0
  -20.9240  -29.8810   21.7130 H   0  0  0  0  0  0  0  0  0  0  0  0
  -18.0260  -28.1390   22.8470 C   0  0  0  0  0  0  0  0  0  0  0  0
  -20.5850  -28.3620   23.1380 C   0  0  0  0  0  3  0  0  0  0  0  0
  -20.6760  -26.9390   22.5420 C   0  0  0  0  0  2  0  0  0  0  0  0
  -19.5750  -26.6400   21.5200 C   0  0  0  0  0  2  0  0  0  0  0  0
  -18.1910  -26.7930   22.1610 C   0  0  0  0  0  2  0  0  0  0  0  0
  -19.1510  -28.8820   23.2940 C   0  0  0  0  0  0  0  0  0  0  0  0
  -18.9470  -30.1430   23.8930 C   0  0  0  0  0  3  0  0  0  0  0  0
  -17.6470  -30.6600   24.0570 C   0  0  0  0  0  3  0  0  0  0  0  0
  -16.5350  -29.9110   23.6330 C   0  0  0  0  0  3  0  0  0  0  0  0
  -16.7250  -28.6540   23.0300 C   0  0  0  0  0  3  0  0  0  0  0  0
  -25.8930  -32.4850   23.8430 C   0  0  0  0  0  3  0  0  0  0  0  0
  -26.4410  -31.6600   25.0700 C   0  0  1  0  0  0  0  0  0  0  0  0
  -25.3730  -31.3680   26.1500 C   0  0  0  0  0  1  0  0  0  0  0  0
  -27.0230  -30.3110   24.5900 C   0  0  0  0  0  1  0  0  0  0  0  0
  -27.6020  -32.4310   25.7450 C   0  0  0  0  0  1  0  0  0  0  0  0
  -25.5840  -33.8640   24.2390 N   0  0  0  0  0  0  0  0  0  0  0  0
  -25.8990  -34.9490   23.5180 C   0  0  0  0  0  0  0  0  0  0  0  0
  -26.5530  -34.8930   22.4740 O   0  0  0  0  0  0  0  0  0  0  0  0
  -25.0020  -33.9820   25.0560 H   0  0  0  0  0  0  0  0  0  0  0  0
  -24.1480  -36.7310   23.2660 C   0  0  0  0  0  1  0  0  0  0  0  0
  -25.4080  -36.3130   24.0400 C   0  0  0  0  0  3  0  0  0  0  0  0
  -27.5580  -37.1800   24.8470 C   0  0  0  0  0  1  0  0  0  0  0  0
  -26.4270  -37.3810   23.9450 N   0  0  0  0  0  0  0  0  0  0  0  0
  -26.0170  -38.2900   24.1430 H   0  0  0  0  0  0  0  0  0  0  0  0
  -33.9520  -21.5440   20.8800 C   0  0  0  0  0  2  0  0  0  0  0  0
  -33.7450  -20.4560   21.9620 C   0  0  0  0  0  2  0  0  0  0  0  0
  -33.2300  -19.1030   21.4230 C   0  0  0  0  0  2  0  0  0  0  0  0
  -33.0590  -18.0470   22.5430 C   0  0  0  0  0  2  0  0  0  0  0  0
  -32.4210  -16.7730   22.1110 N   0  0  0  0  0  4  0  0  0  0  0  0
  -33.0010  -16.3200   21.4220 H   0  0  0  0  0  0  0  0  0  0  0  0
  -32.4080  -16.1750   22.9240 H   0  0  0  0  0  0  0  0  0  0  0  0
  -31.0310  -16.8690   21.5890 C   0  0  0  0  0  2  0  0  0  0  0  0
  -30.2420  -15.5220   21.5910 C   0  0  0  0  0  2  0  0  0  0  0  0
  -30.7680  -14.4260   20.6410 C   0  0  0  0  0  0  0  0  0  0  0  0
  -30.4230  -12.3190   19.3890 C   0  0  0  0  0  2  0  0  0  0  0  0
  -29.4820  -12.5420   18.1890 C   0  0  0  0  0  2  0  0  0  0  0  0
  -28.0080  -12.3990   18.6100 C   0  0  0  0  0  2  0  0  0  0  0  0
  -27.6720  -13.2160   19.8850 C   0  0  0  0  0  3  0  0  0  0  0  0
  -28.7280  -12.9840   20.9930 C   0  0  0  0  0  2  0  0  0  0  0  0
  -30.0580  -13.2830   20.4380 N   0  0  0  0  0  0  0  0  0  0  0  0
  -31.8350  -14.6440   20.0620 O   0  0  0  0  0  0  0  0  0  0  0  0
  -25.2640  -13.8200   20.5710 C   0  0  0  0  0  0  0  0  0  0  0  0
  -24.1860  -13.0440   20.9170 C   0  0  0  0  0  0  0  0  0  0  0  0
  -24.6430  -11.6930   20.8760 C   0  0  0  0  0  0  0  0  0  0  0  0
  -26.3100  -12.9390   20.3490 N   0  0  0  0  0  0  0  0  0  0  0  0
  -25.9390  -11.6530   20.5850 N   0  0  0  0  0  0  0  0  0  0  0  0
  -23.9100  -10.4290   21.0410 C   0  0  0  0  0  0  0  0  0  0  0  0
  -24.3640   -9.4210   21.9190 C   0  0  0  0  0  3  0  0  0  0  0  0
  -23.6290   -8.2270   22.0760 C   0  0  0  0  0  3  0  0  0  0  0  0
  -22.4280   -8.0300   21.3550 C   0  0  0  0  0  0  0  0  0  0  0  0
  -21.9940   -9.0280   20.4660 C   0  0  0  0  0  3  0  0  0  0  0  0
  -22.7280  -10.2140   20.3060 C   0  0  0  0  0  3  0  0  0  0  0  0
  -21.6630   -6.8880   21.4240 O   0  0  0  0  0  0  0  0  0  0  0  0
  -21.6860   -6.0740   22.5270 C   0  0  0  0  0  0  0  0  0  0  0  0
  -21.4020   -6.5640   23.8210 C   0  0  0  0  0  3  0  0  0  0  0  0
  -21.3650   -5.6790   24.9170 C   0  0  0  0  0  3  0  0  0  0  0  0
  -21.6040   -4.3050   24.7220 C   0  0  0  0  0  0  0  0  0  0  0  0
  -21.8830   -3.8140   23.4330 C   0  0  0  0  0  3  0  0  0  0  0  0
  -21.9190   -4.6960   22.3390 C   0  0  0  0  0  0  0  0  0  0  0  0
  -22.1660   -4.2150   21.0970 F   0  0  0  0  0  0  0  0  0  0  0  0
  -21.5630   -3.4540   25.7730 F   0  0  0  0  0  0  0  0  0  0  0  0
  -22.7870  -13.5250   21.1780 C   0  0  0  0  0  0  0  0  0  0  0  0
  -22.0490  -12.8270   22.0340 N   0  0  0  0  0  0  0  0  0  0  0  0
  -22.3580  -14.5540   20.6610 O   0  0  0  0  0  0  0  0  0  0  0  0
  -22.4090  -11.9950   22.4790 H   0  0  0  0  0  0  0  0  0  0  0  0
  -21.1080  -13.1290   22.2460 H   0  0  0  0  0  0  0  0  0  0  0  0
  -25.4360  -15.1910   20.4090 N   0  0  0  0  0  0  0  0  0  0  0  0
  -24.6760  -15.8540   20.5050 H   0  0  0  0  0  0  0  0  0  0  0  0
  -26.3050  -15.6250   20.1200 H   0  0  0  0  0  0  0  0  0  0  0  0
  2  6  1  0
  2  1  1  0
  4  7  1  0
  4  1  1  0
  5  7  1  0
  5  3  1  0
  6  3  1  0
  6  9  1  0
  7  8  1  1
 10  9  1  0
 11 10  1  0
 12 23  2  0
 13 11  1  0
 13 18  1  0
 14 22  1  0
 14 24  1  0
 15 21  1  0
 15 17  1  0
 16 22  1  0
 17 16  1  0
 18 17  2  0
 19 13  2  0
 20 19  1  0
 20 15  2  0
 21 14  1  0
 22 12  1  0
 24 26  2  0
 25 24  1  0
 27 25  1  0
 28 37  2  0
 28 33  1  0
 29 25  1  0
 29 33  1  0
 30 29  1  0
 31 32  1  0
 31 30  1  0
 32 28  1  0
 33 34  2  0
 34 35  1  0
 36 35  2  0
 37 36  1  0
 38 12  1  0
 38 43  1  0
 38 39  1  0
 39 42  1  1
 39 40  1  0
 41 39  1  0
 43 46  1  0
 44 48  1  0
 44 43  1  0
 45 44  2  0
 48 47  1  0
 50 48  1  0
 50 51  1  0
 50 49  1  0
 52  7  1  0
 52 53  1  0
 54 53  1  0
 54 55  1  0
 56 55  1  0
 56 58  1  0
 57 56  1  0
 59 60  1  0
 59 56  1  0
 61 60  1  0
 62 67  1  0
 63 64  1  0
 63 62  1  0
 65 64  1  0
 65 72  1  0
 65 66  1  0
 67 61  1  0
 67 66  1  0
 68 61  2  0
 69 70  2  0
 70 89  1  0
 71 70  1  0
 71 74  1  0
 72 69  1  0
 72 73  1  0
 73 71  2  0
 74 75  1  0
 75 76  2  0
 77 80  1  0
 77 76  1  0
 78 77  2  0
 79 78  1  0
 79 74  2  0
 80 81  1  0
 81 82  1  0
 82 83  2  0
 84 83  1  0
 84 88  1  0
 85 84  2  0
 86 81  2  0
 86 85  1  0
 87 86  1  0
 89 90  1  0
 90 93  1  0
 90 92  1  0
 91 89  2  0
 94 95  1  0
 94 69  1  0
 96 94  1  0
M  ISO  4  10 101  11 101  60 100  61 100
M  END
>  <TORSDO>  (57) 
F 25

>  <SCORE>  (57) 
-6.242

>  <name>  (57) 
56

>  <ligand_id>  (57) 
56

>  <original_smiles>  (57) 
[H]c1c([H])c([H])c2c(c1[H])C([H])([H])C([H])([H])C([H])([H])C2([H])N([H])C(=O)C1([H])N(C(=O)C([H])(N([H])C(=O)C([H])(N([H])C([H])([H])[H])C([H])([H])[H])C(C([H])([H])[H])(C([H])([H])[H])C([H])([H])[H])C([H])([H])c2c([H])c(OC([H])([H])C([H])([H])C3([H])C([H])([H])C([H])([H])C([H])([H])[N+]([H])(C([H])([H])C([H])([H])C([H])([H])C([H])([H])[N+]([H])([H])C([H])([H])C([H])([H])C(=O)N4C([H])([H])C([H])([H])C([H])([H])C([H])(n5nc(-c6c([H])c([H])c(Oc7c([H])c([H])c(F)c([H])c7F)c([H])c6[H])c(C(=O)N([H])[H])c5N([H])[H])C4([H])[H])C([H])([H])C3([H])[H])c([H])c([H])c2C1([H])[H]

>  <smiles>  (57) 
[H]c1c([H])c([H])c2c(c1[H])C([H])([H])C([H])([H])C([H])([H])C2([H])N([H])C(=O)C1([H])N(C(=O)C([H])(N([H])C(=O)C([H])(N([H])C([H])([H])[H])C([H])([H])[H])C(C([H])([H])[H])(C([H])([H])[H])C([H])([H])[H])C([H])([H])c2c([H])c(OC([H])([H])C([H])([H])C3([H])C([H])([H])C([H])([H])C([H])([H])[N+]([H])(C([H])([H])C([H])([H])C([H])([H])C([H])([H])[N+]([H])([H])C([H])([H])C([H])([H])C(=O)N4C([H])([H])C([H])([H])C([H])([H])C([H])(n5nc(-c6c([H])c([H])c(Oc7c([H])c([H])c(F)c([H])c7F)c([H])c6[H])c(C(=O)N([H])[H])c5N([H])[H])C4([H])[H])C([H])([H])C3([H])[H])c([H])c([H])c2C1([H])[H]

$$$$
57:0:0
     RDKit          3D

 99108  0  0  1  0  0  0  0  0999 V2000
  -32.9920  -17.8920   19.4410 C   0  0  0  0  0  3  0  0  0  0  0  0
  -30.9100  -18.9630   20.0540 C   0  0  0  0  0  3  0  0  0  0  0  0
  -32.1810  -19.8130   18.1220 C   0  0  0  0  0  0  0  0  0  0  0  0
  -33.1510  -18.7990   18.3710 C   0  0  0  0  0  0  0  0  0  0  0  0
  -31.8950  -17.9940   20.3150 C   0  0  0  0  0  0  0  0  0  0  0  0
  -31.0300  -19.8620   18.9730 C   0  0  0  0  0  0  0  0  0  0  0  0
  -32.4270  -20.8200   17.0260 C   0  0  0  0  0  0  0  0  0  0  0  0
  -34.4310  -18.7000   17.5550 C   0  0  0  0  0  2  0  0  0  0  0  0
  -33.6830  -20.6570   16.1700 C   0  0  0  0  0  2  0  0  0  0  0  0
  -34.8390  -20.0530   16.9680 C   0  0  0  0  0  2  0  0  0  0  0  0
  -31.7050  -21.7940   16.8040 O   0  0  0  0  0  0  0  0  0  0  0  0
  -31.8680  -17.1670   21.5980 C   0  0  0  0  0  2  0  0  0  0  0  0
  -30.5070  -16.5640   22.0360 C   0  0  0  0  0  2  0  0  0  0  0  0
  -30.5450  -14.5550   20.4390 C   0  0  0  0  0  0  0  0  0  0  0  0
  -30.2030  -12.4840   19.1410 C   0  0  0  0  0  2  0  0  0  0  0  0
  -29.2260  -12.7200   17.9740 C   0  0  0  0  0  2  0  0  0  0  0  0
  -27.7660  -12.5550   18.4330 C   0  0  0  0  0  2  0  0  0  0  0  0
  -27.4510  -13.3370   19.7370 C   0  0  0  0  0  3  0  0  0  0  0  0
  -28.5320  -13.0690   20.8060 C   0  0  0  0  0  2  0  0  0  0  0  0
  -29.8460  -13.4100   20.2250 N   0  0  0  0  0  0  0  0  0  0  0  0
  -31.5820  -14.8290   19.8360 O   0  0  0  0  0  0  0  0  0  0  0  0
  -30.0080  -15.3530   21.3690 N   0  0  0  0  0  0  0  0  0  0  0  0
  -29.1350  -15.0020   21.7360 H   0  0  0  0  0  0  0  0  0  0  0  0
  -25.0450  -13.8910   20.4690 C   0  0  0  0  0  0  0  0  0  0  0  0
  -23.9960  -13.0940   20.8500 C   0  0  0  0  0  0  0  0  0  0  0  0
  -24.4880  -11.7530   20.8080 C   0  0  0  0  0  0  0  0  0  0  0  0
  -26.1070  -13.0340   20.2280 N   0  0  0  0  0  0  0  0  0  0  0  0
  -25.7750  -11.7420   20.4850 N   0  0  0  0  0  0  0  0  0  0  0  0
  -23.7900  -10.4740   21.0050 C   0  0  0  0  0  0  0  0  0  0  0  0
  -24.2440   -9.5250   21.9460 C   0  0  0  0  0  3  0  0  0  0  0  0
  -23.5490   -8.3100   22.1310 C   0  0  0  0  0  3  0  0  0  0  0  0
  -22.3860   -8.0360   21.3730 C   0  0  0  0  0  0  0  0  0  0  0  0
  -21.9510   -8.9750   20.4200 C   0  0  0  0  0  3  0  0  0  0  0  0
  -22.6460  -10.1830   20.2350 C   0  0  0  0  0  3  0  0  0  0  0  0
  -21.6620   -6.8720   21.4650 O   0  0  0  0  0  0  0  0  0  0  0  0
  -21.6210   -6.1390   22.6240 C   0  0  0  0  0  0  0  0  0  0  0  0
  -21.1610   -6.6910   23.8400 C   0  0  0  0  0  3  0  0  0  0  0  0
  -21.0720   -5.8850   24.9900 C   0  0  0  0  0  3  0  0  0  0  0  0
  -21.4290   -4.5240   24.9270 C   0  0  0  0  0  0  0  0  0  0  0  0
  -21.8820   -3.9710   23.7160 C   0  0  0  0  0  3  0  0  0  0  0  0
  -21.9730   -4.7750   22.5680 C   0  0  0  0  0  0  0  0  0  0  0  0
  -22.3890   -4.2320   21.3970 F   0  0  0  0  0  0  0  0  0  0  0  0
  -21.3350   -3.7460   26.0300 F   0  0  0  0  0  0  0  0  0  0  0  0
  -22.5920  -13.5400   21.1400 C   0  0  0  0  0  0  0  0  0  0  0  0
  -21.8920  -12.8270   22.0150 N   0  0  0  0  0  0  0  0  0  0  0  0
  -22.1240  -14.5550   20.6270 O   0  0  0  0  0  0  0  0  0  0  0  0
  -22.2870  -12.0070   22.4530 H   0  0  0  0  0  0  0  0  0  0  0  0
  -20.9510  -13.1050   22.2520 H   0  0  0  0  0  0  0  0  0  0  0  0
  -25.1780  -15.2640   20.2940 N   0  0  0  0  0  0  0  0  0  0  0  0
  -24.3980  -15.9030   20.4080 H   0  0  0  0  0  0  0  0  0  0  0  0
  -26.0230  -15.7200   19.9730 H   0  0  0  0  0  0  0  0  0  0  0  0
  -29.8920  -20.8690   18.8120 C   0  0  0  0  0  2  0  0  0  0  0  0
  -30.2000  -22.1680   19.4510 N   0  0  0  0  0  4  0  0  0  0  0  0
  -30.3290  -22.0280   20.4390 H   0  0  0  0  0  0  0  0  0  0  0  0
  -31.0660  -22.5070   19.0650 H   0  0  0  0  0  0  0  0  0  0  0  0
  -29.1450  -23.1760   19.2360 C   0  0  0  0  0  2  0  0  0  0  0  0
  -29.4640  -24.5730   19.8160 C   0  0  0  0  0  2  0  0  0  0  0  0
  -28.2570  -25.4830   19.5730 C   0  0  0  0  0  2  0  0  0  0  0  0
  -28.3610  -26.8060   20.1090 O   0  0  0  0  0  0  0  0  0  0  0  0
  -24.5680  -31.9200   23.3090 C   0  0  0  0  0  0  0  0  0  0  0  0
  -27.1860  -27.5380   20.1150 C   0  0  0  0  0  0  0  0  0  0  0  0
  -23.3490  -30.5550   21.6540 C   0  0  0  0  0  3  0  0  0  0  0  0
  -24.7910  -29.0520   20.1850 C   0  0  0  0  0  0  0  0  0  0  0  0
  -25.8800  -30.9110   21.4460 C   0  0  0  0  0  2  0  0  0  0  0  0
  -25.9570  -29.5540   20.7770 C   0  0  0  0  0  0  0  0  0  0  0  0
  -27.1560  -28.8050   20.7460 C   0  0  0  0  0  3  0  0  0  0  0  0
  -25.9920  -27.0570   19.5170 C   0  0  0  0  0  3  0  0  0  0  0  0
  -24.8060  -27.8000   19.5600 C   0  0  0  0  0  3  0  0  0  0  0  0
  -23.5480  -29.9110   20.2570 C   0  0  0  0  0  2  0  0  0  0  0  0
  -24.6180  -31.1410   22.1940 N   0  0  0  0  0  0  0  0  0  0  0  0
  -23.4900  -32.1800   23.8620 O   0  0  0  0  0  0  0  0  0  0  0  0
  -22.7040  -29.5100   22.5920 C   0  0  0  0  0  0  0  0  0  0  0  0
  -21.3800  -29.3270   22.4650 N   0  0  0  0  0  0  0  0  0  0  0  0
  -23.3910  -28.8680   23.3910 O   0  0  0  0  0  0  0  0  0  0  0  0
  -20.8840  -29.8960   21.7930 H   0  0  0  0  0  0  0  0  0  0  0  0
  -18.0090  -28.1240   22.9460 C   0  0  0  0  0  0  0  0  0  0  0  0
  -20.5660  -28.3750   23.2210 C   0  0  0  0  0  3  0  0  0  0  0  0
  -20.6690  -26.9520   22.6230 C   0  0  0  0  0  2  0  0  0  0  0  0
  -19.5660  -26.6460   21.6050 C   0  0  0  0  0  2  0  0  0  0  0  0
  -18.1840  -26.7840   22.2520 C   0  0  0  0  0  2  0  0  0  0  0  0
  -19.1290  -28.8770   23.3880 C   0  0  0  0  0  0  0  0  0  0  0  0
  -18.9110  -30.1330   23.9950 C   0  0  0  0  0  3  0  0  0  0  0  0
  -17.6070  -30.6330   24.1670 C   0  0  0  0  0  3  0  0  0  0  0  0
  -16.5010  -29.8750   23.7440 C   0  0  0  0  0  3  0  0  0  0  0  0
  -16.7030  -28.6230   23.1370 C   0  0  0  0  0  3  0  0  0  0  0  0
  -25.8590  -32.5380   23.9310 C   0  0  0  0  0  3  0  0  0  0  0  0
  -25.5700  -33.9450   24.2390 N   0  0  0  0  0  0  0  0  0  0  0  0
  -25.9290  -34.9790   23.4680 C   0  0  0  0  0  0  0  0  0  0  0  0
  -26.6070  -34.8470   22.4440 O   0  0  0  0  0  0  0  0  0  0  0  0
  -24.9640  -34.1220   25.0280 H   0  0  0  0  0  0  0  0  0  0  0  0
  -24.2380  -36.7960   23.0570 C   0  0  0  0  0  1  0  0  0  0  0  0
  -25.4590  -36.3830   23.8950 C   0  0  0  0  0  3  0  0  0  0  0  0
  -27.5920  -37.2430   24.7540 C   0  0  0  0  0  1  0  0  0  0  0  0
  -26.5140  -37.4150   23.7840 N   0  0  0  0  0  0  0  0  0  0  0  0
  -26.1220  -38.3450   23.9090 H   0  0  0  0  0  0  0  0  0  0  0  0
  -26.3530  -31.7740   25.2210 C   0  0  1  0  0  0  0  0  0  0  0  0
  -25.2480  -31.5640   26.2830 C   0  0  0  0  0  1  0  0  0  0  0  0
  -26.9170  -30.3840   24.8460 C   0  0  0  0  0  1  0  0  0  0  0  0
  -27.5110  -32.5600   25.8810 C   0  0  0  0  0  1  0  0  0  0  0  0
  1  5  1  0
  2  5  2  0
  3  4  1  0
  3  6  2  0
  4  1  2  0
  5 12  1  0
  6  2  1  0
  7  3  1  0
  8  4  1  0
  9 10  1  0
  9  7  1  0
 10  8  1  0
 11  7  2  0
 12 13  1  0
 14 22  1  0
 15 20  1  0
 16 17  1  0
 16 15  1  0
 18 17  1  0
 18 27  1  0
 18 19  1  0
 20 14  1  0
 20 19  1  0
 21 14  2  0
 22 23  1  0
 22 13  1  0
 24 25  2  0
 25 44  1  0
 26 25  1  0
 26 29  1  0
 27 24  1  0
 27 28  1  0
 28 26  2  0
 29 30  1  0
 30 31  2  0
 32 35  1  0
 32 31  1  0
 33 32  2  0
 34 33  1  0
 34 29  2  0
 35 36  1  0
 36 37  1  0
 37 38  2  0
 39 38  1  0
 39 43  1  0
 40 39  2  0
 41 36  2  0
 41 40  1  0
 42 41  1  0
 44 45  1  0
 45 48  1  0
 45 47  1  0
 46 44  2  0
 49 50  1  0
 49 24  1  0
 51 49  1  0
 52  6  1  0
 52 53  1  0
 53 54  1  0
 55 53  1  0
 56 53  1  0
 56 57  1  0
 58 57  1  0
 58 59  1  0
 59 61  1  0
 60 71  2  0
 61 66  1  0
 62 70  1  0
 62 72  1  0
 63 69  1  0
 63 65  1  0
 64 70  1  0
 65 64  1  0
 66 65  2  0
 67 68  1  0
 67 61  2  0
 68 63  2  0
 69 62  1  0
 70 60  1  0
 72 74  2  0
 73 72  1  0
 75 73  1  0
 76 85  2  0
 76 81  1  0
 77 73  1  0
 77 81  1  0
 78 77  1  0
 79 80  1  0
 79 78  1  0
 80 76  1  0
 81 82  2  0
 82 83  1  0
 84 83  2  0
 85 84  1  0
 86 60  1  0
 86 87  1  0
 86 96  1  0
 87 90  1  0
 88 92  1  0
 88 87  1  0
 89 88  2  0
 92 91  1  0
 94 92  1  0
 94 95  1  0
 94 93  1  0
 96 99  1  1
 96 97  1  0
 98 96  1  0
M  ISO  4  14 100  22 100  58 101  59 101
M  END
>  <TORSDO>  (58) 
F 23

>  <SCORE>  (58) 
-12.469

>  <name>  (58) 
57

>  <ligand_id>  (58) 
57

>  <original_smiles>  (58) 
[H]c1c([H])c([H])c2c(c1[H])C([H])([H])C([H])([H])C([H])([H])C2([H])N([H])C(=O)C1([H])N(C(=O)C([H])(N([H])C(=O)C([H])(N([H])C([H])([H])[H])C([H])([H])[H])C(C([H])([H])[H])(C([H])([H])[H])C([H])([H])[H])C([H])([H])c2c([H])c(OC([H])([H])C([H])([H])C([H])([H])[N+]([H])([H])C([H])([H])c3c([H])c(C([H])([H])C([H])([H])N([H])C(=O)N4C([H])([H])C([H])([H])C([H])([H])C([H])(n5nc(-c6c([H])c([H])c(Oc7c([H])c([H])c(F)c([H])c7F)c([H])c6[H])c(C(=O)N([H])[H])c5N([H])[H])C4([H])[H])c([H])c4c3C(=O)C([H])([H])C([H])([H])C4([H])[H])c([H])c([H])c2C1([H])[H]

>  <smiles>  (58) 
[H]c1c([H])c([H])c2c(c1[H])C([H])([H])C([H])([H])C([H])([H])C2([H])N([H])C(=O)C1([H])N(C(=O)C([H])(N([H])C(=O)C([H])(N([H])C([H])([H])[H])C([H])([H])[H])C(C([H])([H])[H])(C([H])([H])[H])C([H])([H])[H])C([H])([H])c2c([H])c(OC([H])([H])C([H])([H])C([H])([H])[N+]([H])([H])C([H])([H])c3c([H])c(C([H])([H])C([H])([H])N([H])C(=O)N4C([H])([H])C([H])([H])C([H])([H])C([H])(n5nc(-c6c([H])c([H])c(Oc7c([H])c([H])c(F)c([H])c7F)c([H])c6[H])c(C(=O)N([H])[H])c5N([H])[H])C4([H])[H])c([H])c4c3C(=O)C([H])([H])C([H])([H])C4([H])[H])c([H])c([H])c2C1([H])[H]

$$$$
58:0:0
     RDKit          3D

100108  0  0  1  0  0  0  0  0999 V2000
  -29.3410  -24.3180   23.1700 N   0  0  0  0  0  4  0  0  0  0  0  0
  -30.2290  -24.4600   22.7200 H   0  0  0  0  0  0  0  0  0  0  0  0
  -29.2890  -24.9710   23.9340 H   0  0  0  0  0  0  0  0  0  0  0  0
  -29.3470  -22.9480   23.7230 C   0  0  0  0  0  2  0  0  0  0  0  0
  -32.0190  -20.1130   23.3880 C   0  0  0  0  0  2  0  0  0  0  0  0
  -31.0750  -20.5870   21.1000 C   0  0  0  0  0  2  0  0  0  0  0  0
  -30.9070  -20.9610   24.0240 C   0  0  0  0  0  2  0  0  0  0  0  0
  -29.9830  -21.4600   21.7420 C   0  0  0  0  0  2  0  0  0  0  0  0
  -31.5760  -19.4810   22.0530 C   0  0  0  0  0  3  0  0  0  0  0  0
  -30.4480  -22.0820   23.0760 C   0  0  0  0  0  3  0  0  0  0  0  0
  -32.7270  -18.6330   21.4670 C   0  0  0  0  0  2  0  0  0  0  0  0
  -32.3750  -17.1870   21.0560 C   0  0  0  0  0  2  0  0  0  0  0  0
  -32.4040  -16.9300   19.5360 C   0  0  0  0  0  2  0  0  0  0  0  0
  -32.9650  -15.5540   19.1520 C   0  0  0  0  0  2  0  0  0  0  0  0
  -31.9520  -13.3390   18.6230 C   0  0  0  0  0  0  0  0  0  0  0  0
  -31.6210  -10.9400   19.0470 C   0  0  0  0  0  2  0  0  0  0  0  0
  -30.5510  -10.2750   18.1700 C   0  0  0  0  0  2  0  0  0  0  0  0
  -29.1660  -10.4210   18.8180 C   0  0  0  0  0  2  0  0  0  0  0  0
  -28.8490  -11.8880   19.2020 C   0  0  0  0  0  3  0  0  0  0  0  0
  -30.0110  -12.5270   19.9970 C   0  0  0  0  0  2  0  0  0  0  0  0
  -31.2690  -12.3520   19.2470 N   0  0  0  0  0  0  0  0  0  0  0  0
  -32.6930  -13.1540   17.6510 O   0  0  0  0  0  0  0  0  0  0  0  0
  -31.9820  -14.4830   19.3180 N   0  0  0  0  0  0  0  0  0  0  0  0
  -31.4060  -14.5120   20.1470 H   0  0  0  0  0  0  0  0  0  0  0  0
  -26.9560  -13.0930   20.4660 C   0  0  0  0  0  0  0  0  0  0  0  0
  -25.7630  -12.6450   20.9690 C   0  0  0  0  0  0  0  0  0  0  0  0
  -25.7180  -11.2450   20.6930 C   0  0  0  0  0  0  0  0  0  0  0  0
  -27.5820  -11.9810   19.9260 N   0  0  0  0  0  0  0  0  0  0  0  0
  -26.8470  -10.8540   20.1150 N   0  0  0  0  0  0  0  0  0  0  0  0
  -24.6440  -10.2640   20.8970 C   0  0  0  0  0  0  0  0  0  0  0  0
  -24.8440   -9.0970   21.6680 C   0  0  0  0  0  3  0  0  0  0  0  0
  -23.7900   -8.1790   21.8630 C   0  0  0  0  0  3  0  0  0  0  0  0
  -22.5210   -8.4230   21.2890 C   0  0  0  0  0  0  0  0  0  0  0  0
  -22.3340   -9.5740   20.5030 C   0  0  0  0  0  3  0  0  0  0  0  0
  -23.3850  -10.4840   20.3060 C   0  0  0  0  0  3  0  0  0  0  0  0
  -21.4470   -7.5740   21.4040 O   0  0  0  0  0  0  0  0  0  0  0  0
  -21.2790   -6.7690   22.5020 C   0  0  0  0  0  0  0  0  0  0  0  0
  -21.1740   -7.3000   23.8060 C   0  0  0  0  0  3  0  0  0  0  0  0
  -20.9320   -6.4430   24.8980 C   0  0  0  0  0  3  0  0  0  0  0  0
  -20.7880   -5.0590   24.6890 C   0  0  0  0  0  0  0  0  0  0  0  0
  -20.8880   -4.5280   23.3910 C   0  0  0  0  0  3  0  0  0  0  0  0
  -21.1300   -5.3820   22.3000 C   0  0  0  0  0  0  0  0  0  0  0  0
  -21.2040   -4.8690   21.0490 F   0  0  0  0  0  0  0  0  0  0  0  0
  -20.5490   -4.2360   25.7360 F   0  0  0  0  0  0  0  0  0  0  0  0
  -24.6800  -13.4840   21.5850 C   0  0  0  0  0  0  0  0  0  0  0  0
  -23.9490  -12.9330   22.5490 N   0  0  0  0  0  0  0  0  0  0  0  0
  -24.5090  -14.6560   21.2490 O   0  0  0  0  0  0  0  0  0  0  0  0
  -24.1020  -11.9780   22.8390 H   0  0  0  0  0  0  0  0  0  0  0  0
  -23.2270  -13.4730   23.0030 H   0  0  0  0  0  0  0  0  0  0  0  0
  -27.5490  -14.3500   20.4080 N   0  0  0  0  0  0  0  0  0  0  0  0
  -27.0890  -15.1860   20.7510 H   0  0  0  0  0  0  0  0  0  0  0  0
  -28.4450  -14.5400   19.9760 H   0  0  0  0  0  0  0  0  0  0  0  0
  -28.2770  -24.6300   22.1880 C   0  0  0  0  0  3  0  0  0  0  0  0
  -28.9340  -25.1760   20.8950 C   0  0  0  0  0  2  0  0  0  0  0  0
  -28.0030  -25.3420   19.6740 C   0  0  0  0  0  2  0  0  0  0  0  0
  -27.9190  -26.7190   19.3070 O   0  0  0  0  0  0  0  0  0  0  0  0
  -24.5630  -31.6340   23.1640 C   0  0  0  0  0  0  0  0  0  0  0  0
  -26.7410  -27.4040   19.4890 C   0  0  0  0  0  0  0  0  0  0  0  0
  -23.1500  -30.3930   21.5540 C   0  0  0  0  0  3  0  0  0  0  0  0
  -24.3990  -28.9320   19.8810 C   0  0  0  0  0  0  0  0  0  0  0  0
  -25.6510  -30.7070   21.1240 C   0  0  0  0  0  2  0  0  0  0  0  0
  -25.6240  -29.3880   20.3830 C   0  0  0  0  0  0  0  0  0  0  0  0
  -26.7950  -28.6280   20.1870 C   0  0  0  0  0  3  0  0  0  0  0  0
  -25.4980  -26.9580   18.9800 C   0  0  0  0  0  3  0  0  0  0  0  0
  -24.3290  -27.7130   19.1840 C   0  0  0  0  0  3  0  0  0  0  0  0
  -23.1960  -29.8140   20.1150 C   0  0  0  0  0  2  0  0  0  0  0  0
  -24.4790  -30.9210   22.0040 N   0  0  0  0  0  0  0  0  0  0  0  0
  -23.5510  -31.8930   23.8300 O   0  0  0  0  0  0  0  0  0  0  0  0
  -22.5670  -29.3180   22.4990 C   0  0  0  0  0  0  0  0  0  0  0  0
  -21.2610  -29.0410   22.3520 N   0  0  0  0  0  0  0  0  0  0  0  0
  -23.2830  -28.7370   23.3180 O   0  0  0  0  0  0  0  0  0  0  0  0
  -20.7420  -29.5670   21.6640 H   0  0  0  0  0  0  0  0  0  0  0  0
  -18.0290  -27.4560   22.6380 C   0  0  0  0  0  0  0  0  0  0  0  0
  -20.5030  -28.0400   23.1010 C   0  0  0  0  0  3  0  0  0  0  0  0
  -20.8290  -26.6120   22.6040 C   0  0  0  0  0  2  0  0  0  0  0  0
  -19.8640  -26.1140   21.5250 C   0  0  0  0  0  2  0  0  0  0  0  0
  -18.4240  -26.1110   22.0490 C   0  0  0  0  0  2  0  0  0  0  0  0
  -19.0060  -28.3660   23.1160 C   0  0  0  0  0  0  0  0  0  0  0  0
  -18.5880  -29.6160   23.6230 C   0  0  0  0  0  3  0  0  0  0  0  0
  -17.2240  -29.9580   23.6580 C   0  0  0  0  0  3  0  0  0  0  0  0
  -16.2590  -29.0450   23.2000 C   0  0  0  0  0  3  0  0  0  0  0  0
  -16.6630  -27.7960   22.6940 C   0  0  0  0  0  3  0  0  0  0  0  0
  -25.9260  -32.1790   23.6930 C   0  0  0  0  0  3  0  0  0  0  0  0
  -25.7150  -33.5720   24.1070 N   0  0  0  0  0  0  0  0  0  0  0  0
  -26.1150  -34.6410   23.4050 C   0  0  0  0  0  0  0  0  0  0  0  0
  -26.7720  -34.5530   22.3650 O   0  0  0  0  0  0  0  0  0  0  0  0
  -25.1360  -33.7180   24.9200 H   0  0  0  0  0  0  0  0  0  0  0  0
  -24.5320  -36.5780   23.1380 C   0  0  0  0  0  1  0  0  0  0  0  0
  -25.7210  -36.0300   23.9450 C   0  0  0  0  0  3  0  0  0  0  0  0
  -27.8990  -36.6910   24.8630 C   0  0  0  0  0  1  0  0  0  0  0  0
  -26.8320  -37.0080   23.9190 N   0  0  0  0  0  0  0  0  0  0  0  0
  -26.4940  -37.9440   24.1250 H   0  0  0  0  0  0  0  0  0  0  0  0
  -26.5180  -31.3260   24.8820 C   0  0  1  0  0  0  0  0  0  0  0  0
  -25.5080  -31.0670   26.0240 C   0  0  0  0  0  1  0  0  0  0  0  0
  -27.0170  -29.9550   24.3720 C   0  0  0  0  0  1  0  0  0  0  0  0
  -27.7450  -32.0470   25.4860 C   0  0  0  0  0  1  0  0  0  0  0  0
  -27.2500  -25.6090   22.8060 C   0  0  0  0  0  2  0  0  0  0  0  0
  -26.2740  -24.9400   23.6530 N   0  0  0  0  0  0  0  0  0  0  0  0
  -25.4900  -25.5700   23.7950 H   0  0  0  0  0  0  0  0  0  0  0  0
  -26.6390  -24.8030   24.5880 H   0  0  0  0  0  0  0  0  0  0  0  0
  1  4  1  0
  1  3  1  0
  2  1  1  0
  5  7  1  0
  6  8  1  0
  6  9  1  0
  8 10  1  0
  9 11  1  0
  9  5  1  0
 10  4  1  0
 10  7  1  0
 12 11  1  0
 13 12  1  0
 14 23  1  0
 14 13  1  0
 15 21  1  0
 15 23  1  0
 16 21  1  0
 17 18  1  0
 17 16  1  0
 19 18  1  0
 19 28  1  0
 19 20  1  0
 21 20  1  0
 22 15  2  0
 23 24  1  0
 25 26  2  0
 26 45  1  0
 27 30  1  0
 27 26  1  0
 28 29  1  0
 28 25  1  0
 29 27  2  0
 30 31  1  0
 31 32  2  0
 33 36  1  0
 33 32  1  0
 34 33  2  0
 35 34  1  0
 35 30  2  0
 36 37  1  0
 37 38  1  0
 38 39  2  0
 40 39  1  0
 40 44  1  0
 41 40  2  0
 42 37  2  0
 42 41  1  0
 43 42  1  0
 45 46  1  0
 46 48  1  0
 46 49  1  0
 47 45  2  0
 50 25  1  0
 50 51  1  0
 52 50  1  0
 53 54  1  0
 53 97  1  0
 53  1  1  0
 55 54  1  0
 56 58  1  0
 56 55  1  0
 57 68  2  0
 58 63  1  0
 59 67  1  0
 59 69  1  0
 60 66  1  0
 60 62  1  0
 61 67  1  0
 62 61  1  0
 63 62  2  0
 64 65  1  0
 64 58  2  0
 65 60  2  0
 66 59  1  0
 67 57  1  0
 69 71  2  0
 70 69  1  0
 72 70  1  0
 73 82  2  0
 73 78  1  0
 74 70  1  0
 74 78  1  0
 75 74  1  0
 76 77  1  0
 76 75  1  0
 77 73  1  0
 78 79  2  0
 79 80  1  0
 81 80  2  0
 82 81  1  0
 83 57  1  0
 83 84  1  0
 83 93  1  0
 84 87  1  0
 85 89  1  0
 85 84  1  0
 86 85  2  0
 89 88  1  0
 91 89  1  0
 91 92  1  0
 91 90  1  0
 93 96  1  1
 93 94  1  0
 95 93  1  0
 97 98  1  0
 98 99  1  0
 98100  1  0
M  ISO  4  15 100  23 100  55 101  56 101
M  END
>  <TORSDO>  (59) 
F 27

>  <SCORE>  (59) 
-7.834

>  <name>  (59) 
58

>  <ligand_id>  (59) 
58

>  <original_smiles>  (59) 
[H]c1c([H])c([H])c2c(c1[H])C([H])([H])C([H])([H])C([H])([H])C2([H])N([H])C(=O)C1([H])N(C(=O)C([H])(N([H])C(=O)C([H])(N([H])C([H])([H])[H])C([H])([H])[H])C(C([H])([H])[H])(C([H])([H])[H])C([H])([H])[H])C([H])([H])c2c([H])c(OC([H])([H])C([H])([H])C([H])(C([H])([H])N([H])[H])[N+]([H])([H])C([H])([H])C3([H])C([H])([H])C([H])([H])C([H])(C([H])([H])C([H])([H])C([H])([H])C([H])([H])N([H])C(=O)N4C([H])([H])C([H])([H])C([H])([H])C([H])(n5nc(-c6c([H])c([H])c(Oc7c([H])c([H])c(F)c([H])c7F)c([H])c6[H])c(C(=O)N([H])[H])c5N([H])[H])C4([H])[H])C([H])([H])C3([H])[H])c([H])c([H])c2C1([H])[H]

>  <smiles>  (59) 
[H]c1c([H])c([H])c2c(c1[H])C([H])([H])C([H])([H])C([H])([H])C2([H])N([H])C(=O)C1([H])N(C(=O)C([H])(N([H])C(=O)C([H])(N([H])C([H])([H])[H])C([H])([H])[H])C(C([H])([H])[H])(C([H])([H])[H])C([H])([H])[H])C([H])([H])c2c([H])c(OC([H])([H])C([H])([H])C([H])(C([H])([H])N([H])[H])[N+]([H])([H])C([H])([H])C3([H])C([H])([H])C([H])([H])C([H])(C([H])([H])C([H])([H])C([H])([H])C([H])([H])N([H])C(=O)N4C([H])([H])C([H])([H])C([H])([H])C([H])(n5nc(-c6c([H])c([H])c(Oc7c([H])c([H])c(F)c([H])c7F)c([H])c6[H])c(C(=O)N([H])[H])c5N([H])[H])C4([H])[H])C([H])([H])C3([H])[H])c([H])c([H])c2C1([H])[H]

$$$$
59:0:0
     RDKit          3D

 93102  0  0  1  0  0  0  0  0999 V2000
  -26.7330  -21.9150   18.9050 C   0  0  0  0  0  0  0  0  0  0  0  0
  -29.3710  -22.5000   20.0230 C   0  0  0  0  0  0  0  0  0  0  0  0
  -26.8690  -23.1750   19.7680 C   0  0  0  0  0  2  0  0  0  0  0  0
  -28.0070  -21.1470   18.5290 C   0  0  0  0  0  2  0  0  0  0  0  0
  -28.3130  -23.7230   19.9640 C   0  0  0  0  0  3  0  0  0  0  0  0
  -29.0340  -21.2200   19.5750 N   0  0  0  0  0  0  0  0  0  0  0  0
  -25.6270  -21.5310   18.5210 O   0  0  0  0  0  0  0  0  0  0  0  0
  -30.4260  -22.6810   20.6330 O   0  0  0  0  0  0  0  0  0  0  0  0
  -28.5660  -25.0850   19.1020 C   0  0  0  0  0  2  0  0  0  0  0  0
  -28.4770  -26.5010   19.6260 O   0  0  0  0  0  0  0  0  0  0  0  0
  -24.7190  -31.7210   22.9540 C   0  0  0  0  0  0  0  0  0  0  0  0
  -27.3400  -27.3410   19.5970 C   0  0  0  0  0  0  0  0  0  0  0  0
  -23.5070  -30.3890   21.2660 C   0  0  0  0  0  3  0  0  0  0  0  0
  -24.9510  -28.9390   19.7210 C   0  0  0  0  0  0  0  0  0  0  0  0
  -26.0360  -30.7530   21.0480 C   0  0  0  0  0  2  0  0  0  0  0  0
  -26.1230  -29.4080   20.3260 C   0  0  0  0  0  0  0  0  0  0  0  0
  -27.3140  -28.6180   20.2580 C   0  0  0  0  0  3  0  0  0  0  0  0
  -26.1480  -26.9470   18.9520 C   0  0  0  0  0  3  0  0  0  0  0  0
  -24.9690  -27.7200   19.0230 C   0  0  0  0  0  3  0  0  0  0  0  0
  -23.7020  -29.7900   19.8460 C   0  0  0  0  0  2  0  0  0  0  0  0
  -24.7750  -30.9710   21.8140 N   0  0  0  0  0  0  0  0  0  0  0  0
  -23.6420  -31.9500   23.5250 O   0  0  0  0  0  0  0  0  0  0  0  0
  -22.8790  -29.3130   22.1840 C   0  0  0  0  0  0  0  0  0  0  0  0
  -21.5470  -29.1490   22.1060 N   0  0  0  0  0  0  0  0  0  0  0  0
  -23.5890  -28.6350   22.9320 O   0  0  0  0  0  0  0  0  0  0  0  0
  -21.0310  -29.7520   21.4790 H   0  0  0  0  0  0  0  0  0  0  0  0
  -18.1910  -27.9210   22.6750 C   0  0  0  0  0  0  0  0  0  0  0  0
  -20.7610  -28.1590   22.8460 C   0  0  0  0  0  3  0  0  0  0  0  0
  -20.8310  -26.7720   22.1670 C   0  0  0  0  0  2  0  0  0  0  0  0
  -19.6810  -26.5220   21.1840 C   0  0  0  0  0  2  0  0  0  0  0  0
  -18.3320  -26.6230   21.8990 C   0  0  0  0  0  2  0  0  0  0  0  0
  -19.3320  -28.6500   23.1060 C   0  0  0  0  0  0  0  0  0  0  0  0
  -19.1460  -29.8670   23.7960 C   0  0  0  0  0  3  0  0  0  0  0  0
  -17.8520  -30.3550   24.0600 C   0  0  0  0  0  3  0  0  0  0  0  0
  -16.7270  -29.6230   23.6430 C   0  0  0  0  0  3  0  0  0  0  0  0
  -16.8980  -28.4080   22.9570 C   0  0  0  0  0  3  0  0  0  0  0  0
  -26.0020  -32.3460   23.5850 C   0  0  0  0  0  3  0  0  0  0  0  0
  -26.5850  -31.4900   24.7760 C   0  0  1  0  0  0  0  0  0  0  0  0
  -25.5400  -31.1420   25.8610 C   0  0  0  0  0  1  0  0  0  0  0  0
  -27.1840  -30.1640   24.2560 C   0  0  0  0  0  1  0  0  0  0  0  0
  -27.7410  -32.2610   25.4550 C   0  0  0  0  0  1  0  0  0  0  0  0
  -25.6590  -33.7000   24.0420 N   0  0  0  0  0  0  0  0  0  0  0  0
  -25.9390  -34.8260   23.3700 C   0  0  0  0  0  0  0  0  0  0  0  0
  -26.5790  -34.8330   22.3150 O   0  0  0  0  0  0  0  0  0  0  0  0
  -25.0850  -33.7670   24.8700 H   0  0  0  0  0  0  0  0  0  0  0  0
  -24.1520  -36.5920   23.2200 C   0  0  0  0  0  1  0  0  0  0  0  0
  -25.4270  -36.1550   23.9600 C   0  0  0  0  0  3  0  0  0  0  0  0
  -27.5570  -37.0310   24.8120 C   0  0  0  0  0  1  0  0  0  0  0  0
  -26.4270  -37.2450   23.9120 N   0  0  0  0  0  0  0  0  0  0  0  0
  -25.9980  -38.1360   24.1470 H   0  0  0  0  0  0  0  0  0  0  0  0
  -29.2990  -19.8710   20.2730 C   0  0  0  0  0  2  0  0  0  0  0  0
  -30.0210  -18.5700   19.5920 C   0  0  0  0  0  2  0  0  0  0  0  0
  -31.0630  -14.8350   19.5110 C   0  0  0  0  0  0  0  0  0  0  0  0
  -30.7010  -12.5280   18.6010 C   0  0  0  0  0  2  0  0  0  0  0  0
  -29.6370  -12.5640   17.4870 C   0  0  0  0  0  2  0  0  0  0  0  0
  -28.2290  -12.3980   18.0860 C   0  0  0  0  0  2  0  0  0  0  0  0
  -27.9920  -13.3200   19.3100 C   0  0  0  0  0  3  0  0  0  0  0  0
  -29.1770  -13.2930   20.3030 C   0  0  0  0  0  2  0  0  0  0  0  0
  -30.3960  -13.6240   19.5540 N   0  0  0  0  0  0  0  0  0  0  0  0
  -32.1270  -14.9080   18.8910 O   0  0  0  0  0  0  0  0  0  0  0  0
  -30.2820  -16.9330   22.3830 C   0  0  0  0  0  2  0  0  0  0  0  0
  -29.0410  -17.0720   21.4960 C   0  0  0  0  0  2  0  0  0  0  0  0
  -31.3310  -16.2560   21.4870 C   0  0  0  0  0  2  0  0  0  0  0  0
  -29.5960  -17.0530   20.0650 C   0  0  0  0  0  3  0  0  0  0  0  0
  -30.6340  -15.9420   20.2420 N   0  0  0  0  0  0  0  0  0  0  0  0
  -25.7740  -13.9220   20.4460 C   0  0  0  0  0  0  0  0  0  0  0  0
  -24.7280  -13.1610   20.8870 C   0  0  0  0  0  0  0  0  0  0  0  0
  -25.0940  -11.8040   20.6370 C   0  0  0  0  0  0  0  0  0  0  0  0
  -26.7170  -13.0330   19.9590 N   0  0  0  0  0  0  0  0  0  0  0  0
  -26.3210  -11.7430   20.1290 N   0  0  0  0  0  0  0  0  0  0  0  0
  -24.3220  -10.5640   20.7950 C   0  0  0  0  0  0  0  0  0  0  0  0
  -24.7420   -9.5370   21.6690 C   0  0  0  0  0  3  0  0  0  0  0  0
  -23.9700   -8.3640   21.8200 C   0  0  0  0  0  3  0  0  0  0  0  0
  -22.7640   -8.2090   21.0980 C   0  0  0  0  0  0  0  0  0  0  0  0
  -22.3610   -9.2260   20.2130 C   0  0  0  0  0  3  0  0  0  0  0  0
  -23.1320  -10.3900   20.0580 C   0  0  0  0  0  3  0  0  0  0  0  0
  -21.9640   -7.0930   21.1600 O   0  0  0  0  0  0  0  0  0  0  0  0
  -21.8250   -6.3720   22.3180 C   0  0  0  0  0  0  0  0  0  0  0  0
  -21.3600   -6.9630   23.5130 C   0  0  0  0  0  3  0  0  0  0  0  0
  -21.1670   -6.1700   24.6630 C   0  0  0  0  0  3  0  0  0  0  0  0
  -21.4290   -4.7870   24.6170 C   0  0  0  0  0  0  0  0  0  0  0  0
  -21.8890   -4.1970   23.4270 C   0  0  0  0  0  3  0  0  0  0  0  0
  -22.0840   -4.9860   22.2800 C   0  0  0  0  0  0  0  0  0  0  0  0
  -22.5060   -4.4080   21.1300 F   0  0  0  0  0  0  0  0  0  0  0  0
  -21.2360   -4.0240   25.7180 F   0  0  0  0  0  0  0  0  0  0  0  0
  -23.4170  -13.6680   21.4190 C   0  0  0  0  0  0  0  0  0  0  0  0
  -22.7950  -12.9280   22.3320 N   0  0  0  0  0  0  0  0  0  0  0  0
  -22.9580  -14.7510   21.0640 O   0  0  0  0  0  0  0  0  0  0  0  0
  -23.1810  -12.0490   22.6400 H   0  0  0  0  0  0  0  0  0  0  0  0
  -21.9280  -13.2540   22.7340 H   0  0  0  0  0  0  0  0  0  0  0  0
  -25.9950  -15.2960   20.4020 N   0  0  0  0  0  0  0  0  0  0  0  0
  -25.2960  -15.9600   20.7160 H   0  0  0  0  0  0  0  0  0  0  0  0
  -26.8150  -15.7360   20.0070 H   0  0  0  0  0  0  0  0  0  0  0  0
  1  3  1  0
  2  8  2  0
  3  5  1  0
  4  1  1  0
  4  6  1  0
  5  9  1  0
  5  2  1  0
  6  2  1  0
  6 51  1  0
  7  1  2  0
  9 10  1  0
 11 22  2  0
 12 10  1  0
 12 17  1  0
 13 21  1  0
 13 23  1  0
 14 20  1  0
 14 16  1  0
 15 21  1  0
 16 15  1  0
 17 16  2  0
 18 19  1  0
 18 12  2  0
 19 14  2  0
 20 13  1  0
 21 11  1  0
 23 25  2  0
 24 23  1  0
 26 24  1  0
 27 36  2  0
 27 32  1  0
 28 24  1  0
 28 32  1  0
 29 28  1  0
 30 31  1  0
 30 29  1  0
 31 27  1  0
 32 33  2  0
 33 34  1  0
 35 34  2  0
 36 35  1  0
 37 11  1  0
 37 42  1  0
 37 38  1  0
 38 41  1  1
 38 39  1  0
 40 38  1  0
 42 45  1  0
 43 47  1  0
 43 42  1  0
 44 43  2  0
 47 46  1  0
 49 47  1  0
 49 50  1  0
 49 48  1  0
 52 51  1  0
 53 59  1  0
 53 65  1  0
 54 59  1  0
 55 56  1  0
 55 54  1  0
 57 56  1  0
 57 69  1  0
 57 58  1  0
 59 58  1  0
 60 53  2  0
 62 61  1  0
 63 61  1  0
 64 52  1  0
 64 65  1  0
 64 62  1  0
 65 63  1  0
 66 67  2  0
 67 86  1  0
 68 71  1  0
 68 67  1  0
 69 70  1  0
 69 66  1  0
 70 68  2  0
 71 72  1  0
 72 73  2  0
 74 77  1  0
 74 73  1  0
 75 74  2  0
 76 75  1  0
 76 71  2  0
 77 78  1  0
 78 79  1  0
 79 80  2  0
 81 80  1  0
 81 85  1  0
 82 81  2  0
 83 78  2  0
 83 82  1  0
 84 83  1  0
 86 87  1  0
 87 89  1  0
 87 90  1  0
 88 86  2  0
 91 66  1  0
 91 92  1  0
 93 91  1  0
M  ISO  4   9 101  10 101  53 100  65 100
M  END
>  <TORSDO>  (60) 
F 19

>  <SCORE>  (60) 
-12.462

>  <name>  (60) 
59

>  <ligand_id>  (60) 
59

>  <original_smiles>  (60) 
[H]c1c([H])c([H])c2c(c1[H])C([H])([H])C([H])([H])C([H])([H])C2([H])N([H])C(=O)C1([H])N(C(=O)C([H])(N([H])C(=O)C([H])(N([H])C([H])([H])[H])C([H])([H])[H])C(C([H])([H])[H])(C([H])([H])[H])C([H])([H])[H])C([H])([H])c2c([H])c(OC([H])([H])C3([H])C(=O)N(C([H])([H])C([H])([H])C4([H])N(C(=O)N5C([H])([H])C([H])([H])C([H])([H])C([H])(n6nc(-c7c([H])c([H])c(Oc8c([H])c([H])c(F)c([H])c8F)c([H])c7[H])c(C(=O)N([H])[H])c6N([H])[H])C5([H])[H])C([H])([H])C([H])([H])C4([H])[H])C([H])([H])C(=O)C3([H])[H])c([H])c([H])c2C1([H])[H]

>  <smiles>  (60) 
[H]c1c([H])c([H])c2c(c1[H])C([H])([H])C([H])([H])C([H])([H])C2([H])N([H])C(=O)C1([H])N(C(=O)C([H])(N([H])C(=O)C([H])(N([H])C([H])([H])[H])C([H])([H])[H])C(C([H])([H])[H])(C([H])([H])[H])C([H])([H])[H])C([H])([H])c2c([H])c(OC([H])([H])C3([H])C(=O)N(C([H])([H])C([H])([H])C4([H])N(C(=O)N5C([H])([H])C([H])([H])C([H])([H])C([H])(n6nc(-c7c([H])c([H])c(Oc8c([H])c([H])c(F)c([H])c8F)c([H])c7[H])c(C(=O)N([H])[H])c6N([H])[H])C5([H])[H])C([H])([H])C([H])([H])C4([H])[H])C([H])([H])C(=O)C3([H])[H])c([H])c([H])c2C1([H])[H]

$$$$
60:0:0
     RDKit          3D

101111  0  0  1  0  0  0  0  0999 V2000
  -31.1270  -23.7280   17.7430 C   0  0  0  0  0  2  0  0  0  0  0  0
  -32.5200  -23.3440   19.8190 C   0  0  0  0  0  2  0  0  0  0  0  0
  -31.3390  -25.2470   17.9210 C   0  0  0  0  0  2  0  0  0  0  0  0
  -32.7400  -24.8600   19.8990 C   0  0  0  0  0  2  0  0  0  0  0  0
  -32.2790  -22.9100   18.3660 C   0  0  0  0  0  3  0  0  0  0  0  0
  -31.5550  -25.5720   19.3530 N   0  0  1  0  0  4  0  0  0  0  0  0
  -30.7480  -25.1970   19.8280 H   0  0  0  0  0  0  0  0  0  0  0  0
  -32.8070  -19.2410   17.3950 C   0  0  0  0  0  3  0  0  0  0  0  0
  -31.6630  -18.6280   17.9360 C   0  0  0  0  0  3  0  0  0  0  0  0
  -33.0020  -20.6250   17.5520 C   0  0  0  0  0  3  0  0  0  0  0  0
  -30.9350  -20.7760   18.8450 C   0  0  0  0  0  3  0  0  0  0  0  0
  -30.7300  -19.3910   18.6660 C   0  0  0  0  0  0  0  0  0  0  0  0
  -32.0620  -21.4040   18.2610 C   0  0  0  0  0  0  0  0  0  0  0  0
  -28.5760  -18.1810   18.3300 C   0  0  0  0  0  2  0  0  0  0  0  0
  -29.4980  -18.7350   19.1200 C   0  0  0  0  0  3  0  0  0  0  0  0
  -28.0170  -17.3200   19.4430 C   0  0  0  0  0  2  0  0  0  0  0  0
  -29.1090  -17.9260   20.3600 C   0  0  0  0  0  3  0  0  0  0  0  0
  -30.2440  -17.0690   20.9610 C   0  0  0  0  0  2  0  0  0  0  0  0
  -30.6330  -14.6260   20.6230 C   0  0  0  0  0  0  0  0  0  0  0  0
  -30.3590  -12.5250   19.3860 C   0  0  0  0  0  2  0  0  0  0  0  0
  -29.4270  -12.7940   18.1890 C   0  0  0  0  0  2  0  0  0  0  0  0
  -27.9500  -12.6180   18.5980 C   0  0  0  0  0  2  0  0  0  0  0  0
  -27.5960  -13.3740   19.9070 C   0  0  0  0  0  3  0  0  0  0  0  0
  -28.6470  -13.1170   21.0080 C   0  0  0  0  0  2  0  0  0  0  0  0
  -29.9720  -13.4520   20.4600 N   0  0  0  0  0  0  0  0  0  0  0  0
  -31.7770  -14.8190   20.2010 O   0  0  0  0  0  0  0  0  0  0  0  0
  -29.8880  -15.6450   21.0830 N   0  0  0  0  0  0  0  0  0  0  0  0
  -28.9620  -15.4240   21.4130 H   0  0  0  0  0  0  0  0  0  0  0  0
  -25.1740  -13.9300   20.5670 C   0  0  0  0  0  0  0  0  0  0  0  0
  -24.1180  -13.1310   20.9130 C   0  0  0  0  0  0  0  0  0  0  0  0
  -24.6130  -11.7910   20.8870 C   0  0  0  0  0  0  0  0  0  0  0  0
  -26.2430  -13.0710   20.3570 N   0  0  0  0  0  0  0  0  0  0  0  0
  -25.9090  -11.7810   20.6050 N   0  0  0  0  0  0  0  0  0  0  0  0
  -23.9150  -10.5130   21.0590 C   0  0  0  0  0  0  0  0  0  0  0  0
  -24.3310   -9.5740   22.0270 C   0  0  0  0  0  3  0  0  0  0  0  0
  -23.6380   -8.3550   22.1840 C   0  0  0  0  0  3  0  0  0  0  0  0
  -22.5150   -8.0680   21.3740 C   0  0  0  0  0  0  0  0  0  0  0  0
  -22.1190   -8.9970   20.3950 C   0  0  0  0  0  3  0  0  0  0  0  0
  -22.8130  -10.2080   20.2350 C   0  0  0  0  0  3  0  0  0  0  0  0
  -21.7940   -6.9000   21.4400 O   0  0  0  0  0  0  0  0  0  0  0  0
  -21.6880   -6.1860   22.6070 C   0  0  0  0  0  0  0  0  0  0  0  0
  -21.1250   -6.7450   23.7760 C   0  0  0  0  0  3  0  0  0  0  0  0
  -20.9690   -5.9540   24.9310 C   0  0  0  0  0  3  0  0  0  0  0  0
  -21.3690   -4.6040   24.9170 C   0  0  0  0  0  0  0  0  0  0  0  0
  -21.9270   -4.0430   23.7540 C   0  0  0  0  0  3  0  0  0  0  0  0
  -22.0840   -4.8340   22.6010 C   0  0  0  0  0  0  0  0  0  0  0  0
  -22.6000   -4.2850   21.4760 F   0  0  0  0  0  0  0  0  0  0  0  0
  -21.2140   -3.8400   26.0230 F   0  0  0  0  0  0  0  0  0  0  0  0
  -22.7030  -13.5730   21.1580 C   0  0  0  0  0  0  0  0  0  0  0  0
  -21.9740  -12.8460   21.9970 N   0  0  0  0  0  0  0  0  0  0  0  0
  -22.2520  -14.5960   20.6450 O   0  0  0  0  0  0  0  0  0  0  0  0
  -22.3520  -12.0180   22.4340 H   0  0  0  0  0  0  0  0  0  0  0  0
  -21.0240  -13.1180   22.2040 H   0  0  0  0  0  0  0  0  0  0  0  0
  -25.3100  -15.3050   20.3990 N   0  0  0  0  0  0  0  0  0  0  0  0
  -24.5240  -15.9410   20.4920 H   0  0  0  0  0  0  0  0  0  0  0  0
  -26.1560  -15.7640   20.0920 H   0  0  0  0  0  0  0  0  0  0  0  0
  -31.5090  -27.0190   19.6750 C   0  0  0  0  0  2  0  0  0  0  0  0
  -31.3190  -27.2660   21.1910 C   0  0  0  0  0  2  0  0  0  0  0  0
  -30.3360  -26.2920   21.8820 C   0  0  0  0  0  2  0  0  0  0  0  0
  -28.8610  -26.6180   21.6470 C   0  0  0  0  0  2  0  0  0  0  0  0
  -28.5310  -26.8060   20.2600 O   0  0  0  0  0  0  0  0  0  0  0  0
  -24.6330  -31.8660   23.2090 C   0  0  0  0  0  0  0  0  0  0  0  0
  -27.3860  -27.5490   20.1330 C   0  0  0  0  0  0  0  0  0  0  0  0
  -23.4600  -30.4610   21.5370 C   0  0  0  0  0  3  0  0  0  0  0  0
  -24.9580  -28.9750   20.1000 C   0  0  0  0  0  0  0  0  0  0  0  0
  -25.9700  -30.8940   21.3510 C   0  0  0  0  0  2  0  0  0  0  0  0
  -26.0910  -29.5390   20.6950 C   0  0  0  0  0  0  0  0  0  0  0  0
  -27.3100  -28.8420   20.6920 C   0  0  0  0  0  3  0  0  0  0  0  0
  -26.2490  -26.9950   19.5120 C   0  0  0  0  0  3  0  0  0  0  0  0
  -25.0330  -27.7040   19.4960 C   0  0  0  0  0  3  0  0  0  0  0  0
  -23.6900  -29.7930   20.1510 C   0  0  0  0  0  2  0  0  0  0  0  0
  -24.7050  -31.0860   22.0920 N   0  0  0  0  0  0  0  0  0  0  0  0
  -23.5450  -32.1090   23.7490 O   0  0  0  0  0  0  0  0  0  0  0  0
  -22.8260  -29.4170   22.4850 C   0  0  0  0  0  0  0  0  0  0  0  0
  -21.5050  -29.2160   22.3460 N   0  0  0  0  0  0  0  0  0  0  0  0
  -23.5160  -28.7930   23.2940 O   0  0  0  0  0  0  0  0  0  0  0  0
  -21.0090  -29.7750   21.6650 H   0  0  0  0  0  0  0  0  0  0  0  0
  -18.1440  -27.9900   22.8200 C   0  0  0  0  0  0  0  0  0  0  0  0
  -20.6980  -28.2570   23.0990 C   0  0  0  0  0  3  0  0  0  0  0  0
  -20.8120  -26.8390   22.4930 C   0  0  0  0  0  2  0  0  0  0  0  0
  -19.7120  -26.5300   21.4710 C   0  0  0  0  0  2  0  0  0  0  0  0
  -18.3290  -26.6540   22.1180 C   0  0  0  0  0  2  0  0  0  0  0  0
  -19.2580  -28.7480   23.2650 C   0  0  0  0  0  0  0  0  0  0  0  0
  -19.0320  -29.9980   23.8810 C   0  0  0  0  0  3  0  0  0  0  0  0
  -17.7240  -30.4890   24.0550 C   0  0  0  0  0  3  0  0  0  0  0  0
  -16.6240  -29.7270   23.6270 C   0  0  0  0  0  3  0  0  0  0  0  0
  -16.8350  -28.4790   23.0130 C   0  0  0  0  0  3  0  0  0  0  0  0
  -25.9050  -32.5090   23.8450 C   0  0  0  0  0  3  0  0  0  0  0  0
  -25.5780  -33.9010   24.1730 N   0  0  0  0  0  0  0  0  0  0  0  0
  -25.9160  -34.9590   23.4250 C   0  0  0  0  0  0  0  0  0  0  0  0
  -26.6070  -34.8670   22.4050 O   0  0  0  0  0  0  0  0  0  0  0  0
  -24.9700  -34.0490   24.9660 H   0  0  0  0  0  0  0  0  0  0  0  0
  -24.1930  -36.7450   23.0220 C   0  0  0  0  0  1  0  0  0  0  0  0
  -25.4040  -36.3390   23.8780 C   0  0  0  0  0  3  0  0  0  0  0  0
  -27.4960  -37.2300   24.8020 C   0  0  0  0  0  1  0  0  0  0  0  0
  -26.4330  -37.3970   23.8140 N   0  0  0  0  0  0  0  0  0  0  0  0
  -26.0180  -38.3140   23.9520 H   0  0  0  0  0  0  0  0  0  0  0  0
  -26.4220  -31.7380   25.1220 C   0  0  1  0  0  0  0  0  0  0  0  0
  -25.3240  -31.4800   26.1800 C   0  0  0  0  0  1  0  0  0  0  0  0
  -27.0250  -30.3700   24.7230 C   0  0  0  0  0  1  0  0  0  0  0  0
  -27.5540  -32.5430   25.8000 C   0  0  0  0  0  1  0  0  0  0  0  0
  1  3  1  0
  1  5  1  0
  2  4  1  0
  3  6  1  0
  5 13  1  0
  5  2  1  0
  6 57  1  0
  6  7  1  1
  6  4  1  0
  8 10  2  0
  8  9  1  0
  9 12  2  0
 10 13  1  0
 12 11  1  0
 13 11  2  0
 14 15  1  0
 14 16  1  0
 15 12  1  0
 15 17  1  0
 16 17  1  0
 17 18  1  0
 18 27  1  0
 19 27  1  0
 20 25  1  0
 21 22  1  0
 21 20  1  0
 23 22  1  0
 23 32  1  0
 23 24  1  0
 25 19  1  0
 25 24  1  0
 26 19  2  0
 27 28  1  0
 29 30  2  0
 30 49  1  0
 31 30  1  0
 31 34  1  0
 32 29  1  0
 32 33  1  0
 33 31  2  0
 34 35  1  0
 35 36  2  0
 37 40  1  0
 37 36  1  0
 38 37  2  0
 39 38  1  0
 39 34  2  0
 40 41  1  0
 41 42  1  0
 42 43  2  0
 44 43  1  0
 44 48  1  0
 45 44  2  0
 46 41  2  0
 46 45  1  0
 47 46  1  0
 49 50  1  0
 50 53  1  0
 50 52  1  0
 51 49  2  0
 54 55  1  0
 54 29  1  0
 56 54  1  0
 57 58  1  0
 58 59  1  0
 60 59  1  0
 61 60  1  0
 62 73  2  0
 63 61  1  0
 63 68  1  0
 64 72  1  0
 64 74  1  0
 65 71  1  0
 65 67  1  0
 66 72  1  0
 67 66  1  0
 68 67  2  0
 69 63  2  0
 70 69  1  0
 70 65  2  0
 71 64  1  0
 72 62  1  0
 74 76  2  0
 75 74  1  0
 77 75  1  0
 78 87  2  0
 78 83  1  0
 79 75  1  0
 79 83  1  0
 80 79  1  0
 81 82  1  0
 81 80  1  0
 82 78  1  0
 83 84  2  0
 84 85  1  0
 86 85  2  0
 87 86  1  0
 88 62  1  0
 88 89  1  0
 88 98  1  0
 89 92  1  0
 90 94  1  0
 90 89  1  0
 91 90  2  0
 94 93  1  0
 96 94  1  0
 96 97  1  0
 96 95  1  0
 98101  1  1
 98 99  1  0
100 98  1  0
M  ISO  4  19 100  27 100  60 101  61 101
M  END
>  <TORSDO>  (61) 
F 23

>  <SCORE>  (61) 
-13.235

>  <name>  (61) 
60

>  <ligand_id>  (61) 
60

>  <original_smiles>  (61) 
[H]C1=C(c2c([H])c([H])c([H])c(C3([H])C([H])([H])C([H])([H])[N+]([H])(C([H])([H])C([H])([H])C([H])([H])C([H])([H])Oc4c([H])c([H])c5c(c4[H])C([H])([H])N(C(=O)C([H])(N([H])C(=O)C([H])(N([H])C([H])([H])[H])C([H])([H])[H])C(C([H])([H])[H])(C([H])([H])[H])C([H])([H])[H])C([H])(C(=O)N([H])C4([H])c6c([H])c([H])c([H])c([H])c6C([H])([H])C([H])([H])C4([H])[H])C5([H])[H])C([H])([H])C3([H])[H])c2[H])C([H])(C([H])([H])N([H])C(=O)N2C([H])([H])C([H])([H])C([H])([H])C([H])(n3nc(-c4c([H])c([H])c(Oc5c([H])c([H])c(F)c([H])c5F)c([H])c4[H])c(C(=O)N([H])[H])c3N([H])[H])C2([H])[H])C1([H])[H]

>  <smiles>  (61) 
[H]C1=C(c2c([H])c([H])c([H])c(C3([H])C([H])([H])C([H])([H])[N+]([H])(C([H])([H])C([H])([H])C([H])([H])C([H])([H])Oc4c([H])c([H])c5c(c4[H])C([H])([H])N(C(=O)C([H])(N([H])C(=O)C([H])(N([H])C([H])([H])[H])C([H])([H])[H])C(C([H])([H])[H])(C([H])([H])[H])C([H])([H])[H])C([H])(C(=O)N([H])C4([H])c6c([H])c([H])c([H])c([H])c6C([H])([H])C([H])([H])C4([H])[H])C5([H])[H])C([H])([H])C3([H])[H])c2[H])C([H])(C([H])([H])N([H])C(=O)N2C([H])([H])C([H])([H])C([H])([H])C([H])(n3nc(-c4c([H])c([H])c(Oc5c([H])c([H])c(F)c([H])c5F)c([H])c4[H])c(C(=O)N([H])[H])c3N([H])[H])C2([H])[H])C1([H])[H]

$$$$
61:0:0
     RDKit          3D

100109  0  0  1  0  0  0  0  0999 V2000
  -31.1160  -18.3050   17.9200 C   0  0  0  0  0  3  0  0  0  0  0  0
  -31.2270  -17.4170   19.0020 C   0  0  0  0  0  3  0  0  0  0  0  0
  -29.0550  -18.1440   19.8060 C   0  0  0  0  0  3  0  0  0  0  0  0
  -28.9370  -19.0580   18.7260 C   0  0  0  0  0  0  0  0  0  0  0  0
  -29.9620  -19.0960   17.7390 C   0  0  0  0  0  0  0  0  0  0  0  0
  -30.1670  -17.2790   19.9300 C   0  0  0  0  0  0  0  0  0  0  0  0
  -30.9570  -15.2110   21.0200 C   0  0  0  0  0  0  0  0  0  0  0  0
  -30.8550  -12.8910   20.2500 C   0  0  0  0  0  2  0  0  0  0  0  0
  -30.1320  -12.9080   18.8860 C   0  0  0  0  0  2  0  0  0  0  0  0
  -28.6070  -12.7980   19.0810 C   0  0  0  0  0  2  0  0  0  0  0  0
  -28.0580  -13.7990   20.1330 C   0  0  0  0  0  3  0  0  0  0  0  0
  -28.9190  -13.7870   21.4200 C   0  0  0  0  0  2  0  0  0  0  0  0
  -30.3210  -14.0110   21.0350 N   0  0  0  0  0  0  0  0  0  0  0  0
  -32.1790  -15.3130   20.8650 O   0  0  0  0  0  0  0  0  0  0  0  0
  -30.1420  -16.2800   20.9590 N   0  0  0  0  0  0  0  0  0  0  0  0
  -29.2230  -16.0910   21.3240 H   0  0  0  0  0  0  0  0  0  0  0  0
  -25.5980  -14.4560   20.4970 C   0  0  0  0  0  0  0  0  0  0  0  0
  -24.4730  -13.7080   20.7160 C   0  0  0  0  0  0  0  0  0  0  0  0
  -24.9090  -12.3500   20.7680 C   0  0  0  0  0  0  0  0  0  0  0  0
  -26.6470  -13.5540   20.4230 N   0  0  0  0  0  0  0  0  0  0  0  0
  -26.2280  -12.2820   20.6460 N   0  0  0  0  0  0  0  0  0  0  0  0
  -24.1390  -11.1050   20.8700 C   0  0  0  0  0  0  0  0  0  0  0  0
  -24.4540  -10.1190   21.8310 C   0  0  0  0  0  3  0  0  0  0  0  0
  -23.6860   -8.9390   21.9220 C   0  0  0  0  0  3  0  0  0  0  0  0
  -22.5910   -8.7350   21.0510 C   0  0  0  0  0  0  0  0  0  0  0  0
  -22.2950   -9.7110   20.0820 C   0  0  0  0  0  3  0  0  0  0  0  0
  -23.0640  -10.8830   19.9890 C   0  0  0  0  0  3  0  0  0  0  0  0
  -21.8080   -7.6070   21.0470 O   0  0  0  0  0  0  0  0  0  0  0  0
  -21.6810   -6.8170   22.1620 C   0  0  0  0  0  0  0  0  0  0  0  0
  -21.2110   -7.3320   23.3890 C   0  0  0  0  0  3  0  0  0  0  0  0
  -21.0270   -6.4720   24.4890 C   0  0  0  0  0  3  0  0  0  0  0  0
  -21.3060   -5.0980   24.3650 C   0  0  0  0  0  0  0  0  0  0  0  0
  -21.7690   -4.5810   23.1420 C   0  0  0  0  0  3  0  0  0  0  0  0
  -21.9540   -5.4380   22.0420 C   0  0  0  0  0  0  0  0  0  0  0  0
  -22.3810   -4.9320   20.8590 F   0  0  0  0  0  0  0  0  0  0  0  0
  -21.1210   -4.2690   25.4190 F   0  0  0  0  0  0  0  0  0  0  0  0
  -23.0620  -14.2170   20.7780 C   0  0  0  0  0  0  0  0  0  0  0  0
  -22.2130  -13.5650   21.5630 N   0  0  0  0  0  0  0  0  0  0  0  0
  -22.7200  -15.2300   20.1690 O   0  0  0  0  0  0  0  0  0  0  0  0
  -22.5040  -12.7490   22.0810 H   0  0  0  0  0  0  0  0  0  0  0  0
  -21.2590  -13.8870   21.6480 H   0  0  0  0  0  0  0  0  0  0  0  0
  -25.8120  -15.8190   20.3340 N   0  0  0  0  0  0  0  0  0  0  0  0
  -25.0440  -16.4810   20.3340 H   0  0  0  0  0  0  0  0  0  0  0  0
  -26.6990  -16.2190   20.0690 H   0  0  0  0  0  0  0  0  0  0  0  0
  -26.3780  -19.1730   18.7190 C   0  0  0  0  0  2  0  0  0  0  0  0
  -27.7040  -21.0850   19.6850 C   0  0  0  0  0  2  0  0  0  0  0  0
  -25.1650  -20.1170   18.5850 C   0  0  0  0  0  2  0  0  0  0  0  0
  -26.4710  -21.9950   19.5310 C   0  0  0  0  0  2  0  0  0  0  0  0
  -27.6990  -19.9560   18.6370 C   0  0  0  0  0  3  0  0  0  0  0  0
  -25.2140  -21.2120   19.5800 N   0  0  0  0  0  4  0  0  0  0  0  0
  -25.0860  -20.8380   20.5070 H   0  0  0  0  0  0  0  0  0  0  0  0
  -24.4410  -21.8370   19.4100 H   0  0  0  0  0  0  0  0  0  0  0  0
  -29.8310  -19.8440   16.4100 C   0  0  0  0  0  2  0  0  0  0  0  0
  -29.7730  -21.3850   16.4270 C   0  0  0  0  0  2  0  0  0  0  0  0
  -30.3770  -22.1140   17.6350 C   0  0  0  0  0  2  0  0  0  0  0  0
  -30.1380  -23.6240   17.4770 C   0  0  0  0  0  2  0  0  0  0  0  0
  -30.4970  -24.4740   18.7070 C   0  0  0  0  0  2  0  0  0  0  0  0
  -30.4030  -25.9840   18.4130 C   0  0  0  0  0  2  0  0  0  0  0  0
  -28.9700  -26.5350   18.3100 C   0  0  0  0  0  2  0  0  0  0  0  0
  -28.5310  -26.9340   19.6000 O   0  0  0  0  0  0  0  0  0  0  0  0
  -24.5590  -31.7100   23.0280 C   0  0  0  0  0  0  0  0  0  0  0  0
  -27.3210  -27.5830   19.6490 C   0  0  0  0  0  0  0  0  0  0  0  0
  -23.3700  -30.3360   21.3470 C   0  0  0  0  0  3  0  0  0  0  0  0
  -24.8530  -28.9420   19.8090 C   0  0  0  0  0  0  0  0  0  0  0  0
  -25.8670  -30.8270   21.1050 C   0  0  0  0  0  2  0  0  0  0  0  0
  -25.9960  -29.4950   20.3980 C   0  0  0  0  0  0  0  0  0  0  0  0
  -27.2300  -28.8150   20.3280 C   0  0  0  0  0  3  0  0  0  0  0  0
  -26.1600  -27.0290   19.0670 C   0  0  0  0  0  3  0  0  0  0  0  0
  -24.9260  -27.7030   19.1470 C   0  0  0  0  0  3  0  0  0  0  0  0
  -23.5710  -29.7360   19.9290 C   0  0  0  0  0  2  0  0  0  0  0  0
  -24.6170  -30.9710   21.8850 N   0  0  0  0  0  0  0  0  0  0  0  0
  -23.4820  -31.9050   23.6100 O   0  0  0  0  0  0  0  0  0  0  0  0
  -22.7940  -29.2400   22.2700 C   0  0  0  0  0  0  0  0  0  0  0  0
  -21.4710  -29.0240   22.1860 N   0  0  0  0  0  0  0  0  0  0  0  0
  -23.5300  -28.5890   23.0160 O   0  0  0  0  0  0  0  0  0  0  0  0
  -20.9380  -29.6040   21.5530 H   0  0  0  0  0  0  0  0  0  0  0  0
  -18.1540  -27.7150   22.7570 C   0  0  0  0  0  0  0  0  0  0  0  0
  -20.7150  -28.0200   22.9300 C   0  0  0  0  0  3  0  0  0  0  0  0
  -20.8220  -26.6320   22.2570 C   0  0  0  0  0  2  0  0  0  0  0  0
  -19.6810  -26.3460   21.2750 C   0  0  0  0  0  2  0  0  0  0  0  0
  -18.3280  -26.4160   21.9890 C   0  0  0  0  0  2  0  0  0  0  0  0
  -19.2740  -28.4760   23.1840 C   0  0  0  0  0  0  0  0  0  0  0  0
  -19.0550  -29.6940   23.8640 C   0  0  0  0  0  3  0  0  0  0  0  0
  -17.7500  -30.1520   24.1210 C   0  0  0  0  0  3  0  0  0  0  0  0
  -16.6440  -29.3870   23.7080 C   0  0  0  0  0  3  0  0  0  0  0  0
  -16.8470  -28.1710   23.0340 C   0  0  0  0  0  3  0  0  0  0  0  0
  -25.8340  -32.3640   23.6470 C   0  0  0  0  0  3  0  0  0  0  0  0
  -25.4790  -33.7320   24.0460 N   0  0  0  0  0  0  0  0  0  0  0  0
  -25.7650  -34.8300   23.3330 C   0  0  0  0  0  0  0  0  0  0  0  0
  -26.4290  -34.7990   22.2920 O   0  0  0  0  0  0  0  0  0  0  0  0
  -24.8860  -33.8290   24.8570 H   0  0  0  0  0  0  0  0  0  0  0  0
  -23.9630  -36.5650   23.0760 C   0  0  0  0  0  1  0  0  0  0  0  0
  -25.2300  -36.1760   23.8570 C   0  0  0  0  0  3  0  0  0  0  0  0
  -27.3370  -37.1060   24.7050 C   0  0  0  0  0  1  0  0  0  0  0  0
  -26.2190  -37.2710   23.7790 N   0  0  0  0  0  0  0  0  0  0  0  0
  -25.7780  -38.1680   23.9710 H   0  0  0  0  0  0  0  0  0  0  0  0
  -26.4170  -31.5580   24.8720 C   0  0  1  0  0  0  0  0  0  0  0  0
  -25.3640  -31.2330   25.9570 C   0  0  0  0  0  1  0  0  0  0  0  0
  -27.0380  -30.2220   24.4020 C   0  0  0  0  0  1  0  0  0  0  0  0
  -27.5560  -32.3670   25.5380 C   0  0  0  0  0  1  0  0  0  0  0  0
  1  2  1  0
  2  6  2  0
  3  6  1  0
  4  3  2  0
  5  1  2  0
  5  4  1  0
  6 15  1  0
  7 13  1  0
  8 13  1  0
  9 10  1  0
  9  8  1  0
 11 10  1  0
 11 20  1  0
 11 12  1  0
 13 12  1  0
 14  7  2  0
 15  7  1  0
 15 16  1  0
 17 18  2  0
 18 19  1  0
 18 37  1  0
 19 22  1  0
 20 17  1  0
 20 21  1  0
 21 19  2  0
 22 23  1  0
 23 24  2  0
 25 24  1  0
 26 25  2  0
 27 26  1  0
 27 22  2  0
 28 25  1  0
 28 29  1  0
 29 30  1  0
 30 31  2  0
 32 31  1  0
 32 36  1  0
 33 32  2  0
 34 29  2  0
 34 33  1  0
 35 34  1  0
 37 38  1  0
 38 41  1  0
 38 40  1  0
 39 37  2  0
 42 43  1  0
 42 17  1  0
 44 42  1  0
 47 45  1  0
 47 50  1  0
 48 50  1  0
 48 46  1  0
 49 45  1  0
 49  4  1  0
 49 46  1  0
 50 51  1  0
 52 50  1  0
 53 54  1  0
 53  5  1  0
 54 55  1  0
 56 55  1  0
 56 57  1  0
 58 57  1  0
 59 58  1  0
 59 60  1  0
 60 62  1  0
 61 72  2  0
 62 67  1  0
 63 71  1  0
 63 73  1  0
 64 70  1  0
 64 66  1  0
 65 71  1  0
 66 65  1  0
 67 66  2  0
 68 69  1  0
 68 62  2  0
 69 64  2  0
 70 63  1  0
 71 61  1  0
 73 75  2  0
 74 73  1  0
 76 74  1  0
 77 86  2  0
 77 82  1  0
 78 74  1  0
 78 82  1  0
 79 78  1  0
 80 81  1  0
 80 79  1  0
 81 77  1  0
 82 83  2  0
 83 84  1  0
 85 84  2  0
 86 85  1  0
 87 61  1  0
 87 88  1  0
 87 97  1  0
 88 91  1  0
 89 93  1  0
 89 88  1  0
 90 89  2  0
 93 92  1  0
 95 93  1  0
 95 96  1  0
 95 94  1  0
 97100  1  1
 97 98  1  0
 99 97  1  0
M  ISO  4   7 100  15 100  59 101  60 101
M  END
>  <TORSDO>  (62) 
F 24

>  <SCORE>  (62) 
-10.050

>  <name>  (62) 
61

>  <ligand_id>  (62) 
61

>  <original_smiles>  (62) 
[H]c1c([H])c([H])c2c(c1[H])C([H])([H])C([H])([H])C([H])([H])C2([H])N([H])C(=O)C1([H])N(C(=O)C([H])(N([H])C(=O)C([H])(N([H])C([H])([H])[H])C([H])([H])[H])C(C([H])([H])[H])(C([H])([H])[H])C([H])([H])[H])C([H])([H])c2c([H])c(OC([H])([H])C([H])([H])C([H])([H])C([H])([H])C([H])([H])C([H])([H])C([H])([H])c3c([H])c([H])c(N([H])C(=O)N4C([H])([H])C([H])([H])C([H])([H])C([H])(n5nc(-c6c([H])c([H])c(Oc7c([H])c([H])c(F)c([H])c7F)c([H])c6[H])c(C(=O)N([H])[H])c5N([H])[H])C4([H])[H])c([H])c3C3([H])C([H])([H])C([H])([H])[N+]([H])([H])C([H])([H])C3([H])[H])c([H])c([H])c2C1([H])[H]

>  <smiles>  (62) 
[H]c1c([H])c([H])c2c(c1[H])C([H])([H])C([H])([H])C([H])([H])C2([H])N([H])C(=O)C1([H])N(C(=O)C([H])(N([H])C(=O)C([H])(N([H])C([H])([H])[H])C([H])([H])[H])C(C([H])([H])[H])(C([H])([H])[H])C([H])([H])[H])C([H])([H])c2c([H])c(OC([H])([H])C([H])([H])C([H])([H])C([H])([H])C([H])([H])C([H])([H])C([H])([H])c3c([H])c([H])c(N([H])C(=O)N4C([H])([H])C([H])([H])C([H])([H])C([H])(n5nc(-c6c([H])c([H])c(Oc7c([H])c([H])c(F)c([H])c7F)c([H])c6[H])c(C(=O)N([H])[H])c5N([H])[H])C4([H])[H])c([H])c3C3([H])C([H])([H])C([H])([H])[N+]([H])([H])C([H])([H])C3([H])[H])c([H])c([H])c2C1([H])[H]

$$$$
62:0:0
     RDKit          3D

 95105  0  0  1  0  0  0  0  0999 V2000
  -29.2650  -22.3130   18.2490 C   0  0  0  0  0  3  0  0  0  0  0  0
  -30.3310  -22.8310   20.3740 C   0  0  0  0  0  3  0  0  0  0  0  0
  -28.7940  -23.6360   18.1600 C   0  0  0  0  0  3  0  0  0  0  0  0
  -29.8590  -24.1600   20.2840 C   0  0  0  0  0  3  0  0  0  0  0  0
  -30.0750  -21.9090   19.3330 C   0  0  0  0  0  0  0  0  0  0  0  0
  -29.1190  -24.5800   19.1570 C   0  0  0  0  0  0  0  0  0  0  0  0
  -30.6990  -14.4680   20.4010 C   0  0  0  0  0  0  0  0  0  0  0  0
  -30.3740  -12.3060   19.2830 C   0  0  0  0  0  2  0  0  0  0  0  0
  -29.4350  -12.5230   18.0780 C   0  0  0  0  0  2  0  0  0  0  0  0
  -27.9610  -12.3990   18.5130 C   0  0  0  0  0  2  0  0  0  0  0  0
  -27.6290  -13.2390   19.7760 C   0  0  0  0  0  3  0  0  0  0  0  0
  -28.6880  -13.0330   20.8830 C   0  0  0  0  0  2  0  0  0  0  0  0
  -30.0090  -13.3030   20.2970 N   0  0  0  0  0  0  0  0  0  0  0  0
  -31.8750  -14.5740   20.0450 O   0  0  0  0  0  0  0  0  0  0  0  0
  -33.0870  -19.5080   18.9410 C   0  0  0  0  0  2  0  0  0  0  0  0
  -32.3100  -20.8140   19.1030 C   0  0  0  0  0  2  0  0  0  0  0  0
  -32.8210  -18.5860   20.1360 C   0  0  0  0  0  2  0  0  0  0  0  0
  -30.8470  -17.3580   19.1190 C   0  0  0  0  0  2  0  0  0  0  0  0
  -31.2470  -17.3950   21.6480 C   0  0  0  0  0  2  0  0  0  0  0  0
  -30.5100  -19.5650   20.4280 C   0  0  0  0  0  2  0  0  0  0  0  0
  -29.6470  -16.4370   19.4290 C   0  0  0  0  0  2  0  0  0  0  0  0
  -30.0540  -16.4170   21.7740 C   0  0  0  0  0  2  0  0  0  0  0  0
  -30.8000  -20.5630   19.2650 C   0  0  0  0  0  3  0  0  0  0  0  0
  -31.3230  -18.2270   20.3250 C   0  0  1  0  0  0  0  0  0  0  0  0
  -29.9340  -15.5740   20.5820 N   0  0  0  0  0  0  0  0  0  0  0  0
  -25.2350  -13.8500   20.4910 C   0  0  0  0  0  0  0  0  0  0  0  0
  -24.1670  -13.0800   20.8630 C   0  0  0  0  0  0  0  0  0  0  0  0
  -24.6270  -11.7280   20.8370 C   0  0  0  0  0  0  0  0  0  0  0  0
  -26.2790  -12.9680   20.2620 N   0  0  0  0  0  0  0  0  0  0  0  0
  -25.9170  -11.6870   20.5290 N   0  0  0  0  0  0  0  0  0  0  0  0
  -23.9020  -10.4660   21.0320 C   0  0  0  0  0  0  0  0  0  0  0  0
  -24.3380   -9.4990   21.9630 C   0  0  0  0  0  3  0  0  0  0  0  0
  -23.6140   -8.3010   22.1460 C   0  0  0  0  0  3  0  0  0  0  0  0
  -22.4380   -8.0640   21.3960 C   0  0  0  0  0  0  0  0  0  0  0  0
  -22.0190   -9.0190   20.4540 C   0  0  0  0  0  3  0  0  0  0  0  0
  -22.7440  -10.2080   20.2700 C   0  0  0  0  0  3  0  0  0  0  0  0
  -21.6840   -6.9180   21.4890 O   0  0  0  0  0  0  0  0  0  0  0  0
  -21.6420   -6.1740   22.6400 C   0  0  0  0  0  0  0  0  0  0  0  0
  -21.2210   -6.7270   23.8690 C   0  0  0  0  0  3  0  0  0  0  0  0
  -21.1280   -5.9080   25.0140 C   0  0  0  0  0  3  0  0  0  0  0  0
  -21.4460   -4.5390   24.9290 C   0  0  0  0  0  0  0  0  0  0  0  0
  -21.8590   -3.9860   23.7040 C   0  0  0  0  0  3  0  0  0  0  0  0
  -21.9550   -4.8020   22.5620 C   0  0  0  0  0  0  0  0  0  0  0  0
  -22.3340   -4.2600   21.3800 F   0  0  0  0  0  0  0  0  0  0  0  0
  -21.3480   -3.7520   26.0250 F   0  0  0  0  0  0  0  0  0  0  0  0
  -22.7690  -13.5580   21.1340 C   0  0  0  0  0  0  0  0  0  0  0  0
  -22.0420  -12.8650   22.0040 N   0  0  0  0  0  0  0  0  0  0  0  0
  -22.3310  -14.5820   20.6120 O   0  0  0  0  0  0  0  0  0  0  0  0
  -22.4100  -12.0380   22.4490 H   0  0  0  0  0  0  0  0  0  0  0  0
  -21.1050  -13.1670   22.2290 H   0  0  0  0  0  0  0  0  0  0  0  0
  -25.4010  -15.2200   20.3090 N   0  0  0  0  0  0  0  0  0  0  0  0
  -24.6420  -15.8810   20.4270 H   0  0  0  0  0  0  0  0  0  0  0  0
  -26.2650  -15.6570   20.0140 H   0  0  0  0  0  0  0  0  0  0  0  0
  -28.7820  -26.0500   18.9330 C   0  0  0  0  0  2  0  0  0  0  0  0
  -28.4300  -26.7620   20.1220 O   0  0  0  0  0  0  0  0  0  0  0  0
  -24.5910  -31.8780   23.2300 C   0  0  0  0  0  0  0  0  0  0  0  0
  -27.2430  -27.4610   20.1230 C   0  0  0  0  0  0  0  0  0  0  0  0
  -23.3850  -30.4820   21.5820 C   0  0  0  0  0  3  0  0  0  0  0  0
  -24.8390  -28.9480   20.1550 C   0  0  0  0  0  0  0  0  0  0  0  0
  -25.9090  -30.8430   21.3870 C   0  0  0  0  0  2  0  0  0  0  0  0
  -25.9940  -29.4730   20.7470 C   0  0  0  0  0  0  0  0  0  0  0  0
  -27.1960  -28.7300   20.7390 C   0  0  0  0  0  3  0  0  0  0  0  0
  -26.0610  -26.9350   19.5520 C   0  0  0  0  0  3  0  0  0  0  0  0
  -24.8650  -27.6740   19.5610 C   0  0  0  0  0  3  0  0  0  0  0  0
  -23.5950  -29.8070   20.2000 C   0  0  0  0  0  2  0  0  0  0  0  0
  -24.6470  -31.0830   22.1240 N   0  0  0  0  0  0  0  0  0  0  0  0
  -23.5100  -32.1490   23.7700 O   0  0  0  0  0  0  0  0  0  0  0  0
  -22.7360  -29.4560   22.5380 C   0  0  0  0  0  0  0  0  0  0  0  0
  -21.4110  -29.2780   22.4110 N   0  0  0  0  0  0  0  0  0  0  0  0
  -23.4190  -28.8260   23.3490 O   0  0  0  0  0  0  0  0  0  0  0  0
  -20.9210  -29.8400   21.7280 H   0  0  0  0  0  0  0  0  0  0  0  0
  -18.0330  -28.0960   22.9070 C   0  0  0  0  0  0  0  0  0  0  0  0
  -20.5920  -28.3390   23.1770 C   0  0  0  0  0  3  0  0  0  0  0  0
  -20.6870  -26.9120   22.5910 C   0  0  0  0  0  2  0  0  0  0  0  0
  -19.5810  -26.6020   21.5760 C   0  0  0  0  0  2  0  0  0  0  0  0
  -18.2020  -26.7500   22.2240 C   0  0  0  0  0  2  0  0  0  0  0  0
  -19.1560  -28.8500   23.3410 C   0  0  0  0  0  0  0  0  0  0  0  0
  -18.9460  -30.1110   23.9390 C   0  0  0  0  0  3  0  0  0  0  0  0
  -17.6440  -30.6190   24.1070 C   0  0  0  0  0  3  0  0  0  0  0  0
  -16.5350  -29.8630   23.6910 C   0  0  0  0  0  3  0  0  0  0  0  0
  -16.7300  -28.6030   23.0980 C   0  0  0  0  0  3  0  0  0  0  0  0
  -25.8790  -32.5060   23.8510 C   0  0  0  0  0  3  0  0  0  0  0  0
  -25.5730  -33.9030   24.1840 N   0  0  0  0  0  0  0  0  0  0  0  0
  -25.9070  -34.9550   23.4240 C   0  0  0  0  0  0  0  0  0  0  0  0
  -26.5780  -34.8510   22.3930 O   0  0  0  0  0  0  0  0  0  0  0  0
  -24.9780  -34.0590   24.9840 H   0  0  0  0  0  0  0  0  0  0  0  0
  -24.1840  -36.7500   23.0640 C   0  0  0  0  0  1  0  0  0  0  0  0
  -25.4210  -36.3440   23.8800 C   0  0  0  0  0  3  0  0  0  0  0  0
  -27.5530  -37.2230   24.7210 C   0  0  0  0  0  1  0  0  0  0  0  0
  -26.4560  -37.3950   23.7730 N   0  0  0  0  0  0  0  0  0  0  0  0
  -26.0510  -38.3150   23.9190 H   0  0  0  0  0  0  0  0  0  0  0  0
  -26.3960  -31.7290   25.1250 C   0  0  1  0  0  0  0  0  0  0  0  0
  -25.3060  -31.4910   26.1940 C   0  0  0  0  0  1  0  0  0  0  0  0
  -26.9750  -30.3520   24.7250 C   0  0  0  0  0  1  0  0  0  0  0  0
  -27.5500  -32.5190   25.7870 C   0  0  0  0  0  1  0  0  0  0  0  0
  1  5  1  0
  3  1  2  0
  3  6  1  0
  4  2  1  0
  5  2  2  0
  6  4  2  0
  7 25  1  0
  8 13  1  0
  9 10  1  0
  9  8  1  0
 11 10  1  0
 11 29  1  0
 11 12  1  0
 13  7  1  0
 13 12  1  0
 14  7  2  0
 15 16  1  0
 15 17  1  0
 16 23  1  0
 24 17  1  6
 18 21  1  0
 19 22  1  0
 21 25  1  0
 23  5  1  0
 23 20  1  0
 24 18  1  0
 24 20  1  0
 24 19  1  0
 25 22  1  0
 26 27  2  0
 27 46  1  0
 28 27  1  0
 28 31  1  0
 29 26  1  0
 29 30  1  0
 30 28  2  0
 31 32  1  0
 32 33  2  0
 34 37  1  0
 34 33  1  0
 35 34  2  0
 36 35  1  0
 36 31  2  0
 37 38  1  0
 38 39  1  0
 39 40  2  0
 41 40  1  0
 41 45  1  0
 42 41  2  0
 43 38  2  0
 43 42  1  0
 44 43  1  0
 46 47  1  0
 47 50  1  0
 47 49  1  0
 48 46  2  0
 51 52  1  0
 51 26  1  0
 53 51  1  0
 54  6  1  0
 54 55  1  0
 55 57  1  0
 56 67  2  0
 57 62  1  0
 58 66  1  0
 58 68  1  0
 59 65  1  0
 59 61  1  0
 60 66  1  0
 61 60  1  0
 62 61  2  0
 63 64  1  0
 63 57  2  0
 64 59  2  0
 65 58  1  0
 66 56  1  0
 68 70  2  0
 69 68  1  0
 71 69  1  0
 72 81  2  0
 72 77  1  0
 73 69  1  0
 73 77  1  0
 74 73  1  0
 75 76  1  0
 75 74  1  0
 76 72  1  0
 77 78  2  0
 78 79  1  0
 80 79  2  0
 81 80  1  0
 82 56  1  0
 82 83  1  0
 82 92  1  0
 83 86  1  0
 84 88  1  0
 84 83  1  0
 85 84  2  0
 88 87  1  0
 90 88  1  0
 90 91  1  0
 90 89  1  0
 92 95  1  1
 92 93  1  0
 94 92  1  0
M  ISO  4   7 100  25 100  54 101  55 101
M  END
>  <TORSDO>  (63) 
F 17

>  <SCORE>  (63) 
-15.403

>  <name>  (63) 
62

>  <ligand_id>  (63) 
62

>  <original_smiles>  (63) 
[H]c1c([H])c([H])c2c(c1[H])C([H])([H])C([H])([H])C([H])([H])C2([H])N([H])C(=O)C1([H])N(C(=O)C([H])(N([H])C(=O)C([H])(N([H])C([H])([H])[H])C([H])([H])[H])C(C([H])([H])[H])(C([H])([H])[H])C([H])([H])[H])C([H])([H])c2c([H])c(OC([H])([H])c3c([H])c([H])c(C4([H])C([H])([H])C([H])([H])C([H])([H])C5(C([H])([H])C([H])([H])N(C(=O)N6C([H])([H])C([H])([H])C([H])([H])C([H])(n7nc(-c8c([H])c([H])c(Oc9c([H])c([H])c(F)c([H])c9F)c([H])c8[H])c(C(=O)N([H])[H])c7N([H])[H])C6([H])[H])C([H])([H])C5([H])[H])C4([H])[H])c([H])c3[H])c([H])c([H])c2C1([H])[H]

>  <smiles>  (63) 
[H]c1c([H])c([H])c2c(c1[H])C([H])([H])C([H])([H])C([H])([H])C2([H])N([H])C(=O)C1([H])N(C(=O)C([H])(N([H])C(=O)C([H])(N([H])C([H])([H])[H])C([H])([H])[H])C(C([H])([H])[H])(C([H])([H])[H])C([H])([H])[H])C([H])([H])c2c([H])c(OC([H])([H])c3c([H])c([H])c(C4([H])C([H])([H])C([H])([H])C([H])([H])C5(C([H])([H])C([H])([H])N(C(=O)N6C([H])([H])C([H])([H])C([H])([H])C([H])(n7nc(-c8c([H])c([H])c(Oc9c([H])c([H])c(F)c([H])c9F)c([H])c8[H])c(C(=O)N([H])[H])c7N([H])[H])C6([H])[H])C([H])([H])C5([H])[H])C4([H])[H])c([H])c3[H])c([H])c([H])c2C1([H])[H]

$$$$
63:0:0
     RDKit          3D

 95104  0  0  1  0  0  0  0  0999 V2000
  -31.0570  -21.7790   20.9530 C   0  0  0  0  0  2  0  0  0  0  0  0
  -30.0570  -21.5540   18.5970 C   0  0  0  0  0  2  0  0  0  0  0  0
  -29.9070  -22.7260   21.3130 C   0  0  0  0  0  2  0  0  0  0  0  0
  -28.9580  -22.5490   19.0000 C   0  0  0  0  0  2  0  0  0  0  0  0
  -30.6910  -20.8170   19.8030 C   0  0  0  0  0  3  0  0  0  0  0  0
  -29.4940  -23.5160   20.0630 C   0  0  0  0  0  3  0  0  0  0  0  0
  -31.9480  -20.0300   19.3870 C   0  0  0  0  0  2  0  0  0  0  0  0
  -31.6450  -17.9290   16.2050 C   0  0  0  0  0  3  0  0  0  0  0  0
  -31.2460  -16.6810   16.7080 C   0  0  0  0  0  3  0  0  0  0  0  0
  -31.8490  -19.0000   17.0930 C   0  0  0  0  0  3  0  0  0  0  0  0
  -31.0320  -16.5260   18.0890 C   0  0  0  0  0  3  0  0  0  0  0  0
  -31.6700  -18.8340   18.4870 C   0  0  0  0  0  0  0  0  0  0  0  0
  -31.2640  -17.5760   19.0060 C   0  0  0  0  0  0  0  0  0  0  0  0
  -31.0780  -17.3460   20.5180 C   0  0  0  0  0  2  0  0  0  0  0  0
  -31.5670  -14.9100   20.7870 C   0  0  0  0  0  0  0  0  0  0  0  0
  -31.2990  -12.7150   19.7270 C   0  0  0  0  0  2  0  0  0  0  0  0
  -30.4910  -12.9550   18.4340 C   0  0  0  0  0  2  0  0  0  0  0  0
  -28.9690  -12.9390   18.7140 C   0  0  0  0  0  2  0  0  0  0  0  0
  -28.5570  -13.7810   19.9570 C   0  0  0  0  0  3  0  0  0  0  0  0
  -29.5040  -13.5260   21.1530 C   0  0  0  0  0  2  0  0  0  0  0  0
  -30.8870  -13.7400   20.6910 N   0  0  0  0  0  0  0  0  0  0  0  0
  -32.7630  -15.0410   20.5140 O   0  0  0  0  0  0  0  0  0  0  0  0
  -30.7590  -15.9710   20.9100 N   0  0  0  0  0  0  0  0  0  0  0  0
  -29.7890  -15.7620   21.0940 H   0  0  0  0  0  0  0  0  0  0  0  0
  -26.1380  -14.4990   20.4670 C   0  0  0  0  0  0  0  0  0  0  0  0
  -25.0150  -13.7710   20.7510 C   0  0  0  0  0  0  0  0  0  0  0  0
  -25.4230  -12.4030   20.7600 C   0  0  0  0  0  0  0  0  0  0  0  0
  -27.1610  -13.5710   20.3200 N   0  0  0  0  0  0  0  0  0  0  0  0
  -26.7280  -12.3080   20.5550 N   0  0  0  0  0  0  0  0  0  0  0  0
  -24.6400  -11.1720   20.8980 C   0  0  0  0  0  0  0  0  0  0  0  0
  -24.9580  -10.2020   21.8730 C   0  0  0  0  0  3  0  0  0  0  0  0
  -24.1840   -9.0280   21.9920 C   0  0  0  0  0  3  0  0  0  0  0  0
  -23.0770   -8.8200   21.1350 C   0  0  0  0  0  0  0  0  0  0  0  0
  -22.7820   -9.7770   20.1480 C   0  0  0  0  0  3  0  0  0  0  0  0
  -23.5570  -10.9420   20.0280 C   0  0  0  0  0  3  0  0  0  0  0  0
  -22.2800   -7.7020   21.1610 O   0  0  0  0  0  0  0  0  0  0  0  0
  -22.0680   -6.9980   22.3190 C   0  0  0  0  0  0  0  0  0  0  0  0
  -21.5040   -7.6000   23.4650 C   0  0  0  0  0  3  0  0  0  0  0  0
  -21.2390   -6.8220   24.6090 C   0  0  0  0  0  3  0  0  0  0  0  0
  -21.5270   -5.4430   24.6070 C   0  0  0  0  0  0  0  0  0  0  0  0
  -22.0840   -4.8430   23.4630 C   0  0  0  0  0  3  0  0  0  0  0  0
  -22.3480   -5.6180   22.3220 C   0  0  0  0  0  0  0  0  0  0  0  0
  -22.8670   -5.0310   21.2170 F   0  0  0  0  0  0  0  0  0  0  0  0
  -21.2650   -4.6940   25.7030 F   0  0  0  0  0  0  0  0  0  0  0  0
  -23.6190  -14.3000   20.9100 C   0  0  0  0  0  0  0  0  0  0  0  0
  -22.8020  -13.6400   21.7230 N   0  0  0  0  0  0  0  0  0  0  0  0
  -23.2580  -15.3320   20.3460 O   0  0  0  0  0  0  0  0  0  0  0  0
  -23.1010  -12.8020   22.1990 H   0  0  0  0  0  0  0  0  0  0  0  0
  -21.8590  -13.9750   21.8670 H   0  0  0  0  0  0  0  0  0  0  0  0
  -26.3660  -15.8630   20.3040 N   0  0  0  0  0  0  0  0  0  0  0  0
  -25.6100  -16.5380   20.3640 H   0  0  0  0  0  0  0  0  0  0  0  0
  -27.2410  -16.2800   20.0130 H   0  0  0  0  0  0  0  0  0  0  0  0
  -28.5210  -24.6580   20.3750 C   0  0  0  0  0  2  0  0  0  0  0  0
  -28.6770  -25.8210   19.3910 C   0  0  0  0  0  2  0  0  0  0  0  0
  -28.4630  -27.0280   20.0960 O   0  0  0  0  0  0  0  0  0  0  0  0
  -24.5620  -31.9740   23.2910 C   0  0  0  0  0  0  0  0  0  0  0  0
  -27.2260  -27.6260   20.1310 C   0  0  0  0  0  0  0  0  0  0  0  0
  -23.3540  -30.5920   21.6300 C   0  0  0  0  0  3  0  0  0  0  0  0
  -24.8050  -29.0770   20.1880 C   0  0  0  0  0  0  0  0  0  0  0  0
  -25.8700  -30.9750   21.4250 C   0  0  0  0  0  2  0  0  0  0  0  0
  -25.9560  -29.6120   20.7750 C   0  0  0  0  0  0  0  0  0  0  0  0
  -27.1640  -28.8910   20.7480 C   0  0  0  0  0  3  0  0  0  0  0  0
  -26.0480  -27.0750   19.5710 C   0  0  0  0  0  3  0  0  0  0  0  0
  -24.8420  -27.7990   19.5920 C   0  0  0  0  0  3  0  0  0  0  0  0
  -23.5560  -29.9240   20.2430 C   0  0  0  0  0  2  0  0  0  0  0  0
  -24.6150  -31.1940   22.1750 N   0  0  0  0  0  0  0  0  0  0  0  0
  -23.4820  -32.2370   23.8370 O   0  0  0  0  0  0  0  0  0  0  0  0
  -22.7100  -29.5550   22.5770 C   0  0  0  0  0  0  0  0  0  0  0  0
  -21.3870  -29.3710   22.4430 N   0  0  0  0  0  0  0  0  0  0  0  0
  -23.3940  -28.9220   23.3850 O   0  0  0  0  0  0  0  0  0  0  0  0
  -20.9000  -29.9350   21.7600 H   0  0  0  0  0  0  0  0  0  0  0  0
  -18.0140  -28.1700   22.9000 C   0  0  0  0  0  0  0  0  0  0  0  0
  -20.5680  -28.4230   23.1950 C   0  0  0  0  0  3  0  0  0  0  0  0
  -20.6750  -27.0020   22.5950 C   0  0  0  0  0  2  0  0  0  0  0  0
  -19.5790  -26.6930   21.5710 C   0  0  0  0  0  2  0  0  0  0  0  0
  -18.1940  -26.8310   22.2090 C   0  0  0  0  0  2  0  0  0  0  0  0
  -19.1290  -28.9250   23.3480 C   0  0  0  0  0  0  0  0  0  0  0  0
  -18.9070  -30.1820   23.9530 C   0  0  0  0  0  3  0  0  0  0  0  0
  -17.6010  -30.6820   24.1150 C   0  0  0  0  0  3  0  0  0  0  0  0
  -16.5000  -29.9220   23.6860 C   0  0  0  0  0  3  0  0  0  0  0  0
  -16.7070  -28.6670   23.0850 C   0  0  0  0  0  3  0  0  0  0  0  0
  -25.8510  -32.5950   23.9220 C   0  0  0  0  0  3  0  0  0  0  0  0
  -25.5580  -33.9980   24.2370 N   0  0  0  0  0  0  0  0  0  0  0  0
  -25.9180  -35.0390   23.4750 C   0  0  0  0  0  0  0  0  0  0  0  0
  -26.6060  -34.9160   22.4570 O   0  0  0  0  0  0  0  0  0  0  0  0
  -24.9600  -34.1690   25.0330 H   0  0  0  0  0  0  0  0  0  0  0  0
  -24.2170  -36.8400   23.0660 C   0  0  0  0  0  1  0  0  0  0  0  0
  -25.4370  -36.4350   23.9080 C   0  0  0  0  0  3  0  0  0  0  0  0
  -27.5660  -37.2980   24.7750 C   0  0  0  0  0  1  0  0  0  0  0  0
  -26.4840  -37.4770   23.8090 N   0  0  0  0  0  0  0  0  0  0  0  0
  -26.0860  -38.4000   23.9500 H   0  0  0  0  0  0  0  0  0  0  0  0
  -26.3470  -31.8280   25.2070 C   0  0  1  0  0  0  0  0  0  0  0  0
  -25.2360  -31.5930   26.2600 C   0  0  0  0  0  1  0  0  0  0  0  0
  -26.9330  -30.4510   24.8220 C   0  0  0  0  0  1  0  0  0  0  0  0
  -27.4930  -32.6190   25.8830 C   0  0  0  0  0  1  0  0  0  0  0  0
  1  3  1  0
  2  4  1  0
  2  5  1  0
  4  6  1  0
  5  7  1  0
  5  1  1  0
  6 53  1  0
  6  3  1  0
  8  9  2  0
  8 10  1  0
  9 11  1  0
 10 12  2  0
 11 13  2  0
 12 13  1  0
 12  7  1  0
 13 14  1  0
 14 23  1  0
 15 23  1  0
 16 21  1  0
 17 18  1  0
 17 16  1  0
 19 18  1  0
 19 28  1  0
 19 20  1  0
 21 15  1  0
 21 20  1  0
 22 15  2  0
 23 24  1  0
 25 26  2  0
 26 27  1  0
 26 45  1  0
 27 30  1  0
 28 25  1  0
 28 29  1  0
 29 27  2  0
 30 31  1  0
 31 32  2  0
 33 36  1  0
 33 32  1  0
 34 33  2  0
 35 34  1  0
 35 30  2  0
 36 37  1  0
 37 42  2  0
 37 38  1  0
 38 39  2  0
 40 39  1  0
 40 44  1  0
 41 40  2  0
 42 41  1  0
 43 42  1  0
 45 46  1  0
 46 49  1  0
 46 48  1  0
 47 45  2  0
 50 51  1  0
 50 25  1  0
 52 50  1  0
 54 55  1  0
 54 53  1  0
 55 57  1  0
 56 67  2  0
 57 62  1  0
 58 66  1  0
 58 68  1  0
 59 65  1  0
 59 61  1  0
 60 66  1  0
 61 60  1  0
 62 61  2  0
 63 64  1  0
 63 57  2  0
 64 59  2  0
 65 58  1  0
 66 56  1  0
 68 70  2  0
 69 68  1  0
 71 69  1  0
 72 81  2  0
 72 77  1  0
 73 69  1  0
 73 77  1  0
 74 73  1  0
 75 76  1  0
 75 74  1  0
 76 72  1  0
 77 78  2  0
 78 79  1  0
 80 79  2  0
 81 80  1  0
 82 56  1  0
 82 83  1  0
 82 92  1  0
 83 86  1  0
 84 88  1  0
 84 83  1  0
 85 84  2  0
 88 87  1  0
 90 88  1  0
 90 91  1  0
 90 89  1  0
 92 95  1  1
 92 93  1  0
 94 92  1  0
M  ISO  4  15 100  23 100  54 101  55 101
M  END
>  <TORSDO>  (64) 
F 21

>  <SCORE>  (64) 
-11.767

>  <name>  (64) 
63

>  <ligand_id>  (64) 
63

>  <original_smiles>  (64) 
[H]c1c([H])c([H])c(C([H])([H])C2([H])C([H])([H])C([H])([H])C([H])(C([H])([H])C([H])([H])Oc3c([H])c([H])c4c(c3[H])C([H])([H])N(C(=O)C([H])(N([H])C(=O)C([H])(N([H])C([H])([H])[H])C([H])([H])[H])C(C([H])([H])[H])(C([H])([H])[H])C([H])([H])[H])C([H])(C(=O)N([H])C3([H])c5c([H])c([H])c([H])c([H])c5C([H])([H])C([H])([H])C3([H])[H])C4([H])[H])C([H])([H])C2([H])[H])c(C([H])([H])N([H])C(=O)N2C([H])([H])C([H])([H])C([H])([H])C([H])(n3nc(-c4c([H])c([H])c(Oc5c([H])c([H])c(F)c([H])c5F)c([H])c4[H])c(C(=O)N([H])[H])c3N([H])[H])C2([H])[H])c1[H]

>  <smiles>  (64) 
[H]c1c([H])c([H])c(C([H])([H])C2([H])C([H])([H])C([H])([H])C([H])(C([H])([H])C([H])([H])Oc3c([H])c([H])c4c(c3[H])C([H])([H])N(C(=O)C([H])(N([H])C(=O)C([H])(N([H])C([H])([H])[H])C([H])([H])[H])C(C([H])([H])[H])(C([H])([H])[H])C([H])([H])[H])C([H])(C(=O)N([H])C3([H])c5c([H])c([H])c([H])c([H])c5C([H])([H])C([H])([H])C3([H])[H])C4([H])[H])C([H])([H])C2([H])[H])c(C([H])([H])N([H])C(=O)N2C([H])([H])C([H])([H])C([H])([H])C([H])(n3nc(-c4c([H])c([H])c(Oc5c([H])c([H])c(F)c([H])c5F)c([H])c4[H])c(C(=O)N([H])[H])c3N([H])[H])C2([H])[H])c1[H]

$$$$
64:0:0
     RDKit          3D

 99109  0  0  1  0  0  0  0  0999 V2000
  -32.6720  -25.3850   19.9330 C   0  0  0  0  0  2  0  0  0  0  0  0
  -33.1200  -24.0990   20.6500 C   0  0  0  0  0  2  0  0  0  0  0  0
  -30.4860  -24.2430   19.3720 C   0  0  0  0  0  2  0  0  0  0  0  0
  -31.1320  -25.5340   19.9230 C   0  0  0  0  0  3  0  0  0  0  0  0
  -32.4210  -22.8410   20.0970 C   0  0  0  0  0  3  0  0  0  0  0  0
  -30.9480  -23.0330   20.0920 N   0  0  0  0  0  4  0  0  0  0  0  0
  -30.5300  -22.2440   19.6240 H   0  0  0  0  0  0  0  0  0  0  0  0
  -30.5880  -23.0460   21.0330 H   0  0  0  0  0  0  0  0  0  0  0  0
  -30.6980  -26.7640   19.0910 C   0  0  0  0  0  2  0  0  0  0  0  0
  -29.5190  -27.5760   19.6630 C   0  0  0  0  0  2  0  0  0  0  0  0
  -28.3170  -26.8160   19.8490 O   0  0  0  0  0  0  0  0  0  0  0  0
  -24.5750  -31.8620   23.3380 C   0  0  0  0  0  0  0  0  0  0  0  0
  -27.1530  -27.5420   20.0230 C   0  0  0  0  0  0  0  0  0  0  0  0
  -23.3190  -30.5240   21.6780 C   0  0  0  0  0  3  0  0  0  0  0  0
  -24.7300  -29.0050   20.1930 C   0  0  0  0  0  0  0  0  0  0  0  0
  -25.8370  -30.8800   21.4270 C   0  0  0  0  0  2  0  0  0  0  0  0
  -25.9020  -29.5260   20.7470 C   0  0  0  0  0  0  0  0  0  0  0  0
  -27.1110  -28.8070   20.6610 C   0  0  0  0  0  3  0  0  0  0  0  0
  -25.9510  -27.0080   19.5140 C   0  0  0  0  0  3  0  0  0  0  0  0
  -24.7430  -27.7330   19.5880 C   0  0  0  0  0  3  0  0  0  0  0  0
  -23.4890  -29.8660   20.2830 C   0  0  0  0  0  2  0  0  0  0  0  0
  -24.5990  -31.1000   22.2080 N   0  0  0  0  0  0  0  0  0  0  0  0
  -23.5090  -32.1260   23.9080 O   0  0  0  0  0  0  0  0  0  0  0  0
  -22.6750  -29.4860   22.6240 C   0  0  0  0  0  0  0  0  0  0  0  0
  -21.3540  -29.2920   22.4870 N   0  0  0  0  0  0  0  0  0  0  0  0
  -23.3620  -28.8550   23.4310 O   0  0  0  0  0  0  0  0  0  0  0  0
  -20.8610  -29.8540   21.8070 H   0  0  0  0  0  0  0  0  0  0  0  0
  -17.9910  -28.0480   22.9200 C   0  0  0  0  0  0  0  0  0  0  0  0
  -20.5400  -28.3340   23.2350 C   0  0  0  0  0  3  0  0  0  0  0  0
  -20.6720  -26.9120   22.6420 C   0  0  0  0  0  2  0  0  0  0  0  0
  -19.5880  -26.5880   21.6090 C   0  0  0  0  0  2  0  0  0  0  0  0
  -18.1950  -26.7080   22.2350 C   0  0  0  0  0  2  0  0  0  0  0  0
  -19.0940  -28.8190   23.3740 C   0  0  0  0  0  0  0  0  0  0  0  0
  -18.8490  -30.0760   23.9690 C   0  0  0  0  0  3  0  0  0  0  0  0
  -17.5370  -30.5580   24.1220 C   0  0  0  0  0  3  0  0  0  0  0  0
  -16.4480  -29.7820   23.6870 C   0  0  0  0  0  3  0  0  0  0  0  0
  -16.6780  -28.5310   23.0880 C   0  0  0  0  0  3  0  0  0  0  0  0
  -25.8820  -32.4530   23.9540 C   0  0  0  0  0  3  0  0  0  0  0  0
  -25.6120  -33.8520   24.3080 N   0  0  0  0  0  0  0  0  0  0  0  0
  -25.9940  -34.9090   23.5790 C   0  0  0  0  0  0  0  0  0  0  0  0
  -26.6830  -34.8050   22.5610 O   0  0  0  0  0  0  0  0  0  0  0  0
  -25.0020  -34.0060   25.0970 H   0  0  0  0  0  0  0  0  0  0  0  0
  -24.3540  -36.7770   23.1930 C   0  0  0  0  0  1  0  0  0  0  0  0
  -25.5390  -36.3030   24.0530 C   0  0  0  0  0  3  0  0  0  0  0  0
  -27.6650  -37.0750   25.0070 C   0  0  0  0  0  1  0  0  0  0  0  0
  -26.6130  -37.3180   24.0220 N   0  0  0  0  0  0  0  0  0  0  0  0
  -26.2380  -38.2480   24.1830 H   0  0  0  0  0  0  0  0  0  0  0  0
  -26.3960  -31.6490   25.2130 C   0  0  1  0  0  0  0  0  0  0  0  0
  -25.3020  -31.3960   26.2770 C   0  0  0  0  0  1  0  0  0  0  0  0
  -26.9670  -30.2770   24.7840 C   0  0  0  0  0  1  0  0  0  0  0  0
  -27.5570  -32.4150   25.8890 C   0  0  0  0  0  1  0  0  0  0  0  0
  -32.8470  -21.5840   20.8980 C   0  0  0  0  0  2  0  0  0  0  0  0
  -32.1280  -20.2910   20.4630 C   0  0  0  0  0  2  0  0  0  0  0  0
  -30.5510  -14.4280   19.6830 C   0  0  0  0  0  0  0  0  0  0  0  0
  -29.8880  -12.4030   18.4620 C   0  0  0  0  0  2  0  0  0  0  0  0
  -28.8400  -12.7580   17.3940 C   0  0  0  0  0  2  0  0  0  0  0  0
  -27.4270  -12.6380   17.9880 C   0  0  0  0  0  2  0  0  0  0  0  0
  -27.2810  -13.3680   19.3500 C   0  0  0  0  0  3  0  0  0  0  0  0
  -28.4680  -13.0960   20.3030 C   0  0  0  0  0  2  0  0  0  0  0  0
  -29.7170  -13.3540   19.5720 N   0  0  0  0  0  0  0  0  0  0  0  0
  -31.5830  -14.4960   19.0120 O   0  0  0  0  0  0  0  0  0  0  0  0
  -32.1540  -16.3890   21.5800 C   0  0  0  0  0  2  0  0  0  0  0  0
  -33.6770  -18.1790   20.5560 C   0  0  0  0  0  2  0  0  0  0  0  0
  -31.4590  -17.4230   19.3780 C   0  0  0  0  0  2  0  0  0  0  0  0
  -30.7260  -15.7930   21.6900 C   0  0  0  0  0  2  0  0  0  0  0  0
  -32.6010  -19.0230   21.1760 C   0  0  0  0  0  3  0  0  0  0  0  0
  -30.0590  -16.7840   19.5880 C   0  0  0  0  0  3  0  0  0  0  0  0
  -32.2710  -17.6140   20.6650 C   0  0  1  0  0  0  0  0  0  0  0  0
  -30.1370  -15.5210   20.3640 N   0  0  0  0  0  0  0  0  0  0  0  0
  -24.9640  -13.9050   20.3310 C   0  0  0  0  0  0  0  0  0  0  0  0
  -23.9610  -13.1080   20.8100 C   0  0  0  0  0  0  0  0  0  0  0  0
  -24.4430  -11.7670   20.7150 C   0  0  0  0  0  0  0  0  0  0  0  0
  -25.9970  -13.0520   19.9780 N   0  0  0  0  0  0  0  0  0  0  0  0
  -25.6930  -11.7580   20.2640 N   0  0  0  0  0  0  0  0  0  0  0  0
  -23.7620  -10.4890   20.9720 C   0  0  0  0  0  0  0  0  0  0  0  0
  -24.2520   -9.5690   21.9240 C   0  0  0  0  0  3  0  0  0  0  0  0
  -23.5670   -8.3590   22.1700 C   0  0  0  0  0  3  0  0  0  0  0  0
  -22.3750   -8.0630   21.4690 C   0  0  0  0  0  0  0  0  0  0  0  0
  -21.9050   -8.9710   20.5050 C   0  0  0  0  0  3  0  0  0  0  0  0
  -22.5910  -10.1710   20.2530 C   0  0  0  0  0  3  0  0  0  0  0  0
  -21.6540   -6.9050   21.6260 O   0  0  0  0  0  0  0  0  0  0  0  0
  -21.6350   -6.2250   22.8170 C   0  0  0  0  0  0  0  0  0  0  0  0
  -21.1780   -6.8290   24.0080 C   0  0  0  0  0  3  0  0  0  0  0  0
  -21.1010   -6.0730   25.1940 C   0  0  0  0  0  3  0  0  0  0  0  0
  -21.4740   -4.7160   25.1920 C   0  0  0  0  0  0  0  0  0  0  0  0
  -21.9250   -4.1120   24.0050 C   0  0  0  0  0  3  0  0  0  0  0  0
  -22.0000   -4.8630   22.8200 C   0  0  0  0  0  0  0  0  0  0  0  0
  -22.4140   -4.2710   21.6740 F   0  0  0  0  0  0  0  0  0  0  0  0
  -21.3930   -3.9900   26.3320 F   0  0  0  0  0  0  0  0  0  0  0  0
  -22.5980  -13.5570   21.2480 C   0  0  0  0  0  0  0  0  0  0  0  0
  -22.0070  -12.8640   22.2140 N   0  0  0  0  0  0  0  0  0  0  0  0
  -22.0720  -14.5590   20.7680 O   0  0  0  0  0  0  0  0  0  0  0  0
  -22.4540  -12.0490   22.6060 H   0  0  0  0  0  0  0  0  0  0  0  0
  -21.0980  -13.1430   22.5530 H   0  0  0  0  0  0  0  0  0  0  0  0
  -25.0630  -15.2770   20.1500 N   0  0  0  0  0  0  0  0  0  0  0  0
  -24.2930  -15.9060   20.3550 H   0  0  0  0  0  0  0  0  0  0  0  0
  -25.8820  -15.7560   19.7970 H   0  0  0  0  0  0  0  0  0  0  0  0
  -27.6120  -17.2390   20.2320 C   0  0  0  0  0  1  0  0  0  0  0  0
  -29.0350  -17.7950   20.1420 C   0  0  0  0  0  2  0  0  0  0  0  0
  1  2  1  0
  3  4  1  0
  3  6  1  0
  4  9  1  0
  4  1  1  0
  5  2  1  0
  5 52  1  0
  6  5  1  0
  6  8  1  0
  7  6  1  0
  9 10  1  0
 10 11  1  0
 11 13  1  0
 12 23  2  0
 13 18  1  0
 14 22  1  0
 14 24  1  0
 15 21  1  0
 15 17  1  0
 16 22  1  0
 17 16  1  0
 18 17  2  0
 19 20  1  0
 19 13  2  0
 20 15  2  0
 21 14  1  0
 22 12  1  0
 24 26  2  0
 25 24  1  0
 27 25  1  0
 28 37  2  0
 28 33  1  0
 29 25  1  0
 29 33  1  0
 30 29  1  0
 31 32  1  0
 31 30  1  0
 32 28  1  0
 33 34  2  0
 34 35  1  0
 36 35  2  0
 37 36  1  0
 38 12  1  0
 38 39  1  0
 38 48  1  0
 39 42  1  0
 40 44  1  0
 40 39  1  0
 41 40  2  0
 44 43  1  0
 46 44  1  0
 46 47  1  0
 46 45  1  0
 48 51  1  1
 48 49  1  0
 50 48  1  0
 53 52  1  0
 54 69  1  0
 55 60  1  0
 56 57  1  0
 56 55  1  0
 58 57  1  0
 58 73  1  0
 58 59  1  0
 60 54  1  0
 60 59  1  0
 61 54  2  0
 62 65  1  0
 68 63  1  6
 63 66  1  0
 64 67  1  0
 66 53  1  0
 67 99  1  0
 67 69  1  0
 68 64  1  0
 68 66  1  0
 68 62  1  0
 69 65  1  0
 70 71  2  0
 71 90  1  0
 72 71  1  0
 72 75  1  0
 73 74  1  0
 73 70  1  0
 74 72  2  0
 75 76  1  0
 76 77  2  0
 78 81  1  0
 78 77  1  0
 79 78  2  0
 80 79  1  0
 80 75  2  0
 81 82  1  0
 82 87  2  0
 82 83  1  0
 83 84  2  0
 85 84  1  0
 85 89  1  0
 86 85  2  0
 87 86  1  0
 88 87  1  0
 90 91  1  0
 91 94  1  0
 91 93  1  0
 92 90  2  0
 95 70  1  0
 95 96  1  0
 97 95  1  0
 99 98  1  0
M  ISO  4  10 101  11 101  54 100  69 100
M  END
>  <TORSDO>  (65) 
F 21

>  <SCORE>  (65) 
-10.870

>  <name>  (65) 
64

>  <ligand_id>  (65) 
64

>  <original_smiles>  (65) 
[H]c1c([H])c([H])c2c(c1[H])C([H])([H])C([H])([H])C([H])([H])C2([H])N([H])C(=O)C1([H])N(C(=O)C([H])(N([H])C(=O)C([H])(N([H])C([H])([H])[H])C([H])([H])[H])C(C([H])([H])[H])(C([H])([H])[H])C([H])([H])[H])C([H])([H])c2c([H])c(OC([H])([H])C([H])([H])C3([H])C([H])([H])C([H])([H])C([H])(C([H])([H])C([H])([H])C4([H])C([H])([H])C45C([H])([H])C([H])([H])N(C(=O)N4C([H])([H])C([H])([H])C([H])([H])C([H])(n6nc(-c7c([H])c([H])c(Oc8c([H])c([H])c(F)c([H])c8F)c([H])c7[H])c(C(=O)N([H])[H])c6N([H])[H])C4([H])[H])C([H])(C([H])([H])C([H])([H])[H])C5([H])[H])[N+]([H])([H])C3([H])[H])c([H])c([H])c2C1([H])[H]

>  <smiles>  (65) 
[H]c1c([H])c([H])c2c(c1[H])C([H])([H])C([H])([H])C([H])([H])C2([H])N([H])C(=O)C1([H])N(C(=O)C([H])(N([H])C(=O)C([H])(N([H])C([H])([H])[H])C([H])([H])[H])C(C([H])([H])[H])(C([H])([H])[H])C([H])([H])[H])C([H])([H])c2c([H])c(OC([H])([H])C([H])([H])C3([H])C([H])([H])C([H])([H])C([H])(C([H])([H])C([H])([H])C4([H])C([H])([H])C45C([H])([H])C([H])([H])N(C(=O)N4C([H])([H])C([H])([H])C([H])([H])C([H])(n6nc(-c7c([H])c([H])c(Oc8c([H])c([H])c(F)c([H])c8F)c([H])c7[H])c(C(=O)N([H])[H])c6N([H])[H])C4([H])[H])C([H])(C([H])([H])C([H])([H])[H])C5([H])[H])[N+]([H])([H])C3([H])[H])c([H])c([H])c2C1([H])[H]

$$$$
65:0:0
     RDKit          3D

 88 97  0  0  1  0  0  0  0  0999 V2000
  -30.5610  -15.0300   20.3150 C   0  0  0  0  0  0  0  0  0  0  0  0
  -30.4240  -12.6490   19.4220 C   0  0  0  0  0  2  0  0  0  0  0  0
  -29.5100  -12.5600   18.1800 C   0  0  0  0  0  2  0  0  0  0  0  0
  -28.0410  -12.3680   18.5980 C   0  0  0  0  0  2  0  0  0  0  0  0
  -27.6180  -13.3240   19.7450 C   0  0  0  0  0  3  0  0  0  0  0  0
  -28.6610  -13.3840   20.8780 C   0  0  0  0  0  2  0  0  0  0  0  0
  -29.9310  -13.7820   20.2580 N   0  0  0  0  0  0  0  0  0  0  0  0
  -31.7920  -15.0190   20.1840 O   0  0  0  0  0  0  0  0  0  0  0  0
  -28.1280  -17.8180   19.0100 C   0  0  0  0  0  2  0  0  0  0  0  0
  -28.5480  -18.0970   21.4140 C   0  0  0  0  0  2  0  0  0  0  0  0
  -30.4290  -19.0680   20.4460 C   0  0  0  0  0  2  0  0  0  0  0  0
  -29.3010  -16.7470   18.9420 C   0  0  0  0  0  2  0  0  0  0  0  0
  -28.1590  -18.9060   20.1520 C   0  0  0  0  0  3  0  0  0  0  0  0
  -29.2250  -20.0570   19.9560 C   0  0  0  0  0  3  0  0  0  0  0  0
  -29.9610  -17.6080   21.0620 C   0  0  0  0  0  3  0  0  0  0  0  0
  -29.8320  -16.2770   20.2490 N   0  0  0  0  0  0  0  0  0  0  0  0
  -25.2390  -13.9340   20.4430 C   0  0  0  0  0  0  0  0  0  0  0  0
  -24.1590  -13.1770   20.8030 C   0  0  0  0  0  0  0  0  0  0  0  0
  -24.6120  -11.8210   20.8060 C   0  0  0  0  0  0  0  0  0  0  0  0
  -26.2760  -13.0430   20.2350 N   0  0  0  0  0  0  0  0  0  0  0  0
  -25.9090  -11.7680   20.5230 N   0  0  0  0  0  0  0  0  0  0  0  0
  -23.8680  -10.5700   21.0040 C   0  0  0  0  0  0  0  0  0  0  0  0
  -24.2820   -9.6070   21.9510 C   0  0  0  0  0  3  0  0  0  0  0  0
  -23.5380   -8.4220   22.1370 C   0  0  0  0  0  3  0  0  0  0  0  0
  -22.3670   -8.1920   21.3780 C   0  0  0  0  0  0  0  0  0  0  0  0
  -21.9720   -9.1430   20.4210 C   0  0  0  0  0  3  0  0  0  0  0  0
  -22.7170  -10.3190   20.2320 C   0  0  0  0  0  3  0  0  0  0  0  0
  -21.5960   -7.0580   21.4730 O   0  0  0  0  0  0  0  0  0  0  0  0
  -21.5400   -6.3210   22.6280 C   0  0  0  0  0  0  0  0  0  0  0  0
  -21.1360   -6.8890   23.8560 C   0  0  0  0  0  3  0  0  0  0  0  0
  -21.0260   -6.0790   25.0040 C   0  0  0  0  0  3  0  0  0  0  0  0
  -21.3090   -4.7020   24.9250 C   0  0  0  0  0  0  0  0  0  0  0  0
  -21.7050   -4.1340   23.7020 C   0  0  0  0  0  3  0  0  0  0  0  0
  -21.8170   -4.9400   22.5560 C   0  0  0  0  0  0  0  0  0  0  0  0
  -22.1790   -4.3840   21.3760 F   0  0  0  0  0  0  0  0  0  0  0  0
  -21.1950   -3.9220   26.0250 F   0  0  0  0  0  0  0  0  0  0  0  0
  -22.7630  -13.6740   21.0340 C   0  0  0  0  0  0  0  0  0  0  0  0
  -22.0110  -13.0080   21.9040 N   0  0  0  0  0  0  0  0  0  0  0  0
  -22.3460  -14.6890   20.4790 O   0  0  0  0  0  0  0  0  0  0  0  0
  -22.3600  -12.1870   22.3750 H   0  0  0  0  0  0  0  0  0  0  0  0
  -21.0730  -13.3240   22.1010 H   0  0  0  0  0  0  0  0  0  0  0  0
  -25.4210  -15.3000   20.2490 N   0  0  0  0  0  0  0  0  0  0  0  0
  -24.6650  -15.9690   20.3500 H   0  0  0  0  0  0  0  0  0  0  0  0
  -26.2960  -15.7280   19.9770 H   0  0  0  0  0  0  0  0  0  0  0  0
  -28.8460  -21.6200   20.5740 C   0  0  0  0  0  2  0  0  0  0  0  0
  -28.9480  -23.1810   19.8730 C   0  0  0  0  0  3  0  0  0  0  0  0
  -28.1370  -24.6050   20.3800 C   0  0  0  0  0  3  0  0  0  0  0  0
  -28.3600  -26.1260   20.0150 O   0  0  0  0  0  0  0  0  0  0  0  0
  -24.7420  -31.8410   23.0900 C   0  0  0  0  0  0  0  0  0  0  0  0
  -27.2990  -27.1170   20.0190 C   0  0  0  0  0  0  0  0  0  0  0  0
  -23.5300  -30.4440   21.4610 C   0  0  0  0  0  3  0  0  0  0  0  0
  -24.9690  -28.8740   20.0160 C   0  0  0  0  0  0  0  0  0  0  0  0
  -26.0830  -30.7130   21.2680 C   0  0  0  0  0  2  0  0  0  0  0  0
  -26.1560  -29.3190   20.6130 C   0  0  0  0  0  0  0  0  0  0  0  0
  -27.3230  -28.4590   20.5910 C   0  0  0  0  0  3  0  0  0  0  0  0
  -26.0860  -26.7840   19.3840 C   0  0  0  0  0  3  0  0  0  0  0  0
  -24.9480  -27.6220   19.3840 C   0  0  0  0  0  3  0  0  0  0  0  0
  -23.7400  -29.7700   20.0790 C   0  0  0  0  0  2  0  0  0  0  0  0
  -24.8060  -31.0230   21.9940 N   0  0  0  0  0  0  0  0  0  0  0  0
  -23.6610  -32.1180   23.6310 O   0  0  0  0  0  0  0  0  0  0  0  0
  -22.8670  -29.4330   22.4290 C   0  0  0  0  0  0  0  0  0  0  0  0
  -21.5350  -29.2660   22.3270 N   0  0  0  0  0  0  0  0  0  0  0  0
  -23.5510  -28.8000   23.2370 O   0  0  0  0  0  0  0  0  0  0  0  0
  -21.0380  -29.8280   21.6500 H   0  0  0  0  0  0  0  0  0  0  0  0
  -18.1610  -28.0700   22.8900 C   0  0  0  0  0  0  0  0  0  0  0  0
  -20.7260  -28.3240   23.1060 C   0  0  0  0  0  3  0  0  0  0  0  0
  -20.8110  -26.8970   22.5170 C   0  0  0  0  0  2  0  0  0  0  0  0
  -19.6880  -26.5860   21.5240 C   0  0  0  0  0  2  0  0  0  0  0  0
  -18.3200  -26.7280   22.1970 C   0  0  0  0  0  2  0  0  0  0  0  0
  -19.2910  -28.8270   23.3030 C   0  0  0  0  0  0  0  0  0  0  0  0
  -19.0860  -30.0830   23.9150 C   0  0  0  0  0  3  0  0  0  0  0  0
  -17.7860  -30.5830   24.1160 C   0  0  0  0  0  3  0  0  0  0  0  0
  -16.6710  -29.8230   23.7180 C   0  0  0  0  0  3  0  0  0  0  0  0
  -16.8600  -28.5690   23.1120 C   0  0  0  0  0  3  0  0  0  0  0  0
  -26.0240  -32.4820   23.7040 C   0  0  0  0  0  3  0  0  0  0  0  0
  -25.6970  -33.8670   24.0790 N   0  0  0  0  0  0  0  0  0  0  0  0
  -25.9990  -34.9500   23.3480 C   0  0  0  0  0  0  0  0  0  0  0  0
  -26.6480  -34.8870   22.3010 O   0  0  0  0  0  0  0  0  0  0  0  0
  -25.1170  -33.9880   24.8960 H   0  0  0  0  0  0  0  0  0  0  0  0
  -24.2410  -36.7330   23.0890 C   0  0  0  0  0  1  0  0  0  0  0  0
  -25.5050  -36.3180   23.8600 C   0  0  0  0  0  3  0  0  0  0  0  0
  -27.6470  -37.2060   24.6700 C   0  0  0  0  0  1  0  0  0  0  0  0
  -26.5220  -37.3880   23.7560 N   0  0  0  0  0  0  0  0  0  0  0  0
  -26.1070  -38.2970   23.9410 H   0  0  0  0  0  0  0  0  0  0  0  0
  -26.5730  -31.6920   24.9560 C   0  0  1  0  0  0  0  0  0  0  0  0
  -25.5050  -31.4220   26.0410 C   0  0  0  0  0  1  0  0  0  0  0  0
  -27.1630  -30.3270   24.5300 C   0  0  0  0  0  1  0  0  0  0  0  0
  -27.7290  -32.4850   25.6100 C   0  0  0  0  0  1  0  0  0  0  0  0
  2  7  1  0
  3  4  1  0
  3  2  1  0
  5  4  1  0
  5 20  1  0
  5  6  1  0
  7  1  1  0
  7  6  1  0
  8  1  2  0
 12  9  1  0
 12 16  1  0
 13  9  1  0
 13 10  1  0
 14 13  1  0
 14 11  1  0
 14 45  1  0
 15 11  1  0
 15 10  1  0
 16  1  1  0
 16 15  1  0
 17 18  2  0
 18 19  1  0
 18 37  1  0
 19 22  1  0
 20 17  1  0
 20 21  1  0
 21 19  2  0
 22 23  1  0
 23 24  2  0
 25 28  1  0
 25 24  1  0
 26 25  2  0
 27 26  1  0
 27 22  2  0
 28 29  1  0
 29 30  1  0
 30 31  2  0
 32 31  1  0
 32 36  1  0
 33 32  2  0
 34 29  2  0
 34 33  1  0
 35 34  1  0
 37 38  1  0
 38 41  1  0
 38 40  1  0
 39 37  2  0
 42 43  1  0
 42 17  1  0
 44 42  1  0
 46 47  2  0
 46 45  1  0
 48 50  1  0
 48 47  1  0
 49 60  2  0
 50 55  1  0
 51 59  1  0
 51 61  1  0
 52 58  1  0
 52 54  1  0
 53 59  1  0
 54 53  1  0
 55 54  2  0
 56 57  1  0
 56 50  2  0
 57 52  2  0
 58 51  1  0
 59 49  1  0
 61 63  2  0
 62 61  1  0
 64 62  1  0
 65 74  2  0
 65 70  1  0
 66 62  1  0
 66 70  1  0
 67 66  1  0
 68 69  1  0
 68 67  1  0
 69 65  1  0
 70 71  2  0
 71 72  1  0
 73 72  2  0
 74 73  1  0
 75 49  1  0
 75 76  1  0
 75 85  1  0
 76 79  1  0
 77 81  1  0
 77 76  1  0
 78 77  2  0
 81 80  1  0
 83 81  1  0
 83 84  1  0
 83 82  1  0
 85 88  1  1
 85 86  1  0
 87 85  1  0
M  ISO  4   1 100  16 100  47 101  48 101
M  END
>  <TORSDO>  (66) 
F 18

>  <SCORE>  (66) 
-14.954

>  <name>  (66) 
65

>  <ligand_id>  (66) 
65

>  <original_smiles>  (66) 
[H]c1c([H])c([H])c2c(c1[H])C([H])([H])C([H])([H])C([H])([H])C2([H])N([H])C(=O)C1([H])N(C(=O)C([H])(N([H])C(=O)C([H])(N([H])C([H])([H])[H])C([H])([H])[H])C(C([H])([H])[H])(C([H])([H])[H])C([H])([H])[H])C([H])([H])c2c([H])c(OC([H])([H])C([H])([H])C([H])([H])C3([H])C([H])([H])C4([H])N(C(=O)N5C([H])([H])C([H])([H])C([H])([H])C([H])(n6nc(-c7c([H])c([H])c(Oc8c([H])c([H])c(F)c([H])c8F)c([H])c7[H])c(C(=O)N([H])[H])c6N([H])[H])C5([H])[H])C([H])([H])C([H])([H])C3([H])C4([H])[H])c([H])c([H])c2C1([H])[H]

>  <smiles>  (66) 
[H]c1c([H])c([H])c2c(c1[H])C([H])([H])C([H])([H])C([H])([H])C2([H])N([H])C(=O)C1([H])N(C(=O)C([H])(N([H])C(=O)C([H])(N([H])C([H])([H])[H])C([H])([H])[H])C(C([H])([H])[H])(C([H])([H])[H])C([H])([H])[H])C([H])([H])c2c([H])c(OC([H])([H])C([H])([H])C([H])([H])C3([H])C([H])([H])C4([H])N(C(=O)N5C([H])([H])C([H])([H])C([H])([H])C([H])(n6nc(-c7c([H])c([H])c(Oc8c([H])c([H])c(F)c([H])c8F)c([H])c7[H])c(C(=O)N([H])[H])c6N([H])[H])C5([H])[H])C([H])([H])C([H])([H])C3([H])C4([H])[H])c([H])c([H])c2C1([H])[H]

$$$$
66:0:0
     RDKit          3D

101111  0  0  1  0  0  0  0  0999 V2000
  -25.6950  -24.6390   24.1210 C   0  0  0  0  0  3  0  0  0  0  0  0
  -24.3650  -24.8440   24.0190 C   0  0  0  0  0  3  0  0  0  0  0  0
  -26.6620  -25.5220   23.4410 C   0  0  0  0  0  0  0  0  0  0  0  0
  -23.1860  -25.4920   21.8920 C   0  0  0  0  0  2  0  0  0  0  0  0
  -22.5580  -26.6380   24.0840 C   0  0  0  0  0  2  0  0  0  0  0  0
  -24.7700  -27.1030   23.0200 C   0  0  0  0  0  2  0  0  0  0  0  0
  -21.8710  -24.7090   22.0060 C   0  0  0  0  0  2  0  0  0  0  0  0
  -21.2240  -25.8640   24.0400 C   0  0  0  0  0  2  0  0  0  0  0  0
  -26.0910  -26.5560   22.4500 C   0  0  0  0  0  3  0  0  0  0  0  0
  -23.7130  -26.0000   23.2610 C   0  0  1  0  0  0  0  0  0  0  0  0
  -20.8560  -25.5840   22.6330 N   0  0  2  0  0  4  0  0  0  0  0  0
  -27.8770  -25.4360   23.6320 O   0  0  0  0  0  0  0  0  0  0  0  0
  -20.9320  -26.4750   22.1670 H   0  0  0  0  0  0  0  0  0  0  0  0
  -27.0320  -27.7210   22.0760 C   0  0  0  0  0  2  0  0  0  0  0  0
  -28.0940  -27.4040   21.0060 C   0  0  0  0  0  2  0  0  0  0  0  0
  -28.0260  -26.5480   15.4190 C   0  0  0  0  0  0  0  0  0  0  0  0
  -29.6720  -26.3130   13.5860 C   0  0  0  0  0  2  0  0  0  0  0  0
  -30.3070  -24.9090   13.5380 C   0  0  0  0  0  2  0  0  0  0  0  0
  -31.5250  -24.8220   14.4790 C   0  0  0  0  0  2  0  0  0  0  0  0
  -31.2000  -25.3410   15.9010 C   0  0  0  0  0  3  0  0  0  0  0  0
  -30.5190  -26.7200   15.8250 C   0  0  0  0  0  2  0  0  0  0  0  0
  -29.3130  -26.6220   14.9780 N   0  0  0  0  0  0  0  0  0  0  0  0
  -27.1050  -26.1310   14.7030 O   0  0  0  0  0  0  0  0  0  0  0  0
  -27.1540  -26.1680   18.9750 C   0  0  0  0  0  2  0  0  0  0  0  0
  -28.5730  -28.2380   18.6430 C   0  0  0  0  0  2  0  0  0  0  0  0
  -26.7360  -26.2690   17.4950 C   0  0  0  0  0  2  0  0  0  0  0  0
  -28.0730  -28.2700   17.1840 C   0  0  0  0  0  2  0  0  0  0  0  0
  -27.5570  -27.5390   19.5630 C   0  0  0  0  0  3  0  0  0  0  0  0
  -27.8060  -26.9030   16.7100 N   0  0  0  0  0  0  0  0  0  0  0  0
  -32.7810  -24.5470   17.7770 C   0  0  0  0  0  0  0  0  0  0  0  0
  -34.0090  -24.9950   18.1870 C   0  0  0  0  0  0  0  0  0  0  0  0
  -34.3140  -26.1190   17.3600 C   0  0  0  0  0  0  0  0  0  0  0  0
  -32.3940  -25.3910   16.7450 N   0  0  0  0  0  0  0  0  0  0  0  0
  -33.3060  -26.3750   16.5360 N   0  0  0  0  0  0  0  0  0  0  0  0
  -35.5340  -26.9300   17.2600 C   0  0  0  0  0  0  0  0  0  0  0  0
  -35.5130  -28.3270   17.4630 C   0  0  0  0  0  3  0  0  0  0  0  0
  -36.7020  -29.0820   17.3790 C   0  0  0  0  0  3  0  0  0  0  0  0
  -37.9310  -28.4410   17.0920 C   0  0  0  0  0  0  0  0  0  0  0  0
  -37.9440  -27.0520   16.8680 C   0  0  0  0  0  3  0  0  0  0  0  0
  -36.7570  -26.3040   16.9480 C   0  0  0  0  0  3  0  0  0  0  0  0
  -39.1320  -29.0950   16.9660 O   0  0  0  0  0  0  0  0  0  0  0  0
  -39.3990  -30.2480   17.6590 C   0  0  0  0  0  0  0  0  0  0  0  0
  -39.4340  -30.2770   19.0710 C   0  0  0  0  0  3  0  0  0  0  0  0
  -39.7820  -31.4670   19.7420 C   0  0  0  0  0  3  0  0  0  0  0  0
  -40.1040  -32.6230   19.0050 C   0  0  0  0  0  0  0  0  0  0  0  0
  -40.0760  -32.5930   17.6000 C   0  0  0  0  0  3  0  0  0  0  0  0
  -39.7290  -31.4070   16.9290 C   0  0  0  0  0  0  0  0  0  0  0  0
  -39.7250  -31.3790   15.5760 F   0  0  0  0  0  0  0  0  0  0  0  0
  -40.4450  -33.7640   19.6480 F   0  0  0  0  0  0  0  0  0  0  0  0
  -34.8940  -24.3640   19.2220 C   0  0  0  0  0  0  0  0  0  0  0  0
  -35.6080  -25.1740   19.9970 N   0  0  0  0  0  0  0  0  0  0  0  0
  -34.9230  -23.1440   19.3820 O   0  0  0  0  0  0  0  0  0  0  0  0
  -35.5730  -26.1760   19.8790 H   0  0  0  0  0  0  0  0  0  0  0  0
  -36.2000  -24.7870   20.7180 H   0  0  0  0  0  0  0  0  0  0  0  0
  -31.9740  -23.4880   18.1790 N   0  0  0  0  0  0  0  0  0  0  0  0
  -32.2490  -22.8290   18.8980 H   0  0  0  0  0  0  0  0  0  0  0  0
  -31.0780  -23.2650   17.7600 H   0  0  0  0  0  0  0  0  0  0  0  0
  -19.4460  -25.1800   22.4060 C   0  0  0  0  0  2  0  0  0  0  0  0
  -18.5340  -26.4270   22.4250 C   0  0  0  0  0  2  0  0  0  0  0  0
  -17.3590  -26.3990   21.4170 C   0  0  0  0  0  2  0  0  0  0  0  0
  -16.0950  -26.7570   21.9620 O   0  0  0  0  0  0  0  0  0  0  0  0
  -11.7220  -22.7510   25.8690 C   0  0  0  0  0  0  0  0  0  0  0  0
  -15.1370  -25.7770   21.9850 C   0  0  0  0  0  0  0  0  0  0  0  0
  -11.8130  -22.2030   23.4540 C   0  0  0  0  0  3  0  0  0  0  0  0
  -13.0580  -23.8760   21.9870 C   0  0  0  0  0  0  0  0  0  0  0  0
  -12.3130  -24.5680   24.2770 C   0  0  0  0  0  2  0  0  0  0  0  0
  -13.2440  -24.7130   23.0940 C   0  0  0  0  0  0  0  0  0  0  0  0
  -14.2730  -25.6720   23.0920 C   0  0  0  0  0  3  0  0  0  0  0  0
  -14.9540  -24.9290   20.8750 C   0  0  0  0  0  3  0  0  0  0  0  0
  -13.9150  -23.9760   20.8730 C   0  0  0  0  0  3  0  0  0  0  0  0
  -11.9110  -22.8960   22.0680 C   0  0  0  0  0  2  0  0  0  0  0  0
  -11.9690  -23.1640   24.5940 N   0  0  0  0  0  0  0  0  0  0  0  0
  -11.3260  -21.6000   26.1040 O   0  0  0  0  0  0  0  0  0  0  0  0
  -12.8300  -21.0410   23.4940 C   0  0  0  0  0  0  0  0  0  0  0  0
  -12.4600  -19.9540   24.1900 N   0  0  0  0  0  0  0  0  0  0  0  0
  -13.9000  -21.1170   22.8880 O   0  0  0  0  0  0  0  0  0  0  0  0
  -11.5660  -19.9730   24.6610 H   0  0  0  0  0  0  0  0  0  0  0  0
  -13.2250  -17.2540   26.4610 C   0  0  0  0  0  0  0  0  0  0  0  0
  -13.2350  -18.7240   24.3340 C   0  0  0  0  0  3  0  0  0  0  0  0
  -12.5290  -17.5390   23.6350 C   0  0  0  0  0  2  0  0  0  0  0  0
  -11.6200  -16.7370   24.5720 C   0  0  0  0  0  2  0  0  0  0  0  0
  -12.4230  -16.1760   25.7500 C   0  0  0  0  0  2  0  0  0  0  0  0
  -13.5910  -18.4580   25.8020 C   0  0  0  0  0  0  0  0  0  0  0  0
  -14.3050  -19.4420   26.5200 C   0  0  0  0  0  3  0  0  0  0  0  0
  -14.6530  -19.2400   27.8690 C   0  0  0  0  0  3  0  0  0  0  0  0
  -14.3040  -18.0400   28.5110 C   0  0  0  0  0  3  0  0  0  0  0  0
  -13.5970  -17.0490   27.8070 C   0  0  0  0  0  3  0  0  0  0  0  0
  -11.9020  -23.7090   27.0900 C   0  0  0  0  0  3  0  0  0  0  0  0
  -11.7700  -22.8990   28.3090 N   0  0  0  0  0  0  0  0  0  0  0  0
  -10.9570  -21.8400   28.4350 C   0  0  0  0  0  0  0  0  0  0  0  0
  -10.1790  -21.4850   27.5470 O   0  0  0  0  0  0  0  0  0  0  0  0
  -12.4200  -23.0960   29.0570 H   0  0  0  0  0  0  0  0  0  0  0  0
  -12.2110  -20.0820   29.7220 C   0  0  0  0  0  1  0  0  0  0  0  0
  -11.0170  -21.0500   29.7560 C   0  0  0  0  0  3  0  0  0  0  0  0
   -8.6280  -21.1700   30.3060 C   0  0  0  0  0  1  0  0  0  0  0  0
   -9.7750  -20.3020   30.0520 N   0  0  0  0  0  0  0  0  0  0  0  0
   -9.9010  -19.7020   30.8630 H   0  0  0  0  0  0  0  0  0  0  0  0
  -13.2770  -24.4840   27.0770 C   0  0  1  0  0  0  0  0  0  0  0  0
  -14.5030  -23.5620   26.8840 C   0  0  0  0  0  1  0  0  0  0  0  0
  -13.3020  -25.5460   25.9530 C   0  0  0  0  0  1  0  0  0  0  0  0
  -13.4530  -25.2450   28.4120 C   0  0  0  0  0  1  0  0  0  0  0  0
  2  1  2  0
  3 12  2  0
  3  1  1  0
  4  7  1  0
 10  6  1  6
  7 11  1  0
  8  5  1  0
  9 14  1  0
  9  6  1  0
  9  3  1  0
 10  4  1  0
 10  2  1  0
 10  5  1  0
 11  8  1  0
 11 13  1  6
 15 14  1  0
 16 29  1  0
 17 22  1  0
 18 17  1  0
 18 19  1  0
 20 19  1  0
 20 33  1  0
 21 20  1  0
 22 16  1  0
 22 21  1  0
 23 16  2  0
 24 28  1  0
 25 28  1  0
 26 24  1  0
 27 25  1  0
 28 15  1  0
 29 27  1  0
 29 26  1  0
 30 55  1  0
 30 31  2  0
 31 50  1  0
 32 31  1  0
 33 30  1  0
 34 33  1  0
 34 32  2  0
 35 32  1  0
 35 36  1  0
 37 36  2  0
 38 37  1  0
 39 40  1  0
 39 38  2  0
 40 35  2  0
 41 38  1  0
 41 42  1  0
 42 43  1  0
 43 44  2  0
 45 49  1  0
 45 44  1  0
 46 45  2  0
 47 46  1  0
 47 42  2  0
 48 47  1  0
 50 52  2  0
 50 51  1  0
 51 54  1  0
 53 51  1  0
 55 56  1  0
 57 55  1  0
 58 59  1  0
 58 11  1  0
 60 61  1  0
 60 59  1  0
 61 63  1  0
 62 73  2  0
 63 68  1  0
 64 74  1  0
 64 72  1  0
 65 71  1  0
 65 67  1  0
 66 72  1  0
 67 66  1  0
 68 67  2  0
 69 63  2  0
 70 69  1  0
 70 65  2  0
 71 64  1  0
 72 62  1  0
 74 75  1  0
 75 77  1  0
 76 74  2  0
 78 87  1  0
 79 75  1  0
 79 83  1  0
 80 79  1  0
 80 81  1  0
 81 82  1  0
 82 78  1  0
 83 78  2  0
 83 84  1  0
 84 85  2  0
 85 86  1  0
 87 86  2  0
 88 62  1  0
 88 89  1  0
 89 90  1  0
 89 92  1  0
 90 94  1  0
 91 90  2  0
 94 93  1  0
 94 96  1  0
 96 95  1  0
 96 97  1  0
 98 88  1  0
 98101  1  1
 99 98  1  0
100 98  1  0
M  ISO  4  16 100  29 100  60 101  61 101
M  END
>  <TORSDO>  (67) 
F 21

>  <SCORE>  (67) 
1.644

>  <name>  (67) 
66

>  <ligand_id>  (67) 
66

>  <original_smiles>  (67) 
[H]C1=C([H])C2(C([H])([H])C([H])(C([H])([H])C([H])([H])C3([H])C([H])([H])C([H])([H])N(C(=O)N4C([H])([H])C([H])([H])C([H])([H])C([H])(n5nc(-c6c([H])c([H])c(Oc7c([H])c([H])c(F)c([H])c7F)c([H])c6[H])c(C(=O)N([H])[H])c5N([H])[H])C4([H])[H])C([H])([H])C3([H])[H])C1=O)C([H])([H])C([H])([H])[N+]([H])(C([H])([H])C([H])([H])C([H])([H])Oc1c([H])c([H])c3c(c1[H])C([H])([H])N(C(=O)C([H])(N([H])C(=O)C([H])(N([H])C([H])([H])[H])C([H])([H])[H])C(C([H])([H])[H])(C([H])([H])[H])C([H])([H])[H])C([H])(C(=O)N([H])C1([H])c4c([H])c([H])c([H])c([H])c4C([H])([H])C([H])([H])C1([H])[H])C3([H])[H])C([H])([H])C2([H])[H]

>  <smiles>  (67) 
[H]C1=C([H])C2(C([H])([H])C([H])(C([H])([H])C([H])([H])C3([H])C([H])([H])C([H])([H])N(C(=O)N4C([H])([H])C([H])([H])C([H])([H])C([H])(n5nc(-c6c([H])c([H])c(Oc7c([H])c([H])c(F)c([H])c7F)c([H])c6[H])c(C(=O)N([H])[H])c5N([H])[H])C4([H])[H])C([H])([H])C3([H])[H])C1=O)C([H])([H])C([H])([H])[N+]([H])(C([H])([H])C([H])([H])C([H])([H])Oc1c([H])c([H])c3c(c1[H])C([H])([H])N(C(=O)C([H])(N([H])C(=O)C([H])(N([H])C([H])([H])[H])C([H])([H])[H])C(C([H])([H])[H])(C([H])([H])[H])C([H])([H])[H])C([H])(C(=O)N([H])C1([H])c4c([H])c([H])c([H])c([H])c4C([H])([H])C([H])([H])C1([H])[H])C3([H])[H])C([H])([H])C2([H])[H]

$$$$
67:0:0
     RDKit          3D

104112  0  0  1  0  0  0  0  0999 V2000
  -27.3050  -25.0960   21.7270 C   0  0  0  0  0  0  0  0  0  0  0  0
  -29.1080  -24.4280   20.0270 C   0  0  0  0  0  2  0  0  0  0  0  0
  -29.1380  -23.1180   20.8190 C   0  0  0  0  0  2  0  0  0  0  0  0
  -28.5300  -25.5520   20.8870 C   0  0  0  0  0  3  0  0  0  0  0  0
  -26.7540  -23.6430   21.5780 C   0  0  0  0  0  3  0  0  0  0  0  0
  -27.7570  -22.6410   21.0910 N   0  0  2  0  0  4  0  0  0  0  0  0
  -26.8240  -25.8690   22.5600 O   0  0  0  0  0  0  0  0  0  0  0  0
  -27.3960  -22.4050   20.1790 H   0  0  0  0  0  0  0  0  0  0  0  0
  -27.7290  -21.3480   21.8200 C   0  0  0  0  0  2  0  0  0  0  0  0
  -27.4940  -20.1690   20.8550 C   0  0  0  0  0  2  0  0  0  0  0  0
  -27.7850  -18.8160   21.5170 C   0  0  0  0  0  2  0  0  0  0  0  0
  -29.2900  -18.5100   21.5020 C   0  0  0  0  0  2  0  0  0  0  0  0
  -29.7500  -17.5980   22.6410 C   0  0  0  0  0  2  0  0  0  0  0  0
  -31.2670  -17.4120   22.5780 C   0  0  0  0  0  2  0  0  0  0  0  0
  -31.8350  -16.5630   23.7230 C   0  0  0  0  0  2  0  0  0  0  0  0
  -32.8960  -15.5720   23.2230 C   0  0  0  0  0  2  0  0  0  0  0  0
  -32.3340  -14.1840   22.8680 C   0  0  0  0  0  2  0  0  0  0  0  0
  -30.9300  -14.1650   20.8110 C   0  0  0  0  0  0  0  0  0  0  0  0
  -30.3990  -12.2910   19.3300 C   0  0  0  0  0  2  0  0  0  0  0  0
  -29.4500  -12.5530   18.1580 C   0  0  0  0  0  2  0  0  0  0  0  0
  -27.9930  -12.3800   18.6100 C   0  0  0  0  0  2  0  0  0  0  0  0
  -27.6670  -13.2110   19.8760 C   0  0  0  0  0  3  0  0  0  0  0  0
  -28.7190  -12.9890   20.9880 C   0  0  0  0  0  2  0  0  0  0  0  0
  -30.0660  -13.2030   20.4290 N   0  0  0  0  0  0  0  0  0  0  0  0
  -31.7800  -14.6710   20.0700 O   0  0  0  0  0  0  0  0  0  0  0  0
  -31.0600  -14.1750   22.1430 N   0  0  0  0  0  0  0  0  0  0  0  0
  -30.2960  -13.7280   22.6290 H   0  0  0  0  0  0  0  0  0  0  0  0
  -25.2620  -13.8180   20.5720 C   0  0  0  0  0  0  0  0  0  0  0  0
  -24.1870  -13.0460   20.9180 C   0  0  0  0  0  0  0  0  0  0  0  0
  -24.6430  -11.6920   20.8750 C   0  0  0  0  0  0  0  0  0  0  0  0
  -26.3090  -12.9380   20.3460 N   0  0  0  0  0  0  0  0  0  0  0  0
  -25.9360  -11.6530   20.5820 N   0  0  0  0  0  0  0  0  0  0  0  0
  -23.9090  -10.4300   21.0410 C   0  0  0  0  0  0  0  0  0  0  0  0
  -24.3630   -9.4210   21.9190 C   0  0  0  0  0  3  0  0  0  0  0  0
  -23.6290   -8.2250   22.0760 C   0  0  0  0  0  3  0  0  0  0  0  0
  -22.4280   -8.0290   21.3540 C   0  0  0  0  0  0  0  0  0  0  0  0
  -21.9920   -9.0270   20.4650 C   0  0  0  0  0  3  0  0  0  0  0  0
  -22.7260  -10.2150   20.3060 C   0  0  0  0  0  3  0  0  0  0  0  0
  -21.6640   -6.8890   21.4240 O   0  0  0  0  0  0  0  0  0  0  0  0
  -21.6850   -6.0750   22.5290 C   0  0  0  0  0  0  0  0  0  0  0  0
  -21.4010   -6.5640   23.8220 C   0  0  0  0  0  3  0  0  0  0  0  0
  -21.3660   -5.6790   24.9170 C   0  0  0  0  0  3  0  0  0  0  0  0
  -21.6040   -4.3060   24.7220 C   0  0  0  0  0  0  0  0  0  0  0  0
  -21.8820   -3.8150   23.4340 C   0  0  0  0  0  3  0  0  0  0  0  0
  -21.9190   -4.6980   22.3400 C   0  0  0  0  0  0  0  0  0  0  0  0
  -22.1660   -4.2160   21.0970 F   0  0  0  0  0  0  0  0  0  0  0  0
  -21.5630   -3.4540   25.7730 F   0  0  0  0  0  0  0  0  0  0  0  0
  -22.7880  -13.5240   21.1850 C   0  0  0  0  0  0  0  0  0  0  0  0
  -22.0520  -12.8220   22.0390 N   0  0  0  0  0  0  0  0  0  0  0  0
  -22.3570  -14.5560   20.6710 O   0  0  0  0  0  0  0  0  0  0  0  0
  -22.4120  -11.9850   22.4730 H   0  0  0  0  0  0  0  0  0  0  0  0
  -21.1160  -13.1280   22.2640 H   0  0  0  0  0  0  0  0  0  0  0  0
  -25.4350  -15.1900   20.4110 N   0  0  0  0  0  0  0  0  0  0  0  0
  -24.6760  -15.8530   20.5240 H   0  0  0  0  0  0  0  0  0  0  0  0
  -26.3010  -15.6240   20.1160 H   0  0  0  0  0  0  0  0  0  0  0  0
  -25.4300  -23.5570   20.7640 C   0  0  0  0  0  2  0  0  0  0  0  0
  -25.5510  -23.1440   19.2740 C   0  0  0  0  0  2  0  0  0  0  0  0
  -24.1790  -23.0120   18.5850 C   0  0  0  0  0  2  0  0  0  0  0  0
  -24.2600  -22.4480   17.1520 C   0  0  0  0  0  2  0  0  0  0  0  0
  -24.8050  -23.4180   16.1860 N   0  0  0  0  0  4  0  0  0  0  0  0
  -24.2040  -24.2180   16.1000 H   0  0  0  0  0  0  0  0  0  0  0  0
  -24.8700  -22.9880   15.2800 H   0  0  0  0  0  0  0  0  0  0  0  0
  -25.7240  -23.7270   16.4440 H   0  0  0  0  0  0  0  0  0  0  0  0
  -28.3950  -26.7520   20.0900 O   0  0  0  0  0  0  0  0  0  0  0  0
  -24.6110  -31.8720   23.2190 C   0  0  0  0  0  0  0  0  0  0  0  0
  -27.2260  -27.4720   20.0980 C   0  0  0  0  0  0  0  0  0  0  0  0
  -23.3960  -30.4980   21.5570 C   0  0  0  0  0  3  0  0  0  0  0  0
  -24.8420  -28.9680   20.1170 C   0  0  0  0  0  0  0  0  0  0  0  0
  -25.9210  -30.8480   21.3680 C   0  0  0  0  0  2  0  0  0  0  0  0
  -25.9980  -29.4860   20.7150 C   0  0  0  0  0  0  0  0  0  0  0  0
  -27.1950  -28.7420   20.7070 C   0  0  0  0  0  3  0  0  0  0  0  0
  -26.0660  -26.9700   19.4750 C   0  0  0  0  0  3  0  0  0  0  0  0
  -24.8670  -27.7060   19.4970 C   0  0  0  0  0  3  0  0  0  0  0  0
  -23.6030  -29.8320   20.1700 C   0  0  0  0  0  2  0  0  0  0  0  0
  -24.6610  -31.0860   22.1070 N   0  0  0  0  0  0  0  0  0  0  0  0
  -23.5320  -32.1450   23.7630 O   0  0  0  0  0  0  0  0  0  0  0  0
  -22.7380  -29.4680   22.5020 C   0  0  0  0  0  0  0  0  0  0  0  0
  -21.4120  -29.3040   22.3740 N   0  0  0  0  0  0  0  0  0  0  0  0
  -23.4170  -28.8210   23.3040 O   0  0  0  0  0  0  0  0  0  0  0  0
  -20.9270  -29.8810   21.7000 H   0  0  0  0  0  0  0  0  0  0  0  0
  -18.0260  -28.1370   22.8480 C   0  0  0  0  0  0  0  0  0  0  0  0
  -20.5850  -28.3670   23.1320 C   0  0  0  0  0  3  0  0  0  0  0  0
  -20.6750  -26.9410   22.5410 C   0  0  0  0  0  2  0  0  0  0  0  0
  -19.5740  -26.6390   21.5200 C   0  0  0  0  0  2  0  0  0  0  0  0
  -18.1920  -26.7920   22.1620 C   0  0  0  0  0  2  0  0  0  0  0  0
  -19.1510  -28.8830   23.2900 C   0  0  0  0  0  0  0  0  0  0  0  0
  -18.9430  -30.1440   23.8920 C   0  0  0  0  0  3  0  0  0  0  0  0
  -17.6440  -30.6580   24.0560 C   0  0  0  0  0  3  0  0  0  0  0  0
  -16.5330  -29.9090   23.6320 C   0  0  0  0  0  3  0  0  0  0  0  0
  -16.7250  -28.6510   23.0340 C   0  0  0  0  0  3  0  0  0  0  0  0
  -25.9040  -32.4830   23.8460 C   0  0  0  0  0  3  0  0  0  0  0  0
  -26.4500  -31.6600   25.0770 C   0  0  1  0  0  0  0  0  0  0  0  0
  -25.3780  -31.3680   26.1530 C   0  0  0  0  0  1  0  0  0  0  0  0
  -27.0350  -30.3040   24.6150 C   0  0  0  0  0  1  0  0  0  0  0  0
  -27.6080  -32.4320   25.7530 C   0  0  0  0  0  1  0  0  0  0  0  0
  -25.5920  -33.8630   24.2390 N   0  0  0  0  0  0  0  0  0  0  0  0
  -25.9010  -34.9480   23.5150 C   0  0  0  0  0  0  0  0  0  0  0  0
  -26.5550  -34.8920   22.4700 O   0  0  0  0  0  0  0  0  0  0  0  0
  -25.0130  -33.9800   25.0570 H   0  0  0  0  0  0  0  0  0  0  0  0
  -24.1470  -36.7310   23.2640 C   0  0  0  0  0  1  0  0  0  0  0  0
  -25.4090  -36.3120   24.0350 C   0  0  0  0  0  3  0  0  0  0  0  0
  -27.5570  -37.1790   24.8460 C   0  0  0  0  0  1  0  0  0  0  0  0
  -26.4270  -37.3810   23.9440 N   0  0  0  0  0  0  0  0  0  0  0  0
  -26.0160  -38.2870   24.1490 H   0  0  0  0  0  0  0  0  0  0  0  0
  1  7  2  0
  2  3  1  0
  2  4  1  0
  3  6  1  0
  4 64  1  0
  4  1  1  0
  5 56  1  0
  5  1  1  0
  6  5  1  0
  6  9  1  0
  6  8  1  6
 10 11  1  0
 10  9  1  0
 12 11  1  0
 12 13  1  0
 14 13  1  0
 14 15  1  0
 16 15  1  0
 17 16  1  0
 18 26  1  0
 19 24  1  0
 20 21  1  0
 20 19  1  0
 22 21  1  0
 22 31  1  0
 22 23  1  0
 24 18  1  0
 24 23  1  0
 25 18  2  0
 26 27  1  0
 26 17  1  0
 28 29  2  0
 29 48  1  0
 30 29  1  0
 30 33  1  0
 31 28  1  0
 31 32  1  0
 32 30  2  0
 33 34  1  0
 34 35  2  0
 36 39  1  0
 36 35  1  0
 37 36  2  0
 38 37  1  0
 38 33  2  0
 39 40  1  0
 40 41  1  0
 41 42  2  0
 43 42  1  0
 43 47  1  0
 44 43  2  0
 45 40  2  0
 45 44  1  0
 46 45  1  0
 48 49  1  0
 49 52  1  0
 49 51  1  0
 50 48  2  0
 53 54  1  0
 53 28  1  0
 55 53  1  0
 57 56  1  0
 58 57  1  0
 59 58  1  0
 60 63  1  0
 60 59  1  0
 61 60  1  0
 62 60  1  0
 64 66  1  0
 65 76  2  0
 66 71  1  0
 67 75  1  0
 67 77  1  0
 68 74  1  0
 68 70  1  0
 69 75  1  0
 70 69  1  0
 71 70  2  0
 72 73  1  0
 72 66  2  0
 73 68  2  0
 74 67  1  0
 75 65  1  0
 77 79  2  0
 78 77  1  0
 80 78  1  0
 81 90  2  0
 81 86  1  0
 82 78  1  0
 82 86  1  0
 83 82  1  0
 84 85  1  0
 84 83  1  0
 85 81  1  0
 86 87  2  0
 87 88  1  0
 89 88  2  0
 90 89  1  0
 91 65  1  0
 91 96  1  0
 91 92  1  0
 92 95  1  1
 92 93  1  0
 94 92  1  0
 96 99  1  0
 97101  1  0
 97 96  1  0
 98 97  2  0
101100  1  0
103101  1  0
103104  1  0
103102  1  0
M  ISO  4   4 101  18 100  26 100  64 101
M  END
>  <TORSDO>  (68) 
F 30

>  <SCORE>  (68) 
2.962

>  <name>  (68) 
67

>  <ligand_id>  (68) 
67

>  <original_smiles>  (68) 
[H]c1c([H])c([H])c2c(c1[H])C([H])([H])C([H])([H])C([H])([H])C2([H])N([H])C(=O)C1([H])N(C(=O)C([H])(N([H])C(=O)C([H])(N([H])C([H])([H])[H])C([H])([H])[H])C(C([H])([H])[H])(C([H])([H])[H])C([H])([H])[H])C([H])([H])c2c([H])c(OC3([H])C(=O)C([H])(C([H])([H])C([H])([H])C([H])([H])C([H])([H])[N+]([H])([H])[H])[N+]([H])(C([H])([H])C([H])([H])C([H])([H])C([H])([H])C([H])([H])C([H])([H])C([H])([H])C([H])([H])C([H])([H])N([H])C(=O)N4C([H])([H])C([H])([H])C([H])([H])C([H])(n5nc(-c6c([H])c([H])c(Oc7c([H])c([H])c(F)c([H])c7F)c([H])c6[H])c(C(=O)N([H])[H])c5N([H])[H])C4([H])[H])C([H])([H])C3([H])[H])c([H])c([H])c2C1([H])[H]

>  <smiles>  (68) 
[H]c1c([H])c([H])c2c(c1[H])C([H])([H])C([H])([H])C([H])([H])C2([H])N([H])C(=O)C1([H])N(C(=O)C([H])(N([H])C(=O)C([H])(N([H])C([H])([H])[H])C([H])([H])[H])C(C([H])([H])[H])(C([H])([H])[H])C([H])([H])[H])C([H])([H])c2c([H])c(OC3([H])C(=O)C([H])(C([H])([H])C([H])([H])C([H])([H])C([H])([H])[N+]([H])([H])[H])[N+]([H])(C([H])([H])C([H])([H])C([H])([H])C([H])([H])C([H])([H])C([H])([H])C([H])([H])C([H])([H])C([H])([H])N([H])C(=O)N4C([H])([H])C([H])([H])C([H])([H])C([H])(n5nc(-c6c([H])c([H])c(Oc7c([H])c([H])c(F)c([H])c7F)c([H])c6[H])c(C(=O)N([H])[H])c5N([H])[H])C4([H])[H])C([H])([H])C3([H])[H])c([H])c([H])c2C1([H])[H]

$$$$
68:0:0
     RDKit          3D

 93101  0  0  1  0  0  0  0  0999 V2000
  -26.9930  -20.4850   18.6460 C   0  0  0  0  0  2  0  0  0  0  0  0
  -29.1900  -20.0140   19.5920 C   0  0  0  0  0  2  0  0  0  0  0  0
  -26.7660  -21.5710   19.7410 C   0  0  0  0  0  2  0  0  0  0  0  0
  -28.9580  -20.9890   20.7410 C   0  0  0  0  0  2  0  0  0  0  0  0
  -27.8840  -19.3410   19.1720 C   0  0  0  0  0  3  0  0  0  0  0  0
  -28.0460  -22.0880   20.3520 N   0  0  2  0  0  4  0  0  0  0  0  0
  -28.5180  -22.6050   19.6270 H   0  0  0  0  0  0  0  0  0  0  0  0
  -28.0370  -18.1060   18.2390 C   0  0  0  0  0  2  0  0  0  0  0  0
  -29.4240  -17.7640   17.6340 C   0  0  0  0  0  2  0  0  0  0  0  0
  -30.0900  -16.5080   18.2290 C   0  0  0  0  0  2  0  0  0  0  0  0
  -30.8220  -16.6710   19.5770 C   0  0  0  0  0  2  0  0  0  0  0  0
  -30.9600  -14.6370   20.8940 C   0  0  0  0  0  0  0  0  0  0  0  0
  -30.6390  -12.4860   19.8450 C   0  0  0  0  0  2  0  0  0  0  0  0
  -29.7890  -12.6820   18.5730 C   0  0  0  0  0  2  0  0  0  0  0  0
  -28.2850  -12.5990   18.8930 C   0  0  0  0  0  2  0  0  0  0  0  0
  -27.8710  -13.4540   20.1190 C   0  0  0  0  0  3  0  0  0  0  0  0
  -28.8520  -13.2980   21.3020 C   0  0  0  0  0  2  0  0  0  0  0  0
  -30.2220  -13.5080   20.8080 N   0  0  0  0  0  0  0  0  0  0  0  0
  -32.1810  -14.6700   20.7930 O   0  0  0  0  0  0  0  0  0  0  0  0
  -30.2840  -15.7370   20.5770 N   0  0  0  0  0  0  0  0  0  0  0  0
  -29.2880  -15.7110   20.7220 H   0  0  0  0  0  0  0  0  0  0  0  0
  -25.4360  -14.0550   20.6810 C   0  0  0  0  0  0  0  0  0  0  0  0
  -24.3450  -13.2670   20.9510 C   0  0  0  0  0  0  0  0  0  0  0  0
  -24.8090  -11.9190   20.9360 C   0  0  0  0  0  0  0  0  0  0  0  0
  -26.4940  -13.1730   20.5160 N   0  0  0  0  0  0  0  0  0  0  0  0
  -26.1210  -11.8870   20.7340 N   0  0  0  0  0  0  0  0  0  0  0  0
  -24.0810  -10.6450   21.0530 C   0  0  0  0  0  0  0  0  0  0  0  0
  -24.4520   -9.6740   22.0080 C   0  0  0  0  0  3  0  0  0  0  0  0
  -23.7240   -8.4710   22.1250 C   0  0  0  0  0  3  0  0  0  0  0  0
  -22.6110   -8.2210   21.2810 C   0  0  0  0  0  0  0  0  0  0  0  0
  -22.2560   -9.1960   20.3260 C   0  0  0  0  0  3  0  0  0  0  0  0
  -22.9840  -10.3920   20.2100 C   0  0  0  0  0  3  0  0  0  0  0  0
  -21.8690   -7.0660   21.3090 O   0  0  0  0  0  0  0  0  0  0  0  0
  -21.7430   -6.3090   22.4500 C   0  0  0  0  0  0  0  0  0  0  0  0
  -21.2260   -6.8470   23.6520 C   0  0  0  0  0  3  0  0  0  0  0  0
  -21.0690   -6.0160   24.7810 C   0  0  0  0  0  3  0  0  0  0  0  0
  -21.3920   -4.6510   24.6990 C   0  0  0  0  0  0  0  0  0  0  0  0
  -21.8940   -4.1130   23.5010 C   0  0  0  0  0  3  0  0  0  0  0  0
  -22.0730   -4.9410   22.3780 C   0  0  0  0  0  0  0  0  0  0  0  0
  -22.5430   -4.4110   21.2190 F   0  0  0  0  0  0  0  0  0  0  0  0
  -21.2170   -3.8480   25.7760 F   0  0  0  0  0  0  0  0  0  0  0  0
  -22.9310  -13.7450   21.1200 C   0  0  0  0  0  0  0  0  0  0  0  0
  -22.1290  -13.0210   21.8950 N   0  0  0  0  0  0  0  0  0  0  0  0
  -22.5350  -14.7840   20.5970 O   0  0  0  0  0  0  0  0  0  0  0  0
  -22.4510  -12.1710   22.3290 H   0  0  0  0  0  0  0  0  0  0  0  0
  -21.1540  -13.2730   21.9800 H   0  0  0  0  0  0  0  0  0  0  0  0
  -25.6150  -15.4260   20.5480 N   0  0  0  0  0  0  0  0  0  0  0  0
  -24.8630  -16.0980   20.6430 H   0  0  0  0  0  0  0  0  0  0  0  0
  -26.5270  -15.8680   20.5140 H   0  0  0  0  0  0  0  0  0  0  0  0
  -27.8950  -23.0630   21.4740 C   0  0  0  0  0  2  0  0  0  0  0  0
  -28.5780  -24.4260   21.1860 C   0  0  0  0  0  2  0  0  0  0  0  0
  -27.7530  -25.3000   20.2340 C   0  0  0  0  0  2  0  0  0  0  0  0
  -28.1270  -26.7010   20.2350 O   0  0  0  0  0  0  0  0  0  0  0  0
  -24.5470  -31.9920   23.3830 C   0  0  0  0  0  0  0  0  0  0  0  0
  -27.0460  -27.5590   20.1630 C   0  0  0  0  0  0  0  0  0  0  0  0
  -23.3050  -30.6360   21.7420 C   0  0  0  0  0  3  0  0  0  0  0  0
  -24.7110  -29.1450   20.2350 C   0  0  0  0  0  0  0  0  0  0  0  0
  -25.8360  -30.9760   21.5010 C   0  0  0  0  0  2  0  0  0  0  0  0
  -25.8920  -29.6190   20.8260 C   0  0  0  0  0  0  0  0  0  0  0  0
  -27.0710  -28.8330   20.7860 C   0  0  0  0  0  3  0  0  0  0  0  0
  -25.8630  -27.1480   19.5060 C   0  0  0  0  0  3  0  0  0  0  0  0
  -24.6970  -27.9230   19.5540 C   0  0  0  0  0  3  0  0  0  0  0  0
  -23.4760  -30.0080   20.3360 C   0  0  0  0  0  2  0  0  0  0  0  0
  -24.5850  -31.2100   22.2680 N   0  0  0  0  0  0  0  0  0  0  0  0
  -23.4760  -32.2640   23.9440 O   0  0  0  0  0  0  0  0  0  0  0  0
  -22.6640  -29.5920   22.6860 C   0  0  0  0  0  0  0  0  0  0  0  0
  -21.3440  -29.3860   22.5460 N   0  0  0  0  0  0  0  0  0  0  0  0
  -23.3510  -28.9770   23.5080 O   0  0  0  0  0  0  0  0  0  0  0  0
  -20.8550  -29.9340   21.8510 H   0  0  0  0  0  0  0  0  0  0  0  0
  -17.9880  -28.1060   22.9580 C   0  0  0  0  0  0  0  0  0  0  0  0
  -20.5290  -28.4330   23.3010 C   0  0  0  0  0  3  0  0  0  0  0  0
  -20.6870  -26.9990   22.7400 C   0  0  0  0  0  2  0  0  0  0  0  0
  -19.6210  -26.6400   21.7010 C   0  0  0  0  0  2  0  0  0  0  0  0
  -18.2180  -26.7540   22.3050 C   0  0  0  0  0  2  0  0  0  0  0  0
  -19.0740  -28.9020   23.4110 C   0  0  0  0  0  0  0  0  0  0  0  0
  -18.8030  -30.1660   23.9770 C   0  0  0  0  0  3  0  0  0  0  0  0
  -17.4800  -30.6320   24.1010 C   0  0  0  0  0  3  0  0  0  0  0  0
  -16.4090  -29.8330   23.6640 C   0  0  0  0  0  3  0  0  0  0  0  0
  -16.6640  -28.5730   23.0950 C   0  0  0  0  0  3  0  0  0  0  0  0
  -25.8490  -32.6010   23.9930 C   0  0  0  0  0  3  0  0  0  0  0  0
  -25.5700  -34.0070   24.3080 N   0  0  0  0  0  0  0  0  0  0  0  0
  -25.9140  -35.0440   23.5290 C   0  0  0  0  0  0  0  0  0  0  0  0
  -26.5720  -34.9100   22.4930 O   0  0  0  0  0  0  0  0  0  0  0  0
  -24.9870  -34.1860   25.1130 H   0  0  0  0  0  0  0  0  0  0  0  0
  -24.2100  -36.8560   23.1670 C   0  0  0  0  0  1  0  0  0  0  0  0
  -25.4570  -36.4470   23.9670 C   0  0  0  0  0  3  0  0  0  0  0  0
  -27.6180  -37.3080   24.7510 C   0  0  0  0  0  1  0  0  0  0  0  0
  -26.5060  -37.4790   23.8190 N   0  0  0  0  0  0  0  0  0  0  0  0
  -26.1190  -38.4070   23.9550 H   0  0  0  0  0  0  0  0  0  0  0  0
  -26.3500  -31.8290   25.2730 C   0  0  1  0  0  0  0  0  0  0  0  0
  -25.2480  -31.6100   26.3370 C   0  0  0  0  0  1  0  0  0  0  0  0
  -26.9080  -30.4410   24.8800 C   0  0  0  0  0  1  0  0  0  0  0  0
  -27.5150  -32.6020   25.9300 C   0  0  0  0  0  1  0  0  0  0  0  0
  1  5  1  0
  1  3  1  0
  2  4  1  0
  3  6  1  0
  5  8  1  0
  5  2  1  0
  6  4  1  0
  6 50  1  0
  6  7  1  6
  9 10  1  0
  9  8  1  0
 10 11  1  0
 11 20  1  0
 13 18  1  0
 14 15  1  0
 14 13  1  0
 16 15  1  0
 16 25  1  0
 16 17  1  0
 18 12  1  0
 18 17  1  0
 19 12  2  0
 20 21  1  0
 20 12  1  0
 22 23  2  0
 23 42  1  0
 24 23  1  0
 24 27  1  0
 25 22  1  0
 25 26  1  0
 26 24  2  0
 27 28  1  0
 28 29  2  0
 30 33  1  0
 30 29  1  0
 31 30  2  0
 32 31  1  0
 32 27  2  0
 33 34  1  0
 34 35  1  0
 35 36  2  0
 37 36  1  0
 37 41  1  0
 38 37  2  0
 39 34  2  0
 39 38  1  0
 40 39  1  0
 42 43  1  0
 43 46  1  0
 43 45  1  0
 44 42  2  0
 47 48  1  0
 47 22  1  0
 49 47  1  0
 51 50  1  0
 52 53  1  0
 52 51  1  0
 54 65  2  0
 55 53  1  0
 55 60  1  0
 56 64  1  0
 56 66  1  0
 57 63  1  0
 57 59  1  0
 58 64  1  0
 59 58  1  0
 60 59  2  0
 61 62  1  0
 61 55  2  0
 62 57  2  0
 63 56  1  0
 64 54  1  0
 66 68  2  0
 67 66  1  0
 69 67  1  0
 70 79  2  0
 70 75  1  0
 71 67  1  0
 71 75  1  0
 72 71  1  0
 73 74  1  0
 73 72  1  0
 74 70  1  0
 75 76  2  0
 76 77  1  0
 78 77  2  0
 79 78  1  0
 80 54  1  0
 80 81  1  0
 80 90  1  0
 81 84  1  0
 82 86  1  0
 82 81  1  0
 83 82  2  0
 86 85  1  0
 88 89  1  0
 88 86  1  0
 88 87  1  0
 90 93  1  1
 90 91  1  0
 92 90  1  0
M  ISO  4  12 100  20 100  52 101  53 101
M  END
>  <TORSDO>  (69) 
F 23

>  <SCORE>  (69) 
-11.950

>  <name>  (69) 
68

>  <ligand_id>  (69) 
68

>  <original_smiles>  (69) 
[H]c1c([H])c([H])c2c(c1[H])C([H])([H])C([H])([H])C([H])([H])C2([H])N([H])C(=O)C1([H])N(C(=O)C([H])(N([H])C(=O)C([H])(N([H])C([H])([H])[H])C([H])([H])[H])C(C([H])([H])[H])(C([H])([H])[H])C([H])([H])[H])C([H])([H])c2c([H])c(OC([H])([H])C([H])([H])C([H])([H])[N+]3([H])C([H])([H])C([H])([H])C([H])(C([H])([H])C([H])([H])C([H])([H])C([H])([H])N([H])C(=O)N4C([H])([H])C([H])([H])C([H])([H])C([H])(n5nc(-c6c([H])c([H])c(Oc7c([H])c([H])c(F)c([H])c7F)c([H])c6[H])c(C(=O)N([H])[H])c5N([H])[H])C4([H])[H])C([H])([H])C3([H])[H])c([H])c([H])c2C1([H])[H]

>  <smiles>  (69) 
[H]c1c([H])c([H])c2c(c1[H])C([H])([H])C([H])([H])C([H])([H])C2([H])N([H])C(=O)C1([H])N(C(=O)C([H])(N([H])C(=O)C([H])(N([H])C([H])([H])[H])C([H])([H])[H])C(C([H])([H])[H])(C([H])([H])[H])C([H])([H])[H])C([H])([H])c2c([H])c(OC([H])([H])C([H])([H])C([H])([H])[N+]3([H])C([H])([H])C([H])([H])C([H])(C([H])([H])C([H])([H])C([H])([H])C([H])([H])N([H])C(=O)N4C([H])([H])C([H])([H])C([H])([H])C([H])(n5nc(-c6c([H])c([H])c(Oc7c([H])c([H])c(F)c([H])c7F)c([H])c6[H])c(C(=O)N([H])[H])c5N([H])[H])C4([H])[H])C([H])([H])C3([H])[H])c([H])c([H])c2C1([H])[H]

$$$$
69:0:0
     RDKit          3D

 96105  0  0  1  0  0  0  0  0999 V2000
  -29.9390  -22.2240   24.7470 C   0  0  0  0  0  2  0  0  0  0  0  0
  -29.6290  -21.9690   22.2260 C   0  0  0  0  0  2  0  0  0  0  0  0
  -29.1690  -23.5570   24.6720 C   0  0  0  0  0  2  0  0  0  0  0  0
  -28.8540  -23.2930   22.2140 C   0  0  0  0  0  2  0  0  0  0  0  0
  -29.5840  -21.2510   23.5970 C   0  0  0  0  0  3  0  0  0  0  0  0
  -29.3750  -24.2400   23.3060 C   0  0  0  0  0  3  0  0  0  0  0  0
  -30.5250  -20.0240   23.6310 C   0  0  0  0  0  2  0  0  0  0  0  0
  -30.2630  -18.9760   22.5310 C   0  0  0  0  0  2  0  0  0  0  0  0
  -31.7340  -16.9970   23.2770 C   0  0  0  0  0  0  0  0  0  0  0  0
  -32.0770  -15.6610   22.6410 C   0  0  0  0  0  2  0  0  0  0  0  0
  -31.3730  -17.3020   20.9080 C   0  0  0  0  0  2  0  0  0  0  0  0
  -31.4870  -18.0770   22.2340 C   0  0  0  0  0  3  0  0  0  0  0  0
  -31.8270  -15.8420   21.1290 C   0  0  0  0  0  3  0  0  0  0  0  0
  -31.6800  -17.1820   24.4950 O   0  0  0  0  0  0  0  0  0  0  0  0
  -30.6780  -14.4700   19.3740 C   0  0  0  0  0  0  0  0  0  0  0  0
  -30.0720  -12.3890   18.2100 C   0  0  0  0  0  2  0  0  0  0  0  0
  -28.9270  -12.5260   17.1990 C   0  0  0  0  0  2  0  0  0  0  0  0
  -27.5720  -12.3400   17.9020 C   0  0  0  0  0  2  0  0  0  0  0  0
  -27.4260  -13.2570   19.1410 C   0  0  0  0  0  3  0  0  0  0  0  0
  -28.6590  -13.1480   20.0660 C   0  0  0  0  0  2  0  0  0  0  0  0
  -29.8870  -13.3780   19.2790 N   0  0  0  0  0  0  0  0  0  0  0  0
  -31.3870  -14.8960   18.4570 O   0  0  0  0  0  0  0  0  0  0  0  0
  -30.8230  -14.8950   20.6390 N   0  0  0  0  0  0  0  0  0  0  0  0
  -30.2770  -14.3980   21.3270 H   0  0  0  0  0  0  0  0  0  0  0  0
  -25.2590  -13.8620   20.3970 C   0  0  0  0  0  0  0  0  0  0  0  0
  -24.2520  -13.0880   20.9110 C   0  0  0  0  0  0  0  0  0  0  0  0
  -24.6240  -11.7340   20.6520 C   0  0  0  0  0  0  0  0  0  0  0  0
  -26.1860  -12.9790   19.8650 N   0  0  0  0  0  0  0  0  0  0  0  0
  -25.8170  -11.6870   20.0700 N   0  0  0  0  0  0  0  0  0  0  0  0
  -23.8870  -10.4820   20.8720 C   0  0  0  0  0  0  0  0  0  0  0  0
  -24.3990   -9.4620   21.7030 C   0  0  0  0  0  3  0  0  0  0  0  0
  -23.6670   -8.2730   21.9120 C   0  0  0  0  0  3  0  0  0  0  0  0
  -22.4080   -8.0980   21.2910 C   0  0  0  0  0  0  0  0  0  0  0  0
  -21.9130   -9.1060   20.4450 C   0  0  0  0  0  3  0  0  0  0  0  0
  -22.6460  -10.2860   20.2330 C   0  0  0  0  0  3  0  0  0  0  0  0
  -21.6380   -6.9660   21.4160 O   0  0  0  0  0  0  0  0  0  0  0  0
  -21.6330   -6.2200   22.5680 C   0  0  0  0  0  0  0  0  0  0  0  0
  -21.2830   -6.7790   23.8170 C   0  0  0  0  0  3  0  0  0  0  0  0
  -21.2270   -5.9610   24.9630 C   0  0  0  0  0  3  0  0  0  0  0  0
  -21.5080   -4.5850   24.8600 C   0  0  0  0  0  0  0  0  0  0  0  0
  -21.8540   -4.0260   23.6180 C   0  0  0  0  0  3  0  0  0  0  0  0
  -21.9120   -4.8420   22.4740 C   0  0  0  0  0  0  0  0  0  0  0  0
  -22.2240   -4.2950   21.2740 F   0  0  0  0  0  0  0  0  0  0  0  0
  -21.4470   -3.7970   25.9590 F   0  0  0  0  0  0  0  0  0  0  0  0
  -22.9700  -13.5760   21.5220 C   0  0  0  0  0  0  0  0  0  0  0  0
  -22.4290  -12.8420   22.4890 N   0  0  0  0  0  0  0  0  0  0  0  0
  -22.4620  -14.6430   21.1760 O   0  0  0  0  0  0  0  0  0  0  0  0
  -22.8520  -11.9760   22.7900 H   0  0  0  0  0  0  0  0  0  0  0  0
  -21.5740  -13.1500   22.9340 H   0  0  0  0  0  0  0  0  0  0  0  0
  -25.4590  -15.2360   20.3200 N   0  0  0  0  0  0  0  0  0  0  0  0
  -24.7760  -15.9090   20.6520 H   0  0  0  0  0  0  0  0  0  0  0  0
  -26.2570  -15.6710   19.8740 H   0  0  0  0  0  0  0  0  0  0  0  0
  -28.7140  -25.6300   23.2260 C   0  0  0  0  0  2  0  0  0  0  0  0
  -29.2530  -26.5440   22.1040 C   0  0  0  0  0  2  0  0  0  0  0  0
  -29.0640  -26.0200   20.6600 C   0  0  0  0  0  2  0  0  0  0  0  0
  -29.0070  -27.0870   19.7020 O   0  0  0  0  0  0  0  0  0  0  0  0
  -24.7200  -31.4340   23.2470 C   0  0  0  0  0  0  0  0  0  0  0  0
  -27.7900  -27.7160   19.6980 C   0  0  0  0  0  0  0  0  0  0  0  0
  -23.6510  -30.0890   21.4650 C   0  0  0  0  0  3  0  0  0  0  0  0
  -25.2450  -28.9050   19.8640 C   0  0  0  0  0  0  0  0  0  0  0  0
  -26.1110  -30.7720   21.2920 C   0  0  0  0  0  2  0  0  0  0  0  0
  -26.3410  -29.5070   20.4950 C   0  0  0  0  0  0  0  0  0  0  0  0
  -27.6210  -28.9240   20.4030 C   0  0  0  0  0  3  0  0  0  0  0  0
  -26.6860  -27.1280   19.0450 C   0  0  0  0  0  3  0  0  0  0  0  0
  -25.4110  -27.7190   19.1310 C   0  0  0  0  0  3  0  0  0  0  0  0
  -23.9070  -29.5890   20.0180 C   0  0  0  0  0  2  0  0  0  0  0  0
  -24.8430  -30.7750   22.0600 N   0  0  0  0  0  0  0  0  0  0  0  0
  -23.6270  -31.5150   23.8230 O   0  0  0  0  0  0  0  0  0  0  0  0
  -23.1410  -28.9000   22.3110 C   0  0  0  0  0  0  0  0  0  0  0  0
  -21.8660  -28.5300   22.1100 N   0  0  0  0  0  0  0  0  0  0  0  0
  -23.8890  -28.3190   23.1000 O   0  0  0  0  0  0  0  0  0  0  0  0
  -21.3200  -29.0630   21.4450 H   0  0  0  0  0  0  0  0  0  0  0  0
  -18.7360  -26.7330   22.2640 C   0  0  0  0  0  0  0  0  0  0  0  0
  -21.1770  -27.4180   22.7630 C   0  0  0  0  0  3  0  0  0  0  0  0
  -21.5810  -26.0660   22.1290 C   0  0  0  0  0  2  0  0  0  0  0  0
  -20.6330  -25.6200   21.0130 C   0  0  0  0  0  2  0  0  0  0  0  0
  -19.2030  -25.4790   21.5440 C   0  0  0  0  0  2  0  0  0  0  0  0
  -19.6640  -27.6510   22.8220 C   0  0  0  0  0  0  0  0  0  0  0  0
  -19.1800  -28.8180   23.4530 C   0  0  0  0  0  3  0  0  0  0  0  0
  -17.7970  -29.0700   23.5350 C   0  0  0  0  0  3  0  0  0  0  0  0
  -16.8830  -28.1520   22.9940 C   0  0  0  0  0  3  0  0  0  0  0  0
  -17.3500  -26.9830   22.3660 C   0  0  0  0  0  3  0  0  0  0  0  0
  -25.9400  -32.1380   23.9220 C   0  0  0  0  0  3  0  0  0  0  0  0
  -25.5330  -33.5120   24.2380 N   0  0  0  0  0  0  0  0  0  0  0  0
  -25.8710  -34.5900   23.5160 C   0  0  0  0  0  0  0  0  0  0  0  0
  -26.6230  -34.5300   22.5390 O   0  0  0  0  0  0  0  0  0  0  0  0
  -24.8670  -33.6310   24.9880 H   0  0  0  0  0  0  0  0  0  0  0  0
  -24.0860  -36.2950   23.0430 C   0  0  0  0  0  1  0  0  0  0  0  0
  -25.2810  -35.9460   23.9440 C   0  0  0  0  0  3  0  0  0  0  0  0
  -27.3180  -36.9040   24.9230 C   0  0  0  0  0  1  0  0  0  0  0  0
  -26.2650  -37.0500   23.9210 N   0  0  0  0  0  0  0  0  0  0  0  0
  -25.8080  -37.9450   24.0780 H   0  0  0  0  0  0  0  0  0  0  0  0
  -26.4550  -31.3920   25.2140 C   0  0  1  0  0  0  0  0  0  0  0  0
  -25.3310  -31.0450   26.2170 C   0  0  0  0  0  1  0  0  0  0  0  0
  -27.1780  -30.0770   24.8370 C   0  0  0  0  0  1  0  0  0  0  0  0
  -27.4920  -32.2780   25.9440 C   0  0  0  0  0  1  0  0  0  0  0  0
  2  5  1  0
  3  1  1  0
  4  2  1  0
  4  6  1  0
  5  7  1  0
  5  1  1  0
  6 53  1  0
  6  3  1  0
  8  7  1  0
  9 14  2  0
 10  9  1  0
 11 13  1  0
 11 12  1  0
 12  8  1  0
 12  9  1  0
 13 23  1  0
 13 10  1  0
 15 23  1  0
 16 21  1  0
 17 18  1  0
 17 16  1  0
 19 18  1  0
 19 28  1  0
 19 20  1  0
 21 15  1  0
 21 20  1  0
 22 15  2  0
 23 24  1  0
 25 26  2  0
 26 45  1  0
 27 30  1  0
 27 26  1  0
 28 29  1  0
 28 25  1  0
 29 27  2  0
 30 31  1  0
 31 32  2  0
 33 36  1  0
 33 32  1  0
 34 33  2  0
 35 34  1  0
 35 30  2  0
 36 37  1  0
 37 38  1  0
 38 39  2  0
 40 39  1  0
 40 44  1  0
 41 40  2  0
 42 37  2  0
 42 41  1  0
 43 42  1  0
 45 46  1  0
 46 48  1  0
 46 49  1  0
 47 45  2  0
 50 25  1  0
 50 51  1  0
 52 50  1  0
 54 53  1  0
 55 54  1  0
 56 55  1  0
 57 68  2  0
 58 56  1  0
 58 63  1  0
 59 67  1  0
 59 69  1  0
 60 66  1  0
 60 62  1  0
 61 67  1  0
 62 61  1  0
 63 62  2  0
 64 65  1  0
 64 58  2  0
 65 60  2  0
 66 59  1  0
 67 57  1  0
 69 71  2  0
 70 69  1  0
 72 70  1  0
 73 82  2  0
 73 78  1  0
 74 70  1  0
 74 78  1  0
 75 74  1  0
 76 77  1  0
 76 75  1  0
 77 73  1  0
 78 79  2  0
 79 80  1  0
 81 80  2  0
 82 81  1  0
 83 57  1  0
 83 84  1  0
 83 93  1  0
 84 87  1  0
 85 89  1  0
 85 84  1  0
 86 85  2  0
 89 88  1  0
 91 89  1  0
 91 92  1  0
 91 90  1  0
 93 96  1  1
 93 94  1  0
 95 93  1  0
M  ISO  4  15 100  23 100  55 101  56 101
M  END
>  <TORSDO>  (70) 
F 22

>  <SCORE>  (70) 
-2.171

>  <name>  (70) 
69

>  <ligand_id>  (70) 
69

>  <original_smiles>  (70) 
[H]c1c([H])c([H])c2c(c1[H])C([H])([H])C([H])([H])C([H])([H])C2([H])N([H])C(=O)C1([H])N(C(=O)C([H])(N([H])C(=O)C([H])(N([H])C([H])([H])[H])C([H])([H])[H])C(C([H])([H])[H])(C([H])([H])[H])C([H])([H])[H])C([H])([H])c2c([H])c(OC([H])([H])C([H])([H])C([H])([H])C3([H])C([H])([H])C([H])([H])C([H])(C([H])([H])C([H])([H])C4([H])C(=O)C([H])([H])C([H])(N([H])C(=O)N5C([H])([H])C([H])([H])C([H])([H])C([H])(n6nc(-c7c([H])c([H])c(Oc8c([H])c([H])c(F)c([H])c8F)c([H])c7[H])c(C(=O)N([H])[H])c6N([H])[H])C5([H])[H])C4([H])[H])C([H])([H])C3([H])[H])c([H])c([H])c2C1([H])[H]

>  <smiles>  (70) 
[H]c1c([H])c([H])c2c(c1[H])C([H])([H])C([H])([H])C([H])([H])C2([H])N([H])C(=O)C1([H])N(C(=O)C([H])(N([H])C(=O)C([H])(N([H])C([H])([H])[H])C([H])([H])[H])C(C([H])([H])[H])(C([H])([H])[H])C([H])([H])[H])C([H])([H])c2c([H])c(OC([H])([H])C([H])([H])C([H])([H])C3([H])C([H])([H])C([H])([H])C([H])(C([H])([H])C([H])([H])C4([H])C(=O)C([H])([H])C([H])(N([H])C(=O)N5C([H])([H])C([H])([H])C([H])([H])C([H])(n6nc(-c7c([H])c([H])c(Oc8c([H])c([H])c(F)c([H])c8F)c([H])c7[H])c(C(=O)N([H])[H])c6N([H])[H])C5([H])[H])C4([H])[H])C([H])([H])C3([H])[H])c([H])c([H])c2C1([H])[H]

$$$$
70:0:0
     RDKit          3D

 97105  0  0  1  0  0  0  0  0999 V2000
  -30.5260  -19.3100   24.2740 C   0  0  0  0  0  0  0  0  0  0  0  0
  -31.1620  -20.3320   23.6990 C   0  0  0  0  0  0  0  0  0  0  0  0
  -29.6850  -19.7440   25.4460 C   0  0  0  0  0  2  0  0  0  0  0  0
  -30.0870  -21.2180   25.6490 C   0  0  0  0  0  2  0  0  0  0  0  0
  -30.7940  -21.6450   24.3410 C   0  0  0  0  0  3  0  0  0  0  0  0
  -29.8470  -22.3040   23.4250 N   0  0  0  0  0  4  0  0  0  0  0  0
  -28.9200  -22.2610   23.8180 H   0  0  0  0  0  0  0  0  0  0  0  0
  -29.8400  -21.7550   22.5800 H   0  0  0  0  0  0  0  0  0  0  0  0
  -30.1690  -23.6880   23.0480 C   0  0  0  0  0  2  0  0  0  0  0  0
  -29.6270  -23.9770   21.6440 C   0  0  0  0  0  2  0  0  0  0  0  0
  -29.6740  -25.4630   21.3070 C   0  0  0  0  0  2  0  0  0  0  0  0
  -29.4780  -25.7150   19.8050 C   0  0  0  0  0  2  0  0  0  0  0  0
  -29.3310  -27.1070   19.5840 O   0  0  0  0  0  0  0  0  0  0  0  0
  -25.2450  -31.2090   23.6650 C   0  0  0  0  0  0  0  0  0  0  0  0
  -28.0800  -27.6550   19.7490 C   0  0  0  0  0  0  0  0  0  0  0  0
  -24.0770  -30.0610   21.8110 C   0  0  0  0  0  3  0  0  0  0  0  0
  -25.5800  -28.9110   20.1040 C   0  0  0  0  0  0  0  0  0  0  0  0
  -26.5650  -30.6260   21.6370 C   0  0  0  0  0  2  0  0  0  0  0  0
  -26.7160  -29.4100   20.7530 C   0  0  0  0  0  0  0  0  0  0  0  0
  -27.9660  -28.7910   20.5710 C   0  0  0  0  0  3  0  0  0  0  0  0
  -26.9250  -27.1450   19.1120 C   0  0  0  0  0  3  0  0  0  0  0  0
  -25.6760  -27.7710   19.2870 C   0  0  0  0  0  3  0  0  0  0  0  0
  -24.2860  -29.6580   20.3270 C   0  0  0  0  0  2  0  0  0  0  0  0
  -25.3150  -30.6350   22.4330 N   0  0  0  0  0  0  0  0  0  0  0  0
  -24.1640  -31.3080   24.2630 O   0  0  0  0  0  0  0  0  0  0  0  0
  -23.5200  -28.8390   22.5740 C   0  0  0  0  0  0  0  0  0  0  0  0
  -22.2670  -28.4690   22.2680 N   0  0  0  0  0  0  0  0  0  0  0  0
  -24.2160  -28.2310   23.3920 O   0  0  0  0  0  0  0  0  0  0  0  0
  -21.7630  -29.0240   21.5900 H   0  0  0  0  0  0  0  0  0  0  0  0
  -19.1750  -26.6110   22.0900 C   0  0  0  0  0  0  0  0  0  0  0  0
  -21.5460  -27.3290   22.8290 C   0  0  0  0  0  3  0  0  0  0  0  0
  -22.0330  -26.0020   22.2030 C   0  0  0  0  0  2  0  0  0  0  0  0
  -21.2020  -25.5640   20.9930 C   0  0  0  0  0  2  0  0  0  0  0  0
  -19.7320  -25.3850   21.3870 C   0  0  0  0  0  2  0  0  0  0  0  0
  -20.0290  -27.5330   22.7520 C   0  0  0  0  0  0  0  0  0  0  0  0
  -19.4630  -28.6770   23.3590 C   0  0  0  0  0  3  0  0  0  0  0  0
  -18.0750  -28.9010   23.3150 C   0  0  0  0  0  3  0  0  0  0  0  0
  -17.2330  -27.9790   22.6700 C   0  0  0  0  0  3  0  0  0  0  0  0
  -17.7840  -26.8350   22.0620 C   0  0  0  0  0  3  0  0  0  0  0  0
  -26.5090  -31.7900   24.3720 C   0  0  0  0  0  3  0  0  0  0  0  0
  -27.0250  -30.8930   25.5640 C   0  0  1  0  0  0  0  0  0  0  0  0
  -25.9170  -30.4980   26.5660 C   0  0  0  0  0  1  0  0  0  0  0  0
  -27.6660  -29.5920   25.0270 C   0  0  0  0  0  1  0  0  0  0  0  0
  -28.1320  -31.6420   26.3430 C   0  0  0  0  0  1  0  0  0  0  0  0
  -26.1690  -33.1380   24.8440 N   0  0  0  0  0  0  0  0  0  0  0  0
  -26.5470  -34.2730   24.2390 C   0  0  0  0  0  0  0  0  0  0  0  0
  -27.2880  -34.2910   23.2520 O   0  0  0  0  0  0  0  0  0  0  0  0
  -25.5190  -33.1990   25.6140 H   0  0  0  0  0  0  0  0  0  0  0  0
  -24.8650  -36.1170   23.9450 C   0  0  0  0  0  1  0  0  0  0  0  0
  -26.0170  -35.5970   24.8200 C   0  0  0  0  0  3  0  0  0  0  0  0
  -28.0540  -36.3390   25.9720 C   0  0  0  0  0  1  0  0  0  0  0  0
  -27.0580  -36.6400   24.9470 N   0  0  0  0  0  0  0  0  0  0  0  0
  -26.6400  -37.5410   25.1640 H   0  0  0  0  0  0  0  0  0  0  0  0
  -33.5420  -20.5250   22.8600 C   0  0  0  0  0  1  0  0  0  0  0  0
  -32.0740  -20.2850   22.4850 C   0  0  0  0  0  2  0  0  0  0  0  0
  -30.5080  -17.8660   23.8220 C   0  0  0  0  0  2  0  0  0  0  0  0
  -30.4830  -17.7850   22.2880 C   0  0  0  0  0  2  0  0  0  0  0  0
  -30.6650  -16.3620   21.7580 C   0  0  0  0  0  2  0  0  0  0  0  0
  -32.1110  -15.9860   21.3720 C   0  0  0  0  0  2  0  0  0  0  0  0
  -32.6890  -14.6500   19.3410 C   0  0  0  0  0  0  0  0  0  0  0  0
  -32.1440  -12.3500   18.6220 C   0  0  0  0  0  2  0  0  0  0  0  0
  -31.0330  -12.3710   17.5500 C   0  0  0  0  0  2  0  0  0  0  0  0
  -29.6270  -12.4250   18.1900 C   0  0  0  0  0  2  0  0  0  0  0  0
  -29.5170  -13.4980   19.3030 C   0  0  0  0  0  3  0  0  0  0  0  0
  -30.7070  -13.3470   20.2720 C   0  0  0  0  0  2  0  0  0  0  0  0
  -31.9550  -13.5140   19.5050 N   0  0  0  0  0  0  0  0  0  0  0  0
  -33.6300  -14.7280   18.5460 O   0  0  0  0  0  0  0  0  0  0  0  0
  -32.2470  -15.7730   19.9300 N   0  0  0  0  0  0  0  0  0  0  0  0
  -32.6000  -16.5940   19.4590 H   0  0  0  0  0  0  0  0  0  0  0  0
  -27.4830  -14.4270   20.5890 C   0  0  0  0  0  0  0  0  0  0  0  0
  -26.3390  -13.8280   21.0420 C   0  0  0  0  0  0  0  0  0  0  0  0
  -26.4500  -12.4480   20.6880 C   0  0  0  0  0  0  0  0  0  0  0  0
  -28.2350  -13.4200   20.0020 N   0  0  0  0  0  0  0  0  0  0  0  0
  -27.6200  -12.2140   20.1090 N   0  0  0  0  0  0  0  0  0  0  0  0
  -25.4870  -11.3480   20.8170 C   0  0  0  0  0  0  0  0  0  0  0  0
  -25.7730  -10.2040   21.5940 C   0  0  0  0  0  3  0  0  0  0  0  0
  -24.8250   -9.1660   21.7150 C   0  0  0  0  0  3  0  0  0  0  0  0
  -23.5750   -9.2660   21.0610 C   0  0  0  0  0  0  0  0  0  0  0  0
  -23.3050  -10.3950   20.2670 C   0  0  0  0  0  3  0  0  0  0  0  0
  -24.2520  -11.4260   20.1420 C   0  0  0  0  0  3  0  0  0  0  0  0
  -22.6020   -8.2970   21.1010 O   0  0  0  0  0  0  0  0  0  0  0  0
  -22.3200   -7.6090   22.2540 C   0  0  0  0  0  0  0  0  0  0  0  0
  -21.9110   -8.2670   23.4350 C   0  0  0  0  0  3  0  0  0  0  0  0
  -21.5620   -7.5160   24.5750 C   0  0  0  0  0  3  0  0  0  0  0  0
  -21.6150   -6.1100   24.5340 C   0  0  0  0  0  0  0  0  0  0  0  0
  -22.0180   -5.4530   23.3580 C   0  0  0  0  0  3  0  0  0  0  0  0
  -22.3670   -6.2010   22.2220 C   0  0  0  0  0  0  0  0  0  0  0  0
  -22.7340   -5.5620   21.0840 F   0  0  0  0  0  0  0  0  0  0  0  0
  -21.2730   -5.3870   25.6270 F   0  0  0  0  0  0  0  0  0  0  0  0
  -25.1650  -14.5090   21.6840 C   0  0  0  0  0  0  0  0  0  0  0  0
  -24.4600  -13.8110   22.5690 N   0  0  0  0  0  0  0  0  0  0  0  0
  -24.8910  -15.6830   21.4370 O   0  0  0  0  0  0  0  0  0  0  0  0
  -24.6940  -12.8530   22.7860 H   0  0  0  0  0  0  0  0  0  0  0  0
  -23.6770  -14.2410   23.0400 H   0  0  0  0  0  0  0  0  0  0  0  0
  -27.9330  -15.7440   20.6090 N   0  0  0  0  0  0  0  0  0  0  0  0
  -27.3730  -16.4970   20.9940 H   0  0  0  0  0  0  0  0  0  0  0  0
  -28.8050  -16.0620   20.2030 H   0  0  0  0  0  0  0  0  0  0  0  0
  1  3  1  0
  2  1  2  0
  2  5  1  0
  3  4  1  0
  5  6  1  0
  5  4  1  0
  6  7  1  0
  8  6  1  0
  9  6  1  0
 10  9  1  0
 11 10  1  0
 12 11  1  0
 13 15  1  0
 13 12  1  0
 14 25  2  0
 15 20  1  0
 16 24  1  0
 16 26  1  0
 17 23  1  0
 17 19  1  0
 18 24  1  0
 19 18  1  0
 20 19  2  0
 21 22  1  0
 21 15  2  0
 22 17  2  0
 23 16  1  0
 24 14  1  0
 26 28  2  0
 27 26  1  0
 29 27  1  0
 30 35  1  0
 31 27  1  0
 32 31  1  0
 33 34  1  0
 33 32  1  0
 34 30  1  0
 35 31  1  0
 35 36  2  0
 37 36  1  0
 38 37  2  0
 39 30  2  0
 39 38  1  0
 40 14  1  0
 40 45  1  0
 40 41  1  0
 41 44  1  1
 41 42  1  0
 43 41  1  0
 45 48  1  0
 46 50  1  0
 46 45  1  0
 47 46  2  0
 50 49  1  0
 50 52  1  0
 52 53  1  0
 52 51  1  0
 55 54  1  0
 55  2  1  0
 56  1  1  0
 57 56  1  0
 58 57  1  0
 59 58  1  0
 60 66  1  0
 60 68  1  0
 61 66  1  0
 62 63  1  0
 62 61  1  0
 64 63  1  0
 64 73  1  0
 64 65  1  0
 66 65  1  0
 67 60  2  0
 68 59  1  0
 69 68  1  0
 70 95  1  0
 70 71  2  0
 71 90  1  0
 72 75  1  0
 72 71  1  0
 73 74  1  0
 73 70  1  0
 74 72  2  0
 75 76  1  0
 76 77  2  0
 78 81  1  0
 78 77  1  0
 79 78  2  0
 80 79  1  0
 80 75  2  0
 81 82  1  0
 82 83  1  0
 83 84  2  0
 85 84  1  0
 85 89  1  0
 86 85  2  0
 87 82  2  0
 87 86  1  0
 88 87  1  0
 90 91  1  0
 91 93  1  0
 91 94  1  0
 92 90  2  0
 95 96  1  0
 97 95  1  0
M  ISO  4  12 101  13 101  60 100  68 100
M  END
>  <TORSDO>  (71) 
F 26

>  <SCORE>  (71) 
-3.934

>  <name>  (71) 
70

>  <ligand_id>  (71) 
70

>  <original_smiles>  (71) 
[H]c1c([H])c([H])c2c(c1[H])C([H])([H])C([H])([H])C([H])([H])C2([H])N([H])C(=O)C1([H])N(C(=O)C([H])(N([H])C(=O)C([H])(N([H])C([H])([H])[H])C([H])([H])[H])C(C([H])([H])[H])(C([H])([H])[H])C([H])([H])[H])C([H])([H])c2c([H])c(OC([H])([H])C([H])([H])C([H])([H])C([H])([H])[N+]([H])([H])C3([H])C(C([H])([H])C([H])([H])[H])=C(C([H])([H])C([H])([H])C([H])([H])C([H])([H])N([H])C(=O)N4C([H])([H])C([H])([H])C([H])([H])C([H])(n5nc(-c6c([H])c([H])c(Oc7c([H])c([H])c(F)c([H])c7F)c([H])c6[H])c(C(=O)N([H])[H])c5N([H])[H])C4([H])[H])C([H])([H])C3([H])[H])c([H])c([H])c2C1([H])[H]

>  <smiles>  (71) 
[H]c1c([H])c([H])c2c(c1[H])C([H])([H])C([H])([H])C([H])([H])C2([H])N([H])C(=O)C1([H])N(C(=O)C([H])(N([H])C(=O)C([H])(N([H])C([H])([H])[H])C([H])([H])[H])C(C([H])([H])[H])(C([H])([H])[H])C([H])([H])[H])C([H])([H])c2c([H])c(OC([H])([H])C([H])([H])C([H])([H])C([H])([H])[N+]([H])([H])C3([H])C(C([H])([H])C([H])([H])[H])=C(C([H])([H])C([H])([H])C([H])([H])C([H])([H])N([H])C(=O)N4C([H])([H])C([H])([H])C([H])([H])C([H])(n5nc(-c6c([H])c([H])c(Oc7c([H])c([H])c(F)c([H])c7F)c([H])c6[H])c(C(=O)N([H])[H])c5N([H])[H])C4([H])[H])C([H])([H])C3([H])[H])c([H])c([H])c2C1([H])[H]

$$$$
71:0:0
     RDKit          3D

 98106  0  0  1  0  0  0  0  0999 V2000
  -30.0440  -22.9020   24.1430 C   0  0  0  0  0  2  0  0  0  0  0  0
  -29.7500  -24.3180   23.6180 C   0  0  0  0  0  2  0  0  0  0  0  0
  -28.6810  -25.0430   24.4510 C   0  0  0  0  0  2  0  0  0  0  0  0
  -28.3800  -26.4870   24.0050 C   0  0  0  0  0  2  0  0  0  0  0  0
  -27.4100  -26.6280   22.8130 C   0  0  0  0  0  2  0  0  0  0  0  0
  -28.0220  -26.3700   21.4190 C   0  0  0  0  0  2  0  0  0  0  0  0
  -27.2330  -25.3400   20.5830 C   0  0  0  0  0  2  0  0  0  0  0  0
  -27.7130  -25.2160   19.1190 C   0  0  0  0  0  2  0  0  0  0  0  0
  -27.8050  -26.4760   18.4510 O   0  0  0  0  0  0  0  0  0  0  0  0
  -24.8770  -31.1490   22.8780 C   0  0  0  0  0  0  0  0  0  0  0  0
  -26.7360  -27.2990   18.6810 C   0  0  0  0  0  0  0  0  0  0  0  0
  -23.3860  -30.2660   21.1100 C   0  0  0  0  0  3  0  0  0  0  0  0
  -24.5330  -28.9540   19.2470 C   0  0  0  0  0  0  0  0  0  0  0  0
  -25.9080  -30.4310   20.7310 C   0  0  0  0  0  2  0  0  0  0  0  0
  -25.7830  -29.2400   19.8080 C   0  0  0  0  0  0  0  0  0  0  0  0
  -26.8940  -28.4230   19.5160 C   0  0  0  0  0  3  0  0  0  0  0  0
  -25.4740  -27.0200   18.1140 C   0  0  0  0  0  3  0  0  0  0  0  0
  -24.3690  -27.8450   18.3990 C   0  0  0  0  0  3  0  0  0  0  0  0
  -23.3990  -29.8880   19.6040 C   0  0  0  0  0  2  0  0  0  0  0  0
  -24.7470  -30.6120   21.6320 N   0  0  0  0  0  0  0  0  0  0  0  0
  -23.8830  -31.4000   23.5730 O   0  0  0  0  0  0  0  0  0  0  0  0
  -22.7000  -29.1260   21.8940 C   0  0  0  0  0  0  0  0  0  0  0  0
  -21.3580  -29.1100   21.8700 N   0  0  0  0  0  0  0  0  0  0  0  0
  -23.3670  -28.2680   22.4800 O   0  0  0  0  0  0  0  0  0  0  0  0
  -20.8860  -29.8520   21.3730 H   0  0  0  0  0  0  0  0  0  0  0  0
  -17.9150  -28.1980   22.4730 C   0  0  0  0  0  0  0  0  0  0  0  0
  -20.4980  -28.1090   22.5030 C   0  0  0  0  0  3  0  0  0  0  0  0
  -20.3620  -26.8490   21.6160 C   0  0  0  0  0  2  0  0  0  0  0  0
  -19.1440  -26.8930   20.6880 C   0  0  0  0  0  2  0  0  0  0  0  0
  -17.8550  -27.0310   21.5020 C   0  0  0  0  0  2  0  0  0  0  0  0
  -19.1560  -28.7150   22.9300 C   0  0  0  0  0  0  0  0  0  0  0  0
  -19.1560  -29.8260   23.8040 C   0  0  0  0  0  3  0  0  0  0  0  0
  -17.9480  -30.4120   24.2220 C   0  0  0  0  0  3  0  0  0  0  0  0
  -16.7220  -29.8860   23.7800 C   0  0  0  0  0  3  0  0  0  0  0  0
  -16.7070  -28.7800   22.9110 C   0  0  0  0  0  3  0  0  0  0  0  0
  -26.2750  -31.4920   23.4810 C   0  0  0  0  0  3  0  0  0  0  0  0
  -26.1600  -32.7970   24.1460 N   0  0  0  0  0  0  0  0  0  0  0  0
  -26.6020  -33.9540   23.6380 C   0  0  0  0  0  0  0  0  0  0  0  0
  -27.2260  -34.0230   22.5750 O   0  0  0  0  0  0  0  0  0  0  0  0
  -25.6060  -32.8270   24.9890 H   0  0  0  0  0  0  0  0  0  0  0  0
  -25.1210  -35.9810   23.8010 C   0  0  0  0  0  1  0  0  0  0  0  0
  -26.3080  -35.2390   24.4360 C   0  0  0  0  0  3  0  0  0  0  0  0
  -28.5460  -35.6200   25.3660 C   0  0  0  0  0  1  0  0  0  0  0  0
  -27.4690  -36.1500   24.5360 N   0  0  0  0  0  0  0  0  0  0  0  0
  -27.1900  -37.0480   24.9220 H   0  0  0  0  0  0  0  0  0  0  0  0
  -26.8030  -30.3940   24.4860 C   0  0  1  0  0  0  0  0  0  0  0  0
  -25.7770  -30.0020   25.5740 C   0  0  0  0  0  1  0  0  0  0  0  0
  -27.1930  -29.1030   23.7290 C   0  0  0  0  0  1  0  0  0  0  0  0
  -28.0840  -30.8930   25.1920 C   0  0  0  0  0  1  0  0  0  0  0  0
  -30.3270  -21.9140   23.0010 C   0  0  0  0  0  2  0  0  0  0  0  0
  -30.4430  -20.4470   23.4570 C   0  0  0  0  0  2  0  0  0  0  0  0
  -30.3260  -19.5380   22.2990 N   0  0  0  0  0  4  0  0  0  0  0  0
  -29.4060  -19.6330   21.8960 H   0  0  0  0  0  0  0  0  0  0  0  0
  -30.9820  -19.8090   21.5860 H   0  0  0  0  0  0  0  0  0  0  0  0
  -30.0070  -17.3580   21.3430 C   0  0  0  0  0  0  0  0  0  0  0  0
  -32.0610  -16.2910   22.0020 C   0  0  0  0  0  2  0  0  0  0  0  0
  -31.9730  -17.6460   22.7200 C   0  0  0  0  0  2  0  0  0  0  0  0
  -31.0670  -16.3870   20.8350 C   0  0  0  0  0  3  0  0  0  0  0  0
  -30.5050  -18.1010   22.5770 C   0  0  0  0  0  3  0  0  0  0  0  0
  -28.8990  -17.5160   20.8220 O   0  0  0  0  0  0  0  0  0  0  0  0
  -30.5360  -14.4790   19.3360 C   0  0  0  0  0  0  0  0  0  0  0  0
  -29.9480  -12.4130   18.1280 C   0  0  0  0  0  2  0  0  0  0  0  0
  -28.7920  -12.6270   17.1370 C   0  0  0  0  0  2  0  0  0  0  0  0
  -27.4360  -12.4430   17.8450 C   0  0  0  0  0  2  0  0  0  0  0  0
  -27.3330  -13.2790   19.1470 C   0  0  0  0  0  3  0  0  0  0  0  0
  -28.5770  -13.0590   20.0360 C   0  0  0  0  0  2  0  0  0  0  0  0
  -29.7890  -13.3530   19.2450 N   0  0  0  0  0  0  0  0  0  0  0  0
  -31.3150  -14.8580   18.4550 O   0  0  0  0  0  0  0  0  0  0  0  0
  -30.4650  -15.0940   20.5190 N   0  0  0  0  0  0  0  0  0  0  0  0
  -29.8180  -14.7040   21.1870 H   0  0  0  0  0  0  0  0  0  0  0  0
  -25.1410  -13.8500   20.3790 C   0  0  0  0  0  0  0  0  0  0  0  0
  -24.1520  -13.0580   20.8990 C   0  0  0  0  0  0  0  0  0  0  0  0
  -24.5640  -11.7110   20.6700 C   0  0  0  0  0  0  0  0  0  0  0  0
  -26.0960  -12.9820   19.8710 N   0  0  0  0  0  0  0  0  0  0  0  0
  -25.7610  -11.6850   20.0970 N   0  0  0  0  0  0  0  0  0  0  0  0
  -23.8620  -10.4420   20.9080 C   0  0  0  0  0  0  0  0  0  0  0  0
  -24.3870   -9.4600   21.7760 C   0  0  0  0  0  3  0  0  0  0  0  0
  -23.6860   -8.2550   22.0020 C   0  0  0  0  0  3  0  0  0  0  0  0
  -22.4440   -8.0270   21.3620 C   0  0  0  0  0  0  0  0  0  0  0  0
  -21.9360   -8.9990   20.4830 C   0  0  0  0  0  3  0  0  0  0  0  0
  -22.6390  -10.1930   20.2530 C   0  0  0  0  0  3  0  0  0  0  0  0
  -21.7040   -6.8780   21.5020 O   0  0  0  0  0  0  0  0  0  0  0  0
  -21.6920   -6.1670   22.6760 C   0  0  0  0  0  0  0  0  0  0  0  0
  -21.2800   -6.7480   23.8950 C   0  0  0  0  0  3  0  0  0  0  0  0
  -21.2160   -5.9630   25.0630 C   0  0  0  0  0  3  0  0  0  0  0  0
  -21.5570   -4.5970   25.0150 C   0  0  0  0  0  0  0  0  0  0  0  0
  -21.9650   -4.0170   23.8010 C   0  0  0  0  0  3  0  0  0  0  0  0
  -22.0310   -4.7990   22.6350 C   0  0  0  0  0  0  0  0  0  0  0  0
  -22.4030   -4.2280   21.4630 F   0  0  0  0  0  0  0  0  0  0  0  0
  -21.4900   -3.8420   26.1350 F   0  0  0  0  0  0  0  0  0  0  0  0
  -22.8520  -13.5230   21.4930 C   0  0  0  0  0  0  0  0  0  0  0  0
  -22.3150  -12.7790   22.4530 N   0  0  0  0  0  0  0  0  0  0  0  0
  -22.3300  -14.5790   21.1390 O   0  0  0  0  0  0  0  0  0  0  0  0
  -22.7500  -11.9210   22.7570 H   0  0  0  0  0  0  0  0  0  0  0  0
  -21.4530  -13.0740   22.8910 H   0  0  0  0  0  0  0  0  0  0  0  0
  -25.3020  -15.2290   20.2830 N   0  0  0  0  0  0  0  0  0  0  0  0
  -24.6030  -15.8820   20.6190 H   0  0  0  0  0  0  0  0  0  0  0  0
  -26.1020  -15.6870   19.8610 H   0  0  0  0  0  0  0  0  0  0  0  0
  2  1  1  0
  2  3  1  0
  4  3  1  0
  5  4  1  0
  6  5  1  0
  7  6  1  0
  8  7  1  0
  9 11  1  0
  9  8  1  0
 10 21  2  0
 11 16  1  0
 12 20  1  0
 12 22  1  0
 13 19  1  0
 13 15  1  0
 14 20  1  0
 15 14  1  0
 16 15  2  0
 17 18  1  0
 17 11  2  0
 18 13  2  0
 19 12  1  0
 20 10  1  0
 22 24  2  0
 23 22  1  0
 25 23  1  0
 26 35  2  0
 26 31  1  0
 27 23  1  0
 27 31  1  0
 28 27  1  0
 29 30  1  0
 29 28  1  0
 30 26  1  0
 31 32  2  0
 32 33  1  0
 34 33  2  0
 35 34  1  0
 36 10  1  0
 36 37  1  0
 36 46  1  0
 37 40  1  0
 38 37  1  0
 38 42  1  0
 39 38  2  0
 42 41  1  0
 42 44  1  0
 44 45  1  0
 44 43  1  0
 46 49  1  1
 46 47  1  0
 48 46  1  0
 50 51  1  0
 50  1  1  0
 52 51  1  0
 53 52  1  0
 54 52  1  0
 55 59  1  0
 56 57  1  0
 58 69  1  0
 58 55  1  0
 58 56  1  0
 59 52  1  0
 59 57  1  0
 60 55  2  0
 61 69  1  0
 62 67  1  0
 63 64  1  0
 63 62  1  0
 65 64  1  0
 65 74  1  0
 65 66  1  0
 67 61  1  0
 67 66  1  0
 68 61  2  0
 69 70  1  0
 71 72  2  0
 72 91  1  0
 73 72  1  0
 73 76  1  0
 74 75  1  0
 74 71  1  0
 75 73  2  0
 76 77  1  0
 77 78  2  0
 79 82  1  0
 79 78  1  0
 80 79  2  0
 81 80  1  0
 81 76  2  0
 82 83  1  0
 83 84  1  0
 84 85  2  0
 86 85  1  0
 86 90  1  0
 87 86  2  0
 88 83  2  0
 88 87  1  0
 89 88  1  0
 91 92  1  0
 92 94  1  0
 92 95  1  0
 93 91  2  0
 96 71  1  0
 96 97  1  0
 98 96  1  0
M  ISO  4   8 101   9 101  61 100  69 100
M  END
>  <TORSDO>  (72) 
F 27

>  <SCORE>  (72) 
-5.809

>  <name>  (72) 
71

>  <ligand_id>  (72) 
71

>  <original_smiles>  (72) 
[H]c1c([H])c([H])c2c(c1[H])C([H])([H])C([H])([H])C([H])([H])C2([H])N([H])C(=O)C1([H])N(C(=O)C([H])(N([H])C(=O)C([H])(N([H])C([H])([H])[H])C([H])([H])[H])C(C([H])([H])[H])(C([H])([H])[H])C([H])([H])[H])C([H])([H])c2c([H])c(OC([H])([H])C([H])([H])C([H])([H])C([H])([H])C([H])([H])C([H])([H])C([H])([H])C([H])([H])C([H])([H])C([H])([H])[N+]([H])([H])C3([H])C(=O)C([H])(N([H])C(=O)N4C([H])([H])C([H])([H])C([H])([H])C([H])(n5nc(-c6c([H])c([H])c(Oc7c([H])c([H])c(F)c([H])c7F)c([H])c6[H])c(C(=O)N([H])[H])c5N([H])[H])C4([H])[H])C([H])([H])C3([H])[H])c([H])c([H])c2C1([H])[H]

>  <smiles>  (72) 
[H]c1c([H])c([H])c2c(c1[H])C([H])([H])C([H])([H])C([H])([H])C2([H])N([H])C(=O)C1([H])N(C(=O)C([H])(N([H])C(=O)C([H])(N([H])C([H])([H])[H])C([H])([H])[H])C(C([H])([H])[H])(C([H])([H])[H])C([H])([H])[H])C([H])([H])c2c([H])c(OC([H])([H])C([H])([H])C([H])([H])C([H])([H])C([H])([H])C([H])([H])C([H])([H])C([H])([H])C([H])([H])C([H])([H])[N+]([H])([H])C3([H])C(=O)C([H])(N([H])C(=O)N4C([H])([H])C([H])([H])C([H])([H])C([H])(n5nc(-c6c([H])c([H])c(Oc7c([H])c([H])c(F)c([H])c7F)c([H])c6[H])c(C(=O)N([H])[H])c5N([H])[H])C4([H])[H])C([H])([H])C3([H])[H])c([H])c([H])c2C1([H])[H]

$$$$
72:0:0
     RDKit          3D

 92100  0  0  1  0  0  0  0  0999 V2000
  -30.5320  -21.8840   21.5520 C   0  0  0  0  0  2  0  0  0  0  0  0
  -28.6930  -21.4700   19.8840 C   0  0  0  0  0  2  0  0  0  0  0  0
  -30.3690  -20.4370   22.0410 C   0  0  0  0  0  2  0  0  0  0  0  0
  -28.5930  -20.0260   20.4090 C   0  0  0  0  0  2  0  0  0  0  0  0
  -29.2310  -22.4480   20.9520 C   0  0  0  0  0  3  0  0  0  0  0  0
  -29.8920  -19.5480   20.9480 N   0  0  2  0  0  4  0  0  0  0  0  0
  -30.5530  -19.6240   20.1880 H   0  0  0  0  0  0  0  0  0  0  0  0
  -29.5000  -23.8570   20.3880 C   0  0  0  0  0  2  0  0  0  0  0  0
  -28.3140  -24.5020   19.6570 C   0  0  0  0  0  2  0  0  0  0  0  0
  -28.6720  -25.8980   19.1250 C   0  0  0  0  0  2  0  0  0  0  0  0
  -28.4700  -26.8930   20.1270 O   0  0  0  0  0  0  0  0  0  0  0  0
  -24.5560  -31.9340   23.2590 C   0  0  0  0  0  0  0  0  0  0  0  0
  -27.2560  -27.5430   20.1610 C   0  0  0  0  0  0  0  0  0  0  0  0
  -23.3660  -30.5320   21.6050 C   0  0  0  0  0  3  0  0  0  0  0  0
  -24.8360  -29.0060   20.1930 C   0  0  0  0  0  0  0  0  0  0  0  0
  -25.8890  -30.9110   21.4200 C   0  0  0  0  0  2  0  0  0  0  0  0
  -25.9860  -29.5400   20.7850 C   0  0  0  0  0  0  0  0  0  0  0  0
  -27.1950  -28.8120   20.7740 C   0  0  0  0  0  3  0  0  0  0  0  0
  -26.0760  -27.0040   19.5930 C   0  0  0  0  0  3  0  0  0  0  0  0
  -24.8740  -27.7330   19.6020 C   0  0  0  0  0  3  0  0  0  0  0  0
  -23.5900  -29.8590   20.2250 C   0  0  0  0  0  2  0  0  0  0  0  0
  -24.6210  -31.1410   22.1550 N   0  0  0  0  0  0  0  0  0  0  0  0
  -23.4710  -32.2000   23.7960 O   0  0  0  0  0  0  0  0  0  0  0  0
  -22.7170  -29.5040   22.5580 C   0  0  0  0  0  0  0  0  0  0  0  0
  -21.3960  -29.3110   22.4160 N   0  0  0  0  0  0  0  0  0  0  0  0
  -23.3990  -28.8840   23.3780 O   0  0  0  0  0  0  0  0  0  0  0  0
  -20.9100  -29.8640   21.7230 H   0  0  0  0  0  0  0  0  0  0  0  0
  -18.0230  -28.1070   22.8840 C   0  0  0  0  0  0  0  0  0  0  0  0
  -20.5770  -28.3680   23.1780 C   0  0  0  0  0  3  0  0  0  0  0  0
  -20.6860  -26.9400   22.5970 C   0  0  0  0  0  2  0  0  0  0  0  0
  -19.5960  -26.6210   21.5710 C   0  0  0  0  0  2  0  0  0  0  0  0
  -18.2060  -26.7630   22.1980 C   0  0  0  0  0  2  0  0  0  0  0  0
  -19.1360  -28.8680   23.3260 C   0  0  0  0  0  0  0  0  0  0  0  0
  -18.9090  -30.1290   23.9200 C   0  0  0  0  0  3  0  0  0  0  0  0
  -17.6020  -30.6290   24.0770 C   0  0  0  0  0  3  0  0  0  0  0  0
  -16.5030  -29.8610   23.6540 C   0  0  0  0  0  3  0  0  0  0  0  0
  -16.7150  -28.6030   23.0620 C   0  0  0  0  0  3  0  0  0  0  0  0
  -25.8380  -32.5690   23.8890 C   0  0  0  0  0  3  0  0  0  0  0  0
  -25.5260  -33.9640   24.2190 N   0  0  0  0  0  0  0  0  0  0  0  0
  -25.8610  -35.0160   23.4610 C   0  0  0  0  0  0  0  0  0  0  0  0
  -26.5440  -34.9170   22.4380 O   0  0  0  0  0  0  0  0  0  0  0  0
  -24.9340  -34.1180   25.0210 H   0  0  0  0  0  0  0  0  0  0  0  0
  -24.1350  -36.8050   23.0710 C   0  0  0  0  0  1  0  0  0  0  0  0
  -25.3570  -36.4010   23.9110 C   0  0  0  0  0  3  0  0  0  0  0  0
  -27.4710  -37.2880   24.7930 C   0  0  0  0  0  1  0  0  0  0  0  0
  -26.3890  -37.4600   23.8280 N   0  0  0  0  0  0  0  0  0  0  0  0
  -25.9760  -38.3750   23.9780 H   0  0  0  0  0  0  0  0  0  0  0  0
  -26.3510  -31.7930   25.1650 C   0  0  1  0  0  0  0  0  0  0  0  0
  -25.2480  -31.5190   26.2120 C   0  0  0  0  0  1  0  0  0  0  0  0
  -26.9650  -30.4320   24.7610 C   0  0  0  0  0  1  0  0  0  0  0  0
  -27.4790  -32.5990   25.8500 C   0  0  0  0  0  1  0  0  0  0  0  0
  -29.8530  -18.1110   21.3340 C   0  0  0  0  0  2  0  0  0  0  0  0
  -31.2390  -17.4320   21.3150 C   0  0  0  0  0  2  0  0  0  0  0  0
  -31.2620  -16.0480   21.9930 C   0  0  0  0  0  2  0  0  0  0  0  0
  -30.8330  -14.3350   20.2170 C   0  0  0  0  0  0  0  0  0  0  0  0
  -30.3860  -12.3000   18.8930 C   0  0  0  0  0  2  0  0  0  0  0  0
  -29.3730  -12.5380   17.7590 C   0  0  0  0  0  2  0  0  0  0  0  0
  -27.9280  -12.4010   18.2690 C   0  0  0  0  0  2  0  0  0  0  0  0
  -27.6750  -13.2250   19.5590 C   0  0  0  0  0  3  0  0  0  0  0  0
  -28.7720  -12.9370   20.6040 C   0  0  0  0  0  2  0  0  0  0  0  0
  -30.0810  -13.2290   19.9910 N   0  0  0  0  0  0  0  0  0  0  0  0
  -31.8160  -14.6470   19.5400 O   0  0  0  0  0  0  0  0  0  0  0  0
  -30.4700  -15.0330   21.3030 N   0  0  0  0  0  0  0  0  0  0  0  0
  -29.6470  -14.6910   21.7810 H   0  0  0  0  0  0  0  0  0  0  0  0
  -25.3200  -13.8720   20.3810 C   0  0  0  0  0  0  0  0  0  0  0  0
  -24.2620  -13.1150   20.8040 C   0  0  0  0  0  0  0  0  0  0  0  0
  -24.7020  -11.7570   20.7510 C   0  0  0  0  0  0  0  0  0  0  0  0
  -26.3400  -12.9750   20.0990 N   0  0  0  0  0  0  0  0  0  0  0  0
  -25.9730  -11.6990   20.3760 N   0  0  0  0  0  0  0  0  0  0  0  0
  -23.9710  -10.5040   20.9770 C   0  0  0  0  0  0  0  0  0  0  0  0
  -24.4250   -9.5380   21.9010 C   0  0  0  0  0  3  0  0  0  0  0  0
  -23.6920   -8.3490   22.1110 C   0  0  0  0  0  3  0  0  0  0  0  0
  -22.4940   -8.1180   21.3950 C   0  0  0  0  0  0  0  0  0  0  0  0
  -22.0600   -9.0730   20.4580 C   0  0  0  0  0  3  0  0  0  0  0  0
  -22.7910  -10.2530   20.2470 C   0  0  0  0  0  3  0  0  0  0  0  0
  -21.7310   -6.9820   21.5150 O   0  0  0  0  0  0  0  0  0  0  0  0
  -21.7040   -6.2530   22.6770 C   0  0  0  0  0  0  0  0  0  0  0  0
  -21.3230   -6.8290   23.9100 C   0  0  0  0  0  3  0  0  0  0  0  0
  -21.2410   -6.0280   25.0650 C   0  0  0  0  0  3  0  0  0  0  0  0
  -21.5300   -4.6530   24.9920 C   0  0  0  0  0  0  0  0  0  0  0  0
  -21.9040   -4.0760   23.7660 C   0  0  0  0  0  3  0  0  0  0  0  0
  -21.9870   -4.8740   22.6110 C   0  0  0  0  0  0  0  0  0  0  0  0
  -22.3280   -4.3100   21.4270 F   0  0  0  0  0  0  0  0  0  0  0  0
  -21.4430   -3.8810   26.1010 F   0  0  0  0  0  0  0  0  0  0  0  0
  -22.8870  -13.6130   21.1480 C   0  0  0  0  0  0  0  0  0  0  0  0
  -22.1930  -12.9240   22.0470 N   0  0  0  0  0  0  0  0  0  0  0  0
  -22.4390  -14.6450   20.6540 O   0  0  0  0  0  0  0  0  0  0  0  0
  -22.5690  -12.0870   22.4680 H   0  0  0  0  0  0  0  0  0  0  0  0
  -21.2710  -13.2360   22.3150 H   0  0  0  0  0  0  0  0  0  0  0  0
  -25.4950  -15.2400   20.1930 N   0  0  0  0  0  0  0  0  0  0  0  0
  -24.7350  -15.9010   20.3200 H   0  0  0  0  0  0  0  0  0  0  0  0
  -26.3270  -15.6640   19.8020 H   0  0  0  0  0  0  0  0  0  0  0  0
  1  3  1  0
  2  4  1  0
  2  5  1  0
  4  6  1  0
  5  8  1  0
  5  1  1  0
  6 52  1  0
  6  3  1  0
  6  7  1  6
  9  8  1  0
 10  9  1  0
 10 11  1  0
 11 13  1  0
 12 23  2  0
 13 18  1  0
 14 22  1  0
 14 24  1  0
 15 21  1  0
 15 17  1  0
 16 22  1  0
 17 16  1  0
 18 17  2  0
 19 20  1  0
 19 13  2  0
 20 15  2  0
 21 14  1  0
 22 12  1  0
 24 26  2  0
 25 24  1  0
 27 25  1  0
 28 37  2  0
 28 33  1  0
 29 25  1  0
 29 33  1  0
 30 29  1  0
 31 32  1  0
 31 30  1  0
 32 28  1  0
 33 34  2  0
 34 35  1  0
 36 35  2  0
 37 36  1  0
 38 12  1  0
 38 39  1  0
 38 48  1  0
 39 42  1  0
 40 44  1  0
 40 39  1  0
 41 40  2  0
 44 43  1  0
 46 44  1  0
 46 47  1  0
 46 45  1  0
 48 51  1  1
 48 49  1  0
 50 48  1  0
 53 52  1  0
 53 54  1  0
 55 63  1  0
 56 61  1  0
 57 58  1  0
 57 56  1  0
 59 58  1  0
 59 68  1  0
 59 60  1  0
 61 55  1  0
 61 60  1  0
 62 55  2  0
 63 64  1  0
 63 54  1  0
 65 66  2  0
 66 85  1  0
 67 66  1  0
 67 70  1  0
 68 69  1  0
 68 65  1  0
 69 67  2  0
 70 71  1  0
 71 72  2  0
 73 76  1  0
 73 72  1  0
 74 73  2  0
 75 74  1  0
 75 70  2  0
 76 77  1  0
 77 78  1  0
 78 79  2  0
 80 79  1  0
 80 84  1  0
 81 80  2  0
 82 77  2  0
 82 81  1  0
 83 82  1  0
 85 86  1  0
 86 89  1  0
 86 88  1  0
 87 85  2  0
 90 91  1  0
 90 65  1  0
 92 90  1  0
M  ISO  4  10 101  11 101  55 100  63 100
M  END
>  <TORSDO>  (73) 
F 22

>  <SCORE>  (73) 
-12.988

>  <name>  (73) 
72

>  <ligand_id>  (73) 
72

>  <original_smiles>  (73) 
[H]c1c([H])c([H])c2c(c1[H])C([H])([H])C([H])([H])C([H])([H])C2([H])N([H])C(=O)C1([H])N(C(=O)C([H])(N([H])C(=O)C([H])(N([H])C([H])([H])[H])C([H])([H])[H])C(C([H])([H])[H])(C([H])([H])[H])C([H])([H])[H])C([H])([H])c2c([H])c(OC([H])([H])C([H])([H])C([H])([H])C3([H])C([H])([H])C([H])([H])[N+]([H])(C([H])([H])C([H])([H])C([H])([H])N([H])C(=O)N4C([H])([H])C([H])([H])C([H])([H])C([H])(n5nc(-c6c([H])c([H])c(Oc7c([H])c([H])c(F)c([H])c7F)c([H])c6[H])c(C(=O)N([H])[H])c5N([H])[H])C4([H])[H])C([H])([H])C3([H])[H])c([H])c([H])c2C1([H])[H]

>  <smiles>  (73) 
[H]c1c([H])c([H])c2c(c1[H])C([H])([H])C([H])([H])C([H])([H])C2([H])N([H])C(=O)C1([H])N(C(=O)C([H])(N([H])C(=O)C([H])(N([H])C([H])([H])[H])C([H])([H])[H])C(C([H])([H])[H])(C([H])([H])[H])C([H])([H])[H])C([H])([H])c2c([H])c(OC([H])([H])C([H])([H])C([H])([H])C3([H])C([H])([H])C([H])([H])[N+]([H])(C([H])([H])C([H])([H])C([H])([H])N([H])C(=O)N4C([H])([H])C([H])([H])C([H])([H])C([H])(n5nc(-c6c([H])c([H])c(Oc7c([H])c([H])c(F)c([H])c7F)c([H])c6[H])c(C(=O)N([H])[H])c5N([H])[H])C4([H])[H])C([H])([H])C3([H])[H])c([H])c([H])c2C1([H])[H]

$$$$
74:0:0
     RDKit          3D

 94103  0  0  1  0  0  0  0  0999 V2000
  -27.7970  -22.6100   21.0710 C   0  0  0  0  0  0  0  0  0  0  0  0
  -28.1170  -21.2920   21.8330 C   0  0  0  0  0  2  0  0  0  0  0  0
  -28.4590  -20.0140   20.9910 C   0  0  0  0  0  2  0  0  0  0  0  0
  -30.9630  -20.6440   20.8860 C   0  0  0  0  0  2  0  0  0  0  0  0
  -29.3570  -21.6640   19.2770 C   0  0  0  0  0  2  0  0  0  0  0  0
  -32.2020  -20.8070   19.9600 C   0  0  0  0  0  2  0  0  0  0  0  0
  -31.6380  -18.6790   18.7240 C   0  0  0  0  0  2  0  0  0  0  0  0
  -28.8310  -23.1540   20.0510 C   0  0  0  0  0  3  0  0  0  0  0  0
  -30.3920  -18.5000   19.6230 C   0  0  0  0  0  3  0  0  0  0  0  0
  -29.7150  -20.1370   20.0950 C   0  0  2  0  0  0  0  0  0  0  0  0
  -32.1130  -20.0780   18.6590 N   0  0  0  0  0  4  0  0  0  0  0  0
  -26.7580  -23.2260   21.3260 O   0  0  0  0  0  0  0  0  0  0  0  0
  -33.0180  -20.0700   18.2090 H   0  0  0  0  0  0  0  0  0  0  0  0
  -31.4940  -20.5890   18.0470 H   0  0  0  0  0  0  0  0  0  0  0  0
  -30.7470  -15.6070   19.6580 C   0  0  0  0  0  0  0  0  0  0  0  0
  -30.6860  -13.1170   18.9380 C   0  0  0  0  0  2  0  0  0  0  0  0
  -29.6980  -12.8220   17.7830 C   0  0  0  0  0  2  0  0  0  0  0  0
  -28.3010  -12.5350   18.3540 C   0  0  0  0  0  2  0  0  0  0  0  0
  -27.8870  -13.5910   19.4020 C   0  0  0  0  0  3  0  0  0  0  0  0
  -28.9890  -13.8560   20.4510 C   0  0  0  0  0  2  0  0  0  0  0  0
  -30.1780  -14.3080   19.7140 N   0  0  0  0  0  0  0  0  0  0  0  0
  -31.9490  -15.5970   19.3640 O   0  0  0  0  0  0  0  0  0  0  0  0
  -30.0010  -16.8850   19.7410 N   0  0  0  0  0  0  0  0  0  0  0  0
  -29.0290  -16.7200   19.9570 H   0  0  0  0  0  0  0  0  0  0  0  0
  -25.6100  -14.1840   20.3820 C   0  0  0  0  0  0  0  0  0  0  0  0
  -24.5570  -13.4140   20.8030 C   0  0  0  0  0  0  0  0  0  0  0  0
  -24.9820  -12.0570   20.6670 C   0  0  0  0  0  0  0  0  0  0  0  0
  -26.6000  -13.2920   20.0110 N   0  0  0  0  0  0  0  0  0  0  0  0
  -26.2410  -12.0040   20.2530 N   0  0  0  0  0  0  0  0  0  0  0  0
  -24.2370  -10.8040   20.8500 C   0  0  0  0  0  0  0  0  0  0  0  0
  -24.6420   -9.8410   21.8000 C   0  0  0  0  0  3  0  0  0  0  0  0
  -23.9010   -8.6530   21.9780 C   0  0  0  0  0  3  0  0  0  0  0  0
  -22.7380   -8.4210   21.2020 C   0  0  0  0  0  0  0  0  0  0  0  0
  -22.3510   -9.3740   20.2440 C   0  0  0  0  0  3  0  0  0  0  0  0
  -23.0940  -10.5540   20.0660 C   0  0  0  0  0  3  0  0  0  0  0  0
  -21.9680   -7.2860   21.2860 O   0  0  0  0  0  0  0  0  0  0  0  0
  -21.7810   -6.6320   22.4760 C   0  0  0  0  0  0  0  0  0  0  0  0
  -21.1940   -7.2680   23.5930 C   0  0  0  0  0  3  0  0  0  0  0  0
  -20.9520   -6.5390   24.7720 C   0  0  0  0  0  3  0  0  0  0  0  0
  -21.2890   -5.1740   24.8410 C   0  0  0  0  0  0  0  0  0  0  0  0
  -21.8690   -4.5360   23.7280 C   0  0  0  0  0  3  0  0  0  0  0  0
  -22.1100   -5.2640   22.5500 C   0  0  0  0  0  0  0  0  0  0  0  0
  -22.6500   -4.6380   21.4750 F   0  0  0  0  0  0  0  0  0  0  0  0
  -21.0510   -4.4710   25.9720 F   0  0  0  0  0  0  0  0  0  0  0  0
  -23.2020  -13.9120   21.2060 C   0  0  0  0  0  0  0  0  0  0  0  0
  -22.5350  -13.2000   22.1070 N   0  0  0  0  0  0  0  0  0  0  0  0
  -22.7470  -14.9650   20.7640 O   0  0  0  0  0  0  0  0  0  0  0  0
  -22.9160  -12.3420   22.4750 H   0  0  0  0  0  0  0  0  0  0  0  0
  -21.6320  -13.5140   22.4300 H   0  0  0  0  0  0  0  0  0  0  0  0
  -25.8010  -15.5560   20.2560 N   0  0  0  0  0  0  0  0  0  0  0  0
  -25.0620  -16.2290   20.4290 H   0  0  0  0  0  0  0  0  0  0  0  0
  -26.6320  -15.9750   19.8580 H   0  0  0  0  0  0  0  0  0  0  0  0
  -28.3250  -24.7180   19.3410 C   0  0  0  0  0  2  0  0  0  0  0  0
  -28.3060  -26.2890   19.7840 O   0  0  0  0  0  0  0  0  0  0  0  0
  -24.5900  -31.8660   23.0580 C   0  0  0  0  0  0  0  0  0  0  0  0
  -27.2300  -27.3050   19.7310 C   0  0  0  0  0  0  0  0  0  0  0  0
  -23.3850  -30.4970   21.3980 C   0  0  0  0  0  3  0  0  0  0  0  0
  -24.8410  -29.0450   19.8350 C   0  0  0  0  0  0  0  0  0  0  0  0
  -25.9170  -30.8700   21.1350 C   0  0  0  0  0  2  0  0  0  0  0  0
  -26.0270  -29.4900   20.4290 C   0  0  0  0  0  0  0  0  0  0  0  0
  -27.2110  -28.6400   20.3580 C   0  0  0  0  0  3  0  0  0  0  0  0
  -26.0120  -27.0080   19.0810 C   0  0  0  0  0  3  0  0  0  0  0  0
  -24.8510  -27.8240   19.1390 C   0  0  0  0  0  3  0  0  0  0  0  0
  -23.5810  -29.8930   19.9800 C   0  0  0  0  0  2  0  0  0  0  0  0
  -24.6540  -31.1010   21.9220 N   0  0  0  0  0  0  0  0  0  0  0  0
  -23.5140  -32.0770   23.6440 O   0  0  0  0  0  0  0  0  0  0  0  0
  -22.7850  -29.4200   22.3400 C   0  0  0  0  0  0  0  0  0  0  0  0
  -21.4670  -29.1620   22.2350 N   0  0  0  0  0  0  0  0  0  0  0  0
  -23.5110  -28.8180   23.1360 O   0  0  0  0  0  0  0  0  0  0  0  0
  -20.9370  -29.7070   21.5700 H   0  0  0  0  0  0  0  0  0  0  0  0
  -18.1950  -27.6820   22.7140 C   0  0  0  0  0  0  0  0  0  0  0  0
  -20.7270  -28.1470   22.9860 C   0  0  0  0  0  3  0  0  0  0  0  0
  -20.9430  -26.7390   22.3800 C   0  0  0  0  0  2  0  0  0  0  0  0
  -19.8700  -26.3520   21.3590 C   0  0  0  0  0  2  0  0  0  0  0  0
  -18.4800  -26.3670   22.0070 C   0  0  0  0  0  2  0  0  0  0  0  0
  -19.2480  -28.5230   23.1610 C   0  0  0  0  0  0  0  0  0  0  0  0
  -18.9260  -29.7480   23.7810 C   0  0  0  0  0  3  0  0  0  0  0  0
  -17.5850  -30.1330   23.9640 C   0  0  0  0  0  3  0  0  0  0  0  0
  -16.5460  -29.2890   23.5350 C   0  0  0  0  0  3  0  0  0  0  0  0
  -16.8520  -28.0660   22.9130 C   0  0  0  0  0  3  0  0  0  0  0  0
  -25.8630  -32.5290   23.6670 C   0  0  0  0  0  3  0  0  0  0  0  0
  -25.5150  -33.9060   24.0620 N   0  0  0  0  0  0  0  0  0  0  0  0
  -25.7980  -35.0020   23.3440 C   0  0  0  0  0  0  0  0  0  0  0  0
  -26.4430  -34.9610   22.2930 O   0  0  0  0  0  0  0  0  0  0  0  0
  -24.9580  -34.0090   24.8980 H   0  0  0  0  0  0  0  0  0  0  0  0
  -24.0110  -36.7530   23.0960 C   0  0  0  0  0  1  0  0  0  0  0  0
  -25.2800  -36.3580   23.8670 C   0  0  0  0  0  3  0  0  0  0  0  0
  -27.3970  -37.2740   24.7000 C   0  0  0  0  0  1  0  0  0  0  0  0
  -26.2780  -37.4460   23.7770 N   0  0  0  0  0  0  0  0  0  0  0  0
  -25.8490  -38.3470   23.9670 H   0  0  0  0  0  0  0  0  0  0  0  0
  -26.4370  -31.7360   24.9060 C   0  0  1  0  0  0  0  0  0  0  0  0
  -25.3810  -31.4260   25.9920 C   0  0  0  0  0  1  0  0  0  0  0  0
  -27.0510  -30.3940   24.4480 C   0  0  0  0  0  1  0  0  0  0  0  0
  -27.5800  -32.5420   25.5620 C   0  0  0  0  0  1  0  0  0  0  0  0
  1 12  2  0
  1  2  1  0
  3  2  1  0
  5  8  1  0
  6  4  1  0
  7  9  1  0
  8 53  1  0
  8  1  1  0
  9 23  1  0
  9 10  1  0
 10  5  1  6
 10  4  1  0
 10  3  1  0
 11  7  1  0
 11  6  1  0
 13 11  1  0
 14 11  1  0
 15 21  1  0
 15 23  1  0
 16 21  1  0
 17 18  1  0
 17 16  1  0
 19 18  1  0
 19 28  1  0
 19 20  1  0
 21 20  1  0
 22 15  2  0
 23 24  1  0
 25 26  2  0
 26 45  1  0
 27 26  1  0
 27 30  1  0
 28 29  1  0
 28 25  1  0
 29 27  2  0
 30 31  1  0
 31 32  2  0
 33 36  1  0
 33 32  1  0
 34 33  2  0
 35 34  1  0
 35 30  2  0
 36 37  1  0
 37 42  2  0
 37 38  1  0
 38 39  2  0
 39 40  1  0
 40 44  1  0
 41 40  2  0
 42 41  1  0
 43 42  1  0
 45 46  1  0
 46 49  1  0
 46 48  1  0
 47 45  2  0
 50 25  1  0
 50 51  1  0
 52 50  1  0
 53 54  1  0
 55 66  2  0
 56 54  1  0
 56 61  1  0
 57 65  1  0
 57 67  1  0
 58 64  1  0
 58 60  1  0
 59 65  1  0
 60 59  1  0
 61 60  2  0
 62 63  1  0
 62 56  2  0
 63 58  2  0
 64 57  1  0
 65 55  1  0
 67 69  2  0
 68 67  1  0
 70 68  1  0
 71 80  2  0
 71 76  1  0
 72 68  1  0
 72 76  1  0
 73 72  1  0
 74 75  1  0
 74 73  1  0
 75 71  1  0
 76 77  2  0
 77 78  1  0
 79 78  2  0
 80 79  1  0
 81 55  1  0
 81 82  1  0
 81 91  1  0
 82 85  1  0
 83 87  1  0
 83 82  1  0
 84 83  2  0
 87 86  1  0
 89 87  1  0
 89 90  1  0
 89 88  1  0
 91 94  1  1
 91 92  1  0
 93 91  1  0
M  ISO  4  15 100  23 100  53 101  54 101
M  END
>  <TORSDO>  (74) 
F 17

>  <SCORE>  (74) 
-14.360

>  <name>  (74) 
74

>  <ligand_id>  (74) 
74

>  <original_smiles>  (74) 
[H]c1c([H])c([H])c2c(c1[H])C([H])([H])C([H])([H])C([H])([H])C2([H])N([H])C(=O)C1([H])N(C(=O)C([H])(N([H])C(=O)C([H])(N([H])C([H])([H])[H])C([H])([H])[H])C(C([H])([H])[H])(C([H])([H])[H])C([H])([H])[H])C([H])([H])c2c([H])c(OC([H])([H])C3([H])C(=O)C([H])([H])C([H])([H])C4(C3([H])[H])C([H])([H])C([H])([H])[N+]([H])([H])C([H])([H])C4([H])N([H])C(=O)N3C([H])([H])C([H])([H])C([H])([H])C([H])(n4nc(-c5c([H])c([H])c(Oc6c([H])c([H])c(F)c([H])c6F)c([H])c5[H])c(C(=O)N([H])[H])c4N([H])[H])C3([H])[H])c([H])c([H])c2C1([H])[H]

>  <smiles>  (74) 
[H]c1c([H])c([H])c2c(c1[H])C([H])([H])C([H])([H])C([H])([H])C2([H])N([H])C(=O)C1([H])N(C(=O)C([H])(N([H])C(=O)C([H])(N([H])C([H])([H])[H])C([H])([H])[H])C(C([H])([H])[H])(C([H])([H])[H])C([H])([H])[H])C([H])([H])c2c([H])c(OC([H])([H])C3([H])C(=O)C([H])([H])C([H])([H])C4(C3([H])[H])C([H])([H])C([H])([H])[N+]([H])([H])C([H])([H])C4([H])N([H])C(=O)N3C([H])([H])C([H])([H])C([H])([H])C([H])(n4nc(-c5c([H])c([H])c(Oc6c([H])c([H])c(F)c([H])c6F)c([H])c5[H])c(C(=O)N([H])[H])c4N([H])[H])C3([H])[H])c([H])c([H])c2C1([H])[H]

$$$$
75:0:0
     RDKit          3D

 97106  0  0  1  0  0  0  0  0999 V2000
  -30.5760  -24.5580   16.2190 C   0  0  0  0  0  2  0  0  0  0  0  0
  -29.8360  -23.4490   16.9680 C   0  0  0  0  0  2  0  0  0  0  0  0
  -31.8010  -24.0020   18.2690 C   0  0  0  0  0  2  0  0  0  0  0  0
  -31.6350  -25.0990   17.2010 C   0  0  0  0  0  3  0  0  0  0  0  0
  -30.9110  -22.8220   17.8560 C   0  0  0  0  0  3  0  0  0  0  0  0
  -30.6990  -27.6210   17.1770 C   0  0  0  0  0  2  0  0  0  0  0  0
  -31.3190  -26.4350   17.8660 C   0  0  0  0  0  3  0  0  0  0  0  0
  -29.9030  -26.8380   18.2090 C   0  0  0  0  0  3  0  0  0  0  0  0
  -29.5900  -27.3990   19.5820 C   0  0  0  0  0  2  0  0  0  0  0  0
  -28.4450  -26.7120   20.0830 O   0  0  0  0  0  0  0  0  0  0  0  0
  -24.6290  -31.8520   23.2000 C   0  0  0  0  0  0  0  0  0  0  0  0
  -27.2840  -27.4400   20.1320 C   0  0  0  0  0  0  0  0  0  0  0  0
  -23.4130  -30.4390   21.5710 C   0  0  0  0  0  3  0  0  0  0  0  0
  -24.8650  -28.8890   20.1570 C   0  0  0  0  0  0  0  0  0  0  0  0
  -25.9310  -30.8130   21.3520 C   0  0  0  0  0  2  0  0  0  0  0  0
  -26.0170  -29.4360   20.7340 C   0  0  0  0  0  0  0  0  0  0  0  0
  -27.2270  -28.7160   20.7310 C   0  0  0  0  0  3  0  0  0  0  0  0
  -26.1130  -26.8810   19.5810 C   0  0  0  0  0  3  0  0  0  0  0  0
  -24.9030  -27.6040   19.5840 C   0  0  0  0  0  3  0  0  0  0  0  0
  -23.6160  -29.7390   20.1970 C   0  0  0  0  0  2  0  0  0  0  0  0
  -24.6760  -31.0490   22.1010 N   0  0  0  0  0  0  0  0  0  0  0  0
  -23.5520  -32.1280   23.7460 O   0  0  0  0  0  0  0  0  0  0  0  0
  -22.7690  -29.4260   22.5430 C   0  0  0  0  0  0  0  0  0  0  0  0
  -21.4430  -29.2500   22.4260 N   0  0  0  0  0  0  0  0  0  0  0  0
  -23.4570  -28.8000   23.3530 O   0  0  0  0  0  0  0  0  0  0  0  0
  -20.9510  -29.8050   21.7410 H   0  0  0  0  0  0  0  0  0  0  0  0
  -18.0680  -28.0790   22.9470 C   0  0  0  0  0  0  0  0  0  0  0  0
  -20.6290  -28.3200   23.2050 C   0  0  0  0  0  3  0  0  0  0  0  0
  -20.7190  -26.8870   22.6340 C   0  0  0  0  0  2  0  0  0  0  0  0
  -19.6100  -26.5670   21.6260 C   0  0  0  0  0  2  0  0  0  0  0  0
  -18.2320  -26.7250   22.2770 C   0  0  0  0  0  2  0  0  0  0  0  0
  -19.1940  -28.8340   23.3680 C   0  0  0  0  0  0  0  0  0  0  0  0
  -18.9880  -30.1020   23.9530 C   0  0  0  0  0  3  0  0  0  0  0  0
  -17.6880  -30.6150   24.1210 C   0  0  0  0  0  3  0  0  0  0  0  0
  -16.5760  -29.8560   23.7170 C   0  0  0  0  0  3  0  0  0  0  0  0
  -16.7670  -28.5890   23.1370 C   0  0  0  0  0  3  0  0  0  0  0  0
  -25.9210  -32.4840   23.8100 C   0  0  0  0  0  3  0  0  0  0  0  0
  -26.4650  -31.6980   25.0650 C   0  0  1  0  0  0  0  0  0  0  0  0
  -25.3930  -31.4310   26.1460 C   0  0  0  0  0  1  0  0  0  0  0  0
  -27.0540  -30.3330   24.6380 C   0  0  0  0  0  1  0  0  0  0  0  0
  -27.6190  -32.4910   25.7220 C   0  0  0  0  0  1  0  0  0  0  0  0
  -25.6080  -33.8750   24.1610 N   0  0  0  0  0  0  0  0  0  0  0  0
  -25.9280  -34.9390   23.4100 C   0  0  0  0  0  0  0  0  0  0  0  0
  -26.5890  -34.8510   22.3720 O   0  0  0  0  0  0  0  0  0  0  0  0
  -25.0160  -34.0170   24.9660 H   0  0  0  0  0  0  0  0  0  0  0  0
  -24.1800  -36.7190   23.0960 C   0  0  0  0  0  1  0  0  0  0  0  0
  -25.4360  -36.3180   23.8870 C   0  0  0  0  0  3  0  0  0  0  0  0
  -27.5790  -37.2060   24.6900 C   0  0  0  0  0  1  0  0  0  0  0  0
  -26.4580  -37.3810   23.7700 N   0  0  0  0  0  0  0  0  0  0  0  0
  -26.0480  -38.2950   23.9420 H   0  0  0  0  0  0  0  0  0  0  0  0
  -30.3640  -22.0540   19.0700 C   0  0  0  0  0  2  0  0  0  0  0  0
  -29.5710  -20.7880   18.7020 C   0  0  0  0  0  2  0  0  0  0  0  0
  -29.2790  -19.9820   19.9040 N   0  0  0  0  0  4  0  0  0  0  0  0
  -28.6610  -20.4890   20.5180 H   0  0  0  0  0  0  0  0  0  0  0  0
  -30.1480  -19.8390   20.3930 H   0  0  0  0  0  0  0  0  0  0  0  0
  -28.7060  -18.6510   19.6280 C   0  0  0  0  0  2  0  0  0  0  0  0
  -29.0390  -17.6570   20.7530 C   0  0  0  0  0  2  0  0  0  0  0  0
  -30.5590  -17.4210   20.9010 C   0  0  0  0  0  2  0  0  0  0  0  0
  -30.9320  -16.2880   21.8730 C   0  0  0  0  0  2  0  0  0  0  0  0
  -30.8060  -14.2370   20.4630 C   0  0  0  0  0  0  0  0  0  0  0  0
  -30.3870  -12.1850   19.1620 C   0  0  0  0  0  2  0  0  0  0  0  0
  -29.4280  -12.4530   17.9870 C   0  0  0  0  0  2  0  0  0  0  0  0
  -27.9600  -12.3390   18.4400 C   0  0  0  0  0  2  0  0  0  0  0  0
  -27.6700  -13.1590   19.7240 C   0  0  0  0  0  3  0  0  0  0  0  0
  -28.7260  -12.8570   20.8080 C   0  0  0  0  0  2  0  0  0  0  0  0
  -30.0640  -13.1230   20.2440 N   0  0  0  0  0  0  0  0  0  0  0  0
  -31.8150  -14.5260   19.8120 O   0  0  0  0  0  0  0  0  0  0  0  0
  -30.3660  -15.0100   21.4610 N   0  0  0  0  0  0  0  0  0  0  0  0
  -29.5550  -14.6770   21.9630 H   0  0  0  0  0  0  0  0  0  0  0  0
  -25.2870  -13.8210   20.4450 C   0  0  0  0  0  0  0  0  0  0  0  0
  -24.2070  -13.0720   20.8320 C   0  0  0  0  0  0  0  0  0  0  0  0
  -24.6430  -11.7120   20.8060 C   0  0  0  0  0  0  0  0  0  0  0  0
  -26.3130  -12.9190   20.2130 N   0  0  0  0  0  0  0  0  0  0  0  0
  -25.9280  -11.6450   20.4830 N   0  0  0  0  0  0  0  0  0  0  0  0
  -23.8960  -10.4640   21.0140 C   0  0  0  0  0  0  0  0  0  0  0  0
  -24.3350   -9.4850   21.9330 C   0  0  0  0  0  3  0  0  0  0  0  0
  -23.5900   -8.3010   22.1270 C   0  0  0  0  0  3  0  0  0  0  0  0
  -22.3940   -8.0890   21.4020 C   0  0  0  0  0  0  0  0  0  0  0  0
  -21.9740   -9.0560   20.4710 C   0  0  0  0  0  3  0  0  0  0  0  0
  -22.7190  -10.2310   20.2740 C   0  0  0  0  0  3  0  0  0  0  0  0
  -21.6200   -6.9590   21.5060 O   0  0  0  0  0  0  0  0  0  0  0  0
  -21.5990   -6.2040   22.6510 C   0  0  0  0  0  0  0  0  0  0  0  0
  -21.2570   -6.7590   23.9030 C   0  0  0  0  0  3  0  0  0  0  0  0
  -21.1810   -5.9320   25.0420 C   0  0  0  0  0  3  0  0  0  0  0  0
  -21.4370   -4.5520   24.9290 C   0  0  0  0  0  0  0  0  0  0  0  0
  -21.7710   -3.9970   23.6820 C   0  0  0  0  0  3  0  0  0  0  0  0
  -21.8490   -4.8210   22.5450 C   0  0  0  0  0  0  0  0  0  0  0  0
  -22.1520   -4.2770   21.3420 F   0  0  0  0  0  0  0  0  0  0  0  0
  -21.3550   -3.7560   26.0220 F   0  0  0  0  0  0  0  0  0  0  0  0
  -22.8230  -13.5760   21.1190 C   0  0  0  0  0  0  0  0  0  0  0  0
  -22.0930  -12.9010   22.0000 N   0  0  0  0  0  0  0  0  0  0  0  0
  -22.3960  -14.6050   20.5970 O   0  0  0  0  0  0  0  0  0  0  0  0
  -22.4510  -12.0670   22.4430 H   0  0  0  0  0  0  0  0  0  0  0  0
  -21.1650  -13.2210   22.2350 H   0  0  0  0  0  0  0  0  0  0  0  0
  -25.4760  -15.1870   20.2550 N   0  0  0  0  0  0  0  0  0  0  0  0
  -24.7250  -15.8600   20.3660 H   0  0  0  0  0  0  0  0  0  0  0  0
  -26.3330  -15.6010   19.9110 H   0  0  0  0  0  0  0  0  0  0  0  0
  1  2  1  0
  2  5  1  0
  4  1  1  0
  4  7  1  0
  4  3  1  0
  5  3  1  0
  5 51  1  0
  6  8  1  0
  7  6  1  0
  7  8  1  0
  8  9  1  0
  9 10  1  0
 10 12  1  0
 11 22  2  0
 12 17  1  0
 13 21  1  0
 13 23  1  0
 14 20  1  0
 14 16  1  0
 15 21  1  0
 16 15  1  0
 17 16  2  0
 18 19  1  0
 18 12  2  0
 19 14  2  0
 20 13  1  0
 21 11  1  0
 23 25  2  0
 24 23  1  0
 26 24  1  0
 27 36  2  0
 27 32  1  0
 28 24  1  0
 28 32  1  0
 29 28  1  0
 30 31  1  0
 30 29  1  0
 31 27  1  0
 32 33  2  0
 33 34  1  0
 35 34  2  0
 36 35  1  0
 37 11  1  0
 37 42  1  0
 37 38  1  0
 38 41  1  1
 38 39  1  0
 40 38  1  0
 42 45  1  0
 43 47  1  0
 43 42  1  0
 44 43  2  0
 47 46  1  0
 49 47  1  0
 49 50  1  0
 49 48  1  0
 52 51  1  0
 52 53  1  0
 53 55  1  0
 53 54  1  0
 56 53  1  0
 56 57  1  0
 57 58  1  0
 58 59  1  0
 60 68  1  0
 61 66  1  0
 62 63  1  0
 62 61  1  0
 64 63  1  0
 64 73  1  0
 64 65  1  0
 66 60  1  0
 66 65  1  0
 67 60  2  0
 68 59  1  0
 68 69  1  0
 70 71  2  0
 71 90  1  0
 72 71  1  0
 72 75  1  0
 73 70  1  0
 73 74  1  0
 74 72  2  0
 75 76  1  0
 76 77  2  0
 78 81  1  0
 78 77  1  0
 79 78  2  0
 80 79  1  0
 80 75  2  0
 81 82  1  0
 82 83  1  0
 83 84  2  0
 85 84  1  0
 85 89  1  0
 86 85  2  0
 87 82  2  0
 87 86  1  0
 88 87  1  0
 90 91  1  0
 91 94  1  0
 91 93  1  0
 92 90  2  0
 95 96  1  0
 95 70  1  0
 97 95  1  0
M  ISO  4   9 101  10 101  60 100  68 100
M  END
>  <TORSDO>  (75) 
F 25

>  <SCORE>  (75) 
-12.221

>  <name>  (75) 
75

>  <ligand_id>  (75) 
75

>  <original_smiles>  (75) 
[H]c1c([H])c([H])c2c(c1[H])C([H])([H])C([H])([H])C([H])([H])C2([H])N([H])C(=O)C1([H])N(C(=O)C([H])(N([H])C(=O)C([H])(N([H])C([H])([H])[H])C([H])([H])[H])C(C([H])([H])[H])(C([H])([H])[H])C([H])([H])[H])C([H])([H])c2c([H])c(OC([H])([H])C3([H])C([H])([H])C3([H])C3([H])C([H])([H])C([H])([H])C([H])(C([H])([H])C([H])([H])[N+]([H])([H])C([H])([H])C([H])([H])C([H])([H])C([H])([H])N([H])C(=O)N4C([H])([H])C([H])([H])C([H])([H])C([H])(n5nc(-c6c([H])c([H])c(Oc7c([H])c([H])c(F)c([H])c7F)c([H])c6[H])c(C(=O)N([H])[H])c5N([H])[H])C4([H])[H])C3([H])[H])c([H])c([H])c2C1([H])[H]

>  <smiles>  (75) 
[H]c1c([H])c([H])c2c(c1[H])C([H])([H])C([H])([H])C([H])([H])C2([H])N([H])C(=O)C1([H])N(C(=O)C([H])(N([H])C(=O)C([H])(N([H])C([H])([H])[H])C([H])([H])[H])C(C([H])([H])[H])(C([H])([H])[H])C([H])([H])[H])C([H])([H])c2c([H])c(OC([H])([H])C3([H])C([H])([H])C3([H])C3([H])C([H])([H])C([H])([H])C([H])(C([H])([H])C([H])([H])[N+]([H])([H])C([H])([H])C([H])([H])C([H])([H])C([H])([H])N([H])C(=O)N4C([H])([H])C([H])([H])C([H])([H])C([H])(n5nc(-c6c([H])c([H])c(Oc7c([H])c([H])c(F)c([H])c7F)c([H])c6[H])c(C(=O)N([H])[H])c5N([H])[H])C4([H])[H])C3([H])[H])c([H])c([H])c2C1([H])[H]

$$$$
76:0:0
     RDKit          3D

 95104  0  0  1  0  0  0  0  0999 V2000
  -26.1410  -21.2060   19.2020 C   0  0  0  0  0  3  0  0  0  0  0  0
  -27.1820  -20.3550   19.0990 C   0  0  0  0  0  3  0  0  0  0  0  0
  -26.3790  -22.5500   19.7570 C   0  0  0  0  0  0  0  0  0  0  0  0
  -28.1290  -22.1270   21.5320 C   0  0  0  0  0  2  0  0  0  0  0  0
  -28.6140  -20.7280   21.1050 C   0  0  0  0  0  2  0  0  0  0  0  0
  -27.8380  -22.8520   20.2090 C   0  0  0  0  0  3  0  0  0  0  0  0
  -28.5980  -20.7290   19.5560 C   0  0  2  0  0  0  0  0  0  0  0  0
  -28.7870  -22.2050   19.2600 N   0  0  1  0  0  4  0  0  0  0  0  0
  -25.4770  -23.3840   19.8550 O   0  0  0  0  0  0  0  0  0  0  0  0
  -29.6970  -22.4420   19.6250 H   0  0  0  0  0  0  0  0  0  0  0  0
  -29.6670  -19.7090   19.0010 C   0  0  0  0  0  2  0  0  0  0  0  0
  -29.5270  -18.2370   19.5580 C   0  0  0  0  0  2  0  0  0  0  0  0
  -30.6970  -17.2340   19.2960 C   0  0  0  0  0  2  0  0  0  0  0  0
  -31.1640  -14.7540   19.5840 C   0  0  0  0  0  0  0  0  0  0  0  0
  -30.9140  -12.3600   19.0340 C   0  0  0  0  0  2  0  0  0  0  0  0
  -29.9260  -12.2330   17.8550 C   0  0  0  0  0  2  0  0  0  0  0  0
  -28.4740  -12.1670   18.3680 C   0  0  0  0  0  2  0  0  0  0  0  0
  -28.1500  -13.2840   19.3960 C   0  0  0  0  0  3  0  0  0  0  0  0
  -29.2480  -13.3800   20.4800 C   0  0  0  0  0  2  0  0  0  0  0  0
  -30.5390  -13.5620   19.7980 N   0  0  0  0  0  0  0  0  0  0  0  0
  -32.2860  -14.8360   19.0790 O   0  0  0  0  0  0  0  0  0  0  0  0
  -30.3990  -15.8570   19.7660 N   0  0  0  0  0  0  0  0  0  0  0  0
  -29.4890  -15.6970   20.1720 H   0  0  0  0  0  0  0  0  0  0  0  0
  -25.9090  -14.0690   20.3830 C   0  0  0  0  0  0  0  0  0  0  0  0
  -24.7970  -13.3820   20.7900 C   0  0  0  0  0  0  0  0  0  0  0  0
  -25.0980  -11.9970   20.6060 C   0  0  0  0  0  0  0  0  0  0  0  0
  -26.8230  -13.1080   19.9810 N   0  0  0  0  0  0  0  0  0  0  0  0
  -26.3450  -11.8520   20.1720 N   0  0  0  0  0  0  0  0  0  0  0  0
  -24.2550  -10.8060   20.7620 C   0  0  0  0  0  0  0  0  0  0  0  0
  -24.6250   -9.7470   21.6200 C   0  0  0  0  0  3  0  0  0  0  0  0
  -23.7880   -8.6200   21.7670 C   0  0  0  0  0  3  0  0  0  0  0  0
  -22.5670   -8.5450   21.0560 C   0  0  0  0  0  0  0  0  0  0  0  0
  -22.2150   -9.5910   20.1850 C   0  0  0  0  0  3  0  0  0  0  0  0
  -23.0500  -10.7100   20.0370 C   0  0  0  0  0  3  0  0  0  0  0  0
  -21.7040   -7.4780   21.1170 O   0  0  0  0  0  0  0  0  0  0  0  0
  -21.5660   -6.7270   22.2570 C   0  0  0  0  0  0  0  0  0  0  0  0
  -21.1690   -7.3020   23.4840 C   0  0  0  0  0  3  0  0  0  0  0  0
  -20.9730   -6.4830   24.6150 C   0  0  0  0  0  3  0  0  0  0  0  0
  -21.1630   -5.0920   24.5190 C   0  0  0  0  0  0  0  0  0  0  0  0
  -21.5530   -4.5180   23.2960 C   0  0  0  0  0  3  0  0  0  0  0  0
  -21.7510   -5.3330   22.1680 C   0  0  0  0  0  0  0  0  0  0  0  0
  -22.1060   -4.7720   20.9870 F   0  0  0  0  0  0  0  0  0  0  0  0
  -20.9680   -4.3040   25.6010 F   0  0  0  0  0  0  0  0  0  0  0  0
  -23.4910  -13.9750   21.2340 C   0  0  0  0  0  0  0  0  0  0  0  0
  -22.7800  -13.2930   22.1240 N   0  0  0  0  0  0  0  0  0  0  0  0
  -23.1180  -15.0760   20.8280 O   0  0  0  0  0  0  0  0  0  0  0  0
  -23.0950  -12.3990   22.4700 H   0  0  0  0  0  0  0  0  0  0  0  0
  -21.9060  -13.6680   22.4650 H   0  0  0  0  0  0  0  0  0  0  0  0
  -26.2130  -15.4250   20.3010 N   0  0  0  0  0  0  0  0  0  0  0  0
  -25.5340  -16.1450   20.5200 H   0  0  0  0  0  0  0  0  0  0  0  0
  -27.0650  -15.7940   19.8980 H   0  0  0  0  0  0  0  0  0  0  0  0
  -28.8120  -22.7030   17.8330 C   0  0  0  0  0  2  0  0  0  0  0  0
  -28.2150  -24.1290   17.4820 C   0  0  0  0  0  3  0  0  0  0  0  0
  -28.5960  -25.3830   18.3320 C   0  0  0  0  0  3  0  0  0  0  0  0
  -28.2510  -26.6720   17.7540 O   0  0  0  0  0  0  0  0  0  0  0  0
  -24.6160  -30.6090   22.4990 C   0  0  0  0  0  0  0  0  0  0  0  0
  -27.0510  -27.2660   18.1090 C   0  0  0  0  0  0  0  0  0  0  0  0
  -23.2710  -29.5290   20.7260 C   0  0  0  0  0  3  0  0  0  0  0  0
  -24.5940  -28.5150   18.7930 C   0  0  0  0  0  0  0  0  0  0  0  0
  -25.7150  -30.1610   20.3030 C   0  0  0  0  0  2  0  0  0  0  0  0
  -25.7930  -28.9920   19.3380 C   0  0  0  0  0  0  0  0  0  0  0  0
  -27.0230  -28.3810   18.9860 C   0  0  0  0  0  3  0  0  0  0  0  0
  -25.8300  -26.8120   17.5650 C   0  0  0  0  0  3  0  0  0  0  0  0
  -24.6090  -27.4280   17.9030 C   0  0  0  0  0  3  0  0  0  0  0  0
  -23.3190  -29.2170   19.2080 C   0  0  0  0  0  2  0  0  0  0  0  0
  -24.5610  -30.1020   21.2340 N   0  0  0  0  0  0  0  0  0  0  0  0
  -23.6120  -30.6390   23.2240 O   0  0  0  0  0  0  0  0  0  0  0  0
  -22.8320  -28.2520   21.4800 C   0  0  0  0  0  0  0  0  0  0  0  0
  -21.5270  -27.9360   21.4160 N   0  0  0  0  0  0  0  0  0  0  0  0
  -23.6570  -27.5580   22.0790 O   0  0  0  0  0  0  0  0  0  0  0  0
  -20.9130  -28.5600   20.9110 H   0  0  0  0  0  0  0  0  0  0  0  0
  -18.4000  -26.1590   21.7460 C   0  0  0  0  0  0  0  0  0  0  0  0
  -20.9000  -26.7580   22.0110 C   0  0  0  0  0  3  0  0  0  0  0  0
  -21.1860  -25.4880   21.1770 C   0  0  0  0  0  2  0  0  0  0  0  0
  -20.1000  -25.1890   20.1400 C   0  0  0  0  0  2  0  0  0  0  0  0
  -18.7430  -25.0010   20.8240 C   0  0  0  0  0  2  0  0  0  0  0  0
  -19.4120  -26.9930   22.2900 C   0  0  0  0  0  0  0  0  0  0  0  0
  -19.0360  -28.0780   23.1120 C   0  0  0  0  0  3  0  0  0  0  0  0
  -17.6800  -28.3320   23.3930 C   0  0  0  0  0  3  0  0  0  0  0  0
  -16.6840  -27.4940   22.8650 C   0  0  0  0  0  3  0  0  0  0  0  0
  -17.0440  -26.4080   22.0470 C   0  0  0  0  0  3  0  0  0  0  0  0
  -25.9370  -31.1950   23.0870 C   0  0  0  0  0  3  0  0  0  0  0  0
  -25.5940  -32.4360   23.7940 N   0  0  0  0  0  0  0  0  0  0  0  0
  -25.8450  -33.6680   23.3340 C   0  0  0  0  0  0  0  0  0  0  0  0
  -26.4630  -33.8790   22.2850 O   0  0  0  0  0  0  0  0  0  0  0  0
  -25.0360  -32.3400   24.6310 H   0  0  0  0  0  0  0  0  0  0  0  0
  -24.0760  -35.4490   23.5030 C   0  0  0  0  0  1  0  0  0  0  0  0
  -25.3300  -34.8580   24.1670 C   0  0  0  0  0  3  0  0  0  0  0  0
  -27.4470  -35.5170   25.2210 C   0  0  0  0  0  1  0  0  0  0  0  0
  -26.3390  -35.9220   24.3600 N   0  0  0  0  0  0  0  0  0  0  0  0
  -25.9140  -36.7530   24.7610 H   0  0  0  0  0  0  0  0  0  0  0  0
  -26.6890  -30.1940   24.0490 C   0  0  1  0  0  0  0  0  0  0  0  0
  -25.7880  -29.6050   25.1590 C   0  0  0  0  0  1  0  0  0  0  0  0
  -27.2850  -29.0120   23.2480 C   0  0  0  0  0  1  0  0  0  0  0  0
  -27.8770  -30.9120   24.7300 C   0  0  0  0  0  1  0  0  0  0  0  0
  1  3  1  0
  2  1  2  0
  2  7  1  0
  3  9  2  0
  3  6  1  0
  5  4  1  0
  6  4  1  0
  7 11  1  6
  7  5  1  0
  8  7  1  0
  8 10  1  1
  8  6  1  0
 11 12  1  0
 13 12  1  0
 13 22  1  0
 14 22  1  0
 14 20  1  0
 15 20  1  0
 16 17  1  0
 16 15  1  0
 18 17  1  0
 18 27  1  0
 18 19  1  0
 20 19  1  0
 21 14  2  0
 22 23  1  0
 24 25  2  0
 25 44  1  0
 26 29  1  0
 26 25  1  0
 27 28  1  0
 27 24  1  0
 28 26  2  0
 29 30  1  0
 30 31  2  0
 32 35  1  0
 32 31  1  0
 33 32  2  0
 34 33  1  0
 34 29  2  0
 35 36  1  0
 36 37  1  0
 37 38  2  0
 39 38  1  0
 39 43  1  0
 40 39  2  0
 41 36  2  0
 41 40  1  0
 42 41  1  0
 44 45  1  0
 45 48  1  0
 45 47  1  0
 46 44  2  0
 49 24  1  0
 49 50  1  0
 51 49  1  0
 52  8  1  0
 53 52  1  0
 53 54  2  0
 55 57  1  0
 55 54  1  0
 56 67  2  0
 57 62  1  0
 58 66  1  0
 58 68  1  0
 59 65  1  0
 59 61  1  0
 60 66  1  0
 61 60  1  0
 62 61  2  0
 63 64  1  0
 63 57  2  0
 64 59  2  0
 65 58  1  0
 66 56  1  0
 68 70  2  0
 69 68  1  0
 71 69  1  0
 72 81  2  0
 72 77  1  0
 73 69  1  0
 73 77  1  0
 74 73  1  0
 75 76  1  0
 75 74  1  0
 76 72  1  0
 77 78  2  0
 78 79  1  0
 80 79  2  0
 81 80  1  0
 82 56  1  0
 82 83  1  0
 82 92  1  0
 83 86  1  0
 84 83  1  0
 84 88  1  0
 85 84  2  0
 88 87  1  0
 88 90  1  0
 90 91  1  0
 90 89  1  0
 92 95  1  1
 92 93  1  0
 94 92  1  0
M  ISO  4  14 100  22 100  54 101  55 101
M  END
>  <TORSDO>  (76) 
F 22

>  <SCORE>  (76) 
-9.294

>  <name>  (76) 
76

>  <ligand_id>  (76) 
76

>  <original_smiles>  (76) 
[H]C1=C([H])C2(C([H])([H])C([H])([H])C([H])([H])N([H])C(=O)N3C([H])([H])C([H])([H])C([H])([H])C([H])(n4nc(-c5c([H])c([H])c(Oc6c([H])c([H])c(F)c([H])c6F)c([H])c5[H])c(C(=O)N([H])[H])c4N([H])[H])C3([H])[H])C([H])([H])C([H])([H])C([H])(C1=O)[N+]2([H])C([H])([H])C([H])([H])C([H])([H])Oc1c([H])c([H])c2c(c1[H])C([H])([H])N(C(=O)C([H])(N([H])C(=O)C([H])(N([H])C([H])([H])[H])C([H])([H])[H])C(C([H])([H])[H])(C([H])([H])[H])C([H])([H])[H])C([H])(C(=O)N([H])C1([H])c3c([H])c([H])c([H])c([H])c3C([H])([H])C([H])([H])C1([H])[H])C2([H])[H]

>  <smiles>  (76) 
[H]C1=C([H])C2(C([H])([H])C([H])([H])C([H])([H])N([H])C(=O)N3C([H])([H])C([H])([H])C([H])([H])C([H])(n4nc(-c5c([H])c([H])c(Oc6c([H])c([H])c(F)c([H])c6F)c([H])c5[H])c(C(=O)N([H])[H])c4N([H])[H])C3([H])[H])C([H])([H])C([H])([H])C([H])(C1=O)[N+]2([H])C([H])([H])C([H])([H])C([H])([H])Oc1c([H])c([H])c2c(c1[H])C([H])([H])N(C(=O)C([H])(N([H])C(=O)C([H])(N([H])C([H])([H])[H])C([H])([H])[H])C(C([H])([H])[H])(C([H])([H])[H])C([H])([H])[H])C([H])(C(=O)N([H])C1([H])c3c([H])c([H])c([H])c([H])c3C([H])([H])C([H])([H])C1([H])[H])C2([H])[H]

$$$$
77:0:0
     RDKit          3D

 92101  0  0  1  0  0  0  0  0999 V2000
  -29.0850  -21.5170   20.3550 N   0  0  0  0  0  4  0  0  0  0  0  0
  -29.8970  -21.6580   20.9320 H   0  0  0  0  0  0  0  0  0  0  0  0
  -28.3030  -21.3550   20.9680 H   0  0  0  0  0  0  0  0  0  0  0  0
  -29.3000  -20.2840   19.5240 C   0  0  0  0  0  2  0  0  0  0  0  0
  -30.7520  -14.5820   19.9260 C   0  0  0  0  0  0  0  0  0  0  0  0
  -30.4000  -12.4180   18.7780 C   0  0  0  0  0  2  0  0  0  0  0  0
  -29.3700  -12.6250   17.6480 C   0  0  0  0  0  2  0  0  0  0  0  0
  -27.9300  -12.4730   18.1820 C   0  0  0  0  0  2  0  0  0  0  0  0
  -27.6830  -13.2810   19.4870 C   0  0  0  0  0  3  0  0  0  0  0  0
  -28.8210  -13.0590   20.5060 C   0  0  0  0  0  2  0  0  0  0  0  0
  -30.0880  -13.3900   19.8400 N   0  0  0  0  0  0  0  0  0  0  0  0
  -31.8800  -14.7360   19.4450 O   0  0  0  0  0  0  0  0  0  0  0  0
  -30.7400  -18.7740   21.0350 C   0  0  0  0  0  3  0  0  0  0  0  0
  -29.6320  -18.9740   20.2890 C   0  0  0  0  0  0  0  0  0  0  0  0
  -31.0430  -17.4300   21.7280 C   0  0  0  0  0  2  0  0  0  0  0  0
  -28.5710  -17.0570   21.4640 C   0  0  0  0  0  2  0  0  0  0  0  0
  -29.4430  -16.6390   19.2740 C   0  0  0  0  0  2  0  0  0  0  0  0
  -28.7250  -17.7510   20.1030 C   0  0  0  0  0  3  0  0  0  0  0  0
  -29.9210  -16.3460   21.5510 C   0  0  0  0  0  3  0  0  0  0  0  0
  -29.9850  -15.6670   20.2470 N   0  0  0  0  0  0  0  0  0  0  0  0
  -25.3510  -13.8820   20.3810 C   0  0  0  0  0  0  0  0  0  0  0  0
  -24.3070  -13.1040   20.8060 C   0  0  0  0  0  0  0  0  0  0  0  0
  -24.7570  -11.7540   20.7100 C   0  0  0  0  0  0  0  0  0  0  0  0
  -26.3710  -12.9990   20.0590 N   0  0  0  0  0  0  0  0  0  0  0  0
  -26.0210  -11.7140   20.3110 N   0  0  0  0  0  0  0  0  0  0  0  0
  -24.0380  -10.4910   20.9180 C   0  0  0  0  0  0  0  0  0  0  0  0
  -24.5010   -9.5200   21.8330 C   0  0  0  0  0  3  0  0  0  0  0  0
  -23.7810   -8.3210   22.0300 C   0  0  0  0  0  3  0  0  0  0  0  0
  -22.5850   -8.0860   21.3100 C   0  0  0  0  0  0  0  0  0  0  0  0
  -22.1430   -9.0440   20.3820 C   0  0  0  0  0  3  0  0  0  0  0  0
  -22.8630  -10.2340   20.1840 C   0  0  0  0  0  3  0  0  0  0  0  0
  -21.8330   -6.9410   21.4180 O   0  0  0  0  0  0  0  0  0  0  0  0
  -21.7760   -6.2250   22.5870 C   0  0  0  0  0  0  0  0  0  0  0  0
  -21.3440   -6.8080   23.7980 C   0  0  0  0  0  3  0  0  0  0  0  0
  -21.2330   -6.0180   24.9600 C   0  0  0  0  0  3  0  0  0  0  0  0
  -21.5460   -4.6470   24.9120 C   0  0  0  0  0  0  0  0  0  0  0  0
  -21.9720   -4.0640   23.7050 C   0  0  0  0  0  3  0  0  0  0  0  0
  -22.0850   -4.8500   22.5470 C   0  0  0  0  0  0  0  0  0  0  0  0
  -22.4780   -4.2780   21.3820 F   0  0  0  0  0  0  0  0  0  0  0  0
  -21.4320   -3.8870   26.0260 F   0  0  0  0  0  0  0  0  0  0  0  0
  -22.9350  -13.5840   21.1840 C   0  0  0  0  0  0  0  0  0  0  0  0
  -22.2670  -12.8770   22.0880 N   0  0  0  0  0  0  0  0  0  0  0  0
  -22.4650  -14.6170   20.7090 O   0  0  0  0  0  0  0  0  0  0  0  0
  -22.6630  -12.0410   22.4930 H   0  0  0  0  0  0  0  0  0  0  0  0
  -21.3480  -13.1760   22.3850 H   0  0  0  0  0  0  0  0  0  0  0  0
  -25.5040  -15.2550   20.2200 N   0  0  0  0  0  0  0  0  0  0  0  0
  -24.7450  -15.9040   20.3980 H   0  0  0  0  0  0  0  0  0  0  0  0
  -26.3350  -15.7040   19.8560 H   0  0  0  0  0  0  0  0  0  0  0  0
  -28.8400  -22.7740   19.5640 C   0  0  0  0  0  2  0  0  0  0  0  0
  -28.5750  -24.0890   20.3870 C   0  0  0  0  0  2  0  0  0  0  0  0
  -28.6440  -25.4100   19.5440 C   0  0  0  0  0  2  0  0  0  0  0  0
  -28.4620  -26.6610   20.2680 O   0  0  0  0  0  0  0  0  0  0  0  0
  -24.6130  -31.8990   23.2510 C   0  0  0  0  0  0  0  0  0  0  0  0
  -27.2730  -27.3820   20.2280 C   0  0  0  0  0  0  0  0  0  0  0  0
  -23.4160  -30.4750   21.6210 C   0  0  0  0  0  3  0  0  0  0  0  0
  -24.8760  -28.9210   20.2190 C   0  0  0  0  0  0  0  0  0  0  0  0
  -25.9470  -30.8260   21.4290 C   0  0  0  0  0  2  0  0  0  0  0  0
  -26.0350  -29.4420   20.8040 C   0  0  0  0  0  0  0  0  0  0  0  0
  -27.2320  -28.6810   20.8050 C   0  0  0  0  0  3  0  0  0  0  0  0
  -26.0840  -26.8810   19.6500 C   0  0  0  0  0  3  0  0  0  0  0  0
  -24.8980  -27.6390   19.6430 C   0  0  0  0  0  3  0  0  0  0  0  0
  -23.6340  -29.7830   20.2500 C   0  0  0  0  0  2  0  0  0  0  0  0
  -24.6770  -31.0840   22.1580 N   0  0  0  0  0  0  0  0  0  0  0  0
  -23.5290  -32.1740   23.7830 O   0  0  0  0  0  0  0  0  0  0  0  0
  -22.7620  -29.4660   22.5920 C   0  0  0  0  0  0  0  0  0  0  0  0
  -21.4370  -29.2790   22.4620 N   0  0  0  0  0  0  0  0  0  0  0  0
  -23.4440  -28.8540   23.4190 O   0  0  0  0  0  0  0  0  0  0  0  0
  -20.9500  -29.8180   21.7590 H   0  0  0  0  0  0  0  0  0  0  0  0
  -18.0650  -28.0720   22.9570 C   0  0  0  0  0  0  0  0  0  0  0  0
  -20.6210  -28.3460   23.2390 C   0  0  0  0  0  3  0  0  0  0  0  0
  -20.7340  -26.9070   22.6870 C   0  0  0  0  0  2  0  0  0  0  0  0
  -19.6390  -26.5580   21.6750 C   0  0  0  0  0  2  0  0  0  0  0  0
  -18.2510  -26.7090   22.3080 C   0  0  0  0  0  2  0  0  0  0  0  0
  -19.1790  -28.8450   23.3840 C   0  0  0  0  0  0  0  0  0  0  0  0
  -18.9490  -30.1150   23.9570 C   0  0  0  0  0  3  0  0  0  0  0  0
  -17.6430  -30.6130   24.1070 C   0  0  0  0  0  3  0  0  0  0  0  0
  -16.5450  -29.8370   23.6980 C   0  0  0  0  0  3  0  0  0  0  0  0
  -16.7570  -28.5680   23.1300 C   0  0  0  0  0  3  0  0  0  0  0  0
  -25.8960  -32.5420   23.8670 C   0  0  0  0  0  3  0  0  0  0  0  0
  -26.4200  -31.7770   25.1430 C   0  0  1  0  0  0  0  0  0  0  0  0
  -25.3300  -31.5290   26.2110 C   0  0  0  0  0  1  0  0  0  0  0  0
  -27.0170  -30.4060   24.7500 C   0  0  0  0  0  1  0  0  0  0  0  0
  -27.5620  -32.5840   25.8050 C   0  0  0  0  0  1  0  0  0  0  0  0
  -25.5760  -33.9380   24.1960 N   0  0  0  0  0  0  0  0  0  0  0  0
  -25.8980  -34.9920   23.4330 C   0  0  0  0  0  0  0  0  0  0  0  0
  -26.5650  -34.8910   22.3990 O   0  0  0  0  0  0  0  0  0  0  0  0
  -24.9850  -34.0900   25.0000 H   0  0  0  0  0  0  0  0  0  0  0  0
  -24.1560  -36.7710   23.0750 C   0  0  0  0  0  1  0  0  0  0  0  0
  -25.4000  -36.3790   23.8880 C   0  0  0  0  0  3  0  0  0  0  0  0
  -27.5290  -37.2800   24.7160 C   0  0  0  0  0  1  0  0  0  0  0  0
  -26.4260  -37.4390   23.7710 N   0  0  0  0  0  0  0  0  0  0  0  0
  -26.0130  -38.3570   23.9150 H   0  0  0  0  0  0  0  0  0  0  0  0
  1  2  1  0
  1  3  1  0
  4 14  1  0
  4  1  1  0
  5 20  1  0
  6 11  1  0
  7  8  1  0
  7  6  1  0
  9  8  1  0
  9 24  1  0
  9 10  1  0
 11  5  1  0
 11 10  1  0
 12  5  2  0
 13 15  1  0
 14 13  2  0
 17 20  1  0
 18 17  1  0
 18 14  1  0
 18 16  1  0
 19 16  1  0
 19 15  1  0
 20 19  1  0
 21 22  2  0
 22 41  1  0
 23 22  1  0
 23 26  1  0
 24 25  1  0
 24 21  1  0
 25 23  2  0
 26 27  1  0
 27 28  2  0
 29 32  1  0
 29 28  1  0
 30 29  2  0
 31 30  1  0
 31 26  2  0
 32 33  1  0
 33 34  1  0
 34 35  2  0
 36 35  1  0
 36 40  1  0
 37 36  2  0
 38 33  2  0
 38 37  1  0
 39 38  1  0
 41 42  1  0
 42 45  1  0
 42 44  1  0
 43 41  2  0
 46 21  1  0
 46 47  1  0
 48 46  1  0
 49  1  1  0
 49 50  1  0
 51 52  1  0
 51 50  1  0
 53 64  2  0
 54 52  1  0
 54 59  1  0
 55 63  1  0
 55 65  1  0
 56 62  1  0
 56 58  1  0
 57 63  1  0
 58 59  2  0
 58 57  1  0
 60 54  2  0
 61 60  1  0
 61 56  2  0
 62 55  1  0
 63 53  1  0
 65 67  2  0
 66 65  1  0
 68 66  1  0
 69 78  2  0
 69 74  1  0
 70 66  1  0
 70 74  1  0
 71 70  1  0
 72 73  1  0
 72 71  1  0
 73 69  1  0
 74 75  2  0
 75 76  1  0
 77 76  2  0
 78 77  1  0
 79 53  1  0
 79 84  1  0
 79 80  1  0
 80 83  1  1
 80 81  1  0
 82 80  1  0
 84 87  1  0
 85 89  1  0
 85 84  1  0
 86 85  2  0
 89 88  1  0
 91 89  1  0
 91 92  1  0
 91 90  1  0
M  ISO  4   5 100  20 100  51 101  52 101
M  END
>  <TORSDO>  (77) 
F 20

>  <SCORE>  (77) 
-12.992

>  <name>  (77) 
77

>  <ligand_id>  (77) 
77

>  <original_smiles>  (77) 
[H]C1=C(C([H])([H])[N+]([H])([H])C([H])([H])C([H])([H])C([H])([H])Oc2c([H])c([H])c3c(c2[H])C([H])([H])N(C(=O)C([H])(N([H])C(=O)C([H])(N([H])C([H])([H])[H])C([H])([H])[H])C(C([H])([H])[H])(C([H])([H])[H])C([H])([H])[H])C([H])(C(=O)N([H])C2([H])c4c([H])c([H])c([H])c([H])c4C([H])([H])C([H])([H])C2([H])[H])C3([H])[H])C2([H])C([H])([H])N(C(=O)N3C([H])([H])C([H])([H])C([H])([H])C([H])(n4nc(-c5c([H])c([H])c(Oc6c([H])c([H])c(F)c([H])c6F)c([H])c5[H])c(C(=O)N([H])[H])c4N([H])[H])C3([H])[H])C([H])(C1([H])[H])C2([H])[H]

>  <smiles>  (77) 
[H]C1=C(C([H])([H])[N+]([H])([H])C([H])([H])C([H])([H])C([H])([H])Oc2c([H])c([H])c3c(c2[H])C([H])([H])N(C(=O)C([H])(N([H])C(=O)C([H])(N([H])C([H])([H])[H])C([H])([H])[H])C(C([H])([H])[H])(C([H])([H])[H])C([H])([H])[H])C([H])(C(=O)N([H])C2([H])c4c([H])c([H])c([H])c([H])c4C([H])([H])C([H])([H])C2([H])[H])C3([H])[H])C2([H])C([H])([H])N(C(=O)N3C([H])([H])C([H])([H])C([H])([H])C([H])(n4nc(-c5c([H])c([H])c(Oc6c([H])c([H])c(F)c([H])c6F)c([H])c5[H])c(C(=O)N([H])[H])c4N([H])[H])C3([H])[H])C([H])(C1([H])[H])C2([H])[H]

$$$$
78:0:0
     RDKit          3D

 96105  0  0  1  0  0  0  0  0999 V2000
  -31.5620  -24.5290   22.1130 C   0  0  0  0  0  3  0  0  0  0  0  0
  -31.2040  -23.2510   21.6630 C   0  0  0  0  0  3  0  0  0  0  0  0
  -30.7200  -25.6190   21.8460 C   0  0  0  0  0  3  0  0  0  0  0  0
  -30.0050  -23.0470   20.9490 C   0  0  0  0  0  0  0  0  0  0  0  0
  -29.0950  -24.1350   20.7500 C   0  0  0  0  0  0  0  0  0  0  0  0
  -29.4940  -25.4460   21.1620 C   0  0  0  0  0  0  0  0  0  0  0  0
  -25.9140  -22.4850   19.3400 C   0  0  0  0  0  2  0  0  0  0  0  0
  -26.8450  -22.6620   18.1390 C   0  0  0  0  0  2  0  0  0  0  0  0
  -26.7730  -22.8230   20.5640 C   0  0  0  0  0  2  0  0  0  0  0  0
  -27.8190  -23.7800   18.5290 C   0  0  0  0  0  2  0  0  0  0  0  0
  -27.7250  -23.9300   20.0590 C   0  0  0  0  0  3  0  0  0  0  0  0
  -29.7330  -21.7000   20.4200 C   0  0  0  0  0  3  0  0  0  0  0  0
  -30.0920  -20.5090   20.9340 C   0  0  0  0  0  3  0  0  0  0  0  0
  -29.7260  -19.2940   20.2380 C   0  0  0  0  0  3  0  0  0  0  0  0
  -30.0180  -18.0360   20.6120 C   0  0  0  0  0  3  0  0  0  0  0  0
  -29.6050  -16.8670   19.7390 C   0  0  0  0  0  2  0  0  0  0  0  0
  -30.3060  -14.5310   19.9390 C   0  0  0  0  0  0  0  0  0  0  0  0
  -29.9440  -12.3910   18.8040 C   0  0  0  0  0  2  0  0  0  0  0  0
  -28.8820  -12.6080   17.7070 C   0  0  0  0  0  2  0  0  0  0  0  0
  -27.4610  -12.4210   18.2780 C   0  0  0  0  0  2  0  0  0  0  0  0
  -27.2320  -13.2140   19.5920 C   0  0  0  0  0  3  0  0  0  0  0  0
  -28.4050  -13.0060   20.5830 C   0  0  0  0  0  2  0  0  0  0  0  0
  -29.6590  -13.3400   19.8880 N   0  0  0  0  0  0  0  0  0  0  0  0
  -31.3850  -14.7370   19.3760 O   0  0  0  0  0  0  0  0  0  0  0  0
  -29.5720  -15.5570   20.3960 N   0  0  0  0  0  0  0  0  0  0  0  0
  -28.7180  -15.3130   20.8770 H   0  0  0  0  0  0  0  0  0  0  0  0
  -24.9010  -13.7230   20.5590 C   0  0  0  0  0  0  0  0  0  0  0  0
  -23.9000  -12.9070   21.0140 C   0  0  0  0  0  0  0  0  0  0  0  0
  -24.3980  -11.5730   20.8960 C   0  0  0  0  0  0  0  0  0  0  0  0
  -25.9440  -12.8840   20.1980 N   0  0  0  0  0  0  0  0  0  0  0  0
  -25.6500  -11.5850   20.4580 N   0  0  0  0  0  0  0  0  0  0  0  0
  -23.7330  -10.2820   21.1270 C   0  0  0  0  0  0  0  0  0  0  0  0
  -24.2420   -9.3450   22.0520 C   0  0  0  0  0  3  0  0  0  0  0  0
  -23.5790   -8.1190   22.2680 C   0  0  0  0  0  3  0  0  0  0  0  0
  -22.3890   -7.8210   21.5620 C   0  0  0  0  0  0  0  0  0  0  0  0
  -21.8990   -8.7480   20.6250 C   0  0  0  0  0  3  0  0  0  0  0  0
  -22.5650   -9.9660   20.4060 C   0  0  0  0  0  3  0  0  0  0  0  0
  -21.6900   -6.6460   21.6910 O   0  0  0  0  0  0  0  0  0  0  0  0
  -21.6710   -5.9440   22.8700 C   0  0  0  0  0  0  0  0  0  0  0  0
  -21.1690   -6.5050   24.0640 C   0  0  0  0  0  3  0  0  0  0  0  0
  -21.1050   -5.7240   25.2350 C   0  0  0  0  0  3  0  0  0  0  0  0
  -21.5310   -4.3820   25.2130 C   0  0  0  0  0  0  0  0  0  0  0  0
  -22.0260   -3.8220   24.0230 C   0  0  0  0  0  3  0  0  0  0  0  0
  -22.0940   -4.6000   22.8530 C   0  0  0  0  0  0  0  0  0  0  0  0
  -22.5520   -4.0490   21.7040 F   0  0  0  0  0  0  0  0  0  0  0  0
  -21.4620   -3.6300   26.3340 F   0  0  0  0  0  0  0  0  0  0  0  0
  -22.5260  -13.3300   21.4440 C   0  0  0  0  0  0  0  0  0  0  0  0
  -21.9160  -12.5870   22.3610 N   0  0  0  0  0  0  0  0  0  0  0  0
  -22.0040  -14.3540   21.0040 O   0  0  0  0  0  0  0  0  0  0  0  0
  -22.3540  -11.7570   22.7350 H   0  0  0  0  0  0  0  0  0  0  0  0
  -21.0010  -12.8510   22.6970 H   0  0  0  0  0  0  0  0  0  0  0  0
  -25.0050  -15.1020   20.4040 N   0  0  0  0  0  0  0  0  0  0  0  0
  -24.2290  -15.7270   20.5940 H   0  0  0  0  0  0  0  0  0  0  0  0
  -25.8040  -15.5760   20.0040 H   0  0  0  0  0  0  0  0  0  0  0  0
  -28.6370  -26.7070   20.9840 C   0  0  0  0  0  2  0  0  0  0  0  0
  -27.9560  -26.8180   19.7290 O   0  0  0  0  0  0  0  0  0  0  0  0
  -24.1920  -31.8700   23.0350 C   0  0  0  0  0  0  0  0  0  0  0  0
  -26.8010  -27.5680   19.7760 C   0  0  0  0  0  0  0  0  0  0  0  0
  -22.9490  -30.5120   21.3770 C   0  0  0  0  0  3  0  0  0  0  0  0
  -24.3820  -29.0250   19.8750 C   0  0  0  0  0  0  0  0  0  0  0  0
  -25.4630  -30.9000   21.1310 C   0  0  0  0  0  2  0  0  0  0  0  0
  -25.5420  -29.5490   20.4570 C   0  0  0  0  0  0  0  0  0  0  0  0
  -26.7520  -28.8280   20.4120 C   0  0  0  0  0  3  0  0  0  0  0  0
  -25.6300  -27.0540   19.1800 C   0  0  0  0  0  3  0  0  0  0  0  0
  -24.4190  -27.7730   19.2350 C   0  0  0  0  0  3  0  0  0  0  0  0
  -23.1290  -29.8680   19.9740 C   0  0  0  0  0  2  0  0  0  0  0  0
  -24.2200  -31.1060   21.9070 N   0  0  0  0  0  0  0  0  0  0  0  0
  -23.1230  -32.1220   23.6100 O   0  0  0  0  0  0  0  0  0  0  0  0
  -22.3220  -29.4630   22.3220 C   0  0  0  0  0  0  0  0  0  0  0  0
  -20.9950  -29.2830   22.2160 N   0  0  0  0  0  0  0  0  0  0  0  0
  -23.0250  -28.8150   23.1030 O   0  0  0  0  0  0  0  0  0  0  0  0
  -20.4910  -29.8590   21.5550 H   0  0  0  0  0  0  0  0  0  0  0  0
  -17.6320  -28.0780   22.7520 C   0  0  0  0  0  0  0  0  0  0  0  0
  -20.1950  -28.3210   22.9730 C   0  0  0  0  0  3  0  0  0  0  0  0
  -20.2800  -26.9100   22.3480 C   0  0  0  0  0  2  0  0  0  0  0  0
  -19.1550  -26.6230   21.3480 C   0  0  0  0  0  2  0  0  0  0  0  0
  -17.7880  -26.7510   22.0290 C   0  0  0  0  0  2  0  0  0  0  0  0
  -18.7620  -28.8230   23.1810 C   0  0  0  0  0  0  0  0  0  0  0  0
  -18.5630  -30.0670   23.8170 C   0  0  0  0  0  3  0  0  0  0  0  0
  -17.2640  -30.5690   24.0250 C   0  0  0  0  0  3  0  0  0  0  0  0
  -16.1480  -29.8200   23.6130 C   0  0  0  0  0  3  0  0  0  0  0  0
  -16.3320  -28.5770   22.9850 C   0  0  0  0  0  3  0  0  0  0  0  0
  -25.4930  -32.4810   23.6440 C   0  0  0  0  0  3  0  0  0  0  0  0
  -25.2030  -33.8770   23.9940 N   0  0  0  0  0  0  0  0  0  0  0  0
  -25.5710  -34.9360   23.2610 C   0  0  0  0  0  0  0  0  0  0  0  0
  -26.2610  -34.8390   22.2420 O   0  0  0  0  0  0  0  0  0  0  0  0
  -24.5970  -34.0280   24.7860 H   0  0  0  0  0  0  0  0  0  0  0  0
  -23.8920  -36.7690   22.8860 C   0  0  0  0  0  1  0  0  0  0  0  0
  -25.0980  -36.3250   23.7310 C   0  0  0  0  0  3  0  0  0  0  0  0
  -27.2180  -37.1490   24.6540 C   0  0  0  0  0  1  0  0  0  0  0  0
  -26.1550  -37.3570   23.6730 N   0  0  0  0  0  0  0  0  0  0  0  0
  -25.7620  -38.2830   23.8220 H   0  0  0  0  0  0  0  0  0  0  0  0
  -26.0270  -31.6860   24.9000 C   0  0  1  0  0  0  0  0  0  0  0  0
  -24.9470  -31.4360   25.9790 C   0  0  0  0  0  1  0  0  0  0  0  0
  -26.5960  -30.3130   24.4730 C   0  0  0  0  0  1  0  0  0  0  0  0
  -27.1900  -32.4640   25.5580 C   0  0  0  0  0  1  0  0  0  0  0  0
  2  1  2  0
  3  1  1  0
  4  2  1  0
  5  4  2  0
  5  6  1  0
  6  3  2  0
  7  9  1  0
  8 10  1  0
  8  7  1  0
 10 11  1  0
 11  9  1  0
 11  5  1  0
 12 13  2  0
 12  4  1  0
 14 15  2  0
 14 13  1  0
 16 25  1  0
 16 15  1  0
 17 25  1  0
 18 23  1  0
 19 20  1  0
 19 18  1  0
 21 20  1  0
 21 30  1  0
 21 22  1  0
 23 17  1  0
 23 22  1  0
 24 17  2  0
 25 26  1  0
 27 28  2  0
 28 47  1  0
 29 28  1  0
 29 32  1  0
 30 31  1  0
 30 27  1  0
 31 29  2  0
 32 33  1  0
 33 34  2  0
 35 38  1  0
 35 34  1  0
 36 35  2  0
 37 36  1  0
 37 32  2  0
 38 39  1  0
 39 40  1  0
 40 41  2  0
 42 41  1  0
 42 46  1  0
 43 42  2  0
 44 39  2  0
 44 43  1  0
 45 44  1  0
 47 48  1  0
 48 51  1  0
 48 50  1  0
 49 47  2  0
 52 27  1  0
 52 53  1  0
 54 52  1  0
 55  6  1  0
 56 58  1  0
 56 55  1  0
 57 68  2  0
 58 63  1  0
 59 67  1  0
 59 69  1  0
 60 66  1  0
 60 62  1  0
 61 67  1  0
 62 61  1  0
 63 62  2  0
 64 65  1  0
 64 58  2  0
 65 60  2  0
 66 59  1  0
 67 57  1  0
 69 71  2  0
 70 69  1  0
 72 70  1  0
 73 82  2  0
 73 78  1  0
 74 70  1  0
 74 78  1  0
 75 74  1  0
 76 77  1  0
 76 75  1  0
 77 73  1  0
 78 79  2  0
 79 80  1  0
 81 80  2  0
 82 81  1  0
 83 57  1  0
 83 84  1  0
 83 93  1  0
 84 87  1  0
 85 89  1  0
 85 84  1  0
 86 85  2  0
 89 88  1  0
 91 89  1  0
 91 92  1  0
 91 90  1  0
 93 96  1  1
 93 94  1  0
 95 93  1  0
M  ISO  4  17 100  25 100  55 101  56 101
M  END
>  <TORSDO>  (78) 
F 21

>  <SCORE>  (78) 
-10.655

>  <name>  (78) 
78

>  <ligand_id>  (78) 
78

>  <original_smiles>  (78) 
[H]C(C([H])=C([H])C([H])([H])N([H])C(=O)N1C([H])([H])C([H])([H])C([H])([H])C([H])(n2nc(-c3c([H])c([H])c(Oc4c([H])c([H])c(F)c([H])c4F)c([H])c3[H])c(C(=O)N([H])[H])c2N([H])[H])C1([H])[H])=C([H])c1c([H])c([H])c([H])c(C([H])([H])Oc2c([H])c([H])c3c(c2[H])C([H])([H])N(C(=O)C([H])(N([H])C(=O)C([H])(N([H])C([H])([H])[H])C([H])([H])[H])C(C([H])([H])[H])(C([H])([H])[H])C([H])([H])[H])C([H])(C(=O)N([H])C2([H])c4c([H])c([H])c([H])c([H])c4C([H])([H])C([H])([H])C2([H])[H])C3([H])[H])c1C1([H])C([H])([H])C([H])([H])C([H])([H])C1([H])[H]

>  <smiles>  (78) 
[H]C(C([H])=C([H])C([H])([H])N([H])C(=O)N1C([H])([H])C([H])([H])C([H])([H])C([H])(n2nc(-c3c([H])c([H])c(Oc4c([H])c([H])c(F)c([H])c4F)c([H])c3[H])c(C(=O)N([H])[H])c2N([H])[H])C1([H])[H])=C([H])c1c([H])c([H])c([H])c(C([H])([H])Oc2c([H])c([H])c3c(c2[H])C([H])([H])N(C(=O)C([H])(N([H])C(=O)C([H])(N([H])C([H])([H])[H])C([H])([H])[H])C(C([H])([H])[H])(C([H])([H])[H])C([H])([H])[H])C([H])(C(=O)N([H])C2([H])c4c([H])c([H])c([H])c([H])c4C([H])([H])C([H])([H])C2([H])[H])C3([H])[H])c1C1([H])C([H])([H])C([H])([H])C([H])([H])C1([H])[H]

$$$$
79:0:0
     RDKit          3D

 95103  0  0  1  0  0  0  0  0999 V2000
  -31.6360  -21.3490   20.0070 C   0  0  0  0  0  0  0  0  0  0  0  0
  -31.8410  -22.3590   18.8790 C   0  0  0  0  0  2  0  0  0  0  0  0
  -31.1610  -21.8990   17.5740 C   0  0  0  0  0  2  0  0  0  0  0  0
  -30.9930  -20.0010   19.6020 C   0  0  0  0  0  3  0  0  0  0  0  0
  -29.7640  -21.2560   17.7720 C   0  0  0  0  0  3  0  0  0  0  0  0
  -29.7060  -20.3020   18.9170 N   0  0  0  0  0  4  0  0  0  0  0  0
  -31.9430  -21.6570   21.1610 O   0  0  0  0  0  0  0  0  0  0  0  0
  -29.0590  -20.6740   19.5930 H   0  0  0  0  0  0  0  0  0  0  0  0
  -29.3090  -19.4420   18.5730 H   0  0  0  0  0  0  0  0  0  0  0  0
  -30.8260  -19.0600   20.8260 C   0  0  0  0  0  2  0  0  0  0  0  0
  -30.4040  -17.6220   20.4680 C   0  0  0  0  0  2  0  0  0  0  0  0
  -30.5820  -16.6480   21.6510 C   0  0  0  0  0  2  0  0  0  0  0  0
  -30.6970  -14.4010   20.5580 C   0  0  0  0  0  0  0  0  0  0  0  0
  -30.3640  -12.3060   19.3070 C   0  0  0  0  0  2  0  0  0  0  0  0
  -29.4200  -12.5540   18.1130 C   0  0  0  0  0  2  0  0  0  0  0  0
  -27.9450  -12.4230   18.5400 C   0  0  0  0  0  2  0  0  0  0  0  0
  -27.6200  -13.2320   19.8250 C   0  0  0  0  0  3  0  0  0  0  0  0
  -28.6700  -12.9500   20.9230 C   0  0  0  0  0  2  0  0  0  0  0  0
  -30.0010  -13.2520   20.3700 N   0  0  0  0  0  0  0  0  0  0  0  0
  -31.7720  -14.6460   20.0030 O   0  0  0  0  0  0  0  0  0  0  0  0
  -30.0940  -15.3060   21.3420 N   0  0  0  0  0  0  0  0  0  0  0  0
  -29.2150  -15.0290   21.7500 H   0  0  0  0  0  0  0  0  0  0  0  0
  -25.2180  -13.8560   20.5120 C   0  0  0  0  0  0  0  0  0  0  0  0
  -24.1460  -13.0880   20.8800 C   0  0  0  0  0  0  0  0  0  0  0  0
  -24.6030  -11.7360   20.8590 C   0  0  0  0  0  0  0  0  0  0  0  0
  -26.2620  -12.9690   20.2940 N   0  0  0  0  0  0  0  0  0  0  0  0
  -25.8940  -11.6900   20.5570 N   0  0  0  0  0  0  0  0  0  0  0  0
  -23.8720  -10.4760   21.0520 C   0  0  0  0  0  0  0  0  0  0  0  0
  -24.3100   -9.5060   21.9820 C   0  0  0  0  0  3  0  0  0  0  0  0
  -23.5830   -8.3090   22.1640 C   0  0  0  0  0  3  0  0  0  0  0  0
  -22.4030   -8.0760   21.4180 C   0  0  0  0  0  0  0  0  0  0  0  0
  -21.9830   -9.0350   20.4790 C   0  0  0  0  0  3  0  0  0  0  0  0
  -22.7110  -10.2230   20.2950 C   0  0  0  0  0  3  0  0  0  0  0  0
  -21.6460   -6.9330   21.5100 O   0  0  0  0  0  0  0  0  0  0  0  0
  -21.6150   -6.1810   22.6560 C   0  0  0  0  0  0  0  0  0  0  0  0
  -21.2280   -6.7290   23.8990 C   0  0  0  0  0  3  0  0  0  0  0  0
  -21.1440   -5.9030   25.0370 C   0  0  0  0  0  3  0  0  0  0  0  0
  -21.4350   -4.5300   24.9350 C   0  0  0  0  0  0  0  0  0  0  0  0
  -21.8140   -3.9810   23.6970 C   0  0  0  0  0  3  0  0  0  0  0  0
  -21.9010   -4.8040   22.5600 C   0  0  0  0  0  0  0  0  0  0  0  0
  -22.2470   -4.2650   21.3660 F   0  0  0  0  0  0  0  0  0  0  0  0
  -21.3460   -3.7350   26.0260 F   0  0  0  0  0  0  0  0  0  0  0  0
  -22.7470  -13.5700   21.1440 C   0  0  0  0  0  0  0  0  0  0  0  0
  -22.0150  -12.8800   22.0130 N   0  0  0  0  0  0  0  0  0  0  0  0
  -22.3120  -14.5910   20.6160 O   0  0  0  0  0  0  0  0  0  0  0  0
  -22.3790  -12.0540   22.4630 H   0  0  0  0  0  0  0  0  0  0  0  0
  -21.0750  -13.1840   22.2280 H   0  0  0  0  0  0  0  0  0  0  0  0
  -25.3880  -15.2240   20.3270 N   0  0  0  0  0  0  0  0  0  0  0  0
  -24.6230  -15.8830   20.4290 H   0  0  0  0  0  0  0  0  0  0  0  0
  -26.2470  -15.6610   20.0200 H   0  0  0  0  0  0  0  0  0  0  0  0
  -28.6090  -22.2850   17.8250 C   0  0  0  0  0  2  0  0  0  0  0  0
  -28.4520  -23.0800   19.1440 C   0  0  0  0  0  2  0  0  0  0  0  0
  -28.4800  -24.6030   18.9550 C   0  0  0  0  0  2  0  0  0  0  0  0
  -28.3160  -25.3380   20.2970 C   0  0  0  0  0  2  0  0  0  0  0  0
  -28.3920  -26.7540   20.1470 O   0  0  0  0  0  0  0  0  0  0  0  0
  -24.5860  -31.8780   23.2570 C   0  0  0  0  0  0  0  0  0  0  0  0
  -27.2040  -27.4500   20.1500 C   0  0  0  0  0  0  0  0  0  0  0  0
  -23.3670  -30.4800   21.6230 C   0  0  0  0  0  3  0  0  0  0  0  0
  -24.8060  -28.9400   20.1930 C   0  0  0  0  0  0  0  0  0  0  0  0
  -25.8930  -30.8400   21.4050 C   0  0  0  0  0  2  0  0  0  0  0  0
  -25.9700  -29.4710   20.7620 C   0  0  0  0  0  0  0  0  0  0  0  0
  -27.1740  -28.7370   20.7280 C   0  0  0  0  0  3  0  0  0  0  0  0
  -26.0180  -26.9240   19.5850 C   0  0  0  0  0  3  0  0  0  0  0  0
  -24.8230  -27.6640   19.6050 C   0  0  0  0  0  3  0  0  0  0  0  0
  -23.5640  -29.8020   20.2440 C   0  0  0  0  0  2  0  0  0  0  0  0
  -24.6350  -31.0780   22.1540 N   0  0  0  0  0  0  0  0  0  0  0  0
  -23.5060  -32.1520   23.8020 O   0  0  0  0  0  0  0  0  0  0  0  0
  -22.7190  -29.4580   22.5820 C   0  0  0  0  0  0  0  0  0  0  0  0
  -21.3930  -29.2810   22.4570 N   0  0  0  0  0  0  0  0  0  0  0  0
  -23.4050  -28.8260   23.3890 O   0  0  0  0  0  0  0  0  0  0  0  0
  -20.9010  -29.8470   21.7790 H   0  0  0  0  0  0  0  0  0  0  0  0
  -18.0170  -28.1040   22.9600 C   0  0  0  0  0  0  0  0  0  0  0  0
  -20.5750  -28.3450   23.2280 C   0  0  0  0  0  3  0  0  0  0  0  0
  -20.6670  -26.9140   22.6480 C   0  0  0  0  0  2  0  0  0  0  0  0
  -19.5620  -26.5990   21.6350 C   0  0  0  0  0  2  0  0  0  0  0  0
  -18.1820  -26.7530   22.2830 C   0  0  0  0  0  2  0  0  0  0  0  0
  -19.1400  -28.8590   23.3880 C   0  0  0  0  0  0  0  0  0  0  0  0
  -18.9300  -30.1270   23.9740 C   0  0  0  0  0  3  0  0  0  0  0  0
  -17.6290  -30.6350   24.1410 C   0  0  0  0  0  3  0  0  0  0  0  0
  -16.5190  -29.8760   23.7310 C   0  0  0  0  0  3  0  0  0  0  0  0
  -16.7140  -28.6130   23.1440 C   0  0  0  0  0  3  0  0  0  0  0  0
  -25.8760  -32.5060   23.8730 C   0  0  0  0  0  3  0  0  0  0  0  0
  -25.5720  -33.9040   24.1990 N   0  0  0  0  0  0  0  0  0  0  0  0
  -25.9080  -34.9540   23.4360 C   0  0  0  0  0  0  0  0  0  0  0  0
  -26.5780  -34.8450   22.4040 O   0  0  0  0  0  0  0  0  0  0  0  0
  -24.9830  -34.0650   25.0030 H   0  0  0  0  0  0  0  0  0  0  0  0
  -24.1830  -36.7490   23.0780 C   0  0  0  0  0  1  0  0  0  0  0  0
  -25.4260  -36.3450   23.8890 C   0  0  0  0  0  3  0  0  0  0  0  0
  -27.5650  -37.2230   24.7140 C   0  0  0  0  0  1  0  0  0  0  0  0
  -26.4610  -37.3960   23.7720 N   0  0  0  0  0  0  0  0  0  0  0  0
  -26.0580  -38.3170   23.9240 H   0  0  0  0  0  0  0  0  0  0  0  0
  -26.3950  -31.7330   25.1460 C   0  0  1  0  0  0  0  0  0  0  0  0
  -25.3080  -31.4960   26.2210 C   0  0  0  0  0  1  0  0  0  0  0  0
  -26.9680  -30.3550   24.7440 C   0  0  0  0  0  1  0  0  0  0  0  0
  -27.5520  -32.5230   25.8020 C   0  0  0  0  0  1  0  0  0  0  0  0
  1  7  2  0
  2  1  1  0
  3  5  1  0
  3  2  1  0
  4  1  1  0
  4 10  1  0
  5 51  1  0
  5  6  1  0
  6  8  1  0
  6  4  1  0
  9  6  1  0
 11 10  1  0
 11 12  1  0
 13 21  1  0
 14 19  1  0
 15 16  1  0
 15 14  1  0
 17 16  1  0
 17 26  1  0
 17 18  1  0
 19 13  1  0
 19 18  1  0
 20 13  2  0
 21 12  1  0
 21 22  1  0
 23 24  2  0
 24 43  1  0
 25 24  1  0
 25 28  1  0
 26 23  1  0
 26 27  1  0
 27 25  2  0
 28 29  1  0
 29 30  2  0
 31 34  1  0
 31 30  1  0
 32 31  2  0
 33 32  1  0
 33 28  2  0
 34 35  1  0
 35 36  1  0
 36 37  2  0
 38 37  1  0
 38 42  1  0
 39 38  2  0
 40 35  2  0
 40 39  1  0
 41 40  1  0
 43 44  1  0
 44 47  1  0
 44 46  1  0
 45 43  2  0
 48 49  1  0
 48 23  1  0
 50 48  1  0
 51 52  1  0
 53 52  1  0
 53 54  1  0
 55 57  1  0
 55 54  1  0
 56 67  2  0
 57 62  1  0
 58 66  1  0
 58 68  1  0
 59 65  1  0
 59 61  1  0
 60 66  1  0
 61 60  1  0
 62 61  2  0
 63 64  1  0
 63 57  2  0
 64 59  2  0
 65 58  1  0
 66 56  1  0
 68 70  2  0
 69 68  1  0
 71 69  1  0
 72 81  2  0
 72 77  1  0
 73 69  1  0
 73 77  1  0
 74 73  1  0
 75 76  1  0
 75 74  1  0
 76 72  1  0
 77 78  2  0
 78 79  1  0
 80 79  2  0
 81 80  1  0
 82 56  1  0
 82 83  1  0
 82 92  1  0
 83 86  1  0
 84 88  1  0
 84 83  1  0
 85 84  2  0
 88 87  1  0
 90 88  1  0
 90 91  1  0
 90 89  1  0
 92 95  1  1
 92 93  1  0
 94 92  1  0
M  ISO  4  13 100  21 100  54 101  55 101
M  END
>  <TORSDO>  (79) 
F 23

>  <SCORE>  (79) 
-12.937

>  <name>  (79) 
79

>  <ligand_id>  (79) 
79

>  <original_smiles>  (79) 
[H]c1c([H])c([H])c2c(c1[H])C([H])([H])C([H])([H])C([H])([H])C2([H])N([H])C(=O)C1([H])N(C(=O)C([H])(N([H])C(=O)C([H])(N([H])C([H])([H])[H])C([H])([H])[H])C(C([H])([H])[H])(C([H])([H])[H])C([H])([H])[H])C([H])([H])c2c([H])c(OC([H])([H])C([H])([H])C([H])([H])C([H])([H])C3([H])C([H])([H])C([H])([H])C(=O)C([H])(C([H])([H])C([H])([H])C([H])([H])N([H])C(=O)N4C([H])([H])C([H])([H])C([H])([H])C([H])(n5nc(-c6c([H])c([H])c(Oc7c([H])c([H])c(F)c([H])c7F)c([H])c6[H])c(C(=O)N([H])[H])c5N([H])[H])C4([H])[H])[N+]3([H])[H])c([H])c([H])c2C1([H])[H]

>  <smiles>  (79) 
[H]c1c([H])c([H])c2c(c1[H])C([H])([H])C([H])([H])C([H])([H])C2([H])N([H])C(=O)C1([H])N(C(=O)C([H])(N([H])C(=O)C([H])(N([H])C([H])([H])[H])C([H])([H])[H])C(C([H])([H])[H])(C([H])([H])[H])C([H])([H])[H])C([H])([H])c2c([H])c(OC([H])([H])C([H])([H])C([H])([H])C([H])([H])C3([H])C([H])([H])C([H])([H])C(=O)C([H])(C([H])([H])C([H])([H])C([H])([H])N([H])C(=O)N4C([H])([H])C([H])([H])C([H])([H])C([H])(n5nc(-c6c([H])c([H])c(Oc7c([H])c([H])c(F)c([H])c7F)c([H])c6[H])c(C(=O)N([H])[H])c5N([H])[H])C4([H])[H])[N+]3([H])[H])c([H])c([H])c2C1([H])[H]

$$$$
80:0:0
     RDKit          3D

 93101  0  0  1  0  0  0  0  0999 V2000
  -29.9000  -22.7790   21.3790 C   0  0  0  0  0  0  0  0  0  0  0  0
  -28.9340  -23.3030   20.3310 C   0  0  0  0  0  2  0  0  0  0  0  0
  -27.7330  -23.9980   20.9700 C   0  0  0  0  0  2  0  0  0  0  0  0
  -29.0760  -24.2960   23.0710 C   0  0  0  0  0  2  0  0  0  0  0  0
  -28.1520  -25.0340   22.0360 C   0  0  2  0  0  0  0  0  0  0  0  0
  -29.9880  -23.2570   22.5610 N   0  0  0  0  0  0  0  0  0  0  0  0
  -27.0290  -26.5180   23.9010 C   0  0  0  0  0  1  0  0  0  0  0  0
  -26.8560  -25.4850   22.7730 C   0  0  0  0  0  2  0  0  0  0  0  0
  -30.8540  -21.6870   20.8920 C   0  0  0  0  0  2  0  0  0  0  0  0
  -30.5620  -20.2340   21.3640 C   0  0  0  0  0  3  0  0  0  0  0  0
  -29.5440  -19.4430   20.5090 C   0  0  0  0  0  3  0  0  0  0  0  0
  -29.3800  -17.9380   20.8680 C   0  0  0  0  0  2  0  0  0  0  0  0
  -30.5350  -16.9990   20.4160 C   0  0  0  0  0  2  0  0  0  0  0  0
  -30.9570  -14.5430   20.1080 C   0  0  0  0  0  0  0  0  0  0  0  0
  -30.6820  -12.3190   19.0760 C   0  0  0  0  0  2  0  0  0  0  0  0
  -29.6970  -12.4420   17.8960 C   0  0  0  0  0  2  0  0  0  0  0  0
  -28.2350  -12.3220   18.3750 C   0  0  0  0  0  2  0  0  0  0  0  0
  -27.9290  -13.2130   19.6060 C   0  0  0  0  0  3  0  0  0  0  0  0
  -29.0170  -13.0420   20.6910 C   0  0  0  0  0  2  0  0  0  0  0  0
  -30.3190  -13.3420   20.0700 N   0  0  0  0  0  0  0  0  0  0  0  0
  -32.0580  -14.7330   19.5810 O   0  0  0  0  0  0  0  0  0  0  0  0
  -30.2330  -15.5690   20.6070 N   0  0  0  0  0  0  0  0  0  0  0  0
  -29.3310  -15.3330   20.9960 H   0  0  0  0  0  0  0  0  0  0  0  0
  -25.5820  -13.8620   20.4240 C   0  0  0  0  0  0  0  0  0  0  0  0
  -24.5100  -13.1090   20.8250 C   0  0  0  0  0  0  0  0  0  0  0  0
  -24.9350  -11.7480   20.7450 C   0  0  0  0  0  0  0  0  0  0  0  0
  -26.5920  -12.9600   20.1330 N   0  0  0  0  0  0  0  0  0  0  0  0
  -26.2080  -11.6810   20.3790 N   0  0  0  0  0  0  0  0  0  0  0  0
  -24.1820  -10.5000   20.9420 C   0  0  0  0  0  0  0  0  0  0  0  0
  -24.5880   -9.5370   21.8900 C   0  0  0  0  0  3  0  0  0  0  0  0
  -23.8410   -8.3540   22.0770 C   0  0  0  0  0  3  0  0  0  0  0  0
  -22.6700   -8.1260   21.3130 C   0  0  0  0  0  0  0  0  0  0  0  0
  -22.2830   -9.0790   20.3550 C   0  0  0  0  0  3  0  0  0  0  0  0
  -23.0310  -10.2540   20.1690 C   0  0  0  0  0  3  0  0  0  0  0  0
  -21.8970   -6.9950   21.4080 O   0  0  0  0  0  0  0  0  0  0  0  0
  -21.7820   -6.3000   22.5830 C   0  0  0  0  0  0  0  0  0  0  0  0
  -21.2740   -6.8980   23.7570 C   0  0  0  0  0  3  0  0  0  0  0  0
  -21.1090   -6.1280   24.9250 C   0  0  0  0  0  3  0  0  0  0  0  0
  -21.4360   -4.7580   24.9180 C   0  0  0  0  0  0  0  0  0  0  0  0
  -21.9340   -4.1590   23.7470 C   0  0  0  0  0  3  0  0  0  0  0  0
  -22.1030   -4.9280   22.5820 C   0  0  0  0  0  0  0  0  0  0  0  0
  -22.5650   -4.3410   21.4520 F   0  0  0  0  0  0  0  0  0  0  0  0
  -21.2680   -4.0150   26.0360 F   0  0  0  0  0  0  0  0  0  0  0  0
  -23.1410  -13.6160   21.1740 C   0  0  0  0  0  0  0  0  0  0  0  0
  -22.4370  -12.9170   22.0590 N   0  0  0  0  0  0  0  0  0  0  0  0
  -22.7050  -14.6640   20.7010 O   0  0  0  0  0  0  0  0  0  0  0  0
  -22.8040  -12.0660   22.4600 H   0  0  0  0  0  0  0  0  0  0  0  0
  -21.5190  -13.2340   22.3340 H   0  0  0  0  0  0  0  0  0  0  0  0
  -25.7810  -15.2290   20.2630 N   0  0  0  0  0  0  0  0  0  0  0  0
  -25.0540  -15.9170   20.4200 H   0  0  0  0  0  0  0  0  0  0  0  0
  -26.6370  -15.6370   19.9100 H   0  0  0  0  0  0  0  0  0  0  0  0
  -28.8970  -26.2610   21.3930 C   0  0  0  0  0  2  0  0  0  0  0  0
  -28.3770  -26.7270   20.1380 O   0  0  0  0  0  0  0  0  0  0  0  0
  -24.5850  -31.9120   23.2550 C   0  0  0  0  0  0  0  0  0  0  0  0
  -27.2450  -27.5050   20.1660 C   0  0  0  0  0  0  0  0  0  0  0  0
  -23.3790  -30.5150   21.6030 C   0  0  0  0  0  3  0  0  0  0  0  0
  -24.8430  -28.9910   20.1720 C   0  0  0  0  0  0  0  0  0  0  0  0
  -25.9020  -30.8880   21.4090 C   0  0  0  0  0  2  0  0  0  0  0  0
  -25.9950  -29.5180   20.7690 C   0  0  0  0  0  0  0  0  0  0  0  0
  -27.2010  -28.7810   20.7730 C   0  0  0  0  0  3  0  0  0  0  0  0
  -26.0880  -27.0020   19.5360 C   0  0  0  0  0  3  0  0  0  0  0  0
  -24.8810  -27.7280   19.5530 C   0  0  0  0  0  3  0  0  0  0  0  0
  -23.5910  -29.8410   20.2220 C   0  0  0  0  0  2  0  0  0  0  0  0
  -24.6400  -31.1180   22.1480 N   0  0  0  0  0  0  0  0  0  0  0  0
  -23.5060  -32.1810   23.7990 O   0  0  0  0  0  0  0  0  0  0  0  0
  -22.7300  -29.4880   22.5610 C   0  0  0  0  0  0  0  0  0  0  0  0
  -21.4080  -29.2980   22.4300 N   0  0  0  0  0  0  0  0  0  0  0  0
  -23.4150  -28.8660   23.3770 O   0  0  0  0  0  0  0  0  0  0  0  0
  -20.9150  -29.8530   21.7440 H   0  0  0  0  0  0  0  0  0  0  0  0
  -18.0410  -28.0880   22.9230 C   0  0  0  0  0  0  0  0  0  0  0  0
  -20.5970  -28.3540   23.1960 C   0  0  0  0  0  3  0  0  0  0  0  0
  -20.7040  -26.9240   22.6140 C   0  0  0  0  0  2  0  0  0  0  0  0
  -19.6030  -26.6020   21.5990 C   0  0  0  0  0  2  0  0  0  0  0  0
  -18.2210  -26.7420   22.2430 C   0  0  0  0  0  2  0  0  0  0  0  0
  -19.1570  -28.8530   23.3560 C   0  0  0  0  0  0  0  0  0  0  0  0
  -18.9350  -30.1140   23.9500 C   0  0  0  0  0  3  0  0  0  0  0  0
  -17.6280  -30.6100   24.1160 C   0  0  0  0  0  3  0  0  0  0  0  0
  -16.5260  -29.8440   23.6980 C   0  0  0  0  0  3  0  0  0  0  0  0
  -16.7350  -28.5840   23.1070 C   0  0  0  0  0  3  0  0  0  0  0  0
  -25.8720  -32.5420   23.8740 C   0  0  0  0  0  3  0  0  0  0  0  0
  -25.5770  -33.9490   24.1750 N   0  0  0  0  0  0  0  0  0  0  0  0
  -25.9420  -34.9830   23.4060 C   0  0  0  0  0  0  0  0  0  0  0  0
  -26.6320  -34.8510   22.3900 O   0  0  0  0  0  0  0  0  0  0  0  0
  -24.9770  -34.1280   24.9680 H   0  0  0  0  0  0  0  0  0  0  0  0
  -24.2590  -36.7970   22.9630 C   0  0  0  0  0  1  0  0  0  0  0  0
  -25.4610  -36.3830   23.8280 C   0  0  0  0  0  3  0  0  0  0  0  0
  -27.5770  -37.2410   24.7330 C   0  0  0  0  0  1  0  0  0  0  0  0
  -26.5160  -37.4180   23.7440 N   0  0  0  0  0  0  0  0  0  0  0  0
  -26.1210  -38.3460   23.8620 H   0  0  0  0  0  0  0  0  0  0  0  0
  -26.3780  -31.7870   25.1640 C   0  0  1  0  0  0  0  0  0  0  0  0
  -25.2760  -31.5660   26.2250 C   0  0  0  0  0  1  0  0  0  0  0  0
  -26.9520  -30.4030   24.7930 C   0  0  0  0  0  1  0  0  0  0  0  0
  -27.5260  -32.5860   25.8230 C   0  0  0  0  0  1  0  0  0  0  0  0
  1  6  2  0
  2  3  1  0
  2  1  1  0
  3  5  1  0
  5 52  1  6
  5  8  1  0
  5  4  1  0
  6  4  1  0
  8  7  1  0
  9 10  1  0
  9  1  1  0
 11 12  1  0
 11 10  2  0
 13 22  1  0
 13 12  1  0
 14 22  1  0
 15 20  1  0
 16 17  1  0
 16 15  1  0
 18 17  1  0
 18 27  1  0
 18 19  1  0
 20 14  1  0
 20 19  1  0
 21 14  2  0
 22 23  1  0
 24 25  2  0
 25 44  1  0
 26 25  1  0
 26 29  1  0
 27 28  1  0
 27 24  1  0
 28 26  2  0
 29 30  1  0
 30 31  2  0
 32 35  1  0
 32 31  1  0
 33 32  2  0
 34 33  1  0
 34 29  2  0
 35 36  1  0
 36 37  1  0
 37 38  2  0
 39 38  1  0
 39 43  1  0
 40 39  2  0
 41 36  2  0
 41 40  1  0
 42 41  1  0
 44 45  1  0
 45 48  1  0
 45 47  1  0
 46 44  2  0
 49 50  1  0
 49 24  1  0
 51 49  1  0
 53 55  1  0
 53 52  1  0
 54 65  2  0
 55 60  1  0
 56 64  1  0
 56 66  1  0
 57 63  1  0
 57 59  1  0
 58 64  1  0
 59 60  2  0
 59 58  1  0
 61 62  1  0
 61 55  2  0
 62 57  2  0
 63 56  1  0
 64 54  1  0
 66 68  2  0
 67 66  1  0
 69 67  1  0
 70 79  2  0
 70 75  1  0
 71 67  1  0
 71 75  1  0
 72 71  1  0
 73 74  1  0
 73 72  1  0
 74 70  1  0
 75 76  2  0
 76 77  1  0
 78 77  2  0
 79 78  1  0
 80 54  1  0
 80 81  1  0
 80 90  1  0
 81 84  1  0
 82 86  1  0
 82 81  1  0
 83 82  2  0
 86 85  1  0
 88 86  1  0
 88 89  1  0
 88 87  1  0
 90 93  1  1
 90 91  1  0
 92 90  1  0
M  ISO  4  14 100  22 100  52 101  53 101
M  END
>  <TORSDO>  (80) 
F 23

>  <SCORE>  (80) 
-12.722

>  <name>  (80) 
80

>  <ligand_id>  (80) 
80

>  <original_smiles>  (80) 
[H]c1c([H])c([H])c2c(c1[H])C([H])([H])C([H])([H])C([H])([H])C2([H])N([H])C(=O)C1([H])N(C(=O)C([H])(N([H])C(=O)C([H])(N([H])C([H])([H])[H])C([H])([H])[H])C(C([H])([H])[H])(C([H])([H])[H])C([H])([H])[H])C([H])([H])c2c([H])c(OC([H])([H])C3(C([H])([H])C([H])([H])[H])C([H])([H])N=C(C([H])([H])C([H])([H])C([H])([H])C([H])([H])C([H])([H])N([H])C(=O)N4C([H])([H])C([H])([H])C([H])([H])C([H])(n5nc(-c6c([H])c([H])c(Oc7c([H])c([H])c(F)c([H])c7F)c([H])c6[H])c(C(=O)N([H])[H])c5N([H])[H])C4([H])[H])C([H])([H])C3([H])[H])c([H])c([H])c2C1([H])[H]

>  <smiles>  (80) 
[H]c1c([H])c([H])c2c(c1[H])C([H])([H])C([H])([H])C([H])([H])C2([H])N([H])C(=O)C1([H])N(C(=O)C([H])(N([H])C(=O)C([H])(N([H])C([H])([H])[H])C([H])([H])[H])C(C([H])([H])[H])(C([H])([H])[H])C([H])([H])[H])C([H])([H])c2c([H])c(OC([H])([H])C3(C([H])([H])C([H])([H])[H])C([H])([H])N=C(C([H])([H])C([H])([H])C([H])([H])C([H])([H])C([H])([H])N([H])C(=O)N4C([H])([H])C([H])([H])C([H])([H])C([H])(n5nc(-c6c([H])c([H])c(Oc7c([H])c([H])c(F)c([H])c7F)c([H])c6[H])c(C(=O)N([H])[H])c5N([H])[H])C4([H])[H])C([H])([H])C3([H])[H])c([H])c([H])c2C1([H])[H]

$$$$
81:0:0
     RDKit          3D

 96104  0  0  1  0  0  0  0  0999 V2000
  -27.5120  -20.1690   19.1820 C   0  0  0  0  0  2  0  0  0  0  0  0
  -30.8030  -18.5320   21.5560 C   0  0  0  0  0  3  0  0  0  0  0  0
  -30.5700  -19.9190   21.5830 C   0  0  0  0  0  3  0  0  0  0  0  0
  -28.9620  -18.2690   19.9950 C   0  0  0  0  0  3  0  0  0  0  0  0
  -29.9890  -17.6910   20.7790 C   0  0  0  0  0  0  0  0  0  0  0  0
  -29.5320  -20.5060   20.8280 C   0  0  0  0  0  0  0  0  0  0  0  0
  -28.7160  -19.6670   20.0010 C   0  0  0  0  0  0  0  0  0  0  0  0
  -28.0780  -22.4120   21.7340 C   0  0  0  0  0  1  0  0  0  0  0  0
  -29.3600  -22.0200   20.9850 C   0  0  0  0  0  2  0  0  0  0  0  0
  -30.1680  -16.1740   20.8860 C   0  0  0  0  0  2  0  0  0  0  0  0
  -31.5770  -14.4100   19.7730 C   0  0  0  0  0  0  0  0  0  0  0  0
  -31.1370  -12.1450   18.9200 C   0  0  0  0  0  2  0  0  0  0  0  0
  -30.1510  -12.2530   17.7360 C   0  0  0  0  0  2  0  0  0  0  0  0
  -28.6910  -12.2630   18.2320 C   0  0  0  0  0  2  0  0  0  0  0  0
  -28.4570  -13.2600   19.3990 C   0  0  0  0  0  3  0  0  0  0  0  0
  -29.5430  -13.0720   20.4850 C   0  0  0  0  0  2  0  0  0  0  0  0
  -30.8450  -13.2650   19.8310 N   0  0  0  0  0  0  0  0  0  0  0  0
  -32.7220  -14.4390   19.3190 O   0  0  0  0  0  0  0  0  0  0  0  0
  -30.8820  -15.5650   19.7650 N   0  0  0  0  0  0  0  0  0  0  0  0
  -31.3480  -16.2660   19.2070 H   0  0  0  0  0  0  0  0  0  0  0  0
  -26.1930  -14.1330   20.2530 C   0  0  0  0  0  0  0  0  0  0  0  0
  -25.0580  -13.4800   20.6600 C   0  0  0  0  0  0  0  0  0  0  0  0
  -25.3540  -12.0870   20.5750 C   0  0  0  0  0  0  0  0  0  0  0  0
  -27.1100  -13.1390   19.9460 N   0  0  0  0  0  0  0  0  0  0  0  0
  -26.6100  -11.9030   20.1950 N   0  0  0  0  0  0  0  0  0  0  0  0
  -24.4950  -10.9130   20.7740 C   0  0  0  0  0  0  0  0  0  0  0  0
  -24.8470   -9.8860   21.6760 C   0  0  0  0  0  3  0  0  0  0  0  0
  -23.9970   -8.7750   21.8630 C   0  0  0  0  0  3  0  0  0  0  0  0
  -22.7790   -8.6850   21.1510 C   0  0  0  0  0  0  0  0  0  0  0  0
  -22.4440   -9.6990   20.2360 C   0  0  0  0  0  3  0  0  0  0  0  0
  -23.2930  -10.8030   20.0460 C   0  0  0  0  0  3  0  0  0  0  0  0
  -21.9030   -7.6300   21.2490 O   0  0  0  0  0  0  0  0  0  0  0  0
  -21.7720   -6.9120   22.4100 C   0  0  0  0  0  0  0  0  0  0  0  0
  -21.4140   -7.5260   23.6300 C   0  0  0  0  0  3  0  0  0  0  0  0
  -21.2200   -6.7410   24.7840 C   0  0  0  0  0  3  0  0  0  0  0  0
  -21.3730   -5.3430   24.7190 C   0  0  0  0  0  0  0  0  0  0  0  0
  -21.7210   -4.7300   23.5030 C   0  0  0  0  0  3  0  0  0  0  0  0
  -21.9160   -5.5130   22.3520 C   0  0  0  0  0  0  0  0  0  0  0  0
  -22.2310   -4.9140   21.1790 F   0  0  0  0  0  0  0  0  0  0  0  0
  -21.1790   -4.5860   25.8250 F   0  0  0  0  0  0  0  0  0  0  0  0
  -23.7450  -14.1110   21.0210 C   0  0  0  0  0  0  0  0  0  0  0  0
  -23.0020  -13.5010   21.9410 N   0  0  0  0  0  0  0  0  0  0  0  0
  -23.3890  -15.1790   20.5250 O   0  0  0  0  0  0  0  0  0  0  0  0
  -23.3010  -12.6320   22.3560 H   0  0  0  0  0  0  0  0  0  0  0  0
  -22.1250  -13.9120   22.2280 H   0  0  0  0  0  0  0  0  0  0  0  0
  -26.5150  -15.4770   20.0960 N   0  0  0  0  0  0  0  0  0  0  0  0
  -25.8510  -16.2230   20.2650 H   0  0  0  0  0  0  0  0  0  0  0  0
  -27.4070  -15.8130   19.7590 H   0  0  0  0  0  0  0  0  0  0  0  0
  -27.5420  -21.6000   18.8160 N   0  0  0  0  0  4  0  0  0  0  0  0
  -27.7390  -22.1040   19.6650 H   0  0  0  0  0  0  0  0  0  0  0  0
  -26.6160  -21.8520   18.5060 H   0  0  0  0  0  0  0  0  0  0  0  0
  -28.4940  -22.0210   17.7660 C   0  0  0  0  0  2  0  0  0  0  0  0
  -28.9710  -23.4900   17.9350 C   0  0  0  0  0  3  0  0  0  0  0  0
  -27.8790  -24.5330   18.2840 C   0  0  0  0  0  3  0  0  0  0  0  0
  -28.3100  -26.0190   18.1810 C   0  0  0  0  0  2  0  0  0  0  0  0
  -28.1060  -26.7910   19.3750 O   0  0  0  0  0  0  0  0  0  0  0  0
  -24.5460  -31.6520   23.2010 C   0  0  0  0  0  0  0  0  0  0  0  0
  -26.9310  -27.5070   19.5150 C   0  0  0  0  0  0  0  0  0  0  0  0
  -23.2170  -30.4240   21.5070 C   0  0  0  0  0  3  0  0  0  0  0  0
  -24.5560  -29.0170   19.8520 C   0  0  0  0  0  0  0  0  0  0  0  0
  -25.7290  -30.7630   21.1950 C   0  0  0  0  0  2  0  0  0  0  0  0
  -25.7530  -29.4560   20.4290 C   0  0  0  0  0  0  0  0  0  0  0  0
  -26.9370  -28.6980   20.2810 C   0  0  0  0  0  3  0  0  0  0  0  0
  -25.7150  -27.0840   18.9370 C   0  0  0  0  0  3  0  0  0  0  0  0
  -24.5330  -27.8250   19.1140 C   0  0  0  0  0  3  0  0  0  0  0  0
  -23.3270  -29.8700   20.0600 C   0  0  0  0  0  2  0  0  0  0  0  0
  -24.5180  -30.9580   22.0260 N   0  0  0  0  0  0  0  0  0  0  0  0
  -23.5040  -31.8850   23.8270 O   0  0  0  0  0  0  0  0  0  0  0  0
  -22.6080  -29.3270   22.4030 C   0  0  0  0  0  0  0  0  0  0  0  0
  -21.2840  -29.1360   22.2900 N   0  0  0  0  0  0  0  0  0  0  0  0
  -23.3190  -28.6580   23.1550 O   0  0  0  0  0  0  0  0  0  0  0  0
  -20.7740  -29.7310   21.6510 H   0  0  0  0  0  0  0  0  0  0  0  0
  -17.9580  -27.7770   22.6760 C   0  0  0  0  0  0  0  0  0  0  0  0
  -20.4980  -28.1280   22.9980 C   0  0  0  0  0  3  0  0  0  0  0  0
  -20.6710  -26.7300   22.3590 C   0  0  0  0  0  2  0  0  0  0  0  0
  -19.5960  -26.4050   21.3150 C   0  0  0  0  0  2  0  0  0  0  0  0
  -18.2040  -26.4610   21.9540 C   0  0  0  0  0  2  0  0  0  0  0  0
  -19.0380  -28.5650   23.1530 C   0  0  0  0  0  0  0  0  0  0  0  0
  -18.7600  -29.7920   23.7950 C   0  0  0  0  0  3  0  0  0  0  0  0
  -17.4320  -30.2270   23.9700 C   0  0  0  0  0  3  0  0  0  0  0  0
  -16.3670  -29.4370   23.5090 C   0  0  0  0  0  3  0  0  0  0  0  0
  -16.6300  -28.2130   22.8660 C   0  0  0  0  0  3  0  0  0  0  0  0
  -25.8790  -32.2010   23.7980 C   0  0  0  0  0  3  0  0  0  0  0  0
  -25.6340  -33.5780   24.2420 N   0  0  0  0  0  0  0  0  0  0  0  0
  -25.9660  -34.6730   23.5450 C   0  0  0  0  0  0  0  0  0  0  0  0
  -26.5840  -34.6270   22.4750 O   0  0  0  0  0  0  0  0  0  0  0  0
  -25.0920  -33.6940   25.0860 H   0  0  0  0  0  0  0  0  0  0  0  0
  -24.2800  -36.5340   23.3920 C   0  0  0  0  0  1  0  0  0  0  0  0
  -25.5400  -36.0360   24.1210 C   0  0  0  0  0  3  0  0  0  0  0  0
  -27.7320  -36.8000   24.9240 C   0  0  0  0  0  1  0  0  0  0  0  0
  -26.5990  -37.0650   24.0420 N   0  0  0  0  0  0  0  0  0  0  0  0
  -26.2280  -37.9810   24.2740 H   0  0  0  0  0  0  0  0  0  0  0  0
  -26.4390  -31.3240   24.9840 C   0  0  1  0  0  0  0  0  0  0  0  0
  -25.3980  -31.0440   26.0920 C   0  0  0  0  0  1  0  0  0  0  0  0
  -26.9520  -29.9610   24.4610 C   0  0  0  0  0  1  0  0  0  0  0  0
  -27.6540  -32.0290   25.6330 C   0  0  0  0  0  1  0  0  0  0  0  0
  1  7  1  0
  2  3  1  0
  4  7  2  0
  4  5  1  0
  5 10  1  0
  5  2  2  0
  6  9  1  0
  6  3  2  0
  7  6  1  0
  9  8  1  0
 11 17  1  0
 12 17  1  0
 13 14  1  0
 13 12  1  0
 15 14  1  0
 15 24  1  0
 15 16  1  0
 17 16  1  0
 18 11  2  0
 19 11  1  0
 19 10  1  0
 20 19  1  0
 21 22  2  0
 22 41  1  0
 23 22  1  0
 23 26  1  0
 24 25  1  0
 24 21  1  0
 25 23  2  0
 26 27  1  0
 27 28  2  0
 29 32  1  0
 29 28  1  0
 30 29  2  0
 31 30  1  0
 31 26  2  0
 32 33  1  0
 33 34  1  0
 34 35  2  0
 36 35  1  0
 36 40  1  0
 37 36  2  0
 38 33  2  0
 38 37  1  0
 39 38  1  0
 41 42  1  0
 42 45  1  0
 42 44  1  0
 43 41  2  0
 46 21  1  0
 46 47  1  0
 48 46  1  0
 49  1  1  0
 49 50  1  0
 51 49  1  0
 52 53  1  0
 52 49  1  0
 53 54  2  0
 55 54  1  0
 55 56  1  0
 56 58  1  0
 57 68  2  0
 58 63  1  0
 59 67  1  0
 59 69  1  0
 60 66  1  0
 60 62  1  0
 61 67  1  0
 62 61  1  0
 63 62  2  0
 64 65  1  0
 64 58  2  0
 65 60  2  0
 66 59  1  0
 67 57  1  0
 69 71  2  0
 70 69  1  0
 72 70  1  0
 73 82  2  0
 73 78  1  0
 74 70  1  0
 74 78  1  0
 75 74  1  0
 76 77  1  0
 76 75  1  0
 77 73  1  0
 78 79  2  0
 79 80  1  0
 81 80  2  0
 82 81  1  0
 83 57  1  0
 83 84  1  0
 83 93  1  0
 84 87  1  0
 85 89  1  0
 85 84  1  0
 86 85  2  0
 89 88  1  0
 91 89  1  0
 91 92  1  0
 91 90  1  0
 93 96  1  1
 93 94  1  0
 95 93  1  0
M  ISO  4  11 100  19 100  55 101  56 101
M  END
>  <TORSDO>  (81) 
F 24

>  <SCORE>  (81) 
-11.775

>  <name>  (81) 
81

>  <ligand_id>  (81) 
81

>  <original_smiles>  (81) 
[H]c1c([H])c([H])c2c(c1[H])C([H])([H])C([H])([H])C([H])([H])C2([H])N([H])C(=O)C1([H])N(C(=O)C([H])(N([H])C(=O)C([H])(N([H])C([H])([H])[H])C([H])([H])[H])C(C([H])([H])[H])(C([H])([H])[H])C([H])([H])[H])C([H])([H])c2c([H])c(OC([H])([H])C([H])([H])C([H])([H])C([H])([H])[N+]([H])([H])C([H])([H])c3c([H])c(C([H])([H])N([H])C(=O)N4C([H])([H])C([H])([H])C([H])([H])C([H])(n5nc(-c6c([H])c([H])c(Oc7c([H])c([H])c(F)c([H])c7F)c([H])c6[H])c(C(=O)N([H])[H])c5N([H])[H])C4([H])[H])c([H])c([H])c3C([H])([H])C([H])([H])[H])c([H])c([H])c2C1([H])[H]

>  <smiles>  (81) 
[H]c1c([H])c([H])c2c(c1[H])C([H])([H])C([H])([H])C([H])([H])C2([H])N([H])C(=O)C1([H])N(C(=O)C([H])(N([H])C(=O)C([H])(N([H])C([H])([H])[H])C([H])([H])[H])C(C([H])([H])[H])(C([H])([H])[H])C([H])([H])[H])C([H])([H])c2c([H])c(OC([H])([H])C([H])([H])C([H])([H])C([H])([H])[N+]([H])([H])C([H])([H])c3c([H])c(C([H])([H])N([H])C(=O)N4C([H])([H])C([H])([H])C([H])([H])C([H])(n5nc(-c6c([H])c([H])c(Oc7c([H])c([H])c(F)c([H])c7F)c([H])c6[H])c(C(=O)N([H])[H])c5N([H])[H])C4([H])[H])c([H])c([H])c3C([H])([H])C([H])([H])[H])c([H])c([H])c2C1([H])[H]

$$$$
82:0:0
     RDKit          3D

 97105  0  0  1  0  0  0  0  0999 V2000
  -26.8210  -24.6680   26.0200 C   0  0  0  0  0  2  0  0  0  0  0  0
  -27.2040  -25.6540   24.9040 C   0  0  0  0  0  2  0  0  0  0  0  0
  -27.5010  -23.5930   23.4090 C   0  0  0  0  0  2  0  0  0  0  0  0
  -27.9460  -23.7110   26.4430 C   0  0  0  0  0  2  0  0  0  0  0  0
  -28.3070  -22.5690   24.2420 C   0  0  0  0  0  2  0  0  0  0  0  0
  -27.9080  -25.0590   23.6600 C   0  0  0  0  0  3  0  0  0  0  0  0
  -27.9410  -22.4300   25.6850 N   0  0  1  0  0  4  0  0  0  0  0  0
  -26.9910  -22.0900   25.7170 H   0  0  0  0  0  0  0  0  0  0  0  0
  -28.7600  -21.3990   26.3990 C   0  0  0  0  0  2  0  0  0  0  0  0
  -28.7350  -20.0110   25.7250 C   0  0  0  0  0  2  0  0  0  0  0  0
  -29.4840  -18.8860   26.4600 C   0  0  0  0  0  2  0  0  0  0  0  0
  -29.5990  -17.6610   25.5360 C   0  0  0  0  0  2  0  0  0  0  0  0
  -30.5500  -16.5640   26.0350 C   0  0  0  0  0  2  0  0  0  0  0  0
  -30.8510  -15.5080   24.9540 C   0  0  0  0  0  2  0  0  0  0  0  0
  -31.7410  -16.0360   23.8100 C   0  0  0  0  0  2  0  0  0  0  0  0
  -32.1240  -14.9710   22.7770 C   0  0  0  0  0  2  0  0  0  0  0  0
  -30.8880  -14.2120   20.7670 C   0  0  0  0  0  0  0  0  0  0  0  0
  -30.3980  -12.2740   19.3470 C   0  0  0  0  0  2  0  0  0  0  0  0
  -29.4570  -12.5450   18.1670 C   0  0  0  0  0  2  0  0  0  0  0  0
  -27.9950  -12.3810   18.6080 C   0  0  0  0  0  2  0  0  0  0  0  0
  -27.6680  -13.2070   19.8770 C   0  0  0  0  0  3  0  0  0  0  0  0
  -28.7150  -12.9730   20.9920 C   0  0  0  0  0  2  0  0  0  0  0  0
  -30.0670  -13.1890   20.4460 N   0  0  0  0  0  0  0  0  0  0  0  0
  -31.7280  -14.6880   19.9960 O   0  0  0  0  0  0  0  0  0  0  0  0
  -30.9590  -14.4230   22.0850 N   0  0  0  0  0  0  0  0  0  0  0  0
  -30.2810  -13.9310   22.6480 H   0  0  0  0  0  0  0  0  0  0  0  0
  -25.2620  -13.8170   20.5700 C   0  0  0  0  0  0  0  0  0  0  0  0
  -24.1850  -13.0450   20.9170 C   0  0  0  0  0  0  0  0  0  0  0  0
  -24.6400  -11.6920   20.8730 C   0  0  0  0  0  0  0  0  0  0  0  0
  -26.3070  -12.9350   20.3420 N   0  0  0  0  0  0  0  0  0  0  0  0
  -25.9340  -11.6500   20.5780 N   0  0  0  0  0  0  0  0  0  0  0  0
  -23.9060  -10.4300   21.0400 C   0  0  0  0  0  0  0  0  0  0  0  0
  -24.3620   -9.4220   21.9170 C   0  0  0  0  0  3  0  0  0  0  0  0
  -23.6290   -8.2250   22.0750 C   0  0  0  0  0  3  0  0  0  0  0  0
  -22.4270   -8.0290   21.3550 C   0  0  0  0  0  0  0  0  0  0  0  0
  -21.9910   -9.0260   20.4640 C   0  0  0  0  0  3  0  0  0  0  0  0
  -22.7240  -10.2140   20.3050 C   0  0  0  0  0  3  0  0  0  0  0  0
  -21.6640   -6.8880   21.4230 O   0  0  0  0  0  0  0  0  0  0  0  0
  -21.6850   -6.0730   22.5280 C   0  0  0  0  0  0  0  0  0  0  0  0
  -21.4020   -6.5640   23.8210 C   0  0  0  0  0  3  0  0  0  0  0  0
  -21.3660   -5.6790   24.9170 C   0  0  0  0  0  3  0  0  0  0  0  0
  -21.6040   -4.3050   24.7230 C   0  0  0  0  0  0  0  0  0  0  0  0
  -21.8820   -3.8150   23.4340 C   0  0  0  0  0  3  0  0  0  0  0  0
  -21.9200   -4.6960   22.3400 C   0  0  0  0  0  0  0  0  0  0  0  0
  -22.1660   -4.2150   21.0980 F   0  0  0  0  0  0  0  0  0  0  0  0
  -21.5630   -3.4540   25.7740 F   0  0  0  0  0  0  0  0  0  0  0  0
  -22.7880  -13.5250   21.1830 C   0  0  0  0  0  0  0  0  0  0  0  0
  -22.0510  -12.8230   22.0390 N   0  0  0  0  0  0  0  0  0  0  0  0
  -22.3560  -14.5550   20.6690 O   0  0  0  0  0  0  0  0  0  0  0  0
  -22.4120  -11.9890   22.4780 H   0  0  0  0  0  0  0  0  0  0  0  0
  -21.1130  -13.1260   22.2590 H   0  0  0  0  0  0  0  0  0  0  0  0
  -25.4340  -15.1890   20.4100 N   0  0  0  0  0  0  0  0  0  0  0  0
  -24.6740  -15.8510   20.5210 H   0  0  0  0  0  0  0  0  0  0  0  0
  -26.3020  -15.6260   20.1210 H   0  0  0  0  0  0  0  0  0  0  0  0
  -27.6530  -25.9950   22.4520 C   0  0  0  0  0  2  0  0  0  0  0  0
  -28.4070  -25.6840   21.1270 C   0  0  0  0  0  2  0  0  0  0  0  0
  -28.4040  -26.7500   20.1630 O   0  0  0  0  0  0  0  0  0  0  0  0
  -24.6080  -31.8680   23.2130 C   0  0  0  0  0  0  0  0  0  0  0  0
  -27.2430  -27.4790   20.0990 C   0  0  0  0  0  0  0  0  0  0  0  0
  -23.3950  -30.4860   21.5530 C   0  0  0  0  0  3  0  0  0  0  0  0
  -24.8460  -28.9570   20.1120 C   0  0  0  0  0  0  0  0  0  0  0  0
  -25.9170  -30.8530   21.3530 C   0  0  0  0  0  2  0  0  0  0  0  0
  -26.0010  -29.4920   20.6970 C   0  0  0  0  0  0  0  0  0  0  0  0
  -27.2070  -28.7630   20.6780 C   0  0  0  0  0  3  0  0  0  0  0  0
  -26.0790  -26.9430   19.5110 C   0  0  0  0  0  3  0  0  0  0  0  0
  -24.8780  -27.6830   19.5120 C   0  0  0  0  0  3  0  0  0  0  0  0
  -23.6010  -29.8140   20.1670 C   0  0  0  0  0  2  0  0  0  0  0  0
  -24.6580  -31.0820   22.0990 N   0  0  0  0  0  0  0  0  0  0  0  0
  -23.5280  -32.1410   23.7560 O   0  0  0  0  0  0  0  0  0  0  0  0
  -22.7390  -29.4600   22.5040 C   0  0  0  0  0  0  0  0  0  0  0  0
  -21.4120  -29.2990   22.3780 N   0  0  0  0  0  0  0  0  0  0  0  0
  -23.4190  -28.8140   23.3060 O   0  0  0  0  0  0  0  0  0  0  0  0
  -20.9280  -29.8750   21.7030 H   0  0  0  0  0  0  0  0  0  0  0  0
  -18.0250  -28.1370   22.8470 C   0  0  0  0  0  0  0  0  0  0  0  0
  -20.5840  -28.3630   23.1350 C   0  0  0  0  0  3  0  0  0  0  0  0
  -20.6740  -26.9370   22.5440 C   0  0  0  0  0  2  0  0  0  0  0  0
  -19.5730  -26.6370   21.5210 C   0  0  0  0  0  2  0  0  0  0  0  0
  -18.1900  -26.7910   22.1620 C   0  0  0  0  0  2  0  0  0  0  0  0
  -19.1500  -28.8820   23.2900 C   0  0  0  0  0  0  0  0  0  0  0  0
  -18.9440  -30.1440   23.8880 C   0  0  0  0  0  3  0  0  0  0  0  0
  -17.6450  -30.6580   24.0560 C   0  0  0  0  0  3  0  0  0  0  0  0
  -16.5340  -29.9070   23.6340 C   0  0  0  0  0  3  0  0  0  0  0  0
  -16.7240  -28.6510   23.0320 C   0  0  0  0  0  3  0  0  0  0  0  0
  -25.8990  -32.4830   23.8390 C   0  0  0  0  0  3  0  0  0  0  0  0
  -26.4430  -31.6620   25.0710 C   0  0  1  0  0  0  0  0  0  0  0  0
  -25.3720  -31.3740   26.1480 C   0  0  0  0  0  1  0  0  0  0  0  0
  -27.0240  -30.3060   24.6060 C   0  0  0  0  0  1  0  0  0  0  0  0
  -27.5990  -32.4360   25.7460 C   0  0  0  0  0  1  0  0  0  0  0  0
  -25.5860  -33.8630   24.2300 N   0  0  0  0  0  0  0  0  0  0  0  0
  -25.9040  -34.9490   23.5130 C   0  0  0  0  0  0  0  0  0  0  0  0
  -26.5630  -34.8940   22.4710 O   0  0  0  0  0  0  0  0  0  0  0  0
  -24.9930  -33.9800   25.0400 H   0  0  0  0  0  0  0  0  0  0  0  0
  -24.1490  -36.7320   23.2640 C   0  0  0  0  0  1  0  0  0  0  0  0
  -25.4120  -36.3130   24.0340 C   0  0  0  0  0  3  0  0  0  0  0  0
  -27.5600  -37.1800   24.8460 C   0  0  0  0  0  1  0  0  0  0  0  0
  -26.4300  -37.3810   23.9400 N   0  0  0  0  0  0  0  0  0  0  0  0
  -26.0210  -38.2890   24.1440 H   0  0  0  0  0  0  0  0  0  0  0  0
  1  4  1  0
  2  1  1  0
  3  6  1  0
  3  5  1  0
  5  7  1  0
  6 55  1  0
  6  2  1  0
  7  8  1  6
  7  9  1  0
  7  4  1  0
 10  9  1  0
 10 11  1  0
 12 13  1  0
 12 11  1  0
 14 13  1  0
 15 14  1  0
 16 15  1  0
 17 25  1  0
 18 23  1  0
 19 20  1  0
 19 18  1  0
 21 20  1  0
 21 30  1  0
 21 22  1  0
 23 17  1  0
 23 22  1  0
 24 17  2  0
 25 26  1  0
 25 16  1  0
 27 28  2  0
 28 47  1  0
 29 28  1  0
 29 32  1  0
 30 27  1  0
 30 31  1  0
 31 29  2  0
 32 33  1  0
 33 34  2  0
 35 38  1  0
 35 34  1  0
 36 35  2  0
 37 36  1  0
 37 32  2  0
 38 39  1  0
 39 40  1  0
 40 41  2  0
 42 41  1  0
 42 46  1  0
 43 42  2  0
 44 39  2  0
 44 43  1  0
 45 44  1  0
 47 48  1  0
 48 51  1  0
 48 50  1  0
 49 47  2  0
 52 53  1  0
 52 27  1  0
 54 52  1  0
 56 55  1  0
 57 56  1  0
 58 69  2  0
 59 57  1  0
 59 64  1  0
 60 68  1  0
 60 70  1  0
 61 67  1  0
 61 63  1  0
 62 68  1  0
 63 62  1  0
 64 63  2  0
 65 66  1  0
 65 59  2  0
 66 61  2  0
 67 60  1  0
 68 58  1  0
 70 72  2  0
 71 70  1  0
 73 71  1  0
 74 83  2  0
 74 79  1  0
 75 71  1  0
 75 79  1  0
 76 75  1  0
 77 78  1  0
 77 76  1  0
 78 74  1  0
 79 80  2  0
 80 81  1  0
 82 81  2  0
 83 82  1  0
 84 58  1  0
 84 89  1  0
 84 85  1  0
 85 88  1  1
 85 86  1  0
 87 85  1  0
 89 92  1  0
 90 94  1  0
 90 89  1  0
 91 90  2  0
 94 93  1  0
 96 94  1  0
 96 97  1  0
 96 95  1  0
M  ISO  4  17 100  25 100  56 101  57 101
M  END
>  <TORSDO>  (82) 
F 26

>  <SCORE>  (82) 
32.574

>  <name>  (82) 
82

>  <ligand_id>  (82) 
82

>  <original_smiles>  (82) 
[H]c1c([H])c([H])c2c(c1[H])C([H])([H])C([H])([H])C([H])([H])C2([H])N([H])C(=O)C1([H])N(C(=O)C([H])(N([H])C(=O)C([H])(N([H])C([H])([H])[H])C([H])([H])[H])C(C([H])([H])[H])(C([H])([H])[H])C([H])([H])[H])C([H])([H])c2c([H])c(OC([H])([H])C([H])([H])C3([H])C([H])([H])C([H])([H])C([H])([H])[N+]([H])(C([H])([H])C([H])([H])C([H])([H])C([H])([H])C([H])([H])C([H])([H])C([H])([H])C([H])([H])N([H])C(=O)N4C([H])([H])C([H])([H])C([H])([H])C([H])(n5nc(-c6c([H])c([H])c(Oc7c([H])c([H])c(F)c([H])c7F)c([H])c6[H])c(C(=O)N([H])[H])c5N([H])[H])C4([H])[H])C([H])([H])C3([H])[H])c([H])c([H])c2C1([H])[H]

>  <smiles>  (82) 
[H]c1c([H])c([H])c2c(c1[H])C([H])([H])C([H])([H])C([H])([H])C2([H])N([H])C(=O)C1([H])N(C(=O)C([H])(N([H])C(=O)C([H])(N([H])C([H])([H])[H])C([H])([H])[H])C(C([H])([H])[H])(C([H])([H])[H])C([H])([H])[H])C([H])([H])c2c([H])c(OC([H])([H])C([H])([H])C3([H])C([H])([H])C([H])([H])C([H])([H])[N+]([H])(C([H])([H])C([H])([H])C([H])([H])C([H])([H])C([H])([H])C([H])([H])C([H])([H])C([H])([H])N([H])C(=O)N4C([H])([H])C([H])([H])C([H])([H])C([H])(n5nc(-c6c([H])c([H])c(Oc7c([H])c([H])c(F)c([H])c7F)c([H])c6[H])c(C(=O)N([H])[H])c5N([H])[H])C4([H])[H])C([H])([H])C3([H])[H])c([H])c([H])c2C1([H])[H]

$$$$
83:0:0
     RDKit          3D

 96105  0  0  1  0  0  0  0  0999 V2000
  -31.1780  -14.5680   20.1670 C   0  0  0  0  0  0  0  0  0  0  0  0
  -30.6970  -12.5100   18.9350 C   0  0  0  0  0  2  0  0  0  0  0  0
  -29.7480  -12.8650   17.7700 C   0  0  0  0  0  2  0  0  0  0  0  0
  -28.2790  -12.7830   18.2310 C   0  0  0  0  0  2  0  0  0  0  0  0
  -28.0190  -13.5650   19.5480 C   0  0  0  0  0  3  0  0  0  0  0  0
  -29.0890  -13.2350   20.6140 C   0  0  0  0  0  2  0  0  0  0  0  0
  -30.4140  -13.4590   20.0170 N   0  0  0  0  0  0  0  0  0  0  0  0
  -32.3360  -14.6500   19.7440 O   0  0  0  0  0  0  0  0  0  0  0  0
  -29.4310  -17.4280   21.8370 C   0  0  0  0  0  2  0  0  0  0  0  0
  -30.9630  -19.3460   21.1350 C   0  0  0  0  0  2  0  0  0  0  0  0
  -30.4210  -16.2500   21.7330 C   0  0  0  0  0  2  0  0  0  0  0  0
  -30.6530  -16.6960   19.3080 C   0  0  0  0  0  2  0  0  0  0  0  0
  -31.7620  -19.9510   19.9650 C   0  0  0  0  0  2  0  0  0  0  0  0
  -29.7490  -20.2980   18.4670 C   0  0  0  0  0  2  0  0  0  0  0  0
  -29.6980  -18.5210   20.7800 C   0  0  0  0  0  3  0  0  0  0  0  0
  -29.6620  -17.8620   19.3780 C   0  0  0  0  0  3  0  0  0  0  0  0
  -29.8440  -18.7900   18.1350 C   0  0  0  0  0  3  0  0  0  0  0  0
  -30.4740  -15.6980   20.3710 N   0  0  0  0  0  0  0  0  0  0  0  0
  -30.9900  -20.8580   19.0780 N   0  0  1  0  0  4  0  0  0  0  0  0
  -31.6160  -21.0100   18.3000 H   0  0  0  0  0  0  0  0  0  0  0  0
  -25.6570  -14.2420   20.3070 C   0  0  0  0  0  0  0  0  0  0  0  0
  -24.5710  -13.5000   20.6880 C   0  0  0  0  0  0  0  0  0  0  0  0
  -24.9870  -12.1340   20.6340 C   0  0  0  0  0  0  0  0  0  0  0  0
  -26.6690  -13.3310   20.0490 N   0  0  0  0  0  0  0  0  0  0  0  0
  -26.2710  -12.0570   20.3010 N   0  0  0  0  0  0  0  0  0  0  0  0
  -24.2250  -10.8940   20.8310 C   0  0  0  0  0  0  0  0  0  0  0  0
  -24.6410   -9.9110   21.7550 C   0  0  0  0  0  3  0  0  0  0  0  0
  -23.8840   -8.7340   21.9360 C   0  0  0  0  0  3  0  0  0  0  0  0
  -22.6960   -8.5320   21.1950 C   0  0  0  0  0  0  0  0  0  0  0  0
  -22.2980   -9.5050   20.2610 C   0  0  0  0  0  3  0  0  0  0  0  0
  -23.0540  -10.6740   20.0780 C   0  0  0  0  0  3  0  0  0  0  0  0
  -21.9120   -7.4080   21.2870 O   0  0  0  0  0  0  0  0  0  0  0  0
  -21.8690   -6.6500   22.4300 C   0  0  0  0  0  0  0  0  0  0  0  0
  -21.4710   -7.1950   23.6690 C   0  0  0  0  0  3  0  0  0  0  0  0
  -21.3730   -6.3650   24.8050 C   0  0  0  0  0  3  0  0  0  0  0  0
  -21.6640   -4.9920   24.7010 C   0  0  0  0  0  0  0  0  0  0  0  0
  -22.0500   -4.4440   23.4650 C   0  0  0  0  0  3  0  0  0  0  0  0
  -22.1510   -5.2720   22.3320 C   0  0  0  0  0  0  0  0  0  0  0  0
  -22.5050   -4.7360   21.1390 F   0  0  0  0  0  0  0  0  0  0  0  0
  -21.5620   -4.1930   25.7900 F   0  0  0  0  0  0  0  0  0  0  0  0
  -23.1970  -14.0190   20.9980 C   0  0  0  0  0  0  0  0  0  0  0  0
  -22.4770  -13.3500   21.8920 N   0  0  0  0  0  0  0  0  0  0  0  0
  -22.7710  -15.0530   20.4840 O   0  0  0  0  0  0  0  0  0  0  0  0
  -22.8350  -12.5120   22.3270 H   0  0  0  0  0  0  0  0  0  0  0  0
  -21.5560  -13.6800   22.1450 H   0  0  0  0  0  0  0  0  0  0  0  0
  -25.8630  -15.6070   20.1400 N   0  0  0  0  0  0  0  0  0  0  0  0
  -25.1230  -16.2880   20.2690 H   0  0  0  0  0  0  0  0  0  0  0  0
  -26.7320  -16.0220   19.8290 H   0  0  0  0  0  0  0  0  0  0  0  0
  -29.1300  -19.0140   15.6450 C   0  0  0  0  0  1  0  0  0  0  0  0
  -28.8700  -18.3570   17.0110 C   0  0  0  0  0  2  0  0  0  0  0  0
  -30.7990  -22.1980   19.6780 C   0  0  0  0  0  2  0  0  0  0  0  0
  -30.2940  -23.2290   18.6560 C   0  0  0  0  0  2  0  0  0  0  0  0
  -30.2100  -24.6210   19.2810 C   0  0  0  0  0  2  0  0  0  0  0  0
  -29.4710  -25.6210   18.3870 C   0  0  0  0  0  2  0  0  0  0  0  0
  -29.3930  -27.0000   19.0420 C   0  0  0  0  0  2  0  0  0  0  0  0
  -28.6680  -26.9010   20.2640 O   0  0  0  0  0  0  0  0  0  0  0  0
  -24.5560  -31.8320   23.2700 C   0  0  0  0  0  0  0  0  0  0  0  0
  -27.4640  -27.5460   20.2540 C   0  0  0  0  0  0  0  0  0  0  0  0
  -23.4700  -30.4380   21.5330 C   0  0  0  0  0  3  0  0  0  0  0  0
  -25.0310  -28.9540   20.1710 C   0  0  0  0  0  0  0  0  0  0  0  0
  -25.9890  -30.8570   21.4880 C   0  0  0  0  0  2  0  0  0  0  0  0
  -26.1350  -29.5010   20.8380 C   0  0  0  0  0  0  0  0  0  0  0  0
  -27.3540  -28.7960   20.8880 C   0  0  0  0  0  3  0  0  0  0  0  0
  -26.3460  -26.9900   19.5980 C   0  0  0  0  0  3  0  0  0  0  0  0
  -25.1260  -27.6930   19.5560 C   0  0  0  0  0  3  0  0  0  0  0  0
  -23.7670  -29.7820   20.1570 C   0  0  0  0  0  2  0  0  0  0  0  0
  -24.6840  -31.0570   22.1560 N   0  0  0  0  0  0  0  0  0  0  0  0
  -23.4420  -32.0760   23.7520 O   0  0  0  0  0  0  0  0  0  0  0  0
  -22.7860  -29.3900   22.4380 C   0  0  0  0  0  0  0  0  0  0  0  0
  -21.4590  -29.2490   22.2860 N   0  0  0  0  0  0  0  0  0  0  0  0
  -23.4460  -28.7090   23.2280 O   0  0  0  0  0  0  0  0  0  0  0  0
  -20.9920  -29.8520   21.6220 H   0  0  0  0  0  0  0  0  0  0  0  0
  -18.0390  -28.1990   22.7640 C   0  0  0  0  0  0  0  0  0  0  0  0
  -20.6100  -28.2970   23.0010 C   0  0  0  0  0  3  0  0  0  0  0  0
  -20.6260  -26.9130   22.3120 C   0  0  0  0  0  2  0  0  0  0  0  0
  -19.4900  -26.7290   21.3010 C   0  0  0  0  0  2  0  0  0  0  0  0
  -18.1290  -26.9000   21.9810 C   0  0  0  0  0  2  0  0  0  0  0  0
  -19.2050  -28.8650   23.2280 C   0  0  0  0  0  0  0  0  0  0  0  0
  -19.0670  -30.0890   23.9170 C   0  0  0  0  0  3  0  0  0  0  0  0
  -17.7940  -30.6430   24.1520 C   0  0  0  0  0  3  0  0  0  0  0  0
  -16.6420  -29.9710   23.7080 C   0  0  0  0  0  3  0  0  0  0  0  0
  -16.7650  -28.7510   23.0180 C   0  0  0  0  0  3  0  0  0  0  0  0
  -25.7960  -32.4700   23.9730 C   0  0  0  0  0  3  0  0  0  0  0  0
  -25.4760  -33.8770   24.2450 N   0  0  0  0  0  0  0  0  0  0  0  0
  -25.8720  -34.9060   23.4840 C   0  0  0  0  0  0  0  0  0  0  0  0
  -26.6160  -34.7720   22.5100 O   0  0  0  0  0  0  0  0  0  0  0  0
  -24.8280  -34.0570   24.9970 H   0  0  0  0  0  0  0  0  0  0  0  0
  -24.1740  -36.6860   22.9620 C   0  0  0  0  0  1  0  0  0  0  0  0
  -25.3600  -36.3070   23.8650 C   0  0  0  0  0  3  0  0  0  0  0  0
  -27.4290  -37.2230   24.8180 C   0  0  0  0  0  1  0  0  0  0  0  0
  -26.4000  -37.3540   23.7890 N   0  0  0  0  0  0  0  0  0  0  0  0
  -25.9870  -38.2790   23.8720 H   0  0  0  0  0  0  0  0  0  0  0  0
  -26.2100  -31.7250   25.3020 C   0  0  1  0  0  0  0  0  0  0  0  0
  -25.0350  -31.5100   26.2840 C   0  0  0  0  0  1  0  0  0  0  0  0
  -26.8190  -30.3390   24.9850 C   0  0  0  0  0  1  0  0  0  0  0  0
  -27.3070  -32.5320   26.0370 C   0  0  0  0  0  1  0  0  0  0  0  0
  1 18  1  0
  2  7  1  0
  3  4  1  0
  3  2  1  0
  5  4  1  0
  5 24  1  0
  5  6  1  0
  7  1  1  0
  7  6  1  0
  8  1  2  0
 11  9  1  0
 12 18  1  0
 13 10  1  0
 14 19  1  0
 15 10  1  0
 15  9  1  0
 16 12  1  0
 16 15  1  0
 17 50  1  0
 17 14  1  0
 17 16  1  0
 18 11  1  0
 19 51  1  0
 19 13  1  0
 19 20  1  6
 21 22  2  0
 22 41  1  0
 23 22  1  0
 23 26  1  0
 24 25  1  0
 24 21  1  0
 25 23  2  0
 26 27  1  0
 27 28  2  0
 29 32  1  0
 29 28  1  0
 30 29  2  0
 31 30  1  0
 31 26  2  0
 32 33  1  0
 33 34  1  0
 34 35  2  0
 36 35  1  0
 36 40  1  0
 37 36  2  0
 38 33  2  0
 38 37  1  0
 39 38  1  0
 41 42  1  0
 42 45  1  0
 42 44  1  0
 43 41  2  0
 46 47  1  0
 46 21  1  0
 48 46  1  0
 49 50  1  0
 52 53  1  0
 52 51  1  0
 54 55  1  0
 54 53  1  0
 55 56  1  0
 57 68  2  0
 58 56  1  0
 58 63  1  0
 59 67  1  0
 59 69  1  0
 60 62  1  0
 61 67  1  0
 62 63  2  0
 62 61  1  0
 64 58  2  0
 65 64  1  0
 65 60  2  0
 66 60  1  0
 66 59  1  0
 67 57  1  0
 69 71  2  0
 70 69  1  0
 72 70  1  0
 73 82  2  0
 73 78  1  0
 74 70  1  0
 74 78  1  0
 75 74  1  0
 76 77  1  0
 76 75  1  0
 77 73  1  0
 78 79  2  0
 79 80  1  0
 81 80  2  0
 82 81  1  0
 83 57  1  0
 83 84  1  0
 83 93  1  0
 84 87  1  0
 85 89  1  0
 85 84  1  0
 86 85  2  0
 89 88  1  0
 91 89  1  0
 91 92  1  0
 91 90  1  0
 93 96  1  1
 93 94  1  0
 95 93  1  0
M  ISO  4   1 100  18 100  55 101  56 101
M  END
>  <TORSDO>  (83) 
F 21

>  <SCORE>  (83) 
-12.868

>  <name>  (83) 
83

>  <ligand_id>  (83) 
83

>  <original_smiles>  (83) 
[H]c1c([H])c([H])c2c(c1[H])C([H])([H])C([H])([H])C([H])([H])C2([H])N([H])C(=O)C1([H])N(C(=O)C([H])(N([H])C(=O)C([H])(N([H])C([H])([H])[H])C([H])([H])[H])C(C([H])([H])[H])(C([H])([H])[H])C([H])([H])[H])C([H])([H])c2c([H])c(OC([H])([H])C([H])([H])C([H])([H])C([H])([H])C([H])([H])[N+]3([H])C([H])([H])C([H])([H])C4([H])C([H])([H])C([H])([H])N(C(=O)N5C([H])([H])C([H])([H])C([H])([H])C([H])(n6nc(-c7c([H])c([H])c(Oc8c([H])c([H])c(F)c([H])c8F)c([H])c7[H])c(C(=O)N([H])[H])c6N([H])[H])C5([H])[H])C([H])([H])C4([H])C([H])(C([H])([H])C([H])([H])[H])C3([H])[H])c([H])c([H])c2C1([H])[H]

>  <smiles>  (83) 
[H]c1c([H])c([H])c2c(c1[H])C([H])([H])C([H])([H])C([H])([H])C2([H])N([H])C(=O)C1([H])N(C(=O)C([H])(N([H])C(=O)C([H])(N([H])C([H])([H])[H])C([H])([H])[H])C(C([H])([H])[H])(C([H])([H])[H])C([H])([H])[H])C([H])([H])c2c([H])c(OC([H])([H])C([H])([H])C([H])([H])C([H])([H])C([H])([H])[N+]3([H])C([H])([H])C([H])([H])C4([H])C([H])([H])C([H])([H])N(C(=O)N5C([H])([H])C([H])([H])C([H])([H])C([H])(n6nc(-c7c([H])c([H])c(Oc8c([H])c([H])c(F)c([H])c8F)c([H])c7[H])c(C(=O)N([H])[H])c6N([H])[H])C5([H])[H])C([H])([H])C4([H])C([H])(C([H])([H])C([H])([H])[H])C3([H])[H])c([H])c([H])c2C1([H])[H]

$$$$
84:0:0
     RDKit          3D

100109  0  0  1  0  0  0  0  0999 V2000
  -30.8450  -22.9490   17.4980 C   0  0  0  0  0  2  0  0  0  0  0  0
  -31.1310  -23.9410   18.6300 C   0  0  0  0  0  3  0  0  0  0  0  0
  -31.1000  -23.1100   19.9460 C   0  0  0  0  0  3  0  0  0  0  0  0
  -31.0940  -21.6380   19.4300 C   0  0  0  0  0  3  0  0  0  0  0  0
  -30.3450  -21.7480   18.1670 N   0  0  0  0  0  4  0  0  0  0  0  0
  -30.4690  -20.9390   17.5790 H   0  0  0  0  0  0  0  0  0  0  0  0
  -29.3630  -21.8800   18.3460 H   0  0  0  0  0  0  0  0  0  0  0  0
  -30.6460  -20.5410   20.4570 C   0  0  0  0  0  2  0  0  0  0  0  0
  -29.6380  -16.6830   20.4030 C   0  0  0  0  0  3  0  0  0  0  0  0
  -30.6350  -17.8550   20.3180 C   0  0  0  0  0  0  0  0  0  0  0  0
  -28.2580  -17.0570   19.8360 C   0  0  0  0  0  2  0  0  0  0  0  0
  -28.3510  -17.8640   18.5330 C   0  0  0  0  0  2  0  0  0  0  0  0
  -29.0760  -19.1940   18.7510 C   0  0  0  0  0  2  0  0  0  0  0  0
  -29.9330  -19.2140   20.0420 C   0  0  0  0  0  3  0  0  0  0  0  0
  -29.7170  -15.5150   20.9270 N   0  0  0  0  0  2  0  0  0  0  0  0
  -31.8430  -17.7780   20.5600 O   0  0  0  0  0  0  0  0  0  0  0  0
  -30.6960  -14.5850   20.5840 C   0  0  0  0  0  0  0  0  0  0  0  0
  -30.5240  -12.4650   19.3370 C   0  0  0  0  0  2  0  0  0  0  0  0
  -29.5680  -12.7370   18.1520 C   0  0  0  0  0  2  0  0  0  0  0  0
  -28.0920  -12.5360   18.5650 C   0  0  0  0  0  2  0  0  0  0  0  0
  -27.7420  -13.2810   19.8760 C   0  0  0  0  0  3  0  0  0  0  0  0
  -28.8000  -12.9740   20.9640 C   0  0  0  0  0  2  0  0  0  0  0  0
  -30.1300  -13.3530   20.4390 N   0  0  0  0  0  0  0  0  0  0  0  0
  -31.8430  -14.8260   20.1960 O   0  0  0  0  0  0  0  0  0  0  0  0
  -25.3240  -13.9150   20.5370 C   0  0  0  0  0  0  0  0  0  0  0  0
  -24.2510  -13.1380   20.8870 C   0  0  0  0  0  0  0  0  0  0  0  0
  -24.7240  -11.7920   20.8660 C   0  0  0  0  0  0  0  0  0  0  0  0
  -26.3780  -13.0320   20.3270 N   0  0  0  0  0  0  0  0  0  0  0  0
  -26.0150  -11.7530   20.5810 N   0  0  0  0  0  0  0  0  0  0  0  0
  -24.0060  -10.5280   21.0460 C   0  0  0  0  0  0  0  0  0  0  0  0
  -24.4230   -9.5780   22.0030 C   0  0  0  0  0  3  0  0  0  0  0  0
  -23.7110   -8.3710   22.1690 C   0  0  0  0  0  3  0  0  0  0  0  0
  -22.5680   -8.1100   21.3760 C   0  0  0  0  0  0  0  0  0  0  0  0
  -22.1730   -9.0480   20.4080 C   0  0  0  0  0  3  0  0  0  0  0  0
  -22.8850  -10.2470   20.2410 C   0  0  0  0  0  3  0  0  0  0  0  0
  -21.8290   -6.9540   21.4520 O   0  0  0  0  0  0  0  0  0  0  0  0
  -21.7460   -6.2300   22.6130 C   0  0  0  0  0  0  0  0  0  0  0  0
  -21.2380   -6.7880   23.8070 C   0  0  0  0  0  3  0  0  0  0  0  0
  -21.1050   -5.9860   24.9580 C   0  0  0  0  0  3  0  0  0  0  0  0
  -21.4710   -4.6280   24.9170 C   0  0  0  0  0  0  0  0  0  0  0  0
  -21.9700   -4.0690   23.7270 C   0  0  0  0  0  3  0  0  0  0  0  0
  -22.1060   -4.8670   22.5800 C   0  0  0  0  0  0  0  0  0  0  0  0
  -22.5690   -4.3200   21.4300 F   0  0  0  0  0  0  0  0  0  0  0  0
  -21.3350   -3.8550   26.0200 F   0  0  0  0  0  0  0  0  0  0  0  0
  -22.8480  -13.6080   21.1390 C   0  0  0  0  0  0  0  0  0  0  0  0
  -22.1110  -12.9010   21.9890 N   0  0  0  0  0  0  0  0  0  0  0  0
  -22.4110  -14.6340   20.6190 O   0  0  0  0  0  0  0  0  0  0  0  0
  -22.4780  -12.0730   22.4350 H   0  0  0  0  0  0  0  0  0  0  0  0
  -21.1680  -13.1910   22.1960 H   0  0  0  0  0  0  0  0  0  0  0  0
  -25.4710  -15.2860   20.3690 N   0  0  0  0  0  0  0  0  0  0  0  0
  -24.7020  -15.9360   20.4900 H   0  0  0  0  0  0  0  0  0  0  0  0
  -26.3460  -15.7330   20.1370 H   0  0  0  0  0  0  0  0  0  0  0  0
  -32.4360  -24.7190   18.3850 C   0  0  0  0  0  2  0  0  0  0  0  0
  -32.5100  -26.0240   19.1850 C   0  0  0  0  0  2  0  0  0  0  0  0
  -33.5070  -28.3680   19.2650 C   0  0  0  0  0  1  0  0  0  0  0  0
  -33.5920  -26.9690   18.6510 C   0  0  0  0  0  2  0  0  0  0  0  0
  -29.8740  -23.4380   20.8560 C   0  0  0  0  0  2  0  0  0  0  0  0
  -29.5710  -24.9250   21.1250 C   0  0  0  0  0  2  0  0  0  0  0  0
  -28.3370  -25.4340   20.3540 C   0  0  0  0  0  2  0  0  0  0  0  0
  -28.4260  -26.8480   20.2220 O   0  0  0  0  0  0  0  0  0  0  0  0
  -24.5500  -31.9270   23.2570 C   0  0  0  0  0  0  0  0  0  0  0  0
  -27.2380  -27.5380   20.1810 C   0  0  0  0  0  0  0  0  0  0  0  0
  -23.3590  -30.5280   21.5960 C   0  0  0  0  0  3  0  0  0  0  0  0
  -24.8320  -29.0120   20.1680 C   0  0  0  0  0  0  0  0  0  0  0  0
  -25.8820  -30.9100   21.4160 C   0  0  0  0  0  2  0  0  0  0  0  0
  -25.9760  -29.5450   20.7690 C   0  0  0  0  0  0  0  0  0  0  0  0
  -27.1850  -28.8160   20.7670 C   0  0  0  0  0  3  0  0  0  0  0  0
  -26.0740  -27.0080   19.5690 C   0  0  0  0  0  3  0  0  0  0  0  0
  -24.8740  -27.7460   19.5600 C   0  0  0  0  0  3  0  0  0  0  0  0
  -23.5800  -29.8570   20.2150 C   0  0  0  0  0  2  0  0  0  0  0  0
  -24.6130  -31.1390   22.1460 N   0  0  0  0  0  0  0  0  0  0  0  0
  -23.4670  -32.1860   23.7950 O   0  0  0  0  0  0  0  0  0  0  0  0
  -22.7110  -29.4960   22.5470 C   0  0  0  0  0  0  0  0  0  0  0  0
  -21.3890  -29.3040   22.4100 N   0  0  0  0  0  0  0  0  0  0  0  0
  -23.3940  -28.8710   23.3620 O   0  0  0  0  0  0  0  0  0  0  0  0
  -20.9010  -29.8670   21.7270 H   0  0  0  0  0  0  0  0  0  0  0  0
  -18.0220  -28.0870   22.8810 C   0  0  0  0  0  0  0  0  0  0  0  0
  -20.5750  -28.3550   23.1680 C   0  0  0  0  0  3  0  0  0  0  0  0
  -20.6860  -26.9280   22.5810 C   0  0  0  0  0  2  0  0  0  0  0  0
  -19.5930  -26.6070   21.5570 C   0  0  0  0  0  2  0  0  0  0  0  0
  -18.2070  -26.7420   22.1950 C   0  0  0  0  0  2  0  0  0  0  0  0
  -19.1330  -28.8490   23.3240 C   0  0  0  0  0  0  0  0  0  0  0  0
  -18.9050  -30.1080   23.9240 C   0  0  0  0  0  3  0  0  0  0  0  0
  -17.5970  -30.6060   24.0780 C   0  0  0  0  0  3  0  0  0  0  0  0
  -16.4990  -29.8390   23.6530 C   0  0  0  0  0  3  0  0  0  0  0  0
  -16.7110  -28.5800   23.0620 C   0  0  0  0  0  3  0  0  0  0  0  0
  -25.8320  -32.5590   23.8890 C   0  0  0  0  0  3  0  0  0  0  0  0
  -25.5290  -33.9630   24.1980 N   0  0  0  0  0  0  0  0  0  0  0  0
  -25.8860  -35.0010   23.4290 C   0  0  0  0  0  0  0  0  0  0  0  0
  -26.5760  -34.8760   22.4140 O   0  0  0  0  0  0  0  0  0  0  0  0
  -24.9190  -34.1360   24.9840 H   0  0  0  0  0  0  0  0  0  0  0  0
  -24.1930  -36.8050   22.9930 C   0  0  0  0  0  1  0  0  0  0  0  0
  -25.3990  -36.3980   23.8550 C   0  0  0  0  0  3  0  0  0  0  0  0
  -27.5090  -37.2680   24.7570 C   0  0  0  0  0  1  0  0  0  0  0  0
  -26.4490  -37.4360   23.7670 N   0  0  0  0  0  0  0  0  0  0  0  0
  -26.0520  -38.3640   23.8800 H   0  0  0  0  0  0  0  0  0  0  0  0
  -26.3330  -31.7950   25.1760 C   0  0  1  0  0  0  0  0  0  0  0  0
  -25.2300  -31.5630   26.2330 C   0  0  0  0  0  1  0  0  0  0  0  0
  -26.9110  -30.4140   24.7940 C   0  0  0  0  0  1  0  0  0  0  0  0
  -27.4820  -32.5870   25.8440 C   0  0  0  0  0  1  0  0  0  0  0  0
  1  5  1  0
  1  2  1  0
  2 53  1  0
  2  3  1  0
  3 57  1  0
  4  3  1  0
  4  8  1  0
  5  7  1  0
  5  4  1  0
  6  5  1  0
  9 15  1  0
 10  9  1  0
 10 16  2  0
 11  9  1  0
 12 13  1  0
 12 11  1  0
 13 14  1  0
 14 10  1  0
 14  8  1  0
 17 15  1  0
 18 23  1  0
 19 20  1  0
 19 18  1  0
 21 20  1  0
 21 28  1  0
 21 22  1  0
 23 17  1  0
 23 22  1  0
 24 17  2  0
 25 26  2  0
 26 45  1  0
 27 26  1  0
 27 30  1  0
 28 25  1  0
 28 29  1  0
 29 27  2  0
 30 31  1  0
 31 32  2  0
 33 36  1  0
 33 32  1  0
 34 33  2  0
 35 34  1  0
 35 30  2  0
 36 37  1  0
 37 38  1  0
 38 39  2  0
 40 39  1  0
 40 44  1  0
 41 40  2  0
 42 37  2  0
 42 41  1  0
 43 42  1  0
 45 46  1  0
 46 49  1  0
 46 48  1  0
 47 45  2  0
 50 51  1  0
 50 25  1  0
 52 50  1  0
 53 54  1  0
 56 54  1  0
 56 55  1  0
 57 58  1  0
 59 58  1  0
 60 59  1  0
 61 72  2  0
 62 60  1  0
 62 67  1  0
 63 71  1  0
 63 73  1  0
 64 70  1  0
 64 66  1  0
 65 71  1  0
 66 65  1  0
 67 66  2  0
 68 62  2  0
 69 68  1  0
 69 64  2  0
 70 63  1  0
 71 61  1  0
 73 75  2  0
 74 73  1  0
 76 74  1  0
 77 86  2  0
 77 82  1  0
 78 74  1  0
 78 82  1  0
 79 78  1  0
 80 81  1  0
 80 79  1  0
 81 77  1  0
 82 83  2  0
 83 84  1  0
 85 84  2  0
 86 85  1  0
 87 61  1  0
 87 88  1  0
 87 97  1  0
 88 91  1  0
 89 93  1  0
 89 88  1  0
 90 89  2  0
 93 92  1  0
 95 93  1  0
 95 96  1  0
 95 94  1  0
 97100  1  1
 97 98  1  0
 99 97  1  0
M  ISO  4  15 100  17 100  59 101  60 101
M  END
>  <TORSDO>  (84) 
F 24

>  <SCORE>  (84) 
-12.969

>  <name>  (84) 
84

>  <ligand_id>  (84) 
84

>  <original_smiles>  (84) 
[H]c1c([H])c([H])c2c(c1[H])C([H])([H])C([H])([H])C([H])([H])C2([H])N([H])C(=O)C1([H])N(C(=O)C([H])(N([H])C(=O)C([H])(N([H])C([H])([H])[H])C([H])([H])[H])C(C([H])([H])[H])(C([H])([H])[H])C([H])([H])[H])C([H])([H])c2c([H])c(OC([H])([H])C([H])([H])C([H])([H])C3([H])C([H])(C([H])([H])C([H])([H])C([H])([H])C([H])([H])[H])C([H])([H])[N+]([H])([H])C3([H])C([H])([H])C3([H])C(=O)C(=NC(=O)N4C([H])([H])C([H])([H])C([H])([H])C([H])(n5nc(-c6c([H])c([H])c(Oc7c([H])c([H])c(F)c([H])c7F)c([H])c6[H])c(C(=O)N([H])[H])c5N([H])[H])C4([H])[H])C([H])([H])C([H])([H])C3([H])[H])c([H])c([H])c2C1([H])[H]

>  <smiles>  (84) 
[H]c1c([H])c([H])c2c(c1[H])C([H])([H])C([H])([H])C([H])([H])C2([H])N([H])C(=O)C1([H])N(C(=O)C([H])(N([H])C(=O)C([H])(N([H])C([H])([H])[H])C([H])([H])[H])C(C([H])([H])[H])(C([H])([H])[H])C([H])([H])[H])C([H])([H])c2c([H])c(OC([H])([H])C([H])([H])C([H])([H])C3([H])C([H])(C([H])([H])C([H])([H])C([H])([H])C([H])([H])[H])C([H])([H])[N+]([H])([H])C3([H])C([H])([H])C3([H])C(=O)C(=NC(=O)N4C([H])([H])C([H])([H])C([H])([H])C([H])(n5nc(-c6c([H])c([H])c(Oc7c([H])c([H])c(F)c([H])c7F)c([H])c6[H])c(C(=O)N([H])[H])c5N([H])[H])C4([H])[H])C([H])([H])C([H])([H])C3([H])[H])c([H])c([H])c2C1([H])[H]

$$$$
85:0:0
     RDKit          3D

 92103  0  0  1  0  0  0  0  0999 V2000
  -30.6740  -14.6770   20.4360 C   0  0  0  0  0  0  0  0  0  0  0  0
  -30.4120  -12.4630   19.3460 C   0  0  0  0  0  2  0  0  0  0  0  0
  -29.4800  -12.6080   18.1240 C   0  0  0  0  0  2  0  0  0  0  0  0
  -28.0030  -12.4510   18.5420 C   0  0  0  0  0  2  0  0  0  0  0  0
  -27.6440  -13.2920   19.7940 C   0  0  0  0  0  3  0  0  0  0  0  0
  -28.7010  -13.1200   20.9120 C   0  0  0  0  0  2  0  0  0  0  0  0
  -29.9990  -13.4850   20.3320 N   0  0  0  0  0  0  0  0  0  0  0  0
  -31.8620  -14.7380   20.1040 O   0  0  0  0  0  0  0  0  0  0  0  0
  -30.3870  -19.0590   21.2270 C   0  0  0  0  0  2  0  0  0  0  0  0
  -29.7960  -19.6120   18.9690 C   0  0  0  0  0  2  0  0  0  0  0  0
  -28.7210  -17.0160   18.7830 C   0  0  0  0  0  2  0  0  0  0  0  0
  -28.7830  -16.3460   21.1450 C   0  0  0  0  0  2  0  0  0  0  0  0
  -29.6820  -20.3890   21.6980 C   0  0  0  0  0  2  0  0  0  0  0  0
  -29.0010  -20.8660   19.4190 C   0  0  0  0  0  2  0  0  0  0  0  0
  -28.4750  -17.5210   20.2130 C   0  0  2  0  0  0  0  0  0  0  0  0
  -30.1280  -16.9570   19.4220 C   0  0  2  0  0  0  0  0  0  0  0  0
  -29.7370  -18.4010   19.9760 C   0  0  2  0  0  0  0  0  0  0  0  0
  -29.9460  -15.8510   20.4060 N   0  0  0  0  0  0  0  0  0  0  0  0
  -29.5830  -21.4610   20.6480 N   0  0  1  0  0  4  0  0  0  0  0  0
  -30.5330  -21.7240   20.4290 H   0  0  0  0  0  0  0  0  0  0  0  0
  -25.2410  -13.9350   20.4430 C   0  0  0  0  0  0  0  0  0  0  0  0
  -24.1620  -13.1770   20.8060 C   0  0  0  0  0  0  0  0  0  0  0  0
  -24.6150  -11.8230   20.8060 C   0  0  0  0  0  0  0  0  0  0  0  0
  -26.2850  -13.0410   20.2550 N   0  0  0  0  0  0  0  0  0  0  0  0
  -25.9110  -11.7670   20.5290 N   0  0  0  0  0  0  0  0  0  0  0  0
  -23.8790  -10.5690   20.9990 C   0  0  0  0  0  0  0  0  0  0  0  0
  -24.2970   -9.6070   21.9430 C   0  0  0  0  0  3  0  0  0  0  0  0
  -23.5650   -8.4140   22.1220 C   0  0  0  0  0  3  0  0  0  0  0  0
  -22.3980   -8.1780   21.3580 C   0  0  0  0  0  0  0  0  0  0  0  0
  -21.9980   -9.1300   20.4030 C   0  0  0  0  0  3  0  0  0  0  0  0
  -22.7320  -10.3140   20.2220 C   0  0  0  0  0  3  0  0  0  0  0  0
  -21.6360   -7.0400   21.4470 O   0  0  0  0  0  0  0  0  0  0  0  0
  -21.5760   -6.3040   22.6040 C   0  0  0  0  0  0  0  0  0  0  0  0
  -21.1610   -6.8720   23.8280 C   0  0  0  0  0  3  0  0  0  0  0  0
  -21.0510   -6.0650   24.9770 C   0  0  0  0  0  3  0  0  0  0  0  0
  -21.3430   -4.6890   24.9020 C   0  0  0  0  0  0  0  0  0  0  0  0
  -21.7470   -4.1200   23.6810 C   0  0  0  0  0  3  0  0  0  0  0  0
  -21.8610   -4.9260   22.5350 C   0  0  0  0  0  0  0  0  0  0  0  0
  -22.2340   -4.3700   21.3570 F   0  0  0  0  0  0  0  0  0  0  0  0
  -21.2260   -3.9110   26.0030 F   0  0  0  0  0  0  0  0  0  0  0  0
  -22.7630  -13.6690   21.0420 C   0  0  0  0  0  0  0  0  0  0  0  0
  -22.0150  -12.9930   21.9080 N   0  0  0  0  0  0  0  0  0  0  0  0
  -22.3420  -14.6890   20.4970 O   0  0  0  0  0  0  0  0  0  0  0  0
  -22.3670  -12.1690   22.3730 H   0  0  0  0  0  0  0  0  0  0  0  0
  -21.0760  -13.3070   22.1100 H   0  0  0  0  0  0  0  0  0  0  0  0
  -25.4090  -15.3020   20.2380 N   0  0  0  0  0  0  0  0  0  0  0  0
  -24.6380  -15.9540   20.3410 H   0  0  0  0  0  0  0  0  0  0  0  0
  -26.2650  -15.7440   19.9320 H   0  0  0  0  0  0  0  0  0  0  0  0
  -28.8860  -22.7240   21.1170 C   0  0  0  0  0  2  0  0  0  0  0  0
  -29.0630  -24.0470   20.2620 C   0  0  0  0  0  2  0  0  0  0  0  0
  -28.3240  -25.3060   20.8630 C   0  0  0  0  0  2  0  0  0  0  0  0
  -28.4760  -26.6060   20.2010 O   0  0  0  0  0  0  0  0  0  0  0  0
  -24.6640  -31.9010   23.2220 C   0  0  0  0  0  0  0  0  0  0  0  0
  -27.3400  -27.4100   20.1790 C   0  0  0  0  0  0  0  0  0  0  0  0
  -23.4780  -30.4840   21.5810 C   0  0  0  0  0  3  0  0  0  0  0  0
  -24.9500  -28.9520   20.1610 C   0  0  0  0  0  0  0  0  0  0  0  0
  -26.0090  -30.8460   21.3980 C   0  0  0  0  0  2  0  0  0  0  0  0
  -26.1070  -29.4700   20.7570 C   0  0  0  0  0  0  0  0  0  0  0  0
  -27.3080  -28.7100   20.7560 C   0  0  0  0  0  3  0  0  0  0  0  0
  -26.1670  -26.9300   19.5610 C   0  0  0  0  0  3  0  0  0  0  0  0
  -24.9790  -27.6850   19.5540 C   0  0  0  0  0  3  0  0  0  0  0  0
  -23.7010  -29.8040   20.2050 C   0  0  0  0  0  2  0  0  0  0  0  0
  -24.7360  -31.0940   22.1240 N   0  0  0  0  0  0  0  0  0  0  0  0
  -23.5780  -32.1670   23.7550 O   0  0  0  0  0  0  0  0  0  0  0  0
  -22.8280  -29.4630   22.5430 C   0  0  0  0  0  0  0  0  0  0  0  0
  -21.5020  -29.2850   22.4250 N   0  0  0  0  0  0  0  0  0  0  0  0
  -23.5140  -28.8320   23.3520 O   0  0  0  0  0  0  0  0  0  0  0  0
  -21.0090  -29.8420   21.7410 H   0  0  0  0  0  0  0  0  0  0  0  0
  -18.1250  -28.1060   22.9480 C   0  0  0  0  0  0  0  0  0  0  0  0
  -20.6860  -28.3470   23.1970 C   0  0  0  0  0  3  0  0  0  0  0  0
  -20.7760  -26.9200   22.6060 C   0  0  0  0  0  2  0  0  0  0  0  0
  -19.6620  -26.6130   21.6010 C   0  0  0  0  0  2  0  0  0  0  0  0
  -18.2870  -26.7610   22.2590 C   0  0  0  0  0  2  0  0  0  0  0  0
  -19.2520  -28.8560   23.3730 C   0  0  0  0  0  0  0  0  0  0  0  0
  -19.0460  -30.1160   23.9770 C   0  0  0  0  0  3  0  0  0  0  0  0
  -17.7460  -30.6240   24.1620 C   0  0  0  0  0  3  0  0  0  0  0  0
  -16.6330  -29.8670   23.7550 C   0  0  0  0  0  3  0  0  0  0  0  0
  -16.8240  -28.6100   23.1520 C   0  0  0  0  0  3  0  0  0  0  0  0
  -25.9410  -32.5450   23.8460 C   0  0  0  0  0  3  0  0  0  0  0  0
  -25.6160  -33.9380   24.1830 N   0  0  0  0  0  0  0  0  0  0  0  0
  -25.9340  -34.9980   23.4280 C   0  0  0  0  0  0  0  0  0  0  0  0
  -26.6020  -34.9070   22.3940 O   0  0  0  0  0  0  0  0  0  0  0  0
  -25.0210  -34.0830   24.9850 H   0  0  0  0  0  0  0  0  0  0  0  0
  -24.1810  -36.7690   23.0870 C   0  0  0  0  0  1  0  0  0  0  0  0
  -25.4310  -36.3780   23.8920 C   0  0  0  0  0  3  0  0  0  0  0  0
  -27.5580  -37.2850   24.7160 C   0  0  0  0  0  1  0  0  0  0  0  0
  -26.4500  -37.4450   23.7800 N   0  0  0  0  0  0  0  0  0  0  0  0
  -26.0320  -38.3590   23.9350 H   0  0  0  0  0  0  0  0  0  0  0  0
  -26.4670  -31.7740   25.1180 C   0  0  1  0  0  0  0  0  0  0  0  0
  -25.3770  -31.5210   26.1860 C   0  0  0  0  0  1  0  0  0  0  0  0
  -27.0610  -30.4040   24.7180 C   0  0  0  0  0  1  0  0  0  0  0  0
  -27.6120  -32.5760   25.7810 C   0  0  0  0  0  1  0  0  0  0  0  0
  2  7  1  0
  3  4  1  0
  3  2  1  0
  5  4  1  0
  5 24  1  0
  5  6  1  0
  7  1  1  0
  7  6  1  0
  8  1  2  0
  9 13  1  0
 10 14  1  0
 14 19  1  0
 15 11  1  6
 15 12  1  0
 16 11  1  6
 16 17  1  0
 16 15  1  0
 16 18  1  0
 17 10  1  6
 17 15  1  0
 17  9  1  0
 18  1  1  0
 18 12  1  0
 19 49  1  0
 19 13  1  0
 19 20  1  6
 21 22  2  0
 22 41  1  0
 23 22  1  0
 23 26  1  0
 24 21  1  0
 24 25  1  0
 25 23  2  0
 26 27  1  0
 27 28  2  0
 29 32  1  0
 29 28  1  0
 30 29  2  0
 31 30  1  0
 31 26  2  0
 32 33  1  0
 33 34  1  0
 34 35  2  0
 36 35  1  0
 36 40  1  0
 37 36  2  0
 38 33  2  0
 38 37  1  0
 39 38  1  0
 41 42  1  0
 42 45  1  0
 42 44  1  0
 43 41  2  0
 46 47  1  0
 46 21  1  0
 48 46  1  0
 50 51  1  0
 50 49  1  0
 52 51  1  0
 53 64  2  0
 54 52  1  0
 54 59  1  0
 55 63  1  0
 55 65  1  0
 56 62  1  0
 56 58  1  0
 57 63  1  0
 58 57  1  0
 59 58  2  0
 60 54  2  0
 61 60  1  0
 61 56  2  0
 62 55  1  0
 63 53  1  0
 65 67  2  0
 66 65  1  0
 68 66  1  0
 69 78  2  0
 69 74  1  0
 70 66  1  0
 70 74  1  0
 71 70  1  0
 72 73  1  0
 72 71  1  0
 73 69  1  0
 74 75  2  0
 75 76  1  0
 77 76  2  0
 78 77  1  0
 79 53  1  0
 79 80  1  0
 79 89  1  0
 80 83  1  0
 81 85  1  0
 81 80  1  0
 82 81  2  0
 85 84  1  0
 87 85  1  0
 87 88  1  0
 87 86  1  0
 89 92  1  1
 89 90  1  0
 91 89  1  0
M  ISO  4   1 100  18 100  51 101  52 101
M  END
>  <TORSDO>  (85) 
F 18

>  <SCORE>  (85) 
-14.524

>  <name>  (85) 
85

>  <ligand_id>  (85) 
85

>  <original_smiles>  (85) 
[H]c1c([H])c([H])c2c(c1[H])C([H])([H])C([H])([H])C([H])([H])C2([H])N([H])C(=O)C1([H])N(C(=O)C([H])(N([H])C(=O)C([H])(N([H])C([H])([H])[H])C([H])([H])[H])C(C([H])([H])[H])(C([H])([H])[H])C([H])([H])[H])C([H])([H])c2c([H])c(OC([H])([H])C([H])([H])C([H])([H])[N+]3([H])C([H])([H])C([H])([H])C4(C([H])([H])C3([H])[H])C3([H])N(C(=O)N5C([H])([H])C([H])([H])C([H])([H])C([H])(n6nc(-c7c([H])c([H])c(Oc8c([H])c([H])c(F)c([H])c8F)c([H])c7[H])c(C(=O)N([H])[H])c6N([H])[H])C5([H])[H])C([H])([H])C4([H])C3([H])[H])c([H])c([H])c2C1([H])[H]

>  <smiles>  (85) 
[H]c1c([H])c([H])c2c(c1[H])C([H])([H])C([H])([H])C([H])([H])C2([H])N([H])C(=O)C1([H])N(C(=O)C([H])(N([H])C(=O)C([H])(N([H])C([H])([H])[H])C([H])([H])[H])C(C([H])([H])[H])(C([H])([H])[H])C([H])([H])[H])C([H])([H])c2c([H])c(OC([H])([H])C([H])([H])C([H])([H])[N+]3([H])C([H])([H])C([H])([H])C4(C([H])([H])C3([H])[H])C3([H])N(C(=O)N5C([H])([H])C([H])([H])C([H])([H])C([H])(n6nc(-c7c([H])c([H])c(Oc8c([H])c([H])c(F)c([H])c8F)c([H])c7[H])c(C(=O)N([H])[H])c6N([H])[H])C5([H])[H])C([H])([H])C4([H])C3([H])[H])c([H])c([H])c2C1([H])[H]

$$$$
86:0:0
     RDKit          3D

 98101  0  0  1  0  0  0  0  0999 V2000
  -23.0080  -23.0010   16.3920 C   0  0  0  0  0  3  0  0  0  0  0  0
  -24.2960  -23.5590   16.2140 C   0  0  0  0  0  3  0  0  0  0  0  0
  -22.2960  -23.2220   17.5930 C   0  0  0  0  0  3  0  0  0  0  0  0
  -23.9570  -24.8570   18.2400 C   0  0  0  0  0  3  0  0  0  0  0  0
  -24.8030  -24.4400   17.1940 C   0  0  0  0  0  0  0  0  0  0  0  0
  -22.8020  -24.1320   18.5490 C   0  0  0  0  0  0  0  0  0  0  0  0
  -26.5930  -25.8950   16.3350 C   0  0  0  0  0  2  0  0  0  0  0  0
  -26.1810  -24.9720   17.2230 C   0  0  0  0  0  3  0  0  0  0  0  0
  -27.8410  -26.7160   16.5470 C   0  0  0  0  0  2  0  0  0  0  0  0
  -27.1820  -24.4350   18.2520 C   0  0  0  0  0  3  0  0  0  0  0  0
  -28.2210  -25.4420   18.7620 C   0  0  0  0  0  3  0  0  0  0  0  0
  -28.2310  -26.8000   18.0460 C   0  0  0  0  0  3  0  0  0  0  0  0
  -27.7260  -27.8860   18.8440 O   0  0  0  0  0  0  0  0  0  0  0  0
  -23.2210  -31.6060   22.9400 C   0  0  0  0  0  0  0  0  0  0  0  0
  -26.3950  -28.1230   19.1580 C   0  0  0  0  0  0  0  0  0  0  0  0
  -22.2080  -29.9220   21.4780 C   0  0  0  0  0  3  0  0  0  0  0  0
  -23.7090  -28.8820   19.7090 C   0  0  0  0  0  0  0  0  0  0  0  0
  -24.4340  -30.9890   20.8440 C   0  0  0  0  0  2  0  0  0  0  0  0
  -24.7700  -29.6890   20.1410 C   0  0  0  0  0  0  0  0  0  0  0  0
  -26.1050  -29.2960   19.8880 C   0  0  0  0  0  3  0  0  0  0  0  0
  -25.2940  -27.3740   18.6780 C   0  0  0  0  0  3  0  0  0  0  0  0
  -23.9670  -27.7110   18.9800 C   0  0  0  0  0  3  0  0  0  0  0  0
  -22.3100  -29.3590   20.0340 C   0  0  0  0  0  2  0  0  0  0  0  0
  -23.3040  -30.8780   21.7900 N   0  0  0  0  0  0  0  0  0  0  0  0
  -22.2160  -31.5450   23.6690 O   0  0  0  0  0  0  0  0  0  0  0  0
  -22.2490  -28.7530   22.4660 C   0  0  0  0  0  0  0  0  0  0  0  0
  -21.1050  -28.2650   22.8660 N   0  0  0  0  0  0  0  0  0  0  0  0
  -23.3050  -28.2410   22.8370 O   0  0  0  0  0  0  0  0  0  0  0  0
  -20.2460  -28.7300   22.6190 H   0  0  0  0  0  0  0  0  0  0  0  0
  -18.4030  -25.5500   23.0510 C   0  0  0  0  0  0  0  0  0  0  0  0
  -20.9890  -26.8720   23.2780 C   0  0  0  0  0  2  0  0  0  0  0  0
  -22.0720  -25.9450   21.8710 C   0  0  0  0  0 15  0  0  0  0  0  0
  -20.8800  -24.2480   21.0350 C   0  0  0  0  0  2  0  0  0  0  0  0
  -19.1140  -24.1910   22.0880 C   0  0  0  0  0  1  0  0  0  0  0  0
  -19.2490  -26.7000   23.6070 C   0  0  0  0  0  0  0  0  0  0  0  0
  -18.5070  -27.9300   23.9730 C   0  0  0  0  0  3  0  0  0  0  0  0
  -17.1060  -28.1670   23.7880 C   0  0  0  0  0  3  0  0  0  0  0  0
  -16.3330  -27.1280   23.2490 C   0  0  0  0  0  3  0  0  0  0  0  0
  -16.9700  -25.8850   22.9080 C   0  0  0  0  0  3  0  0  0  0  0  0
  -24.3660  -32.5550   23.3830 C   0  0  0  0  0  3  0  0  0  0  0  0
  -23.9130  -33.9250   23.1210 N   0  0  0  0  0  0  0  0  0  0  0  0
  -24.3820  -34.7000   22.1360 C   0  0  0  0  0  0  0  0  0  0  0  0
  -25.3080  -34.3560   21.3960 O   0  0  0  0  0  0  0  0  0  0  0  0
  -23.1220  -34.2500   23.6540 H   0  0  0  0  0  0  0  0  0  0  0  0
  -22.8060  -36.0420   20.7030 C   0  0  0  0  0  1  0  0  0  0  0  0
  -23.7170  -36.0740   21.9410 C   0  0  0  0  0  3  0  0  0  0  0  0
  -25.4160  -37.4560   23.0580 C   0  0  0  0  0  1  0  0  0  0  0  0
  -24.6910  -37.1820   21.8200 N   0  0  0  0  0  0  0  0  0  0  0  0
  -24.2230  -38.0370   21.5300 H   0  0  0  0  0  0  0  0  0  0  0  0
  -24.7810  -32.3720   24.8940 C   0  0  1  0  0  0  0  0  0  0  0  0
  -23.5900  -32.4210   25.8800 C   0  0  0  0  0  1  0  0  0  0  0  0
  -25.5040  -31.0190   25.0940 C   0  0  0  0  0  1  0  0  0  0  0  0
  -25.7800  -33.4790   25.2940 C   0  0  0  0  0  1  0  0  0  0  0  0
  -22.5200  -24.1340   20.0050 C   0  0  0  0  0  3  0  0  0  0  0  0
  -24.1210  -23.8900   20.5130 N   0  0  0  0  0  1  0  0  0  0  0  0
  -20.2050  -24.5620   20.3140 C   0  0  0  0  0  1  0  0  0  0  0  0
  -16.2140  -23.4300   18.3420 C   0  0  0  0  0  1  0  0  0  0  0  0
  -17.7650  -23.3530   18.7680 C   0  0  0  0  0  1  0  0  0  0  0  0
  -26.1570  -23.4320   20.0210 C   0  0  0  0  0 15  0  0  0  0  0  0
  -28.2810  -22.5460   20.5290 C   0  0  0  0  0 15  0  0  0  0  0  0
  -31.3670  -20.2100   20.7620 C   0  0  0  0  0  0  0  0  0  0  0  0
  -33.1880  -17.9620   20.4630 C   0  0  0  0  0  2  0  0  0  0  0  0
  -33.1290  -16.9210   19.2650 C   0  0  0  0  0  2  0  0  0  0  0  0
  -31.8630  -16.0600   19.3350 C   0  0  0  0  0  2  0  0  0  0  0  0
  -30.7540  -16.9520   19.9090 C   0  0  0  0  0  3  0  0  0  0  0  0
  -31.0790  -17.6060   21.2460 C   0  0  0  0  0  2  0  0  0  0  0  0
  -31.8230  -18.7430   20.7860 N   0  0  0  0  0  0  0  0  0  0  0  0
  -32.5760  -20.6290   20.9210 O   0  0  0  0  0  0  0  0  0  0  0  0
  -29.8390  -21.1080   20.4820 N   0  0  0  0  0  2  0  0  0  0  0  0
  -30.4650  -21.8680   20.2430 H   0  0  0  0  0  0  0  0  0  0  0  0
  -28.2900  -17.0910   19.9500 C   0  0  0  0  0  0  0  0  0  0  0  0
  -27.3300  -16.1500   20.1260 C   0  0  0  0  0  0  0  0  0  0  0  0
  -28.0200  -14.9180   20.3610 C   0  0  0  0  0  0  0  0  0  0  0  0
  -29.4690  -16.3910   20.0430 N   0  0  0  0  0  0  0  0  0  0  0  0
  -29.3280  -15.0980   20.3810 N   0  0  0  0  0  0  0  0  0  0  0  0
  -27.5120  -13.5620   20.4860 C   0  0  0  0  0  0  0  0  0  0  0  0
  -27.4850  -12.8940   21.7290 C   0  0  0  0  0  3  0  0  0  0  0  0
  -26.9730  -11.5850   21.8150 C   0  0  0  0  0  3  0  0  0  0  0  0
  -26.4840  -10.9410   20.6530 C   0  0  0  0  0  0  0  0  0  0  0  0
  -26.5440  -11.6030   19.4150 C   0  0  0  0  0  3  0  0  0  0  0  0
  -27.0590  -12.9030   19.3290 C   0  0  0  0  0  3  0  0  0  0  0  0
  -25.9840   -9.6630   20.6350 O   0  0  0  0  0  0  0  0  0  0  0  0
  -24.7740   -9.3620   21.2060 C   0  0  0  0  0  0  0  0  0  0  0  0
  -23.5820  -10.0090   20.8140 C   0  0  0  0  0  3  0  0  0  0  0  0
  -22.3520   -9.6160   21.3770 C   0  0  0  0  0  3  0  0  0  0  0  0
  -22.3110   -8.5730   22.3240 C   0  0  0  0  0  0  0  0  0  0  0  0
  -23.4980   -7.9260   22.7110 C   0  0  0  0  0  3  0  0  0  0  0  0
  -24.7260   -8.3200   22.1500 C   0  0  0  0  0  0  0  0  0  0  0  0
  -25.8660   -7.6790   22.5110 F   0  0  0  0  0  0  0  0  0  0  0  0
  -21.1300   -8.1890   22.8570 F   0  0  0  0  0  0  0  0  0  0  0  0
  -25.8630  -16.3760   19.9720 C   0  0  0  0  0  0  0  0  0  0  0  0
  -25.0610  -15.7170   20.7970 N   0  0  0  0  0  0  0  0  0  0  0  0
  -25.4260  -17.1820   19.1530 O   0  0  0  0  0  0  0  0  0  0  0  0
  -25.4300  -15.0760   21.4850 H   0  0  0  0  0  0  0  0  0  0  0  0
  -24.0610  -15.8540   20.7420 H   0  0  0  0  0  0  0  0  0  0  0  0
  -28.2570  -18.4620   19.7010 N   0  0  0  0  0  0  0  0  0  0  0  0
  -27.3790  -18.9520   19.5880 H   0  0  0  0  0  0  0  0  0  0  0  0
  -29.0560  -19.0750   19.6040 H   0  0  0  0  0  0  0  0  0  0  0  0
  1  3  1  0
  2  1  2  0
  2  5  1  0
  3  6  2  0
  4  6  1  0
  5  4  2  0
  6 54  1  0
  7  9  1  0
  7  8  1  0
  8  5  1  0
  8 10  1  0
  9 12  1  0
 10 11  2  0
 12 11  1  0
 12 13  1  0
 13 15  1  0
 14 25  2  0
 15 20  1  0
 16 24  1  0
 16 26  1  0
 17 23  1  0
 17 19  1  0
 18 24  1  0
 19 18  1  0
 20 19  2  0
 21 22  1  0
 21 15  2  0
 22 17  2  0
 23 16  1  0
 24 14  1  0
 26 28  2  0
 26 27  1  0
 27 31  1  0
 29 27  1  0
 30 35  1  0
 31 35  1  0
 34 30  1  0
 35 36  2  0
 37 36  1  0
 38 37  2  0
 39 30  2  0
 39 38  1  0
 40 14  1  0
 40 50  1  0
 41 40  1  0
 41 44  1  0
 42 41  1  0
 43 42  2  0
 46 45  1  0
 46 42  1  0
 48 46  1  0
 48 47  1  0
 49 48  1  0
 50 52  1  6
 50 53  1  0
 50 51  1  0
 54 55  1  0
 54 33  1  0
 56 33  1  0
 57 58  1  0
 61 67  1  0
 61 68  2  0
 62 67  1  0
 63 64  1  0
 63 62  1  0
 65 64  1  0
 65 74  1  0
 65 66  1  0
 67 66  1  0
 69 61  1  0
 70 69  1  0
 71 74  1  0
 71 72  2  0
 72 73  1  0
 73 75  2  0
 73 76  1  0
 74 75  1  0
 76 77  1  0
 77 78  2  0
 79 78  1  0
 80 79  2  0
 81 80  1  0
 81 76  2  0
 82 79  1  0
 82 83  1  0
 83 88  1  0
 84 83  2  0
 84 85  1  0
 85 86  2  0
 86 87  1  0
 86 90  1  0
 88 89  1  0
 88 87  2  0
 91 72  1  0
 91 92  1  0
 92 94  1  0
 93 91  2  0
 95 92  1  0
 96 71  1  0
 97 96  1  0
 98 96  1  0
M  ISO  4  12 101  13 101  61 100  69 100
M  END
>  <TORSDO>  (86) 
F 22

>  <SCORE>  (86) 
10.415

>  <name>  (86) 
86

>  <ligand_id>  (86) 
86

>  <original_smiles>  (86) 
[H]C1=C(c2c([H])c([H])c([H])c(C(=NC([H])([H])C([H])([H])N([H])C(=O)N3C([H])([H])C([H])([H])C([H])([H])C([H])(n4nc(-c5c([H])c([H])c(Oc6c([H])c([H])c(F)c([H])c6F)c([H])c5[H])c(C(=O)N([H])[H])c4N([H])[H])C3([H])[H])C([H])([H])C([H])([H])C([H])([H])[H])c2[H])C([H])([H])C([H])([H])C([H])(Oc2c([H])c([H])c3c(c2[H])C([H])([H])N(C(=O)C([H])(N([H])C(=O)C([H])(N([H])C([H])([H])[H])C([H])([H])[H])C(C([H])([H])[H])(C([H])([H])[H])C([H])([H])[H])C([H])(C(=O)N([H])C2([H])c4c([H])c([H])c([H])c([H])c4C([H])([H])C([H])([H])C2([H])[H])C3([H])[H])C1([H])[H]

>  <smiles>  (86) 
[H]C1=C(c2c([H])c([H])c([H])c(C(=NC([H])([H])C([H])([H])N([H])C(=O)N3C([H])([H])C([H])([H])C([H])([H])C([H])(n4nc(-c5c([H])c([H])c(Oc6c([H])c([H])c(F)c([H])c6F)c([H])c5[H])c(C(=O)N([H])[H])c4N([H])[H])C3([H])[H])C([H])([H])C([H])([H])C([H])([H])[H])c2[H])C([H])([H])C([H])([H])C([H])(Oc2c([H])c([H])c3c(c2[H])C([H])([H])N(C(=O)C([H])(N([H])C(=O)C([H])(N([H])C([H])([H])[H])C([H])([H])[H])C(C([H])([H])[H])(C([H])([H])[H])C([H])([H])[H])C([H])(C(=O)N([H])C2([H])c4c([H])c([H])c([H])c([H])c4C([H])([H])C([H])([H])C2([H])[H])C3([H])[H])C1([H])[H]

$$$$
87:0:0
     RDKit          3D

 98106  0  0  1  0  0  0  0  0999 V2000
  -29.9070  -23.7410   20.4360 C   0  0  0  0  0  2  0  0  0  0  0  0
  -29.5960  -22.6120   21.4110 C   0  0  0  0  0  2  0  0  0  0  0  0
  -28.2510  -24.5110   21.9830 C   0  0  0  0  0  3  0  0  0  0  0  0
  -28.6750  -24.6370   20.5010 C   0  0  0  0  0  3  0  0  0  0  0  0
  -28.6780  -23.1640   22.4440 N   0  0  2  0  0  4  0  0  0  0  0  0
  -27.8470  -22.5890   22.3920 H   0  0  0  0  0  0  0  0  0  0  0  0
  -26.7340  -24.6380   22.2340 C   0  0  0  0  0  0  0  0  0  0  0  0
  -25.9030  -23.8620   21.7550 O   0  0  0  0  0  0  0  0  0  0  0  0
  -24.9060  -25.5000   23.8190 C   0  0  0  0  0  1  0  0  0  0  0  0
  -26.2900  -25.7460   23.1930 C   0  0  0  0  0  2  0  0  0  0  0  0
  -28.9690  -26.0860   20.0610 C   0  0  0  0  0  2  0  0  0  0  0  0
  -29.1800  -26.2520   18.5410 C   0  0  0  0  0  2  0  0  0  0  0  0
  -28.7380  -27.5340   18.1050 O   0  0  0  0  0  0  0  0  0  0  0  0
  -24.5350  -30.9580   22.6760 C   0  0  0  0  0  0  0  0  0  0  0  0
  -27.4460  -27.9060   18.3980 C   0  0  0  0  0  0  0  0  0  0  0  0
  -23.3720  -29.6160   20.9550 C   0  0  0  0  0  3  0  0  0  0  0  0
  -24.8300  -28.7430   19.0580 C   0  0  0  0  0  0  0  0  0  0  0  0
  -25.6860  -30.6030   20.4930 C   0  0  0  0  0  2  0  0  0  0  0  0
  -25.9360  -29.4250   19.5780 C   0  0  0  0  0  0  0  0  0  0  0  0
  -27.2450  -29.0160   19.2440 C   0  0  0  0  0  3  0  0  0  0  0  0
  -26.3190  -27.2240   17.8820 C   0  0  0  0  0  3  0  0  0  0  0  0
  -25.0160  -27.6370   18.2120 C   0  0  0  0  0  3  0  0  0  0  0  0
  -23.4640  -29.2550   19.4490 C   0  0  0  0  0  2  0  0  0  0  0  0
  -24.5570  -30.4020   21.4320 N   0  0  0  0  0  0  0  0  0  0  0  0
  -23.5380  -30.8610   23.4030 O   0  0  0  0  0  0  0  0  0  0  0  0
  -23.1340  -28.3170   21.7580 C   0  0  0  0  0  0  0  0  0  0  0  0
  -21.9210  -27.7540   21.6330 N   0  0  0  0  0  0  0  0  0  0  0  0
  -24.0310  -27.8250   22.4460 O   0  0  0  0  0  0  0  0  0  0  0  0
  -21.2370  -28.2210   21.0540 H   0  0  0  0  0  0  0  0  0  0  0  0
  -19.1600  -25.4430   21.8920 C   0  0  0  0  0  0  0  0  0  0  0  0
  -21.4830  -26.5120   22.2670 C   0  0  0  0  0  3  0  0  0  0  0  0
  -22.0580  -25.2800   21.5310 C   0  0  0  0  0  2  0  0  0  0  0  0
  -21.1180  -24.7280   20.4550 C   0  0  0  0  0  2  0  0  0  0  0  0
  -19.7740  -24.3230   21.0700 C   0  0  0  0  0  2  0  0  0  0  0  0
  -19.9590  -26.4790   22.4400 C   0  0  0  0  0  0  0  0  0  0  0  0
  -19.3330  -27.5170   23.1650 C   0  0  0  0  0  3  0  0  0  0  0  0
  -17.9380  -27.5240   23.3500 C   0  0  0  0  0  3  0  0  0  0  0  0
  -17.1530  -26.4870   22.8190 C   0  0  0  0  0  3  0  0  0  0  0  0
  -17.7640  -25.4490   22.0940 C   0  0  0  0  0  3  0  0  0  0  0  0
  -25.7520  -31.7610   23.2320 C   0  0  0  0  0  3  0  0  0  0  0  0
  -26.5880  -30.9580   24.3040 C   0  0  1  0  0  0  0  0  0  0  0  0
  -25.7310  -30.3650   25.4450 C   0  0  0  0  0  1  0  0  0  0  0  0
  -27.3500  -29.7910   23.6340 C   0  0  0  0  0  1  0  0  0  0  0  0
  -27.6550  -31.8810   24.9360 C   0  0  0  0  0  1  0  0  0  0  0  0
  -25.2340  -33.0110   23.8050 N   0  0  0  0  0  0  0  0  0  0  0  0
  -25.2990  -34.2060   23.2020 C   0  0  0  0  0  0  0  0  0  0  0  0
  -25.8740  -34.3810   22.1240 O   0  0  0  0  0  0  0  0  0  0  0  0
  -24.7000  -32.9330   24.6580 H   0  0  0  0  0  0  0  0  0  0  0  0
  -23.2600  -35.6760   23.2430 C   0  0  0  0  0  1  0  0  0  0  0  0
  -24.6170  -35.3930   23.9060 C   0  0  0  0  0  3  0  0  0  0  0  0
  -26.6270  -36.5230   24.7510 C   0  0  0  0  0  1  0  0  0  0  0  0
  -25.4360  -36.6260   23.9100 N   0  0  0  0  0  0  0  0  0  0  0  0
  -24.8900  -37.4210   24.2270 H   0  0  0  0  0  0  0  0  0  0  0  0
  -29.1220  -23.1290   23.8740 C   0  0  0  0  0  2  0  0  0  0  0  0
  -30.3560  -22.2580   24.2070 C   0  0  0  0  0  2  0  0  0  0  0  0
  -30.2240  -20.7400   23.9510 C   0  0  0  0  0  2  0  0  0  0  0  0
  -31.2130  -20.2820   22.8660 C   0  0  0  0  0  2  0  0  0  0  0  0
  -31.0540  -18.8180   22.4390 C   0  0  0  0  0  2  0  0  0  0  0  0
  -31.9510  -18.5010   21.2300 C   0  0  0  0  0  2  0  0  0  0  0  0
  -32.4510  -17.0530   21.1870 C   0  0  0  0  0  2  0  0  0  0  0  0
  -31.4120  -15.4550   19.5910 C   0  0  0  0  0  0  0  0  0  0  0  0
  -31.1760  -13.1160   18.8780 C   0  0  0  0  0  2  0  0  0  0  0  0
  -30.1430  -12.8720   17.7700 C   0  0  0  0  0  2  0  0  0  0  0  0
  -28.7470  -12.6650   18.3780 C   0  0  0  0  0  2  0  0  0  0  0  0
  -28.3630  -13.7960   19.3670 C   0  0  0  0  0  3  0  0  0  0  0  0
  -29.4900  -14.0540   20.3920 C   0  0  0  0  0  2  0  0  0  0  0  0
  -30.7570  -14.2760   19.6720 N   0  0  0  0  0  0  0  0  0  0  0  0
  -32.1640  -15.7700   18.6610 O   0  0  0  0  0  0  0  0  0  0  0  0
  -31.4250  -16.1070   20.7560 N   0  0  0  0  0  0  0  0  0  0  0  0
  -30.8270  -15.7290   21.4770 H   0  0  0  0  0  0  0  0  0  0  0  0
  -26.1510  -14.3920   20.5430 C   0  0  0  0  0  0  0  0  0  0  0  0
  -25.1100  -13.6170   20.9810 C   0  0  0  0  0  0  0  0  0  0  0  0
  -25.4780  -12.2670   20.6950 C   0  0  0  0  0  0  0  0  0  0  0  0
  -27.0900  -13.5130   20.0270 N   0  0  0  0  0  0  0  0  0  0  0  0
  -26.6960  -12.2210   20.1730 N   0  0  0  0  0  0  0  0  0  0  0  0
  -24.7160  -11.0180   20.8380 C   0  0  0  0  0  0  0  0  0  0  0  0
  -25.1370   -9.9920   21.7120 C   0  0  0  0  0  3  0  0  0  0  0  0
  -24.3790   -8.8080   21.8450 C   0  0  0  0  0  3  0  0  0  0  0  0
  -23.1850   -8.6440   21.1030 C   0  0  0  0  0  0  0  0  0  0  0  0
  -22.7830   -9.6590   20.2170 C   0  0  0  0  0  3  0  0  0  0  0  0
  -23.5420  -10.8330   20.0830 C   0  0  0  0  0  3  0  0  0  0  0  0
  -22.3980   -7.5190   21.1490 O   0  0  0  0  0  0  0  0  0  0  0  0
  -22.2010   -6.8250   22.3160 C   0  0  0  0  0  0  0  0  0  0  0  0
  -21.6620   -7.4400   23.4670 C   0  0  0  0  0  3  0  0  0  0  0  0
  -21.4110   -6.6740   24.6220 C   0  0  0  0  0  3  0  0  0  0  0  0
  -21.6900   -5.2940   24.6270 C   0  0  0  0  0  0  0  0  0  0  0  0
  -22.2220   -4.6790   23.4800 C   0  0  0  0  0  3  0  0  0  0  0  0
  -22.4740   -5.4420   22.3270 C   0  0  0  0  0  0  0  0  0  0  0  0
  -22.9670   -4.8400   21.2180 F   0  0  0  0  0  0  0  0  0  0  0  0
  -21.4420   -4.5550   25.7330 F   0  0  0  0  0  0  0  0  0  0  0  0
  -23.8060  -14.1040   21.5450 C   0  0  0  0  0  0  0  0  0  0  0  0
  -23.2070  -13.3400   22.4530 N   0  0  0  0  0  0  0  0  0  0  0  0
  -23.3350  -15.1920   21.2190 O   0  0  0  0  0  0  0  0  0  0  0  0
  -23.6050  -12.4560   22.7350 H   0  0  0  0  0  0  0  0  0  0  0  0
  -22.3360  -13.6400   22.8670 H   0  0  0  0  0  0  0  0  0  0  0  0
  -26.3690  -15.7660   20.5200 N   0  0  0  0  0  0  0  0  0  0  0  0
  -25.6730  -16.4340   20.8390 H   0  0  0  0  0  0  0  0  0  0  0  0
  -27.1950  -16.2070   20.1340 H   0  0  0  0  0  0  0  0  0  0  0  0
  1  4  1  0
  1  2  1  0
  2  5  1  0
  3  7  1  0
  3  5  1  0
  4 11  1  0
  4  3  1  0
  5 54  1  0
  5  6  1  1
  7 10  1  0
  8  7  2  0
 10  9  1  0
 12 11  1  0
 13 15  1  0
 13 12  1  0
 14 25  2  0
 15 20  1  0
 16 24  1  0
 16 26  1  0
 17 23  1  0
 17 19  1  0
 18 24  1  0
 19 18  1  0
 20 19  2  0
 21 22  1  0
 21 15  2  0
 22 17  2  0
 23 16  1  0
 24 14  1  0
 26 28  2  0
 27 26  1  0
 29 27  1  0
 30 39  2  0
 30 35  1  0
 31 27  1  0
 31 35  1  0
 32 31  1  0
 33 34  1  0
 33 32  1  0
 34 30  1  0
 35 36  2  0
 36 37  1  0
 38 37  2  0
 39 38  1  0
 40 14  1  0
 40 45  1  0
 40 41  1  0
 41 44  1  1
 41 42  1  0
 43 41  1  0
 45 48  1  0
 46 45  1  0
 46 50  1  0
 47 46  2  0
 50 49  1  0
 50 52  1  0
 52 53  1  0
 52 51  1  0
 54 55  1  0
 56 55  1  0
 57 56  1  0
 58 57  1  0
 59 58  1  0
 60 59  1  0
 61 67  1  0
 61 69  1  0
 62 67  1  0
 63 64  1  0
 63 62  1  0
 65 64  1  0
 65 74  1  0
 65 66  1  0
 67 66  1  0
 68 61  2  0
 69 60  1  0
 69 70  1  0
 71 72  2  0
 72 91  1  0
 73 76  1  0
 73 72  1  0
 74 75  1  0
 74 71  1  0
 75 73  2  0
 76 77  1  0
 77 78  2  0
 79 82  1  0
 79 78  1  0
 80 79  2  0
 81 80  1  0
 81 76  2  0
 82 83  1  0
 83 88  2  0
 83 84  1  0
 84 85  2  0
 85 86  1  0
 86 90  1  0
 87 86  2  0
 88 87  1  0
 89 88  1  0
 91 92  1  0
 92 94  1  0
 92 95  1  0
 93 91  2  0
 96 71  1  0
 96 97  1  0
 98 96  1  0
M  ISO  4  12 101  13 101  61 100  69 100
M  END
>  <TORSDO>  (87) 
F 27

>  <SCORE>  (87) 
-5.845

>  <name>  (87) 
87

>  <ligand_id>  (87) 
87

>  <original_smiles>  (87) 
[H]c1c([H])c([H])c2c(c1[H])C([H])([H])C([H])([H])C([H])([H])C2([H])N([H])C(=O)C1([H])N(C(=O)C([H])(N([H])C(=O)C([H])(N([H])C([H])([H])[H])C([H])([H])[H])C(C([H])([H])[H])(C([H])([H])[H])C([H])([H])[H])C([H])([H])c2c([H])c(OC([H])([H])C([H])([H])C3([H])C([H])([H])C([H])([H])[N+]([H])(C([H])([H])C([H])([H])C([H])([H])C([H])([H])C([H])([H])C([H])([H])C([H])([H])N([H])C(=O)N4C([H])([H])C([H])([H])C([H])([H])C([H])(n5nc(-c6c([H])c([H])c(Oc7c([H])c([H])c(F)c([H])c7F)c([H])c6[H])c(C(=O)N([H])[H])c5N([H])[H])C4([H])[H])C3([H])C(=O)C([H])([H])C([H])([H])[H])c([H])c([H])c2C1([H])[H]

>  <smiles>  (87) 
[H]c1c([H])c([H])c2c(c1[H])C([H])([H])C([H])([H])C([H])([H])C2([H])N([H])C(=O)C1([H])N(C(=O)C([H])(N([H])C(=O)C([H])(N([H])C([H])([H])[H])C([H])([H])[H])C(C([H])([H])[H])(C([H])([H])[H])C([H])([H])[H])C([H])([H])c2c([H])c(OC([H])([H])C([H])([H])C3([H])C([H])([H])C([H])([H])[N+]([H])(C([H])([H])C([H])([H])C([H])([H])C([H])([H])C([H])([H])C([H])([H])C([H])([H])N([H])C(=O)N4C([H])([H])C([H])([H])C([H])([H])C([H])(n5nc(-c6c([H])c([H])c(Oc7c([H])c([H])c(F)c([H])c7F)c([H])c6[H])c(C(=O)N([H])[H])c5N([H])[H])C4([H])[H])C3([H])C(=O)C([H])([H])C([H])([H])[H])c([H])c([H])c2C1([H])[H]

$$$$
88:0:0
     RDKit          3D

 92101  0  0  1  0  0  0  0  0999 V2000
  -30.2160  -22.3050   20.8910 C   0  0  0  0  0  3  0  0  0  0  0  0
  -28.3830  -21.5960   19.4910 C   0  0  0  0  0  3  0  0  0  0  0  0
  -29.8480  -23.6670   20.6970 C   0  0  0  0  0  3  0  0  0  0  0  0
  -28.0210  -22.9600   19.2940 C   0  0  0  0  0  3  0  0  0  0  0  0
  -29.5330  -21.2390   20.2390 C   0  0  0  0  0  0  0  0  0  0  0  0
  -28.7760  -24.0290   19.8430 C   0  0  0  0  0  0  0  0  0  0  0  0
  -31.5320  -18.4930   18.3180 C   0  0  0  0  0  2  0  0  0  0  0  0
  -30.7530  -19.7710   18.6380 C   0  0  0  0  0  2  0  0  0  0  0  0
  -30.6920  -17.2510   18.6240 C   0  0  0  0  0  2  0  0  0  0  0  0
  -29.4840  -18.4730   20.4800 C   0  0  0  0  0  2  0  0  0  0  0  0
  -30.2200  -19.8370   20.0890 C   0  0  0  0  0  3  0  0  0  0  0  0
  -30.3610  -17.1830   20.1330 C   0  0  0  0  0  3  0  0  0  0  0  0
  -30.6080  -14.6480   20.3890 C   0  0  0  0  0  0  0  0  0  0  0  0
  -30.3340  -12.4210   19.3540 C   0  0  0  0  0  2  0  0  0  0  0  0
  -29.4130  -12.5690   18.1260 C   0  0  0  0  0  2  0  0  0  0  0  0
  -27.9360  -12.4200   18.5440 C   0  0  0  0  0  2  0  0  0  0  0  0
  -27.5720  -13.2900   19.7780 C   0  0  0  0  0  3  0  0  0  0  0  0
  -28.6210  -13.1610   20.9040 C   0  0  0  0  0  2  0  0  0  0  0  0
  -29.9340  -13.4610   20.3210 N   0  0  0  0  0  0  0  0  0  0  0  0
  -31.8040  -14.7090   20.1040 O   0  0  0  0  0  0  0  0  0  0  0  0
  -29.8700  -15.8020   20.5010 N   0  0  0  0  0  0  0  0  0  0  0  0
  -28.8870  -15.6970   20.7090 H   0  0  0  0  0  0  0  0  0  0  0  0
  -25.1770  -13.8920   20.4840 C   0  0  0  0  0  0  0  0  0  0  0  0
  -24.1080  -13.1220   20.8530 C   0  0  0  0  0  0  0  0  0  0  0  0
  -24.5680  -11.7700   20.8330 C   0  0  0  0  0  0  0  0  0  0  0  0
  -26.2210  -13.0100   20.2590 N   0  0  0  0  0  0  0  0  0  0  0  0
  -25.8600  -11.7280   20.5310 N   0  0  0  0  0  0  0  0  0  0  0  0
  -23.8370  -10.5100   21.0270 C   0  0  0  0  0  0  0  0  0  0  0  0
  -24.2660   -9.5440   21.9640 C   0  0  0  0  0  3  0  0  0  0  0  0
  -23.5370   -8.3480   22.1440 C   0  0  0  0  0  3  0  0  0  0  0  0
  -22.3660   -8.1110   21.3880 C   0  0  0  0  0  0  0  0  0  0  0  0
  -21.9570   -9.0650   20.4390 C   0  0  0  0  0  3  0  0  0  0  0  0
  -22.6860  -10.2510   20.2570 C   0  0  0  0  0  3  0  0  0  0  0  0
  -21.6070   -6.9690   21.4770 O   0  0  0  0  0  0  0  0  0  0  0  0
  -21.5550   -6.2290   22.6310 C   0  0  0  0  0  0  0  0  0  0  0  0
  -21.1310   -6.7880   23.8570 C   0  0  0  0  0  3  0  0  0  0  0  0
  -21.0260   -5.9730   25.0020 C   0  0  0  0  0  3  0  0  0  0  0  0
  -21.3340   -4.6020   24.9230 C   0  0  0  0  0  0  0  0  0  0  0  0
  -21.7490   -4.0430   23.7020 C   0  0  0  0  0  3  0  0  0  0  0  0
  -21.8560   -4.8540   22.5590 C   0  0  0  0  0  0  0  0  0  0  0  0
  -22.2380   -4.3050   21.3800 F   0  0  0  0  0  0  0  0  0  0  0  0
  -21.2250   -3.8180   26.0220 F   0  0  0  0  0  0  0  0  0  0  0  0
  -22.7090  -13.6040   21.1130 C   0  0  0  0  0  0  0  0  0  0  0  0
  -21.9720  -12.9150   21.9760 N   0  0  0  0  0  0  0  0  0  0  0  0
  -22.2780  -14.6260   20.5810 O   0  0  0  0  0  0  0  0  0  0  0  0
  -22.3310  -12.0870   22.4300 H   0  0  0  0  0  0  0  0  0  0  0  0
  -21.0320  -13.2200   22.1880 H   0  0  0  0  0  0  0  0  0  0  0  0
  -25.3430  -15.2610   20.2990 N   0  0  0  0  0  0  0  0  0  0  0  0
  -24.5710  -15.9110   20.4030 H   0  0  0  0  0  0  0  0  0  0  0  0
  -26.1870  -15.7000   19.9550 H   0  0  0  0  0  0  0  0  0  0  0  0
  -28.5980  -25.4840   19.3000 C   0  0  0  0  0  2  0  0  0  0  0  0
  -28.3930  -26.6020   20.2160 O   0  0  0  0  0  0  0  0  0  0  0  0
  -24.6000  -31.8830   23.2450 C   0  0  0  0  0  0  0  0  0  0  0  0
  -27.2340  -27.3810   20.1590 C   0  0  0  0  0  0  0  0  0  0  0  0
  -23.3950  -30.4840   21.6030 C   0  0  0  0  0  3  0  0  0  0  0  0
  -24.8460  -28.9450   20.1710 C   0  0  0  0  0  0  0  0  0  0  0  0
  -25.9270  -30.8240   21.4100 C   0  0  0  0  0  2  0  0  0  0  0  0
  -26.0090  -29.4500   20.7620 C   0  0  0  0  0  0  0  0  0  0  0  0
  -27.2010  -28.6750   20.7540 C   0  0  0  0  0  3  0  0  0  0  0  0
  -26.0380  -26.9050   19.5730 C   0  0  0  0  0  3  0  0  0  0  0  0
  -24.8600  -27.6740   19.5720 C   0  0  0  0  0  3  0  0  0  0  0  0
  -23.6030  -29.8080   20.2210 C   0  0  0  0  0  2  0  0  0  0  0  0
  -24.6590  -31.0810   22.1430 N   0  0  0  0  0  0  0  0  0  0  0  0
  -23.5180  -32.1550   23.7850 O   0  0  0  0  0  0  0  0  0  0  0  0
  -22.7430  -29.4620   22.5630 C   0  0  0  0  0  0  0  0  0  0  0  0
  -21.4170  -29.2860   22.4430 N   0  0  0  0  0  0  0  0  0  0  0  0
  -23.4280  -28.8310   23.3720 O   0  0  0  0  0  0  0  0  0  0  0  0
  -20.9260  -29.8480   21.7620 H   0  0  0  0  0  0  0  0  0  0  0  0
  -18.0430  -28.0890   22.9500 C   0  0  0  0  0  0  0  0  0  0  0  0
  -20.6010  -28.3450   23.2120 C   0  0  0  0  0  3  0  0  0  0  0  0
  -20.7000  -26.9170   22.6310 C   0  0  0  0  0  2  0  0  0  0  0  0
  -19.5950  -26.5960   21.6200 C   0  0  0  0  0  2  0  0  0  0  0  0
  -18.2150  -26.7400   22.2690 C   0  0  0  0  0  2  0  0  0  0  0  0
  -19.1630  -28.8490   23.3780 C   0  0  0  0  0  0  0  0  0  0  0  0
  -18.9460  -30.1100   23.9720 C   0  0  0  0  0  3  0  0  0  0  0  0
  -17.6430  -30.6120   24.1450 C   0  0  0  0  0  3  0  0  0  0  0  0
  -16.5360  -29.8480   23.7340 C   0  0  0  0  0  3  0  0  0  0  0  0
  -16.7380  -28.5880   23.1410 C   0  0  0  0  0  3  0  0  0  0  0  0
  -25.8850  -32.5160   23.8640 C   0  0  0  0  0  3  0  0  0  0  0  0
  -25.5760  -33.9140   24.1950 N   0  0  0  0  0  0  0  0  0  0  0  0
  -25.9040  -34.9670   23.4350 C   0  0  0  0  0  0  0  0  0  0  0  0
  -26.5710  -34.8640   22.4020 O   0  0  0  0  0  0  0  0  0  0  0  0
  -24.9850  -34.0670   24.9990 H   0  0  0  0  0  0  0  0  0  0  0  0
  -24.1720  -36.7570   23.0820 C   0  0  0  0  0  1  0  0  0  0  0  0
  -25.4150  -36.3560   23.8920 C   0  0  0  0  0  3  0  0  0  0  0  0
  -27.5510  -37.2420   24.7190 C   0  0  0  0  0  1  0  0  0  0  0  0
  -26.4460  -37.4100   23.7790 N   0  0  0  0  0  0  0  0  0  0  0  0
  -26.0400  -38.3300   23.9260 H   0  0  0  0  0  0  0  0  0  0  0  0
  -26.4030  -31.7460   25.1410 C   0  0  1  0  0  0  0  0  0  0  0  0
  -25.3120  -31.5100   26.2110 C   0  0  0  0  0  1  0  0  0  0  0  0
  -26.9850  -30.3670   24.7480 C   0  0  0  0  0  1  0  0  0  0  0  0
  -27.5560  -32.5400   25.8000 C   0  0  0  0  0  1  0  0  0  0  0  0
  2  5  1  0
  3  1  1  0
  4  2  2  0
  4  6  1  0
  5  1  2  0
  6  3  2  0
  7  9  1  0
  7  8  1  0
  8 11  1  0
  9 12  1  0
 11  5  1  0
 11 10  1  0
 12 10  1  0
 12 21  1  0
 13 21  1  0
 14 19  1  0
 15 16  1  0
 15 14  1  0
 17 16  1  0
 17 26  1  0
 17 18  1  0
 19 13  1  0
 19 18  1  0
 20 13  2  0
 21 22  1  0
 23 24  2  0
 24 43  1  0
 25 24  1  0
 25 28  1  0
 26 23  1  0
 26 27  1  0
 27 25  2  0
 28 29  1  0
 29 30  2  0
 31 34  1  0
 31 30  1  0
 32 31  2  0
 33 32  1  0
 33 28  2  0
 34 35  1  0
 35 36  1  0
 36 37  2  0
 38 37  1  0
 38 42  1  0
 39 38  2  0
 40 35  2  0
 40 39  1  0
 41 40  1  0
 43 44  1  0
 44 47  1  0
 44 46  1  0
 45 43  2  0
 48 49  1  0
 48 23  1  0
 50 48  1  0
 51  6  1  0
 51 52  1  0
 53 64  2  0
 54 52  1  0
 54 59  1  0
 55 63  1  0
 55 65  1  0
 56 62  1  0
 56 58  1  0
 57 63  1  0
 58 57  1  0
 59 58  2  0
 60 54  2  0
 61 60  1  0
 61 56  2  0
 62 55  1  0
 63 53  1  0
 65 67  2  0
 66 65  1  0
 68 66  1  0
 69 78  2  0
 69 74  1  0
 70 66  1  0
 70 74  1  0
 71 70  1  0
 72 73  1  0
 72 71  1  0
 73 69  1  0
 74 75  2  0
 75 76  1  0
 77 76  2  0
 78 77  1  0
 79 53  1  0
 79 80  1  0
 79 89  1  0
 80 83  1  0
 81 85  1  0
 81 80  1  0
 82 81  2  0
 85 84  1  0
 87 85  1  0
 87 88  1  0
 87 86  1  0
 89 92  1  1
 89 90  1  0
 91 89  1  0
M  ISO  4  13 100  21 100  51 101  52 101
M  END
>  <TORSDO>  (88) 
F 18

>  <SCORE>  (88) 
-14.699

>  <name>  (88) 
88

>  <ligand_id>  (88) 
88

>  <original_smiles>  (88) 
[H]c1c([H])c([H])c2c(c1[H])C([H])([H])C([H])([H])C([H])([H])C2([H])N([H])C(=O)C1([H])N(C(=O)C([H])(N([H])C(=O)C([H])(N([H])C([H])([H])[H])C([H])([H])[H])C(C([H])([H])[H])(C([H])([H])[H])C([H])([H])[H])C([H])([H])c2c([H])c(OC([H])([H])c3c([H])c([H])c(C4([H])C([H])([H])C([H])([H])C([H])([H])C([H])(N([H])C(=O)N5C([H])([H])C([H])([H])C([H])([H])C([H])(n6nc(-c7c([H])c([H])c(Oc8c([H])c([H])c(F)c([H])c8F)c([H])c7[H])c(C(=O)N([H])[H])c6N([H])[H])C5([H])[H])C4([H])[H])c([H])c3[H])c([H])c([H])c2C1([H])[H]

>  <smiles>  (88) 
[H]c1c([H])c([H])c2c(c1[H])C([H])([H])C([H])([H])C([H])([H])C2([H])N([H])C(=O)C1([H])N(C(=O)C([H])(N([H])C(=O)C([H])(N([H])C([H])([H])[H])C([H])([H])[H])C(C([H])([H])[H])(C([H])([H])[H])C([H])([H])[H])C([H])([H])c2c([H])c(OC([H])([H])c3c([H])c([H])c(C4([H])C([H])([H])C([H])([H])C([H])([H])C([H])(N([H])C(=O)N5C([H])([H])C([H])([H])C([H])([H])C([H])(n6nc(-c7c([H])c([H])c(Oc8c([H])c([H])c(F)c([H])c8F)c([H])c7[H])c(C(=O)N([H])[H])c6N([H])[H])C5([H])[H])C4([H])[H])c([H])c3[H])c([H])c([H])c2C1([H])[H]

$$$$
89:0:0
     RDKit          3D

 99108  0  0  1  0  0  0  0  0999 V2000
  -28.2550  -26.8080   23.1200 C   0  0  0  0  0  3  0  0  0  0  0  0
  -27.7560  -25.9020   22.1210 C   0  0  0  0  0  2  0  0  0  0  0  0
  -29.1570  -27.6260   22.5530 C   0  0  0  0  0  3  0  0  0  0  0  0
  -28.3470  -26.1980   20.9510 C   0  0  0  0  0  3  0  0  0  0  0  0
  -28.6140  -25.2230   19.8290 C   0  0  0  0  0  2  0  0  0  0  0  0
  -30.6460  -27.0710   20.4880 C   0  0  0  0  0  2  0  0  0  0  0  0
  -31.0320  -25.5680   20.5230 C   0  0  0  0  0  2  0  0  0  0  0  0
  -29.2520  -27.4100   21.0510 C   0  0  2  0  0  0  0  0  0  0  0  0
  -29.9450  -24.6160   20.1100 N   0  0  2  0  0  4  0  0  0  0  0  0
  -29.7760  -24.1190   20.9730 H   0  0  0  0  0  0  0  0  0  0  0  0
  -30.3470  -23.5220   19.1820 C   0  0  0  0  0  2  0  0  0  0  0  0
  -30.5420  -22.2110   19.9740 C   0  0  0  0  0  2  0  0  0  0  0  0
  -31.2510  -21.0750   19.2110 C   0  0  0  0  0  2  0  0  0  0  0  0
  -31.9000  -20.0870   20.1990 C   0  0  0  0  0  2  0  0  0  0  0  0
  -32.7200  -18.9520   19.5570 C   0  0  0  0  0  2  0  0  0  0  0  0
  -33.7430  -18.3210   20.5230 C   0  0  0  0  0  2  0  0  0  0  0  0
  -34.8210  -19.2880   21.0580 C   0  0  0  0  0  2  0  0  0  0  0  0
  -35.7810  -19.7780   19.9570 C   0  0  0  0  0  2  0  0  0  0  0  0
  -35.3440  -21.1150   19.3330 C   0  0  0  0  0  2  0  0  0  0  0  0
  -36.3250  -21.6840   18.2980 C   0  0  0  0  0  2  0  0  0  0  0  0
  -37.4270  -20.9460   16.2100 C   0  0  0  0  0  0  0  0  0  0  0  0
  -39.0150  -20.0390   14.5650 C   0  0  0  0  0  2  0  0  0  0  0  0
  -38.3970  -19.8530   13.1690 C   0  0  0  0  0  2  0  0  0  0  0  0
  -37.7240  -18.4760   13.0590 C   0  0  0  0  0  2  0  0  0  0  0  0
  -36.7580  -18.1960   14.2390 C   0  0  0  0  0  3  0  0  0  0  0  0
  -37.4270  -18.4980   15.5990 C   0  0  0  0  0  2  0  0  0  0  0  0
  -37.9640  -19.8730   15.5790 N   0  0  0  0  0  0  0  0  0  0  0  0
  -37.6430  -22.1130   15.8740 O   0  0  0  0  0  0  0  0  0  0  0  0
  -36.7830  -20.6690   17.3490 N   0  0  0  0  0  0  0  0  0  0  0  0
  -36.7270  -19.7010   17.6270 H   0  0  0  0  0  0  0  0  0  0  0  0
  -34.9390  -16.3850   13.9910 C   0  0  0  0  0  0  0  0  0  0  0  0
  -35.0090  -15.0190   13.9430 C   0  0  0  0  0  0  0  0  0  0  0  0
  -36.3890  -14.6880   14.0980 C   0  0  0  0  0  0  0  0  0  0  0  0
  -36.2410  -16.8280   14.1780 N   0  0  0  0  0  0  0  0  0  0  0  0
  -37.1070  -15.7870   14.2930 N   0  0  0  0  0  0  0  0  0  0  0  0
  -37.0800  -13.3940   14.0160 C   0  0  0  0  0  0  0  0  0  0  0  0
  -37.9240  -12.9400   15.0530 C   0  0  0  0  0  3  0  0  0  0  0  0
  -38.5600  -11.6820   14.9590 C   0  0  0  0  0  3  0  0  0  0  0  0
  -38.3520  -10.8640   13.8230 C   0  0  0  0  0  0  0  0  0  0  0  0
  -37.5290  -11.3320   12.7840 C   0  0  0  0  0  3  0  0  0  0  0  0
  -36.9010  -12.5860   12.8760 C   0  0  0  0  0  3  0  0  0  0  0  0
  -38.9480   -9.6390   13.6350 O   0  0  0  0  0  0  0  0  0  0  0  0
  -39.3270   -8.8540   14.6950 C   0  0  0  0  0  0  0  0  0  0  0  0
  -38.4030   -8.4240   15.6730 C   0  0  0  0  0  3  0  0  0  0  0  0
  -38.8240   -7.5600   16.7050 C   0  0  0  0  0  3  0  0  0  0  0  0
  -40.1590   -7.1180   16.7560 C   0  0  0  0  0  0  0  0  0  0  0  0
  -41.0770   -7.5410   15.7790 C   0  0  0  0  0  3  0  0  0  0  0  0
  -40.6620   -8.4030   14.7500 C   0  0  0  0  0  0  0  0  0  0  0  0
  -41.5470   -8.7910   13.7990 F   0  0  0  0  0  0  0  0  0  0  0  0
  -40.5590   -6.2830   17.7420 F   0  0  0  0  0  0  0  0  0  0  0  0
  -33.8740  -14.0710   13.6760 C   0  0  0  0  0  0  0  0  0  0  0  0
  -33.9150  -12.8830   14.2680 N   0  0  0  0  0  0  0  0  0  0  0  0
  -32.9180  -14.4020   12.9760 O   0  0  0  0  0  0  0  0  0  0  0  0
  -34.6890  -12.6180   14.8600 H   0  0  0  0  0  0  0  0  0  0  0  0
  -33.1610  -12.2260   14.1290 H   0  0  0  0  0  0  0  0  0  0  0  0
  -33.8880  -17.2910   13.8730 N   0  0  0  0  0  0  0  0  0  0  0  0
  -32.9320  -17.0050   13.6980 H   0  0  0  0  0  0  0  0  0  0  0  0
  -34.0000  -18.2960   13.9080 H   0  0  0  0  0  0  0  0  0  0  0  0
  -28.8050  -28.5590   20.3210 O   0  0  0  0  0  0  0  0  0  0  0  0
  -21.7700  -27.5980   20.9450 C   0  0  0  0  0  0  0  0  0  0  0  0
  -27.5680  -28.5180   19.7270 C   0  0  0  0  0  0  0  0  0  0  0  0
  -22.6500  -27.7400   18.6340 C   0  0  0  0  0  3  0  0  0  0  0  0
  -25.0720  -28.5090   18.4220 C   0  0  0  0  0  0  0  0  0  0  0  0
  -23.8460  -28.9110   20.5670 C   0  0  0  0  0  2  0  0  0  0  0  0
  -25.1390  -28.7070   19.8080 C   0  0  0  0  0  0  0  0  0  0  0  0
  -26.3840  -28.7120   20.4680 C   0  0  0  0  0  3  0  0  0  0  0  0
  -27.4960  -28.3460   18.3320 C   0  0  0  0  0  3  0  0  0  0  0  0
  -26.2500  -28.3260   17.6760 C   0  0  0  0  0  3  0  0  0  0  0  0
  -23.6940  -28.5220   17.7950 C   0  0  0  0  0  2  0  0  0  0  0  0
  -22.7380  -28.0510   20.0980 N   0  0  0  0  0  0  0  0  0  0  0  0
  -20.7920  -26.9660   20.5210 O   0  0  0  0  0  0  0  0  0  0  0  0
  -22.8020  -26.2350   18.3220 C   0  0  0  0  0  0  0  0  0  0  0  0
  -22.2290  -25.8010   17.1880 N   0  0  0  0  0  0  0  0  0  0  0  0
  -23.4420  -25.4950   19.0720 O   0  0  0  0  0  0  0  0  0  0  0  0
  -21.7200  -26.4700   16.6270 H   0  0  0  0  0  0  0  0  0  0  0  0
  -21.2820  -23.7220   14.3910 C   0  0  0  0  0  0  0  0  0  0  0  0
  -22.2690  -24.4330   16.6730 C   0  0  0  0  0  3  0  0  0  0  0  0
  -23.6540  -24.1130   16.0610 C   0  0  0  0  0  2  0  0  0  0  0  0
  -23.7210  -24.3750   14.5540 C   0  0  0  0  0  2  0  0  0  0  0  0
  -22.6750  -23.5360   13.8130 C   0  0  0  0  0  2  0  0  0  0  0  0
  -21.0930  -24.1550   15.7300 C   0  0  0  0  0  0  0  0  0  0  0  0
  -19.7790  -24.3410   16.2100 C   0  0  0  0  0  3  0  0  0  0  0  0
  -18.6680  -24.1010   15.3800 C   0  0  0  0  0  3  0  0  0  0  0  0
  -18.8590  -23.6610   14.0600 C   0  0  0  0  0  3  0  0  0  0  0  0
  -20.1640  -23.4660   13.5710 C   0  0  0  0  0  3  0  0  0  0  0  0
  -21.8340  -27.8690   22.4800 C   0  0  0  0  0  3  0  0  0  0  0  0
  -22.9890  -27.0800   23.2060 C   0  0  1  0  0  0  0  0  0  0  0  0
  -23.0110  -25.5710   22.8740 C   0  0  0  0  0  1  0  0  0  0  0  0
  -24.3720  -27.6660   22.8350 C   0  0  0  0  0  1  0  0  0  0  0  0
  -22.8460  -27.2340   24.7380 C   0  0  0  0  0  1  0  0  0  0  0  0
  -20.5240  -27.5150   23.0430 N   0  0  0  0  0  0  0  0  0  0  0  0
  -19.3840  -28.1680   22.7810 C   0  0  0  0  0  0  0  0  0  0  0  0
  -19.3380  -29.1880   22.0880 O   0  0  0  0  0  0  0  0  0  0  0  0
  -20.4740  -26.6590   23.5770 H   0  0  0  0  0  0  0  0  0  0  0  0
  -17.7290  -26.2740   22.6800 C   0  0  0  0  0  1  0  0  0  0  0  0
  -18.0850  -27.5950   23.3820 C   0  0  0  0  0  3  0  0  0  0  0  0
  -17.0750  -29.6830   24.1810 C   0  0  0  0  0  1  0  0  0  0  0  0
  -16.9410  -28.5260   23.3000 N   0  0  0  0  0  0  0  0  0  0  0  0
  -16.0740  -28.0510   23.5310 H   0  0  0  0  0  0  0  0  0  0  0  0
  2  1  1  0
  3  1  2  0
  4  5  1  0
  4  8  1  0
  4  2  1  0
  5  9  1  0
  6  7  1  0
  6  8  1  0
  8 59  1  6
  8  3  1  0
  9  7  1  0
  9 10  1  1
 11 12  1  0
 11  9  1  0
 13 12  1  0
 13 14  1  0
 15 14  1  0
 15 16  1  0
 16 17  1  0
 18 17  1  0
 19 18  1  0
 20 19  1  0
 21 29  1  0
 22 27  1  0
 23 22  1  0
 24 23  1  0
 25 24  1  0
 25 26  1  0
 27 26  1  0
 27 21  1  0
 28 21  2  0
 29 30  1  0
 29 20  1  0
 31 34  1  0
 32 31  2  0
 32 33  1  0
 33 35  2  0
 34 25  1  0
 34 35  1  0
 36 33  1  0
 36 37  1  0
 38 37  2  0
 39 38  1  0
 40 41  1  0
 40 39  2  0
 41 36  2  0
 42 39  1  0
 42 43  1  0
 43 48  2  0
 43 44  1  0
 44 45  2  0
 45 46  1  0
 46 50  1  0
 47 46  2  0
 48 47  1  0
 49 48  1  0
 51 32  1  0
 51 52  1  0
 52 54  1  0
 53 51  2  0
 55 52  1  0
 56 58  1  0
 56 31  1  0
 57 56  1  0
 61 59  1  0
 61 66  1  0
 62 72  1  0
 62 70  1  0
 63 65  1  0
 65 66  2  0
 65 64  1  0
 67 61  2  0
 68 67  1  0
 68 63  2  0
 69 63  1  0
 69 62  1  0
 70 64  1  0
 70 60  1  0
 71 60  2  0
 72 74  2  0
 73 72  1  0
 75 73  1  0
 76 81  1  0
 77 73  1  0
 78 77  1  0
 79 78  1  0
 80 76  1  0
 80 79  1  0
 81 82  2  0
 81 77  1  0
 83 82  1  0
 84 83  2  0
 85 84  1  0
 85 76  2  0
 86 60  1  0
 86 91  1  0
 86 87  1  0
 87 90  1  1
 88 87  1  0
 89 87  1  0
 91 94  1  0
 92 91  1  0
 92 96  1  0
 93 92  2  0
 96 95  1  0
 98 96  1  0
 98 99  1  0
 98 97  1  0
M  ISO  4   8 101  21 100  29 100  59 101
M  END
>  <TORSDO>  (89) 
F 26

>  <SCORE>  (89) 
-3.021

>  <name>  (89) 
89

>  <ligand_id>  (89) 
89

>  <original_smiles>  (89) 
[H]C1=C([H])C2(Oc3c([H])c([H])c4c(c3[H])C([H])([H])N(C(=O)C([H])(N([H])C(=O)C([H])(N([H])C([H])([H])[H])C([H])([H])[H])C(C([H])([H])[H])(C([H])([H])[H])C([H])([H])[H])C([H])(C(=O)N([H])C3([H])c5c([H])c([H])c([H])c([H])c5C([H])([H])C([H])([H])C3([H])[H])C4([H])[H])C(=C1[H])C([H])([H])[N+]([H])(C([H])([H])C([H])([H])C([H])([H])C([H])([H])C([H])([H])C([H])([H])C([H])([H])C([H])([H])C([H])([H])C([H])([H])N([H])C(=O)N1C([H])([H])C([H])([H])C([H])([H])C([H])(n3nc(-c4c([H])c([H])c(Oc5c([H])c([H])c(F)c([H])c5F)c([H])c4[H])c(C(=O)N([H])[H])c3N([H])[H])C1([H])[H])C([H])([H])C2([H])[H]

>  <smiles>  (89) 
[H]C1=C([H])C2(Oc3c([H])c([H])c4c(c3[H])C([H])([H])N(C(=O)C([H])(N([H])C(=O)C([H])(N([H])C([H])([H])[H])C([H])([H])[H])C(C([H])([H])[H])(C([H])([H])[H])C([H])([H])[H])C([H])(C(=O)N([H])C3([H])c5c([H])c([H])c([H])c([H])c5C([H])([H])C([H])([H])C3([H])[H])C4([H])[H])C(=C1[H])C([H])([H])[N+]([H])(C([H])([H])C([H])([H])C([H])([H])C([H])([H])C([H])([H])C([H])([H])C([H])([H])C([H])([H])C([H])([H])C([H])([H])N([H])C(=O)N1C([H])([H])C([H])([H])C([H])([H])C([H])(n3nc(-c4c([H])c([H])c(Oc5c([H])c([H])c(F)c([H])c5F)c([H])c4[H])c(C(=O)N([H])[H])c3N([H])[H])C1([H])[H])C([H])([H])C2([H])[H]

$$$$
90:0:0
     RDKit          3D

102112  0  0  1  0  0  0  0  0999 V2000
  -30.9440  -23.1950   21.4230 C   0  0  0  0  0  3  0  0  0  0  0  0
  -31.7640  -21.2560   22.7250 C   0  0  0  0  0  3  0  0  0  0  0  0
  -29.7490  -22.5880   21.3170 C   0  0  0  0  0  0  0  0  0  0  0  0
  -30.5600  -20.6520   22.6370 C   0  0  0  0  0  0  0  0  0  0  0  0
  -32.1820  -22.4550   21.8830 C   0  0  0  0  0  2  0  0  0  0  0  0
  -27.3900  -22.1710   21.0950 C   0  0  0  0  0  2  0  0  0  0  0  0
  -28.0450  -20.9980   21.8410 C   0  0  0  0  0  2  0  0  0  0  0  0
  -28.4130  -23.2940   21.2320 C   0  0  0  0  0  3  0  0  0  0  0  0
  -29.5560  -21.0880   21.5330 C   0  0  1  0  0  0  0  0  0  0  0  0
  -30.1730  -19.5860   23.6610 C   0  0  0  0  0  2  0  0  0  0  0  0
  -30.1740  -20.1110   25.1160 C   0  0  0  0  0  2  0  0  0  0  0  0
  -29.8200  -19.0650   26.2050 C   0  0  0  0  0  2  0  0  0  0  0  0
  -28.3330  -18.7650   26.4140 C   0  0  0  0  0  0  0  0  0  0  0  0
  -27.9760  -17.3530   26.8260 C   0  0  0  0  0  1  0  0  0  0  0  0
  -27.4330  -19.6430   26.2980 N   0  0  0  0  0  0  0  0  0  0  0  0
  -26.4990  -19.2730   26.4600 H   0  0  0  0  0  0  0  0  0  0  0  0
  -28.3190  -24.4560   20.2190 C   0  0  0  0  0  2  0  0  0  0  0  0
  -28.5320  -25.8080   20.9340 C   0  0  0  0  0  2  0  0  0  0  0  0
  -28.5290  -26.9380   20.0640 O   0  0  0  0  0  0  0  0  0  0  0  0
  -24.7050  -32.0120   23.2910 C   0  0  0  0  0  0  0  0  0  0  0  0
  -27.3600  -27.6540   20.1090 C   0  0  0  0  0  0  0  0  0  0  0  0
  -23.4940  -30.6060   21.6540 C   0  0  0  0  0  3  0  0  0  0  0  0
  -24.9460  -29.1030   20.1940 C   0  0  0  0  0  0  0  0  0  0  0  0
  -26.0100  -31.0030   21.4240 C   0  0  0  0  0  2  0  0  0  0  0  0
  -26.1050  -29.6430   20.7670 C   0  0  0  0  0  0  0  0  0  0  0  0
  -27.3180  -28.9220   20.7260 C   0  0  0  0  0  3  0  0  0  0  0  0
  -26.1880  -27.1240   19.5310 C   0  0  0  0  0  3  0  0  0  0  0  0
  -24.9800  -27.8410   19.5800 C   0  0  0  0  0  3  0  0  0  0  0  0
  -23.6900  -29.9410   20.2670 C   0  0  0  0  0  2  0  0  0  0  0  0
  -24.7550  -31.2230   22.1810 N   0  0  0  0  0  0  0  0  0  0  0  0
  -23.6290  -32.2670   23.8490 O   0  0  0  0  0  0  0  0  0  0  0  0
  -22.8740  -29.5680   22.6170 C   0  0  0  0  0  0  0  0  0  0  0  0
  -21.5580  -29.3400   22.4820 N   0  0  0  0  0  0  0  0  0  0  0  0
  -23.5760  -28.9670   23.4360 O   0  0  0  0  0  0  0  0  0  0  0  0
  -21.0540  -29.8780   21.7900 H   0  0  0  0  0  0  0  0  0  0  0  0
  -18.2210  -28.0500   22.9690 C   0  0  0  0  0  0  0  0  0  0  0  0
  -20.7670  -28.3820   23.2520 C   0  0  0  0  0  3  0  0  0  0  0  0
  -20.9160  -26.9550   22.6770 C   0  0  0  0  0  2  0  0  0  0  0  0
  -19.8270  -26.5980   21.6600 C   0  0  0  0  0  2  0  0  0  0  0  0
  -18.4390  -26.7050   22.2980 C   0  0  0  0  0  2  0  0  0  0  0  0
  -19.3140  -28.8440   23.4030 C   0  0  0  0  0  0  0  0  0  0  0  0
  -19.0580  -30.1030   23.9880 C   0  0  0  0  0  3  0  0  0  0  0  0
  -17.7380  -30.5680   24.1460 C   0  0  0  0  0  3  0  0  0  0  0  0
  -16.6590  -29.7710   23.7290 C   0  0  0  0  0  3  0  0  0  0  0  0
  -16.9000  -28.5140   23.1460 C   0  0  0  0  0  3  0  0  0  0  0  0
  -25.9930  -32.6550   23.8950 C   0  0  0  0  0  3  0  0  0  0  0  0
  -25.6660  -34.0400   24.2640 N   0  0  0  0  0  0  0  0  0  0  0  0
  -25.9770  -35.1150   23.5280 C   0  0  0  0  0  0  0  0  0  0  0  0
  -26.6400  -35.0490   22.4890 O   0  0  0  0  0  0  0  0  0  0  0  0
  -25.0840  -34.1660   25.0790 H   0  0  0  0  0  0  0  0  0  0  0  0
  -24.2140  -36.8780   23.2310 C   0  0  0  0  0  1  0  0  0  0  0  0
  -25.4690  -36.4830   24.0230 C   0  0  0  0  0  3  0  0  0  0  0  0
  -27.5950  -37.3850   24.8550 C   0  0  0  0  0  1  0  0  0  0  0  0
  -26.4810  -37.5570   23.9250 N   0  0  0  0  0  0  0  0  0  0  0  0
  -26.0600  -38.4650   24.0980 H   0  0  0  0  0  0  0  0  0  0  0  0
  -26.5590  -31.8650   25.1370 C   0  0  1  0  0  0  0  0  0  0  0  0
  -25.4980  -31.5690   26.2220 C   0  0  0  0  0  1  0  0  0  0  0  0
  -27.1670  -30.5150   24.6910 C   0  0  0  0  0  1  0  0  0  0  0  0
  -27.7020  -32.6730   25.7950 C   0  0  0  0  0  1  0  0  0  0  0  0
  -29.8360  -20.3620   20.1780 C   0  0  0  0  0  2  0  0  0  0  0  0
  -30.8510  -14.7820   20.0490 C   0  0  0  0  0  0  0  0  0  0  0  0
  -30.4580  -12.6160   18.9760 C   0  0  0  0  0  2  0  0  0  0  0  0
  -29.5160  -12.7690   17.7690 C   0  0  0  0  0  2  0  0  0  0  0  0
  -28.0430  -12.6200   18.2090 C   0  0  0  0  0  2  0  0  0  0  0  0
  -27.7060  -13.4890   19.4490 C   0  0  0  0  0  3  0  0  0  0  0  0
  -28.7870  -13.3660   20.5590 C   0  0  0  0  0  2  0  0  0  0  0  0
  -30.0780  -13.6660   19.9310 N   0  0  0  0  0  0  0  0  0  0  0  0
  -32.0750  -14.6850   19.9540 O   0  0  0  0  0  0  0  0  0  0  0  0
  -30.6930  -18.3930   18.8680 C   0  0  0  0  0  2  0  0  0  0  0  0
  -28.7580  -17.9900   20.2840 C   0  0  0  0  0  2  0  0  0  0  0  0
  -31.1910  -16.9450   18.9590 C   0  0  0  0  0  2  0  0  0  0  0  0
  -28.9320  -16.4990   19.9140 C   0  0  0  0  0  2  0  0  0  0  0  0
  -30.0400  -18.8280   20.1800 C   0  0  0  0  0  3  0  0  0  0  0  0
  -30.3090  -16.0000   19.7060 N   0  0  0  0  0  0  0  0  0  0  0  0
  -25.3230  -14.1550   20.1340 C   0  0  0  0  0  0  0  0  0  0  0  0
  -24.2560  -13.4020   20.5460 C   0  0  0  0  0  0  0  0  0  0  0  0
  -24.7240  -12.0520   20.6010 C   0  0  0  0  0  0  0  0  0  0  0  0
  -26.3650  -13.2560   19.9560 N   0  0  0  0  0  0  0  0  0  0  0  0
  -26.0130  -11.9960   20.3050 N   0  0  0  0  0  0  0  0  0  0  0  0
  -24.0080  -10.7970   20.8530 C   0  0  0  0  0  0  0  0  0  0  0  0
  -24.4480   -9.8860   21.8360 C   0  0  0  0  0  3  0  0  0  0  0  0
  -23.7330   -8.6920   22.0690 C   0  0  0  0  0  3  0  0  0  0  0  0
  -22.5690   -8.4030   21.3160 C   0  0  0  0  0  0  0  0  0  0  0  0
  -22.1540   -9.3020   20.3190 C   0  0  0  0  0  3  0  0  0  0  0  0
  -22.8700  -10.4860   20.0850 C   0  0  0  0  0  3  0  0  0  0  0  0
  -21.8250   -7.2580   21.4560 O   0  0  0  0  0  0  0  0  0  0  0  0
  -21.7630   -6.5830   22.6490 C   0  0  0  0  0  0  0  0  0  0  0  0
  -21.3060   -7.2000   23.8330 C   0  0  0  0  0  3  0  0  0  0  0  0
  -21.2010   -6.4460   25.0220 C   0  0  0  0  0  3  0  0  0  0  0  0
  -21.5400   -5.0790   25.0200 C   0  0  0  0  0  0  0  0  0  0  0  0
  -21.9910   -4.4640   23.8390 C   0  0  0  0  0  3  0  0  0  0  0  0
  -22.0990   -5.2150   22.6560 C   0  0  0  0  0  0  0  0  0  0  0  0
  -22.5180   -4.6150   21.5160 F   0  0  0  0  0  0  0  0  0  0  0  0
  -21.4220   -4.3520   26.1550 F   0  0  0  0  0  0  0  0  0  0  0  0
  -22.8590  -13.8910   20.7750 C   0  0  0  0  0  0  0  0  0  0  0  0
  -22.1280  -13.2460   21.6800 N   0  0  0  0  0  0  0  0  0  0  0  0
  -22.4180  -14.8780   20.1870 O   0  0  0  0  0  0  0  0  0  0  0  0
  -22.4940  -12.4440   22.1690 H   0  0  0  0  0  0  0  0  0  0  0  0
  -21.1850  -13.5530   21.8740 H   0  0  0  0  0  0  0  0  0  0  0  0
  -25.4820  -15.5130   19.8700 N   0  0  0  0  0  0  0  0  0  0  0  0
  -24.7170  -16.1750   19.9380 H   0  0  0  0  0  0  0  0  0  0  0  0
  -26.3370  -15.9310   19.5260 H   0  0  0  0  0  0  0  0  0  0  0  0
  1  5  1  0
  3  1  2  0
  3  9  1  0
  4  2  2  0
  4 10  1  0
  5  2  1  0
  6  8  1  0
  6  7  1  0
  8 17  1  0
  8  3  1  0
  9 60  1  6
  9  7  1  0
  9  4  1  0
 10 11  1  0
 11 12  1  0
 12 13  1  0
 13 14  1  0
 15 13  2  0
 15 16  1  0
 17 18  1  0
 19 21  1  0
 19 18  1  0
 20 31  2  0
 21 26  1  0
 22 30  1  0
 22 32  1  0
 23 29  1  0
 23 25  1  0
 24 30  1  0
 25 24  1  0
 26 25  2  0
 27 28  1  0
 27 21  2  0
 28 23  2  0
 29 22  1  0
 30 20  1  0
 32 34  2  0
 33 32  1  0
 35 33  1  0
 36 45  2  0
 36 41  1  0
 37 33  1  0
 37 41  1  0
 38 37  1  0
 39 40  1  0
 39 38  1  0
 40 36  1  0
 41 42  2  0
 42 43  1  0
 44 43  2  0
 45 44  1  0
 46 20  1  0
 46 47  1  0
 46 56  1  0
 47 50  1  0
 48 52  1  0
 48 47  1  0
 49 48  2  0
 52 51  1  0
 54 52  1  0
 54 55  1  0
 54 53  1  0
 56 59  1  1
 56 57  1  0
 58 56  1  0
 62 67  1  0
 63 64  1  0
 63 62  1  0
 65 64  1  0
 65 78  1  0
 65 66  1  0
 67 61  1  0
 67 66  1  0
 68 61  2  0
 69 71  1  0
 69 73  1  0
 71 74  1  0
 72 70  1  0
 73 60  1  0
 73 70  1  0
 74 72  1  0
 74 61  1  0
 75 76  2  0
 76 77  1  0
 76 95  1  0
 77 80  1  0
 78 75  1  0
 78 79  1  0
 79 77  2  0
 80 81  1  0
 81 82  2  0
 83 86  1  0
 83 82  1  0
 84 83  2  0
 85 84  1  0
 85 80  2  0
 86 87  1  0
 87 92  2  0
 87 88  1  0
 88 89  2  0
 90 89  1  0
 90 94  1  0
 91 90  2  0
 92 91  1  0
 93 92  1  0
 95 96  1  0
 96 99  1  0
 96 98  1  0
 97 95  2  0
100101  1  0
100 75  1  0
102100  1  0
M  ISO  4  18 101  19 101  61 100  74 100
M  END
>  <TORSDO>  (90) 
F 23

>  <SCORE>  (90) 
-0.120

>  <name>  (90) 
90

>  <ligand_id>  (90) 
90

>  <original_smiles>  (90) 
[H]N=C(C([H])([H])[H])C([H])([H])C([H])([H])C([H])([H])C1=C([H])C([H])([H])C([H])=C2C([H])(C([H])([H])C([H])([H])Oc3c([H])c([H])c4c(c3[H])C([H])([H])N(C(=O)C([H])(N([H])C(=O)C([H])(N([H])C([H])([H])[H])C([H])([H])[H])C(C([H])([H])[H])(C([H])([H])[H])C([H])([H])[H])C([H])(C(=O)N([H])C3([H])c5c([H])c([H])c([H])c([H])c5C([H])([H])C([H])([H])C3([H])[H])C4([H])[H])C([H])([H])C([H])([H])C12C([H])([H])C1([H])C([H])([H])C([H])([H])N(C(=O)N2C([H])([H])C([H])([H])C([H])([H])C([H])(n3nc(-c4c([H])c([H])c(Oc5c([H])c([H])c(F)c([H])c5F)c([H])c4[H])c(C(=O)N([H])[H])c3N([H])[H])C2([H])[H])C([H])([H])C1([H])[H]

>  <smiles>  (90) 
[H]N=C(C([H])([H])[H])C([H])([H])C([H])([H])C([H])([H])C1=C([H])C([H])([H])C([H])=C2C([H])(C([H])([H])C([H])([H])Oc3c([H])c([H])c4c(c3[H])C([H])([H])N(C(=O)C([H])(N([H])C(=O)C([H])(N([H])C([H])([H])[H])C([H])([H])[H])C(C([H])([H])[H])(C([H])([H])[H])C([H])([H])[H])C([H])(C(=O)N([H])C3([H])c5c([H])c([H])c([H])c([H])c5C([H])([H])C([H])([H])C3([H])[H])C4([H])[H])C([H])([H])C([H])([H])C12C([H])([H])C1([H])C([H])([H])C([H])([H])N(C(=O)N2C([H])([H])C([H])([H])C([H])([H])C([H])(n3nc(-c4c([H])c([H])c(Oc5c([H])c([H])c(F)c([H])c5F)c([H])c4[H])c(C(=O)N([H])[H])c3N([H])[H])C2([H])[H])C([H])([H])C1([H])[H]

$$$$
91:0:0
     RDKit          3D

 88 96  0  0  1  0  0  0  0  0999 V2000
  -28.9440  -21.6130   19.6370 C   0  0  0  0  0  2  0  0  0  0  0  0
  -29.4900  -18.9560   19.4410 C   0  0  0  0  0  0  0  0  0  0  0  0
  -30.3930  -18.3710   21.5080 C   0  0  0  0  0  2  0  0  0  0  0  0
  -30.2040  -19.9350   21.3680 C   0  0  0  0  0  2  0  0  0  0  0  0
  -30.3310  -17.7420   20.0940 C   0  0  0  0  0  3  0  0  0  0  0  0
  -29.5250  -20.2020   20.0960 N   0  0  0  0  0  0  0  0  0  0  0  0
  -28.8790  -18.7740   18.3850 O   0  0  0  0  0  0  0  0  0  0  0  0
  -30.7400  -15.0020   19.8410 C   0  0  0  0  0  0  0  0  0  0  0  0
  -30.5490  -12.6340   18.9420 C   0  0  0  0  0  2  0  0  0  0  0  0
  -29.5370  -12.5640   17.7740 C   0  0  0  0  0  2  0  0  0  0  0  0
  -28.1040  -12.3680   18.3040 C   0  0  0  0  0  2  0  0  0  0  0  0
  -27.7770  -13.3220   19.4820 C   0  0  0  0  0  3  0  0  0  0  0  0
  -28.9010  -13.3520   20.5410 C   0  0  0  0  0  2  0  0  0  0  0  0
  -30.1310  -13.7470   19.8430 N   0  0  0  0  0  0  0  0  0  0  0  0
  -31.9220  -15.0530   19.4830 O   0  0  0  0  0  0  0  0  0  0  0  0
  -29.9860  -16.1900   20.0610 N   0  0  0  0  0  0  0  0  0  0  0  0
  -29.0150  -16.0040   20.2530 H   0  0  0  0  0  0  0  0  0  0  0  0
  -25.4770  -13.9390   20.4180 C   0  0  0  0  0  0  0  0  0  0  0  0
  -24.4210  -13.1810   20.8410 C   0  0  0  0  0  0  0  0  0  0  0  0
  -24.8410  -11.8190   20.7330 C   0  0  0  0  0  0  0  0  0  0  0  0
  -26.4720  -13.0410   20.0710 N   0  0  0  0  0  0  0  0  0  0  0  0
  -26.1040  -11.7590   20.3250 N   0  0  0  0  0  0  0  0  0  0  0  0
  -24.0930  -10.5730   20.9350 C   0  0  0  0  0  0  0  0  0  0  0  0
  -24.5250   -9.5900   21.8530 C   0  0  0  0  0  3  0  0  0  0  0  0
  -23.7760   -8.4100   22.0440 C   0  0  0  0  0  3  0  0  0  0  0  0
  -22.5800   -8.2020   21.3170 C   0  0  0  0  0  0  0  0  0  0  0  0
  -22.1660   -9.1720   20.3860 C   0  0  0  0  0  3  0  0  0  0  0  0
  -22.9160  -10.3440   20.1940 C   0  0  0  0  0  3  0  0  0  0  0  0
  -21.8010   -7.0740   21.4190 O   0  0  0  0  0  0  0  0  0  0  0  0
  -21.7180   -6.3600   22.5860 C   0  0  0  0  0  0  0  0  0  0  0  0
  -21.2340   -6.9380   23.7810 C   0  0  0  0  0  3  0  0  0  0  0  0
  -21.1000   -6.1490   24.9400 C   0  0  0  0  0  3  0  0  0  0  0  0
  -21.4390   -4.7830   24.9060 C   0  0  0  0  0  0  0  0  0  0  0  0
  -21.9150   -4.2050   23.7160 C   0  0  0  0  0  3  0  0  0  0  0  0
  -22.0510   -4.9910   22.5590 C   0  0  0  0  0  0  0  0  0  0  0  0
  -22.4900   -4.4230   21.4100 F   0  0  0  0  0  0  0  0  0  0  0  0
  -21.3030   -4.0220   26.0170 F   0  0  0  0  0  0  0  0  0  0  0  0
  -23.0620  -13.6870   21.2270 C   0  0  0  0  0  0  0  0  0  0  0  0
  -22.3790  -12.9860   22.1260 N   0  0  0  0  0  0  0  0  0  0  0  0
  -22.6190  -14.7400   20.7710 O   0  0  0  0  0  0  0  0  0  0  0  0
  -22.7520  -12.1340   22.5170 H   0  0  0  0  0  0  0  0  0  0  0  0
  -21.4700  -13.3070   22.4270 H   0  0  0  0  0  0  0  0  0  0  0  0
  -25.6660  -15.3100   20.2700 N   0  0  0  0  0  0  0  0  0  0  0  0
  -24.9220  -15.9750   20.4520 H   0  0  0  0  0  0  0  0  0  0  0  0
  -26.4810  -15.7370   19.8480 H   0  0  0  0  0  0  0  0  0  0  0  0
  -28.8910  -23.1430   20.4250 C   0  0  0  0  0  2  0  0  0  0  0  0
  -27.9460  -24.5780   20.2670 C   0  0  0  0  0  2  0  0  0  0  0  0
  -28.2630  -26.1040   20.4510 O   0  0  0  0  0  0  0  0  0  0  0  0
  -24.6060  -31.8820   23.2620 C   0  0  0  0  0  0  0  0  0  0  0  0
  -27.2210  -27.1070   20.3430 C   0  0  0  0  0  0  0  0  0  0  0  0
  -23.4270  -30.4500   21.6400 C   0  0  0  0  0  3  0  0  0  0  0  0
  -24.8920  -28.8590   20.2550 C   0  0  0  0  0  0  0  0  0  0  0  0
  -25.9820  -30.7210   21.4920 C   0  0  0  0  0  2  0  0  0  0  0  0
  -26.0670  -29.3160   20.8660 C   0  0  0  0  0  0  0  0  0  0  0  0
  -27.2330  -28.4570   20.8920 C   0  0  0  0  0  3  0  0  0  0  0  0
  -26.0190  -26.7630   19.6830 C   0  0  0  0  0  3  0  0  0  0  0  0
  -24.8820  -27.5960   19.6470 C   0  0  0  0  0  3  0  0  0  0  0  0
  -23.6610  -29.7510   20.2770 C   0  0  0  0  0  2  0  0  0  0  0  0
  -24.6920  -31.0400   22.1860 N   0  0  0  0  0  0  0  0  0  0  0  0
  -23.5140  -32.1720   23.7740 O   0  0  0  0  0  0  0  0  0  0  0  0
  -22.7440  -29.4580   22.6150 C   0  0  0  0  0  0  0  0  0  0  0  0
  -21.4260  -29.2450   22.4500 N   0  0  0  0  0  0  0  0  0  0  0  0
  -23.4030  -28.8820   23.4840 O   0  0  0  0  0  0  0  0  0  0  0  0
  -20.9490  -29.7580   21.7230 H   0  0  0  0  0  0  0  0  0  0  0  0
  -18.0740  -27.9300   22.8540 C   0  0  0  0  0  0  0  0  0  0  0  0
  -20.6050  -28.3110   23.2250 C   0  0  0  0  0  3  0  0  0  0  0  0
  -20.7890  -26.8590   22.7280 C   0  0  0  0  0  2  0  0  0  0  0  0
  -19.7510  -26.4430   21.6810 C   0  0  0  0  0  2  0  0  0  0  0  0
  -18.3350  -26.5590   22.2520 C   0  0  0  0  0  2  0  0  0  0  0  0
  -19.1390  -28.7580   23.2970 C   0  0  0  0  0  0  0  0  0  0  0  0
  -18.8410  -30.0360   23.8200 C   0  0  0  0  0  3  0  0  0  0  0  0
  -17.5110  -30.4880   23.9020 C   0  0  0  0  0  3  0  0  0  0  0  0
  -16.4590  -29.6570   23.4760 C   0  0  0  0  0  3  0  0  0  0  0  0
  -16.7410  -28.3810   22.9580 C   0  0  0  0  0  3  0  0  0  0  0  0
  -25.8770  -32.5340   23.8880 C   0  0  0  0  0  3  0  0  0  0  0  0
  -26.3670  -31.8030   25.1990 C   0  0  1  0  0  0  0  0  0  0  0  0
  -25.2510  -31.5970   26.2510 C   0  0  0  0  0  1  0  0  0  0  0  0
  -26.9600  -30.4140   24.8670 C   0  0  0  0  0  1  0  0  0  0  0  0
  -27.5020  -32.6200   25.8610 C   0  0  0  0  0  1  0  0  0  0  0  0
  -25.5600  -33.9430   24.1750 N   0  0  0  0  0  0  0  0  0  0  0  0
  -25.8770  -34.9740   23.3810 C   0  0  0  0  0  0  0  0  0  0  0  0
  -26.5320  -34.8400   22.3430 O   0  0  0  0  0  0  0  0  0  0  0  0
  -24.9730  -34.1190   24.9770 H   0  0  0  0  0  0  0  0  0  0  0  0
  -24.1240  -36.7430   23.0210 C   0  0  0  0  0  1  0  0  0  0  0  0
  -25.3940  -36.3750   23.8040 C   0  0  0  0  0  3  0  0  0  0  0  0
  -27.5400  -37.3160   24.5390 C   0  0  0  0  0  1  0  0  0  0  0  0
  -26.4130  -37.4300   23.6170 N   0  0  0  0  0  0  0  0  0  0  0  0
  -26.0030  -38.3530   23.7300 H   0  0  0  0  0  0  0  0  0  0  0  0
  1  6  1  0
  1 46  1  0
  2  5  1  0
  2  6  1  0
  4  3  1  0
  5 16  1  0
  5  3  1  0
  6  4  1  0
  7  2  2  0
  8 14  1  0
  8 16  1  0
  9 14  1  0
 10 11  1  0
 10  9  1  0
 12 11  1  0
 12 21  1  0
 12 13  1  0
 14 13  1  0
 15  8  2  0
 16 17  1  0
 18 19  2  0
 19 38  1  0
 20 19  1  0
 20 23  1  0
 21 22  1  0
 21 18  1  0
 22 20  2  0
 23 24  1  0
 24 25  2  0
 26 29  1  0
 26 25  1  0
 27 26  2  0
 28 27  1  0
 28 23  2  0
 29 30  1  0
 30 31  1  0
 31 32  2  0
 33 32  1  0
 33 37  1  0
 34 33  2  0
 35 30  2  0
 35 34  1  0
 36 35  1  0
 38 39  1  0
 39 42  1  0
 39 41  1  0
 40 38  2  0
 43 18  1  0
 43 44  1  0
 45 43  1  0
 47 46  1  0
 47 48  1  0
 49 60  2  0
 50 48  1  0
 50 55  1  0
 51 59  1  0
 51 61  1  0
 52 58  1  0
 52 54  1  0
 53 59  1  0
 54 55  2  0
 54 53  1  0
 56 50  2  0
 57 56  1  0
 57 52  2  0
 58 51  1  0
 59 49  1  0
 61 63  2  0
 62 61  1  0
 64 62  1  0
 65 74  2  0
 65 70  1  0
 66 62  1  0
 66 70  1  0
 67 66  1  0
 68 69  1  0
 68 67  1  0
 69 65  1  0
 70 71  2  0
 71 72  1  0
 73 72  2  0
 74 73  1  0
 75 49  1  0
 75 80  1  0
 75 76  1  0
 76 79  1  1
 76 77  1  0
 78 76  1  0
 80 83  1  0
 81 85  1  0
 81 80  1  0
 82 81  2  0
 85 84  1  0
 87 88  1  0
 87 85  1  0
 87 86  1  0
M  ISO  4   8 100  16 100  47 101  48 101
M  END
>  <TORSDO>  (91) 
F 19

>  <SCORE>  (91) 
-15.030

>  <name>  (91) 
91

>  <ligand_id>  (91) 
91

>  <original_smiles>  (91) 
[H]c1c([H])c([H])c2c(c1[H])C([H])([H])C([H])([H])C([H])([H])C2([H])N([H])C(=O)C1([H])N(C(=O)C([H])(N([H])C(=O)C([H])(N([H])C([H])([H])[H])C([H])([H])[H])C(C([H])([H])[H])(C([H])([H])[H])C([H])([H])[H])C([H])([H])c2c([H])c(OC([H])([H])C([H])([H])C([H])([H])N3C(=O)C([H])(N([H])C(=O)N4C([H])([H])C([H])([H])C([H])([H])C([H])(n5nc(-c6c([H])c([H])c(Oc7c([H])c([H])c(F)c([H])c7F)c([H])c6[H])c(C(=O)N([H])[H])c5N([H])[H])C4([H])[H])C([H])([H])C3([H])[H])c([H])c([H])c2C1([H])[H]

>  <smiles>  (91) 
[H]c1c([H])c([H])c2c(c1[H])C([H])([H])C([H])([H])C([H])([H])C2([H])N([H])C(=O)C1([H])N(C(=O)C([H])(N([H])C(=O)C([H])(N([H])C([H])([H])[H])C([H])([H])[H])C(C([H])([H])[H])(C([H])([H])[H])C([H])([H])[H])C([H])([H])c2c([H])c(OC([H])([H])C([H])([H])C([H])([H])N3C(=O)C([H])(N([H])C(=O)N4C([H])([H])C([H])([H])C([H])([H])C([H])(n5nc(-c6c([H])c([H])c(Oc7c([H])c([H])c(F)c([H])c7F)c([H])c6[H])c(C(=O)N([H])[H])c5N([H])[H])C4([H])[H])C([H])([H])C3([H])[H])c([H])c([H])c2C1([H])[H]

$$$$
92:0:0
     RDKit          3D

 94103  0  0  1  0  0  0  0  0999 V2000
  -30.9520  -20.0070   18.5130 C   0  0  0  0  0  2  0  0  0  0  0  0
  -29.2060  -20.7130   20.1800 C   0  0  0  0  0  2  0  0  0  0  0  0
  -30.5940  -21.2410   17.6670 C   0  0  0  0  0  2  0  0  0  0  0  0
  -28.8500  -21.9080   19.2560 C   0  0  0  0  0  2  0  0  0  0  0  0
  -29.7940  -19.5000   19.4120 C   0  0  0  0  0  3  0  0  0  0  0  0
  -30.0400  -22.3510   18.4820 N   0  0  2  0  0  4  0  0  0  0  0  0
  -30.7450  -22.5870   19.1630 H   0  0  0  0  0  0  0  0  0  0  0  0
  -31.5530  -17.6620   20.1870 C   0  0  0  0  0  2  0  0  0  0  0  0
  -30.1930  -18.3270   20.3480 C   0  0  0  0  0  3  0  0  0  0  0  0
  -30.3160  -16.8730   19.8400 C   0  0  0  0  0  3  0  0  0  0  0  0
  -30.6940  -14.5160   20.4030 C   0  0  0  0  0  0  0  0  0  0  0  0
  -30.3200  -12.3230   19.3610 C   0  0  0  0  0  2  0  0  0  0  0  0
  -29.4120  -12.5380   18.1350 C   0  0  0  0  0  2  0  0  0  0  0  0
  -27.9310  -12.4350   18.5420 C   0  0  0  0  0  2  0  0  0  0  0  0
  -27.5910  -13.2740   19.8080 C   0  0  0  0  0  3  0  0  0  0  0  0
  -28.6460  -13.1050   20.9290 C   0  0  0  0  0  2  0  0  0  0  0  0
  -29.9730  -13.3580   20.3530 N   0  0  0  0  0  0  0  0  0  0  0  0
  -31.8560  -14.5730   20.0010 O   0  0  0  0  0  0  0  0  0  0  0  0
  -30.0150  -15.6700   20.6080 N   0  0  0  0  0  0  0  0  0  0  0  0
  -29.0790  -15.5860   20.9740 H   0  0  0  0  0  0  0  0  0  0  0  0
  -25.1950  -13.8760   20.5090 C   0  0  0  0  0  0  0  0  0  0  0  0
  -24.1240  -13.1110   20.8760 C   0  0  0  0  0  0  0  0  0  0  0  0
  -24.5810  -11.7540   20.8540 C   0  0  0  0  0  0  0  0  0  0  0  0
  -26.2410  -12.9930   20.2880 N   0  0  0  0  0  0  0  0  0  0  0  0
  -25.8760  -11.7090   20.5540 N   0  0  0  0  0  0  0  0  0  0  0  0
  -23.8450  -10.4980   21.0480 C   0  0  0  0  0  0  0  0  0  0  0  0
  -24.2700   -9.5300   21.9830 C   0  0  0  0  0  3  0  0  0  0  0  0
  -23.5420   -8.3360   22.1630 C   0  0  0  0  0  3  0  0  0  0  0  0
  -22.3680   -8.1030   21.4080 C   0  0  0  0  0  0  0  0  0  0  0  0
  -21.9570   -9.0580   20.4610 C   0  0  0  0  0  3  0  0  0  0  0  0
  -22.6900  -10.2430   20.2810 C   0  0  0  0  0  3  0  0  0  0  0  0
  -21.6060   -6.9640   21.4990 O   0  0  0  0  0  0  0  0  0  0  0  0
  -21.5590   -6.2150   22.6480 C   0  0  0  0  0  0  0  0  0  0  0  0
  -21.1560   -6.7690   23.8820 C   0  0  0  0  0  3  0  0  0  0  0  0
  -21.0570   -5.9490   25.0240 C   0  0  0  0  0  3  0  0  0  0  0  0
  -21.3510   -4.5750   24.9300 C   0  0  0  0  0  0  0  0  0  0  0  0
  -21.7420   -4.0190   23.7000 C   0  0  0  0  0  3  0  0  0  0  0  0
  -21.8440   -4.8380   22.5610 C   0  0  0  0  0  0  0  0  0  0  0  0
  -22.2040   -4.2940   21.3750 F   0  0  0  0  0  0  0  0  0  0  0  0
  -21.2460   -3.7850   26.0250 F   0  0  0  0  0  0  0  0  0  0  0  0
  -22.7290  -13.5930   21.1400 C   0  0  0  0  0  0  0  0  0  0  0  0
  -21.9930  -12.9020   22.0020 N   0  0  0  0  0  0  0  0  0  0  0  0
  -22.3010  -14.6200   20.6170 O   0  0  0  0  0  0  0  0  0  0  0  0
  -22.3550  -12.0720   22.4440 H   0  0  0  0  0  0  0  0  0  0  0  0
  -21.0540  -13.2020   22.2130 H   0  0  0  0  0  0  0  0  0  0  0  0
  -25.3680  -15.2460   20.3190 N   0  0  0  0  0  0  0  0  0  0  0  0
  -24.5980  -15.8990   20.3990 H   0  0  0  0  0  0  0  0  0  0  0  0
  -26.2200  -15.6790   19.9920 H   0  0  0  0  0  0  0  0  0  0  0  0
  -29.8590  -23.5710   17.6510 C   0  0  0  0  0  2  0  0  0  0  0  0
  -29.5340  -24.8480   18.4430 C   0  0  0  0  0  2  0  0  0  0  0  0
  -30.3210  -26.0770   17.9210 C   0  0  0  0  0  2  0  0  0  0  0  0
  -29.9050  -27.4450   18.5010 C   0  0  0  0  0  2  0  0  0  0  0  0
  -29.7300  -27.4270   20.0240 C   0  0  0  0  0  2  0  0  0  0  0  0
  -28.5030  -26.7520   20.2980 O   0  0  0  0  0  0  0  0  0  0  0  0
  -24.6200  -31.8790   23.2260 C   0  0  0  0  0  0  0  0  0  0  0  0
  -27.3460  -27.4900   20.2490 C   0  0  0  0  0  0  0  0  0  0  0  0
  -23.4290  -30.4480   21.5860 C   0  0  0  0  0  3  0  0  0  0  0  0
  -24.9120  -28.9210   20.1740 C   0  0  0  0  0  0  0  0  0  0  0  0
  -25.9330  -30.8630   21.3770 C   0  0  0  0  0  2  0  0  0  0  0  0
  -26.0440  -29.4850   20.7710 C   0  0  0  0  0  0  0  0  0  0  0  0
  -27.2580  -28.7770   20.8150 C   0  0  0  0  0  3  0  0  0  0  0  0
  -26.2000  -26.9220   19.6540 C   0  0  0  0  0  3  0  0  0  0  0  0
  -24.9850  -27.6350   19.6030 C   0  0  0  0  0  3  0  0  0  0  0  0
  -23.6450  -29.7450   20.2140 C   0  0  0  0  0  2  0  0  0  0  0  0
  -24.6770  -31.0760   22.1270 N   0  0  0  0  0  0  0  0  0  0  0  0
  -23.5360  -32.1470   23.7640 O   0  0  0  0  0  0  0  0  0  0  0  0
  -22.7850  -29.4360   22.5600 C   0  0  0  0  0  0  0  0  0  0  0  0
  -21.4620  -29.2570   22.4410 N   0  0  0  0  0  0  0  0  0  0  0  0
  -23.4750  -28.8120   23.3700 O   0  0  0  0  0  0  0  0  0  0  0  0
  -20.9650  -29.8140   21.7590 H   0  0  0  0  0  0  0  0  0  0  0  0
  -18.0870  -28.0860   22.9670 C   0  0  0  0  0  0  0  0  0  0  0  0
  -20.6500  -28.3220   23.2150 C   0  0  0  0  0  3  0  0  0  0  0  0
  -20.7350  -26.8910   22.6360 C   0  0  0  0  0  2  0  0  0  0  0  0
  -19.6200  -26.5800   21.6320 C   0  0  0  0  0  2  0  0  0  0  0  0
  -18.2460  -26.7370   22.2870 C   0  0  0  0  0  2  0  0  0  0  0  0
  -19.2170  -28.8390   23.3860 C   0  0  0  0  0  0  0  0  0  0  0  0
  -19.0110  -30.1040   23.9780 C   0  0  0  0  0  3  0  0  0  0  0  0
  -17.7110  -30.6150   24.1520 C   0  0  0  0  0  3  0  0  0  0  0  0
  -16.5980  -29.8640   23.7370 C   0  0  0  0  0  3  0  0  0  0  0  0
  -16.7860  -28.5990   23.1520 C   0  0  0  0  0  3  0  0  0  0  0  0
  -25.9000  -32.5250   23.8420 C   0  0  0  0  0  3  0  0  0  0  0  0
  -25.5750  -33.9190   24.1710 N   0  0  0  0  0  0  0  0  0  0  0  0
  -25.9170  -34.9760   23.4180 C   0  0  0  0  0  0  0  0  0  0  0  0
  -26.6040  -34.8780   22.3980 O   0  0  0  0  0  0  0  0  0  0  0  0
  -24.9460  -34.0680   24.9470 H   0  0  0  0  0  0  0  0  0  0  0  0
  -24.1820  -36.7590   23.0460 C   0  0  0  0  0  1  0  0  0  0  0  0
  -25.4170  -36.3610   23.8700 C   0  0  0  0  0  3  0  0  0  0  0  0
  -27.5410  -37.2480   24.7280 C   0  0  0  0  0  1  0  0  0  0  0  0
  -26.4470  -37.4170   23.7740 N   0  0  0  0  0  0  0  0  0  0  0  0
  -26.0370  -38.3340   23.9260 H   0  0  0  0  0  0  0  0  0  0  0  0
  -26.4380  -31.7550   25.1090 C   0  0  1  0  0  0  0  0  0  0  0  0
  -25.3580  -31.5040   26.1880 C   0  0  0  0  0  1  0  0  0  0  0  0
  -27.0170  -30.3790   24.6980 C   0  0  0  0  0  1  0  0  0  0  0  0
  -27.5870  -32.5600   25.7640 C   0  0  0  0  0  1  0  0  0  0  0  0
  3  6  1  0
  3  1  1  0
  4  2  1  0
  5  1  1  0
  5  2  1  0
  5  9  1  0
  6  7  1  1
  6  4  1  0
  9  8  1  0
 10  8  1  0
 10  9  1  0
 10 19  1  0
 11 19  1  0
 12 17  1  0
 13 14  1  0
 13 12  1  0
 15 14  1  0
 15 24  1  0
 15 16  1  0
 17 11  1  0
 17 16  1  0
 18 11  2  0
 19 20  1  0
 21 22  2  0
 22 41  1  0
 23 22  1  0
 23 26  1  0
 24 21  1  0
 24 25  1  0
 25 23  2  0
 26 27  1  0
 27 28  2  0
 29 32  1  0
 29 28  1  0
 30 29  2  0
 31 30  1  0
 31 26  2  0
 32 33  1  0
 33 34  1  0
 34 35  2  0
 36 35  1  0
 36 40  1  0
 37 36  2  0
 38 33  2  0
 38 37  1  0
 39 38  1  0
 41 42  1  0
 42 45  1  0
 42 44  1  0
 43 41  2  0
 46 47  1  0
 46 21  1  0
 48 46  1  0
 49 50  1  0
 49  6  1  0
 51 50  1  0
 51 52  1  0
 52 53  1  0
 53 54  1  0
 55 66  2  0
 56 54  1  0
 56 61  1  0
 57 65  1  0
 57 67  1  0
 58 64  1  0
 58 60  1  0
 59 65  1  0
 60 61  2  0
 60 59  1  0
 62 56  2  0
 63 62  1  0
 63 58  2  0
 64 57  1  0
 65 55  1  0
 67 69  2  0
 68 67  1  0
 70 68  1  0
 71 80  2  0
 71 76  1  0
 72 68  1  0
 72 76  1  0
 73 72  1  0
 74 75  1  0
 74 73  1  0
 75 71  1  0
 76 77  2  0
 77 78  1  0
 79 78  2  0
 80 79  1  0
 81 55  1  0
 81 82  1  0
 81 91  1  0
 82 85  1  0
 83 87  1  0
 83 82  1  0
 84 83  2  0
 87 86  1  0
 89 87  1  0
 89 90  1  0
 89 88  1  0
 91 94  1  1
 91 92  1  0
 93 91  1  0
M  ISO  4  11 100  19 100  53 101  54 101
M  END
>  <TORSDO>  (92) 
F 22

>  <SCORE>  (92) 
-13.135

>  <name>  (92) 
92

>  <ligand_id>  (92) 
92

>  <original_smiles>  (92) 
[H]c1c([H])c([H])c2c(c1[H])C([H])([H])C([H])([H])C([H])([H])C2([H])N([H])C(=O)C1([H])N(C(=O)C([H])(N([H])C(=O)C([H])(N([H])C([H])([H])[H])C([H])([H])[H])C(C([H])([H])[H])(C([H])([H])[H])C([H])([H])[H])C([H])([H])c2c([H])c(OC([H])([H])C([H])([H])C([H])([H])C([H])([H])C([H])([H])[N+]3([H])C([H])([H])C([H])([H])C([H])(C4([H])C([H])([H])C4([H])N([H])C(=O)N4C([H])([H])C([H])([H])C([H])([H])C([H])(n5nc(-c6c([H])c([H])c(Oc7c([H])c([H])c(F)c([H])c7F)c([H])c6[H])c(C(=O)N([H])[H])c5N([H])[H])C4([H])[H])C([H])([H])C3([H])[H])c([H])c([H])c2C1([H])[H]

>  <smiles>  (92) 
[H]c1c([H])c([H])c2c(c1[H])C([H])([H])C([H])([H])C([H])([H])C2([H])N([H])C(=O)C1([H])N(C(=O)C([H])(N([H])C(=O)C([H])(N([H])C([H])([H])[H])C([H])([H])[H])C(C([H])([H])[H])(C([H])([H])[H])C([H])([H])[H])C([H])([H])c2c([H])c(OC([H])([H])C([H])([H])C([H])([H])C([H])([H])C([H])([H])[N+]3([H])C([H])([H])C([H])([H])C([H])(C4([H])C([H])([H])C4([H])N([H])C(=O)N4C([H])([H])C([H])([H])C([H])([H])C([H])(n5nc(-c6c([H])c([H])c(Oc7c([H])c([H])c(F)c([H])c7F)c([H])c6[H])c(C(=O)N([H])[H])c5N([H])[H])C4([H])[H])C([H])([H])C3([H])[H])c([H])c([H])c2C1([H])[H]

$$$$
93:0:0
     RDKit          3D

 96104  0  0  1  0  0  0  0  0999 V2000
  -29.5210  -21.2150   20.5410 C   0  0  0  0  0  2  0  0  0  0  0  0
  -28.7110  -22.4930   20.2620 C   0  0  0  0  0  2  0  0  0  0  0  0
  -30.0260  -22.0850   22.8530 C   0  0  0  0  0  2  0  0  0  0  0  0
  -29.5380  -20.8690   22.0400 C   0  0  0  0  0  3  0  0  0  0  0  0
  -29.2480  -23.7100   21.0510 C   0  0  0  0  0  3  0  0  0  0  0  0
  -29.2500  -23.3970   22.5810 C   0  0  0  0  0  3  0  0  0  0  0  0
  -30.4320  -19.6540   22.3780 C   0  0  0  0  0  2  0  0  0  0  0  0
  -30.1910  -18.3560   21.5810 C   0  0  0  0  0  2  0  0  0  0  0  0
  -30.6840  -17.1310   22.3800 C   0  0  0  0  0  2  0  0  0  0  0  0
  -31.4020  -16.0570   21.5490 C   0  0  0  0  0  2  0  0  0  0  0  0
  -30.9000  -14.0010   20.2810 C   0  0  0  0  0  0  0  0  0  0  0  0
  -30.5520  -11.6990   19.4700 C   0  0  0  0  0  2  0  0  0  0  0  0
  -29.6230  -11.6460   18.2450 C   0  0  0  0  0  2  0  0  0  0  0  0
  -28.1520  -11.5700   18.6860 C   0  0  0  0  0  2  0  0  0  0  0  0
  -27.7910  -12.6570   19.7310 C   0  0  0  0  0  3  0  0  0  0  0  0
  -28.8270  -12.6890   20.8780 C   0  0  0  0  0  2  0  0  0  0  0  0
  -30.1710  -12.8550   20.2950 N   0  0  0  0  0  0  0  0  0  0  0  0
  -31.8890  -14.1610   19.5600 O   0  0  0  0  0  0  0  0  0  0  0  0
  -30.5530  -14.9210   21.1900 N   0  0  0  0  0  0  0  0  0  0  0  0
  -29.7620  -14.7120   21.7810 H   0  0  0  0  0  0  0  0  0  0  0  0
  -25.4830  -13.4310   20.5740 C   0  0  0  0  0  0  0  0  0  0  0  0
  -24.3580  -12.7340   20.9250 C   0  0  0  0  0  0  0  0  0  0  0  0
  -24.6860  -11.3530   20.7750 C   0  0  0  0  0  0  0  0  0  0  0  0
  -26.4320  -12.4770   20.2380 N   0  0  0  0  0  0  0  0  0  0  0  0
  -25.9570  -11.2180   20.4140 N   0  0  0  0  0  0  0  0  0  0  0  0
  -23.8490  -10.1520   20.8990 C   0  0  0  0  0  0  0  0  0  0  0  0
  -24.1290   -9.1530   21.8580 C   0  0  0  0  0  3  0  0  0  0  0  0
  -23.2990   -8.0170   21.9690 C   0  0  0  0  0  3  0  0  0  0  0  0
  -22.1770   -7.8710   21.1200 C   0  0  0  0  0  0  0  0  0  0  0  0
  -21.9160   -8.8570   20.1520 C   0  0  0  0  0  3  0  0  0  0  0  0
  -22.7460   -9.9850   20.0380 C   0  0  0  0  0  3  0  0  0  0  0  0
  -21.3300   -6.7890   21.1400 O   0  0  0  0  0  0  0  0  0  0  0  0
  -20.9810   -6.1690   22.3120 C   0  0  0  0  0  0  0  0  0  0  0  0
  -20.3380   -6.8650   23.3600 C   0  0  0  0  0  3  0  0  0  0  0  0
  -19.9340   -6.1730   24.5190 C   0  0  0  0  0  3  0  0  0  0  0  0
  -20.1620   -4.7890   24.6300 C   0  0  0  0  0  0  0  0  0  0  0  0
  -20.7970   -4.0940   23.5860 C   0  0  0  0  0  3  0  0  0  0  0  0
  -21.2020   -4.7820   22.4290 C   0  0  0  0  0  0  0  0  0  0  0  0
  -21.7940   -4.1030   21.4160 F   0  0  0  0  0  0  0  0  0  0  0  0
  -19.7670   -4.1230   25.7400 F   0  0  0  0  0  0  0  0  0  0  0  0
  -23.0230  -13.3170   21.2890 C   0  0  0  0  0  0  0  0  0  0  0  0
  -22.2690  -12.6350   22.1440 N   0  0  0  0  0  0  0  0  0  0  0  0
  -22.6590  -14.4080   20.8520 O   0  0  0  0  0  0  0  0  0  0  0  0
  -22.5740  -11.7480   22.5180 H   0  0  0  0  0  0  0  0  0  0  0  0
  -21.3740  -13.0050   22.4300 H   0  0  0  0  0  0  0  0  0  0  0  0
  -25.7730  -14.7900   20.4940 N   0  0  0  0  0  0  0  0  0  0  0  0
  -25.0780  -15.5040   20.6860 H   0  0  0  0  0  0  0  0  0  0  0  0
  -26.6570  -15.1710   20.1840 H   0  0  0  0  0  0  0  0  0  0  0  0
  -28.4780  -25.0110   20.6940 C   0  0  0  0  0  2  0  0  0  0  0  0
  -28.6930  -25.5420   19.2610 C   0  0  0  0  0  2  0  0  0  0  0  0
  -28.6160  -26.9690   19.2250 O   0  0  0  0  0  0  0  0  0  0  0  0
  -24.6350  -31.3800   23.1020 C   0  0  0  0  0  0  0  0  0  0  0  0
  -27.3930  -27.5940   19.3340 C   0  0  0  0  0  0  0  0  0  0  0  0
  -23.4690  -30.2640   21.2260 C   0  0  0  0  0  3  0  0  0  0  0  0
  -24.9620  -29.0130   19.5810 C   0  0  0  0  0  0  0  0  0  0  0  0
  -25.9880  -30.6940   21.1260 C   0  0  0  0  0  2  0  0  0  0  0  0
  -26.1010  -29.4560   20.2610 C   0  0  0  0  0  0  0  0  0  0  0  0
  -27.3170  -28.7540   20.1350 C   0  0  0  0  0  3  0  0  0  0  0  0
  -26.2330  -27.1500   18.6620 C   0  0  0  0  0  3  0  0  0  0  0  0
  -25.0210  -27.8580   18.7820 C   0  0  0  0  0  3  0  0  0  0  0  0
  -23.7030  -29.8300   19.7540 C   0  0  0  0  0  2  0  0  0  0  0  0
  -24.7150  -30.7840   21.8770 N   0  0  0  0  0  0  0  0  0  0  0  0
  -23.5440  -31.5370   23.6670 O   0  0  0  0  0  0  0  0  0  0  0  0
  -22.8280  -29.0830   21.9900 C   0  0  0  0  0  0  0  0  0  0  0  0
  -21.4940  -28.9640   21.8950 N   0  0  0  0  0  0  0  0  0  0  0  0
  -23.5250  -28.2840   22.6230 O   0  0  0  0  0  0  0  0  0  0  0  0
  -20.9940  -29.6620   21.3610 H   0  0  0  0  0  0  0  0  0  0  0  0
  -18.0990  -27.8310   22.3780 C   0  0  0  0  0  0  0  0  0  0  0  0
  -20.6800  -27.9090   22.4960 C   0  0  0  0  0  3  0  0  0  0  0  0
  -20.6570  -26.6470   21.6040 C   0  0  0  0  0  2  0  0  0  0  0  0
  -19.4710  -26.6150   20.6350 C   0  0  0  0  0  2  0  0  0  0  0  0
  -18.1480  -26.6680   21.4030 C   0  0  0  0  0  2  0  0  0  0  0  0
  -19.2880  -28.4240   22.8780 C   0  0  0  0  0  0  0  0  0  0  0  0
  -19.1860  -29.5260   23.7550 C   0  0  0  0  0  3  0  0  0  0  0  0
  -17.9290  -30.0300   24.1360 C   0  0  0  0  0  3  0  0  0  0  0  0
  -16.7550  -29.4290   23.6520 C   0  0  0  0  0  3  0  0  0  0  0  0
  -16.8410  -28.3300   22.7770 C   0  0  0  0  0  3  0  0  0  0  0  0
  -25.9040  -31.9140   23.8360 C   0  0  0  0  0  3  0  0  0  0  0  0
  -26.3480  -31.0090   25.0520 C   0  0  1  0  0  0  0  0  0  0  0  0
  -25.2080  -30.7180   26.0560 C   0  0  0  0  0  1  0  0  0  0  0  0
  -26.8950  -29.6520   24.5510 C   0  0  0  0  0  1  0  0  0  0  0  0
  -27.5010  -31.6930   25.8220 C   0  0  0  0  0  1  0  0  0  0  0  0
  -25.6140  -33.2810   24.2860 N   0  0  0  0  0  0  0  0  0  0  0  0
  -26.0230  -34.3910   23.6580 C   0  0  0  0  0  0  0  0  0  0  0  0
  -26.7540  -34.3670   22.6650 O   0  0  0  0  0  0  0  0  0  0  0  0
  -24.9740  -33.3760   25.0610 H   0  0  0  0  0  0  0  0  0  0  0  0
  -24.3740  -36.2690   23.3700 C   0  0  0  0  0  1  0  0  0  0  0  0
  -25.5420  -35.7430   24.2200 C   0  0  0  0  0  3  0  0  0  0  0  0
  -27.6310  -36.4680   25.2880 C   0  0  0  0  0  1  0  0  0  0  0  0
  -26.6090  -36.7650   24.2860 N   0  0  0  0  0  0  0  0  0  0  0  0
  -26.2200  -37.6810   24.4930 H   0  0  0  0  0  0  0  0  0  0  0  0
  -29.8420  -24.5620   23.4280 C   0  0  0  0  0  2  0  0  0  0  0  0
  -29.7750  -24.3330   24.8820 N   0  0  0  0  0  4  0  0  0  0  0  0
  -28.8300  -24.1730   25.1800 H   0  0  0  0  0  0  0  0  0  0  0  0
  -30.1190  -25.1440   25.3660 H   0  0  0  0  0  0  0  0  0  0  0  0
  -30.3430  -23.5500   25.1510 H   0  0  0  0  0  0  0  0  0  0  0  0
  1  4  1  0
  2  1  1  0
  2  5  1  0
  4  7  1  0
  4  3  1  0
  5 49  1  0
  5  6  1  0
  6  3  1  0
  6 92  1  0
  8  7  1  0
  8  9  1  0
 10  9  1  0
 11 17  1  0
 11 19  1  0
 12 17  1  0
 13 14  1  0
 13 12  1  0
 15 14  1  0
 15 24  1  0
 15 16  1  0
 17 16  1  0
 18 11  2  0
 19 10  1  0
 19 20  1  0
 21 22  2  0
 22 41  1  0
 23 26  1  0
 23 22  1  0
 24 25  1  0
 24 21  1  0
 25 23  2  0
 26 27  1  0
 27 28  2  0
 29 32  1  0
 29 28  1  0
 30 29  2  0
 31 30  1  0
 31 26  2  0
 32 33  1  0
 33 38  2  0
 33 34  1  0
 34 35  2  0
 35 36  1  0
 36 40  1  0
 37 36  2  0
 38 37  1  0
 39 38  1  0
 41 42  1  0
 42 45  1  0
 42 44  1  0
 43 41  2  0
 46 21  1  0
 46 47  1  0
 48 46  1  0
 50 49  1  0
 51 50  1  0
 51 53  1  0
 52 63  2  0
 53 58  1  0
 54 62  1  0
 54 64  1  0
 55 61  1  0
 55 57  1  0
 56 62  1  0
 57 56  1  0
 58 57  2  0
 59 60  1  0
 59 53  2  0
 60 55  2  0
 61 54  1  0
 62 52  1  0
 64 66  2  0
 65 64  1  0
 67 65  1  0
 68 77  2  0
 68 73  1  0
 69 65  1  0
 69 73  1  0
 70 69  1  0
 71 72  1  0
 71 70  1  0
 72 68  1  0
 73 74  2  0
 74 75  1  0
 76 75  2  0
 77 76  1  0
 78 52  1  0
 78 83  1  0
 78 79  1  0
 79 82  1  1
 79 80  1  0
 81 79  1  0
 83 86  1  0
 84 88  1  0
 84 83  1  0
 85 84  2  0
 88 87  1  0
 88 90  1  0
 90 91  1  0
 90 89  1  0
 92 93  1  0
 93 96  1  0
 93 94  1  0
 93 95  1  0
M  ISO  4  11 100  19 100  50 101  51 101
M  END
>  <TORSDO>  (93) 
F 24

>  <SCORE>  (93) 
-9.159

>  <name>  (93) 
93

>  <ligand_id>  (93) 
93

>  <original_smiles>  (93) 
[H]c1c([H])c([H])c2c(c1[H])C([H])([H])C([H])([H])C([H])([H])C2([H])N([H])C(=O)C1([H])N(C(=O)C([H])(N([H])C(=O)C([H])(N([H])C([H])([H])[H])C([H])([H])[H])C(C([H])([H])[H])(C([H])([H])[H])C([H])([H])[H])C([H])([H])c2c([H])c(OC([H])([H])C([H])([H])C3([H])C([H])([H])C([H])([H])C([H])(C([H])([H])C([H])([H])C([H])([H])C([H])([H])N([H])C(=O)N4C([H])([H])C([H])([H])C([H])([H])C([H])(n5nc(-c6c([H])c([H])c(Oc7c([H])c([H])c(F)c([H])c7F)c([H])c6[H])c(C(=O)N([H])[H])c5N([H])[H])C4([H])[H])C([H])([H])C3([H])C([H])([H])[N+]([H])([H])[H])c([H])c([H])c2C1([H])[H]

>  <smiles>  (93) 
[H]c1c([H])c([H])c2c(c1[H])C([H])([H])C([H])([H])C([H])([H])C2([H])N([H])C(=O)C1([H])N(C(=O)C([H])(N([H])C(=O)C([H])(N([H])C([H])([H])[H])C([H])([H])[H])C(C([H])([H])[H])(C([H])([H])[H])C([H])([H])[H])C([H])([H])c2c([H])c(OC([H])([H])C([H])([H])C3([H])C([H])([H])C([H])([H])C([H])(C([H])([H])C([H])([H])C([H])([H])C([H])([H])N([H])C(=O)N4C([H])([H])C([H])([H])C([H])([H])C([H])(n5nc(-c6c([H])c([H])c(Oc7c([H])c([H])c(F)c([H])c7F)c([H])c6[H])c(C(=O)N([H])[H])c5N([H])[H])C4([H])[H])C([H])([H])C3([H])C([H])([H])[N+]([H])([H])[H])c([H])c([H])c2C1([H])[H]

$$$$
94:0:0
     RDKit          3D

 93102  0  0  1  0  0  0  0  0999 V2000
  -30.0880  -16.9340   21.0240 C   0  0  0  0  0  0  0  0  0  0  0  0
  -31.8560  -18.7340   21.7240 C   0  0  0  0  0  0  0  0  0  0  0  0
  -31.5770  -17.2790   21.3070 C   0  0  0  0  0  3  0  0  0  0  0  0
  -29.0940  -18.1210   21.1080 C   0  0  0  0  0  2  0  0  0  0  0  0
  -30.7450  -19.3870   19.5120 C   0  0  0  0  0  2  0  0  0  0  0  0
  -30.5890  -20.9360   21.3210 C   0  0  0  0  0  2  0  0  0  0  0  0
  -31.5450  -19.8700   20.7240 C   0  0  0  0  0  3  0  0  0  0  0  0
  -29.3300  -19.3240   20.1090 C   0  0  0  0  0  3  0  0  0  0  0  0
  -29.6270  -15.7560   20.7570 N   0  0  0  0  0  2  0  0  0  0  0  0
  -29.2160  -20.6460   20.8020 N   0  0  2  0  0  4  0  0  0  0  0  0
  -32.3390  -18.9870   22.8310 O   0  0  0  0  0  0  0  0  0  0  0  0
  -28.5790  -20.5430   21.5790 H   0  0  0  0  0  0  0  0  0  0  0  0
  -30.4560  -14.6980   20.3580 C   0  0  0  0  0  0  0  0  0  0  0  0
  -30.2040  -12.5090   19.2540 C   0  0  0  0  0  2  0  0  0  0  0  0
  -29.2440  -12.7050   18.0600 C   0  0  0  0  0  2  0  0  0  0  0  0
  -27.7790  -12.5300   18.5060 C   0  0  0  0  0  2  0  0  0  0  0  0
  -27.4390  -13.3550   19.7760 C   0  0  0  0  0  3  0  0  0  0  0  0
  -28.5160  -13.1660   20.8670 C   0  0  0  0  0  2  0  0  0  0  0  0
  -29.8270  -13.4910   20.2840 N   0  0  0  0  0  0  0  0  0  0  0  0
  -31.6030  -14.8320   19.9270 O   0  0  0  0  0  0  0  0  0  0  0  0
  -25.0490  -13.9040   20.5540 C   0  0  0  0  0  0  0  0  0  0  0  0
  -24.0020  -13.1050   20.9240 C   0  0  0  0  0  0  0  0  0  0  0  0
  -24.4840  -11.7620   20.8510 C   0  0  0  0  0  0  0  0  0  0  0  0
  -26.1020  -13.0460   20.2770 N   0  0  0  0  0  0  0  0  0  0  0  0
  -25.7670  -11.7510   20.5140 N   0  0  0  0  0  0  0  0  0  0  0  0
  -23.7830  -10.4840   21.0260 C   0  0  0  0  0  0  0  0  0  0  0  0
  -24.2340   -9.5140   21.9490 C   0  0  0  0  0  3  0  0  0  0  0  0
  -23.5310   -8.3010   22.1130 C   0  0  0  0  0  3  0  0  0  0  0  0
  -22.3640   -8.0480   21.3510 C   0  0  0  0  0  0  0  0  0  0  0  0
  -21.9330   -9.0080   20.4180 C   0  0  0  0  0  3  0  0  0  0  0  0
  -22.6380  -10.2120   20.2520 C   0  0  0  0  0  3  0  0  0  0  0  0
  -21.6330   -6.8870   21.4240 O   0  0  0  0  0  0  0  0  0  0  0  0
  -21.5620   -6.1530   22.5800 C   0  0  0  0  0  0  0  0  0  0  0  0
  -21.0430   -6.6930   23.7760 C   0  0  0  0  0  3  0  0  0  0  0  0
  -20.9240   -5.8830   24.9230 C   0  0  0  0  0  3  0  0  0  0  0  0
  -21.3150   -4.5310   24.8730 C   0  0  0  0  0  0  0  0  0  0  0  0
  -21.8280   -3.9890   23.6820 C   0  0  0  0  0  3  0  0  0  0  0  0
  -21.9480   -4.7970   22.5380 C   0  0  0  0  0  0  0  0  0  0  0  0
  -22.4220   -4.2640   21.3860 F   0  0  0  0  0  0  0  0  0  0  0  0
  -21.1950   -3.7480   25.9710 F   0  0  0  0  0  0  0  0  0  0  0  0
  -22.6030  -13.5520   21.2380 C   0  0  0  0  0  0  0  0  0  0  0  0
  -21.9100  -12.8290   22.1120 N   0  0  0  0  0  0  0  0  0  0  0  0
  -22.1320  -14.5760   20.7450 O   0  0  0  0  0  0  0  0  0  0  0  0
  -22.3040  -12.0000   22.5310 H   0  0  0  0  0  0  0  0  0  0  0  0
  -20.9730  -13.1080   22.3660 H   0  0  0  0  0  0  0  0  0  0  0  0
  -25.1920  -15.2800   20.4090 N   0  0  0  0  0  0  0  0  0  0  0  0
  -24.4300  -15.9320   20.5670 H   0  0  0  0  0  0  0  0  0  0  0  0
  -26.0500  -15.7320   20.1180 H   0  0  0  0  0  0  0  0  0  0  0  0
  -28.6620  -21.7410   19.9360 C   0  0  0  0  0  2  0  0  0  0  0  0
  -28.3700  -23.0850   20.6660 C   0  0  0  0  0  2  0  0  0  0  0  0
  -28.0540  -24.2750   19.7130 C   0  0  0  0  0  2  0  0  0  0  0  0
  -27.8390  -25.6290   20.4390 C   0  0  0  0  0  2  0  0  0  0  0  0
  -27.7630  -26.7550   19.5440 O   0  0  0  0  0  0  0  0  0  0  0  0
  -24.4510  -31.9190   23.1800 C   0  0  0  0  0  0  0  0  0  0  0  0
  -26.6410  -27.5390   19.6870 C   0  0  0  0  0  0  0  0  0  0  0  0
  -23.0500  -30.6320   21.5980 C   0  0  0  0  0  3  0  0  0  0  0  0
  -24.3120  -29.1160   19.9790 C   0  0  0  0  0  0  0  0  0  0  0  0
  -25.5570  -30.9240   21.1780 C   0  0  0  0  0  2  0  0  0  0  0  0
  -25.5370  -29.5810   20.4760 C   0  0  0  0  0  0  0  0  0  0  0  0
  -26.7070  -28.8000   20.3230 C   0  0  0  0  0  3  0  0  0  0  0  0
  -25.4020  -27.0880   19.1870 C   0  0  0  0  0  3  0  0  0  0  0  0
  -24.2400  -27.8700   19.3300 C   0  0  0  0  0  3  0  0  0  0  0  0
  -23.1070  -30.0090   20.1780 C   0  0  0  0  0  2  0  0  0  0  0  0
  -24.3770  -31.1690   22.0430 N   0  0  0  0  0  0  0  0  0  0  0  0
  -23.4340  -32.1990   23.8300 O   0  0  0  0  0  0  0  0  0  0  0  0
  -22.4550  -29.5890   22.5720 C   0  0  0  0  0  0  0  0  0  0  0  0
  -21.1320  -29.3730   22.4820 N   0  0  0  0  0  0  0  0  0  0  0  0
  -23.1780  -28.9770   23.3620 O   0  0  0  0  0  0  0  0  0  0  0  0
  -20.6080  -29.9220   21.8160 H   0  0  0  0  0  0  0  0  0  0  0  0
  -17.8280  -27.9930   22.9740 C   0  0  0  0  0  0  0  0  0  0  0  0
  -20.3630  -28.4080   23.2670 C   0  0  0  0  0  3  0  0  0  0  0  0
  -20.5560  -26.9720   22.7300 C   0  0  0  0  0  2  0  0  0  0  0  0
  -19.4890  -26.5580   21.7130 C   0  0  0  0  0  2  0  0  0  0  0  0
  -18.0930  -26.6380   22.3370 C   0  0  0  0  0  2  0  0  0  0  0  0
  -18.8940  -28.8300   23.3950 C   0  0  0  0  0  0  0  0  0  0  0  0
  -18.5960  -30.0950   23.9480 C   0  0  0  0  0  3  0  0  0  0  0  0
  -17.2620  -30.5240   24.0840 C   0  0  0  0  0  3  0  0  0  0  0  0
  -16.2100  -29.6840   23.6800 C   0  0  0  0  0  3  0  0  0  0  0  0
  -16.4940  -28.4210   23.1310 C   0  0  0  0  0  3  0  0  0  0  0  0
  -25.8100  -32.4810   23.7030 C   0  0  0  0  0  3  0  0  0  0  0  0
  -26.4190  -31.6330   24.8880 C   0  0  1  0  0  0  0  0  0  0  0  0
  -25.4250  -31.3820   26.0470 C   0  0  0  0  0  1  0  0  0  0  0  0
  -26.9070  -30.2570   24.3790 C   0  0  0  0  0  1  0  0  0  0  0  0
  -27.6570  -32.3560   25.4680 C   0  0  0  0  0  1  0  0  0  0  0  0
  -25.5850  -33.8700   24.1210 N   0  0  0  0  0  0  0  0  0  0  0  0
  -25.8940  -34.9450   23.3840 C   0  0  0  0  0  0  0  0  0  0  0  0
  -26.4750  -34.8690   22.2970 O   0  0  0  0  0  0  0  0  0  0  0  0
  -25.0630  -34.0070   24.9740 H   0  0  0  0  0  0  0  0  0  0  0  0
  -24.2140  -36.8120   23.2480 C   0  0  0  0  0  1  0  0  0  0  0  0
  -25.4970  -36.3250   23.9410 C   0  0  0  0  0  3  0  0  0  0  0  0
  -27.7190  -37.0970   24.6480 C   0  0  0  0  0  1  0  0  0  0  0  0
  -26.5570  -37.3480   23.7980 N   0  0  0  0  0  0  0  0  0  0  0  0
  -26.1970  -38.2720   24.0210 H   0  0  0  0  0  0  0  0  0  0  0  0
  1  4  1  0
  1  3  2  0
  2 11  2  0
  3  2  1  0
  7  5  1  0
  7  6  1  0
  7  2  1  0
  8  5  1  0
  8 10  1  0
  8  4  1  0
  9  1  1  0
 10  6  1  0
 10 12  1  1
 13  9  1  0
 14 19  1  0
 15 16  1  0
 15 14  1  0
 17 16  1  0
 17 24  1  0
 17 18  1  0
 19 13  1  0
 19 18  1  0
 20 13  2  0
 21 22  2  0
 22 41  1  0
 23 22  1  0
 23 26  1  0
 24 25  1  0
 24 21  1  0
 25 23  2  0
 26 27  1  0
 27 28  2  0
 29 32  1  0
 29 28  1  0
 30 29  2  0
 31 30  1  0
 31 26  2  0
 32 33  1  0
 33 34  1  0
 34 35  2  0
 36 35  1  0
 36 40  1  0
 37 36  2  0
 38 33  2  0
 38 37  1  0
 39 38  1  0
 41 42  1  0
 42 45  1  0
 42 44  1  0
 43 41  2  0
 46 21  1  0
 46 47  1  0
 48 46  1  0
 49 50  1  0
 49 10  1  0
 51 52  1  0
 51 50  1  0
 53 55  1  0
 53 52  1  0
 54 65  2  0
 55 60  1  0
 56 64  1  0
 56 66  1  0
 57 63  1  0
 57 59  1  0
 58 64  1  0
 59 58  1  0
 60 59  2  0
 61 62  1  0
 61 55  2  0
 62 57  2  0
 63 56  1  0
 64 54  1  0
 66 68  2  0
 67 66  1  0
 69 67  1  0
 70 79  2  0
 70 75  1  0
 71 67  1  0
 71 75  1  0
 72 71  1  0
 73 74  1  0
 73 72  1  0
 74 70  1  0
 75 76  2  0
 76 77  1  0
 78 77  2  0
 79 78  1  0
 80 54  1  0
 80 85  1  0
 80 81  1  0
 81 84  1  1
 81 82  1  0
 83 81  1  0
 85 88  1  0
 86 90  1  0
 86 85  1  0
 87 86  2  0
 90 89  1  0
 92 90  1  0
 92 93  1  0
 92 91  1  0
M  ISO  4   9 100  13 100  52 101  53 101
M  END
>  <TORSDO>  (94) 
F 20

>  <SCORE>  (94) 
-13.234

>  <name>  (94) 
94

>  <ligand_id>  (94) 
94

>  <original_smiles>  (94) 
[H]c1c([H])c([H])c2c(c1[H])C([H])([H])C([H])([H])C([H])([H])C2([H])N([H])C(=O)C1([H])N(C(=O)C([H])(N([H])C(=O)C([H])(N([H])C([H])([H])[H])C([H])([H])[H])C(C([H])([H])[H])(C([H])([H])[H])C([H])([H])[H])C([H])([H])c2c([H])c(OC([H])([H])C([H])([H])C([H])([H])C([H])([H])[N+]3([H])C([H])([H])C4([H])C(=O)C([H])([H])C(=NC(=O)N5C([H])([H])C([H])([H])C([H])([H])C([H])(n6nc(-c7c([H])c([H])c(Oc8c([H])c([H])c(F)c([H])c8F)c([H])c7[H])c(C(=O)N([H])[H])c6N([H])[H])C5([H])[H])C([H])([H])C3([H])C4([H])[H])c([H])c([H])c2C1([H])[H]

>  <smiles>  (94) 
[H]c1c([H])c([H])c2c(c1[H])C([H])([H])C([H])([H])C([H])([H])C2([H])N([H])C(=O)C1([H])N(C(=O)C([H])(N([H])C(=O)C([H])(N([H])C([H])([H])[H])C([H])([H])[H])C(C([H])([H])[H])(C([H])([H])[H])C([H])([H])[H])C([H])([H])c2c([H])c(OC([H])([H])C([H])([H])C([H])([H])C([H])([H])[N+]3([H])C([H])([H])C4([H])C(=O)C([H])([H])C(=NC(=O)N5C([H])([H])C([H])([H])C([H])([H])C([H])(n6nc(-c7c([H])c([H])c(Oc8c([H])c([H])c(F)c([H])c8F)c([H])c7[H])c(C(=O)N([H])[H])c6N([H])[H])C5([H])[H])C([H])([H])C3([H])C4([H])[H])c([H])c([H])c2C1([H])[H]

$$$$
95:0:0
     RDKit          3D

 98106  0  0  1  0  0  0  0  0999 V2000
  -26.3790  -18.4430   19.0180 C   0  0  0  0  0  2  0  0  0  0  0  0
  -27.7530  -17.9310   19.4990 C   0  0  0  0  0  2  0  0  0  0  0  0
  -28.3110  -16.7910   18.6320 C   0  0  0  0  0  2  0  0  0  0  0  0
  -29.8260  -16.5610   18.7740 C   0  0  0  0  0  2  0  0  0  0  0  0
  -30.3560  -16.6060   20.2350 C   0  0  0  0  0  3  0  0  0  0  0  0
  -31.8240  -14.7210   19.5990 C   0  0  0  0  0  0  0  0  0  0  0  0
  -31.3360  -12.4420   18.7880 C   0  0  0  0  0  2  0  0  0  0  0  0
  -30.2600  -12.4560   17.6870 C   0  0  0  0  0  2  0  0  0  0  0  0
  -28.8490  -12.3970   18.3030 C   0  0  0  0  0  2  0  0  0  0  0  0
  -28.6550  -13.4420   19.4310 C   0  0  0  0  0  3  0  0  0  0  0  0
  -29.8330  -13.3920   20.4360 C   0  0  0  0  0  2  0  0  0  0  0  0
  -31.0870  -13.5800   19.6880 N   0  0  0  0  0  0  0  0  0  0  0  0
  -32.8130  -14.8260   18.8720 O   0  0  0  0  0  0  0  0  0  0  0  0
  -31.5150  -15.7330   20.4210 N   0  0  0  0  0  0  0  0  0  0  0  0
  -32.3340  -16.2780   20.6440 H   0  0  0  0  0  0  0  0  0  0  0  0
  -26.5420  -14.2380   20.6700 C   0  0  0  0  0  0  0  0  0  0  0  0
  -25.4290  -13.5680   21.0990 C   0  0  0  0  0  0  0  0  0  0  0  0
  -25.6340  -12.2000   20.7450 C   0  0  0  0  0  0  0  0  0  0  0  0
  -27.3680  -13.2810   20.1010 N   0  0  0  0  0  0  0  0  0  0  0  0
  -26.8310  -12.0390   20.1980 N   0  0  0  0  0  0  0  0  0  0  0  0
  -24.7350  -11.0440   20.8380 C   0  0  0  0  0  0  0  0  0  0  0  0
  -25.1070   -9.8760   21.5380 C   0  0  0  0  0  3  0  0  0  0  0  0
  -24.2190   -8.7830   21.6310 C   0  0  0  0  0  3  0  0  0  0  0  0
  -22.9430   -8.8540   21.0230 C   0  0  0  0  0  0  0  0  0  0  0  0
  -22.5880  -10.0090   20.3060 C   0  0  0  0  0  3  0  0  0  0  0  0
  -23.4740  -11.0930   20.2090 C   0  0  0  0  0  3  0  0  0  0  0  0
  -22.0250   -7.8320   21.0390 O   0  0  0  0  0  0  0  0  0  0  0  0
  -21.9560   -6.9430   22.0830 C   0  0  0  0  0  0  0  0  0  0  0  0
  -21.7800   -7.3740   23.4160 C   0  0  0  0  0  3  0  0  0  0  0  0
  -21.6420   -6.4250   24.4500 C   0  0  0  0  0  3  0  0  0  0  0  0
  -21.6740   -5.0490   24.1520 C   0  0  0  0  0  0  0  0  0  0  0  0
  -21.8450   -4.6190   22.8250 C   0  0  0  0  0  3  0  0  0  0  0  0
  -21.9830   -5.5640   21.7930 C   0  0  0  0  0  0  0  0  0  0  0  0
  -22.1290   -5.1460   20.5130 F   0  0  0  0  0  0  0  0  0  0  0  0
  -21.5320   -4.1380   25.1420 F   0  0  0  0  0  0  0  0  0  0  0  0
  -24.1980  -14.1760   21.7060 C   0  0  0  0  0  0  0  0  0  0  0  0
  -23.5410  -13.4540   22.6080 N   0  0  0  0  0  0  0  0  0  0  0  0
  -23.8370  -15.3180   21.4200 O   0  0  0  0  0  0  0  0  0  0  0  0
  -23.8490  -12.5280   22.8610 H   0  0  0  0  0  0  0  0  0  0  0  0
  -22.7180  -13.8350   23.0520 H   0  0  0  0  0  0  0  0  0  0  0  0
  -26.9040  -15.5800   20.6950 N   0  0  0  0  0  0  0  0  0  0  0  0
  -26.2610  -16.2900   21.0250 H   0  0  0  0  0  0  0  0  0  0  0  0
  -27.7050  -15.9630   20.2150 H   0  0  0  0  0  0  0  0  0  0  0  0
  -31.3040  -20.6580   21.4990 C   0  0  0  0  0  3  0  0  0  0  0  0
  -31.8500  -20.1480   20.3060 C   0  0  0  0  0  3  0  0  0  0  0  0
  -30.4660  -19.8500   22.2900 C   0  0  0  0  0  3  0  0  0  0  0  0
  -31.5500  -18.8330   19.9020 C   0  0  0  0  0  3  0  0  0  0  0  0
  -30.1610  -18.5360   21.8840 C   0  0  0  0  0  3  0  0  0  0  0  0
  -30.6930  -18.0230   20.6810 C   0  0  0  0  0  0  0  0  0  0  0  0
  -26.4560  -19.7360   18.1880 C   0  0  0  0  0  2  0  0  0  0  0  0
  -26.7090  -20.8880   19.0700 N   0  0  0  0  0  4  0  0  0  0  0  0
  -27.3020  -20.5640   19.8150 H   0  0  0  0  0  0  0  0  0  0  0  0
  -25.8370  -21.1850   19.4810 H   0  0  0  0  0  0  0  0  0  0  0  0
  -27.3780  -22.0390   18.4370 C   0  0  0  0  0  2  0  0  0  0  0  0
  -27.6500  -23.1260   19.4850 C   0  0  0  0  0  2  0  0  0  0  0  0
  -28.3730  -24.3610   18.9330 C   0  0  0  0  0  2  0  0  0  0  0  0
  -28.5670  -25.4160   20.0380 C   0  0  0  0  0  2  0  0  0  0  0  0
  -28.5380  -26.7460   19.5360 O   0  0  0  0  0  0  0  0  0  0  0  0
  -24.5140  -31.4410   23.0280 C   0  0  0  0  0  0  0  0  0  0  0  0
  -27.3180  -27.3770   19.6130 C   0  0  0  0  0  0  0  0  0  0  0  0
  -23.3470  -30.0970   21.3100 C   0  0  0  0  0  3  0  0  0  0  0  0
  -24.8470  -28.7320   19.7700 C   0  0  0  0  0  0  0  0  0  0  0  0
  -25.8470  -30.5980   21.1010 C   0  0  0  0  0  2  0  0  0  0  0  0
  -25.9870  -29.2810   20.3680 C   0  0  0  0  0  0  0  0  0  0  0  0
  -27.2270  -28.6150   20.2820 C   0  0  0  0  0  3  0  0  0  0  0  0
  -26.1550  -26.8260   19.0270 C   0  0  0  0  0  3  0  0  0  0  0  0
  -24.9230  -27.5000   19.0990 C   0  0  0  0  0  3  0  0  0  0  0  0
  -23.5640  -29.5210   19.8860 C   0  0  0  0  0  2  0  0  0  0  0  0
  -24.5880  -30.7230   21.8720 N   0  0  0  0  0  0  0  0  0  0  0  0
  -23.4300  -31.6240   23.6000 O   0  0  0  0  0  0  0  0  0  0  0  0
  -22.7600  -28.9840   22.2070 C   0  0  0  0  0  0  0  0  0  0  0  0
  -21.4450  -28.7450   22.0790 N   0  0  0  0  0  0  0  0  0  0  0  0
  -23.4840  -28.3390   22.9690 O   0  0  0  0  0  0  0  0  0  0  0  0
  -20.9210  -29.3240   21.4370 H   0  0  0  0  0  0  0  0  0  0  0  0
  -18.1430  -27.3460   22.5000 C   0  0  0  0  0  0  0  0  0  0  0  0
  -20.6820  -27.7220   22.7910 C   0  0  0  0  0  3  0  0  0  0  0  0
  -20.8610  -26.3340   22.1320 C   0  0  0  0  0  2  0  0  0  0  0  0
  -19.7750  -26.0140   21.0990 C   0  0  0  0  0  2  0  0  0  0  0  0
  -18.3890  -26.0480   21.7490 C   0  0  0  0  0  2  0  0  0  0  0  0
  -19.2190  -28.1380   22.9760 C   0  0  0  0  0  0  0  0  0  0  0  0
  -18.9370  -29.3530   23.6380 C   0  0  0  0  0  3  0  0  0  0  0  0
  -17.6080  -29.7760   23.8290 C   0  0  0  0  0  3  0  0  0  0  0  0
  -16.5440  -28.9800   23.3700 C   0  0  0  0  0  3  0  0  0  0  0  0
  -16.8130  -27.7660   22.7120 C   0  0  0  0  0  3  0  0  0  0  0  0
  -25.7810  -32.0860   23.6720 C   0  0  0  0  0  3  0  0  0  0  0  0
  -25.4350  -33.4660   24.0390 N   0  0  0  0  0  0  0  0  0  0  0  0
  -25.7830  -34.5500   23.3340 C   0  0  0  0  0  0  0  0  0  0  0  0
  -26.5000  -34.4940   22.3310 O   0  0  0  0  0  0  0  0  0  0  0  0
  -24.8020  -33.5820   24.8170 H   0  0  0  0  0  0  0  0  0  0  0  0
  -24.0620  -36.3400   22.9420 C   0  0  0  0  0  1  0  0  0  0  0  0
  -25.2510  -35.9120   23.8170 C   0  0  0  0  0  3  0  0  0  0  0  0
  -27.3180  -36.7740   24.8240 C   0  0  0  0  0  1  0  0  0  0  0  0
  -26.2770  -36.9770   23.8190 N   0  0  0  0  0  0  0  0  0  0  0  0
  -25.8530  -37.8850   23.9810 H   0  0  0  0  0  0  0  0  0  0  0  0
  -26.3150  -31.2900   24.9240 C   0  0  1  0  0  0  0  0  0  0  0  0
  -25.2300  -31.0030   25.9870 C   0  0  0  0  0  1  0  0  0  0  0  0
  -26.9240  -29.9350   24.4910 C   0  0  0  0  0  1  0  0  0  0  0  0
  -27.4510  -32.0880   25.6080 C   0  0  0  0  0  1  0  0  0  0  0  0
  1  2  1  0
  3  4  1  0
  3  2  1  0
  5  4  1  0
  5 14  1  0
  5 49  1  0
  6 12  1  0
  6 14  1  0
  7 12  1  0
  8  9  1  0
  8  7  1  0
 10  9  1  0
 10 19  1  0
 10 11  1  0
 12 11  1  0
 13  6  2  0
 14 15  1  0
 16 41  1  0
 16 17  2  0
 17 36  1  0
 18 21  1  0
 18 17  1  0
 19 20  1  0
 19 16  1  0
 20 18  2  0
 21 22  1  0
 22 23  2  0
 24 27  1  0
 24 23  1  0
 25 24  2  0
 26 25  1  0
 26 21  2  0
 27 28  1  0
 28 29  1  0
 29 30  2  0
 31 30  1  0
 31 35  1  0
 32 31  2  0
 33 28  2  0
 33 32  1  0
 34 33  1  0
 36 37  1  0
 37 39  1  0
 37 40  1  0
 38 36  2  0
 41 42  1  0
 43 41  1  0
 44 46  1  0
 45 44  2  0
 47 45  1  0
 47 49  2  0
 48 46  2  0
 49 48  1  0
 50  1  1  0
 50 51  1  0
 51 53  1  0
 51 52  1  0
 54 51  1  0
 54 55  1  0
 56 55  1  0
 56 57  1  0
 58 60  1  0
 58 57  1  0
 59 70  2  0
 60 65  1  0
 61 69  1  0
 61 71  1  0
 62 68  1  0
 62 64  1  0
 63 69  1  0
 64 63  1  0
 65 64  2  0
 66 67  1  0
 66 60  2  0
 67 62  2  0
 68 61  1  0
 69 59  1  0
 71 73  2  0
 72 71  1  0
 74 72  1  0
 75 84  2  0
 75 80  1  0
 76 72  1  0
 76 80  1  0
 77 76  1  0
 78 79  1  0
 78 77  1  0
 79 75  1  0
 80 81  2  0
 81 82  1  0
 83 82  2  0
 84 83  1  0
 85 59  1  0
 85 86  1  0
 85 95  1  0
 86 89  1  0
 87 91  1  0
 87 86  1  0
 88 87  2  0
 91 90  1  0
 91 93  1  0
 93 94  1  0
 93 92  1  0
 95 98  1  1
 95 96  1  0
 97 95  1  0
M  ISO  4   6 100  14 100  57 101  58 101
M  END
>  <TORSDO>  (95) 
F 27

>  <SCORE>  (95) 
-8.614

>  <name>  (95) 
95

>  <ligand_id>  (95) 
95

>  <original_smiles>  (95) 
[H]c1c([H])c([H])c(C([H])(N([H])C(=O)N2C([H])([H])C([H])([H])C([H])([H])C([H])(n3nc(-c4c([H])c([H])c(Oc5c([H])c([H])c(F)c([H])c5F)c([H])c4[H])c(C(=O)N([H])[H])c3N([H])[H])C2([H])[H])C([H])([H])C([H])([H])C([H])([H])C([H])([H])C([H])([H])[N+]([H])([H])C([H])([H])C([H])([H])C([H])([H])C([H])([H])Oc2c([H])c([H])c3c(c2[H])C([H])([H])N(C(=O)C([H])(N([H])C(=O)C([H])(N([H])C([H])([H])[H])C([H])([H])[H])C(C([H])([H])[H])(C([H])([H])[H])C([H])([H])[H])C([H])(C(=O)N([H])C2([H])c4c([H])c([H])c([H])c([H])c4C([H])([H])C([H])([H])C2([H])[H])C3([H])[H])c([H])c1[H]

>  <smiles>  (95) 
[H]c1c([H])c([H])c(C([H])(N([H])C(=O)N2C([H])([H])C([H])([H])C([H])([H])C([H])(n3nc(-c4c([H])c([H])c(Oc5c([H])c([H])c(F)c([H])c5F)c([H])c4[H])c(C(=O)N([H])[H])c3N([H])[H])C2([H])[H])C([H])([H])C([H])([H])C([H])([H])C([H])([H])C([H])([H])[N+]([H])([H])C([H])([H])C([H])([H])C([H])([H])C([H])([H])Oc2c([H])c([H])c3c(c2[H])C([H])([H])N(C(=O)C([H])(N([H])C(=O)C([H])(N([H])C([H])([H])[H])C([H])([H])[H])C(C([H])([H])[H])(C([H])([H])[H])C([H])([H])[H])C([H])(C(=O)N([H])C2([H])c4c([H])c([H])c([H])c([H])c4C([H])([H])C([H])([H])C2([H])[H])C3([H])[H])c([H])c1[H]

$$$$
96:0:0
     RDKit          3D

 95103  0  0  1  0  0  0  0  0999 V2000
  -26.4820  -22.6670   21.5960 N   0  0  0  0  0  4  0  0  0  0  0  0
  -26.0050  -22.2670   22.3880 H   0  0  0  0  0  0  0  0  0  0  0  0
  -25.8750  -23.3920   21.2520 H   0  0  0  0  0  0  0  0  0  0  0  0
  -27.7020  -19.4750   19.8060 C   0  0  0  0  0  2  0  0  0  0  0  0
  -28.5460  -21.6970   18.8420 C   0  0  0  0  0  2  0  0  0  0  0  0
  -27.3690  -20.3600   21.0140 C   0  0  0  0  0  2  0  0  0  0  0  0
  -27.1250  -22.1730   19.1900 C   0  0  0  0  0  2  0  0  0  0  0  0
  -28.7360  -20.1580   18.8700 C   0  0  0  0  0  3  0  0  0  0  0  0
  -26.6020  -21.6210   20.5450 C   0  0  0  0  0  3  0  0  0  0  0  0
  -30.2090  -19.8640   19.2300 C   0  0  0  0  0  2  0  0  0  0  0  0
  -30.4870  -18.4150   19.6220 C   0  0  0  0  0  2  0  0  0  0  0  0
  -31.8190  -18.2150   20.3500 C   0  0  0  0  0  2  0  0  0  0  0  0
  -32.4420  -15.8310   20.2760 C   0  0  0  0  0  0  0  0  0  0  0  0
  -32.1410  -13.5160   19.5120 C   0  0  0  0  0  2  0  0  0  0  0  0
  -31.3190  -13.5130   18.2070 C   0  0  0  0  0  2  0  0  0  0  0  0
  -29.8090  -13.4930   18.5130 C   0  0  0  0  0  2  0  0  0  0  0  0
  -29.3920  -14.5770   19.5390 C   0  0  0  0  0  3  0  0  0  0  0  0
  -30.3280  -14.5470   20.7710 C   0  0  0  0  0  2  0  0  0  0  0  0
  -31.7280  -14.6780   20.3100 N   0  0  0  0  0  0  0  0  0  0  0  0
  -33.5230  -15.9710   19.6940 O   0  0  0  0  0  0  0  0  0  0  0  0
  -31.8190  -16.8530   20.8560 N   0  0  0  0  0  0  0  0  0  0  0  0
  -30.9980  -16.5790   21.3700 H   0  0  0  0  0  0  0  0  0  0  0  0
  -27.0140  -15.4200   20.0710 C   0  0  0  0  0  0  0  0  0  0  0  0
  -25.8550  -14.7560   20.3670 C   0  0  0  0  0  0  0  0  0  0  0  0
  -26.1830  -13.3640   20.3630 C   0  0  0  0  0  0  0  0  0  0  0  0
  -27.9860  -14.4400   19.9170 N   0  0  0  0  0  0  0  0  0  0  0  0
  -27.4810  -13.1990   20.1410 N   0  0  0  0  0  0  0  0  0  0  0  0
  -25.3260  -12.1800   20.4970 C   0  0  0  0  0  0  0  0  0  0  0  0
  -25.5980  -11.1730   21.4530 C   0  0  0  0  0  3  0  0  0  0  0  0
  -24.7460  -10.0540   21.5720 C   0  0  0  0  0  3  0  0  0  0  0  0
  -23.6120   -9.9320   20.7340 C   0  0  0  0  0  0  0  0  0  0  0  0
  -23.3610  -10.9250   19.7700 C   0  0  0  0  0  3  0  0  0  0  0  0
  -24.2130  -12.0350   19.6470 C   0  0  0  0  0  3  0  0  0  0  0  0
  -22.7460   -8.8650   20.7600 O   0  0  0  0  0  0  0  0  0  0  0  0
  -22.5080   -8.1610   21.9160 C   0  0  0  0  0  0  0  0  0  0  0  0
  -22.0370   -8.7930   23.0860 C   0  0  0  0  0  3  0  0  0  0  0  0
  -21.7320   -8.0240   24.2280 C   0  0  0  0  0  3  0  0  0  0  0  0
  -21.8960   -6.6250   24.1990 C   0  0  0  0  0  0  0  0  0  0  0  0
  -22.3600   -5.9940   23.0340 C   0  0  0  0  0  3  0  0  0  0  0  0
  -22.6600   -6.7600   21.8920 C   0  0  0  0  0  0  0  0  0  0  0  0
  -23.0850   -6.1450   20.7630 F   0  0  0  0  0  0  0  0  0  0  0  0
  -21.6000   -5.8850   25.2940 F   0  0  0  0  0  0  0  0  0  0  0  0
  -24.4940  -15.3670   20.5550 C   0  0  0  0  0  0  0  0  0  0  0  0
  -23.6530  -14.7480   21.3750 N   0  0  0  0  0  0  0  0  0  0  0  0
  -24.1870  -16.4270   20.0110 O   0  0  0  0  0  0  0  0  0  0  0  0
  -23.9140  -13.8910   21.8410 H   0  0  0  0  0  0  0  0  0  0  0  0
  -22.7360  -15.1390   21.5460 H   0  0  0  0  0  0  0  0  0  0  0  0
  -27.3130  -16.7700   19.9010 N   0  0  0  0  0  0  0  0  0  0  0  0
  -26.5910  -17.4810   19.9080 H   0  0  0  0  0  0  0  0  0  0  0  0
  -28.2070  -17.1190   19.5790 H   0  0  0  0  0  0  0  0  0  0  0  0
  -27.7510  -23.2670   22.0810 C   0  0  0  0  0  2  0  0  0  0  0  0
  -27.9780  -24.7020   21.5730 C   0  0  0  0  0  2  0  0  0  0  0  0
  -29.4600  -25.1310   21.6830 C   0  0  0  0  0  2  0  0  0  0  0  0
  -29.6630  -26.6570   21.6590 C   0  0  0  0  0  2  0  0  0  0  0  0
  -29.1820  -27.1620   20.4200 O   0  0  0  0  0  0  0  0  0  0  0  0
  -25.0010  -31.9700   23.6430 C   0  0  0  0  0  0  0  0  0  0  0  0
  -27.9970  -27.8490   20.4710 C   0  0  0  0  0  0  0  0  0  0  0  0
  -23.9540  -30.6550   21.8270 C   0  0  0  0  0  3  0  0  0  0  0  0
  -25.5540  -29.2470   20.4240 C   0  0  0  0  0  0  0  0  0  0  0  0
  -26.4760  -31.0940   21.8420 C   0  0  0  0  0  2  0  0  0  0  0  0
  -26.6470  -29.7700   21.1290 C   0  0  0  0  0  0  0  0  0  0  0  0
  -27.8730  -29.0760   21.1570 C   0  0  0  0  0  3  0  0  0  0  0  0
  -26.8970  -27.3300   19.7650 C   0  0  0  0  0  3  0  0  0  0  0  0
  -25.6720  -28.0220   19.7400 C   0  0  0  0  0  3  0  0  0  0  0  0
  -24.2840  -30.0640   20.4260 C   0  0  0  0  0  2  0  0  0  0  0  0
  -25.1570  -31.2520   22.4970 N   0  0  0  0  0  0  0  0  0  0  0  0
  -23.8770  -32.1820   24.1180 O   0  0  0  0  0  0  0  0  0  0  0  0
  -23.2660  -29.5560   22.6740 C   0  0  0  0  0  0  0  0  0  0  0  0
  -21.9670  -29.3260   22.4200 N   0  0  0  0  0  0  0  0  0  0  0  0
  -23.9050  -28.9090   23.5080 O   0  0  0  0  0  0  0  0  0  0  0  0
  -21.5160  -29.9030   21.7220 H   0  0  0  0  0  0  0  0  0  0  0  0
  -18.6230  -27.9610   22.5530 C   0  0  0  0  0  0  0  0  0  0  0  0
  -21.1340  -28.3050   23.0570 C   0  0  0  0  0  3  0  0  0  0  0  0
  -21.3550  -26.9240   22.4060 C   0  0  0  0  0  2  0  0  0  0  0  0
  -20.3470  -26.6140   21.2940 C   0  0  0  0  0  2  0  0  0  0  0  0
  -18.9130  -26.6580   21.8350 C   0  0  0  0  0  2  0  0  0  0  0  0
  -19.6660  -28.7380   23.1230 C   0  0  0  0  0  0  0  0  0  0  0  0
  -19.3460  -29.9560   23.7620 C   0  0  0  0  0  3  0  0  0  0  0  0
  -18.0110  -30.3940   23.8430 C   0  0  0  0  0  3  0  0  0  0  0  0
  -16.9830  -29.6200   23.2800 C   0  0  0  0  0  3  0  0  0  0  0  0
  -17.2880  -28.4050   22.6400 C   0  0  0  0  0  3  0  0  0  0  0  0
  -26.2240  -32.5900   24.3940 C   0  0  0  0  0  3  0  0  0  0  0  0
  -25.8890  -33.9860   24.7040 N   0  0  0  0  0  0  0  0  0  0  0  0
  -26.3000  -35.0410   23.9900 C   0  0  0  0  0  0  0  0  0  0  0  0
  -27.0630  -34.9440   23.0250 O   0  0  0  0  0  0  0  0  0  0  0  0
  -25.2210  -34.1340   25.4450 H   0  0  0  0  0  0  0  0  0  0  0  0
  -24.6140  -36.8360   23.4850 C   0  0  0  0  0  1  0  0  0  0  0  0
  -25.7740  -36.4280   24.4090 C   0  0  0  0  0  3  0  0  0  0  0  0
  -27.8310  -37.2900   25.4300 C   0  0  0  0  0  1  0  0  0  0  0  0
  -26.8140  -37.4780   24.3980 N   0  0  0  0  0  0  0  0  0  0  0  0
  -26.4020  -38.4000   24.5200 H   0  0  0  0  0  0  0  0  0  0  0  0
  -26.6160  -31.8050   25.7030 C   0  0  1  0  0  0  0  0  0  0  0  0
  -25.4170  -31.5230   26.6380 C   0  0  0  0  0  1  0  0  0  0  0  0
  -27.2690  -30.4490   25.3510 C   0  0  0  0  0  1  0  0  0  0  0  0
  -27.6700  -32.6070   26.5010 C   0  0  0  0  0  1  0  0  0  0  0  0
  1 51  1  0
  1  2  1  0
  3  1  1  0
  4  6  1  0
  5  8  1  0
  5  7  1  0
  7  9  1  0
  8 10  1  0
  8  4  1  0
  9  6  1  0
  9  1  1  0
 10 11  1  0
 11 12  1  0
 12 21  1  0
 13 19  1  0
 13 21  1  0
 14 19  1  0
 15 16  1  0
 15 14  1  0
 17 16  1  0
 17 26  1  0
 17 18  1  0
 19 18  1  0
 20 13  2  0
 21 22  1  0
 23 24  2  0
 24 43  1  0
 25 24  1  0
 25 28  1  0
 26 23  1  0
 26 27  1  0
 27 25  2  0
 28 29  1  0
 29 30  2  0
 31 34  1  0
 31 30  1  0
 32 31  2  0
 33 32  1  0
 33 28  2  0
 34 35  1  0
 35 36  1  0
 36 37  2  0
 38 37  1  0
 38 42  1  0
 39 38  2  0
 40 35  2  0
 40 39  1  0
 41 40  1  0
 43 44  1  0
 44 47  1  0
 44 46  1  0
 45 43  2  0
 48 49  1  0
 48 23  1  0
 50 48  1  0
 52 53  1  0
 52 51  1  0
 54 53  1  0
 55 57  1  0
 55 54  1  0
 56 67  2  0
 57 62  1  0
 58 66  1  0
 58 68  1  0
 59 65  1  0
 59 61  1  0
 60 66  1  0
 61 62  2  0
 61 60  1  0
 63 57  2  0
 64 63  1  0
 64 59  2  0
 65 58  1  0
 66 56  1  0
 68 70  2  0
 69 68  1  0
 71 69  1  0
 72 81  2  0
 72 77  1  0
 73 69  1  0
 73 77  1  0
 74 73  1  0
 75 76  1  0
 75 74  1  0
 76 72  1  0
 77 78  2  0
 78 79  1  0
 80 79  2  0
 81 80  1  0
 82 56  1  0
 82 83  1  0
 82 92  1  0
 83 86  1  0
 84 88  1  0
 84 83  1  0
 85 84  2  0
 88 87  1  0
 90 88  1  0
 90 91  1  0
 90 89  1  0
 92 95  1  1
 92 93  1  0
 94 92  1  0
M  ISO  4  13 100  21 100  54 101  55 101
M  END
>  <TORSDO>  (96) 
F 24

>  <SCORE>  (96) 
-6.434

>  <name>  (96) 
96

>  <ligand_id>  (96) 
96

>  <original_smiles>  (96) 
[H]c1c([H])c([H])c2c(c1[H])C([H])([H])C([H])([H])C([H])([H])C2([H])N([H])C(=O)C1([H])N(C(=O)C([H])(N([H])C(=O)C([H])(N([H])C([H])([H])[H])C([H])([H])[H])C(C([H])([H])[H])(C([H])([H])[H])C([H])([H])[H])C([H])([H])c2c([H])c(OC([H])([H])C([H])([H])C([H])([H])C([H])([H])[N+]([H])([H])C3([H])C([H])([H])C([H])([H])C([H])(C([H])([H])C([H])([H])C([H])([H])N([H])C(=O)N4C([H])([H])C([H])([H])C([H])([H])C([H])(n5nc(-c6c([H])c([H])c(Oc7c([H])c([H])c(F)c([H])c7F)c([H])c6[H])c(C(=O)N([H])[H])c5N([H])[H])C4([H])[H])C([H])([H])C3([H])[H])c([H])c([H])c2C1([H])[H]

>  <smiles>  (96) 
[H]c1c([H])c([H])c2c(c1[H])C([H])([H])C([H])([H])C([H])([H])C2([H])N([H])C(=O)C1([H])N(C(=O)C([H])(N([H])C(=O)C([H])(N([H])C([H])([H])[H])C([H])([H])[H])C(C([H])([H])[H])(C([H])([H])[H])C([H])([H])[H])C([H])([H])c2c([H])c(OC([H])([H])C([H])([H])C([H])([H])C([H])([H])[N+]([H])([H])C3([H])C([H])([H])C([H])([H])C([H])(C([H])([H])C([H])([H])C([H])([H])N([H])C(=O)N4C([H])([H])C([H])([H])C([H])([H])C([H])(n5nc(-c6c([H])c([H])c(Oc7c([H])c([H])c(F)c([H])c7F)c([H])c6[H])c(C(=O)N([H])[H])c5N([H])[H])C4([H])[H])C([H])([H])C3([H])[H])c([H])c([H])c2C1([H])[H]

$$$$
97:0:0
     RDKit          3D

 96106  0  0  1  0  0  0  0  0999 V2000
  -29.6760  -20.9470   23.2870 C   0  0  0  0  0  2  0  0  0  0  0  0
  -29.5570  -21.5070   20.7990 C   0  0  0  0  0  2  0  0  0  0  0  0
  -29.8340  -22.4820   23.4050 C   0  0  0  0  0  2  0  0  0  0  0  0
  -28.5170  -22.5370   21.2510 C   0  0  0  0  0  2  0  0  0  0  0  0
  -29.7110  -20.3780   21.8410 C   0  0  0  0  0  3  0  0  0  0  0  0
  -28.9390  -23.2500   22.4800 N   0  0  2  0  0  4  0  0  0  0  0  0
  -28.0610  -23.2980   22.9740 H   0  0  0  0  0  0  0  0  0  0  0  0
  -30.8630  -19.3850   21.5300 C   0  0  0  0  0  2  0  0  0  0  0  0
  -31.8270  -14.1870   19.9880 C   0  0  0  0  0  0  0  0  0  0  0  0
  -31.2770  -11.9130   19.2030 C   0  0  0  0  0  2  0  0  0  0  0  0
  -30.2870  -11.9160   18.0250 C   0  0  0  0  0  2  0  0  0  0  0  0
  -28.8510  -11.8350   18.5690 C   0  0  0  0  0  2  0  0  0  0  0  0
  -28.5830  -12.9500   19.6010 C   0  0  0  0  0  3  0  0  0  0  0  0
  -29.6880  -12.9860   20.6960 C   0  0  0  0  0  2  0  0  0  0  0  0
  -30.9910  -13.1030   20.0310 N   0  0  0  0  0  0  0  0  0  0  0  0
  -32.9780  -14.0560   19.5640 O   0  0  0  0  0  0  0  0  0  0  0  0
  -30.3930  -16.8530   18.7160 C   0  0  0  0  0  2  0  0  0  0  0  0
  -29.7020  -17.0870   21.0400 C   0  0  0  0  0  2  0  0  0  0  0  0
  -32.2670  -16.6350   20.1070 C   0  0  0  0  0  2  0  0  0  0  0  0
  -31.3740  -17.7320   19.4750 C   0  0  0  0  0  3  0  0  0  0  0  0
  -30.3920  -18.3480   20.4870 C   0  0  0  0  0  3  0  0  0  0  0  0
  -30.0750  -16.0390   19.9660 C   0  0  0  0  0  3  0  0  0  0  0  0
  -31.3810  -15.4490   20.2930 N   0  0  0  0  0  0  0  0  0  0  0  0
  -26.3890  -13.9190   20.5310 C   0  0  0  0  0  0  0  0  0  0  0  0
  -25.2420  -13.3040   20.9680 C   0  0  0  0  0  0  0  0  0  0  0  0
  -25.4850  -11.9020   20.8510 C   0  0  0  0  0  0  0  0  0  0  0  0
  -27.2520  -12.8900   20.1860 N   0  0  0  0  0  0  0  0  0  0  0  0
  -26.7220  -11.6740   20.4390 N   0  0  0  0  0  0  0  0  0  0  0  0
  -24.5950  -10.7530   21.0310 C   0  0  0  0  0  0  0  0  0  0  0  0
  -24.9280   -9.6840   21.8880 C   0  0  0  0  0  3  0  0  0  0  0  0
  -24.0390   -8.5990   22.0530 C   0  0  0  0  0  3  0  0  0  0  0  0
  -22.8090   -8.5820   21.3520 C   0  0  0  0  0  0  0  0  0  0  0  0
  -22.4960   -9.6410   20.4810 C   0  0  0  0  0  3  0  0  0  0  0  0
  -23.3840  -10.7140   20.3150 C   0  0  0  0  0  3  0  0  0  0  0  0
  -21.8930   -7.5620   21.4290 O   0  0  0  0  0  0  0  0  0  0  0  0
  -21.6920   -6.8660   22.5940 C   0  0  0  0  0  0  0  0  0  0  0  0
  -21.3290   -7.5100   23.7970 C   0  0  0  0  0  3  0  0  0  0  0  0
  -21.0720   -6.7480   24.9540 C   0  0  0  0  0  3  0  0  0  0  0  0
  -21.1700   -5.3440   24.9090 C   0  0  0  0  0  0  0  0  0  0  0  0
  -21.5240   -4.7010   23.7080 C   0  0  0  0  0  3  0  0  0  0  0  0
  -21.7820   -5.4600   22.5560 C   0  0  0  0  0  0  0  0  0  0  0  0
  -22.1090   -4.8360   21.3970 F   0  0  0  0  0  0  0  0  0  0  0  0
  -20.9080   -4.6100   26.0150 F   0  0  0  0  0  0  0  0  0  0  0  0
  -23.9570  -13.9810   21.3500 C   0  0  0  0  0  0  0  0  0  0  0  0
  -23.2110  -13.4020   22.2880 N   0  0  0  0  0  0  0  0  0  0  0  0
  -23.6220  -15.0540   20.8550 O   0  0  0  0  0  0  0  0  0  0  0  0
  -23.4890  -12.5400   22.7260 H   0  0  0  0  0  0  0  0  0  0  0  0
  -22.3470  -13.8400   22.5750 H   0  0  0  0  0  0  0  0  0  0  0  0
  -26.7310  -15.2570   20.3650 N   0  0  0  0  0  0  0  0  0  0  0  0
  -25.9850  -15.9460   20.3530 H   0  0  0  0  0  0  0  0  0  0  0  0
  -27.5460  -15.5400   19.8340 H   0  0  0  0  0  0  0  0  0  0  0  0
  -29.2830  -24.6890   22.2760 C   0  0  0  0  0  2  0  0  0  0  0  0
  -30.3000  -25.0050   21.1490 C   0  0  0  0  0  2  0  0  0  0  0  0
  -29.6970  -25.4580   19.8120 C   0  0  0  0  0  2  0  0  0  0  0  0
  -30.6800  -26.3230   18.9810 C   0  0  0  0  0  2  0  0  0  0  0  0
  -30.0050  -27.0110   17.9340 O   0  0  0  0  0  0  0  0  0  0  0  0
  -25.7460  -28.8770   23.3150 C   0  0  0  0  0  0  0  0  0  0  0  0
  -28.7600  -27.4160   18.3260 C   0  0  0  0  0  0  0  0  0  0  0  0
  -24.6270  -28.2490   21.2020 C   0  0  0  0  0  3  0  0  0  0  0  0
  -26.1490  -28.0280   19.1650 C   0  0  0  0  0  0  0  0  0  0  0  0
  -26.9880  -29.2360   21.1910 C   0  0  0  0  0  2  0  0  0  0  0  0
  -27.2470  -28.4500   19.9280 C   0  0  0  0  0  0  0  0  0  0  0  0
  -28.5600  -28.1440   19.5170 C   0  0  0  0  0  3  0  0  0  0  0  0
  -27.6590  -27.0130   17.5530 C   0  0  0  0  0  3  0  0  0  0  0  0
  -26.3480  -27.2920   17.9820 C   0  0  0  0  0  3  0  0  0  0  0  0
  -24.7780  -28.4230   19.6670 C   0  0  0  0  0  2  0  0  0  0  0  0
  -25.8060  -28.7770   21.9570 N   0  0  0  0  0  0  0  0  0  0  0  0
  -24.7080  -28.5820   23.9290 O   0  0  0  0  0  0  0  0  0  0  0  0
  -24.3200  -26.7660   21.4990 C   0  0  0  0  0  0  0  0  0  0  0  0
  -23.2300  -26.2570   20.9010 N   0  0  0  0  0  0  0  0  0  0  0  0
  -25.0660  -26.0990   22.2190 O   0  0  0  0  0  0  0  0  0  0  0  0
  -22.6770  -26.8720   20.3200 H   0  0  0  0  0  0  0  0  0  0  0  0
  -21.0220  -23.8340   19.3850 C   0  0  0  0  0  0  0  0  0  0  0  0
  -22.7580  -24.8770   20.9990 C   0  0  0  0  0  3  0  0  0  0  0  0
  -23.7790  -23.8980   20.3650 C   0  0  0  0  0  2  0  0  0  0  0  0
  -23.4940  -23.6180   18.8840 C   0  0  0  0  0  2  0  0  0  0  0  0
  -22.1010  -22.9980   18.7140 C   0  0  0  0  0  2  0  0  0  0  0  0
  -21.3360  -24.7340   20.4380 C   0  0  0  0  0  0  0  0  0  0  0  0
  -20.3080  -25.5300   20.9830 C   0  0  0  0  0  3  0  0  0  0  0  0
  -18.9880  -25.4320   20.5060 C   0  0  0  0  0  3  0  0  0  0  0  0
  -18.6790  -24.5240   19.4790 C   0  0  0  0  0  3  0  0  0  0  0  0
  -19.6930  -23.7240   18.9250 C   0  0  0  0  0  3  0  0  0  0  0  0
  -26.9570  -29.3840   24.1570 C   0  0  0  0  0  3  0  0  0  0  0  0
  -26.7060  -30.7950   24.4860 N   0  0  0  0  0  0  0  0  0  0  0  0
  -27.3070  -31.8310   23.8860 C   0  0  0  0  0  0  0  0  0  0  0  0
  -28.1940  -31.6930   23.0380 O   0  0  0  0  0  0  0  0  0  0  0  0
  -25.9430  -30.9830   25.1210 H   0  0  0  0  0  0  0  0  0  0  0  0
  -25.8820  -33.7950   23.2290 C   0  0  0  0  0  1  0  0  0  0  0  0
  -26.8500  -33.2470   24.2890 C   0  0  0  0  0  3  0  0  0  0  0  0
  -28.8230  -33.8500   25.6170 C   0  0  0  0  0  1  0  0  0  0  0  0
  -27.9710  -34.1900   24.4810 N   0  0  0  0  0  0  0  0  0  0  0  0
  -27.6280  -35.1370   24.6120 H   0  0  0  0  0  0  0  0  0  0  0  0
  -27.1960  -28.5400   25.4650 C   0  0  1  0  0  0  0  0  0  0  0  0
  -25.9440  -28.4150   26.3630 C   0  0  0  0  0  1  0  0  0  0  0  0
  -27.6670  -27.1120   25.1090 C   0  0  0  0  0  1  0  0  0  0  0  0
  -28.3250  -29.1850   26.3010 C   0  0  0  0  0  1  0  0  0  0  0  0
  1  3  1  0
  2  4  1  0
  2  5  1  0
  4  6  1  0
  5  8  1  0
  5  1  1  0
  6  7  1  1
  6  3  1  0
  9 15  1  0
  9 23  1  0
 10 15  1  0
 11 12  1  0
 11 10  1  0
 13 12  1  0
 13 27  1  0
 13 14  1  0
 15 14  1  0
 16  9  2  0
 19 23  1  0
 20 17  1  0
 20 19  1  0
 20 21  1  0
 21 18  1  0
 21  8  1  0
 22 17  1  0
 22 23  1  0
 22 18  1  0
 24 25  2  0
 25 44  1  0
 26 25  1  0
 26 29  1  0
 27 28  1  0
 27 24  1  0
 28 26  2  0
 29 30  1  0
 30 31  2  0
 32 35  1  0
 32 31  1  0
 33 32  2  0
 34 33  1  0
 34 29  2  0
 35 36  1  0
 36 37  1  0
 37 38  2  0
 39 38  1  0
 39 43  1  0
 40 39  2  0
 41 36  2  0
 41 40  1  0
 42 41  1  0
 44 45  1  0
 45 48  1  0
 45 47  1  0
 46 44  2  0
 49 24  1  0
 50 49  1  0
 51 49  1  0
 52  6  1  0
 53 52  1  0
 54 53  1  0
 55 54  1  0
 56 58  1  0
 56 55  1  0
 57 68  2  0
 58 63  1  0
 59 69  1  0
 59 67  1  0
 60 66  1  0
 60 62  1  0
 61 67  1  0
 62 61  1  0
 63 62  2  0
 64 65  1  0
 64 58  2  0
 65 60  2  0
 66 59  1  0
 67 57  1  0
 69 71  2  0
 70 69  1  0
 72 70  1  0
 73 78  1  0
 74 70  1  0
 75 74  1  0
 76 75  1  0
 77 76  1  0
 77 73  1  0
 78 79  2  0
 78 74  1  0
 80 79  1  0
 81 80  2  0
 82 73  2  0
 82 81  1  0
 83 57  1  0
 83 84  1  0
 83 93  1  0
 84 87  1  0
 85 89  1  0
 85 84  1  0
 86 85  2  0
 89 88  1  0
 89 91  1  0
 91 92  1  0
 91 90  1  0
 93 96  1  1
 93 94  1  0
 95 93  1  0
M  ISO  4   9 100  23 100  55 101  56 101
M  END
>  <TORSDO>  (97) 
F 21

>  <SCORE>  (97) 
-9.300

>  <name>  (97) 
97

>  <ligand_id>  (97) 
97

>  <original_smiles>  (97) 
[H]c1c([H])c([H])c2c(c1[H])C([H])([H])C([H])([H])C([H])([H])C2([H])N([H])C(=O)C1([H])N(C(=O)C([H])(N([H])C(=O)C([H])(N([H])C([H])([H])[H])C([H])([H])[H])C(C([H])([H])[H])(C([H])([H])[H])C([H])([H])[H])C([H])([H])c2c([H])c(OC([H])([H])C([H])([H])C([H])([H])C([H])([H])[N+]3([H])C([H])([H])C([H])([H])C([H])(C([H])([H])C4([H])C([H])([H])C5([H])N(C(=O)N6C([H])([H])C([H])([H])C([H])([H])C([H])(n7nc(-c8c([H])c([H])c(Oc9c([H])c([H])c(F)c([H])c9F)c([H])c8[H])c(C(=O)N([H])[H])c7N([H])[H])C6([H])[H])C([H])([H])C4([H])C5([H])[H])C([H])([H])C3([H])[H])c([H])c([H])c2C1([H])[H]

>  <smiles>  (97) 
[H]c1c([H])c([H])c2c(c1[H])C([H])([H])C([H])([H])C([H])([H])C2([H])N([H])C(=O)C1([H])N(C(=O)C([H])(N([H])C(=O)C([H])(N([H])C([H])([H])[H])C([H])([H])[H])C(C([H])([H])[H])(C([H])([H])[H])C([H])([H])[H])C([H])([H])c2c([H])c(OC([H])([H])C([H])([H])C([H])([H])C([H])([H])[N+]3([H])C([H])([H])C([H])([H])C([H])(C([H])([H])C4([H])C([H])([H])C5([H])N(C(=O)N6C([H])([H])C([H])([H])C([H])([H])C([H])(n7nc(-c8c([H])c([H])c(Oc9c([H])c([H])c(F)c([H])c9F)c([H])c8[H])c(C(=O)N([H])[H])c7N([H])[H])C6([H])[H])C([H])([H])C4([H])C5([H])[H])C([H])([H])C3([H])[H])c([H])c([H])c2C1([H])[H]

$$$$
98:0:0
     RDKit          3D

 93101  0  0  1  0  0  0  0  0999 V2000
  -30.0590  -20.2000   24.4690 C   0  0  0  0  0  3  0  0  0  0  0  0
  -30.8720  -19.4380   23.7150 C   0  0  0  0  0  0  0  0  0  0  0  0
  -29.6090  -21.6020   24.0980 C   0  0  0  0  0  2  0  0  0  0  0  0
  -31.4360  -19.9490   22.3960 C   0  0  0  0  0  2  0  0  0  0  0  0
  -31.2920  -21.4730   22.2200 C   0  0  0  0  0  2  0  0  0  0  0  0
  -29.8840  -21.9660   22.6220 C   0  0  0  0  0  3  0  0  0  0  0  0
  -31.3020  -18.0490   24.1690 C   0  0  0  0  0  2  0  0  0  0  0  0
  -30.8100  -16.8810   23.2830 C   0  0  0  0  0  2  0  0  0  0  0  0
  -31.4090  -16.8420   21.8650 C   0  0  0  0  0  2  0  0  0  0  0  0
  -31.6370  -15.4220   21.3170 C   0  0  0  0  0  2  0  0  0  0  0  0
  -30.1680  -14.3680   19.6220 C   0  0  0  0  0  0  0  0  0  0  0  0
  -29.6290  -12.3050   18.4010 C   0  0  0  0  0  2  0  0  0  0  0  0
  -28.4810  -12.4350   17.3920 C   0  0  0  0  0  2  0  0  0  0  0  0
  -27.1350  -12.1780   18.0870 C   0  0  0  0  0  2  0  0  0  0  0  0
  -26.9600  -13.0260   19.3730 C   0  0  0  0  0  3  0  0  0  0  0  0
  -28.2030  -12.9420   20.2920 C   0  0  0  0  0  2  0  0  0  0  0  0
  -29.4130  -13.2500   19.5070 N   0  0  0  0  0  0  0  0  0  0  0  0
  -30.8220  -14.8430   18.6890 O   0  0  0  0  0  0  0  0  0  0  0  0
  -30.4130  -14.7330   20.8920 N   0  0  0  0  0  0  0  0  0  0  0  0
  -29.8770  -14.2590   21.6050 H   0  0  0  0  0  0  0  0  0  0  0  0
  -24.7400  -13.4730   20.6020 C   0  0  0  0  0  0  0  0  0  0  0  0
  -23.7820  -12.6300   21.0960 C   0  0  0  0  0  0  0  0  0  0  0  0
  -24.2480  -11.3050   20.8360 C   0  0  0  0  0  0  0  0  0  0  0  0
  -25.7350  -12.6580   20.0820 N   0  0  0  0  0  0  0  0  0  0  0  0
  -25.4510  -11.3430   20.2740 N   0  0  0  0  0  0  0  0  0  0  0  0
  -23.5960  -10.0060   21.0390 C   0  0  0  0  0  0  0  0  0  0  0  0
  -24.1210   -9.0470   21.9340 C   0  0  0  0  0  3  0  0  0  0  0  0
  -23.4670   -7.8120   22.1260 C   0  0  0  0  0  3  0  0  0  0  0  0
  -22.2700   -7.5250   21.4260 C   0  0  0  0  0  0  0  0  0  0  0  0
  -21.7630   -8.4730   20.5190 C   0  0  0  0  0  3  0  0  0  0  0  0
  -22.4190   -9.7010   20.3250 C   0  0  0  0  0  3  0  0  0  0  0  0
  -21.5800   -6.3430   21.5300 O   0  0  0  0  0  0  0  0  0  0  0  0
  -21.5040   -5.6550   22.7150 C   0  0  0  0  0  0  0  0  0  0  0  0
  -20.9330   -6.2260   23.8720 C   0  0  0  0  0  3  0  0  0  0  0  0
  -20.8120   -5.4610   25.0490 C   0  0  0  0  0  3  0  0  0  0  0  0
  -21.2510   -4.1230   25.0690 C   0  0  0  0  0  0  0  0  0  0  0  0
  -21.8130   -3.5500   23.9150 C   0  0  0  0  0  3  0  0  0  0  0  0
  -21.9360   -4.3130   22.7390 C   0  0  0  0  0  0  0  0  0  0  0  0
  -22.4600   -3.7500   21.6250 F   0  0  0  0  0  0  0  0  0  0  0  0
  -21.1270   -3.3850   26.1960 F   0  0  0  0  0  0  0  0  0  0  0  0
  -22.4620  -13.0270   21.6940 C   0  0  0  0  0  0  0  0  0  0  0  0
  -21.9400  -12.2270   22.6170 N   0  0  0  0  0  0  0  0  0  0  0  0
  -21.9090  -14.0810   21.3780 O   0  0  0  0  0  0  0  0  0  0  0  0
  -22.4050  -11.3740   22.8910 H   0  0  0  0  0  0  0  0  0  0  0  0
  -21.0630  -12.4680   23.0540 H   0  0  0  0  0  0  0  0  0  0  0  0
  -24.8450  -14.8600   20.5340 N   0  0  0  0  0  0  0  0  0  0  0  0
  -24.1100  -15.4760   20.8650 H   0  0  0  0  0  0  0  0  0  0  0  0
  -25.6190  -15.3550   20.1090 H   0  0  0  0  0  0  0  0  0  0  0  0
  -29.6760  -23.4860   22.4230 C   0  0  0  0  0  2  0  0  0  0  0  0
  -29.6590  -23.9960   20.9690 C   0  0  0  0  0  2  0  0  0  0  0  0
  -29.1610  -25.4560   20.8910 C   0  0  0  0  0  2  0  0  0  0  0  0
  -29.4340  -26.1530   19.5460 C   0  0  0  0  0  2  0  0  0  0  0  0
  -29.1960  -27.5580   19.6630 O   0  0  0  0  0  0  0  0  0  0  0  0
  -24.6920  -31.6020   23.3720 C   0  0  0  0  0  0  0  0  0  0  0  0
  -27.9090  -28.0430   19.7500 C   0  0  0  0  0  0  0  0  0  0  0  0
  -23.6820  -30.2980   21.5300 C   0  0  0  0  0  3  0  0  0  0  0  0
  -25.3260  -29.1860   19.9300 C   0  0  0  0  0  0  0  0  0  0  0  0
  -26.1320  -31.0190   21.4250 C   0  0  0  0  0  2  0  0  0  0  0  0
  -26.4010  -29.7750   20.6060 C   0  0  0  0  0  0  0  0  0  0  0  0
  -27.6900  -29.2110   20.5140 C   0  0  0  0  0  3  0  0  0  0  0  0
  -26.8100  -27.4500   19.0860 C   0  0  0  0  0  3  0  0  0  0  0  0
  -25.5230  -28.0200   19.1710 C   0  0  0  0  0  3  0  0  0  0  0  0
  -23.9750  -29.8520   20.0730 C   0  0  0  0  0  2  0  0  0  0  0  0
  -24.8530  -30.9800   22.1700 N   0  0  0  0  0  0  0  0  0  0  0  0
  -23.5850  -31.6470   23.9270 O   0  0  0  0  0  0  0  0  0  0  0  0
  -23.1760  -29.0740   22.3300 C   0  0  0  0  0  0  0  0  0  0  0  0
  -21.9110  -28.6900   22.0980 N   0  0  0  0  0  0  0  0  0  0  0  0
  -23.9230  -28.4760   23.1080 O   0  0  0  0  0  0  0  0  0  0  0  0
  -21.3620  -29.2350   21.4470 H   0  0  0  0  0  0  0  0  0  0  0  0
  -18.7960  -26.8650   22.1900 C   0  0  0  0  0  0  0  0  0  0  0  0
  -21.2350  -27.5440   22.7050 C   0  0  0  0  0  3  0  0  0  0  0  0
  -21.6440  -26.2260   22.0090 C   0  0  0  0  0  2  0  0  0  0  0  0
  -20.6930  -25.8230   20.8780 C   0  0  0  0  0  2  0  0  0  0  0  0
  -19.2670  -25.6500   21.4090 C   0  0  0  0  0  2  0  0  0  0  0  0
  -19.7200  -27.7640   22.7860 C   0  0  0  0  0  0  0  0  0  0  0  0
  -19.2290  -28.8990   23.4670 C   0  0  0  0  0  3  0  0  0  0  0  0
  -17.8460  -29.1380   23.5620 C   0  0  0  0  0  3  0  0  0  0  0  0
  -16.9350  -28.2350   22.9850 C   0  0  0  0  0  3  0  0  0  0  0  0
  -17.4110  -27.1010   22.3040 C   0  0  0  0  0  3  0  0  0  0  0  0
  -25.8830  -32.3080   24.0950 C   0  0  0  0  0  3  0  0  0  0  0  0
  -25.4530  -33.6720   24.4250 N   0  0  0  0  0  0  0  0  0  0  0  0
  -25.7770  -34.7650   23.7200 C   0  0  0  0  0  0  0  0  0  0  0  0
  -26.5390  -34.7350   22.7510 O   0  0  0  0  0  0  0  0  0  0  0  0
  -24.7820  -33.7680   25.1730 H   0  0  0  0  0  0  0  0  0  0  0  0
  -23.9740  -36.4500   23.2470 C   0  0  0  0  0  1  0  0  0  0  0  0
  -25.1580  -36.1050   24.1610 C   0  0  0  0  0  3  0  0  0  0  0  0
  -27.1620  -37.0850   25.1890 C   0  0  0  0  0  1  0  0  0  0  0  0
  -26.1250  -37.2250   24.1680 N   0  0  0  0  0  0  0  0  0  0  0  0
  -25.6510  -38.1130   24.3170 H   0  0  0  0  0  0  0  0  0  0  0  0
  -26.3630  -31.5450   25.3900 C   0  0  1  0  0  0  0  0  0  0  0  0
  -25.2100  -31.1460   26.3410 C   0  0  0  0  0  1  0  0  0  0  0  0
  -27.1260  -30.2550   25.0070 C   0  0  0  0  0  1  0  0  0  0  0  0
  -27.3580  -32.4260   26.1790 C   0  0  0  0  0  1  0  0  0  0  0  0
  2  7  1  0
  2  1  2  0
  3  1  1  0
  4  2  1  0
  5  4  1  0
  5  6  1  0
  6 49  1  0
  6  3  1  0
  8  7  1  0
  9  8  1  0
 10  9  1  0
 11 19  1  0
 12 17  1  0
 13 14  1  0
 13 12  1  0
 15 14  1  0
 15 24  1  0
 15 16  1  0
 17 11  1  0
 17 16  1  0
 18 11  2  0
 19 10  1  0
 19 20  1  0
 21 22  2  0
 22 41  1  0
 23 26  1  0
 23 22  1  0
 24 25  1  0
 24 21  1  0
 25 23  2  0
 26 27  1  0
 27 28  2  0
 29 32  1  0
 29 28  1  0
 30 29  2  0
 31 30  1  0
 31 26  2  0
 32 33  1  0
 33 38  2  0
 33 34  1  0
 34 35  2  0
 35 36  1  0
 36 40  1  0
 37 36  2  0
 38 37  1  0
 39 38  1  0
 41 42  1  0
 42 44  1  0
 42 45  1  0
 43 41  2  0
 46 21  1  0
 46 47  1  0
 48 46  1  0
 50 49  1  0
 51 50  1  0
 52 53  1  0
 52 51  1  0
 53 55  1  0
 54 65  2  0
 55 60  1  0
 56 64  1  0
 56 66  1  0
 57 63  1  0
 57 59  1  0
 58 64  1  0
 59 58  1  0
 60 59  2  0
 61 62  1  0
 61 55  2  0
 62 57  2  0
 63 56  1  0
 64 54  1  0
 66 68  2  0
 67 66  1  0
 69 67  1  0
 70 79  2  0
 70 75  1  0
 71 67  1  0
 71 75  1  0
 72 71  1  0
 73 74  1  0
 73 72  1  0
 74 70  1  0
 75 76  2  0
 76 77  1  0
 78 77  2  0
 79 78  1  0
 80 54  1  0
 80 81  1  0
 80 90  1  0
 81 84  1  0
 82 86  1  0
 82 81  1  0
 83 82  2  0
 86 85  1  0
 86 88  1  0
 88 89  1  0
 88 87  1  0
 90 93  1  1
 90 91  1  0
 92 90  1  0
M  ISO  4  11 100  19 100  52 101  53 101
M  END
>  <TORSDO>  (98) 
F 24

>  <SCORE>  (98) 
-6.773

>  <name>  (98) 
98

>  <ligand_id>  (98) 
98

>  <original_smiles>  (98) 
[H]C1=C(C([H])([H])C([H])([H])C([H])([H])C([H])([H])N([H])C(=O)N2C([H])([H])C([H])([H])C([H])([H])C([H])(n3nc(-c4c([H])c([H])c(Oc5c([H])c([H])c(F)c([H])c5F)c([H])c4[H])c(C(=O)N([H])[H])c3N([H])[H])C2([H])[H])C([H])([H])C([H])([H])C([H])(C([H])([H])C([H])([H])C([H])([H])C([H])([H])Oc2c([H])c([H])c3c(c2[H])C([H])([H])N(C(=O)C([H])(N([H])C(=O)C([H])(N([H])C([H])([H])[H])C([H])([H])[H])C(C([H])([H])[H])(C([H])([H])[H])C([H])([H])[H])C([H])(C(=O)N([H])C2([H])c4c([H])c([H])c([H])c([H])c4C([H])([H])C([H])([H])C2([H])[H])C3([H])[H])C1([H])[H]

>  <smiles>  (98) 
[H]C1=C(C([H])([H])C([H])([H])C([H])([H])C([H])([H])N([H])C(=O)N2C([H])([H])C([H])([H])C([H])([H])C([H])(n3nc(-c4c([H])c([H])c(Oc5c([H])c([H])c(F)c([H])c5F)c([H])c4[H])c(C(=O)N([H])[H])c3N([H])[H])C2([H])[H])C([H])([H])C([H])([H])C([H])(C([H])([H])C([H])([H])C([H])([H])C([H])([H])Oc2c([H])c([H])c3c(c2[H])C([H])([H])N(C(=O)C([H])(N([H])C(=O)C([H])(N([H])C([H])([H])[H])C([H])([H])[H])C(C([H])([H])[H])(C([H])([H])[H])C([H])([H])[H])C([H])(C(=O)N([H])C2([H])c4c([H])c([H])c([H])c([H])c4C([H])([H])C([H])([H])C2([H])[H])C3([H])[H])C1([H])[H]

$$$$
