0:0:0
     RDKit          3D

101109  0  0  1  0  0  0  0  0999 V2000
  -32.9060  -22.8290   17.3530 C   0  0  0  0  0  2  0  0  0  0  0  0
  -31.4030  -22.9110   20.9220 C   0  0  0  0  0  2  0  0  0  0  0  0
  -29.9700  -23.3680   20.5780 C   0  0  0  0  0  2  0  0  0  0  0  0
  -30.5690  -25.2300   18.8610 C   0  0  0  0  0  2  0  0  0  0  0  0
  -32.2780  -22.4850   19.7230 C   0  0  0  0  0  2  0  0  0  0  0  0
  -32.0180  -24.7420   18.6950 C   0  0  0  0  0  2  0  0  0  0  0  0
  -29.8790  -24.8640   20.1980 C   0  0  0  0  0  3  0  0  0  0  0  0
  -32.0470  -23.2730   18.4840 N   0  0  1  0  0  4  0  0  0  0  0  0
  -31.1060  -23.0370   18.2090 H   0  0  0  0  0  0  0  0  0  0  0  0
  -28.4110  -25.3290   20.1610 C   0  0  0  0  0  2  0  0  0  0  0  0
  -28.4160  -26.7480   20.1550 O   0  0  0  0  0  0  0  0  0  0  0  0
  -24.5690  -31.8320   23.2400 C   0  0  0  0  0  0  0  0  0  0  0  0
  -27.2090  -27.4040   20.1710 C   0  0  0  0  0  0  0  0  0  0  0  0
  -23.3590  -30.4370   21.5920 C   0  0  0  0  0  3  0  0  0  0  0  0
  -24.8070  -28.8880   20.1810 C   0  0  0  0  0  0  0  0  0  0  0  0
  -25.8820  -30.7930   21.3970 C   0  0  0  0  0  2  0  0  0  0  0  0
  -25.9640  -29.4210   20.7650 C   0  0  0  0  0  0  0  0  0  0  0  0
  -27.1650  -28.6850   20.7530 C   0  0  0  0  0  3  0  0  0  0  0  0
  -26.0310  -26.8680   19.5960 C   0  0  0  0  0  3  0  0  0  0  0  0
  -24.8360  -27.6100   19.5970 C   0  0  0  0  0  3  0  0  0  0  0  0
  -23.5670  -29.7470   20.2170 C   0  0  0  0  0  2  0  0  0  0  0  0
  -24.6220  -31.0330   22.1370 N   0  0  0  0  0  0  0  0  0  0  0  0
  -23.4890  -32.1100   23.7770 O   0  0  0  0  0  0  0  0  0  0  0  0
  -22.7000  -29.4200   22.5520 C   0  0  0  0  0  0  0  0  0  0  0  0
  -21.3740  -29.2480   22.4200 N   0  0  0  0  0  0  0  0  0  0  0  0
  -23.3770  -28.7890   23.3670 O   0  0  0  0  0  0  0  0  0  0  0  0
  -20.8900  -29.8110   21.7340 H   0  0  0  0  0  0  0  0  0  0  0  0
  -17.9910  -28.0780   22.8920 C   0  0  0  0  0  0  0  0  0  0  0  0
  -20.5470  -28.3150   23.1830 C   0  0  0  0  0  3  0  0  0  0  0  0
  -20.6440  -26.8830   22.6090 C   0  0  0  0  0  2  0  0  0  0  0  0
  -19.5480  -26.5690   21.5860 C   0  0  0  0  0  2  0  0  0  0  0  0
  -18.1610  -26.7270   22.2180 C   0  0  0  0  0  2  0  0  0  0  0  0
  -19.1130  -28.8310   23.3310 C   0  0  0  0  0  0  0  0  0  0  0  0
  -18.9020  -30.0960   23.9180 C   0  0  0  0  0  3  0  0  0  0  0  0
  -17.6010  -30.6120   24.0730 C   0  0  0  0  0  3  0  0  0  0  0  0
  -16.4930  -29.8560   23.6540 C   0  0  0  0  0  3  0  0  0  0  0  0
  -16.6880  -28.5910   23.0700 C   0  0  0  0  0  3  0  0  0  0  0  0
  -25.8590  -32.4540   23.8630 C   0  0  0  0  0  3  0  0  0  0  0  0
  -25.5610  -33.8550   24.1880 N   0  0  0  0  0  0  0  0  0  0  0  0
  -25.9050  -34.9010   23.4250 C   0  0  0  0  0  0  0  0  0  0  0  0
  -26.5780  -34.7880   22.3980 O   0  0  0  0  0  0  0  0  0  0  0  0
  -24.9690  -34.0190   24.9890 H   0  0  0  0  0  0  0  0  0  0  0  0
  -24.1920  -36.7040   23.0540 C   0  0  0  0  0  1  0  0  0  0  0  0
  -25.4260  -36.2950   23.8750 C   0  0  0  0  0  3  0  0  0  0  0  0
  -27.5640  -37.1650   24.7120 C   0  0  0  0  0  1  0  0  0  0  0  0
  -26.4670  -37.3410   23.7650 N   0  0  0  0  0  0  0  0  0  0  0  0
  -26.0670  -38.2640   23.9140 H   0  0  0  0  0  0  0  0  0  0  0  0
  -26.3680  -31.6790   25.1390 C   0  0  1  0  0  0  0  0  0  0  0  0
  -25.2720  -31.4510   26.2050 C   0  0  0  0  0  1  0  0  0  0  0  0
  -26.9410  -30.2980   24.7440 C   0  0  0  0  0  1  0  0  0  0  0  0
  -27.5240  -32.4650   25.8060 C   0  0  0  0  0  1  0  0  0  0  0  0
  -32.2000  -23.0230   15.9890 C   0  0  0  0  0  2  0  0  0  0  0  0
  -32.6730  -22.0980   14.8420 C   0  0  0  0  0  2  0  0  0  0  0  0
  -32.4100  -20.6630   15.1140 N   0  0  0  0  0  4  0  0  0  0  0  0
  -33.2380  -20.2360   15.5020 H   0  0  0  0  0  0  0  0  0  0  0  0
  -31.6690  -20.5870   15.7910 H   0  0  0  0  0  0  0  0  0  0  0  0
  -31.9670  -19.8680   13.9500 C   0  0  0  0  0  2  0  0  0  0  0  0
  -31.3930  -18.5030   14.3780 C   0  0  0  0  0  2  0  0  0  0  0  0
  -30.2070  -18.6020   15.3640 C   0  0  0  0  0  2  0  0  0  0  0  0
  -30.6270  -18.6120   16.8460 C   0  0  0  0  0  2  0  0  0  0  0  0
  -29.4320  -18.7690   17.8070 C   0  0  0  0  0  2  0  0  0  0  0  0
  -29.6570  -18.1370   19.1950 C   0  0  0  0  0  2  0  0  0  0  0  0
  -29.7400  -16.6060   19.0930 C   0  0  0  0  0  2  0  0  0  0  0  0
  -30.6230  -14.9110   20.5810 C   0  0  0  0  0  0  0  0  0  0  0  0
  -30.4800  -12.6780   19.6390 C   0  0  0  0  0  2  0  0  0  0  0  0
  -29.5870  -12.8040   18.3850 C   0  0  0  0  0  2  0  0  0  0  0  0
  -28.1030  -12.6250   18.7560 C   0  0  0  0  0  2  0  0  0  0  0  0
  -27.6710  -13.5070   19.9560 C   0  0  0  0  0  3  0  0  0  0  0  0
  -28.6860  -13.4040   21.1230 C   0  0  0  0  0  2  0  0  0  0  0  0
  -30.0300  -13.6940   20.5990 N   0  0  0  0  0  0  0  0  0  0  0  0
  -31.8150  -15.0950   20.3320 O   0  0  0  0  0  0  0  0  0  0  0  0
  -29.7390  -15.8970   20.3760 N   0  0  0  0  0  0  0  0  0  0  0  0
  -28.8200  -15.6930   20.7320 H   0  0  0  0  0  0  0  0  0  0  0  0
  -25.2330  -14.0400   20.5770 C   0  0  0  0  0  0  0  0  0  0  0  0
  -24.1790  -13.2360   20.9120 C   0  0  0  0  0  0  0  0  0  0  0  0
  -24.6880  -11.9010   20.9100 C   0  0  0  0  0  0  0  0  0  0  0  0
  -26.3140  -13.1930   20.3900 N   0  0  0  0  0  0  0  0  0  0  0  0
  -25.9880  -11.9020   20.6510 N   0  0  0  0  0  0  0  0  0  0  0  0
  -24.0010  -10.6160   21.0800 C   0  0  0  0  0  0  0  0  0  0  0  0
  -24.4300   -9.6710   22.0410 C   0  0  0  0  0  3  0  0  0  0  0  0
  -23.7430   -8.4500   22.1970 C   0  0  0  0  0  3  0  0  0  0  0  0
  -22.6120   -8.1650   21.3930 C   0  0  0  0  0  0  0  0  0  0  0  0
  -22.2030   -9.0980   20.4260 C   0  0  0  0  0  3  0  0  0  0  0  0
  -22.8920  -10.3120   20.2650 C   0  0  0  0  0  3  0  0  0  0  0  0
  -21.8970   -6.9950   21.4620 O   0  0  0  0  0  0  0  0  0  0  0  0
  -21.8230   -6.2640   22.6210 C   0  0  0  0  0  0  0  0  0  0  0  0
  -21.3130   -6.8120   23.8180 C   0  0  0  0  0  3  0  0  0  0  0  0
  -21.1860   -6.0040   24.9650 C   0  0  0  0  0  3  0  0  0  0  0  0
  -21.5620   -4.6480   24.9170 C   0  0  0  0  0  0  0  0  0  0  0  0
  -22.0670   -4.0990   23.7280 C   0  0  0  0  0  3  0  0  0  0  0  0
  -22.1930   -4.9040   22.5810 C   0  0  0  0  0  0  0  0  0  0  0  0
  -22.6600   -4.3630   21.4310 F   0  0  0  0  0  0  0  0  0  0  0  0
  -21.4320   -3.8690   26.0180 F   0  0  0  0  0  0  0  0  0  0  0  0
  -22.7580  -13.6670   21.1290 C   0  0  0  0  0  0  0  0  0  0  0  0
  -22.0220  -12.9440   21.9660 N   0  0  0  0  0  0  0  0  0  0  0  0
  -22.3090  -14.6810   20.5960 O   0  0  0  0  0  0  0  0  0  0  0  0
  -22.4010  -12.1240   22.4160 H   0  0  0  0  0  0  0  0  0  0  0  0
  -21.0700  -13.2130   22.1630 H   0  0  0  0  0  0  0  0  0  0  0  0
  -25.3570  -15.4160   20.3960 N   0  0  0  0  0  0  0  0  0  0  0  0
  -24.5580  -16.0350   20.4680 H   0  0  0  0  0  0  0  0  0  0  0  0
  -26.1920  -15.8940   20.0840 H   0  0  0  0  0  0  0  0  0  0  0  0
  1  8  1  0
  3  2  1  0
  4  7  1  0
  5  2  1  0
  6  4  1  0
  7 10  1  0
  7  3  1  0
  8  6  1  0
  8  5  1  0
  8  9  1  6
 11 10  1  0
 11 13  1  0
 12 23  2  0
 13 18  1  0
 14 22  1  0
 14 24  1  0
 15 21  1  0
 15 17  1  0
 16 22  1  0
 17 16  1  0
 18 17  2  0
 19 20  1  0
 19 13  2  0
 20 15  2  0
 21 14  1  0
 22 12  1  0
 24 26  2  0
 25 24  1  0
 27 25  1  0
 28 37  2  0
 28 33  1  0
 29 25  1  0
 29 33  1  0
 30 29  1  0
 31 32  1  0
 31 30  1  0
 32 28  1  0
 33 34  2  0
 34 35  1  0
 36 35  2  0
 37 36  1  0
 38 12  1  0
 38 39  1  0
 38 48  1  0
 39 42  1  0
 40 44  1  0
 40 39  1  0
 41 40  2  0
 44 43  1  0
 46 44  1  0
 46 47  1  0
 46 45  1  0
 48 51  1  1
 48 49  1  0
 50 48  1  0
 52  1  1  0
 53 54  1  0
 53 52  1  0
 54 55  1  0
 54 56  1  0
 57 58  1  0
 57 54  1  0
 58 59  1  0
 59 60  1  0
 60 61  1  0
 61 62  1  0
 63 62  1  0
 63 72  1  0
 64 70  1  0
 65 70  1  0
 66 67  1  0
 66 65  1  0
 68 67  1  0
 68 77  1  0
 68 69  1  0
 70 69  1  0
 71 64  2  0
 72 64  1  0
 72 73  1  0
 74 75  2  0
 75 94  1  0
 76 75  1  0
 76 79  1  0
 77 74  1  0
 77 78  1  0
 78 76  2  0
 79 80  1  0
 80 81  2  0
 82 85  1  0
 82 81  1  0
 83 82  2  0
 84 83  1  0
 84 79  2  0
 85 86  1  0
 86 87  1  0
 87 88  2  0
 89 88  1  0
 89 93  1  0
 90 89  2  0
 91 86  2  0
 91 90  1  0
 92 91  1  0
 94 95  1  0
 95 98  1  0
 95 97  1  0
 96 94  2  0
 99100  1  0
 99 74  1  0
101 99  1  0
M  ISO  4  10 101  11 101  64 100  72 100
M  END
>  <TORSDO>  (1) 
F 28

>  <SCORE>  (1) 
-11.303

>  <name>  (1) 
0

>  <ligand_id>  (1) 
0

>  <original_smiles>  (1) 
[H]c1c([H])c([H])c2c(c1[H])C([H])([H])C([H])([H])C([H])([H])C2([H])N([H])C(=O)C1([H])N(C(=O)C([H])(N([H])C(=O)C([H])(N([H])C([H])([H])[H])C([H])([H])[H])C(C([H])([H])[H])(C([H])([H])[H])C([H])([H])[H])C([H])([H])c2c([H])c(OC([H])([H])C3([H])C([H])([H])C([H])([H])C([H])([H])[N+]([H])(C([H])([H])C([H])([H])C([H])([H])[N+]([H])([H])C([H])([H])C([H])([H])C([H])([H])C([H])([H])C([H])([H])C([H])([H])C([H])([H])N([H])C(=O)N4C([H])([H])C([H])([H])C([H])([H])C([H])(n5nc(-c6c([H])c([H])c(Oc7c([H])c([H])c(F)c([H])c7F)c([H])c6[H])c(C(=O)N([H])[H])c5N([H])[H])C4([H])[H])C([H])([H])C3([H])[H])c([H])c([H])c2C1([H])[H]

>  <smiles>  (1) 
[H]c1c([H])c([H])c2c(c1[H])C([H])([H])C([H])([H])C([H])([H])C2([H])N([H])C(=O)C1([H])N(C(=O)C([H])(N([H])C(=O)C([H])(N([H])C([H])([H])[H])C([H])([H])[H])C(C([H])([H])[H])(C([H])([H])[H])C([H])([H])[H])C([H])([H])c2c([H])c(OC([H])([H])C3([H])C([H])([H])C([H])([H])C([H])([H])[N+]([H])(C([H])([H])C([H])([H])C([H])([H])[N+]([H])([H])C([H])([H])C([H])([H])C([H])([H])C([H])([H])C([H])([H])C([H])([H])C([H])([H])N([H])C(=O)N4C([H])([H])C([H])([H])C([H])([H])C([H])(n5nc(-c6c([H])c([H])c(Oc7c([H])c([H])c(F)c([H])c7F)c([H])c6[H])c(C(=O)N([H])[H])c5N([H])[H])C4([H])[H])C([H])([H])C3([H])[H])c([H])c([H])c2C1([H])[H]

$$$$
1:0:0
     RDKit          3D

 97105  0  0  1  0  0  0  0  0999 V2000
  -29.1530  -23.5410   21.9850 N   0  0  1  0  0  4  0  0  0  0  0  0
  -29.8370  -23.3600   21.2630 H   0  0  0  0  0  0  0  0  0  0  0  0
  -29.8430  -24.5570   22.8450 C   0  0  0  0  0  2  0  0  0  0  0  0
  -32.2610  -28.1550   21.8150 C   0  0  0  0  0  2  0  0  0  0  0  0
  -31.1270  -28.2720   22.8420 C   0  0  0  0  0  2  0  0  0  0  0  0
  -31.8480  -27.2290   20.6680 C   0  0  0  0  0  2  0  0  0  0  0  0
  -30.6780  -26.8870   23.3460 C   0  0  0  0  0  2  0  0  0  0  0  0
  -31.3980  -25.8480   21.1770 C   0  0  0  0  0  2  0  0  0  0  0  0
  -30.2360  -25.9290   22.2080 C   0  0  0  0  0  3  0  0  0  0  0  0
  -29.0050  -22.2100   22.6580 C   0  0  0  0  0  2  0  0  0  0  0  0
  -29.0080  -21.0070   21.6780 C   0  0  0  0  0  2  0  0  0  0  0  0
  -29.8880  -19.8090   22.1130 C   0  0  0  0  0  2  0  0  0  0  0  0
  -30.2680  -18.9220   20.9070 C   0  0  0  0  0  2  0  0  0  0  0  0
  -31.4480  -17.9580   21.1600 C   0  0  0  0  0  2  0  0  0  0  0  0
  -31.6940  -15.5810   20.4250 C   0  0  0  0  0  0  0  0  0  0  0  0
  -31.4630  -13.3210   19.4520 C   0  0  0  0  0  2  0  0  0  0  0  0
  -30.5600  -13.3920   18.2040 C   0  0  0  0  0  2  0  0  0  0  0  0
  -29.0780  -13.2470   18.6030 C   0  0  0  0  0  2  0  0  0  0  0  0
  -28.6850  -14.2050   19.7600 C   0  0  0  0  0  3  0  0  0  0  0  0
  -29.7030  -14.1160   20.9220 C   0  0  0  0  0  2  0  0  0  0  0  0
  -31.0460  -14.3880   20.3730 N   0  0  0  0  0  0  0  0  0  0  0  0
  -32.7690  -15.7900   19.8530 O   0  0  0  0  0  0  0  0  0  0  0  0
  -31.0470  -16.5530   21.0830 N   0  0  0  0  0  0  0  0  0  0  0  0
  -30.1740  -16.2910   21.5210 H   0  0  0  0  0  0  0  0  0  0  0  0
  -26.3130  -14.8430   20.5250 C   0  0  0  0  0  0  0  0  0  0  0  0
  -25.2190  -14.0780   20.8420 C   0  0  0  0  0  0  0  0  0  0  0  0
  -25.6350  -12.7200   20.7080 C   0  0  0  0  0  0  0  0  0  0  0  0
  -27.3250  -13.9450   20.2250 N   0  0  0  0  0  0  0  0  0  0  0  0
  -26.9200  -12.6590   20.3880 N   0  0  0  0  0  0  0  0  0  0  0  0
  -24.8690  -11.4700   20.8100 C   0  0  0  0  0  0  0  0  0  0  0  0
  -25.1850  -10.4890   21.7730 C   0  0  0  0  0  3  0  0  0  0  0  0
  -24.4230   -9.3030   21.8620 C   0  0  0  0  0  3  0  0  0  0  0  0
  -23.3340   -9.0910   20.9840 C   0  0  0  0  0  0  0  0  0  0  0  0
  -23.0390  -10.0620   20.0130 C   0  0  0  0  0  3  0  0  0  0  0  0
  -23.8000  -11.2400   19.9220 C   0  0  0  0  0  3  0  0  0  0  0  0
  -22.5540   -7.9610   20.9810 O   0  0  0  0  0  0  0  0  0  0  0  0
  -22.2280   -7.3110   22.1430 C   0  0  0  0  0  0  0  0  0  0  0  0
  -21.5350   -7.9540   23.1920 C   0  0  0  0  0  3  0  0  0  0  0  0
  -21.1590   -7.2270   24.3390 C   0  0  0  0  0  3  0  0  0  0  0  0
  -21.4680   -5.8580   24.4370 C   0  0  0  0  0  0  0  0  0  0  0  0
  -22.1520   -5.2120   23.3910 C   0  0  0  0  0  3  0  0  0  0  0  0
  -22.5290   -5.9370   22.2480 C   0  0  0  0  0  0  0  0  0  0  0  0
  -23.1720   -5.3060   21.2350 F   0  0  0  0  0  0  0  0  0  0  0  0
  -21.1010   -5.1560   25.5350 F   0  0  0  0  0  0  0  0  0  0  0  0
  -23.8420  -14.5800   21.1680 C   0  0  0  0  0  0  0  0  0  0  0  0
  -23.1180  -13.8570   22.0170 N   0  0  0  0  0  0  0  0  0  0  0  0
  -23.4170  -15.6380   20.7050 O   0  0  0  0  0  0  0  0  0  0  0  0
  -23.4780  -12.9960   22.4010 H   0  0  0  0  0  0  0  0  0  0  0  0
  -22.1960  -14.1670   22.2910 H   0  0  0  0  0  0  0  0  0  0  0  0
  -26.5290  -16.2130   20.4540 N   0  0  0  0  0  0  0  0  0  0  0  0
  -25.7920  -16.8930   20.6140 H   0  0  0  0  0  0  0  0  0  0  0  0
  -27.4050  -16.6400   20.1760 H   0  0  0  0  0  0  0  0  0  0  0  0
  -27.9300  -23.9990   21.2480 C   0  0  0  0  0  2  0  0  0  0  0  0
  -28.0170  -25.4230   20.6070 C   0  0  0  0  0  2  0  0  0  0  0  0
  -28.6680  -25.4940   19.2010 C   0  0  0  0  0  2  0  0  0  0  0  0
  -29.0570  -26.9280   18.7420 C   0  0  0  0  0  2  0  0  0  0  0  0
  -28.1750  -27.4730   17.7560 O   0  0  0  0  0  0  0  0  0  0  0  0
  -24.4220  -31.0430   22.6890 C   0  0  0  0  0  0  0  0  0  0  0  0
  -26.9610  -27.9260   18.2140 C   0  0  0  0  0  0  0  0  0  0  0  0
  -23.1110  -29.7560   21.0240 C   0  0  0  0  0  3  0  0  0  0  0  0
  -24.4230  -28.8600   19.0300 C   0  0  0  0  0  0  0  0  0  0  0  0
  -25.4210  -30.6710   20.4350 C   0  0  0  0  0  2  0  0  0  0  0  0
  -25.5850  -29.4900   19.4990 C   0  0  0  0  0  0  0  0  0  0  0  0
  -26.8580  -29.0360   19.0830 C   0  0  0  0  0  3  0  0  0  0  0  0
  -25.7860  -27.3050   17.7430 C   0  0  0  0  0  3  0  0  0  0  0  0
  -24.5200  -27.7710   18.1450 C   0  0  0  0  0  3  0  0  0  0  0  0
  -23.1030  -29.4200   19.5100 C   0  0  0  0  0  2  0  0  0  0  0  0
  -24.3470  -30.4970   21.4420 N   0  0  0  0  0  0  0  0  0  0  0  0
  -23.4610  -30.9800   23.4710 O   0  0  0  0  0  0  0  0  0  0  0  0
  -22.8720  -28.4570   21.8270 C   0  0  0  0  0  0  0  0  0  0  0  0
  -21.6460  -27.9160   21.7420 N   0  0  0  0  0  0  0  0  0  0  0  0
  -23.7810  -27.9470   22.4840 O   0  0  0  0  0  0  0  0  0  0  0  0
  -20.9520  -28.4120   21.2010 H   0  0  0  0  0  0  0  0  0  0  0  0
  -18.8800  -25.6090   22.0110 C   0  0  0  0  0  0  0  0  0  0  0  0
  -21.2070  -26.6730   22.3740 C   0  0  0  0  0  3  0  0  0  0  0  0
  -21.7730  -25.4340   21.6420 C   0  0  0  0  0  2  0  0  0  0  0  0
  -20.8340  -24.8760   20.5680 C   0  0  0  0  0  2  0  0  0  0  0  0
  -19.4830  -24.4830   21.1850 C   0  0  0  0  0  2  0  0  0  0  0  0
  -19.6850  -26.6480   22.5520 C   0  0  0  0  0  0  0  0  0  0  0  0
  -19.0650  -27.6870   23.2810 C   0  0  0  0  0  3  0  0  0  0  0  0
  -17.6680  -27.7020   23.4670 C   0  0  0  0  0  3  0  0  0  0  0  0
  -16.8790  -26.6660   22.9370 C   0  0  0  0  0  3  0  0  0  0  0  0
  -17.4870  -25.6180   22.2220 C   0  0  0  0  0  3  0  0  0  0  0  0
  -25.7040  -31.7890   23.1870 C   0  0  0  0  0  3  0  0  0  0  0  0
  -26.5400  -30.9590   24.2400 C   0  0  1  0  0  0  0  0  0  0  0  0
  -25.7070  -30.4440   25.4380 C   0  0  0  0  0  1  0  0  0  0  0  0
  -27.2030  -29.7320   23.5710 C   0  0  0  0  0  1  0  0  0  0  0  0
  -27.6850  -31.8330   24.8050 C   0  0  0  0  0  1  0  0  0  0  0  0
  -25.2860  -33.0800   23.7520 N   0  0  0  0  0  0  0  0  0  0  0  0
  -25.3810  -34.2540   23.1120 C   0  0  0  0  0  0  0  0  0  0  0  0
  -25.9200  -34.3740   22.0100 O   0  0  0  0  0  0  0  0  0  0  0  0
  -24.8030  -33.0620   24.6380 H   0  0  0  0  0  0  0  0  0  0  0  0
  -23.4220  -35.8320   23.1760 C   0  0  0  0  0  1  0  0  0  0  0  0
  -24.7840  -35.4930   23.8050 C   0  0  0  0  0  3  0  0  0  0  0  0
  -26.8760  -36.5330   24.5440 C   0  0  0  0  0  1  0  0  0  0  0  0
  -25.6660  -36.6770   23.7440 N   0  0  0  0  0  0  0  0  0  0  0  0
  -25.1750  -37.5040   24.0700 H   0  0  0  0  0  0  0  0  0  0  0  0
  1 10  1  0
  1  3  1  0
  1  2  1  6
  4  5  1  0
  5  7  1  0
  6  8  1  0
  6  4  1  0
  8  9  1  0
  9  3  1  0
  9  7  1  0
 11 12  1  0
 11 10  1  0
 13 14  1  0
 13 12  1  0
 15 23  1  0
 16 21  1  0
 17 18  1  0
 17 16  1  0
 19 18  1  0
 19 28  1  0
 19 20  1  0
 21 15  1  0
 21 20  1  0
 22 15  2  0
 23 14  1  0
 23 24  1  0
 25 26  2  0
 26 45  1  0
 27 30  1  0
 27 26  1  0
 28 29  1  0
 28 25  1  0
 29 27  2  0
 30 31  1  0
 31 32  2  0
 33 32  1  0
 34 33  2  0
 35 34  1  0
 35 30  2  0
 36 33  1  0
 36 37  1  0
 37 42  2  0
 37 38  1  0
 38 39  2  0
 39 40  1  0
 40 44  1  0
 41 40  2  0
 42 41  1  0
 43 42  1  0
 45 46  1  0
 46 49  1  0
 46 48  1  0
 47 45  2  0
 50 25  1  0
 50 51  1  0
 52 50  1  0
 53  1  1  0
 54 53  1  0
 55 54  1  0
 56 55  1  0
 57 59  1  0
 57 56  1  0
 58 69  2  0
 59 64  1  0
 60 68  1  0
 60 70  1  0
 61 63  1  0
 61 67  1  0
 62 68  1  0
 63 62  1  0
 64 63  2  0
 65 66  1  0
 65 59  2  0
 66 61  2  0
 67 60  1  0
 68 58  1  0
 70 72  2  0
 71 70  1  0
 73 71  1  0
 74 83  2  0
 74 79  1  0
 75 71  1  0
 75 79  1  0
 76 75  1  0
 77 78  1  0
 77 76  1  0
 78 74  1  0
 79 80  2  0
 80 81  1  0
 82 81  2  0
 83 82  1  0
 84 58  1  0
 84 89  1  0
 84 85  1  0
 85 88  1  1
 85 86  1  0
 87 85  1  0
 89 92  1  0
 90 89  1  0
 90 94  1  0
 91 90  2  0
 94 93  1  0
 96 94  1  0
 96 97  1  0
 96 95  1  0
M  ISO  4  15 100  23 100  56 101  57 101
M  END
>  <TORSDO>  (2) 
F 27

>  <SCORE>  (2) 
-6.163

>  <name>  (2) 
1

>  <ligand_id>  (2) 
1

>  <original_smiles>  (2) 
[H]c1c([H])c([H])c2c(c1[H])C([H])([H])C([H])([H])C([H])([H])C2([H])N([H])C(=O)C1([H])N(C(=O)C([H])(N([H])C(=O)C([H])(N([H])C([H])([H])[H])C([H])([H])[H])C(C([H])([H])[H])(C([H])([H])[H])C([H])([H])[H])C([H])([H])c2c([H])c(OC([H])([H])C([H])([H])C([H])([H])C([H])([H])[N+]([H])(C([H])([H])C([H])([H])C([H])([H])C([H])([H])C([H])([H])N([H])C(=O)N3C([H])([H])C([H])([H])C([H])([H])C([H])(n4nc(-c5c([H])c([H])c(Oc6c([H])c([H])c(F)c([H])c6F)c([H])c5[H])c(C(=O)N([H])[H])c4N([H])[H])C3([H])[H])C([H])([H])C3([H])C([H])([H])C([H])([H])C([H])([H])C([H])([H])C3([H])[H])c([H])c([H])c2C1([H])[H]

>  <smiles>  (2) 
[H]c1c([H])c([H])c2c(c1[H])C([H])([H])C([H])([H])C([H])([H])C2([H])N([H])C(=O)C1([H])N(C(=O)C([H])(N([H])C(=O)C([H])(N([H])C([H])([H])[H])C([H])([H])[H])C(C([H])([H])[H])(C([H])([H])[H])C([H])([H])[H])C([H])([H])c2c([H])c(OC([H])([H])C([H])([H])C([H])([H])C([H])([H])[N+]([H])(C([H])([H])C([H])([H])C([H])([H])C([H])([H])C([H])([H])N([H])C(=O)N3C([H])([H])C([H])([H])C([H])([H])C([H])(n4nc(-c5c([H])c([H])c(Oc6c([H])c([H])c(F)c([H])c6F)c([H])c5[H])c(C(=O)N([H])[H])c4N([H])[H])C3([H])[H])C([H])([H])C3([H])C([H])([H])C([H])([H])C([H])([H])C([H])([H])C3([H])[H])c([H])c([H])c2C1([H])[H]

$$$$
2:0:0
     RDKit          3D

 94102  0  0  1  0  0  0  0  0999 V2000
  -30.5960  -21.4340   21.5790 N   0  0  0  0  0  4  0  0  0  0  0  0
  -29.6920  -21.0530   21.8100 H   0  0  0  0  0  0  0  0  0  0  0  0
  -30.8190  -21.1500   20.6400 H   0  0  0  0  0  0  0  0  0  0  0  0
  -31.5820  -20.8270   22.4870 C   0  0  0  0  0  2  0  0  0  0  0  0
  -30.9350  -17.0660   22.8360 C   0  0  0  0  0  3  0  0  0  0  0  0
  -32.4540  -17.4250   20.9600 C   0  0  0  0  0  3  0  0  0  0  0  0
  -30.8970  -18.4530   23.0710 C   0  0  0  0  0  3  0  0  0  0  0  0
  -32.4140  -18.8130   21.1920 C   0  0  0  0  0  3  0  0  0  0  0  0
  -31.7200  -16.5490   21.7840 C   0  0  0  0  0  0  0  0  0  0  0  0
  -31.6390  -19.3300   22.2500 C   0  0  0  0  0  0  0  0  0  0  0  0
  -31.7870  -15.0540   21.5510 C   0  0  0  0  0  2  0  0  0  0  0  0
  -30.3610  -14.3140   19.6630 C   0  0  0  0  0  0  0  0  0  0  0  0
  -29.6260  -12.4620   18.2230 C   0  0  0  0  0  2  0  0  0  0  0  0
  -28.4710  -12.7830   17.2650 C   0  0  0  0  0  2  0  0  0  0  0  0
  -27.1190  -12.5760   17.9660 C   0  0  0  0  0  2  0  0  0  0  0  0
  -27.0420  -13.3160   19.3260 C   0  0  0  0  0  3  0  0  0  0  0  0
  -28.2800  -13.0120   20.1980 C   0  0  0  0  0  2  0  0  0  0  0  0
  -29.5000  -13.2980   19.4220 N   0  0  0  0  0  0  0  0  0  0  0  0
  -31.0910  -14.8170   18.8030 O   0  0  0  0  0  0  0  0  0  0  0  0
  -30.5710  -14.5040   20.9690 N   0  0  0  0  0  0  0  0  0  0  0  0
  -29.9600  -13.9990   21.5930 H   0  0  0  0  0  0  0  0  0  0  0  0
  -24.8250  -13.8610   20.5180 C   0  0  0  0  0  0  0  0  0  0  0  0
  -23.8330  -13.0590   21.0170 C   0  0  0  0  0  0  0  0  0  0  0  0
  -24.2630  -11.7150   20.7900 C   0  0  0  0  0  0  0  0  0  0  0  0
  -25.7980  -13.0040   20.0260 N   0  0  0  0  0  0  0  0  0  0  0  0
  -25.4710  -11.7030   20.2430 N   0  0  0  0  0  0  0  0  0  0  0  0
  -23.5670  -10.4390   21.0090 C   0  0  0  0  0  0  0  0  0  0  0  0
  -24.1090   -9.4370   21.8430 C   0  0  0  0  0  3  0  0  0  0  0  0
  -23.4140   -8.2260   22.0530 C   0  0  0  0  0  3  0  0  0  0  0  0
  -22.1620   -8.0110   21.4290 C   0  0  0  0  0  0  0  0  0  0  0  0
  -21.6370   -9.0020   20.5810 C   0  0  0  0  0  3  0  0  0  0  0  0
  -22.3340  -10.2040   20.3700 C   0  0  0  0  0  3  0  0  0  0  0  0
  -21.4270   -6.8570   21.5540 O   0  0  0  0  0  0  0  0  0  0  0  0
  -21.4800   -6.0900   22.6900 C   0  0  0  0  0  0  0  0  0  0  0  0
  -21.1580   -6.6160   23.9600 C   0  0  0  0  0  3  0  0  0  0  0  0
  -21.1580   -5.7750   25.0920 C   0  0  0  0  0  3  0  0  0  0  0  0
  -21.4680   -4.4080   24.9550 C   0  0  0  0  0  0  0  0  0  0  0  0
  -21.7840   -3.8820   23.6900 C   0  0  0  0  0  3  0  0  0  0  0  0
  -21.7860   -4.7200   22.5600 C   0  0  0  0  0  0  0  0  0  0  0  0
  -22.0700   -4.2030   21.3410 F   0  0  0  0  0  0  0  0  0  0  0  0
  -21.4610   -3.5990   26.0390 F   0  0  0  0  0  0  0  0  0  0  0  0
  -22.5190  -13.5090   21.5850 C   0  0  0  0  0  0  0  0  0  0  0  0
  -21.9730  -12.7570   22.5350 N   0  0  0  0  0  0  0  0  0  0  0  0
  -21.9900  -14.5590   21.2220 O   0  0  0  0  0  0  0  0  0  0  0  0
  -22.4160  -11.9070   22.8490 H   0  0  0  0  0  0  0  0  0  0  0  0
  -21.0990  -13.0380   22.9570 H   0  0  0  0  0  0  0  0  0  0  0  0
  -24.9730  -15.2420   20.4260 N   0  0  0  0  0  0  0  0  0  0  0  0
  -24.2520  -15.8880   20.7320 H   0  0  0  0  0  0  0  0  0  0  0  0
  -25.7650  -15.7050   19.9980 H   0  0  0  0  0  0  0  0  0  0  0  0
  -30.5360  -22.9040   21.6460 C   0  0  0  0  0  2  0  0  0  0  0  0
  -29.5070  -23.4720   20.6560 C   0  0  0  0  0  2  0  0  0  0  0  0
  -29.4540  -25.0030   20.6980 C   0  0  0  0  0  2  0  0  0  0  0  0
  -28.3340  -25.5840   19.8320 C   0  0  0  0  0  2  0  0  0  0  0  0
  -28.3420  -26.9880   20.0450 O   0  0  0  0  0  0  0  0  0  0  0  0
  -24.5320  -32.0130   23.2630 C   0  0  0  0  0  0  0  0  0  0  0  0
  -27.1340  -27.6400   20.0810 C   0  0  0  0  0  0  0  0  0  0  0  0
  -23.2900  -30.6060   21.6490 C   0  0  0  0  0  3  0  0  0  0  0  0
  -24.7140  -29.0890   20.1790 C   0  0  0  0  0  0  0  0  0  0  0  0
  -25.8000  -31.0000   21.3750 C   0  0  0  0  0  2  0  0  0  0  0  0
  -25.8800  -29.6340   20.7300 C   0  0  0  0  0  0  0  0  0  0  0  0
  -27.0910  -28.9160   20.6760 C   0  0  0  0  0  3  0  0  0  0  0  0
  -25.9510  -27.0970   19.5290 C   0  0  0  0  0  3  0  0  0  0  0  0
  -24.7420  -27.8170   19.5780 C   0  0  0  0  0  3  0  0  0  0  0  0
  -23.4630  -29.9320   20.2610 C   0  0  0  0  0  2  0  0  0  0  0  0
  -24.5600  -31.2200   22.1540 N   0  0  0  0  0  0  0  0  0  0  0  0
  -23.4650  -32.2710   23.8380 O   0  0  0  0  0  0  0  0  0  0  0  0
  -22.6780  -29.5740   22.6240 C   0  0  0  0  0  0  0  0  0  0  0  0
  -21.3740  -29.3020   22.4640 N   0  0  0  0  0  0  0  0  0  0  0  0
  -23.3770  -29.0190   23.4770 O   0  0  0  0  0  0  0  0  0  0  0  0
  -20.8710  -29.8050   21.7460 H   0  0  0  0  0  0  0  0  0  0  0  0
  -18.0850  -27.8610   22.8470 C   0  0  0  0  0  0  0  0  0  0  0  0
  -20.5930  -28.3400   23.2400 C   0  0  0  0  0  3  0  0  0  0  0  0
  -20.8420  -26.8950   22.7470 C   0  0  0  0  0  2  0  0  0  0  0  0
  -19.8290  -26.4360   21.6940 C   0  0  0  0  0  2  0  0  0  0  0  0
  -18.4050  -26.4990   22.2540 C   0  0  0  0  0  2  0  0  0  0  0  0
  -19.1130  -28.7310   23.2960 C   0  0  0  0  0  0  0  0  0  0  0  0
  -18.7630  -30.0010   23.8050 C   0  0  0  0  0  3  0  0  0  0  0  0
  -17.4160  -30.4020   23.8730 C   0  0  0  0  0  3  0  0  0  0  0  0
  -16.4000  -29.5300   23.4440 C   0  0  0  0  0  3  0  0  0  0  0  0
  -16.7350  -28.2620   22.9360 C   0  0  0  0  0  3  0  0  0  0  0  0
  -25.8310  -32.6500   23.8480 C   0  0  0  0  0  3  0  0  0  0  0  0
  -25.5430  -34.0630   24.1270 N   0  0  0  0  0  0  0  0  0  0  0  0
  -25.8640  -35.0780   23.3150 C   0  0  0  0  0  0  0  0  0  0  0  0
  -26.5070  -34.9260   22.2730 O   0  0  0  0  0  0  0  0  0  0  0  0
  -24.9710  -34.2560   24.9360 H   0  0  0  0  0  0  0  0  0  0  0  0
  -24.1340  -36.8620   22.9300 C   0  0  0  0  0  1  0  0  0  0  0  0
  -25.3960  -36.4890   23.7240 C   0  0  0  0  0  3  0  0  0  0  0  0
  -27.5600  -37.3930   24.4490 C   0  0  0  0  0  1  0  0  0  0  0  0
  -26.4300  -37.5290   23.5340 N   0  0  0  0  0  0  0  0  0  0  0  0
  -26.0330  -38.4570   23.6560 H   0  0  0  0  0  0  0  0  0  0  0  0
  -26.3560  -31.9190   25.1440 C   0  0  1  0  0  0  0  0  0  0  0  0
  -25.2620  -31.6900   26.2130 C   0  0  0  0  0  1  0  0  0  0  0  0
  -26.9620  -30.5420   24.7850 C   0  0  0  0  0  1  0  0  0  0  0  0
  -27.4900  -32.7480   25.7910 C   0  0  0  0  0  1  0  0  0  0  0  0
  1 50  1  0
  1  2  1  0
  1  4  1  0
  3  1  1  0
  5  7  1  0
  6  8  2  0
  6  9  1  0
  8 10  1  0
  9  5  2  0
 10  4  1  0
 10  7  2  0
 11  9  1  0
 12 20  1  0
 13 18  1  0
 14 15  1  0
 14 13  1  0
 16 15  1  0
 16 25  1  0
 16 17  1  0
 18 12  1  0
 18 17  1  0
 19 12  2  0
 20 11  1  0
 20 21  1  0
 22 23  2  0
 23 42  1  0
 24 27  1  0
 24 23  1  0
 25 26  1  0
 25 22  1  0
 26 24  2  0
 27 28  1  0
 28 29  2  0
 30 33  1  0
 30 29  1  0
 31 30  2  0
 32 31  1  0
 32 27  2  0
 33 34  1  0
 34 35  1  0
 35 36  2  0
 37 36  1  0
 37 41  1  0
 38 37  2  0
 39 34  2  0
 39 38  1  0
 40 39  1  0
 42 43  1  0
 43 45  1  0
 43 46  1  0
 44 42  2  0
 47 22  1  0
 47 48  1  0
 49 47  1  0
 51 52  1  0
 51 50  1  0
 53 54  1  0
 53 52  1  0
 54 56  1  0
 55 66  2  0
 56 61  1  0
 57 65  1  0
 57 67  1  0
 58 64  1  0
 58 60  1  0
 59 65  1  0
 60 59  1  0
 61 60  2  0
 62 63  1  0
 62 56  2  0
 63 58  2  0
 64 57  1  0
 65 55  1  0
 67 69  2  0
 68 67  1  0
 70 68  1  0
 71 80  2  0
 71 76  1  0
 72 68  1  0
 72 76  1  0
 73 72  1  0
 74 75  1  0
 74 73  1  0
 75 71  1  0
 76 77  2  0
 77 78  1  0
 79 78  2  0
 80 79  1  0
 81 55  1  0
 81 82  1  0
 81 91  1  0
 82 85  1  0
 83 87  1  0
 83 82  1  0
 84 83  2  0
 87 86  1  0
 89 90  1  0
 89 87  1  0
 89 88  1  0
 91 94  1  1
 91 92  1  0
 93 91  1  0
M  ISO  4  12 100  20 100  53 101  54 101
M  END
>  <TORSDO>  (3) 
F 23

>  <SCORE>  (3) 
-9.557

>  <name>  (3) 
2

>  <ligand_id>  (3) 
2

>  <original_smiles>  (3) 
[H]c1c([H])c([H])c2c(c1[H])C([H])([H])C([H])([H])C([H])([H])C2([H])N([H])C(=O)C1([H])N(C(=O)C([H])(N([H])C(=O)C([H])(N([H])C([H])([H])[H])C([H])([H])[H])C(C([H])([H])[H])(C([H])([H])[H])C([H])([H])[H])C([H])([H])c2c([H])c(OC([H])([H])C([H])([H])C([H])([H])C([H])([H])[N+]([H])([H])C([H])([H])c3c([H])c([H])c(C([H])([H])N([H])C(=O)N4C([H])([H])C([H])([H])C([H])([H])C([H])(n5nc(-c6c([H])c([H])c(Oc7c([H])c([H])c(F)c([H])c7F)c([H])c6[H])c(C(=O)N([H])[H])c5N([H])[H])C4([H])[H])c([H])c3[H])c([H])c([H])c2C1([H])[H]

>  <smiles>  (3) 
[H]c1c([H])c([H])c2c(c1[H])C([H])([H])C([H])([H])C([H])([H])C2([H])N([H])C(=O)C1([H])N(C(=O)C([H])(N([H])C(=O)C([H])(N([H])C([H])([H])[H])C([H])([H])[H])C(C([H])([H])[H])(C([H])([H])[H])C([H])([H])[H])C([H])([H])c2c([H])c(OC([H])([H])C([H])([H])C([H])([H])C([H])([H])[N+]([H])([H])C([H])([H])c3c([H])c([H])c(C([H])([H])N([H])C(=O)N4C([H])([H])C([H])([H])C([H])([H])C([H])(n5nc(-c6c([H])c([H])c(Oc7c([H])c([H])c(F)c([H])c7F)c([H])c6[H])c(C(=O)N([H])[H])c5N([H])[H])C4([H])[H])c([H])c3[H])c([H])c([H])c2C1([H])[H]

$$$$
3:0:0
     RDKit          3D

 93101  0  0  1  0  0  0  0  0999 V2000
  -26.7210  -21.2740   19.1860 C   0  0  0  0  0  2  0  0  0  0  0  0
  -28.3900  -22.7290   20.4840 C   0  0  0  0  0  2  0  0  0  0  0  0
  -27.5240  -20.1540   19.8660 C   0  0  0  0  0  2  0  0  0  0  0  0
  -29.4060  -21.8160   19.7740 C   0  0  0  0  0  2  0  0  0  0  0  0
  -26.9720  -22.6360   19.8740 C   0  0  0  0  0  3  0  0  0  0  0  0
  -28.9970  -20.3800   19.7770 N   0  0  2  0  0  4  0  0  0  0  0  0
  -29.3440  -19.9870   20.6400 H   0  0  0  0  0  0  0  0  0  0  0  0
  -26.5900  -23.8530   19.0040 C   0  0  0  0  0  2  0  0  0  0  0  0
  -27.4520  -24.0890   17.7470 C   0  0  0  0  0  2  0  0  0  0  0  0
  -27.8860  -25.5590   17.6190 C   0  0  0  0  0  2  0  0  0  0  0  0
  -27.5380  -26.1890   16.2520 C   0  0  0  0  0  2  0  0  0  0  0  0
  -27.5100  -27.6160   16.3190 O   0  0  0  0  0  0  0  0  0  0  0  0
  -25.3860  -29.1560   22.8980 C   0  0  0  0  0  0  0  0  0  0  0  0
  -26.5200  -28.2030   17.0790 C   0  0  0  0  0  0  0  0  0  0  0  0
  -23.6830  -29.4610   21.1300 C   0  0  0  0  0  3  0  0  0  0  0  0
  -24.5430  -29.3570   18.7350 C   0  0  0  0  0  0  0  0  0  0  0  0
  -26.1740  -29.6980   20.6000 C   0  0  0  0  0  2  0  0  0  0  0  0
  -25.8570  -29.2240   19.1990 C   0  0  0  0  0  0  0  0  0  0  0  0
  -26.8490  -28.6550   18.3710 C   0  0  0  0  0  3  0  0  0  0  0  0
  -25.1880  -28.3520   16.6200 C   0  0  0  0  0  3  0  0  0  0  0  0
  -24.2020  -28.9220   17.4430 C   0  0  0  0  0  3  0  0  0  0  0  0
  -23.5430  -29.9850   19.6760 C   0  0  0  0  0  2  0  0  0  0  0  0
  -25.1090  -29.4050   21.5870 N   0  0  0  0  0  0  0  0  0  0  0  0
  -24.4790  -29.0170   23.7300 O   0  0  0  0  0  0  0  0  0  0  0  0
  -22.9520  -28.1040   21.2380 C   0  0  0  0  0  0  0  0  0  0  0  0
  -21.6110  -28.1410   21.1710 N   0  0  0  0  0  0  0  0  0  0  0  0
  -23.5850  -27.0510   21.3500 O   0  0  0  0  0  0  0  0  0  0  0  0
  -21.1680  -29.0440   21.0860 H   0  0  0  0  0  0  0  0  0  0  0  0
  -18.1550  -27.1280   20.8930 C   0  0  0  0  0  0  0  0  0  0  0  0
  -20.7150  -26.9850   21.2160 C   0  0  0  0  0  3  0  0  0  0  0  0
  -20.7380  -26.2090   19.8790 C   0  0  0  0  0  2  0  0  0  0  0  0
  -19.6470  -26.6590   18.9020 C   0  0  0  0  0  2  0  0  0  0  0  0
  -18.2610  -26.4730   19.5250 C   0  0  0  0  0  2  0  0  0  0  0  0
  -19.3100  -27.3820   21.6790 C   0  0  0  0  0  0  0  0  0  0  0  0
  -19.1630  -28.0270   22.9260 C   0  0  0  0  0  3  0  0  0  0  0  0
  -17.8900  -28.4080   23.3930 C   0  0  0  0  0  3  0  0  0  0  0  0
  -16.7480  -28.1380   22.6200 C   0  0  0  0  0  3  0  0  0  0  0  0
  -16.8820  -27.4950   21.3760 C   0  0  0  0  0  3  0  0  0  0  0  0
  -26.8550  -29.0610   23.4200 C   0  0  0  0  0  3  0  0  0  0  0  0
  -26.9050  -29.7330   24.7250 N   0  0  0  0  0  0  0  0  0  0  0  0
  -27.4580  -30.9340   24.9380 C   0  0  0  0  0  0  0  0  0  0  0  0
  -28.0520  -31.5650   24.0600 O   0  0  0  0  0  0  0  0  0  0  0  0
  -26.3920  -29.2990   25.4770 H   0  0  0  0  0  0  0  0  0  0  0  0
  -26.2550  -32.6250   26.3590 C   0  0  0  0  0  1  0  0  0  0  0  0
  -27.3330  -31.5310   26.3540 C   0  0  0  0  0  3  0  0  0  0  0  0
  -29.6030  -31.0550   27.1610 C   0  0  0  0  0  1  0  0  0  0  0  0
  -28.6040  -32.0810   26.8740 N   0  0  0  0  0  0  0  0  0  0  0  0
  -28.4450  -32.6140   27.7240 H   0  0  0  0  0  0  0  0  0  0  0  0
  -27.3790  -27.5770   23.5350 C   0  0  1  0  0  0  0  0  0  0  0  0
  -26.4350  -26.6440   24.3310 C   0  0  0  0  0  1  0  0  0  0  0  0
  -27.5820  -26.9570   22.1330 C   0  0  0  0  0  1  0  0  0  0  0  0
  -28.7610  -27.5610   24.2290 C   0  0  0  0  0  1  0  0  0  0  0  0
  -29.6720  -19.6030   18.7040 C   0  0  0  0  0  2  0  0  0  0  0  0
  -30.9610  -18.9330   19.2220 C   0  0  0  0  0  2  0  0  0  0  0  0
  -31.4240  -17.7380   18.3640 C   0  0  0  0  0  2  0  0  0  0  0  0
  -32.3840  -15.5200   18.8820 C   0  0  0  0  0  0  0  0  0  0  0  0
  -32.2900  -13.0650   18.7800 C   0  0  0  0  0  2  0  0  0  0  0  0
  -31.2690  -12.6510   17.7000 C   0  0  0  0  0  2  0  0  0  0  0  0
  -29.8380  -12.6090   18.2740 C   0  0  0  0  0  2  0  0  0  0  0  0
  -29.4720  -13.8890   19.0700 C   0  0  0  0  0  3  0  0  0  0  0  0
  -30.5940  -14.2240   20.0820 C   0  0  0  0  0  2  0  0  0  0  0  0
  -31.8650  -14.3540   19.3390 N   0  0  0  0  0  0  0  0  0  0  0  0
  -33.3530  -15.5990   18.1190 O   0  0  0  0  0  0  0  0  0  0  0  0
  -31.6630  -16.5880   19.2250 N   0  0  0  0  0  0  0  0  0  0  0  0
  -30.9690  -16.4010   19.9320 H   0  0  0  0  0  0  0  0  0  0  0  0
  -27.3160  -14.7390   20.2030 C   0  0  0  0  0  0  0  0  0  0  0  0
  -26.2090  -14.0820   20.6700 C   0  0  0  0  0  0  0  0  0  0  0  0
  -26.4490  -12.6920   20.4380 C   0  0  0  0  0  0  0  0  0  0  0  0
  -28.1730  -13.7560   19.7290 N   0  0  0  0  0  0  0  0  0  0  0  0
  -27.6580  -12.5140   19.9220 N   0  0  0  0  0  0  0  0  0  0  0  0
  -25.5770  -11.5250   20.6240 C   0  0  0  0  0  0  0  0  0  0  0  0
  -25.8420  -10.5580   21.6180 C   0  0  0  0  0  3  0  0  0  0  0  0
  -24.9780   -9.4560   21.7910 C   0  0  0  0  0  3  0  0  0  0  0  0
  -23.8360   -9.3120   20.9690 C   0  0  0  0  0  0  0  0  0  0  0  0
  -23.5890  -10.2670   19.9660 C   0  0  0  0  0  3  0  0  0  0  0  0
  -24.4520  -11.3610   19.7910 C   0  0  0  0  0  3  0  0  0  0  0  0
  -22.9560   -8.2600   21.0470 O   0  0  0  0  0  0  0  0  0  0  0  0
  -22.5460   -7.7530   22.2550 C   0  0  0  0  0  0  0  0  0  0  0  0
  -21.8590   -8.5450   23.2000 C   0  0  0  0  0  3  0  0  0  0  0  0
  -21.3950   -7.9670   24.3990 C   0  0  0  0  0  3  0  0  0  0  0  0
  -21.6080   -6.5980   24.6500 C   0  0  0  0  0  0  0  0  0  0  0  0
  -22.2870   -5.8060   23.7060 C   0  0  0  0  0  3  0  0  0  0  0  0
  -22.7520   -6.3820   22.5110 C   0  0  0  0  0  0  0  0  0  0  0  0
  -23.3870   -5.6110   21.5970 F   0  0  0  0  0  0  0  0  0  0  0  0
  -21.1550   -6.0400   25.7960 F   0  0  0  0  0  0  0  0  0  0  0  0
  -24.9570  -14.7080   21.2110 C   0  0  0  0  0  0  0  0  0  0  0  0
  -24.3030  -14.0520   22.1640 N   0  0  0  0  0  0  0  0  0  0  0  0
  -24.5740  -15.8120   20.8220 O   0  0  0  0  0  0  0  0  0  0  0  0
  -24.6270  -13.1570   22.4990 H   0  0  0  0  0  0  0  0  0  0  0  0
  -23.4690  -14.4540   22.5670 H   0  0  0  0  0  0  0  0  0  0  0  0
  -27.6570  -16.0880   20.1220 N   0  0  0  0  0  0  0  0  0  0  0  0
  -26.9370  -16.7860   20.2710 H   0  0  0  0  0  0  0  0  0  0  0  0
  -28.3970  -16.3990   19.5050 H   0  0  0  0  0  0  0  0  0  0  0  0
  1  3  1  0
  1  5  1  0
  4  6  1  0
  4  2  1  0
  5  8  1  0
  5  2  1  0
  6  3  1  0
  6  7  1  1
  9  8  1  0
 10  9  1  0
 11 12  1  0
 11 10  1  0
 12 14  1  0
 13 24  2  0
 14 19  1  0
 15 25  1  0
 15 23  1  0
 16 18  1  0
 16 22  1  0
 17 23  1  0
 18 17  1  0
 19 18  2  0
 20 14  2  0
 20 21  1  0
 21 16  2  0
 22 15  1  0
 23 13  1  0
 25 27  2  0
 26 25  1  0
 28 26  1  0
 29 38  2  0
 29 34  1  0
 30 26  1  0
 30 34  1  0
 31 30  1  0
 32 33  1  0
 32 31  1  0
 33 29  1  0
 34 35  2  0
 35 36  1  0
 37 36  2  0
 38 37  1  0
 39 13  1  0
 39 49  1  0
 39 40  1  0
 40 41  1  0
 40 43  1  0
 41 45  1  0
 42 41  2  0
 45 44  1  0
 45 47  1  0
 47 46  1  0
 47 48  1  0
 49 52  1  1
 49 50  1  0
 51 49  1  0
 53 54  1  0
 53  6  1  0
 55 54  1  0
 55 64  1  0
 56 64  1  0
 56 62  1  0
 57 62  1  0
 58 59  1  0
 58 57  1  0
 60 59  1  0
 60 69  1  0
 60 61  1  0
 62 61  1  0
 63 56  2  0
 64 65  1  0
 66 67  2  0
 67 86  1  0
 68 71  1  0
 68 67  1  0
 69 70  1  0
 69 66  1  0
 70 68  2  0
 71 72  1  0
 72 73  2  0
 74 77  1  0
 74 73  1  0
 75 74  2  0
 76 75  1  0
 76 71  2  0
 77 78  1  0
 78 83  2  0
 78 79  1  0
 79 80  2  0
 80 81  1  0
 81 85  1  0
 82 81  2  0
 83 82  1  0
 84 83  1  0
 86 87  1  0
 87 89  1  0
 87 90  1  0
 88 86  2  0
 91 66  1  0
 91 92  1  0
 93 91  1  0
M  ISO  4  11 101  12 101  56 100  64 100
M  END
>  <TORSDO>  (4) 
F 23

>  <SCORE>  (4) 
-6.897

>  <name>  (4) 
3

>  <ligand_id>  (4) 
3

>  <original_smiles>  (4) 
[H]c1c([H])c([H])c2c(c1[H])C([H])([H])C([H])([H])C([H])([H])C2([H])N([H])C(=O)C1([H])N(C(=O)C([H])(N([H])C(=O)C([H])(N([H])C([H])([H])[H])C([H])([H])[H])C(C([H])([H])[H])(C([H])([H])[H])C([H])([H])[H])C([H])([H])c2c([H])c(OC([H])([H])C([H])([H])C([H])([H])C([H])([H])C3([H])C([H])([H])C([H])([H])[N+]([H])(C([H])([H])C([H])([H])C([H])([H])N([H])C(=O)N4C([H])([H])C([H])([H])C([H])([H])C([H])(n5nc(-c6c([H])c([H])c(Oc7c([H])c([H])c(F)c([H])c7F)c([H])c6[H])c(C(=O)N([H])[H])c5N([H])[H])C4([H])[H])C([H])([H])C3([H])[H])c([H])c([H])c2C1([H])[H]

>  <smiles>  (4) 
[H]c1c([H])c([H])c2c(c1[H])C([H])([H])C([H])([H])C([H])([H])C2([H])N([H])C(=O)C1([H])N(C(=O)C([H])(N([H])C(=O)C([H])(N([H])C([H])([H])[H])C([H])([H])[H])C(C([H])([H])[H])(C([H])([H])[H])C([H])([H])[H])C([H])([H])c2c([H])c(OC([H])([H])C([H])([H])C([H])([H])C([H])([H])C3([H])C([H])([H])C([H])([H])[N+]([H])(C([H])([H])C([H])([H])C([H])([H])N([H])C(=O)N4C([H])([H])C([H])([H])C([H])([H])C([H])(n5nc(-c6c([H])c([H])c(Oc7c([H])c([H])c(F)c([H])c7F)c([H])c6[H])c(C(=O)N([H])[H])c5N([H])[H])C4([H])[H])C([H])([H])C3([H])[H])c([H])c([H])c2C1([H])[H]

$$$$
4:0:0
     RDKit          3D

 97105  0  0  1  0  0  0  0  0999 V2000
  -28.2810  -24.9400   15.1810 C   0  0  0  0  0  0  0  0  0  0  0  0
  -28.3700  -23.5960   15.2460 C   0  0  0  0  0  3  0  0  0  0  0  0
  -29.3850  -25.7740   14.5640 C   0  0  0  0  0  2  0  0  0  0  0  0
  -27.1960  -25.7510   15.8560 C   0  0  0  0  0  2  0  0  0  0  0  0
  -29.9520  -26.8140   15.5580 C   0  0  0  0  0  2  0  0  0  0  0  0
  -27.4410  -25.9230   17.3570 C   0  0  0  0  0  2  0  0  0  0  0  0
  -30.0210  -26.3300   17.0300 C   0  0  0  0  0  2  0  0  0  0  0  0
  -28.7430  -26.6230   17.8660 C   0  0  0  0  0  3  0  0  0  0  0  0
  -28.9870  -26.3140   19.3870 C   0  0  0  0  0  2  0  0  0  0  0  0
  -28.8810  -27.4390   20.2740 O   0  0  0  0  0  0  0  0  0  0  0  0
  -24.8180  -32.1250   23.8120 C   0  0  0  0  0  0  0  0  0  0  0  0
  -27.6580  -28.0590   20.4130 C   0  0  0  0  0  0  0  0  0  0  0  0
  -23.6920  -30.8520   22.0130 C   0  0  0  0  0  3  0  0  0  0  0  0
  -25.2210  -29.4770   20.5210 C   0  0  0  0  0  0  0  0  0  0  0  0
  -26.2170  -31.2870   21.9300 C   0  0  0  0  0  2  0  0  0  0  0  0
  -26.3520  -29.9830   21.1730 C   0  0  0  0  0  0  0  0  0  0  0  0
  -27.5780  -29.2830   21.1160 C   0  0  0  0  0  3  0  0  0  0  0  0
  -26.4750  -27.5160   19.8690 C   0  0  0  0  0  3  0  0  0  0  0  0
  -25.2710  -28.2320   19.8760 C   0  0  0  0  0  3  0  0  0  0  0  0
  -23.9600  -30.3010   20.5890 C   0  0  0  0  0  2  0  0  0  0  0  0
  -24.9240  -31.4330   22.6430 N   0  0  0  0  0  0  0  0  0  0  0  0
  -23.7160  -32.3250   24.3410 O   0  0  0  0  0  0  0  0  0  0  0  0
  -23.0400  -29.7320   22.8540 C   0  0  0  0  0  0  0  0  0  0  0  0
  -21.7350  -29.5050   22.6350 N   0  0  0  0  0  0  0  0  0  0  0  0
  -23.7050  -29.0710   23.6570 O   0  0  0  0  0  0  0  0  0  0  0  0
  -21.2630  -30.0850   21.9570 H   0  0  0  0  0  0  0  0  0  0  0  0
  -18.4010  -28.1280   22.8050 C   0  0  0  0  0  0  0  0  0  0  0  0
  -20.9180  -28.4790   23.2800 C   0  0  0  0  0  3  0  0  0  0  0  0
  -21.1330  -27.1000   22.6160 C   0  0  0  0  0  2  0  0  0  0  0  0
  -20.1190  -26.7990   21.5090 C   0  0  0  0  0  2  0  0  0  0  0  0
  -18.6910  -26.8370   22.0590 C   0  0  0  0  0  2  0  0  0  0  0  0
  -19.4480  -28.9060   23.3660 C   0  0  0  0  0  0  0  0  0  0  0  0
  -19.1260  -30.1170   24.0170 C   0  0  0  0  0  3  0  0  0  0  0  0
  -17.7890  -30.5460   24.1210 C   0  0  0  0  0  3  0  0  0  0  0  0
  -16.7550  -29.7590   23.5860 C   0  0  0  0  0  3  0  0  0  0  0  0
  -17.0620  -28.5540   22.9300 C   0  0  0  0  0  3  0  0  0  0  0  0
  -26.0740  -32.7160   24.5260 C   0  0  0  0  0  3  0  0  0  0  0  0
  -26.5230  -31.8870   25.7920 C   0  0  1  0  0  0  0  0  0  0  0  0
  -25.3710  -31.5980   26.7810 C   0  0  0  0  0  1  0  0  0  0  0  0
  -27.1340  -30.5300   25.3710 C   0  0  0  0  0  1  0  0  0  0  0  0
  -27.6300  -32.6500   26.5580 C   0  0  0  0  0  1  0  0  0  0  0  0
  -25.7620  -34.1010   24.9010 N   0  0  0  0  0  0  0  0  0  0  0  0
  -26.1670  -35.1800   24.2200 C   0  0  0  0  0  0  0  0  0  0  0  0
  -26.9190  -35.1120   23.2440 O   0  0  0  0  0  0  0  0  0  0  0  0
  -25.1110  -34.2280   25.6620 H   0  0  0  0  0  0  0  0  0  0  0  0
  -24.5210  -37.0280   23.7830 C   0  0  0  0  0  1  0  0  0  0  0  0
  -25.6530  -36.5500   24.7040 C   0  0  0  0  0  3  0  0  0  0  0  0
  -27.6900  -37.3340   25.8260 C   0  0  0  0  0  1  0  0  0  0  0  0
  -26.7080  -37.5830   24.7740 N   0  0  0  0  0  0  0  0  0  0  0  0
  -26.3010  -38.5010   24.9280 H   0  0  0  0  0  0  0  0  0  0  0  0
  -27.5500  -22.6820   16.1420 C   0  0  0  0  0  2  0  0  0  0  0  0
  -28.4850  -22.2320   17.2770 C   0  0  0  0  0  2  0  0  0  0  0  0
  -27.9240  -21.3170   18.3770 C   0  0  0  0  0  2  0  0  0  0  0  0
  -29.1060  -20.8580   19.2590 C   0  0  0  0  0  2  0  0  0  0  0  0
  -28.9190  -19.5590   20.0570 C   0  0  0  0  0  2  0  0  0  0  0  0
  -30.2930  -18.9960   20.4670 C   0  0  0  0  0  2  0  0  0  0  0  0
  -30.2600  -17.5860   21.0720 C   0  0  0  0  0  2  0  0  0  0  0  0
  -31.6780  -16.9910   21.1730 C   0  0  0  0  0  2  0  0  0  0  0  0
  -31.7470  -15.6090   21.8450 C   0  0  0  0  0  2  0  0  0  0  0  0
  -31.0910  -14.0540   19.9880 C   0  0  0  0  0  0  0  0  0  0  0  0
  -30.3960  -12.1990   18.5180 C   0  0  0  0  0  2  0  0  0  0  0  0
  -29.3560  -12.6270   17.4690 C   0  0  0  0  0  2  0  0  0  0  0  0
  -27.9310  -12.5480   18.0470 C   0  0  0  0  0  2  0  0  0  0  0  0
  -27.8080  -13.2630   19.4170 C   0  0  0  0  0  3  0  0  0  0  0  0
  -28.9330  -12.8100   20.3700 C   0  0  0  0  0  2  0  0  0  0  0  0
  -30.2340  -13.0430   19.7080 N   0  0  0  0  0  0  0  0  0  0  0  0
  -32.0200  -14.3910   19.2440 O   0  0  0  0  0  0  0  0  0  0  0  0
  -30.9110  -14.6060   21.1920 N   0  0  0  0  0  0  0  0  0  0  0  0
  -30.1530  -14.2230   21.7380 H   0  0  0  0  0  0  0  0  0  0  0  0
  -25.5300  -13.9900   20.3770 C   0  0  0  0  0  0  0  0  0  0  0  0
  -24.4510  -13.2670   20.8150 C   0  0  0  0  0  0  0  0  0  0  0  0
  -24.8160  -11.8940   20.6820 C   0  0  0  0  0  0  0  0  0  0  0  0
  -26.4870  -13.0570   20.0100 N   0  0  0  0  0  0  0  0  0  0  0  0
  -26.0640  -11.7890   20.2470 N   0  0  0  0  0  0  0  0  0  0  0  0
  -24.0280  -10.6700   20.8880 C   0  0  0  0  0  0  0  0  0  0  0  0
  -24.4400   -9.6730   21.8010 C   0  0  0  0  0  3  0  0  0  0  0  0
  -23.6580   -8.5150   21.9950 C   0  0  0  0  0  3  0  0  0  0  0  0
  -22.4490   -8.3460   21.2780 C   0  0  0  0  0  0  0  0  0  0  0  0
  -22.0560   -9.3310   20.3550 C   0  0  0  0  0  3  0  0  0  0  0  0
  -22.8380  -10.4810   20.1580 C   0  0  0  0  0  3  0  0  0  0  0  0
  -21.6380   -7.2420   21.3830 O   0  0  0  0  0  0  0  0  0  0  0  0
  -21.5420   -6.5280   22.5490 C   0  0  0  0  0  0  0  0  0  0  0  0
  -21.0960   -7.1210   23.7500 C   0  0  0  0  0  3  0  0  0  0  0  0
  -20.9440   -6.3360   24.9110 C   0  0  0  0  0  3  0  0  0  0  0  0
  -21.2280   -4.9570   24.8690 C   0  0  0  0  0  0  0  0  0  0  0  0
  -21.6650   -4.3630   23.6720 C   0  0  0  0  0  3  0  0  0  0  0  0
  -21.8190   -5.1470   22.5150 C   0  0  0  0  0  0  0  0  0  0  0  0
  -22.2210   -4.5660   21.3590 F   0  0  0  0  0  0  0  0  0  0  0  0
  -21.0740   -4.1990   25.9800 F   0  0  0  0  0  0  0  0  0  0  0  0
  -23.1210  -13.8180   21.2440 C   0  0  0  0  0  0  0  0  0  0  0  0
  -22.4400  -13.1300   22.1560 N   0  0  0  0  0  0  0  0  0  0  0  0
  -22.7000  -14.8870   20.8100 O   0  0  0  0  0  0  0  0  0  0  0  0
  -22.7950  -12.2630   22.5280 H   0  0  0  0  0  0  0  0  0  0  0  0
  -21.5510  -13.4800   22.4870 H   0  0  0  0  0  0  0  0  0  0  0  0
  -25.7670  -15.3530   20.2440 N   0  0  0  0  0  0  0  0  0  0  0  0
  -25.0620  -16.0490   20.4620 H   0  0  0  0  0  0  0  0  0  0  0  0
  -26.6190  -15.7550   19.8740 H   0  0  0  0  0  0  0  0  0  0  0  0
  1  2  2  0
  1  4  1  0
  2 51  1  0
  3  1  1  0
  3  5  1  0
  4  6  1  0
  5  7  1  0
  6  8  1  0
  7  8  1  0
  8  9  1  0
  9 10  1  0
 10 12  1  0
 11 22  2  0
 12 17  1  0
 13 21  1  0
 13 23  1  0
 14 20  1  0
 14 16  1  0
 15 21  1  0
 16 15  1  0
 17 16  2  0
 18 19  1  0
 18 12  2  0
 19 14  2  0
 20 13  1  0
 21 11  1  0
 23 25  2  0
 24 23  1  0
 26 24  1  0
 27 36  2  0
 27 32  1  0
 28 24  1  0
 28 32  1  0
 29 28  1  0
 30 31  1  0
 30 29  1  0
 31 27  1  0
 32 33  2  0
 33 34  1  0
 35 34  2  0
 36 35  1  0
 37 11  1  0
 37 42  1  0
 37 38  1  0
 38 41  1  1
 38 39  1  0
 40 38  1  0
 42 45  1  0
 43 47  1  0
 43 42  1  0
 44 43  2  0
 47 46  1  0
 47 49  1  0
 49 50  1  0
 49 48  1  0
 51 52  1  0
 52 53  1  0
 53 54  1  0
 54 55  1  0
 55 56  1  0
 56 57  1  0
 57 58  1  0
 58 59  1  0
 60 68  1  0
 61 66  1  0
 62 63  1  0
 62 61  1  0
 64 63  1  0
 64 73  1  0
 64 65  1  0
 66 60  1  0
 66 65  1  0
 67 60  2  0
 68 69  1  0
 68 59  1  0
 70 71  2  0
 71 90  1  0
 72 71  1  0
 72 75  1  0
 73 74  1  0
 73 70  1  0
 74 72  2  0
 75 76  1  0
 76 77  2  0
 78 81  1  0
 78 77  1  0
 79 78  2  0
 80 79  1  0
 80 75  2  0
 81 82  1  0
 82 83  1  0
 83 84  2  0
 85 84  1  0
 85 89  1  0
 86 85  2  0
 87 82  2  0
 87 86  1  0
 88 87  1  0
 90 91  1  0
 91 94  1  0
 91 93  1  0
 92 90  2  0
 95 70  1  0
 95 96  1  0
 97 95  1  0
M  ISO  4   9 101  10 101  60 100  68 100
M  END
>  <TORSDO>  (5) 
F 26

>  <SCORE>  (5) 
-7.146

>  <name>  (5) 
4

>  <ligand_id>  (5) 
4

>  <original_smiles>  (5) 
[H]C(=C1C([H])([H])C([H])([H])C([H])([H])C([H])(C([H])([H])Oc2c([H])c([H])c3c(c2[H])C([H])([H])N(C(=O)C([H])(N([H])C(=O)C([H])(N([H])C([H])([H])[H])C([H])([H])[H])C(C([H])([H])[H])(C([H])([H])[H])C([H])([H])[H])C([H])(C(=O)N([H])C2([H])c4c([H])c([H])c([H])c([H])c4C([H])([H])C([H])([H])C2([H])[H])C3([H])[H])C([H])([H])C1([H])[H])C([H])([H])C([H])([H])C([H])([H])C([H])([H])C([H])([H])C([H])([H])C([H])([H])C([H])([H])C([H])([H])N([H])C(=O)N1C([H])([H])C([H])([H])C([H])([H])C([H])(n2nc(-c3c([H])c([H])c(Oc4c([H])c([H])c(F)c([H])c4F)c([H])c3[H])c(C(=O)N([H])[H])c2N([H])[H])C1([H])[H]

>  <smiles>  (5) 
[H]C(=C1C([H])([H])C([H])([H])C([H])([H])C([H])(C([H])([H])Oc2c([H])c([H])c3c(c2[H])C([H])([H])N(C(=O)C([H])(N([H])C(=O)C([H])(N([H])C([H])([H])[H])C([H])([H])[H])C(C([H])([H])[H])(C([H])([H])[H])C([H])([H])[H])C([H])(C(=O)N([H])C2([H])c4c([H])c([H])c([H])c([H])c4C([H])([H])C([H])([H])C2([H])[H])C3([H])[H])C([H])([H])C1([H])[H])C([H])([H])C([H])([H])C([H])([H])C([H])([H])C([H])([H])C([H])([H])C([H])([H])C([H])([H])C([H])([H])N([H])C(=O)N1C([H])([H])C([H])([H])C([H])([H])C([H])(n2nc(-c3c([H])c([H])c(Oc4c([H])c([H])c(F)c([H])c4F)c([H])c3[H])c(C(=O)N([H])[H])c2N([H])[H])C1([H])[H]

$$$$
5:0:0
     RDKit          3D

 99108  0  0  1  0  0  0  0  0999 V2000
  -29.8900  -22.1210   19.7510 C   0  0  0  0  0  3  0  0  0  0  0  0
  -29.7730  -20.9570   17.6270 C   0  0  0  0  0  3  0  0  0  0  0  0
  -30.1870  -20.9080   20.3960 C   0  0  0  0  0  3  0  0  0  0  0  0
  -30.0720  -19.7370   18.2740 C   0  0  0  0  0  3  0  0  0  0  0  0
  -29.7000  -22.1770   18.3480 C   0  0  0  0  0  0  0  0  0  0  0  0
  -30.3110  -19.7090   19.6670 C   0  0  0  0  0  0  0  0  0  0  0  0
  -29.6890  -17.5790   21.0590 C   0  0  0  0  0  2  0  0  0  0  0  0
  -31.7910  -17.6130   19.5980 C   0  0  0  0  0  2  0  0  0  0  0  0
  -29.6840  -16.0840   20.6310 C   0  0  0  0  0  2  0  0  0  0  0  0
  -32.2050  -16.4110   20.4640 C   0  0  0  0  0  2  0  0  0  0  0  0
  -30.7880  -18.4510   20.4000 C   0  0  0  0  0  3  0  0  0  0  0  0
  -31.0730  -15.3320   20.6170 C   0  0  2  0  0  0  0  0  0  0  0  0
  -31.1280  -14.3500   19.3850 C   0  0  0  0  0  0  0  0  0  0  0  0
  -30.3530  -12.4180   18.0420 C   0  0  0  0  0  2  0  0  0  0  0  0
  -29.2330  -12.8020   17.0590 C   0  0  0  0  0  2  0  0  0  0  0  0
  -27.8560  -12.7010   17.7390 C   0  0  0  0  0  2  0  0  0  0  0  0
  -27.8190  -13.4220   19.1110 C   0  0  0  0  0  3  0  0  0  0  0  0
  -29.0330  -13.0240   19.9760 C   0  0  0  0  0  2  0  0  0  0  0  0
  -30.2670  -13.2990   19.2200 N   0  0  0  0  0  0  0  0  0  0  0  0
  -32.0050  -14.5550   18.5360 O   0  0  0  0  0  0  0  0  0  0  0  0
  -25.6740  -14.0980   20.3670 C   0  0  0  0  0  0  0  0  0  0  0  0
  -24.6310  -13.3570   20.8620 C   0  0  0  0  0  0  0  0  0  0  0  0
  -24.9590  -11.9920   20.5970 C   0  0  0  0  0  0  0  0  0  0  0  0
  -26.5660  -13.1840   19.8250 N   0  0  0  0  0  0  0  0  0  0  0  0
  -26.1500  -11.9060   20.0190 N   0  0  0  0  0  0  0  0  0  0  0  0
  -24.1750  -10.7640   20.7940 C   0  0  0  0  0  0  0  0  0  0  0  0
  -24.6520   -9.6970   21.5860 C   0  0  0  0  0  3  0  0  0  0  0  0
  -23.8690   -8.5360   21.7730 C   0  0  0  0  0  3  0  0  0  0  0  0
  -22.5940   -8.4380   21.1700 C   0  0  0  0  0  0  0  0  0  0  0  0
  -22.1350   -9.4920   20.3600 C   0  0  0  0  0  3  0  0  0  0  0  0
  -22.9180  -10.6430   20.1710 C   0  0  0  0  0  3  0  0  0  0  0  0
  -21.7760   -7.3370   21.2730 O   0  0  0  0  0  0  0  0  0  0  0  0
  -21.7830   -6.5400   22.3890 C   0  0  0  0  0  0  0  0  0  0  0  0
  -21.5380   -7.0580   23.6810 C   0  0  0  0  0  3  0  0  0  0  0  0
  -21.4920   -6.1900   24.7910 C   0  0  0  0  0  3  0  0  0  0  0  0
  -21.6760   -4.8060   24.6120 C   0  0  0  0  0  0  0  0  0  0  0  0
  -21.9160   -4.2880   23.3270 C   0  0  0  0  0  3  0  0  0  0  0  0
  -21.9670   -5.1530   22.2180 C   0  0  0  0  0  0  0  0  0  0  0  0
  -22.1810   -4.6460   20.9800 F   0  0  0  0  0  0  0  0  0  0  0  0
  -21.6200   -3.9720   25.6750 F   0  0  0  0  0  0  0  0  0  0  0  0
  -23.3580  -13.8900   21.4580 C   0  0  0  0  0  0  0  0  0  0  0  0
  -22.7720  -13.1690   22.4090 N   0  0  0  0  0  0  0  0  0  0  0  0
  -22.8940  -14.9770   21.1130 O   0  0  0  0  0  0  0  0  0  0  0  0
  -23.1540  -12.2880   22.7170 H   0  0  0  0  0  0  0  0  0  0  0  0
  -21.9220  -13.5080   22.8350 H   0  0  0  0  0  0  0  0  0  0  0  0
  -25.9280  -15.4630   20.3110 N   0  0  0  0  0  0  0  0  0  0  0  0
  -25.2780  -16.1610   20.6520 H   0  0  0  0  0  0  0  0  0  0  0  0
  -26.7390  -15.8690   19.8630 H   0  0  0  0  0  0  0  0  0  0  0  0
  -31.1470  -15.2560   23.2610 C   0  0  0  0  0  1  0  0  0  0  0  0
  -31.4160  -14.5360   21.9240 C   0  0  0  0  0  2  0  0  0  0  0  0
  -29.4420  -23.4630   17.6250 C   0  0  0  0  0  0  0  0  0  0  0  0
  -28.6670  -23.5300   16.6240 N   0  0  0  0  0  0  0  0  0  0  0  0
  -28.2810  -22.6170   16.4190 H   0  0  0  0  0  0  0  0  0  0  0  0
  -30.1680  -24.6830   18.1510 C   0  0  0  0  0  3  0  0  0  0  0  0
  -30.1030  -25.8550   17.6420 N   0  0  0  0  0  0  0  0  0  0  0  0
  -30.9670  -26.8850   18.2030 C   0  0  0  0  0  2  0  0  0  0  0  0
  -30.2350  -27.8450   19.1670 C   0  0  0  0  0  2  0  0  0  0  0  0
  -29.6810  -27.2030   20.4490 C   0  0  0  0  0  2  0  0  0  0  0  0
  -28.3940  -26.6550   20.1870 O   0  0  0  0  0  0  0  0  0  0  0  0
  -24.6060  -31.9420   23.1590 C   0  0  0  0  0  0  0  0  0  0  0  0
  -27.2770  -27.4650   20.1910 C   0  0  0  0  0  0  0  0  0  0  0  0
  -23.3990  -30.5080   21.5400 C   0  0  0  0  0  3  0  0  0  0  0  0
  -24.8590  -28.9420   20.1510 C   0  0  0  0  0  0  0  0  0  0  0  0
  -25.9200  -30.8760   21.3330 C   0  0  0  0  0  2  0  0  0  0  0  0
  -26.0080  -29.4920   20.7290 C   0  0  0  0  0  0  0  0  0  0  0  0
  -27.2170  -28.7670   20.7480 C   0  0  0  0  0  3  0  0  0  0  0  0
  -26.1080  -26.9230   19.6170 C   0  0  0  0  0  3  0  0  0  0  0  0
  -24.9030  -27.6540   19.5870 C   0  0  0  0  0  3  0  0  0  0  0  0
  -23.6110  -29.7960   20.1740 C   0  0  0  0  0  2  0  0  0  0  0  0
  -24.6590  -31.1240   22.0690 N   0  0  0  0  0  0  0  0  0  0  0  0
  -23.5250  -32.2230   23.6960 O   0  0  0  0  0  0  0  0  0  0  0  0
  -22.7500  -29.5050   22.5190 C   0  0  0  0  0  0  0  0  0  0  0  0
  -21.4320  -29.2980   22.3710 N   0  0  0  0  0  0  0  0  0  0  0  0
  -23.4280  -28.9160   23.3670 O   0  0  0  0  0  0  0  0  0  0  0  0
  -20.9460  -29.8310   21.6640 H   0  0  0  0  0  0  0  0  0  0  0  0
  -18.0720  -28.0480   22.8050 C   0  0  0  0  0  0  0  0  0  0  0  0
  -20.6130  -28.3710   23.1500 C   0  0  0  0  0  3  0  0  0  0  0  0
  -20.7640  -26.9230   22.6310 C   0  0  0  0  0  2  0  0  0  0  0  0
  -19.7030  -26.5370   21.5950 C   0  0  0  0  0  2  0  0  0  0  0  0
  -18.2980  -26.6790   22.1880 C   0  0  0  0  0  2  0  0  0  0  0  0
  -19.1590  -28.8510   23.2410 C   0  0  0  0  0  0  0  0  0  0  0  0
  -18.8960  -30.1340   23.7690 C   0  0  0  0  0  3  0  0  0  0  0  0
  -17.5770  -30.6140   23.8700 C   0  0  0  0  0  3  0  0  0  0  0  0
  -16.5030  -29.8060   23.4560 C   0  0  0  0  0  3  0  0  0  0  0  0
  -16.7510  -28.5270   22.9290 C   0  0  0  0  0  3  0  0  0  0  0  0
  -25.8930  -32.5820   23.7700 C   0  0  0  0  0  3  0  0  0  0  0  0
  -25.5770  -33.9730   24.1170 N   0  0  0  0  0  0  0  0  0  0  0  0
  -25.8890  -35.0340   23.3610 C   0  0  0  0  0  0  0  0  0  0  0  0
  -26.5480  -34.9450   22.3220 O   0  0  0  0  0  0  0  0  0  0  0  0
  -25.0040  -34.1180   24.9370 H   0  0  0  0  0  0  0  0  0  0  0  0
  -24.1360  -36.8060   23.0340 C   0  0  0  0  0  1  0  0  0  0  0  0
  -25.3890  -36.4130   23.8330 C   0  0  0  0  0  3  0  0  0  0  0  0
  -27.5210  -37.3170   24.6480 C   0  0  0  0  0  1  0  0  0  0  0  0
  -26.4090  -37.4790   23.7170 N   0  0  0  0  0  0  0  0  0  0  0  0
  -25.9920  -38.3930   23.8730 H   0  0  0  0  0  0  0  0  0  0  0  0
  -26.4390  -31.8040   25.0310 C   0  0  1  0  0  0  0  0  0  0  0  0
  -25.3580  -31.5030   26.0940 C   0  0  0  0  0  1  0  0  0  0  0  0
  -27.0710  -30.4590   24.6030 C   0  0  0  0  0  1  0  0  0  0  0  0
  -27.5580  -32.6250   25.7140 C   0  0  0  0  0  1  0  0  0  0  0  0
  1  3  1  0
  2  4  2  0
  2  5  1  0
  4  6  1  0
  5  1  2  0
  6  3  2  0
  8 11  1  0
  8 10  1  0
  9  7  1  0
 10 12  1  0
 11  6  1  0
 11  7  1  0
 12  9  1  0
 12 50  1  1
 13 12  1  0
 14 19  1  0
 15 16  1  0
 15 14  1  0
 17 16  1  0
 17 24  1  0
 17 18  1  0
 19 13  1  0
 19 18  1  0
 20 13  2  0
 21 22  2  0
 22 41  1  0
 23 26  1  0
 23 22  1  0
 24 25  1  0
 24 21  1  0
 25 23  2  0
 26 27  1  0
 27 28  2  0
 29 32  1  0
 29 28  1  0
 30 29  2  0
 31 30  1  0
 31 26  2  0
 32 33  1  0
 33 34  1  0
 34 35  2  0
 36 35  1  0
 36 40  1  0
 37 36  2  0
 38 33  2  0
 38 37  1  0
 39 38  1  0
 41 42  1  0
 42 44  1  0
 42 45  1  0
 43 41  2  0
 46 21  1  0
 46 47  1  0
 48 46  1  0
 50 49  1  0
 51 54  1  0
 51  5  1  0
 52 51  2  0
 53 52  1  0
 55 54  2  0
 55 56  1  0
 56 57  1  0
 57 58  1  0
 59 61  1  0
 59 58  1  0
 60 71  2  0
 61 66  1  0
 62 70  1  0
 62 72  1  0
 63 69  1  0
 63 65  1  0
 64 70  1  0
 65 66  2  0
 65 64  1  0
 67 61  2  0
 68 67  1  0
 68 63  2  0
 69 62  1  0
 70 60  1  0
 72 74  2  0
 73 72  1  0
 75 73  1  0
 76 85  2  0
 76 81  1  0
 77 73  1  0
 77 81  1  0
 78 77  1  0
 79 80  1  0
 79 78  1  0
 80 76  1  0
 81 82  2  0
 82 83  1  0
 84 83  2  0
 85 84  1  0
 86 60  1  0
 86 87  1  0
 86 96  1  0
 87 90  1  0
 88 92  1  0
 88 87  1  0
 89 88  2  0
 92 91  1  0
 94 92  1  0
 94 95  1  0
 94 93  1  0
 96 99  1  1
 96 97  1  0
 98 96  1  0
M  ISO  4  12 100  13 100  58 101  59 101
M  END
>  <TORSDO>  (6) 
F 23

>  <SCORE>  (6) 
-8.369

>  <name>  (6) 
5

>  <ligand_id>  (6) 
5

>  <original_smiles>  (6) 
[H]N=C(C([H])=NC([H])([H])C([H])([H])C([H])([H])Oc1c([H])c([H])c2c(c1[H])C([H])([H])N(C(=O)C([H])(N([H])C(=O)C([H])(N([H])C([H])([H])[H])C([H])([H])[H])C(C([H])([H])[H])(C([H])([H])[H])C([H])([H])[H])C([H])(C(=O)N([H])C1([H])c3c([H])c([H])c([H])c([H])c3C([H])([H])C([H])([H])C1([H])[H])C2([H])[H])c1c([H])c([H])c(C2([H])C([H])([H])C([H])([H])C(C(=O)N3C([H])([H])C([H])([H])C([H])([H])C([H])(n4nc(-c5c([H])c([H])c(Oc6c([H])c([H])c(F)c([H])c6F)c([H])c5[H])c(C(=O)N([H])[H])c4N([H])[H])C3([H])[H])(C([H])([H])C([H])([H])[H])C([H])([H])C2([H])[H])c([H])c1[H]

>  <smiles>  (6) 
[H]N=C(C([H])=NC([H])([H])C([H])([H])C([H])([H])Oc1c([H])c([H])c2c(c1[H])C([H])([H])N(C(=O)C([H])(N([H])C(=O)C([H])(N([H])C([H])([H])[H])C([H])([H])[H])C(C([H])([H])[H])(C([H])([H])[H])C([H])([H])[H])C([H])(C(=O)N([H])C1([H])c3c([H])c([H])c([H])c([H])c3C([H])([H])C([H])([H])C1([H])[H])C2([H])[H])c1c([H])c([H])c(C2([H])C([H])([H])C([H])([H])C(C(=O)N3C([H])([H])C([H])([H])C([H])([H])C([H])(n4nc(-c5c([H])c([H])c(Oc6c([H])c([H])c(F)c([H])c6F)c([H])c5[H])c(C(=O)N([H])[H])c4N([H])[H])C3([H])[H])(C([H])([H])C([H])([H])[H])C([H])([H])C2([H])[H])c([H])c1[H]

$$$$
6:0:0
     RDKit          3D

 95103  0  0  1  0  0  0  0  0999 V2000
  -28.4180  -22.7130   20.3810 C   0  0  0  0  0  2  0  0  0  0  0  0
  -26.0160  -23.4600   20.1860 C   0  0  0  0  0  2  0  0  0  0  0  0
  -28.1070  -21.4920   19.5010 C   0  0  0  0  0  2  0  0  0  0  0  0
  -25.7130  -22.2530   19.2900 C   0  0  0  0  0  2  0  0  0  0  0  0
  -27.4860  -23.8950   20.0580 C   0  0  0  0  0  3  0  0  0  0  0  0
  -26.6280  -21.0560   19.6170 C   0  0  0  0  0  3  0  0  0  0  0  0
  -27.7690  -25.1240   20.9370 C   0  0  0  0  0  2  0  0  0  0  0  0
  -29.0800  -25.8570   20.5790 C   0  0  0  0  0  2  0  0  0  0  0  0
  -28.9800  -27.2400   20.9030 O   0  0  0  0  0  0  0  0  0  0  0  0
  -24.5620  -32.1830   23.4350 C   0  0  0  0  0  0  0  0  0  0  0  0
  -27.7400  -27.8250   20.7860 C   0  0  0  0  0  0  0  0  0  0  0  0
  -23.5760  -30.6040   21.8040 C   0  0  0  0  0  3  0  0  0  0  0  0
  -25.2320  -29.1100   20.5770 C   0  0  0  0  0  0  0  0  0  0  0  0
  -26.0760  -31.1520   21.7500 C   0  0  0  0  0  2  0  0  0  0  0  0
  -26.3040  -29.7640   21.1950 C   0  0  0  0  0  0  0  0  0  0  0  0
  -27.5610  -29.1300   21.2930 C   0  0  0  0  0  3  0  0  0  0  0  0
  -26.6440  -27.1730   20.1710 C   0  0  0  0  0  3  0  0  0  0  0  0
  -25.3950  -27.8110   20.0660 C   0  0  0  0  0  3  0  0  0  0  0  0
  -23.9280  -29.8670   20.4860 C   0  0  0  0  0  2  0  0  0  0  0  0
  -24.7500  -31.3310   22.3890 N   0  0  0  0  0  0  0  0  0  0  0  0
  -23.4290  -32.4030   23.8860 O   0  0  0  0  0  0  0  0  0  0  0  0
  -22.9370  -29.5900   22.7790 C   0  0  0  0  0  0  0  0  0  0  0  0
  -21.6370  -29.3170   22.5900 N   0  0  0  0  0  0  0  0  0  0  0  0
  -23.6110  -29.0480   23.6590 O   0  0  0  0  0  0  0  0  0  0  0  0
  -21.1510  -29.8100   21.8520 H   0  0  0  0  0  0  0  0  0  0  0  0
  -18.2930  -28.0330   23.0490 C   0  0  0  0  0  0  0  0  0  0  0  0
  -20.8370  -28.3670   23.3610 C   0  0  0  0  0  3  0  0  0  0  0  0
  -20.9930  -26.9330   22.8040 C   0  0  0  0  0  2  0  0  0  0  0  0
  -19.9150  -26.5630   21.7810 C   0  0  0  0  0  2  0  0  0  0  0  0
  -18.5200  -26.6770   22.4030 C   0  0  0  0  0  2  0  0  0  0  0  0
  -19.3830  -28.8330   23.4860 C   0  0  0  0  0  0  0  0  0  0  0  0
  -19.1180  -30.1010   24.0490 C   0  0  0  0  0  3  0  0  0  0  0  0
  -17.7970  -30.5690   24.1840 C   0  0  0  0  0  3  0  0  0  0  0  0
  -16.7220  -29.7670   23.7620 C   0  0  0  0  0  3  0  0  0  0  0  0
  -16.9720  -28.5000   23.2020 C   0  0  0  0  0  3  0  0  0  0  0  0
  -25.7550  -32.9410   24.0980 C   0  0  0  0  0  3  0  0  0  0  0  0
  -25.3780  -34.3570   24.1970 N   0  0  0  0  0  0  0  0  0  0  0  0
  -25.7500  -35.3050   23.3260 C   0  0  0  0  0  0  0  0  0  0  0  0
  -26.5180  -35.0850   22.3840 O   0  0  0  0  0  0  0  0  0  0  0  0
  -24.7080  -34.5980   24.9120 H   0  0  0  0  0  0  0  0  0  0  0  0
  -23.9970  -36.9440   22.5780 C   0  0  0  0  0  1  0  0  0  0  0  0
  -25.1810  -36.7220   23.5320 C   0  0  0  0  0  3  0  0  0  0  0  0
  -27.2260  -37.7970   24.3640 C   0  0  0  0  0  1  0  0  0  0  0  0
  -26.1830  -37.7930   23.3410 N   0  0  0  0  0  0  0  0  0  0  0  0
  -25.7370  -38.7060   23.3380 H   0  0  0  0  0  0  0  0  0  0  0  0
  -26.1490  -32.3670   25.5140 C   0  0  1  0  0  0  0  0  0  0  0  0
  -24.9410  -32.1530   26.4560 C   0  0  0  0  0  1  0  0  0  0  0  0
  -26.8810  -31.0110   25.3700 C   0  0  0  0  0  1  0  0  0  0  0  0
  -27.1360  -33.3300   26.2140 C   0  0  0  0  0  1  0  0  0  0  0  0
  -26.2790  -19.8520   18.7120 C   0  0  0  0  0  2  0  0  0  0  0  0
  -26.8410  -18.5750   19.2020 N   0  0  0  0  0  4  0  0  0  0  0  0
  -26.2040  -17.8510   18.9070 H   0  0  0  0  0  0  0  0  0  0  0  0
  -26.8390  -18.5670   20.2080 H   0  0  0  0  0  0  0  0  0  0  0  0
  -28.1730  -18.2000   18.6860 C   0  0  0  0  0  2  0  0  0  0  0  0
  -29.2590  -18.2640   19.7780 C   0  0  0  0  0  2  0  0  0  0  0  0
  -30.3570  -17.2170   19.5440 C   0  0  0  0  0  2  0  0  0  0  0  0
  -31.4940  -17.2420   20.5910 C   0  0  0  0  0  2  0  0  0  0  0  0
  -32.1580  -14.8330   20.7070 C   0  0  0  0  0  0  0  0  0  0  0  0
  -31.9730  -12.3740   20.5860 C   0  0  0  0  0  2  0  0  0  0  0  0
  -31.2260  -11.9320   19.3130 C   0  0  0  0  0  2  0  0  0  0  0  0
  -29.6980  -11.9560   19.5200 C   0  0  0  0  0  2  0  0  0  0  0  0
  -29.2030  -13.2870   20.1380 C   0  0  0  0  0  3  0  0  0  0  0  0
  -30.0500  -13.6370   21.3820 C   0  0  0  0  0  2  0  0  0  0  0  0
  -31.4760  -13.6950   20.9890 N   0  0  0  0  0  0  0  0  0  0  0  0
  -33.2200  -14.8750   20.0750 O   0  0  0  0  0  0  0  0  0  0  0  0
  -31.5690  -15.9240   21.2020 N   0  0  0  0  0  0  0  0  0  0  0  0
  -30.8340  -15.7190   21.8630 H   0  0  0  0  0  0  0  0  0  0  0  0
  -26.8650  -14.2610   20.6330 C   0  0  0  0  0  0  0  0  0  0  0  0
  -25.6530  -13.6620   20.8490 C   0  0  0  0  0  0  0  0  0  0  0  0
  -25.8890  -12.2550   20.7770 C   0  0  0  0  0  0  0  0  0  0  0  0
  -27.7750  -13.2290   20.4570 N   0  0  0  0  0  0  0  0  0  0  0  0
  -27.1810  -12.0150   20.5950 N   0  0  0  0  0  0  0  0  0  0  0  0
  -24.9530  -11.1240   20.8170 C   0  0  0  0  0  0  0  0  0  0  0  0
  -25.1130  -10.0680   21.7400 C   0  0  0  0  0  3  0  0  0  0  0  0
  -24.1930   -8.9990   21.7710 C   0  0  0  0  0  3  0  0  0  0  0  0
  -23.0960   -8.9810   20.8760 C   0  0  0  0  0  0  0  0  0  0  0  0
  -22.9540  -10.0230   19.9450 C   0  0  0  0  0  3  0  0  0  0  0  0
  -23.8740  -11.0840   19.9110 C   0  0  0  0  0  3  0  0  0  0  0  0
  -22.1650   -7.9710   20.8170 O   0  0  0  0  0  0  0  0  0  0  0  0
  -21.8380   -7.2300   21.9240 C   0  0  0  0  0  0  0  0  0  0  0  0
  -21.3390   -7.8280   23.1030 C   0  0  0  0  0  3  0  0  0  0  0  0
  -20.9490   -7.0210   24.1900 C   0  0  0  0  0  3  0  0  0  0  0  0
  -21.0470   -5.6200   24.0990 C   0  0  0  0  0  0  0  0  0  0  0  0
  -21.5390   -5.0230   22.9250 C   0  0  0  0  0  3  0  0  0  0  0  0
  -21.9300   -5.8260   21.8400 C   0  0  0  0  0  0  0  0  0  0  0  0
  -22.3820   -5.2440   20.7020 F   0  0  0  0  0  0  0  0  0  0  0  0
  -20.6650   -4.8440   25.1410 F   0  0  0  0  0  0  0  0  0  0  0  0
  -24.3290  -14.3520   21.0130 C   0  0  0  0  0  0  0  0  0  0  0  0
  -23.4150  -13.7550   21.7720 N   0  0  0  0  0  0  0  0  0  0  0  0
  -24.1130  -15.4520   20.5060 O   0  0  0  0  0  0  0  0  0  0  0  0
  -23.5960  -12.8620   22.2050 H   0  0  0  0  0  0  0  0  0  0  0  0
  -22.5180  -14.1980   21.9210 H   0  0  0  0  0  0  0  0  0  0  0  0
  -27.2650  -15.5910   20.5520 N   0  0  0  0  0  0  0  0  0  0  0  0
  -26.5810  -16.3390   20.5300 H   0  0  0  0  0  0  0  0  0  0  0  0
  -28.1820  -15.8750   20.2340 H   0  0  0  0  0  0  0  0  0  0  0  0
  3  6  1  0
  3  1  1  0
  4  6  1  0
  4  2  1  0
  5  2  1  0
  5  1  1  0
  5  7  1  0
  6 50  1  0
  8  9  1  0
  8  7  1  0
 10 21  2  0
 11  9  1  0
 11 16  1  0
 12 20  1  0
 12 22  1  0
 13 15  1  0
 14 20  1  0
 15 16  2  0
 15 14  1  0
 17 11  2  0
 18 17  1  0
 18 13  2  0
 19 13  1  0
 19 12  1  0
 20 10  1  0
 22 24  2  0
 23 22  1  0
 25 23  1  0
 26 35  2  0
 26 31  1  0
 27 23  1  0
 27 31  1  0
 28 27  1  0
 29 30  1  0
 29 28  1  0
 30 26  1  0
 31 32  2  0
 32 33  1  0
 34 33  2  0
 35 34  1  0
 36 10  1  0
 36 37  1  0
 36 46  1  0
 37 40  1  0
 38 42  1  0
 38 37  1  0
 39 38  2  0
 42 41  1  0
 44 42  1  0
 44 43  1  0
 45 44  1  0
 46 49  1  1
 46 47  1  0
 48 46  1  0
 50 51  1  0
 51 53  1  0
 52 51  1  0
 54 51  1  0
 54 55  1  0
 56 55  1  0
 56 57  1  0
 57 66  1  0
 58 64  1  0
 58 66  1  0
 59 64  1  0
 60 61  1  0
 60 59  1  0
 62 61  1  0
 62 71  1  0
 62 63  1  0
 64 63  1  0
 65 58  2  0
 66 67  1  0
 68 69  2  0
 69 88  1  0
 70 73  1  0
 70 69  1  0
 71 72  1  0
 71 68  1  0
 72 70  2  0
 73 74  1  0
 74 75  2  0
 76 75  1  0
 77 76  2  0
 78 77  1  0
 78 73  2  0
 79 76  1  0
 79 80  1  0
 80 81  1  0
 81 82  2  0
 83 82  1  0
 83 87  1  0
 84 83  2  0
 85 80  2  0
 85 84  1  0
 86 85  1  0
 88 89  1  0
 89 92  1  0
 89 91  1  0
 90 88  2  0
 93 68  1  0
 94 93  1  0
 95 93  1  0
M  ISO  4   8 101   9 101  58 100  66 100
M  END
>  <TORSDO>  (7) 
F 24

>  <SCORE>  (7) 
-8.959

>  <name>  (7) 
6

>  <ligand_id>  (7) 
6

>  <original_smiles>  (7) 
[H]c1c([H])c([H])c2c(c1[H])C([H])([H])C([H])([H])C([H])([H])C2([H])N([H])C(=O)C1([H])N(C(=O)C([H])(N([H])C(=O)C([H])(N([H])C([H])([H])[H])C([H])([H])[H])C(C([H])([H])[H])(C([H])([H])[H])C([H])([H])[H])C([H])([H])c2c([H])c(OC([H])([H])C([H])([H])C3([H])C([H])([H])C([H])([H])C([H])(C([H])([H])[N+]([H])([H])C([H])([H])C([H])([H])C([H])([H])C([H])([H])N([H])C(=O)N4C([H])([H])C([H])([H])C([H])([H])C([H])(n5nc(-c6c([H])c([H])c(Oc7c([H])c([H])c(F)c([H])c7F)c([H])c6[H])c(C(=O)N([H])[H])c5N([H])[H])C4([H])[H])C([H])([H])C3([H])[H])c([H])c([H])c2C1([H])[H]

>  <smiles>  (7) 
[H]c1c([H])c([H])c2c(c1[H])C([H])([H])C([H])([H])C([H])([H])C2([H])N([H])C(=O)C1([H])N(C(=O)C([H])(N([H])C(=O)C([H])(N([H])C([H])([H])[H])C([H])([H])[H])C(C([H])([H])[H])(C([H])([H])[H])C([H])([H])[H])C([H])([H])c2c([H])c(OC([H])([H])C([H])([H])C3([H])C([H])([H])C([H])([H])C([H])(C([H])([H])[N+]([H])([H])C([H])([H])C([H])([H])C([H])([H])C([H])([H])N([H])C(=O)N4C([H])([H])C([H])([H])C([H])([H])C([H])(n5nc(-c6c([H])c([H])c(Oc7c([H])c([H])c(F)c([H])c7F)c([H])c6[H])c(C(=O)N([H])[H])c5N([H])[H])C4([H])[H])C([H])([H])C3([H])[H])c([H])c([H])c2C1([H])[H]

$$$$
7:0:0
     RDKit          3D

 96 95  0  0  1  0  0  0  0  0999 V2000
  -19.5420  -27.4070   20.8840 C   0  0  0  0  0  3  0  0  0  0  0  0
  -21.4040  -26.3320   24.2540 C   0  0  0  0  0 15  0  0  0  0  0  0
  -19.4720  -29.0770   21.6630 C   0  0  0  0  0  2  0  0  0  0  0  0
  -20.9300  -28.5200   24.3730 C   0  0  0  0  0 15  0  0  0  0  0  0
  -21.2000  -25.3410   22.3390 C   0  0  0  0  0 15  0  0  0  0  0  0
  -20.5710  -29.6360   22.8150 N   0  0  0  0  0  0  0  0  0  0  0  0
  -21.3450  -29.1230   22.4210 H   0  0  0  0  0  0  0  0  0  0  0  0
  -22.9170  -24.2970   21.2710 C   0  0  0  0  0 15  0  0  0  0  0  0
  -24.8180  -24.0990   20.1340 C   0  0  0  0  0 15  0  0  0  0  0  0
  -25.9560  -23.1090   18.8670 N   0  0  0  0  0  2  0  0  0  0  0  0
  -25.5020  -23.3580   18.0040 H   0  0  0  0  0  0  0  0  0  0  0  0
  -25.6320  -22.1730   19.0420 H   0  0  0  0  0  0  0  0  0  0  0  0
  -27.7630  -22.6990   18.1970 C   0  0  0  0  0 15  0  0  0  0  0  0
  -29.0280  -21.9450   16.5390 C   0  0  0  0  0 15  0  0  0  0  0  0
  -31.9870  -21.0460   14.5990 C   0  0  0  0  0  0  0  0  0  0  0  0
  -33.7300  -19.3600   13.1190 C   0  0  0  0  0  2  0  0  0  0  0  0
  -33.1770  -17.9900   12.5580 C   0  0  0  0  0  2  0  0  0  0  0  0
  -32.9500  -16.9780   13.6890 C   0  0  0  0  0  2  0  0  0  0  0  0
  -32.4420  -17.7470   14.9210 C   0  0  0  0  0  3  0  0  0  0  0  0
  -33.3290  -18.9150   15.3430 C   0  0  0  0  0  2  0  0  0  0  0  0
  -32.9600  -19.9200   14.3870 N   0  0  0  0  0  0  0  0  0  0  0  0
  -32.2990  -21.7180   13.5570 O   0  0  0  0  0  0  0  0  0  0  0  0
  -30.7780  -21.3170   15.7820 N   0  0  0  0  0  2  0  0  0  0  0  0
  -31.0550  -20.6240   16.4670 H   0  0  0  0  0  0  0  0  0  0  0  0
  -31.0570  -17.0560   16.8630 C   0  0  0  0  0  0  0  0  0  0  0  0
  -31.2570  -16.1390   17.8470 C   0  0  0  0  0  0  0  0  0  0  0  0
  -32.5480  -15.5740   17.6050 C   0  0  0  0  0  0  0  0  0  0  0  0
  -32.1820  -16.9730   16.0770 N   0  0  0  0  0  0  0  0  0  0  0  0
  -33.1280  -16.1460   16.5630 N   0  0  0  0  0  0  0  0  0  0  0  0
  -33.2360  -14.4650   18.2560 C   0  0  0  0  0  0  0  0  0  0  0  0
  -34.5160  -14.6210   18.8300 C   0  0  0  0  0  3  0  0  0  0  0  0
  -35.1450  -13.5310   19.4660 C   0  0  0  0  0  3  0  0  0  0  0  0
  -34.4900  -12.2780   19.5340 C   0  0  0  0  0  0  0  0  0  0  0  0
  -33.2280  -12.1250   18.9350 C   0  0  0  0  0  3  0  0  0  0  0  0
  -32.6060  -13.2080   18.2970 C   0  0  0  0  0  3  0  0  0  0  0  0
  -35.0300  -11.1570   20.1130 O   0  0  0  0  0  0  0  0  0  0  0  0
  -35.8980  -11.2460   21.1690 C   0  0  0  0  0  0  0  0  0  0  0  0
  -35.5480  -11.9020   22.3700 C   0  0  0  0  0  3  0  0  0  0  0  0
  -36.4470  -11.9060   23.4550 C   0  0  0  0  0  3  0  0  0  0  0  0
  -37.6880  -11.2500   23.3460 C   0  0  0  0  0  0  0  0  0  0  0  0
  -38.0350  -10.5940   22.1530 C   0  0  0  0  0  3  0  0  0  0  0  0
  -37.1410  -10.5900   21.0690 C   0  0  0  0  0  0  0  0  0  0  0  0
  -37.4700   -9.9390   19.9260 F   0  0  0  0  0  0  0  0  0  0  0  0
  -38.5470  -11.2470   24.3910 F   0  0  0  0  0  0  0  0  0  0  0  0
  -30.2550  -15.7390   18.8800 C   0  0  0  0  0  0  0  0  0  0  0  0
  -30.7190  -15.3310   20.0530 N   0  0  0  0  0  0  0  0  0  0  0  0
  -29.0480  -15.8350   18.6610 O   0  0  0  0  0  0  0  0  0  0  0  0
  -31.7110  -15.2750   20.2320 H   0  0  0  0  0  0  0  0  0  0  0  0
  -30.0730  -15.0720   20.7850 H   0  0  0  0  0  0  0  0  0  0  0  0
  -30.0120  -17.9260   16.5550 N   0  0  0  0  0  0  0  0  0  0  0  0
  -29.1340  -17.8290   17.0530 H   0  0  0  0  0  0  0  0  0  0  0  0
  -29.8900  -18.3090   15.6270 H   0  0  0  0  0  0  0  0  0  0  0  0
  -21.2950  -30.9750   21.9780 C   0  0  0  0  0  2  0  0  0  0  0  0
  -22.4400  -31.1750   20.4240 C   0  0  0  0  0  2  0  0  0  0  0  0
  -24.2660  -31.6140   20.0540 C   0  0  0  0  0  2  0  0  0  0  0  0
  -25.6820  -31.3020   19.0910 O   0  0  0  0  0  0  0  0  0  0  0  0
  -24.7110  -26.7320   23.4490 C   0  0  0  0  0  0  0  0  0  0  0  0
  -26.4370  -30.1740   18.7170 C   0  0  0  0  0  3  0  0  0  0  0  0
  -23.5320  -27.8760   21.7770 C   0  0  0  0  0  3  0  0  0  0  0  0
  -24.6550  -29.0100   20.0170 C   0  0  0  0  0  3  0  0  0  0  0  0
  -25.9670  -28.4590   22.0710 C   0  0  0  0  0  2  0  0  0  0  0  0
  -25.8860  -28.9290   20.6140 C   0  0  0  0  0  3  0  0  0  0  0  0
  -26.9080  -29.4120   19.8190 C   0  0  0  0  0  2  0  0  0  0  0  0
  -25.4740  -29.6420   17.8810 C   0  0  0  0  0  2  0  0  0  0  0  0
  -24.3770  -29.2560   18.6410 C   0  0  0  0  0  2  0  0  0  0  0  0
  -23.6800  -29.0420   21.0250 C   0  0  0  0  0  2  0  0  0  0  0  0
  -24.7700  -27.6500   22.4700 N   0  0  0  0  0  0  0  0  0  0  0  0
  -23.6520  -26.2330   23.8620 O   0  0  0  0  0  0  0  0  0  0  0  0
  -23.2260  -26.9140   20.5970 C   0  0  0  0  0  0  0  0  0  0  0  0
  -22.2350  -27.1600   19.7110 N   0  0  0  0  0  0  0  0  0  0  0  0
  -23.8710  -25.9190   20.4180 O   0  0  0  0  0  0  0  0  0  0  0  0
  -22.4500  -26.5940   18.9010 H   0  0  0  0  0  0  0  0  0  0  0  0
  -17.7880  -26.0360   19.5370 C   0  0  0  0  0  0  0  0  0  0  0  0
  -20.7920  -27.4920   19.6350 C   0  0  0  0  0  3  0  0  0  0  0  0
  -20.6030  -28.1010   17.9190 C   0  0  0  0  0  2  0  0  0  0  0  0
  -19.0240  -27.5760   17.0880 C   0  0  0  0  0  3  0  0  0  0  0  0
  -17.7560  -26.5420   17.9090 C   0  0  0  0  0  3  0  0  0  0  0  0
  -18.9780  -26.3300   20.4130 C   0  0  0  0  0  0  0  0  0  0  0  0
  -18.5700  -25.9600   21.8020 C   0  0  0  0  0  3  0  0  0  0  0  0
  -17.4510  -25.3190   22.3290 C   0  0  0  0  0  3  0  0  0  0  0  0
  -16.3630  -25.2560   21.4890 C   0  0  0  0  0  3  0  0  0  0  0  0
  -16.5390  -25.6390   20.1390 C   0  0  0  0  0  3  0  0  0  0  0  0
  -26.0220  -26.2350   24.0350 C   0  0  0  0  0  3  0  0  0  0  0  0
  -25.7370  -25.8410   25.4120 N   0  0  0  0  0  0  0  0  0  0  0  0
  -26.0540  -26.5930   26.4710 C   0  0  0  0  0  0  0  0  0  0  0  0
  -26.6920  -27.6460   26.3790 O   0  0  0  0  0  0  0  0  0  0  0  0
  -25.1770  -25.0130   25.5500 H   0  0  0  0  0  0  0  0  0  0  0  0
  -24.4520  -26.9330   28.3770 C   0  0  0  0  0  1  0  0  0  0  0  0
  -25.6140  -26.0780   27.8490 C   0  0  0  0  0  3  0  0  0  0  0  0
  -27.7620  -25.0910   28.5070 C   0  0  0  0  0  1  0  0  0  0  0  0
  -26.7140  -26.0560   28.8340 N   0  0  0  0  0  0  0  0  0  0  0  0
  -26.3610  -25.8360   29.7620 H   0  0  0  0  0  0  0  0  0  0  0  0
  -26.5970  -25.0520   23.1770 C   0  0  1  0  0  0  0  0  0  0  0  0
  -25.5860  -23.9100   22.9110 C   0  0  0  0  0  1  0  0  0  0  0  0
  -27.1220  -25.5460   21.8050 C   0  0  0  0  0  1  0  0  0  0  0  0
  -27.8120  -24.4700   23.9210 C   0  0  0  0  0  1  0  0  0  0  0  0
  1  3  1  0
  3  6  1  0
  7  6  1  0
 10 12  1  0
 11 10  1  0
 15 23  1  0
 16 21  1  0
 17 16  1  0
 17 18  1  0
 19 18  1  0
 19 20  1  0
 19 28  1  0
 21 15  1  0
 21 20  1  0
 22 15  2  0
 23 24  1  0
 25 26  2  0
 26 45  1  0
 27 26  1  0
 27 30  1  0
 28 29  1  0
 28 25  1  0
 29 27  2  0
 30 35  2  0
 30 31  1  0
 31 32  2  0
 32 33  1  0
 33 36  1  0
 34 33  2  0
 35 34  1  0
 36 37  1  0
 37 38  1  0
 38 39  2  0
 40 39  1  0
 40 44  1  0
 41 40  2  0
 42 37  2  0
 42 41  1  0
 43 42  1  0
 45 46  1  0
 46 48  1  0
 46 49  1  0
 47 45  2  0
 50 25  1  0
 50 51  1  0
 52 50  1  0
 53  6  1  0
 54 53  1  0
 55 54  1  0
 56 55  1  0
 57 68  2  0
 58 64  1  0
 58 56  1  0
 58 63  1  0
 59 66  1  0
 59 67  1  0
 60 65  1  0
 60 62  1  0
 60 66  1  0
 61 67  1  0
 62 63  1  0
 62 61  1  0
 64 65  1  0
 67 57  1  0
 69 59  1  0
 70 69  1  0
 71 69  2  0
 72 70  1  0
 73 82  2  0
 73 78  1  0
 74 75  1  0
 74 70  1  0
 74  1  1  0
 76 77  2  0
 76 75  1  0
 77 73  1  0
 78  1  1  0
 78 79  2  0
 79 80  1  0
 81 80  2  0
 82 81  1  0
 83 57  1  0
 83 84  1  0
 84 87  1  0
 84 85  1  0
 85 89  1  0
 86 85  2  0
 89 88  1  0
 89 91  1  0
 90 91  1  0
 91 92  1  0
 93 96  1  1
 93 83  1  0
 94 93  1  0
 95 93  1  0
M  ISO  4  15 100  23 100  55 101  56 101
M  END
>  <TORSDO>  (8) 
F 24

>  <SCORE>  (8) 
16.510

>  <name>  (8) 
7

>  <ligand_id>  (8) 
7

>  <original_smiles>  (8) 
[H]c1c([H])c([H])c2c(c1[H])C([H])([H])C([H])([H])C([H])([H])C2([H])N([H])C(=O)C1([H])N(C(=O)C([H])(N([H])C(=O)C([H])(N([H])C([H])([H])[H])C([H])([H])[H])C(C([H])([H])[H])(C([H])([H])[H])C([H])([H])[H])C([H])([H])c2c([H])c(OC([H])([H])C([H])([H])C([H])([H])[N+]3([H])C([H])([H])C([H])([H])C([H])(C([H])([H])C([H])([H])[N+]([H])([H])C([H])([H])C([H])([H])N([H])C(=O)N4C([H])([H])C([H])([H])C([H])([H])C([H])(n5nc(-c6c([H])c([H])c(Oc7c([H])c([H])c(F)c([H])c7F)c([H])c6[H])c(C(=O)N([H])[H])c5N([H])[H])C4([H])[H])C([H])([H])C3([H])[H])c([H])c([H])c2C1([H])[H]

>  <smiles>  (8) 
[H]c1c([H])c([H])c2c(c1[H])C([H])([H])C([H])([H])C([H])([H])C2([H])N([H])C(=O)C1([H])N(C(=O)C([H])(N([H])C(=O)C([H])(N([H])C([H])([H])[H])C([H])([H])[H])C(C([H])([H])[H])(C([H])([H])[H])C([H])([H])[H])C([H])([H])c2c([H])c(OC([H])([H])C([H])([H])C([H])([H])[N+]3([H])C([H])([H])C([H])([H])C([H])(C([H])([H])C([H])([H])[N+]([H])([H])C([H])([H])C([H])([H])N([H])C(=O)N4C([H])([H])C([H])([H])C([H])([H])C([H])(n5nc(-c6c([H])c([H])c(Oc7c([H])c([H])c(F)c([H])c7F)c([H])c6[H])c(C(=O)N([H])[H])c5N([H])[H])C4([H])[H])C([H])([H])C3([H])[H])c([H])c([H])c2C1([H])[H]

$$$$
8:0:0
     RDKit          3D

 97105  0  0  1  0  0  0  0  0999 V2000
  -29.5960  -20.4780   21.4750 C   0  0  0  0  0  2  0  0  0  0  0  0
  -29.5300  -18.8370   21.5080 C   0  0  0  0  0  2  0  0  0  0  0  0
  -28.7710  -18.8290   19.2610 C   0  0  0  0  0  2  0  0  0  0  0  0
  -28.7110  -21.3790   20.4690 C   0  0  0  0  0  3  0  0  0  0  0  0
  -29.7560  -17.9480   20.1920 C   0  0  0  0  0  3  0  0  0  0  0  0
  -28.9260  -20.4800   19.1210 C   0  0  1  0  0  0  0  0  0  0  0  0
  -30.4030  -15.1430   20.1270 C   0  0  0  0  0  0  0  0  0  0  0  0
  -30.3540  -12.7490   19.2180 C   0  0  0  0  0  2  0  0  0  0  0  0
  -29.3850  -12.6210   18.0180 C   0  0  0  0  0  2  0  0  0  0  0  0
  -27.9480  -12.3540   18.5040 C   0  0  0  0  0  2  0  0  0  0  0  0
  -27.5440  -13.2830   19.6780 C   0  0  0  0  0  3  0  0  0  0  0  0
  -28.6350  -13.3670   20.7660 C   0  0  0  0  0  2  0  0  0  0  0  0
  -29.8550  -13.8480   20.1040 N   0  0  0  0  0  0  0  0  0  0  0  0
  -31.6010  -15.2170   19.8280 O   0  0  0  0  0  0  0  0  0  0  0  0
  -29.5880  -16.3310   20.2870 N   0  0  0  0  0  0  0  0  0  0  0  0
  -28.6350  -16.0690   20.4960 H   0  0  0  0  0  0  0  0  0  0  0  0
  -25.1930  -13.8000   20.5330 C   0  0  0  0  0  0  0  0  0  0  0  0
  -24.1560  -13.0000   20.9240 C   0  0  0  0  0  0  0  0  0  0  0  0
  -24.6380  -11.6590   20.8390 C   0  0  0  0  0  0  0  0  0  0  0  0
  -26.2370  -12.9450   20.2260 N   0  0  0  0  0  0  0  0  0  0  0  0
  -25.9160  -11.6490   20.4780 N   0  0  0  0  0  0  0  0  0  0  0  0
  -23.9360  -10.3810   21.0240 C   0  0  0  0  0  0  0  0  0  0  0  0
  -24.4010   -9.4040   21.9310 C   0  0  0  0  0  3  0  0  0  0  0  0
  -23.6950   -8.1940   22.1060 C   0  0  0  0  0  3  0  0  0  0  0  0
  -22.5090   -7.9520   21.3720 C   0  0  0  0  0  0  0  0  0  0  0  0
  -22.0630   -8.9180   20.4530 C   0  0  0  0  0  3  0  0  0  0  0  0
  -22.7700  -10.1190   20.2770 C   0  0  0  0  0  3  0  0  0  0  0  0
  -21.7720   -6.7950   21.4570 O   0  0  0  0  0  0  0  0  0  0  0  0
  -21.7420   -6.0450   22.6060 C   0  0  0  0  0  0  0  0  0  0  0  0
  -21.2930   -6.5800   23.8330 C   0  0  0  0  0  3  0  0  0  0  0  0
  -21.2100   -5.7540   24.9720 C   0  0  0  0  0  3  0  0  0  0  0  0
  -21.5660   -4.3950   24.8850 C   0  0  0  0  0  0  0  0  0  0  0  0
  -22.0090   -3.8600   23.6620 C   0  0  0  0  0  3  0  0  0  0  0  0
  -22.0920   -4.6830   22.5250 C   0  0  0  0  0  0  0  0  0  0  0  0
  -22.4990   -4.1560   21.3450 F   0  0  0  0  0  0  0  0  0  0  0  0
  -21.4800   -3.5990   25.9770 F   0  0  0  0  0  0  0  0  0  0  0  0
  -22.7630  -13.4510   21.2580 C   0  0  0  0  0  0  0  0  0  0  0  0
  -22.0800  -12.7280   22.1380 N   0  0  0  0  0  0  0  0  0  0  0  0
  -22.2920  -14.4800   20.7760 O   0  0  0  0  0  0  0  0  0  0  0  0
  -22.4760  -11.8960   22.5490 H   0  0  0  0  0  0  0  0  0  0  0  0
  -21.1490  -13.0120   22.4050 H   0  0  0  0  0  0  0  0  0  0  0  0
  -25.3270  -15.1780   20.3840 N   0  0  0  0  0  0  0  0  0  0  0  0
  -24.5480  -15.8090   20.5380 H   0  0  0  0  0  0  0  0  0  0  0  0
  -26.1350  -15.6400   19.9880 H   0  0  0  0  0  0  0  0  0  0  0  0
  -28.9060  -23.1250   20.5320 C   0  0  0  0  0  3  0  0  0  0  0  0
  -27.8550  -24.4810   20.2480 C   0  0  0  0  0  3  0  0  0  0  0  0
  -28.1170  -26.0530   20.3940 O   0  0  0  0  0  0  0  0  0  0  0  0
  -24.6300  -31.9910   23.2420 C   0  0  0  0  0  0  0  0  0  0  0  0
  -27.0920  -27.0950   20.3080 C   0  0  0  0  0  0  0  0  0  0  0  0
  -23.3930  -30.5760   21.6500 C   0  0  0  0  0  3  0  0  0  0  0  0
  -24.8020  -28.9310   20.2500 C   0  0  0  0  0  0  0  0  0  0  0  0
  -25.9540  -30.7740   21.4610 C   0  0  0  0  0  2  0  0  0  0  0  0
  -25.9980  -29.3570   20.8400 C   0  0  0  0  0  0  0  0  0  0  0  0
  -27.1410  -28.4580   20.8470 C   0  0  0  0  0  3  0  0  0  0  0  0
  -25.8680  -26.7890   19.6740 C   0  0  0  0  0  3  0  0  0  0  0  0
  -24.7560  -27.6630   19.6470 C   0  0  0  0  0  3  0  0  0  0  0  0
  -23.5930  -29.8570   20.2880 C   0  0  0  0  0  2  0  0  0  0  0  0
  -24.6820  -31.1390   22.1710 N   0  0  0  0  0  0  0  0  0  0  0  0
  -23.5530  -32.3090   23.7710 O   0  0  0  0  0  0  0  0  0  0  0  0
  -22.7040  -29.6090   22.6470 C   0  0  0  0  0  0  0  0  0  0  0  0
  -21.3770  -29.4290   22.5130 N   0  0  0  0  0  0  0  0  0  0  0  0
  -23.3670  -29.0190   23.5040 O   0  0  0  0  0  0  0  0  0  0  0  0
  -20.8970  -29.9550   21.7960 H   0  0  0  0  0  0  0  0  0  0  0  0
  -17.9990  -28.2110   23.0090 C   0  0  0  0  0  0  0  0  0  0  0  0
  -20.5490  -28.5190   23.3110 C   0  0  0  0  0  3  0  0  0  0  0  0
  -20.6790  -27.0630   22.8070 C   0  0  0  0  0  2  0  0  0  0  0  0
  -19.6000  -26.6800   21.7880 C   0  0  0  0  0  2  0  0  0  0  0  0
  -18.2060  -26.8340   22.3980 C   0  0  0  0  0  2  0  0  0  0  0  0
  -19.1000  -29.0080   23.4230 C   0  0  0  0  0  0  0  0  0  0  0  0
  -18.8510  -30.2920   23.9550 C   0  0  0  0  0  3  0  0  0  0  0  0
  -17.5360  -30.7780   24.0790 C   0  0  0  0  0  3  0  0  0  0  0  0
  -16.4500  -29.9790   23.6800 C   0  0  0  0  0  3  0  0  0  0  0  0
  -16.6830  -28.6980   23.1500 C   0  0  0  0  0  3  0  0  0  0  0  0
  -25.9220  -32.6240   23.8440 C   0  0  0  0  0  3  0  0  0  0  0  0
  -26.4550  -31.8530   25.1150 C   0  0  1  0  0  0  0  0  0  0  0  0
  -25.3740  -31.6130   26.1960 C   0  0  0  0  0  1  0  0  0  0  0  0
  -27.0390  -30.4770   24.7210 C   0  0  0  0  0  1  0  0  0  0  0  0
  -27.6120  -32.6510   25.7630 C   0  0  0  0  0  1  0  0  0  0  0  0
  -25.6200  -34.0240   24.1880 N   0  0  0  0  0  0  0  0  0  0  0  0
  -25.9420  -35.0830   23.4340 C   0  0  0  0  0  0  0  0  0  0  0  0
  -26.5900  -34.9850   22.3890 O   0  0  0  0  0  0  0  0  0  0  0  0
  -25.0430  -34.1740   25.0010 H   0  0  0  0  0  0  0  0  0  0  0  0
  -24.2220  -36.8970   23.1320 C   0  0  0  0  0  1  0  0  0  0  0  0
  -25.4750  -36.4720   23.9150 C   0  0  0  0  0  3  0  0  0  0  0  0
  -27.6300  -37.3370   24.7180 C   0  0  0  0  0  1  0  0  0  0  0  0
  -26.5130  -37.5200   23.7940 N   0  0  0  0  0  0  0  0  0  0  0  0
  -26.1150  -38.4420   23.9540 H   0  0  0  0  0  0  0  0  0  0  0  0
  -30.3560  -20.7670   18.5570 C   0  0  0  0  0  2  0  0  0  0  0  0
  -32.1860  -20.4190   16.8120 C   0  0  0  0  0  1  0  0  0  0  0  0
  -30.7410  -20.1030   17.2150 C   0  0  0  0  0  2  0  0  0  0  0  0
  -27.9070  -20.9900   18.0610 C   0  0  0  0  0  2  0  0  0  0  0  0
  -26.4120  -20.9700   18.4400 C   0  0  0  0  0  2  0  0  0  0  0  0
  -25.5220  -21.4080   17.2600 C   0  0  0  0  0  2  0  0  0  0  0  0
  -24.0910  -21.3850   17.6040 N   0  0  0  0  0  4  0  0  0  0  0  0
  -23.8060  -20.4640   17.8840 H   0  0  0  0  0  0  0  0  0  0  0  0
  -23.5460  -21.6510   16.8040 H   0  0  0  0  0  0  0  0  0  0  0  0
  -23.8890  -22.0280   18.3480 H   0  0  0  0  0  0  0  0  0  0  0  0
  1  2  1  0
  3  5  1  0
  4 45  1  0
  4  1  1  0
  5 15  1  0
  5  2  1  0
  6 91  1  6
  6  3  1  0
  6  4  1  0
  7 15  1  0
  8 13  1  0
  9 10  1  0
  9  8  1  0
 11 10  1  0
 11 20  1  0
 11 12  1  0
 13  7  1  0
 13 12  1  0
 14  7  2  0
 15 16  1  0
 17 18  2  0
 18 37  1  0
 19 18  1  0
 19 22  1  0
 20 21  1  0
 20 17  1  0
 21 19  2  0
 22 23  1  0
 23 24  2  0
 25 28  1  0
 25 24  1  0
 26 25  2  0
 27 26  1  0
 27 22  2  0
 28 29  1  0
 29 30  1  0
 30 31  2  0
 32 31  1  0
 32 36  1  0
 33 32  2  0
 34 29  2  0
 34 33  1  0
 35 34  1  0
 37 38  1  0
 38 41  1  0
 38 40  1  0
 39 37  2  0
 42 17  1  0
 42 43  1  0
 44 42  1  0
 46 47  1  0
 46 45  2  0
 48 59  2  0
 49 47  1  0
 49 54  1  0
 50 58  1  0
 50 60  1  0
 51 57  1  0
 51 53  1  0
 52 58  1  0
 53 54  2  0
 53 52  1  0
 55 49  2  0
 56 55  1  0
 56 51  2  0
 57 50  1  0
 58 48  1  0
 60 62  2  0
 61 60  1  0
 63 61  1  0
 64 73  2  0
 64 69  1  0
 65 61  1  0
 65 69  1  0
 66 65  1  0
 67 68  1  0
 67 66  1  0
 68 64  1  0
 69 70  2  0
 70 71  1  0
 72 71  2  0
 73 72  1  0
 74 48  1  0
 74 79  1  0
 74 75  1  0
 75 78  1  1
 75 76  1  0
 77 75  1  0
 79 82  1  0
 80 84  1  0
 80 79  1  0
 81 80  2  0
 84 83  1  0
 86 84  1  0
 86 87  1  0
 86 85  1  0
 88  6  1  0
 89 90  1  0
 90 88  1  0
 91 92  1  0
 93 94  1  0
 93 92  1  0
 94 95  1  0
 94 97  1  0
 96 94  1  0
M  ISO  4   7 100  15 100  46 101  47 101
M  END
>  <TORSDO>  (9) 
F 24

>  <SCORE>  (9) 
-12.962

>  <name>  (9) 
8

>  <ligand_id>  (9) 
8

>  <original_smiles>  (9) 
[H]c1c([H])c([H])c2c(c1[H])C([H])([H])C([H])([H])C([H])([H])C2([H])N([H])C(=O)C1([H])N(C(=O)C([H])(N([H])C(=O)C([H])(N([H])C([H])([H])[H])C([H])([H])[H])C(C([H])([H])[H])(C([H])([H])[H])C([H])([H])[H])C([H])([H])c2c([H])c(OC([H])([H])C([H])([H])C3([H])C([H])([H])C([H])([H])C([H])(N([H])C(=O)N4C([H])([H])C([H])([H])C([H])([H])C([H])(n5nc(-c6c([H])c([H])c(Oc7c([H])c([H])c(F)c([H])c7F)c([H])c6[H])c(C(=O)N([H])[H])c5N([H])[H])C4([H])[H])C([H])([H])C3(C([H])([H])C([H])([H])C([H])([H])[H])C([H])([H])C([H])([H])C([H])([H])[N+]([H])([H])[H])c([H])c([H])c2C1([H])[H]

>  <smiles>  (9) 
[H]c1c([H])c([H])c2c(c1[H])C([H])([H])C([H])([H])C([H])([H])C2([H])N([H])C(=O)C1([H])N(C(=O)C([H])(N([H])C(=O)C([H])(N([H])C([H])([H])[H])C([H])([H])[H])C(C([H])([H])[H])(C([H])([H])[H])C([H])([H])[H])C([H])([H])c2c([H])c(OC([H])([H])C([H])([H])C3([H])C([H])([H])C([H])([H])C([H])(N([H])C(=O)N4C([H])([H])C([H])([H])C([H])([H])C([H])(n5nc(-c6c([H])c([H])c(Oc7c([H])c([H])c(F)c([H])c7F)c([H])c6[H])c(C(=O)N([H])[H])c5N([H])[H])C4([H])[H])C([H])([H])C3(C([H])([H])C([H])([H])C([H])([H])[H])C([H])([H])C([H])([H])C([H])([H])[N+]([H])([H])[H])c([H])c([H])c2C1([H])[H]

$$$$
9:0:0
     RDKit          3D

 97106  0  0  1  0  0  0  0  0999 V2000
  -29.7480  -21.4100   22.3440 C   0  0  0  0  0  3  0  0  0  0  0  0
  -31.5860  -21.3120   20.7470 C   0  0  0  0  0  3  0  0  0  0  0  0
  -29.6960  -22.8070   22.2020 C   0  0  0  0  0  3  0  0  0  0  0  0
  -31.5470  -22.7080   20.6160 C   0  0  0  0  0  3  0  0  0  0  0  0
  -30.6690  -20.6440   21.5880 C   0  0  0  0  0  0  0  0  0  0  0  0
  -30.5780  -23.4550   21.3150 C   0  0  0  0  0  0  0  0  0  0  0  0
  -29.4290  -18.5290   21.6470 C   0  0  0  0  0  3  0  0  0  0  0  0
  -30.6220  -19.1660   21.5800 C   0  0  0  0  0  0  0  0  0  0  0  0
  -29.2520  -17.0340   21.5280 C   0  0  0  0  0  2  0  0  0  0  0  0
  -31.9230  -18.3630   21.4560 C   0  0  0  0  0  2  0  0  0  0  0  0
  -31.7410  -16.8480   21.6870 C   0  0  0  0  0  2  0  0  0  0  0  0
  -30.4970  -16.4000   20.9090 C   0  0  0  0  0  3  0  0  0  0  0  0
  -30.5580  -14.2640   19.7080 C   0  0  0  0  0  0  0  0  0  0  0  0
  -30.0240  -12.2170   18.4530 C   0  0  0  0  0  2  0  0  0  0  0  0
  -28.9390  -12.4770   17.3940 C   0  0  0  0  0  2  0  0  0  0  0  0
  -27.5380  -12.3010   18.0050 C   0  0  0  0  0  2  0  0  0  0  0  0
  -27.3590  -13.1110   19.3160 C   0  0  0  0  0  3  0  0  0  0  0  0
  -28.5420  -12.8630   20.2810 C   0  0  0  0  0  2  0  0  0  0  0  0
  -29.8130  -13.1380   19.5770 N   0  0  0  0  0  0  0  0  0  0  0  0
  -31.4110  -14.6230   18.8920 O   0  0  0  0  0  0  0  0  0  0  0  0
  -30.3160  -14.9610   20.8190 N   0  0  0  0  0  0  0  0  0  0  0  0
  -29.6910  -14.5360   21.4850 H   0  0  0  0  0  0  0  0  0  0  0  0
  -25.0510  -13.6730   20.3150 C   0  0  0  0  0  0  0  0  0  0  0  0
  -24.0500  -12.8790   20.8050 C   0  0  0  0  0  0  0  0  0  0  0  0
  -24.5260  -11.5360   20.7040 C   0  0  0  0  0  0  0  0  0  0  0  0
  -26.0760  -12.8130   19.9500 N   0  0  0  0  0  0  0  0  0  0  0  0
  -25.7670  -11.5210   20.2370 N   0  0  0  0  0  0  0  0  0  0  0  0
  -23.8500  -10.2580   20.9700 C   0  0  0  0  0  0  0  0  0  0  0  0
  -24.3580   -9.3350   21.9120 C   0  0  0  0  0  3  0  0  0  0  0  0
  -23.6810   -8.1230   22.1630 C   0  0  0  0  0  3  0  0  0  0  0  0
  -22.4820   -7.8240   21.4740 C   0  0  0  0  0  0  0  0  0  0  0  0
  -21.9940   -8.7330   20.5210 C   0  0  0  0  0  3  0  0  0  0  0  0
  -22.6710   -9.9370   20.2670 C   0  0  0  0  0  3  0  0  0  0  0  0
  -21.7710   -6.6590   21.6350 O   0  0  0  0  0  0  0  0  0  0  0  0
  -21.7360   -5.9960   22.8360 C   0  0  0  0  0  0  0  0  0  0  0  0
  -21.2610   -6.6130   24.0130 C   0  0  0  0  0  3  0  0  0  0  0  0
  -21.1780   -5.8750   25.2110 C   0  0  0  0  0  3  0  0  0  0  0  0
  -21.5590   -4.5200   25.2300 C   0  0  0  0  0  0  0  0  0  0  0  0
  -22.0260   -3.9010   24.0570 C   0  0  0  0  0  3  0  0  0  0  0  0
  -22.1110   -4.6380   22.8620 C   0  0  0  0  0  0  0  0  0  0  0  0
  -22.5420   -4.0330   21.7290 F   0  0  0  0  0  0  0  0  0  0  0  0
  -21.4710   -3.8070   26.3780 F   0  0  0  0  0  0  0  0  0  0  0  0
  -22.6900  -13.3260   21.2580 C   0  0  0  0  0  0  0  0  0  0  0  0
  -22.0940  -12.6140   22.2100 N   0  0  0  0  0  0  0  0  0  0  0  0
  -22.1660  -14.3450   20.8040 O   0  0  0  0  0  0  0  0  0  0  0  0
  -22.5310  -11.7890   22.5960 H   0  0  0  0  0  0  0  0  0  0  0  0
  -21.1880  -12.8950   22.5570 H   0  0  0  0  0  0  0  0  0  0  0  0
  -25.1730  -15.0470   20.1320 N   0  0  0  0  0  0  0  0  0  0  0  0
  -24.4180  -15.6930   20.3360 H   0  0  0  0  0  0  0  0  0  0  0  0
  -25.9830  -15.5000   19.7310 H   0  0  0  0  0  0  0  0  0  0  0  0
  -30.4220  -24.9310   21.0240 C   0  0  0  0  0  2  0  0  0  0  0  0
  -29.9330  -25.0560   19.6410 N   0  0  0  0  0  4  0  0  0  0  0  0
  -28.9500  -24.8250   19.6280 H   0  0  0  0  0  0  0  0  0  0  0  0
  -30.4060  -24.3620   19.0850 H   0  0  0  0  0  0  0  0  0  0  0  0
  -30.1170  -26.3820   19.0160 C   0  0  0  0  0  2  0  0  0  0  0  0
  -29.0990  -27.3770   19.5670 C   0  0  0  0  0  2  0  0  0  0  0  0
  -27.8210  -26.8070   19.3010 O   0  0  0  0  0  0  0  0  0  0  0  0
  -24.4640  -31.7970   23.1380 C   0  0  0  0  0  0  0  0  0  0  0  0
  -26.7140  -27.5860   19.5280 C   0  0  0  0  0  0  0  0  0  0  0  0
  -23.0820  -30.5820   21.4820 C   0  0  0  0  0  3  0  0  0  0  0  0
  -24.3650  -29.1210   19.8360 C   0  0  0  0  0  0  0  0  0  0  0  0
  -25.5880  -30.8860   21.1180 C   0  0  0  0  0  2  0  0  0  0  0  0
  -25.5740  -29.5680   20.3810 C   0  0  0  0  0  0  0  0  0  0  0  0
  -26.7470  -28.8090   20.2380 C   0  0  0  0  0  3  0  0  0  0  0  0
  -25.4880  -27.1370   18.9930 C   0  0  0  0  0  3  0  0  0  0  0  0
  -24.3130  -27.8990   19.1390 C   0  0  0  0  0  3  0  0  0  0  0  0
  -23.1610  -30.0140   20.0360 C   0  0  0  0  0  2  0  0  0  0  0  0
  -24.4010  -31.0950   21.9720 N   0  0  0  0  0  0  0  0  0  0  0  0
  -23.4400  -32.0560   23.7830 O   0  0  0  0  0  0  0  0  0  0  0  0
  -22.4610  -29.5060   22.3990 C   0  0  0  0  0  0  0  0  0  0  0  0
  -21.1360  -29.3250   22.2930 N   0  0  0  0  0  0  0  0  0  0  0  0
  -23.1670  -28.8380   23.1590 O   0  0  0  0  0  0  0  0  0  0  0  0
  -20.6240  -29.9160   21.6520 H   0  0  0  0  0  0  0  0  0  0  0  0
  -17.7910  -28.0430   22.7310 C   0  0  0  0  0  0  0  0  0  0  0  0
  -20.3400  -28.3500   23.0350 C   0  0  0  0  0  3  0  0  0  0  0  0
  -20.4810  -26.9380   22.4210 C   0  0  0  0  0  2  0  0  0  0  0  0
  -19.3970  -26.6180   21.3890 C   0  0  0  0  0  2  0  0  0  0  0  0
  -18.0060  -26.7150   22.0240 C   0  0  0  0  0  2  0  0  0  0  0  0
  -18.8890  -28.8170   23.1930 C   0  0  0  0  0  0  0  0  0  0  0  0
  -18.6380  -30.0600   23.8130 C   0  0  0  0  0  3  0  0  0  0  0  0
  -17.3220  -30.5290   23.9790 C   0  0  0  0  0  3  0  0  0  0  0  0
  -16.2380  -29.7530   23.5380 C   0  0  0  0  0  3  0  0  0  0  0  0
  -16.4730  -28.5110   22.9180 C   0  0  0  0  0  3  0  0  0  0  0  0
  -25.8200  -32.3220   23.7030 C   0  0  0  0  0  3  0  0  0  0  0  0
  -25.6140  -33.7140   24.1200 N   0  0  0  0  0  0  0  0  0  0  0  0
  -25.9810  -34.7830   23.4000 C   0  0  0  0  0  0  0  0  0  0  0  0
  -26.6000  -34.6940   22.3360 O   0  0  0  0  0  0  0  0  0  0  0  0
  -25.0620  -33.8610   24.9540 H   0  0  0  0  0  0  0  0  0  0  0  0
  -24.3510  -36.6860   23.2150 C   0  0  0  0  0  1  0  0  0  0  0  0
  -25.6010  -36.1710   23.9470 C   0  0  0  0  0  3  0  0  0  0  0  0
  -27.8200  -36.8880   24.7130 C   0  0  0  0  0  1  0  0  0  0  0  0
  -26.6880  -37.1680   23.8330 N   0  0  0  0  0  0  0  0  0  0  0  0
  -26.3450  -38.1000   24.0530 H   0  0  0  0  0  0  0  0  0  0  0  0
  -26.3750  -31.4500   24.8960 C   0  0  1  0  0  0  0  0  0  0  0  0
  -25.3300  -31.1780   26.0020 C   0  0  0  0  0  1  0  0  0  0  0  0
  -26.8890  -30.0860   24.3790 C   0  0  0  0  0  1  0  0  0  0  0  0
  -27.5820  -32.1630   25.5500 C   0  0  0  0  0  1  0  0  0  0  0  0
  2  5  1  0
  3  1  1  0
  4  2  2  0
  4  6  1  0
  5  1  2  0
  6  3  2  0
  8  5  1  0
  8  7  2  0
  9  7  1  0
 10  8  1  0
 10 11  1  0
 12 21  1  0
 12  9  1  0
 12 11  1  0
 13 21  1  0
 14 19  1  0
 15 16  1  0
 15 14  1  0
 17 16  1  0
 17 26  1  0
 17 18  1  0
 19 13  1  0
 19 18  1  0
 20 13  2  0
 21 22  1  0
 23 24  2  0
 24 43  1  0
 25 24  1  0
 25 28  1  0
 26 27  1  0
 26 23  1  0
 27 25  2  0
 28 29  1  0
 29 30  2  0
 31 34  1  0
 31 30  1  0
 32 31  2  0
 33 32  1  0
 33 28  2  0
 34 35  1  0
 35 40  2  0
 35 36  1  0
 36 37  2  0
 37 38  1  0
 38 42  1  0
 39 38  2  0
 40 39  1  0
 41 40  1  0
 43 44  1  0
 44 47  1  0
 44 46  1  0
 45 43  2  0
 48 23  1  0
 48 49  1  0
 50 48  1  0
 51  6  1  0
 52 51  1  0
 53 52  1  0
 54 52  1  0
 55 56  1  0
 55 52  1  0
 57 59  1  0
 57 56  1  0
 58 69  2  0
 59 64  1  0
 60 68  1  0
 60 70  1  0
 61 67  1  0
 61 63  1  0
 62 68  1  0
 63 62  1  0
 64 63  2  0
 65 66  1  0
 65 59  2  0
 66 61  2  0
 67 60  1  0
 68 58  1  0
 70 72  2  0
 71 70  1  0
 73 71  1  0
 74 83  2  0
 74 79  1  0
 75 71  1  0
 75 79  1  0
 76 75  1  0
 77 78  1  0
 77 76  1  0
 78 74  1  0
 79 80  2  0
 80 81  1  0
 82 81  2  0
 83 82  1  0
 84 58  1  0
 84 85  1  0
 84 94  1  0
 85 88  1  0
 86 90  1  0
 86 85  1  0
 87 86  2  0
 90 89  1  0
 92 90  1  0
 92 93  1  0
 92 91  1  0
 94 97  1  1
 94 95  1  0
 96 94  1  0
M  ISO  4  13 100  21 100  56 101  57 101
M  END
>  <TORSDO>  (10) 
F 21

>  <SCORE>  (10) 
-11.119

>  <name>  (10) 
9

>  <ligand_id>  (10) 
9

>  <original_smiles>  (10) 
[H]C1=C(c2c([H])c([H])c(C([H])([H])[N+]([H])([H])C([H])([H])C([H])([H])Oc3c([H])c([H])c4c(c3[H])C([H])([H])N(C(=O)C([H])(N([H])C(=O)C([H])(N([H])C([H])([H])[H])C([H])([H])[H])C(C([H])([H])[H])(C([H])([H])[H])C([H])([H])[H])C([H])(C(=O)N([H])C3([H])c5c([H])c([H])c([H])c([H])c5C([H])([H])C([H])([H])C3([H])[H])C4([H])[H])c([H])c2[H])C([H])([H])C([H])([H])C([H])(N([H])C(=O)N2C([H])([H])C([H])([H])C([H])([H])C([H])(n3nc(-c4c([H])c([H])c(Oc5c([H])c([H])c(F)c([H])c5F)c([H])c4[H])c(C(=O)N([H])[H])c3N([H])[H])C2([H])[H])C1([H])[H]

>  <smiles>  (10) 
[H]C1=C(c2c([H])c([H])c(C([H])([H])[N+]([H])([H])C([H])([H])C([H])([H])Oc3c([H])c([H])c4c(c3[H])C([H])([H])N(C(=O)C([H])(N([H])C(=O)C([H])(N([H])C([H])([H])[H])C([H])([H])[H])C(C([H])([H])[H])(C([H])([H])[H])C([H])([H])[H])C([H])(C(=O)N([H])C3([H])c5c([H])c([H])c([H])c([H])c5C([H])([H])C([H])([H])C3([H])[H])C4([H])[H])c([H])c2[H])C([H])([H])C([H])([H])C([H])(N([H])C(=O)N2C([H])([H])C([H])([H])C([H])([H])C([H])(n3nc(-c4c([H])c([H])c(Oc5c([H])c([H])c(F)c([H])c5F)c([H])c4[H])c(C(=O)N([H])[H])c3N([H])[H])C2([H])[H])C1([H])[H]

$$$$
10:0:0
     RDKit          3D

 93 96  0  0  1  0  0  0  0  0999 V2000
  -26.5680  -25.6700   22.5740 C   0  0  0  0  0  2  0  0  0  0  0  0
  -28.9030  -27.8070   19.7880 C   0  0  0  0  0 15  0  0  0  0  0  0
  -28.1120  -24.6320   22.4460 C   0  0  0  0  0  2  0  0  0  0  0  0
  -29.9750  -26.0450   20.3100 C   0  0  0  0  0 15  0  0  0  0  0  0
  -26.0180  -27.1290   21.5080 C   0  0  0  0  0  2  0  0  0  0  0  0
  -29.4310  -24.2620   21.2060 C   0  0  0  0  0  2  0  0  0  0  0  0
  -29.5820  -22.5160   20.5480 N   0  0  0  0  0  4  0  0  0  0  0  0
  -30.5780  -22.5070   20.3610 H   0  0  0  0  0  0  0  0  0  0  0  0
  -29.1570  -22.6090   19.6390 H   0  0  0  0  0  0  0  0  0  0  0  0
  -29.3340  -20.7190   20.8890 C   0  0  0  0  0  1  0  0  0  0  0  0
  -29.9310  -18.8650   20.2240 C   0  0  0  0  0  1  0  0  0  0  0  0
  -30.3300  -15.5260   20.2240 C   0  0  0  0  0  0  0  0  0  0  0  0
  -30.3300  -12.9380   19.3550 C   0  0  0  0  0  2  0  0  0  0  0  0
  -29.4160  -12.4540   18.1800 C   0  0  0  0  0  2  0  0  0  0  0  0
  -28.0340  -12.0310   18.6880 C   0  0  0  0  0  2  0  0  0  0  0  0
  -27.5160  -13.0360   19.7360 C   0  0  0  0  0  3  0  0  0  0  0  0
  -28.5760  -13.4750   20.8030 C   0  0  0  0  0  2  0  0  0  0  0  0
  -29.7350  -14.1500   20.1240 N   0  0  0  0  0  0  0  0  0  0  0  0
  -31.5420  -15.3600   19.9640 O   0  0  0  0  0  0  0  0  0  0  0  0
  -29.7230  -17.0110   20.4140 N   0  0  0  0  0  0  0  0  0  0  0  0
  -28.7450  -16.8580   20.6280 H   0  0  0  0  0  0  0  0  0  0  0  0
  -25.1700  -13.5070   20.5960 C   0  0  0  0  0  0  0  0  0  0  0  0
  -24.1220  -12.7140   20.9700 C   0  0  0  0  0  0  0  0  0  0  0  0
  -24.5940  -11.3660   20.8820 C   0  0  0  0  0  0  0  0  0  0  0  0
  -26.2170  -12.6570   20.2980 N   0  0  0  0  0  0  0  0  0  0  0  0
  -25.8800  -11.3520   20.5270 N   0  0  0  0  0  0  0  0  0  0  0  0
  -23.8670  -10.0950   21.0550 C   0  0  0  0  0  0  0  0  0  0  0  0
  -24.3230   -9.0880   21.9350 C   0  0  0  0  0  3  0  0  0  0  0  0
  -23.5890   -7.8940   22.1040 C   0  0  0  0  0  3  0  0  0  0  0  0
  -22.3810   -7.6950   21.3960 C   0  0  0  0  0  0  0  0  0  0  0  0
  -21.9400   -8.6890   20.5070 C   0  0  0  0  0  3  0  0  0  0  0  0
  -22.6740   -9.8740   20.3340 C   0  0  0  0  0  3  0  0  0  0  0  0
  -21.6200   -6.5500   21.4760 O   0  0  0  0  0  0  0  0  0  0  0  0
  -21.6380   -5.7490   22.5900 C   0  0  0  0  0  0  0  0  0  0  0  0
  -21.2850   -6.2400   23.8660 C   0  0  0  0  0  3  0  0  0  0  0  0
  -21.2520   -5.3660   24.9730 C   0  0  0  0  0  3  0  0  0  0  0  0
  -21.5600   -4.0030   24.8040 C   0  0  0  0  0  0  0  0  0  0  0  0
  -21.9040   -3.5100   23.5330 C   0  0  0  0  0  3  0  0  0  0  0  0
  -21.9400   -4.3820   22.4290 C   0  0  0  0  0  0  0  0  0  0  0  0
  -22.2520   -3.8960   21.2020 F   0  0  0  0  0  0  0  0  0  0  0  0
  -21.5210   -3.1640   25.8650 F   0  0  0  0  0  0  0  0  0  0  0  0
  -22.7310  -13.1810   21.2900 C   0  0  0  0  0  0  0  0  0  0  0  0
  -22.0290  -12.4710   22.1650 N   0  0  0  0  0  0  0  0  0  0  0  0
  -22.2790  -14.2140   20.7980 O   0  0  0  0  0  0  0  0  0  0  0  0
  -22.4050  -11.6370   22.5890 H   0  0  0  0  0  0  0  0  0  0  0  0
  -21.0960  -12.7700   22.4150 H   0  0  0  0  0  0  0  0  0  0  0  0
  -25.3210  -14.8820   20.4510 N   0  0  0  0  0  0  0  0  0  0  0  0
  -24.5570  -15.5360   20.5850 H   0  0  0  0  0  0  0  0  0  0  0  0
  -26.1630  -15.3280   20.1070 H   0  0  0  0  0  0  0  0  0  0  0  0
  -24.7230  -26.4260   20.9270 C   0  0  0  0  0  3  0  0  0  0  0  0
  -24.8720  -25.5020   19.6490 C   0  0  0  0  0  3  0  0  0  0  0  0
  -26.2380  -25.4030   18.8200 C   0  0  0  0  0  2  0  0  0  0  0  0
  -26.9280  -26.5710   18.2140 O   0  0  0  0  0  0  0  0  0  0  0  0
  -24.6230  -32.1330   23.4480 C   0  0  0  0  0  0  0  0  0  0  0  0
  -26.7150  -27.6890   18.8230 C   0  0  0  0  0  2  0  0  0  0  0  0
  -23.4090  -31.0920   21.6050 C   0  0  0  0  0  3  0  0  0  0  0  0
  -24.9210  -30.2470   19.5540 C   0  0  0  0  0  3  0  0  0  0  0  0
  -26.0030  -31.4460   21.3960 C   0  0  0  0  0  2  0  0  0  0  0  0
  -26.2030  -30.2360   20.3870 C   0  0  0  0  0  3  0  0  0  0  0  0
  -27.3280  -28.9590   20.2470 C   0  0  0  0  0  1  0  0  0  0  0  0
  -25.4420  -28.1460   18.0410 C   0  0  0  0  0  3  0  0  0  0  0  0
  -24.6500  -29.3320   18.4300 C   0  0  0  0  0  3  0  0  0  0  0  0
  -23.6130  -30.9340   20.0690 C   0  0  0  0  0  2  0  0  0  0  0  0
  -24.6980  -31.5650   22.2020 N   0  0  0  0  0  0  0  0  0  0  0  0
  -23.5650  -32.1970   24.1000 O   0  0  0  0  0  0  0  0  0  0  0  0
  -22.8100  -29.8430   22.3510 C   0  0  0  0  0  0  0  0  0  0  0  0
  -21.5080  -29.4990   22.2030 N   0  0  0  0  0  0  0  0  0  0  0  0
  -23.5330  -29.1940   23.1110 O   0  0  0  0  0  0  0  0  0  0  0  0
  -20.9260  -30.0670   21.5990 H   0  0  0  0  0  0  0  0  0  0  0  0
  -18.4060  -27.5770   22.4470 C   0  0  0  0  0  0  0  0  0  0  0  0
  -20.8590  -28.3240   22.8260 C   0  0  0  0  0  3  0  0  0  0  0  0
  -21.2310  -27.0180   22.0930 C   0  0  0  0  0  2  0  0  0  0  0  0
  -20.2480  -26.6480   20.9810 C   0  0  0  0  0  2  0  0  0  0  0  0
  -18.8500  -26.4250   21.5610 C   0  0  0  0  0  2  0  0  0  0  0  0
  -19.3430  -28.4800   23.0230 C   0  0  0  0  0  0  0  0  0  0  0  0
  -18.8630  -29.5470   23.8140 C   0  0  0  0  0  3  0  0  0  0  0  0
  -17.4820  -29.7240   24.0220 C   0  0  0  0  0  3  0  0  0  0  0  0
  -16.5620  -28.8230   23.4620 C   0  0  0  0  0  3  0  0  0  0  0  0
  -17.0260  -27.7480   22.6840 C   0  0  0  0  0  3  0  0  0  0  0  0
  -25.8900  -32.7480   24.1080 C   0  0  0  0  0  3  0  0  0  0  0  0
  -25.5610  -34.1140   24.5520 N   0  0  0  0  0  0  0  0  0  0  0  0
  -25.9640  -35.2400   23.9460 C   0  0  0  0  0  0  0  0  0  0  0  0
  -26.6980  -35.2340   22.9550 O   0  0  0  0  0  0  0  0  0  0  0  0
  -24.9150  -34.1910   25.3230 H   0  0  0  0  0  0  0  0  0  0  0  0
  -24.3260  -37.1320   23.6710 C   0  0  0  0  0  1  0  0  0  0  0  0
  -25.4790  -36.5810   24.5260 C   0  0  0  0  0  3  0  0  0  0  0  0
  -27.5790  -37.2610   25.6080 C   0  0  0  0  0  1  0  0  0  0  0  0
  -26.5460  -37.6030   24.6330 N   0  0  0  0  0  0  0  0  0  0  0  0
  -26.1590  -38.5080   24.8900 H   0  0  0  0  0  0  0  0  0  0  0  0
  -26.4150  -31.8880   25.3230 C   0  0  1  0  0  0  0  0  0  0  0  0
  -25.3290  -31.5800   26.3770 C   0  0  0  0  0  1  0  0  0  0  0  0
  -26.9890  -30.5230   24.8840 C   0  0  0  0  0  1  0  0  0  0  0  0
  -27.5870  -32.6310   26.0100 C   0  0  0  0  0  1  0  0  0  0  0  0
  3  1  1  0
  5  1  1  0
  6  3  1  0
  7 10  1  0
  7  6  1  0
  8  7  1  0
  9  7  1  0
 11 20  1  0
 12 20  1  0
 13 18  1  0
 14 15  1  0
 14 13  1  0
 16 15  1  0
 16 25  1  0
 16 17  1  0
 18 12  1  0
 18 17  1  0
 19 12  2  0
 20 21  1  0
 22 23  2  0
 23 42  1  0
 24 23  1  0
 24 27  1  0
 25 26  1  0
 25 22  1  0
 26 24  2  0
 27 28  1  0
 28 29  2  0
 30 33  1  0
 30 29  1  0
 31 30  2  0
 32 31  1  0
 32 27  2  0
 33 34  1  0
 34 35  1  0
 35 36  2  0
 37 36  1  0
 37 41  1  0
 38 37  2  0
 39 34  2  0
 39 38  1  0
 40 39  1  0
 42 43  1  0
 43 46  1  0
 43 45  1  0
 44 42  2  0
 47 48  1  0
 47 22  1  0
 49 47  1  0
 50  5  1  0
 51 50  2  0
 52 51  1  0
 53 52  1  0
 53 55  1  0
 54 65  2  0
 56 64  1  0
 56 66  1  0
 57 62  1  0
 57 63  1  0
 57 59  1  0
 58 64  1  0
 59 60  1  0
 59 58  1  0
 61 62  2  0
 61 55  1  0
 63 56  1  0
 64 54  1  0
 66 68  2  0
 67 66  1  0
 69 67  1  0
 70 79  2  0
 70 75  1  0
 71 67  1  0
 71 75  1  0
 72 71  1  0
 73 74  1  0
 73 72  1  0
 74 70  1  0
 75 76  2  0
 76 77  1  0
 78 77  2  0
 79 78  1  0
 80 54  1  0
 80 81  1  0
 80 90  1  0
 81 84  1  0
 82 86  1  0
 82 81  1  0
 83 82  2  0
 86 85  1  0
 86 88  1  0
 88 89  1  0
 88 87  1  0
 90 93  1  1
 90 91  1  0
 92 90  1  0
M  ISO  4  12 100  20 100  52 101  53 101
M  END
>  <TORSDO>  (11) 
F 22

>  <SCORE>  (11) 
-11.949

>  <name>  (11) 
10

>  <ligand_id>  (11) 
10

>  <original_smiles>  (11) 
[H]c1c([H])c([H])c2c(c1[H])C([H])([H])C([H])([H])C([H])([H])C2([H])N([H])C(=O)C1([H])N(C(=O)C([H])(N([H])C(=O)C([H])(N([H])C([H])([H])[H])C([H])([H])[H])C(C([H])([H])[H])(C([H])([H])[H])C([H])([H])[H])C([H])([H])c2c([H])c(OC([H])([H])C([H])([H])C([H])([H])C3([H])C([H])([H])C([H])([H])C([H])([N+]([H])([H])C([H])([H])C([H])([H])N([H])C(=O)N4C([H])([H])C([H])([H])C([H])([H])C([H])(n5nc(-c6c([H])c([H])c(Oc7c([H])c([H])c(F)c([H])c7F)c([H])c6[H])c(C(=O)N([H])[H])c5N([H])[H])C4([H])[H])C([H])([H])C3([H])[H])c([H])c([H])c2C1([H])[H]

>  <smiles>  (11) 
[H]c1c([H])c([H])c2c(c1[H])C([H])([H])C([H])([H])C([H])([H])C2([H])N([H])C(=O)C1([H])N(C(=O)C([H])(N([H])C(=O)C([H])(N([H])C([H])([H])[H])C([H])([H])[H])C(C([H])([H])[H])(C([H])([H])[H])C([H])([H])[H])C([H])([H])c2c([H])c(OC([H])([H])C([H])([H])C([H])([H])C3([H])C([H])([H])C([H])([H])C([H])([N+]([H])([H])C([H])([H])C([H])([H])N([H])C(=O)N4C([H])([H])C([H])([H])C([H])([H])C([H])(n5nc(-c6c([H])c([H])c(Oc7c([H])c([H])c(F)c([H])c7F)c([H])c6[H])c(C(=O)N([H])[H])c5N([H])[H])C4([H])[H])C([H])([H])C3([H])[H])c([H])c([H])c2C1([H])[H]

$$$$
11:0:0
     RDKit          3D

101109  0  0  1  0  0  0  0  0999 V2000
  -30.3710  -21.7900   25.2840 C   0  0  0  0  0  2  0  0  0  0  0  0
  -30.5340  -20.4610   24.5360 C   0  0  0  0  0  2  0  0  0  0  0  0
  -29.1530  -22.5480   24.7320 C   0  0  0  0  0  2  0  0  0  0  0  0
  -30.5230  -20.6520   23.0090 C   0  0  0  0  0  2  0  0  0  0  0  0
  -29.2180  -22.7170   23.1970 C   0  0  0  0  0  3  0  0  0  0  0  0
  -29.3080  -21.3700   22.5990 N   0  0  0  0  0  0  0  0  0  0  0  0
  -29.1430  -21.3680   21.1430 C   0  0  0  0  0  2  0  0  0  0  0  0
  -28.6850  -19.9870   20.6350 C   0  0  0  0  0  2  0  0  0  0  0  0
  -28.0400  -20.0370   19.2380 C   0  0  0  0  0  2  0  0  0  0  0  0
  -29.0180  -20.0470   18.0460 C   0  0  0  0  0  2  0  0  0  0  0  0
  -30.0950  -21.1460   18.0740 C   0  0  0  0  0  2  0  0  0  0  0  0
  -31.5120  -20.6170   18.3630 C   0  0  0  0  0  2  0  0  0  0  0  0
  -32.4190  -21.7040   18.9580 C   0  0  0  0  0  2  0  0  0  0  0  0
  -33.9260  -21.4060   18.8170 C   0  0  0  0  0  2  0  0  0  0  0  0
  -35.8130  -22.9140   19.5770 C   0  0  0  0  0  0  0  0  0  0  0  0
  -36.9750  -24.7490   18.4040 C   0  0  0  0  0  2  0  0  0  0  0  0
  -36.5800  -26.1260   18.9780 C   0  0  0  0  0  2  0  0  0  0  0  0
  -35.2860  -26.6580   18.3300 C   0  0  0  0  0  2  0  0  0  0  0  0
  -34.1600  -25.5940   18.3020 C   0  0  0  0  0  3  0  0  0  0  0  0
  -34.7130  -24.2800   17.7240 C   0  0  0  0  0  2  0  0  0  0  0  0
  -35.8370  -23.8280   18.5650 N   0  0  0  0  0  0  0  0  0  0  0  0
  -36.7340  -22.7930   20.3900 O   0  0  0  0  0  0  0  0  0  0  0  0
  -34.6920  -22.2010   19.7770 N   0  0  0  0  0  0  0  0  0  0  0  0
  -34.6890  -21.7910   20.6990 H   0  0  0  0  0  0  0  0  0  0  0  0
  -31.6590  -26.0880   17.9080 C   0  0  0  0  0  0  0  0  0  0  0  0
  -31.0000  -26.6810   16.8630 C   0  0  0  0  0  0  0  0  0  0  0  0
  -32.0020  -27.0010   15.8970 C   0  0  0  0  0  0  0  0  0  0  0  0
  -32.9980  -26.0620   17.5460 N   0  0  0  0  0  0  0  0  0  0  0  0
  -33.1890  -26.5720   16.3030 N   0  0  0  0  0  0  0  0  0  0  0  0
  -31.9070  -27.7440   14.6330 C   0  0  0  0  0  0  0  0  0  0  0  0
  -32.4010  -27.2090   13.4230 C   0  0  0  0  0  3  0  0  0  0  0  0
  -32.2810  -27.9350   12.2180 C   0  0  0  0  0  3  0  0  0  0  0  0
  -31.6610  -29.2060   12.2120 C   0  0  0  0  0  0  0  0  0  0  0  0
  -31.1910  -29.7420   13.4250 C   0  0  0  0  0  3  0  0  0  0  0  0
  -31.3140  -29.0220   14.6240 C   0  0  0  0  0  3  0  0  0  0  0  0
  -31.5220  -29.9930   11.0940 O   0  0  0  0  0  0  0  0  0  0  0  0
  -31.4620  -29.4480    9.8370 C   0  0  0  0  0  0  0  0  0  0  0  0
  -30.4760  -28.5010    9.4810 C   0  0  0  0  0  3  0  0  0  0  0  0
  -30.4070  -28.0240    8.1580 C   0  0  0  0  0  3  0  0  0  0  0  0
  -31.3120  -28.4950    7.1880 C   0  0  0  0  0  0  0  0  0  0  0  0
  -32.2900  -29.4410    7.5410 C   0  0  0  0  0  3  0  0  0  0  0  0
  -32.3620  -29.9200    8.8610 C   0  0  0  0  0  0  0  0  0  0  0  0
  -33.2920  -30.8490    9.1900 F   0  0  0  0  0  0  0  0  0  0  0  0
  -31.2410  -28.0430    5.9150 F   0  0  0  0  0  0  0  0  0  0  0  0
  -29.5380  -27.0180   16.8000 C   0  0  0  0  0  0  0  0  0  0  0  0
  -28.9500  -26.9930   15.6090 N   0  0  0  0  0  0  0  0  0  0  0  0
  -28.8950  -27.2600   17.8200 O   0  0  0  0  0  0  0  0  0  0  0  0
  -29.4710  -26.7840   14.7720 H   0  0  0  0  0  0  0  0  0  0  0  0
  -27.9630  -27.1970   15.5350 H   0  0  0  0  0  0  0  0  0  0  0  0
  -31.2360  -25.5880   19.1370 N   0  0  0  0  0  0  0  0  0  0  0  0
  -30.2720  -25.6450   19.4480 H   0  0  0  0  0  0  0  0  0  0  0  0
  -31.8530  -25.1950   19.8370 H   0  0  0  0  0  0  0  0  0  0  0  0
  -30.3270  -23.7020   22.7190 C   0  0  0  0  0  2  0  0  0  0  0  0
  -29.8030  -25.0390   22.3660 N   0  0  0  0  0  4  0  0  0  0  0  0
  -28.8130  -25.0840   22.5530 H   0  0  0  0  0  0  0  0  0  0  0  0
  -29.9150  -25.1290   21.3700 H   0  0  0  0  0  0  0  0  0  0  0  0
  -30.4990  -26.1890   22.9880 C   0  0  0  0  0  2  0  0  0  0  0  0
  -30.2070  -27.4970   22.2270 C   0  0  0  0  0  2  0  0  0  0  0  0
  -31.0050  -28.7010   22.7600 C   0  0  0  0  0  2  0  0  0  0  0  0
  -30.4960  -30.0560   22.2320 C   0  0  0  0  0  2  0  0  0  0  0  0
  -29.7220  -30.7130   23.2400 O   0  0  0  0  0  0  0  0  0  0  0  0
  -24.3400  -27.9530   26.9460 C   0  0  0  0  0  0  0  0  0  0  0  0
  -28.3510  -30.5640   23.3040 C   0  0  0  0  0  0  0  0  0  0  0  0
  -23.7270  -28.9460   24.7650 C   0  0  0  0  0  3  0  0  0  0  0  0
  -25.5490  -30.3070   23.6180 C   0  0  0  0  0  0  0  0  0  0  0  0
  -25.7730  -29.7820   26.0540 C   0  0  0  0  0  2  0  0  0  0  0  0
  -26.3960  -30.1230   24.7170 C   0  0  0  0  0  0  0  0  0  0  0  0
  -27.7930  -30.2530   24.5630 C   0  0  0  0  0  3  0  0  0  0  0  0
  -27.4790  -30.7520   22.2060 C   0  0  0  0  0  3  0  0  0  0  0  0
  -26.0870  -30.6170   22.3590 C   0  0  0  0  0  3  0  0  0  0  0  0
  -24.0640  -30.1630   23.8630 C   0  0  0  0  0  2  0  0  0  0  0  0
  -24.6280  -28.8460   25.9580 N   0  0  0  0  0  0  0  0  0  0  0  0
  -23.3200  -27.2500   26.8950 O   0  0  0  0  0  0  0  0  0  0  0  0
  -23.7270  -27.6720   23.8910 C   0  0  0  0  0  0  0  0  0  0  0  0
  -22.9500  -27.6990   22.7950 N   0  0  0  0  0  0  0  0  0  0  0  0
  -24.4300  -26.7020   24.1850 O   0  0  0  0  0  0  0  0  0  0  0  0
  -22.3950  -28.5280   22.6300 H   0  0  0  0  0  0  0  0  0  0  0  0
  -21.7990  -26.9480   19.4560 C   0  0  0  0  0  0  0  0  0  0  0  0
  -22.8180  -26.6290   21.8080 C   0  0  0  0  0  3  0  0  0  0  0  0
  -24.1590  -26.3770   21.0830 C   0  0  0  0  0  2  0  0  0  0  0  0
  -24.2990  -27.1700   19.7800 C   0  0  0  0  0  2  0  0  0  0  0  0
  -23.1690  -26.8140   18.8100 C   0  0  0  0  0  2  0  0  0  0  0  0
  -21.6380  -26.8770   20.8640 C   0  0  0  0  0  0  0  0  0  0  0  0
  -20.3470  -27.0430   21.4150 C   0  0  0  0  0  3  0  0  0  0  0  0
  -19.2350  -27.2760   20.5860 C   0  0  0  0  0  3  0  0  0  0  0  0
  -19.3980  -27.3280   19.1900 C   0  0  0  0  0  3  0  0  0  0  0  0
  -20.6770  -27.1610   18.6280 C   0  0  0  0  0  3  0  0  0  0  0  0
  -25.2580  -27.7880   28.1970 C   0  0  0  0  0  3  0  0  0  0  0  0
  -24.3910  -27.5180   29.3500 N   0  0  0  0  0  0  0  0  0  0  0  0
  -24.1050  -28.4050   30.3120 C   0  0  0  0  0  0  0  0  0  0  0  0
  -24.6090  -29.5310   30.3580 O   0  0  0  0  0  0  0  0  0  0  0  0
  -23.8970  -26.6370   29.3490 H   0  0  0  0  0  0  0  0  0  0  0  0
  -21.7250  -28.5980   31.1000 C   0  0  0  0  0  1  0  0  0  0  0  0
  -23.0970  -27.9760   31.3960 C   0  0  0  0  0  3  0  0  0  0  0  0
  -24.6790  -27.5750   33.2310 C   0  0  0  0  0  1  0  0  0  0  0  0
  -23.5210  -28.3350   32.7660 N   0  0  0  0  0  0  0  0  0  0  0  0
  -22.7620  -28.1910   33.4280 H   0  0  0  0  0  0  0  0  0  0  0  0
  -26.3400  -26.6510   28.0310 C   0  0  1  0  0  0  0  0  0  0  0  0
  -25.7520  -25.2970   27.5680 C   0  0  0  0  0  1  0  0  0  0  0  0
  -27.4210  -27.0700   27.0080 C   0  0  0  0  0  1  0  0  0  0  0  0
  -27.0700  -26.4220   29.3760 C   0  0  0  0  0  1  0  0  0  0  0  0
  2  1  1  0
  3  1  1  0
  4  2  1  0
  5 53  1  0
  5  3  1  0
  6  4  1  0
  6  5  1  0
  7  6  1  0
  8  7  1  0
  9  8  1  0
 10 11  1  0
 10  9  1  0
 11 12  1  0
 12 13  1  0
 14 13  1  0
 14 23  1  0
 15 23  1  0
 15 22  2  0
 16 21  1  0
 16 17  1  0
 18 17  1  0
 19 28  1  0
 19 18  1  0
 20 19  1  0
 20 21  1  0
 21 15  1  0
 23 24  1  0
 25 50  1  0
 26 25  2  0
 27 29  2  0
 27 26  1  0
 28 25  1  0
 29 28  1  0
 30 27  1  0
 31 30  2  0
 32 31  1  0
 33 32  2  0
 33 34  1  0
 34 35  2  0
 35 30  1  0
 36 33  1  0
 37 36  1  0
 38 37  1  0
 39 38  2  0
 40 41  2  0
 40 39  1  0
 41 42  1  0
 42 43  1  0
 42 37  2  0
 44 40  1  0
 45 26  1  0
 45 47  2  0
 46 45  1  0
 48 46  1  0
 49 46  1  0
 50 51  1  0
 50 52  1  0
 54 55  1  0
 54 53  1  0
 54 57  1  0
 56 54  1  0
 58 59  1  0
 58 57  1  0
 60 59  1  0
 60 61  1  0
 61 63  1  0
 63 68  1  0
 64 74  1  0
 64 72  1  0
 65 71  1  0
 65 67  1  0
 67 66  1  0
 68 67  2  0
 69 70  1  0
 69 63  2  0
 70 65  2  0
 71 64  1  0
 72 66  1  0
 72 62  1  0
 73 62  2  0
 74 76  2  0
 75 74  1  0
 77 75  1  0
 78 83  1  0
 79 75  1  0
 80 79  1  0
 81 80  1  0
 82 78  1  0
 82 81  1  0
 83 84  2  0
 83 79  1  0
 85 84  1  0
 86 85  2  0
 87 86  1  0
 87 78  2  0
 88 62  1  0
 88 89  1  0
 89 90  1  0
 90 91  2  0
 90 94  1  0
 92 89  1  0
 94 93  1  0
 94 96  1  0
 96 95  1  0
 96 97  1  0
 98 88  1  0
 98101  1  1
 99 98  1  0
100 98  1  0
M  ISO  4  15 100  23 100  60 101  61 101
M  END
>  <TORSDO>  (12) 
F 30

>  <SCORE>  (12) 
-2.225

>  <name>  (12) 
11

>  <ligand_id>  (12) 
11

>  <original_smiles>  (12) 
[H]c1c([H])c([H])c2c(c1[H])C([H])([H])C([H])([H])C([H])([H])C2([H])N([H])C(=O)C1([H])N(C(=O)C([H])(N([H])C(=O)C([H])(N([H])C([H])([H])[H])C([H])([H])[H])C(C([H])([H])[H])(C([H])([H])[H])C([H])([H])[H])C([H])([H])c2c([H])c(OC([H])([H])C([H])([H])C([H])([H])C([H])([H])[N+]([H])([H])C([H])([H])C3([H])N(C([H])([H])C([H])([H])C([H])([H])C([H])([H])C([H])([H])C([H])([H])C([H])([H])C([H])([H])N([H])C(=O)N4C([H])([H])C([H])([H])C([H])([H])C([H])(n5nc(-c6c([H])c([H])c(Oc7c([H])c([H])c(F)c([H])c7F)c([H])c6[H])c(C(=O)N([H])[H])c5N([H])[H])C4([H])[H])C([H])([H])C([H])([H])C([H])([H])C3([H])[H])c([H])c([H])c2C1([H])[H]

>  <smiles>  (12) 
[H]c1c([H])c([H])c2c(c1[H])C([H])([H])C([H])([H])C([H])([H])C2([H])N([H])C(=O)C1([H])N(C(=O)C([H])(N([H])C(=O)C([H])(N([H])C([H])([H])[H])C([H])([H])[H])C(C([H])([H])[H])(C([H])([H])[H])C([H])([H])[H])C([H])([H])c2c([H])c(OC([H])([H])C([H])([H])C([H])([H])C([H])([H])[N+]([H])([H])C([H])([H])C3([H])N(C([H])([H])C([H])([H])C([H])([H])C([H])([H])C([H])([H])C([H])([H])C([H])([H])C([H])([H])N([H])C(=O)N4C([H])([H])C([H])([H])C([H])([H])C([H])(n5nc(-c6c([H])c([H])c(Oc7c([H])c([H])c(F)c([H])c7F)c([H])c6[H])c(C(=O)N([H])[H])c5N([H])[H])C4([H])[H])C([H])([H])C([H])([H])C([H])([H])C3([H])[H])c([H])c([H])c2C1([H])[H]

$$$$
12:0:0
     RDKit          3D

 93102  0  0  1  0  0  0  0  0999 V2000
  -28.8900  -17.5810   20.0580 C   0  0  0  0  0  2  0  0  0  0  0  0
  -31.0720  -21.3310   20.0400 C   0  0  0  0  0  2  0  0  0  0  0  0
  -28.9800  -21.4260   18.8890 C   0  0  0  0  0  2  0  0  0  0  0  0
  -31.2020  -18.5150   20.3750 C   0  0  0  0  0  2  0  0  0  0  0  0
  -28.5310  -19.1010   20.1570 C   0  0  0  0  0  3  0  0  0  0  0  0
  -30.8290  -19.8500   19.5300 C   0  0  0  0  0  3  0  0  0  0  0  0
  -29.3460  -19.9120   19.1110 C   0  0  0  0  0  3  0  0  0  0  0  0
  -30.2340  -22.2970   19.0990 C   0  0  0  0  0  3  0  0  0  0  0  0
  -30.4030  -17.2190   19.8830 C   0  0  0  0  0  3  0  0  0  0  0  0
  -31.3380  -14.6800   20.1900 C   0  0  0  0  0  0  0  0  0  0  0  0
  -31.0780  -12.3030   19.4460 C   0  0  0  0  0  2  0  0  0  0  0  0
  -30.2000  -12.3350   18.1730 C   0  0  0  0  0  2  0  0  0  0  0  0
  -28.7040  -12.2840   18.5470 C   0  0  0  0  0  2  0  0  0  0  0  0
  -28.3390  -13.2990   19.6650 C   0  0  0  0  0  3  0  0  0  0  0  0
  -29.3480  -13.2310   20.8370 C   0  0  0  0  0  2  0  0  0  0  0  0
  -30.6930  -13.4640   20.2850 N   0  0  0  0  0  0  0  0  0  0  0  0
  -32.4890  -14.7460   19.7430 O   0  0  0  0  0  0  0  0  0  0  0  0
  -30.5700  -15.7980   20.4460 N   0  0  0  0  0  0  0  0  0  0  0  0
  -29.6990  -15.4830   20.8460 H   0  0  0  0  0  0  0  0  0  0  0  0
  -26.0500  -14.1150   20.5010 C   0  0  0  0  0  0  0  0  0  0  0  0
  -24.8870  -13.4530   20.7830 C   0  0  0  0  0  0  0  0  0  0  0  0
  -25.1530  -12.0710   20.5560 C   0  0  0  0  0  0  0  0  0  0  0  0
  -26.9610  -13.1390   20.1240 N   0  0  0  0  0  0  0  0  0  0  0  0
  -26.4240  -11.8950   20.2170 N   0  0  0  0  0  0  0  0  0  0  0  0
  -24.2550  -10.9100   20.5900 C   0  0  0  0  0  0  0  0  0  0  0  0
  -24.5970   -9.7310   21.2870 C   0  0  0  0  0  3  0  0  0  0  0  0
  -23.7120   -8.6330   21.3150 C   0  0  0  0  0  3  0  0  0  0  0  0
  -22.4630   -8.7110   20.6510 C   0  0  0  0  0  0  0  0  0  0  0  0
  -22.1360   -9.8780   19.9410 C   0  0  0  0  0  3  0  0  0  0  0  0
  -23.0220  -10.9670   19.9090 C   0  0  0  0  0  3  0  0  0  0  0  0
  -21.5460   -7.6890   20.6100 O   0  0  0  0  0  0  0  0  0  0  0  0
  -21.5530   -6.6770   21.5350 C   0  0  0  0  0  0  0  0  0  0  0  0
  -21.4230   -6.9320   22.9170 C   0  0  0  0  0  3  0  0  0  0  0  0
  -21.3600   -5.8570   23.8260 C   0  0  0  0  0  3  0  0  0  0  0  0
  -21.4240   -4.5310   23.3560 C   0  0  0  0  0  0  0  0  0  0  0  0
  -21.5500   -4.2780   21.9780 C   0  0  0  0  0  3  0  0  0  0  0  0
  -21.6110   -5.3500   21.0710 C   0  0  0  0  0  0  0  0  0  0  0  0
  -21.7100   -5.0980   19.7440 F   0  0  0  0  0  0  0  0  0  0  0  0
  -21.3550   -3.5010   24.2290 F   0  0  0  0  0  0  0  0  0  0  0  0
  -23.5720  -14.0830   21.1360 C   0  0  0  0  0  0  0  0  0  0  0  0
  -22.7650  -13.4030   21.9450 N   0  0  0  0  0  0  0  0  0  0  0  0
  -23.2740  -15.2050   20.7350 O   0  0  0  0  0  0  0  0  0  0  0  0
  -23.0170  -12.4860   22.2850 H   0  0  0  0  0  0  0  0  0  0  0  0
  -21.8830  -13.8070   22.2250 H   0  0  0  0  0  0  0  0  0  0  0  0
  -26.3970  -15.4610   20.5090 N   0  0  0  0  0  0  0  0  0  0  0  0
  -25.7250  -16.1770   20.7640 H   0  0  0  0  0  0  0  0  0  0  0  0
  -27.2580  -15.8280   20.1350 H   0  0  0  0  0  0  0  0  0  0  0  0
  -27.0250  -19.3100   20.1200 C   0  0  0  0  0  3  0  0  0  0  0  0
  -26.3210  -19.5240   21.1520 N   0  0  0  0  0  0  0  0  0  0  0  0
  -26.8690  -19.5310   22.0090 H   0  0  0  0  0  0  0  0  0  0  0  0
  -29.9640  -23.8550   19.4760 C   0  0  0  0  0  3  0  0  0  0  0  0
  -28.8580  -24.7260   18.6730 C   0  0  0  0  0  3  0  0  0  0  0  0
  -28.7940  -26.2200   18.7980 O   0  0  0  0  0  0  0  0  0  0  0  0
  -24.5210  -30.7340   22.5210 C   0  0  0  0  0  0  0  0  0  0  0  0
  -27.5560  -26.9040   18.8630 C   0  0  0  0  0  0  0  0  0  0  0  0
  -23.4240  -29.3640   20.7850 C   0  0  0  0  0  3  0  0  0  0  0  0
  -24.9880  -28.1840   19.1290 C   0  0  0  0  0  0  0  0  0  0  0  0
  -25.8880  -30.0380   20.5360 C   0  0  0  0  0  2  0  0  0  0  0  0
  -26.1150  -28.7600   19.7320 C   0  0  0  0  0  0  0  0  0  0  0  0
  -27.3920  -28.1320   19.5900 C   0  0  0  0  0  3  0  0  0  0  0  0
  -26.3950  -26.3910   18.2390 C   0  0  0  0  0  3  0  0  0  0  0  0
  -25.1330  -27.0130   18.3690 C   0  0  0  0  0  3  0  0  0  0  0  0
  -23.6500  -28.8750   19.3300 C   0  0  0  0  0  2  0  0  0  0  0  0
  -24.6300  -30.0610   21.3370 N   0  0  0  0  0  0  0  0  0  0  0  0
  -23.4420  -30.8020   23.1270 O   0  0  0  0  0  0  0  0  0  0  0  0
  -22.9550  -28.1720   21.6540 C   0  0  0  0  0  0  0  0  0  0  0  0
  -21.6660  -27.8090   21.5400 N   0  0  0  0  0  0  0  0  0  0  0  0
  -23.7490  -27.5770   22.3890 O   0  0  0  0  0  0  0  0  0  0  0  0
  -21.0750  -28.3500   20.9250 H   0  0  0  0  0  0  0  0  0  0  0  0
  -18.5380  -26.0370   21.9540 C   0  0  0  0  0  0  0  0  0  0  0  0
  -21.0250  -26.6900   22.2330 C   0  0  0  0  0  3  0  0  0  0  0  0
  -21.3460  -25.3470   21.5360 C   0  0  0  0  0  2  0  0  0  0  0  0
  -20.2920  -24.9330   20.5030 C   0  0  0  0  0  2  0  0  0  0  0  0
  -18.9170  -24.7970   21.1630 C   0  0  0  0  0  2  0  0  0  0  0  0
  -19.5260  -26.9340   22.4440 C   0  0  0  0  0  0  0  0  0  0  0  0
  -19.1140  -28.0890   23.1430 C   0  0  0  0  0  3  0  0  0  0  0  0
  -17.7490  -28.3510   23.3630 C   0  0  0  0  0  3  0  0  0  0  0  0
  -16.7770  -27.4510   22.8910 C   0  0  0  0  0  3  0  0  0  0  0  0
  -17.1720  -26.2970   22.1910 C   0  0  0  0  0  3  0  0  0  0  0  0
  -25.7410  -31.4720   23.1590 C   0  0  0  0  0  3  0  0  0  0  0  0
  -26.4710  -30.6180   24.2680 C   0  0  1  0  0  0  0  0  0  0  0  0
  -25.5220  -30.0620   25.3560 C   0  0  0  0  0  1  0  0  0  0  0  0
  -27.2130  -29.4200   23.6340 C   0  0  0  0  0  1  0  0  0  0  0  0
  -27.5500  -31.4820   24.9630 C   0  0  0  0  0  1  0  0  0  0  0  0
  -25.2530  -32.7390   23.7230 N   0  0  0  0  0  0  0  0  0  0  0  0
  -25.4660  -33.9480   23.1850 C   0  0  0  0  0  0  0  0  0  0  0  0
  -26.1670  -34.1150   22.1820 O   0  0  0  0  0  0  0  0  0  0  0  0
  -24.6370  -32.6720   24.5200 H   0  0  0  0  0  0  0  0  0  0  0  0
  -23.5590  -35.5800   23.0640 C   0  0  0  0  0  1  0  0  0  0  0  0
  -24.8020  -35.1610   23.8650 C   0  0  0  0  0  3  0  0  0  0  0  0
  -26.7770  -36.0860   24.9930 C   0  0  0  0  0  1  0  0  0  0  0  0
  -25.7110  -36.3180   24.0220 N   0  0  0  0  0  0  0  0  0  0  0  0
  -25.1940  -37.1450   24.3080 H   0  0  0  0  0  0  0  0  0  0  0  0
  1  5  1  0
  3  8  1  0
  5 48  1  0
  6  2  1  0
  6  4  1  0
  7  3  1  0
  7  6  1  0
  7  5  1  0
  8 51  1  0
  8  2  1  0
  9  1  1  0
  9  4  1  0
  9 18  1  0
 10 16  1  0
 10 18  1  0
 11 16  1  0
 12 13  1  0
 12 11  1  0
 14 13  1  0
 14 23  1  0
 14 15  1  0
 16 15  1  0
 17 10  2  0
 18 19  1  0
 20 45  1  0
 20 21  2  0
 21 40  1  0
 22 25  1  0
 22 21  1  0
 23 24  1  0
 23 20  1  0
 24 22  2  0
 25 26  1  0
 26 27  2  0
 28 27  1  0
 29 28  2  0
 30 29  1  0
 30 25  2  0
 31 28  1  0
 31 32  1  0
 32 33  1  0
 33 34  2  0
 35 34  1  0
 35 39  1  0
 36 35  2  0
 37 32  2  0
 37 36  1  0
 38 37  1  0
 40 41  1  0
 41 44  1  0
 41 43  1  0
 42 40  2  0
 45 46  1  0
 47 45  1  0
 48 49  2  0
 49 50  1  0
 52 53  1  0
 52 51  2  0
 53 55  1  0
 54 65  2  0
 55 60  1  0
 56 64  1  0
 56 66  1  0
 57 63  1  0
 57 59  1  0
 58 64  1  0
 59 58  1  0
 60 59  2  0
 61 62  1  0
 61 55  2  0
 62 57  2  0
 63 56  1  0
 64 54  1  0
 66 68  2  0
 67 66  1  0
 69 67  1  0
 70 79  2  0
 70 75  1  0
 71 67  1  0
 71 75  1  0
 72 71  1  0
 73 74  1  0
 73 72  1  0
 74 70  1  0
 75 76  2  0
 76 77  1  0
 78 77  2  0
 79 78  1  0
 80 54  1  0
 80 85  1  0
 80 81  1  0
 81 84  1  1
 81 82  1  0
 83 81  1  0
 85 88  1  0
 86 85  1  0
 86 90  1  0
 87 86  2  0
 90 89  1  0
 90 92  1  0
 92 93  1  0
 92 91  1  0
M  ISO  4  10 100  18 100  52 101  53 101
M  END
>  <TORSDO>  (13) 
F 19

>  <SCORE>  (13) 
-6.938

>  <name>  (13) 
12

>  <ligand_id>  (13) 
12

>  <original_smiles>  (13) 
[H]N=C([H])C1([H])C([H])([H])C([H])(N([H])C(=O)N2C([H])([H])C([H])([H])C([H])([H])C([H])(n3nc(-c4c([H])c([H])c(Oc5c([H])c([H])c(F)c([H])c5F)c([H])c4[H])c(C(=O)N([H])[H])c3N([H])[H])C2([H])[H])C([H])([H])C2([H])C([H])([H])C([H])(C([H])([H])C([H])([H])Oc3c([H])c([H])c4c(c3[H])C([H])([H])N(C(=O)C([H])(N([H])C(=O)C([H])(N([H])C([H])([H])[H])C([H])([H])[H])C(C([H])([H])[H])(C([H])([H])[H])C([H])([H])[H])C([H])(C(=O)N([H])C3([H])c5c([H])c([H])c([H])c([H])c5C([H])([H])C([H])([H])C3([H])[H])C4([H])[H])C([H])([H])C12[H]

>  <smiles>  (13) 
[H]N=C([H])C1([H])C([H])([H])C([H])(N([H])C(=O)N2C([H])([H])C([H])([H])C([H])([H])C([H])(n3nc(-c4c([H])c([H])c(Oc5c([H])c([H])c(F)c([H])c5F)c([H])c4[H])c(C(=O)N([H])[H])c3N([H])[H])C2([H])[H])C([H])([H])C2([H])C([H])([H])C([H])(C([H])([H])C([H])([H])Oc3c([H])c([H])c4c(c3[H])C([H])([H])N(C(=O)C([H])(N([H])C(=O)C([H])(N([H])C([H])([H])[H])C([H])([H])[H])C(C([H])([H])[H])(C([H])([H])[H])C([H])([H])[H])C([H])(C(=O)N([H])C3([H])c5c([H])c([H])c([H])c([H])c5C([H])([H])C([H])([H])C3([H])[H])C4([H])[H])C([H])([H])C12[H]

$$$$
13:0:0
     RDKit          3D

 93101  0  0  1  0  0  0  0  0999 V2000
  -29.7260  -23.5470   19.3790 C   0  0  0  0  0  2  0  0  0  0  0  0
  -27.5580  -22.9560   18.2880 C   0  0  0  0  0  2  0  0  0  0  0  0
  -29.6140  -22.2870   20.2550 C   0  0  0  0  0  2  0  0  0  0  0  0
  -27.4710  -21.7040   19.1840 C   0  0  0  0  0  2  0  0  0  0  0  0
  -28.3410  -24.0840   18.9810 C   0  0  0  0  0  3  0  0  0  0  0  0
  -28.8170  -21.2180   19.5920 N   0  0  2  0  0  4  0  0  0  0  0  0
  -29.2970  -20.9750   18.7380 H   0  0  0  0  0  0  0  0  0  0  0  0
  -28.4320  -25.3510   18.1060 C   0  0  0  0  0  2  0  0  0  0  0  0
  -28.9650  -26.5880   18.8560 C   0  0  0  0  0  2  0  0  0  0  0  0
  -28.3760  -26.7830   20.1440 O   0  0  0  0  0  0  0  0  0  0  0  0
  -24.5790  -31.9190   23.2670 C   0  0  0  0  0  0  0  0  0  0  0  0
  -27.1970  -27.4850   20.1690 C   0  0  0  0  0  0  0  0  0  0  0  0
  -23.3590  -30.5120   21.6370 C   0  0  0  0  0  3  0  0  0  0  0  0
  -24.7990  -28.9660   20.2170 C   0  0  0  0  0  0  0  0  0  0  0  0
  -25.8830  -30.8680   21.4240 C   0  0  0  0  0  2  0  0  0  0  0  0
  -25.9600  -29.4950   20.7930 C   0  0  0  0  0  0  0  0  0  0  0  0
  -27.1620  -28.7580   20.7770 C   0  0  0  0  0  3  0  0  0  0  0  0
  -26.0110  -26.9460   19.6290 C   0  0  0  0  0  3  0  0  0  0  0  0
  -24.8160  -27.6850   19.6400 C   0  0  0  0  0  3  0  0  0  0  0  0
  -23.5580  -29.8260   20.2610 C   0  0  0  0  0  2  0  0  0  0  0  0
  -24.6250  -31.1140   22.1680 N   0  0  0  0  0  0  0  0  0  0  0  0
  -23.5030  -32.2000   23.8110 O   0  0  0  0  0  0  0  0  0  0  0  0
  -22.7090  -29.4990   22.6060 C   0  0  0  0  0  0  0  0  0  0  0  0
  -21.3850  -29.3180   22.4790 N   0  0  0  0  0  0  0  0  0  0  0  0
  -23.3930  -28.8790   23.4240 O   0  0  0  0  0  0  0  0  0  0  0  0
  -20.8970  -29.8710   21.7870 H   0  0  0  0  0  0  0  0  0  0  0  0
  -18.0120  -28.1260   22.9650 C   0  0  0  0  0  0  0  0  0  0  0  0
  -20.5660  -28.3890   23.2540 C   0  0  0  0  0  3  0  0  0  0  0  0
  -20.6750  -26.9520   22.6930 C   0  0  0  0  0  2  0  0  0  0  0  0
  -19.5800  -26.6170   21.6750 C   0  0  0  0  0  2  0  0  0  0  0  0
  -18.1940  -26.7700   22.3070 C   0  0  0  0  0  2  0  0  0  0  0  0
  -19.1260  -28.8940   23.3950 C   0  0  0  0  0  0  0  0  0  0  0  0
  -18.9020  -30.1650   23.9690 C   0  0  0  0  0  3  0  0  0  0  0  0
  -17.5950  -30.6680   24.1170 C   0  0  0  0  0  3  0  0  0  0  0  0
  -16.4950  -29.8960   23.7040 C   0  0  0  0  0  3  0  0  0  0  0  0
  -16.7040  -28.6270   23.1350 C   0  0  0  0  0  3  0  0  0  0  0  0
  -25.8730  -32.5430   23.8790 C   0  0  0  0  0  3  0  0  0  0  0  0
  -25.5720  -33.9430   24.2100 N   0  0  0  0  0  0  0  0  0  0  0  0
  -25.9050  -34.9920   23.4460 C   0  0  0  0  0  0  0  0  0  0  0  0
  -26.5700  -34.8840   22.4120 O   0  0  0  0  0  0  0  0  0  0  0  0
  -24.9780  -34.1030   25.0110 H   0  0  0  0  0  0  0  0  0  0  0  0
  -24.1780  -36.7860   23.1020 C   0  0  0  0  0  1  0  0  0  0  0  0
  -25.4240  -36.3810   23.9040 C   0  0  0  0  0  3  0  0  0  0  0  0
  -27.5700  -37.2610   24.7110 C   0  0  0  0  0  1  0  0  0  0  0  0
  -26.4580  -37.4320   23.7790 N   0  0  0  0  0  0  0  0  0  0  0  0
  -26.0560  -38.3530   23.9290 H   0  0  0  0  0  0  0  0  0  0  0  0
  -26.3980  -31.7680   25.1480 C   0  0  1  0  0  0  0  0  0  0  0  0
  -25.3120  -31.5330   26.2240 C   0  0  0  0  0  1  0  0  0  0  0  0
  -26.9700  -30.3890   24.7450 C   0  0  0  0  0  1  0  0  0  0  0  0
  -27.5580  -32.5560   25.8030 C   0  0  0  0  0  1  0  0  0  0  0  0
  -28.7370  -19.9660   20.3920 C   0  0  0  0  0  2  0  0  0  0  0  0
  -30.0830  -19.2180   20.4860 C   0  0  0  0  0  2  0  0  0  0  0  0
  -29.9710  -17.8600   21.1960 C   0  0  0  0  0  2  0  0  0  0  0  0
  -31.3430  -17.1800   21.3340 C   0  0  0  0  0  2  0  0  0  0  0  0
  -31.3020  -15.8290   22.0670 C   0  0  0  0  0  2  0  0  0  0  0  0
  -30.6940  -14.2180   20.2600 C   0  0  0  0  0  0  0  0  0  0  0  0
  -30.1890  -12.2190   18.9080 C   0  0  0  0  0  2  0  0  0  0  0  0
  -29.1910  -12.4980   17.7720 C   0  0  0  0  0  2  0  0  0  0  0  0
  -27.7430  -12.3670   18.2760 C   0  0  0  0  0  2  0  0  0  0  0  0
  -27.4930  -13.1740   19.5750 C   0  0  0  0  0  3  0  0  0  0  0  0
  -28.5860  -12.8800   20.6240 C   0  0  0  0  0  2  0  0  0  0  0  0
  -29.9070  -13.1420   20.0170 N   0  0  0  0  0  0  0  0  0  0  0  0
  -31.6460  -14.5410   19.5420 O   0  0  0  0  0  0  0  0  0  0  0  0
  -30.4450  -14.8390   21.4180 N   0  0  0  0  0  0  0  0  0  0  0  0
  -29.6610  -14.4900   21.9510 H   0  0  0  0  0  0  0  0  0  0  0  0
  -25.1280  -13.8120   20.3760 C   0  0  0  0  0  0  0  0  0  0  0  0
  -24.0680  -13.0520   20.7920 C   0  0  0  0  0  0  0  0  0  0  0  0
  -24.5140  -11.6960   20.7480 C   0  0  0  0  0  0  0  0  0  0  0  0
  -26.1550  -12.9200   20.1080 N   0  0  0  0  0  0  0  0  0  0  0  0
  -25.7900  -11.6420   20.3870 N   0  0  0  0  0  0  0  0  0  0  0  0
  -23.7840  -10.4410   20.9730 C   0  0  0  0  0  0  0  0  0  0  0  0
  -24.2500   -9.4690   21.8850 C   0  0  0  0  0  3  0  0  0  0  0  0
  -23.5210   -8.2790   22.0970 C   0  0  0  0  0  3  0  0  0  0  0  0
  -22.3120   -8.0530   21.3970 C   0  0  0  0  0  0  0  0  0  0  0  0
  -21.8650   -9.0150   20.4740 C   0  0  0  0  0  3  0  0  0  0  0  0
  -22.5950  -10.1950   20.2590 C   0  0  0  0  0  3  0  0  0  0  0  0
  -21.5510   -6.9160   21.5190 O   0  0  0  0  0  0  0  0  0  0  0  0
  -21.5580   -6.1660   22.6680 C   0  0  0  0  0  0  0  0  0  0  0  0
  -21.2290   -6.7220   23.9230 C   0  0  0  0  0  3  0  0  0  0  0  0
  -21.1810   -5.9000   25.0670 C   0  0  0  0  0  3  0  0  0  0  0  0
  -21.4510   -4.5230   24.9570 C   0  0  0  0  0  0  0  0  0  0  0  0
  -21.7730   -3.9660   23.7060 C   0  0  0  0  0  3  0  0  0  0  0  0
  -21.8230   -4.7850   22.5650 C   0  0  0  0  0  0  0  0  0  0  0  0
  -22.1130   -4.2390   21.3590 F   0  0  0  0  0  0  0  0  0  0  0  0
  -21.3970   -3.7310   26.0530 F   0  0  0  0  0  0  0  0  0  0  0  0
  -22.6880  -13.5440   21.1210 C   0  0  0  0  0  0  0  0  0  0  0  0
  -21.9910  -12.8580   22.0180 N   0  0  0  0  0  0  0  0  0  0  0  0
  -22.2380  -14.5730   20.6170 O   0  0  0  0  0  0  0  0  0  0  0  0
  -22.3670  -12.0240   22.4460 H   0  0  0  0  0  0  0  0  0  0  0  0
  -21.0650  -13.1690   22.2810 H   0  0  0  0  0  0  0  0  0  0  0  0
  -25.3020  -15.1810   20.1860 N   0  0  0  0  0  0  0  0  0  0  0  0
  -24.5530  -15.8490   20.3290 H   0  0  0  0  0  0  0  0  0  0  0  0
  -26.1510  -15.6050   19.8360 H   0  0  0  0  0  0  0  0  0  0  0  0
  1  3  1  0
  2  5  1  0
  2  4  1  0
  4  6  1  0
  5  8  1  0
  5  1  1  0
  6  3  1  0
  6 51  1  0
  6  7  1  6
  8  9  1  0
  9 10  1  0
 10 12  1  0
 11 22  2  0
 12 17  1  0
 13 21  1  0
 13 23  1  0
 14 20  1  0
 14 16  1  0
 15 21  1  0
 16 15  1  0
 17 16  2  0
 18 19  1  0
 18 12  2  0
 19 14  2  0
 20 13  1  0
 21 11  1  0
 23 25  2  0
 24 23  1  0
 26 24  1  0
 27 36  2  0
 27 32  1  0
 28 24  1  0
 28 32  1  0
 29 28  1  0
 30 31  1  0
 30 29  1  0
 31 27  1  0
 32 33  2  0
 33 34  1  0
 35 34  2  0
 36 35  1  0
 37 11  1  0
 37 38  1  0
 37 47  1  0
 38 41  1  0
 39 43  1  0
 39 38  1  0
 40 39  2  0
 43 42  1  0
 45 43  1  0
 45 46  1  0
 45 44  1  0
 47 50  1  1
 47 48  1  0
 49 47  1  0
 51 52  1  0
 52 53  1  0
 53 54  1  0
 54 55  1  0
 56 64  1  0
 57 62  1  0
 58 59  1  0
 58 57  1  0
 60 59  1  0
 60 69  1  0
 60 61  1  0
 62 56  1  0
 62 61  1  0
 63 56  2  0
 64 65  1  0
 64 55  1  0
 66 67  2  0
 67 86  1  0
 68 67  1  0
 68 71  1  0
 69 66  1  0
 69 70  1  0
 70 68  2  0
 71 72  1  0
 72 73  2  0
 74 77  1  0
 74 73  1  0
 75 74  2  0
 76 75  1  0
 76 71  2  0
 77 78  1  0
 78 79  1  0
 79 80  2  0
 81 80  1  0
 81 85  1  0
 82 81  2  0
 83 78  2  0
 83 82  1  0
 84 83  1  0
 86 87  1  0
 87 90  1  0
 87 89  1  0
 88 86  2  0
 91 92  1  0
 91 66  1  0
 93 91  1  0
M  ISO  4   9 101  10 101  56 100  64 100
M  END
>  <TORSDO>  (14) 
F 23

>  <SCORE>  (14) 
-12.430

>  <name>  (14) 
13

>  <ligand_id>  (14) 
13

>  <original_smiles>  (14) 
[H]c1c([H])c([H])c2c(c1[H])C([H])([H])C([H])([H])C([H])([H])C2([H])N([H])C(=O)C1([H])N(C(=O)C([H])(N([H])C(=O)C([H])(N([H])C([H])([H])[H])C([H])([H])[H])C(C([H])([H])[H])(C([H])([H])[H])C([H])([H])[H])C([H])([H])c2c([H])c(OC([H])([H])C([H])([H])C3([H])C([H])([H])C([H])([H])[N+]([H])(C([H])([H])C([H])([H])C([H])([H])C([H])([H])C([H])([H])N([H])C(=O)N4C([H])([H])C([H])([H])C([H])([H])C([H])(n5nc(-c6c([H])c([H])c(Oc7c([H])c([H])c(F)c([H])c7F)c([H])c6[H])c(C(=O)N([H])[H])c5N([H])[H])C4([H])[H])C([H])([H])C3([H])[H])c([H])c([H])c2C1([H])[H]

>  <smiles>  (14) 
[H]c1c([H])c([H])c2c(c1[H])C([H])([H])C([H])([H])C([H])([H])C2([H])N([H])C(=O)C1([H])N(C(=O)C([H])(N([H])C(=O)C([H])(N([H])C([H])([H])[H])C([H])([H])[H])C(C([H])([H])[H])(C([H])([H])[H])C([H])([H])[H])C([H])([H])c2c([H])c(OC([H])([H])C([H])([H])C3([H])C([H])([H])C([H])([H])[N+]([H])(C([H])([H])C([H])([H])C([H])([H])C([H])([H])C([H])([H])N([H])C(=O)N4C([H])([H])C([H])([H])C([H])([H])C([H])(n5nc(-c6c([H])c([H])c(Oc7c([H])c([H])c(F)c([H])c7F)c([H])c6[H])c(C(=O)N([H])[H])c5N([H])[H])C4([H])[H])C([H])([H])C3([H])[H])c([H])c([H])c2C1([H])[H]

$$$$
15:0:0
     RDKit          3D

 97 98  0  0  1  0  0  0  0  0999 V2000
  -26.0010  -14.4190   19.5530 C   0  0  0  0  0  1  0  0  0  0  0  0
  -26.4350  -17.8090   20.2870 C   0  0  0  0  0  3  0  0  0  0  0  0
  -27.8750  -17.3250   18.8910 C   0  0  0  0  0  3  0  0  0  0  0  0
  -27.0520  -19.2990   20.3940 C   0  0  0  0  0  3  0  0  0  0  0  0
  -28.4900  -18.8130   18.9960 C   0  0  0  0  0  3  0  0  0  0  0  0
  -26.7290  -16.4530   19.5450 C   0  0  0  0  0  3  0  0  0  0  0  0
  -28.2380  -20.1270   19.7980 C   0  0  0  0  0  3  0  0  0  0  0  0
  -28.8240  -22.1410   19.7390 C   0  0  0  0  0 15  0  0  0  0  0  0
  -29.9010  -23.7050   20.3040 O   0  0  0  0  0  1  0  0  0  0  0  0
  -27.4830  -30.1120   24.6450 C   0  0  0  0  0  0  0  0  0  0  0  0
  -29.6170  -25.2910   20.6510 C   0  0  0  0  0  0  0  0  0  0  0  0
  -26.5570  -29.3400   22.5290 C   0  0  0  0  0  3  0  0  0  0  0  0
  -28.0550  -27.9190   20.9360 C   0  0  0  0  0  0  0  0  0  0  0  0
  -29.0890  -28.9580   22.9190 C   0  0  0  0  0  2  0  0  0  0  0  0
  -29.0780  -27.7350   21.8640 C   0  0  0  0  0  0  0  0  0  0  0  0
  -29.8770  -26.4350   21.7070 C   0  0  0  0  0  3  0  0  0  0  0  0
  -28.7650  -25.8630   19.7170 C   0  0  0  0  0  3  0  0  0  0  0  0
  -27.9870  -27.0360   19.8590 C   0  0  0  0  0  3  0  0  0  0  0  0
  -27.0250  -29.0430   21.0790 C   0  0  0  0  0  2  0  0  0  0  0  0
  -27.7410  -29.5020   23.4280 N   0  0  0  0  0  0  0  0  0  0  0  0
  -26.3310  -30.4350   24.9920 O   0  0  0  0  0  0  0  0  0  0  0  0
  -25.5830  -28.2400   23.0360 C   0  0  0  0  0  0  0  0  0  0  0  0
  -24.2960  -28.2920   22.6410 N   0  0  0  0  0  0  0  0  0  0  0  0
  -26.0010  -27.3500   23.7810 O   0  0  0  0  0  0  0  0  0  0  0  0
  -24.0080  -29.0600   22.0520 H   0  0  0  0  0  0  0  0  0  0  0  0
  -20.7840  -27.4360   22.2580 C   0  0  0  0  0  0  0  0  0  0  0  0
  -23.2680  -27.3000   22.9770 C   0  0  0  0  0  3  0  0  0  0  0  0
  -23.3560  -26.0690   22.0440 C   0  0  0  0  0  2  0  0  0  0  0  0
  -22.4420  -26.1750   20.8190 C   0  0  0  0  0  2  0  0  0  0  0  0
  -20.9790  -26.3120   21.2530 C   0  0  0  0  0  2  0  0  0  0  0  0
  -21.8610  -27.9100   23.0550 C   0  0  0  0  0  0  0  0  0  0  0  0
  -21.6280  -28.9740   23.9540 C   0  0  0  0  0  3  0  0  0  0  0  0
  -20.3540  -29.5620   24.0590 C   0  0  0  0  0  3  0  0  0  0  0  0
  -19.2910  -29.0840   23.2740 C   0  0  0  0  0  3  0  0  0  0  0  0
  -19.5060  -28.0190   22.3800 C   0  0  0  0  0  3  0  0  0  0  0  0
  -28.6110  -30.4500   25.6660 C   0  0  0  0  0  3  0  0  0  0  0  0
  -28.2110  -31.6610   26.4220 N   0  0  0  0  0  0  0  0  0  0  0  0
  -28.6770  -32.9020   26.2210 C   0  0  0  0  0  0  0  0  0  0  0  0
  -29.5450  -33.1520   25.3830 O   0  0  0  0  0  0  0  0  0  0  0  0
  -27.4600  -31.5410   27.0860 H   0  0  0  0  0  0  0  0  0  0  0  0
  -27.0130  -34.7990   26.2960 C   0  0  0  0  0  1  0  0  0  0  0  0
  -28.0970  -34.0480   27.0840 C   0  0  0  0  0  3  0  0  0  0  0  0
  -30.0270  -34.4570   28.5520 C   0  0  0  0  0  1  0  0  0  0  0  0
  -29.1170  -35.0130   27.5540 N   0  0  0  0  0  0  0  0  0  0  0  0
  -28.6750  -35.8370   27.9530 H   0  0  0  0  0  0  0  0  0  0  0  0
  -28.8910  -29.2780   26.6860 C   0  0  1  0  0  0  0  0  0  0  0  0
  -27.6280  -28.7700   27.4230 C   0  0  0  0  0  1  0  0  0  0  0  0
  -29.5300  -28.0620   25.9840 C   0  0  0  0  0  1  0  0  0  0  0  0
  -29.9080  -29.7430   27.7540 C   0  0  0  0  0  1  0  0  0  0  0  0
  -26.1240  -13.7270   18.0140 C   0  0  0  0  0  2  0  0  0  0  0  0
  -28.8350  -14.0040   20.5180 C   0  0  0  0  0  3  0  0  0  0  0  0
  -28.3920  -13.7460   18.7050 C   0  0  0  0  0  2  0  0  0  0  0  0
  -28.6630  -12.8280   21.9700 C   0  0  0  0  0  3  0  0  0  0  0  0
  -26.8900  -10.4840   18.6460 C   0  0  0  0  0 15  0  0  0  0  0  0
  -26.8530  -10.0810   20.6440 C   0  0  0  0  0  1  0  0  0  0  0  0
  -27.2110  -12.4790   17.9070 C   0  0  0  0  0  2  0  0  0  0  0  0
  -27.6900  -11.1910   22.1610 C   0  0  0  0  0  2  0  0  0  0  0  0
  -28.4910  -10.4990   23.3520 C   0  0  0  0  0  2  0  0  0  0  0  0
  -29.9850  -10.9590   23.7210 C   0  0  0  0  0  2  0  0  0  0  0  0
  -31.1640  -11.5350   21.4970 C   0  0  0  0  0  0  0  0  0  0  0  0
  -31.2450  -10.3820   19.3160 C   0  0  0  0  0  2  0  0  0  0  0  0
  -30.5460  -11.2440   18.2980 C   0  0  0  0  0  2  0  0  0  0  0  0
  -29.0910  -11.1950   18.4220 C   0  0  0  0  0  2  0  0  0  0  0  0
  -28.4220  -11.4260   19.9480 C   0  0  0  0  0  2  0  0  0  0  0  0
  -29.3770  -10.2800   20.5450 C   0  0  0  0  0  2  0  0  0  0  0  0
  -30.7000  -10.6830   20.6000 N   0  0  0  0  0  0  0  0  0  0  0  0
  -31.9560  -12.4290   21.1970 O   0  0  0  0  0  0  0  0  0  0  0  0
  -31.0800  -10.9290   22.7040 N   0  0  0  0  0  0  0  0  0  0  0  0
  -31.5120  -10.0160   22.6540 H   0  0  0  0  0  0  0  0  0  0  0  0
  -25.4370  -13.0720   21.6920 C   0  0  0  0  0  3  0  0  0  0  0  0
  -23.8930  -12.2720   21.6300 C   0  0  0  0  0  0  0  0  0  0  0  0
  -23.8620  -10.8040   20.8440 C   0  0  0  0  0  3  0  0  0  0  0  0
  -26.5270  -11.8720   20.4470 N   0  0  0  0  0  1  0  0  0  0  0  0
  -25.0800  -10.7160   20.0520 N   0  0  0  0  0  1  0  0  0  0  0  0
  -23.4710   -9.3310   21.3390 C   0  0  0  0  0  0  0  0  0  0  0  0
  -24.0570   -8.4100   22.3190 C   0  0  0  0  0  3  0  0  0  0  0  0
  -23.5000   -7.1150   22.6380 C   0  0  0  0  0  3  0  0  0  0  0  0
  -22.2970   -6.6960   22.0160 C   0  0  0  0  0  0  0  0  0  0  0  0
  -21.7750   -7.5410   21.0260 C   0  0  0  0  0  3  0  0  0  0  0  0
  -22.3570   -8.7830   20.6900 C   0  0  0  0  0  3  0  0  0  0  0  0
  -21.5960   -5.5160   22.2150 O   0  0  0  0  0  0  0  0  0  0  0  0
  -21.5670   -4.7880   23.3850 C   0  0  0  0  0  0  0  0  0  0  0  0
  -21.0440   -5.2990   24.5940 C   0  0  0  0  0  3  0  0  0  0  0  0
  -20.9850   -4.4780   25.7430 C   0  0  0  0  0  3  0  0  0  0  0  0
  -21.4390   -3.1470   25.6890 C   0  0  0  0  0  0  0  0  0  0  0  0
  -21.9320   -2.6250   24.4820 C   0  0  0  0  0  3  0  0  0  0  0  0
  -21.9830   -3.4400   23.3340 C   0  0  0  0  0  0  0  0  0  0  0  0
  -22.4320   -2.9110   22.1690 F   0  0  0  0  0  0  0  0  0  0  0  0
  -21.3980   -2.3650   26.7950 F   0  0  0  0  0  0  0  0  0  0  0  0
  -22.5280  -12.6110   21.8480 C   0  0  0  0  0  0  0  0  0  0  0  0
  -21.8350  -11.6950   22.5130 N   0  0  0  0  0  0  0  0  0  0  0  0
  -22.0460  -13.4910   21.1650 O   0  0  0  0  0  0  0  0  0  0  0  0
  -22.3040  -10.9350   22.9860 H   0  0  0  0  0  0  0  0  0  0  0  0
  -20.8350  -11.7960   22.6080 H   0  0  0  0  0  0  0  0  0  0  0  0
  -25.7370  -14.3070   22.0460 N   0  0  0  0  0  0  0  0  0  0  0  0
  -25.1060  -14.9790   21.6330 H   0  0  0  0  0  0  0  0  0  0  0  0
  -26.6700  -14.5260   21.7250 H   0  0  0  0  0  0  0  0  0  0  0  0
  2  4  1  0
  3  5  2  0
  3  6  1  0
  5  7  1  0
  6  2  2  0
  7  4  2  0
  9 11  1  0
 10 21  2  0
 11 16  1  0
 12 22  1  0
 12 20  1  0
 13 19  1  0
 13 15  1  0
 14 20  1  0
 15 14  1  0
 16 15  2  0
 17 18  1  0
 17 11  2  0
 18 13  2  0
 19 12  1  0
 20 10  1  0
 22 24  2  0
 23 22  1  0
 25 23  1  0
 26 35  2  0
 26 31  1  0
 27 23  1  0
 27 31  1  0
 28 27  1  0
 29 30  1  0
 29 28  1  0
 30 26  1  0
 31 32  2  0
 32 33  1  0
 34 33  2  0
 35 34  1  0
 36 10  1  0
 36 37  1  0
 36 46  1  0
 37 40  1  0
 38 37  1  0
 38 42  1  0
 39 38  2  0
 42 41  1  0
 42 44  1  0
 44 45  1  0
 44 43  1  0
 46 47  1  1
 46 49  1  0
 48 46  1  0
 50  1  1  0
 51 53  2  0
 52 51  1  0
 53 57  1  0
 56 50  1  0
 56 52  1  0
 57 58  1  0
 58 59  1  0
 60 68  1  0
 61 66  1  0
 62 63  1  0
 62 61  1  0
 63 64  1  0
 64 65  1  0
 65 66  1  0
 66 60  1  0
 67 60  2  0
 68 59  1  0
 69 68  1  0
 70 95  1  0
 71 70  2  0
 71 90  1  0
 72 74  1  0
 72 75  1  0
 72 71  1  0
 73 55  1  0
 75 76  1  0
 76 77  2  0
 78 81  1  0
 78 77  1  0
 79 78  2  0
 80 79  1  0
 80 75  2  0
 81 82  1  0
 82 83  1  0
 83 84  2  0
 85 84  1  0
 85 89  1  0
 86 85  2  0
 87 82  2  0
 87 86  1  0
 88 87  1  0
 90 91  1  0
 91 94  1  0
 91 93  1  0
 92 90  2  0
 96 95  1  0
 97 95  1  0
M  ISO  4   8 101   9 101  60 100  68 100
M  END
>  <TORSDO>  (15) 
F 22

>  <SCORE>  (15) 
-1.071

>  <name>  (15) 
15

>  <ligand_id>  (15) 
15

>  <original_smiles>  (15) 
[H]c1c([H])c([H])c2c(c1[H])C([H])([H])C([H])([H])C([H])([H])C2([H])N([H])C(=O)C1([H])N(C(=O)C([H])(N([H])C(=O)C([H])(N([H])C([H])([H])[H])C([H])([H])[H])C(C([H])([H])[H])(C([H])([H])[H])C([H])([H])[H])C([H])([H])c2c([H])c(OC([H])([H])c3c([H])c([H])c(C([H])([H])C([H])([H])C4([H])C([H])([H])C([H])([H])C([H])([H])C([H])(C([H])([H])C([H])([H])N([H])C(=O)N5C([H])([H])C([H])([H])C([H])([H])C([H])(n6nc(-c7c([H])c([H])c(Oc8c([H])c([H])c(F)c([H])c8F)c([H])c7[H])c(C(=O)N([H])[H])c6N([H])[H])C5([H])[H])C([H])([H])C4([H])[H])c([H])c3[H])c([H])c([H])c2C1([H])[H]

>  <smiles>  (15) 
[H]c1c([H])c([H])c2c(c1[H])C([H])([H])C([H])([H])C([H])([H])C2([H])N([H])C(=O)C1([H])N(C(=O)C([H])(N([H])C(=O)C([H])(N([H])C([H])([H])[H])C([H])([H])[H])C(C([H])([H])[H])(C([H])([H])[H])C([H])([H])[H])C([H])([H])c2c([H])c(OC([H])([H])c3c([H])c([H])c(C([H])([H])C([H])([H])C4([H])C([H])([H])C([H])([H])C([H])([H])C([H])(C([H])([H])C([H])([H])N([H])C(=O)N5C([H])([H])C([H])([H])C([H])([H])C([H])(n6nc(-c7c([H])c([H])c(Oc8c([H])c([H])c(F)c([H])c8F)c([H])c7[H])c(C(=O)N([H])[H])c6N([H])[H])C5([H])[H])C([H])([H])C4([H])[H])c([H])c3[H])c([H])c([H])c2C1([H])[H]

$$$$
16:0:0
     RDKit          3D

 94103  0  0  1  0  0  0  0  0999 V2000
  -30.2720  -22.5750   17.3280 C   0  0  0  0  0  3  0  0  0  0  0  0
  -30.1990  -21.2500   17.8050 C   0  0  0  0  0  3  0  0  0  0  0  0
  -31.2890  -21.9350   19.8780 C   0  0  0  0  0  3  0  0  0  0  0  0
  -30.8260  -23.5820   18.1420 C   0  0  0  0  0  0  0  0  0  0  0  0
  -31.3550  -23.2530   19.4020 C   0  0  0  0  0  0  0  0  0  0  0  0
  -30.6840  -20.9320   19.0950 C   0  0  0  0  0  0  0  0  0  0  0  0
  -30.8090  -25.0470   17.7390 C   0  0  0  0  0  2  0  0  0  0  0  0
  -31.8970  -24.3650   20.2660 C   0  0  0  0  0  2  0  0  0  0  0  0
  -30.8560  -25.4850   20.3170 C   0  0  0  0  0  2  0  0  0  0  0  0
  -30.3640  -25.9600   18.9160 C   0  0  0  0  0  3  0  0  0  0  0  0
  -30.5720  -19.5310   19.6670 C   0  0  0  0  0  3  0  0  0  0  0  0
  -29.1900  -18.8690   19.5120 C   0  0  0  0  0  3  0  0  0  0  0  0
  -28.9250  -17.6660   20.4530 C   0  0  0  0  0  2  0  0  0  0  0  0
  -30.1750  -16.9070   20.9580 C   0  0  0  0  0  2  0  0  0  0  0  0
  -30.6530  -14.4910   20.5750 C   0  0  0  0  0  0  0  0  0  0  0  0
  -30.3720  -12.3610   19.3790 C   0  0  0  0  0  2  0  0  0  0  0  0
  -29.4440  -12.6090   18.1740 C   0  0  0  0  0  2  0  0  0  0  0  0
  -27.9690  -12.4570   18.5870 C   0  0  0  0  0  2  0  0  0  0  0  0
  -27.6260  -13.2630   19.8710 C   0  0  0  0  0  3  0  0  0  0  0  0
  -28.6700  -13.0030   20.9820 C   0  0  0  0  0  2  0  0  0  0  0  0
  -30.0000  -13.3120   20.4340 N   0  0  0  0  0  0  0  0  0  0  0  0
  -31.7680  -14.7090   20.0860 O   0  0  0  0  0  0  0  0  0  0  0  0
  -29.9210  -15.4740   21.1250 N   0  0  0  0  0  0  0  0  0  0  0  0
  -29.0390  -15.2000   21.5370 H   0  0  0  0  0  0  0  0  0  0  0  0
  -25.2120  -13.8570   20.5260 C   0  0  0  0  0  0  0  0  0  0  0  0
  -24.1470  -13.0790   20.8890 C   0  0  0  0  0  0  0  0  0  0  0  0
  -24.6220  -11.7300   20.8810 C   0  0  0  0  0  0  0  0  0  0  0  0
  -26.2690  -12.9840   20.3280 N   0  0  0  0  0  0  0  0  0  0  0  0
  -25.9160  -11.7010   20.5980 N   0  0  0  0  0  0  0  0  0  0  0  0
  -23.9070  -10.4640   21.0690 C   0  0  0  0  0  0  0  0  0  0  0  0
  -24.3430   -9.5020   22.0080 C   0  0  0  0  0  3  0  0  0  0  0  0
  -23.6250   -8.3000   22.1850 C   0  0  0  0  0  3  0  0  0  0  0  0
  -22.4580   -8.0500   21.4230 C   0  0  0  0  0  0  0  0  0  0  0  0
  -22.0440   -9.0000   20.4720 C   0  0  0  0  0  3  0  0  0  0  0  0
  -22.7630  -10.1930   20.2930 C   0  0  0  0  0  3  0  0  0  0  0  0
  -21.7140   -6.8970   21.5040 O   0  0  0  0  0  0  0  0  0  0  0  0
  -21.6760   -6.1460   22.6520 C   0  0  0  0  0  0  0  0  0  0  0  0
  -21.2530   -6.6910   23.8840 C   0  0  0  0  0  3  0  0  0  0  0  0
  -21.1630   -5.8670   25.0240 C   0  0  0  0  0  3  0  0  0  0  0  0
  -21.4860   -4.5010   24.9330 C   0  0  0  0  0  0  0  0  0  0  0  0
  -21.9030   -3.9560   23.7060 C   0  0  0  0  0  3  0  0  0  0  0  0
  -21.9930   -4.7750   22.5670 C   0  0  0  0  0  0  0  0  0  0  0  0
  -22.3750   -4.2410   21.3820 F   0  0  0  0  0  0  0  0  0  0  0  0
  -21.3930   -3.7090   26.0270 F   0  0  0  0  0  0  0  0  0  0  0  0
  -22.7420  -13.5440   21.1430 C   0  0  0  0  0  0  0  0  0  0  0  0
  -22.0120  -12.8450   22.0050 N   0  0  0  0  0  0  0  0  0  0  0  0
  -22.3000  -14.5600   20.6120 O   0  0  0  0  0  0  0  0  0  0  0  0
  -22.3800  -12.0120   22.4430 H   0  0  0  0  0  0  0  0  0  0  0  0
  -21.0760  -13.1470   22.2360 H   0  0  0  0  0  0  0  0  0  0  0  0
  -25.3650  -15.2270   20.3310 N   0  0  0  0  0  0  0  0  0  0  0  0
  -24.5750  -15.8600   20.3920 H   0  0  0  0  0  0  0  0  0  0  0  0
  -26.2110  -15.6770   20.0010 H   0  0  0  0  0  0  0  0  0  0  0  0
  -28.8320  -26.1420   18.9080 C   0  0  0  0  0  2  0  0  0  0  0  0
  -28.4830  -26.8880   20.0640 O   0  0  0  0  0  0  0  0  0  0  0  0
  -24.6230  -31.8860   23.2330 C   0  0  0  0  0  0  0  0  0  0  0  0
  -27.2700  -27.5260   20.0780 C   0  0  0  0  0  0  0  0  0  0  0  0
  -23.4000  -30.4930   21.5900 C   0  0  0  0  0  3  0  0  0  0  0  0
  -24.8480  -28.9660   20.1450 C   0  0  0  0  0  0  0  0  0  0  0  0
  -25.9220  -30.8630   21.3790 C   0  0  0  0  0  2  0  0  0  0  0  0
  -26.0030  -29.5030   20.7300 C   0  0  0  0  0  0  0  0  0  0  0  0
  -27.2100  -28.7830   20.7040 C   0  0  0  0  0  3  0  0  0  0  0  0
  -26.1020  -26.9790   19.4990 C   0  0  0  0  0  3  0  0  0  0  0  0
  -24.8900  -27.6960   19.5380 C   0  0  0  0  0  3  0  0  0  0  0  0
  -23.5980  -29.8140   20.2080 C   0  0  0  0  0  2  0  0  0  0  0  0
  -24.6650  -31.0970   22.1240 N   0  0  0  0  0  0  0  0  0  0  0  0
  -23.5470  -32.1560   23.7850 O   0  0  0  0  0  0  0  0  0  0  0  0
  -22.7600  -29.4670   22.5490 C   0  0  0  0  0  0  0  0  0  0  0  0
  -21.4360  -29.2820   22.4290 N   0  0  0  0  0  0  0  0  0  0  0  0
  -23.4510  -28.8390   23.3560 O   0  0  0  0  0  0  0  0  0  0  0  0
  -20.9390  -29.8440   21.7540 H   0  0  0  0  0  0  0  0  0  0  0  0
  -18.0690  -28.0770   22.9400 C   0  0  0  0  0  0  0  0  0  0  0  0
  -20.6270  -28.3390   23.2000 C   0  0  0  0  0  3  0  0  0  0  0  0
  -20.7290  -26.9090   22.6180 C   0  0  0  0  0  2  0  0  0  0  0  0
  -19.6210  -26.5880   21.6080 C   0  0  0  0  0  2  0  0  0  0  0  0
  -18.2420  -26.7320   22.2560 C   0  0  0  0  0  2  0  0  0  0  0  0
  -19.1890  -28.8390   23.3690 C   0  0  0  0  0  0  0  0  0  0  0  0
  -18.9720  -30.1020   23.9620 C   0  0  0  0  0  3  0  0  0  0  0  0
  -17.6680  -30.6010   24.1390 C   0  0  0  0  0  3  0  0  0  0  0  0
  -16.5620  -29.8350   23.7300 C   0  0  0  0  0  3  0  0  0  0  0  0
  -16.7640  -28.5770   23.1360 C   0  0  0  0  0  3  0  0  0  0  0  0
  -25.9160  -32.5130   23.8470 C   0  0  0  0  0  3  0  0  0  0  0  0
  -25.6130  -33.9110   24.1830 N   0  0  0  0  0  0  0  0  0  0  0  0
  -25.9460  -34.9650   23.4250 C   0  0  0  0  0  0  0  0  0  0  0  0
  -26.6090  -34.8640   22.3890 O   0  0  0  0  0  0  0  0  0  0  0  0
  -25.0280  -34.0660   24.9910 H   0  0  0  0  0  0  0  0  0  0  0  0
  -24.2190  -36.7620   23.0820 C   0  0  0  0  0  1  0  0  0  0  0  0
  -25.4610  -36.3530   23.8900 C   0  0  0  0  0  3  0  0  0  0  0  0
  -27.6000  -37.2210   24.7230 C   0  0  0  0  0  1  0  0  0  0  0  0
  -26.4940  -37.4040   23.7850 N   0  0  0  0  0  0  0  0  0  0  0  0
  -26.0910  -38.3220   23.9500 H   0  0  0  0  0  0  0  0  0  0  0  0
  -26.4450  -31.7370   25.1160 C   0  0  1  0  0  0  0  0  0  0  0  0
  -25.3590  -31.4970   26.1910 C   0  0  0  0  0  1  0  0  0  0  0  0
  -27.0250  -30.3610   24.7160 C   0  0  0  0  0  1  0  0  0  0  0  0
  -27.5990  -32.5300   25.7730 C   0  0  0  0  0  1  0  0  0  0  0  0
  1  2  2  0
  1  4  1  0
  2  6  1  0
  4  5  2  0
  5  3  1  0
  5  8  1  0
  6 11  1  0
  6  3  2  0
  7  4  1  0
  7 10  1  0
  8  9  1  0
 10 53  1  0
 10  9  1  0
 12 11  2  0
 12 13  1  0
 13 14  1  0
 14 23  1  0
 15 23  1  0
 16 21  1  0
 17 18  1  0
 17 16  1  0
 19 18  1  0
 19 28  1  0
 19 20  1  0
 21 15  1  0
 21 20  1  0
 22 15  2  0
 23 24  1  0
 25 26  2  0
 26 45  1  0
 27 26  1  0
 27 30  1  0
 28 25  1  0
 28 29  1  0
 29 27  2  0
 30 31  1  0
 31 32  2  0
 33 36  1  0
 33 32  1  0
 34 33  2  0
 35 34  1  0
 35 30  2  0
 36 37  1  0
 37 38  1  0
 38 39  2  0
 40 39  1  0
 40 44  1  0
 41 40  2  0
 42 37  2  0
 42 41  1  0
 43 42  1  0
 45 46  1  0
 46 49  1  0
 46 48  1  0
 47 45  2  0
 50 51  1  0
 50 25  1  0
 52 50  1  0
 53 54  1  0
 54 56  1  0
 55 66  2  0
 56 61  1  0
 57 65  1  0
 57 67  1  0
 58 64  1  0
 58 60  1  0
 59 65  1  0
 60 59  1  0
 61 60  2  0
 62 63  1  0
 62 56  2  0
 63 58  2  0
 64 57  1  0
 65 55  1  0
 67 69  2  0
 68 67  1  0
 70 68  1  0
 71 80  2  0
 71 76  1  0
 72 68  1  0
 72 76  1  0
 73 72  1  0
 74 75  1  0
 74 73  1  0
 75 71  1  0
 76 77  2  0
 77 78  1  0
 79 78  2  0
 80 79  1  0
 81 55  1  0
 81 82  1  0
 81 91  1  0
 82 85  1  0
 83 87  1  0
 83 82  1  0
 84 83  2  0
 87 86  1  0
 89 87  1  0
 89 90  1  0
 89 88  1  0
 91 94  1  1
 91 92  1  0
 93 91  1  0
M  ISO  4  15 100  23 100  53 101  54 101
M  END
>  <TORSDO>  (16) 
F 21

>  <SCORE>  (16) 
-13.459

>  <name>  (16) 
16

>  <ligand_id>  (16) 
16

>  <original_smiles>  (16) 
[H]c1c([H])c([H])c2c(c1[H])C([H])([H])C([H])([H])C([H])([H])C2([H])N([H])C(=O)C1([H])N(C(=O)C([H])(N([H])C(=O)C([H])(N([H])C([H])([H])[H])C([H])([H])[H])C(C([H])([H])[H])(C([H])([H])[H])C([H])([H])[H])C([H])([H])c2c([H])c(OC([H])([H])C3([H])C([H])([H])c4c([H])c([H])c(C([H])([H])C([H])([H])C([H])([H])C([H])([H])N([H])C(=O)N5C([H])([H])C([H])([H])C([H])([H])C([H])(n6nc(-c7c([H])c([H])c(Oc8c([H])c([H])c(F)c([H])c8F)c([H])c7[H])c(C(=O)N([H])[H])c6N([H])[H])C5([H])[H])c([H])c4C([H])([H])C3([H])[H])c([H])c([H])c2C1([H])[H]

>  <smiles>  (16) 
[H]c1c([H])c([H])c2c(c1[H])C([H])([H])C([H])([H])C([H])([H])C2([H])N([H])C(=O)C1([H])N(C(=O)C([H])(N([H])C(=O)C([H])(N([H])C([H])([H])[H])C([H])([H])[H])C(C([H])([H])[H])(C([H])([H])[H])C([H])([H])[H])C([H])([H])c2c([H])c(OC([H])([H])C3([H])C([H])([H])c4c([H])c([H])c(C([H])([H])C([H])([H])C([H])([H])C([H])([H])N([H])C(=O)N5C([H])([H])C([H])([H])C([H])([H])C([H])(n6nc(-c7c([H])c([H])c(Oc8c([H])c([H])c(F)c([H])c8F)c([H])c7[H])c(C(=O)N([H])[H])c6N([H])[H])C5([H])[H])c([H])c4C([H])([H])C3([H])[H])c([H])c([H])c2C1([H])[H]

$$$$
17:0:0
     RDKit          3D

 92100  0  0  1  0  0  0  0  0999 V2000
  -26.0360  -22.6440   18.5990 C   0  0  0  0  0  0  0  0  0  0  0  0
  -27.5740  -22.6660   18.7760 C   0  0  0  0  0  0  0  0  0  0  0  0
  -25.4520  -21.2910   18.1640 C   0  0  0  0  0  2  0  0  0  0  0  0
  -26.4490  -20.6850   17.1540 C   0  0  0  0  0  2  0  0  0  0  0  0
  -27.7980  -20.4080   17.8620 C   0  0  0  0  0  3  0  0  0  0  0  0
  -28.3180  -21.6250   18.5490 N   0  0  0  0  0  0  0  0  0  0  0  0
  -25.2870  -23.6070   18.7220 O   0  0  0  0  0  0  0  0  0  0  0  0
  -28.2990  -24.0390   19.0770 C   0  0  0  0  0  2  0  0  0  0  0  0
  -27.7440  -25.0580   20.1370 C   0  0  0  0  0  2  0  0  0  0  0  0
  -28.1700  -26.4930   20.0490 O   0  0  0  0  0  0  0  0  0  0  0  0
  -24.6170  -31.9240   23.2890 C   0  0  0  0  0  0  0  0  0  0  0  0
  -27.1310  -27.4260   20.0460 C   0  0  0  0  0  0  0  0  0  0  0  0
  -23.3940  -30.5510   21.6550 C   0  0  0  0  0  3  0  0  0  0  0  0
  -24.8160  -29.0550   20.1620 C   0  0  0  0  0  0  0  0  0  0  0  0
  -25.9380  -30.8600   21.4520 C   0  0  0  0  0  2  0  0  0  0  0  0
  -25.9960  -29.4970   20.7710 C   0  0  0  0  0  0  0  0  0  0  0  0
  -27.1670  -28.6770   20.7310 C   0  0  0  0  0  3  0  0  0  0  0  0
  -25.9630  -27.1020   19.3310 C   0  0  0  0  0  3  0  0  0  0  0  0
  -24.7990  -27.8720   19.4250 C   0  0  0  0  0  3  0  0  0  0  0  0
  -23.5880  -29.9280   20.2530 C   0  0  0  0  0  2  0  0  0  0  0  0
  -24.6700  -31.1240   22.1900 N   0  0  0  0  0  0  0  0  0  0  0  0
  -23.5400  -32.1930   23.8390 O   0  0  0  0  0  0  0  0  0  0  0  0
  -22.7520  -29.5030   22.5960 C   0  0  0  0  0  0  0  0  0  0  0  0
  -21.4300  -29.3110   22.4700 N   0  0  0  0  0  0  0  0  0  0  0  0
  -23.4410  -28.8760   23.4050 O   0  0  0  0  0  0  0  0  0  0  0  0
  -20.9330  -29.8730   21.7930 H   0  0  0  0  0  0  0  0  0  0  0  0
  -18.0640  -28.0640   22.9430 C   0  0  0  0  0  0  0  0  0  0  0  0
  -20.6180  -28.3570   23.2300 C   0  0  0  0  0  3  0  0  0  0  0  0
  -20.7440  -26.9290   22.6490 C   0  0  0  0  0  2  0  0  0  0  0  0
  -19.6520  -26.5940   21.6310 C   0  0  0  0  0  2  0  0  0  0  0  0
  -18.2650  -26.7160   22.2690 C   0  0  0  0  0  2  0  0  0  0  0  0
  -19.1710  -28.8420   23.3800 C   0  0  0  0  0  0  0  0  0  0  0  0
  -18.9290  -30.1010   23.9720 C   0  0  0  0  0  3  0  0  0  0  0  0
  -17.6170  -30.5860   24.1290 C   0  0  0  0  0  3  0  0  0  0  0  0
  -16.5260  -29.8050   23.7100 C   0  0  0  0  0  3  0  0  0  0  0  0
  -16.7500  -28.5470   23.1220 C   0  0  0  0  0  3  0  0  0  0  0  0
  -25.9070  -32.5520   23.9010 C   0  0  0  0  0  3  0  0  0  0  0  0
  -25.6130  -33.9580   24.2200 N   0  0  0  0  0  0  0  0  0  0  0  0
  -25.9600  -34.9980   23.4500 C   0  0  0  0  0  0  0  0  0  0  0  0
  -26.6330  -34.8750   22.4220 O   0  0  0  0  0  0  0  0  0  0  0  0
  -25.0260  -34.1300   25.0230 H   0  0  0  0  0  0  0  0  0  0  0  0
  -24.2690  -36.8140   23.0470 C   0  0  0  0  0  1  0  0  0  0  0  0
  -25.4860  -36.3970   23.8870 C   0  0  0  0  0  3  0  0  0  0  0  0
  -27.6190  -37.2510   24.7570 C   0  0  0  0  0  1  0  0  0  0  0  0
  -26.5390  -37.4330   23.7910 N   0  0  0  0  0  0  0  0  0  0  0  0
  -26.1460  -38.3610   23.9250 H   0  0  0  0  0  0  0  0  0  0  0  0
  -26.4210  -31.7840   25.1800 C   0  0  1  0  0  0  0  0  0  0  0  0
  -25.3250  -31.5600   26.2510 C   0  0  0  0  0  1  0  0  0  0  0  0
  -26.9840  -30.3980   24.7920 C   0  0  0  0  0  1  0  0  0  0  0  0
  -27.5830  -32.5660   25.8320 C   0  0  0  0  0  1  0  0  0  0  0  0
  -27.6690  -19.1080   18.7180 C   0  0  0  0  0  2  0  0  0  0  0  0
  -28.7420  -18.7750   19.7730 C   0  0  0  0  0  2  0  0  0  0  0  0
  -29.8930  -17.8700   19.2960 C   0  0  0  0  0  2  0  0  0  0  0  0
  -30.6170  -17.1600   20.4800 C   0  0  0  0  0  2  0  0  0  0  0  0
  -30.8180  -14.6900   20.7510 C   0  0  0  0  0  0  0  0  0  0  0  0
  -30.5870  -12.4850   19.6960 C   0  0  0  0  0  2  0  0  0  0  0  0
  -29.7230  -12.5660   18.4220 C   0  0  0  0  0  2  0  0  0  0  0  0
  -28.2240  -12.4160   18.7650 C   0  0  0  0  0  2  0  0  0  0  0  0
  -27.7730  -13.3480   19.9290 C   0  0  0  0  0  3  0  0  0  0  0  0
  -28.7580  -13.3040   21.1160 C   0  0  0  0  0  2  0  0  0  0  0  0
  -30.1300  -13.5320   20.6290 N   0  0  0  0  0  0  0  0  0  0  0  0
  -32.0300  -14.7580   20.5540 O   0  0  0  0  0  0  0  0  0  0  0  0
  -30.0770  -15.8210   20.7850 N   0  0  0  0  0  0  0  0  0  0  0  0
  -29.0820  -15.7480   20.9520 H   0  0  0  0  0  0  0  0  0  0  0  0
  -25.3400  -13.9380   20.5030 C   0  0  0  0  0  0  0  0  0  0  0  0
  -24.2480  -13.1500   20.7990 C   0  0  0  0  0  0  0  0  0  0  0  0
  -24.7450  -11.8060   20.8090 C   0  0  0  0  0  0  0  0  0  0  0  0
  -26.4050  -13.0720   20.3340 N   0  0  0  0  0  0  0  0  0  0  0  0
  -26.0530  -11.7950   20.5960 N   0  0  0  0  0  0  0  0  0  0  0  0
  -24.0380  -10.5250   21.0110 C   0  0  0  0  0  0  0  0  0  0  0  0
  -24.4720   -9.5670   21.9620 C   0  0  0  0  0  3  0  0  0  0  0  0
  -23.7610   -8.3600   22.1350 C   0  0  0  0  0  3  0  0  0  0  0  0
  -22.6140   -8.0870   21.3440 C   0  0  0  0  0  0  0  0  0  0  0  0
  -22.1870   -9.0350   20.4010 C   0  0  0  0  0  3  0  0  0  0  0  0
  -22.8940  -10.2400   20.2320 C   0  0  0  0  0  3  0  0  0  0  0  0
  -21.9140   -6.9100   21.3980 O   0  0  0  0  0  0  0  0  0  0  0  0
  -21.7820   -6.2190   22.5800 C   0  0  0  0  0  0  0  0  0  0  0  0
  -21.2090   -6.8020   23.7310 C   0  0  0  0  0  3  0  0  0  0  0  0
  -21.0030   -6.0240   24.8810 C   0  0  0  0  0  3  0  0  0  0  0  0
  -21.3720   -4.6610   24.8930 C   0  0  0  0  0  0  0  0  0  0  0  0
  -21.9530   -4.0910   23.7480 C   0  0  0  0  0  3  0  0  0  0  0  0
  -22.1480   -4.8620   22.5950 C   0  0  0  0  0  0  0  0  0  0  0  0
  -22.6770   -4.2860   21.4820 F   0  0  0  0  0  0  0  0  0  0  0  0
  -21.1960   -3.9120   26.0020 F   0  0  0  0  0  0  0  0  0  0  0  0
  -22.8350  -13.6110   21.0220 C   0  0  0  0  0  0  0  0  0  0  0  0
  -22.1150  -12.9370   21.9240 N   0  0  0  0  0  0  0  0  0  0  0  0
  -22.3780  -14.6010   20.4500 O   0  0  0  0  0  0  0  0  0  0  0  0
  -22.5400  -12.2370   22.5120 H   0  0  0  0  0  0  0  0  0  0  0  0
  -21.1770  -13.2420   22.1130 H   0  0  0  0  0  0  0  0  0  0  0  0
  -25.4840  -15.3100   20.3850 N   0  0  0  0  0  0  0  0  0  0  0  0
  -24.7470  -15.9070   20.7440 H   0  0  0  0  0  0  0  0  0  0  0  0
  -26.3520  -15.7840   20.1700 H   0  0  0  0  0  0  0  0  0  0  0  0
  1  7  2  0
  1  2  1  0
  2  8  1  0
  3  1  1  0
  4  5  1  0
  4  3  1  0
  5  6  1  0
  5 51  1  0
  6  2  2  0
  8  9  1  0
 10  9  1  0
 11 22  2  0
 12 10  1  0
 12 17  1  0
 13 21  1  0
 13 23  1  0
 14 20  1  0
 14 16  1  0
 15 21  1  0
 16 15  1  0
 17 16  2  0
 18 19  1  0
 18 12  2  0
 19 14  2  0
 20 13  1  0
 21 11  1  0
 23 25  2  0
 24 23  1  0
 26 24  1  0
 27 36  2  0
 27 32  1  0
 28 24  1  0
 28 32  1  0
 29 28  1  0
 30 31  1  0
 30 29  1  0
 31 27  1  0
 32 33  2  0
 33 34  1  0
 35 34  2  0
 36 35  1  0
 37 11  1  0
 37 38  1  0
 37 47  1  0
 38 41  1  0
 39 43  1  0
 39 38  1  0
 40 39  2  0
 43 42  1  0
 45 43  1  0
 45 46  1  0
 45 44  1  0
 47 50  1  1
 47 48  1  0
 49 47  1  0
 51 52  1  0
 53 52  1  0
 53 54  1  0
 54 63  1  0
 55 63  1  0
 56 61  1  0
 57 58  1  0
 57 56  1  0
 59 58  1  0
 59 68  1  0
 59 60  1  0
 61 55  1  0
 61 60  1  0
 62 55  2  0
 63 64  1  0
 65 66  2  0
 66 67  1  0
 66 85  1  0
 67 70  1  0
 68 65  1  0
 68 69  1  0
 69 67  2  0
 70 71  1  0
 71 72  2  0
 73 76  1  0
 73 72  1  0
 74 73  2  0
 75 74  1  0
 75 70  2  0
 76 77  1  0
 77 82  2  0
 77 78  1  0
 78 79  2  0
 79 80  1  0
 80 84  1  0
 81 80  2  0
 82 81  1  0
 83 82  1  0
 85 86  1  0
 86 89  1  0
 86 88  1  0
 87 85  2  0
 90 65  1  0
 90 91  1  0
 92 90  1  0
M  ISO  4   9 101  10 101  55 100  63 100
M  END
>  <TORSDO>  (17) 
F 22

>  <SCORE>  (17) 
-13.140

>  <name>  (17) 
17

>  <ligand_id>  (17) 
17

>  <original_smiles>  (17) 
[H]c1c([H])c([H])c2c(c1[H])C([H])([H])C([H])([H])C([H])([H])C2([H])N([H])C(=O)C1([H])N(C(=O)C([H])(N([H])C(=O)C([H])(N([H])C([H])([H])[H])C([H])([H])[H])C(C([H])([H])[H])(C([H])([H])[H])C([H])([H])[H])C([H])([H])c2c([H])c(OC([H])([H])C([H])([H])C3=NC([H])(C([H])([H])C([H])([H])C([H])([H])C([H])([H])N([H])C(=O)N4C([H])([H])C([H])([H])C([H])([H])C([H])(n5nc(-c6c([H])c([H])c(Oc7c([H])c([H])c(F)c([H])c7F)c([H])c6[H])c(C(=O)N([H])[H])c5N([H])[H])C4([H])[H])C([H])([H])C([H])([H])C3=O)c([H])c([H])c2C1([H])[H]

>  <smiles>  (17) 
[H]c1c([H])c([H])c2c(c1[H])C([H])([H])C([H])([H])C([H])([H])C2([H])N([H])C(=O)C1([H])N(C(=O)C([H])(N([H])C(=O)C([H])(N([H])C([H])([H])[H])C([H])([H])[H])C(C([H])([H])[H])(C([H])([H])[H])C([H])([H])[H])C([H])([H])c2c([H])c(OC([H])([H])C([H])([H])C3=NC([H])(C([H])([H])C([H])([H])C([H])([H])C([H])([H])N([H])C(=O)N4C([H])([H])C([H])([H])C([H])([H])C([H])(n5nc(-c6c([H])c([H])c(Oc7c([H])c([H])c(F)c([H])c7F)c([H])c6[H])c(C(=O)N([H])[H])c5N([H])[H])C4([H])[H])C([H])([H])C([H])([H])C3=O)c([H])c([H])c2C1([H])[H]

$$$$
18:0:0
     RDKit          3D

 93102  0  0  1  0  0  0  0  0999 V2000
  -31.6100  -22.0920   19.0790 C   0  0  0  0  0  0  0  0  0  0  0  0
  -30.2180  -21.4850   18.9460 C   0  0  0  0  0  0  0  0  0  0  0  0
  -32.4600  -21.5960   20.2410 C   0  0  0  0  0  2  0  0  0  0  0  0
  -31.6680  -21.4220   21.5480 C   0  0  0  0  0  2  0  0  0  0  0  0
  -30.8020  -18.9870   21.1980 C   0  0  0  0  0  2  0  0  0  0  0  0
  -28.8170  -19.5350   20.0780 C   0  0  0  0  0  2  0  0  0  0  0  0
  -30.4120  -20.5550   21.3480 C   0  0  0  0  0  3  0  0  0  0  0  0
  -29.9090  -18.2090   20.1840 C   0  0  0  0  0  3  0  0  0  0  0  0
  -29.4320  -21.1440   20.2340 C   0  0  1  0  0  0  0  0  0  0  0  0
  -32.1050  -22.9280   18.2630 N   0  0  0  0  0  0  0  0  0  0  0  0
  -29.6700  -21.3770   17.8420 O   0  0  0  0  0  0  0  0  0  0  0  0
  -31.4330  -23.1500   17.5340 H   0  0  0  0  0  0  0  0  0  0  0  0
  -30.3940  -15.2830   20.2640 C   0  0  0  0  0  0  0  0  0  0  0  0
  -30.3340  -12.8460   19.3750 C   0  0  0  0  0  2  0  0  0  0  0  0
  -29.4130  -12.6540   18.1430 C   0  0  0  0  0  2  0  0  0  0  0  0
  -27.9620  -12.3880   18.5800 C   0  0  0  0  0  2  0  0  0  0  0  0
  -27.5170  -13.3430   19.7160 C   0  0  0  0  0  3  0  0  0  0  0  0
  -28.5700  -13.4890   20.8390 C   0  0  0  0  0  2  0  0  0  0  0  0
  -29.8050  -13.9860   20.2110 N   0  0  0  0  0  0  0  0  0  0  0  0
  -31.6050  -15.2720   19.9970 O   0  0  0  0  0  0  0  0  0  0  0  0
  -29.6580  -16.5660   20.4130 N   0  0  0  0  0  0  0  0  0  0  0  0
  -28.6980  -16.3730   20.6510 H   0  0  0  0  0  0  0  0  0  0  0  0
  -25.1400  -13.8980   20.4550 C   0  0  0  0  0  0  0  0  0  0  0  0
  -24.0770  -13.1220   20.8250 C   0  0  0  0  0  0  0  0  0  0  0  0
  -24.5470  -11.7740   20.8070 C   0  0  0  0  0  0  0  0  0  0  0  0
  -26.1860  -13.0250   20.2230 N   0  0  0  0  0  0  0  0  0  0  0  0
  -25.8410  -11.7420   20.5010 N   0  0  0  0  0  0  0  0  0  0  0  0
  -23.8190  -10.5110   21.0020 C   0  0  0  0  0  0  0  0  0  0  0  0
  -24.2470   -9.5510   21.9470 C   0  0  0  0  0  3  0  0  0  0  0  0
  -23.5180   -8.3560   22.1330 C   0  0  0  0  0  3  0  0  0  0  0  0
  -22.3480   -8.1120   21.3750 C   0  0  0  0  0  0  0  0  0  0  0  0
  -21.9400   -9.0610   20.4210 C   0  0  0  0  0  3  0  0  0  0  0  0
  -22.6700  -10.2470   20.2320 C   0  0  0  0  0  3  0  0  0  0  0  0
  -21.5930   -6.9680   21.4700 O   0  0  0  0  0  0  0  0  0  0  0  0
  -21.5420   -6.2320   22.6280 C   0  0  0  0  0  0  0  0  0  0  0  0
  -21.1120   -6.7930   23.8510 C   0  0  0  0  0  3  0  0  0  0  0  0
  -21.0070   -5.9840   24.9980 C   0  0  0  0  0  3  0  0  0  0  0  0
  -21.3240   -4.6140   24.9260 C   0  0  0  0  0  0  0  0  0  0  0  0
  -21.7480   -4.0530   23.7090 C   0  0  0  0  0  3  0  0  0  0  0  0
  -21.8540   -4.8600   22.5620 C   0  0  0  0  0  0  0  0  0  0  0  0
  -22.2410   -4.3080   21.3870 F   0  0  0  0  0  0  0  0  0  0  0  0
  -21.2180   -3.8350   26.0260 F   0  0  0  0  0  0  0  0  0  0  0  0
  -22.6770  -13.6010   21.0790 C   0  0  0  0  0  0  0  0  0  0  0  0
  -21.9430  -12.9120   21.9420 N   0  0  0  0  0  0  0  0  0  0  0  0
  -22.2460  -14.6240   20.5460 O   0  0  0  0  0  0  0  0  0  0  0  0
  -22.3050  -12.0830   22.3900 H   0  0  0  0  0  0  0  0  0  0  0  0
  -21.0020  -13.2140   22.1540 H   0  0  0  0  0  0  0  0  0  0  0  0
  -25.2980  -15.2660   20.2640 N   0  0  0  0  0  0  0  0  0  0  0  0
  -24.5270  -15.9160   20.3640 H   0  0  0  0  0  0  0  0  0  0  0  0
  -26.1390  -15.7010   19.9090 H   0  0  0  0  0  0  0  0  0  0  0  0
  -28.6580  -22.7330   20.6810 C   0  0  0  0  0  2  0  0  0  0  0  0
  -28.3480  -24.3300   19.8920 C   0  0  0  0  0  2  0  0  0  0  0  0
  -28.2510  -25.9110   20.3650 O   0  0  0  0  0  0  0  0  0  0  0  0
  -24.6220  -31.8450   23.2030 C   0  0  0  0  0  0  0  0  0  0  0  0
  -27.2070  -26.9700   20.2240 C   0  0  0  0  0  0  0  0  0  0  0  0
  -23.4310  -30.4360   21.5710 C   0  0  0  0  0  3  0  0  0  0  0  0
  -24.8850  -28.8230   20.1580 C   0  0  0  0  0  0  0  0  0  0  0  0
  -25.9940  -30.6590   21.4200 C   0  0  0  0  0  2  0  0  0  0  0  0
  -26.0670  -29.2470   20.7770 C   0  0  0  0  0  0  0  0  0  0  0  0
  -27.2150  -28.3360   20.7940 C   0  0  0  0  0  3  0  0  0  0  0  0
  -25.9980  -26.6960   19.5420 C   0  0  0  0  0  3  0  0  0  0  0  0
  -24.8740  -27.5660   19.5240 C   0  0  0  0  0  3  0  0  0  0  0  0
  -23.6590  -29.7350   20.2030 C   0  0  0  0  0  2  0  0  0  0  0  0
  -24.7030  -31.0090   22.1180 N   0  0  0  0  0  0  0  0  0  0  0  0
  -23.5320  -32.1340   23.7240 O   0  0  0  0  0  0  0  0  0  0  0  0
  -22.7390  -29.4500   22.5490 C   0  0  0  0  0  0  0  0  0  0  0  0
  -21.4070  -29.2840   22.4310 N   0  0  0  0  0  0  0  0  0  0  0  0
  -23.4080  -28.8300   23.3780 O   0  0  0  0  0  0  0  0  0  0  0  0
  -20.9200  -29.8360   21.7370 H   0  0  0  0  0  0  0  0  0  0  0  0
  -18.0280  -28.0720   22.9530 C   0  0  0  0  0  0  0  0  0  0  0  0
  -20.5870  -28.3500   23.2090 C   0  0  0  0  0  3  0  0  0  0  0  0
  -20.6920  -26.9130   22.6460 C   0  0  0  0  0  2  0  0  0  0  0  0
  -19.5890  -26.5780   21.6370 C   0  0  0  0  0  2  0  0  0  0  0  0
  -18.2060  -26.7210   22.2790 C   0  0  0  0  0  2  0  0  0  0  0  0
  -19.1450  -28.8430   23.3730 C   0  0  0  0  0  0  0  0  0  0  0  0
  -18.9170  -30.1060   23.9600 C   0  0  0  0  0  3  0  0  0  0  0  0
  -17.6090  -30.5960   24.1340 C   0  0  0  0  0  3  0  0  0  0  0  0
  -16.5080  -29.8230   23.7270 C   0  0  0  0  0  3  0  0  0  0  0  0
  -16.7190  -28.5640   23.1390 C   0  0  0  0  0  3  0  0  0  0  0  0
  -25.8930  -32.4940   23.8310 C   0  0  0  0  0  3  0  0  0  0  0  0
  -25.5780  -33.8980   24.1560 N   0  0  0  0  0  0  0  0  0  0  0  0
  -25.9080  -34.9540   23.4000 C   0  0  0  0  0  0  0  0  0  0  0  0
  -26.5770  -34.8500   22.3680 O   0  0  0  0  0  0  0  0  0  0  0  0
  -24.9950  -34.0560   24.9640 H   0  0  0  0  0  0  0  0  0  0  0  0
  -24.1800  -36.7500   23.0550 C   0  0  0  0  0  1  0  0  0  0  0  0
  -25.4240  -36.3420   23.8600 C   0  0  0  0  0  3  0  0  0  0  0  0
  -27.5600  -37.2280   24.6840 C   0  0  0  0  0  1  0  0  0  0  0  0
  -26.4540  -37.3980   23.7450 N   0  0  0  0  0  0  0  0  0  0  0  0
  -26.0440  -38.3150   23.8960 H   0  0  0  0  0  0  0  0  0  0  0  0
  -26.3960  -31.7440   25.1260 C   0  0  1  0  0  0  0  0  0  0  0  0
  -25.2940  -31.5330   26.1890 C   0  0  0  0  0  1  0  0  0  0  0  0
  -26.9830  -30.3600   24.7710 C   0  0  0  0  0  1  0  0  0  0  0  0
  -27.5450  -32.5450   25.7840 C   0  0  0  0  0  1  0  0  0  0  0  0
  1  3  1  0
  2  1  1  0
  2  9  1  0
  3  4  1  0
  6  8  1  0
  6  9  1  0
  7  5  1  0
  7  4  1  0
  8 21  1  0
  8  5  1  0
  9 51  1  1
  9  7  1  0
 10  1  2  0
 11  2  2  0
 12 10  1  0
 13 21  1  0
 14 19  1  0
 15 16  1  0
 15 14  1  0
 17 16  1  0
 17 26  1  0
 17 18  1  0
 19 13  1  0
 19 18  1  0
 20 13  2  0
 21 22  1  0
 23 24  2  0
 24 43  1  0
 25 24  1  0
 25 28  1  0
 26 23  1  0
 26 27  1  0
 27 25  2  0
 28 29  1  0
 29 30  2  0
 31 34  1  0
 31 30  1  0
 32 31  2  0
 33 32  1  0
 33 28  2  0
 34 35  1  0
 35 36  1  0
 36 37  2  0
 38 37  1  0
 38 42  1  0
 39 38  2  0
 40 35  2  0
 40 39  1  0
 41 40  1  0
 43 44  1  0
 44 47  1  0
 44 46  1  0
 45 43  2  0
 48 49  1  0
 48 23  1  0
 50 48  1  0
 52 53  1  0
 52 51  1  0
 54 65  2  0
 55 53  1  0
 55 60  1  0
 56 64  1  0
 56 66  1  0
 57 63  1  0
 57 59  1  0
 58 64  1  0
 59 60  2  0
 59 58  1  0
 61 55  2  0
 62 61  1  0
 62 57  2  0
 63 56  1  0
 64 54  1  0
 66 68  2  0
 67 66  1  0
 69 67  1  0
 70 79  2  0
 70 75  1  0
 71 67  1  0
 71 75  1  0
 72 71  1  0
 73 74  1  0
 73 72  1  0
 74 70  1  0
 75 76  2  0
 76 77  1  0
 78 77  2  0
 79 78  1  0
 80 54  1  0
 80 81  1  0
 80 90  1  0
 81 84  1  0
 82 86  1  0
 82 81  1  0
 83 82  2  0
 86 85  1  0
 88 86  1  0
 88 89  1  0
 88 87  1  0
 90 93  1  1
 90 91  1  0
 92 90  1  0
M  ISO  4  13 100  21 100  52 101  53 101
M  END
>  <TORSDO>  (18) 
F 18

>  <SCORE>  (18) 
-16.901

>  <name>  (18) 
18

>  <ligand_id>  (18) 
18

>  <original_smiles>  (18) 
[H]N=C1C(=O)C2(C([H])([H])C([H])([H])Oc3c([H])c([H])c4c(c3[H])C([H])([H])N(C(=O)C([H])(N([H])C(=O)C([H])(N([H])C([H])([H])[H])C([H])([H])[H])C(C([H])([H])[H])(C([H])([H])[H])C([H])([H])[H])C([H])(C(=O)N([H])C3([H])c5c([H])c([H])c([H])c([H])c5C([H])([H])C([H])([H])C3([H])[H])C4([H])[H])C([H])([H])C([H])(N([H])C(=O)N3C([H])([H])C([H])([H])C([H])([H])C([H])(n4nc(-c5c([H])c([H])c(Oc6c([H])c([H])c(F)c([H])c6F)c([H])c5[H])c(C(=O)N([H])[H])c4N([H])[H])C3([H])[H])C([H])([H])C2([H])C([H])([H])C1([H])[H]

>  <smiles>  (18) 
[H]N=C1C(=O)C2(C([H])([H])C([H])([H])Oc3c([H])c([H])c4c(c3[H])C([H])([H])N(C(=O)C([H])(N([H])C(=O)C([H])(N([H])C([H])([H])[H])C([H])([H])[H])C(C([H])([H])[H])(C([H])([H])[H])C([H])([H])[H])C([H])(C(=O)N([H])C3([H])c5c([H])c([H])c([H])c([H])c5C([H])([H])C([H])([H])C3([H])[H])C4([H])[H])C([H])([H])C([H])(N([H])C(=O)N3C([H])([H])C([H])([H])C([H])([H])C([H])(n4nc(-c5c([H])c([H])c(Oc6c([H])c([H])c(F)c([H])c6F)c([H])c5[H])c(C(=O)N([H])[H])c4N([H])[H])C3([H])[H])C([H])([H])C2([H])C([H])([H])C1([H])[H]

$$$$
19:0:0
     RDKit          3D

102109  0  0  1  0  0  0  0  0999 V2000
  -22.1800  -22.2910   20.6170 C   0  0  0  0  0  2  0  0  0  0  0  0
  -23.6670  -24.1590   21.5660 C   0  0  0  0  0  2  0  0  0  0  0  0
  -21.1190  -22.7450   21.6420 C   0  0  0  0  0  2  0  0  0  0  0  0
  -22.4860  -24.5250   22.4940 C   0  0  0  0  0  2  0  0  0  0  0  0
  -23.6270  -22.7140   20.9940 C   0  0  0  0  0  3  0  0  0  0  0  0
  -21.2200  -24.2200   21.7830 N   0  0  2  0  0  4  0  0  0  0  0  0
  -21.3560  -24.5680   20.8440 H   0  0  0  0  0  0  0  0  0  0  0  0
  -24.5880  -22.6230   19.7760 C   0  0  0  0  0  2  0  0  0  0  0  0
  -24.7390  -20.1700   19.0400 C   0  0  0  0  0  0  0  0  0  0  0  0
  -26.2220  -19.8990   18.7870 C   0  0  0  0  0  2  0  0  0  0  0  0
  -24.7690  -22.0000   17.2890 C   0  0  0  0  0  2  0  0  0  0  0  0
  -26.2890  -21.8310   17.1430 C   0  0  0  0  0  2  0  0  0  0  0  0
  -24.2470  -21.5750   18.6810 C   0  0  0  0  0  3  0  0  0  0  0  0
  -26.7000  -20.3680   17.3910 C   0  0  0  0  0  3  0  0  0  0  0  0
  -23.9640  -19.2910   19.5160 N   0  0  0  0  0  0  0  0  0  0  0  0
  -24.4460  -18.4160   19.6920 H   0  0  0  0  0  0  0  0  0  0  0  0
  -28.2210  -20.2010   17.1840 C   0  0  0  0  0  2  0  0  0  0  0  0
  -28.8710  -19.0640   17.9920 C   0  0  0  0  0  2  0  0  0  0  0  0
  -30.4050  -19.0790   17.8520 C   0  0  0  0  0  2  0  0  0  0  0  0
  -31.1680  -18.6510   19.1180 C   0  0  0  0  0  2  0  0  0  0  0  0
  -31.5280  -16.1760   19.2390 C   0  0  0  0  0  0  0  0  0  0  0  0
  -31.6630  -13.7390   19.6160 C   0  0  0  0  0  2  0  0  0  0  0  0
  -30.8930  -12.9550   18.5380 C   0  0  0  0  0  2  0  0  0  0  0  0
  -29.4020  -12.8290   18.9050 C   0  0  0  0  0  2  0  0  0  0  0  0
  -28.7710  -14.1860   19.3150 C   0  0  0  0  0  3  0  0  0  0  0  0
  -29.6600  -14.9030   20.3550 C   0  0  0  0  0  2  0  0  0  0  0  0
  -31.0160  -15.0470   19.7910 N   0  0  0  0  0  0  0  0  0  0  0  0
  -32.5640  -16.2010   18.5660 O   0  0  0  0  0  0  0  0  0  0  0  0
  -30.8450  -17.2890   19.5300 N   0  0  0  0  0  0  0  0  0  0  0  0
  -30.0370  -17.1680   20.1230 H   0  0  0  0  0  0  0  0  0  0  0  0
  -26.4270  -14.9660   20.0460 C   0  0  0  0  0  0  0  0  0  0  0  0
  -25.3090  -14.2710   20.4220 C   0  0  0  0  0  0  0  0  0  0  0  0
  -25.6690  -12.8890   20.3760 C   0  0  0  0  0  0  0  0  0  0  0  0
  -27.4040  -14.0110   19.8010 N   0  0  0  0  0  0  0  0  0  0  0  0
  -26.9490  -12.7570   20.0520 N   0  0  0  0  0  0  0  0  0  0  0  0
  -24.8560  -11.6800   20.5670 C   0  0  0  0  0  0  0  0  0  0  0  0
  -25.1910  -10.7100   21.5360 C   0  0  0  0  0  3  0  0  0  0  0  0
  -24.3830   -9.5650   21.7130 C   0  0  0  0  0  3  0  0  0  0  0  0
  -23.2270   -9.3840   20.9190 C   0  0  0  0  0  0  0  0  0  0  0  0
  -22.9100  -10.3420   19.9400 C   0  0  0  0  0  3  0  0  0  0  0  0
  -23.7170  -11.4780   19.7620 C   0  0  0  0  0  3  0  0  0  0  0  0
  -22.3980   -8.2910   21.0020 O   0  0  0  0  0  0  0  0  0  0  0  0
  -22.1820   -7.6400   22.1900 C   0  0  0  0  0  0  0  0  0  0  0  0
  -21.6620   -8.3060   23.3210 C   0  0  0  0  0  3  0  0  0  0  0  0
  -21.3900   -7.5850   24.5000 C   0  0  0  0  0  3  0  0  0  0  0  0
  -21.6290   -6.1980   24.5490 C   0  0  0  0  0  0  0  0  0  0  0  0
  -22.1420   -5.5320   23.4220 C   0  0  0  0  0  3  0  0  0  0  0  0
  -22.4150   -6.2510   22.2450 C   0  0  0  0  0  0  0  0  0  0  0  0
  -22.8900   -5.6000   21.1560 F   0  0  0  0  0  0  0  0  0  0  0  0
  -21.3610   -5.5030   25.6790 F   0  0  0  0  0  0  0  0  0  0  0  0
  -23.9530  -14.8450   20.7170 C   0  0  0  0  0  0  0  0  0  0  0  0
  -23.2020  -14.2130   21.6120 N   0  0  0  0  0  0  0  0  0  0  0  0
  -23.5700  -15.8860   20.1850 O   0  0  0  0  0  0  0  0  0  0  0  0
  -23.5240  -13.3690   22.0590 H   0  0  0  0  0  0  0  0  0  0  0  0
  -22.2930  -14.5810   21.8540 H   0  0  0  0  0  0  0  0  0  0  0  0
  -26.6900  -16.3210   19.8760 N   0  0  0  0  0  0  0  0  0  0  0  0
  -25.9810  -17.0330   20.0140 H   0  0  0  0  0  0  0  0  0  0  0  0
  -27.5720  -16.6940   19.5480 H   0  0  0  0  0  0  0  0  0  0  0  0
  -19.9810  -24.9740   22.2080 C   0  0  0  0  0  2  0  0  0  0  0  0
  -19.6490  -26.5190   21.6720 C   0  0  0  0  0  3  0  0  0  0  0  0
  -21.3590  -28.3680   19.8280 C   0  0  0  0  0 15  0  0  0  0  0  0
  -23.3370  -28.0890   19.3080 O   0  0  0  0  0  1  0  0  0  0  0  0
  -25.4470  -29.7360   23.8650 C   0  0  0  0  0  0  0  0  0  0  0  0
  -24.6980  -28.4990   18.6660 C   0  0  0  0  0  3  0  0  0  0  0  0
  -23.7930  -30.2350   22.1690 C   0  0  0  0  0  3  0  0  0  0  0  0
  -24.5290  -30.6860   19.7330 C   0  0  0  0  0  3  0  0  0  0  0  0
  -26.2280  -30.3000   21.5430 C   0  0  0  0  0  2  0  0  0  0  0  0
  -25.6830  -30.0160   20.1520 C   0  0  0  0  0  3  0  0  0  0  0  0
  -25.8880  -28.8220   19.4470 C   0  0  0  0  0  2  0  0  0  0  0  0
  -24.5770  -29.4290   17.6590 C   0  0  0  0  0  2  0  0  0  0  0  0
  -24.0780  -30.5100   18.3890 C   0  0  0  0  0  2  0  0  0  0  0  0
  -23.6060  -31.0760   20.8450 C   0  0  0  0  0  2  0  0  0  0  0  0
  -25.1970  -30.1300   22.5870 N   0  0  0  0  0  0  0  0  0  0  0  0
  -24.5300  -29.5620   24.6880 O   0  0  0  0  0  0  0  0  0  0  0  0
  -23.2820  -28.7820   22.1820 C   0  0  0  0  0  0  0  0  0  0  0  0
  -22.0170  -28.6280   22.3720 N   0  0  0  0  0  0  0  0  0  0  0  0
  -23.9850  -27.7810   22.0840 O   0  0  0  0  0  0  0  0  0  0  0  0
  -21.4280  -29.4290   22.5560 H   0  0  0  0  0  0  0  0  0  0  0  0
  -18.8770  -28.4980   20.9830 C   0  0  0  0  0  0  0  0  0  0  0  0
  -21.3650  -27.4010   22.0220 C   0  0  0  0  0  3  0  0  0  0  0  0
  -21.9540  -26.0940   20.4460 C   0  0  0  0  0 15  0  0  0  0  0  0
  -20.6220  -26.7620   18.7440 C   0  0  0  0  0  1  0  0  0  0  0  0
  -19.3170  -28.0840   19.3170 C   0  0  0  0  0  2  0  0  0  0  0  0
  -19.8380  -28.2600   22.1210 C   0  0  2  0  0  0  0  0  0  0  0  0
  -19.3590  -28.5460   23.4480 C   0  0  0  0  0  2  0  0  0  0  0  0
  -18.0250  -28.8870   23.7770 C   0  0  0  0  0  3  0  0  0  0  0  0
  -17.0600  -28.8760   22.7600 C   0  0  0  0  0  3  0  0  0  0  0  0
  -17.4810  -28.6640   21.4100 C   0  0  0  0  0  3  0  0  0  0  0  0
  -26.8930  -29.5160   24.3500 C   0  0  0  0  0  3  0  0  0  0  0  0
  -27.2330  -28.0070   24.6460 C   0  0  1  0  0  0  0  0  0  0  0  0
  -26.2110  -27.2910   25.5600 C   0  0  0  0  0  1  0  0  0  0  0  0
  -27.3350  -27.1930   23.3360 C   0  0  0  0  0  1  0  0  0  0  0  0
  -28.6220  -27.9300   25.3190 C   0  0  0  0  0  1  0  0  0  0  0  0
  -27.0270  -30.3300   25.5610 N   0  0  0  0  0  0  0  0  0  0  0  0
  -27.6290  -31.5230   25.5970 C   0  0  0  0  0  0  0  0  0  0  0  0
  -28.2270  -31.9970   24.6290 O   0  0  0  0  0  0  0  0  0  0  0  0
  -26.5150  -30.0210   26.3760 H   0  0  0  0  0  0  0  0  0  0  0  0
  -26.5830  -33.4660   26.8050 C   0  0  0  0  0  1  0  0  0  0  0  0
  -27.5740  -32.2990   26.9260 C   0  0  0  0  0  3  0  0  0  0  0  0
  -29.8240  -31.7450   27.7400 C   0  0  0  0  0  1  0  0  0  0  0  0
  -28.8940  -32.8070   27.3580 N   0  0  0  0  0  0  0  0  0  0  0  0
  -28.7950  -33.4380   28.1480 H   0  0  0  0  0  0  0  0  0  0  0  0
  1  5  1  0
  1  3  1  0
  2  4  1  0
  3  6  1  0
  5  8  1  0
  5  2  1  0
  6 59  1  0
  6  4  1  0
  6  7  1  6
  9 15  2  0
 10  9  1  0
 11 13  1  0
 12 11  1  0
 12 14  1  0
 13  9  1  0
 13  8  1  0
 14 17  1  0
 14 10  1  0
 15 16  1  0
 17 18  1  0
 19 18  1  0
 19 20  1  0
 20 29  1  0
 21 29  1  0
 21 27  1  0
 22 27  1  0
 23 24  1  0
 23 22  1  0
 25 24  1  0
 25 34  1  0
 25 26  1  0
 27 26  1  0
 28 21  2  0
 29 30  1  0
 31 32  2  0
 32 51  1  0
 33 32  1  0
 33 36  1  0
 34 31  1  0
 34 35  1  0
 35 33  2  0
 36 37  1  0
 37 38  2  0
 39 42  1  0
 39 38  1  0
 40 39  2  0
 41 40  1  0
 41 36  2  0
 42 43  1  0
 43 48  2  0
 43 44  1  0
 44 45  2  0
 45 46  1  0
 46 50  1  0
 47 46  2  0
 48 47  1  0
 49 48  1  0
 51 52  1  0
 52 55  1  0
 52 54  1  0
 53 51  2  0
 56 57  1  0
 56 31  1  0
 58 56  1  0
 60 80  1  0
 60 84  1  0
 60 59  1  0
 63 74  2  0
 64 62  1  0
 64 69  1  0
 65 75  1  0
 65 73  1  0
 66 71  1  0
 66 68  1  0
 66 72  1  0
 67 73  1  0
 68 69  1  0
 68 67  1  0
 70 71  1  0
 70 64  1  0
 72 65  1  0
 73 63  1  0
 75 76  1  0
 76 78  1  0
 77 75  2  0
 79 88  2  0
 79 84  1  0
 80 84  1  0
 80 76  1  0
 82 83  1  0
 83 79  1  0
 84 85  1  1
 85 86  1  0
 87 86  2  0
 88 87  1  0
 89 63  1  0
 89 90  1  0
 89 94  1  0
 90 93  1  1
 90 91  1  0
 92 90  1  0
 94 95  1  0
 94 97  1  0
 95 99  1  0
 96 95  2  0
 99 98  1  0
 99101  1  0
101100  1  0
101102  1  0
M  ISO  4  21 100  29 100  61 101  62 101
M  END
>  <TORSDO>  (19) 
F 25

>  <SCORE>  (19) 
1.013

>  <name>  (19) 
19

>  <ligand_id>  (19) 
19

>  <original_smiles>  (19) 
[H]N=C1C([H])([H])C([H])(C([H])([H])C([H])([H])C([H])([H])C([H])([H])N([H])C(=O)N2C([H])([H])C([H])([H])C([H])([H])C([H])(n3nc(-c4c([H])c([H])c(Oc5c([H])c([H])c(F)c([H])c5F)c([H])c4[H])c(C(=O)N([H])[H])c3N([H])[H])C2([H])[H])C([H])([H])C([H])([H])C1([H])C([H])([H])C1([H])C([H])([H])C([H])([H])[N+]([H])(C([H])([H])C([H])([H])C([H])([H])Oc2c([H])c([H])c3c(c2[H])C([H])([H])N(C(=O)C([H])(N([H])C(=O)C([H])(N([H])C([H])([H])[H])C([H])([H])[H])C(C([H])([H])[H])(C([H])([H])[H])C([H])([H])[H])C([H])(C(=O)N([H])C2([H])c4c([H])c([H])c([H])c([H])c4C([H])([H])C([H])([H])C2([H])[H])C3([H])[H])C([H])([H])C1([H])[H]

>  <smiles>  (19) 
[H]N=C1C([H])([H])C([H])(C([H])([H])C([H])([H])C([H])([H])C([H])([H])N([H])C(=O)N2C([H])([H])C([H])([H])C([H])([H])C([H])(n3nc(-c4c([H])c([H])c(Oc5c([H])c([H])c(F)c([H])c5F)c([H])c4[H])c(C(=O)N([H])[H])c3N([H])[H])C2([H])[H])C([H])([H])C([H])([H])C1([H])C([H])([H])C1([H])C([H])([H])C([H])([H])[N+]([H])(C([H])([H])C([H])([H])C([H])([H])Oc2c([H])c([H])c3c(c2[H])C([H])([H])N(C(=O)C([H])(N([H])C(=O)C([H])(N([H])C([H])([H])[H])C([H])([H])[H])C(C([H])([H])[H])(C([H])([H])[H])C([H])([H])[H])C([H])(C(=O)N([H])C2([H])c4c([H])c([H])c([H])c([H])c4C([H])([H])C([H])([H])C2([H])[H])C3([H])[H])C([H])([H])C1([H])[H]

$$$$
20:0:0
     RDKit          3D

101110  0  0  1  0  0  0  0  0999 V2000
  -30.7910  -21.5030   20.9930 C   0  0  0  0  0  2  0  0  0  0  0  0
  -31.7490  -22.3150   23.2200 C   0  0  0  0  0  2  0  0  0  0  0  0
  -30.7950  -23.0170   20.7320 C   0  0  0  0  0  2  0  0  0  0  0  0
  -30.5290  -23.2690   23.2100 C   0  0  0  0  0  2  0  0  0  0  0  0
  -31.6340  -21.1320   22.2270 C   0  0  0  0  0  3  0  0  0  0  0  0
  -30.1370  -23.7480   21.8500 N   0  0  1  0  0  4  0  0  0  0  0  0
  -29.1610  -23.4980   21.7890 H   0  0  0  0  0  0  0  0  0  0  0  0
  -31.5780  -18.5990   22.2350 C   0  0  0  0  0  3  0  0  0  0  0  0
  -30.2950  -19.7620   23.9470 C   0  0  0  0  0  3  0  0  0  0  0  0
  -30.2870  -17.3230   23.8640 C   0  0  0  0  0  3  0  0  0  0  0  0
  -31.1600  -19.8090   22.8290 C   0  0  0  0  0  0  0  0  0  0  0  0
  -31.1510  -17.3590   22.7520 C   0  0  0  0  0  0  0  0  0  0  0  0
  -29.8610  -18.5240   24.4670 C   0  0  0  0  0  0  0  0  0  0  0  0
  -31.6540  -16.0660   22.1400 C   0  0  0  0  0  2  0  0  0  0  0  0
  -30.5980  -14.8910   20.2290 C   0  0  0  0  0  0  0  0  0  0  0  0
  -30.1690  -12.8800   18.8770 C   0  0  0  0  0  2  0  0  0  0  0  0
  -29.1230  -13.0670   17.7680 C   0  0  0  0  0  2  0  0  0  0  0  0
  -27.7090  -12.8170   18.3170 C   0  0  0  0  0  2  0  0  0  0  0  0
  -27.4270  -13.6250   19.6090 C   0  0  0  0  0  3  0  0  0  0  0  0
  -28.5690  -13.4580   20.6380 C   0  0  0  0  0  2  0  0  0  0  0  0
  -29.8530  -13.7840   19.9920 N   0  0  0  0  0  0  0  0  0  0  0  0
  -31.4000  -15.3590   19.4140 O   0  0  0  0  0  0  0  0  0  0  0  0
  -30.6000  -15.2750   21.5110 N   0  0  0  0  0  0  0  0  0  0  0  0
  -29.9500  -14.8070   22.1230 H   0  0  0  0  0  0  0  0  0  0  0  0
  -25.0700  -14.0880   20.5420 C   0  0  0  0  0  0  0  0  0  0  0  0
  -24.0660  -13.2510   20.9500 C   0  0  0  0  0  0  0  0  0  0  0  0
  -24.5740  -11.9230   20.8010 C   0  0  0  0  0  0  0  0  0  0  0  0
  -26.1270  -13.2680   20.1780 N   0  0  0  0  0  0  0  0  0  0  0  0
  -25.8360  -11.9570   20.3880 N   0  0  0  0  0  0  0  0  0  0  0  0
  -23.9150  -10.6220   20.9750 C   0  0  0  0  0  0  0  0  0  0  0  0
  -24.3720   -9.6850   21.9280 C   0  0  0  0  0  3  0  0  0  0  0  0
  -23.7110   -8.4480   22.0890 C   0  0  0  0  0  3  0  0  0  0  0  0
  -22.5800   -8.1390   21.2970 C   0  0  0  0  0  0  0  0  0  0  0  0
  -22.1440   -9.0670   20.3340 C   0  0  0  0  0  3  0  0  0  0  0  0
  -22.8050  -10.2950   20.1710 C   0  0  0  0  0  3  0  0  0  0  0  0
  -21.8910   -6.9530   21.3670 O   0  0  0  0  0  0  0  0  0  0  0  0
  -21.7530   -6.2670   22.5470 C   0  0  0  0  0  0  0  0  0  0  0  0
  -21.1280   -6.8450   23.6740 C   0  0  0  0  0  3  0  0  0  0  0  0
  -20.9440   -6.0820   24.8450 C   0  0  0  0  0  3  0  0  0  0  0  0
  -21.3760   -4.7420   24.8880 C   0  0  0  0  0  0  0  0  0  0  0  0
  -21.9950   -4.1650   23.7660 C   0  0  0  0  0  3  0  0  0  0  0  0
  -22.1790   -4.9250   22.5980 C   0  0  0  0  0  0  0  0  0  0  0  0
  -22.7560   -4.3580   21.5110 F   0  0  0  0  0  0  0  0  0  0  0  0
  -21.1940   -4.0080   26.0110 F   0  0  0  0  0  0  0  0  0  0  0  0
  -22.6800  -13.6500   21.3650 C   0  0  0  0  0  0  0  0  0  0  0  0
  -22.0640  -12.8890   22.2640 N   0  0  0  0  0  0  0  0  0  0  0  0
  -22.1510  -14.6720   20.9290 O   0  0  0  0  0  0  0  0  0  0  0  0
  -22.5060  -12.0610   22.6370 H   0  0  0  0  0  0  0  0  0  0  0  0
  -21.1400  -13.1370   22.5830 H   0  0  0  0  0  0  0  0  0  0  0  0
  -25.1670  -15.4720   20.4320 N   0  0  0  0  0  0  0  0  0  0  0  0
  -24.3920  -16.0910   20.6450 H   0  0  0  0  0  0  0  0  0  0  0  0
  -25.9810  -15.9610   20.0800 H   0  0  0  0  0  0  0  0  0  0  0  0
  -28.9580  -18.4850   25.6890 C   0  0  0  0  0  2  0  0  0  0  0  0
  -29.7540  -18.5180   26.9200 N   0  0  0  0  0  4  0  0  0  0  0  0
  -30.3870  -17.7420   26.9440 H   0  0  0  0  0  0  0  0  0  0  0  0
  -29.1510  -18.4690   27.7210 H   0  0  0  0  0  0  0  0  0  0  0  0
  -30.2830  -19.3690   26.9690 H   0  0  0  0  0  0  0  0  0  0  0  0
  -30.1450  -25.2310   21.7050 C   0  0  0  0  0  2  0  0  0  0  0  0
  -29.2780  -25.7010   20.5200 C   0  0  0  0  0  2  0  0  0  0  0  0
  -29.0700  -27.2160   20.4230 C   0  0  0  0  0  2  0  0  0  0  0  0
  -28.1730  -27.3860   19.3310 O   0  0  0  0  0  0  0  0  0  0  0  0
  -24.4460  -32.0180   23.2840 C   0  0  0  0  0  0  0  0  0  0  0  0
  -27.0070  -28.0650   19.5730 C   0  0  0  0  0  0  0  0  0  0  0  0
  -23.1660  -30.7540   21.5830 C   0  0  0  0  0  3  0  0  0  0  0  0
  -24.5640  -29.4310   19.9110 C   0  0  0  0  0  0  0  0  0  0  0  0
  -25.6540  -31.2360   21.2560 C   0  0  0  0  0  2  0  0  0  0  0  0
  -25.7380  -29.9420   20.4800 C   0  0  0  0  0  0  0  0  0  0  0  0
  -26.9640  -29.2610   20.3190 C   0  0  0  0  0  3  0  0  0  0  0  0
  -25.8220  -27.5640   18.9970 C   0  0  0  0  0  3  0  0  0  0  0  0
  -24.5960  -28.2330   19.1740 C   0  0  0  0  0  3  0  0  0  0  0  0
  -23.2980  -30.2290   20.1280 C   0  0  0  0  0  2  0  0  0  0  0  0
  -24.4430  -31.3450   22.1000 N   0  0  0  0  0  0  0  0  0  0  0  0
  -23.3980  -32.1930   23.9220 O   0  0  0  0  0  0  0  0  0  0  0  0
  -22.6160  -29.6130   22.4680 C   0  0  0  0  0  0  0  0  0  0  0  0
  -21.3050  -29.3470   22.3500 N   0  0  0  0  0  0  0  0  0  0  0  0
  -23.3620  -28.9750   23.2140 O   0  0  0  0  0  0  0  0  0  0  0  0
  -20.7610  -29.9220   21.7220 H   0  0  0  0  0  0  0  0  0  0  0  0
  -18.0500  -27.8340   22.7480 C   0  0  0  0  0  0  0  0  0  0  0  0
  -20.5740  -28.2950   23.0540 C   0  0  0  0  0  3  0  0  0  0  0  0
  -20.8020  -26.9180   22.3870 C   0  0  0  0  0  2  0  0  0  0  0  0
  -19.7330  -26.5670   21.3470 C   0  0  0  0  0  2  0  0  0  0  0  0
  -18.3440  -26.5500   21.9910 C   0  0  0  0  0  2  0  0  0  0  0  0
  -19.0980  -28.6610   23.2330 C   0  0  0  0  0  0  0  0  0  0  0  0
  -18.7700  -29.8610   23.9000 C   0  0  0  0  0  3  0  0  0  0  0  0
  -17.4280  -30.2380   24.0890 C   0  0  0  0  0  3  0  0  0  0  0  0
  -16.3940  -29.4080   23.6200 C   0  0  0  0  0  3  0  0  0  0  0  0
  -16.7050  -28.2080   22.9570 C   0  0  0  0  0  3  0  0  0  0  0  0
  -25.7560  -32.6220   23.8810 C   0  0  0  0  0  3  0  0  0  0  0  0
  -26.3230  -31.7970   25.1010 C   0  0  1  0  0  0  0  0  0  0  0  0
  -25.2640  -31.4900   26.1850 C   0  0  0  0  0  1  0  0  0  0  0  0
  -26.9150  -30.4510   24.6200 C   0  0  0  0  0  1  0  0  0  0  0  0
  -27.4810  -32.5770   25.7670 C   0  0  0  0  0  1  0  0  0  0  0  0
  -25.4650  -34.0050   24.2760 N   0  0  0  0  0  0  0  0  0  0  0  0
  -25.8060  -35.0860   23.5620 C   0  0  0  0  0  0  0  0  0  0  0  0
  -26.4720  -35.0230   22.5230 O   0  0  0  0  0  0  0  0  0  0  0  0
  -24.8730  -34.1310   25.0830 H   0  0  0  0  0  0  0  0  0  0  0  0
  -24.0960  -36.9090   23.2880 C   0  0  0  0  0  1  0  0  0  0  0  0
  -25.3330  -36.4570   24.0800 C   0  0  0  0  0  3  0  0  0  0  0  0
  -27.4770  -37.2810   24.9490 C   0  0  0  0  0  1  0  0  0  0  0  0
  -26.3780  -37.5030   24.0130 N   0  0  0  0  0  0  0  0  0  0  0  0
  -25.9820  -38.4200   24.2000 H   0  0  0  0  0  0  0  0  0  0  0  0
  1  5  1  0
  3  1  1  0
  3  6  1  0
  4  2  1  0
  5 11  1  0
  5  2  1  0
  6  4  1  0
  6  7  1  6
  8 12  2  0
  8 11  1  0
  9 13  1  0
 10 13  2  0
 11  9  2  0
 12 10  1  0
 13 53  1  0
 14 12  1  0
 15 23  1  0
 16 21  1  0
 17 18  1  0
 17 16  1  0
 19 18  1  0
 19 28  1  0
 19 20  1  0
 21 15  1  0
 21 20  1  0
 22 15  2  0
 23 24  1  0
 23 14  1  0
 25 26  2  0
 26 45  1  0
 27 26  1  0
 27 30  1  0
 28 29  1  0
 28 25  1  0
 29 27  2  0
 30 31  1  0
 31 32  2  0
 33 36  1  0
 33 32  1  0
 34 33  2  0
 35 34  1  0
 35 30  2  0
 36 37  1  0
 37 42  2  0
 37 38  1  0
 38 39  2  0
 39 40  1  0
 40 44  1  0
 41 40  2  0
 42 41  1  0
 43 42  1  0
 45 46  1  0
 46 49  1  0
 46 48  1  0
 47 45  2  0
 50 25  1  0
 50 51  1  0
 52 50  1  0
 53 54  1  0
 54 55  1  0
 54 57  1  0
 54 56  1  0
 58  6  1  0
 59 58  1  0
 60 59  1  0
 61 63  1  0
 61 60  1  0
 62 73  2  0
 63 68  1  0
 64 72  1  0
 64 74  1  0
 65 71  1  0
 65 67  1  0
 66 72  1  0
 67 66  1  0
 68 67  2  0
 69 70  1  0
 69 63  2  0
 70 65  2  0
 71 64  1  0
 72 62  1  0
 74 76  2  0
 75 74  1  0
 77 75  1  0
 78 87  2  0
 78 83  1  0
 79 75  1  0
 79 83  1  0
 80 79  1  0
 81 82  1  0
 81 80  1  0
 82 78  1  0
 83 84  2  0
 84 85  1  0
 86 85  2  0
 87 86  1  0
 88 62  1  0
 88 93  1  0
 88 89  1  0
 89 92  1  1
 89 90  1  0
 91 89  1  0
 93 96  1  0
 94 98  1  0
 94 93  1  0
 95 94  2  0
 98 97  1  0
100 98  1  0
100101  1  0
100 99  1  0
M  ISO  4  15 100  23 100  60 101  61 101
M  END
>  <TORSDO>  (20) 
F 23

>  <SCORE>  (20) 
-1.774

>  <name>  (20) 
20

>  <ligand_id>  (20) 
20

>  <original_smiles>  (20) 
[H]c1c([H])c([H])c2c(c1[H])C([H])([H])C([H])([H])C([H])([H])C2([H])N([H])C(=O)C1([H])N(C(=O)C([H])(N([H])C(=O)C([H])(N([H])C([H])([H])[H])C([H])([H])[H])C(C([H])([H])[H])(C([H])([H])[H])C([H])([H])[H])C([H])([H])c2c([H])c(OC([H])([H])C([H])([H])C([H])([H])[N+]3([H])C([H])([H])C([H])([H])C([H])(c4c([H])c(C([H])([H])N([H])C(=O)N5C([H])([H])C([H])([H])C([H])([H])C([H])(n6nc(-c7c([H])c([H])c(Oc8c([H])c([H])c(F)c([H])c8F)c([H])c7[H])c(C(=O)N([H])[H])c6N([H])[H])C5([H])[H])c([H])c(C([H])([H])[N+]([H])([H])[H])c4[H])C([H])([H])C3([H])[H])c([H])c([H])c2C1([H])[H]

>  <smiles>  (20) 
[H]c1c([H])c([H])c2c(c1[H])C([H])([H])C([H])([H])C([H])([H])C2([H])N([H])C(=O)C1([H])N(C(=O)C([H])(N([H])C(=O)C([H])(N([H])C([H])([H])[H])C([H])([H])[H])C(C([H])([H])[H])(C([H])([H])[H])C([H])([H])[H])C([H])([H])c2c([H])c(OC([H])([H])C([H])([H])C([H])([H])[N+]3([H])C([H])([H])C([H])([H])C([H])(c4c([H])c(C([H])([H])N([H])C(=O)N5C([H])([H])C([H])([H])C([H])([H])C([H])(n6nc(-c7c([H])c([H])c(Oc8c([H])c([H])c(F)c([H])c8F)c([H])c7[H])c(C(=O)N([H])[H])c6N([H])[H])C5([H])[H])c([H])c(C([H])([H])[N+]([H])([H])[H])c4[H])C([H])([H])C3([H])[H])c([H])c([H])c2C1([H])[H]

$$$$
21:0:0
     RDKit          3D

 90 98  0  0  1  0  0  0  0  0999 V2000
  -28.3050  -21.1080   19.5950 C   0  0  0  0  0  2  0  0  0  0  0  0
  -28.8960  -19.6170   19.4120 C   0  0  0  0  0  2  0  0  0  0  0  0
  -30.3000  -21.3960   21.0680 C   0  0  0  0  0  2  0  0  0  0  0  0
  -28.9560  -22.0980   20.6450 C   0  0  0  0  0  3  0  0  0  0  0  0
  -29.4390  -18.8500   20.6820 C   0  0  0  0  0  3  0  0  0  0  0  0
  -30.2240  -19.9190   21.3840 N   0  0  0  0  0  4  0  0  0  0  0  0
  -29.2980  -20.1960   21.6670 H   0  0  0  0  0  0  0  0  0  0  0  0
  -30.6720  -19.9090   20.4810 H   0  0  0  0  0  0  0  0  0  0  0  0
  -29.1410  -23.7100   20.3120 C   0  0  0  0  0  3  0  0  0  0  0  0
  -27.9700  -24.8500   20.3310 C   0  0  0  0  0  3  0  0  0  0  0  0
  -28.2520  -26.3460   20.2510 O   0  0  0  0  0  0  0  0  0  0  0  0
  -24.6090  -31.9230   23.2520 C   0  0  0  0  0  0  0  0  0  0  0  0
  -27.1720  -27.2710   20.2100 C   0  0  0  0  0  0  0  0  0  0  0  0
  -23.3970  -30.5310   21.6160 C   0  0  0  0  0  3  0  0  0  0  0  0
  -24.8370  -28.9640   20.1930 C   0  0  0  0  0  0  0  0  0  0  0  0
  -25.9450  -30.8110   21.4380 C   0  0  0  0  0  2  0  0  0  0  0  0
  -26.0150  -29.4260   20.7910 C   0  0  0  0  0  0  0  0  0  0  0  0
  -27.1890  -28.5960   20.7830 C   0  0  0  0  0  3  0  0  0  0  0  0
  -25.9680  -26.8950   19.5740 C   0  0  0  0  0  3  0  0  0  0  0  0
  -24.8200  -27.7100   19.5700 C   0  0  0  0  0  3  0  0  0  0  0  0
  -23.6080  -29.8540   20.2370 C   0  0  0  0  0  2  0  0  0  0  0  0
  -24.6700  -31.1090   22.1560 N   0  0  0  0  0  0  0  0  0  0  0  0
  -23.5250  -32.2080   23.7830 O   0  0  0  0  0  0  0  0  0  0  0  0
  -22.7230  -29.5230   22.5770 C   0  0  0  0  0  0  0  0  0  0  0  0
  -21.3940  -29.3530   22.4500 N   0  0  0  0  0  0  0  0  0  0  0  0
  -23.3950  -28.8960   23.3990 O   0  0  0  0  0  0  0  0  0  0  0  0
  -20.9090  -29.9110   21.7600 H   0  0  0  0  0  0  0  0  0  0  0  0
  -18.0080  -28.1790   22.9570 C   0  0  0  0  0  0  0  0  0  0  0  0
  -20.5680  -28.4220   23.2230 C   0  0  0  0  0  3  0  0  0  0  0  0
  -20.6610  -26.9900   22.6490 C   0  0  0  0  0  2  0  0  0  0  0  0
  -19.5550  -26.6730   21.6370 C   0  0  0  0  0  2  0  0  0  0  0  0
  -18.1750  -26.8280   22.2820 C   0  0  0  0  0  2  0  0  0  0  0  0
  -19.1320  -28.9350   23.3850 C   0  0  0  0  0  0  0  0  0  0  0  0
  -18.9210  -30.1990   23.9770 C   0  0  0  0  0  3  0  0  0  0  0  0
  -17.6190  -30.7070   24.1470 C   0  0  0  0  0  3  0  0  0  0  0  0
  -16.5090  -29.9480   23.7340 C   0  0  0  0  0  3  0  0  0  0  0  0
  -16.7060  -28.6850   23.1470 C   0  0  0  0  0  3  0  0  0  0  0  0
  -25.8920  -32.5510   23.8760 C   0  0  0  0  0  3  0  0  0  0  0  0
  -26.4080  -31.7720   25.1490 C   0  0  1  0  0  0  0  0  0  0  0  0
  -25.3150  -31.5330   26.2160 C   0  0  0  0  0  1  0  0  0  0  0  0
  -26.9860  -30.3960   24.7530 C   0  0  0  0  0  1  0  0  0  0  0  0
  -27.5620  -32.5610   25.8130 C   0  0  0  0  0  1  0  0  0  0  0  0
  -25.5850  -33.9490   24.2140 N   0  0  0  0  0  0  0  0  0  0  0  0
  -25.8920  -35.0050   23.4490 C   0  0  0  0  0  0  0  0  0  0  0  0
  -26.5310  -34.9040   22.3980 O   0  0  0  0  0  0  0  0  0  0  0  0
  -25.0180  -34.1010   25.0350 H   0  0  0  0  0  0  0  0  0  0  0  0
  -24.1400  -36.7870   23.1610 C   0  0  0  0  0  1  0  0  0  0  0  0
  -25.4150  -36.3910   23.9240 C   0  0  0  0  0  3  0  0  0  0  0  0
  -27.5720  -37.2940   24.6730 C   0  0  0  0  0  1  0  0  0  0  0  0
  -26.4350  -37.4500   23.7690 N   0  0  0  0  0  0  0  0  0  0  0  0
  -26.0270  -38.3680   23.9250 H   0  0  0  0  0  0  0  0  0  0  0  0
  -30.3300  -17.4650   20.5060 C   0  0  0  0  0  2  0  0  0  0  0  0
  -30.5450  -14.8410   20.3460 C   0  0  0  0  0  0  0  0  0  0  0  0
  -30.3510  -12.5500   19.3460 C   0  0  0  0  0  2  0  0  0  0  0  0
  -29.3990  -12.5990   18.1310 C   0  0  0  0  0  2  0  0  0  0  0  0
  -27.9370  -12.4150   18.5830 C   0  0  0  0  0  2  0  0  0  0  0  0
  -27.5690  -13.3020   19.8020 C   0  0  0  0  0  3  0  0  0  0  0  0
  -28.6420  -13.2390   20.9080 C   0  0  0  0  0  2  0  0  0  0  0  0
  -29.9180  -13.6130   20.2880 N   0  0  0  0  0  0  0  0  0  0  0  0
  -31.7380  -14.9140   20.0430 O   0  0  0  0  0  0  0  0  0  0  0  0
  -29.8000  -16.0130   20.5250 N   0  0  0  0  0  0  0  0  0  0  0  0
  -28.8210  -15.8880   20.7300 H   0  0  0  0  0  0  0  0  0  0  0  0
  -25.1890  -13.8700   20.5660 C   0  0  0  0  0  0  0  0  0  0  0  0
  -24.1310  -13.0860   20.9390 C   0  0  0  0  0  0  0  0  0  0  0  0
  -24.6020  -11.7370   20.8900 C   0  0  0  0  0  0  0  0  0  0  0  0
  -26.2350  -12.9970   20.3090 N   0  0  0  0  0  0  0  0  0  0  0  0
  -25.8880  -11.7100   20.5670 N   0  0  0  0  0  0  0  0  0  0  0  0
  -23.8830  -10.4680   21.0710 C   0  0  0  0  0  0  0  0  0  0  0  0
  -24.3250   -9.4950   21.9940 C   0  0  0  0  0  3  0  0  0  0  0  0
  -23.6030   -8.2940   22.1680 C   0  0  0  0  0  3  0  0  0  0  0  0
  -22.4300   -8.0560   21.4140 C   0  0  0  0  0  0  0  0  0  0  0  0
  -22.0080   -9.0170   20.4790 C   0  0  0  0  0  3  0  0  0  0  0  0
  -22.7290  -10.2090   20.3030 C   0  0  0  0  0  3  0  0  0  0  0  0
  -21.6820   -6.9060   21.4960 O   0  0  0  0  0  0  0  0  0  0  0  0
  -21.6300   -6.1600   22.6460 C   0  0  0  0  0  0  0  0  0  0  0  0
  -21.1640   -6.7030   23.8630 C   0  0  0  0  0  3  0  0  0  0  0  0
  -21.0620   -5.8830   25.0060 C   0  0  0  0  0  3  0  0  0  0  0  0
  -21.4140   -4.5220   24.9300 C   0  0  0  0  0  0  0  0  0  0  0  0
  -21.8720   -3.9800   23.7180 C   0  0  0  0  0  3  0  0  0  0  0  0
  -21.9770   -4.7960   22.5780 C   0  0  0  0  0  0  0  0  0  0  0  0
  -22.3990   -4.2640   21.4060 F   0  0  0  0  0  0  0  0  0  0  0  0
  -21.3090   -3.7330   26.0240 F   0  0  0  0  0  0  0  0  0  0  0  0
  -22.7340  -13.5520   21.2240 C   0  0  0  0  0  0  0  0  0  0  0  0
  -22.0160  -12.8510   22.0950 N   0  0  0  0  0  0  0  0  0  0  0  0
  -22.2850  -14.5770   20.7090 O   0  0  0  0  0  0  0  0  0  0  0  0
  -22.3910  -12.0260   22.5380 H   0  0  0  0  0  0  0  0  0  0  0  0
  -21.0790  -13.1490   22.3260 H   0  0  0  0  0  0  0  0  0  0  0  0
  -25.3420  -15.2430   20.3980 N   0  0  0  0  0  0  0  0  0  0  0  0
  -24.5640  -15.8840   20.5180 H   0  0  0  0  0  0  0  0  0  0  0  0
  -26.1650  -15.6870   20.0090 H   0  0  0  0  0  0  0  0  0  0  0  0
  1  4  1  0
  2  1  1  0
  2  5  1  0
  3  6  1  0
  4  9  1  0
  4  3  1  0
  5 52  1  0
  5  6  1  0
  6  7  1  0
  8  6  1  0
  9 10  2  0
 11 10  1  0
 12 23  2  0
 13 11  1  0
 13 18  1  0
 14 22  1  0
 14 24  1  0
 15 21  1  0
 15 17  1  0
 16 22  1  0
 17 16  1  0
 18 17  2  0
 19 13  2  0
 20 19  1  0
 20 15  2  0
 21 14  1  0
 22 12  1  0
 24 26  2  0
 25 24  1  0
 27 25  1  0
 28 37  2  0
 28 33  1  0
 29 25  1  0
 29 33  1  0
 30 29  1  0
 31 32  1  0
 31 30  1  0
 32 28  1  0
 33 34  2  0
 34 35  1  0
 36 35  2  0
 37 36  1  0
 38 12  1  0
 38 43  1  0
 38 39  1  0
 39 42  1  1
 39 40  1  0
 41 39  1  0
 43 46  1  0
 44 48  1  0
 44 43  1  0
 45 44  2  0
 48 47  1  0
 50 48  1  0
 50 51  1  0
 50 49  1  0
 52 61  1  0
 53 61  1  0
 54 59  1  0
 55 56  1  0
 55 54  1  0
 57 56  1  0
 57 66  1  0
 57 58  1  0
 59 53  1  0
 59 58  1  0
 60 53  2  0
 61 62  1  0
 63 64  2  0
 64 83  1  0
 65 64  1  0
 65 68  1  0
 66 63  1  0
 66 67  1  0
 67 65  2  0
 68 69  1  0
 69 70  2  0
 71 74  1  0
 71 70  1  0
 72 71  2  0
 73 72  1  0
 73 68  2  0
 74 75  1  0
 75 76  1  0
 76 77  2  0
 78 77  1  0
 78 82  1  0
 79 78  2  0
 80 75  2  0
 80 79  1  0
 81 80  1  0
 83 84  1  0
 84 87  1  0
 84 86  1  0
 85 83  2  0
 88 89  1  0
 88 63  1  0
 90 88  1  0
M  ISO  4  10 101  11 101  53 100  61 100
M  END
>  <TORSDO>  (21) 
F 19

>  <SCORE>  (21) 
-14.221

>  <name>  (21) 
21

>  <ligand_id>  (21) 
21

>  <original_smiles>  (21) 
[H]c1c([H])c([H])c2c(c1[H])C([H])([H])C([H])([H])C([H])([H])C2([H])N([H])C(=O)C1([H])N(C(=O)C([H])(N([H])C(=O)C([H])(N([H])C([H])([H])[H])C([H])([H])[H])C(C([H])([H])[H])(C([H])([H])[H])C([H])([H])[H])C([H])([H])c2c([H])c(OC([H])([H])C([H])([H])C3([H])C([H])([H])C([H])([H])C([H])(C([H])([H])N([H])C(=O)N4C([H])([H])C([H])([H])C([H])([H])C([H])(n5nc(-c6c([H])c([H])c(Oc7c([H])c([H])c(F)c([H])c7F)c([H])c6[H])c(C(=O)N([H])[H])c5N([H])[H])C4([H])[H])[N+]([H])([H])C3([H])[H])c([H])c([H])c2C1([H])[H]

>  <smiles>  (21) 
[H]c1c([H])c([H])c2c(c1[H])C([H])([H])C([H])([H])C([H])([H])C2([H])N([H])C(=O)C1([H])N(C(=O)C([H])(N([H])C(=O)C([H])(N([H])C([H])([H])[H])C([H])([H])[H])C(C([H])([H])[H])(C([H])([H])[H])C([H])([H])[H])C([H])([H])c2c([H])c(OC([H])([H])C([H])([H])C3([H])C([H])([H])C([H])([H])C([H])(C([H])([H])N([H])C(=O)N4C([H])([H])C([H])([H])C([H])([H])C([H])(n5nc(-c6c([H])c([H])c(Oc7c([H])c([H])c(F)c([H])c7F)c([H])c6[H])c(C(=O)N([H])[H])c5N([H])[H])C4([H])[H])[N+]([H])([H])C3([H])[H])c([H])c([H])c2C1([H])[H]

$$$$
22:0:0
     RDKit          3D

 96105  0  0  1  0  0  0  0  0999 V2000
  -27.7860  -19.9830   18.6580 C   0  0  0  0  0  3  0  0  0  0  0  0
  -27.2980  -20.8940   17.7910 C   0  0  0  0  0  0  0  0  0  0  0  0
  -27.1950  -20.6140   16.2960 C   0  0  0  0  0  2  0  0  0  0  0  0
  -27.3760  -19.1250   15.9640 C   0  0  0  0  0  2  0  0  0  0  0  0
  -28.5680  -18.5450   16.7280 C   0  0  0  0  0  2  0  0  0  0  0  0
  -28.3460  -18.6220   18.2550 C   0  0  0  0  0  3  0  0  0  0  0  0
  -26.8220  -22.2700   18.2300 C   0  0  0  0  0  2  0  0  0  0  0  0
  -27.5020  -24.6750   17.6680 C   0  0  0  0  0  2  0  0  0  0  0  0
  -28.4500  -23.4960   19.7310 C   0  0  0  0  0  2  0  0  0  0  0  0
  -28.3890  -25.8980   18.0240 C   0  0  0  0  0  2  0  0  0  0  0  0
  -29.5470  -24.5610   19.8350 C   0  0  0  0  0  2  0  0  0  0  0  0
  -27.9520  -23.3270   18.2840 C   0  0  0  0  0  3  0  0  0  0  0  0
  -29.0000  -25.9430   19.4510 C   0  0  0  0  0  3  0  0  0  0  0  0
  -28.2660  -26.4270   20.5910 O   0  0  0  0  0  0  0  0  0  0  0  0
  -24.4960  -31.8050   23.3100 C   0  0  0  0  0  0  0  0  0  0  0  0
  -27.1400  -27.2050   20.4710 C   0  0  0  0  0  0  0  0  0  0  0  0
  -23.3150  -30.3780   21.6750 C   0  0  0  0  0  3  0  0  0  0  0  0
  -24.7790  -28.7530   20.3670 C   0  0  0  0  0  0  0  0  0  0  0  0
  -25.8590  -30.6680   21.5570 C   0  0  0  0  0  2  0  0  0  0  0  0
  -25.9310  -29.2770   20.9630 C   0  0  0  0  0  0  0  0  0  0  0  0
  -27.1190  -28.5090   21.0090 C   0  0  0  0  0  3  0  0  0  0  0  0
  -25.9420  -26.6620   19.9760 C   0  0  0  0  0  3  0  0  0  0  0  0
  -24.7750  -27.4380   19.8760 C   0  0  0  0  0  3  0  0  0  0  0  0
  -23.5560  -29.6420   20.3330 C   0  0  0  0  0  2  0  0  0  0  0  0
  -24.5740  -30.9660   22.2390 N   0  0  0  0  0  0  0  0  0  0  0  0
  -23.4030  -32.1280   23.7950 O   0  0  0  0  0  0  0  0  0  0  0  0
  -22.5960  -29.4130   22.6450 C   0  0  0  0  0  0  0  0  0  0  0  0
  -21.2740  -29.2630   22.4700 N   0  0  0  0  0  0  0  0  0  0  0  0
  -23.2280  -28.8000   23.5100 O   0  0  0  0  0  0  0  0  0  0  0  0
  -20.8250  -29.8020   21.7420 H   0  0  0  0  0  0  0  0  0  0  0  0
  -17.8430  -28.2150   22.9010 C   0  0  0  0  0  0  0  0  0  0  0  0
  -20.4010  -28.3770   23.2400 C   0  0  0  0  0  3  0  0  0  0  0  0
  -20.4610  -26.9300   22.6980 C   0  0  0  0  0  2  0  0  0  0  0  0
  -19.3730  -26.6260   21.6630 C   0  0  0  0  0  2  0  0  0  0  0  0
  -17.9820  -26.8440   22.2640 C   0  0  0  0  0  2  0  0  0  0  0  0
  -18.9800  -28.9430   23.3450 C   0  0  0  0  0  0  0  0  0  0  0  0
  -18.7960  -30.2300   23.8970 C   0  0  0  0  0  3  0  0  0  0  0  0
  -17.5090  -30.7870   24.0110 C   0  0  0  0  0  3  0  0  0  0  0  0
  -16.3870  -30.0570   23.5850 C   0  0  0  0  0  3  0  0  0  0  0  0
  -16.5550  -28.7730   23.0370 C   0  0  0  0  0  3  0  0  0  0  0  0
  -25.7750  -32.4170   23.9610 C   0  0  0  0  0  3  0  0  0  0  0  0
  -25.4950  -33.8330   24.2250 N   0  0  0  0  0  0  0  0  0  0  0  0
  -25.9030  -34.8440   23.4470 C   0  0  0  0  0  0  0  0  0  0  0  0
  -26.6200  -34.6800   22.4550 O   0  0  0  0  0  0  0  0  0  0  0  0
  -24.8520  -34.0360   24.9760 H   0  0  0  0  0  0  0  0  0  0  0  0
  -24.2560  -36.6740   22.9370 C   0  0  0  0  0  1  0  0  0  0  0  0
  -25.4390  -36.2640   23.8280 C   0  0  0  0  0  3  0  0  0  0  0  0
  -27.5540  -37.1110   24.7450 C   0  0  0  0  0  1  0  0  0  0  0  0
  -26.5110  -37.2800   23.7350 N   0  0  0  0  0  0  0  0  0  0  0  0
  -26.1290  -38.2170   23.8250 H   0  0  0  0  0  0  0  0  0  0  0  0
  -26.2230  -31.6740   25.2790 C   0  0  1  0  0  0  0  0  0  0  0  0
  -25.0800  -31.4810   26.3030 C   0  0  0  0  0  1  0  0  0  0  0  0
  -26.7940  -30.2760   24.9490 C   0  0  0  0  0  1  0  0  0  0  0  0
  -27.3640  -32.4650   25.9610 C   0  0  0  0  0  1  0  0  0  0  0  0
  -29.6580  -18.3050   19.0020 C   0  0  0  0  0  2  0  0  0  0  0  0
  -29.4760  -17.5990   20.3580 C   0  0  0  0  0  2  0  0  0  0  0  0
  -30.8310  -17.4310   21.0720 C   0  0  0  0  0  2  0  0  0  0  0  0
  -30.8840  -16.3350   22.1530 C   0  0  0  0  0  2  0  0  0  0  0  0
  -31.0330  -14.1930   20.8410 C   0  0  0  0  0  0  0  0  0  0  0  0
  -30.6430  -12.2460   19.3760 C   0  0  0  0  0  2  0  0  0  0  0  0
  -29.6950  -12.6370   18.2230 C   0  0  0  0  0  2  0  0  0  0  0  0
  -28.2190  -12.5150   18.6510 C   0  0  0  0  0  2  0  0  0  0  0  0
  -27.9300  -13.1950   20.0150 C   0  0  0  0  0  3  0  0  0  0  0  0
  -28.9740  -12.7620   21.0670 C   0  0  0  0  0  2  0  0  0  0  0  0
  -30.3120  -13.0840   20.5360 N   0  0  0  0  0  0  0  0  0  0  0  0
  -32.1290  -14.4540   20.3330 O   0  0  0  0  0  0  0  0  0  0  0  0
  -30.4170  -15.0320   21.6840 N   0  0  0  0  0  0  0  0  0  0  0  0
  -29.5140  -14.7300   22.0240 H   0  0  0  0  0  0  0  0  0  0  0  0
  -25.5240  -13.8190   20.6940 C   0  0  0  0  0  0  0  0  0  0  0  0
  -24.4440  -13.0530   21.0350 C   0  0  0  0  0  0  0  0  0  0  0  0
  -24.8920  -11.6970   20.9860 C   0  0  0  0  0  0  0  0  0  0  0  0
  -26.5660  -12.9330   20.4660 N   0  0  0  0  0  0  0  0  0  0  0  0
  -26.1850  -11.6500   20.6970 N   0  0  0  0  0  0  0  0  0  0  0  0
  -24.1520  -10.4390   21.1470 C   0  0  0  0  0  0  0  0  0  0  0  0
  -24.5530   -9.4590   22.0830 C   0  0  0  0  0  3  0  0  0  0  0  0
  -23.8140   -8.2660   22.2310 C   0  0  0  0  0  3  0  0  0  0  0  0
  -22.6600   -8.0430   21.4430 C   0  0  0  0  0  0  0  0  0  0  0  0
  -22.2780   -9.0120   20.4970 C   0  0  0  0  0  3  0  0  0  0  0  0
  -23.0180  -10.1970   20.3470 C   0  0  0  0  0  3  0  0  0  0  0  0
  -21.8940   -6.9030   21.4990 O   0  0  0  0  0  0  0  0  0  0  0  0
  -21.7930   -6.1630   22.6480 C   0  0  0  0  0  0  0  0  0  0  0  0
  -21.2720   -6.7080   23.8420 C   0  0  0  0  0  3  0  0  0  0  0  0
  -21.1170   -5.8910   24.9810 C   0  0  0  0  0  3  0  0  0  0  0  0
  -21.4740   -4.5310   24.9260 C   0  0  0  0  0  0  0  0  0  0  0  0
  -21.9880   -3.9850   23.7360 C   0  0  0  0  0  3  0  0  0  0  0  0
  -22.1440   -4.7990   22.6000 C   0  0  0  0  0  0  0  0  0  0  0  0
  -22.6180   -4.2620   21.4500 F   0  0  0  0  0  0  0  0  0  0  0  0
  -21.3210   -3.7450   26.0170 F   0  0  0  0  0  0  0  0  0  0  0  0
  -23.0470  -13.5380   21.2990 C   0  0  0  0  0  0  0  0  0  0  0  0
  -22.3050  -12.8360   22.1460 N   0  0  0  0  0  0  0  0  0  0  0  0
  -22.6250  -14.5740   20.7870 O   0  0  0  0  0  0  0  0  0  0  0  0
  -22.6620  -11.9970   22.5800 H   0  0  0  0  0  0  0  0  0  0  0  0
  -21.3690  -13.1450   22.3670 H   0  0  0  0  0  0  0  0  0  0  0  0
  -25.7010  -15.1920   20.5430 N   0  0  0  0  0  0  0  0  0  0  0  0
  -24.9310  -15.8450   20.6460 H   0  0  0  0  0  0  0  0  0  0  0  0
  -26.5560  -15.6360   20.2360 H   0  0  0  0  0  0  0  0  0  0  0  0
  2  7  1  0
  2  1  2  0
  3  2  1  0
  4  3  1  0
  4  5  1  0
  5  6  1  0
  6  1  1  0
  6 55  1  0
  8 10  1  0
  8 12  1  0
  9 11  1  0
 10 13  1  0
 12  7  1  0
 12  9  1  0
 13 11  1  0
 13 14  1  0
 15 26  2  0
 16 14  1  0
 16 21  1  0
 17 25  1  0
 17 27  1  0
 18 20  1  0
 19 25  1  0
 20 21  2  0
 20 19  1  0
 22 16  2  0
 23 22  1  0
 23 18  2  0
 24 18  1  0
 24 17  1  0
 25 15  1  0
 27 29  2  0
 28 27  1  0
 30 28  1  0
 31 40  2  0
 31 36  1  0
 32 28  1  0
 32 36  1  0
 33 32  1  0
 34 35  1  0
 34 33  1  0
 35 31  1  0
 36 37  2  0
 37 38  1  0
 39 38  2  0
 40 39  1  0
 41 15  1  0
 41 42  1  0
 41 51  1  0
 42 45  1  0
 43 47  1  0
 43 42  1  0
 44 43  2  0
 47 46  1  0
 49 50  1  0
 49 47  1  0
 49 48  1  0
 51 54  1  1
 51 52  1  0
 53 51  1  0
 55 56  1  0
 56 57  1  0
 57 58  1  0
 59 67  1  0
 60 65  1  0
 61 62  1  0
 61 60  1  0
 63 62  1  0
 63 72  1  0
 63 64  1  0
 65 59  1  0
 65 64  1  0
 66 59  2  0
 67 68  1  0
 67 58  1  0
 69 70  2  0
 70 89  1  0
 71 70  1  0
 71 74  1  0
 72 69  1  0
 72 73  1  0
 73 71  2  0
 74 75  1  0
 75 76  2  0
 77 80  1  0
 77 76  1  0
 78 77  2  0
 79 78  1  0
 79 74  2  0
 80 81  1  0
 81 82  1  0
 82 83  2  0
 84 83  1  0
 84 88  1  0
 85 84  2  0
 86 81  2  0
 86 85  1  0
 87 86  1  0
 89 90  1  0
 90 93  1  0
 90 92  1  0
 91 89  2  0
 94 95  1  0
 94 69  1  0
 96 94  1  0
M  ISO  4  13 101  14 101  59 100  67 100
M  END
>  <TORSDO>  (22) 
F 22

>  <SCORE>  (22) 
-11.869

>  <name>  (22) 
22

>  <ligand_id>  (22) 
22

>  <original_smiles>  (22) 
[H]C1=C(C([H])([H])C2([H])C([H])([H])C([H])([H])C([H])(Oc3c([H])c([H])c4c(c3[H])C([H])([H])N(C(=O)C([H])(N([H])C(=O)C([H])(N([H])C([H])([H])[H])C([H])([H])[H])C(C([H])([H])[H])(C([H])([H])[H])C([H])([H])[H])C([H])(C(=O)N([H])C3([H])c5c([H])c([H])c([H])c([H])c5C([H])([H])C([H])([H])C3([H])[H])C4([H])[H])C([H])([H])C2([H])[H])C([H])([H])C([H])([H])C([H])([H])C1([H])C([H])([H])C([H])([H])C([H])([H])C([H])([H])N([H])C(=O)N1C([H])([H])C([H])([H])C([H])([H])C([H])(n2nc(-c3c([H])c([H])c(Oc4c([H])c([H])c(F)c([H])c4F)c([H])c3[H])c(C(=O)N([H])[H])c2N([H])[H])C1([H])[H]

>  <smiles>  (22) 
[H]C1=C(C([H])([H])C2([H])C([H])([H])C([H])([H])C([H])(Oc3c([H])c([H])c4c(c3[H])C([H])([H])N(C(=O)C([H])(N([H])C(=O)C([H])(N([H])C([H])([H])[H])C([H])([H])[H])C(C([H])([H])[H])(C([H])([H])[H])C([H])([H])[H])C([H])(C(=O)N([H])C3([H])c5c([H])c([H])c([H])c([H])c5C([H])([H])C([H])([H])C3([H])[H])C4([H])[H])C([H])([H])C2([H])[H])C([H])([H])C([H])([H])C([H])([H])C1([H])C([H])([H])C([H])([H])C([H])([H])C([H])([H])N([H])C(=O)N1C([H])([H])C([H])([H])C([H])([H])C([H])(n2nc(-c3c([H])c([H])c(Oc4c([H])c([H])c(F)c([H])c4F)c([H])c3[H])c(C(=O)N([H])[H])c2N([H])[H])C1([H])[H]

$$$$
23:0:0
     RDKit          3D

101109  0  0  1  0  0  0  0  0999 V2000
  -23.5380  -24.3650   23.6200 C   0  0  0  0  0  3  0  0  0  0  0  0
  -23.7660  -23.4340   24.6500 C   0  0  0  0  0  3  0  0  0  0  0  0
  -24.3860  -24.3930   22.4970 C   0  0  0  0  0  3  0  0  0  0  0  0
  -25.7150  -22.5830   23.4470 C   0  0  0  0  0  3  0  0  0  0  0  0
  -24.8590  -22.5450   24.5700 C   0  0  0  0  0  0  0  0  0  0  0  0
  -25.4820  -23.5090   22.4080 C   0  0  0  0  0  0  0  0  0  0  0  0
  -25.1290  -21.5660   25.6990 C   0  0  0  0  0  2  0  0  0  0  0  0
  -26.2450  -22.0460   26.5380 N   0  0  0  0  0  4  0  0  0  0  0  0
  -25.8930  -22.1060   27.4800 H   0  0  0  0  0  0  0  0  0  0  0  0
  -26.4820  -22.9820   26.2570 H   0  0  0  0  0  0  0  0  0  0  0  0
  -27.4640  -21.2090   26.5580 C   0  0  0  0  0  2  0  0  0  0  0  0
  -28.2870  -21.2930   25.2510 C   0  0  0  0  0  2  0  0  0  0  0  0
  -29.2590  -20.1110   25.1110 C   0  0  0  0  0  2  0  0  0  0  0  0
  -29.8600  -19.9630   23.7010 C   0  0  0  0  0  2  0  0  0  0  0  0
  -30.5190  -18.5840   23.5230 C   0  0  0  0  0  2  0  0  0  0  0  0
  -30.9310  -18.2310   22.0770 C   0  0  0  0  0  2  0  0  0  0  0  0
  -31.7160  -16.0910   21.0270 C   0  0  0  0  0  0  0  0  0  0  0  0
  -31.6890  -13.8840   19.9160 C   0  0  0  0  0  2  0  0  0  0  0  0
  -30.8930  -13.9100   18.5960 C   0  0  0  0  0  2  0  0  0  0  0  0
  -29.3890  -13.6960   18.8460 C   0  0  0  0  0  2  0  0  0  0  0  0
  -28.8400  -14.6330   19.9510 C   0  0  0  0  0  3  0  0  0  0  0  0
  -29.7320  -14.5600   21.2080 C   0  0  0  0  0  2  0  0  0  0  0  0
  -31.1270  -14.8850   20.8310 N   0  0  0  0  0  0  0  0  0  0  0  0
  -32.7040  -16.4920   20.4040 O   0  0  0  0  0  0  0  0  0  0  0  0
  -31.1500  -16.7920   22.0160 N   0  0  0  0  0  0  0  0  0  0  0  0
  -30.5180  -16.2480   22.5860 H   0  0  0  0  0  0  0  0  0  0  0  0
  -26.3500  -15.1820   20.3460 C   0  0  0  0  0  0  0  0  0  0  0  0
  -25.2680  -14.3850   20.6070 C   0  0  0  0  0  0  0  0  0  0  0  0
  -25.7700  -13.0480   20.6700 C   0  0  0  0  0  0  0  0  0  0  0  0
  -27.4420  -14.3320   20.2640 N   0  0  0  0  0  0  0  0  0  0  0  0
  -27.0870  -13.0440   20.5110 N   0  0  0  0  0  0  0  0  0  0  0  0
  -25.0650  -11.7690   20.8140 C   0  0  0  0  0  0  0  0  0  0  0  0
  -25.4160  -10.8450   21.8240 C   0  0  0  0  0  3  0  0  0  0  0  0
  -24.7180   -9.6270   21.9540 C   0  0  0  0  0  3  0  0  0  0  0  0
  -23.6500   -9.3230   21.0760 C   0  0  0  0  0  0  0  0  0  0  0  0
  -23.3180  -10.2370   20.0620 C   0  0  0  0  0  3  0  0  0  0  0  0
  -24.0180  -11.4480   19.9290 C   0  0  0  0  0  3  0  0  0  0  0  0
  -22.9300   -8.1540   21.1120 O   0  0  0  0  0  0  0  0  0  0  0  0
  -22.6420   -7.5240   22.2960 C   0  0  0  0  0  0  0  0  0  0  0  0
  -21.9810   -8.1860   23.3540 C   0  0  0  0  0  3  0  0  0  0  0  0
  -21.6410   -7.4790   24.5240 C   0  0  0  0  0  3  0  0  0  0  0  0
  -21.9540   -6.1100   24.6360 C   0  0  0  0  0  0  0  0  0  0  0  0
  -22.6060   -5.4470   23.5820 C   0  0  0  0  0  3  0  0  0  0  0  0
  -22.9490   -6.1540   22.4160 C   0  0  0  0  0  0  0  0  0  0  0  0
  -23.5600   -5.5070   21.3940 F   0  0  0  0  0  0  0  0  0  0  0  0
  -21.6220   -5.4270   25.7560 F   0  0  0  0  0  0  0  0  0  0  0  0
  -23.8330  -14.8220   20.7020 C   0  0  0  0  0  0  0  0  0  0  0  0
  -23.0230  -14.1110   21.4770 N   0  0  0  0  0  0  0  0  0  0  0  0
  -23.4340  -15.8330   20.1250 O   0  0  0  0  0  0  0  0  0  0  0  0
  -23.3540  -13.2950   21.9690 H   0  0  0  0  0  0  0  0  0  0  0  0
  -22.0550  -14.3850   21.5780 H   0  0  0  0  0  0  0  0  0  0  0  0
  -26.4870  -16.5540   20.1570 N   0  0  0  0  0  0  0  0  0  0  0  0
  -25.6830  -17.1740   20.1730 H   0  0  0  0  0  0  0  0  0  0  0  0
  -27.3590  -17.0280   19.9540 H   0  0  0  0  0  0  0  0  0  0  0  0
  -26.4070  -23.5610   21.2050 C   0  0  0  0  0  2  0  0  0  0  0  0
  -27.4130  -24.6210   21.3880 N   0  0  0  0  0  4  0  0  0  0  0  0
  -26.9210  -25.4980   21.4060 H   0  0  0  0  0  0  0  0  0  0  0  0
  -27.8500  -24.4980   22.2890 H   0  0  0  0  0  0  0  0  0  0  0  0
  -28.4550  -24.6780   20.3420 C   0  0  0  0  0  2  0  0  0  0  0  0
  -29.1650  -26.0380   20.3400 C   0  0  0  0  0  2  0  0  0  0  0  0
  -28.5790  -26.9040   19.3750 O   0  0  0  0  0  0  0  0  0  0  0  0
  -24.8410  -31.5510   23.3070 C   0  0  0  0  0  0  0  0  0  0  0  0
  -27.3800  -27.5040   19.6620 C   0  0  0  0  0  0  0  0  0  0  0  0
  -23.5680  -30.3200   21.5760 C   0  0  0  0  0  3  0  0  0  0  0  0
  -24.9670  -28.9380   19.9540 C   0  0  0  0  0  0  0  0  0  0  0  0
  -26.0810  -30.7180   21.3140 C   0  0  0  0  0  2  0  0  0  0  0  0
  -26.1440  -29.4160   20.5460 C   0  0  0  0  0  0  0  0  0  0  0  0
  -27.3520  -28.7020   20.4040 C   0  0  0  0  0  3  0  0  0  0  0  0
  -26.1890  -27.0220   19.0800 C   0  0  0  0  0  3  0  0  0  0  0  0
  -24.9800  -27.7320   19.2270 C   0  0  0  0  0  3  0  0  0  0  0  0
  -23.7250  -29.7810   20.1290 C   0  0  0  0  0  2  0  0  0  0  0  0
  -24.8490  -30.8760   22.1230 N   0  0  0  0  0  0  0  0  0  0  0  0
  -23.7830  -31.7600   23.9150 O   0  0  0  0  0  0  0  0  0  0  0  0
  -22.9590  -29.2040   22.4510 C   0  0  0  0  0  0  0  0  0  0  0  0
  -21.6520  -28.9480   22.2690 N   0  0  0  0  0  0  0  0  0  0  0  0
  -23.6580  -28.5690   23.2460 O   0  0  0  0  0  0  0  0  0  0  0  0
  -21.1490  -29.5170   21.6040 H   0  0  0  0  0  0  0  0  0  0  0  0
  -18.3840  -27.4240   22.4770 C   0  0  0  0  0  0  0  0  0  0  0  0
  -20.8780  -27.9130   22.9520 C   0  0  0  0  0  3  0  0  0  0  0  0
  -21.1620  -26.5170   22.3530 C   0  0  0  0  0  2  0  0  0  0  0  0
  -20.1740  -26.1230   21.2510 C   0  0  0  0  0  2  0  0  0  0  0  0
  -18.7410  -26.1180   21.7870 C   0  0  0  0  0  2  0  0  0  0  0  0
  -19.3890  -28.2740   23.0100 C   0  0  0  0  0  0  0  0  0  0  0  0
  -19.0090  -29.4940   23.6080 C   0  0  0  0  0  3  0  0  0  0  0  0
  -17.6550  -29.8680   23.6830 C   0  0  0  0  0  3  0  0  0  0  0  0
  -16.6620  -29.0130   23.1720 C   0  0  0  0  0  3  0  0  0  0  0  0
  -17.0280  -27.7950   22.5720 C   0  0  0  0  0  3  0  0  0  0  0  0
  -26.1530  -32.1150   23.9380 C   0  0  0  0  0  3  0  0  0  0  0  0
  -25.8860  -33.5000   24.3450 N   0  0  0  0  0  0  0  0  0  0  0  0
  -26.2510  -34.5820   23.6420 C   0  0  0  0  0  0  0  0  0  0  0  0
  -26.9220  -34.5130   22.6080 O   0  0  0  0  0  0  0  0  0  0  0  0
  -25.2950  -33.6270   25.1540 H   0  0  0  0  0  0  0  0  0  0  0  0
  -24.5770  -36.4400   23.3800 C   0  0  0  0  0  1  0  0  0  0  0  0
  -25.8040  -35.9570   24.1710 C   0  0  0  0  0  3  0  0  0  0  0  0
  -27.9650  -36.7300   25.0450 C   0  0  0  0  0  1  0  0  0  0  0  0
  -26.8670  -36.9850   24.1160 N   0  0  0  0  0  0  0  0  0  0  0  0
  -26.4890  -37.9060   24.3180 H   0  0  0  0  0  0  0  0  0  0  0  0
  -26.6730  -31.2640   25.1610 C   0  0  1  0  0  0  0  0  0  0  0  0
  -25.5950  -30.9980   26.2370 C   0  0  0  0  0  1  0  0  0  0  0  0
  -27.2120  -29.8950   24.6820 C   0  0  0  0  0  1  0  0  0  0  0  0
  -27.8560  -31.9950   25.8420 C   0  0  0  0  0  1  0  0  0  0  0  0
  1  2  1  0
  3  1  2  0
  4  5  1  0
  5  2  2  0
  5  7  1  0
  6  3  1  0
  6  4  2  0
  7  8  1  0
  8 11  1  0
  8  9  1  0
 10  8  1  0
 12 11  1  0
 13 12  1  0
 14 13  1  0
 15 14  1  0
 16 15  1  0
 17 25  1  0
 18 23  1  0
 19 20  1  0
 19 18  1  0
 21 20  1  0
 21 30  1  0
 21 22  1  0
 23 17  1  0
 23 22  1  0
 24 17  2  0
 25 16  1  0
 25 26  1  0
 27 28  2  0
 28 29  1  0
 28 47  1  0
 29 32  1  0
 30 27  1  0
 30 31  1  0
 31 29  2  0
 32 33  1  0
 33 34  2  0
 35 38  1  0
 35 34  1  0
 36 35  2  0
 37 36  1  0
 37 32  2  0
 38 39  1  0
 39 44  2  0
 39 40  1  0
 40 41  2  0
 41 42  1  0
 42 46  1  0
 43 42  2  0
 44 43  1  0
 45 44  1  0
 47 48  1  0
 48 51  1  0
 48 50  1  0
 49 47  2  0
 52 53  1  0
 52 27  1  0
 54 52  1  0
 55 56  1  0
 55  6  1  0
 56 57  1  0
 56 58  1  0
 59 56  1  0
 60 59  1  0
 61 63  1  0
 61 60  1  0
 62 73  2  0
 63 68  1  0
 64 72  1  0
 64 74  1  0
 65 71  1  0
 65 67  1  0
 66 72  1  0
 67 66  1  0
 68 67  2  0
 69 70  1  0
 69 63  2  0
 70 65  2  0
 71 64  1  0
 72 62  1  0
 74 76  2  0
 75 74  1  0
 77 75  1  0
 78 87  2  0
 78 83  1  0
 79 75  1  0
 79 83  1  0
 80 79  1  0
 81 82  1  0
 81 80  1  0
 82 78  1  0
 83 84  2  0
 84 85  1  0
 86 85  2  0
 87 86  1  0
 88 62  1  0
 88 89  1  0
 88 98  1  0
 89 92  1  0
 90 94  1  0
 90 89  1  0
 91 90  2  0
 94 93  1  0
 96 94  1  0
 96 97  1  0
 96 95  1  0
 98101  1  1
 98 99  1  0
100 98  1  0
M  ISO  4  17 100  25 100  60 101  61 101
M  END
>  <TORSDO>  (23) 
F 28

>  <SCORE>  (23) 
24.719

>  <name>  (23) 
23

>  <ligand_id>  (23) 
23

>  <original_smiles>  (23) 
[H]c1c([H])c([H])c2c(c1[H])C([H])([H])C([H])([H])C([H])([H])C2([H])N([H])C(=O)C1([H])N(C(=O)C([H])(N([H])C(=O)C([H])(N([H])C([H])([H])[H])C([H])([H])[H])C(C([H])([H])[H])(C([H])([H])[H])C([H])([H])[H])C([H])([H])c2c([H])c(OC([H])([H])C([H])([H])[N+]([H])([H])C([H])([H])c3c([H])c([H])c([H])c(C([H])([H])[N+]([H])([H])C([H])([H])C([H])([H])C([H])([H])C([H])([H])C([H])([H])C([H])([H])N([H])C(=O)N4C([H])([H])C([H])([H])C([H])([H])C([H])(n5nc(-c6c([H])c([H])c(Oc7c([H])c([H])c(F)c([H])c7F)c([H])c6[H])c(C(=O)N([H])[H])c5N([H])[H])C4([H])[H])c3[H])c([H])c([H])c2C1([H])[H]

>  <smiles>  (23) 
[H]c1c([H])c([H])c2c(c1[H])C([H])([H])C([H])([H])C([H])([H])C2([H])N([H])C(=O)C1([H])N(C(=O)C([H])(N([H])C(=O)C([H])(N([H])C([H])([H])[H])C([H])([H])[H])C(C([H])([H])[H])(C([H])([H])[H])C([H])([H])[H])C([H])([H])c2c([H])c(OC([H])([H])C([H])([H])[N+]([H])([H])C([H])([H])c3c([H])c([H])c([H])c(C([H])([H])[N+]([H])([H])C([H])([H])C([H])([H])C([H])([H])C([H])([H])C([H])([H])C([H])([H])N([H])C(=O)N4C([H])([H])C([H])([H])C([H])([H])C([H])(n5nc(-c6c([H])c([H])c(Oc7c([H])c([H])c(F)c([H])c7F)c([H])c6[H])c(C(=O)N([H])[H])c5N([H])[H])C4([H])[H])c3[H])c([H])c([H])c2C1([H])[H]

$$$$
24:0:0
     RDKit          3D

 97106  0  0  1  0  0  0  0  0999 V2000
  -26.5290  -21.4700   20.7050 C   0  0  0  0  0  2  0  0  0  0  0  0
  -25.1850  -22.9720   19.1670 C   0  0  0  0  0  2  0  0  0  0  0  0
  -27.4160  -22.6460   21.1820 C   0  0  0  0  0  2  0  0  0  0  0  0
  -25.3990  -23.9120   20.3790 C   0  0  0  0  0  2  0  0  0  0  0  0
  -25.9980  -21.6550   19.2570 C   0  0  0  0  0  3  0  0  0  0  0  0
  -26.9050  -24.0270   20.7060 C   0  0  0  0  0  3  0  0  0  0  0  0
  -27.0710  -21.5010   18.1330 C   0  0  0  0  0  2  0  0  0  0  0  0
  -29.2640  -20.6110   19.0230 C   0  0  0  0  0  3  0  0  0  0  0  0
  -27.4880  -19.0300   18.4490 C   0  0  0  0  0  3  0  0  0  0  0  0
  -29.8730  -19.6340   19.8320 C   0  0  0  0  0  3  0  0  0  0  0  0
  -28.1130  -18.0470   19.2350 C   0  0  0  0  0  3  0  0  0  0  0  0
  -28.0010  -20.3450   18.4530 C   0  0  0  0  0  0  0  0  0  0  0  0
  -29.2450  -18.3830   20.0090 C   0  0  0  0  0  0  0  0  0  0  0  0
  -29.7010  -17.4400   21.1070 C   0  0  0  0  0  2  0  0  0  0  0  0
  -31.2070  -17.1380   21.0930 C   0  0  0  0  0  2  0  0  0  0  0  0
  -31.5810  -15.8660   21.8840 C   0  0  0  0  0  2  0  0  0  0  0  0
  -30.8750  -14.1870   20.2130 C   0  0  0  0  0  0  0  0  0  0  0  0
  -30.3040  -12.1810   18.9320 C   0  0  0  0  0  2  0  0  0  0  0  0
  -29.3350  -12.4610   17.7760 C   0  0  0  0  0  2  0  0  0  0  0  0
  -27.8840  -12.3610   18.2670 C   0  0  0  0  0  2  0  0  0  0  0  0
  -27.6280  -13.2220   19.5320 C   0  0  0  0  0  3  0  0  0  0  0  0
  -28.7080  -12.9760   20.6120 C   0  0  0  0  0  2  0  0  0  0  0  0
  -30.0470  -13.1390   20.0120 N   0  0  0  0  0  0  0  0  0  0  0  0
  -31.7380  -14.5500   19.4110 O   0  0  0  0  0  0  0  0  0  0  0  0
  -30.8190  -14.7020   21.4420 N   0  0  0  0  0  0  0  0  0  0  0  0
  -30.1990  -14.2520   22.1000 H   0  0  0  0  0  0  0  0  0  0  0  0
  -25.2660  -13.9090   20.3050 C   0  0  0  0  0  0  0  0  0  0  0  0
  -24.1850  -13.1710   20.7060 C   0  0  0  0  0  0  0  0  0  0  0  0
  -24.6060  -11.8050   20.6720 C   0  0  0  0  0  0  0  0  0  0  0  0
  -26.2800  -12.9970   20.0510 N   0  0  0  0  0  0  0  0  0  0  0  0
  -25.8840  -11.7260   20.3260 N   0  0  0  0  0  0  0  0  0  0  0  0
  -23.8500  -10.5660   20.8900 C   0  0  0  0  0  0  0  0  0  0  0  0
  -24.2740   -9.5960   21.8260 C   0  0  0  0  0  3  0  0  0  0  0  0
  -23.5190   -8.4220   22.0310 C   0  0  0  0  0  3  0  0  0  0  0  0
  -22.3260   -8.2080   21.2990 C   0  0  0  0  0  0  0  0  0  0  0  0
  -21.9200   -9.1660   20.3530 C   0  0  0  0  0  3  0  0  0  0  0  0
  -22.6760  -10.3310   20.1460 C   0  0  0  0  0  3  0  0  0  0  0  0
  -21.5420   -7.0860   21.4140 O   0  0  0  0  0  0  0  0  0  0  0  0
  -21.4850   -6.3630   22.5790 C   0  0  0  0  0  0  0  0  0  0  0  0
  -21.1020   -6.9520   23.8030 C   0  0  0  0  0  3  0  0  0  0  0  0
  -20.9890   -6.1580   24.9620 C   0  0  0  0  0  3  0  0  0  0  0  0
  -21.2510   -4.7760   24.8980 C   0  0  0  0  0  0  0  0  0  0  0  0
  -21.6260   -4.1860   23.6780 C   0  0  0  0  0  3  0  0  0  0  0  0
  -21.7400   -4.9770   22.5210 C   0  0  0  0  0  0  0  0  0  0  0  0
  -22.0830   -4.4000   21.3440 F   0  0  0  0  0  0  0  0  0  0  0  0
  -21.1360   -4.0110   26.0080 F   0  0  0  0  0  0  0  0  0  0  0  0
  -22.8120  -13.6910   21.0200 C   0  0  0  0  0  0  0  0  0  0  0  0
  -22.0930  -13.0190   21.9120 N   0  0  0  0  0  0  0  0  0  0  0  0
  -22.3880  -14.7280   20.5130 O   0  0  0  0  0  0  0  0  0  0  0  0
  -22.4490  -12.1780   22.3410 H   0  0  0  0  0  0  0  0  0  0  0  0
  -21.1730  -13.3490   22.1670 H   0  0  0  0  0  0  0  0  0  0  0  0
  -25.4650  -15.2720   20.1130 N   0  0  0  0  0  0  0  0  0  0  0  0
  -24.7280  -15.9540   20.2550 H   0  0  0  0  0  0  0  0  0  0  0  0
  -26.3280  -15.6820   19.7840 H   0  0  0  0  0  0  0  0  0  0  0  0
  -27.2330  -25.1620   21.7120 C   0  0  0  0  0  2  0  0  0  0  0  0
  -28.4570  -26.0480   21.3410 C   0  0  0  0  0  2  0  0  0  0  0  0
  -28.3390  -26.7530   20.0980 O   0  0  0  0  0  0  0  0  0  0  0  0
  -24.6300  -31.9320   23.2290 C   0  0  0  0  0  0  0  0  0  0  0  0
  -27.2340  -27.5540   20.0560 C   0  0  0  0  0  0  0  0  0  0  0  0
  -23.4050  -30.5380   21.5900 C   0  0  0  0  0  3  0  0  0  0  0  0
  -24.8400  -29.0260   20.1200 C   0  0  0  0  0  0  0  0  0  0  0  0
  -25.9240  -30.9090   21.3650 C   0  0  0  0  0  2  0  0  0  0  0  0
  -25.9990  -29.5450   20.7170 C   0  0  0  0  0  0  0  0  0  0  0  0
  -27.1980  -28.8050   20.7020 C   0  0  0  0  0  3  0  0  0  0  0  0
  -26.0870  -27.0770   19.3980 C   0  0  0  0  0  3  0  0  0  0  0  0
  -24.8740  -27.7850   19.4580 C   0  0  0  0  0  3  0  0  0  0  0  0
  -23.5920  -29.8710   20.2000 C   0  0  0  0  0  2  0  0  0  0  0  0
  -24.6730  -31.1410   22.1170 N   0  0  0  0  0  0  0  0  0  0  0  0
  -23.5550  -32.1960   23.7800 O   0  0  0  0  0  0  0  0  0  0  0  0
  -22.7680  -29.5080   22.5490 C   0  0  0  0  0  0  0  0  0  0  0  0
  -21.4430  -29.3290   22.4340 N   0  0  0  0  0  0  0  0  0  0  0  0
  -23.4630  -28.8730   23.3480 O   0  0  0  0  0  0  0  0  0  0  0  0
  -20.9510  -29.8940   21.7560 H   0  0  0  0  0  0  0  0  0  0  0  0
  -18.0680  -28.1390   22.9490 C   0  0  0  0  0  0  0  0  0  0  0  0
  -20.6290  -28.3910   23.2000 C   0  0  0  0  0  3  0  0  0  0  0  0
  -20.7260  -26.9650   22.6140 C   0  0  0  0  0  2  0  0  0  0  0  0
  -19.6110  -26.6490   21.6120 C   0  0  0  0  0  2  0  0  0  0  0  0
  -18.2340  -26.7930   22.2650 C   0  0  0  0  0  2  0  0  0  0  0  0
  -19.1940  -28.8990   23.3730 C   0  0  0  0  0  0  0  0  0  0  0  0
  -18.9840  -30.1580   23.9720 C   0  0  0  0  0  3  0  0  0  0  0  0
  -17.6830  -30.6630   24.1520 C   0  0  0  0  0  3  0  0  0  0  0  0
  -16.5720  -29.9050   23.7390 C   0  0  0  0  0  3  0  0  0  0  0  0
  -16.7670  -28.6450   23.1490 C   0  0  0  0  0  3  0  0  0  0  0  0
  -25.9250  -32.5530   23.8420 C   0  0  0  0  0  3  0  0  0  0  0  0
  -25.6210  -33.9480   24.1880 N   0  0  0  0  0  0  0  0  0  0  0  0
  -25.9410  -35.0060   23.4300 C   0  0  0  0  0  0  0  0  0  0  0  0
  -26.5940  -34.9100   22.3860 O   0  0  0  0  0  0  0  0  0  0  0  0
  -25.0500  -34.1010   25.0060 H   0  0  0  0  0  0  0  0  0  0  0  0
  -24.1960  -36.7900   23.1230 C   0  0  0  0  0  1  0  0  0  0  0  0
  -25.4600  -36.3920   23.9020 C   0  0  0  0  0  3  0  0  0  0  0  0
  -27.6130  -37.2700   24.6850 C   0  0  0  0  0  1  0  0  0  0  0  0
  -26.4870  -37.4480   23.7710 N   0  0  0  0  0  0  0  0  0  0  0  0
  -26.0850  -38.3660   23.9410 H   0  0  0  0  0  0  0  0  0  0  0  0
  -26.4620  -31.7640   25.0990 C   0  0  1  0  0  0  0  0  0  0  0  0
  -25.3860  -31.5070   26.1770 C   0  0  0  0  0  1  0  0  0  0  0  0
  -27.0370  -30.3940   24.6720 C   0  0  0  0  0  1  0  0  0  0  0  0
  -27.6280  -32.5450   25.7500 C   0  0  0  0  0  1  0  0  0  0  0  0
  1  3  1  0
  2  5  1  0
  2  4  1  0
  4  6  1  0
  5  7  1  0
  5  1  1  0
  6  3  1  0
  6 55  1  0
  7 12  1  0
  8 10  1  0
  9 12  1  0
  9 11  2  0
 10 13  2  0
 11 13  1  0
 12  8  2  0
 13 14  1  0
 15 14  1  0
 15 16  1  0
 17 25  1  0
 18 23  1  0
 19 20  1  0
 19 18  1  0
 21 20  1  0
 21 30  1  0
 21 22  1  0
 23 17  1  0
 23 22  1  0
 24 17  2  0
 25 16  1  0
 25 26  1  0
 27 28  2  0
 28 47  1  0
 29 28  1  0
 29 32  1  0
 30 27  1  0
 30 31  1  0
 31 29  2  0
 32 33  1  0
 33 34  2  0
 35 38  1  0
 35 34  1  0
 36 35  2  0
 37 36  1  0
 37 32  2  0
 38 39  1  0
 39 40  1  0
 40 41  2  0
 42 41  1  0
 42 46  1  0
 43 42  2  0
 44 39  2  0
 44 43  1  0
 45 44  1  0
 47 48  1  0
 48 51  1  0
 48 50  1  0
 49 47  2  0
 52 53  1  0
 52 27  1  0
 54 52  1  0
 56 55  1  0
 57 56  1  0
 58 69  2  0
 59 57  1  0
 59 64  1  0
 60 68  1  0
 60 70  1  0
 61 67  1  0
 61 63  1  0
 62 68  1  0
 63 62  1  0
 64 63  2  0
 65 66  1  0
 65 59  2  0
 66 61  2  0
 67 60  1  0
 68 58  1  0
 70 72  2  0
 71 70  1  0
 73 71  1  0
 74 83  2  0
 74 79  1  0
 75 71  1  0
 75 79  1  0
 76 75  1  0
 77 78  1  0
 77 76  1  0
 78 74  1  0
 79 80  2  0
 80 81  1  0
 82 81  2  0
 83 82  1  0
 84 58  1  0
 84 85  1  0
 84 94  1  0
 85 88  1  0
 86 90  1  0
 86 85  1  0
 87 86  2  0
 90 89  1  0
 92 90  1  0
 92 93  1  0
 92 91  1  0
 94 97  1  1
 94 95  1  0
 96 94  1  0
M  ISO  4  17 100  25 100  56 101  57 101
M  END
>  <TORSDO>  (24) 
F 23

>  <SCORE>  (24) 
-11.490

>  <name>  (24) 
24

>  <ligand_id>  (24) 
24

>  <original_smiles>  (24) 
[H]c1c([H])c([H])c2c(c1[H])C([H])([H])C([H])([H])C([H])([H])C2([H])N([H])C(=O)C1([H])N(C(=O)C([H])(N([H])C(=O)C([H])(N([H])C([H])([H])[H])C([H])([H])[H])C(C([H])([H])[H])(C([H])([H])[H])C([H])([H])[H])C([H])([H])c2c([H])c(OC([H])([H])C([H])([H])C3([H])C([H])([H])C([H])([H])C([H])(C([H])([H])c4c([H])c([H])c(C([H])([H])C([H])([H])C([H])([H])N([H])C(=O)N5C([H])([H])C([H])([H])C([H])([H])C([H])(n6nc(-c7c([H])c([H])c(Oc8c([H])c([H])c(F)c([H])c8F)c([H])c7[H])c(C(=O)N([H])[H])c6N([H])[H])C5([H])[H])c([H])c4[H])C([H])([H])C3([H])[H])c([H])c([H])c2C1([H])[H]

>  <smiles>  (24) 
[H]c1c([H])c([H])c2c(c1[H])C([H])([H])C([H])([H])C([H])([H])C2([H])N([H])C(=O)C1([H])N(C(=O)C([H])(N([H])C(=O)C([H])(N([H])C([H])([H])[H])C([H])([H])[H])C(C([H])([H])[H])(C([H])([H])[H])C([H])([H])[H])C([H])([H])c2c([H])c(OC([H])([H])C([H])([H])C3([H])C([H])([H])C([H])([H])C([H])(C([H])([H])c4c([H])c([H])c(C([H])([H])C([H])([H])C([H])([H])N([H])C(=O)N5C([H])([H])C([H])([H])C([H])([H])C([H])(n6nc(-c7c([H])c([H])c(Oc8c([H])c([H])c(F)c([H])c8F)c([H])c7[H])c(C(=O)N([H])[H])c6N([H])[H])C5([H])[H])c([H])c4[H])C([H])([H])C3([H])[H])c([H])c([H])c2C1([H])[H]

$$$$
25:0:0
     RDKit          3D

 95103  0  0  1  0  0  0  0  0999 V2000
  -26.3920  -18.9720   18.2920 C   0  0  0  0  0  2  0  0  0  0  0  0
  -26.9580  -18.2460   19.5220 C   0  0  0  0  0  2  0  0  0  0  0  0
  -28.7460  -19.9870   20.1890 C   0  0  0  0  0  2  0  0  0  0  0  0
  -25.8690  -20.3980   18.5570 C   0  0  0  0  0  2  0  0  0  0  0  0
  -28.1820  -21.0360   19.2140 C   0  0  0  0  0  2  0  0  0  0  0  0
  -28.4540  -18.5250   19.7890 C   0  0  0  0  0  3  0  0  0  0  0  0
  -26.7270  -21.2290   19.4440 N   0  0  1  0  0  4  0  0  0  0  0  0
  -26.5500  -20.8930   20.3790 H   0  0  0  0  0  0  0  0  0  0  0  0
  -28.9920  -17.5300   20.8380 C   0  0  0  0  0  2  0  0  0  0  0  0
  -30.5310  -17.4420   20.8780 C   0  0  0  0  0  2  0  0  0  0  0  0
  -31.0640  -16.2880   21.7470 C   0  0  0  0  0  2  0  0  0  0  0  0
  -30.9150  -14.2690   20.2800 C   0  0  0  0  0  0  0  0  0  0  0  0
  -30.4610  -12.2380   18.9570 C   0  0  0  0  0  2  0  0  0  0  0  0
  -29.4930  -12.5200   17.7940 C   0  0  0  0  0  2  0  0  0  0  0  0
  -28.0280  -12.4180   18.2590 C   0  0  0  0  0  2  0  0  0  0  0  0
  -27.7560  -13.2290   19.5510 C   0  0  0  0  0  3  0  0  0  0  0  0
  -28.8200  -12.9100   20.6240 C   0  0  0  0  0  2  0  0  0  0  0  0
  -30.1570  -13.1680   20.0520 N   0  0  0  0  0  0  0  0  0  0  0  0
  -31.9060  -14.5710   19.6070 O   0  0  0  0  0  0  0  0  0  0  0  0
  -30.5230  -14.9990   21.3290 N   0  0  0  0  0  0  0  0  0  0  0  0
  -29.7260  -14.6500   21.8410 H   0  0  0  0  0  0  0  0  0  0  0  0
  -25.3800  -13.9020   20.2960 C   0  0  0  0  0  0  0  0  0  0  0  0
  -24.2990  -13.1610   20.6870 C   0  0  0  0  0  0  0  0  0  0  0  0
  -24.7280  -11.8000   20.6580 C   0  0  0  0  0  0  0  0  0  0  0  0
  -26.4010  -12.9950   20.0520 N   0  0  0  0  0  0  0  0  0  0  0  0
  -26.0100  -11.7250   20.3250 N   0  0  0  0  0  0  0  0  0  0  0  0
  -23.9750  -10.5590   20.8760 C   0  0  0  0  0  0  0  0  0  0  0  0
  -24.3870   -9.6020   21.8300 C   0  0  0  0  0  3  0  0  0  0  0  0
  -23.6370   -8.4260   22.0330 C   0  0  0  0  0  3  0  0  0  0  0  0
  -22.4590   -8.1970   21.2830 C   0  0  0  0  0  0  0  0  0  0  0  0
  -22.0650   -9.1420   20.3180 C   0  0  0  0  0  3  0  0  0  0  0  0
  -22.8160  -10.3110   20.1130 C   0  0  0  0  0  3  0  0  0  0  0  0
  -21.6800   -7.0710   21.3930 O   0  0  0  0  0  0  0  0  0  0  0  0
  -21.5930   -6.3690   22.5690 C   0  0  0  0  0  0  0  0  0  0  0  0
  -21.1530   -6.9750   23.7660 C   0  0  0  0  0  3  0  0  0  0  0  0
  -21.0120   -6.2000   24.9360 C   0  0  0  0  0  3  0  0  0  0  0  0
  -21.3020   -4.8230   24.9080 C   0  0  0  0  0  0  0  0  0  0  0  0
  -21.7350   -4.2180   23.7150 C   0  0  0  0  0  3  0  0  0  0  0  0
  -21.8770   -4.9890   22.5480 C   0  0  0  0  0  0  0  0  0  0  0  0
  -22.2750   -4.3980   21.3960 F   0  0  0  0  0  0  0  0  0  0  0  0
  -21.1580   -4.0780   26.0280 F   0  0  0  0  0  0  0  0  0  0  0  0
  -22.9210  -13.6780   20.9840 C   0  0  0  0  0  0  0  0  0  0  0  0
  -22.1950  -13.0120   21.8750 N   0  0  0  0  0  0  0  0  0  0  0  0
  -22.4960  -14.7070   20.4600 O   0  0  0  0  0  0  0  0  0  0  0  0
  -22.5520  -12.1790   22.3200 H   0  0  0  0  0  0  0  0  0  0  0  0
  -21.2710  -13.3400   22.1180 H   0  0  0  0  0  0  0  0  0  0  0  0
  -25.5700  -15.2630   20.1140 N   0  0  0  0  0  0  0  0  0  0  0  0
  -24.8240  -15.9360   20.2490 H   0  0  0  0  0  0  0  0  0  0  0  0
  -26.4390  -15.6810   19.8130 H   0  0  0  0  0  0  0  0  0  0  0  0
  -26.2840  -22.6480   19.4490 C   0  0  0  0  0  2  0  0  0  0  0  0
  -26.4950  -23.3810   20.7970 C   0  0  0  0  0  2  0  0  0  0  0  0
  -27.8870  -24.0210   20.9690 C   0  0  0  0  0  2  0  0  0  0  0  0
  -27.9210  -25.1960   21.9650 C   0  0  0  0  0  2  0  0  0  0  0  0
  -28.9010  -26.3030   21.5200 C   0  0  0  0  0  2  0  0  0  0  0  0
  -28.5570  -26.7730   20.2140 O   0  0  0  0  0  0  0  0  0  0  0  0
  -24.5690  -31.8210   23.1900 C   0  0  0  0  0  0  0  0  0  0  0  0
  -27.3920  -27.4910   20.1730 C   0  0  0  0  0  0  0  0  0  0  0  0
  -23.4320  -30.4030   21.5060 C   0  0  0  0  0  3  0  0  0  0  0  0
  -24.9590  -28.9050   20.1160 C   0  0  0  0  0  0  0  0  0  0  0  0
  -25.9470  -30.8280   21.3760 C   0  0  0  0  0  2  0  0  0  0  0  0
  -26.0800  -29.4630   20.7420 C   0  0  0  0  0  0  0  0  0  0  0  0
  -27.2990  -28.7610   20.7760 C   0  0  0  0  0  3  0  0  0  0  0  0
  -26.2640  -26.9390   19.5310 C   0  0  0  0  0  3  0  0  0  0  0  0
  -25.0420  -27.6370   19.5110 C   0  0  0  0  0  3  0  0  0  0  0  0
  -23.6910  -29.7260   20.1310 C   0  0  0  0  0  2  0  0  0  0  0  0
  -24.6650  -31.0310   22.0840 N   0  0  0  0  0  0  0  0  0  0  0  0
  -23.4680  -32.0710   23.7020 O   0  0  0  0  0  0  0  0  0  0  0  0
  -22.7740  -29.3690   22.4450 C   0  0  0  0  0  0  0  0  0  0  0  0
  -21.4520  -29.1900   22.3000 N   0  0  0  0  0  0  0  0  0  0  0  0
  -23.4490  -28.7290   23.2560 O   0  0  0  0  0  0  0  0  0  0  0  0
  -20.9690  -29.7610   21.6200 H   0  0  0  0  0  0  0  0  0  0  0  0
  -18.0650  -28.0230   22.7590 C   0  0  0  0  0  0  0  0  0  0  0  0
  -20.6240  -28.2410   23.0430 C   0  0  0  0  0  3  0  0  0  0  0  0
  -20.7120  -26.8250   22.4280 C   0  0  0  0  0  2  0  0  0  0  0  0
  -19.6060  -26.5440   21.4040 C   0  0  0  0  0  2  0  0  0  0  0  0
  -18.2260  -26.6900   22.0490 C   0  0  0  0  0  2  0  0  0  0  0  0
  -19.1910  -28.7590   23.2110 C   0  0  0  0  0  0  0  0  0  0  0  0
  -18.9880  -30.0110   23.8330 C   0  0  0  0  0  3  0  0  0  0  0  0
  -17.6900  -30.5260   24.0070 C   0  0  0  0  0  3  0  0  0  0  0  0
  -16.5770  -29.7850   23.5720 C   0  0  0  0  0  3  0  0  0  0  0  0
  -16.7650  -28.5360   22.9550 C   0  0  0  0  0  3  0  0  0  0  0  0
  -25.8280  -32.4680   23.8490 C   0  0  0  0  0  3  0  0  0  0  0  0
  -25.4930  -33.8610   24.1690 N   0  0  0  0  0  0  0  0  0  0  0  0
  -25.8300  -34.9150   23.4150 C   0  0  0  0  0  0  0  0  0  0  0  0
  -26.5260  -34.8170   22.4000 O   0  0  0  0  0  0  0  0  0  0  0  0
  -24.8810  -34.0100   24.9580 H   0  0  0  0  0  0  0  0  0  0  0  0
  -24.0840  -36.6750   23.0100 C   0  0  0  0  0  1  0  0  0  0  0  0
  -25.3110  -36.2960   23.8540 C   0  0  0  0  0  3  0  0  0  0  0  0
  -27.4130  -37.2160   24.7270 C   0  0  0  0  0  1  0  0  0  0  0  0
  -26.3290  -37.3650   23.7590 N   0  0  0  0  0  0  0  0  0  0  0  0
  -25.9070  -38.2790   23.8960 H   0  0  0  0  0  0  0  0  0  0  0  0
  -26.3200  -31.6990   25.1360 C   0  0  1  0  0  0  0  0  0  0  0  0
  -25.1990  -31.4460   26.1720 C   0  0  0  0  0  1  0  0  0  0  0  0
  -26.9320  -30.3310   24.7520 C   0  0  0  0  0  1  0  0  0  0  0  0
  -27.4380  -32.5080   25.8320 C   0  0  0  0  0  1  0  0  0  0  0  0
  1  4  1  0
  1  2  1  0
  2  6  1  0
  4  7  1  0
  5  7  1  0
  5  3  1  0
  6  3  1  0
  6  9  1  0
  7 50  1  0
  7  8  1  1
  9 10  1  0
 10 11  1  0
 12 20  1  0
 13 18  1  0
 14 15  1  0
 14 13  1  0
 16 15  1  0
 16 25  1  0
 16 17  1  0
 18 12  1  0
 18 17  1  0
 19 12  2  0
 20 11  1  0
 20 21  1  0
 22 23  2  0
 23 42  1  0
 24 23  1  0
 24 27  1  0
 25 22  1  0
 25 26  1  0
 26 24  2  0
 27 28  1  0
 28 29  2  0
 30 33  1  0
 30 29  1  0
 31 30  2  0
 32 31  1  0
 32 27  2  0
 33 34  1  0
 34 35  1  0
 35 36  2  0
 37 36  1  0
 37 41  1  0
 38 37  2  0
 39 34  2  0
 39 38  1  0
 40 39  1  0
 42 43  1  0
 43 46  1  0
 43 45  1  0
 44 42  2  0
 47 48  1  0
 47 22  1  0
 49 47  1  0
 50 51  1  0
 51 52  1  0
 52 53  1  0
 54 53  1  0
 55 54  1  0
 56 67  2  0
 57 55  1  0
 57 62  1  0
 58 66  1  0
 58 68  1  0
 59 65  1  0
 59 61  1  0
 60 66  1  0
 61 62  2  0
 61 60  1  0
 63 57  2  0
 64 63  1  0
 64 59  2  0
 65 58  1  0
 66 56  1  0
 68 70  2  0
 69 68  1  0
 71 69  1  0
 72 81  2  0
 72 77  1  0
 73 69  1  0
 73 77  1  0
 74 73  1  0
 75 76  1  0
 75 74  1  0
 76 72  1  0
 77 78  2  0
 78 79  1  0
 80 79  2  0
 81 80  1  0
 82 56  1  0
 82 83  1  0
 82 92  1  0
 83 86  1  0
 84 88  1  0
 84 83  1  0
 85 84  2  0
 88 87  1  0
 90 88  1  0
 90 91  1  0
 90 89  1  0
 92 95  1  1
 92 93  1  0
 94 92  1  0
M  ISO  4  12 100  20 100  54 101  55 101
M  END
>  <TORSDO>  (25) 
F 24

>  <SCORE>  (25) 
-12.309

>  <name>  (25) 
25

>  <ligand_id>  (25) 
25

>  <original_smiles>  (25) 
[H]c1c([H])c([H])c2c(c1[H])C([H])([H])C([H])([H])C([H])([H])C2([H])N([H])C(=O)C1([H])N(C(=O)C([H])(N([H])C(=O)C([H])(N([H])C([H])([H])[H])C([H])([H])[H])C(C([H])([H])[H])(C([H])([H])[H])C([H])([H])[H])C([H])([H])c2c([H])c(OC([H])([H])C([H])([H])C([H])([H])C([H])([H])C([H])([H])[N+]3([H])C([H])([H])C([H])([H])C([H])([H])C([H])(C([H])([H])C([H])([H])C([H])([H])N([H])C(=O)N4C([H])([H])C([H])([H])C([H])([H])C([H])(n5nc(-c6c([H])c([H])c(Oc7c([H])c([H])c(F)c([H])c7F)c([H])c6[H])c(C(=O)N([H])[H])c5N([H])[H])C4([H])[H])C([H])([H])C3([H])[H])c([H])c([H])c2C1([H])[H]

>  <smiles>  (25) 
[H]c1c([H])c([H])c2c(c1[H])C([H])([H])C([H])([H])C([H])([H])C2([H])N([H])C(=O)C1([H])N(C(=O)C([H])(N([H])C(=O)C([H])(N([H])C([H])([H])[H])C([H])([H])[H])C(C([H])([H])[H])(C([H])([H])[H])C([H])([H])[H])C([H])([H])c2c([H])c(OC([H])([H])C([H])([H])C([H])([H])C([H])([H])C([H])([H])[N+]3([H])C([H])([H])C([H])([H])C([H])([H])C([H])(C([H])([H])C([H])([H])C([H])([H])N([H])C(=O)N4C([H])([H])C([H])([H])C([H])([H])C([H])(n5nc(-c6c([H])c([H])c(Oc7c([H])c([H])c(F)c([H])c7F)c([H])c6[H])c(C(=O)N([H])[H])c5N([H])[H])C4([H])[H])C([H])([H])C3([H])[H])c([H])c([H])c2C1([H])[H]

$$$$
26:0:0
     RDKit          3D

 93102  0  0  1  0  0  0  0  0999 V2000
  -28.6580  -24.3080   22.9020 C   0  0  0  0  0  2  0  0  0  0  0  0
  -30.6490  -24.5110   21.3890 C   0  0  0  0  0  2  0  0  0  0  0  0
  -28.7800  -25.7940   23.2840 C   0  0  0  0  0  2  0  0  0  0  0  0
  -30.7860  -26.0030   21.7060 C   0  0  0  0  0  2  0  0  0  0  0  0
  -29.1710  -24.0680   21.4670 C   0  0  0  0  0  3  0  0  0  0  0  0
  -30.2130  -26.3460   23.0900 C   0  0  0  0  0  3  0  0  0  0  0  0
  -28.9370  -22.6140   20.9970 C   0  0  0  0  0  2  0  0  0  0  0  0
  -29.7650  -22.2560   19.7500 C   0  0  0  0  0  2  0  0  0  0  0  0
  -30.3670  -20.8380   19.7420 C   0  0  0  0  0  2  0  0  0  0  0  0
  -35.9050  -20.6010   18.1950 C   0  0  0  0  0  0  0  0  0  0  0  0
  -37.5030  -20.1230   16.3860 C   0  0  0  0  0  2  0  0  0  0  0  0
  -37.1160  -20.9230   15.1270 C   0  0  0  0  0  2  0  0  0  0  0  0
  -36.0910  -20.1420   14.2820 C   0  0  0  0  0  2  0  0  0  0  0  0
  -34.8960  -19.6180   15.1240 C   0  0  0  0  0  3  0  0  0  0  0  0
  -35.3960  -18.9050   16.4000 C   0  0  0  0  0  2  0  0  0  0  0  0
  -36.2710  -19.8370   17.1330 N   0  0  0  0  0  0  0  0  0  0  0  0
  -36.6630  -21.4200   18.7280 O   0  0  0  0  0  0  0  0  0  0  0  0
  -32.3990  -21.7710   18.4670 C   0  0  0  0  0  2  0  0  0  0  0  0
  -32.5760  -19.5090   19.5040 C   0  0  0  0  0  2  0  0  0  0  0  0
  -33.9250  -21.9090   18.5390 C   0  0  0  0  0  2  0  0  0  0  0  0
  -34.1130  -19.6590   19.5240 C   0  0  0  0  0  2  0  0  0  0  0  0
  -31.9050  -20.8880   19.6220 C   0  0  0  0  0  3  0  0  0  0  0  0
  -34.5860  -20.5960   18.4910 N   0  0  0  0  0  0  0  0  0  0  0  0
  -32.6420  -18.7340   14.2450 C   0  0  0  0  0  0  0  0  0  0  0  0
  -32.3360  -17.7810   13.3100 C   0  0  0  0  0  0  0  0  0  0  0  0
  -33.5850  -17.2570   12.8580 C   0  0  0  0  0  0  0  0  0  0  0  0
  -34.0260  -18.7510   14.3320 N   0  0  0  0  0  0  0  0  0  0  0  0
  -34.5880  -17.8150   13.5250 N   0  0  0  0  0  0  0  0  0  0  0  0
  -33.8890  -16.2960   11.7900 C   0  0  0  0  0  0  0  0  0  0  0  0
  -34.7950  -15.2310   11.9900 C   0  0  0  0  0  3  0  0  0  0  0  0
  -35.0570  -14.3110   10.9520 C   0  0  0  0  0  3  0  0  0  0  0  0
  -34.4080  -14.4470    9.7010 C   0  0  0  0  0  0  0  0  0  0  0  0
  -33.5240  -15.5210    9.5010 C   0  0  0  0  0  3  0  0  0  0  0  0
  -33.2670  -16.4390   10.5340 C   0  0  0  0  0  3  0  0  0  0  0  0
  -34.6200  -13.6140    8.6290 O   0  0  0  0  0  0  0  0  0  0  0  0
  -35.1890  -12.3760    8.7790 C   0  0  0  0  0  0  0  0  0  0  0  0
  -34.6480  -11.4070    9.6520 C   0  0  0  0  0  3  0  0  0  0  0  0
  -35.2250  -10.1230    9.7240 C   0  0  0  0  0  3  0  0  0  0  0  0
  -36.3360   -9.8030    8.9190 C   0  0  0  0  0  0  0  0  0  0  0  0
  -36.8730  -10.7650    8.0450 C   0  0  0  0  0  3  0  0  0  0  0  0
  -36.2990  -12.0460    7.9740 C   0  0  0  0  0  0  0  0  0  0  0  0
  -36.8080  -12.9630    7.1160 F   0  0  0  0  0  0  0  0  0  0  0  0
  -36.8850   -8.5680    8.9820 F   0  0  0  0  0  0  0  0  0  0  0  0
  -30.9670  -17.4400   12.7940 C   0  0  0  0  0  0  0  0  0  0  0  0
  -30.7460  -16.1840   12.4210 N   0  0  0  0  0  0  0  0  0  0  0  0
  -30.0690  -18.2790   12.7610 O   0  0  0  0  0  0  0  0  0  0  0  0
  -31.4770  -15.4890   12.4680 H   0  0  0  0  0  0  0  0  0  0  0  0
  -29.8350  -15.9130   12.0850 H   0  0  0  0  0  0  0  0  0  0  0  0
  -31.8650  -19.5980   15.0090 N   0  0  0  0  0  0  0  0  0  0  0  0
  -30.8530  -19.6290   14.9370 H   0  0  0  0  0  0  0  0  0  0  0  0
  -32.2390  -20.2820   15.6560 H   0  0  0  0  0  0  0  0  0  0  0  0
  -30.3090  -27.8570   23.3500 C   0  0  0  0  0  2  0  0  0  0  0  0
  -29.5160  -28.5990   22.4050 O   0  0  0  0  0  0  0  0  0  0  0  0
  -24.3600  -28.3160   27.2790 C   0  0  0  0  0  0  0  0  0  0  0  0
  -28.2200  -28.9040   22.7550 C   0  0  0  0  0  0  0  0  0  0  0  0
  -23.6420  -28.9760   24.9990 C   0  0  0  0  0  3  0  0  0  0  0  0
  -25.5250  -29.5150   23.3630 C   0  0  0  0  0  0  0  0  0  0  0  0
  -25.9950  -29.4980   25.8220 C   0  0  0  0  0  2  0  0  0  0  0  0
  -26.4590  -29.3540   24.3920 C   0  0  0  0  0  0  0  0  0  0  0  0
  -27.8010  -29.0650   24.0940 C   0  0  0  0  0  3  0  0  0  0  0  0
  -27.2720  -29.0860   21.7230 C   0  0  0  0  0  3  0  0  0  0  0  0
  -25.9250  -29.3850   22.0200 C   0  0  0  0  0  3  0  0  0  0  0  0
  -24.1090  -29.8330   23.7900 C   0  0  0  0  0  2  0  0  0  0  0  0
  -24.6770  -28.8820   26.0800 N   0  0  0  0  0  0  0  0  0  0  0  0
  -23.2090  -27.9230   27.5150 O   0  0  0  0  0  0  0  0  0  0  0  0
  -23.1790  -27.6010   24.4700 C   0  0  0  0  0  0  0  0  0  0  0  0
  -22.2010  -27.6170   23.5500 N   0  0  0  0  0  0  0  0  0  0  0  0
  -23.7110  -26.5600   24.8620 O   0  0  0  0  0  0  0  0  0  0  0  0
  -21.8100  -28.5130   23.2950 H   0  0  0  0  0  0  0  0  0  0  0  0
  -20.1300  -26.5930   20.7780 C   0  0  0  0  0  0  0  0  0  0  0  0
  -21.6340  -26.4530   22.8750 C   0  0  0  0  0  3  0  0  0  0  0  0
  -22.6780  -25.7770   21.9560 C   0  0  0  0  0  2  0  0  0  0  0  0
  -22.6280  -26.2830   20.5110 C   0  0  0  0  0  2  0  0  0  0  0  0
  -21.2430  -26.0370   19.9050 C   0  0  0  0  0  2  0  0  0  0  0  0
  -20.3190  -26.8030   22.1700 C   0  0  0  0  0  0  0  0  0  0  0  0
  -19.2670  -27.3570   22.9290 C   0  0  0  0  0  3  0  0  0  0  0  0
  -18.0430  -27.6960   22.3230 C   0  0  0  0  0  3  0  0  0  0  0  0
  -17.8530  -27.4680   20.9480 C   0  0  0  0  0  3  0  0  0  0  0  0
  -18.8930  -26.9150   20.1820 C   0  0  0  0  0  3  0  0  0  0  0  0
  -25.4170  -28.1530   28.4180 C   0  0  0  0  0  3  0  0  0  0  0  0
  -26.3450  -26.8900   28.2300 C   0  0  1  0  0  0  0  0  0  0  0  0
  -25.5630  -25.5660   28.0590 C   0  0  0  0  0  1  0  0  0  0  0  0
  -27.2520  -27.0730   26.9910 C   0  0  0  0  0  1  0  0  0  0  0  0
  -27.2830  -26.7340   29.4510 C   0  0  0  0  0  1  0  0  0  0  0  0
  -24.6880  -28.0820   29.6900 N   0  0  0  0  0  0  0  0  0  0  0  0
  -24.6810  -29.0520   30.6140 C   0  0  0  0  0  0  0  0  0  0  0  0
  -25.3580  -30.0790   30.5130 O   0  0  0  0  0  0  0  0  0  0  0  0
  -24.0760  -27.2890   29.8200 H   0  0  0  0  0  0  0  0  0  0  0  0
  -22.4920  -29.6680   31.6800 C   0  0  0  0  0  1  0  0  0  0  0  0
  -23.7810  -28.8500   31.8470 C   0  0  0  0  0  3  0  0  0  0  0  0
  -25.5190  -28.3020   33.4930 C   0  0  0  0  0  1  0  0  0  0  0  0
  -24.4370  -29.2110   33.1220 N   0  0  0  0  0  0  0  0  0  0  0  0
  -23.7620  -29.2260   33.8830 H   0  0  0  0  0  0  0  0  0  0  0  0
  1  3  1  0
  2  5  1  0
  2  4  1  0
  4  6  1  0
  5  7  1  0
  5  1  1  0
  6  3  1  0
  6 52  1  0
  8  7  1  0
  9  8  1  0
 10 23  1  0
 10 17  2  0
 11 16  1  0
 12 11  1  0
 13 12  1  0
 14 13  1  0
 14 15  1  0
 15 16  1  0
 16 10  1  0
 18 20  1  0
 18 22  1  0
 19 21  1  0
 19 22  1  0
 22  9  1  0
 23 20  1  0
 23 21  1  0
 24 27  1  0
 24 49  1  0
 25 24  2  0
 26 25  1  0
 26 28  2  0
 27 14  1  0
 28 27  1  0
 29 30  1  0
 29 26  1  0
 31 30  2  0
 32 31  1  0
 33 32  2  0
 33 34  1  0
 34 29  2  0
 35 36  1  0
 35 32  1  0
 36 37  1  0
 37 38  2  0
 39 43  1  0
 39 38  1  0
 40 39  2  0
 41 40  1  0
 41 36  2  0
 42 41  1  0
 44 25  1  0
 45 47  1  0
 45 44  1  0
 46 44  2  0
 48 45  1  0
 49 51  1  0
 50 49  1  0
 53 55  1  0
 53 52  1  0
 54 65  2  0
 55 60  1  0
 56 66  1  0
 56 64  1  0
 57 63  1  0
 57 59  1  0
 58 64  1  0
 59 58  1  0
 60 59  2  0
 61 62  1  0
 61 55  2  0
 62 57  2  0
 63 56  1  0
 64 54  1  0
 66 68  2  0
 67 66  1  0
 69 67  1  0
 70 75  1  0
 71 67  1  0
 72 71  1  0
 73 72  1  0
 74 73  1  0
 74 70  1  0
 75 71  1  0
 75 76  2  0
 77 76  1  0
 78 77  2  0
 79 70  2  0
 79 78  1  0
 80 54  1  0
 80 85  1  0
 81 80  1  0
 81 84  1  1
 82 81  1  0
 83 81  1  0
 85 88  1  0
 85 86  1  0
 86 90  1  0
 87 86  2  0
 90 89  1  0
 90 92  1  0
 92 91  1  0
 92 93  1  0
M  ISO  4  10 100  23 100  52 101  53 101
M  END
>  <TORSDO>  (26) 
F 20

>  <SCORE>  (26) 
-4.624

>  <name>  (26) 
26

>  <ligand_id>  (26) 
26

>  <original_smiles>  (26) 
[H]c1c([H])c([H])c2c(c1[H])C([H])([H])C([H])([H])C([H])([H])C2([H])N([H])C(=O)C1([H])N(C(=O)C([H])(N([H])C(=O)C([H])(N([H])C([H])([H])[H])C([H])([H])[H])C(C([H])([H])[H])(C([H])([H])[H])C([H])([H])[H])C([H])([H])c2c([H])c(OC([H])([H])C3([H])C([H])([H])C([H])([H])C([H])(C([H])([H])C([H])([H])C([H])([H])C4([H])C([H])([H])C([H])([H])N(C(=O)N5C([H])([H])C([H])([H])C([H])([H])C([H])(n6nc(-c7c([H])c([H])c(Oc8c([H])c([H])c(F)c([H])c8F)c([H])c7[H])c(C(=O)N([H])[H])c6N([H])[H])C5([H])[H])C([H])([H])C4([H])[H])C([H])([H])C3([H])[H])c([H])c([H])c2C1([H])[H]

>  <smiles>  (26) 
[H]c1c([H])c([H])c2c(c1[H])C([H])([H])C([H])([H])C([H])([H])C2([H])N([H])C(=O)C1([H])N(C(=O)C([H])(N([H])C(=O)C([H])(N([H])C([H])([H])[H])C([H])([H])[H])C(C([H])([H])[H])(C([H])([H])[H])C([H])([H])[H])C([H])([H])c2c([H])c(OC([H])([H])C3([H])C([H])([H])C([H])([H])C([H])(C([H])([H])C([H])([H])C([H])([H])C4([H])C([H])([H])C([H])([H])N(C(=O)N5C([H])([H])C([H])([H])C([H])([H])C([H])(n6nc(-c7c([H])c([H])c(Oc8c([H])c([H])c(F)c([H])c8F)c([H])c7[H])c(C(=O)N([H])[H])c6N([H])[H])C5([H])[H])C([H])([H])C4([H])[H])C([H])([H])C3([H])[H])c([H])c([H])c2C1([H])[H]

$$$$
27:0:0
     RDKit          3D

 94 96  0  0  1  0  0  0  0  0999 V2000
  -29.0170  -18.8490   19.5530 C   0  0  0  0  0 15  0  0  0  0  0  0
  -31.1550  -18.0090   20.7080 C   0  0  0  0  0  2  0  0  0  0  0  0
  -30.5960  -20.7890   20.0910 C   0  0  0  0  0  2  0  0  0  0  0  0
  -29.8690  -17.1430   20.3970 C   0  0  0  0  0  1  0  0  0  0  0  0
  -29.0690  -20.9350   19.7120 C   0  0  0  0  0  1  0  0  0  0  0  0
  -31.0050  -19.5860   21.1080 C   0  0  0  0  0  3  0  0  0  0  0  0
  -30.2060  -19.7140   22.3390 N   0  0  0  0  0  4  0  0  0  0  0  0
  -30.5560  -19.0960   23.0500 H   0  0  0  0  0  0  0  0  0  0  0  0
  -30.2380  -20.6570   22.6880 H   0  0  0  0  0  0  0  0  0  0  0  0
  -29.2490  -19.4770   22.1420 H   0  0  0  0  0  0  0  0  0  0  0  0
  -30.1370  -14.9300   20.5660 C   0  0  0  0  0  1  0  0  0  0  0  0
  -30.8430  -13.0370   18.2090 C   0  0  0  0  0  2  0  0  0  0  0  0
  -32.0590  -13.1740   17.1340 C   0  0  0  0  0  2  0  0  0  0  0  0
  -33.5440  -13.3130   17.5990 C   0  0  0  0  0  2  0  0  0  0  0  0
  -33.4600  -14.2650   19.8240 C   0  0  0  0  0  0  0  0  0  0  0  0
  -32.3670  -12.3810   20.5320 C   0  0  0  0  0  3  0  0  0  0  0  0
  -31.0430  -11.3880   20.6600 C   0  0  0  0  0  3  0  0  0  0  0  0
  -29.5120  -11.7310   20.1390 C   0  0  0  0  0  2  0  0  0  0  0  0
  -29.0160  -13.2570   19.4610 C   0  0  0  0  0  2  0  0  0  0  0  0
  -30.5300  -14.6190   19.1420 C   0  0  0  0  0  2  0  0  0  0  0  0
  -32.2350  -13.9390   19.8700 N   0  0  0  0  0  2  0  0  0  0  0  0
  -34.2890  -14.0000   20.6750 O   0  0  0  0  0  0  0  0  0  0  0  0
  -33.8170  -14.4100   18.5490 N   0  0  0  0  0  0  0  0  0  0  0  0
  -34.7410  -14.8060   18.4490 H   0  0  0  0  0  0  0  0  0  0  0  0
  -26.8710  -14.0520   20.6470 C   0  0  0  0  0  0  0  0  0  0  0  0
  -25.7350  -13.3550   20.9910 C   0  0  0  0  0  0  0  0  0  0  0  0
  -25.9720  -11.9630   20.8230 C   0  0  0  0  0  0  0  0  0  0  0  0
  -27.7230  -13.1350   20.1690 N   0  0  0  0  0  0  0  0  0  0  0  0
  -27.1120  -11.8740   20.2280 N   0  0  0  0  0  0  0  0  0  0  0  0
  -25.1300  -10.7500   20.9310 C   0  0  0  0  0  0  0  0  0  0  0  0
  -25.3890   -9.6990   21.8480 C   0  0  0  0  0  3  0  0  0  0  0  0
  -24.5100   -8.5910   21.9450 C   0  0  0  0  0  3  0  0  0  0  0  0
  -23.3800   -8.5060   21.0940 C   0  0  0  0  0  0  0  0  0  0  0  0
  -23.1700   -9.5170   20.1410 C   0  0  0  0  0  3  0  0  0  0  0  0
  -24.0300  -10.6230   20.0600 C   0  0  0  0  0  3  0  0  0  0  0  0
  -22.4840   -7.4640   21.0780 O   0  0  0  0  0  0  0  0  0  0  0  0
  -22.1150   -6.8000   22.2210 C   0  0  0  0  0  0  0  0  0  0  0  0
  -21.5600   -7.4690   23.3320 C   0  0  0  0  0  3  0  0  0  0  0  0
  -21.1330   -6.7350   24.4570 C   0  0  0  0  0  3  0  0  0  0  0  0
  -21.2460   -5.3300   24.4680 C   0  0  0  0  0  0  0  0  0  0  0  0
  -21.7830   -4.6600   23.3530 C   0  0  0  0  0  3  0  0  0  0  0  0
  -22.2150   -5.3940   22.2340 C   0  0  0  0  0  0  0  0  0  0  0  0
  -22.7150   -4.7400   21.1590 F   0  0  0  0  0  0  0  0  0  0  0  0
  -20.8340   -4.6230   25.5460 F   0  0  0  0  0  0  0  0  0  0  0  0
  -24.4130  -13.9640   21.2440 C   0  0  0  0  0  0  0  0  0  0  0  0
  -23.5760  -13.2960   22.0250 N   0  0  0  0  0  0  0  0  0  0  0  0
  -24.1250  -15.0440   20.7380 O   0  0  0  0  0  0  0  0  0  0  0  0
  -23.8270  -12.4010   22.4150 H   0  0  0  0  0  0  0  0  0  0  0  0
  -22.6610  -13.6750   22.2230 H   0  0  0  0  0  0  0  0  0  0  0  0
  -27.2660  -15.3710   20.5820 N   0  0  0  0  0  0  0  0  0  0  0  0
  -26.6390  -16.1500   20.7370 H   0  0  0  0  0  0  0  0  0  0  0  0
  -28.1390  -15.6310   20.1380 H   0  0  0  0  0  0  0  0  0  0  0  0
  -28.3750  -22.8980   19.0130 C   0  0  0  0  0 15  0  0  0  0  0  0
  -28.3720  -24.8680   18.9230 O   0  0  0  0  0  1  0  0  0  0  0  0
  -24.9870  -31.2480   22.5330 C   0  0  0  0  0  0  0  0  0  0  0  0
  -27.4670  -26.2610   18.9620 C   0  0  0  0  0  0  0  0  0  0  0  0
  -23.7730  -29.9160   20.8690 C   0  0  0  0  0  3  0  0  0  0  0  0
  -25.1880  -28.4400   19.2080 C   0  0  0  0  0  0  0  0  0  0  0  0
  -26.3350  -30.1270   20.5960 C   0  0  0  0  0  2  0  0  0  0  0  0
  -26.4160  -28.7190   19.8150 C   0  0  0  0  0  0  0  0  0  0  0  0
  -27.5210  -27.6670   19.6630 C   0  0  0  0  0  3  0  0  0  0  0  0
  -26.2180  -26.3200   18.2720 C   0  0  0  0  0  3  0  0  0  0  0  0
  -25.1520  -27.2830   18.4020 C   0  0  0  0  0  3  0  0  0  0  0  0
  -23.9550  -29.3510   19.4270 C   0  0  0  0  0  2  0  0  0  0  0  0
  -25.0640  -30.4730   21.3860 N   0  0  0  0  0  0  0  0  0  0  0  0
  -23.9130  -31.4340   23.1350 O   0  0  0  0  0  0  0  0  0  0  0  0
  -23.1790  -28.8260   21.8050 C   0  0  0  0  0  0  0  0  0  0  0  0
  -21.8560  -28.5720   21.7440 N   0  0  0  0  0  0  0  0  0  0  0  0
  -23.9270  -28.2080   22.5660 O   0  0  0  0  0  0  0  0  0  0  0  0
  -21.2910  -29.1220   21.1120 H   0  0  0  0  0  0  0  0  0  0  0  0
  -18.6440  -26.9480   22.2730 C   0  0  0  0  0  0  0  0  0  0  0  0
  -21.1610  -27.5090   22.4840 C   0  0  0  0  0  3  0  0  0  0  0  0
  -21.4120  -26.1290   21.8330 C   0  0  0  0  0  2  0  0  0  0  0  0
  -20.3300  -25.7360   20.8240 C   0  0  0  0  0  2  0  0  0  0  0  0
  -18.9610  -25.6740   21.5060 C   0  0  0  0  0  2  0  0  0  0  0  0
  -19.6760  -27.8200   22.7160 C   0  0  0  0  0  0  0  0  0  0  0  0
  -19.3230  -29.0020   23.4010 C   0  0  0  0  0  3  0  0  0  0  0  0
  -17.9730  -29.3230   23.6380 C   0  0  0  0  0  3  0  0  0  0  0  0
  -16.9570  -28.4520   23.2070 C   0  0  0  0  0  3  0  0  0  0  0  0
  -17.2930  -27.2650   22.5340 C   0  0  0  0  0  3  0  0  0  0  0  0
  -26.2360  -31.9470   23.1500 C   0  0  0  0  0  3  0  0  0  0  0  0
  -25.7880  -33.1610   23.8730 N   0  0  0  0  0  0  0  0  0  0  0  0
  -25.9980  -34.4260   23.4780 C   0  0  0  0  0  0  0  0  0  0  0  0
  -26.6330  -34.7010   22.4600 O   0  0  0  0  0  0  0  0  0  0  0  0
  -25.2020  -33.0110   24.6800 H   0  0  0  0  0  0  0  0  0  0  0  0
  -24.1390  -36.1210   23.7010 C   0  0  0  0  0  1  0  0  0  0  0  0
  -25.4180  -35.5660   24.3480 C   0  0  0  0  0  3  0  0  0  0  0  0
  -27.4920  -36.3170   25.4380 C   0  0  0  0  0  1  0  0  0  0  0  0
  -26.3680  -36.6790   24.5800 N   0  0  0  0  0  0  0  0  0  0  0  0
  -25.8940  -37.4740   25.0010 H   0  0  0  0  0  0  0  0  0  0  0  0
  -27.0340  -31.0110   24.1450 C   0  0  1  0  0  0  0  0  0  0  0  0
  -26.1560  -30.3810   25.2510 C   0  0  0  0  0  1  0  0  0  0  0  0
  -27.7180  -29.8510   23.3900 C   0  0  0  0  0  1  0  0  0  0  0  0
  -28.1660  -31.8120   24.8290 C   0  0  0  0  0  1  0  0  0  0  0  0
  2  6  1  0
  3  6  1  0
  4  2  1  0
  5  3  1  0
  6  7  1  0
  7  9  1  0
  7  8  1  0
 10  7  1  0
 12 20  1  0
 13 14  1  0
 13 12  1  0
 14 23  1  0
 15 21  1  0
 15 22  2  0
 16 17  2  0
 18 17  1  0
 19 18  1  0
 19 28  1  0
 20 11  1  0
 21 16  1  0
 23 15  1  0
 24 23  1  0
 25 26  2  0
 26 45  1  0
 27 30  1  0
 27 26  1  0
 28 29  1  0
 28 25  1  0
 29 27  2  0
 30 31  1  0
 31 32  2  0
 33 32  1  0
 34 33  2  0
 35 34  1  0
 35 30  2  0
 36 33  1  0
 36 37  1  0
 37 42  2  0
 37 38  1  0
 38 39  2  0
 39 40  1  0
 40 44  1  0
 41 40  2  0
 42 41  1  0
 43 42  1  0
 45 46  1  0
 46 49  1  0
 46 48  1  0
 47 45  2  0
 50 25  1  0
 50 51  1  0
 52 50  1  0
 54 56  1  0
 55 66  2  0
 56 61  1  0
 57 65  1  0
 57 67  1  0
 58 64  1  0
 58 60  1  0
 59 65  1  0
 60 59  1  0
 61 60  2  0
 62 63  1  0
 62 56  2  0
 63 58  2  0
 64 57  1  0
 65 55  1  0
 67 69  2  0
 68 67  1  0
 70 68  1  0
 71 80  2  0
 71 76  1  0
 72 68  1  0
 72 76  1  0
 73 72  1  0
 74 75  1  0
 74 73  1  0
 75 71  1  0
 76 77  2  0
 77 78  1  0
 79 78  2  0
 80 79  1  0
 81 55  1  0
 81 82  1  0
 81 91  1  0
 82 85  1  0
 83 82  1  0
 83 87  1  0
 84 83  2  0
 87 86  1  0
 87 89  1  0
 89 90  1  0
 89 88  1  0
 91 94  1  1
 91 92  1  0
 93 91  1  0
M  ISO  4  15 100  23 100  53 101  54 101
M  END
>  <TORSDO>  (27) 
F 22

>  <SCORE>  (27) 
-11.685

>  <name>  (27) 
27

>  <ligand_id>  (27) 
27

>  <original_smiles>  (27) 
[H]c1c([H])c([H])c2c(c1[H])C([H])([H])C([H])([H])C([H])([H])C2([H])N([H])C(=O)C1([H])N(C(=O)C([H])(N([H])C(=O)C([H])(N([H])C([H])([H])[H])C([H])([H])[H])C(C([H])([H])[H])(C([H])([H])[H])C([H])([H])[H])C([H])([H])c2c([H])c(OC([H])([H])C3([H])C([H])([H])C([H])(C([H])([H])C([H])([H])C([H])([H])C([H])([H])N([H])C(=O)N4C([H])([H])C([H])([H])C([H])([H])C([H])(n5nc(-c6c([H])c([H])c(Oc7c([H])c([H])c(F)c([H])c7F)c([H])c6[H])c(C(=O)N([H])[H])c5N([H])[H])C4([H])[H])C([H])([H])C([H])([N+]([H])([H])[H])C3([H])[H])c([H])c([H])c2C1([H])[H]

>  <smiles>  (27) 
[H]c1c([H])c([H])c2c(c1[H])C([H])([H])C([H])([H])C([H])([H])C2([H])N([H])C(=O)C1([H])N(C(=O)C([H])(N([H])C(=O)C([H])(N([H])C([H])([H])[H])C([H])([H])[H])C(C([H])([H])[H])(C([H])([H])[H])C([H])([H])[H])C([H])([H])c2c([H])c(OC([H])([H])C3([H])C([H])([H])C([H])(C([H])([H])C([H])([H])C([H])([H])C([H])([H])N([H])C(=O)N4C([H])([H])C([H])([H])C([H])([H])C([H])(n5nc(-c6c([H])c([H])c(Oc7c([H])c([H])c(F)c([H])c7F)c([H])c6[H])c(C(=O)N([H])[H])c5N([H])[H])C4([H])[H])C([H])([H])C([H])([N+]([H])([H])[H])C3([H])[H])c([H])c([H])c2C1([H])[H]

$$$$
28:0:0
     RDKit          3D

100109  0  0  1  0  0  0  0  0999 V2000
  -28.6540  -21.4470   22.1980 C   0  0  0  0  0  3  0  0  0  0  0  0
  -29.6610  -22.3070   20.1550 C   0  0  0  0  0  3  0  0  0  0  0  0
  -29.2040  -20.1810   21.9320 C   0  0  0  0  0  3  0  0  0  0  0  0
  -30.1870  -21.0400   19.8780 C   0  0  0  0  0  3  0  0  0  0  0  0
  -28.8830  -22.5260   21.3110 C   0  0  0  0  0  0  0  0  0  0  0  0
  -29.9990  -19.9760   20.7880 C   0  0  0  0  0  0  0  0  0  0  0  0
  -27.1060  -24.1790   20.5020 C   0  0  0  0  0  2  0  0  0  0  0  0
  -27.2860  -25.4380   19.6240 C   0  0  0  0  0  2  0  0  0  0  0  0
  -29.7800  -25.4760   20.3590 C   0  0  0  0  0  2  0  0  0  0  0  0
  -28.2310  -23.8880   21.5350 C   0  0  0  0  0  3  0  0  0  0  0  0
  -28.7350  -25.8700   19.2740 C   0  0  0  0  0  3  0  0  0  0  0  0
  -29.2110  -24.9870   21.6360 N   0  0  0  0  0  4  0  0  0  0  0  0
  -28.7630  -25.7600   22.0940 H   0  0  0  0  0  0  0  0  0  0  0  0
  -29.9620  -24.6970   22.2410 H   0  0  0  0  0  0  0  0  0  0  0  0
  -28.8670  -27.3770   18.8890 C   0  0  0  0  0  2  0  0  0  0  0  0
  -28.0090  -27.8110   17.8210 O   0  0  0  0  0  0  0  0  0  0  0  0
  -24.4450  -31.0750   23.0240 C   0  0  0  0  0  0  0  0  0  0  0  0
  -26.8070  -28.3020   18.2530 C   0  0  0  0  0  0  0  0  0  0  0  0
  -23.0840  -29.8450   21.3600 C   0  0  0  0  0  3  0  0  0  0  0  0
  -24.3000  -29.1220   19.2390 C   0  0  0  0  0  0  0  0  0  0  0  0
  -25.3290  -30.8750   20.7070 C   0  0  0  0  0  2  0  0  0  0  0  0
  -25.4620  -29.7660   19.6800 C   0  0  0  0  0  0  0  0  0  0  0  0
  -26.7210  -29.3610   19.1860 C   0  0  0  0  0  3  0  0  0  0  0  0
  -25.6260  -27.7020   17.7740 C   0  0  0  0  0  3  0  0  0  0  0  0
  -24.3760  -28.1000   18.2770 C   0  0  0  0  0  3  0  0  0  0  0  0
  -22.9930  -29.5920   19.8300 C   0  0  0  0  0  2  0  0  0  0  0  0
  -24.3170  -30.6040   21.7520 N   0  0  0  0  0  0  0  0  0  0  0  0
  -23.5370  -30.9310   23.8540 O   0  0  0  0  0  0  0  0  0  0  0  0
  -22.9390  -28.4940   22.0960 C   0  0  0  0  0  0  0  0  0  0  0  0
  -21.7720  -27.8500   21.9350 N   0  0  0  0  0  0  0  0  0  0  0  0
  -23.8680  -28.0340   22.7620 O   0  0  0  0  0  0  0  0  0  0  0  0
  -21.0590  -28.3080   21.3870 H   0  0  0  0  0  0  0  0  0  0  0  0
  -19.2720  -25.2410   21.8810 C   0  0  0  0  0  0  0  0  0  0  0  0
  -21.4190  -26.5420   22.4850 C   0  0  0  0  0  3  0  0  0  0  0  0
  -22.1850  -25.4020   21.7760 C   0  0  0  0  0  2  0  0  0  0  0  0
  -21.4100  -24.7900   20.6050 C   0  0  0  0  0  2  0  0  0  0  0  0
  -20.0750  -24.2190   21.0920 C   0  0  0  0  0  2  0  0  0  0  0  0
  -19.9020  -26.3400   22.5200 C   0  0  0  0  0  0  0  0  0  0  0  0
  -19.1070  -27.2790   23.2120 C   0  0  0  0  0  3  0  0  0  0  0  0
  -17.7090  -27.1300   23.2740 C   0  0  0  0  0  3  0  0  0  0  0  0
  -17.0900  -26.0320   22.6530 C   0  0  0  0  0  3  0  0  0  0  0  0
  -17.8730  -25.0880   21.9620 C   0  0  0  0  0  3  0  0  0  0  0  0
  -25.7300  -31.8380   23.4890 C   0  0  0  0  0  3  0  0  0  0  0  0
  -25.3060  -33.1340   24.0320 N   0  0  0  0  0  0  0  0  0  0  0  0
  -25.3960  -34.2970   23.3740 C   0  0  0  0  0  0  0  0  0  0  0  0
  -25.9180  -34.4000   22.2630 O   0  0  0  0  0  0  0  0  0  0  0  0
  -24.8310  -33.1210   24.9230 H   0  0  0  0  0  0  0  0  0  0  0  0
  -23.4420  -35.8750   23.4260 C   0  0  0  0  0  1  0  0  0  0  0  0
  -24.8060  -35.5460   24.0580 C   0  0  0  0  0  3  0  0  0  0  0  0
  -26.9150  -36.5900   24.7640 C   0  0  0  0  0  1  0  0  0  0  0  0
  -25.6910  -36.7320   23.9790 N   0  0  0  0  0  0  0  0  0  0  0  0
  -25.2060  -37.5700   24.2910 H   0  0  0  0  0  0  0  0  0  0  0  0
  -26.5770  -31.0380   24.5520 C   0  0  1  0  0  0  0  0  0  0  0  0
  -25.7410  -30.4970   25.7360 C   0  0  0  0  0  1  0  0  0  0  0  0
  -27.2900  -29.8380   23.8830 C   0  0  0  0  0  1  0  0  0  0  0  0
  -27.6820  -31.9510   25.1270 C   0  0  0  0  0  1  0  0  0  0  0  0
  -30.5810  -18.7170   20.5900 N   0  0  0  0  0  0  0  0  0  0  0  0
  -30.9020  -18.2480   21.4320 H   0  0  0  0  0  0  0  0  0  0  0  0
  -31.4340  -18.5180   19.4260 C   0  0  0  0  0  2  0  0  0  0  0  0
  -32.8830  -18.9360   19.6950 C   0  0  0  0  0  2  0  0  0  0  0  0
  -33.8890  -18.1210   18.8610 C   0  0  0  0  0  2  0  0  0  0  0  0
  -34.4750  -16.9100   19.6090 C   0  0  0  0  0  2  0  0  0  0  0  0
  -33.6540  -14.6250   18.9780 C   0  0  0  0  0  0  0  0  0  0  0  0
  -33.4410  -12.2190   19.4540 C   0  0  0  0  0  2  0  0  0  0  0  0
  -32.5210  -11.4280   18.5130 C   0  0  0  0  0  2  0  0  0  0  0  0
  -31.0620  -11.4990   18.9930 C   0  0  0  0  0  2  0  0  0  0  0  0
  -30.6020  -12.9540   19.2650 C   0  0  0  0  0  3  0  0  0  0  0  0
  -31.6210  -13.7170   20.1430 C   0  0  0  0  0  2  0  0  0  0  0  0
  -32.9670  -13.6070   19.5460 N   0  0  0  0  0  0  0  0  0  0  0  0
  -34.4820  -14.4780   18.0760 O   0  0  0  0  0  0  0  0  0  0  0  0
  -33.5720  -15.7590   19.6880 N   0  0  0  0  0  0  0  0  0  0  0  0
  -32.9410  -15.7340   20.4760 H   0  0  0  0  0  0  0  0  0  0  0  0
  -28.4600  -14.0680   20.1610 C   0  0  0  0  0  0  0  0  0  0  0  0
  -27.2710  -13.5450   20.6070 C   0  0  0  0  0  0  0  0  0  0  0  0
  -27.4100  -12.1270   20.5210 C   0  0  0  0  0  0  0  0  0  0  0  0
  -29.2590  -12.9800   19.8460 N   0  0  0  0  0  0  0  0  0  0  0  0
  -28.6320  -11.8060   20.1140 N   0  0  0  0  0  0  0  0  0  0  0  0
  -26.4310  -11.0540   20.7510 C   0  0  0  0  0  0  0  0  0  0  0  0
  -26.5100  -10.2120   21.8820 C   0  0  0  0  0  3  0  0  0  0  0  0
  -25.5460   -9.2020   22.0910 C   0  0  0  0  0  3  0  0  0  0  0  0
  -24.4900   -9.0260   21.1660 C   0  0  0  0  0  0  0  0  0  0  0  0
  -24.4310   -9.8510   20.0290 C   0  0  0  0  0  3  0  0  0  0  0  0
  -25.3950  -10.8520   19.8190 C   0  0  0  0  0  3  0  0  0  0  0  0
  -23.5250   -8.0530   21.2720 O   0  0  0  0  0  0  0  0  0  0  0  0
  -22.8700   -7.8150   22.4540 C   0  0  0  0  0  0  0  0  0  0  0  0
  -22.1430   -8.8260   23.1210 C   0  0  0  0  0  3  0  0  0  0  0  0
  -21.4260   -8.5200   24.2930 C   0  0  0  0  0  3  0  0  0  0  0  0
  -21.4290   -7.2060   24.7990 C   0  0  0  0  0  0  0  0  0  0  0  0
  -22.1490   -6.1970   24.1340 C   0  0  0  0  0  3  0  0  0  0  0  0
  -22.8650   -6.5020   22.9640 C   0  0  0  0  0  0  0  0  0  0  0  0
  -23.5400   -5.5210   22.3150 F   0  0  0  0  0  0  0  0  0  0  0  0
  -20.7340   -6.9080   25.9220 F   0  0  0  0  0  0  0  0  0  0  0  0
  -26.0450  -14.3170   20.9940 C   0  0  0  0  0  0  0  0  0  0  0  0
  -25.2570  -13.7850   21.9240 N   0  0  0  0  0  0  0  0  0  0  0  0
  -25.8030  -15.4230   20.5120 O   0  0  0  0  0  0  0  0  0  0  0  0
  -25.4680  -12.8900   22.3390 H   0  0  0  0  0  0  0  0  0  0  0  0
  -24.4290  -14.2810   22.2210 H   0  0  0  0  0  0  0  0  0  0  0  0
  -28.9160  -15.3680   19.9860 N   0  0  0  0  0  0  0  0  0  0  0  0
  -28.3420  -16.1800   20.1920 H   0  0  0  0  0  0  0  0  0  0  0  0
  -29.8410  -15.6140   19.6540 H   0  0  0  0  0  0  0  0  0  0  0  0
  2  5  1  0
  3  1  1  0
  4  2  2  0
  4  6  1  0
  5  1  2  0
  6  3  2  0
  7 10  1  0
  8  7  1  0
  9 12  1  0
 10  5  1  0
 10 12  1  0
 11 15  1  0
 11  8  1  0
 11  9  1  0
 12 13  1  0
 12 14  1  0
 16 18  1  0
 16 15  1  0
 17 28  2  0
 18 23  1  0
 19 27  1  0
 19 29  1  0
 20 22  1  0
 20 26  1  0
 21 27  1  0
 22 21  1  0
 23 22  2  0
 24 18  2  0
 24 25  1  0
 25 20  2  0
 26 19  1  0
 27 17  1  0
 29 31  2  0
 30 29  1  0
 32 30  1  0
 33 42  2  0
 33 38  1  0
 34 30  1  0
 34 38  1  0
 35 34  1  0
 36 37  1  0
 36 35  1  0
 37 33  1  0
 38 39  2  0
 39 40  1  0
 41 40  2  0
 42 41  1  0
 43 17  1  0
 43 44  1  0
 43 53  1  0
 44 47  1  0
 45 44  1  0
 45 49  1  0
 46 45  2  0
 49 48  1  0
 51 49  1  0
 51 52  1  0
 51 50  1  0
 53 56  1  1
 53 54  1  0
 55 53  1  0
 57  6  1  0
 57 58  1  0
 59 60  1  0
 59 57  1  0
 61 62  1  0
 61 60  1  0
 62 71  1  0
 63 69  1  0
 63 71  1  0
 64 69  1  0
 65 66  1  0
 65 64  1  0
 67 66  1  0
 67 76  1  0
 67 68  1  0
 69 68  1  0
 70 63  2  0
 71 72  1  0
 73 74  2  0
 74 93  1  0
 75 74  1  0
 75 78  1  0
 76 77  1  0
 76 73  1  0
 77 75  2  0
 78 79  1  0
 79 80  2  0
 81 84  1  0
 81 80  1  0
 82 81  2  0
 83 82  1  0
 83 78  2  0
 84 85  1  0
 85 90  2  0
 85 86  1  0
 86 87  2  0
 87 88  1  0
 88 92  1  0
 89 88  2  0
 90 89  1  0
 91 90  1  0
 93 94  1  0
 94 97  1  0
 94 96  1  0
 95 93  2  0
 98 73  1  0
 98 99  1  0
100 98  1  0
M  ISO  4  15 101  16 101  63 100  71 100
M  END
>  <TORSDO>  (28) 
F 23

>  <SCORE>  (28) 
-4.793

>  <name>  (28) 
28

>  <ligand_id>  (28) 
28

>  <original_smiles>  (28) 
[H]c1c([H])c([H])c2c(c1[H])C([H])([H])C([H])([H])C([H])([H])C2([H])N([H])C(=O)C1([H])N(C(=O)C([H])(N([H])C(=O)C([H])(N([H])C([H])([H])[H])C([H])([H])[H])C(C([H])([H])[H])(C([H])([H])[H])C([H])([H])[H])C([H])([H])c2c([H])c(OC([H])([H])C3([H])C([H])([H])C([H])([H])C([H])(c4c([H])c([H])c(N([H])C([H])([H])C([H])([H])C([H])([H])C([H])([H])N([H])C(=O)N5C([H])([H])C([H])([H])C([H])([H])C([H])(n6nc(-c7c([H])c([H])c(Oc8c([H])c([H])c(F)c([H])c8F)c([H])c7[H])c(C(=O)N([H])[H])c6N([H])[H])C5([H])[H])c([H])c4[H])[N+]([H])([H])C3([H])[H])c([H])c([H])c2C1([H])[H]

>  <smiles>  (28) 
[H]c1c([H])c([H])c2c(c1[H])C([H])([H])C([H])([H])C([H])([H])C2([H])N([H])C(=O)C1([H])N(C(=O)C([H])(N([H])C(=O)C([H])(N([H])C([H])([H])[H])C([H])([H])[H])C(C([H])([H])[H])(C([H])([H])[H])C([H])([H])[H])C([H])([H])c2c([H])c(OC([H])([H])C3([H])C([H])([H])C([H])([H])C([H])(c4c([H])c([H])c(N([H])C([H])([H])C([H])([H])C([H])([H])C([H])([H])N([H])C(=O)N5C([H])([H])C([H])([H])C([H])([H])C([H])(n6nc(-c7c([H])c([H])c(Oc8c([H])c([H])c(F)c([H])c8F)c([H])c7[H])c(C(=O)N([H])[H])c6N([H])[H])C5([H])[H])c([H])c4[H])[N+]([H])([H])C3([H])[H])c([H])c([H])c2C1([H])[H]

$$$$
29:0:0
     RDKit          3D

101109  0  0  1  0  0  0  0  0999 V2000
  -26.7030  -25.9020   26.1650 C   0  0  0  0  0  2  0  0  0  0  0  0
  -27.4100  -24.8130   26.9720 C   0  0  0  0  0  2  0  0  0  0  0  0
  -27.8570  -23.2630   25.0160 C   0  0  0  0  0  2  0  0  0  0  0  0
  -27.5340  -26.4780   25.0080 C   0  0  0  0  0  2  0  0  0  0  0  0
  -27.2920  -24.1960   23.9050 C   0  0  0  0  0  2  0  0  0  0  0  0
  -27.1790  -23.4030   26.4020 C   0  0  0  0  0  3  0  0  0  0  0  0
  -27.8960  -25.5630   23.8750 N   0  0  1  0  0  4  0  0  0  0  0  0
  -28.8930  -25.4230   23.9600 H   0  0  0  0  0  0  0  0  0  0  0  0
  -27.6340  -22.3630   27.4630 C   0  0  0  0  0  2  0  0  0  0  0  0
  -27.3000  -20.8800   27.1990 C   0  0  0  0  0  2  0  0  0  0  0  0
  -27.7420  -20.0380   28.3410 N   0  0  0  0  0  4  0  0  0  0  0  0
  -27.0430  -20.0820   29.0650 H   0  0  0  0  0  0  0  0  0  0  0  0
  -28.5920  -20.4150   28.7250 H   0  0  0  0  0  0  0  0  0  0  0  0
  -27.9910  -18.6170   28.0180 C   0  0  0  0  0  2  0  0  0  0  0  0
  -29.3620  -18.4270   27.3420 C   0  0  0  0  0  2  0  0  0  0  0  0
  -29.4740  -17.1180   26.5500 C   0  0  0  0  0  2  0  0  0  0  0  0
  -30.6480  -17.1760   25.5660 C   0  0  0  0  0  2  0  0  0  0  0  0
  -30.7060  -15.9750   24.6210 C   0  0  0  0  0  2  0  0  0  0  0  0
  -31.7990  -16.1790   23.5640 C   0  0  0  0  0  2  0  0  0  0  0  0
  -32.1330  -14.9200   22.7650 C   0  0  0  0  0  2  0  0  0  0  0  0
  -30.8790  -14.2030   20.7560 C   0  0  0  0  0  0  0  0  0  0  0  0
  -30.3920  -12.2660   19.3400 C   0  0  0  0  0  2  0  0  0  0  0  0
  -29.4520  -12.5390   18.1610 C   0  0  0  0  0  2  0  0  0  0  0  0
  -27.9890  -12.3780   18.6040 C   0  0  0  0  0  2  0  0  0  0  0  0
  -27.6640  -13.2060   19.8730 C   0  0  0  0  0  3  0  0  0  0  0  0
  -28.7100  -12.9690   20.9870 C   0  0  0  0  0  2  0  0  0  0  0  0
  -30.0610  -13.1790   20.4360 N   0  0  0  0  0  0  0  0  0  0  0  0
  -31.7100  -14.6950   19.9860 O   0  0  0  0  0  0  0  0  0  0  0  0
  -30.9650  -14.3800   22.0760 N   0  0  0  0  0  0  0  0  0  0  0  0
  -30.3010  -13.8600   22.6310 H   0  0  0  0  0  0  0  0  0  0  0  0
  -25.2600  -13.8170   20.5700 C   0  0  0  0  0  0  0  0  0  0  0  0
  -24.1850  -13.0450   20.9180 C   0  0  0  0  0  0  0  0  0  0  0  0
  -24.6400  -11.6910   20.8750 C   0  0  0  0  0  0  0  0  0  0  0  0
  -26.3050  -12.9350   20.3400 N   0  0  0  0  0  0  0  0  0  0  0  0
  -25.9330  -11.6500   20.5790 N   0  0  0  0  0  0  0  0  0  0  0  0
  -23.9070  -10.4300   21.0410 C   0  0  0  0  0  0  0  0  0  0  0  0
  -24.3620   -9.4210   21.9200 C   0  0  0  0  0  3  0  0  0  0  0  0
  -23.6290   -8.2250   22.0760 C   0  0  0  0  0  3  0  0  0  0  0  0
  -22.4280   -8.0290   21.3550 C   0  0  0  0  0  0  0  0  0  0  0  0
  -21.9920   -9.0270   20.4650 C   0  0  0  0  0  3  0  0  0  0  0  0
  -22.7240  -10.2150   20.3060 C   0  0  0  0  0  3  0  0  0  0  0  0
  -21.6640   -6.8890   21.4240 O   0  0  0  0  0  0  0  0  0  0  0  0
  -21.6850   -6.0750   22.5280 C   0  0  0  0  0  0  0  0  0  0  0  0
  -21.4020   -6.5650   23.8220 C   0  0  0  0  0  3  0  0  0  0  0  0
  -21.3650   -5.6790   24.9180 C   0  0  0  0  0  3  0  0  0  0  0  0
  -21.6040   -4.3060   24.7230 C   0  0  0  0  0  0  0  0  0  0  0  0
  -21.8820   -3.8150   23.4350 C   0  0  0  0  0  3  0  0  0  0  0  0
  -21.9190   -4.6970   22.3400 C   0  0  0  0  0  0  0  0  0  0  0  0
  -22.1660   -4.2160   21.0980 F   0  0  0  0  0  0  0  0  0  0  0  0
  -21.5620   -3.4540   25.7740 F   0  0  0  0  0  0  0  0  0  0  0  0
  -22.7870  -13.5240   21.1840 C   0  0  0  0  0  0  0  0  0  0  0  0
  -22.0500  -12.8240   22.0380 N   0  0  0  0  0  0  0  0  0  0  0  0
  -22.3560  -14.5560   20.6700 O   0  0  0  0  0  0  0  0  0  0  0  0
  -22.4090  -11.9880   22.4740 H   0  0  0  0  0  0  0  0  0  0  0  0
  -21.1130  -13.1280   22.2600 H   0  0  0  0  0  0  0  0  0  0  0  0
  -25.4340  -15.1900   20.4080 N   0  0  0  0  0  0  0  0  0  0  0  0
  -24.6730  -15.8510   20.5200 H   0  0  0  0  0  0  0  0  0  0  0  0
  -26.3000  -15.6250   20.1130 H   0  0  0  0  0  0  0  0  0  0  0  0
  -27.6880  -26.3060   22.5930 C   0  0  0  0  0  2  0  0  0  0  0  0
  -28.2810  -25.7160   21.2790 C   0  0  0  0  0  2  0  0  0  0  0  0
  -28.3580  -26.6950   20.2160 O   0  0  0  0  0  0  0  0  0  0  0  0
  -24.6130  -31.8700   23.2090 C   0  0  0  0  0  0  0  0  0  0  0  0
  -27.2320  -27.4680   20.0950 C   0  0  0  0  0  0  0  0  0  0  0  0
  -23.4010  -30.4900   21.5500 C   0  0  0  0  0  3  0  0  0  0  0  0
  -24.8480  -28.9640   20.1030 C   0  0  0  0  0  0  0  0  0  0  0  0
  -25.9210  -30.8540   21.3490 C   0  0  0  0  0  2  0  0  0  0  0  0
  -26.0050  -29.4950   20.6890 C   0  0  0  0  0  0  0  0  0  0  0  0
  -27.2060  -28.7600   20.6660 C   0  0  0  0  0  3  0  0  0  0  0  0
  -26.0690  -26.9460   19.4980 C   0  0  0  0  0  3  0  0  0  0  0  0
  -24.8750  -27.6950   19.4980 C   0  0  0  0  0  3  0  0  0  0  0  0
  -23.6050  -29.8200   20.1650 C   0  0  0  0  0  2  0  0  0  0  0  0
  -24.6640  -31.0840   22.0970 N   0  0  0  0  0  0  0  0  0  0  0  0
  -23.5330  -32.1420   23.7530 O   0  0  0  0  0  0  0  0  0  0  0  0
  -22.7410  -29.4660   22.5010 C   0  0  0  0  0  0  0  0  0  0  0  0
  -21.4150  -29.3030   22.3770 N   0  0  0  0  0  0  0  0  0  0  0  0
  -23.4210  -28.8220   23.3050 O   0  0  0  0  0  0  0  0  0  0  0  0
  -20.9310  -29.8670   21.6920 H   0  0  0  0  0  0  0  0  0  0  0  0
  -18.0270  -28.1400   22.8510 C   0  0  0  0  0  0  0  0  0  0  0  0
  -20.5870  -28.3670   23.1370 C   0  0  0  0  0  3  0  0  0  0  0  0
  -20.6780  -26.9420   22.5450 C   0  0  0  0  0  2  0  0  0  0  0  0
  -19.5760  -26.6410   21.5240 C   0  0  0  0  0  2  0  0  0  0  0  0
  -18.1930  -26.7960   22.1640 C   0  0  0  0  0  2  0  0  0  0  0  0
  -19.1530  -28.8850   23.2930 C   0  0  0  0  0  0  0  0  0  0  0  0
  -18.9460  -30.1450   23.8960 C   0  0  0  0  0  3  0  0  0  0  0  0
  -17.6470  -30.6610   24.0570 C   0  0  0  0  0  3  0  0  0  0  0  0
  -16.5350  -29.9130   23.6330 C   0  0  0  0  0  3  0  0  0  0  0  0
  -16.7260  -28.6540   23.0360 C   0  0  0  0  0  3  0  0  0  0  0  0
  -25.9030  -32.4840   23.8370 C   0  0  0  0  0  3  0  0  0  0  0  0
  -25.5870  -33.8630   24.2310 N   0  0  0  0  0  0  0  0  0  0  0  0
  -25.9040  -34.9490   23.5130 C   0  0  0  0  0  0  0  0  0  0  0  0
  -26.5600  -34.8950   22.4700 O   0  0  0  0  0  0  0  0  0  0  0  0
  -24.9920  -33.9780   25.0380 H   0  0  0  0  0  0  0  0  0  0  0  0
  -24.1480  -36.7330   23.2640 C   0  0  0  0  0  1  0  0  0  0  0  0
  -25.4110  -36.3120   24.0340 C   0  0  0  0  0  3  0  0  0  0  0  0
  -27.5580  -37.1800   24.8460 C   0  0  0  0  0  1  0  0  0  0  0  0
  -26.4290  -37.3810   23.9410 N   0  0  0  0  0  0  0  0  0  0  0  0
  -26.0190  -38.2900   24.1400 H   0  0  0  0  0  0  0  0  0  0  0  0
  -26.4450  -31.6610   25.0700 C   0  0  1  0  0  0  0  0  0  0  0  0
  -25.3710  -31.3680   26.1420 C   0  0  0  0  0  1  0  0  0  0  0  0
  -27.0270  -30.3060   24.6070 C   0  0  0  0  0  1  0  0  0  0  0  0
  -27.6010  -32.4350   25.7480 C   0  0  0  0  0  1  0  0  0  0  0  0
  1  2  1  0
  3  6  1  0
  4  1  1  0
  5  3  1  0
  6  2  1  0
  6  9  1  0
  7  5  1  0
  7  8  1  1
  7  4  1  0
 10  9  1  0
 10 11  1  0
 11 13  1  0
 11 12  1  0
 14 11  1  0
 15 14  1  0
 16 15  1  0
 17 16  1  0
 18 17  1  0
 19 18  1  0
 20 19  1  0
 21 29  1  0
 22 27  1  0
 23 24  1  0
 23 22  1  0
 25 24  1  0
 25 34  1  0
 25 26  1  0
 27 21  1  0
 27 26  1  0
 28 21  2  0
 29 30  1  0
 29 20  1  0
 31 32  2  0
 32 51  1  0
 33 32  1  0
 33 36  1  0
 34 31  1  0
 34 35  1  0
 35 33  2  0
 36 37  1  0
 37 38  2  0
 39 42  1  0
 39 38  1  0
 40 39  2  0
 41 40  1  0
 41 36  2  0
 42 43  1  0
 43 44  1  0
 44 45  2  0
 46 45  1  0
 46 50  1  0
 47 46  2  0
 48 43  2  0
 48 47  1  0
 49 48  1  0
 51 52  1  0
 52 55  1  0
 52 54  1  0
 53 51  2  0
 56 57  1  0
 56 31  1  0
 58 56  1  0
 59  7  1  0
 60 59  1  0
 61 60  1  0
 62 73  2  0
 63 61  1  0
 63 68  1  0
 64 72  1  0
 64 74  1  0
 65 71  1  0
 65 67  1  0
 66 72  1  0
 67 66  1  0
 68 67  2  0
 69 70  1  0
 69 63  2  0
 70 65  2  0
 71 64  1  0
 72 62  1  0
 74 76  2  0
 75 74  1  0
 77 75  1  0
 78 87  2  0
 78 83  1  0
 79 75  1  0
 79 83  1  0
 80 79  1  0
 81 82  1  0
 81 80  1  0
 82 78  1  0
 83 84  2  0
 84 85  1  0
 86 85  2  0
 87 86  1  0
 88 62  1  0
 88 89  1  0
 88 98  1  0
 89 92  1  0
 90 94  1  0
 90 89  1  0
 91 90  2  0
 94 93  1  0
 96 94  1  0
 96 97  1  0
 96 95  1  0
 98101  1  1
 98 99  1  0
100 98  1  0
M  ISO  4  21 100  29 100  60 101  61 101
M  END
>  <TORSDO>  (29) 
F 28

>  <SCORE>  (29) 
35.956

>  <name>  (29) 
29

>  <ligand_id>  (29) 
29

>  <original_smiles>  (29) 
[H]c1c([H])c([H])c2c(c1[H])C([H])([H])C([H])([H])C([H])([H])C2([H])N([H])C(=O)C1([H])N(C(=O)C([H])(N([H])C(=O)C([H])(N([H])C([H])([H])[H])C([H])([H])[H])C(C([H])([H])[H])(C([H])([H])[H])C([H])([H])[H])C([H])([H])c2c([H])c(OC([H])([H])C([H])([H])[N+]3([H])C([H])([H])C([H])([H])C([H])([H])C([H])(C([H])([H])C([H])([H])[N+]([H])([H])C([H])([H])C([H])([H])C([H])([H])C([H])([H])C([H])([H])C([H])([H])C([H])([H])N([H])C(=O)N4C([H])([H])C([H])([H])C([H])([H])C([H])(n5nc(-c6c([H])c([H])c(Oc7c([H])c([H])c(F)c([H])c7F)c([H])c6[H])c(C(=O)N([H])[H])c5N([H])[H])C4([H])[H])C([H])([H])C3([H])[H])c([H])c([H])c2C1([H])[H]

>  <smiles>  (29) 
[H]c1c([H])c([H])c2c(c1[H])C([H])([H])C([H])([H])C([H])([H])C2([H])N([H])C(=O)C1([H])N(C(=O)C([H])(N([H])C(=O)C([H])(N([H])C([H])([H])[H])C([H])([H])[H])C(C([H])([H])[H])(C([H])([H])[H])C([H])([H])[H])C([H])([H])c2c([H])c(OC([H])([H])C([H])([H])[N+]3([H])C([H])([H])C([H])([H])C([H])([H])C([H])(C([H])([H])C([H])([H])[N+]([H])([H])C([H])([H])C([H])([H])C([H])([H])C([H])([H])C([H])([H])C([H])([H])C([H])([H])N([H])C(=O)N4C([H])([H])C([H])([H])C([H])([H])C([H])(n5nc(-c6c([H])c([H])c(Oc7c([H])c([H])c(F)c([H])c7F)c([H])c6[H])c(C(=O)N([H])[H])c5N([H])[H])C4([H])[H])C([H])([H])C3([H])[H])c([H])c([H])c2C1([H])[H]

$$$$
30:0:0
     RDKit          3D

 97105  0  0  1  0  0  0  0  0999 V2000
  -28.7900  -22.0000   21.1610 C   0  0  0  0  0  3  0  0  0  0  0  0
  -27.8180  -21.1320   20.4360 N   0  0  0  0  0  4  0  0  0  0  0  0
  -26.9230  -21.5950   20.4460 H   0  0  0  0  0  0  0  0  0  0  0  0
  -28.0960  -21.0440   19.4740 H   0  0  0  0  0  0  0  0  0  0  0  0
  -27.5980  -19.7770   21.0280 C   0  0  0  0  0  2  0  0  0  0  0  0
  -28.3590  -18.6110   20.3270 C   0  0  0  0  0  2  0  0  0  0  0  0
  -29.5700  -18.0540   21.1190 C   0  0  0  0  0  2  0  0  0  0  0  0
  -30.4560  -17.0320   20.3530 C   0  0  0  0  0  2  0  0  0  0  0  0
  -30.6580  -14.5910   19.8920 C   0  0  0  0  0  0  0  0  0  0  0  0
  -30.4150  -12.2960   19.0290 C   0  0  0  0  0  2  0  0  0  0  0  0
  -29.4020  -12.2880   17.8670 C   0  0  0  0  0  2  0  0  0  0  0  0
  -27.9620  -12.1330   18.3940 C   0  0  0  0  0  2  0  0  0  0  0  0
  -27.6400  -13.1070   19.5610 C   0  0  0  0  0  3  0  0  0  0  0  0
  -28.7620  -13.0910   20.6220 C   0  0  0  0  0  2  0  0  0  0  0  0
  -30.0320  -13.3840   19.9420 N   0  0  0  0  0  0  0  0  0  0  0  0
  -31.7430  -14.7550   19.3300 O   0  0  0  0  0  0  0  0  0  0  0  0
  -29.9720  -15.6430   20.3810 N   0  0  0  0  0  0  0  0  0  0  0  0
  -29.0860  -15.4520   20.8260 H   0  0  0  0  0  0  0  0  0  0  0  0
  -25.3190  -13.7010   20.5010 C   0  0  0  0  0  0  0  0  0  0  0  0
  -24.2830  -12.9190   20.9370 C   0  0  0  0  0  0  0  0  0  0  0  0
  -24.7290  -11.5680   20.8210 C   0  0  0  0  0  0  0  0  0  0  0  0
  -26.3340  -12.8240   20.1500 N   0  0  0  0  0  0  0  0  0  0  0  0
  -25.9870  -11.5340   20.4000 N   0  0  0  0  0  0  0  0  0  0  0  0
  -24.0120  -10.3040   21.0300 C   0  0  0  0  0  0  0  0  0  0  0  0
  -24.4460   -9.3570   21.9860 C   0  0  0  0  0  3  0  0  0  0  0  0
  -23.7260   -8.1580   22.1800 C   0  0  0  0  0  3  0  0  0  0  0  0
  -22.5600   -7.8990   21.4230 C   0  0  0  0  0  0  0  0  0  0  0  0
  -22.1480   -8.8340   20.4560 C   0  0  0  0  0  3  0  0  0  0  0  0
  -22.8680  -10.0230   20.2580 C   0  0  0  0  0  3  0  0  0  0  0  0
  -21.8100   -6.7510   21.5270 O   0  0  0  0  0  0  0  0  0  0  0  0
  -21.6810   -6.0830   22.7190 C   0  0  0  0  0  0  0  0  0  0  0  0
  -21.1410   -6.7020   23.8670 C   0  0  0  0  0  3  0  0  0  0  0  0
  -20.9600   -5.9580   25.0490 C   0  0  0  0  0  3  0  0  0  0  0  0
  -21.3120   -4.5950   25.0860 C   0  0  0  0  0  0  0  0  0  0  0  0
  -21.8460   -3.9760   23.9420 C   0  0  0  0  0  3  0  0  0  0  0  0
  -22.0280   -4.7170   22.7620 C   0  0  0  0  0  0  0  0  0  0  0  0
  -22.5220   -4.1100   21.6560 F   0  0  0  0  0  0  0  0  0  0  0  0
  -21.1330   -3.8790   26.2200 F   0  0  0  0  0  0  0  0  0  0  0  0
  -22.9200  -13.3940   21.3440 C   0  0  0  0  0  0  0  0  0  0  0  0
  -22.2670  -12.6880   22.2620 N   0  0  0  0  0  0  0  0  0  0  0  0
  -22.4410  -14.4290   20.8820 O   0  0  0  0  0  0  0  0  0  0  0  0
  -22.6630  -11.8490   22.6590 H   0  0  0  0  0  0  0  0  0  0  0  0
  -21.3540  -12.9940   22.5690 H   0  0  0  0  0  0  0  0  0  0  0  0
  -25.4740  -15.0760   20.3510 N   0  0  0  0  0  0  0  0  0  0  0  0
  -24.7110  -15.7180   20.5320 H   0  0  0  0  0  0  0  0  0  0  0  0
  -26.2820  -15.5270   19.9400 H   0  0  0  0  0  0  0  0  0  0  0  0
  -28.3410  -23.4960   21.2970 C   0  0  0  0  0  3  0  0  0  0  0  0
  -28.7700  -24.5170   20.2020 C   0  0  0  0  0  3  0  0  0  0  0  0
  -28.2760  -25.9790   20.4210 C   0  0  0  0  0  2  0  0  0  0  0  0
  -27.6500  -26.5400   19.2650 O   0  0  0  0  0  0  0  0  0  0  0  0
  -24.4420  -31.6780   23.0960 C   0  0  0  0  0  0  0  0  0  0  0  0
  -26.5580  -27.3440   19.4970 C   0  0  0  0  0  0  0  0  0  0  0  0
  -23.0180  -30.4370   21.4960 C   0  0  0  0  0  3  0  0  0  0  0  0
  -24.2540  -28.9410   19.8410 C   0  0  0  0  0  0  0  0  0  0  0  0
  -25.5270  -30.7060   21.0700 C   0  0  0  0  0  2  0  0  0  0  0  0
  -25.4870  -29.3740   20.3500 C   0  0  0  0  0  0  0  0  0  0  0  0
  -26.6460  -28.5790   20.1840 C   0  0  0  0  0  3  0  0  0  0  0  0
  -25.3170  -26.9300   18.9820 C   0  0  0  0  0  3  0  0  0  0  0  0
  -24.1630  -27.7160   19.1580 C   0  0  0  0  0  3  0  0  0  0  0  0
  -23.0620  -29.8440   20.0620 C   0  0  0  0  0  2  0  0  0  0  0  0
  -24.3530  -30.9520   21.9440 N   0  0  0  0  0  0  0  0  0  0  0  0
  -23.4320  -31.9550   23.7560 O   0  0  0  0  0  0  0  0  0  0  0  0
  -22.4180  -29.3790   22.4510 C   0  0  0  0  0  0  0  0  0  0  0  0
  -21.0980  -29.1590   22.3490 N   0  0  0  0  0  0  0  0  0  0  0  0
  -23.1390  -28.7590   23.2390 O   0  0  0  0  0  0  0  0  0  0  0  0
  -20.5770  -29.7150   21.6860 H   0  0  0  0  0  0  0  0  0  0  0  0
  -17.8070  -27.7220   22.7590 C   0  0  0  0  0  0  0  0  0  0  0  0
  -20.3250  -28.1830   23.1180 C   0  0  0  0  0  3  0  0  0  0  0  0
  -20.5600  -26.7480   22.5920 C   0  0  0  0  0  2  0  0  0  0  0  0
  -19.5260  -26.3130   21.5490 C   0  0  0  0  0  2  0  0  0  0  0  0
  -18.1120  -26.3710   22.1340 C   0  0  0  0  0  2  0  0  0  0  0  0
  -18.8470  -28.5790   23.2060 C   0  0  0  0  0  0  0  0  0  0  0  0
  -18.5110  -29.8410   23.7460 C   0  0  0  0  0  3  0  0  0  0  0  0
  -17.1660  -30.2440   23.8470 C   0  0  0  0  0  3  0  0  0  0  0  0
  -16.1400  -29.3850   23.4180 C   0  0  0  0  0  3  0  0  0  0  0  0
  -16.4610  -28.1260   22.8780 C   0  0  0  0  0  3  0  0  0  0  0  0
  -25.8080  -32.2150   23.6200 C   0  0  0  0  0  3  0  0  0  0  0  0
  -26.4010  -31.3560   24.8040 C   0  0  1  0  0  0  0  0  0  0  0  0
  -25.4010  -31.1160   25.9580 C   0  0  0  0  0  1  0  0  0  0  0  0
  -26.8730  -29.9760   24.2920 C   0  0  0  0  0  1  0  0  0  0  0  0
  -27.6480  -32.0590   25.3900 C   0  0  0  0  0  1  0  0  0  0  0  0
  -25.6040  -33.6090   24.0410 N   0  0  0  0  0  0  0  0  0  0  0  0
  -25.9570  -34.6810   23.3190 C   0  0  0  0  0  0  0  0  0  0  0  0
  -26.5610  -34.5970   22.2480 O   0  0  0  0  0  0  0  0  0  0  0  0
  -25.0680  -33.7520   24.8850 H   0  0  0  0  0  0  0  0  0  0  0  0
  -24.3260  -36.5890   23.1550 C   0  0  0  0  0  1  0  0  0  0  0  0
  -25.5790  -36.0680   23.8760 C   0  0  0  0  0  3  0  0  0  0  0  0
  -27.8050  -36.7760   24.6330 C   0  0  0  0  0  1  0  0  0  0  0  0
  -26.6670  -37.0620   23.7620 N   0  0  0  0  0  0  0  0  0  0  0  0
  -26.3280  -37.9940   23.9830 H   0  0  0  0  0  0  0  0  0  0  0  0
  -30.2150  -21.7960   20.5800 C   0  0  0  0  0  2  0  0  0  0  0  0
  -33.8320  -21.4830   21.0990 C   0  0  0  0  0  3  0  0  0  0  0  0
  -32.6560  -22.1310   21.0570 C   0  0  0  0  0  3  0  0  0  0  0  0
  -34.0160  -20.1240   21.7440 C   0  0  0  0  0  2  0  0  0  0  0  0
  -32.8330  -19.7660   22.6590 C   0  0  0  0  0  2  0  0  0  0  0  0
  -31.4940  -20.0700   21.9720 C   0  0  0  0  0  2  0  0  0  0  0  0
  -31.3470  -21.5690   21.6050 C   0  0  0  0  0  3  0  0  0  0  0  0
  1 91  1  0
  1 47  1  0
  2  3  1  0
  2  5  1  0
  2  1  1  0
  4  2  1  0
  6  5  1  0
  6  7  1  0
  8 17  1  0
  8  7  1  0
  9 15  1  0
  9 17  1  0
 10 15  1  0
 11 12  1  0
 11 10  1  0
 13 12  1  0
 13 22  1  0
 13 14  1  0
 15 14  1  0
 16  9  2  0
 17 18  1  0
 19 20  2  0
 20 39  1  0
 21 20  1  0
 21 24  1  0
 22 23  1  0
 22 19  1  0
 23 21  2  0
 24 25  1  0
 25 26  2  0
 27 30  1  0
 27 26  1  0
 28 27  2  0
 29 28  1  0
 29 24  2  0
 30 31  1  0
 31 36  2  0
 31 32  1  0
 32 33  2  0
 33 34  1  0
 34 38  1  0
 35 34  2  0
 36 35  1  0
 37 36  1  0
 39 40  1  0
 40 43  1  0
 40 42  1  0
 41 39  2  0
 44 19  1  0
 44 45  1  0
 46 44  1  0
 48 49  1  0
 48 47  2  0
 50 52  1  0
 50 49  1  0
 51 62  2  0
 52 57  1  0
 53 61  1  0
 53 63  1  0
 54 60  1  0
 54 56  1  0
 55 61  1  0
 56 55  1  0
 57 56  2  0
 58 59  1  0
 58 52  2  0
 59 54  2  0
 60 53  1  0
 61 51  1  0
 63 65  2  0
 64 63  1  0
 66 64  1  0
 67 76  2  0
 67 72  1  0
 68 64  1  0
 68 72  1  0
 69 68  1  0
 70 71  1  0
 70 69  1  0
 71 67  1  0
 72 73  2  0
 73 74  1  0
 75 74  2  0
 76 75  1  0
 77 51  1  0
 77 82  1  0
 77 78  1  0
 78 81  1  1
 78 79  1  0
 80 78  1  0
 82 85  1  0
 83 87  1  0
 83 82  1  0
 84 83  2  0
 87 86  1  0
 89 87  1  0
 89 90  1  0
 89 88  1  0
 92 94  1  0
 93 92  2  0
 93 97  1  0
 94 95  1  0
 96 95  1  0
 97 91  1  0
 97 96  1  0
M  ISO  4   9 100  17 100  49 101  50 101
M  END
>  <TORSDO>  (30) 
F 26

>  <SCORE>  (30) 
-10.261

>  <name>  (30) 
30

>  <ligand_id>  (30) 
30

>  <original_smiles>  (30) 
[H]C1=C([H])C([H])(C([H])([H])C([H])(C([H])([H])C([H])([H])C([H])([H])Oc2c([H])c([H])c3c(c2[H])C([H])([H])N(C(=O)C([H])(N([H])C(=O)C([H])(N([H])C([H])([H])[H])C([H])([H])[H])C(C([H])([H])[H])(C([H])([H])[H])C([H])([H])[H])C([H])(C(=O)N([H])C2([H])c4c([H])c([H])c([H])c([H])c4C([H])([H])C([H])([H])C2([H])[H])C3([H])[H])[N+]([H])([H])C([H])([H])C([H])([H])C([H])([H])C([H])([H])N([H])C(=O)N2C([H])([H])C([H])([H])C([H])([H])C([H])(n3nc(-c4c([H])c([H])c(Oc5c([H])c([H])c(F)c([H])c5F)c([H])c4[H])c(C(=O)N([H])[H])c3N([H])[H])C2([H])[H])C([H])([H])C([H])([H])C1([H])[H]

>  <smiles>  (30) 
[H]C1=C([H])C([H])(C([H])([H])C([H])(C([H])([H])C([H])([H])C([H])([H])Oc2c([H])c([H])c3c(c2[H])C([H])([H])N(C(=O)C([H])(N([H])C(=O)C([H])(N([H])C([H])([H])[H])C([H])([H])[H])C(C([H])([H])[H])(C([H])([H])[H])C([H])([H])[H])C([H])(C(=O)N([H])C2([H])c4c([H])c([H])c([H])c([H])c4C([H])([H])C([H])([H])C2([H])[H])C3([H])[H])[N+]([H])([H])C([H])([H])C([H])([H])C([H])([H])C([H])([H])N([H])C(=O)N2C([H])([H])C([H])([H])C([H])([H])C([H])(n3nc(-c4c([H])c([H])c(Oc5c([H])c([H])c(F)c([H])c5F)c([H])c4[H])c(C(=O)N([H])[H])c3N([H])[H])C2([H])[H])C([H])([H])C([H])([H])C1([H])[H]

$$$$
31:0:0
     RDKit          3D

 97 98  0  0  1  0  0  0  0  0999 V2000
  -19.3420  -27.3610   20.3630 C   0  0  0  0  0  1  0  0  0  0  0  0
  -18.3450  -26.6220   21.9120 C   0  0  0  0  0 15  0  0  0  0  0  0
  -21.5840  -25.1940   23.7290 C   0  0  0  0  0  2  0  0  0  0  0  0
  -21.2300  -27.4050   20.1610 C   0  0  0  0  0  1  0  0  0  0  0  0
  -22.4570  -26.0430   22.4670 C   0  0  0  0  0  2  0  0  0  0  0  0
  -19.9630  -25.2120   23.8000 N   0  0  0  0  0  0  0  0  0  0  0  0
  -19.6420  -24.2620   23.7180 H   0  0  0  0  0  0  0  0  0  0  0  0
  -19.6660  -25.5500   24.7010 H   0  0  0  0  0  0  0  0  0  0  0  0
  -24.0070  -29.2120   18.3490 C   0  0  0  0  0  3  0  0  0  0  0  0
  -24.0580  -27.4050   17.5760 C   0  0  0  0  0  3  0  0  0  0  0  0
  -25.4240  -29.5950   17.5440 C   0  0  0  0  0  3  0  0  0  0  0  0
  -25.4810  -27.7880   16.7610 C   0  0  0  0  0  2  0  0  0  0  0  0
  -22.9440  -28.0150   18.6020 C   0  0  0  0  0  2  0  0  0  0  0  0
  -26.5490  -28.9900   16.5580 C   0  0  0  0  0  3  0  0  0  0  0  0
  -28.4950  -29.7010   15.6120 C   0  0  0  0  0 15  0  0  0  0  0  0
  -31.8230  -30.3670   13.6720 C   0  0  0  0  0  0  0  0  0  0  0  0
  -33.7550  -30.7480   11.5150 C   0  0  0  0  0  2  0  0  0  0  0  0
  -33.3890  -30.5570    9.9890 C   0  0  0  0  0  2  0  0  0  0  0  0
  -33.1220  -29.0820    9.6650 C   0  0  0  0  0  2  0  0  0  0  0  0
  -32.5140  -28.4350   10.9160 C   0  0  0  0  0  3  0  0  0  0  0  0
  -33.3060  -28.6350   12.1970 C   0  0  0  0  0  2  0  0  0  0  0  0
  -32.8210  -29.9560   12.5560 N   0  0  0  0  0  0  0  0  0  0  0  0
  -32.5050  -31.4470   13.8890 O   0  0  0  0  0  0  0  0  0  0  0  0
  -30.2560  -29.7490   14.3680 N   0  0  0  0  0  2  0  0  0  0  0  0
  -30.1040  -28.9450   13.7690 H   0  0  0  0  0  0  0  0  0  0  0  0
  -31.1070  -26.5180   11.5460 C   0  0  0  0  0  0  0  0  0  0  0  0
  -31.0680  -25.2370   11.1080 C   0  0  0  0  0  0  0  0  0  0  0  0
  -32.1630  -25.0960   10.2000 C   0  0  0  0  0  0  0  0  0  0  0  0
  -32.1530  -27.0790   10.8520 N   0  0  0  0  0  0  0  0  0  0  0  0
  -32.8600  -26.2140   10.1090 N   0  0  0  0  0  0  0  0  0  0  0  0
  -32.5450  -23.9840    9.3470 C   0  0  0  0  0  0  0  0  0  0  0  0
  -33.8640  -23.4830    9.3350 C   0  0  0  0  0  3  0  0  0  0  0  0
  -34.1950  -22.3910    8.5080 C   0  0  0  0  0  3  0  0  0  0  0  0
  -33.2020  -21.7980    7.6930 C   0  0  0  0  0  0  0  0  0  0  0  0
  -31.9000  -22.3240    7.6910 C   0  0  0  0  0  3  0  0  0  0  0  0
  -31.5720  -23.4140    8.5090 C   0  0  0  0  0  3  0  0  0  0  0  0
  -33.4340  -20.7460    6.8430 O   0  0  0  0  0  0  0  0  0  0  0  0
  -34.4530  -19.8580    7.0690 C   0  0  0  0  0  0  0  0  0  0  0  0
  -34.5700  -19.1480    8.2840 C   0  0  0  0  0  3  0  0  0  0  0  0
  -35.5940  -18.1940    8.4420 C   0  0  0  0  0  3  0  0  0  0  0  0
  -36.4920  -17.9420    7.3870 C   0  0  0  0  0  0  0  0  0  0  0  0
  -36.3740  -18.6460    6.1760 C   0  0  0  0  0  3  0  0  0  0  0  0
  -35.3550  -19.6010    6.0180 C   0  0  0  0  0  0  0  0  0  0  0  0
  -35.2300  -20.2620    4.8420 F   0  0  0  0  0  0  0  0  0  0  0  0
  -37.4690  -17.0170    7.5350 F   0  0  0  0  0  0  0  0  0  0  0  0
  -30.0150  -24.2370   11.4560 C   0  0  0  0  0  0  0  0  0  0  0  0
  -30.3740  -22.9620   11.4770 N   0  0  0  0  0  0  0  0  0  0  0  0
  -28.8810  -24.5980   11.7680 O   0  0  0  0  0  0  0  0  0  0  0  0
  -31.3150  -22.6810   11.2440 H   0  0  0  0  0  0  0  0  0  0  0  0
  -29.6990  -22.2550   11.7300 H   0  0  0  0  0  0  0  0  0  0  0  0
  -30.3530  -27.2560   12.4600 N   0  0  0  0  0  0  0  0  0  0  0  0
  -29.6350  -26.6800   12.8900 H   0  0  0  0  0  0  0  0  0  0  0  0
  -30.9780  -27.6000   13.1740 H   0  0  0  0  0  0  0  0  0  0  0  0
  -23.8650  -27.0360   23.3780 C   0  0  0  0  0  2  0  0  0  0  0  0
  -24.7590  -28.7040   23.1480 C   0  0  0  0  0  2  0  0  0  0  0  0
  -24.4980  -30.3230   22.3200 C   0  0  0  0  0  2  0  0  0  0  0  0
  -25.2720  -31.5340   21.4810 O   0  0  0  0  0  0  0  0  0  0  0  0
  -29.2930  -32.2590   25.6000 C   0  0  0  0  0  0  0  0  0  0  0  0
  -25.0720  -32.8620   21.8550 C   0  0  0  0  0  0  0  0  0  0  0  0
  -26.9290  -32.5310   26.2260 C   0  0  0  0  0  3  0  0  0  0  0  0
  -25.3380  -33.4730   24.4890 C   0  0  0  0  0  0  0  0  0  0  0  0
  -27.8260  -33.7730   24.2350 C   0  0  0  0  0  2  0  0  0  0  0  0
  -26.4400  -33.6200   23.6340 C   0  0  0  0  0  0  0  0  0  0  0  0
  -26.2740  -33.4580   22.2520 C   0  0  0  0  0  3  0  0  0  0  0  0
  -23.8910  -33.0940   22.5830 C   0  0  0  0  0  3  0  0  0  0  0  0
  -24.0380  -33.3000   23.9670 C   0  0  0  0  0  3  0  0  0  0  0  0
  -25.6780  -33.4350   25.9590 C   0  0  0  0  0  2  0  0  0  0  0  0
  -28.0860  -32.8510   25.3570 N   0  0  0  0  0  0  0  0  0  0  0  0
  -29.4640  -31.4970   26.5670 O   0  0  0  0  0  0  0  0  0  0  0  0
  -26.5250  -31.1290   25.8990 C   0  0  0  0  0  0  0  0  0  0  0  0
  -25.4560  -30.7290   26.5230 N   0  0  0  0  0  0  0  0  0  0  0  0
  -27.0900  -30.4480   25.0440 O   0  0  0  0  0  0  0  0  0  0  0  0
  -24.9780  -31.3100   27.1950 H   0  0  0  0  0  0  0  0  0  0  0  0
  -24.0680  -27.2990   28.4640 C   0  0  0  0  0  3  0  0  0  0  0  0
  -25.0420  -29.4410   26.2870 C   0  0  0  0  0  2  0  0  0  0  0  0
  -23.6080  -28.7280   24.9690 C   0  0  0  0  0 15  0  0  0  0  0  0
  -22.5310  -27.0850   25.8060 C   0  0  0  0  0  1  0  0  0  0  0  0
  -22.8480  -26.6540   27.6050 C   0  0  0  0  0  3  0  0  0  0  0  0
  -25.2480  -28.7860   27.7530 C   0  0  0  0  0  3  0  0  0  0  0  0
  -26.6550  -29.2360   28.7660 C   0  0  0  0  0  3  0  0  0  0  0  0
  -26.9230  -28.4910   30.2970 C   0  0  0  0  0  3  0  0  0  0  0  0
  -25.9180  -27.2830   30.9350 C   0  0  0  0  0  3  0  0  0  0  0  0
  -24.5270  -26.6640   30.0980 C   0  0  0  0  0  2  0  0  0  0  0  0
  -30.5130  -32.5350   24.6800 C   0  0  0  0  0  3  0  0  0  0  0  0
  -31.6310  -32.8510   25.5700 N   0  0  0  0  0  0  0  0  0  0  0  0
  -31.9620  -34.0940   25.9330 C   0  0  0  0  0  0  0  0  0  0  0  0
  -31.4070  -35.0960   25.4720 O   0  0  0  0  0  0  0  0  0  0  0  0
  -32.0920  -32.0740   26.0220 H   0  0  0  0  0  0  0  0  0  0  0  0
  -32.4900  -34.5240   28.3500 C   0  0  0  0  0  1  0  0  0  0  0  0
  -33.0930  -34.2510   26.9630 C   0  0  0  0  0  3  0  0  0  0  0  0
  -34.8490  -35.0090   25.4260 C   0  0  0  0  0  1  0  0  0  0  0  0
  -34.0550  -35.3170   26.6140 N   0  0  0  0  0  0  0  0  0  0  0  0
  -34.6920  -35.4930   27.3850 H   0  0  0  0  0  0  0  0  0  0  0  0
  -30.8770  -31.3460   23.7120 C   0  0  1  0  0  0  0  0  0  0  0  0
  -31.0610  -29.9860   24.4220 C   0  0  0  0  0  1  0  0  0  0  0  0
  -29.7870  -31.1710   22.6290 C   0  0  0  0  0  1  0  0  0  0  0  0
  -32.1920  -31.6830   22.9700 C   0  0  0  0  0  1  0  0  0  0  0  0
  3  6  1  0
  4  1  1  0
  5 54  1  0
  5  3  1  0
  6  8  1  0
  7  6  1  0
  9 11  1  0
  9 13  1  0
 10 12  1  0
 10  9  1  0
 10 13  1  0
 14 12  1  0
 14 11  2  0
 16 23  2  0
 16 24  1  0
 17 22  1  0
 18 17  1  0
 19 18  1  0
 20 19  1  0
 20 21  1  0
 21 22  1  0
 22 16  1  0
 25 24  1  0
 26 51  1  0
 27 46  1  0
 27 26  2  0
 28 27  1  0
 29 20  1  0
 29 26  1  0
 30 28  2  0
 30 29  1  0
 31 28  1  0
 32 31  1  0
 33 32  2  0
 34 33  1  0
 35 34  2  0
 35 36  1  0
 36 31  2  0
 37 38  1  0
 37 34  1  0
 38 39  1  0
 39 40  2  0
 41 45  1  0
 41 40  1  0
 42 41  2  0
 43 42  1  0
 43 38  2  0
 44 43  1  0
 46 47  1  0
 46 48  2  0
 47 50  1  0
 49 47  1  0
 51 52  1  0
 51 53  1  0
 55 54  1  0
 56 55  1  0
 57 59  1  0
 57 56  1  0
 58 69  2  0
 59 64  2  0
 59 65  1  0
 60 70  1  0
 61 67  1  0
 62 68  1  0
 63 62  1  0
 63 61  2  0
 64 63  1  0
 65 66  2  0
 66 61  1  0
 67 60  1  0
 68 58  1  0
 68 60  1  0
 70 71  1  0
 71 73  1  0
 72 70  2  0
 74 83  1  0
 75 71  1  0
 75 79  1  0
 77 78  1  0
 78 74  2  0
 79 80  2  0
 80 81  1  0
 81 82  2  0
 83 82  1  0
 84 85  1  0
 84 58  1  0
 85 86  1  0
 85 88  1  0
 86 90  1  0
 87 86  2  0
 90 89  1  0
 91 92  1  0
 92 90  1  0
 92 93  1  0
 94 95  1  1
 94 84  1  0
 96 94  1  0
 97 94  1  0
M  ISO  4  16 100  24 100  56 101  57 101
M  END
>  <TORSDO>  (31) 
F 21

>  <SCORE>  (31) 
11.287

>  <name>  (31) 
31

>  <ligand_id>  (31) 
31

>  <original_smiles>  (31) 
[H]c1c([H])c([H])c2c(c1[H])C([H])([H])C([H])([H])C([H])([H])C2([H])N([H])C(=O)C1([H])N(C(=O)C([H])(N([H])C(=O)C([H])(N([H])C([H])([H])[H])C([H])([H])[H])C(C([H])([H])[H])(C([H])([H])[H])C([H])([H])[H])C([H])([H])c2c([H])c(OC([H])([H])C([H])([H])C([H])([H])C3([H])C([H])(c4c([H])c([H])c(C([H])([H])N([H])C(=O)N5C([H])([H])C([H])([H])C([H])([H])C([H])(n6nc(-c7c([H])c([H])c(Oc8c([H])c([H])c(F)c([H])c8F)c([H])c7[H])c(C(=O)N([H])[H])c6N([H])[H])C5([H])[H])c([H])c4[H])C([H])([H])C([H])([H])[N+]([H])([H])C3([H])[H])c([H])c([H])c2C1([H])[H]

>  <smiles>  (31) 
[H]c1c([H])c([H])c2c(c1[H])C([H])([H])C([H])([H])C([H])([H])C2([H])N([H])C(=O)C1([H])N(C(=O)C([H])(N([H])C(=O)C([H])(N([H])C([H])([H])[H])C([H])([H])[H])C(C([H])([H])[H])(C([H])([H])[H])C([H])([H])[H])C([H])([H])c2c([H])c(OC([H])([H])C([H])([H])C([H])([H])C3([H])C([H])(c4c([H])c([H])c(C([H])([H])N([H])C(=O)N5C([H])([H])C([H])([H])C([H])([H])C([H])(n6nc(-c7c([H])c([H])c(Oc8c([H])c([H])c(F)c([H])c8F)c([H])c7[H])c(C(=O)N([H])[H])c6N([H])[H])C5([H])[H])c([H])c4[H])C([H])([H])C([H])([H])[N+]([H])([H])C3([H])[H])c([H])c([H])c2C1([H])[H]

$$$$
32:0:0
     RDKit          3D

 87 95  0  0  1  0  0  0  0  0999 V2000
  -28.7060  -21.9720   19.8260 C   0  0  0  0  0  2  0  0  0  0  0  0
  -29.9370  -17.2420   20.4740 C   0  0  0  0  0  0  0  0  0  0  0  0
  -30.6490  -18.1660   19.4360 C   0  0  0  0  0  2  0  0  0  0  0  0
  -29.2480  -18.1720   21.5170 C   0  0  0  0  0  2  0  0  0  0  0  0
  -29.9890  -19.6020   19.0950 C   0  0  0  0  0  2  0  0  0  0  0  0
  -28.5980  -19.5460   21.0540 C   0  0  0  0  0  2  0  0  0  0  0  0
  -29.4840  -20.5630   20.2550 C   0  0  0  0  0  3  0  0  0  0  0  0
  -29.9230  -15.9160   20.6610 N   0  0  0  0  0  0  0  0  0  0  0  0
  -30.6760  -14.8610   20.0190 C   0  0  0  0  0  0  0  0  0  0  0  0
  -30.4380  -12.5970   18.9230 C   0  0  0  0  0  2  0  0  0  0  0  0
  -29.4150  -12.7000   17.7680 C   0  0  0  0  0  2  0  0  0  0  0  0
  -27.9750  -12.5140   18.2860 C   0  0  0  0  0  2  0  0  0  0  0  0
  -27.6910  -13.3580   19.5560 C   0  0  0  0  0  3  0  0  0  0  0  0
  -28.8200  -13.2110   20.5970 C   0  0  0  0  0  2  0  0  0  0  0  0
  -30.0770  -13.6120   19.9460 N   0  0  0  0  0  0  0  0  0  0  0  0
  -31.7800  -15.0030   19.4890 O   0  0  0  0  0  0  0  0  0  0  0  0
  -25.3610  -13.9520   20.4520 C   0  0  0  0  0  0  0  0  0  0  0  0
  -24.3110  -13.1800   20.8680 C   0  0  0  0  0  0  0  0  0  0  0  0
  -24.7540  -11.8250   20.7700 C   0  0  0  0  0  0  0  0  0  0  0  0
  -26.3770  -13.0680   20.1230 N   0  0  0  0  0  0  0  0  0  0  0  0
  -26.0210  -11.7810   20.3750 N   0  0  0  0  0  0  0  0  0  0  0  0
  -24.0240  -10.5660   20.9740 C   0  0  0  0  0  0  0  0  0  0  0  0
  -24.4840   -9.5830   21.8780 C   0  0  0  0  0  3  0  0  0  0  0  0
  -23.7520   -8.3910   22.0710 C   0  0  0  0  0  3  0  0  0  0  0  0
  -22.5490   -8.1720   21.3590 C   0  0  0  0  0  0  0  0  0  0  0  0
  -22.1080   -9.1440   20.4440 C   0  0  0  0  0  3  0  0  0  0  0  0
  -22.8390  -10.3270   20.2490 C   0  0  0  0  0  3  0  0  0  0  0  0
  -21.7880   -7.0330   21.4620 O   0  0  0  0  0  0  0  0  0  0  0  0
  -21.7460   -6.2970   22.6210 C   0  0  0  0  0  0  0  0  0  0  0  0
  -21.3430   -6.8660   23.8480 C   0  0  0  0  0  3  0  0  0  0  0  0
  -21.2460   -6.0580   24.9990 C   0  0  0  0  0  3  0  0  0  0  0  0
  -21.5440   -4.6840   24.9240 C   0  0  0  0  0  0  0  0  0  0  0  0
  -21.9400   -4.1150   23.7000 C   0  0  0  0  0  3  0  0  0  0  0  0
  -22.0380   -4.9200   22.5510 C   0  0  0  0  0  0  0  0  0  0  0  0
  -22.4000   -4.3630   21.3700 F   0  0  0  0  0  0  0  0  0  0  0  0
  -21.4430   -3.9060   26.0270 F   0  0  0  0  0  0  0  0  0  0  0  0
  -22.9410  -13.6650   21.2440 C   0  0  0  0  0  0  0  0  0  0  0  0
  -22.2660  -12.9570   22.1430 N   0  0  0  0  0  0  0  0  0  0  0  0
  -22.4810  -14.7060   20.7780 O   0  0  0  0  0  0  0  0  0  0  0  0
  -22.6540  -12.1150   22.5420 H   0  0  0  0  0  0  0  0  0  0  0  0
  -21.3490  -13.2610   22.4370 H   0  0  0  0  0  0  0  0  0  0  0  0
  -25.5320  -15.3260   20.3060 N   0  0  0  0  0  0  0  0  0  0  0  0
  -24.7930  -15.9920   20.5010 H   0  0  0  0  0  0  0  0  0  0  0  0
  -26.3880  -15.7610   19.9860 H   0  0  0  0  0  0  0  0  0  0  0  0
  -29.0370  -23.5140   20.3330 C   0  0  0  0  0  3  0  0  0  0  0  0
  -28.0580  -24.7890   19.9370 C   0  0  0  0  0  3  0  0  0  0  0  0
  -28.2940  -26.2720   20.2490 O   0  0  0  0  0  0  0  0  0  0  0  0
  -24.6340  -31.8560   23.2430 C   0  0  0  0  0  0  0  0  0  0  0  0
  -27.2200  -27.2140   20.1750 C   0  0  0  0  0  0  0  0  0  0  0  0
  -23.4320  -30.4720   21.5940 C   0  0  0  0  0  3  0  0  0  0  0  0
  -24.8800  -28.9170   20.1580 C   0  0  0  0  0  0  0  0  0  0  0  0
  -25.9810  -30.7530   21.4270 C   0  0  0  0  0  2  0  0  0  0  0  0
  -26.0560  -29.3710   20.7690 C   0  0  0  0  0  0  0  0  0  0  0  0
  -27.2270  -28.5340   20.7640 C   0  0  0  0  0  3  0  0  0  0  0  0
  -26.0190  -26.8510   19.5230 C   0  0  0  0  0  3  0  0  0  0  0  0
  -24.8710  -27.6670   19.5220 C   0  0  0  0  0  3  0  0  0  0  0  0
  -23.6510  -29.8070   20.2100 C   0  0  0  0  0  2  0  0  0  0  0  0
  -24.7020  -31.0470   22.1450 N   0  0  0  0  0  0  0  0  0  0  0  0
  -23.5500  -32.1380   23.7750 O   0  0  0  0  0  0  0  0  0  0  0  0
  -22.7560  -29.4560   22.5480 C   0  0  0  0  0  0  0  0  0  0  0  0
  -21.4290  -29.2840   22.4160 N   0  0  0  0  0  0  0  0  0  0  0  0
  -23.4270  -28.8270   23.3690 O   0  0  0  0  0  0  0  0  0  0  0  0
  -20.9450  -29.8440   21.7280 H   0  0  0  0  0  0  0  0  0  0  0  0
  -18.0490  -28.0780   22.8930 C   0  0  0  0  0  0  0  0  0  0  0  0
  -20.6050  -28.3450   23.1800 C   0  0  0  0  0  3  0  0  0  0  0  0
  -20.7140  -26.9130   22.6050 C   0  0  0  0  0  2  0  0  0  0  0  0
  -19.6210  -26.5890   21.5820 C   0  0  0  0  0  2  0  0  0  0  0  0
  -18.2340  -26.7300   22.2170 C   0  0  0  0  0  2  0  0  0  0  0  0
  -19.1630  -28.8420   23.3310 C   0  0  0  0  0  0  0  0  0  0  0  0
  -18.9350  -30.1030   23.9250 C   0  0  0  0  0  3  0  0  0  0  0  0
  -17.6280  -30.6000   24.0830 C   0  0  0  0  0  3  0  0  0  0  0  0
  -16.5290  -29.8320   23.6610 C   0  0  0  0  0  3  0  0  0  0  0  0
  -16.7400  -28.5730   23.0720 C   0  0  0  0  0  3  0  0  0  0  0  0
  -25.9150  -32.4840   23.8740 C   0  0  0  0  0  3  0  0  0  0  0  0
  -26.4200  -31.7100   25.1540 C   0  0  1  0  0  0  0  0  0  0  0  0
  -25.3200  -31.4800   26.2150 C   0  0  0  0  0  1  0  0  0  0  0  0
  -26.9980  -30.3280   24.7680 C   0  0  0  0  0  1  0  0  0  0  0  0
  -27.5710  -32.4980   25.8220 C   0  0  0  0  0  1  0  0  0  0  0  0
  -25.6080  -33.8840   24.2070 N   0  0  0  0  0  0  0  0  0  0  0  0
  -25.9310  -34.9380   23.4470 C   0  0  0  0  0  0  0  0  0  0  0  0
  -26.5860  -34.8360   22.4050 O   0  0  0  0  0  0  0  0  0  0  0  0
  -25.0230  -34.0370   25.0150 H   0  0  0  0  0  0  0  0  0  0  0  0
  -24.1880  -36.7270   23.1360 C   0  0  0  0  0  1  0  0  0  0  0  0
  -25.4520  -36.3270   23.9130 C   0  0  0  0  0  3  0  0  0  0  0  0
  -27.6060  -37.2220   24.6830 C   0  0  0  0  0  1  0  0  0  0  0  0
  -26.4770  -37.3840   23.7700 N   0  0  0  0  0  0  0  0  0  0  0  0
  -26.0720  -38.3020   23.9260 H   0  0  0  0  0  0  0  0  0  0  0  0
  1 45  1  0
  2  8  2  0
  2  4  1  0
  3  2  1  0
  5  3  1  0
  5  7  1  0
  6  4  1  0
  7  1  1  0
  7  6  1  0
  9  8  1  0
 10 15  1  0
 11 12  1  0
 11 10  1  0
 13 12  1  0
 13 20  1  0
 13 14  1  0
 15  9  1  0
 15 14  1  0
 16  9  2  0
 17 18  2  0
 18 37  1  0
 19 18  1  0
 19 22  1  0
 20 21  1  0
 20 17  1  0
 21 19  2  0
 22 23  1  0
 23 24  2  0
 25 28  1  0
 25 24  1  0
 26 25  2  0
 27 26  1  0
 27 22  2  0
 28 29  1  0
 29 30  1  0
 30 31  2  0
 32 31  1  0
 32 36  1  0
 33 32  2  0
 34 29  2  0
 34 33  1  0
 35 34  1  0
 37 38  1  0
 38 41  1  0
 38 40  1  0
 39 37  2  0
 42 17  1  0
 42 43  1  0
 44 42  1  0
 46 47  1  0
 46 45  2  0
 48 59  2  0
 49 47  1  0
 49 54  1  0
 50 58  1  0
 50 60  1  0
 51 57  1  0
 51 53  1  0
 52 58  1  0
 53 52  1  0
 54 53  2  0
 55 49  2  0
 56 55  1  0
 56 51  2  0
 57 50  1  0
 58 48  1  0
 60 62  2  0
 61 60  1  0
 63 61  1  0
 64 73  2  0
 64 69  1  0
 65 61  1  0
 65 69  1  0
 66 65  1  0
 67 68  1  0
 67 66  1  0
 68 64  1  0
 69 70  2  0
 70 71  1  0
 72 71  2  0
 73 72  1  0
 74 48  1  0
 74 79  1  0
 74 75  1  0
 75 78  1  1
 75 76  1  0
 77 75  1  0
 79 82  1  0
 80 84  1  0
 80 79  1  0
 81 80  2  0
 84 83  1  0
 86 84  1  0
 86 87  1  0
 86 85  1  0
M  ISO  4   8 100   9 100  46 101  47 101
M  END
>  <TORSDO>  (32) 
F 19

>  <SCORE>  (32) 
-13.023

>  <name>  (32) 
32

>  <ligand_id>  (32) 
32

>  <original_smiles>  (32) 
[H]c1c([H])c([H])c2c(c1[H])C([H])([H])C([H])([H])C([H])([H])C2([H])N([H])C(=O)C1([H])N(C(=O)C([H])(N([H])C(=O)C([H])(N([H])C([H])([H])[H])C([H])([H])[H])C(C([H])([H])[H])(C([H])([H])[H])C([H])([H])[H])C([H])([H])c2c([H])c(OC([H])([H])C([H])([H])C([H])([H])C3([H])C([H])([H])C([H])([H])C(=NC(=O)N4C([H])([H])C([H])([H])C([H])([H])C([H])(n5nc(-c6c([H])c([H])c(Oc7c([H])c([H])c(F)c([H])c7F)c([H])c6[H])c(C(=O)N([H])[H])c5N([H])[H])C4([H])[H])C([H])([H])C3([H])[H])c([H])c([H])c2C1([H])[H]

>  <smiles>  (32) 
[H]c1c([H])c([H])c2c(c1[H])C([H])([H])C([H])([H])C([H])([H])C2([H])N([H])C(=O)C1([H])N(C(=O)C([H])(N([H])C(=O)C([H])(N([H])C([H])([H])[H])C([H])([H])[H])C(C([H])([H])[H])(C([H])([H])[H])C([H])([H])[H])C([H])([H])c2c([H])c(OC([H])([H])C([H])([H])C([H])([H])C3([H])C([H])([H])C([H])([H])C(=NC(=O)N4C([H])([H])C([H])([H])C([H])([H])C([H])(n5nc(-c6c([H])c([H])c(Oc7c([H])c([H])c(F)c([H])c7F)c([H])c6[H])c(C(=O)N([H])[H])c5N([H])[H])C4([H])[H])C([H])([H])C3([H])[H])c([H])c([H])c2C1([H])[H]

$$$$
33:0:0
     RDKit          3D

 90 98  0  0  1  0  0  0  0  0999 V2000
  -31.8420  -19.5680   18.6900 C   0  0  0  0  0  2  0  0  0  0  0  0
  -31.9090  -20.9720   19.2970 C   0  0  0  0  0  2  0  0  0  0  0  0
  -30.3840  -19.0420   18.6580 C   0  0  0  0  0  2  0  0  0  0  0  0
  -31.2380  -21.0130   20.6760 C   0  0  0  0  0  2  0  0  0  0  0  0
  -29.6870  -19.0860   20.0410 C   0  0  0  0  0  3  0  0  0  0  0  0
  -29.8160  -20.5800   20.6090 N   0  0  2  0  0  4  0  0  0  0  0  0
  -29.5580  -20.4880   21.5840 H   0  0  0  0  0  0  0  0  0  0  0  0
  -30.1990  -17.6990   20.8690 C   0  0  0  0  0  2  0  0  0  0  0  0
  -30.5430  -14.9820   20.3660 C   0  0  0  0  0  0  0  0  0  0  0  0
  -30.3590  -12.6340   19.3980 C   0  0  0  0  0  2  0  0  0  0  0  0
  -29.4160  -12.5320   18.1740 C   0  0  0  0  0  2  0  0  0  0  0  0
  -27.9650  -12.3250   18.6260 C   0  0  0  0  0  2  0  0  0  0  0  0
  -27.5530  -13.2970   19.7550 C   0  0  0  0  0  3  0  0  0  0  0  0
  -28.6070  -13.3720   20.8830 C   0  0  0  0  0  2  0  0  0  0  0  0
  -29.8850  -13.7560   20.2610 N   0  0  0  0  0  0  0  0  0  0  0  0
  -31.7590  -14.9930   20.1520 O   0  0  0  0  0  0  0  0  0  0  0  0
  -29.8230  -16.2010   20.5070 N   0  0  0  0  0  0  0  0  0  0  0  0
  -28.8280  -16.0480   20.5370 H   0  0  0  0  0  0  0  0  0  0  0  0
  -25.1650  -13.8760   20.4750 C   0  0  0  0  0  0  0  0  0  0  0  0
  -24.1010  -13.1000   20.8400 C   0  0  0  0  0  0  0  0  0  0  0  0
  -24.5730  -11.7510   20.8340 C   0  0  0  0  0  0  0  0  0  0  0  0
  -26.2180  -13.0020   20.2600 N   0  0  0  0  0  0  0  0  0  0  0  0
  -25.8700  -11.7210   20.5450 N   0  0  0  0  0  0  0  0  0  0  0  0
  -23.8520  -10.4880   21.0220 C   0  0  0  0  0  0  0  0  0  0  0  0
  -24.2710   -9.5270   21.9670 C   0  0  0  0  0  3  0  0  0  0  0  0
  -23.5430   -8.3300   22.1410 C   0  0  0  0  0  3  0  0  0  0  0  0
  -22.3820   -8.0880   21.3700 C   0  0  0  0  0  0  0  0  0  0  0  0
  -21.9830   -9.0380   20.4140 C   0  0  0  0  0  3  0  0  0  0  0  0
  -22.7110  -10.2240   20.2380 C   0  0  0  0  0  3  0  0  0  0  0  0
  -21.6240   -6.9450   21.4590 O   0  0  0  0  0  0  0  0  0  0  0  0
  -21.5550   -6.2120   22.6170 C   0  0  0  0  0  0  0  0  0  0  0  0
  -21.1050   -6.7740   23.8310 C   0  0  0  0  0  3  0  0  0  0  0  0
  -20.9880   -5.9660   24.9800 C   0  0  0  0  0  3  0  0  0  0  0  0
  -21.3110   -4.5990   24.9150 C   0  0  0  0  0  0  0  0  0  0  0  0
  -21.7560   -4.0360   23.7070 C   0  0  0  0  0  3  0  0  0  0  0  0
  -21.8750   -4.8400   22.5610 C   0  0  0  0  0  0  0  0  0  0  0  0
  -22.2830   -4.2870   21.3940 F   0  0  0  0  0  0  0  0  0  0  0  0
  -21.1930   -3.8240   26.0180 F   0  0  0  0  0  0  0  0  0  0  0  0
  -22.6980  -13.5720   21.0860 C   0  0  0  0  0  0  0  0  0  0  0  0
  -21.9610  -12.8750   21.9410 N   0  0  0  0  0  0  0  0  0  0  0  0
  -22.2650  -14.5940   20.5530 O   0  0  0  0  0  0  0  0  0  0  0  0
  -22.3260  -12.0430   22.3800 H   0  0  0  0  0  0  0  0  0  0  0  0
  -21.0240  -13.1750   22.1620 H   0  0  0  0  0  0  0  0  0  0  0  0
  -25.3210  -15.2470   20.2750 N   0  0  0  0  0  0  0  0  0  0  0  0
  -24.5330  -15.8810   20.3180 H   0  0  0  0  0  0  0  0  0  0  0  0
  -26.1600  -15.6810   19.9150 H   0  0  0  0  0  0  0  0  0  0  0  0
  -28.8680  -21.7580   20.1000 C   0  0  0  0  0  2  0  0  0  0  0  0
  -29.1540  -23.4100   20.3620 C   0  0  0  0  0  3  0  0  0  0  0  0
  -28.0270  -24.6540   20.2150 C   0  0  0  0  0  3  0  0  0  0  0  0
  -28.2690  -26.1890   20.3090 O   0  0  0  0  0  0  0  0  0  0  0  0
  -24.6470  -31.8920   23.2720 C   0  0  0  0  0  0  0  0  0  0  0  0
  -27.1980  -27.1570   20.2580 C   0  0  0  0  0  0  0  0  0  0  0  0
  -23.4320  -30.5000   21.6450 C   0  0  0  0  0  3  0  0  0  0  0  0
  -24.8720  -28.9070   20.2320 C   0  0  0  0  0  0  0  0  0  0  0  0
  -25.9880  -30.7480   21.4680 C   0  0  0  0  0  2  0  0  0  0  0  0
  -26.0580  -29.3520   20.8250 C   0  0  0  0  0  0  0  0  0  0  0  0
  -27.2240  -28.4930   20.8230 C   0  0  0  0  0  3  0  0  0  0  0  0
  -25.9770  -26.8010   19.6420 C   0  0  0  0  0  3  0  0  0  0  0  0
  -24.8390  -27.6420   19.6300 C   0  0  0  0  0  3  0  0  0  0  0  0
  -23.6440  -29.8100   20.2740 C   0  0  0  0  0  2  0  0  0  0  0  0
  -24.7100  -31.0710   22.1820 N   0  0  0  0  0  0  0  0  0  0  0  0
  -23.5660  -32.1930   23.8000 O   0  0  0  0  0  0  0  0  0  0  0  0
  -22.7530  -29.5040   22.6140 C   0  0  0  0  0  0  0  0  0  0  0  0
  -21.4260  -29.3300   22.4830 N   0  0  0  0  0  0  0  0  0  0  0  0
  -23.4230  -28.8830   23.4420 O   0  0  0  0  0  0  0  0  0  0  0  0
  -20.9450  -29.8860   21.7900 H   0  0  0  0  0  0  0  0  0  0  0  0
  -18.0430  -28.1320   22.9840 C   0  0  0  0  0  0  0  0  0  0  0  0
  -20.6020  -28.4030   23.2610 C   0  0  0  0  0  3  0  0  0  0  0  0
  -20.7080  -26.9620   22.7050 C   0  0  0  0  0  2  0  0  0  0  0  0
  -19.6120  -26.6280   21.6880 C   0  0  0  0  0  2  0  0  0  0  0  0
  -18.2250  -26.7760   22.3210 C   0  0  0  0  0  2  0  0  0  0  0  0
  -19.1590  -28.9000   23.4080 C   0  0  0  0  0  0  0  0  0  0  0  0
  -18.9350  -30.1680   23.9840 C   0  0  0  0  0  3  0  0  0  0  0  0
  -17.6290  -30.6650   24.1470 C   0  0  0  0  0  3  0  0  0  0  0  0
  -16.5270  -29.8920   23.7400 C   0  0  0  0  0  3  0  0  0  0  0  0
  -16.7360  -28.6320   23.1580 C   0  0  0  0  0  3  0  0  0  0  0  0
  -25.9300  -32.5210   23.8920 C   0  0  0  0  0  3  0  0  0  0  0  0
  -26.4350  -31.7630   25.1780 C   0  0  1  0  0  0  0  0  0  0  0  0
  -25.3350  -31.5450   26.2470 C   0  0  0  0  0  1  0  0  0  0  0  0
  -27.0180  -30.3780   24.8170 C   0  0  0  0  0  1  0  0  0  0  0  0
  -27.5880  -32.5630   25.8360 C   0  0  0  0  0  1  0  0  0  0  0  0
  -25.6260  -33.9260   24.2140 N   0  0  0  0  0  0  0  0  0  0  0  0
  -25.9510  -34.9780   23.4530 C   0  0  0  0  0  0  0  0  0  0  0  0
  -26.6140  -34.8670   22.4180 O   0  0  0  0  0  0  0  0  0  0  0  0
  -25.0240  -34.0790   25.0120 H   0  0  0  0  0  0  0  0  0  0  0  0
  -24.2210  -36.7800   23.1330 C   0  0  0  0  0  1  0  0  0  0  0  0
  -25.4790  -36.3700   23.9140 C   0  0  0  0  0  3  0  0  0  0  0  0
  -27.6300  -37.2580   24.6960 C   0  0  0  0  0  1  0  0  0  0  0  0
  -26.5090  -37.4210   23.7740 N   0  0  0  0  0  0  0  0  0  0  0  0
  -26.1070  -38.3400   23.9340 H   0  0  0  0  0  0  0  0  0  0  0  0
  1  2  1  0
  2  4  1  0
  3  1  1  0
  3  5  1  0
  5  6  1  0
  5  8  1  0
  6  4  1  0
  6  7  1  1
  9 17  1  0
 10 15  1  0
 11 12  1  0
 11 10  1  0
 13 12  1  0
 13 22  1  0
 13 14  1  0
 15  9  1  0
 15 14  1  0
 16  9  2  0
 17 18  1  0
 17  8  1  0
 19 20  2  0
 20 39  1  0
 21 20  1  0
 21 24  1  0
 22 19  1  0
 22 23  1  0
 23 21  2  0
 24 25  1  0
 25 26  2  0
 27 30  1  0
 27 26  1  0
 28 27  2  0
 29 28  1  0
 29 24  2  0
 30 31  1  0
 31 32  1  0
 32 33  2  0
 34 33  1  0
 34 38  1  0
 35 34  2  0
 36 31  2  0
 36 35  1  0
 37 36  1  0
 39 40  1  0
 40 43  1  0
 40 42  1  0
 41 39  2  0
 44 45  1  0
 44 19  1  0
 46 44  1  0
 47 48  1  0
 47  6  1  0
 49 50  1  0
 49 48  2  0
 51 62  2  0
 52 50  1  0
 52 57  1  0
 53 61  1  0
 53 63  1  0
 54 60  1  0
 54 56  1  0
 55 61  1  0
 56 55  1  0
 57 56  2  0
 58 52  2  0
 59 58  1  0
 59 54  2  0
 60 53  1  0
 61 51  1  0
 63 65  2  0
 64 63  1  0
 66 64  1  0
 67 76  2  0
 67 72  1  0
 68 64  1  0
 68 72  1  0
 69 68  1  0
 70 71  1  0
 70 69  1  0
 71 67  1  0
 72 73  2  0
 73 74  1  0
 75 74  2  0
 76 75  1  0
 77 51  1  0
 77 82  1  0
 77 78  1  0
 78 81  1  1
 78 79  1  0
 80 78  1  0
 82 85  1  0
 83 87  1  0
 83 82  1  0
 84 83  2  0
 87 86  1  0
 89 87  1  0
 89 90  1  0
 89 88  1  0
M  ISO  4   9 100  17 100  49 101  50 101
M  END
>  <TORSDO>  (33) 
F 20

>  <SCORE>  (33) 
-15.096

>  <name>  (33) 
33

>  <ligand_id>  (33) 
33

>  <original_smiles>  (33) 
[H]c1c([H])c([H])c2c(c1[H])C([H])([H])C([H])([H])C([H])([H])C2([H])N([H])C(=O)C1([H])N(C(=O)C([H])(N([H])C(=O)C([H])(N([H])C([H])([H])[H])C([H])([H])[H])C(C([H])([H])[H])(C([H])([H])[H])C([H])([H])[H])C([H])([H])c2c([H])c(OC([H])([H])C([H])([H])C([H])([H])[N+]3([H])C([H])([H])C([H])([H])C([H])([H])C([H])([H])C3([H])C([H])([H])N([H])C(=O)N3C([H])([H])C([H])([H])C([H])([H])C([H])(n4nc(-c5c([H])c([H])c(Oc6c([H])c([H])c(F)c([H])c6F)c([H])c5[H])c(C(=O)N([H])[H])c4N([H])[H])C3([H])[H])c([H])c([H])c2C1([H])[H]

>  <smiles>  (33) 
[H]c1c([H])c([H])c2c(c1[H])C([H])([H])C([H])([H])C([H])([H])C2([H])N([H])C(=O)C1([H])N(C(=O)C([H])(N([H])C(=O)C([H])(N([H])C([H])([H])[H])C([H])([H])[H])C(C([H])([H])[H])(C([H])([H])[H])C([H])([H])[H])C([H])([H])c2c([H])c(OC([H])([H])C([H])([H])C([H])([H])[N+]3([H])C([H])([H])C([H])([H])C([H])([H])C([H])([H])C3([H])C([H])([H])N([H])C(=O)N3C([H])([H])C([H])([H])C([H])([H])C([H])(n4nc(-c5c([H])c([H])c(Oc6c([H])c([H])c(F)c([H])c6F)c([H])c5[H])c(C(=O)N([H])[H])c4N([H])[H])C3([H])[H])c([H])c([H])c2C1([H])[H]

$$$$
34:0:0
     RDKit          3D

 93102  0  0  1  0  0  0  0  0999 V2000
  -26.9570  -22.3770   18.1690 C   0  0  0  0  0  2  0  0  0  0  0  0
  -26.2200  -22.8150   19.4350 C   0  0  0  0  0  2  0  0  0  0  0  0
  -28.3370  -21.8840   18.6420 C   0  0  0  0  0  2  0  0  0  0  0  0
  -27.1160  -22.3550   20.5920 C   0  0  0  0  0  2  0  0  0  0  0  0
  -28.5570  -22.4660   20.0610 C   0  0  1  0  0  0  0  0  0  0  0  0
  -29.5620  -21.5510   20.9080 C   0  0  0  0  0  2  0  0  0  0  0  0
  -28.5900  -19.1710   21.3930 C   0  0  0  0  0  3  0  0  0  0  0  0
  -30.6950  -19.2780   20.2220 C   0  0  0  0  0  3  0  0  0  0  0  0
  -28.6810  -17.7490   21.4100 C   0  0  0  0  0  3  0  0  0  0  0  0
  -30.7970  -17.8500   20.2530 C   0  0  0  0  0  3  0  0  0  0  0  0
  -29.5910  -19.9780   20.7940 C   0  0  0  0  0  0  0  0  0  0  0  0
  -29.7870  -17.0490   20.8570 C   0  0  0  0  0  0  0  0  0  0  0  0
  -30.6120  -14.5980   20.5160 C   0  0  0  0  0  0  0  0  0  0  0  0
  -30.4410  -12.3690   19.4270 C   0  0  0  0  0  2  0  0  0  0  0  0
  -29.5040  -12.5280   18.2080 C   0  0  0  0  0  2  0  0  0  0  0  0
  -28.0230  -12.3840   18.6160 C   0  0  0  0  0  2  0  0  0  0  0  0
  -27.6590  -13.2160   19.8770 C   0  0  0  0  0  3  0  0  0  0  0  0
  -28.7090  -13.0050   20.9940 C   0  0  0  0  0  2  0  0  0  0  0  0
  -30.0260  -13.3630   20.4370 N   0  0  0  0  0  0  0  0  0  0  0  0
  -31.7610  -14.7960   20.1040 O   0  0  0  0  0  0  0  0  0  0  0  0
  -29.7790  -15.5940   20.9450 N   0  0  0  0  0  0  0  0  0  0  0  0
  -28.9170  -15.2130   21.3020 H   0  0  0  0  0  0  0  0  0  0  0  0
  -25.2560  -13.8140   20.5670 C   0  0  0  0  0  0  0  0  0  0  0  0
  -24.1870  -13.0410   20.9240 C   0  0  0  0  0  0  0  0  0  0  0  0
  -24.6430  -11.6880   20.8790 C   0  0  0  0  0  0  0  0  0  0  0  0
  -26.3020  -12.9340   20.3360 N   0  0  0  0  0  0  0  0  0  0  0  0
  -25.9360  -11.6500   20.5800 N   0  0  0  0  0  0  0  0  0  0  0  0
  -23.9100  -10.4280   21.0420 C   0  0  0  0  0  0  0  0  0  0  0  0
  -24.3640   -9.4190   21.9200 C   0  0  0  0  0  3  0  0  0  0  0  0
  -23.6280   -8.2240   22.0760 C   0  0  0  0  0  3  0  0  0  0  0  0
  -22.4260   -8.0300   21.3550 C   0  0  0  0  0  0  0  0  0  0  0  0
  -21.9910   -9.0270   20.4660 C   0  0  0  0  0  3  0  0  0  0  0  0
  -22.7260  -10.2130   20.3070 C   0  0  0  0  0  3  0  0  0  0  0  0
  -21.6630   -6.8890   21.4240 O   0  0  0  0  0  0  0  0  0  0  0  0
  -21.6850   -6.0750   22.5280 C   0  0  0  0  0  0  0  0  0  0  0  0
  -21.4010   -6.5640   23.8220 C   0  0  0  0  0  3  0  0  0  0  0  0
  -21.3660   -5.6780   24.9180 C   0  0  0  0  0  3  0  0  0  0  0  0
  -21.6040   -4.3040   24.7230 C   0  0  0  0  0  0  0  0  0  0  0  0
  -21.8820   -3.8160   23.4340 C   0  0  0  0  0  3  0  0  0  0  0  0
  -21.9160   -4.6990   22.3400 C   0  0  0  0  0  0  0  0  0  0  0  0
  -22.1630   -4.2160   21.0980 F   0  0  0  0  0  0  0  0  0  0  0  0
  -21.5640   -3.4530   25.7740 F   0  0  0  0  0  0  0  0  0  0  0  0
  -22.7890  -13.5200   21.1890 C   0  0  0  0  0  0  0  0  0  0  0  0
  -22.0510  -12.8210   22.0430 N   0  0  0  0  0  0  0  0  0  0  0  0
  -22.3570  -14.5520   20.6730 O   0  0  0  0  0  0  0  0  0  0  0  0
  -22.4110  -11.9870   22.4860 H   0  0  0  0  0  0  0  0  0  0  0  0
  -21.1140  -13.1280   22.2620 H   0  0  0  0  0  0  0  0  0  0  0  0
  -25.4190  -15.1890   20.3940 N   0  0  0  0  0  0  0  0  0  0  0  0
  -24.6370  -15.8290   20.4880 H   0  0  0  0  0  0  0  0  0  0  0  0
  -26.2210  -15.6140   19.9480 H   0  0  0  0  0  0  0  0  0  0  0  0
  -29.0030  -24.0180   19.9160 C   0  0  0  0  0  2  0  0  0  0  0  0
  -28.2560  -25.2050   20.6730 C   0  0  0  0  0  2  0  0  0  0  0  0
  -28.3920  -26.5640   20.1230 O   0  0  0  0  0  0  0  0  0  0  0  0
  -24.6240  -31.8610   23.2040 C   0  0  0  0  0  0  0  0  0  0  0  0
  -27.2530  -27.3730   20.1140 C   0  0  0  0  0  0  0  0  0  0  0  0
  -23.4180  -30.4810   21.5470 C   0  0  0  0  0  3  0  0  0  0  0  0
  -24.8700  -28.9430   20.1160 C   0  0  0  0  0  0  0  0  0  0  0  0
  -25.9510  -30.8150   21.3600 C   0  0  0  0  0  2  0  0  0  0  0  0
  -26.0340  -29.4420   20.7140 C   0  0  0  0  0  0  0  0  0  0  0  0
  -27.2270  -28.6690   20.7030 C   0  0  0  0  0  3  0  0  0  0  0  0
  -26.0750  -26.9240   19.4750 C   0  0  0  0  0  3  0  0  0  0  0  0
  -24.8890  -27.6850   19.4910 C   0  0  0  0  0  3  0  0  0  0  0  0
  -23.6310  -29.8110   20.1640 C   0  0  0  0  0  2  0  0  0  0  0  0
  -24.6840  -31.0670   22.0960 N   0  0  0  0  0  0  0  0  0  0  0  0
  -23.5420  -32.1370   23.7410 O   0  0  0  0  0  0  0  0  0  0  0  0
  -22.7450  -29.4630   22.4960 C   0  0  0  0  0  0  0  0  0  0  0  0
  -21.4160  -29.3050   22.3680 N   0  0  0  0  0  0  0  0  0  0  0  0
  -23.4160  -28.8170   23.3050 O   0  0  0  0  0  0  0  0  0  0  0  0
  -20.9370  -29.8740   21.6840 H   0  0  0  0  0  0  0  0  0  0  0  0
  -18.0280  -28.1410   22.8460 C   0  0  0  0  0  0  0  0  0  0  0  0
  -20.5860  -28.3700   23.1280 C   0  0  0  0  0  3  0  0  0  0  0  0
  -20.6760  -26.9430   22.5420 C   0  0  0  0  0  2  0  0  0  0  0  0
  -19.5750  -26.6400   21.5210 C   0  0  0  0  0  2  0  0  0  0  0  0
  -18.1930  -26.7950   22.1610 C   0  0  0  0  0  2  0  0  0  0  0  0
  -19.1530  -28.8870   23.2860 C   0  0  0  0  0  0  0  0  0  0  0  0
  -18.9440  -30.1450   23.8900 C   0  0  0  0  0  3  0  0  0  0  0  0
  -17.6450  -30.6590   24.0570 C   0  0  0  0  0  3  0  0  0  0  0  0
  -16.5340  -29.9090   23.6340 C   0  0  0  0  0  3  0  0  0  0  0  0
  -16.7270  -28.6520   23.0340 C   0  0  0  0  0  3  0  0  0  0  0  0
  -25.9090  -32.4780   23.8380 C   0  0  0  0  0  3  0  0  0  0  0  0
  -26.4500  -31.6550   25.0710 C   0  0  1  0  0  0  0  0  0  0  0  0
  -25.3760  -31.3640   26.1440 C   0  0  0  0  0  1  0  0  0  0  0  0
  -27.0330  -30.3000   24.6110 C   0  0  0  0  0  1  0  0  0  0  0  0
  -27.6090  -32.4250   25.7470 C   0  0  0  0  0  1  0  0  0  0  0  0
  -25.5930  -33.8590   24.2310 N   0  0  0  0  0  0  0  0  0  0  0  0
  -25.9050  -34.9450   23.5110 C   0  0  0  0  0  0  0  0  0  0  0  0
  -26.5600  -34.8910   22.4660 O   0  0  0  0  0  0  0  0  0  0  0  0
  -25.0140  -33.9750   25.0480 H   0  0  0  0  0  0  0  0  0  0  0  0
  -24.1490  -36.7290   23.2640 C   0  0  0  0  0  1  0  0  0  0  0  0
  -25.4110  -36.3070   24.0330 C   0  0  0  0  0  3  0  0  0  0  0  0
  -27.5560  -37.1800   24.8470 C   0  0  0  0  0  1  0  0  0  0  0  0
  -26.4270  -37.3770   23.9420 N   0  0  0  0  0  0  0  0  0  0  0  0
  -26.0150  -38.2830   24.1460 H   0  0  0  0  0  0  0  0  0  0  0  0
  1  3  1  0
  1  2  1  0
  2  4  1  0
  3  5  1  0
  5  4  1  0
  5  6  1  1
  7  9  1  0
  8 10  2  0
  8 11  1  0
 10 12  1  0
 11  6  1  0
 11  7  2  0
 12 21  1  0
 12  9  2  0
 13 21  1  0
 14 19  1  0
 15 16  1  0
 15 14  1  0
 17 16  1  0
 17 26  1  0
 17 18  1  0
 19 13  1  0
 19 18  1  0
 20 13  2  0
 21 22  1  0
 23 24  2  0
 24 43  1  0
 25 24  1  0
 25 28  1  0
 26 23  1  0
 26 27  1  0
 27 25  2  0
 28 29  1  0
 29 30  2  0
 31 34  1  0
 31 30  1  0
 32 31  2  0
 33 32  1  0
 33 28  2  0
 34 35  1  0
 35 36  1  0
 36 37  2  0
 38 37  1  0
 38 42  1  0
 39 38  2  0
 40 35  2  0
 40 39  1  0
 41 40  1  0
 43 44  1  0
 44 47  1  0
 44 46  1  0
 45 43  2  0
 48 49  1  0
 48 23  1  0
 50 48  1  0
 51  5  1  0
 51 52  1  0
 53 52  1  0
 54 65  2  0
 55 53  1  0
 55 60  1  0
 56 64  1  0
 56 66  1  0
 57 63  1  0
 57 59  1  0
 58 64  1  0
 59 58  1  0
 60 59  2  0
 61 62  1  0
 61 55  2  0
 62 57  2  0
 63 56  1  0
 64 54  1  0
 66 68  2  0
 67 66  1  0
 69 67  1  0
 70 79  2  0
 70 75  1  0
 71 67  1  0
 71 75  1  0
 72 71  1  0
 73 74  1  0
 73 72  1  0
 74 70  1  0
 75 76  2  0
 76 77  1  0
 78 77  2  0
 79 78  1  0
 80 54  1  0
 80 85  1  0
 80 81  1  0
 81 84  1  1
 81 82  1  0
 83 81  1  0
 85 88  1  0
 86 90  1  0
 86 85  1  0
 87 86  2  0
 90 89  1  0
 92 90  1  0
 92 93  1  0
 92 91  1  0
M  ISO  4  13 100  21 100  52 101  53 101
M  END
>  <TORSDO>  (34) 
F 20

>  <SCORE>  (34) 
-12.141

>  <name>  (34) 
34

>  <ligand_id>  (34) 
34

>  <original_smiles>  (34) 
[H]c1c([H])c([H])c2c(c1[H])C([H])([H])C([H])([H])C([H])([H])C2([H])N([H])C(=O)C1([H])N(C(=O)C([H])(N([H])C(=O)C([H])(N([H])C([H])([H])[H])C([H])([H])[H])C(C([H])([H])[H])(C([H])([H])[H])C([H])([H])[H])C([H])([H])c2c([H])c(OC([H])([H])C([H])([H])C3(C([H])([H])c4c([H])c([H])c(N([H])C(=O)N5C([H])([H])C([H])([H])C([H])([H])C([H])(n6nc(-c7c([H])c([H])c(Oc8c([H])c([H])c(F)c([H])c8F)c([H])c7[H])c(C(=O)N([H])[H])c6N([H])[H])C5([H])[H])c([H])c4[H])C([H])([H])C([H])([H])C([H])([H])C3([H])[H])c([H])c([H])c2C1([H])[H]

>  <smiles>  (34) 
[H]c1c([H])c([H])c2c(c1[H])C([H])([H])C([H])([H])C([H])([H])C2([H])N([H])C(=O)C1([H])N(C(=O)C([H])(N([H])C(=O)C([H])(N([H])C([H])([H])[H])C([H])([H])[H])C(C([H])([H])[H])(C([H])([H])[H])C([H])([H])[H])C([H])([H])c2c([H])c(OC([H])([H])C([H])([H])C3(C([H])([H])c4c([H])c([H])c(N([H])C(=O)N5C([H])([H])C([H])([H])C([H])([H])C([H])(n6nc(-c7c([H])c([H])c(Oc8c([H])c([H])c(F)c([H])c8F)c([H])c7[H])c(C(=O)N([H])[H])c6N([H])[H])C5([H])[H])c([H])c4[H])C([H])([H])C([H])([H])C([H])([H])C3([H])[H])c([H])c([H])c2C1([H])[H]

$$$$
35:0:0
     RDKit          3D

 93101  0  0  1  0  0  0  0  0999 V2000
  -28.0540  -19.2060   20.8330 C   0  0  0  0  0  2  0  0  0  0  0  0
  -27.6840  -20.5390   20.1610 C   0  0  0  0  0  2  0  0  0  0  0  0
  -28.9110  -19.6770   18.0910 C   0  0  0  0  0  2  0  0  0  0  0  0
  -29.5660  -18.9610   20.9800 C   0  0  0  0  0  2  0  0  0  0  0  0
  -30.2160  -18.9890   18.5580 C   0  0  0  0  0  2  0  0  0  0  0  0
  -28.5310  -20.9250   18.9250 C   0  0  0  0  0  3  0  0  0  0  0  0
  -30.1470  -18.2090   19.8310 N   0  0  1  0  0  4  0  0  0  0  0  0
  -29.5480  -17.4160   19.6550 H   0  0  0  0  0  0  0  0  0  0  0  0
  -27.8240  -22.0090   18.0730 C   0  0  0  0  0  2  0  0  0  0  0  0
  -27.4990  -23.3140   18.8370 C   0  0  0  0  0  2  0  0  0  0  0  0
  -28.6730  -24.3190   18.9260 C   0  0  0  0  0  2  0  0  0  0  0  0
  -28.5250  -25.3540   20.0640 C   0  0  0  0  0  2  0  0  0  0  0  0
  -28.5670  -26.7150   19.6210 O   0  0  0  0  0  0  0  0  0  0  0  0
  -24.5840  -31.4900   23.0910 C   0  0  0  0  0  0  0  0  0  0  0  0
  -27.3700  -27.3890   19.6920 C   0  0  0  0  0  0  0  0  0  0  0  0
  -23.4180  -30.1500   21.3690 C   0  0  0  0  0  3  0  0  0  0  0  0
  -24.9140  -28.7730   19.8330 C   0  0  0  0  0  0  0  0  0  0  0  0
  -25.9200  -30.6320   21.1670 C   0  0  0  0  0  2  0  0  0  0  0  0
  -26.0570  -29.3110   20.4390 C   0  0  0  0  0  0  0  0  0  0  0  0
  -27.2910  -28.6280   20.3640 C   0  0  0  0  0  3  0  0  0  0  0  0
  -26.2120  -26.8600   19.0850 C   0  0  0  0  0  3  0  0  0  0  0  0
  -24.9850  -27.5450   19.1560 C   0  0  0  0  0  3  0  0  0  0  0  0
  -23.6370  -29.5740   19.9450 C   0  0  0  0  0  2  0  0  0  0  0  0
  -24.6590  -30.7670   21.9360 N   0  0  0  0  0  0  0  0  0  0  0  0
  -23.4990  -31.6810   23.6570 O   0  0  0  0  0  0  0  0  0  0  0  0
  -22.8200  -29.0400   22.2640 C   0  0  0  0  0  0  0  0  0  0  0  0
  -21.5090  -28.7900   22.1100 N   0  0  0  0  0  0  0  0  0  0  0  0
  -23.5310  -28.4090   23.0500 O   0  0  0  0  0  0  0  0  0  0  0  0
  -20.9930  -29.3520   21.4460 H   0  0  0  0  0  0  0  0  0  0  0  0
  -18.2070  -27.3790   22.4920 C   0  0  0  0  0  0  0  0  0  0  0  0
  -20.7420  -27.7660   22.8170 C   0  0  0  0  0  3  0  0  0  0  0  0
  -20.9350  -26.3790   22.1630 C   0  0  0  0  0  2  0  0  0  0  0  0
  -19.8650  -26.0500   21.1180 C   0  0  0  0  0  2  0  0  0  0  0  0
  -18.4690  -26.0810   21.7480 C   0  0  0  0  0  2  0  0  0  0  0  0
  -19.2740  -28.1780   22.9800 C   0  0  0  0  0  0  0  0  0  0  0  0
  -18.9760  -29.3940   23.6330 C   0  0  0  0  0  3  0  0  0  0  0  0
  -17.6430  -29.8110   23.8050 C   0  0  0  0  0  3  0  0  0  0  0  0
  -16.5890  -29.0070   23.3370 C   0  0  0  0  0  3  0  0  0  0  0  0
  -16.8710  -27.7940   22.6850 C   0  0  0  0  0  3  0  0  0  0  0  0
  -25.8520  -32.1280   23.7390 C   0  0  0  0  0  3  0  0  0  0  0  0
  -25.5160  -33.5140   24.0930 N   0  0  0  0  0  0  0  0  0  0  0  0
  -25.8420  -34.5850   23.3580 C   0  0  0  0  0  0  0  0  0  0  0  0
  -26.5290  -34.5130   22.3350 O   0  0  0  0  0  0  0  0  0  0  0  0
  -24.9100  -33.6460   24.8890 H   0  0  0  0  0  0  0  0  0  0  0  0
  -24.0800  -36.3480   23.0210 C   0  0  0  0  0  1  0  0  0  0  0  0
  -25.3230  -35.9550   23.8350 C   0  0  0  0  0  3  0  0  0  0  0  0
  -27.4230  -36.8760   24.7100 C   0  0  0  0  0  1  0  0  0  0  0  0
  -26.3350  -37.0300   23.7500 N   0  0  0  0  0  0  0  0  0  0  0  0
  -25.9060  -37.9390   23.8990 H   0  0  0  0  0  0  0  0  0  0  0  0
  -26.3710  -31.3380   25.0020 C   0  0  1  0  0  0  0  0  0  0  0  0
  -25.2700  -31.0550   26.0530 C   0  0  0  0  0  1  0  0  0  0  0  0
  -26.9790  -29.9790   24.5810 C   0  0  0  0  0  1  0  0  0  0  0  0
  -27.5020  -32.1340   25.6930 C   0  0  0  0  0  1  0  0  0  0  0  0
  -31.4880  -17.6440   20.1570 C   0  0  0  0  0  2  0  0  0  0  0  0
  -31.4890  -16.5230   21.2280 C   0  0  0  0  0  2  0  0  0  0  0  0
  -31.1970  -14.3910   19.9920 C   0  0  0  0  0  0  0  0  0  0  0  0
  -30.7700  -12.2080   18.9320 C   0  0  0  0  0  2  0  0  0  0  0  0
  -29.7590  -12.3500   17.7790 C   0  0  0  0  0  2  0  0  0  0  0  0
  -28.3140  -12.2530   18.3050 C   0  0  0  0  0  2  0  0  0  0  0  0
  -28.0590  -13.1770   19.5240 C   0  0  0  0  0  3  0  0  0  0  0  0
  -29.1720  -13.0080   20.5830 C   0  0  0  0  0  2  0  0  0  0  0  0
  -30.4710  -13.2460   19.9280 N   0  0  0  0  0  0  0  0  0  0  0  0
  -32.2090  -14.5940   19.3160 O   0  0  0  0  0  0  0  0  0  0  0  0
  -30.7460  -15.3190   20.8460 N   0  0  0  0  0  0  0  0  0  0  0  0
  -29.9280  -15.0770   21.3840 H   0  0  0  0  0  0  0  0  0  0  0  0
  -25.7580  -13.8750   20.4440 C   0  0  0  0  0  0  0  0  0  0  0  0
  -24.6810  -13.1420   20.8660 C   0  0  0  0  0  0  0  0  0  0  0  0
  -25.0630  -11.7720   20.7390 C   0  0  0  0  0  0  0  0  0  0  0  0
  -26.7330  -12.9540   20.0950 N   0  0  0  0  0  0  0  0  0  0  0  0
  -26.3220  -11.6810   20.3260 N   0  0  0  0  0  0  0  0  0  0  0  0
  -24.2870  -10.5410   20.9320 C   0  0  0  0  0  0  0  0  0  0  0  0
  -24.6740   -9.5620   21.8740 C   0  0  0  0  0  3  0  0  0  0  0  0
  -23.9010   -8.3950   22.0540 C   0  0  0  0  0  3  0  0  0  0  0  0
  -22.7250   -8.1980   21.2900 C   0  0  0  0  0  0  0  0  0  0  0  0
  -22.3570   -9.1640   20.3370 C   0  0  0  0  0  3  0  0  0  0  0  0
  -23.1300  -10.3230   20.1560 C   0  0  0  0  0  3  0  0  0  0  0  0
  -21.9250   -7.0840   21.3790 O   0  0  0  0  0  0  0  0  0  0  0  0
  -21.7700   -6.4010   22.5590 C   0  0  0  0  0  0  0  0  0  0  0  0
  -21.2280   -7.0160   23.7090 C   0  0  0  0  0  3  0  0  0  0  0  0
  -21.0210   -6.2600   24.8810 C   0  0  0  0  0  3  0  0  0  0  0  0
  -21.3460   -4.8910   24.9010 C   0  0  0  0  0  0  0  0  0  0  0  0
  -21.8810   -4.2760   23.7550 C   0  0  0  0  0  3  0  0  0  0  0  0
  -22.0890   -5.0290   22.5870 C   0  0  0  0  0  0  0  0  0  0  0  0
  -22.5850   -4.4280   21.4790 F   0  0  0  0  0  0  0  0  0  0  0  0
  -21.1400   -4.1610   26.0230 F   0  0  0  0  0  0  0  0  0  0  0  0
  -23.3370  -13.6760   21.2700 C   0  0  0  0  0  0  0  0  0  0  0  0
  -22.6440  -12.9800   22.1650 N   0  0  0  0  0  0  0  0  0  0  0  0
  -22.9140  -14.7440   20.8290 O   0  0  0  0  0  0  0  0  0  0  0  0
  -22.9990  -12.1140   22.5410 H   0  0  0  0  0  0  0  0  0  0  0  0
  -21.7450  -13.3180   22.4780 H   0  0  0  0  0  0  0  0  0  0  0  0
  -25.9830  -15.2420   20.3100 N   0  0  0  0  0  0  0  0  0  0  0  0
  -25.2570  -15.9280   20.4900 H   0  0  0  0  0  0  0  0  0  0  0  0
  -26.8120  -15.6430   19.8920 H   0  0  0  0  0  0  0  0  0  0  0  0
  1  4  1  0
  2  1  1  0
  3  5  1  0
  3  6  1  0
  5  7  1  0
  6  9  1  0
  6  2  1  0
  7 54  1  0
  7  4  1  0
  7  8  1  6
  9 10  1  0
 10 11  1  0
 11 12  1  0
 13 15  1  0
 13 12  1  0
 14 25  2  0
 15 20  1  0
 16 24  1  0
 16 26  1  0
 17 23  1  0
 17 19  1  0
 18 24  1  0
 19 18  1  0
 20 19  2  0
 21 22  1  0
 21 15  2  0
 22 17  2  0
 23 16  1  0
 24 14  1  0
 26 28  2  0
 27 26  1  0
 29 27  1  0
 30 39  2  0
 30 35  1  0
 31 27  1  0
 31 35  1  0
 32 31  1  0
 33 34  1  0
 33 32  1  0
 34 30  1  0
 35 36  2  0
 36 37  1  0
 38 37  2  0
 39 38  1  0
 40 14  1  0
 40 41  1  0
 40 50  1  0
 41 44  1  0
 42 46  1  0
 42 41  1  0
 43 42  2  0
 46 45  1  0
 48 46  1  0
 48 49  1  0
 48 47  1  0
 50 53  1  1
 50 51  1  0
 52 50  1  0
 54 55  1  0
 56 64  1  0
 57 62  1  0
 58 59  1  0
 58 57  1  0
 60 59  1  0
 60 69  1  0
 60 61  1  0
 62 56  1  0
 62 61  1  0
 63 56  2  0
 64 55  1  0
 64 65  1  0
 66 67  2  0
 67 86  1  0
 68 67  1  0
 68 71  1  0
 69 70  1  0
 69 66  1  0
 70 68  2  0
 71 72  1  0
 72 73  2  0
 74 77  1  0
 74 73  1  0
 75 74  2  0
 76 75  1  0
 76 71  2  0
 77 78  1  0
 78 83  2  0
 78 79  1  0
 79 80  2  0
 80 81  1  0
 81 85  1  0
 82 81  2  0
 83 82  1  0
 84 83  1  0
 86 87  1  0
 87 90  1  0
 87 89  1  0
 88 86  2  0
 91 66  1  0
 91 92  1  0
 93 91  1  0
M  ISO  4  12 101  13 101  56 100  64 100
M  END
>  <TORSDO>  (35) 
F 22

>  <SCORE>  (35) 
-11.494

>  <name>  (35) 
35

>  <ligand_id>  (35) 
35

>  <original_smiles>  (35) 
[H]c1c([H])c([H])c2c(c1[H])C([H])([H])C([H])([H])C([H])([H])C2([H])N([H])C(=O)C1([H])N(C(=O)C([H])(N([H])C(=O)C([H])(N([H])C([H])([H])[H])C([H])([H])[H])C(C([H])([H])[H])(C([H])([H])[H])C([H])([H])[H])C([H])([H])c2c([H])c(OC([H])([H])C([H])([H])C([H])([H])C([H])([H])C3([H])C([H])([H])C([H])([H])C([H])([H])[N+]([H])(C([H])([H])C([H])([H])N([H])C(=O)N4C([H])([H])C([H])([H])C([H])([H])C([H])(n5nc(-c6c([H])c([H])c(Oc7c([H])c([H])c(F)c([H])c7F)c([H])c6[H])c(C(=O)N([H])[H])c5N([H])[H])C4([H])[H])C([H])([H])C3([H])[H])c([H])c([H])c2C1([H])[H]

>  <smiles>  (35) 
[H]c1c([H])c([H])c2c(c1[H])C([H])([H])C([H])([H])C([H])([H])C2([H])N([H])C(=O)C1([H])N(C(=O)C([H])(N([H])C(=O)C([H])(N([H])C([H])([H])[H])C([H])([H])[H])C(C([H])([H])[H])(C([H])([H])[H])C([H])([H])[H])C([H])([H])c2c([H])c(OC([H])([H])C([H])([H])C([H])([H])C([H])([H])C3([H])C([H])([H])C([H])([H])C([H])([H])[N+]([H])(C([H])([H])C([H])([H])N([H])C(=O)N4C([H])([H])C([H])([H])C([H])([H])C([H])(n5nc(-c6c([H])c([H])c(Oc7c([H])c([H])c(F)c([H])c7F)c([H])c6[H])c(C(=O)N([H])[H])c5N([H])[H])C4([H])[H])C([H])([H])C3([H])[H])c([H])c([H])c2C1([H])[H]

$$$$
36:0:0
     RDKit          3D

 96104  0  0  1  0  0  0  0  0999 V2000
  -27.7120  -18.9910   20.3890 C   0  0  0  0  0  2  0  0  0  0  0  0
  -28.9180  -18.2360   20.9740 C   0  0  0  0  0  2  0  0  0  0  0  0
  -30.5830  -18.7390   19.0320 C   0  0  0  0  0  2  0  0  0  0  0  0
  -27.9640  -20.4900   20.1340 C   0  0  0  0  0  2  0  0  0  0  0  0
  -29.6950  -19.8600   18.4560 C   0  0  0  0  0  2  0  0  0  0  0  0
  -29.8840  -17.6620   19.9080 C   0  0  0  0  0  3  0  0  0  0  0  0
  -29.2930  -20.7910   19.5400 N   0  0  1  0  0  4  0  0  0  0  0  0
  -29.9670  -20.6000   20.2650 H   0  0  0  0  0  0  0  0  0  0  0  0
  -30.9290  -16.7730   20.6270 C   0  0  0  0  0  2  0  0  0  0  0  0
  -31.7040  -15.7780   19.7370 C   0  0  0  0  0  3  0  0  0  0  0  0
  -31.0770  -13.6320   18.6110 C   0  0  0  0  0  0  0  0  0  0  0  0
  -30.4230  -11.3750   17.8560 C   0  0  0  0  0  2  0  0  0  0  0  0
  -29.2180  -11.4100   16.8990 C   0  0  0  0  0  2  0  0  0  0  0  0
  -27.8940  -11.4070   17.6850 C   0  0  0  0  0  2  0  0  0  0  0  0
  -27.8710  -12.4750   18.8100 C   0  0  0  0  0  3  0  0  0  0  0  0
  -29.1530  -12.3910   19.6680 C   0  0  0  0  0  2  0  0  0  0  0  0
  -30.3210  -12.5160   18.7750 N   0  0  0  0  0  0  0  0  0  0  0  0
  -31.8790  -13.7820   17.6830 O   0  0  0  0  0  0  0  0  0  0  0  0
  -30.9470  -14.5380   19.5870 N   0  0  0  0  0  0  0  0  0  0  0  0
  -30.2900  -14.3070   20.3170 H   0  0  0  0  0  0  0  0  0  0  0  0
  -25.9270  -13.3480   20.2600 C   0  0  0  0  0  0  0  0  0  0  0  0
  -24.8590  -12.7110   20.8350 C   0  0  0  0  0  0  0  0  0  0  0  0
  -25.0030  -11.3280   20.5090 C   0  0  0  0  0  0  0  0  0  0  0  0
  -26.6660  -12.3570   19.6290 N   0  0  0  0  0  0  0  0  0  0  0  0
  -26.1250  -11.1280   19.8300 N   0  0  0  0  0  0  0  0  0  0  0  0
  -24.1090  -10.1890   20.7570 C   0  0  0  0  0  0  0  0  0  0  0  0
  -24.4270   -9.1930   21.7050 C   0  0  0  0  0  3  0  0  0  0  0  0
  -23.5440   -8.1170   21.9380 C   0  0  0  0  0  3  0  0  0  0  0  0
  -22.3260   -8.0310   21.2230 C   0  0  0  0  0  0  0  0  0  0  0  0
  -22.0240   -9.0140   20.2620 C   0  0  0  0  0  3  0  0  0  0  0  0
  -22.9070  -10.0810   20.0290 C   0  0  0  0  0  3  0  0  0  0  0  0
  -21.4190   -7.0090   21.3630 O   0  0  0  0  0  0  0  0  0  0  0  0
  -21.2320   -6.3730   22.5640 C   0  0  0  0  0  0  0  0  0  0  0  0
  -20.6660   -7.0330   23.6760 C   0  0  0  0  0  3  0  0  0  0  0  0
  -20.4260   -6.3220   24.8690 C   0  0  0  0  0  3  0  0  0  0  0  0
  -20.7440   -4.9530   24.9500 C   0  0  0  0  0  0  0  0  0  0  0  0
  -21.3040   -4.2930   23.8420 C   0  0  0  0  0  3  0  0  0  0  0  0
  -21.5440   -5.0010   22.6510 C   0  0  0  0  0  0  0  0  0  0  0  0
  -22.0630   -4.3560   21.5790 F   0  0  0  0  0  0  0  0  0  0  0  0
  -20.5080   -4.2680   26.0930 F   0  0  0  0  0  0  0  0  0  0  0  0
  -23.7190  -13.3590   21.5650 C   0  0  0  0  0  0  0  0  0  0  0  0
  -23.1190  -12.6530   22.5160 N   0  0  0  0  0  0  0  0  0  0  0  0
  -23.3820  -14.5180   21.3260 O   0  0  0  0  0  0  0  0  0  0  0  0
  -23.4070  -11.7080   22.7250 H   0  0  0  0  0  0  0  0  0  0  0  0
  -22.3610  -13.0620   23.0430 H   0  0  0  0  0  0  0  0  0  0  0  0
  -26.3220  -14.6800   20.2050 N   0  0  0  0  0  0  0  0  0  0  0  0
  -25.7740  -15.4250   20.6210 H   0  0  0  0  0  0  0  0  0  0  0  0
  -27.1380  -15.0170   19.7110 H   0  0  0  0  0  0  0  0  0  0  0  0
  -33.1200  -15.4870   20.2810 C   0  0  0  0  0  2  0  0  0  0  0  0
  -34.7630  -13.5630   20.6040 C   0  0  0  0  0  1  0  0  0  0  0  0
  -33.3330  -14.0640   20.8350 C   0  0  0  0  0  2  0  0  0  0  0  0
  -29.4790  -22.2390   19.2460 C   0  0  0  0  0  2  0  0  0  0  0  0
  -29.7820  -23.0210   20.5420 C   0  0  0  0  0  2  0  0  0  0  0  0
  -29.8590  -24.5510   20.3790 C   0  0  0  0  0  2  0  0  0  0  0  0
  -28.4930  -25.1990   20.1080 C   0  0  0  0  0  2  0  0  0  0  0  0
  -28.5820  -26.6090   20.2960 O   0  0  0  0  0  0  0  0  0  0  0  0
  -24.6680  -31.8160   23.1310 C   0  0  0  0  0  0  0  0  0  0  0  0
  -27.4020  -27.3170   20.2280 C   0  0  0  0  0  0  0  0  0  0  0  0
  -23.5230  -30.4110   21.4480 C   0  0  0  0  0  3  0  0  0  0  0  0
  -25.0210  -28.8380   20.1200 C   0  0  0  0  0  0  0  0  0  0  0  0
  -26.0600  -30.7370   21.3690 C   0  0  0  0  0  2  0  0  0  0  0  0
  -26.1580  -29.3600   20.7500 C   0  0  0  0  0  0  0  0  0  0  0  0
  -27.3520  -28.6090   20.7960 C   0  0  0  0  0  3  0  0  0  0  0  0
  -26.2420  -26.8010   19.6040 C   0  0  0  0  0  3  0  0  0  0  0  0
  -25.0570  -27.5560   19.5470 C   0  0  0  0  0  3  0  0  0  0  0  0
  -23.7890  -29.7120   20.0910 C   0  0  0  0  0  2  0  0  0  0  0  0
  -24.7660  -31.0040   22.0420 N   0  0  0  0  0  0  0  0  0  0  0  0
  -23.5650  -32.1090   23.6140 O   0  0  0  0  0  0  0  0  0  0  0  0
  -22.8140  -29.4090   22.3880 C   0  0  0  0  0  0  0  0  0  0  0  0
  -21.4800  -29.3160   22.2650 N   0  0  0  0  0  0  0  0  0  0  0  0
  -23.4610  -28.7200   23.1810 O   0  0  0  0  0  0  0  0  0  0  0  0
  -21.0210  -29.9230   21.5990 H   0  0  0  0  0  0  0  0  0  0  0  0
  -18.0310  -28.4010   22.8190 C   0  0  0  0  0  0  0  0  0  0  0  0
  -20.6080  -28.4160   23.0190 C   0  0  0  0  0  3  0  0  0  0  0  0
  -20.5630  -27.0110   22.3750 C   0  0  0  0  0  2  0  0  0  0  0  0
  -19.4100  -26.8400   21.3810 C   0  0  0  0  0  2  0  0  0  0  0  0
  -18.0650  -27.0770   22.0750 C   0  0  0  0  0  2  0  0  0  0  0  0
  -19.2250  -29.0370   23.2480 C   0  0  0  0  0  0  0  0  0  0  0  0
  -19.1380  -30.2860   23.9040 C   0  0  0  0  0  3  0  0  0  0  0  0
  -17.8890  -30.8930   24.1320 C   0  0  0  0  0  3  0  0  0  0  0  0
  -16.7100  -30.2490   23.7190 C   0  0  0  0  0  3  0  0  0  0  0  0
  -16.7820  -29.0050   23.0700 C   0  0  0  0  0  3  0  0  0  0  0  0
  -25.9300  -32.4380   23.8050 C   0  0  0  0  0  3  0  0  0  0  0  0
  -25.5860  -33.8070   24.2120 N   0  0  0  0  0  0  0  0  0  0  0  0
  -25.8960  -34.9080   23.5150 C   0  0  0  0  0  0  0  0  0  0  0  0
  -26.5700  -34.8790   22.4810 O   0  0  0  0  0  0  0  0  0  0  0  0
  -24.9790  -33.9020   25.0130 H   0  0  0  0  0  0  0  0  0  0  0  0
  -24.1300  -36.6780   23.2460 C   0  0  0  0  0  1  0  0  0  0  0  0
  -25.3720  -36.2540   24.0470 C   0  0  0  0  0  3  0  0  0  0  0  0
  -27.4590  -37.1470   24.9800 C   0  0  0  0  0  1  0  0  0  0  0  0
  -26.3820  -37.3340   24.0120 N   0  0  0  0  0  0  0  0  0  0  0  0
  -25.9510  -38.2370   24.1880 H   0  0  0  0  0  0  0  0  0  0  0  0
  -26.4560  -31.6040   25.0390 C   0  0  1  0  0  0  0  0  0  0  0  0
  -25.3650  -31.2980   26.0920 C   0  0  0  0  0  1  0  0  0  0  0  0
  -27.0480  -30.2550   24.5720 C   0  0  0  0  0  1  0  0  0  0  0  0
  -27.6000  -32.3720   25.7430 C   0  0  0  0  0  1  0  0  0  0  0  0
  1  2  1  0
  3  6  1  0
  4  1  1  0
  5  3  1  0
  5  7  1  0
  6  9  1  0
  6  2  1  0
  7  4  1  0
  7  8  1  1
 10 49  1  0
 10  9  1  0
 11 17  1  0
 11 19  1  0
 12 17  1  0
 13 14  1  0
 13 12  1  0
 15 14  1  0
 15 24  1  0
 15 16  1  0
 17 16  1  0
 18 11  2  0
 19 10  1  0
 19 20  1  0
 21 22  2  0
 22 41  1  0
 23 26  1  0
 23 22  1  0
 24 25  1  0
 24 21  1  0
 25 23  2  0
 26 27  1  0
 27 28  2  0
 29 32  1  0
 29 28  1  0
 30 29  2  0
 31 30  1  0
 31 26  2  0
 32 33  1  0
 33 38  2  0
 33 34  1  0
 34 35  2  0
 35 36  1  0
 36 40  1  0
 37 36  2  0
 38 37  1  0
 39 38  1  0
 41 42  1  0
 42 44  1  0
 42 45  1  0
 43 41  2  0
 46 21  1  0
 46 47  1  0
 48 46  1  0
 49 51  1  0
 50 51  1  0
 52  7  1  0
 52 53  1  0
 54 53  1  0
 55 56  1  0
 55 54  1  0
 57 68  2  0
 58 56  1  0
 58 63  1  0
 59 67  1  0
 59 69  1  0
 60 62  1  0
 61 67  1  0
 62 63  2  0
 62 61  1  0
 64 58  2  0
 65 64  1  0
 65 60  2  0
 66 60  1  0
 66 59  1  0
 67 57  1  0
 69 71  2  0
 70 69  1  0
 72 70  1  0
 73 82  2  0
 73 78  1  0
 74 70  1  0
 74 78  1  0
 75 74  1  0
 76 77  1  0
 76 75  1  0
 77 73  1  0
 78 79  2  0
 79 80  1  0
 81 80  2  0
 82 81  1  0
 83 57  1  0
 83 84  1  0
 83 93  1  0
 84 87  1  0
 85 89  1  0
 85 84  1  0
 86 85  2  0
 89 88  1  0
 91 89  1  0
 91 92  1  0
 91 90  1  0
 93 96  1  1
 93 94  1  0
 95 93  1  0
M  ISO  4  11 100  19 100  55 101  56 101
M  END
>  <TORSDO>  (36) 
F 24

>  <SCORE>  (36) 
-7.740

>  <name>  (36) 
36

>  <ligand_id>  (36) 
36

>  <original_smiles>  (36) 
[H]c1c([H])c([H])c2c(c1[H])C([H])([H])C([H])([H])C([H])([H])C2([H])N([H])C(=O)C1([H])N(C(=O)C([H])(N([H])C(=O)C([H])(N([H])C([H])([H])[H])C([H])([H])[H])C(C([H])([H])[H])(C([H])([H])[H])C([H])([H])[H])C([H])([H])c2c([H])c(OC([H])([H])C([H])([H])C([H])([H])C([H])([H])[N+]3([H])C([H])([H])C([H])([H])C([H])([H])C([H])(C([H])([H])C([H])(N([H])C(=O)N4C([H])([H])C([H])([H])C([H])([H])C([H])(n5nc(-c6c([H])c([H])c(Oc7c([H])c([H])c(F)c([H])c7F)c([H])c6[H])c(C(=O)N([H])[H])c5N([H])[H])C4([H])[H])C([H])([H])C([H])([H])C([H])([H])[H])C([H])([H])C3([H])[H])c([H])c([H])c2C1([H])[H]

>  <smiles>  (36) 
[H]c1c([H])c([H])c2c(c1[H])C([H])([H])C([H])([H])C([H])([H])C2([H])N([H])C(=O)C1([H])N(C(=O)C([H])(N([H])C(=O)C([H])(N([H])C([H])([H])[H])C([H])([H])[H])C(C([H])([H])[H])(C([H])([H])[H])C([H])([H])[H])C([H])([H])c2c([H])c(OC([H])([H])C([H])([H])C([H])([H])C([H])([H])[N+]3([H])C([H])([H])C([H])([H])C([H])([H])C([H])(C([H])([H])C([H])(N([H])C(=O)N4C([H])([H])C([H])([H])C([H])([H])C([H])(n5nc(-c6c([H])c([H])c(Oc7c([H])c([H])c(F)c([H])c7F)c([H])c6[H])c(C(=O)N([H])[H])c5N([H])[H])C4([H])[H])C([H])([H])C([H])([H])C([H])([H])[H])C([H])([H])C3([H])[H])c([H])c([H])c2C1([H])[H]

$$$$
37:0:0
     RDKit          3D

 93101  0  0  1  0  0  0  0  0999 V2000
  -29.7690  -21.3600   20.3080 N   0  0  0  0  0  4  0  0  0  0  0  0
  -30.7160  -21.6640   20.4700 H   0  0  0  0  0  0  0  0  0  0  0  0
  -29.3860  -21.1510   21.2150 H   0  0  0  0  0  0  0  0  0  0  0  0
  -29.9180  -20.0770   19.5020 C   0  0  0  0  0  2  0  0  0  0  0  0
  -30.9520  -14.7630   20.1090 C   0  0  0  0  0  0  0  0  0  0  0  0
  -30.6830  -12.4890   19.1720 C   0  0  0  0  0  2  0  0  0  0  0  0
  -29.7450  -12.5750   17.9500 C   0  0  0  0  0  2  0  0  0  0  0  0
  -28.2740  -12.4410   18.3930 C   0  0  0  0  0  2  0  0  0  0  0  0
  -27.9180  -13.3570   19.5960 C   0  0  0  0  0  3  0  0  0  0  0  0
  -28.9850  -13.2860   20.7110 C   0  0  0  0  0  2  0  0  0  0  0  0
  -30.2850  -13.5700   20.0930 N   0  0  0  0  0  0  0  0  0  0  0  0
  -32.1460  -14.8250   19.8030 O   0  0  0  0  0  0  0  0  0  0  0  0
  -29.0870  -17.7200   18.6860 C   0  0  0  0  0  2  0  0  0  0  0  0
  -29.2430  -18.0680   21.1420 C   0  0  0  0  0  2  0  0  0  0  0  0
  -30.2520  -16.7040   18.8290 C   0  0  0  0  0  2  0  0  0  0  0  0
  -30.3300  -16.9270   21.1590 C   0  0  0  0  0  2  0  0  0  0  0  0
  -28.9610  -18.8250   19.7900 C   0  0  1  0  0  0  0  0  0  0  0  0
  -30.1940  -15.9190   20.0820 N   0  0  0  0  0  0  0  0  0  0  0  0
  -25.5480  -13.9700   20.3670 C   0  0  0  0  0  0  0  0  0  0  0  0
  -24.4790  -13.2060   20.7490 C   0  0  0  0  0  0  0  0  0  0  0  0
  -24.9260  -11.8500   20.7030 C   0  0  0  0  0  0  0  0  0  0  0  0
  -26.5780  -13.0810   20.1070 N   0  0  0  0  0  0  0  0  0  0  0  0
  -26.2100  -11.8000   20.3710 N   0  0  0  0  0  0  0  0  0  0  0  0
  -24.1890  -10.5950   20.9010 C   0  0  0  0  0  0  0  0  0  0  0  0
  -24.5900   -9.6440   21.8640 C   0  0  0  0  0  3  0  0  0  0  0  0
  -23.8540   -8.4540   22.0480 C   0  0  0  0  0  3  0  0  0  0  0  0
  -22.7000   -8.2060   21.2660 C   0  0  0  0  0  0  0  0  0  0  0  0
  -22.3180   -9.1450   20.2920 C   0  0  0  0  0  3  0  0  0  0  0  0
  -23.0550  -10.3260   20.1080 C   0  0  0  0  0  3  0  0  0  0  0  0
  -21.9380   -7.0670   21.3560 O   0  0  0  0  0  0  0  0  0  0  0  0
  -21.7850   -6.3950   22.5420 C   0  0  0  0  0  0  0  0  0  0  0  0
  -21.1600   -6.9880   23.6600 C   0  0  0  0  0  3  0  0  0  0  0  0
  -20.9610   -6.2380   24.8370 C   0  0  0  0  0  3  0  0  0  0  0  0
  -21.3790   -4.8940   24.8950 C   0  0  0  0  0  0  0  0  0  0  0  0
  -21.9950   -4.3000   23.7800 C   0  0  0  0  0  3  0  0  0  0  0  0
  -22.1960   -5.0490   22.6070 C   0  0  0  0  0  0  0  0  0  0  0  0
  -22.7740   -4.4640   21.5290 F   0  0  0  0  0  0  0  0  0  0  0  0
  -21.1820   -4.1720   26.0230 F   0  0  0  0  0  0  0  0  0  0  0  0
  -23.0920  -13.6990   21.0450 C   0  0  0  0  0  0  0  0  0  0  0  0
  -22.3910  -13.0420   21.9620 N   0  0  0  0  0  0  0  0  0  0  0  0
  -22.6390  -14.7030   20.4970 O   0  0  0  0  0  0  0  0  0  0  0  0
  -22.7700  -12.2320   22.4290 H   0  0  0  0  0  0  0  0  0  0  0  0
  -21.4600  -13.3540   22.2020 H   0  0  0  0  0  0  0  0  0  0  0  0
  -25.7270  -15.3400   20.1970 N   0  0  0  0  0  0  0  0  0  0  0  0
  -24.9740  -16.0050   20.3310 H   0  0  0  0  0  0  0  0  0  0  0  0
  -26.5900  -15.7710   19.8890 H   0  0  0  0  0  0  0  0  0  0  0  0
  -27.4800  -19.3140   19.7880 C   0  0  0  0  0  2  0  0  0  0  0  0
  -25.5390  -20.4200   18.5400 C   0  0  0  0  0  1  0  0  0  0  0  0
  -26.9130  -19.7490   18.4180 C   0  0  0  0  0  2  0  0  0  0  0  0
  -29.0530  -22.5530   19.7000 C   0  0  0  0  0  2  0  0  0  0  0  0
  -29.3400  -23.9940   20.3230 C   0  0  0  0  0  3  0  0  0  0  0  0
  -28.3460  -25.1390   19.8630 C   0  0  0  0  0  3  0  0  0  0  0  0
  -28.5500  -26.5530   20.2550 O   0  0  0  0  0  0  0  0  0  0  0  0
  -24.6880  -31.8260   23.2880 C   0  0  0  0  0  0  0  0  0  0  0  0
  -27.4390  -27.4080   20.1650 C   0  0  0  0  0  0  0  0  0  0  0  0
  -23.5570  -30.4830   21.5550 C   0  0  0  0  0  3  0  0  0  0  0  0
  -25.0680  -29.0050   20.1230 C   0  0  0  0  0  0  0  0  0  0  0  0
  -26.0980  -30.8250   21.4810 C   0  0  0  0  0  2  0  0  0  0  0  0
  -26.2100  -29.4750   20.7840 C   0  0  0  0  0  0  0  0  0  0  0  0
  -27.4000  -28.6870   20.7990 C   0  0  0  0  0  3  0  0  0  0  0  0
  -26.2770  -27.0030   19.4640 C   0  0  0  0  0  3  0  0  0  0  0  0
  -25.1030  -27.7740   19.4560 C   0  0  0  0  0  3  0  0  0  0  0  0
  -23.8260  -29.8680   20.1580 C   0  0  0  0  0  2  0  0  0  0  0  0
  -24.7970  -31.0590   22.1650 N   0  0  0  0  0  0  0  0  0  0  0  0
  -23.5830  -32.0760   23.7920 O   0  0  0  0  0  0  0  0  0  0  0  0
  -22.8710  -29.4220   22.4500 C   0  0  0  0  0  0  0  0  0  0  0  0
  -21.5500  -29.2490   22.2760 N   0  0  0  0  0  0  0  0  0  0  0  0
  -23.5260  -28.7620   23.2600 O   0  0  0  0  0  0  0  0  0  0  0  0
  -21.0820  -29.8330   21.5980 H   0  0  0  0  0  0  0  0  0  0  0  0
  -18.1520  -28.0680   22.6600 C   0  0  0  0  0  0  0  0  0  0  0  0
  -20.7080  -28.2810   22.9820 C   0  0  0  0  0  3  0  0  0  0  0  0
  -20.8020  -26.8810   22.3320 C   0  0  0  0  0  2  0  0  0  0  0  0
  -19.7140  -26.6270   21.2860 C   0  0  0  0  0  2  0  0  0  0  0  0
  -18.3240  -26.7540   21.9150 C   0  0  0  0  0  2  0  0  0  0  0  0
  -19.2730  -28.7920   23.1460 C   0  0  0  0  0  0  0  0  0  0  0  0
  -19.0590  -30.0240   23.8030 C   0  0  0  0  0  3  0  0  0  0  0  0
  -17.7580  -30.5320   23.9750 C   0  0  0  0  0  3  0  0  0  0  0  0
  -16.6520  -29.8030   23.5050 C   0  0  0  0  0  3  0  0  0  0  0  0
  -16.8490  -28.5730   22.8530 C   0  0  0  0  0  3  0  0  0  0  0  0
  -25.9430  -32.4430   23.9790 C   0  0  0  0  0  3  0  0  0  0  0  0
  -26.3550  -31.6920   25.3050 C   0  0  1  0  0  0  0  0  0  0  0  0
  -25.1840  -31.4920   26.2960 C   0  0  0  0  0  1  0  0  0  0  0  0
  -26.9430  -30.2980   24.9850 C   0  0  0  0  0  1  0  0  0  0  0  0
  -27.4660  -32.4840   26.0320 C   0  0  0  0  0  1  0  0  0  0  0  0
  -25.6450  -33.8560   24.2550 N   0  0  0  0  0  0  0  0  0  0  0  0
  -26.0140  -34.8800   23.4750 C   0  0  0  0  0  0  0  0  0  0  0  0
  -26.7130  -34.7350   22.4670 O   0  0  0  0  0  0  0  0  0  0  0  0
  -25.0330  -34.0430   25.0360 H   0  0  0  0  0  0  0  0  0  0  0  0
  -24.3230  -36.6840   23.0170 C   0  0  0  0  0  1  0  0  0  0  0  0
  -25.5360  -36.2890   23.8750 C   0  0  0  0  0  3  0  0  0  0  0  0
  -27.6430  -37.1880   24.7570 C   0  0  0  0  0  1  0  0  0  0  0  0
  -26.5870  -37.3240   23.7580 N   0  0  0  0  0  0  0  0  0  0  0  0
  -26.1860  -38.2540   23.8410 H   0  0  0  0  0  0  0  0  0  0  0  0
  1  2  1  0
  1  3  1  0
  4  1  1  0
  6 11  1  0
  7  8  1  0
  7  6  1  0
  9  8  1  0
  9 22  1  0
  9 10  1  0
 11  5  1  0
 11 10  1  0
 12  5  2  0
 13 15  1  0
 13 17  1  0
 14 16  1  0
 15 18  1  0
 17  4  1  6
 17 14  1  0
 18  5  1  0
 18 16  1  0
 19 20  2  0
 20 39  1  0
 21 20  1  0
 21 24  1  0
 22 19  1  0
 22 23  1  0
 23 21  2  0
 24 25  1  0
 25 26  2  0
 27 30  1  0
 27 26  1  0
 28 27  2  0
 29 28  1  0
 29 24  2  0
 30 31  1  0
 31 36  2  0
 31 32  1  0
 32 33  2  0
 33 34  1  0
 34 38  1  0
 35 34  2  0
 36 35  1  0
 37 36  1  0
 39 40  1  0
 40 43  1  0
 40 42  1  0
 41 39  2  0
 44 45  1  0
 44 19  1  0
 46 44  1  0
 47 17  1  0
 49 48  1  0
 49 47  1  0
 50  1  1  0
 50 51  1  0
 52 53  1  0
 52 51  2  0
 54 65  2  0
 55 53  1  0
 55 60  1  0
 56 64  1  0
 56 66  1  0
 57 63  1  0
 57 59  1  0
 58 64  1  0
 59 60  2  0
 59 58  1  0
 61 55  2  0
 62 61  1  0
 62 57  2  0
 63 56  1  0
 64 54  1  0
 66 68  2  0
 67 66  1  0
 69 67  1  0
 70 79  2  0
 70 75  1  0
 71 67  1  0
 71 75  1  0
 72 71  1  0
 73 74  1  0
 73 72  1  0
 74 70  1  0
 75 76  2  0
 76 77  1  0
 78 77  2  0
 79 78  1  0
 80 54  1  0
 80 85  1  0
 80 81  1  0
 81 84  1  1
 81 82  1  0
 83 81  1  0
 85 88  1  0
 86 90  1  0
 86 85  1  0
 87 86  2  0
 90 89  1  0
 92 93  1  0
 92 90  1  0
 92 91  1  0
M  ISO  4   5 100  18 100  52 101  53 101
M  END
>  <TORSDO>  (37) 
F 22

>  <SCORE>  (37) 
-12.624

>  <name>  (37) 
37

>  <ligand_id>  (37) 
37

>  <original_smiles>  (37) 
[H]c1c([H])c([H])c2c(c1[H])C([H])([H])C([H])([H])C([H])([H])C2([H])N([H])C(=O)C1([H])N(C(=O)C([H])(N([H])C(=O)C([H])(N([H])C([H])([H])[H])C([H])([H])[H])C(C([H])([H])[H])(C([H])([H])[H])C([H])([H])[H])C([H])([H])c2c([H])c(OC([H])([H])C([H])([H])C([H])([H])[N+]([H])([H])C([H])([H])C3(C([H])([H])C([H])([H])C([H])([H])[H])C([H])([H])C([H])([H])N(C(=O)N4C([H])([H])C([H])([H])C([H])([H])C([H])(n5nc(-c6c([H])c([H])c(Oc7c([H])c([H])c(F)c([H])c7F)c([H])c6[H])c(C(=O)N([H])[H])c5N([H])[H])C4([H])[H])C([H])([H])C3([H])[H])c([H])c([H])c2C1([H])[H]

>  <smiles>  (37) 
[H]c1c([H])c([H])c2c(c1[H])C([H])([H])C([H])([H])C([H])([H])C2([H])N([H])C(=O)C1([H])N(C(=O)C([H])(N([H])C(=O)C([H])(N([H])C([H])([H])[H])C([H])([H])[H])C(C([H])([H])[H])(C([H])([H])[H])C([H])([H])[H])C([H])([H])c2c([H])c(OC([H])([H])C([H])([H])C([H])([H])[N+]([H])([H])C([H])([H])C3(C([H])([H])C([H])([H])C([H])([H])[H])C([H])([H])C([H])([H])N(C(=O)N4C([H])([H])C([H])([H])C([H])([H])C([H])(n5nc(-c6c([H])c([H])c(Oc7c([H])c([H])c(F)c([H])c7F)c([H])c6[H])c(C(=O)N([H])[H])c5N([H])[H])C4([H])[H])C([H])([H])C3([H])[H])c([H])c([H])c2C1([H])[H]

$$$$
38:0:0
     RDKit          3D

 93101  0  0  1  0  0  0  0  0999 V2000
  -30.3720  -20.3690   20.2980 C   0  0  0  0  0  2  0  0  0  0  0  0
  -28.2990  -19.4620   19.2070 C   0  0  0  0  0  2  0  0  0  0  0  0
  -30.3440  -21.5420   19.3040 C   0  0  0  0  0  2  0  0  0  0  0  0
  -28.3220  -20.6570   18.2360 C   0  0  0  0  0  2  0  0  0  0  0  0
  -29.7100  -19.1060   19.7120 C   0  0  0  0  0  3  0  0  0  0  0  0
  -28.9560  -21.8430   18.8670 N   0  0  2  0  0  4  0  0  0  0  0  0
  -28.4190  -22.0330   19.6990 H   0  0  0  0  0  0  0  0  0  0  0  0
  -29.6550  -17.9410   20.7210 C   0  0  0  0  0  2  0  0  0  0  0  0
  -31.0420  -17.4600   21.1840 C   0  0  0  0  0  2  0  0  0  0  0  0
  -31.0080  -16.2320   22.1140 C   0  0  0  0  0  2  0  0  0  0  0  0
  -30.7100  -14.3610   20.4870 C   0  0  0  0  0  0  0  0  0  0  0  0
  -30.2910  -12.3470   19.1300 C   0  0  0  0  0  2  0  0  0  0  0  0
  -29.3230  -12.6290   17.9650 C   0  0  0  0  0  2  0  0  0  0  0  0
  -27.8600  -12.4870   18.4220 C   0  0  0  0  0  2  0  0  0  0  0  0
  -27.5650  -13.2690   19.7280 C   0  0  0  0  0  3  0  0  0  0  0  0
  -28.6330  -12.9630   20.8010 C   0  0  0  0  0  2  0  0  0  0  0  0
  -29.9630  -13.2580   20.2340 N   0  0  0  0  0  0  0  0  0  0  0  0
  -31.7160  -14.6640   19.8360 O   0  0  0  0  0  0  0  0  0  0  0  0
  -30.3120  -15.0820   21.5400 N   0  0  0  0  0  0  0  0  0  0  0  0
  -29.4900  -14.7530   22.0250 H   0  0  0  0  0  0  0  0  0  0  0  0
  -25.1670  -13.8740   20.4530 C   0  0  0  0  0  0  0  0  0  0  0  0
  -24.1060  -13.0980   20.8360 C   0  0  0  0  0  0  0  0  0  0  0  0
  -24.5720  -11.7490   20.8070 C   0  0  0  0  0  0  0  0  0  0  0  0
  -26.2150  -12.9950   20.2190 N   0  0  0  0  0  0  0  0  0  0  0  0
  -25.8580  -11.7120   20.4850 N   0  0  0  0  0  0  0  0  0  0  0  0
  -23.8540  -10.4850   21.0100 C   0  0  0  0  0  0  0  0  0  0  0  0
  -24.3020   -9.5220   21.9410 C   0  0  0  0  0  3  0  0  0  0  0  0
  -23.5840   -8.3210   22.1320 C   0  0  0  0  0  3  0  0  0  0  0  0
  -22.4040   -8.0750   21.3910 C   0  0  0  0  0  0  0  0  0  0  0  0
  -21.9750   -9.0260   20.4490 C   0  0  0  0  0  3  0  0  0  0  0  0
  -22.6930  -10.2180   20.2570 C   0  0  0  0  0  3  0  0  0  0  0  0
  -21.6560   -6.9270   21.4910 O   0  0  0  0  0  0  0  0  0  0  0  0
  -21.6290   -6.1830   22.6430 C   0  0  0  0  0  0  0  0  0  0  0  0
  -21.2290   -6.7360   23.8780 C   0  0  0  0  0  3  0  0  0  0  0  0
  -21.1500   -5.9190   25.0230 C   0  0  0  0  0  3  0  0  0  0  0  0
  -21.4610   -4.5490   24.9340 C   0  0  0  0  0  0  0  0  0  0  0  0
  -21.8540   -3.9950   23.7040 C   0  0  0  0  0  3  0  0  0  0  0  0
  -21.9350   -4.8090   22.5610 C   0  0  0  0  0  0  0  0  0  0  0  0
  -22.2950   -4.2650   21.3730 F   0  0  0  0  0  0  0  0  0  0  0  0
  -21.3770   -3.7610   26.0320 F   0  0  0  0  0  0  0  0  0  0  0  0
  -22.7100  -13.5710   21.1230 C   0  0  0  0  0  0  0  0  0  0  0  0
  -21.9920  -12.8720   21.9960 N   0  0  0  0  0  0  0  0  0  0  0  0
  -22.2620  -14.5940   20.6060 O   0  0  0  0  0  0  0  0  0  0  0  0
  -22.3660  -12.0440   22.4350 H   0  0  0  0  0  0  0  0  0  0  0  0
  -21.0550  -13.1690   22.2290 H   0  0  0  0  0  0  0  0  0  0  0  0
  -25.3270  -15.2440   20.2700 N   0  0  0  0  0  0  0  0  0  0  0  0
  -24.5630  -15.9000   20.3860 H   0  0  0  0  0  0  0  0  0  0  0  0
  -26.1820  -15.6830   19.9510 H   0  0  0  0  0  0  0  0  0  0  0  0
  -28.8470  -23.0670   18.0310 C   0  0  0  0  0  2  0  0  0  0  0  0
  -29.0960  -24.3480   18.8470 C   0  0  0  0  0  2  0  0  0  0  0  0
  -28.8180  -25.6420   18.0700 C   0  0  0  0  0  2  0  0  0  0  0  0
  -29.1200  -26.8900   18.9140 C   0  0  0  0  0  2  0  0  0  0  0  0
  -28.4400  -26.8420   20.1670 O   0  0  0  0  0  0  0  0  0  0  0  0
  -24.5880  -31.9440   23.2630 C   0  0  0  0  0  0  0  0  0  0  0  0
  -27.2560  -27.5280   20.1980 C   0  0  0  0  0  0  0  0  0  0  0  0
  -23.3850  -30.5260   21.6290 C   0  0  0  0  0  3  0  0  0  0  0  0
  -24.8440  -28.9820   20.2200 C   0  0  0  0  0  0  0  0  0  0  0  0
  -25.9060  -30.8980   21.4300 C   0  0  0  0  0  2  0  0  0  0  0  0
  -25.9960  -29.5250   20.8040 C   0  0  0  0  0  0  0  0  0  0  0  0
  -27.2040  -28.8000   20.8010 C   0  0  0  0  0  3  0  0  0  0  0  0
  -26.0870  -26.9730   19.6380 C   0  0  0  0  0  3  0  0  0  0  0  0
  -24.8800  -27.7000   19.6430 C   0  0  0  0  0  3  0  0  0  0  0  0
  -23.5970  -29.8330   20.2560 C   0  0  0  0  0  2  0  0  0  0  0  0
  -24.6450  -31.1380   22.1650 N   0  0  0  0  0  0  0  0  0  0  0  0
  -23.5070  -32.2180   23.8010 O   0  0  0  0  0  0  0  0  0  0  0  0
  -22.7390  -29.5100   22.5970 C   0  0  0  0  0  0  0  0  0  0  0  0
  -21.4160  -29.3230   22.4680 N   0  0  0  0  0  0  0  0  0  0  0  0
  -23.4240  -28.8930   23.4170 O   0  0  0  0  0  0  0  0  0  0  0  0
  -20.9260  -29.8730   21.7770 H   0  0  0  0  0  0  0  0  0  0  0  0
  -18.0430  -28.1280   22.9630 C   0  0  0  0  0  0  0  0  0  0  0  0
  -20.5990  -28.3890   23.2430 C   0  0  0  0  0  3  0  0  0  0  0  0
  -20.7050  -26.9540   22.6760 C   0  0  0  0  0  2  0  0  0  0  0  0
  -19.6060  -26.6240   21.6610 C   0  0  0  0  0  2  0  0  0  0  0  0
  -18.2230  -26.7740   22.3000 C   0  0  0  0  0  2  0  0  0  0  0  0
  -19.1600  -28.8940   23.3920 C   0  0  0  0  0  0  0  0  0  0  0  0
  -18.9390  -30.1620   23.9710 C   0  0  0  0  0  3  0  0  0  0  0  0
  -17.6330  -30.6660   24.1260 C   0  0  0  0  0  3  0  0  0  0  0  0
  -16.5310  -29.8970   23.7150 C   0  0  0  0  0  3  0  0  0  0  0  0
  -16.7360  -28.6300   23.1390 C   0  0  0  0  0  3  0  0  0  0  0  0
  -25.8750  -32.5800   23.8780 C   0  0  0  0  0  3  0  0  0  0  0  0
  -25.5650  -33.9790   24.1980 N   0  0  0  0  0  0  0  0  0  0  0  0
  -25.9040  -35.0260   23.4340 C   0  0  0  0  0  0  0  0  0  0  0  0
  -26.5830  -34.9160   22.4090 O   0  0  0  0  0  0  0  0  0  0  0  0
  -24.9600  -34.1380   24.9900 H   0  0  0  0  0  0  0  0  0  0  0  0
  -24.1800  -36.8160   23.0520 C   0  0  0  0  0  1  0  0  0  0  0  0
  -25.4120  -36.4160   23.8780 C   0  0  0  0  0  3  0  0  0  0  0  0
  -27.5400  -37.3030   24.7240 C   0  0  0  0  0  1  0  0  0  0  0  0
  -26.4470  -37.4690   23.7700 N   0  0  0  0  0  0  0  0  0  0  0  0
  -26.0390  -38.3890   23.9110 H   0  0  0  0  0  0  0  0  0  0  0  0
  -26.3970  -31.8150   25.1560 C   0  0  1  0  0  0  0  0  0  0  0  0
  -25.3060  -31.5790   26.2270 C   0  0  0  0  0  1  0  0  0  0  0  0
  -26.9830  -30.4380   24.7670 C   0  0  0  0  0  1  0  0  0  0  0  0
  -27.5450  -32.6170   25.8150 C   0  0  0  0  0  1  0  0  0  0  0  0
  2  5  1  0
  3  1  1  0
  4  6  1  0
  4  2  1  0
  5  1  1  0
  5  8  1  0
  6  3  1  0
  6  7  1  1
  8  9  1  0
  9 10  1  0
 11 19  1  0
 12 17  1  0
 13 14  1  0
 13 12  1  0
 15 14  1  0
 15 24  1  0
 15 16  1  0
 17 11  1  0
 17 16  1  0
 18 11  2  0
 19 20  1  0
 19 10  1  0
 21 22  2  0
 22 41  1  0
 23 22  1  0
 23 26  1  0
 24 21  1  0
 24 25  1  0
 25 23  2  0
 26 27  1  0
 27 28  2  0
 29 32  1  0
 29 28  1  0
 30 29  2  0
 31 30  1  0
 31 26  2  0
 32 33  1  0
 33 34  1  0
 34 35  2  0
 36 35  1  0
 36 40  1  0
 37 36  2  0
 38 33  2  0
 38 37  1  0
 39 38  1  0
 41 42  1  0
 42 45  1  0
 42 44  1  0
 43 41  2  0
 46 47  1  0
 46 21  1  0
 48 46  1  0
 49 50  1  0
 49  6  1  0
 51 50  1  0
 51 52  1  0
 52 53  1  0
 53 55  1  0
 54 65  2  0
 55 60  1  0
 56 64  1  0
 56 66  1  0
 57 63  1  0
 57 59  1  0
 58 64  1  0
 59 58  1  0
 60 59  2  0
 61 62  1  0
 61 55  2  0
 62 57  2  0
 63 56  1  0
 64 54  1  0
 66 68  2  0
 67 66  1  0
 69 67  1  0
 70 79  2  0
 70 75  1  0
 71 67  1  0
 71 75  1  0
 72 71  1  0
 73 74  1  0
 73 72  1  0
 74 70  1  0
 75 76  2  0
 76 77  1  0
 78 77  2  0
 79 78  1  0
 80 54  1  0
 80 81  1  0
 80 90  1  0
 81 84  1  0
 82 86  1  0
 82 81  1  0
 83 82  2  0
 86 85  1  0
 88 86  1  0
 88 89  1  0
 88 87  1  0
 90 93  1  1
 90 91  1  0
 92 90  1  0
M  ISO  4  11 100  19 100  52 101  53 101
M  END
>  <TORSDO>  (38) 
F 23

>  <SCORE>  (38) 
-12.841

>  <name>  (38) 
38

>  <ligand_id>  (38) 
38

>  <original_smiles>  (38) 
[H]c1c([H])c([H])c2c(c1[H])C([H])([H])C([H])([H])C([H])([H])C2([H])N([H])C(=O)C1([H])N(C(=O)C([H])(N([H])C(=O)C([H])(N([H])C([H])([H])[H])C([H])([H])[H])C(C([H])([H])[H])(C([H])([H])[H])C([H])([H])[H])C([H])([H])c2c([H])c(OC([H])([H])C([H])([H])C([H])([H])C([H])([H])[N+]3([H])C([H])([H])C([H])([H])C([H])(C([H])([H])C([H])([H])C([H])([H])N([H])C(=O)N4C([H])([H])C([H])([H])C([H])([H])C([H])(n5nc(-c6c([H])c([H])c(Oc7c([H])c([H])c(F)c([H])c7F)c([H])c6[H])c(C(=O)N([H])[H])c5N([H])[H])C4([H])[H])C([H])([H])C3([H])[H])c([H])c([H])c2C1([H])[H]

>  <smiles>  (38) 
[H]c1c([H])c([H])c2c(c1[H])C([H])([H])C([H])([H])C([H])([H])C2([H])N([H])C(=O)C1([H])N(C(=O)C([H])(N([H])C(=O)C([H])(N([H])C([H])([H])[H])C([H])([H])[H])C(C([H])([H])[H])(C([H])([H])[H])C([H])([H])[H])C([H])([H])c2c([H])c(OC([H])([H])C([H])([H])C([H])([H])C([H])([H])[N+]3([H])C([H])([H])C([H])([H])C([H])(C([H])([H])C([H])([H])C([H])([H])N([H])C(=O)N4C([H])([H])C([H])([H])C([H])([H])C([H])(n5nc(-c6c([H])c([H])c(Oc7c([H])c([H])c(F)c([H])c7F)c([H])c6[H])c(C(=O)N([H])[H])c5N([H])[H])C4([H])[H])C([H])([H])C3([H])[H])c([H])c([H])c2C1([H])[H]

$$$$
39:0:0
     RDKit          3D

 93101  0  0  1  0  0  0  0  0999 V2000
  -30.6520  -22.8300   22.0290 N   0  0  0  0  0  4  0  0  0  0  0  0
  -31.2000  -22.5330   21.2380 H   0  0  0  0  0  0  0  0  0  0  0  0
  -31.2040  -23.5080   22.5310 H   0  0  0  0  0  0  0  0  0  0  0  0
  -30.4040  -21.6820   22.9320 C   0  0  0  0  0  2  0  0  0  0  0  0
  -31.4060  -20.5300   22.7230 C   0  0  0  0  0  2  0  0  0  0  0  0
  -30.7940  -16.5800   21.2470 C   0  0  0  0  0  0  0  0  0  0  0  0
  -32.2720  -18.6950   21.1550 C   0  0  0  0  0  0  0  0  0  0  0  0
  -31.9440  -17.3290   20.5410 C   0  0  0  0  0  2  0  0  0  0  0  0
  -29.9250  -17.4410   22.1590 C   0  0  0  0  0  2  0  0  0  0  0  0
  -29.7650  -18.8700   21.6090 C   0  0  0  0  0  2  0  0  0  0  0  0
  -31.1030  -19.6430   21.4850 C   0  0  0  0  0  3  0  0  0  0  0  0
  -30.4660  -15.3450   21.1260 N   0  0  0  0  0  0  0  0  0  0  0  0
  -33.4470  -19.0460   21.3180 O   0  0  0  0  0  0  0  0  0  0  0  0
  -31.0920  -14.4640   20.2480 C   0  0  0  0  0  0  0  0  0  0  0  0
  -30.7210  -12.3650   18.9890 C   0  0  0  0  0  2  0  0  0  0  0  0
  -29.7600  -12.6170   17.8100 C   0  0  0  0  0  2  0  0  0  0  0  0
  -28.2890  -12.5020   18.2590 C   0  0  0  0  0  2  0  0  0  0  0  0
  -27.9920  -13.3140   19.5460 C   0  0  0  0  0  3  0  0  0  0  0  0
  -29.0530  -13.0170   20.6260 C   0  0  0  0  0  2  0  0  0  0  0  0
  -30.3810  -13.3210   20.0520 N   0  0  0  0  0  0  0  0  0  0  0  0
  -32.1420  -14.6660   19.6330 O   0  0  0  0  0  0  0  0  0  0  0  0
  -25.6000  -13.9670   20.2500 C   0  0  0  0  0  0  0  0  0  0  0  0
  -24.5270  -13.2100   20.6420 C   0  0  0  0  0  0  0  0  0  0  0  0
  -24.9750  -11.8540   20.6360 C   0  0  0  0  0  0  0  0  0  0  0  0
  -26.6350  -13.0690   20.0340 N   0  0  0  0  0  0  0  0  0  0  0  0
  -26.2620  -11.7950   20.3190 N   0  0  0  0  0  0  0  0  0  0  0  0
  -24.2380  -10.6030   20.8600 C   0  0  0  0  0  0  0  0  0  0  0  0
  -24.6230   -9.6890   21.8660 C   0  0  0  0  0  3  0  0  0  0  0  0
  -23.8890   -8.5010   22.0750 C   0  0  0  0  0  3  0  0  0  0  0  0
  -22.7560   -8.2170   21.2740 C   0  0  0  0  0  0  0  0  0  0  0  0
  -22.3900   -9.1190   20.2590 C   0  0  0  0  0  3  0  0  0  0  0  0
  -23.1260  -10.2980   20.0500 C   0  0  0  0  0  3  0  0  0  0  0  0
  -22.0000   -7.0750   21.3860 O   0  0  0  0  0  0  0  0  0  0  0  0
  -21.8210   -6.4450   22.5910 C   0  0  0  0  0  0  0  0  0  0  0  0
  -21.2570   -7.1080   23.7020 C   0  0  0  0  0  3  0  0  0  0  0  0
  -21.0270   -6.4020   24.9010 C   0  0  0  0  0  3  0  0  0  0  0  0
  -21.3540   -5.0360   24.9870 C   0  0  0  0  0  0  0  0  0  0  0  0
  -21.9130   -4.3730   23.8820 C   0  0  0  0  0  3  0  0  0  0  0  0
  -22.1450   -5.0760   22.6860 C   0  0  0  0  0  0  0  0  0  0  0  0
  -22.6630   -4.4270   21.6150 F   0  0  0  0  0  0  0  0  0  0  0  0
  -21.1280   -4.3560   26.1370 F   0  0  0  0  0  0  0  0  0  0  0  0
  -23.1360  -13.7050   20.9190 C   0  0  0  0  0  0  0  0  0  0  0  0
  -22.4180  -13.0390   21.8170 N   0  0  0  0  0  0  0  0  0  0  0  0
  -22.6980  -14.7170   20.3750 O   0  0  0  0  0  0  0  0  0  0  0  0
  -22.7870  -12.2210   22.2780 H   0  0  0  0  0  0  0  0  0  0  0  0
  -21.4840  -13.3530   22.0450 H   0  0  0  0  0  0  0  0  0  0  0  0
  -25.7800  -15.3300   20.0450 N   0  0  0  0  0  0  0  0  0  0  0  0
  -25.0330  -16.0070   20.1550 H   0  0  0  0  0  0  0  0  0  0  0  0
  -26.6530  -15.7470   19.7470 H   0  0  0  0  0  0  0  0  0  0  0  0
  -29.4130  -23.4700   21.5350 C   0  0  0  0  0  2  0  0  0  0  0  0
  -29.6590  -24.8080   20.8150 C   0  0  0  0  0  2  0  0  0  0  0  0
  -28.3380  -25.3960   20.2890 C   0  0  0  0  0  2  0  0  0  0  0  0
  -28.4380  -26.8120   20.1740 O   0  0  0  0  0  0  0  0  0  0  0  0
  -24.6680  -31.9390   23.3010 C   0  0  0  0  0  0  0  0  0  0  0  0
  -27.2500  -27.5090   20.1790 C   0  0  0  0  0  0  0  0  0  0  0  0
  -23.4290  -30.5520   21.6690 C   0  0  0  0  0  3  0  0  0  0  0  0
  -24.8560  -29.0090   20.2240 C   0  0  0  0  0  0  0  0  0  0  0  0
  -25.9530  -30.9010   21.4380 C   0  0  0  0  0  2  0  0  0  0  0  0
  -26.0210  -29.5310   20.7990 C   0  0  0  0  0  0  0  0  0  0  0  0
  -27.2200  -28.7900   20.7690 C   0  0  0  0  0  3  0  0  0  0  0  0
  -26.0650  -26.9930   19.6010 C   0  0  0  0  0  3  0  0  0  0  0  0
  -24.8700  -27.7380   19.6230 C   0  0  0  0  0  3  0  0  0  0  0  0
  -23.6180  -29.8750   20.2850 C   0  0  0  0  0  2  0  0  0  0  0  0
  -24.7010  -31.1440   22.1950 N   0  0  0  0  0  0  0  0  0  0  0  0
  -23.5960  -32.2160   23.8580 O   0  0  0  0  0  0  0  0  0  0  0  0
  -22.7840  -29.5300   22.6360 C   0  0  0  0  0  0  0  0  0  0  0  0
  -21.4670  -29.3140   22.4860 N   0  0  0  0  0  0  0  0  0  0  0  0
  -23.4660  -28.9370   23.4770 O   0  0  0  0  0  0  0  0  0  0  0  0
  -20.9770  -29.8510   21.7850 H   0  0  0  0  0  0  0  0  0  0  0  0
  -18.1260  -27.9930   22.8760 C   0  0  0  0  0  0  0  0  0  0  0  0
  -20.6570  -28.3700   23.2570 C   0  0  0  0  0  3  0  0  0  0  0  0
  -20.8430  -26.9230   22.7430 C   0  0  0  0  0  2  0  0  0  0  0  0
  -19.8040  -26.5160   21.6930 C   0  0  0  0  0  2  0  0  0  0  0  0
  -18.3890  -26.6260   22.2670 C   0  0  0  0  0  2  0  0  0  0  0  0
  -19.1910  -28.8170   23.3280 C   0  0  0  0  0  0  0  0  0  0  0  0
  -18.8950  -30.0940   23.8520 C   0  0  0  0  0  3  0  0  0  0  0  0
  -17.5650  -30.5440   23.9390 C   0  0  0  0  0  3  0  0  0  0  0  0
  -16.5130  -29.7180   23.5060 C   0  0  0  0  0  3  0  0  0  0  0  0
  -16.7950  -28.4460   22.9790 C   0  0  0  0  0  3  0  0  0  0  0  0
  -25.9660  -32.5580   23.9090 C   0  0  0  0  0  3  0  0  0  0  0  0
  -25.6700  -33.9530   24.2550 N   0  0  0  0  0  0  0  0  0  0  0  0
  -26.0270  -35.0120   23.5150 C   0  0  0  0  0  0  0  0  0  0  0  0
  -26.7120  -34.9130   22.4920 O   0  0  0  0  0  0  0  0  0  0  0  0
  -25.0670  -34.1050   25.0500 H   0  0  0  0  0  0  0  0  0  0  0  0
  -24.3380  -36.8360   23.1410 C   0  0  0  0  0  1  0  0  0  0  0  0
  -25.5470  -36.3990   23.9830 C   0  0  0  0  0  3  0  0  0  0  0  0
  -27.6700  -37.2310   24.8910 C   0  0  0  0  0  1  0  0  0  0  0  0
  -26.5990  -37.4380   23.9200 N   0  0  0  0  0  0  0  0  0  0  0  0
  -26.2030  -38.3630   24.0730 H   0  0  0  0  0  0  0  0  0  0  0  0
  -26.5000  -31.7720   25.1700 C   0  0  1  0  0  0  0  0  0  0  0  0
  -25.4240  -31.5300   26.2540 C   0  0  0  0  0  1  0  0  0  0  0  0
  -27.0740  -30.3990   24.7520 C   0  0  0  0  0  1  0  0  0  0  0  0
  -27.6620  -32.5600   25.8210 C   0  0  0  0  0  1  0  0  0  0  0  0
  1  3  1  0
  1  4  1  0
  2  1  1  0
  5  4  1  0
  6  9  1  0
  7 13  2  0
  7 11  1  0
  8  7  1  0
  8  6  1  0
 10  9  1  0
 11 10  1  0
 11  5  1  0
 12  6  2  0
 14 12  1  0
 15 20  1  0
 16 17  1  0
 16 15  1  0
 18 17  1  0
 18 25  1  0
 18 19  1  0
 20 14  1  0
 20 19  1  0
 21 14  2  0
 22 23  2  0
 23 42  1  0
 24 23  1  0
 24 27  1  0
 25 22  1  0
 25 26  1  0
 26 24  2  0
 27 28  1  0
 28 29  2  0
 30 33  1  0
 30 29  1  0
 31 30  2  0
 32 31  1  0
 32 27  2  0
 33 34  1  0
 34 39  2  0
 34 35  1  0
 35 36  2  0
 36 37  1  0
 37 41  1  0
 38 37  2  0
 39 38  1  0
 40 39  1  0
 42 43  1  0
 43 46  1  0
 43 45  1  0
 44 42  2  0
 47 48  1  0
 47 22  1  0
 49 47  1  0
 50  1  1  0
 51 50  1  0
 52 51  1  0
 53 55  1  0
 53 52  1  0
 54 65  2  0
 55 60  1  0
 56 64  1  0
 56 66  1  0
 57 63  1  0
 57 59  1  0
 58 64  1  0
 59 58  1  0
 60 59  2  0
 61 62  1  0
 61 55  2  0
 62 57  2  0
 63 56  1  0
 64 54  1  0
 66 68  2  0
 67 66  1  0
 69 67  1  0
 70 79  2  0
 70 75  1  0
 71 67  1  0
 71 75  1  0
 72 71  1  0
 73 74  1  0
 73 72  1  0
 74 70  1  0
 75 76  2  0
 76 77  1  0
 78 77  2  0
 79 78  1  0
 80 54  1  0
 80 81  1  0
 80 90  1  0
 81 84  1  0
 82 86  1  0
 82 81  1  0
 83 82  2  0
 86 85  1  0
 88 86  1  0
 88 89  1  0
 88 87  1  0
 90 93  1  1
 90 91  1  0
 92 90  1  0
M  ISO  4  12 100  14 100  52 101  53 101
M  END
>  <TORSDO>  (39) 
F 22

>  <SCORE>  (39) 
-12.706

>  <name>  (39) 
39

>  <ligand_id>  (39) 
39

>  <original_smiles>  (39) 
[H]c1c([H])c([H])c2c(c1[H])C([H])([H])C([H])([H])C([H])([H])C2([H])N([H])C(=O)C1([H])N(C(=O)C([H])(N([H])C(=O)C([H])(N([H])C([H])([H])[H])C([H])([H])[H])C(C([H])([H])[H])(C([H])([H])[H])C([H])([H])[H])C([H])([H])c2c([H])c(OC([H])([H])C([H])([H])C([H])([H])[N+]([H])([H])C([H])([H])C([H])([H])C3([H])C(=O)C([H])([H])C(=NC(=O)N4C([H])([H])C([H])([H])C([H])([H])C([H])(n5nc(-c6c([H])c([H])c(Oc7c([H])c([H])c(F)c([H])c7F)c([H])c6[H])c(C(=O)N([H])[H])c5N([H])[H])C4([H])[H])C([H])([H])C3([H])[H])c([H])c([H])c2C1([H])[H]

>  <smiles>  (39) 
[H]c1c([H])c([H])c2c(c1[H])C([H])([H])C([H])([H])C([H])([H])C2([H])N([H])C(=O)C1([H])N(C(=O)C([H])(N([H])C(=O)C([H])(N([H])C([H])([H])[H])C([H])([H])[H])C(C([H])([H])[H])(C([H])([H])[H])C([H])([H])[H])C([H])([H])c2c([H])c(OC([H])([H])C([H])([H])C([H])([H])[N+]([H])([H])C([H])([H])C([H])([H])C3([H])C(=O)C([H])([H])C(=NC(=O)N4C([H])([H])C([H])([H])C([H])([H])C([H])(n5nc(-c6c([H])c([H])c(Oc7c([H])c([H])c(F)c([H])c7F)c([H])c6[H])c(C(=O)N([H])[H])c5N([H])[H])C4([H])[H])C([H])([H])C3([H])[H])c([H])c([H])c2C1([H])[H]

$$$$
40:0:0
     RDKit          3D

 91 99  0  0  1  0  0  0  0  0999 V2000
  -29.0950  -20.6940   21.1040 C   0  0  0  0  0  2  0  0  0  0  0  0
  -27.6330  -21.0380   19.0630 C   0  0  0  0  0  2  0  0  0  0  0  0
  -28.7860  -22.1310   21.5480 C   0  0  0  0  0  2  0  0  0  0  0  0
  -27.3500  -22.4780   19.5220 C   0  0  0  0  0  2  0  0  0  0  0  0
  -27.9750  -20.0890   20.2310 C   0  0  0  0  0  3  0  0  0  0  0  0
  -28.5270  -23.0440   20.3380 C   0  0  0  0  0  3  0  0  0  0  0  0
  -28.3230  -18.6910   19.6750 C   0  0  0  0  0  2  0  0  0  0  0  0
  -28.8180  -17.6580   20.7050 C   0  0  0  0  0  2  0  0  0  0  0  0
  -30.3580  -17.5590   20.7830 C   0  0  0  0  0  2  0  0  0  0  0  0
  -30.8620  -16.4900   21.7660 C   0  0  0  0  0  2  0  0  0  0  0  0
  -30.8180  -14.3720   20.4520 C   0  0  0  0  0  0  0  0  0  0  0  0
  -30.4210  -12.3060   19.1670 C   0  0  0  0  0  2  0  0  0  0  0  0
  -29.4690  -12.5670   17.9840 C   0  0  0  0  0  2  0  0  0  0  0  0
  -27.9980  -12.4460   18.4270 C   0  0  0  0  0  2  0  0  0  0  0  0
  -27.6940  -13.2680   19.7070 C   0  0  0  0  0  3  0  0  0  0  0  0
  -28.7470  -12.9770   20.7990 C   0  0  0  0  0  2  0  0  0  0  0  0
  -30.0870  -13.2490   20.2420 N   0  0  0  0  0  0  0  0  0  0  0  0
  -31.8340  -14.6570   19.8090 O   0  0  0  0  0  0  0  0  0  0  0  0
  -30.3570  -15.1640   21.4260 N   0  0  0  0  0  0  0  0  0  0  0  0
  -29.5440  -14.8350   21.9270 H   0  0  0  0  0  0  0  0  0  0  0  0
  -25.3020  -13.9170   20.4140 C   0  0  0  0  0  0  0  0  0  0  0  0
  -24.2250  -13.1620   20.7960 C   0  0  0  0  0  0  0  0  0  0  0  0
  -24.6690  -11.8040   20.7760 C   0  0  0  0  0  0  0  0  0  0  0  0
  -26.3360  -13.0200   20.1890 N   0  0  0  0  0  0  0  0  0  0  0  0
  -25.9560  -11.7450   20.4610 N   0  0  0  0  0  0  0  0  0  0  0  0
  -23.9290  -10.5530   20.9830 C   0  0  0  0  0  0  0  0  0  0  0  0
  -24.3640   -9.5840   21.9120 C   0  0  0  0  0  3  0  0  0  0  0  0
  -23.6260   -8.3960   22.1070 C   0  0  0  0  0  3  0  0  0  0  0  0
  -22.4390   -8.1690   21.3710 C   0  0  0  0  0  0  0  0  0  0  0  0
  -22.0230   -9.1270   20.4280 C   0  0  0  0  0  3  0  0  0  0  0  0
  -22.7620  -10.3060   20.2330 C   0  0  0  0  0  3  0  0  0  0  0  0
  -21.6720   -7.0340   21.4740 O   0  0  0  0  0  0  0  0  0  0  0  0
  -21.6370   -6.2910   22.6270 C   0  0  0  0  0  0  0  0  0  0  0  0
  -21.2600   -6.8540   23.8650 C   0  0  0  0  0  3  0  0  0  0  0  0
  -21.1710   -6.0390   25.0110 C   0  0  0  0  0  3  0  0  0  0  0  0
  -21.4470   -4.6620   24.9190 C   0  0  0  0  0  0  0  0  0  0  0  0
  -21.8180   -4.0980   23.6850 C   0  0  0  0  0  3  0  0  0  0  0  0
  -21.9090   -4.9110   22.5420 C   0  0  0  0  0  0  0  0  0  0  0  0
  -22.2450   -4.3590   21.3510 F   0  0  0  0  0  0  0  0  0  0  0  0
  -21.3540   -3.8770   26.0170 F   0  0  0  0  0  0  0  0  0  0  0  0
  -22.8340  -13.6580   21.0720 C   0  0  0  0  0  0  0  0  0  0  0  0
  -22.1050  -12.9810   21.9500 N   0  0  0  0  0  0  0  0  0  0  0  0
  -22.4050  -14.6830   20.5440 O   0  0  0  0  0  0  0  0  0  0  0  0
  -22.4640  -12.1510   22.3990 H   0  0  0  0  0  0  0  0  0  0  0  0
  -21.1720  -13.2950   22.1760 H   0  0  0  0  0  0  0  0  0  0  0  0
  -25.4820  -15.2840   20.2230 N   0  0  0  0  0  0  0  0  0  0  0  0
  -24.7270  -15.9510   20.3330 H   0  0  0  0  0  0  0  0  0  0  0  0
  -26.3430  -15.7090   19.9000 H   0  0  0  0  0  0  0  0  0  0  0  0
  -28.2930  -24.5070   20.7660 C   0  0  0  0  0  2  0  0  0  0  0  0
  -28.6360  -25.5240   19.6630 C   0  0  0  0  0  2  0  0  0  0  0  0
  -28.5040  -26.8520   20.1640 O   0  0  0  0  0  0  0  0  0  0  0  0
  -24.5880  -31.9050   23.2360 C   0  0  0  0  0  0  0  0  0  0  0  0
  -27.2790  -27.4840   20.1750 C   0  0  0  0  0  0  0  0  0  0  0  0
  -23.3950  -30.4900   21.5930 C   0  0  0  0  0  3  0  0  0  0  0  0
  -24.8630  -28.9550   20.1850 C   0  0  0  0  0  0  0  0  0  0  0  0
  -25.9160  -30.8680   21.4020 C   0  0  0  0  0  2  0  0  0  0  0  0
  -26.0110  -29.4930   20.7750 C   0  0  0  0  0  0  0  0  0  0  0  0
  -27.2180  -28.7620   20.7710 C   0  0  0  0  0  3  0  0  0  0  0  0
  -26.1040  -26.9430   19.6010 C   0  0  0  0  0  3  0  0  0  0  0  0
  -24.9020  -27.6780   19.6010 C   0  0  0  0  0  3  0  0  0  0  0  0
  -23.6110  -29.8010   20.2190 C   0  0  0  0  0  2  0  0  0  0  0  0
  -24.6510  -31.1030   22.1360 N   0  0  0  0  0  0  0  0  0  0  0  0
  -23.5040  -32.1750   23.7710 O   0  0  0  0  0  0  0  0  0  0  0  0
  -22.7480  -29.4700   22.5570 C   0  0  0  0  0  0  0  0  0  0  0  0
  -21.4240  -29.2850   22.4300 N   0  0  0  0  0  0  0  0  0  0  0  0
  -23.4350  -28.8480   23.3720 O   0  0  0  0  0  0  0  0  0  0  0  0
  -20.9330  -29.8370   21.7430 H   0  0  0  0  0  0  0  0  0  0  0  0
  -18.0530  -28.0870   22.9280 C   0  0  0  0  0  0  0  0  0  0  0  0
  -20.6100  -28.3450   23.2010 C   0  0  0  0  0  3  0  0  0  0  0  0
  -20.7130  -26.9140   22.6240 C   0  0  0  0  0  2  0  0  0  0  0  0
  -19.6110  -26.5910   21.6090 C   0  0  0  0  0  2  0  0  0  0  0  0
  -18.2290  -26.7380   22.2540 C   0  0  0  0  0  2  0  0  0  0  0  0
  -19.1710  -28.8480   23.3590 C   0  0  0  0  0  0  0  0  0  0  0  0
  -18.9530  -30.1130   23.9480 C   0  0  0  0  0  3  0  0  0  0  0  0
  -17.6490  -30.6170   24.1100 C   0  0  0  0  0  3  0  0  0  0  0  0
  -16.5450  -29.8510   23.6970 C   0  0  0  0  0  3  0  0  0  0  0  0
  -16.7470  -28.5890   23.1120 C   0  0  0  0  0  3  0  0  0  0  0  0
  -25.8680  -32.5450   23.8570 C   0  0  0  0  0  3  0  0  0  0  0  0
  -25.5510  -33.9400   24.1840 N   0  0  0  0  0  0  0  0  0  0  0  0
  -25.8810  -34.9930   23.4230 C   0  0  0  0  0  0  0  0  0  0  0  0
  -26.5550  -34.8920   22.3940 O   0  0  0  0  0  0  0  0  0  0  0  0
  -24.9500  -34.0920   24.9800 H   0  0  0  0  0  0  0  0  0  0  0  0
  -24.1390  -36.7700   23.0570 C   0  0  0  0  0  1  0  0  0  0  0  0
  -25.3800  -36.3770   23.8750 C   0  0  0  0  0  3  0  0  0  0  0  0
  -27.5110  -37.2750   24.7020 C   0  0  0  0  0  1  0  0  0  0  0  0
  -26.4030  -37.4390   23.7650 N   0  0  0  0  0  0  0  0  0  0  0  0
  -25.9890  -38.3550   23.9210 H   0  0  0  0  0  0  0  0  0  0  0  0
  -26.3910  -31.7770   25.1330 C   0  0  1  0  0  0  0  0  0  0  0  0
  -25.3010  -31.5350   26.2030 C   0  0  0  0  0  1  0  0  0  0  0  0
  -26.9830  -30.4030   24.7370 C   0  0  0  0  0  1  0  0  0  0  0  0
  -27.5340  -32.5820   25.7940 C   0  0  0  0  0  1  0  0  0  0  0  0
  1  3  1  0
  2  4  1  0
  2  5  1  0
  4  6  1  0
  5  7  1  0
  5  1  1  0
  6 49  1  0
  6  3  1  0
  7  8  1  0
  8  9  1  0
  9 10  1  0
 11 19  1  0
 12 17  1  0
 13 14  1  0
 13 12  1  0
 15 14  1  0
 15 24  1  0
 15 16  1  0
 17 11  1  0
 17 16  1  0
 18 11  2  0
 19 10  1  0
 19 20  1  0
 21 22  2  0
 22 41  1  0
 23 22  1  0
 23 26  1  0
 24 21  1  0
 24 25  1  0
 25 23  2  0
 26 27  1  0
 27 28  2  0
 29 32  1  0
 29 28  1  0
 30 29  2  0
 31 30  1  0
 31 26  2  0
 32 33  1  0
 33 34  1  0
 34 35  2  0
 36 35  1  0
 36 40  1  0
 37 36  2  0
 38 33  2  0
 38 37  1  0
 39 38  1  0
 41 42  1  0
 42 45  1  0
 42 44  1  0
 43 41  2  0
 46 47  1  0
 46 21  1  0
 48 46  1  0
 50 51  1  0
 50 49  1  0
 51 53  1  0
 52 63  2  0
 53 58  1  0
 54 62  1  0
 54 64  1  0
 55 61  1  0
 55 57  1  0
 56 62  1  0
 57 56  1  0
 58 57  2  0
 59 53  2  0
 60 59  1  0
 60 55  2  0
 61 54  1  0
 62 52  1  0
 64 66  2  0
 65 64  1  0
 67 65  1  0
 68 77  2  0
 68 73  1  0
 69 65  1  0
 69 73  1  0
 70 69  1  0
 71 72  1  0
 71 70  1  0
 72 68  1  0
 73 74  2  0
 74 75  1  0
 76 75  2  0
 77 76  1  0
 78 52  1  0
 78 79  1  0
 78 88  1  0
 79 82  1  0
 80 84  1  0
 80 79  1  0
 81 80  2  0
 84 83  1  0
 86 84  1  0
 86 87  1  0
 86 85  1  0
 88 91  1  1
 88 89  1  0
 90 88  1  0
M  ISO  4  11 100  19 100  50 101  51 101
M  END
>  <TORSDO>  (40) 
F 22

>  <SCORE>  (40) 
-13.428

>  <name>  (40) 
40

>  <ligand_id>  (40) 
40

>  <original_smiles>  (40) 
[H]c1c([H])c([H])c2c(c1[H])C([H])([H])C([H])([H])C([H])([H])C2([H])N([H])C(=O)C1([H])N(C(=O)C([H])(N([H])C(=O)C([H])(N([H])C([H])([H])[H])C([H])([H])[H])C(C([H])([H])[H])(C([H])([H])[H])C([H])([H])[H])C([H])([H])c2c([H])c(OC([H])([H])C([H])([H])C3([H])C([H])([H])C([H])([H])C([H])(C([H])([H])C([H])([H])C([H])([H])C([H])([H])N([H])C(=O)N4C([H])([H])C([H])([H])C([H])([H])C([H])(n5nc(-c6c([H])c([H])c(Oc7c([H])c([H])c(F)c([H])c7F)c([H])c6[H])c(C(=O)N([H])[H])c5N([H])[H])C4([H])[H])C([H])([H])C3([H])[H])c([H])c([H])c2C1([H])[H]

>  <smiles>  (40) 
[H]c1c([H])c([H])c2c(c1[H])C([H])([H])C([H])([H])C([H])([H])C2([H])N([H])C(=O)C1([H])N(C(=O)C([H])(N([H])C(=O)C([H])(N([H])C([H])([H])[H])C([H])([H])[H])C(C([H])([H])[H])(C([H])([H])[H])C([H])([H])[H])C([H])([H])c2c([H])c(OC([H])([H])C([H])([H])C3([H])C([H])([H])C([H])([H])C([H])(C([H])([H])C([H])([H])C([H])([H])C([H])([H])N([H])C(=O)N4C([H])([H])C([H])([H])C([H])([H])C([H])(n5nc(-c6c([H])c([H])c(Oc7c([H])c([H])c(F)c([H])c7F)c([H])c6[H])c(C(=O)N([H])[H])c5N([H])[H])C4([H])[H])C([H])([H])C3([H])[H])c([H])c([H])c2C1([H])[H]

$$$$
41:0:0
     RDKit          3D

 96104  0  0  1  0  0  0  0  0999 V2000
  -26.2890  -24.0790   16.2520 C   0  0  0  0  0  2  0  0  0  0  0  0
  -25.4300  -23.0290   16.9820 C   0  0  0  0  0  2  0  0  0  0  0  0
  -27.0920  -24.9480   17.2330 C   0  0  0  0  0  2  0  0  0  0  0  0
  -25.8150  -22.8590   18.4630 C   0  0  0  0  0  2  0  0  0  0  0  0
  -27.9930  -24.1010   18.1730 C   0  0  0  0  0  3  0  0  0  0  0  0
  -27.2870  -22.8770   18.6810 N   0  0  2  0  0  4  0  0  0  0  0  0
  -27.3840  -22.9170   19.6840 H   0  0  0  0  0  0  0  0  0  0  0  0
  -27.9540  -21.6000   18.3310 C   0  0  0  0  0  2  0  0  0  0  0  0
  -27.6910  -20.5410   19.4140 C   0  0  0  0  0  2  0  0  0  0  0  0
  -28.5560  -19.2950   19.2110 C   0  0  0  0  0  2  0  0  0  0  0  0
  -28.6990  -18.4590   20.4860 C   0  0  0  0  0  2  0  0  0  0  0  0
  -29.8910  -17.5110   20.3540 C   0  0  0  0  0  2  0  0  0  0  0  0
  -30.4320  -17.0150   21.7000 C   0  0  0  0  0  2  0  0  0  0  0  0
  -31.7580  -16.2540   21.5330 C   0  0  0  0  0  2  0  0  0  0  0  0
  -31.6400  -14.7220   21.6130 C   0  0  0  0  0  2  0  0  0  0  0  0
  -30.3170  -13.9550   19.6180 C   0  0  0  0  0  0  0  0  0  0  0  0
  -29.5570  -12.1510   18.1220 C   0  0  0  0  0  2  0  0  0  0  0  0
  -28.3720  -12.5080   17.2150 C   0  0  0  0  0  2  0  0  0  0  0  0
  -27.0440  -12.2600   17.9460 C   0  0  0  0  0  2  0  0  0  0  0  0
  -27.0030  -12.9390   19.3370 C   0  0  0  0  0  3  0  0  0  0  0  0
  -28.2680  -12.6030   20.1550 C   0  0  0  0  0  2  0  0  0  0  0  0
  -29.4620  -12.9400   19.3560 N   0  0  0  0  0  0  0  0  0  0  0  0
  -31.0440  -14.4850   18.7700 O   0  0  0  0  0  0  0  0  0  0  0  0
  -30.4840  -14.1440   20.9310 N   0  0  0  0  0  0  0  0  0  0  0  0
  -29.8560  -13.6060   21.5110 H   0  0  0  0  0  0  0  0  0  0  0  0
  -24.7870  -13.4050   20.5690 C   0  0  0  0  0  0  0  0  0  0  0  0
  -23.8380  -12.5650   21.0900 C   0  0  0  0  0  0  0  0  0  0  0  0
  -24.3160  -11.2390   20.8620 C   0  0  0  0  0  0  0  0  0  0  0  0
  -25.7840  -12.5840   20.0620 N   0  0  0  0  0  0  0  0  0  0  0  0
  -25.5150  -11.2730   20.2930 N   0  0  0  0  0  0  0  0  0  0  0  0
  -23.6780   -9.9370   21.1010 C   0  0  0  0  0  0  0  0  0  0  0  0
  -24.1890   -9.0290   22.0550 C   0  0  0  0  0  3  0  0  0  0  0  0
  -23.5460   -7.7930   22.2810 C   0  0  0  0  0  3  0  0  0  0  0  0
  -22.3800   -7.4560   21.5540 C   0  0  0  0  0  0  0  0  0  0  0  0
  -21.8900   -8.3530   20.5900 C   0  0  0  0  0  3  0  0  0  0  0  0
  -22.5310   -9.5810   20.3620 C   0  0  0  0  0  3  0  0  0  0  0  0
  -21.7050   -6.2660   21.6860 O   0  0  0  0  0  0  0  0  0  0  0  0
  -21.6380   -5.6070   22.8880 C   0  0  0  0  0  0  0  0  0  0  0  0
  -20.9340   -6.1390   23.9900 C   0  0  0  0  0  3  0  0  0  0  0  0
  -20.8300   -5.3980   25.1840 C   0  0  0  0  0  3  0  0  0  0  0  0
  -21.4190   -4.1230   25.2760 C   0  0  0  0  0  0  0  0  0  0  0  0
  -22.1140   -3.5880   24.1770 C   0  0  0  0  0  3  0  0  0  0  0  0
  -22.2200   -4.3270   22.9850 C   0  0  0  0  0  0  0  0  0  0  0  0
  -22.8740   -3.7990   21.9230 F   0  0  0  0  0  0  0  0  0  0  0  0
  -21.3130   -3.4060   26.4190 F   0  0  0  0  0  0  0  0  0  0  0  0
  -22.5180  -12.9660   21.6790 C   0  0  0  0  0  0  0  0  0  0  0  0
  -21.9990  -12.1750   22.6130 N   0  0  0  0  0  0  0  0  0  0  0  0
  -21.9600  -14.0110   21.3490 O   0  0  0  0  0  0  0  0  0  0  0  0
  -22.4660  -11.3270   22.8960 H   0  0  0  0  0  0  0  0  0  0  0  0
  -21.1250  -12.4250   23.0530 H   0  0  0  0  0  0  0  0  0  0  0  0
  -24.8760  -14.7890   20.4660 N   0  0  0  0  0  0  0  0  0  0  0  0
  -24.1310  -15.4000   20.7840 H   0  0  0  0  0  0  0  0  0  0  0  0
  -25.6340  -15.2860   20.0150 H   0  0  0  0  0  0  0  0  0  0  0  0
  -28.5820  -24.8820   19.3800 C   0  0  0  0  0  2  0  0  0  0  0  0
  -29.0420  -26.3350   19.0980 C   0  0  0  0  0  2  0  0  0  0  0  0
  -28.8010  -27.2240   20.1980 O   0  0  0  0  0  0  0  0  0  0  0  0
  -24.7480  -32.1160   23.4520 C   0  0  0  0  0  0  0  0  0  0  0  0
  -27.5840  -27.8750   20.2410 C   0  0  0  0  0  0  0  0  0  0  0  0
  -23.6120  -30.7340   21.7450 C   0  0  0  0  0  3  0  0  0  0  0  0
  -25.1340  -29.2890   20.3030 C   0  0  0  0  0  0  0  0  0  0  0  0
  -26.1310  -31.1660   21.6110 C   0  0  0  0  0  2  0  0  0  0  0  0
  -26.2650  -29.8200   20.9340 C   0  0  0  0  0  0  0  0  0  0  0  0
  -27.4880  -29.1120   20.9190 C   0  0  0  0  0  3  0  0  0  0  0  0
  -26.4250  -27.3550   19.6180 C   0  0  0  0  0  3  0  0  0  0  0  0
  -25.2070  -28.0480   19.6520 C   0  0  0  0  0  3  0  0  0  0  0  0
  -23.8650  -30.1050   20.3520 C   0  0  0  0  0  2  0  0  0  0  0  0
  -24.8460  -31.3570   22.3240 N   0  0  0  0  0  0  0  0  0  0  0  0
  -23.6510  -32.3380   23.9830 O   0  0  0  0  0  0  0  0  0  0  0  0
  -22.9750  -29.6660   22.6620 C   0  0  0  0  0  0  0  0  0  0  0  0
  -21.6620  -29.4350   22.4950 N   0  0  0  0  0  0  0  0  0  0  0  0
  -23.6610  -29.0470   23.4790 O   0  0  0  0  0  0  0  0  0  0  0  0
  -21.1710  -29.9940   21.8110 H   0  0  0  0  0  0  0  0  0  0  0  0
  -18.3210  -28.1050   22.8660 C   0  0  0  0  0  0  0  0  0  0  0  0
  -20.8600  -28.4460   23.2150 C   0  0  0  0  0  3  0  0  0  0  0  0
  -21.0290  -27.0350   22.6060 C   0  0  0  0  0  2  0  0  0  0  0  0
  -19.9680  -26.7000   21.5540 C   0  0  0  0  0  2  0  0  0  0  0  0
  -18.5660  -26.7800   22.1650 C   0  0  0  0  0  2  0  0  0  0  0  0
  -19.4000  -28.8920   23.3480 C   0  0  0  0  0  0  0  0  0  0  0  0
  -19.1230  -30.1320   23.9640 C   0  0  0  0  0  3  0  0  0  0  0  0
  -17.7980  -30.5840   24.1060 C   0  0  0  0  0  3  0  0  0  0  0  0
  -16.7320  -29.7900   23.6490 C   0  0  0  0  0  3  0  0  0  0  0  0
  -16.9940  -28.5540   23.0310 C   0  0  0  0  0  3  0  0  0  0  0  0
  -26.0030  -32.7640   24.1130 C   0  0  0  0  0  3  0  0  0  0  0  0
  -26.4980  -31.9950   25.4010 C   0  0  1  0  0  0  0  0  0  0  0  0
  -25.3790  -31.7060   26.4300 C   0  0  0  0  0  1  0  0  0  0  0  0
  -27.1400  -30.6420   25.0170 C   0  0  0  0  0  1  0  0  0  0  0  0
  -27.6010  -32.8160   26.1100 C   0  0  0  0  0  1  0  0  0  0  0  0
  -25.6630  -34.1560   24.4350 N   0  0  0  0  0  0  0  0  0  0  0  0
  -25.9890  -35.2140   23.6810 C   0  0  0  0  0  0  0  0  0  0  0  0
  -26.6790  -35.1210   22.6610 O   0  0  0  0  0  0  0  0  0  0  0  0
  -25.0490  -34.2990   25.2240 H   0  0  0  0  0  0  0  0  0  0  0  0
  -24.2390  -36.9780   23.2900 C   0  0  0  0  0  1  0  0  0  0  0  0
  -25.4680  -36.5920   24.1280 C   0  0  0  0  0  3  0  0  0  0  0  0
  -27.5570  -37.5280   25.0160 C   0  0  0  0  0  1  0  0  0  0  0  0
  -26.4840  -37.6620   24.0330 N   0  0  0  0  0  0  0  0  0  0  0  0
  -26.0570  -38.5760   24.1520 H   0  0  0  0  0  0  0  0  0  0  0  0
  1  2  1  0
  1  3  1  0
  2  4  1  0
  3  5  1  0
  4  6  1  0
  5  6  1  0
  5 54  1  0
  6  7  1  1
  8  6  1  0
  8  9  1  0
 10  9  1  0
 10 11  1  0
 12 11  1  0
 12 13  1  0
 14 15  1  0
 14 13  1  0
 16 24  1  0
 17 22  1  0
 18 19  1  0
 18 17  1  0
 20 19  1  0
 20 29  1  0
 20 21  1  0
 22 16  1  0
 22 21  1  0
 23 16  2  0
 24 25  1  0
 24 15  1  0
 26 27  2  0
 27 46  1  0
 28 27  1  0
 28 31  1  0
 29 30  1  0
 29 26  1  0
 30 28  2  0
 31 32  1  0
 32 33  2  0
 34 37  1  0
 34 33  1  0
 35 34  2  0
 36 35  1  0
 36 31  2  0
 37 38  1  0
 38 43  2  0
 38 39  1  0
 39 40  2  0
 40 41  1  0
 41 45  1  0
 42 41  2  0
 43 42  1  0
 44 43  1  0
 46 47  1  0
 47 49  1  0
 47 50  1  0
 48 46  2  0
 51 26  1  0
 51 52  1  0
 53 51  1  0
 55 54  1  0
 55 56  1  0
 56 58  1  0
 57 68  2  0
 58 63  1  0
 59 67  1  0
 59 69  1  0
 60 66  1  0
 60 62  1  0
 61 67  1  0
 62 61  1  0
 63 62  2  0
 64 65  1  0
 64 58  2  0
 65 60  2  0
 66 59  1  0
 67 57  1  0
 69 71  2  0
 70 69  1  0
 72 70  1  0
 73 82  2  0
 73 78  1  0
 74 70  1  0
 74 78  1  0
 75 74  1  0
 76 77  1  0
 76 75  1  0
 77 73  1  0
 78 79  2  0
 79 80  1  0
 81 80  2  0
 82 81  1  0
 83 57  1  0
 83 88  1  0
 83 84  1  0
 84 87  1  1
 84 85  1  0
 86 84  1  0
 88 91  1  0
 89 93  1  0
 89 88  1  0
 90 89  2  0
 93 92  1  0
 95 93  1  0
 95 96  1  0
 95 94  1  0
M  ISO  4  16 100  24 100  55 101  56 101
M  END
>  <TORSDO>  (41) 
F 26

>  <SCORE>  (41) 
-8.810

>  <name>  (41) 
41

>  <ligand_id>  (41) 
41

>  <original_smiles>  (41) 
[H]c1c([H])c([H])c2c(c1[H])C([H])([H])C([H])([H])C([H])([H])C2([H])N([H])C(=O)C1([H])N(C(=O)C([H])(N([H])C(=O)C([H])(N([H])C([H])([H])[H])C([H])([H])[H])C(C([H])([H])[H])(C([H])([H])[H])C([H])([H])[H])C([H])([H])c2c([H])c(OC([H])([H])C([H])([H])C3([H])C([H])([H])C([H])([H])C([H])([H])C([H])([H])[N+]3([H])C([H])([H])C([H])([H])C([H])([H])C([H])([H])C([H])([H])C([H])([H])C([H])([H])C([H])([H])N([H])C(=O)N3C([H])([H])C([H])([H])C([H])([H])C([H])(n4nc(-c5c([H])c([H])c(Oc6c([H])c([H])c(F)c([H])c6F)c([H])c5[H])c(C(=O)N([H])[H])c4N([H])[H])C3([H])[H])c([H])c([H])c2C1([H])[H]

>  <smiles>  (41) 
[H]c1c([H])c([H])c2c(c1[H])C([H])([H])C([H])([H])C([H])([H])C2([H])N([H])C(=O)C1([H])N(C(=O)C([H])(N([H])C(=O)C([H])(N([H])C([H])([H])[H])C([H])([H])[H])C(C([H])([H])[H])(C([H])([H])[H])C([H])([H])[H])C([H])([H])c2c([H])c(OC([H])([H])C([H])([H])C3([H])C([H])([H])C([H])([H])C([H])([H])C([H])([H])[N+]3([H])C([H])([H])C([H])([H])C([H])([H])C([H])([H])C([H])([H])C([H])([H])C([H])([H])C([H])([H])N([H])C(=O)N3C([H])([H])C([H])([H])C([H])([H])C([H])(n4nc(-c5c([H])c([H])c(Oc6c([H])c([H])c(F)c([H])c6F)c([H])c5[H])c(C(=O)N([H])[H])c4N([H])[H])C3([H])[H])c([H])c([H])c2C1([H])[H]

$$$$
42:0:0
     RDKit          3D

 98105  0  0  1  0  0  0  0  0999 V2000
  -21.9460  -12.2680   22.7710 C   0  0  0  0  0  3  0  0  0  0  0  0
  -22.2170  -10.5660   22.8940 C   0  0  0  0  0  2  0  0  0  0  0  0
  -22.5700  -13.6020   21.8970 C   0  0  0  0  0  3  0  0  0  0  0  0
  -24.3520  -11.5150   23.3130 C   0  0  0  0  0  3  0  0  0  0  0  0
  -24.8410  -13.0660   22.7340 C   0  0  0  0  0  3  0  0  0  0  0  0
  -23.7130   -9.9310   22.6940 C   0  0  0  0  0  0  0  0  0  0  0  0
  -24.0580  -14.3400   21.9890 C   0  0  0  0  0  0  0  0  0  0  0  0
  -24.6900  -15.5620   20.7250 C   0  0  0  0  0  3  0  0  0  0  0  0
  -26.0350  -16.8040   20.4610 C   0  0  0  0  0  3  0  0  0  0  0  0
  -26.3040  -17.9810   19.2580 N   0  0  0  0  0  4  0  0  0  0  0  0
  -25.4580  -18.5280   19.2570 H   0  0  0  0  0  0  0  0  0  0  0  0
  -26.2790  -17.4600   18.3980 H   0  0  0  0  0  0  0  0  0  0  0  0
  -27.5320  -19.1350   19.0200 C   0  0  0  0  0  2  0  0  0  0  0  0
  -27.8560  -20.4220   17.7240 C   0  0  0  0  0  3  0  0  0  0  0  0
  -29.1570  -21.7000   17.4030 C   0  0  0  0  0  3  0  0  0  0  0  0
  -29.7050  -22.8150   16.2500 O   0  0  0  0  0  0  0  0  0  0  0  0
  -34.0890  -27.5180   19.8080 C   0  0  0  0  0  0  0  0  0  0  0  0
  -30.0920  -24.2080   16.5210 C   0  0  0  0  0  0  0  0  0  0  0  0
  -31.6490  -27.8040   19.8080 C   0  0  0  0  0  3  0  0  0  0  0  0
  -30.3520  -26.7570   17.8540 C   0  0  0  0  0  0  0  0  0  0  0  0
  -32.8200  -26.9300   17.6910 C   0  0  0  0  0  2  0  0  0  0  0  0
  -31.5140  -26.1720   17.3360 C   0  0  0  0  0  0  0  0  0  0  0  0
  -31.3900  -24.9010   16.6300 C   0  0  0  0  0  3  0  0  0  0  0  0
  -28.9900  -25.0040   16.8380 C   0  0  0  0  0  3  0  0  0  0  0  0
  -29.1020  -26.2160   17.5350 C   0  0  0  0  0  3  0  0  0  0  0  0
  -30.4760  -27.9400   18.8010 C   0  0  0  0  0  2  0  0  0  0  0  0
  -32.9140  -27.4060   19.1140 N   0  0  0  0  0  0  0  0  0  0  0  0
  -34.1150  -27.9270   20.9810 O   0  0  0  0  0  0  0  0  0  0  0  0
  -31.2620  -26.8320   20.9560 C   0  0  0  0  0  0  0  0  0  0  0  0
  -30.3870  -27.2760   21.8750 N   0  0  0  0  0  0  0  0  0  0  0  0
  -31.7440  -25.6960   21.0000 O   0  0  0  0  0  0  0  0  0  0  0  0
  -30.0460  -28.2240   21.7870 H   0  0  0  0  0  0  0  0  0  0  0  0
  -28.1420  -27.3940   24.7180 C   0  0  0  0  0  0  0  0  0  0  0  0
  -29.8720  -26.5050   23.0120 C   0  0  0  0  0  3  0  0  0  0  0  0
  -28.7650  -25.5240   22.5610 C   0  0  0  0  0  2  0  0  0  0  0  0
  -27.3540  -26.1060   22.6870 C   0  0  0  0  0  2  0  0  0  0  0  0
  -27.0610  -26.4970   24.1390 C   0  0  0  0  0  2  0  0  0  0  0  0
  -29.4560  -27.4100   24.1790 C   0  0  0  0  0  0  0  0  0  0  0  0
  -30.4120  -28.2860   24.7370 C   0  0  0  0  0  3  0  0  0  0  0  0
  -30.0750  -29.1330   25.8100 C   0  0  0  0  0  3  0  0  0  0  0  0
  -28.7770  -29.1040   26.3460 C   0  0  0  0  0  3  0  0  0  0  0  0
  -27.8150  -28.2350   25.8030 C   0  0  0  0  0  3  0  0  0  0  0  0
  -35.4570  -27.1570   19.1580 C   0  0  0  0  0  3  0  0  0  0  0  0
  -35.9860  -25.7300   19.5780 C   0  0  1  0  0  0  0  0  0  0  0  0
  -36.0300  -25.5080   21.1090 C   0  0  0  0  0  1  0  0  0  0  0  0
  -35.1090  -24.6120   18.9710 C   0  0  0  0  0  1  0  0  0  0  0  0
  -37.4140  -25.5160   19.0230 C   0  0  0  0  0  1  0  0  0  0  0  0
  -36.4280  -28.1940   19.5490 N   0  0  0  0  0  0  0  0  0  0  0  0
  -36.7850  -29.2390   18.7910 C   0  0  0  0  0  0  0  0  0  0  0  0
  -36.3690  -29.3990   17.6410 O   0  0  0  0  0  0  0  0  0  0  0  0
  -36.7670  -28.1560   20.5000 H   0  0  0  0  0  0  0  0  0  0  0  0
  -36.9740  -31.5020   19.8810 C   0  0  0  0  0  1  0  0  0  0  0  0
  -37.7580  -30.2690   19.4030 C   0  0  0  0  0  3  0  0  0  0  0  0
  -39.8000  -29.6370   18.1930 C   0  0  0  0  0  1  0  0  0  0  0  0
  -38.8290  -30.6920   18.4750 N   0  0  0  0  0  0  0  0  0  0  0  0
  -39.3320  -31.4930   18.8470 H   0  0  0  0  0  0  0  0  0  0  0  0
  -25.7620   -7.3660   22.1390 C   0  0  0  0  0  3  0  0  0  0  0  0
  -27.3740   -7.5780   21.5590 C   0  0  0  0  0  2  0  0  0  0  0  0
  -28.5750   -8.6280   22.0680 C   0  0  0  0  0  2  0  0  0  0  0  0
  -29.4370   -9.5670   21.0300 C   0  0  0  0  0  2  0  0  0  0  0  0
  -31.0520  -12.2510   21.0090 C   0  0  2  0  0  0  0  0  0  0  0  0
  -32.2950  -11.2480   20.9680 C   0  0  0  0  0  1  0  0  0  0  0  0
  -31.5540  -10.7160   19.2930 C   0  0  0  0  0  1  0  0  0  0  0  0
  -29.9770  -11.3900   18.8160 C   0  0  0  0  0  2  0  0  0  0  0  0
  -29.0960  -12.6020   19.7560 C   0  0  0  0  0  2  0  0  0  0  0  0
  -29.7930  -13.1560   21.4100 C   0  0  0  0  0  1  0  0  0  0  0  0
  -31.3340  -12.4390   21.9230 N   0  0  0  0  0  1  0  0  0  0  0  0
  -31.6500  -13.1690   20.1220 O   0  0  0  0  0  1  0  0  0  0  0  0
  -30.1270  -10.9240   21.4590 N   0  0  0  0  0  2  0  0  0  0  0  0
  -30.1000  -10.9670   22.4660 H   0  0  0  0  0  0  0  0  0  0  0  0
  -26.6570  -13.1420   19.4300 C   0  0  0  0  0  0  0  0  0  0  0  0
  -25.5200  -12.4230   19.5650 C   0  0  0  0  0  0  0  0  0  0  0  0
  -26.0140  -11.2070   20.1100 C   0  0  0  0  0  0  0  0  0  0  0  0
  -27.6920  -12.3360   19.8230 N   0  0  0  0  0  0  0  0  0  0  0  0
  -27.2780  -11.1850   20.3110 N   0  0  0  0  0  0  0  0  0  0  0  0
  -25.3930  -10.0650   20.4810 C   0  0  0  0  0  0  0  0  0  0  0  0
  -25.5330   -9.2680   22.0290 C   0  0  0  0  0  3  0  0  0  0  0  0
  -24.3000   -8.2040   22.4420 C   0  0  1  0  0  0  0  0  0  0  0  0
  -23.0900   -7.8990   21.3720 C   0  0  0  0  0  3  0  0  0  0  0  0
  -22.9980   -8.6550   19.9720 C   0  0  0  0  0  2  0  0  0  0  0  0
  -24.1240   -9.6960   19.4840 C   0  0  0  0  0  3  0  0  0  0  0  0
  -22.3940   -6.6950   21.3300 O   0  0  0  0  0  0  0  0  0  0  0  0
  -22.1680   -5.9630   22.4620 C   0  0  0  0  0  0  0  0  0  0  0  0
  -21.6100   -6.6180   23.5730 C   0  0  0  0  0  3  0  0  0  0  0  0
  -21.3390   -5.9080   24.7500 C   0  0  0  0  0  3  0  0  0  0  0  0
  -21.6120   -4.5320   24.8180 C   0  0  0  0  0  0  0  0  0  0  0  0
  -22.1430   -3.8580   23.7040 C   0  0  0  0  0  3  0  0  0  0  0  0
  -22.4170   -4.5660   22.5170 C   0  0  0  0  0  0  0  0  0  0  0  0
  -22.9080   -3.8910   21.4470 F   0  0  0  0  0  0  0  0  0  0  0  0
  -21.3540   -3.8610   25.9650 F   0  0  0  0  0  0  0  0  0  0  0  0
  -24.1330  -12.9130   19.2060 C   0  0  0  0  0  0  0  0  0  0  0  0
  -23.0440  -12.3620   19.6510 N   0  0  0  0  0  0  0  0  0  0  0  0
  -23.9660  -13.9070   18.5270 O   0  0  0  0  0  0  0  0  0  0  0  0
  -23.1080  -11.6600   20.3740 H   0  0  0  0  0  0  0  0  0  0  0  0
  -22.1480  -12.7490   19.4040 H   0  0  0  0  0  0  0  0  0  0  0  0
  -26.9180  -14.4230   18.9960 N   0  0  0  0  0  0  0  0  0  0  0  0
  -26.1870  -14.9770   18.5650 H   0  0  0  0  0  0  0  0  0  0  0  0
  -27.8460  -14.7970   18.8520 H   0  0  0  0  0  0  0  0  0  0  0  0
  1  2  1  0
  3  7  1  0
  3  1  2  0
  5  4  1  0
  6  2  1  0
  6  4  2  0
  7  5  2  0
  8  7  1  0
  9  8  2  0
 10  9  1  0
 11 10  1  0
 12 10  1  0
 13 10  1  0
 14 13  1  0
 15 14  2  0
 16 18  1  0
 16 15  1  0
 17 28  2  0
 18 23  2  0
 18 24  1  0
 19 29  1  0
 20 26  1  0
 21 27  1  0
 22 21  1  0
 22 20  2  0
 23 22  1  0
 24 25  2  0
 25 20  1  0
 26 19  1  0
 27 19  1  0
 27 17  1  0
 29 31  2  0
 29 30  1  0
 32 30  1  0
 33 42  1  0
 34 30  1  0
 34 38  1  0
 35 36  1  0
 35 34  1  0
 36 37  1  0
 37 33  1  0
 38 33  2  0
 38 39  1  0
 39 40  2  0
 40 41  1  0
 42 41  2  0
 43 48  1  0
 43 44  1  0
 43 17  1  0
 44 45  1  1
 46 44  1  0
 47 44  1  0
 48 51  1  0
 49 53  1  0
 49 48  1  0
 50 49  2  0
 53 52  1  0
 54 55  1  0
 55 56  1  0
 55 53  1  0
 57 58  1  0
 57 78  1  0
 58 59  1  0
 60 69  1  0
 60 59  1  0
 61 66  1  1
 61 67  1  0
 62 61  1  0
 64 63  1  0
 64 65  1  0
 65 74  1  0
 68 61  1  0
 69 70  1  0
 71 72  2  0
 71 74  1  0
 72 73  1  0
 73 75  2  0
 73 76  1  0
 74 75  1  0
 77 76  1  0
 77 57  1  0
 77 78  1  0
 78  6  1  1
 79 82  1  0
 79 78  1  0
 80 79  1  0
 81 80  1  0
 81 76  2  0
 82 83  1  0
 83 88  2  0
 83 84  1  0
 84 85  2  0
 85 86  1  0
 86 90  1  0
 87 86  2  0
 88 87  1  0
 89 88  1  0
 91 72  1  0
 91 92  1  0
 92 94  1  0
 93 91  2  0
 95 92  1  0
 96 71  1  0
 97 96  1  0
 98 96  1  0
M  ISO  4  15 101  16 101  61 100  69 100
M  END
>  <TORSDO>  (42) 
F 26

>  <SCORE>  (42) 
4.731

>  <name>  (42) 
42

>  <ligand_id>  (42) 
42

>  <original_smiles>  (42) 
[H]c1c([H])c([H])c2c(c1[H])C([H])([H])C([H])([H])C([H])([H])C2([H])N([H])C(=O)C1([H])N(C(=O)C([H])(N([H])C(=O)C([H])(N([H])C([H])([H])[H])C([H])([H])[H])C(C([H])([H])[H])(C([H])([H])[H])C([H])([H])[H])C([H])([H])c2c([H])c(OC([H])([H])C([H])([H])C([H])([H])[N+]([H])([H])C([H])([H])C([H])([H])C3([H])C([H])([H])C([H])([H])C([H])([H])C([H])(C([H])([H])C([H])([H])C([H])([H])C([H])([H])N([H])C(=O)N4C([H])([H])C([H])([H])C([H])([H])C([H])(n5nc(-c6c([H])c([H])c(Oc7c([H])c([H])c(F)c([H])c7F)c([H])c6[H])c(C(=O)N([H])[H])c5N([H])[H])C4([H])[H])C([H])([H])C3([H])[H])c([H])c([H])c2C1([H])[H]

>  <smiles>  (42) 
[H]c1c([H])c([H])c2c(c1[H])C([H])([H])C([H])([H])C([H])([H])C2([H])N([H])C(=O)C1([H])N(C(=O)C([H])(N([H])C(=O)C([H])(N([H])C([H])([H])[H])C([H])([H])[H])C(C([H])([H])[H])(C([H])([H])[H])C([H])([H])[H])C([H])([H])c2c([H])c(OC([H])([H])C([H])([H])C([H])([H])[N+]([H])([H])C([H])([H])C([H])([H])C3([H])C([H])([H])C([H])([H])C([H])([H])C([H])(C([H])([H])C([H])([H])C([H])([H])C([H])([H])N([H])C(=O)N4C([H])([H])C([H])([H])C([H])([H])C([H])(n5nc(-c6c([H])c([H])c(Oc7c([H])c([H])c(F)c([H])c7F)c([H])c6[H])c(C(=O)N([H])[H])c5N([H])[H])C4([H])[H])C([H])([H])C3([H])[H])c([H])c([H])c2C1([H])[H]

$$$$
43:0:0
     RDKit          3D

 90 98  0  0  1  0  0  0  0  0999 V2000
  -28.4080  -19.1630   20.1370 C   0  0  0  0  0  2  0  0  0  0  0  0
  -30.5810  -20.2750   20.7270 C   0  0  0  0  0  2  0  0  0  0  0  0
  -28.8600  -17.8740   20.8550 C   0  0  0  0  0  2  0  0  0  0  0  0
  -31.0450  -18.9930   21.4400 C   0  0  0  0  0  2  0  0  0  0  0  0
  -29.0460  -20.4270   20.7520 C   0  0  0  0  0  3  0  0  0  0  0  0
  -30.3960  -17.7190   20.8580 C   0  0  0  0  0  3  0  0  0  0  0  0
  -28.5710  -21.7180   20.0400 C   0  0  0  0  0  2  0  0  0  0  0  0
  -28.7840  -23.0060   20.8650 C   0  0  0  0  0  2  0  0  0  0  0  0
  -28.4410  -24.3000   20.0980 C   0  0  0  0  0  2  0  0  0  0  0  0
  -28.5190  -25.5540   20.9930 C   0  0  0  0  0  2  0  0  0  0  0  0
  -28.5050  -26.7670   20.2360 O   0  0  0  0  0  0  0  0  0  0  0  0
  -24.6190  -31.8960   23.2720 C   0  0  0  0  0  0  0  0  0  0  0  0
  -27.3220  -27.4630   20.2540 C   0  0  0  0  0  0  0  0  0  0  0  0
  -23.4360  -30.4760   21.6260 C   0  0  0  0  0  3  0  0  0  0  0  0
  -24.9140  -28.9340   20.2320 C   0  0  0  0  0  0  0  0  0  0  0  0
  -25.9600  -30.8540   21.4490 C   0  0  0  0  0  2  0  0  0  0  0  0
  -26.0600  -29.4780   20.8240 C   0  0  0  0  0  0  0  0  0  0  0  0
  -27.2700  -28.7510   20.8300 C   0  0  0  0  0  3  0  0  0  0  0  0
  -26.1620  -26.9220   19.6630 C   0  0  0  0  0  3  0  0  0  0  0  0
  -24.9580  -27.6530   19.6510 C   0  0  0  0  0  3  0  0  0  0  0  0
  -23.6640  -29.7840   20.2550 C   0  0  0  0  0  2  0  0  0  0  0  0
  -24.6890  -31.0900   22.1740 N   0  0  0  0  0  0  0  0  0  0  0  0
  -23.5310  -32.1660   23.8000 O   0  0  0  0  0  0  0  0  0  0  0  0
  -22.7810  -29.4590   22.5880 C   0  0  0  0  0  0  0  0  0  0  0  0
  -21.4600  -29.2680   22.4440 N   0  0  0  0  0  0  0  0  0  0  0  0
  -23.4590  -28.8450   23.4160 O   0  0  0  0  0  0  0  0  0  0  0  0
  -20.9750  -29.8160   21.7460 H   0  0  0  0  0  0  0  0  0  0  0  0
  -18.0870  -28.0580   22.9010 C   0  0  0  0  0  0  0  0  0  0  0  0
  -20.6390  -28.3320   23.2100 C   0  0  0  0  0  3  0  0  0  0  0  0
  -20.7580  -26.8970   22.6480 C   0  0  0  0  0  2  0  0  0  0  0  0
  -19.6730  -26.5610   21.6190 C   0  0  0  0  0  2  0  0  0  0  0  0
  -18.2810  -26.7030   22.2410 C   0  0  0  0  0  2  0  0  0  0  0  0
  -19.1950  -28.8290   23.3420 C   0  0  0  0  0  0  0  0  0  0  0  0
  -18.9620  -30.0980   23.9180 C   0  0  0  0  0  3  0  0  0  0  0  0
  -17.6520  -30.5940   24.0590 C   0  0  0  0  0  3  0  0  0  0  0  0
  -16.5580  -29.8200   23.6350 C   0  0  0  0  0  3  0  0  0  0  0  0
  -16.7770  -28.5540   23.0630 C   0  0  0  0  0  3  0  0  0  0  0  0
  -25.8960  -32.5360   23.9010 C   0  0  0  0  0  3  0  0  0  0  0  0
  -25.5820  -33.9370   24.2120 N   0  0  0  0  0  0  0  0  0  0  0  0
  -25.9160  -34.9800   23.4410 C   0  0  0  0  0  0  0  0  0  0  0  0
  -26.5920  -34.8650   22.4150 O   0  0  0  0  0  0  0  0  0  0  0  0
  -24.9820  -34.0990   25.0080 H   0  0  0  0  0  0  0  0  0  0  0  0
  -24.1760  -36.7550   23.0580 C   0  0  0  0  0  1  0  0  0  0  0  0
  -25.4190  -36.3720   23.8760 C   0  0  0  0  0  3  0  0  0  0  0  0
  -27.5480  -37.2810   24.6950 C   0  0  0  0  0  1  0  0  0  0  0  0
  -26.4450  -37.4290   23.7480 N   0  0  0  0  0  0  0  0  0  0  0  0
  -26.0330  -38.3490   23.8820 H   0  0  0  0  0  0  0  0  0  0  0  0
  -26.4030  -31.7770   25.1890 C   0  0  1  0  0  0  0  0  0  0  0  0
  -25.3000  -31.5450   26.2470 C   0  0  0  0  0  1  0  0  0  0  0  0
  -26.9950  -30.3990   24.8110 C   0  0  0  0  0  1  0  0  0  0  0  0
  -27.5450  -32.5810   25.8560 C   0  0  0  0  0  1  0  0  0  0  0  0
  -30.8830  -16.4710   21.6350 C   0  0  0  0  0  2  0  0  0  0  0  0
  -30.7660  -14.3840   20.2540 C   0  0  0  0  0  0  0  0  0  0  0  0
  -30.3450  -12.3170   18.9680 C   0  0  0  0  0  2  0  0  0  0  0  0
  -29.3540  -12.5840   17.8190 C   0  0  0  0  0  2  0  0  0  0  0  0
  -27.8990  -12.4560   18.3090 C   0  0  0  0  0  2  0  0  0  0  0  0
  -27.6350  -13.2580   19.6110 C   0  0  0  0  0  3  0  0  0  0  0  0
  -28.7240  -12.9570   20.6620 C   0  0  0  0  0  2  0  0  0  0  0  0
  -30.0390  -13.2520   20.0600 N   0  0  0  0  0  0  0  0  0  0  0  0
  -31.7980  -14.6430   19.6270 O   0  0  0  0  0  0  0  0  0  0  0  0
  -30.2770  -15.2190   21.1810 N   0  0  0  0  0  0  0  0  0  0  0  0
  -29.4300  -14.9250   21.6430 H   0  0  0  0  0  0  0  0  0  0  0  0
  -25.2680  -13.8940   20.4020 C   0  0  0  0  0  0  0  0  0  0  0  0
  -24.2040  -13.1320   20.8080 C   0  0  0  0  0  0  0  0  0  0  0  0
  -24.6480  -11.7750   20.7570 C   0  0  0  0  0  0  0  0  0  0  0  0
  -26.2950  -13.0010   20.1330 N   0  0  0  0  0  0  0  0  0  0  0  0
  -25.9250  -11.7220   20.4010 N   0  0  0  0  0  0  0  0  0  0  0  0
  -23.9150  -10.5210   20.9710 C   0  0  0  0  0  0  0  0  0  0  0  0
  -24.3690   -9.5480   21.8890 C   0  0  0  0  0  3  0  0  0  0  0  0
  -23.6380   -8.3580   22.0900 C   0  0  0  0  0  3  0  0  0  0  0  0
  -22.4390   -8.1320   21.3740 C   0  0  0  0  0  0  0  0  0  0  0  0
  -22.0040   -9.0930   20.4440 C   0  0  0  0  0  3  0  0  0  0  0  0
  -22.7360  -10.2750   20.2410 C   0  0  0  0  0  3  0  0  0  0  0  0
  -21.6760   -6.9950   21.4850 O   0  0  0  0  0  0  0  0  0  0  0  0
  -21.6520   -6.2550   22.6400 C   0  0  0  0  0  0  0  0  0  0  0  0
  -21.2650   -6.8150   23.8760 C   0  0  0  0  0  3  0  0  0  0  0  0
  -21.1880   -6.0020   25.0250 C   0  0  0  0  0  3  0  0  0  0  0  0
  -21.4850   -4.6300   24.9380 C   0  0  0  0  0  0  0  0  0  0  0  0
  -21.8660   -4.0680   23.7060 C   0  0  0  0  0  3  0  0  0  0  0  0
  -21.9450   -4.8780   22.5600 C   0  0  0  0  0  0  0  0  0  0  0  0
  -22.2910   -4.3280   21.3710 F   0  0  0  0  0  0  0  0  0  0  0  0
  -21.4040   -3.8460   26.0390 F   0  0  0  0  0  0  0  0  0  0  0  0
  -22.8240  -13.6240   21.1330 C   0  0  0  0  0  0  0  0  0  0  0  0
  -22.1210  -12.9340   22.0240 N   0  0  0  0  0  0  0  0  0  0  0  0
  -22.3770  -14.6560   20.6340 O   0  0  0  0  0  0  0  0  0  0  0  0
  -22.4950  -12.0980   22.4500 H   0  0  0  0  0  0  0  0  0  0  0  0
  -21.1960  -13.2450   22.2850 H   0  0  0  0  0  0  0  0  0  0  0  0
  -25.4430  -15.2620   20.2220 N   0  0  0  0  0  0  0  0  0  0  0  0
  -24.6910  -15.9280   20.3610 H   0  0  0  0  0  0  0  0  0  0  0  0
  -26.2920  -15.6900   19.8760 H   0  0  0  0  0  0  0  0  0  0  0  0
  1  5  1  0
  1  3  1  0
  2  5  1  0
  2  4  1  0
  3  6  1  0
  5  7  1  0
  6  4  1  0
  6 52  1  0
  7  8  1  0
  9  8  1  0
  9 10  1  0
 11 13  1  0
 11 10  1  0
 12 23  2  0
 13 18  1  0
 14 22  1  0
 14 24  1  0
 15 21  1  0
 15 17  1  0
 16 22  1  0
 17 18  2  0
 17 16  1  0
 19 13  2  0
 20 19  1  0
 20 15  2  0
 21 14  1  0
 22 12  1  0
 24 26  2  0
 25 24  1  0
 27 25  1  0
 28 37  2  0
 28 33  1  0
 29 25  1  0
 29 33  1  0
 30 29  1  0
 31 32  1  0
 31 30  1  0
 32 28  1  0
 33 34  2  0
 34 35  1  0
 36 35  2  0
 37 36  1  0
 38 12  1  0
 38 39  1  0
 38 48  1  0
 39 42  1  0
 40 44  1  0
 40 39  1  0
 41 40  2  0
 44 43  1  0
 46 44  1  0
 46 47  1  0
 46 45  1  0
 48 51  1  1
 48 49  1  0
 50 48  1  0
 53 61  1  0
 54 59  1  0
 55 56  1  0
 55 54  1  0
 57 56  1  0
 57 66  1  0
 57 58  1  0
 59 53  1  0
 59 58  1  0
 60 53  2  0
 61 52  1  0
 61 62  1  0
 63 64  2  0
 64 83  1  0
 65 64  1  0
 65 68  1  0
 66 67  1  0
 66 63  1  0
 67 65  2  0
 68 69  1  0
 69 70  2  0
 71 74  1  0
 71 70  1  0
 72 71  2  0
 73 72  1  0
 73 68  2  0
 74 75  1  0
 75 76  1  0
 76 77  2  0
 78 77  1  0
 78 82  1  0
 79 78  2  0
 80 75  2  0
 80 79  1  0
 81 80  1  0
 83 84  1  0
 84 87  1  0
 84 86  1  0
 85 83  2  0
 88 89  1  0
 88 63  1  0
 90 88  1  0
M  ISO  4  10 101  11 101  53 100  61 100
M  END
>  <TORSDO>  (43) 
F 21

>  <SCORE>  (43) 
-13.686

>  <name>  (43) 
43

>  <ligand_id>  (43) 
43

>  <original_smiles>  (43) 
[H]c1c([H])c([H])c2c(c1[H])C([H])([H])C([H])([H])C([H])([H])C2([H])N([H])C(=O)C1([H])N(C(=O)C([H])(N([H])C(=O)C([H])(N([H])C([H])([H])[H])C([H])([H])[H])C(C([H])([H])[H])(C([H])([H])[H])C([H])([H])[H])C([H])([H])c2c([H])c(OC([H])([H])C([H])([H])C([H])([H])C([H])([H])C3([H])C([H])([H])C([H])([H])C([H])(C([H])([H])N([H])C(=O)N4C([H])([H])C([H])([H])C([H])([H])C([H])(n5nc(-c6c([H])c([H])c(Oc7c([H])c([H])c(F)c([H])c7F)c([H])c6[H])c(C(=O)N([H])[H])c5N([H])[H])C4([H])[H])C([H])([H])C3([H])[H])c([H])c([H])c2C1([H])[H]

>  <smiles>  (43) 
[H]c1c([H])c([H])c2c(c1[H])C([H])([H])C([H])([H])C([H])([H])C2([H])N([H])C(=O)C1([H])N(C(=O)C([H])(N([H])C(=O)C([H])(N([H])C([H])([H])[H])C([H])([H])[H])C(C([H])([H])[H])(C([H])([H])[H])C([H])([H])[H])C([H])([H])c2c([H])c(OC([H])([H])C([H])([H])C([H])([H])C([H])([H])C3([H])C([H])([H])C([H])([H])C([H])(C([H])([H])N([H])C(=O)N4C([H])([H])C([H])([H])C([H])([H])C([H])(n5nc(-c6c([H])c([H])c(Oc7c([H])c([H])c(F)c([H])c7F)c([H])c6[H])c(C(=O)N([H])[H])c5N([H])[H])C4([H])[H])C([H])([H])C3([H])[H])c([H])c([H])c2C1([H])[H]

$$$$
44:0:0
     RDKit          3D

 97105  0  0  1  0  0  0  0  0999 V2000
  -27.6820  -19.9010   18.5940 C   0  0  0  0  0  2  0  0  0  0  0  0
  -31.0440  -18.8490   21.1600 C   0  0  0  0  0  3  0  0  0  0  0  0
  -30.1390  -19.8400   21.5830 C   0  0  0  0  0  3  0  0  0  0  0  0
  -29.7580  -18.5690   19.1130 C   0  0  0  0  0  3  0  0  0  0  0  0
  -30.8450  -18.2010   19.9260 C   0  0  0  0  0  0  0  0  0  0  0  0
  -29.0120  -20.1770   20.8010 C   0  0  0  0  0  0  0  0  0  0  0  0
  -28.8410  -19.5620   19.5300 C   0  0  0  0  0  0  0  0  0  0  0  0
  -27.9940  -21.1490   21.3970 C   0  0  0  0  0  2  0  0  0  0  0  0
  -27.0560  -23.5480   21.3970 C   0  0  0  0  0  1  0  0  0  0  0  0
  -28.0120  -22.5450   20.7470 C   0  0  0  0  0  2  0  0  0  0  0  0
  -31.7780  -17.0990   19.4700 C   0  0  0  0  0  2  0  0  0  0  0  0
  -31.8710  -14.6390   19.5030 C   0  0  0  0  0  0  0  0  0  0  0  0
  -31.4230  -12.2840   18.9570 C   0  0  0  0  0  2  0  0  0  0  0  0
  -30.4340  -12.1910   17.7750 C   0  0  0  0  0  2  0  0  0  0  0  0
  -28.9740  -12.2540   18.2620 C   0  0  0  0  0  2  0  0  0  0  0  0
  -28.7260  -13.4300   19.2420 C   0  0  0  0  0  3  0  0  0  0  0  0
  -29.8070  -13.4540   20.3470 C   0  0  0  0  0  2  0  0  0  0  0  0
  -31.1270  -13.5210   19.6950 N   0  0  0  0  0  0  0  0  0  0  0  0
  -32.9630  -14.6370   18.9280 O   0  0  0  0  0  0  0  0  0  0  0  0
  -31.2830  -15.7840   19.8570 N   0  0  0  0  0  0  0  0  0  0  0  0
  -30.3700  -15.7270   20.2810 H   0  0  0  0  0  0  0  0  0  0  0  0
  -26.5120  -14.4100   20.1120 C   0  0  0  0  0  0  0  0  0  0  0  0
  -25.3550  -13.8150   20.5330 C   0  0  0  0  0  0  0  0  0  0  0  0
  -25.5820  -12.4060   20.4530 C   0  0  0  0  0  0  0  0  0  0  0  0
  -27.3790  -13.3760   19.8020 N   0  0  0  0  0  0  0  0  0  0  0  0
  -26.8260  -12.1640   20.0600 N   0  0  0  0  0  0  0  0  0  0  0  0
  -24.6710  -11.2750   20.6660 C   0  0  0  0  0  0  0  0  0  0  0  0
  -24.9980  -10.2150   21.5400 C   0  0  0  0  0  3  0  0  0  0  0  0
  -24.0970   -9.1470   21.7360 C   0  0  0  0  0  3  0  0  0  0  0  0
  -22.8540   -9.1340   21.0600 C   0  0  0  0  0  0  0  0  0  0  0  0
  -22.5420  -10.1810   20.1770 C   0  0  0  0  0  3  0  0  0  0  0  0
  -23.4430  -11.2400   19.9770 C   0  0  0  0  0  3  0  0  0  0  0  0
  -21.9260   -8.1270   21.1770 O   0  0  0  0  0  0  0  0  0  0  0  0
  -21.8430   -7.3520   22.3050 C   0  0  0  0  0  0  0  0  0  0  0  0
  -21.6010   -7.9140   23.5780 C   0  0  0  0  0  3  0  0  0  0  0  0
  -21.4510   -7.0760   24.7000 C   0  0  0  0  0  3  0  0  0  0  0  0
  -21.5350   -5.6770   24.5540 C   0  0  0  0  0  0  0  0  0  0  0  0
  -21.7710   -5.1160   23.2860 C   0  0  0  0  0  3  0  0  0  0  0  0
  -21.9210   -5.9510   22.1660 C   0  0  0  0  0  0  0  0  0  0  0  0
  -22.1280   -5.4040   20.9430 F   0  0  0  0  0  0  0  0  0  0  0  0
  -21.3840   -4.8720   25.6290 F   0  0  0  0  0  0  0  0  0  0  0  0
  -24.0760  -14.5080   20.9040 C   0  0  0  0  0  0  0  0  0  0  0  0
  -23.3130  -13.9340   21.8250 N   0  0  0  0  0  0  0  0  0  0  0  0
  -23.7710  -15.5910   20.4100 O   0  0  0  0  0  0  0  0  0  0  0  0
  -23.5700  -13.0520   22.2430 H   0  0  0  0  0  0  0  0  0  0  0  0
  -22.4560  -14.3860   22.1140 H   0  0  0  0  0  0  0  0  0  0  0  0
  -26.8960  -15.7400   19.9500 N   0  0  0  0  0  0  0  0  0  0  0  0
  -26.2830  -16.5160   20.1650 H   0  0  0  0  0  0  0  0  0  0  0  0
  -27.8100  -16.0330   19.6290 H   0  0  0  0  0  0  0  0  0  0  0  0
  -28.0360  -20.8380   17.5010 N   0  0  0  0  0  4  0  0  0  0  0  0
  -27.1620  -21.0780   17.0610 H   0  0  0  0  0  0  0  0  0  0  0  0
  -28.5840  -20.3380   16.8190 H   0  0  0  0  0  0  0  0  0  0  0  0
  -28.7730  -22.0720   17.8640 C   0  0  0  0  0  2  0  0  0  0  0  0
  -28.0510  -23.3610   17.4050 C   0  0  0  0  0  2  0  0  0  0  0  0
  -28.2920  -24.5480   18.3580 C   0  0  0  0  0  2  0  0  0  0  0  0
  -28.0110  -25.9260   17.7390 C   0  0  0  0  0  2  0  0  0  0  0  0
  -27.9520  -26.9160   18.7720 O   0  0  0  0  0  0  0  0  0  0  0  0
  -24.4660  -31.5450   22.9030 C   0  0  0  0  0  0  0  0  0  0  0  0
  -26.7630  -27.5810   18.9840 C   0  0  0  0  0  0  0  0  0  0  0  0
  -23.2590  -30.0900   21.3000 C   0  0  0  0  0  3  0  0  0  0  0  0
  -24.4030  -29.0780   19.3670 C   0  0  0  0  0  0  0  0  0  0  0  0
  -25.6040  -30.8050   20.7910 C   0  0  0  0  0  2  0  0  0  0  0  0
  -25.6220  -29.5450   19.9070 C   0  0  0  0  0  0  0  0  0  0  0  0
  -26.7940  -28.7820   19.7290 C   0  0  0  0  0  3  0  0  0  0  0  0
  -25.5250  -27.1150   18.4880 C   0  0  0  0  0  3  0  0  0  0  0  0
  -24.3480  -27.8540   18.6830 C   0  0  0  0  0  3  0  0  0  0  0  0
  -23.1400  -29.8070   19.7850 C   0  0  0  0  0  2  0  0  0  0  0  0
  -24.4110  -30.9440   21.6800 N   0  0  0  0  0  0  0  0  0  0  0  0
  -23.4430  -31.7080   23.5810 O   0  0  0  0  0  0  0  0  0  0  0  0
  -22.4700  -29.2010   22.2800 C   0  0  0  0  0  0  0  0  0  0  0  0
  -21.1580  -29.0420   22.0940 N   0  0  0  0  0  0  0  0  0  0  0  0
  -23.0710  -28.5440   23.1460 O   0  0  0  0  0  0  0  0  0  0  0  0
  -20.6840  -29.5810   21.3830 H   0  0  0  0  0  0  0  0  0  0  0  0
  -17.8540  -27.6920   22.6470 C   0  0  0  0  0  0  0  0  0  0  0  0
  -20.3950  -28.0170   22.8040 C   0  0  0  0  0  3  0  0  0  0  0  0
  -20.5330  -26.6430   22.1080 C   0  0  0  0  0  2  0  0  0  0  0  0
  -19.3870  -26.3410   21.1390 C   0  0  0  0  0  2  0  0  0  0  0  0
  -18.0370  -26.4020   21.8630 C   0  0  0  0  0  2  0  0  0  0  0  0
  -18.9670  -28.4590   23.0710 C   0  0  0  0  0  0  0  0  0  0  0  0
  -18.7550  -29.6580   23.7820 C   0  0  0  0  0  3  0  0  0  0  0  0
  -17.4530  -30.0970   24.0710 C   0  0  0  0  0  3  0  0  0  0  0  0
  -16.3490  -29.3290   23.6590 C   0  0  0  0  0  3  0  0  0  0  0  0
  -16.5510  -28.1290   22.9530 C   0  0  0  0  0  3  0  0  0  0  0  0
  -25.8070  -32.0990   23.4750 C   0  0  0  0  0  3  0  0  0  0  0  0
  -26.4270  -31.1770   24.5970 C   0  0  1  0  0  0  0  0  0  0  0  0
  -25.4400  -30.8290   25.7350 C   0  0  0  0  0  1  0  0  0  0  0  0
  -26.9390  -29.8500   23.9880 C   0  0  0  0  0  1  0  0  0  0  0  0
  -27.6520  -31.8740   25.2290 C   0  0  0  0  0  1  0  0  0  0  0  0
  -25.5490  -33.4470   23.9960 N   0  0  0  0  0  0  0  0  0  0  0  0
  -25.8720  -34.5790   23.3550 C   0  0  0  0  0  0  0  0  0  0  0  0
  -26.4870  -34.5890   22.2860 O   0  0  0  0  0  0  0  0  0  0  0  0
  -25.0080  -33.5110   24.8460 H   0  0  0  0  0  0  0  0  0  0  0  0
  -24.1930  -36.4440   23.2980 C   0  0  0  0  0  1  0  0  0  0  0  0
  -25.4470  -35.9070   24.0070 C   0  0  0  0  0  3  0  0  0  0  0  0
  -27.6360  -36.6190   24.8570 C   0  0  0  0  0  1  0  0  0  0  0  0
  -26.5070  -36.9370   23.9880 N   0  0  0  0  0  0  0  0  0  0  0  0
  -26.1360  -37.8390   24.2690 H   0  0  0  0  0  0  0  0  0  0  0  0
  1  7  1  0
  2  3  1  0
  4  7  2  0
  4  5  1  0
  5  2  2  0
  6  8  1  0
  6  3  2  0
  7  6  1  0
 10  8  1  0
 10  9  1  0
 11 20  1  0
 11  5  1  0
 12 18  1  0
 12 20  1  0
 13 18  1  0
 14 15  1  0
 14 13  1  0
 16 15  1  0
 16 25  1  0
 16 17  1  0
 18 17  1  0
 19 12  2  0
 20 21  1  0
 22 23  2  0
 23 42  1  0
 24 23  1  0
 24 27  1  0
 25 26  1  0
 25 22  1  0
 26 24  2  0
 27 28  1  0
 28 29  2  0
 30 33  1  0
 30 29  1  0
 31 30  2  0
 32 31  1  0
 32 27  2  0
 33 34  1  0
 34 35  1  0
 35 36  2  0
 37 36  1  0
 37 41  1  0
 38 37  2  0
 39 34  2  0
 39 38  1  0
 40 39  1  0
 42 43  1  0
 43 46  1  0
 43 45  1  0
 44 42  2  0
 47 22  1  0
 47 48  1  0
 49 47  1  0
 50 53  1  0
 50  1  1  0
 51 50  1  0
 52 50  1  0
 54 53  1  0
 54 55  1  0
 56 55  1  0
 56 57  1  0
 57 59  1  0
 58 69  2  0
 59 64  1  0
 60 68  1  0
 60 70  1  0
 61 67  1  0
 61 63  1  0
 62 68  1  0
 63 62  1  0
 64 63  2  0
 65 66  1  0
 65 59  2  0
 66 61  2  0
 67 60  1  0
 68 58  1  0
 70 72  2  0
 71 70  1  0
 73 71  1  0
 74 83  2  0
 74 79  1  0
 75 71  1  0
 75 79  1  0
 76 75  1  0
 77 78  1  0
 77 76  1  0
 78 74  1  0
 79 80  2  0
 80 81  1  0
 82 81  2  0
 83 82  1  0
 84 58  1  0
 84 89  1  0
 84 85  1  0
 85 88  1  1
 85 86  1  0
 87 85  1  0
 89 92  1  0
 90 89  1  0
 90 94  1  0
 91 90  2  0
 94 93  1  0
 96 94  1  0
 96 97  1  0
 96 95  1  0
M  ISO  4  12 100  20 100  56 101  57 101
M  END
>  <TORSDO>  (44) 
F 25

>  <SCORE>  (44) 
-10.051

>  <name>  (44) 
44

>  <ligand_id>  (44) 
44

>  <original_smiles>  (44) 
[H]c1c([H])c([H])c2c(c1[H])C([H])([H])C([H])([H])C([H])([H])C2([H])N([H])C(=O)C1([H])N(C(=O)C([H])(N([H])C(=O)C([H])(N([H])C([H])([H])[H])C([H])([H])[H])C(C([H])([H])[H])(C([H])([H])[H])C([H])([H])[H])C([H])([H])c2c([H])c(OC([H])([H])C([H])([H])C([H])([H])C([H])([H])[N+]([H])([H])C([H])([H])c3c([H])c(C([H])([H])N([H])C(=O)N4C([H])([H])C([H])([H])C([H])([H])C([H])(n5nc(-c6c([H])c([H])c(Oc7c([H])c([H])c(F)c([H])c7F)c([H])c6[H])c(C(=O)N([H])[H])c5N([H])[H])C4([H])[H])c([H])c([H])c3C([H])([H])C([H])([H])C([H])([H])[H])c([H])c([H])c2C1([H])[H]

>  <smiles>  (44) 
[H]c1c([H])c([H])c2c(c1[H])C([H])([H])C([H])([H])C([H])([H])C2([H])N([H])C(=O)C1([H])N(C(=O)C([H])(N([H])C(=O)C([H])(N([H])C([H])([H])[H])C([H])([H])[H])C(C([H])([H])[H])(C([H])([H])[H])C([H])([H])[H])C([H])([H])c2c([H])c(OC([H])([H])C([H])([H])C([H])([H])C([H])([H])[N+]([H])([H])C([H])([H])c3c([H])c(C([H])([H])N([H])C(=O)N4C([H])([H])C([H])([H])C([H])([H])C([H])(n5nc(-c6c([H])c([H])c(Oc7c([H])c([H])c(F)c([H])c7F)c([H])c6[H])c(C(=O)N([H])[H])c5N([H])[H])C4([H])[H])c([H])c([H])c3C([H])([H])C([H])([H])C([H])([H])[H])c([H])c([H])c2C1([H])[H]

$$$$
45:0:0
     RDKit          3D

101109  0  0  1  0  0  0  0  0999 V2000
  -26.7470  -24.7560   26.6060 N   0  0  0  0  0  4  0  0  0  0  0  0
  -26.0050  -24.3080   27.1210 H   0  0  0  0  0  0  0  0  0  0  0  0
  -27.2410  -25.3310   27.2640 H   0  0  0  0  0  0  0  0  0  0  0  0
  -26.0760  -25.5900   25.5840 C   0  0  0  0  0  2  0  0  0  0  0  0
  -27.2990  -27.8040   25.3020 C   0  0  0  0  0  3  0  0  0  0  0  0
  -27.6580  -26.0590   23.6380 C   0  0  0  0  0  3  0  0  0  0  0  0
  -28.1700  -28.6550   24.5960 C   0  0  0  0  0  3  0  0  0  0  0  0
  -28.5300  -26.9140   22.9310 C   0  0  0  0  0  3  0  0  0  0  0  0
  -27.0390  -26.4990   24.8290 C   0  0  0  0  0  0  0  0  0  0  0  0
  -28.7770  -28.2210   23.4000 C   0  0  0  0  0  0  0  0  0  0  0  0
  -29.6580  -29.1750   22.5990 C   0  0  0  0  0  2  0  0  0  0  0  0
  -29.7360  -28.8310   21.2130 O   0  0  0  0  0  0  0  0  0  0  0  0
  -22.6140  -28.6230   21.4510 C   0  0  0  0  0  0  0  0  0  0  0  0
  -28.5390  -28.7480   20.5410 C   0  0  0  0  0  0  0  0  0  0  0  0
  -23.6510  -27.9870   19.2960 C   0  0  0  0  0  3  0  0  0  0  0  0
  -26.1420  -28.4910   19.0780 C   0  0  0  0  0  0  0  0  0  0  0  0
  -24.8160  -29.6260   20.8730 C   0  0  0  0  0  2  0  0  0  0  0  0
  -26.1320  -29.1130   20.3310 C   0  0  0  0  0  0  0  0  0  0  0  0
  -27.3260  -29.2470   21.0690 C   0  0  0  0  0  3  0  0  0  0  0  0
  -28.5380  -28.1240   19.2780 C   0  0  0  0  0  3  0  0  0  0  0  0
  -27.3430  -27.9860   18.5450 C   0  0  0  0  0  3  0  0  0  0  0  0
  -24.8160  -28.3990   18.3570 C   0  0  0  0  0  2  0  0  0  0  0  0
  -23.6690  -28.7310   20.5960 N   0  0  0  0  0  0  0  0  0  0  0  0
  -21.6150  -27.9540   21.1510 O   0  0  0  0  0  0  0  0  0  0  0  0
  -23.6760  -26.4520   19.4670 C   0  0  0  0  0  0  0  0  0  0  0  0
  -22.6770  -25.7710   18.8820 N   0  0  0  0  0  0  0  0  0  0  0  0
  -24.5910  -25.8960   20.0810 O   0  0  0  0  0  0  0  0  0  0  0  0
  -21.9630  -26.3010   18.4050 H   0  0  0  0  0  0  0  0  0  0  0  0
  -20.2980  -23.1080   18.3480 C   0  0  0  0  0  0  0  0  0  0  0  0
  -22.5190  -24.3170   18.8780 C   0  0  0  0  0  3  0  0  0  0  0  0
  -23.0490  -23.7050   17.5620 C   0  0  0  0  0  2  0  0  0  0  0  0
  -21.9650  -23.5360   16.4930 C   0  0  0  0  0  2  0  0  0  0  0  0
  -20.8380  -22.6370   17.0080 C   0  0  0  0  0  2  0  0  0  0  0  0
  -21.0830  -23.9060   19.2210 C   0  0  0  0  0  0  0  0  0  0  0  0
  -20.5220  -24.3460   20.4400 C   0  0  0  0  0  3  0  0  0  0  0  0
  -19.2050  -23.9980   20.7930 C   0  0  0  0  0  3  0  0  0  0  0  0
  -18.4370  -23.1940   19.9330 C   0  0  0  0  0  3  0  0  0  0  0  0
  -18.9850  -22.7480   18.7180 C   0  0  0  0  0  3  0  0  0  0  0  0
  -22.5960  -29.3540   22.8300 C   0  0  0  0  0  3  0  0  0  0  0  0
  -21.3700  -28.9460   23.5300 N   0  0  0  0  0  0  0  0  0  0  0  0
  -20.1280  -29.1900   23.0940 C   0  0  0  0  0  0  0  0  0  0  0  0
  -19.8940  -29.8510   22.0790 O   0  0  0  0  0  0  0  0  0  0  0  0
  -21.4880  -28.3450   24.3330 H   0  0  0  0  0  0  0  0  0  0  0  0
  -18.9210  -27.0780   23.7350 C   0  0  0  0  0  1  0  0  0  0  0  0
  -18.9590  -28.6050   23.9120 C   0  0  0  0  0  3  0  0  0  0  0  0
  -17.5070  -30.5820   23.9460 C   0  0  0  0  0  1  0  0  0  0  0  0
  -17.6450  -29.1810   23.5570 N   0  0  0  0  0  0  0  0  0  0  0  0
  -16.8900  -28.6560   23.9910 H   0  0  0  0  0  0  0  0  0  0  0  0
  -23.8740  -29.0630   23.7110 C   0  0  1  0  0  0  0  0  0  0  0  0
  -24.2410  -27.5640   23.8070 C   0  0  0  0  0  1  0  0  0  0  0  0
  -25.1050  -29.8130   23.1500 C   0  0  0  0  0  1  0  0  0  0  0  0
  -23.6530  -29.5960   25.1440 C   0  0  0  0  0  1  0  0  0  0  0  0
  -27.6140  -23.6620   26.1080 C   0  0  0  0  0  2  0  0  0  0  0  0
  -28.8030  -24.1290   25.2380 C   0  0  0  0  0  2  0  0  0  0  0  0
  -29.3500  -22.9880   24.3640 C   0  0  0  0  0  2  0  0  0  0  0  0
  -30.1540  -23.4650   23.1400 C   0  0  0  0  0  2  0  0  0  0  0  0
  -30.6050  -22.3070   22.3430 N   0  0  0  0  0  4  0  0  0  0  0  0
  -31.2900  -21.8000   22.8790 H   0  0  0  0  0  0  0  0  0  0  0  0
  -29.8130  -21.7010   22.1960 H   0  0  0  0  0  0  0  0  0  0  0  0
  -31.1850  -22.6220   21.0230 C   0  0  0  0  0  2  0  0  0  0  0  0
  -31.9350  -21.3970   20.4700 C   0  0  0  0  0  2  0  0  0  0  0  0
  -32.5830  -21.6330   19.1010 C   0  0  0  0  0  2  0  0  0  0  0  0
  -33.8650  -20.8040   18.9090 C   0  0  0  0  0  2  0  0  0  0  0  0
  -33.4910  -18.9530   17.3010 C   0  0  0  0  0  0  0  0  0  0  0  0
  -34.4420  -17.2230   15.8340 C   0  0  0  0  0  2  0  0  0  0  0  0
  -33.4100  -16.3210   15.1410 C   0  0  0  0  0  2  0  0  0  0  0  0
  -33.0560  -15.1290   16.0430 C   0  0  0  0  0  2  0  0  0  0  0  0
  -32.6610  -15.5710   17.4750 C   0  0  0  0  0  3  0  0  0  0  0  0
  -33.6880  -16.5630   18.0700 C   0  0  0  0  0  2  0  0  0  0  0  0
  -33.9010  -17.6740   17.1240 N   0  0  0  0  0  0  0  0  0  0  0  0
  -33.2710  -19.7330   16.3690 O   0  0  0  0  0  0  0  0  0  0  0  0
  -33.6190  -19.4010   18.5580 N   0  0  0  0  0  0  0  0  0  0  0  0
  -33.8430  -18.7070   19.2560 H   0  0  0  0  0  0  0  0  0  0  0  0
  -31.3560  -14.0670   19.1090 C   0  0  0  0  0  0  0  0  0  0  0  0
  -31.6530  -12.8550   19.6720 C   0  0  0  0  0  0  0  0  0  0  0  0
  -32.9570  -12.5090   19.2030 C   0  0  0  0  0  0  0  0  0  0  0  0
  -32.4600  -14.4120   18.3440 N   0  0  0  0  0  0  0  0  0  0  0  0
  -33.4470  -13.4850   18.4500 N   0  0  0  0  0  0  0  0  0  0  0  0
  -33.7430  -11.2810   19.3810 C   0  0  0  0  0  0  0  0  0  0  0  0
  -35.1310  -11.3220   19.6410 C   0  0  0  0  0  3  0  0  0  0  0  0
  -35.8610  -10.1280   19.8270 C   0  0  0  0  0  3  0  0  0  0  0  0
  -35.2040   -8.8760   19.7590 C   0  0  0  0  0  0  0  0  0  0  0  0
  -33.8270   -8.8390   19.4780 C   0  0  0  0  0  3  0  0  0  0  0  0
  -33.1030  -10.0290   19.2870 C   0  0  0  0  0  3  0  0  0  0  0  0
  -35.8360   -7.6640   19.9010 O   0  0  0  0  0  0  0  0  0  0  0  0
  -37.0590   -7.5580   20.5150 C   0  0  0  0  0  0  0  0  0  0  0  0
  -37.2560   -7.9620   21.8530 C   0  0  0  0  0  3  0  0  0  0  0  0
  -38.5100   -7.7710   22.4680 C   0  0  0  0  0  3  0  0  0  0  0  0
  -39.5610   -7.1680   21.7520 C   0  0  0  0  0  0  0  0  0  0  0  0
  -39.3650   -6.7600   20.4210 C   0  0  0  0  0  3  0  0  0  0  0  0
  -38.1150   -6.9520   19.8060 C   0  0  0  0  0  0  0  0  0  0  0  0
  -37.9240   -6.5380   18.5300 F   0  0  0  0  0  0  0  0  0  0  0  0
  -40.7640   -6.9770   22.3450 F   0  0  0  0  0  0  0  0  0  0  0  0
  -30.7430  -12.0170   20.5240 C   0  0  0  0  0  0  0  0  0  0  0  0
  -31.3040  -11.2550   21.4570 N   0  0  0  0  0  0  0  0  0  0  0  0
  -29.5200  -12.0700   20.3970 O   0  0  0  0  0  0  0  0  0  0  0  0
  -32.3070  -11.2220   21.5720 H   0  0  0  0  0  0  0  0  0  0  0  0
  -30.7230  -10.6950   22.0650 H   0  0  0  0  0  0  0  0  0  0  0  0
  -30.2390  -14.8940   19.1670 N   0  0  0  0  0  0  0  0  0  0  0  0
  -29.4010  -14.6440   19.6820 H   0  0  0  0  0  0  0  0  0  0  0  0
  -30.1450  -15.7640   18.6590 H   0  0  0  0  0  0  0  0  0  0  0  0
  1  2  1  0
  1  3  1  0
  4  1  1  0
  6  9  2  0
  7  5  2  0
  8 10  2  0
  8  6  1  0
  9  5  1  0
  9  4  1  0
 10  7  1  0
 11 10  1  0
 12 11  1  0
 14 19  1  0
 14 12  1  0
 15 25  1  0
 15 23  1  0
 16 18  1  0
 18 17  1  0
 18 19  2  0
 20 14  2  0
 21 16  2  0
 21 20  1  0
 22 16  1  0
 22 15  1  0
 23 17  1  0
 23 13  1  0
 24 13  2  0
 25 27  2  0
 26 25  1  0
 28 26  1  0
 29 38  2  0
 29 34  1  0
 30 26  1  0
 30 34  1  0
 31 30  1  0
 32 33  1  0
 32 31  1  0
 33 29  1  0
 34 35  2  0
 35 36  1  0
 37 36  2  0
 38 37  1  0
 39 13  1  0
 39 40  1  0
 39 49  1  0
 40 43  1  0
 41 40  1  0
 41 45  1  0
 42 41  2  0
 45 44  1  0
 47 45  1  0
 47 46  1  0
 47 48  1  0
 49 50  1  1
 49 52  1  0
 51 49  1  0
 53  1  1  0
 54 53  1  0
 55 54  1  0
 56 55  1  0
 57 58  1  0
 57 56  1  0
 59 57  1  0
 60 57  1  0
 61 60  1  0
 62 61  1  0
 63 62  1  0
 64 72  1  0
 65 70  1  0
 66 65  1  0
 66 67  1  0
 68 67  1  0
 68 69  1  0
 68 77  1  0
 70 64  1  0
 70 69  1  0
 71 64  2  0
 72 63  1  0
 72 73  1  0
 74 99  1  0
 74 75  2  0
 75 94  1  0
 76 79  1  0
 76 75  1  0
 77 78  1  0
 77 74  1  0
 78 76  2  0
 79 80  1  0
 80 81  2  0
 82 81  1  0
 82 85  1  0
 83 82  2  0
 84 79  2  0
 84 83  1  0
 85 86  1  0
 86 87  1  0
 87 88  2  0
 89 93  1  0
 89 88  1  0
 90 89  2  0
 91 90  1  0
 91 86  2  0
 92 91  1  0
 94 95  1  0
 95 97  1  0
 95 98  1  0
 96 94  2  0
 99100  1  0
101 99  1  0
M  ISO  4  11 101  12 101  64 100  72 100
M  END
>  <TORSDO>  (45) 
F 28

>  <SCORE>  (45) 
3.674

>  <name>  (45) 
45

>  <ligand_id>  (45) 
45

>  <original_smiles>  (45) 
[H]c1c([H])c([H])c2c(c1[H])C([H])([H])C([H])([H])C([H])([H])C2([H])N([H])C(=O)C1([H])N(C(=O)C([H])(N([H])C(=O)C([H])(N([H])C([H])([H])[H])C([H])([H])[H])C(C([H])([H])[H])(C([H])([H])[H])C([H])([H])[H])C([H])([H])c2c([H])c(OC([H])([H])c3c([H])c([H])c(C([H])([H])[N+]([H])([H])C([H])([H])C([H])([H])C([H])([H])C([H])([H])[N+]([H])([H])C([H])([H])C([H])([H])C([H])([H])C([H])([H])N([H])C(=O)N4C([H])([H])C([H])([H])C([H])([H])C([H])(n5nc(-c6c([H])c([H])c(Oc7c([H])c([H])c(F)c([H])c7F)c([H])c6[H])c(C(=O)N([H])[H])c5N([H])[H])C4([H])[H])c([H])c3[H])c([H])c([H])c2C1([H])[H]

>  <smiles>  (45) 
[H]c1c([H])c([H])c2c(c1[H])C([H])([H])C([H])([H])C([H])([H])C2([H])N([H])C(=O)C1([H])N(C(=O)C([H])(N([H])C(=O)C([H])(N([H])C([H])([H])[H])C([H])([H])[H])C(C([H])([H])[H])(C([H])([H])[H])C([H])([H])[H])C([H])([H])c2c([H])c(OC([H])([H])c3c([H])c([H])c(C([H])([H])[N+]([H])([H])C([H])([H])C([H])([H])C([H])([H])C([H])([H])[N+]([H])([H])C([H])([H])C([H])([H])C([H])([H])C([H])([H])N([H])C(=O)N4C([H])([H])C([H])([H])C([H])([H])C([H])(n5nc(-c6c([H])c([H])c(Oc7c([H])c([H])c(F)c([H])c7F)c([H])c6[H])c(C(=O)N([H])[H])c5N([H])[H])C4([H])[H])c([H])c3[H])c([H])c([H])c2C1([H])[H]

$$$$
46:0:0
     RDKit          3D

 98107  0  0  1  0  0  0  0  0999 V2000
  -32.0480  -21.0970   20.7960 C   0  0  0  0  0  2  0  0  0  0  0  0
  -33.7110  -22.2640   19.3130 C   0  0  0  0  0  2  0  0  0  0  0  0
  -32.6330  -19.7560   20.3490 C   0  0  0  0  0  2  0  0  0  0  0  0
  -34.2500  -20.8830   18.8970 C   0  0  0  0  0  2  0  0  0  0  0  0
  -32.2290  -22.2170   19.7480 C   0  0  0  0  0  3  0  0  0  0  0  0
  -34.0630  -19.8860   19.9790 N   0  0  2  0  0  4  0  0  0  0  0  0
  -34.5390  -20.2640   20.7860 H   0  0  0  0  0  0  0  0  0  0  0  0
  -31.9830  -24.7310   19.2510 C   0  0  0  0  0  2  0  0  0  0  0  0
  -30.2370  -23.5310   20.6740 C   0  0  0  0  0  2  0  0  0  0  0  0
  -31.3780  -26.0780   19.6950 C   0  0  0  0  0  2  0  0  0  0  0  0
  -29.6540  -24.8900   21.0540 C   0  0  0  0  0  2  0  0  0  0  0  0
  -31.7310  -23.5920   20.2730 C   0  0  0  0  0  3  0  0  0  0  0  0
  -29.8700  -25.9080   19.9280 C   0  0  0  0  0  3  0  0  0  0  0  0
  -29.0850  -27.2010   20.2000 C   0  0  0  0  0  2  0  0  0  0  0  0
  -27.7800  -26.8570   19.7590 O   0  0  0  0  0  0  0  0  0  0  0  0
  -24.4770  -32.0600   23.4090 C   0  0  0  0  0  0  0  0  0  0  0  0
  -26.7110  -27.6900   19.9600 C   0  0  0  0  0  0  0  0  0  0  0  0
  -23.0910  -30.7740   21.8060 C   0  0  0  0  0  3  0  0  0  0  0  0
  -24.3720  -29.2460   20.2250 C   0  0  0  0  0  0  0  0  0  0  0  0
  -25.6050  -31.0580   21.4280 C   0  0  0  0  0  2  0  0  0  0  0  0
  -25.5900  -29.7120   20.7380 C   0  0  0  0  0  0  0  0  0  0  0  0
  -26.7670  -28.9440   20.6090 C   0  0  0  0  0  3  0  0  0  0  0  0
  -25.4780  -27.2260   19.4610 C   0  0  0  0  0  3  0  0  0  0  0  0
  -24.3090  -27.9970   19.5840 C   0  0  0  0  0  3  0  0  0  0  0  0
  -23.1690  -30.1440   20.3910 C   0  0  0  0  0  2  0  0  0  0  0  0
  -24.4150  -31.3080   22.2730 N   0  0  0  0  0  0  0  0  0  0  0  0
  -23.4530  -32.3510   24.0410 O   0  0  0  0  0  0  0  0  0  0  0  0
  -22.4710  -29.7410   22.7740 C   0  0  0  0  0  0  0  0  0  0  0  0
  -21.1700  -29.4580   22.5910 N   0  0  0  0  0  0  0  0  0  0  0  0
  -23.1570  -29.1950   23.6420 O   0  0  0  0  0  0  0  0  0  0  0  0
  -20.6750  -29.9620   21.8670 H   0  0  0  0  0  0  0  0  0  0  0  0
  -17.9090  -27.9320   22.8690 C   0  0  0  0  0  0  0  0  0  0  0  0
  -20.3850  -28.4900   23.3550 C   0  0  0  0  0  3  0  0  0  0  0  0
  -20.6930  -27.0430   22.9040 C   0  0  0  0  0  2  0  0  0  0  0  0
  -19.7380  -26.5310   21.8200 C   0  0  0  0  0  2  0  0  0  0  0  0
  -18.2910  -26.5670   22.3200 C   0  0  0  0  0  2  0  0  0  0  0  0
  -18.8930  -28.8410   23.3390 C   0  0  0  0  0  0  0  0  0  0  0  0
  -18.4870  -30.1110   23.8030 C   0  0  0  0  0  3  0  0  0  0  0  0
  -17.1290  -30.4770   23.8040 C   0  0  0  0  0  3  0  0  0  0  0  0
  -16.1560  -29.5660   23.3540 C   0  0  0  0  0  3  0  0  0  0  0  0
  -16.5470  -28.2980   22.8910 C   0  0  0  0  0  3  0  0  0  0  0  0
  -25.8330  -32.6080   23.9530 C   0  0  0  0  0  3  0  0  0  0  0  0
  -25.6240  -34.0100   24.3340 N   0  0  0  0  0  0  0  0  0  0  0  0
  -25.9350  -35.0610   23.5630 C   0  0  0  0  0  0  0  0  0  0  0  0
  -26.5060  -34.9480   22.4740 O   0  0  0  0  0  0  0  0  0  0  0  0
  -25.1170  -34.1760   25.1900 H   0  0  0  0  0  0  0  0  0  0  0  0
  -24.2590  -36.9270   23.4010 C   0  0  0  0  0  1  0  0  0  0  0  0
  -25.5530  -36.4590   24.0850 C   0  0  0  0  0  3  0  0  0  0  0  0
  -27.7950  -37.2400   24.7150 C   0  0  0  0  0  1  0  0  0  0  0  0
  -26.6150  -37.4710   23.8870 N   0  0  0  0  0  0  0  0  0  0  0  0
  -26.2630  -38.4030   24.0870 H   0  0  0  0  0  0  0  0  0  0  0  0
  -26.3970  -31.7760   25.1690 C   0  0  1  0  0  0  0  0  0  0  0  0
  -25.3550  -31.5140   26.2820 C   0  0  0  0  0  1  0  0  0  0  0  0
  -26.9320  -30.4060   24.6870 C   0  0  0  0  0  1  0  0  0  0  0  0
  -27.5950  -32.5220   25.8050 C   0  0  0  0  0  1  0  0  0  0  0  0
  -34.7220  -18.5900   19.6790 C   0  0  0  0  0  2  0  0  0  0  0  0
  -34.2610  -17.4520   20.6140 C   0  0  0  0  0  2  0  0  0  0  0  0
  -33.0580  -16.6370   20.0930 C   0  0  0  0  0  2  0  0  0  0  0  0
  -32.1790  -16.1080   21.2390 C   0  0  0  0  0  2  0  0  0  0  0  0
  -31.7700  -14.6330   21.1050 C   0  0  0  0  0  2  0  0  0  0  0  0
  -30.1930  -13.9940   19.3060 C   0  0  0  0  0  0  0  0  0  0  0  0
  -29.6060  -11.8730   18.2220 C   0  0  0  0  0  2  0  0  0  0  0  0
  -28.4320  -11.9230   17.2380 C   0  0  0  0  0  2  0  0  0  0  0  0
  -27.1050  -11.7160   17.9830 C   0  0  0  0  0  2  0  0  0  0  0  0
  -26.9600  -12.6650   19.2030 C   0  0  0  0  0  3  0  0  0  0  0  0
  -28.2210  -12.6420   20.0930 C   0  0  0  0  0  2  0  0  0  0  0  0
  -29.4060  -12.8960   19.2550 N   0  0  0  0  0  0  0  0  0  0  0  0
  -30.8810  -14.3890   18.3620 O   0  0  0  0  0  0  0  0  0  0  0  0
  -30.4320  -14.3860   20.5640 N   0  0  0  0  0  0  0  0  0  0  0  0
  -29.7650  -14.0300   21.2340 H   0  0  0  0  0  0  0  0  0  0  0  0
  -24.8000  -13.2210   20.4910 C   0  0  0  0  0  0  0  0  0  0  0  0
  -23.8380  -12.4230   21.0510 C   0  0  0  0  0  0  0  0  0  0  0  0
  -24.2610  -11.0780   20.8280 C   0  0  0  0  0  0  0  0  0  0  0  0
  -25.7520  -12.3590   19.9680 N   0  0  0  0  0  0  0  0  0  0  0  0
  -25.4420  -11.0610   20.2240 N   0  0  0  0  0  0  0  0  0  0  0  0
  -23.5830   -9.8040   21.1020 C   0  0  0  0  0  0  0  0  0  0  0  0
  -24.1460   -8.8390   21.9670 C   0  0  0  0  0  3  0  0  0  0  0  0
  -23.4660   -7.6300   22.2310 C   0  0  0  0  0  3  0  0  0  0  0  0
  -22.2100   -7.3770   21.6300 C   0  0  0  0  0  0  0  0  0  0  0  0
  -21.6640   -8.3310   20.7520 C   0  0  0  0  0  3  0  0  0  0  0  0
  -22.3450   -9.5310   20.4880 C   0  0  0  0  0  3  0  0  0  0  0  0
  -21.4910   -6.2200   21.8070 O   0  0  0  0  0  0  0  0  0  0  0  0
  -21.5470   -5.5070   22.9770 C   0  0  0  0  0  0  0  0  0  0  0  0
  -21.1800   -6.0770   24.2150 C   0  0  0  0  0  3  0  0  0  0  0  0
  -21.1870   -5.2900   25.3840 C   0  0  0  0  0  3  0  0  0  0  0  0
  -21.5540   -3.9320   25.3150 C   0  0  0  0  0  0  0  0  0  0  0  0
  -21.9160   -3.3610   24.0820 C   0  0  0  0  0  3  0  0  0  0  0  0
  -21.9100   -4.1470   22.9160 C   0  0  0  0  0  0  0  0  0  0  0  0
  -22.2390   -3.5860   21.7270 F   0  0  0  0  0  0  0  0  0  0  0  0
  -21.5550   -3.1710   26.4350 F   0  0  0  0  0  0  0  0  0  0  0  0
  -22.5480  -12.8780   21.6720 C   0  0  0  0  0  0  0  0  0  0  0  0
  -22.0400  -12.1310   22.6470 N   0  0  0  0  0  0  0  0  0  0  0  0
  -22.0080  -13.9290   21.3280 O   0  0  0  0  0  0  0  0  0  0  0  0
  -22.4960  -11.2820   22.9440 H   0  0  0  0  0  0  0  0  0  0  0  0
  -21.1830  -12.4140   23.1010 H   0  0  0  0  0  0  0  0  0  0  0  0
  -24.9380  -14.5990   20.3670 N   0  0  0  0  0  0  0  0  0  0  0  0
  -24.2330  -15.2500   20.6980 H   0  0  0  0  0  0  0  0  0  0  0  0
  -25.7080  -15.0580   19.8950 H   0  0  0  0  0  0  0  0  0  0  0  0
  3  1  1  0
  4  2  1  0
  4  6  1  0
  5  2  1  0
  5 12  1  0
  5  1  1  0
  6  3  1  0
  6  7  1  1
  8 10  1  0
  9 11  1  0
 10 13  1  0
 12  8  1  0
 12  9  1  0
 13 14  1  0
 13 11  1  0
 15 17  1  0
 15 14  1  0
 16 27  2  0
 17 22  1  0
 18 26  1  0
 18 28  1  0
 19 25  1  0
 19 21  1  0
 20 26  1  0
 21 20  1  0
 22 21  2  0
 23 24  1  0
 23 17  2  0
 24 19  2  0
 25 18  1  0
 26 16  1  0
 28 30  2  0
 29 28  1  0
 31 29  1  0
 32 41  2  0
 32 37  1  0
 33 29  1  0
 34 33  1  0
 35 36  1  0
 35 34  1  0
 36 32  1  0
 37 33  1  0
 37 38  2  0
 38 39  1  0
 40 39  2  0
 41 40  1  0
 42 16  1  0
 42 43  1  0
 42 52  1  0
 43 46  1  0
 44 48  1  0
 44 43  1  0
 45 44  2  0
 48 47  1  0
 50 48  1  0
 50 51  1  0
 50 49  1  0
 52 55  1  1
 52 53  1  0
 54 52  1  0
 56  6  1  0
 56 57  1  0
 58 57  1  0
 58 59  1  0
 60 59  1  0
 61 69  1  0
 62 67  1  0
 63 64  1  0
 63 62  1  0
 65 64  1  0
 65 74  1  0
 65 66  1  0
 67 61  1  0
 67 66  1  0
 68 61  2  0
 69 60  1  0
 69 70  1  0
 71 72  2  0
 72 91  1  0
 73 72  1  0
 73 76  1  0
 74 75  1  0
 74 71  1  0
 75 73  2  0
 76 77  1  0
 77 78  2  0
 79 82  1  0
 79 78  1  0
 80 79  2  0
 81 80  1  0
 81 76  2  0
 82 83  1  0
 83 84  1  0
 84 85  2  0
 86 85  1  0
 86 90  1  0
 87 86  2  0
 88 83  2  0
 88 87  1  0
 89 88  1  0
 91 92  1  0
 92 94  1  0
 92 95  1  0
 93 91  2  0
 96 71  1  0
 96 97  1  0
 98 96  1  0
M  ISO  4  14 101  15 101  61 100  69 100
M  END
>  <TORSDO>  (46) 
F 23

>  <SCORE>  (46) 
-8.047

>  <name>  (46) 
46

>  <ligand_id>  (46) 
46

>  <original_smiles>  (46) 
[H]c1c([H])c([H])c2c(c1[H])C([H])([H])C([H])([H])C([H])([H])C2([H])N([H])C(=O)C1([H])N(C(=O)C([H])(N([H])C(=O)C([H])(N([H])C([H])([H])[H])C([H])([H])[H])C(C([H])([H])[H])(C([H])([H])[H])C([H])([H])[H])C([H])([H])c2c([H])c(OC([H])([H])C3([H])C([H])([H])C([H])([H])C([H])(C4([H])C([H])([H])C([H])([H])[N+]([H])(C([H])([H])C([H])([H])C([H])([H])C([H])([H])C([H])([H])N([H])C(=O)N5C([H])([H])C([H])([H])C([H])([H])C([H])(n6nc(-c7c([H])c([H])c(Oc8c([H])c([H])c(F)c([H])c8F)c([H])c7[H])c(C(=O)N([H])[H])c6N([H])[H])C5([H])[H])C([H])([H])C4([H])[H])C([H])([H])C3([H])[H])c([H])c([H])c2C1([H])[H]

>  <smiles>  (46) 
[H]c1c([H])c([H])c2c(c1[H])C([H])([H])C([H])([H])C([H])([H])C2([H])N([H])C(=O)C1([H])N(C(=O)C([H])(N([H])C(=O)C([H])(N([H])C([H])([H])[H])C([H])([H])[H])C(C([H])([H])[H])(C([H])([H])[H])C([H])([H])[H])C([H])([H])c2c([H])c(OC([H])([H])C3([H])C([H])([H])C([H])([H])C([H])(C4([H])C([H])([H])C([H])([H])[N+]([H])(C([H])([H])C([H])([H])C([H])([H])C([H])([H])C([H])([H])N([H])C(=O)N5C([H])([H])C([H])([H])C([H])([H])C([H])(n6nc(-c7c([H])c([H])c(Oc8c([H])c([H])c(F)c([H])c8F)c([H])c7[H])c(C(=O)N([H])[H])c6N([H])[H])C5([H])[H])C([H])([H])C4([H])[H])C([H])([H])C3([H])[H])c([H])c([H])c2C1([H])[H]

$$$$
47:0:0
     RDKit          3D

 86 94  0  0  1  0  0  0  0  0999 V2000
  -27.7650  -20.7550   20.7720 C   0  0  0  0  0  2  0  0  0  0  0  0
  -29.1410  -21.3540   20.5050 C   0  0  0  0  0  3  0  0  0  0  0  0
  -29.3430  -19.7300   19.8750 C   0  0  0  0  0  3  0  0  0  0  0  0
  -27.8920  -19.6010   20.2690 N   0  0  0  0  0  2  0  0  0  0  0  0
  -28.9840  -23.0160   19.8750 C   0  0  0  0  0  2  0  0  0  0  0  0
  -28.2300  -24.4880   20.5380 C   0  0  0  0  0  2  0  0  0  0  0  0
  -28.3980  -26.0950   20.2900 O   0  0  0  0  0  0  0  0  0  0  0  0
  -24.6770  -31.9360   23.2580 C   0  0  0  0  0  0  0  0  0  0  0  0
  -27.3400  -27.1300   20.2840 C   0  0  0  0  0  0  0  0  0  0  0  0
  -23.5180  -30.5180   21.6120 C   0  0  0  0  0  3  0  0  0  0  0  0
  -25.0030  -28.9350   20.2120 C   0  0  0  0  0  0  0  0  0  0  0  0
  -26.0780  -30.7840   21.4810 C   0  0  0  0  0  2  0  0  0  0  0  0
  -26.1790  -29.3760   20.8350 C   0  0  0  0  0  0  0  0  0  0  0  0
  -27.3450  -28.4960   20.8400 C   0  0  0  0  0  3  0  0  0  0  0  0
  -26.1300  -26.8230   19.6240 C   0  0  0  0  0  3  0  0  0  0  0  0
  -25.0000  -27.6780   19.5880 C   0  0  0  0  0  3  0  0  0  0  0  0
  -23.7690  -29.8330   20.2410 C   0  0  0  0  0  2  0  0  0  0  0  0
  -24.7780  -31.1050   22.1710 N   0  0  0  0  0  0  0  0  0  0  0  0
  -23.5790  -32.2080   23.7700 O   0  0  0  0  0  0  0  0  0  0  0  0
  -22.8340  -29.5110   22.5740 C   0  0  0  0  0  0  0  0  0  0  0  0
  -21.5070  -29.3260   22.4390 N   0  0  0  0  0  0  0  0  0  0  0  0
  -23.5030  -28.8970   23.4090 O   0  0  0  0  0  0  0  0  0  0  0  0
  -21.0220  -29.8710   21.7400 H   0  0  0  0  0  0  0  0  0  0  0  0
  -18.1360  -28.0820   22.9370 C   0  0  0  0  0  0  0  0  0  0  0  0
  -20.6930  -28.3780   23.2060 C   0  0  0  0  0  3  0  0  0  0  0  0
  -20.8130  -26.9480   22.6270 C   0  0  0  0  0  2  0  0  0  0  0  0
  -19.7150  -26.6140   21.6120 C   0  0  0  0  0  2  0  0  0  0  0  0
  -18.3320  -26.7370   22.2570 C   0  0  0  0  0  2  0  0  0  0  0  0
  -19.2450  -28.8580   23.3700 C   0  0  0  0  0  0  0  0  0  0  0  0
  -19.0070  -30.1130   23.9710 C   0  0  0  0  0  3  0  0  0  0  0  0
  -17.6940  -30.5930   24.1420 C   0  0  0  0  0  3  0  0  0  0  0  0
  -16.6010  -29.8140   23.7240 C   0  0  0  0  0  3  0  0  0  0  0  0
  -16.8240  -28.5610   23.1260 C   0  0  0  0  0  3  0  0  0  0  0  0
  -25.9330  -32.5990   23.8990 C   0  0  0  0  0  3  0  0  0  0  0  0
  -26.4200  -31.8630   25.2100 C   0  0  1  0  0  0  0  0  0  0  0  0
  -25.3000  -31.6400   26.2530 C   0  0  0  0  0  1  0  0  0  0  0  0
  -27.0290  -30.4830   24.8740 C   0  0  0  0  0  1  0  0  0  0  0  0
  -27.5440  -32.6860   25.8840 C   0  0  0  0  0  1  0  0  0  0  0  0
  -25.6000  -34.0020   24.2010 N   0  0  0  0  0  0  0  0  0  0  0  0
  -25.9390  -35.0510   23.4400 C   0  0  0  0  0  0  0  0  0  0  0  0
  -26.6280  -34.9400   22.4220 O   0  0  0  0  0  0  0  0  0  0  0  0
  -24.9880  -34.1610   24.9880 H   0  0  0  0  0  0  0  0  0  0  0  0
  -24.2170  -36.8430   23.0300 C   0  0  0  0  0  1  0  0  0  0  0  0
  -25.4380  -36.4440   23.8740 C   0  0  0  0  0  3  0  0  0  0  0  0
  -27.5430  -37.3510   24.7590 C   0  0  0  0  0  1  0  0  0  0  0  0
  -26.4710  -37.4990   23.7780 N   0  0  0  0  0  0  0  0  0  0  0  0
  -26.0570  -38.4200   23.8980 H   0  0  0  0  0  0  0  0  0  0  0  0
  -30.1990  -18.2420   20.3520 C   0  0  0  0  0  2  0  0  0  0  0  0
  -30.6450  -15.3820   19.9990 C   0  0  0  0  0  0  0  0  0  0  0  0
  -30.5590  -12.9740   19.0630 C   0  0  0  0  0  2  0  0  0  0  0  0
  -29.5780  -12.8110   17.8760 C   0  0  0  0  0  2  0  0  0  0  0  0
  -28.1480  -12.5490   18.3800 C   0  0  0  0  0  2  0  0  0  0  0  0
  -27.7580  -13.4900   19.5480 C   0  0  0  0  0  3  0  0  0  0  0  0
  -28.8590  -13.5960   20.6220 C   0  0  0  0  0  2  0  0  0  0  0  0
  -30.0620  -14.0930   19.9370 N   0  0  0  0  0  0  0  0  0  0  0  0
  -31.8590  -15.3910   19.7580 O   0  0  0  0  0  0  0  0  0  0  0  0
  -29.8850  -16.6350   20.1300 N   0  0  0  0  0  0  0  0  0  0  0  0
  -28.8970  -16.4450   20.1970 H   0  0  0  0  0  0  0  0  0  0  0  0
  -25.4240  -14.0400   20.4190 C   0  0  0  0  0  0  0  0  0  0  0  0
  -24.3790  -13.2570   20.8220 C   0  0  0  0  0  0  0  0  0  0  0  0
  -24.8420  -11.9080   20.7450 C   0  0  0  0  0  0  0  0  0  0  0  0
  -26.4540  -13.1690   20.1120 N   0  0  0  0  0  0  0  0  0  0  0  0
  -26.1190  -11.8790   20.3760 N   0  0  0  0  0  0  0  0  0  0  0  0
  -24.1220  -10.6430   20.9420 C   0  0  0  0  0  0  0  0  0  0  0  0
  -24.5600   -9.6820   21.8800 C   0  0  0  0  0  3  0  0  0  0  0  0
  -23.8360   -8.4830   22.0660 C   0  0  0  0  0  3  0  0  0  0  0  0
  -22.6620   -8.2370   21.3140 C   0  0  0  0  0  0  0  0  0  0  0  0
  -22.2450   -9.1880   20.3650 C   0  0  0  0  0  3  0  0  0  0  0  0
  -22.9680  -10.3770   20.1770 C   0  0  0  0  0  3  0  0  0  0  0  0
  -21.9100   -7.0910   21.4100 O   0  0  0  0  0  0  0  0  0  0  0  0
  -21.8270   -6.3820   22.5810 C   0  0  0  0  0  0  0  0  0  0  0  0
  -21.3040   -6.9520   23.7620 C   0  0  0  0  0  3  0  0  0  0  0  0
  -21.1700   -6.1660   24.9240 C   0  0  0  0  0  3  0  0  0  0  0  0
  -21.5490   -4.8110   24.9050 C   0  0  0  0  0  0  0  0  0  0  0  0
  -22.0650   -4.2390   23.7290 C   0  0  0  0  0  3  0  0  0  0  0  0
  -22.2000   -5.0230   22.5690 C   0  0  0  0  0  0  0  0  0  0  0  0
  -22.6770   -4.4610   21.4320 F   0  0  0  0  0  0  0  0  0  0  0  0
  -21.4150   -4.0530   26.0200 F   0  0  0  0  0  0  0  0  0  0  0  0
  -22.9950  -13.7300   21.1580 C   0  0  0  0  0  0  0  0  0  0  0  0
  -22.3010  -13.0180   22.0380 N   0  0  0  0  0  0  0  0  0  0  0  0
  -22.5400  -14.7670   20.6750 O   0  0  0  0  0  0  0  0  0  0  0  0
  -22.6840  -12.1810   22.4490 H   0  0  0  0  0  0  0  0  0  0  0  0
  -21.3730  -13.3170   22.3050 H   0  0  0  0  0  0  0  0  0  0  0  0
  -25.5770  -15.4150   20.2580 N   0  0  0  0  0  0  0  0  0  0  0  0
  -24.8100  -16.0600   20.4120 H   0  0  0  0  0  0  0  0  0  0  0  0
  -26.3940  -15.8630   19.8660 H   0  0  0  0  0  0  0  0  0  0  0  0
  2  5  1  0
  2  1  1  0
  3  4  1  0
  3 48  1  0
  3  2  1  0
  4  1  1  0
  5  6  1  0
  7  6  1  0
  8 19  2  0
  9  7  1  0
  9 14  1  0
 10 18  1  0
 10 20  1  0
 11 17  1  0
 11 13  1  0
 12 18  1  0
 13 14  2  0
 13 12  1  0
 15  9  2  0
 16 15  1  0
 16 11  2  0
 17 10  1  0
 18  8  1  0
 20 22  2  0
 21 20  1  0
 23 21  1  0
 24 33  2  0
 24 29  1  0
 25 21  1  0
 25 29  1  0
 26 25  1  0
 27 28  1  0
 27 26  1  0
 28 24  1  0
 29 30  2  0
 30 31  1  0
 32 31  2  0
 33 32  1  0
 34  8  1  0
 34 39  1  0
 34 35  1  0
 35 38  1  1
 35 36  1  0
 37 35  1  0
 39 42  1  0
 40 44  1  0
 40 39  1  0
 41 40  2  0
 44 43  1  0
 46 44  1  0
 46 47  1  0
 46 45  1  0
 49 57  1  0
 50 55  1  0
 51 52  1  0
 51 50  1  0
 53 52  1  0
 53 62  1  0
 53 54  1  0
 55 49  1  0
 55 54  1  0
 56 49  2  0
 57 58  1  0
 57 48  1  0
 59 60  2  0
 60 79  1  0
 61 60  1  0
 61 64  1  0
 62 63  1  0
 62 59  1  0
 63 61  2  0
 64 65  1  0
 65 66  2  0
 67 70  1  0
 67 66  1  0
 68 67  2  0
 69 68  1  0
 69 64  2  0
 70 71  1  0
 71 72  1  0
 72 73  2  0
 74 73  1  0
 74 78  1  0
 75 74  2  0
 76 71  2  0
 76 75  1  0
 77 76  1  0
 79 80  1  0
 80 83  1  0
 80 82  1  0
 81 79  2  0
 84 85  1  0
 84 59  1  0
 86 84  1  0
M  ISO  4   6 101   7 101  49 100  57 100
M  END
>  <TORSDO>  (47) 
F 19

>  <SCORE>  (47) 
-15.297

>  <name>  (47) 
47

>  <ligand_id>  (47) 
47

>  <original_smiles>  (47) 
[H]C1=NC([H])(C([H])([H])N([H])C(=O)N2C([H])([H])C([H])([H])C([H])([H])C([H])(n3nc(-c4c([H])c([H])c(Oc5c([H])c([H])c(F)c([H])c5F)c([H])c4[H])c(C(=O)N([H])[H])c3N([H])[H])C2([H])[H])C1([H])C([H])([H])C([H])([H])Oc1c([H])c([H])c2c(c1[H])C([H])([H])N(C(=O)C([H])(N([H])C(=O)C([H])(N([H])C([H])([H])[H])C([H])([H])[H])C(C([H])([H])[H])(C([H])([H])[H])C([H])([H])[H])C([H])(C(=O)N([H])C1([H])c3c([H])c([H])c([H])c([H])c3C([H])([H])C([H])([H])C1([H])[H])C2([H])[H]

>  <smiles>  (47) 
[H]C1=NC([H])(C([H])([H])N([H])C(=O)N2C([H])([H])C([H])([H])C([H])([H])C([H])(n3nc(-c4c([H])c([H])c(Oc5c([H])c([H])c(F)c([H])c5F)c([H])c4[H])c(C(=O)N([H])[H])c3N([H])[H])C2([H])[H])C1([H])C([H])([H])C([H])([H])Oc1c([H])c([H])c2c(c1[H])C([H])([H])N(C(=O)C([H])(N([H])C(=O)C([H])(N([H])C([H])([H])[H])C([H])([H])[H])C(C([H])([H])[H])(C([H])([H])[H])C([H])([H])[H])C([H])(C(=O)N([H])C1([H])c3c([H])c([H])c([H])c([H])c3C([H])([H])C([H])([H])C1([H])[H])C2([H])[H]

$$$$
48:0:0
     RDKit          3D

 97106  0  0  1  0  0  0  0  0999 V2000
  -32.0180  -21.4780   18.6250 C   0  0  0  0  0  2  0  0  0  0  0  0
  -30.6410  -20.9930   20.6100 C   0  0  0  0  0  2  0  0  0  0  0  0
  -31.1360  -22.7040   18.2910 C   0  0  0  0  0  2  0  0  0  0  0  0
  -29.7590  -22.2170   20.2880 C   0  0  0  0  0  2  0  0  0  0  0  0
  -31.2140  -20.3650   19.3280 C   0  0  0  0  0  3  0  0  0  0  0  0
  -30.4560  -23.2710   19.4900 N   0  0  2  0  0  4  0  0  0  0  0  0
  -31.1670  -23.6560   20.0940 H   0  0  0  0  0  0  0  0  0  0  0  0
  -32.0770  -19.0910   19.5670 C   0  0  0  0  0  2  0  0  0  0  0  0
  -31.4110  -17.8750   20.2700 C   0  0  0  0  0  2  0  0  0  0  0  0
  -30.7950  -14.5080   20.3630 C   0  0  0  0  0  0  0  0  0  0  0  0
  -30.4700  -12.3360   19.2460 C   0  0  0  0  0  2  0  0  0  0  0  0
  -29.5230  -12.5060   18.0400 C   0  0  0  0  0  2  0  0  0  0  0  0
  -28.0440  -12.3990   18.4670 C   0  0  0  0  0  2  0  0  0  0  0  0
  -27.7140  -13.2320   19.7380 C   0  0  0  0  0  3  0  0  0  0  0  0
  -28.7850  -12.9870   20.8300 C   0  0  0  0  0  2  0  0  0  0  0  0
  -30.0810  -13.3480   20.2400 N   0  0  0  0  0  0  0  0  0  0  0  0
  -32.0020  -14.5170   20.1030 O   0  0  0  0  0  0  0  0  0  0  0  0
  -29.0230  -16.1910   21.0950 C   0  0  0  0  0  2  0  0  0  0  0  0
  -28.2310  -17.3870   20.4920 C   0  0  0  0  0  2  0  0  0  0  0  0
  -29.5940  -17.2870   18.4060 C   0  0  0  0  0  2  0  0  0  0  0  0
  -30.6840  -16.7950   19.3920 C   0  0  0  0  0  3  0  0  0  0  0  0
  -30.1170  -15.6930   20.2260 N   0  0  0  0  0  0  0  0  0  0  0  0
  -28.2480  -17.4030   19.0120 N   0  0  0  0  0  4  0  0  0  0  0  0
  -27.8260  -18.2580   18.6850 H   0  0  0  0  0  0  0  0  0  0  0  0
  -27.6760  -16.6540   18.6540 H   0  0  0  0  0  0  0  0  0  0  0  0
  -25.3140  -13.8820   20.4080 C   0  0  0  0  0  0  0  0  0  0  0  0
  -24.2300  -13.1290   20.7710 C   0  0  0  0  0  0  0  0  0  0  0  0
  -24.6810  -11.7730   20.7760 C   0  0  0  0  0  0  0  0  0  0  0  0
  -26.3560  -12.9850   20.2140 N   0  0  0  0  0  0  0  0  0  0  0  0
  -25.9760  -11.7140   20.4890 N   0  0  0  0  0  0  0  0  0  0  0  0
  -23.9430  -10.5240   20.9800 C   0  0  0  0  0  0  0  0  0  0  0  0
  -24.3640   -9.5660   21.9270 C   0  0  0  0  0  3  0  0  0  0  0  0
  -23.6280   -8.3760   22.1160 C   0  0  0  0  0  3  0  0  0  0  0  0
  -22.4560   -8.1430   21.3580 C   0  0  0  0  0  0  0  0  0  0  0  0
  -22.0530   -9.0910   20.4010 C   0  0  0  0  0  3  0  0  0  0  0  0
  -22.7890  -10.2700   20.2110 C   0  0  0  0  0  3  0  0  0  0  0  0
  -21.6890   -7.0090   21.4590 O   0  0  0  0  0  0  0  0  0  0  0  0
  -21.6330   -6.2770   22.6170 C   0  0  0  0  0  0  0  0  0  0  0  0
  -21.2210   -6.8470   23.8410 C   0  0  0  0  0  3  0  0  0  0  0  0
  -21.1160   -6.0380   24.9920 C   0  0  0  0  0  3  0  0  0  0  0  0
  -21.4100   -4.6640   24.9180 C   0  0  0  0  0  0  0  0  0  0  0  0
  -21.8130   -4.0950   23.6960 C   0  0  0  0  0  3  0  0  0  0  0  0
  -21.9210   -4.8990   22.5490 C   0  0  0  0  0  0  0  0  0  0  0  0
  -22.2910   -4.3410   21.3710 F   0  0  0  0  0  0  0  0  0  0  0  0
  -21.2980   -3.8860   26.0190 F   0  0  0  0  0  0  0  0  0  0  0  0
  -22.8360  -13.6280   21.0210 C   0  0  0  0  0  0  0  0  0  0  0  0
  -22.0880  -12.9670   21.8970 N   0  0  0  0  0  0  0  0  0  0  0  0
  -22.4180  -14.6500   20.4750 O   0  0  0  0  0  0  0  0  0  0  0  0
  -22.4390  -12.1480   22.3700 H   0  0  0  0  0  0  0  0  0  0  0  0
  -21.1570  -13.2940   22.1080 H   0  0  0  0  0  0  0  0  0  0  0  0
  -25.4960  -15.2460   20.2210 N   0  0  0  0  0  0  0  0  0  0  0  0
  -24.7290  -15.8530   20.4930 H   0  0  0  0  0  0  0  0  0  0  0  0
  -26.3920  -15.6230   20.4760 H   0  0  0  0  0  0  0  0  0  0  0  0
  -29.5150  -24.3800   19.1490 C   0  0  0  0  0  2  0  0  0  0  0  0
  -30.1440  -25.8010   18.9600 C   0  0  0  0  0  2  0  0  0  0  0  0
  -29.6050  -26.9410   19.8790 C   0  0  0  0  0  2  0  0  0  0  0  0
  -28.3060  -26.5840   20.3160 O   0  0  0  0  0  0  0  0  0  0  0  0
  -24.5520  -31.8720   23.2750 C   0  0  0  0  0  0  0  0  0  0  0  0
  -27.2390  -27.4380   20.2380 C   0  0  0  0  0  0  0  0  0  0  0  0
  -23.3650  -30.4540   21.6340 C   0  0  0  0  0  3  0  0  0  0  0  0
  -24.8410  -28.9180   20.2300 C   0  0  0  0  0  0  0  0  0  0  0  0
  -25.8920  -30.8270   21.4530 C   0  0  0  0  0  2  0  0  0  0  0  0
  -25.9960  -29.4570   20.8160 C   0  0  0  0  0  0  0  0  0  0  0  0
  -27.2070  -28.7260   20.8160 C   0  0  0  0  0  3  0  0  0  0  0  0
  -26.0670  -26.9020   19.6700 C   0  0  0  0  0  3  0  0  0  0  0  0
  -24.8710  -27.6380   19.6500 C   0  0  0  0  0  3  0  0  0  0  0  0
  -23.5900  -29.7670   20.2610 C   0  0  0  0  0  2  0  0  0  0  0  0
  -24.6210  -31.0620   22.1800 N   0  0  0  0  0  0  0  0  0  0  0  0
  -23.4660  -32.1450   23.8010 O   0  0  0  0  0  0  0  0  0  0  0  0
  -22.7050  -29.4380   22.5940 C   0  0  0  0  0  0  0  0  0  0  0  0
  -21.3810  -29.2600   22.4610 N   0  0  0  0  0  0  0  0  0  0  0  0
  -23.3820  -28.8160   23.4170 O   0  0  0  0  0  0  0  0  0  0  0  0
  -20.8960  -29.8120   21.7680 H   0  0  0  0  0  0  0  0  0  0  0  0
  -17.9970  -28.0930   22.9580 C   0  0  0  0  0  0  0  0  0  0  0  0
  -20.5560  -28.3300   23.2330 C   0  0  0  0  0  3  0  0  0  0  0  0
  -20.6490  -26.8980   22.6600 C   0  0  0  0  0  2  0  0  0  0  0  0
  -19.5450  -26.5820   21.6450 C   0  0  0  0  0  2  0  0  0  0  0  0
  -18.1640  -26.7400   22.2870 C   0  0  0  0  0  2  0  0  0  0  0  0
  -19.1220  -28.8460   23.3900 C   0  0  0  0  0  0  0  0  0  0  0  0
  -18.9130  -30.1130   23.9770 C   0  0  0  0  0  3  0  0  0  0  0  0
  -17.6120  -30.6260   24.1400 C   0  0  0  0  0  3  0  0  0  0  0  0
  -16.5020  -29.8690   23.7260 C   0  0  0  0  0  3  0  0  0  0  0  0
  -16.6960  -28.6050   23.1410 C   0  0  0  0  0  3  0  0  0  0  0  0
  -25.8310  -32.5100   23.9000 C   0  0  0  0  0  3  0  0  0  0  0  0
  -25.5210  -33.9120   24.2080 N   0  0  0  0  0  0  0  0  0  0  0  0
  -25.8700  -34.9530   23.4400 C   0  0  0  0  0  0  0  0  0  0  0  0
  -26.5580  -34.8330   22.4230 O   0  0  0  0  0  0  0  0  0  0  0  0
  -24.9130  -34.0800   24.9980 H   0  0  0  0  0  0  0  0  0  0  0  0
  -24.1600  -36.7470   23.0200 C   0  0  0  0  0  1  0  0  0  0  0  0
  -25.3770  -36.3490   23.8680 C   0  0  0  0  0  3  0  0  0  0  0  0
  -27.4950  -37.2300   24.7460 C   0  0  0  0  0  1  0  0  0  0  0  0
  -26.4190  -37.3940   23.7720 N   0  0  0  0  0  0  0  0  0  0  0  0
  -26.0140  -38.3190   23.8990 H   0  0  0  0  0  0  0  0  0  0  0  0
  -26.3350  -31.7530   25.1900 C   0  0  1  0  0  0  0  0  0  0  0  0
  -25.2330  -31.5240   26.2480 C   0  0  0  0  0  1  0  0  0  0  0  0
  -26.9260  -30.3730   24.8160 C   0  0  0  0  0  1  0  0  0  0  0  0
  -27.4790  -32.5560   25.8550 C   0  0  0  0  0  1  0  0  0  0  0  0
  1  5  1  0
  3  1  1  0
  3  6  1  0
  4  2  1  0
  5  8  1  0
  5  2  1  0
  6  7  1  1
  6  4  1  0
  8  9  1  0
 11 16  1  0
 12 13  1  0
 12 11  1  0
 14 13  1  0
 14 29  1  0
 14 15  1  0
 16 10  1  0
 16 15  1  0
 17 10  2  0
 19 18  1  0
 20 23  1  0
 20 21  1  0
 21 22  1  0
 21  9  1  0
 22 10  1  0
 22 18  1  0
 23 19  1  0
 24 23  1  0
 25 23  1  0
 26 27  2  0
 27 28  1  0
 27 46  1  0
 28 31  1  0
 29 26  1  0
 29 30  1  0
 30 28  2  0
 31 32  1  0
 32 33  2  0
 34 37  1  0
 34 33  1  0
 35 34  2  0
 36 35  1  0
 36 31  2  0
 37 38  1  0
 38 39  1  0
 39 40  2  0
 41 40  1  0
 41 45  1  0
 42 41  2  0
 43 38  2  0
 43 42  1  0
 44 43  1  0
 46 47  1  0
 47 50  1  0
 47 49  1  0
 48 46  2  0
 51 26  1  0
 51 53  1  0
 51 52  1  0
 54  6  1  0
 55 54  1  0
 55 56  1  0
 56 57  1  0
 58 69  2  0
 59 57  1  0
 59 64  1  0
 60 68  1  0
 60 70  1  0
 61 67  1  0
 61 63  1  0
 62 68  1  0
 63 62  1  0
 64 63  2  0
 65 59  2  0
 66 65  1  0
 66 61  2  0
 67 60  1  0
 68 58  1  0
 70 72  2  0
 71 70  1  0
 73 71  1  0
 74 83  2  0
 74 79  1  0
 75 71  1  0
 75 79  1  0
 76 75  1  0
 77 78  1  0
 77 76  1  0
 78 74  1  0
 79 80  2  0
 80 81  1  0
 82 81  2  0
 83 82  1  0
 84 58  1  0
 84 85  1  0
 84 94  1  0
 85 88  1  0
 86 90  1  0
 86 85  1  0
 87 86  2  0
 90 89  1  0
 92 90  1  0
 92 93  1  0
 92 91  1  0
 94 97  1  1
 94 95  1  0
 96 94  1  0
M  ISO  4  10 100  22 100  56 101  57 101
M  END
>  <TORSDO>  (48) 
F 21

>  <SCORE>  (48) 
-13.465

>  <name>  (48) 
48

>  <ligand_id>  (48) 
48

>  <original_smiles>  (48) 
[H]c1c([H])c([H])c2c(c1[H])C([H])([H])C([H])([H])C([H])([H])C2([H])N([H])C(=O)C1([H])N(C(=O)C([H])(N([H])C(=O)C([H])(N([H])C([H])([H])[H])C([H])([H])[H])C(C([H])([H])[H])(C([H])([H])[H])C([H])([H])[H])C([H])([H])c2c([H])c(OC([H])([H])C([H])([H])C([H])([H])[N+]3([H])C([H])([H])C([H])([H])C([H])(C([H])([H])C([H])([H])C4([H])N(C(=O)N5C([H])([H])C([H])([H])C([H])([H])C([H])(n6nc(-c7c([H])c([H])c(Oc8c([H])c([H])c(F)c([H])c8F)c([H])c7[H])c(C(=O)N([H])[H])c6N([H])[H])C5([H])[H])C([H])([H])C([H])([H])[N+]([H])([H])C4([H])[H])C([H])([H])C3([H])[H])c([H])c([H])c2C1([H])[H]

>  <smiles>  (48) 
[H]c1c([H])c([H])c2c(c1[H])C([H])([H])C([H])([H])C([H])([H])C2([H])N([H])C(=O)C1([H])N(C(=O)C([H])(N([H])C(=O)C([H])(N([H])C([H])([H])[H])C([H])([H])[H])C(C([H])([H])[H])(C([H])([H])[H])C([H])([H])[H])C([H])([H])c2c([H])c(OC([H])([H])C([H])([H])C([H])([H])[N+]3([H])C([H])([H])C([H])([H])C([H])(C([H])([H])C([H])([H])C4([H])N(C(=O)N5C([H])([H])C([H])([H])C([H])([H])C([H])(n6nc(-c7c([H])c([H])c(Oc8c([H])c([H])c(F)c([H])c8F)c([H])c7[H])c(C(=O)N([H])[H])c6N([H])[H])C5([H])[H])C([H])([H])C([H])([H])[N+]([H])([H])C4([H])[H])C([H])([H])C3([H])[H])c([H])c([H])c2C1([H])[H]

$$$$
49:0:0
     RDKit          3D

 97105  0  0  1  0  0  0  0  0999 V2000
  -28.3150  -22.3210   19.4930 C   0  0  0  0  0  2  0  0  0  0  0  0
  -25.8750  -18.6180   19.2270 C   0  0  0  0  0  2  0  0  0  0  0  0
  -25.5320  -19.8180   18.3340 C   0  0  0  0  0  2  0  0  0  0  0  0
  -27.3930  -18.4810   19.4170 C   0  0  0  0  0  2  0  0  0  0  0  0
  -26.1460  -21.1080   18.8910 C   0  0  0  0  0  2  0  0  0  0  0  0
  -28.0230  -19.7710   19.9930 C   0  0  0  0  0  3  0  0  0  0  0  0
  -27.6740  -20.9770   19.0740 C   0  0  0  0  0  3  0  0  0  0  0  0
  -29.5460  -19.6160   20.2000 C   0  0  0  0  0  2  0  0  0  0  0  0
  -29.9180  -18.5320   21.1880 C   0  0  0  0  0  3  0  0  0  0  0  0
  -30.7080  -17.4890   20.8910 C   0  0  0  0  0  3  0  0  0  0  0  0
  -31.0910  -16.3940   21.8650 C   0  0  0  0  0  2  0  0  0  0  0  0
  -30.9660  -14.3360   20.4650 C   0  0  0  0  0  0  0  0  0  0  0  0
  -30.5770  -12.2600   19.1910 C   0  0  0  0  0  2  0  0  0  0  0  0
  -29.6400  -12.5040   17.9950 C   0  0  0  0  0  2  0  0  0  0  0  0
  -28.1640  -12.3880   18.4230 C   0  0  0  0  0  2  0  0  0  0  0  0
  -27.8440  -13.2280   19.6870 C   0  0  0  0  0  3  0  0  0  0  0  0
  -28.8830  -12.9540   20.7970 C   0  0  0  0  0  2  0  0  0  0  0  0
  -30.2310  -13.2150   20.2530 N   0  0  0  0  0  0  0  0  0  0  0  0
  -31.9820  -14.6190   19.8210 O   0  0  0  0  0  0  0  0  0  0  0  0
  -30.5250  -15.1150   21.4570 N   0  0  0  0  0  0  0  0  0  0  0  0
  -29.7050  -14.7930   21.9510 H   0  0  0  0  0  0  0  0  0  0  0  0
  -25.4480  -13.8870   20.3660 C   0  0  0  0  0  0  0  0  0  0  0  0
  -24.3650  -13.1390   20.7390 C   0  0  0  0  0  0  0  0  0  0  0  0
  -24.8030  -11.7800   20.7290 C   0  0  0  0  0  0  0  0  0  0  0  0
  -26.4810  -12.9870   20.1560 N   0  0  0  0  0  0  0  0  0  0  0  0
  -26.0940  -11.7140   20.4280 N   0  0  0  0  0  0  0  0  0  0  0  0
  -24.0560  -10.5320   20.9340 C   0  0  0  0  0  0  0  0  0  0  0  0
  -24.4630   -9.5760   21.8890 C   0  0  0  0  0  3  0  0  0  0  0  0
  -23.7190   -8.3920   22.0800 C   0  0  0  0  0  3  0  0  0  0  0  0
  -22.5520   -8.1580   21.3140 C   0  0  0  0  0  0  0  0  0  0  0  0
  -22.1640   -9.1030   20.3480 C   0  0  0  0  0  3  0  0  0  0  0  0
  -22.9080  -10.2780   20.1570 C   0  0  0  0  0  3  0  0  0  0  0  0
  -21.7800   -7.0240   21.4130 O   0  0  0  0  0  0  0  0  0  0  0  0
  -21.6980   -6.3090   22.5800 C   0  0  0  0  0  0  0  0  0  0  0  0
  -21.2740   -6.9020   23.7890 C   0  0  0  0  0  3  0  0  0  0  0  0
  -21.1380   -6.1140   24.9500 C   0  0  0  0  0  3  0  0  0  0  0  0
  -21.4140   -4.7340   24.9020 C   0  0  0  0  0  0  0  0  0  0  0  0
  -21.8310   -4.1420   23.6970 C   0  0  0  0  0  3  0  0  0  0  0  0
  -21.9700   -4.9260   22.5390 C   0  0  0  0  0  0  0  0  0  0  0  0
  -22.3520   -4.3460   21.3760 F   0  0  0  0  0  0  0  0  0  0  0  0
  -21.2750   -3.9760   26.0140 F   0  0  0  0  0  0  0  0  0  0  0  0
  -22.9750  -13.6430   20.9980 C   0  0  0  0  0  0  0  0  0  0  0  0
  -22.2340  -12.9760   21.8770 N   0  0  0  0  0  0  0  0  0  0  0  0
  -22.5530  -14.6640   20.4560 O   0  0  0  0  0  0  0  0  0  0  0  0
  -22.5870  -12.1500   22.3370 H   0  0  0  0  0  0  0  0  0  0  0  0
  -21.3000  -13.2960   22.0930 H   0  0  0  0  0  0  0  0  0  0  0  0
  -25.6380  -15.2520   20.1720 N   0  0  0  0  0  0  0  0  0  0  0  0
  -24.8850  -15.9210   20.2740 H   0  0  0  0  0  0  0  0  0  0  0  0
  -26.5050  -15.6710   19.8620 H   0  0  0  0  0  0  0  0  0  0  0  0
  -27.9490  -22.8260   20.9030 C   0  0  0  0  0  2  0  0  0  0  0  0
  -28.7770  -23.9890   21.2790 N   0  0  0  0  0  4  0  0  0  0  0  0
  -28.8420  -24.5920   20.4710 H   0  0  0  0  0  0  0  0  0  0  0  0
  -29.7050  -23.6770   21.5160 H   0  0  0  0  0  0  0  0  0  0  0  0
  -28.2280  -24.8190   22.3740 C   0  0  0  0  0  2  0  0  0  0  0  0
  -28.9980  -26.1470   22.5500 C   0  0  0  0  0  2  0  0  0  0  0  0
  -29.3910  -26.8360   21.2260 C   0  0  0  0  0  2  0  0  0  0  0  0
  -28.3770  -26.6620   20.2360 O   0  0  0  0  0  0  0  0  0  0  0  0
  -24.5630  -31.9080   23.2550 C   0  0  0  0  0  0  0  0  0  0  0  0
  -27.2370  -27.4320   20.2930 C   0  0  0  0  0  0  0  0  0  0  0  0
  -23.3650  -30.4860   21.6180 C   0  0  0  0  0  3  0  0  0  0  0  0
  -24.8300  -28.9090   20.2500 C   0  0  0  0  0  0  0  0  0  0  0  0
  -25.8890  -30.8330   21.4480 C   0  0  0  0  0  2  0  0  0  0  0  0
  -25.9740  -29.4490   20.8480 C   0  0  0  0  0  0  0  0  0  0  0  0
  -27.1760  -28.7150   20.8810 C   0  0  0  0  0  3  0  0  0  0  0  0
  -26.0770  -26.8990   19.6940 C   0  0  0  0  0  3  0  0  0  0  0  0
  -24.8710  -27.6260   19.6750 C   0  0  0  0  0  3  0  0  0  0  0  0
  -23.5890  -29.7730   20.2550 C   0  0  0  0  0  2  0  0  0  0  0  0
  -24.6220  -31.0910   22.1670 N   0  0  0  0  0  0  0  0  0  0  0  0
  -23.4780  -32.2000   23.7760 O   0  0  0  0  0  0  0  0  0  0  0  0
  -22.6920  -29.4900   22.5870 C   0  0  0  0  0  0  0  0  0  0  0  0
  -21.3650  -29.3360   22.4560 N   0  0  0  0  0  0  0  0  0  0  0  0
  -23.3600  -28.8570   23.4090 O   0  0  0  0  0  0  0  0  0  0  0  0
  -20.8900  -29.8970   21.7620 H   0  0  0  0  0  0  0  0  0  0  0  0
  -17.9590  -28.2530   22.9670 C   0  0  0  0  0  0  0  0  0  0  0  0
  -20.5240  -28.4270   23.2310 C   0  0  0  0  0  3  0  0  0  0  0  0
  -20.5790  -26.9920   22.6560 C   0  0  0  0  0  2  0  0  0  0  0  0
  -19.4640  -26.7040   21.6450 C   0  0  0  0  0  2  0  0  0  0  0  0
  -18.0890  -26.8970   22.2920 C   0  0  0  0  0  2  0  0  0  0  0  0
  -19.1040  -28.9780   23.3920 C   0  0  0  0  0  0  0  0  0  0  0  0
  -18.9290  -30.2500   23.9800 C   0  0  0  0  0  3  0  0  0  0  0  0
  -17.6430  -30.7960   24.1470 C   0  0  0  0  0  3  0  0  0  0  0  0
  -16.5120  -30.0660   23.7400 C   0  0  0  0  0  3  0  0  0  0  0  0
  -16.6710  -28.7970   23.1550 C   0  0  0  0  0  3  0  0  0  0  0  0
  -25.8490  -32.5330   23.8830 C   0  0  0  0  0  3  0  0  0  0  0  0
  -26.3520  -31.7650   25.1660 C   0  0  1  0  0  0  0  0  0  0  0  0
  -25.2500  -31.5410   26.2260 C   0  0  0  0  0  1  0  0  0  0  0  0
  -26.9300  -30.3830   24.7820 C   0  0  0  0  0  1  0  0  0  0  0  0
  -27.5010  -32.5570   25.8330 C   0  0  0  0  0  1  0  0  0  0  0  0
  -25.5490  -33.9350   24.1980 N   0  0  0  0  0  0  0  0  0  0  0  0
  -25.8990  -34.9780   23.4320 C   0  0  0  0  0  0  0  0  0  0  0  0
  -26.5810  -34.8590   22.4100 O   0  0  0  0  0  0  0  0  0  0  0  0
  -24.9470  -34.1030   24.9900 H   0  0  0  0  0  0  0  0  0  0  0  0
  -24.1870  -36.7760   23.0390 C   0  0  0  0  0  1  0  0  0  0  0  0
  -25.4160  -36.3730   23.8690 C   0  0  0  0  0  3  0  0  0  0  0  0
  -27.5500  -37.2500   24.7110 C   0  0  0  0  0  1  0  0  0  0  0  0
  -26.4580  -37.4180   23.7570 N   0  0  0  0  0  0  0  0  0  0  0  0
  -26.0560  -38.3420   23.8930 H   0  0  0  0  0  0  0  0  0  0  0  0
  1 50  1  0
  2  4  1  0
  3  5  1  0
  3  2  1  0
  4  6  1  0
  5  7  1  0
  6  8  1  0
  7  1  1  0
  7  6  1  0
  8  9  1  0
 10  9  2  0
 10 11  1  0
 12 20  1  0
 13 18  1  0
 14 15  1  0
 14 13  1  0
 16 15  1  0
 16 25  1  0
 16 17  1  0
 18 12  1  0
 18 17  1  0
 19 12  2  0
 20 11  1  0
 20 21  1  0
 22 23  2  0
 23 42  1  0
 24 23  1  0
 24 27  1  0
 25 22  1  0
 25 26  1  0
 26 24  2  0
 27 28  1  0
 28 29  2  0
 30 33  1  0
 30 29  1  0
 31 30  2  0
 32 31  1  0
 32 27  2  0
 33 34  1  0
 34 35  1  0
 35 36  2  0
 37 36  1  0
 37 41  1  0
 38 37  2  0
 39 34  2  0
 39 38  1  0
 40 39  1  0
 42 43  1  0
 43 46  1  0
 43 45  1  0
 44 42  2  0
 47 48  1  0
 47 22  1  0
 49 47  1  0
 50 51  1  0
 51 53  1  0
 51 54  1  0
 52 51  1  0
 54 55  1  0
 56 55  1  0
 57 59  1  0
 57 56  1  0
 58 69  2  0
 59 64  1  0
 60 68  1  0
 60 70  1  0
 61 67  1  0
 61 63  1  0
 62 68  1  0
 63 64  2  0
 63 62  1  0
 65 59  2  0
 66 65  1  0
 66 61  2  0
 67 60  1  0
 68 58  1  0
 70 72  2  0
 71 70  1  0
 73 71  1  0
 74 83  2  0
 74 79  1  0
 75 71  1  0
 75 79  1  0
 76 75  1  0
 77 78  1  0
 77 76  1  0
 78 74  1  0
 79 80  2  0
 80 81  1  0
 82 81  2  0
 83 82  1  0
 84 58  1  0
 84 89  1  0
 84 85  1  0
 85 88  1  1
 85 86  1  0
 87 85  1  0
 89 92  1  0
 90 94  1  0
 90 89  1  0
 91 90  2  0
 94 93  1  0
 96 94  1  0
 96 97  1  0
 96 95  1  0
M  ISO  4  12 100  20 100  56 101  57 101
M  END
>  <TORSDO>  (49) 
F 25

>  <SCORE>  (49) 
-11.539

>  <name>  (49) 
49

>  <ligand_id>  (49) 
49

>  <original_smiles>  (49) 
[H]C(=C([H])C([H])([H])C1([H])C([H])([H])C([H])([H])C([H])([H])C([H])([H])C1([H])C([H])([H])C([H])([H])[N+]([H])([H])C([H])([H])C([H])([H])C([H])([H])Oc1c([H])c([H])c2c(c1[H])C([H])([H])N(C(=O)C([H])(N([H])C(=O)C([H])(N([H])C([H])([H])[H])C([H])([H])[H])C(C([H])([H])[H])(C([H])([H])[H])C([H])([H])[H])C([H])(C(=O)N([H])C1([H])c3c([H])c([H])c([H])c([H])c3C([H])([H])C([H])([H])C1([H])[H])C2([H])[H])C([H])([H])N([H])C(=O)N1C([H])([H])C([H])([H])C([H])([H])C([H])(n2nc(-c3c([H])c([H])c(Oc4c([H])c([H])c(F)c([H])c4F)c([H])c3[H])c(C(=O)N([H])[H])c2N([H])[H])C1([H])[H]

>  <smiles>  (49) 
[H]C(=C([H])C([H])([H])C1([H])C([H])([H])C([H])([H])C([H])([H])C([H])([H])C1([H])C([H])([H])C([H])([H])[N+]([H])([H])C([H])([H])C([H])([H])C([H])([H])Oc1c([H])c([H])c2c(c1[H])C([H])([H])N(C(=O)C([H])(N([H])C(=O)C([H])(N([H])C([H])([H])[H])C([H])([H])[H])C(C([H])([H])[H])(C([H])([H])[H])C([H])([H])[H])C([H])(C(=O)N([H])C1([H])c3c([H])c([H])c([H])c([H])c3C([H])([H])C([H])([H])C1([H])[H])C2([H])[H])C([H])([H])N([H])C(=O)N1C([H])([H])C([H])([H])C([H])([H])C([H])(n2nc(-c3c([H])c([H])c(Oc4c([H])c([H])c(F)c([H])c4F)c([H])c3[H])c(C(=O)N([H])[H])c2N([H])[H])C1([H])[H]

$$$$
50:0:0
     RDKit          3D

 97105  0  0  1  0  0  0  0  0999 V2000
  -31.0200  -24.7000   23.1770 C   0  0  0  0  0  2  0  0  0  0  0  0
  -28.6210  -24.5690   23.8670 C   0  0  0  0  0  2  0  0  0  0  0  0
  -31.3040  -23.3990   23.9420 C   0  0  0  0  0  2  0  0  0  0  0  0
  -28.9140  -23.3030   24.6950 C   0  0  0  0  0  2  0  0  0  0  0  0
  -29.8550  -25.4890   23.8040 C   0  0  0  0  0  3  0  0  0  0  0  0
  -30.1060  -22.5560   24.2110 N   0  0  2  0  0  4  0  0  0  0  0  0
  -29.8370  -22.1570   23.3230 H   0  0  0  0  0  0  0  0  0  0  0  0
  -29.5670  -26.8250   23.0850 C   0  0  0  0  0  2  0  0  0  0  0  0
  -29.0510  -27.8950   24.0560 C   0  0  0  0  0  2  0  0  0  0  0  0
  -27.6680  -27.6310   24.3280 O   0  0  0  0  0  0  0  0  0  0  0  0
  -28.1630  -32.0160   29.9370 C   0  0  0  0  0  0  0  0  0  0  0  0
  -27.0470  -28.3080   25.3540 C   0  0  0  0  0  0  0  0  0  0  0  0
  -26.0030  -30.8120   29.6820 C   0  0  0  0  0  3  0  0  0  0  0  0
  -25.6740  -29.5830   27.4680 C   0  0  0  0  0  0  0  0  0  0  0  0
  -27.4490  -31.3540   27.6510 C   0  0  0  0  0  2  0  0  0  0  0  0
  -26.8800  -30.1120   26.9950 C   0  0  0  0  0  0  0  0  0  0  0  0
  -27.5570  -29.4930   25.9360 C   0  0  0  0  0  3  0  0  0  0  0  0
  -25.8360  -27.7750   25.8430 C   0  0  0  0  0  3  0  0  0  0  0  0
  -25.1450  -28.4060   26.9000 C   0  0  0  0  0  3  0  0  0  0  0  0
  -25.0070  -30.3450   28.5830 C   0  0  0  0  0  2  0  0  0  0  0  0
  -27.2620  -31.4000   29.1160 N   0  0  0  0  0  0  0  0  0  0  0  0
  -27.9350  -32.1400   31.1470 O   0  0  0  0  0  0  0  0  0  0  0  0
  -26.2660  -29.6260   30.6340 C   0  0  0  0  0  0  0  0  0  0  0  0
  -25.2890  -29.3380   31.5070 N   0  0  0  0  0  0  0  0  0  0  0  0
  -27.3150  -28.9800   30.5620 O   0  0  0  0  0  0  0  0  0  0  0  0
  -24.4540  -29.9040   31.4640 H   0  0  0  0  0  0  0  0  0  0  0  0
  -23.2360  -27.5310   33.8700 C   0  0  0  0  0  0  0  0  0  0  0  0
  -25.2920  -28.2440   32.4780 C   0  0  0  0  0  3  0  0  0  0  0  0
  -25.1610  -26.8770   31.7700 C   0  0  0  0  0  2  0  0  0  0  0  0
  -23.7140  -26.3860   31.6620 C   0  0  0  0  0  2  0  0  0  0  0  0
  -23.0830  -26.2630   33.0500 C   0  0  0  0  0  2  0  0  0  0  0  0
  -24.2630  -28.4720   33.5920 C   0  0  0  0  0  0  0  0  0  0  0  0
  -24.3340  -29.6500   34.3660 C   0  0  0  0  0  3  0  0  0  0  0  0
  -23.4060  -29.8960   35.3960 C   0  0  0  0  0  3  0  0  0  0  0  0
  -22.4060  -28.9480   35.6800 C   0  0  0  0  0  3  0  0  0  0  0  0
  -22.3260  -27.7700   34.9190 C   0  0  0  0  0  3  0  0  0  0  0  0
  -29.5040  -32.6130   29.3960 C   0  0  0  0  0  3  0  0  0  0  0  0
  -30.7260  -31.6260   29.5430 C   0  0  1  0  0  0  0  0  0  0  0  0
  -30.9140  -31.0770   30.9780 C   0  0  0  0  0  1  0  0  0  0  0  0
  -30.5750  -30.4230   28.5860 C   0  0  0  0  0  1  0  0  0  0  0  0
  -32.0270  -32.3400   29.1120 C   0  0  0  0  0  1  0  0  0  0  0  0
  -29.7660  -33.8650   30.1240 N   0  0  0  0  0  0  0  0  0  0  0  0
  -29.5740  -35.0930   29.6220 C   0  0  0  0  0  0  0  0  0  0  0  0
  -29.2440  -35.2890   28.4490 O   0  0  0  0  0  0  0  0  0  0  0  0
  -30.0210  -33.7820   31.0960 H   0  0  0  0  0  0  0  0  0  0  0  0
  -28.4280  -36.8460   31.0350 C   0  0  0  0  0  1  0  0  0  0  0  0
  -29.7860  -36.2920   30.5690 C   0  0  0  0  0  3  0  0  0  0  0  0
  -31.9660  -37.0430   29.7100 C   0  0  0  0  0  1  0  0  0  0  0  0
  -30.5740  -37.3920   29.9700 N   0  0  0  0  0  0  0  0  0  0  0  0
  -30.5710  -38.2010   30.5870 H   0  0  0  0  0  0  0  0  0  0  0  0
  -30.4640  -21.4180   25.0980 C   0  0  0  0  0  2  0  0  0  0  0  0
  -30.1610  -20.0640   24.4360 C   0  0  0  0  0  2  0  0  0  0  0  0
  -30.4700  -20.0450   22.9230 C   0  0  0  0  0  2  0  0  0  0  0  0
  -29.2840  -20.4480   22.0400 C   0  0  0  0  0  2  0  0  0  0  0  0
  -29.5380  -20.1120   20.5600 C   0  0  0  0  0  2  0  0  0  0  0  0
  -28.9420  -21.1300   19.5860 C   0  0  0  0  0  2  0  0  0  0  0  0
  -27.8090  -20.5230   18.7540 C   0  0  0  0  0  2  0  0  0  0  0  0
  -27.5540  -21.3330   17.4780 C   0  0  0  0  0  2  0  0  0  0  0  0
  -26.1190  -21.1840   16.9550 C   0  0  0  0  0  2  0  0  0  0  0  0
  -24.9480  -23.3030   16.3100 C   0  0  0  0  0  0  0  0  0  0  0  0
  -22.8130  -24.1030   15.3880 C   0  0  0  0  0  2  0  0  0  0  0  0
  -22.5620  -25.6180   15.3990 C   0  0  0  0  0  2  0  0  0  0  0  0
  -21.9660  -26.0510   16.7480 C   0  0  0  0  0  2  0  0  0  0  0  0
  -22.8170  -25.5490   17.9410 C   0  0  0  0  0  3  0  0  0  0  0  0
  -23.0880  -24.0360   17.8280 C   0  0  0  0  0  2  0  0  0  0  0  0
  -23.6880  -23.7500   16.5130 N   0  0  0  0  0  0  0  0  0  0  0  0
  -25.5870  -23.4920   15.2700 O   0  0  0  0  0  0  0  0  0  0  0  0
  -25.2830  -22.3600   17.2100 N   0  0  0  0  0  0  0  0  0  0  0  0
  -24.6530  -22.2930   18.0000 H   0  0  0  0  0  0  0  0  0  0  0  0
  -22.6390  -26.7370   20.2200 C   0  0  0  0  0  0  0  0  0  0  0  0
  -21.6520  -26.7580   21.1620 C   0  0  0  0  0  0  0  0  0  0  0  0
  -20.6150  -25.9050   20.6690 C   0  0  0  0  0  0  0  0  0  0  0  0
  -22.1930  -25.8890   19.2170 N   0  0  0  0  0  0  0  0  0  0  0  0
  -20.9840  -25.3500   19.5230 N   0  0  0  0  0  0  0  0  0  0  0  0
  -19.2740  -25.6300   21.1950 C   0  0  0  0  0  0  0  0  0  0  0  0
  -18.8210  -24.3110   21.4170 C   0  0  0  0  0  3  0  0  0  0  0  0
  -17.5310  -24.0750   21.9370 C   0  0  0  0  0  3  0  0  0  0  0  0
  -16.6780  -25.1610   22.2430 C   0  0  0  0  0  0  0  0  0  0  0  0
  -17.1220  -26.4730   21.9930 C   0  0  0  0  0  3  0  0  0  0  0  0
  -18.4050  -26.7060   21.4720 C   0  0  0  0  0  3  0  0  0  0  0  0
  -15.3980  -25.0280   22.7250 O   0  0  0  0  0  0  0  0  0  0  0  0
  -15.0210  -23.9430   23.4750 C   0  0  0  0  0  0  0  0  0  0  0  0
  -15.6990  -23.5850   24.6600 C   0  0  0  0  0  3  0  0  0  0  0  0
  -15.2380  -22.5030   25.4370 C   0  0  0  0  0  3  0  0  0  0  0  0
  -14.0960  -21.7850   25.0360 C   0  0  0  0  0  0  0  0  0  0  0  0
  -13.4190  -22.1400   23.8550 C   0  0  0  0  0  3  0  0  0  0  0  0
  -13.8800  -23.2180   23.0790 C   0  0  0  0  0  0  0  0  0  0  0  0
  -13.2080  -23.5700   21.9550 F   0  0  0  0  0  0  0  0  0  0  0  0
  -13.6490  -20.7480   25.7850 F   0  0  0  0  0  0  0  0  0  0  0  0
  -21.6200  -27.5940   22.4100 C   0  0  0  0  0  0  0  0  0  0  0  0
  -20.9990  -27.0940   23.4700 N   0  0  0  0  0  0  0  0  0  0  0  0
  -22.1970  -28.6830   22.4610 O   0  0  0  0  0  0  0  0  0  0  0  0
  -20.5390  -26.1950   23.4300 H   0  0  0  0  0  0  0  0  0  0  0  0
  -20.9830  -27.6160   24.3350 H   0  0  0  0  0  0  0  0  0  0  0  0
  -23.8750  -27.3740   20.1190 N   0  0  0  0  0  0  0  0  0  0  0  0
  -24.1940  -28.0510   20.8050 H   0  0  0  0  0  0  0  0  0  0  0  0
  -24.5020  -27.2820   19.3290 H   0  0  0  0  0  0  0  0  0  0  0  0
  1  5  1  0
  1  3  1  0
  2  4  1  0
  3  6  1  0
  5  8  1  0
  5  2  1  0
  6  4  1  0
  6 51  1  0
  6  7  1  6
  8  9  1  0
  9 10  1  0
 10 12  1  0
 11 22  2  0
 12 18  2  0
 12 17  1  0
 13 23  1  0
 14 20  1  0
 15 21  1  0
 16 14  1  0
 16 15  1  0
 17 16  2  0
 18 19  1  0
 19 14  2  0
 20 13  1  0
 21 13  1  0
 21 11  1  0
 23 24  1  0
 25 23  2  0
 26 24  1  0
 27 36  1  0
 28 24  1  0
 28 32  1  0
 29 28  1  0
 30 29  1  0
 30 31  1  0
 31 27  1  0
 32 27  2  0
 32 33  1  0
 33 34  2  0
 34 35  1  0
 36 35  2  0
 37 38  1  0
 37 11  1  0
 37 42  1  0
 38 39  1  1
 40 38  1  0
 41 38  1  0
 42 45  1  0
 43 42  1  0
 43 47  1  0
 44 43  2  0
 47 46  1  0
 48 49  1  0
 49 47  1  0
 49 50  1  0
 52 51  1  0
 53 52  1  0
 54 53  1  0
 55 54  1  0
 56 55  1  0
 57 56  1  0
 58 57  1  0
 59 68  1  0
 59 58  1  0
 60 66  1  0
 60 68  1  0
 61 62  1  0
 61 66  1  0
 62 63  1  0
 64 63  1  0
 64 73  1  0
 65 64  1  0
 66 65  1  0
 67 60  2  0
 68 69  1  0
 70 71  2  0
 71 90  1  0
 72 71  1  0
 72 75  1  0
 73 74  1  0
 73 70  1  0
 74 72  2  0
 75 76  2  0
 75 80  1  0
 76 77  1  0
 77 78  2  0
 78 81  1  0
 79 78  1  0
 80 79  2  0
 81 82  1  0
 82 83  1  0
 83 84  2  0
 85 84  1  0
 85 89  1  0
 86 85  2  0
 87 82  2  0
 87 86  1  0
 88 87  1  0
 90 92  2  0
 90 91  1  0
 91 94  1  0
 93 91  1  0
 95 70  1  0
 95 96  1  0
 97 95  1  0
M  ISO  4   9 101  10 101  60 100  68 100
M  END
>  <TORSDO>  (50) 
F 27

>  <SCORE>  (50) 
5.311

>  <name>  (50) 
50

>  <ligand_id>  (50) 
50

>  <original_smiles>  (50) 
[H]c1c([H])c([H])c2c(c1[H])C([H])([H])C([H])([H])C([H])([H])C2([H])N([H])C(=O)C1([H])N(C(=O)C([H])(N([H])C(=O)C([H])(N([H])C([H])([H])[H])C([H])([H])[H])C(C([H])([H])[H])(C([H])([H])[H])C([H])([H])[H])C([H])([H])c2c([H])c(OC([H])([H])C([H])([H])C3([H])C([H])([H])C([H])([H])[N+]([H])(C([H])([H])C([H])([H])C([H])([H])C([H])([H])C([H])([H])C([H])([H])C([H])([H])C([H])([H])C([H])([H])N([H])C(=O)N4C([H])([H])C([H])([H])C([H])([H])C([H])(n5nc(-c6c([H])c([H])c(Oc7c([H])c([H])c(F)c([H])c7F)c([H])c6[H])c(C(=O)N([H])[H])c5N([H])[H])C4([H])[H])C([H])([H])C3([H])[H])c([H])c([H])c2C1([H])[H]

>  <smiles>  (50) 
[H]c1c([H])c([H])c2c(c1[H])C([H])([H])C([H])([H])C([H])([H])C2([H])N([H])C(=O)C1([H])N(C(=O)C([H])(N([H])C(=O)C([H])(N([H])C([H])([H])[H])C([H])([H])[H])C(C([H])([H])[H])(C([H])([H])[H])C([H])([H])[H])C([H])([H])c2c([H])c(OC([H])([H])C([H])([H])C3([H])C([H])([H])C([H])([H])[N+]([H])(C([H])([H])C([H])([H])C([H])([H])C([H])([H])C([H])([H])C([H])([H])C([H])([H])C([H])([H])C([H])([H])N([H])C(=O)N4C([H])([H])C([H])([H])C([H])([H])C([H])(n5nc(-c6c([H])c([H])c(Oc7c([H])c([H])c(F)c([H])c7F)c([H])c6[H])c(C(=O)N([H])[H])c5N([H])[H])C4([H])[H])C([H])([H])C3([H])[H])c([H])c([H])c2C1([H])[H]

$$$$
51:0:0
     RDKit          3D

 97105  0  0  1  0  0  0  0  0999 V2000
  -32.0230  -21.4450   27.6310 C   0  0  0  0  0  2  0  0  0  0  0  0
  -32.0060  -22.8490   26.9970 C   0  0  0  0  0  2  0  0  0  0  0  0
  -31.0660  -22.8950   25.7830 C   0  0  0  0  0  2  0  0  0  0  0  0
  -31.0890  -24.2160   25.0070 C   0  0  0  0  0  2  0  0  0  0  0  0
  -30.4200  -24.0320   23.6390 C   0  0  0  0  0  2  0  0  0  0  0  0
  -30.2260  -25.3550   22.8740 C   0  0  0  0  0  2  0  0  0  0  0  0
  -29.7740  -25.2160   21.3900 C   0  0  0  0  0  2  0  0  0  0  0  0
  -28.3750  -25.5780   20.8070 C   0  0  0  0  0  2  0  0  0  0  0  0
  -28.4060  -26.7770   20.0330 O   0  0  0  0  0  0  0  0  0  0  0  0
  -24.6110  -31.8690   23.2130 C   0  0  0  0  0  0  0  0  0  0  0  0
  -27.2350  -27.4830   20.0700 C   0  0  0  0  0  0  0  0  0  0  0  0
  -23.3970  -30.4880   21.5530 C   0  0  0  0  0  3  0  0  0  0  0  0
  -24.8420  -28.9620   20.1140 C   0  0  0  0  0  0  0  0  0  0  0  0
  -25.9210  -30.8490   21.3580 C   0  0  0  0  0  2  0  0  0  0  0  0
  -26.0010  -29.4870   20.7030 C   0  0  0  0  0  0  0  0  0  0  0  0
  -27.2030  -28.7540   20.6780 C   0  0  0  0  0  3  0  0  0  0  0  0
  -26.0640  -26.9510   19.4950 C   0  0  0  0  0  3  0  0  0  0  0  0
  -24.8670  -27.6900   19.5100 C   0  0  0  0  0  3  0  0  0  0  0  0
  -23.6030  -29.8250   20.1660 C   0  0  0  0  0  2  0  0  0  0  0  0
  -24.6610  -31.0810   22.1010 N   0  0  0  0  0  0  0  0  0  0  0  0
  -23.5300  -32.1430   23.7540 O   0  0  0  0  0  0  0  0  0  0  0  0
  -22.7410  -29.4610   22.5020 C   0  0  0  0  0  0  0  0  0  0  0  0
  -21.4130  -29.2990   22.3790 N   0  0  0  0  0  0  0  0  0  0  0  0
  -23.4200  -28.8180   23.3060 O   0  0  0  0  0  0  0  0  0  0  0  0
  -20.9300  -29.8750   21.7060 H   0  0  0  0  0  0  0  0  0  0  0  0
  -18.0240  -28.1350   22.8470 C   0  0  0  0  0  0  0  0  0  0  0  0
  -20.5830  -28.3620   23.1350 C   0  0  0  0  0  3  0  0  0  0  0  0
  -20.6740  -26.9370   22.5430 C   0  0  0  0  0  2  0  0  0  0  0  0
  -19.5730  -26.6360   21.5200 C   0  0  0  0  0  2  0  0  0  0  0  0
  -18.1890  -26.7900   22.1590 C   0  0  0  0  0  2  0  0  0  0  0  0
  -19.1490  -28.8800   23.2890 C   0  0  0  0  0  0  0  0  0  0  0  0
  -18.9440  -30.1420   23.8890 C   0  0  0  0  0  3  0  0  0  0  0  0
  -17.6430  -30.6570   24.0550 C   0  0  0  0  0  3  0  0  0  0  0  0
  -16.5330  -29.9070   23.6300 C   0  0  0  0  0  3  0  0  0  0  0  0
  -16.7230  -28.6490   23.0300 C   0  0  0  0  0  3  0  0  0  0  0  0
  -25.9040  -32.4830   23.8400 C   0  0  0  0  0  3  0  0  0  0  0  0
  -26.4480  -31.6580   25.0690 C   0  0  1  0  0  0  0  0  0  0  0  0
  -25.3760  -31.3680   26.1440 C   0  0  0  0  0  1  0  0  0  0  0  0
  -27.0270  -30.3010   24.6020 C   0  0  0  0  0  1  0  0  0  0  0  0
  -27.6050  -32.4300   25.7480 C   0  0  0  0  0  1  0  0  0  0  0  0
  -25.5900  -33.8630   24.2350 N   0  0  0  0  0  0  0  0  0  0  0  0
  -25.9030  -34.9490   23.5150 C   0  0  0  0  0  0  0  0  0  0  0  0
  -26.5580  -34.8920   22.4710 O   0  0  0  0  0  0  0  0  0  0  0  0
  -25.0030  -33.9810   25.0480 H   0  0  0  0  0  0  0  0  0  0  0  0
  -24.1490  -36.7320   23.2640 C   0  0  0  0  0  1  0  0  0  0  0  0
  -25.4110  -36.3120   24.0340 C   0  0  0  0  0  3  0  0  0  0  0  0
  -27.5590  -37.1810   24.8460 C   0  0  0  0  0  1  0  0  0  0  0  0
  -26.4300  -37.3790   23.9400 N   0  0  0  0  0  0  0  0  0  0  0  0
  -26.0200  -38.2860   24.1420 H   0  0  0  0  0  0  0  0  0  0  0  0
  -32.8980  -20.4440   26.8460 C   0  0  0  0  0  2  0  0  0  0  0  0
  -32.3940  -18.9770   26.8710 C   0  0  0  0  0  2  0  0  0  0  0  0
  -30.2860  -16.9380   24.3520 C   0  0  0  0  0  2  0  0  0  0  0  0
  -32.1580  -18.0900   23.1500 C   0  0  0  0  0  2  0  0  0  0  0  0
  -30.9670  -17.3140   25.6940 C   0  0  0  0  0  2  0  0  0  0  0  0
  -32.8270  -18.3540   24.5070 C   0  0  0  0  0  2  0  0  0  0  0  0
  -31.2960  -16.8180   23.1860 C   0  0  0  0  0  3  0  0  0  0  0  0
  -31.8070  -18.5380   25.5720 N   0  0  2  0  0  4  0  0  0  0  0  0
  -31.1890  -19.2800   25.2810 H   0  0  0  0  0  0  0  0  0  0  0  0
  -30.6210  -16.6140   21.8100 C   0  0  0  0  0  2  0  0  0  0  0  0
  -30.7360  -14.3890   20.6840 C   0  0  0  0  0  0  0  0  0  0  0  0
  -30.4220  -12.2980   19.4070 C   0  0  0  0  0  2  0  0  0  0  0  0
  -29.4880  -12.5210   18.2000 C   0  0  0  0  0  2  0  0  0  0  0  0
  -28.0120  -12.3720   18.6150 C   0  0  0  0  0  2  0  0  0  0  0  0
  -27.6660  -13.1990   19.8820 C   0  0  0  0  0  3  0  0  0  0  0  0
  -28.7010  -12.9370   20.9990 C   0  0  0  0  0  2  0  0  0  0  0  0
  -30.0410  -13.2420   20.4690 N   0  0  0  0  0  0  0  0  0  0  0  0
  -31.7830  -14.6620   20.0870 O   0  0  0  0  0  0  0  0  0  0  0  0
  -30.1880  -15.2370   21.5700 N   0  0  0  0  0  0  0  0  0  0  0  0
  -29.3270  -14.9380   22.0050 H   0  0  0  0  0  0  0  0  0  0  0  0
  -25.2600  -13.8150   20.5680 C   0  0  0  0  0  0  0  0  0  0  0  0
  -24.1830  -13.0440   20.9160 C   0  0  0  0  0  0  0  0  0  0  0  0
  -24.6370  -11.6910   20.8730 C   0  0  0  0  0  0  0  0  0  0  0  0
  -26.3030  -12.9300   20.3380 N   0  0  0  0  0  0  0  0  0  0  0  0
  -25.9290  -11.6460   20.5760 N   0  0  0  0  0  0  0  0  0  0  0  0
  -23.9050  -10.4290   21.0400 C   0  0  0  0  0  0  0  0  0  0  0  0
  -24.3600   -9.4210   21.9190 C   0  0  0  0  0  3  0  0  0  0  0  0
  -23.6280   -8.2250   22.0760 C   0  0  0  0  0  3  0  0  0  0  0  0
  -22.4270   -8.0280   21.3540 C   0  0  0  0  0  0  0  0  0  0  0  0
  -21.9900   -9.0250   20.4650 C   0  0  0  0  0  3  0  0  0  0  0  0
  -22.7220  -10.2130   20.3060 C   0  0  0  0  0  3  0  0  0  0  0  0
  -21.6630   -6.8870   21.4240 O   0  0  0  0  0  0  0  0  0  0  0  0
  -21.6850   -6.0730   22.5280 C   0  0  0  0  0  0  0  0  0  0  0  0
  -21.4010   -6.5640   23.8210 C   0  0  0  0  0  3  0  0  0  0  0  0
  -21.3660   -5.6790   24.9180 C   0  0  0  0  0  3  0  0  0  0  0  0
  -21.6050   -4.3050   24.7230 C   0  0  0  0  0  0  0  0  0  0  0  0
  -21.8820   -3.8150   23.4350 C   0  0  0  0  0  3  0  0  0  0  0  0
  -21.9190   -4.6960   22.3400 C   0  0  0  0  0  0  0  0  0  0  0  0
  -22.1660   -4.2140   21.0980 F   0  0  0  0  0  0  0  0  0  0  0  0
  -21.5630   -3.4540   25.7740 F   0  0  0  0  0  0  0  0  0  0  0  0
  -22.7870  -13.5250   21.1830 C   0  0  0  0  0  0  0  0  0  0  0  0
  -22.0500  -12.8250   22.0380 N   0  0  0  0  0  0  0  0  0  0  0  0
  -22.3560  -14.5560   20.6680 O   0  0  0  0  0  0  0  0  0  0  0  0
  -22.4090  -11.9900   22.4770 H   0  0  0  0  0  0  0  0  0  0  0  0
  -21.1130  -13.1300   22.2590 H   0  0  0  0  0  0  0  0  0  0  0  0
  -25.4350  -15.1850   20.4080 N   0  0  0  0  0  0  0  0  0  0  0  0
  -24.6750  -15.8480   20.5190 H   0  0  0  0  0  0  0  0  0  0  0  0
  -26.2970  -15.6220   20.1040 H   0  0  0  0  0  0  0  0  0  0  0  0
  2  1  1  0
  3  2  1  0
  4  3  1  0
  5  4  1  0
  6  5  1  0
  7  6  1  0
  8  7  1  0
  9 11  1  0
  9  8  1  0
 10 21  2  0
 11 16  1  0
 12 20  1  0
 12 22  1  0
 13 19  1  0
 13 15  1  0
 14 20  1  0
 15 14  1  0
 16 15  2  0
 17 18  1  0
 17 11  2  0
 18 13  2  0
 19 12  1  0
 20 10  1  0
 22 24  2  0
 23 22  1  0
 25 23  1  0
 26 35  2  0
 26 31  1  0
 27 23  1  0
 27 31  1  0
 28 27  1  0
 29 30  1  0
 29 28  1  0
 30 26  1  0
 31 32  2  0
 32 33  1  0
 34 33  2  0
 35 34  1  0
 36 10  1  0
 36 41  1  0
 36 37  1  0
 37 40  1  1
 37 38  1  0
 39 37  1  0
 41 44  1  0
 42 46  1  0
 42 41  1  0
 43 42  2  0
 46 45  1  0
 48 46  1  0
 48 49  1  0
 48 47  1  0
 50 51  1  0
 50  1  1  0
 52 54  1  0
 53 56  1  0
 53 55  1  0
 55 57  1  0
 56 59  1  0
 56 52  1  0
 57 54  1  0
 57 51  1  0
 57 58  1  6
 60 68  1  0
 61 66  1  0
 62 63  1  0
 62 61  1  0
 64 63  1  0
 64 73  1  0
 64 65  1  0
 66 60  1  0
 66 65  1  0
 67 60  2  0
 68 59  1  0
 68 69  1  0
 70 71  2  0
 71 90  1  0
 72 71  1  0
 72 75  1  0
 73 70  1  0
 73 74  1  0
 74 72  2  0
 75 76  1  0
 76 77  2  0
 78 81  1  0
 78 77  1  0
 79 78  2  0
 80 79  1  0
 80 75  2  0
 81 82  1  0
 82 83  1  0
 83 84  2  0
 85 84  1  0
 85 89  1  0
 86 85  2  0
 87 82  2  0
 87 86  1  0
 88 87  1  0
 90 91  1  0
 91 94  1  0
 91 93  1  0
 92 90  2  0
 95 96  1  0
 95 70  1  0
 97 95  1  0
M  ISO  4   8 101   9 101  60 100  68 100
M  END
>  <TORSDO>  (51) 
F 27

>  <SCORE>  (51) 
38.499

>  <name>  (51) 
51

>  <ligand_id>  (51) 
51

>  <original_smiles>  (51) 
[H]c1c([H])c([H])c2c(c1[H])C([H])([H])C([H])([H])C([H])([H])C2([H])N([H])C(=O)C1([H])N(C(=O)C([H])(N([H])C(=O)C([H])(N([H])C([H])([H])[H])C([H])([H])[H])C(C([H])([H])[H])(C([H])([H])[H])C([H])([H])[H])C([H])([H])c2c([H])c(OC([H])([H])C([H])([H])C([H])([H])C([H])([H])C([H])([H])C([H])([H])C([H])([H])C([H])([H])C([H])([H])C([H])([H])[N+]3([H])C([H])([H])C([H])([H])C([H])(C([H])([H])N([H])C(=O)N4C([H])([H])C([H])([H])C([H])([H])C([H])(n5nc(-c6c([H])c([H])c(Oc7c([H])c([H])c(F)c([H])c7F)c([H])c6[H])c(C(=O)N([H])[H])c5N([H])[H])C4([H])[H])C([H])([H])C3([H])[H])c([H])c([H])c2C1([H])[H]

>  <smiles>  (51) 
[H]c1c([H])c([H])c2c(c1[H])C([H])([H])C([H])([H])C([H])([H])C2([H])N([H])C(=O)C1([H])N(C(=O)C([H])(N([H])C(=O)C([H])(N([H])C([H])([H])[H])C([H])([H])[H])C(C([H])([H])[H])(C([H])([H])[H])C([H])([H])[H])C([H])([H])c2c([H])c(OC([H])([H])C([H])([H])C([H])([H])C([H])([H])C([H])([H])C([H])([H])C([H])([H])C([H])([H])C([H])([H])C([H])([H])[N+]3([H])C([H])([H])C([H])([H])C([H])(C([H])([H])N([H])C(=O)N4C([H])([H])C([H])([H])C([H])([H])C([H])(n5nc(-c6c([H])c([H])c(Oc7c([H])c([H])c(F)c([H])c7F)c([H])c6[H])c(C(=O)N([H])[H])c5N([H])[H])C4([H])[H])C([H])([H])C3([H])[H])c([H])c([H])c2C1([H])[H]

$$$$
52:0:0
     RDKit          3D

102110  0  0  1  0  0  0  0  0999 V2000
  -31.1140  -26.5110   22.6710 C   0  0  0  0  0  0  0  0  0  0  0  0
  -31.5100  -26.4880   23.9570 C   0  0  0  0  0  3  0  0  0  0  0  0
  -32.1520  -26.3120   21.5670 C   0  0  0  0  0  2  0  0  0  0  0  0
  -29.6640  -26.6630   22.1970 C   0  0  0  0  0  2  0  0  0  0  0  0
  -32.0680  -27.3550   20.4210 C   0  0  0  0  0  2  0  0  0  0  0  0
  -30.6320  -27.8540   20.0730 C   0  0  0  0  0  3  0  0  0  0  0  0
  -29.6000  -26.8460   20.6610 C   0  0  0  0  0  3  0  0  0  0  0  0
  -30.4390  -29.3290   20.4720 C   0  0  0  0  0  0  0  0  0  0  0  0
  -30.7530  -29.7670   21.6220 N   0  0  0  0  0  0  0  0  0  0  0  0
  -31.1380  -29.0280   22.2010 H   0  0  0  0  0  0  0  0  0  0  0  0
  -30.1890  -31.7440   19.5960 C   0  0  0  0  0  1  0  0  0  0  0  0
  -29.8610  -30.2550   19.3990 C   0  0  0  0  0  2  0  0  0  0  0  0
  -30.7030  -26.6210   25.2380 C   0  0  0  0  0  2  0  0  0  0  0  0
  -29.4710  -25.7100   25.4570 C   0  0  0  0  0  2  0  0  0  0  0  0
  -29.4710  -24.2310   24.9920 C   0  0  0  0  0  2  0  0  0  0  0  0
  -30.7770  -23.4060   25.0310 C   0  0  0  0  0  2  0  0  0  0  0  0
  -30.9800  -22.6640   23.6900 C   0  0  0  0  0  2  0  0  0  0  0  0
  -32.1700  -21.6890   23.6270 C   0  0  0  0  0  2  0  0  0  0  0  0
  -31.9090  -20.3030   24.2480 C   0  0  0  0  0  2  0  0  0  0  0  0
  -30.9920  -19.3880   23.4090 C   0  0  0  0  0  2  0  0  0  0  0  0
  -30.6740  -18.0620   24.1280 C   0  0  0  0  0  2  0  0  0  0  0  0
  -29.9160  -17.0240   23.2740 C   0  0  0  0  0  2  0  0  0  0  0  0
  -30.7580  -16.4450   22.1150 C   0  0  0  0  0  2  0  0  0  0  0  0
  -30.7330  -14.3930   20.6910 C   0  0  0  0  0  0  0  0  0  0  0  0
  -30.4290  -12.3050   19.3990 C   0  0  0  0  0  2  0  0  0  0  0  0
  -29.5000  -12.5290   18.1910 C   0  0  0  0  0  2  0  0  0  0  0  0
  -28.0200  -12.3840   18.6020 C   0  0  0  0  0  2  0  0  0  0  0  0
  -27.6690  -13.1970   19.8740 C   0  0  0  0  0  3  0  0  0  0  0  0
  -28.7010  -12.9330   20.9890 C   0  0  0  0  0  2  0  0  0  0  0  0
  -30.0380  -13.2500   20.4550 N   0  0  0  0  0  0  0  0  0  0  0  0
  -31.7890  -14.6800   20.1190 O   0  0  0  0  0  0  0  0  0  0  0  0
  -30.1830  -15.2030   21.6080 N   0  0  0  0  0  0  0  0  0  0  0  0
  -29.2950  -14.9120   21.9880 H   0  0  0  0  0  0  0  0  0  0  0  0
  -25.2630  -13.8120   20.5610 C   0  0  0  0  0  0  0  0  0  0  0  0
  -24.1880  -13.0440   20.9080 C   0  0  0  0  0  0  0  0  0  0  0  0
  -24.6420  -11.6870   20.8700 C   0  0  0  0  0  0  0  0  0  0  0  0
  -26.3060  -12.9280   20.3280 N   0  0  0  0  0  0  0  0  0  0  0  0
  -25.9350  -11.6430   20.5700 N   0  0  0  0  0  0  0  0  0  0  0  0
  -23.9060  -10.4290   21.0410 C   0  0  0  0  0  0  0  0  0  0  0  0
  -24.3630   -9.4220   21.9190 C   0  0  0  0  0  3  0  0  0  0  0  0
  -23.6300   -8.2270   22.0780 C   0  0  0  0  0  3  0  0  0  0  0  0
  -22.4270   -8.0310   21.3570 C   0  0  0  0  0  0  0  0  0  0  0  0
  -21.9900   -9.0280   20.4670 C   0  0  0  0  0  3  0  0  0  0  0  0
  -22.7230  -10.2140   20.3060 C   0  0  0  0  0  3  0  0  0  0  0  0
  -21.6660   -6.8890   21.4240 O   0  0  0  0  0  0  0  0  0  0  0  0
  -21.6860   -6.0740   22.5270 C   0  0  0  0  0  0  0  0  0  0  0  0
  -21.4030   -6.5640   23.8210 C   0  0  0  0  0  3  0  0  0  0  0  0
  -21.3650   -5.6790   24.9160 C   0  0  0  0  0  3  0  0  0  0  0  0
  -21.6040   -4.3060   24.7220 C   0  0  0  0  0  0  0  0  0  0  0  0
  -21.8820   -3.8150   23.4340 C   0  0  0  0  0  3  0  0  0  0  0  0
  -21.9200   -4.6960   22.3400 C   0  0  0  0  0  0  0  0  0  0  0  0
  -22.1670   -4.2150   21.0980 F   0  0  0  0  0  0  0  0  0  0  0  0
  -21.5620   -3.4550   25.7740 F   0  0  0  0  0  0  0  0  0  0  0  0
  -22.7900  -13.5270   21.1740 C   0  0  0  0  0  0  0  0  0  0  0  0
  -22.0540  -12.8320   22.0310 N   0  0  0  0  0  0  0  0  0  0  0  0
  -22.3600  -14.5590   20.6580 O   0  0  0  0  0  0  0  0  0  0  0  0
  -22.4130  -12.0010   22.4770 H   0  0  0  0  0  0  0  0  0  0  0  0
  -21.1170  -13.1400   22.2500 H   0  0  0  0  0  0  0  0  0  0  0  0
  -25.4430  -15.1850   20.4070 N   0  0  0  0  0  0  0  0  0  0  0  0
  -24.6840  -15.8470   20.5220 H   0  0  0  0  0  0  0  0  0  0  0  0
  -26.3070  -15.6250   20.1200 H   0  0  0  0  0  0  0  0  0  0  0  0
  -28.3520  -26.6510   19.9950 O   0  0  0  0  0  0  0  0  0  0  0  0
  -24.6160  -31.8770   23.2140 C   0  0  0  0  0  0  0  0  0  0  0  0
  -27.2400  -27.4500   20.1210 C   0  0  0  0  0  0  0  0  0  0  0  0
  -23.4040  -30.4950   21.5540 C   0  0  0  0  0  3  0  0  0  0  0  0
  -24.8520  -28.9550   20.1240 C   0  0  0  0  0  0  0  0  0  0  0  0
  -25.9330  -30.8190   21.3930 C   0  0  0  0  0  2  0  0  0  0  0  0
  -26.0000  -29.4510   20.7560 C   0  0  0  0  0  0  0  0  0  0  0  0
  -27.1780  -28.6820   20.7990 C   0  0  0  0  0  3  0  0  0  0  0  0
  -26.0800  -26.9650   19.4830 C   0  0  0  0  0  3  0  0  0  0  0  0
  -24.8780  -27.6990   19.4970 C   0  0  0  0  0  3  0  0  0  0  0  0
  -23.6190  -29.8280   20.1680 C   0  0  0  0  0  2  0  0  0  0  0  0
  -24.6650  -31.0870   22.1050 N   0  0  0  0  0  0  0  0  0  0  0  0
  -23.5340  -32.1570   23.7510 O   0  0  0  0  0  0  0  0  0  0  0  0
  -22.7380  -29.4720   22.5020 C   0  0  0  0  0  0  0  0  0  0  0  0
  -21.4130  -29.3060   22.3700 N   0  0  0  0  0  0  0  0  0  0  0  0
  -23.4130  -28.8290   23.3080 O   0  0  0  0  0  0  0  0  0  0  0  0
  -20.9300  -29.8600   21.6770 H   0  0  0  0  0  0  0  0  0  0  0  0
  -18.0270  -28.1410   22.8500 C   0  0  0  0  0  0  0  0  0  0  0  0
  -20.5840  -28.3700   23.1320 C   0  0  0  0  0  3  0  0  0  0  0  0
  -20.6740  -26.9440   22.5420 C   0  0  0  0  0  2  0  0  0  0  0  0
  -19.5720  -26.6410   21.5210 C   0  0  0  0  0  2  0  0  0  0  0  0
  -18.1890  -26.7970   22.1610 C   0  0  0  0  0  2  0  0  0  0  0  0
  -19.1510  -28.8860   23.2910 C   0  0  0  0  0  0  0  0  0  0  0  0
  -18.9440  -30.1440   23.8950 C   0  0  0  0  0  3  0  0  0  0  0  0
  -17.6440  -30.6600   24.0560 C   0  0  0  0  0  3  0  0  0  0  0  0
  -16.5320  -29.9120   23.6340 C   0  0  0  0  0  3  0  0  0  0  0  0
  -16.7260  -28.6520   23.0400 C   0  0  0  0  0  3  0  0  0  0  0  0
  -25.9090  -32.4880   23.8420 C   0  0  0  0  0  3  0  0  0  0  0  0
  -25.5980  -33.8670   24.2340 N   0  0  0  0  0  0  0  0  0  0  0  0
  -25.9110  -34.9510   23.5110 C   0  0  0  0  0  0  0  0  0  0  0  0
  -26.5650  -34.8920   22.4650 O   0  0  0  0  0  0  0  0  0  0  0  0
  -25.0060  -33.9780   25.0420 H   0  0  0  0  0  0  0  0  0  0  0  0
  -24.1460  -36.7390   23.2870 C   0  0  0  0  0  1  0  0  0  0  0  0
  -25.4190  -36.3130   24.0350 C   0  0  0  0  0  3  0  0  0  0  0  0
  -27.5610  -37.1970   24.8580 C   0  0  0  0  0  1  0  0  0  0  0  0
  -26.4410  -37.3790   23.9360 N   0  0  0  0  0  0  0  0  0  0  0  0
  -26.0340  -38.2930   24.1190 H   0  0  0  0  0  0  0  0  0  0  0  0
  -26.4620  -31.6650   25.0740 C   0  0  1  0  0  0  0  0  0  0  0  0
  -25.3990  -31.3940   26.1600 C   0  0  0  0  0  1  0  0  0  0  0  0
  -27.0390  -30.3050   24.6250 C   0  0  0  0  0  1  0  0  0  0  0  0
  -27.6370  -32.4260   25.7360 C   0  0  0  0  0  1  0  0  0  0  0  0
  1  2  2  0
  2 13  1  0
  3  1  1  0
  4  1  1  0
  5  3  1  0
  6  5  1  0
  6  8  1  0
  6  7  1  0
  7 62  1  0
  7  4  1  0
  8  9  2  0
  9 10  1  0
 12 11  1  0
 12  8  1  0
 13 14  1  0
 15 16  1  0
 15 14  1  0
 17 16  1  0
 18 17  1  0
 18 19  1  0
 20 21  1  0
 20 19  1  0
 22 21  1  0
 23 22  1  0
 24 32  1  0
 25 30  1  0
 26 27  1  0
 26 25  1  0
 28 27  1  0
 28 37  1  0
 28 29  1  0
 30 24  1  0
 30 29  1  0
 31 24  2  0
 32 33  1  0
 32 23  1  0
 34 35  2  0
 35 54  1  0
 36 35  1  0
 36 39  1  0
 37 34  1  0
 37 38  1  0
 38 36  2  0
 39 40  1  0
 40 41  2  0
 42 45  1  0
 42 41  1  0
 43 42  2  0
 44 43  1  0
 44 39  2  0
 45 46  1  0
 46 47  1  0
 47 48  2  0
 49 48  1  0
 49 53  1  0
 50 49  2  0
 51 46  2  0
 51 50  1  0
 52 51  1  0
 54 55  1  0
 55 58  1  0
 55 57  1  0
 56 54  2  0
 59 60  1  0
 59 34  1  0
 61 59  1  0
 62 64  1  0
 63 74  2  0
 64 69  1  0
 65 73  1  0
 65 75  1  0
 66 72  1  0
 66 68  1  0
 67 73  1  0
 68 69  2  0
 68 67  1  0
 70 71  1  0
 70 64  2  0
 71 66  2  0
 72 65  1  0
 73 63  1  0
 75 77  2  0
 76 75  1  0
 78 76  1  0
 79 88  2  0
 79 84  1  0
 80 76  1  0
 80 84  1  0
 81 80  1  0
 82 83  1  0
 82 81  1  0
 83 79  1  0
 84 85  2  0
 85 86  1  0
 87 86  2  0
 88 87  1  0
 89 63  1  0
 89 90  1  0
 89 99  1  0
 90 93  1  0
 91 95  1  0
 91 90  1  0
 92 91  2  0
 95 94  1  0
 97 95  1  0
 97 98  1  0
 97 96  1  0
 99102  1  1
 99100  1  0
101 99  1  0
M  ISO  4   7 101  24 100  32 100  62 101
M  END
>  <TORSDO>  (52) 
F 29

>  <SCORE>  (52) 
10.293

>  <name>  (52) 
52

>  <ligand_id>  (52) 
52

>  <original_smiles>  (52) 
[H]N=C(C([H])([H])C([H])([H])[H])C1([H])C([H])([H])C([H])([H])C(=C([H])C([H])([H])C([H])([H])C([H])([H])C([H])([H])C([H])([H])C([H])([H])C([H])([H])C([H])([H])C([H])([H])C([H])([H])C([H])([H])N([H])C(=O)N2C([H])([H])C([H])([H])C([H])([H])C([H])(n3nc(-c4c([H])c([H])c(Oc5c([H])c([H])c(F)c([H])c5F)c([H])c4[H])c(C(=O)N([H])[H])c3N([H])[H])C2([H])[H])C([H])([H])C1([H])Oc1c([H])c([H])c2c(c1[H])C([H])([H])N(C(=O)C([H])(N([H])C(=O)C([H])(N([H])C([H])([H])[H])C([H])([H])[H])C(C([H])([H])[H])(C([H])([H])[H])C([H])([H])[H])C([H])(C(=O)N([H])C1([H])c3c([H])c([H])c([H])c([H])c3C([H])([H])C([H])([H])C1([H])[H])C2([H])[H]

>  <smiles>  (52) 
[H]N=C(C([H])([H])C([H])([H])[H])C1([H])C([H])([H])C([H])([H])C(=C([H])C([H])([H])C([H])([H])C([H])([H])C([H])([H])C([H])([H])C([H])([H])C([H])([H])C([H])([H])C([H])([H])C([H])([H])C([H])([H])N([H])C(=O)N2C([H])([H])C([H])([H])C([H])([H])C([H])(n3nc(-c4c([H])c([H])c(Oc5c([H])c([H])c(F)c([H])c5F)c([H])c4[H])c(C(=O)N([H])[H])c3N([H])[H])C2([H])[H])C([H])([H])C1([H])Oc1c([H])c([H])c2c(c1[H])C([H])([H])N(C(=O)C([H])(N([H])C(=O)C([H])(N([H])C([H])([H])[H])C([H])([H])[H])C(C([H])([H])[H])(C([H])([H])[H])C([H])([H])[H])C([H])(C(=O)N([H])C1([H])c3c([H])c([H])c([H])c([H])c3C([H])([H])C([H])([H])C1([H])[H])C2([H])[H]

$$$$
53:0:0
     RDKit          3D

 96105  0  0  1  0  0  0  0  0999 V2000
  -31.1790  -20.2530   24.2780 C   0  0  0  0  0  3  0  0  0  0  0  0
  -31.5970  -21.3640   23.5170 C   0  0  0  0  0  3  0  0  0  0  0  0
  -30.6760  -19.0950   23.6410 C   0  0  0  0  0  3  0  0  0  0  0  0
  -31.4720  -21.2950   22.1190 C   0  0  0  0  0  0  0  0  0  0  0  0
  -30.9530  -20.1690   21.4890 C   0  0  0  0  0  0  0  0  0  0  0  0
  -30.5690  -19.0310   22.2320 C   0  0  0  0  0  0  0  0  0  0  0  0
  -31.8460  -22.3700   21.1360 C   0  0  0  0  0  2  0  0  0  0  0  0
  -30.8710  -20.3780   19.9970 C   0  0  0  0  0  2  0  0  0  0  0  0
  -31.2970  -21.8590   19.7740 C   0  0  0  0  0  3  0  0  0  0  0  0
  -30.1550  -22.6870   19.3080 N   0  0  0  0  0  4  0  0  0  0  0  0
  -29.5040  -22.8190   20.0640 H   0  0  0  0  0  0  0  0  0  0  0  0
  -29.6790  -22.1500   18.6010 H   0  0  0  0  0  0  0  0  0  0  0  0
  -30.5160  -23.9820   18.6730 C   0  0  0  0  0  2  0  0  0  0  0  0
  -30.1830  -25.2220   19.5320 C   0  0  0  0  0  2  0  0  0  0  0  0
  -28.7140  -25.6610   19.4720 C   0  0  0  0  0  2  0  0  0  0  0  0
  -28.5820  -26.8820   20.1980 O   0  0  0  0  0  0  0  0  0  0  0  0
  -24.5620  -31.8850   23.2470 C   0  0  0  0  0  0  0  0  0  0  0  0
  -27.3680  -27.5350   20.1800 C   0  0  0  0  0  0  0  0  0  0  0  0
  -23.4260  -30.4870   21.5510 C   0  0  0  0  0  3  0  0  0  0  0  0
  -24.9420  -28.9890   20.1550 C   0  0  0  0  0  0  0  0  0  0  0  0
  -25.9480  -30.8880   21.4300 C   0  0  0  0  0  2  0  0  0  0  0  0
  -26.0720  -29.5240   20.7840 C   0  0  0  0  0  0  0  0  0  0  0  0
  -27.2830  -28.8010   20.8020 C   0  0  0  0  0  3  0  0  0  0  0  0
  -26.2110  -27.0020   19.5630 C   0  0  0  0  0  3  0  0  0  0  0  0
  -25.0030  -27.7250   19.5490 C   0  0  0  0  0  3  0  0  0  0  0  0
  -23.6870  -29.8320   20.1690 C   0  0  0  0  0  2  0  0  0  0  0  0
  -24.6620  -31.1020   22.1350 N   0  0  0  0  0  0  0  0  0  0  0  0
  -23.4620  -32.1320   23.7580 O   0  0  0  0  0  0  0  0  0  0  0  0
  -22.7650  -29.4400   22.4770 C   0  0  0  0  0  0  0  0  0  0  0  0
  -21.4390  -29.2740   22.3390 N   0  0  0  0  0  0  0  0  0  0  0  0
  -23.4400  -28.7850   23.2750 O   0  0  0  0  0  0  0  0  0  0  0  0
  -20.9570  -29.8560   21.6660 H   0  0  0  0  0  0  0  0  0  0  0  0
  -18.0430  -28.1470   22.8300 C   0  0  0  0  0  0  0  0  0  0  0  0
  -20.6100  -28.3240   23.0780 C   0  0  0  0  0  3  0  0  0  0  0  0
  -20.6670  -26.9190   22.4350 C   0  0  0  0  0  2  0  0  0  0  0  0
  -19.5440  -26.6730   21.4230 C   0  0  0  0  0  2  0  0  0  0  0  0
  -18.1740  -26.8250   22.0920 C   0  0  0  0  0  2  0  0  0  0  0  0
  -19.1870  -28.8580   23.2790 C   0  0  0  0  0  0  0  0  0  0  0  0
  -19.0110  -30.0990   23.9270 C   0  0  0  0  0  3  0  0  0  0  0  0
  -17.7220  -30.6280   24.1340 C   0  0  0  0  0  3  0  0  0  0  0  0
  -16.5920  -29.9110   23.7010 C   0  0  0  0  0  3  0  0  0  0  0  0
  -16.7540  -28.6740   23.0540 C   0  0  0  0  0  3  0  0  0  0  0  0
  -25.8220  -32.5260   23.9110 C   0  0  0  0  0  3  0  0  0  0  0  0
  -25.5030  -33.9300   24.1980 N   0  0  0  0  0  0  0  0  0  0  0  0
  -25.8780  -34.9660   23.4360 C   0  0  0  0  0  0  0  0  0  0  0  0
  -26.6000  -34.8380   22.4430 O   0  0  0  0  0  0  0  0  0  0  0  0
  -24.8750  -34.1030   24.9700 H   0  0  0  0  0  0  0  0  0  0  0  0
  -24.1860  -36.7580   22.9380 C   0  0  0  0  0  1  0  0  0  0  0  0
  -25.3700  -36.3630   23.8370 C   0  0  0  0  0  3  0  0  0  0  0  0
  -27.4500  -37.2520   24.7890 C   0  0  0  0  0  1  0  0  0  0  0  0
  -26.4120  -37.4100   23.7730 N   0  0  0  0  0  0  0  0  0  0  0  0
  -26.0030  -38.3330   23.8790 H   0  0  0  0  0  0  0  0  0  0  0  0
  -26.2820  -31.7750   25.2210 C   0  0  1  0  0  0  0  0  0  0  0  0
  -25.1430  -31.5500   26.2420 C   0  0  0  0  0  1  0  0  0  0  0  0
  -26.8850  -30.3940   24.8730 C   0  0  0  0  0  1  0  0  0  0  0  0
  -27.3980  -32.5830   25.9230 C   0  0  0  0  0  1  0  0  0  0  0  0
  -30.0710  -17.7490   21.5750 C   0  0  0  0  0  2  0  0  0  0  0  0
  -31.0700  -16.5910   21.7590 C   0  0  0  0  0  2  0  0  0  0  0  0
  -31.0680  -14.4130   20.5240 C   0  0  0  0  0  0  0  0  0  0  0  0
  -30.7540  -12.2640   19.3550 C   0  0  0  0  0  2  0  0  0  0  0  0
  -29.8390  -12.4500   18.1300 C   0  0  0  0  0  2  0  0  0  0  0  0
  -28.3560  -12.3270   18.5320 C   0  0  0  0  0  2  0  0  0  0  0  0
  -28.0000  -13.2060   19.7600 C   0  0  0  0  0  3  0  0  0  0  0  0
  -29.0210  -12.9860   20.8970 C   0  0  0  0  0  2  0  0  0  0  0  0
  -30.3680  -13.2610   20.3620 N   0  0  0  0  0  0  0  0  0  0  0  0
  -32.1360  -14.6420   19.9490 O   0  0  0  0  0  0  0  0  0  0  0  0
  -30.5050  -15.3040   21.3520 N   0  0  0  0  0  0  0  0  0  0  0  0
  -29.6230  -15.0390   21.7630 H   0  0  0  0  0  0  0  0  0  0  0  0
  -25.6010  -13.8710   20.4200 C   0  0  0  0  0  0  0  0  0  0  0  0
  -24.5110  -13.1240   20.7780 C   0  0  0  0  0  0  0  0  0  0  0  0
  -24.9420  -11.7620   20.7580 C   0  0  0  0  0  0  0  0  0  0  0  0
  -26.6300  -12.9660   20.2100 N   0  0  0  0  0  0  0  0  0  0  0  0
  -26.2350  -11.6930   20.4670 N   0  0  0  0  0  0  0  0  0  0  0  0
  -24.1860  -10.5160   20.9420 C   0  0  0  0  0  0  0  0  0  0  0  0
  -24.5620   -9.5620   21.9140 C   0  0  0  0  0  3  0  0  0  0  0  0
  -23.8140   -8.3790   22.0830 C   0  0  0  0  0  3  0  0  0  0  0  0
  -22.6720   -8.1410   21.2820 C   0  0  0  0  0  0  0  0  0  0  0  0
  -22.3150   -9.0830   20.3030 C   0  0  0  0  0  3  0  0  0  0  0  0
  -23.0640  -10.2590   20.1300 C   0  0  0  0  0  3  0  0  0  0  0  0
  -21.8980   -7.0080   21.3610 O   0  0  0  0  0  0  0  0  0  0  0  0
  -21.7470   -6.3190   22.5370 C   0  0  0  0  0  0  0  0  0  0  0  0
  -21.2090   -6.9260   23.6930 C   0  0  0  0  0  3  0  0  0  0  0  0
  -21.0080   -6.1610   24.8600 C   0  0  0  0  0  3  0  0  0  0  0  0
  -21.3330   -4.7910   24.8690 C   0  0  0  0  0  0  0  0  0  0  0  0
  -21.8630   -4.1850   23.7160 C   0  0  0  0  0  3  0  0  0  0  0  0
  -22.0670   -4.9470   22.5530 C   0  0  0  0  0  0  0  0  0  0  0  0
  -22.5590   -4.3530   21.4390 F   0  0  0  0  0  0  0  0  0  0  0  0
  -21.1320   -4.0550   25.9870 F   0  0  0  0  0  0  0  0  0  0  0  0
  -23.1210  -13.6330   21.0290 C   0  0  0  0  0  0  0  0  0  0  0  0
  -22.3660  -12.9620   21.8940 N   0  0  0  0  0  0  0  0  0  0  0  0
  -22.7100  -14.6620   20.4920 O   0  0  0  0  0  0  0  0  0  0  0  0
  -22.7070  -12.1290   22.3520 H   0  0  0  0  0  0  0  0  0  0  0  0
  -21.4330  -13.2900   22.1030 H   0  0  0  0  0  0  0  0  0  0  0  0
  -25.8010  -15.2370   20.2370 N   0  0  0  0  0  0  0  0  0  0  0  0
  -25.0500  -15.9130   20.3130 H   0  0  0  0  0  0  0  0  0  0  0  0
  -26.6710  -15.6450   19.9180 H   0  0  0  0  0  0  0  0  0  0  0  0
  2  1  2  0
  3  1  1  0
  4  2  1  0
  5  4  2  0
  5  6  1  0
  6  3  2  0
  7  4  1  0
  8  5  1  0
  9 10  1  0
  9  8  1  0
  9  7  1  0
 10 11  1  0
 12 10  1  0
 13 10  1  0
 13 14  1  0
 15 14  1  0
 15 16  1  0
 17 28  2  0
 18 16  1  0
 18 23  1  0
 19 27  1  0
 19 29  1  0
 20 26  1  0
 20 22  1  0
 21 27  1  0
 22 23  2  0
 22 21  1  0
 24 18  2  0
 25 24  1  0
 25 20  2  0
 26 19  1  0
 27 17  1  0
 29 31  2  0
 30 29  1  0
 32 30  1  0
 33 42  2  0
 33 38  1  0
 34 30  1  0
 34 38  1  0
 35 34  1  0
 36 37  1  0
 36 35  1  0
 37 33  1  0
 38 39  2  0
 39 40  1  0
 41 40  2  0
 42 41  1  0
 43 17  1  0
 43 44  1  0
 43 53  1  0
 44 47  1  0
 45 49  1  0
 45 44  1  0
 46 45  2  0
 49 48  1  0
 51 49  1  0
 51 52  1  0
 51 50  1  0
 53 56  1  1
 53 54  1  0
 55 53  1  0
 57 58  1  0
 57  6  1  0
 59 67  1  0
 60 65  1  0
 61 62  1  0
 61 60  1  0
 63 62  1  0
 63 72  1  0
 63 64  1  0
 65 59  1  0
 65 64  1  0
 66 59  2  0
 67 58  1  0
 67 68  1  0
 69 70  2  0
 70 89  1  0
 71 70  1  0
 71 74  1  0
 72 69  1  0
 72 73  1  0
 73 71  2  0
 74 75  1  0
 75 76  2  0
 77 80  1  0
 77 76  1  0
 78 77  2  0
 79 78  1  0
 79 74  2  0
 80 81  1  0
 81 86  2  0
 81 82  1  0
 82 83  2  0
 83 84  1  0
 84 88  1  0
 85 84  2  0
 86 85  1  0
 87 86  1  0
 89 90  1  0
 90 93  1  0
 90 92  1  0
 91 89  2  0
 94 95  1  0
 94 69  1  0
 96 94  1  0
M  ISO  4  15 101  16 101  59 100  67 100
M  END
>  <TORSDO>  (53) 
F 22

>  <SCORE>  (53) 
-12.506

>  <name>  (53) 
53

>  <ligand_id>  (53) 
53

>  <original_smiles>  (53) 
[H]c1c([H])c([H])c2c(c1[H])C([H])([H])C([H])([H])C([H])([H])C2([H])N([H])C(=O)C1([H])N(C(=O)C([H])(N([H])C(=O)C([H])(N([H])C([H])([H])[H])C([H])([H])[H])C(C([H])([H])[H])(C([H])([H])[H])C([H])([H])[H])C([H])([H])c2c([H])c(OC([H])([H])C([H])([H])C([H])([H])[N+]([H])([H])C3([H])C([H])([H])c4c([H])c([H])c([H])c(C([H])([H])C([H])([H])N([H])C(=O)N5C([H])([H])C([H])([H])C([H])([H])C([H])(n6nc(-c7c([H])c([H])c(Oc8c([H])c([H])c(F)c([H])c8F)c([H])c7[H])c(C(=O)N([H])[H])c6N([H])[H])C5([H])[H])c4C3([H])[H])c([H])c([H])c2C1([H])[H]

>  <smiles>  (53) 
[H]c1c([H])c([H])c2c(c1[H])C([H])([H])C([H])([H])C([H])([H])C2([H])N([H])C(=O)C1([H])N(C(=O)C([H])(N([H])C(=O)C([H])(N([H])C([H])([H])[H])C([H])([H])[H])C(C([H])([H])[H])(C([H])([H])[H])C([H])([H])[H])C([H])([H])c2c([H])c(OC([H])([H])C([H])([H])C([H])([H])[N+]([H])([H])C3([H])C([H])([H])c4c([H])c([H])c([H])c(C([H])([H])C([H])([H])N([H])C(=O)N5C([H])([H])C([H])([H])C([H])([H])C([H])(n6nc(-c7c([H])c([H])c(Oc8c([H])c([H])c(F)c([H])c8F)c([H])c7[H])c(C(=O)N([H])[H])c6N([H])[H])C5([H])[H])c4C3([H])[H])c([H])c([H])c2C1([H])[H]

$$$$
54:0:0
     RDKit          3D

 92100  0  0  1  0  0  0  0  0999 V2000
  -29.8270  -20.3870   20.2590 N   0  0  0  0  0  4  0  0  0  0  0  0
  -29.8990  -20.3080   19.2550 H   0  0  0  0  0  0  0  0  0  0  0  0
  -30.7270  -20.6940   20.5930 H   0  0  0  0  0  0  0  0  0  0  0  0
  -30.1820  -17.9160   19.8900 C   0  0  0  0  0  0  0  0  0  0  0  0
  -30.5490  -17.2360   22.1620 C   0  0  0  0  0  2  0  0  0  0  0  0
  -30.2100  -18.7360   22.1570 C   0  0  0  0  0  2  0  0  0  0  0  0
  -30.9280  -16.8360   20.7180 C   0  0  0  0  0  3  0  0  0  0  0  0
  -29.5670  -19.0120   20.7910 C   0  0  0  0  0  3  0  0  0  0  0  0
  -30.0860  -17.8980   18.6610 O   0  0  0  0  0  0  0  0  0  0  0  0
  -31.1560  -14.4410   19.8770 C   0  0  0  0  0  0  0  0  0  0  0  0
  -30.7840  -12.2550   18.7720 C   0  0  0  0  0  2  0  0  0  0  0  0
  -29.7720  -12.4280   17.6200 C   0  0  0  0  0  2  0  0  0  0  0  0
  -28.3200  -12.3380   18.1320 C   0  0  0  0  0  2  0  0  0  0  0  0
  -28.0690  -13.2180   19.3860 C   0  0  0  0  0  3  0  0  0  0  0  0
  -29.1750  -12.9870   20.4370 C   0  0  0  0  0  2  0  0  0  0  0  0
  -30.4710  -13.2660   19.7930 N   0  0  0  0  0  0  0  0  0  0  0  0
  -32.2650  -14.6100   19.3620 O   0  0  0  0  0  0  0  0  0  0  0  0
  -30.4790  -15.4470   20.4650 N   0  0  0  0  0  0  0  0  0  0  0  0
  -29.5560  -15.2050   20.7880 H   0  0  0  0  0  0  0  0  0  0  0  0
  -25.7490  -13.9240   20.2470 C   0  0  0  0  0  0  0  0  0  0  0  0
  -24.6720  -13.1950   20.6740 C   0  0  0  0  0  0  0  0  0  0  0  0
  -25.0690  -11.8260   20.6020 C   0  0  0  0  0  0  0  0  0  0  0  0
  -26.7370  -12.9990   19.9420 N   0  0  0  0  0  0  0  0  0  0  0  0
  -26.3340  -11.7320   20.2140 N   0  0  0  0  0  0  0  0  0  0  0  0
  -24.3000  -10.5940   20.8210 C   0  0  0  0  0  0  0  0  0  0  0  0
  -24.6850   -9.6480   21.7960 C   0  0  0  0  0  3  0  0  0  0  0  0
  -23.9200   -8.4800   22.0030 C   0  0  0  0  0  3  0  0  0  0  0  0
  -22.7540   -8.2510   21.2350 C   0  0  0  0  0  0  0  0  0  0  0  0
  -22.3880   -9.1840   20.2490 C   0  0  0  0  0  3  0  0  0  0  0  0
  -23.1550  -10.3430   20.0410 C   0  0  0  0  0  3  0  0  0  0  0  0
  -21.9650   -7.1330   21.3460 O   0  0  0  0  0  0  0  0  0  0  0  0
  -21.7900   -6.4930   22.5480 C   0  0  0  0  0  0  0  0  0  0  0  0
  -21.2570   -7.1540   23.6750 C   0  0  0  0  0  3  0  0  0  0  0  0
  -21.0310   -6.4400   24.8670 C   0  0  0  0  0  3  0  0  0  0  0  0
  -21.3260   -5.0650   24.9340 C   0  0  0  0  0  0  0  0  0  0  0  0
  -21.8530   -4.4040   23.8110 C   0  0  0  0  0  3  0  0  0  0  0  0
  -22.0820   -5.1150   22.6200 C   0  0  0  0  0  0  0  0  0  0  0  0
  -22.5680   -4.4690   21.5330 F   0  0  0  0  0  0  0  0  0  0  0  0
  -21.1020   -4.3760   26.0770 F   0  0  0  0  0  0  0  0  0  0  0  0
  -23.3160  -13.7310   21.0340 C   0  0  0  0  0  0  0  0  0  0  0  0
  -22.6140  -13.0670   21.9460 N   0  0  0  0  0  0  0  0  0  0  0  0
  -22.8900  -14.7740   20.5400 O   0  0  0  0  0  0  0  0  0  0  0  0
  -22.9710  -12.2200   22.3640 H   0  0  0  0  0  0  0  0  0  0  0  0
  -21.7070  -13.4080   22.2270 H   0  0  0  0  0  0  0  0  0  0  0  0
  -25.9660  -15.2880   20.0720 N   0  0  0  0  0  0  0  0  0  0  0  0
  -25.2270  -15.9690   20.2070 H   0  0  0  0  0  0  0  0  0  0  0  0
  -26.7970  -15.6850   19.6550 H   0  0  0  0  0  0  0  0  0  0  0  0
  -28.7740  -21.4040   20.5770 C   0  0  0  0  0  2  0  0  0  0  0  0
  -29.2220  -22.9010   20.4610 C   0  0  0  0  0  2  0  0  0  0  0  0
  -28.0500  -23.9420   20.5310 C   0  0  0  0  0  2  0  0  0  0  0  0
  -28.4030  -25.3660   21.0840 C   0  0  0  0  0  2  0  0  0  0  0  0
  -28.3450  -26.4830   20.1690 O   0  0  0  0  0  0  0  0  0  0  0  0
  -24.4960  -31.7450   23.1490 C   0  0  0  0  0  0  0  0  0  0  0  0
  -27.1870  -27.2360   20.1830 C   0  0  0  0  0  0  0  0  0  0  0  0
  -23.3180  -30.3170   21.5080 C   0  0  0  0  0  3  0  0  0  0  0  0
  -24.7960  -28.7580   20.1280 C   0  0  0  0  0  0  0  0  0  0  0  0
  -25.8450  -30.6740   21.3400 C   0  0  0  0  0  2  0  0  0  0  0  0
  -25.9470  -29.2890   20.7250 C   0  0  0  0  0  0  0  0  0  0  0  0
  -27.1470  -28.5370   20.7470 C   0  0  0  0  0  3  0  0  0  0  0  0
  -26.0200  -26.7230   19.5800 C   0  0  0  0  0  3  0  0  0  0  0  0
  -24.8280  -27.4740   19.5530 C   0  0  0  0  0  3  0  0  0  0  0  0
  -23.5520  -29.6200   20.1410 C   0  0  0  0  0  2  0  0  0  0  0  0
  -24.5710  -30.9280   22.0590 N   0  0  0  0  0  0  0  0  0  0  0  0
  -23.4070  -32.0210   23.6730 O   0  0  0  0  0  0  0  0  0  0  0  0
  -22.6560  -29.3070   22.4730 C   0  0  0  0  0  0  0  0  0  0  0  0
  -21.3350  -29.1090   22.3240 N   0  0  0  0  0  0  0  0  0  0  0  0
  -23.3290  -28.7020   23.3110 O   0  0  0  0  0  0  0  0  0  0  0  0
  -20.8530  -29.6550   21.6240 H   0  0  0  0  0  0  0  0  0  0  0  0
  -17.9650  -27.8850   22.7670 C   0  0  0  0  0  0  0  0  0  0  0  0
  -20.5120  -28.1760   23.0950 C   0  0  0  0  0  3  0  0  0  0  0  0
  -20.6460  -26.7350   22.5490 C   0  0  0  0  0  2  0  0  0  0  0  0
  -19.5720  -26.3810   21.5140 C   0  0  0  0  0  2  0  0  0  0  0  0
  -18.1740  -26.5250   22.1210 C   0  0  0  0  0  2  0  0  0  0  0  0
  -19.0650  -28.6660   23.2090 C   0  0  0  0  0  0  0  0  0  0  0  0
  -18.8180  -29.9400   23.7670 C   0  0  0  0  0  3  0  0  0  0  0  0
  -17.5050  -30.4310   23.8900 C   0  0  0  0  0  3  0  0  0  0  0  0
  -16.4190  -29.6470   23.4670 C   0  0  0  0  0  3  0  0  0  0  0  0
  -16.6510  -28.3760   22.9080 C   0  0  0  0  0  3  0  0  0  0  0  0
  -25.7710  -32.3870   23.7780 C   0  0  0  0  0  3  0  0  0  0  0  0
  -25.4530  -33.7820   24.1070 N   0  0  0  0  0  0  0  0  0  0  0  0
  -25.7770  -34.8370   23.3490 C   0  0  0  0  0  0  0  0  0  0  0  0
  -26.4520  -34.7410   22.3210 O   0  0  0  0  0  0  0  0  0  0  0  0
  -24.8610  -33.9320   24.9120 H   0  0  0  0  0  0  0  0  0  0  0  0
  -24.0350  -36.6070   22.9800 C   0  0  0  0  0  1  0  0  0  0  0  0
  -25.2730  -36.2190   23.8040 C   0  0  0  0  0  3  0  0  0  0  0  0
  -27.3920  -37.1280   24.6490 C   0  0  0  0  0  1  0  0  0  0  0  0
  -26.2940  -37.2840   23.6970 N   0  0  0  0  0  0  0  0  0  0  0  0
  -25.8780  -38.1990   23.8430 H   0  0  0  0  0  0  0  0  0  0  0  0
  -26.2890  -31.6170   25.0540 C   0  0  1  0  0  0  0  0  0  0  0  0
  -25.1920  -31.3700   26.1150 C   0  0  0  0  0  1  0  0  0  0  0  0
  -26.8830  -30.2470   24.6530 C   0  0  0  0  0  1  0  0  0  0  0  0
  -27.4280  -32.4190   25.7260 C   0  0  0  0  0  1  0  0  0  0  0  0
  1 48  1  0
  1  3  1  0
  2  1  1  0
  4  7  1  0
  4  8  1  0
  6  5  1  0
  7 18  1  0
  7  5  1  0
  8  1  1  0
  8  6  1  0
  9  4  2  0
 10 18  1  0
 11 16  1  0
 12 13  1  0
 12 11  1  0
 14 13  1  0
 14 23  1  0
 14 15  1  0
 16 10  1  0
 16 15  1  0
 17 10  2  0
 18 19  1  0
 20 21  2  0
 21 40  1  0
 22 21  1  0
 22 25  1  0
 23 24  1  0
 23 20  1  0
 24 22  2  0
 25 26  1  0
 26 27  2  0
 28 31  1  0
 28 27  1  0
 29 28  2  0
 30 29  1  0
 30 25  2  0
 31 32  1  0
 32 37  2  0
 32 33  1  0
 33 34  2  0
 34 35  1  0
 35 39  1  0
 36 35  2  0
 37 36  1  0
 38 37  1  0
 40 41  1  0
 41 44  1  0
 41 43  1  0
 42 40  2  0
 45 46  1  0
 45 20  1  0
 47 45  1  0
 49 50  1  0
 49 48  1  0
 50 51  1  0
 52 54  1  0
 52 51  1  0
 53 64  2  0
 54 59  1  0
 55 63  1  0
 55 65  1  0
 56 62  1  0
 56 58  1  0
 57 63  1  0
 58 59  2  0
 58 57  1  0
 60 54  2  0
 61 60  1  0
 61 56  2  0
 62 55  1  0
 63 53  1  0
 65 67  2  0
 66 65  1  0
 68 66  1  0
 69 78  2  0
 69 74  1  0
 70 66  1  0
 70 74  1  0
 71 70  1  0
 72 73  1  0
 72 71  1  0
 73 69  1  0
 74 75  2  0
 75 76  1  0
 77 76  2  0
 78 77  1  0
 79 53  1  0
 79 80  1  0
 79 89  1  0
 80 83  1  0
 81 85  1  0
 81 80  1  0
 82 81  2  0
 85 84  1  0
 87 85  1  0
 87 88  1  0
 87 86  1  0
 89 92  1  1
 89 90  1  0
 91 89  1  0
M  ISO  4  10 100  18 100  51 101  52 101
M  END
>  <TORSDO>  (54) 
F 21

>  <SCORE>  (54) 
-12.507

>  <name>  (54) 
54

>  <ligand_id>  (54) 
54

>  <original_smiles>  (54) 
[H]c1c([H])c([H])c2c(c1[H])C([H])([H])C([H])([H])C([H])([H])C2([H])N([H])C(=O)C1([H])N(C(=O)C([H])(N([H])C(=O)C([H])(N([H])C([H])([H])[H])C([H])([H])[H])C(C([H])([H])[H])(C([H])([H])[H])C([H])([H])[H])C([H])([H])c2c([H])c(OC([H])([H])C([H])([H])C([H])([H])C([H])([H])[N+]([H])([H])C3([H])C(=O)C([H])(N([H])C(=O)N4C([H])([H])C([H])([H])C([H])([H])C([H])(n5nc(-c6c([H])c([H])c(Oc7c([H])c([H])c(F)c([H])c7F)c([H])c6[H])c(C(=O)N([H])[H])c5N([H])[H])C4([H])[H])C([H])([H])C3([H])[H])c([H])c([H])c2C1([H])[H]

>  <smiles>  (54) 
[H]c1c([H])c([H])c2c(c1[H])C([H])([H])C([H])([H])C([H])([H])C2([H])N([H])C(=O)C1([H])N(C(=O)C([H])(N([H])C(=O)C([H])(N([H])C([H])([H])[H])C([H])([H])[H])C(C([H])([H])[H])(C([H])([H])[H])C([H])([H])[H])C([H])([H])c2c([H])c(OC([H])([H])C([H])([H])C([H])([H])C([H])([H])[N+]([H])([H])C3([H])C(=O)C([H])(N([H])C(=O)N4C([H])([H])C([H])([H])C([H])([H])C([H])(n5nc(-c6c([H])c([H])c(Oc7c([H])c([H])c(F)c([H])c7F)c([H])c6[H])c(C(=O)N([H])[H])c5N([H])[H])C4([H])[H])C([H])([H])C3([H])[H])c([H])c([H])c2C1([H])[H]

$$$$
55:0:0
     RDKit          3D

 91 99  0  0  1  0  0  0  0  0999 V2000
  -28.0740  -23.8490   19.9970 C   0  0  0  0  0  0  0  0  0  0  0  0
  -29.5610  -24.7540   21.5830 C   0  0  0  0  0  2  0  0  0  0  0  0
  -28.2580  -25.1500   20.8420 C   0  0  0  0  0  3  0  0  0  0  0  0
  -28.6720  -22.6230   20.7860 C   0  0  0  0  0  3  0  0  0  0  0  0
  -29.8740  -23.3080   21.3120 N   0  0  0  0  0  4  0  0  0  0  0  0
  -27.5590  -23.8200   18.8720 O   0  0  0  0  0  0  0  0  0  0  0  0
  -30.2260  -22.8460   22.1350 H   0  0  0  0  0  0  0  0  0  0  0  0
  -30.5870  -23.2690   20.6000 H   0  0  0  0  0  0  0  0  0  0  0  0
  -28.3380  -26.4750   20.1610 O   0  0  0  0  0  0  0  0  0  0  0  0
  -24.6000  -31.8750   23.2220 C   0  0  0  0  0  0  0  0  0  0  0  0
  -27.2130  -27.3130   20.1760 C   0  0  0  0  0  0  0  0  0  0  0  0
  -23.3960  -30.4750   21.5830 C   0  0  0  0  0  3  0  0  0  0  0  0
  -24.8470  -28.9190   20.1610 C   0  0  0  0  0  0  0  0  0  0  0  0
  -25.9340  -30.7960   21.3950 C   0  0  0  0  0  2  0  0  0  0  0  0
  -26.0150  -29.4160   20.7530 C   0  0  0  0  0  0  0  0  0  0  0  0
  -27.2030  -28.6260   20.7450 C   0  0  0  0  0  3  0  0  0  0  0  0
  -26.0220  -26.8660   19.5660 C   0  0  0  0  0  3  0  0  0  0  0  0
  -24.8530  -27.6520   19.5560 C   0  0  0  0  0  3  0  0  0  0  0  0
  -23.6100  -29.7960   20.2040 C   0  0  0  0  0  2  0  0  0  0  0  0
  -24.6620  -31.0670   22.1240 N   0  0  0  0  0  0  0  0  0  0  0  0
  -23.5150  -32.1510   23.7560 O   0  0  0  0  0  0  0  0  0  0  0  0
  -22.7340  -29.4590   22.5440 C   0  0  0  0  0  0  0  0  0  0  0  0
  -21.4060  -29.2890   22.4240 N   0  0  0  0  0  0  0  0  0  0  0  0
  -23.4140  -28.8250   23.3560 O   0  0  0  0  0  0  0  0  0  0  0  0
  -20.9160  -29.8500   21.7420 H   0  0  0  0  0  0  0  0  0  0  0  0
  -18.0260  -28.1120   22.9450 C   0  0  0  0  0  0  0  0  0  0  0  0
  -20.5880  -28.3530   23.1960 C   0  0  0  0  0  3  0  0  0  0  0  0
  -20.6760  -26.9240   22.6130 C   0  0  0  0  0  2  0  0  0  0  0  0
  -19.5640  -26.6140   21.6040 C   0  0  0  0  0  2  0  0  0  0  0  0
  -18.1880  -26.7650   22.2600 C   0  0  0  0  0  2  0  0  0  0  0  0
  -19.1530  -28.8650   23.3700 C   0  0  0  0  0  0  0  0  0  0  0  0
  -18.9460  -30.1240   23.9710 C   0  0  0  0  0  3  0  0  0  0  0  0
  -17.6460  -30.6340   24.1490 C   0  0  0  0  0  3  0  0  0  0  0  0
  -16.5340  -29.8790   23.7400 C   0  0  0  0  0  3  0  0  0  0  0  0
  -16.7240  -28.6190   23.1430 C   0  0  0  0  0  3  0  0  0  0  0  0
  -25.8810  -32.5090   23.8450 C   0  0  0  0  0  3  0  0  0  0  0  0
  -26.3940  -31.7400   25.1230 C   0  0  1  0  0  0  0  0  0  0  0  0
  -25.3000  -31.5060   26.1910 C   0  0  0  0  0  1  0  0  0  0  0  0
  -26.9770  -30.3610   24.7360 C   0  0  0  0  0  1  0  0  0  0  0  0
  -27.5470  -32.5320   25.7840 C   0  0  0  0  0  1  0  0  0  0  0  0
  -25.5720  -33.9080   24.1720 N   0  0  0  0  0  0  0  0  0  0  0  0
  -25.9100  -34.9600   23.4150 C   0  0  0  0  0  0  0  0  0  0  0  0
  -26.5820  -34.8540   22.3860 O   0  0  0  0  0  0  0  0  0  0  0  0
  -24.9750  -34.0630   24.9710 H   0  0  0  0  0  0  0  0  0  0  0  0
  -24.1880  -36.7570   23.0510 C   0  0  0  0  0  1  0  0  0  0  0  0
  -25.4230  -36.3500   23.8690 C   0  0  0  0  0  3  0  0  0  0  0  0
  -27.5560  -37.2290   24.7120 C   0  0  0  0  0  1  0  0  0  0  0  0
  -26.4600  -37.4000   23.7620 N   0  0  0  0  0  0  0  0  0  0  0  0
  -26.0570  -38.3220   23.9050 H   0  0  0  0  0  0  0  0  0  0  0  0
  -28.9110  -21.2130   20.0280 C   0  0  0  0  0  2  0  0  0  0  0  0
  -29.5820  -19.9540   20.7830 C   0  0  0  0  0  2  0  0  0  0  0  0
  -29.3050  -18.4420   20.2860 C   0  0  0  0  0  3  0  0  0  0  0  0
  -30.2470  -17.2550   20.8290 C   0  0  0  0  0  3  0  0  0  0  0  0
  -30.5900  -14.6970   20.3780 C   0  0  0  0  0  0  0  0  0  0  0  0
  -30.3720  -12.4510   19.3220 C   0  0  0  0  0  2  0  0  0  0  0  0
  -29.4250  -12.5480   18.1080 C   0  0  0  0  0  2  0  0  0  0  0  0
  -27.9530  -12.3880   18.5420 C   0  0  0  0  0  2  0  0  0  0  0  0
  -27.5940  -13.2590   19.7750 C   0  0  0  0  0  3  0  0  0  0  0  0
  -28.6570  -13.1360   20.8880 C   0  0  0  0  0  2  0  0  0  0  0  0
  -29.9540  -13.4840   20.2930 N   0  0  0  0  0  0  0  0  0  0  0  0
  -31.7710  -14.8140   20.0400 O   0  0  0  0  0  0  0  0  0  0  0  0
  -29.8210  -15.8060   20.6580 N   0  0  0  0  0  0  0  0  0  0  0  0
  -28.8520  -15.6070   20.8540 H   0  0  0  0  0  0  0  0  0  0  0  0
  -25.2050  -13.8540   20.5000 C   0  0  0  0  0  0  0  0  0  0  0  0
  -24.1380  -13.0790   20.8730 C   0  0  0  0  0  0  0  0  0  0  0  0
  -24.6030  -11.7290   20.8460 C   0  0  0  0  0  0  0  0  0  0  0  0
  -26.2490  -12.9730   20.2680 N   0  0  0  0  0  0  0  0  0  0  0  0
  -25.8930  -11.6910   20.5370 N   0  0  0  0  0  0  0  0  0  0  0  0
  -23.8780  -10.4660   21.0400 C   0  0  0  0  0  0  0  0  0  0  0  0
  -24.3160   -9.4990   21.9720 C   0  0  0  0  0  3  0  0  0  0  0  0
  -23.5920   -8.3020   22.1550 C   0  0  0  0  0  3  0  0  0  0  0  0
  -22.4160   -8.0620   21.4050 C   0  0  0  0  0  0  0  0  0  0  0  0
  -21.9960   -9.0180   20.4630 C   0  0  0  0  0  3  0  0  0  0  0  0
  -22.7210  -10.2070   20.2790 C   0  0  0  0  0  3  0  0  0  0  0  0
  -21.6640   -6.9160   21.4960 O   0  0  0  0  0  0  0  0  0  0  0  0
  -21.6230   -6.1700   22.6470 C   0  0  0  0  0  0  0  0  0  0  0  0
  -21.2010   -6.7210   23.8760 C   0  0  0  0  0  3  0  0  0  0  0  0
  -21.1080   -5.9030   25.0200 C   0  0  0  0  0  3  0  0  0  0  0  0
  -21.4280   -4.5340   24.9340 C   0  0  0  0  0  0  0  0  0  0  0  0
  -21.8400   -3.9820   23.7080 C   0  0  0  0  0  3  0  0  0  0  0  0
  -21.9350   -4.7980   22.5680 C   0  0  0  0  0  0  0  0  0  0  0  0
  -22.3150   -4.2580   21.3850 F   0  0  0  0  0  0  0  0  0  0  0  0
  -21.3300   -3.7460   26.0300 F   0  0  0  0  0  0  0  0  0  0  0  0
  -22.7410  -13.5560   21.1440 C   0  0  0  0  0  0  0  0  0  0  0  0
  -22.0140  -12.8590   22.0100 N   0  0  0  0  0  0  0  0  0  0  0  0
  -22.3030  -14.5810   20.6240 O   0  0  0  0  0  0  0  0  0  0  0  0
  -22.3830  -12.0310   22.4520 H   0  0  0  0  0  0  0  0  0  0  0  0
  -21.0760  -13.1580   22.2350 H   0  0  0  0  0  0  0  0  0  0  0  0
  -25.3660  -15.2240   20.3170 N   0  0  0  0  0  0  0  0  0  0  0  0
  -24.5950  -15.8730   20.4240 H   0  0  0  0  0  0  0  0  0  0  0  0
  -26.2060  -15.6610   19.9600 H   0  0  0  0  0  0  0  0  0  0  0  0
  1  4  1  0
  1  3  1  0
  3  9  1  0
  3  2  1  0
  4 50  1  0
  4  5  1  0
  5  2  1  0
  5  7  1  0
  6  1  2  0
  8  5  1  0
  9 11  1  0
 10 21  2  0
 11 16  1  0
 12 20  1  0
 12 22  1  0
 13 19  1  0
 13 15  1  0
 14 20  1  0
 15 14  1  0
 16 15  2  0
 17 11  2  0
 18 17  1  0
 18 13  2  0
 19 12  1  0
 20 10  1  0
 22 24  2  0
 23 22  1  0
 25 23  1  0
 26 35  2  0
 26 31  1  0
 27 23  1  0
 27 31  1  0
 28 27  1  0
 29 30  1  0
 29 28  1  0
 30 26  1  0
 31 32  2  0
 32 33  1  0
 34 33  2  0
 35 34  1  0
 36 10  1  0
 36 41  1  0
 36 37  1  0
 37 40  1  1
 37 38  1  0
 39 37  1  0
 41 44  1  0
 42 46  1  0
 42 41  1  0
 43 42  2  0
 46 45  1  0
 48 46  1  0
 48 49  1  0
 48 47  1  0
 50 51  1  0
 52 51  1  0
 52 53  2  0
 54 62  1  0
 55 60  1  0
 56 57  1  0
 56 55  1  0
 58 57  1  0
 58 67  1  0
 58 59  1  0
 60 54  1  0
 60 59  1  0
 61 54  2  0
 62 53  1  0
 62 63  1  0
 64 65  2  0
 65 84  1  0
 66 65  1  0
 66 69  1  0
 67 64  1  0
 67 68  1  0
 68 66  2  0
 69 70  1  0
 70 71  2  0
 72 75  1  0
 72 71  1  0
 73 72  2  0
 74 73  1  0
 74 69  2  0
 75 76  1  0
 76 77  1  0
 77 78  2  0
 79 78  1  0
 79 83  1  0
 80 79  2  0
 81 76  2  0
 81 80  1  0
 82 81  1  0
 84 85  1  0
 85 88  1  0
 85 87  1  0
 86 84  2  0
 89 90  1  0
 89 64  1  0
 91 89  1  0
M  ISO  4   3 101   9 101  54 100  62 100
M  END
>  <TORSDO>  (55) 
F 20

>  <SCORE>  (55) 
-13.779

>  <name>  (55) 
55

>  <ligand_id>  (55) 
55

>  <original_smiles>  (55) 
[H]c1c([H])c([H])c2c(c1[H])C([H])([H])C([H])([H])C([H])([H])C2([H])N([H])C(=O)C1([H])N(C(=O)C([H])(N([H])C(=O)C([H])(N([H])C([H])([H])[H])C([H])([H])[H])C(C([H])([H])[H])(C([H])([H])[H])C([H])([H])[H])C([H])([H])c2c([H])c(OC3([H])C(=O)C([H])(C([H])([H])C([H])([H])C([H])([H])C([H])([H])N([H])C(=O)N4C([H])([H])C([H])([H])C([H])([H])C([H])(n5nc(-c6c([H])c([H])c(Oc7c([H])c([H])c(F)c([H])c7F)c([H])c6[H])c(C(=O)N([H])[H])c5N([H])[H])C4([H])[H])[N+]([H])([H])C3([H])[H])c([H])c([H])c2C1([H])[H]

>  <smiles>  (55) 
[H]c1c([H])c([H])c2c(c1[H])C([H])([H])C([H])([H])C([H])([H])C2([H])N([H])C(=O)C1([H])N(C(=O)C([H])(N([H])C(=O)C([H])(N([H])C([H])([H])[H])C([H])([H])[H])C(C([H])([H])[H])(C([H])([H])[H])C([H])([H])[H])C([H])([H])c2c([H])c(OC3([H])C(=O)C([H])(C([H])([H])C([H])([H])C([H])([H])C([H])([H])N([H])C(=O)N4C([H])([H])C([H])([H])C([H])([H])C([H])(n5nc(-c6c([H])c([H])c(Oc7c([H])c([H])c(F)c([H])c7F)c([H])c6[H])c(C(=O)N([H])[H])c5N([H])[H])C4([H])[H])[N+]([H])([H])C3([H])[H])c([H])c([H])c2C1([H])[H]

$$$$
56:0:0
     RDKit          3D

 91100  0  0  1  0  0  0  0  0999 V2000
  -29.4780  -18.5410   21.1290 C   0  0  0  0  0  0  0  0  0  0  0  0
  -29.3850  -21.6790   19.7880 C   0  0  0  0  0  0  0  0  0  0  0  0
  -31.3410  -20.3510   21.3290 C   0  0  0  0  0  2  0  0  0  0  0  0
  -31.6620  -20.6380   19.8340 C   0  0  0  0  0  2  0  0  0  0  0  0
  -29.9820  -19.0000   18.7880 C   0  0  0  0  0  2  0  0  0  0  0  0
  -29.8220  -20.0590   21.5380 C   0  0  0  0  0  3  0  0  0  0  0  0
  -30.2660  -17.8740   19.9440 C   0  0  0  0  0  3  0  0  0  0  0  0
  -30.3540  -20.6200   19.0120 C   0  0  0  0  0  3  0  0  0  0  0  0
  -29.0220  -21.2030   20.9360 N   0  0  0  0  0  2  0  0  0  0  0  0
  -28.5930  -17.9120   21.7140 O   0  0  0  0  0  0  0  0  0  0  0  0
  -30.7990  -15.1040   19.6190 C   0  0  0  0  0  0  0  0  0  0  0  0
  -30.6300  -12.7160   18.7370 C   0  0  0  0  0  2  0  0  0  0  0  0
  -29.5940  -12.6100   17.5930 C   0  0  0  0  0  2  0  0  0  0  0  0
  -28.1750  -12.3990   18.1560 C   0  0  0  0  0  2  0  0  0  0  0  0
  -27.8600  -13.3570   19.3350 C   0  0  0  0  0  3  0  0  0  0  0  0
  -29.0070  -13.4150   20.3650 C   0  0  0  0  0  2  0  0  0  0  0  0
  -30.2080  -13.8350   19.6320 N   0  0  0  0  0  0  0  0  0  0  0  0
  -31.9910  -15.1530   19.2970 O   0  0  0  0  0  0  0  0  0  0  0  0
  -30.0140  -16.2950   19.7670 N   0  0  0  0  0  0  0  0  0  0  0  0
  -29.0460  -16.0690   19.9430 H   0  0  0  0  0  0  0  0  0  0  0  0
  -25.5850  -13.9590   20.3350 C   0  0  0  0  0  0  0  0  0  0  0  0
  -24.5400  -13.1960   20.7760 C   0  0  0  0  0  0  0  0  0  0  0  0
  -24.9590  -11.8370   20.6430 C   0  0  0  0  0  0  0  0  0  0  0  0
  -26.5720  -13.0670   19.9560 N   0  0  0  0  0  0  0  0  0  0  0  0
  -26.2130  -11.7820   20.2070 N   0  0  0  0  0  0  0  0  0  0  0  0
  -24.2160  -10.5870   20.8500 C   0  0  0  0  0  0  0  0  0  0  0  0
  -24.6470   -9.6160   21.7800 C   0  0  0  0  0  3  0  0  0  0  0  0
  -23.9030   -8.4310   21.9750 C   0  0  0  0  0  3  0  0  0  0  0  0
  -22.7140   -8.2110   21.2400 C   0  0  0  0  0  0  0  0  0  0  0  0
  -22.3020   -9.1720   20.2980 C   0  0  0  0  0  3  0  0  0  0  0  0
  -23.0460  -10.3460   20.1020 C   0  0  0  0  0  3  0  0  0  0  0  0
  -21.9410   -7.0800   21.3430 O   0  0  0  0  0  0  0  0  0  0  0  0
  -21.8090   -6.4060   22.5310 C   0  0  0  0  0  0  0  0  0  0  0  0
  -21.2560   -7.0180   23.6770 C   0  0  0  0  0  3  0  0  0  0  0  0
  -21.0740   -6.2690   24.8570 C   0  0  0  0  0  3  0  0  0  0  0  0
  -21.4330   -4.9090   24.8890 C   0  0  0  0  0  0  0  0  0  0  0  0
  -21.9770   -4.2960   23.7470 C   0  0  0  0  0  3  0  0  0  0  0  0
  -22.1610   -5.0430   22.5700 C   0  0  0  0  0  0  0  0  0  0  0  0
  -22.6660   -4.4410   21.4660 F   0  0  0  0  0  0  0  0  0  0  0  0
  -21.2510   -4.1860   26.0190 F   0  0  0  0  0  0  0  0  0  0  0  0
  -23.1910  -13.6980   21.1980 C   0  0  0  0  0  0  0  0  0  0  0  0
  -22.5370  -12.9970   22.1190 N   0  0  0  0  0  0  0  0  0  0  0  0
  -22.7290  -14.7450   20.7490 O   0  0  0  0  0  0  0  0  0  0  0  0
  -22.9260  -12.1490   22.5030 H   0  0  0  0  0  0  0  0  0  0  0  0
  -21.6350  -13.3150   22.4450 H   0  0  0  0  0  0  0  0  0  0  0  0
  -25.7670  -15.3320   20.1990 N   0  0  0  0  0  0  0  0  0  0  0  0
  -25.0310  -15.9940   20.4200 H   0  0  0  0  0  0  0  0  0  0  0  0
  -26.5830  -15.7730   19.7960 H   0  0  0  0  0  0  0  0  0  0  0  0
  -29.1600  -23.2750   19.2250 C   0  0  0  0  0  3  0  0  0  0  0  0
  -28.3230  -24.6100   19.9010 C   0  0  0  0  0  2  0  0  0  0  0  0
  -28.4410  -26.1530   19.5560 O   0  0  0  0  0  0  0  0  0  0  0  0
  -24.6810  -31.5920   22.9530 C   0  0  0  0  0  0  0  0  0  0  0  0
  -27.3470  -27.1070   19.6240 C   0  0  0  0  0  0  0  0  0  0  0  0
  -23.4970  -30.2530   21.2570 C   0  0  0  0  0  3  0  0  0  0  0  0
  -24.9670  -28.8000   19.7240 C   0  0  0  0  0  0  0  0  0  0  0  0
  -26.0400  -30.6010   21.0650 C   0  0  0  0  0  2  0  0  0  0  0  0
  -26.1460  -29.2460   20.3360 C   0  0  0  0  0  0  0  0  0  0  0  0
  -27.3370  -28.4200   20.2610 C   0  0  0  0  0  3  0  0  0  0  0  0
  -26.1370  -26.7720   18.9810 C   0  0  0  0  0  3  0  0  0  0  0  0
  -24.9770  -27.5800   19.0300 C   0  0  0  0  0  3  0  0  0  0  0  0
  -23.7150  -29.6590   19.8400 C   0  0  0  0  0  2  0  0  0  0  0  0
  -24.7600  -30.8360   21.8150 N   0  0  0  0  0  0  0  0  0  0  0  0
  -23.5960  -31.8120   23.5150 O   0  0  0  0  0  0  0  0  0  0  0  0
  -22.8650  -29.1740   22.1740 C   0  0  0  0  0  0  0  0  0  0  0  0
  -21.5360  -28.9920   22.0840 N   0  0  0  0  0  0  0  0  0  0  0  0
  -23.5740  -28.5040   22.9300 O   0  0  0  0  0  0  0  0  0  0  0  0
  -21.0170  -29.5860   21.4530 H   0  0  0  0  0  0  0  0  0  0  0  0
  -18.1870  -27.7310   22.6620 C   0  0  0  0  0  0  0  0  0  0  0  0
  -20.7560  -27.9900   22.8180 C   0  0  0  0  0  3  0  0  0  0  0  0
  -20.8320  -26.6080   22.1270 C   0  0  0  0  0  2  0  0  0  0  0  0
  -19.6800  -26.3610   21.1470 C   0  0  0  0  0  2  0  0  0  0  0  0
  -18.3320  -26.4430   21.8700 C   0  0  0  0  0  2  0  0  0  0  0  0
  -19.3240  -28.4650   23.0940 C   0  0  0  0  0  0  0  0  0  0  0  0
  -19.1300  -29.6730   23.7990 C   0  0  0  0  0  3  0  0  0  0  0  0
  -17.8330  -30.1460   24.0750 C   0  0  0  0  0  3  0  0  0  0  0  0
  -16.7120  -29.4090   23.6570 C   0  0  0  0  0  3  0  0  0  0  0  0
  -16.8900  -28.2020   22.9560 C   0  0  0  0  0  3  0  0  0  0  0  0
  -25.9480  -32.2340   23.5950 C   0  0  0  0  0  3  0  0  0  0  0  0
  -25.5970  -33.6020   24.0110 N   0  0  0  0  0  0  0  0  0  0  0  0
  -25.8830  -34.7120   23.3170 C   0  0  0  0  0  0  0  0  0  0  0  0
  -26.5350  -34.6930   22.2700 O   0  0  0  0  0  0  0  0  0  0  0  0
  -25.0130  -33.6880   24.8300 H   0  0  0  0  0  0  0  0  0  0  0  0
  -24.0920  -36.4690   23.1140 C   0  0  0  0  0  1  0  0  0  0  0  0
  -25.3650  -36.0550   23.8700 C   0  0  0  0  0  3  0  0  0  0  0  0
  -27.4810  -36.9680   24.7160 C   0  0  0  0  0  1  0  0  0  0  0  0
  -26.3600  -37.1460   23.7970 N   0  0  0  0  0  0  0  0  0  0  0  0
  -25.9270  -38.0430   23.9970 H   0  0  0  0  0  0  0  0  0  0  0  0
  -26.5050  -31.4140   24.8250 C   0  0  1  0  0  0  0  0  0  0  0  0
  -25.4340  -31.0920   25.8940 C   0  0  0  0  0  1  0  0  0  0  0  0
  -27.1200  -30.0750   24.3590 C   0  0  0  0  0  1  0  0  0  0  0  0
  -27.6420  -32.2060   25.5110 C   0  0  0  0  0  1  0  0  0  0  0  0
  1  6  1  0
  1 10  2  0
  2  9  1  0
  4  3  1  0
  5  7  1  0
  6  3  1  0
  7 19  1  0
  7  1  1  0
  8  5  1  0
  8  2  1  0
  8  4  1  0
  9  6  1  0
 11 17  1  0
 11 19  1  0
 12 17  1  0
 13 14  1  0
 13 12  1  0
 15 14  1  0
 15 24  1  0
 15 16  1  0
 17 16  1  0
 18 11  2  0
 19 20  1  0
 21 22  2  0
 22 41  1  0
 23 22  1  0
 23 26  1  0
 24 25  1  0
 24 21  1  0
 25 23  2  0
 26 27  1  0
 27 28  2  0
 29 32  1  0
 29 28  1  0
 30 29  2  0
 31 30  1  0
 31 26  2  0
 32 33  1  0
 33 38  2  0
 33 34  1  0
 34 35  2  0
 35 36  1  0
 36 40  1  0
 37 36  2  0
 38 37  1  0
 39 38  1  0
 41 42  1  0
 42 45  1  0
 42 44  1  0
 43 41  2  0
 46 21  1  0
 46 47  1  0
 48 46  1  0
 49  2  2  0
 49 50  1  0
 51 53  1  0
 51 50  1  0
 52 63  2  0
 53 58  1  0
 54 62  1  0
 54 64  1  0
 55 61  1  0
 55 57  1  0
 56 62  1  0
 57 56  1  0
 58 57  2  0
 59 60  1  0
 59 53  2  0
 60 55  2  0
 61 54  1  0
 62 52  1  0
 64 66  2  0
 65 64  1  0
 67 65  1  0
 68 77  2  0
 68 73  1  0
 69 65  1  0
 69 73  1  0
 70 69  1  0
 71 72  1  0
 71 70  1  0
 72 68  1  0
 73 74  2  0
 74 75  1  0
 76 75  2  0
 77 76  1  0
 78 52  1  0
 78 79  1  0
 78 88  1  0
 79 82  1  0
 80 84  1  0
 80 79  1  0
 81 80  2  0
 84 83  1  0
 86 84  1  0
 86 87  1  0
 86 85  1  0
 88 91  1  1
 88 89  1  0
 90 88  1  0
M  ISO  4  11 100  19 100  50 101  51 101
M  END
>  <TORSDO>  (56) 
F 18

>  <SCORE>  (56) 
-13.397

>  <name>  (56) 
56

>  <ligand_id>  (56) 
56

>  <original_smiles>  (56) 
[H]c1c([H])c([H])c2c(c1[H])C([H])([H])C([H])([H])C([H])([H])C2([H])N([H])C(=O)C1([H])N(C(=O)C([H])(N([H])C(=O)C([H])(N([H])C([H])([H])[H])C([H])([H])[H])C(C([H])([H])[H])(C([H])([H])[H])C([H])([H])[H])C([H])([H])c2c([H])c(OC([H])([H])C([H])([H])C3=NC4([H])C(=O)C([H])(N([H])C(=O)N5C([H])([H])C([H])([H])C([H])([H])C([H])(n6nc(-c7c([H])c([H])c(Oc8c([H])c([H])c(F)c([H])c8F)c([H])c7[H])c(C(=O)N([H])[H])c6N([H])[H])C5([H])[H])C([H])([H])C3([H])C([H])([H])C4([H])[H])c([H])c([H])c2C1([H])[H]

>  <smiles>  (56) 
[H]c1c([H])c([H])c2c(c1[H])C([H])([H])C([H])([H])C([H])([H])C2([H])N([H])C(=O)C1([H])N(C(=O)C([H])(N([H])C(=O)C([H])(N([H])C([H])([H])[H])C([H])([H])[H])C(C([H])([H])[H])(C([H])([H])[H])C([H])([H])[H])C([H])([H])c2c([H])c(OC([H])([H])C([H])([H])C3=NC4([H])C(=O)C([H])(N([H])C(=O)N5C([H])([H])C([H])([H])C([H])([H])C([H])(n6nc(-c7c([H])c([H])c(Oc8c([H])c([H])c(F)c([H])c8F)c([H])c7[H])c(C(=O)N([H])[H])c6N([H])[H])C5([H])[H])C([H])([H])C3([H])C([H])([H])C4([H])[H])c([H])c([H])c2C1([H])[H]

$$$$
57:0:0
     RDKit          3D

100109  0  0  1  0  0  0  0  0999 V2000
  -28.7100  -23.6790   24.0800 C   0  0  0  0  0  2  0  0  0  0  0  0
  -28.4420  -22.8960   21.5930 C   0  0  0  0  0  0  0  0  0  0  0  0
  -28.4900  -25.3980   22.1190 C   0  0  0  0  0  2  0  0  0  0  0  0
  -29.1830  -24.4420   19.8640 C   0  0  0  0  0  2  0  0  0  0  0  0
  -28.9430  -23.9810   22.5810 C   0  0  0  0  0  3  0  0  0  0  0  0
  -28.2620  -25.4480   20.5870 C   0  0  0  0  0  3  0  0  0  0  0  0
  -28.7960  -23.0980   20.3160 N   0  0  0  0  0  0  0  0  0  0  0  0
  -27.7480  -21.9420   21.9430 O   0  0  0  0  0  0  0  0  0  0  0  0
  -28.5580  -22.4030   19.6220 H   0  0  0  0  0  0  0  0  0  0  0  0
  -28.3980  -26.7720   20.0770 O   0  0  0  0  0  0  0  0  0  0  0  0
  -24.6070  -31.8760   23.2230 C   0  0  0  0  0  0  0  0  0  0  0  0
  -27.2280  -27.4970   20.0740 C   0  0  0  0  0  0  0  0  0  0  0  0
  -23.3930  -30.4990   21.5660 C   0  0  0  0  0  3  0  0  0  0  0  0
  -24.8330  -28.9840   20.1180 C   0  0  0  0  0  0  0  0  0  0  0  0
  -25.9160  -30.8600   21.3630 C   0  0  0  0  0  2  0  0  0  0  0  0
  -25.9980  -29.5010   20.7000 C   0  0  0  0  0  0  0  0  0  0  0  0
  -27.1990  -28.7650   20.6850 C   0  0  0  0  0  3  0  0  0  0  0  0
  -26.0510  -26.9930   19.4660 C   0  0  0  0  0  3  0  0  0  0  0  0
  -24.8490  -27.7200   19.5050 C   0  0  0  0  0  3  0  0  0  0  0  0
  -23.5910  -29.8370   20.1800 C   0  0  0  0  0  2  0  0  0  0  0  0
  -24.6560  -31.0890   22.1080 N   0  0  0  0  0  0  0  0  0  0  0  0
  -23.5280  -32.1520   23.7650 O   0  0  0  0  0  0  0  0  0  0  0  0
  -22.7380  -29.4660   22.5110 C   0  0  0  0  0  0  0  0  0  0  0  0
  -21.4120  -29.2960   22.3850 N   0  0  0  0  0  0  0  0  0  0  0  0
  -23.4170  -28.8170   23.3080 O   0  0  0  0  0  0  0  0  0  0  0  0
  -20.9240  -29.8800   21.7240 H   0  0  0  0  0  0  0  0  0  0  0  0
  -18.0260  -28.1330   22.8500 C   0  0  0  0  0  0  0  0  0  0  0  0
  -20.5850  -28.3540   23.1410 C   0  0  0  0  0  3  0  0  0  0  0  0
  -20.6750  -26.9300   22.5470 C   0  0  0  0  0  2  0  0  0  0  0  0
  -19.5750  -26.6330   21.5240 C   0  0  0  0  0  2  0  0  0  0  0  0
  -18.1910  -26.7880   22.1630 C   0  0  0  0  0  2  0  0  0  0  0  0
  -19.1520  -28.8780   23.2930 C   0  0  0  0  0  0  0  0  0  0  0  0
  -18.9450  -30.1400   23.8870 C   0  0  0  0  0  3  0  0  0  0  0  0
  -17.6460  -30.6530   24.0530 C   0  0  0  0  0  3  0  0  0  0  0  0
  -16.5340  -29.9010   23.6370 C   0  0  0  0  0  3  0  0  0  0  0  0
  -16.7270  -28.6480   23.0340 C   0  0  0  0  0  3  0  0  0  0  0  0
  -25.8990  -32.4860   23.8490 C   0  0  0  0  0  3  0  0  0  0  0  0
  -25.5880  -33.8670   24.2350 N   0  0  0  0  0  0  0  0  0  0  0  0
  -25.9060  -34.9510   23.5130 C   0  0  0  0  0  0  0  0  0  0  0  0
  -26.5630  -34.8910   22.4700 O   0  0  0  0  0  0  0  0  0  0  0  0
  -25.0090  -33.9890   25.0520 H   0  0  0  0  0  0  0  0  0  0  0  0
  -24.1510  -36.7330   23.2630 C   0  0  0  0  0  1  0  0  0  0  0  0
  -25.4130  -36.3160   24.0340 C   0  0  0  0  0  3  0  0  0  0  0  0
  -27.5580  -37.1810   24.8450 C   0  0  0  0  0  1  0  0  0  0  0  0
  -26.4290  -37.3850   23.9410 N   0  0  0  0  0  0  0  0  0  0  0  0
  -26.0230  -38.2940   24.1440 H   0  0  0  0  0  0  0  0  0  0  0  0
  -26.4450  -31.6660   25.0820 C   0  0  1  0  0  0  0  0  0  0  0  0
  -25.3760  -31.3750   26.1610 C   0  0  0  0  0  1  0  0  0  0  0  0
  -27.0240  -30.3110   24.6160 C   0  0  0  0  0  1  0  0  0  0  0  0
  -27.6010  -32.4400   25.7600 C   0  0  0  0  0  1  0  0  0  0  0  0
  -29.5560  -22.4880   24.5880 C   0  0  0  0  0  2  0  0  0  0  0  0
  -29.0780  -21.8610   25.9200 C   0  0  0  0  0  2  0  0  0  0  0  0
  -30.0040  -19.9500   27.4990 C   0  0  0  0  0  2  0  0  0  0  0  0
  -28.8490  -19.3910   25.3510 C   0  0  0  0  0  2  0  0  0  0  0  0
  -30.8140  -18.6360   27.3950 C   0  0  0  0  0  2  0  0  0  0  0  0
  -29.7000  -18.1350   25.1400 C   0  0  0  0  0  2  0  0  0  0  0  0
  -29.6910  -20.4540   26.0750 C   0  0  0  0  0  3  0  0  0  0  0  0
  -30.1890  -17.5440   26.4810 C   0  0  0  0  0  3  0  0  0  0  0  0
  -31.2230  -16.3970   26.3310 C   0  0  0  0  0  2  0  0  0  0  0  0
  -31.0500  -15.3920   25.1690 C   0  0  0  0  0  2  0  0  0  0  0  0
  -31.9070  -15.7620   23.9390 C   0  0  0  0  0  2  0  0  0  0  0  0
  -32.0880  -14.6210   22.9300 C   0  0  0  0  0  2  0  0  0  0  0  0
  -30.8560  -14.2030   20.8260 C   0  0  0  0  0  0  0  0  0  0  0  0
  -30.4020  -12.3020   19.3450 C   0  0  0  0  0  2  0  0  0  0  0  0
  -29.4530  -12.5410   18.1620 C   0  0  0  0  0  2  0  0  0  0  0  0
  -27.9880  -12.3840   18.6010 C   0  0  0  0  0  2  0  0  0  0  0  0
  -27.6570  -13.2080   19.8700 C   0  0  0  0  0  3  0  0  0  0  0  0
  -28.6940  -12.9590   20.9850 C   0  0  0  0  0  2  0  0  0  0  0  0
  -30.0410  -13.1970   20.4480 N   0  0  0  0  0  0  0  0  0  0  0  0
  -31.7310  -14.6910   20.0990 O   0  0  0  0  0  0  0  0  0  0  0  0
  -30.8800  -14.3400   22.1580 N   0  0  0  0  0  0  0  0  0  0  0  0
  -30.1360  -13.8700   22.6560 H   0  0  0  0  0  0  0  0  0  0  0  0
  -25.2560  -13.8190   20.5720 C   0  0  0  0  0  0  0  0  0  0  0  0
  -24.1840  -13.0480   20.9230 C   0  0  0  0  0  0  0  0  0  0  0  0
  -24.6410  -11.6930   20.8800 C   0  0  0  0  0  0  0  0  0  0  0  0
  -26.3000  -12.9370   20.3350 N   0  0  0  0  0  0  0  0  0  0  0  0
  -25.9310  -11.6520   20.5820 N   0  0  0  0  0  0  0  0  0  0  0  0
  -23.9120  -10.4300   21.0470 C   0  0  0  0  0  0  0  0  0  0  0  0
  -24.3650   -9.4190   21.9230 C   0  0  0  0  0  3  0  0  0  0  0  0
  -23.6310   -8.2240   22.0770 C   0  0  0  0  0  3  0  0  0  0  0  0
  -22.4290   -8.0310   21.3540 C   0  0  0  0  0  0  0  0  0  0  0  0
  -21.9950   -9.0300   20.4660 C   0  0  0  0  0  3  0  0  0  0  0  0
  -22.7300  -10.2170   20.3090 C   0  0  0  0  0  3  0  0  0  0  0  0
  -21.6620   -6.8940   21.4250 O   0  0  0  0  0  0  0  0  0  0  0  0
  -21.6830   -6.0780   22.5280 C   0  0  0  0  0  0  0  0  0  0  0  0
  -21.4020   -6.5660   23.8220 C   0  0  0  0  0  3  0  0  0  0  0  0
  -21.3650   -5.6800   24.9180 C   0  0  0  0  0  3  0  0  0  0  0  0
  -21.6040   -4.3060   24.7210 C   0  0  0  0  0  0  0  0  0  0  0  0
  -21.8810   -3.8180   23.4330 C   0  0  0  0  0  3  0  0  0  0  0  0
  -21.9180   -4.7010   22.3400 C   0  0  0  0  0  0  0  0  0  0  0  0
  -22.1650   -4.2200   21.0980 F   0  0  0  0  0  0  0  0  0  0  0  0
  -21.5620   -3.4550   25.7720 F   0  0  0  0  0  0  0  0  0  0  0  0
  -22.7850  -13.5240   21.1860 C   0  0  0  0  0  0  0  0  0  0  0  0
  -22.0470  -12.8260   22.0410 N   0  0  0  0  0  0  0  0  0  0  0  0
  -22.3540  -14.5530   20.6670 O   0  0  0  0  0  0  0  0  0  0  0  0
  -22.4050  -11.9940   22.4880 H   0  0  0  0  0  0  0  0  0  0  0  0
  -21.1060  -13.1290   22.2530 H   0  0  0  0  0  0  0  0  0  0  0  0
  -25.4280  -15.1930   20.4100 N   0  0  0  0  0  0  0  0  0  0  0  0
  -24.6680  -15.8540   20.5400 H   0  0  0  0  0  0  0  0  0  0  0  0
  -26.2880  -15.6330   20.1090 H   0  0  0  0  0  0  0  0  0  0  0  0
  1 51  1  0
  2  8  2  0
  2  5  1  0
  3  5  1  0
  4  7  1  0
  4  6  1  0
  5  1  1  0
  6 10  1  0
  6  3  1  0
  7  2  1  0
  9  7  1  0
 11 22  2  0
 12 10  1  0
 12 17  1  0
 13 21  1  0
 13 23  1  0
 14 20  1  0
 14 16  1  0
 15 21  1  0
 16 15  1  0
 17 16  2  0
 18 19  1  0
 18 12  2  0
 19 14  2  0
 20 13  1  0
 21 11  1  0
 23 25  2  0
 24 23  1  0
 26 24  1  0
 27 36  2  0
 27 32  1  0
 28 24  1  0
 28 32  1  0
 29 28  1  0
 30 31  1  0
 30 29  1  0
 31 27  1  0
 32 33  2  0
 33 34  1  0
 35 34  2  0
 36 35  1  0
 37 11  1  0
 37 38  1  0
 37 47  1  0
 38 41  1  0
 39 43  1  0
 39 38  1  0
 40 39  2  0
 43 42  1  0
 45 43  1  0
 45 46  1  0
 45 44  1  0
 47 50  1  1
 47 48  1  0
 49 47  1  0
 51 52  1  0
 54 57  1  0
 55 53  1  0
 56 54  1  0
 56 58  1  0
 57 52  1  0
 57 53  1  0
 58 59  1  0
 58 55  1  0
 60 59  1  0
 61 60  1  0
 62 61  1  0
 63 71  1  0
 64 69  1  0
 65 66  1  0
 65 64  1  0
 67 66  1  0
 67 76  1  0
 67 68  1  0
 69 63  1  0
 69 68  1  0
 70 63  2  0
 71 72  1  0
 71 62  1  0
 73 74  2  0
 74 93  1  0
 75 74  1  0
 75 78  1  0
 76 73  1  0
 76 77  1  0
 77 75  2  0
 78 79  1  0
 79 80  2  0
 81 84  1  0
 81 80  1  0
 82 81  2  0
 83 82  1  0
 83 78  2  0
 84 85  1  0
 85 86  1  0
 86 87  2  0
 88 87  1  0
 88 92  1  0
 89 88  2  0
 90 85  2  0
 90 89  1  0
 91 90  1  0
 93 94  1  0
 94 97  1  0
 94 96  1  0
 95 93  2  0
 98 99  1  0
 98 73  1  0
100 98  1  0
M  ISO  4   6 101  10 101  63 100  71 100
M  END
>  <TORSDO>  (57) 
F 24

>  <SCORE>  (57) 
36.984

>  <name>  (57) 
57

>  <ligand_id>  (57) 
57

>  <original_smiles>  (57) 
[H]c1c([H])c([H])c2c(c1[H])C([H])([H])C([H])([H])C([H])([H])C2([H])N([H])C(=O)C1([H])N(C(=O)C([H])(N([H])C(=O)C([H])(N([H])C([H])([H])[H])C([H])([H])[H])C(C([H])([H])[H])(C([H])([H])[H])C([H])([H])[H])C([H])([H])c2c([H])c(OC3([H])C([H])([H])N([H])C(=O)C([H])(C([H])([H])C([H])([H])C([H])([H])C4([H])C([H])([H])C([H])([H])C([H])(C([H])([H])C([H])([H])C([H])([H])C([H])([H])N([H])C(=O)N5C([H])([H])C([H])([H])C([H])([H])C([H])(n6nc(-c7c([H])c([H])c(Oc8c([H])c([H])c(F)c([H])c8F)c([H])c7[H])c(C(=O)N([H])[H])c6N([H])[H])C5([H])[H])C([H])([H])C4([H])[H])C3([H])[H])c([H])c([H])c2C1([H])[H]

>  <smiles>  (57) 
[H]c1c([H])c([H])c2c(c1[H])C([H])([H])C([H])([H])C([H])([H])C2([H])N([H])C(=O)C1([H])N(C(=O)C([H])(N([H])C(=O)C([H])(N([H])C([H])([H])[H])C([H])([H])[H])C(C([H])([H])[H])(C([H])([H])[H])C([H])([H])[H])C([H])([H])c2c([H])c(OC3([H])C([H])([H])N([H])C(=O)C([H])(C([H])([H])C([H])([H])C([H])([H])C4([H])C([H])([H])C([H])([H])C([H])(C([H])([H])C([H])([H])C([H])([H])C([H])([H])N([H])C(=O)N5C([H])([H])C([H])([H])C([H])([H])C([H])(n6nc(-c7c([H])c([H])c(Oc8c([H])c([H])c(F)c([H])c8F)c([H])c7[H])c(C(=O)N([H])[H])c6N([H])[H])C5([H])[H])C([H])([H])C4([H])[H])C3([H])[H])c([H])c([H])c2C1([H])[H]

$$$$
58:0:0
     RDKit          3D

100108  0  0  1  0  0  0  0  0999 V2000
  -26.3060  -22.3730   20.4200 C   0  0  0  0  0  0  0  0  0  0  0  0
  -27.0380  -22.9340   21.5550 C   0  0  0  0  0  0  0  0  0  0  0  0
  -25.1290  -22.9520   20.0990 C   0  0  0  0  0  3  0  0  0  0  0  0
  -26.9570  -21.2220   19.6490 C   0  0  0  0  0  2  0  0  0  0  0  0
  -28.9280  -21.4650   21.2690 C   0  0  0  0  0  2  0  0  0  0  0  0
  -27.9950  -20.4540   20.5290 C   0  0  0  0  0  3  0  0  0  0  0  0
  -28.3670  -22.8190   21.3730 N   0  0  0  0  0  0  0  0  0  0  0  0
  -26.5520  -23.5460   22.5120 O   0  0  0  0  0  0  0  0  0  0  0  0
  -24.2650  -22.6670   18.8820 C   0  0  0  0  0  2  0  0  0  0  0  0
  -23.8340  -23.9890   18.2210 C   0  0  0  0  0  2  0  0  0  0  0  0
  -22.9840  -23.8100   16.9490 C   0  0  0  0  0  2  0  0  0  0  0  0
  -22.5440  -25.1050   16.4010 N   0  0  0  0  0  4  0  0  0  0  0  0
  -21.9900  -24.9600   15.5740 H   0  0  0  0  0  0  0  0  0  0  0  0
  -23.3340  -25.6710   16.1500 H   0  0  0  0  0  0  0  0  0  0  0  0
  -21.9840  -25.6040   17.0690 H   0  0  0  0  0  0  0  0  0  0  0  0
  -28.8260  -19.3630   19.7730 C   0  0  0  0  0  2  0  0  0  0  0  0
  -28.9960  -17.8470   20.0860 C   0  0  0  0  0  2  0  0  0  0  0  0
  -30.4380  -17.4000   20.4460 C   0  0  0  0  0  2  0  0  0  0  0  0
  -31.1700  -15.0260   20.3070 C   0  0  0  0  0  0  0  0  0  0  0  0
  -30.9730  -12.7630   19.3640 C   0  0  0  0  0  2  0  0  0  0  0  0
  -30.0460  -12.8390   18.1320 C   0  0  0  0  0  2  0  0  0  0  0  0
  -28.5620  -12.7240   18.5400 C   0  0  0  0  0  2  0  0  0  0  0  0
  -28.1870  -13.6780   19.7050 C   0  0  0  0  0  3  0  0  0  0  0  0
  -29.2160  -13.5440   20.8540 C   0  0  0  0  0  2  0  0  0  0  0  0
  -30.5580  -13.8160   20.3000 N   0  0  0  0  0  0  0  0  0  0  0  0
  -32.2530  -15.2560   19.7590 O   0  0  0  0  0  0  0  0  0  0  0  0
  -30.4100  -15.9970   20.8220 N   0  0  0  0  0  0  0  0  0  0  0  0
  -29.5820  -15.6810   21.3060 H   0  0  0  0  0  0  0  0  0  0  0  0
  -25.8110  -14.3540   20.4430 C   0  0  0  0  0  0  0  0  0  0  0  0
  -24.7150  -13.6070   20.7890 C   0  0  0  0  0  0  0  0  0  0  0  0
  -25.1270  -12.2420   20.7040 C   0  0  0  0  0  0  0  0  0  0  0  0
  -26.8220  -13.4420   20.1760 N   0  0  0  0  0  0  0  0  0  0  0  0
  -26.4130  -12.1670   20.3870 N   0  0  0  0  0  0  0  0  0  0  0  0
  -24.3590  -10.9990   20.8530 C   0  0  0  0  0  0  0  0  0  0  0  0
  -24.7390  -10.0040   21.7810 C   0  0  0  0  0  3  0  0  0  0  0  0
  -23.9750   -8.8250   21.9170 C   0  0  0  0  0  3  0  0  0  0  0  0
  -22.8180   -8.6330   21.1240 C   0  0  0  0  0  0  0  0  0  0  0  0
  -22.4580   -9.6180   20.1890 C   0  0  0  0  0  3  0  0  0  0  0  0
  -23.2220  -10.7880   20.0500 C   0  0  0  0  0  3  0  0  0  0  0  0
  -22.0320   -7.5070   21.1690 O   0  0  0  0  0  0  0  0  0  0  0  0
  -21.8700   -6.7870   22.3250 C   0  0  0  0  0  0  0  0  0  0  0  0
  -21.3440   -7.3730   23.4980 C   0  0  0  0  0  3  0  0  0  0  0  0
  -21.1290   -6.5810   24.6440 C   0  0  0  0  0  3  0  0  0  0  0  0
  -21.4290   -5.2060   24.6180 C   0  0  0  0  0  0  0  0  0  0  0  0
  -21.9460   -4.6200   23.4480 C   0  0  0  0  0  3  0  0  0  0  0  0
  -22.1620   -5.4090   22.3050 C   0  0  0  0  0  0  0  0  0  0  0  0
  -22.6420   -4.8360   21.1730 F   0  0  0  0  0  0  0  0  0  0  0  0
  -21.2160   -4.4430   25.7160 F   0  0  0  0  0  0  0  0  0  0  0  0
  -23.3370  -14.1230   21.0890 C   0  0  0  0  0  0  0  0  0  0  0  0
  -22.6010  -13.4340   21.9540 N   0  0  0  0  0  0  0  0  0  0  0  0
  -22.9250  -15.1700   20.5930 O   0  0  0  0  0  0  0  0  0  0  0  0
  -22.9460  -12.5820   22.3710 H   0  0  0  0  0  0  0  0  0  0  0  0
  -21.6780  -13.7590   22.1990 H   0  0  0  0  0  0  0  0  0  0  0  0
  -26.0250  -15.7230   20.3160 N   0  0  0  0  0  0  0  0  0  0  0  0
  -25.2900  -16.4030   20.4770 H   0  0  0  0  0  0  0  0  0  0  0  0
  -26.8870  -16.1420   19.9960 H   0  0  0  0  0  0  0  0  0  0  0  0
  -29.0630  -23.7790   20.5000 C   0  0  0  0  0  2  0  0  0  0  0  0
  -28.6270  -25.2490   20.6270 C   0  0  0  0  0  2  0  0  0  0  0  0
  -29.0990  -26.0630   19.4210 C   0  0  0  0  0  2  0  0  0  0  0  0
  -28.8830  -27.4390   19.6660 O   0  0  0  0  0  0  0  0  0  0  0  0
  -24.6890  -31.8780   23.2260 C   0  0  0  0  0  0  0  0  0  0  0  0
  -27.6080  -27.9470   19.7500 C   0  0  0  0  0  0  0  0  0  0  0  0
  -23.5560  -30.5380   21.4770 C   0  0  0  0  0  3  0  0  0  0  0  0
  -25.0930  -29.2190   19.9280 C   0  0  0  0  0  0  0  0  0  0  0  0
  -26.0430  -31.0960   21.2890 C   0  0  0  0  0  2  0  0  0  0  0  0
  -26.2140  -29.7900   20.5420 C   0  0  0  0  0  0  0  0  0  0  0  0
  -27.4670  -29.1610   20.4500 C   0  0  0  0  0  3  0  0  0  0  0  0
  -26.4660  -27.3630   19.1500 C   0  0  0  0  0  3  0  0  0  0  0  0
  -25.2110  -27.9990   19.2360 C   0  0  0  0  0  3  0  0  0  0  0  0
  -23.7950  -29.9820   20.0460 C   0  0  0  0  0  2  0  0  0  0  0  0
  -24.7810  -31.1790   22.0590 N   0  0  0  0  0  0  0  0  0  0  0  0
  -23.5990  -32.0320   23.7950 O   0  0  0  0  0  0  0  0  0  0  0  0
  -22.9890  -29.4000   22.3530 C   0  0  0  0  0  0  0  0  0  0  0  0
  -21.6860  -29.1180   22.1890 N   0  0  0  0  0  0  0  0  0  0  0  0
  -23.7150  -28.7780   23.1320 O   0  0  0  0  0  0  0  0  0  0  0  0
  -21.1620  -29.6720   21.5260 H   0  0  0  0  0  0  0  0  0  0  0  0
  -18.4290  -27.5950   22.5130 C   0  0  0  0  0  0  0  0  0  0  0  0
  -20.9420  -28.0660   22.8800 C   0  0  0  0  0  3  0  0  0  0  0  0
  -21.1900  -26.6880   22.2240 C   0  0  0  0  0  2  0  0  0  0  0  0
  -20.1510  -26.3340   21.1570 C   0  0  0  0  0  2  0  0  0  0  0  0
  -18.7480  -26.3100   21.7650 C   0  0  0  0  0  2  0  0  0  0  0  0
  -19.4590  -28.4270   23.0240 C   0  0  0  0  0  0  0  0  0  0  0  0
  -19.1080  -29.6240   23.6860 C   0  0  0  0  0  3  0  0  0  0  0  0
  -17.7570  -29.9920   23.8350 C   0  0  0  0  0  3  0  0  0  0  0  0
  -16.7420  -29.1600   23.3350 C   0  0  0  0  0  3  0  0  0  0  0  0
  -17.0800  -27.9600   22.6810 C   0  0  0  0  0  3  0  0  0  0  0  0
  -25.9410  -32.5360   23.8890 C   0  0  0  0  0  3  0  0  0  0  0  0
  -26.4230  -31.7840   25.1910 C   0  0  1  0  0  0  0  0  0  0  0  0
  -25.2950  -31.5370   26.2190 C   0  0  0  0  0  1  0  0  0  0  0  0
  -27.0430  -30.4130   24.8330 C   0  0  0  0  0  1  0  0  0  0  0  0
  -27.5340  -32.6040   25.8900 C   0  0  0  0  0  1  0  0  0  0  0  0
  -25.6020  -33.9330   24.1930 N   0  0  0  0  0  0  0  0  0  0  0  0
  -25.9550  -34.9800   23.4370 C   0  0  0  0  0  0  0  0  0  0  0  0
  -26.6750  -34.8750   22.4410 O   0  0  0  0  0  0  0  0  0  0  0  0
  -24.9690  -34.0870   24.9650 H   0  0  0  0  0  0  0  0  0  0  0  0
  -24.2170  -36.7390   22.9760 C   0  0  0  0  0  1  0  0  0  0  0  0
  -25.4220  -36.3640   23.8520 C   0  0  0  0  0  3  0  0  0  0  0  0
  -27.4960  -37.2930   24.7830 C   0  0  0  0  0  1  0  0  0  0  0  0
  -26.4430  -37.4310   23.7800 N   0  0  0  0  0  0  0  0  0  0  0  0
  -26.0150  -38.3450   23.8950 H   0  0  0  0  0  0  0  0  0  0  0  0
  1  2  1  0
  2  8  2  0
  3  1  2  0
  4  1  1  0
  4  6  1  0
  5  7  1  0
  6 16  1  0
  6  5  1  0
  7  2  1  0
  9  3  1  0
 10  9  1  0
 11 10  1  0
 12 11  1  0
 12 15  1  0
 13 12  1  0
 14 12  1  0
 16 17  1  0
 17 18  1  0
 18 27  1  0
 19 27  1  0
 20 25  1  0
 21 22  1  0
 21 20  1  0
 23 22  1  0
 23 32  1  0
 23 24  1  0
 25 19  1  0
 25 24  1  0
 26 19  2  0
 27 28  1  0
 29 30  2  0
 30 49  1  0
 31 30  1  0
 31 34  1  0
 32 33  1  0
 32 29  1  0
 33 31  2  0
 34 35  1  0
 35 36  2  0
 37 40  1  0
 37 36  1  0
 38 37  2  0
 39 38  1  0
 39 34  2  0
 40 41  1  0
 41 42  1  0
 42 43  2  0
 44 43  1  0
 44 48  1  0
 45 44  2  0
 46 41  2  0
 46 45  1  0
 47 46  1  0
 49 50  1  0
 50 53  1  0
 50 52  1  0
 51 49  2  0
 54 29  1  0
 54 55  1  0
 56 54  1  0
 57 58  1  0
 57  7  1  0
 59 60  1  0
 59 58  1  0
 60 62  1  0
 61 72  2  0
 62 67  1  0
 63 71  1  0
 63 73  1  0
 64 70  1  0
 64 66  1  0
 65 71  1  0
 66 65  1  0
 67 66  2  0
 68 69  1  0
 68 62  2  0
 69 64  2  0
 70 63  1  0
 71 61  1  0
 73 75  2  0
 74 73  1  0
 76 74  1  0
 77 86  2  0
 77 82  1  0
 78 74  1  0
 78 82  1  0
 79 78  1  0
 80 81  1  0
 80 79  1  0
 81 77  1  0
 82 83  2  0
 83 84  1  0
 85 84  2  0
 86 85  1  0
 87 61  1  0
 87 92  1  0
 87 88  1  0
 88 91  1  1
 88 89  1  0
 90 88  1  0
 92 95  1  0
 93 97  1  0
 93 92  1  0
 94 93  2  0
 97 96  1  0
 99 97  1  0
 99100  1  0
 99 98  1  0
M  ISO  4  19 100  27 100  59 101  60 101
M  END
>  <TORSDO>  (58) 
F 26

>  <SCORE>  (58) 
-10.189

>  <name>  (58) 
58

>  <ligand_id>  (58) 
58

>  <original_smiles>  (58) 
[H]C(=C1C(=O)N(C([H])([H])C([H])([H])C([H])([H])Oc2c([H])c([H])c3c(c2[H])C([H])([H])N(C(=O)C([H])(N([H])C(=O)C([H])(N([H])C([H])([H])[H])C([H])([H])[H])C(C([H])([H])[H])(C([H])([H])[H])C([H])([H])[H])C([H])(C(=O)N([H])C2([H])c4c([H])c([H])c([H])c([H])c4C([H])([H])C([H])([H])C2([H])[H])C3([H])[H])C([H])([H])C([H])(C([H])([H])C([H])([H])C([H])([H])N([H])C(=O)N2C([H])([H])C([H])([H])C([H])([H])C([H])(n3nc(-c4c([H])c([H])c(Oc5c([H])c([H])c(F)c([H])c5F)c([H])c4[H])c(C(=O)N([H])[H])c3N([H])[H])C2([H])[H])C1([H])[H])C([H])([H])C([H])([H])C([H])([H])[N+]([H])([H])[H]

>  <smiles>  (58) 
[H]C(=C1C(=O)N(C([H])([H])C([H])([H])C([H])([H])Oc2c([H])c([H])c3c(c2[H])C([H])([H])N(C(=O)C([H])(N([H])C(=O)C([H])(N([H])C([H])([H])[H])C([H])([H])[H])C(C([H])([H])[H])(C([H])([H])[H])C([H])([H])[H])C([H])(C(=O)N([H])C2([H])c4c([H])c([H])c([H])c([H])c4C([H])([H])C([H])([H])C2([H])[H])C3([H])[H])C([H])([H])C([H])(C([H])([H])C([H])([H])C([H])([H])N([H])C(=O)N2C([H])([H])C([H])([H])C([H])([H])C([H])(n3nc(-c4c([H])c([H])c(Oc5c([H])c([H])c(F)c([H])c5F)c([H])c4[H])c(C(=O)N([H])[H])c3N([H])[H])C2([H])[H])C1([H])[H])C([H])([H])C([H])([H])C([H])([H])[N+]([H])([H])[H]

$$$$
59:0:0
     RDKit          3D

103111  0  0  1  0  0  0  0  0999 V2000
  -30.1750  -19.1840   22.1110 N   0  0  0  0  0  4  0  0  0  0  0  0
  -29.8500  -18.7090   21.2820 H   0  0  0  0  0  0  0  0  0  0  0  0
  -29.4760  -19.0740   22.8320 H   0  0  0  0  0  0  0  0  0  0  0  0
  -31.4040  -18.5350   22.5750 C   0  0  0  0  0  2  0  0  0  0  0  0
  -31.0650  -17.1060   23.0040 C   0  0  0  0  0  2  0  0  0  0  0  0
  -32.3230  -16.2770   23.2280 C   0  0  0  0  0  2  0  0  0  0  0  0
  -32.0400  -14.9330   23.9150 C   0  0  0  0  0  2  0  0  0  0  0  0
  -33.3270  -14.2470   24.1440 N   0  0  0  0  0  4  0  0  0  0  0  0
  -33.8350  -14.2650   23.2750 H   0  0  0  0  0  0  0  0  0  0  0  0
  -33.8390  -14.8060   24.8090 H   0  0  0  0  0  0  0  0  0  0  0  0
  -33.2610  -12.8310   24.5750 C   0  0  0  0  0  2  0  0  0  0  0  0
  -34.6060  -12.0940   24.3610 C   0  0  0  0  0  2  0  0  0  0  0  0
  -34.8950  -11.4510   22.9710 C   0  0  0  0  0  2  0  0  0  0  0  0
  -34.5740  -12.2970   21.7010 C   0  0  0  0  0  2  0  0  0  0  0  0
  -33.0990  -12.3360   21.2020 C   0  0  0  0  0  2  0  0  0  0  0  0
  -32.8170  -13.4280   20.1210 C   0  0  0  0  0  2  0  0  0  0  0  0
  -30.7520  -13.5960   18.7190 C   0  0  0  0  0  0  0  0  0  0  0  0
  -29.6770  -11.8690   17.3580 C   0  0  0  0  0  2  0  0  0  0  0  0
  -28.3770  -12.2160   16.6240 C   0  0  0  0  0  2  0  0  0  0  0  0
  -27.1640  -12.0260   17.5380 C   0  0  0  0  0  2  0  0  0  0  0  0
  -27.3320  -12.8180   18.8550 C   0  0  0  0  0  3  0  0  0  0  0  0
  -28.6610  -12.4130   19.5300 C   0  0  0  0  0  2  0  0  0  0  0  0
  -29.7740  -12.6680   18.5940 N   0  0  0  0  0  0  0  0  0  0  0  0
  -31.3290  -14.1110   17.7480 O   0  0  0  0  0  0  0  0  0  0  0  0
  -31.3540  -13.5780   19.9210 N   0  0  0  0  0  0  0  0  0  0  0  0
  -30.7850  -13.9600   20.6910 H   0  0  0  0  0  0  0  0  0  0  0  0
  -25.3920  -13.5690   20.3550 C   0  0  0  0  0  0  0  0  0  0  0  0
  -24.3780  -12.8610   20.9650 C   0  0  0  0  0  0  0  0  0  0  0  0
  -24.6050  -11.4930   20.6420 C   0  0  0  0  0  0  0  0  0  0  0  0
  -26.1710  -12.6190   19.7160 N   0  0  0  0  0  0  0  0  0  0  0  0
  -25.7160  -11.3620   19.9290 N   0  0  0  0  0  0  0  0  0  0  0  0
  -23.7930  -10.2940   20.9200 C   0  0  0  0  0  0  0  0  0  0  0  0
  -24.3010   -9.2210   21.6890 C   0  0  0  0  0  3  0  0  0  0  0  0
  -23.4980   -8.0900   21.9470 C   0  0  0  0  0  3  0  0  0  0  0  0
  -22.1730   -8.0290   21.4600 C   0  0  0  0  0  0  0  0  0  0  0  0
  -21.6790   -9.0900   20.6770 C   0  0  0  0  0  3  0  0  0  0  0  0
  -22.4820  -10.2130   20.4110 C   0  0  0  0  0  3  0  0  0  0  0  0
  -21.3220   -6.9700   21.6590 O   0  0  0  0  0  0  0  0  0  0  0  0
  -21.3750   -6.2150   22.8030 C   0  0  0  0  0  0  0  0  0  0  0  0
  -21.2130   -6.7850   24.0870 C   0  0  0  0  0  3  0  0  0  0  0  0
  -21.2220   -5.9610   25.2300 C   0  0  0  0  0  3  0  0  0  0  0  0
  -21.3620   -4.5680   25.0920 C   0  0  0  0  0  0  0  0  0  0  0  0
  -21.5120   -3.9960   23.8160 C   0  0  0  0  0  3  0  0  0  0  0  0
  -21.5180   -4.8180   22.6760 C   0  0  0  0  0  0  0  0  0  0  0  0
  -21.6490   -4.2610   21.4470 F   0  0  0  0  0  0  0  0  0  0  0  0
  -21.3480   -3.7730   26.1920 F   0  0  0  0  0  0  0  0  0  0  0  0
  -23.2220  -13.4440   21.7280 C   0  0  0  0  0  0  0  0  0  0  0  0
  -22.7020  -12.7130   22.7130 N   0  0  0  0  0  0  0  0  0  0  0  0
  -22.8060  -14.5710   21.4910 O   0  0  0  0  0  0  0  0  0  0  0  0
  -23.0380  -11.7870   22.9130 H   0  0  0  0  0  0  0  0  0  0  0  0
  -21.9560  -13.1120   23.2640 H   0  0  0  0  0  0  0  0  0  0  0  0
  -25.7090  -14.9160   20.2750 N   0  0  0  0  0  0  0  0  0  0  0  0
  -25.1500  -15.6640   20.6750 H   0  0  0  0  0  0  0  0  0  0  0  0
  -26.5030  -15.2600   19.7390 H   0  0  0  0  0  0  0  0  0  0  0  0
  -30.2970  -20.6140   21.8150 C   0  0  0  0  0  2  0  0  0  0  0  0
  -29.9720  -21.4280   23.0700 C   0  0  0  0  0  2  0  0  0  0  0  0
  -28.7330  -23.3550   24.0290 C   0  0  0  0  0  2  0  0  0  0  0  0
  -30.2360  -23.7700   22.0450 C   0  0  0  0  0  2  0  0  0  0  0  0
  -27.9700  -24.6400   23.7430 C   0  0  0  0  0  2  0  0  0  0  0  0
  -29.5340  -25.1130   21.7780 C   0  0  0  0  0  2  0  0  0  0  0  0
  -29.3000  -22.7620   22.7400 C   0  0  0  0  0  3  0  0  0  0  0  0
  -28.8720  -25.6850   23.0440 C   0  0  0  0  0  3  0  0  0  0  0  0
  -28.1660  -26.8530   22.6270 O   0  0  0  0  0  0  0  0  0  0  0  0
  -28.4460  -32.1440   27.3810 C   0  0  0  0  0  0  0  0  0  0  0  0
  -27.5420  -27.5620   23.6210 C   0  0  0  0  0  0  0  0  0  0  0  0
  -26.5110  -30.6100   27.5700 C   0  0  0  0  0  3  0  0  0  0  0  0
  -26.1910  -28.9950   25.6260 C   0  0  0  0  0  0  0  0  0  0  0  0
  -27.6690  -30.9910   25.3230 C   0  0  0  0  0  2  0  0  0  0  0  0
  -27.2750  -29.5790   24.9560 C   0  0  0  0  0  0  0  0  0  0  0  0
  -27.9680  -28.8600   23.9620 C   0  0  0  0  0  3  0  0  0  0  0  0
  -26.4270  -27.0010   24.2760 C   0  0  0  0  0  3  0  0  0  0  0  0
  -25.7680  -27.6960   25.3050 C   0  0  0  0  0  3  0  0  0  0  0  0
  -25.5070  -29.8350   26.6750 C   0  0  0  0  0  2  0  0  0  0  0  0
  -27.6010  -31.2680   26.7760 N   0  0  0  0  0  0  0  0  0  0  0  0
  -28.3150  -32.4400   28.5810 O   0  0  0  0  0  0  0  0  0  0  0  0
  -27.0470  -29.6520   28.6560 C   0  0  0  0  0  0  0  0  0  0  0  0
  -26.2960  -29.5200   29.7590 N   0  0  0  0  0  0  0  0  0  0  0  0
  -28.0950  -29.0250   28.4840 O   0  0  0  0  0  0  0  0  0  0  0  0
  -25.4520  -30.0720   29.8280 H   0  0  0  0  0  0  0  0  0  0  0  0
  -25.1690  -28.5770   33.0630 C   0  0  0  0  0  0  0  0  0  0  0  0
  -26.5820  -28.6480   30.8980 C   0  0  0  0  0  3  0  0  0  0  0  0
  -26.0740  -27.2120   30.6400 C   0  0  0  0  0  2  0  0  0  0  0  0
  -24.6600  -26.9670   31.1760 C   0  0  0  0  0  2  0  0  0  0  0  0
  -24.6070  -27.2170   32.6860 C   0  0  0  0  0  2  0  0  0  0  0  0
  -26.0850  -29.2570   32.2120 C   0  0  0  0  0  0  0  0  0  0  0  0
  -26.5490  -30.5360   32.5900 C   0  0  0  0  0  3  0  0  0  0  0  0
  -26.1180  -31.1350   33.7870 C   0  0  0  0  0  3  0  0  0  0  0  0
  -25.2250  -30.4510   34.6340 C   0  0  0  0  0  3  0  0  0  0  0  0
  -24.7580  -29.1750   34.2710 C   0  0  0  0  0  3  0  0  0  0  0  0
  -29.6090  -32.8310   26.6000 C   0  0  0  0  0  3  0  0  0  0  0  0
  -29.6510  -34.2400   27.0160 N   0  0  0  0  0  0  0  0  0  0  0  0
  -29.1020  -35.2490   26.3270 C   0  0  0  0  0  0  0  0  0  0  0  0
  -28.5700  -35.0980   25.2230 O   0  0  0  0  0  0  0  0  0  0  0  0
  -30.0290  -34.4290   27.9330 H   0  0  0  0  0  0  0  0  0  0  0  0
  -27.7960  -36.9660   27.6150 C   0  0  0  0  0  1  0  0  0  0  0  0
  -29.1510  -36.6520   26.9610 C   0  0  0  0  0  3  0  0  0  0  0  0
  -30.8770  -37.6340   25.5170 C   0  0  0  0  0  1  0  0  0  0  0  0
  -29.5000  -37.7220   26.0000 N   0  0  0  0  0  0  0  0  0  0  0  0
  -29.3670  -38.6400   26.4170 H   0  0  0  0  0  0  0  0  0  0  0  0
  -31.0100  -32.1390   26.8270 C   0  0  1  0  0  0  0  0  0  0  0  0
  -31.3620  -31.9290   28.3170 C   0  0  0  0  0  1  0  0  0  0  0  0
  -31.0680  -30.7560   26.1320 C   0  0  0  0  0  1  0  0  0  0  0  0
  -32.1310  -32.9960   26.1920 C   0  0  0  0  0  1  0  0  0  0  0  0
  1  4  1  0
  1  3  1  0
  2  1  1  0
  4  5  1  0
  5  6  1  0
  6  7  1  0
  7  8  1  0
  8 11  1  0
  8 10  1  0
  9  8  1  0
 12 11  1  0
 13 12  1  0
 14 13  1  0
 15 14  1  0
 16 15  1  0
 17 25  1  0
 18 23  1  0
 19 18  1  0
 19 20  1  0
 21 20  1  0
 21 22  1  0
 21 30  1  0
 23 17  1  0
 23 22  1  0
 24 17  2  0
 25 16  1  0
 25 26  1  0
 27 28  2  0
 28 47  1  0
 29 32  1  0
 29 28  1  0
 30 31  1  0
 30 27  1  0
 31 29  2  0
 32 33  1  0
 33 34  2  0
 35 38  1  0
 35 34  1  0
 36 35  2  0
 37 36  1  0
 37 32  2  0
 38 39  1  0
 39 40  1  0
 40 41  2  0
 42 41  1  0
 42 46  1  0
 43 42  2  0
 44 39  2  0
 44 43  1  0
 45 44  1  0
 47 48  1  0
 48 50  1  0
 48 51  1  0
 49 47  2  0
 52 27  1  0
 52 53  1  0
 54 52  1  0
 55  1  1  0
 55 56  1  0
 58 61  1  0
 59 57  1  0
 60 58  1  0
 60 62  1  0
 61 56  1  0
 61 57  1  0
 62 63  1  0
 62 59  1  0
 63 65  1  0
 64 75  2  0
 65 70  2  0
 65 71  1  0
 66 76  1  0
 67 73  1  0
 68 74  1  0
 69 68  1  0
 69 67  2  0
 70 69  1  0
 71 72  2  0
 72 67  1  0
 73 66  1  0
 74 64  1  0
 74 66  1  0
 76 77  1  0
 77 79  1  0
 78 76  2  0
 80 89  1  0
 81 77  1  0
 81 85  1  0
 82 81  1  0
 82 83  1  0
 83 84  1  0
 84 80  1  0
 85 86  1  0
 85 80  2  0
 86 87  2  0
 87 88  1  0
 89 88  2  0
 90100  1  0
 90 91  1  0
 90 64  1  0
 91 94  1  0
 92 96  1  0
 92 91  1  0
 93 92  2  0
 96 95  1  0
 97 98  1  0
 98 99  1  0
 98 96  1  0
100101  1  1
102100  1  0
103100  1  0
M  ISO  4  17 100  25 100  62 101  63 101
M  END
>  <TORSDO>  (59) 
F 30

>  <SCORE>  (59) 
9.882

>  <name>  (59) 
59

>  <ligand_id>  (59) 
59

>  <original_smiles>  (59) 
[H]c1c([H])c([H])c2c(c1[H])C([H])([H])C([H])([H])C([H])([H])C2([H])N([H])C(=O)C1([H])N(C(=O)C([H])(N([H])C(=O)C([H])(N([H])C([H])([H])[H])C([H])([H])[H])C(C([H])([H])[H])(C([H])([H])[H])C([H])([H])[H])C([H])([H])c2c([H])c(OC3([H])C([H])([H])C([H])([H])C([H])(C([H])([H])C([H])([H])[N+]([H])([H])C([H])([H])C([H])([H])C([H])([H])C([H])([H])[N+]([H])([H])C([H])([H])C([H])([H])C([H])([H])C([H])([H])C([H])([H])C([H])([H])N([H])C(=O)N4C([H])([H])C([H])([H])C([H])([H])C([H])(n5nc(-c6c([H])c([H])c(Oc7c([H])c([H])c(F)c([H])c7F)c([H])c6[H])c(C(=O)N([H])[H])c5N([H])[H])C4([H])[H])C([H])([H])C3([H])[H])c([H])c([H])c2C1([H])[H]

>  <smiles>  (59) 
[H]c1c([H])c([H])c2c(c1[H])C([H])([H])C([H])([H])C([H])([H])C2([H])N([H])C(=O)C1([H])N(C(=O)C([H])(N([H])C(=O)C([H])(N([H])C([H])([H])[H])C([H])([H])[H])C(C([H])([H])[H])(C([H])([H])[H])C([H])([H])[H])C([H])([H])c2c([H])c(OC3([H])C([H])([H])C([H])([H])C([H])(C([H])([H])C([H])([H])[N+]([H])([H])C([H])([H])C([H])([H])C([H])([H])C([H])([H])[N+]([H])([H])C([H])([H])C([H])([H])C([H])([H])C([H])([H])C([H])([H])C([H])([H])N([H])C(=O)N4C([H])([H])C([H])([H])C([H])([H])C([H])(n5nc(-c6c([H])c([H])c(Oc7c([H])c([H])c(F)c([H])c7F)c([H])c6[H])c(C(=O)N([H])[H])c5N([H])[H])C4([H])[H])C([H])([H])C3([H])[H])c([H])c([H])c2C1([H])[H]

$$$$
60:0:0
     RDKit          3D

 88 96  0  0  1  0  0  0  0  0999 V2000
  -28.1380  -21.0550   20.3230 C   0  0  0  0  0  2  0  0  0  0  0  0
  -30.4590  -21.5270   19.7750 C   0  0  0  0  0  2  0  0  0  0  0  0
  -28.5520  -19.5660   20.7780 C   0  0  0  0  0  2  0  0  0  0  0  0
  -30.8660  -20.0720   20.2520 C   0  0  0  0  0  2  0  0  0  0  0  0
  -29.2180  -22.2030   20.4590 C   0  0  0  0  0  3  0  0  0  0  0  0
  -29.8190  -18.9110   20.0950 C   0  0  0  0  0  3  0  0  0  0  0  0
  -28.9260  -23.7290   19.8820 C   0  0  0  0  0  2  0  0  0  0  0  0
  -28.1900  -24.9570   20.6760 C   0  0  0  0  0  2  0  0  0  0  0  0
  -28.3730  -26.4210   20.2980 O   0  0  0  0  0  0  0  0  0  0  0  0
  -24.6150  -31.9390   23.2490 C   0  0  0  0  0  0  0  0  0  0  0  0
  -27.2690  -27.3100   20.2710 C   0  0  0  0  0  0  0  0  0  0  0  0
  -23.4360  -30.5200   21.6110 C   0  0  0  0  0  3  0  0  0  0  0  0
  -24.9090  -28.9580   20.2090 C   0  0  0  0  0  0  0  0  0  0  0  0
  -25.9800  -30.8380   21.4500 C   0  0  0  0  0  2  0  0  0  0  0  0
  -26.0740  -29.4490   20.8140 C   0  0  0  0  0  0  0  0  0  0  0  0
  -27.2600  -28.6390   20.8240 C   0  0  0  0  0  3  0  0  0  0  0  0
  -26.0810  -26.8910   19.6370 C   0  0  0  0  0  3  0  0  0  0  0  0
  -24.9190  -27.6910   19.6070 C   0  0  0  0  0  3  0  0  0  0  0  0
  -23.6680  -29.8340   20.2390 C   0  0  0  0  0  2  0  0  0  0  0  0
  -24.6960  -31.1200   22.1580 N   0  0  0  0  0  0  0  0  0  0  0  0
  -23.5250  -32.2130   23.7720 O   0  0  0  0  0  0  0  0  0  0  0  0
  -22.7670  -29.5110   22.5750 C   0  0  0  0  0  0  0  0  0  0  0  0
  -21.4410  -29.3320   22.4440 N   0  0  0  0  0  0  0  0  0  0  0  0
  -23.4430  -28.8920   23.4010 O   0  0  0  0  0  0  0  0  0  0  0  0
  -20.9560  -29.8830   21.7510 H   0  0  0  0  0  0  0  0  0  0  0  0
  -18.0610  -28.1390   22.9510 C   0  0  0  0  0  0  0  0  0  0  0  0
  -20.6210  -28.3950   23.2160 C   0  0  0  0  0  3  0  0  0  0  0  0
  -20.7200  -26.9640   22.6400 C   0  0  0  0  0  2  0  0  0  0  0  0
  -19.6170  -26.6430   21.6270 C   0  0  0  0  0  2  0  0  0  0  0  0
  -18.2360  -26.7900   22.2720 C   0  0  0  0  0  2  0  0  0  0  0  0
  -19.1820  -28.8990   23.3800 C   0  0  0  0  0  0  0  0  0  0  0  0
  -18.9650  -30.1610   23.9750 C   0  0  0  0  0  3  0  0  0  0  0  0
  -17.6610  -30.6630   24.1440 C   0  0  0  0  0  3  0  0  0  0  0  0
  -16.5550  -29.8990   23.7320 C   0  0  0  0  0  3  0  0  0  0  0  0
  -16.7560  -28.6390   23.1410 C   0  0  0  0  0  3  0  0  0  0  0  0
  -25.8860  -32.5880   23.8790 C   0  0  0  0  0  3  0  0  0  0  0  0
  -26.3890  -31.8370   25.1740 C   0  0  1  0  0  0  0  0  0  0  0  0
  -25.2810  -31.6070   26.2290 C   0  0  0  0  0  1  0  0  0  0  0  0
  -26.9860  -30.4580   24.8100 C   0  0  0  0  0  1  0  0  0  0  0  0
  -27.5240  -32.6480   25.8420 C   0  0  0  0  0  1  0  0  0  0  0  0
  -25.5650  -33.9890   24.1920 N   0  0  0  0  0  0  0  0  0  0  0  0
  -25.9030  -35.0370   23.4290 C   0  0  0  0  0  0  0  0  0  0  0  0
  -26.5860  -34.9280   22.4080 O   0  0  0  0  0  0  0  0  0  0  0  0
  -24.9620  -34.1480   24.9850 H   0  0  0  0  0  0  0  0  0  0  0  0
  -24.1840  -36.8300   23.0280 C   0  0  0  0  0  1  0  0  0  0  0  0
  -25.4050  -36.4280   23.8720 C   0  0  0  0  0  3  0  0  0  0  0  0
  -27.5150  -37.3190   24.7550 C   0  0  0  0  0  1  0  0  0  0  0  0
  -26.4400  -37.4810   23.7810 N   0  0  0  0  0  0  0  0  0  0  0  0
  -26.0290  -38.4020   23.9110 H   0  0  0  0  0  0  0  0  0  0  0  0
  -30.4440  -17.4780   20.6350 C   0  0  0  0  0  2  0  0  0  0  0  0
  -30.6360  -14.8920   20.0770 C   0  0  0  0  0  0  0  0  0  0  0  0
  -30.3810  -12.6280   19.0200 C   0  0  0  0  0  2  0  0  0  0  0  0
  -29.3770  -12.6970   17.8470 C   0  0  0  0  0  2  0  0  0  0  0  0
  -27.9350  -12.5070   18.3550 C   0  0  0  0  0  2  0  0  0  0  0  0
  -27.6210  -13.3770   19.6010 C   0  0  0  0  0  3  0  0  0  0  0  0
  -28.7390  -13.2920   20.6620 C   0  0  0  0  0  2  0  0  0  0  0  0
  -29.9910  -13.6740   19.9970 N   0  0  0  0  0  0  0  0  0  0  0  0
  -31.8170  -14.9640   19.7260 O   0  0  0  0  0  0  0  0  0  0  0  0
  -29.9120  -16.0550   20.3670 N   0  0  0  0  0  0  0  0  0  0  0  0
  -28.9300  -15.9110   20.5530 H   0  0  0  0  0  0  0  0  0  0  0  0
  -25.2800  -13.9460   20.4730 C   0  0  0  0  0  0  0  0  0  0  0  0
  -24.2340  -13.1620   20.8780 C   0  0  0  0  0  0  0  0  0  0  0  0
  -24.6960  -11.8120   20.7930 C   0  0  0  0  0  0  0  0  0  0  0  0
  -26.3090  -13.0740   20.1600 N   0  0  0  0  0  0  0  0  0  0  0  0
  -25.9690  -11.7840   20.4190 N   0  0  0  0  0  0  0  0  0  0  0  0
  -23.9790  -10.5450   20.9910 C   0  0  0  0  0  0  0  0  0  0  0  0
  -24.4360   -9.5730   21.9070 C   0  0  0  0  0  3  0  0  0  0  0  0
  -23.7190   -8.3720   22.0950 C   0  0  0  0  0  3  0  0  0  0  0  0
  -22.5300   -8.1350   21.3640 C   0  0  0  0  0  0  0  0  0  0  0  0
  -22.0920   -9.0950   20.4370 C   0  0  0  0  0  3  0  0  0  0  0  0
  -22.8100  -10.2890   20.2480 C   0  0  0  0  0  3  0  0  0  0  0  0
  -21.7810   -6.9870   21.4620 O   0  0  0  0  0  0  0  0  0  0  0  0
  -21.7370   -6.2530   22.6200 C   0  0  0  0  0  0  0  0  0  0  0  0
  -21.2660   -6.8030   23.8330 C   0  0  0  0  0  3  0  0  0  0  0  0
  -21.1720   -5.9940   24.9830 C   0  0  0  0  0  3  0  0  0  0  0  0
  -21.5360   -4.6360   24.9210 C   0  0  0  0  0  0  0  0  0  0  0  0
  -21.9980   -4.0850   23.7130 C   0  0  0  0  0  3  0  0  0  0  0  0
  -22.0950   -4.8920   22.5650 C   0  0  0  0  0  0  0  0  0  0  0  0
  -22.5210   -4.3500   21.3990 F   0  0  0  0  0  0  0  0  0  0  0  0
  -21.4380   -3.8550   26.0230 F   0  0  0  0  0  0  0  0  0  0  0  0
  -22.8520  -13.6320   21.2290 C   0  0  0  0  0  0  0  0  0  0  0  0
  -22.1660  -12.9120   22.1090 N   0  0  0  0  0  0  0  0  0  0  0  0
  -22.3930  -14.6720   20.7590 O   0  0  0  0  0  0  0  0  0  0  0  0
  -22.5520  -12.0690   22.5090 H   0  0  0  0  0  0  0  0  0  0  0  0
  -21.2410  -13.2080   22.3880 H   0  0  0  0  0  0  0  0  0  0  0  0
  -25.4340  -15.3210   20.3170 N   0  0  0  0  0  0  0  0  0  0  0  0
  -24.6750  -15.9710   20.4850 H   0  0  0  0  0  0  0  0  0  0  0  0
  -26.2600  -15.7670   19.9380 H   0  0  0  0  0  0  0  0  0  0  0  0
  1  5  1  0
  1  3  1  0
  2  4  1  0
  2  5  1  0
  5  7  1  0
  6  4  1  0
  6 50  1  0
  6  3  1  0
  7  8  1  0
  9  8  1  0
 10 21  2  0
 11  9  1  0
 11 16  1  0
 12 20  1  0
 12 22  1  0
 13 19  1  0
 13 15  1  0
 14 20  1  0
 15 16  2  0
 15 14  1  0
 17 11  2  0
 18 17  1  0
 18 13  2  0
 19 12  1  0
 20 10  1  0
 22 24  2  0
 23 22  1  0
 25 23  1  0
 26 35  2  0
 26 31  1  0
 27 23  1  0
 27 31  1  0
 28 27  1  0
 29 30  1  0
 29 28  1  0
 30 26  1  0
 31 32  2  0
 32 33  1  0
 34 33  2  0
 35 34  1  0
 36 10  1  0
 36 41  1  0
 36 37  1  0
 37 40  1  1
 37 38  1  0
 39 37  1  0
 41 44  1  0
 42 46  1  0
 42 41  1  0
 43 42  2  0
 46 45  1  0
 48 46  1  0
 48 49  1  0
 48 47  1  0
 51 59  1  0
 52 57  1  0
 53 54  1  0
 53 52  1  0
 55 54  1  0
 55 64  1  0
 55 56  1  0
 57 51  1  0
 57 56  1  0
 58 51  2  0
 59 60  1  0
 59 50  1  0
 61 62  2  0
 62 81  1  0
 63 62  1  0
 63 66  1  0
 64 65  1  0
 64 61  1  0
 65 63  2  0
 66 67  1  0
 67 68  2  0
 69 72  1  0
 69 68  1  0
 70 69  2  0
 71 70  1  0
 71 66  2  0
 72 73  1  0
 73 74  1  0
 74 75  2  0
 76 75  1  0
 76 80  1  0
 77 76  2  0
 78 73  2  0
 78 77  1  0
 79 78  1  0
 81 82  1  0
 82 85  1  0
 82 84  1  0
 83 81  2  0
 86 61  1  0
 86 87  1  0
 88 86  1  0
M  ISO  4   8 101   9 101  51 100  59 100
M  END
>  <TORSDO>  (60) 
F 19

>  <SCORE>  (60) 
-13.940

>  <name>  (60) 
60

>  <ligand_id>  (60) 
60

>  <original_smiles>  (60) 
[H]c1c([H])c([H])c2c(c1[H])C([H])([H])C([H])([H])C([H])([H])C2([H])N([H])C(=O)C1([H])N(C(=O)C([H])(N([H])C(=O)C([H])(N([H])C([H])([H])[H])C([H])([H])[H])C(C([H])([H])[H])(C([H])([H])[H])C([H])([H])[H])C([H])([H])c2c([H])c(OC([H])([H])C([H])([H])C3([H])C([H])([H])C([H])([H])C([H])(C([H])([H])N([H])C(=O)N4C([H])([H])C([H])([H])C([H])([H])C([H])(n5nc(-c6c([H])c([H])c(Oc7c([H])c([H])c(F)c([H])c7F)c([H])c6[H])c(C(=O)N([H])[H])c5N([H])[H])C4([H])[H])C([H])([H])C3([H])[H])c([H])c([H])c2C1([H])[H]

>  <smiles>  (60) 
[H]c1c([H])c([H])c2c(c1[H])C([H])([H])C([H])([H])C([H])([H])C2([H])N([H])C(=O)C1([H])N(C(=O)C([H])(N([H])C(=O)C([H])(N([H])C([H])([H])[H])C([H])([H])[H])C(C([H])([H])[H])(C([H])([H])[H])C([H])([H])[H])C([H])([H])c2c([H])c(OC([H])([H])C([H])([H])C3([H])C([H])([H])C([H])([H])C([H])(C([H])([H])N([H])C(=O)N4C([H])([H])C([H])([H])C([H])([H])C([H])(n5nc(-c6c([H])c([H])c(Oc7c([H])c([H])c(F)c([H])c7F)c([H])c6[H])c(C(=O)N([H])[H])c5N([H])[H])C4([H])[H])C([H])([H])C3([H])[H])c([H])c([H])c2C1([H])[H]

$$$$
61:0:0
     RDKit          3D

 95104  0  0  1  0  0  0  0  0999 V2000
  -31.2300  -21.0560   19.3460 C   0  0  0  0  0  2  0  0  0  0  0  0
  -28.7090  -21.2870   19.4750 C   0  0  0  0  0  2  0  0  0  0  0  0
  -31.2380  -22.2620   18.3880 C   0  0  0  0  0  2  0  0  0  0  0  0
  -28.8140  -22.4740   18.5010 C   0  0  0  0  0  2  0  0  0  0  0  0
  -29.8860  -20.2940   19.3350 C   0  0  0  0  0  3  0  0  0  0  0  0
  -30.1080  -23.1700   18.7020 N   0  0  2  0  0  4  0  0  0  0  0  0
  -30.1900  -23.3430   19.6940 H   0  0  0  0  0  0  0  0  0  0  0  0
  -29.8750  -19.2220   20.4570 C   0  0  0  0  0  2  0  0  0  0  0  0
  -30.8620  -14.8610   21.0520 C   0  0  0  0  0  0  0  0  0  0  0  0
  -30.7590  -12.5780   20.1930 C   0  0  0  0  0  2  0  0  0  0  0  0
  -29.9460  -12.6220   18.8830 C   0  0  0  0  0  2  0  0  0  0  0  0
  -28.4410  -12.4500   19.1760 C   0  0  0  0  0  2  0  0  0  0  0  0
  -27.9300  -13.3840   20.3080 C   0  0  0  0  0  3  0  0  0  0  0  0
  -28.8840  -13.3640   21.5280 C   0  0  0  0  0  2  0  0  0  0  0  0
  -30.2390  -13.6530   21.0450 N   0  0  0  0  0  0  0  0  0  0  0  0
  -32.0890  -14.9630   21.0050 O   0  0  0  0  0  0  0  0  0  0  0  0
  -28.4820  -17.6400   18.9310 C   0  0  0  0  0  0  0  0  0  0  0  0
  -29.5040  -16.7870   18.1920 C   0  0  0  0  0  2  0  0  0  0  0  0
  -30.6480  -16.3450   19.1270 C   0  0  0  0  0  2  0  0  0  0  0  0
  -29.3060  -16.7950   21.1790 C   0  0  0  0  0  2  0  0  0  0  0  0
  -28.8490  -18.0510   20.3650 C   0  0  0  0  0  3  0  0  0  0  0  0
  -30.1430  -15.8330   20.4240 N   0  0  0  0  0  0  0  0  0  0  0  0
  -27.4160  -17.9710   18.4100 O   0  0  0  0  0  0  0  0  0  0  0  0
  -25.4670  -13.9280   20.8140 C   0  0  0  0  0  0  0  0  0  0  0  0
  -24.3920  -13.1300   21.0890 C   0  0  0  0  0  0  0  0  0  0  0  0
  -24.8890  -11.7900   21.1060 C   0  0  0  0  0  0  0  0  0  0  0  0
  -26.5520  -13.0760   20.6810 N   0  0  0  0  0  0  0  0  0  0  0  0
  -26.2030  -11.7850   20.9200 N   0  0  0  0  0  0  0  0  0  0  0  0
  -24.1810  -10.5090   21.2330 C   0  0  0  0  0  0  0  0  0  0  0  0
  -24.5440   -9.5570   22.2120 C   0  0  0  0  0  3  0  0  0  0  0  0
  -23.8370   -8.3420   22.3240 C   0  0  0  0  0  3  0  0  0  0  0  0
  -22.7520   -8.0680   21.4580 C   0  0  0  0  0  0  0  0  0  0  0  0
  -22.4110   -9.0080   20.4690 C   0  0  0  0  0  3  0  0  0  0  0  0
  -23.1190  -10.2150   20.3540 C   0  0  0  0  0  3  0  0  0  0  0  0
  -22.0260   -6.9000   21.4750 O   0  0  0  0  0  0  0  0  0  0  0  0
  -21.8690   -6.1690   22.6240 C   0  0  0  0  0  0  0  0  0  0  0  0
  -21.2430   -6.7080   23.7700 C   0  0  0  0  0  3  0  0  0  0  0  0
  -21.0410   -5.8990   24.9070 C   0  0  0  0  0  3  0  0  0  0  0  0
  -21.4530   -4.5530   24.8960 C   0  0  0  0  0  0  0  0  0  0  0  0
  -22.0720   -4.0140   23.7550 C   0  0  0  0  0  3  0  0  0  0  0  0
  -22.2760   -4.8210   22.6210 C   0  0  0  0  0  0  0  0  0  0  0  0
  -22.8530   -4.2900   21.5160 F   0  0  0  0  0  0  0  0  0  0  0  0
  -21.2520   -3.7730   25.9850 F   0  0  0  0  0  0  0  0  0  0  0  0
  -22.9620  -13.5690   21.2260 C   0  0  0  0  0  0  0  0  0  0  0  0
  -22.1770  -12.8550   22.0220 N   0  0  0  0  0  0  0  0  0  0  0  0
  -22.5490  -14.5840   20.6620 O   0  0  0  0  0  0  0  0  0  0  0  0
  -22.5250  -12.0330   22.4950 H   0  0  0  0  0  0  0  0  0  0  0  0
  -21.2160  -13.1310   22.1600 H   0  0  0  0  0  0  0  0  0  0  0  0
  -25.6120  -15.3010   20.6400 N   0  0  0  0  0  0  0  0  0  0  0  0
  -24.8150  -15.9240   20.6490 H   0  0  0  0  0  0  0  0  0  0  0  0
  -26.4650  -15.7520   20.3410 H   0  0  0  0  0  0  0  0  0  0  0  0
  -30.2390  -24.4960   18.0400 C   0  0  0  0  0  2  0  0  0  0  0  0
  -29.0930  -25.4960   18.3400 C   0  0  0  0  0  2  0  0  0  0  0  0
  -28.7900  -25.6910   19.8420 C   0  0  0  0  0  2  0  0  0  0  0  0
  -28.6620  -27.0660   20.1980 O   0  0  0  0  0  0  0  0  0  0  0  0
  -24.6320  -32.0130   23.3050 C   0  0  0  0  0  0  0  0  0  0  0  0
  -27.4310  -27.6890   20.1880 C   0  0  0  0  0  0  0  0  0  0  0  0
  -23.4740  -30.6000   21.6400 C   0  0  0  0  0  3  0  0  0  0  0  0
  -24.9760  -29.1080   20.2180 C   0  0  0  0  0  0  0  0  0  0  0  0
  -25.9880  -31.0230   21.4660 C   0  0  0  0  0  2  0  0  0  0  0  0
  -26.1110  -29.6590   20.8210 C   0  0  0  0  0  0  0  0  0  0  0  0
  -27.3340  -28.9530   20.8110 C   0  0  0  0  0  3  0  0  0  0  0  0
  -26.2740  -27.1410   19.5870 C   0  0  0  0  0  3  0  0  0  0  0  0
  -25.0480  -27.8420   19.6050 C   0  0  0  0  0  3  0  0  0  0  0  0
  -23.7050  -29.9340   20.2570 C   0  0  0  0  0  2  0  0  0  0  0  0
  -24.7160  -31.2240   22.1970 N   0  0  0  0  0  0  0  0  0  0  0  0
  -23.5400  -32.2550   23.8360 O   0  0  0  0  0  0  0  0  0  0  0  0
  -22.8410  -29.5540   22.5850 C   0  0  0  0  0  0  0  0  0  0  0  0
  -21.5230  -29.3400   22.4410 N   0  0  0  0  0  0  0  0  0  0  0  0
  -23.5320  -28.9400   23.4010 O   0  0  0  0  0  0  0  0  0  0  0  0
  -21.0270  -29.8910   21.7550 H   0  0  0  0  0  0  0  0  0  0  0  0
  -18.1680  -28.0820   22.8960 C   0  0  0  0  0  0  0  0  0  0  0  0
  -20.7180  -28.3750   23.1900 C   0  0  0  0  0  3  0  0  0  0  0  0
  -20.8490  -26.9580   22.5870 C   0  0  0  0  0  2  0  0  0  0  0  0
  -19.7600  -26.6330   21.5630 C   0  0  0  0  0  2  0  0  0  0  0  0
  -18.3730  -26.7450   22.2010 C   0  0  0  0  0  2  0  0  0  0  0  0
  -19.2700  -28.8540   23.3450 C   0  0  0  0  0  0  0  0  0  0  0  0
  -19.0290  -30.1050   23.9520 C   0  0  0  0  0  3  0  0  0  0  0  0
  -17.7140  -30.5830   24.1180 C   0  0  0  0  0  3  0  0  0  0  0  0
  -16.6260  -29.8040   23.6890 C   0  0  0  0  0  3  0  0  0  0  0  0
  -16.8520  -28.5570   23.0810 C   0  0  0  0  0  3  0  0  0  0  0  0
  -25.8980  -32.6650   23.9440 C   0  0  0  0  0  3  0  0  0  0  0  0
  -26.3990  -31.9160   25.2410 C   0  0  1  0  0  0  0  0  0  0  0  0
  -25.2860  -31.6730   26.2880 C   0  0  0  0  0  1  0  0  0  0  0  0
  -27.0110  -30.5450   24.8760 C   0  0  0  0  0  1  0  0  0  0  0  0
  -27.5240  -32.7340   25.9130 C   0  0  0  0  0  1  0  0  0  0  0  0
  -25.5650  -34.0660   24.2420 N   0  0  0  0  0  0  0  0  0  0  0  0
  -25.9140  -35.1090   23.4780 C   0  0  0  0  0  0  0  0  0  0  0  0
  -26.6170  -34.9980   22.4700 O   0  0  0  0  0  0  0  0  0  0  0  0
  -24.9410  -34.2240   25.0190 H   0  0  0  0  0  0  0  0  0  0  0  0
  -24.1970  -36.8940   23.0330 C   0  0  0  0  0  1  0  0  0  0  0  0
  -25.4020  -36.5010   23.9010 C   0  0  0  0  0  3  0  0  0  0  0  0
  -27.4910  -37.4100   24.8200 C   0  0  0  0  0  1  0  0  0  0  0  0
  -26.4340  -37.5580   23.8230 N   0  0  0  0  0  0  0  0  0  0  0  0
  -26.0180  -38.4790   23.9340 H   0  0  0  0  0  0  0  0  0  0  0  0
  3  6  1  0
  3  1  1  0
  4  6  1  0
  4  2  1  0
  5  1  1  0
  5  2  1  0
  5  8  1  0
  6  7  1  1
 10 15  1  0
 11 12  1  0
 11 10  1  0
 13 12  1  0
 13 27  1  0
 13 14  1  0
 15  9  1  0
 15 14  1  0
 16  9  2  0
 17 21  1  0
 18 17  1  0
 18 19  1  0
 19 22  1  0
 21  8  1  0
 21 20  1  0
 22  9  1  0
 22 20  1  0
 23 17  2  0
 24 25  2  0
 25 26  1  0
 25 44  1  0
 26 29  1  0
 27 24  1  0
 27 28  1  0
 28 26  2  0
 29 30  1  0
 30 31  2  0
 32 35  1  0
 32 31  1  0
 33 32  2  0
 34 33  1  0
 34 29  2  0
 35 36  1  0
 36 37  1  0
 37 38  2  0
 39 38  1  0
 39 43  1  0
 40 39  2  0
 41 36  2  0
 41 40  1  0
 42 41  1  0
 44 45  1  0
 45 48  1  0
 45 47  1  0
 46 44  2  0
 49 50  1  0
 49 24  1  0
 51 49  1  0
 52 53  1  0
 52  6  1  0
 53 54  1  0
 54 55  1  0
 56 67  2  0
 57 55  1  0
 57 62  1  0
 58 66  1  0
 58 68  1  0
 59 65  1  0
 59 61  1  0
 60 66  1  0
 61 60  1  0
 62 61  2  0
 63 64  1  0
 63 57  2  0
 64 59  2  0
 65 58  1  0
 66 56  1  0
 68 70  2  0
 69 68  1  0
 71 69  1  0
 72 81  2  0
 72 77  1  0
 73 69  1  0
 73 77  1  0
 74 73  1  0
 75 76  1  0
 75 74  1  0
 76 72  1  0
 77 78  2  0
 78 79  1  0
 80 79  2  0
 81 80  1  0
 82 56  1  0
 82 87  1  0
 82 83  1  0
 83 86  1  1
 83 84  1  0
 85 83  1  0
 87 90  1  0
 88 92  1  0
 88 87  1  0
 89 88  2  0
 92 91  1  0
 94 92  1  0
 94 95  1  0
 94 93  1  0
M  ISO  4   9 100  22 100  54 101  55 101
M  END
>  <TORSDO>  (61) 
F 20

>  <SCORE>  (61) 
-13.124

>  <name>  (61) 
61

>  <ligand_id>  (61) 
61

>  <original_smiles>  (61) 
[H]c1c([H])c([H])c2c(c1[H])C([H])([H])C([H])([H])C([H])([H])C2([H])N([H])C(=O)C1([H])N(C(=O)C([H])(N([H])C(=O)C([H])(N([H])C([H])([H])[H])C([H])([H])[H])C(C([H])([H])[H])(C([H])([H])[H])C([H])([H])[H])C([H])([H])c2c([H])c(OC([H])([H])C([H])([H])C([H])([H])[N+]3([H])C([H])([H])C([H])([H])C([H])(C([H])([H])C4([H])C(=O)C([H])([H])C([H])([H])N(C(=O)N5C([H])([H])C([H])([H])C([H])([H])C([H])(n6nc(-c7c([H])c([H])c(Oc8c([H])c([H])c(F)c([H])c8F)c([H])c7[H])c(C(=O)N([H])[H])c6N([H])[H])C5([H])[H])C4([H])[H])C([H])([H])C3([H])[H])c([H])c([H])c2C1([H])[H]

>  <smiles>  (61) 
[H]c1c([H])c([H])c2c(c1[H])C([H])([H])C([H])([H])C([H])([H])C2([H])N([H])C(=O)C1([H])N(C(=O)C([H])(N([H])C(=O)C([H])(N([H])C([H])([H])[H])C([H])([H])[H])C(C([H])([H])[H])(C([H])([H])[H])C([H])([H])[H])C([H])([H])c2c([H])c(OC([H])([H])C([H])([H])C([H])([H])[N+]3([H])C([H])([H])C([H])([H])C([H])(C([H])([H])C4([H])C(=O)C([H])([H])C([H])([H])N(C(=O)N5C([H])([H])C([H])([H])C([H])([H])C([H])(n6nc(-c7c([H])c([H])c(Oc8c([H])c([H])c(F)c([H])c8F)c([H])c7[H])c(C(=O)N([H])[H])c6N([H])[H])C5([H])[H])C4([H])[H])C([H])([H])C3([H])[H])c([H])c([H])c2C1([H])[H]

$$$$
62:0:0
     RDKit          3D

 95103  0  0  1  0  0  0  0  0999 V2000
  -29.9750  -21.2470   23.6900 C   0  0  0  0  0  2  0  0  0  0  0  0
  -31.3940  -20.6710   23.5250 C   0  0  0  0  0  2  0  0  0  0  0  0
  -31.5220  -20.9840   20.9130 C   0  0  0  0  0  2  0  0  0  0  0  0
  -29.8450  -22.7130   23.2300 C   0  0  0  0  0  2  0  0  0  0  0  0
  -30.3310  -21.9560   20.9170 C   0  0  0  0  0  2  0  0  0  0  0  0
  -31.6800  -20.0380   22.1370 C   0  0  0  0  0  3  0  0  0  0  0  0
  -30.5580  -22.9880   21.9570 N   0  0  1  0  0  4  0  0  0  0  0  0
  -31.5380  -22.8800   22.1660 H   0  0  0  0  0  0  0  0  0  0  0  0
  -33.1110  -19.4530   22.1520 C   0  0  0  0  0  2  0  0  0  0  0  0
  -33.3560  -18.3190   21.1470 C   0  0  0  0  0  2  0  0  0  0  0  0
  -34.6350  -18.5530   20.3250 C   0  0  0  0  0  2  0  0  0  0  0  0
  -35.1250  -17.3030   19.5830 C   0  0  0  0  0  2  0  0  0  0  0  0
  -33.9930  -15.5060   18.2640 C   0  0  0  0  0  0  0  0  0  0  0  0
  -33.4160  -13.1370   17.9330 C   0  0  0  0  0  2  0  0  0  0  0  0
  -32.3200  -12.8590   16.8950 C   0  0  0  0  0  2  0  0  0  0  0  0
  -30.9260  -12.9660   17.5370 C   0  0  0  0  0  2  0  0  0  0  0  0
  -30.7420  -14.2880   18.3230 C   0  0  0  0  0  3  0  0  0  0  0  0
  -31.9210  -14.5250   19.2890 C   0  0  0  0  0  2  0  0  0  0  0  0
  -33.1850  -14.4560   18.5300 N   0  0  0  0  0  0  0  0  0  0  0  0
  -34.7870  -15.5510   17.3170 O   0  0  0  0  0  0  0  0  0  0  0  0
  -34.0490  -16.3660   19.2850 N   0  0  0  0  0  0  0  0  0  0  0  0
  -33.3850  -16.1940   20.0260 H   0  0  0  0  0  0  0  0  0  0  0  0
  -28.7320  -15.3960   19.4930 C   0  0  0  0  0  0  0  0  0  0  0  0
  -27.5740  -14.8780   20.0060 C   0  0  0  0  0  0  0  0  0  0  0  0
  -27.6560  -13.4640   19.8150 C   0  0  0  0  0  0  0  0  0  0  0  0
  -29.4600  -14.3130   19.0260 N   0  0  0  0  0  0  0  0  0  0  0  0
  -28.8220  -13.1400   19.2740 N   0  0  0  0  0  0  0  0  0  0  0  0
  -26.6670  -12.4070   20.0620 C   0  0  0  0  0  0  0  0  0  0  0  0
  -26.8940  -11.3930   21.0210 C   0  0  0  0  0  3  0  0  0  0  0  0
  -25.9210  -10.3970   21.2520 C   0  0  0  0  0  3  0  0  0  0  0  0
  -24.7060  -10.4090   20.5260 C   0  0  0  0  0  0  0  0  0  0  0  0
  -24.4970  -11.4060   19.5570 C   0  0  0  0  0  3  0  0  0  0  0  0
  -25.4680  -12.3940   19.3240 C   0  0  0  0  0  3  0  0  0  0  0  0
  -23.7150   -9.4680   20.6650 O   0  0  0  0  0  0  0  0  0  0  0  0
  -23.3200   -9.0170   21.8990 C   0  0  0  0  0  0  0  0  0  0  0  0
  -22.8630   -9.8980   22.9030 C   0  0  0  0  0  3  0  0  0  0  0  0
  -22.4010   -9.3860   24.1320 C   0  0  0  0  0  3  0  0  0  0  0  0
  -22.3840   -7.9970   24.3550 C   0  0  0  0  0  0  0  0  0  0  0  0
  -22.8330   -7.1170   23.3540 C   0  0  0  0  0  3  0  0  0  0  0  0
  -23.2960   -7.6270   22.1280 C   0  0  0  0  0  0  0  0  0  0  0  0
  -23.7070   -6.7740   21.1590 F   0  0  0  0  0  0  0  0  0  0  0  0
  -21.9330   -7.5040   25.5330 F   0  0  0  0  0  0  0  0  0  0  0  0
  -26.4120  -15.6530   20.5570 C   0  0  0  0  0  0  0  0  0  0  0  0
  -25.7050  -15.0900   21.5300 N   0  0  0  0  0  0  0  0  0  0  0  0
  -26.1530  -16.7880   20.1580 O   0  0  0  0  0  0  0  0  0  0  0  0
  -25.9280  -14.1670   21.8720 H   0  0  0  0  0  0  0  0  0  0  0  0
  -24.9290  -15.5890   21.9420 H   0  0  0  0  0  0  0  0  0  0  0  0
  -29.2160  -16.6950   19.3640 N   0  0  0  0  0  0  0  0  0  0  0  0
  -28.6770  -17.5070   19.6450 H   0  0  0  0  0  0  0  0  0  0  0  0
  -30.0930  -16.9350   18.9180 H   0  0  0  0  0  0  0  0  0  0  0  0
  -30.4440  -24.3930   21.4900 C   0  0  0  0  0  2  0  0  0  0  0  0
  -31.8310  -25.0640   21.3900 C   0  0  0  0  0  2  0  0  0  0  0  0
  -31.7370  -26.5250   20.9320 C   0  0  0  0  0  2  0  0  0  0  0  0
  -33.0570  -27.3120   21.0800 C   0  0  0  0  0  2  0  0  0  0  0  0
  -32.8440  -28.7220   21.1750 O   0  0  0  0  0  0  0  0  0  0  0  0
  -27.6130  -30.4680   25.6560 C   0  0  0  0  0  0  0  0  0  0  0  0
  -31.5270  -29.0630   21.3330 C   0  0  0  0  0  0  0  0  0  0  0  0
  -26.9220  -29.8520   23.3630 C   0  0  0  0  0  3  0  0  0  0  0  0
  -28.8000  -29.6820   21.6470 C   0  0  0  0  0  0  0  0  0  0  0  0
  -29.2210  -30.8800   23.8020 C   0  0  0  0  0  2  0  0  0  0  0  0
  -29.7290  -30.1000   22.6110 C   0  0  0  0  0  0  0  0  0  0  0  0
  -31.0980  -29.7880   22.4620 C   0  0  0  0  0  3  0  0  0  0  0  0
  -30.5920  -28.6730   20.3540 C   0  0  0  0  0  3  0  0  0  0  0  0
  -29.2250  -28.9630   20.5160 C   0  0  0  0  0  3  0  0  0  0  0  0
  -27.3540  -30.0520   21.8870 C   0  0  0  0  0  2  0  0  0  0  0  0
  -27.9300  -30.3870   24.3330 N   0  0  0  0  0  0  0  0  0  0  0  0
  -26.4880  -30.1480   26.0650 O   0  0  0  0  0  0  0  0  0  0  0  0
  -26.5910  -28.3590   23.5820 C   0  0  0  0  0  0  0  0  0  0  0  0
  -25.4930  -27.8940   22.9640 N   0  0  0  0  0  0  0  0  0  0  0  0
  -27.3220  -27.6430   24.2720 O   0  0  0  0  0  0  0  0  0  0  0  0
  -24.9450  -28.5480   22.4240 H   0  0  0  0  0  0  0  0  0  0  0  0
  -22.7900  -25.7380   21.9160 C   0  0  0  0  0  0  0  0  0  0  0  0
  -25.0040  -26.5170   22.9990 C   0  0  0  0  0  3  0  0  0  0  0  0
  -25.7110  -25.6460   21.9350 C   0  0  0  0  0  2  0  0  0  0  0  0
  -24.9490  -25.5780   20.6070 C   0  0  0  0  0  2  0  0  0  0  0  0
  -23.5460  -25.0040   20.8220 C   0  0  0  0  0  2  0  0  0  0  0  0
  -23.4730  -26.4610   22.9300 C   0  0  0  0  0  0  0  0  0  0  0  0
  -22.7210  -27.1540   23.9020 C   0  0  0  0  0  3  0  0  0  0  0  0
  -21.3140  -27.1320   23.8750 C   0  0  0  0  0  3  0  0  0  0  0  0
  -20.6430  -26.4000   22.8800 C   0  0  0  0  0  3  0  0  0  0  0  0
  -21.3810  -25.7030   21.9060 C   0  0  0  0  0  3  0  0  0  0  0  0
  -28.6360  -30.9920   26.7120 C   0  0  0  0  0  3  0  0  0  0  0  0
  -28.2510  -32.3660   27.0570 N   0  0  0  0  0  0  0  0  0  0  0  0
  -28.8320  -33.4650   26.5570 C   0  0  0  0  0  0  0  0  0  0  0  0
  -29.8070  -33.4240   25.8030 O   0  0  0  0  0  0  0  0  0  0  0  0
  -27.4250  -32.4740   27.6280 H   0  0  0  0  0  0  0  0  0  0  0  0
  -27.3790  -35.3730   25.8020 C   0  0  0  0  0  1  0  0  0  0  0  0
  -28.2320  -34.8260   26.9580 C   0  0  0  0  0  3  0  0  0  0  0  0
  -29.9480  -35.4910   28.5810 C   0  0  0  0  0  1  0  0  0  0  0  0
  -29.2520  -35.8270   27.3420 N   0  0  0  0  0  0  0  0  0  0  0  0
  -28.8320  -36.7460   27.4540 H   0  0  0  0  0  0  0  0  0  0  0  0
  -28.7110  -30.0900   28.0040 C   0  0  1  0  0  0  0  0  0  0  0  0
  -27.3260  -29.6990   28.5730 C   0  0  0  0  0  1  0  0  0  0  0  0
  -29.4860  -28.7850   27.7130 C   0  0  0  0  0  1  0  0  0  0  0  0
  -29.4960  -30.8290   29.1140 C   0  0  0  0  0  1  0  0  0  0  0  0
  2  1  1  0
  3  5  1  0
  3  6  1  0
  4  1  1  0
  5  7  1  0
  6  9  1  0
  6  2  1  0
  7  8  1  1
  7  4  1  0
 10  9  1  0
 11 10  1  0
 12 11  1  0
 13 19  1  0
 13 21  1  0
 14 19  1  0
 15 16  1  0
 15 14  1  0
 17 16  1  0
 17 26  1  0
 17 18  1  0
 19 18  1  0
 20 13  2  0
 21 12  1  0
 21 22  1  0
 23 24  2  0
 24 43  1  0
 25 24  1  0
 25 28  1  0
 26 27  1  0
 26 23  1  0
 27 25  2  0
 28 29  1  0
 29 30  2  0
 31 34  1  0
 31 30  1  0
 32 31  2  0
 33 32  1  0
 33 28  2  0
 34 35  1  0
 35 40  2  0
 35 36  1  0
 36 37  2  0
 37 38  1  0
 38 42  1  0
 39 38  2  0
 40 39  1  0
 41 40  1  0
 43 44  1  0
 44 46  1  0
 44 47  1  0
 45 43  2  0
 48 23  1  0
 48 49  1  0
 50 48  1  0
 51  7  1  0
 52 51  1  0
 53 54  1  0
 53 52  1  0
 54 55  1  0
 55 57  1  0
 56 67  2  0
 57 62  1  0
 58 68  1  0
 58 66  1  0
 59 65  1  0
 59 61  1  0
 60 66  1  0
 61 60  1  0
 62 61  2  0
 63 64  1  0
 63 57  2  0
 64 59  2  0
 65 58  1  0
 66 56  1  0
 68 70  2  0
 69 68  1  0
 71 69  1  0
 72 77  1  0
 73 69  1  0
 74 73  1  0
 75 76  1  0
 75 74  1  0
 76 72  1  0
 77 73  1  0
 77 78  2  0
 79 78  1  0
 80 79  2  0
 81 72  2  0
 81 80  1  0
 82 56  1  0
 82 83  1  0
 82 92  1  0
 83 86  1  0
 84 88  1  0
 84 83  1  0
 85 84  2  0
 88 87  1  0
 88 90  1  0
 90 91  1  0
 90 89  1  0
 92 93  1  1
 92 95  1  0
 94 92  1  0
M  ISO  4  13 100  21 100  54 101  55 101
M  END
>  <TORSDO>  (62) 
F 24

>  <SCORE>  (62) 
-0.427

>  <name>  (62) 
62

>  <ligand_id>  (62) 
62

>  <original_smiles>  (62) 
[H]c1c([H])c([H])c2c(c1[H])C([H])([H])C([H])([H])C([H])([H])C2([H])N([H])C(=O)C1([H])N(C(=O)C([H])(N([H])C(=O)C([H])(N([H])C([H])([H])[H])C([H])([H])[H])C(C([H])([H])[H])(C([H])([H])[H])C([H])([H])[H])C([H])([H])c2c([H])c(OC([H])([H])C([H])([H])C([H])([H])C([H])([H])[N+]3([H])C([H])([H])C([H])([H])C([H])([H])C([H])(C([H])([H])C([H])([H])C([H])([H])C([H])([H])N([H])C(=O)N4C([H])([H])C([H])([H])C([H])([H])C([H])(n5nc(-c6c([H])c([H])c(Oc7c([H])c([H])c(F)c([H])c7F)c([H])c6[H])c(C(=O)N([H])[H])c5N([H])[H])C4([H])[H])C([H])([H])C3([H])[H])c([H])c([H])c2C1([H])[H]

>  <smiles>  (62) 
[H]c1c([H])c([H])c2c(c1[H])C([H])([H])C([H])([H])C([H])([H])C2([H])N([H])C(=O)C1([H])N(C(=O)C([H])(N([H])C(=O)C([H])(N([H])C([H])([H])[H])C([H])([H])[H])C(C([H])([H])[H])(C([H])([H])[H])C([H])([H])[H])C([H])([H])c2c([H])c(OC([H])([H])C([H])([H])C([H])([H])C([H])([H])[N+]3([H])C([H])([H])C([H])([H])C([H])([H])C([H])(C([H])([H])C([H])([H])C([H])([H])C([H])([H])N([H])C(=O)N4C([H])([H])C([H])([H])C([H])([H])C([H])(n5nc(-c6c([H])c([H])c(Oc7c([H])c([H])c(F)c([H])c7F)c([H])c6[H])c(C(=O)N([H])[H])c5N([H])[H])C4([H])[H])C([H])([H])C3([H])[H])c([H])c([H])c2C1([H])[H]

$$$$
63:0:0
     RDKit          3D

 96104  0  0  1  0  0  0  0  0999 V2000
  -27.2490  -24.0510   22.2380 C   0  0  0  0  0  2  0  0  0  0  0  0
  -29.2130  -25.6490   22.2050 C   0  0  0  0  0  2  0  0  0  0  0  0
  -28.1120  -23.0180   22.9940 C   0  0  0  0  0  2  0  0  0  0  0  0
  -29.3340  -25.0860   23.6410 C   0  0  0  0  0  2  0  0  0  0  0  0
  -28.1310  -24.9480   21.3450 C   0  0  0  0  0  3  0  0  0  0  0  0
  -29.3140  -23.6000   23.6680 N   0  0  2  0  0  4  0  0  0  0  0  0
  -29.2400  -23.3510   24.6440 H   0  0  0  0  0  0  0  0  0  0  0  0
  -30.6020  -23.0170   23.2060 C   0  0  0  0  0  2  0  0  0  0  0  0
  -30.7600  -21.5130   23.5290 C   0  0  0  0  0  2  0  0  0  0  0  0
  -31.7420  -20.8300   22.5620 C   0  0  0  0  0  2  0  0  0  0  0  0
  -31.5580  -19.3060   22.4870 C   0  0  0  0  0  2  0  0  0  0  0  0
  -32.4000  -18.6910   21.3610 C   0  0  0  0  0  2  0  0  0  0  0  0
  -32.1260  -17.1940   21.1400 C   0  0  0  0  0  2  0  0  0  0  0  0
  -32.4610  -16.7610   19.7020 C   0  0  0  0  0  2  0  0  0  0  0  0
  -32.7660  -15.2660   19.5600 C   0  0  0  0  0  2  0  0  0  0  0  0
  -31.2530  -13.6700   18.3940 C   0  0  0  0  0  0  0  0  0  0  0  0
  -30.6950  -11.2910   18.1690 C   0  0  0  0  0  2  0  0  0  0  0  0
  -29.5060  -10.9570   17.2610 C   0  0  0  0  0  2  0  0  0  0  0  0
  -28.1930  -11.0270   18.0550 C   0  0  0  0  0  2  0  0  0  0  0  0
  -28.0440  -12.3620   18.8290 C   0  0  0  0  0  3  0  0  0  0  0  0
  -29.3150  -12.6850   19.6480 C   0  0  0  0  0  2  0  0  0  0  0  0
  -30.4940  -12.6170   18.7640 N   0  0  0  0  0  0  0  0  0  0  0  0
  -31.8710  -13.7390   17.3270 O   0  0  0  0  0  0  0  0  0  0  0  0
  -31.5550  -14.4570   19.4330 N   0  0  0  0  0  0  0  0  0  0  0  0
  -31.0440  -14.2710   20.2830 H   0  0  0  0  0  0  0  0  0  0  0  0
  -26.1600  -13.4100   20.2400 C   0  0  0  0  0  0  0  0  0  0  0  0
  -25.0700  -12.8620   20.8620 C   0  0  0  0  0  0  0  0  0  0  0  0
  -25.1470  -11.4560   20.6260 C   0  0  0  0  0  0  0  0  0  0  0  0
  -26.8470  -12.3490   19.6690 N   0  0  0  0  0  0  0  0  0  0  0  0
  -26.2530  -11.1620   19.9530 N   0  0  0  0  0  0  0  0  0  0  0  0
  -24.2020  -10.3780   20.9520 C   0  0  0  0  0  0  0  0  0  0  0  0
  -24.5880   -9.2720   21.7410 C   0  0  0  0  0  3  0  0  0  0  0  0
  -23.6570   -8.2580   22.0560 C   0  0  0  0  0  3  0  0  0  0  0  0
  -22.3260   -8.3450   21.5840 C   0  0  0  0  0  0  0  0  0  0  0  0
  -21.9540   -9.4380   20.7810 C   0  0  0  0  0  3  0  0  0  0  0  0
  -22.8830  -10.4430   20.4640 C   0  0  0  0  0  3  0  0  0  0  0  0
  -21.3600   -7.3960   21.8190 O   0  0  0  0  0  0  0  0  0  0  0  0
  -21.3690   -6.6270   22.9550 C   0  0  0  0  0  0  0  0  0  0  0  0
  -21.3260   -7.2010   24.2440 C   0  0  0  0  0  3  0  0  0  0  0  0
  -21.2660   -6.3720   25.3820 C   0  0  0  0  0  3  0  0  0  0  0  0
  -21.2380   -4.9730   25.2340 C   0  0  0  0  0  0  0  0  0  0  0  0
  -21.2760   -4.3990   23.9510 C   0  0  0  0  0  3  0  0  0  0  0  0
  -21.3380   -5.2240   22.8140 C   0  0  0  0  0  0  0  0  0  0  0  0
  -21.3520   -4.6680   21.5790 F   0  0  0  0  0  0  0  0  0  0  0  0
  -21.1730   -4.1760   26.3260 F   0  0  0  0  0  0  0  0  0  0  0  0
  -23.9660  -13.6070   21.5560 C   0  0  0  0  0  0  0  0  0  0  0  0
  -23.3710  -13.0090   22.5810 N   0  0  0  0  0  0  0  0  0  0  0  0
  -23.6580  -14.7510   21.2220 O   0  0  0  0  0  0  0  0  0  0  0  0
  -23.6360  -12.0780   22.8690 H   0  0  0  0  0  0  0  0  0  0  0  0
  -22.6390  -13.4870   23.0860 H   0  0  0  0  0  0  0  0  0  0  0  0
  -26.6130  -14.7180   20.0940 N   0  0  0  0  0  0  0  0  0  0  0  0
  -26.1020  -15.5140   20.4590 H   0  0  0  0  0  0  0  0  0  0  0  0
  -27.4370  -14.9830   19.5690 H   0  0  0  0  0  0  0  0  0  0  0  0
  -27.3230  -25.9730   20.5280 C   0  0  0  0  0  2  0  0  0  0  0  0
  -26.7090  -25.4380   19.2120 C   0  0  0  0  0  2  0  0  0  0  0  0
  -26.4420  -26.5070   18.3030 O   0  0  0  0  0  0  0  0  0  0  0  0
  -24.0650  -31.4700   22.7600 C   0  0  0  0  0  0  0  0  0  0  0  0
  -25.3810  -27.3020   18.6540 C   0  0  0  0  0  0  0  0  0  0  0  0
  -22.3440  -30.3790   21.3540 C   0  0  0  0  0  3  0  0  0  0  0  0
  -23.2250  -28.9300   19.4510 C   0  0  0  0  0  0  0  0  0  0  0  0
  -24.7590  -30.5840   20.5400 C   0  0  0  0  0  2  0  0  0  0  0  0
  -24.5390  -29.3070   19.7610 C   0  0  0  0  0  0  0  0  0  0  0  0
  -25.6210  -28.5010   19.3530 C   0  0  0  0  0  3  0  0  0  0  0  0
  -24.0550  -26.9290   18.3460 C   0  0  0  0  0  3  0  0  0  0  0  0
  -22.9750  -27.7410   18.7430 C   0  0  0  0  0  3  0  0  0  0  0  0
  -22.1250  -29.8610   19.9070 C   0  0  0  0  0  2  0  0  0  0  0  0
  -23.7560  -30.8160   21.6050 N   0  0  0  0  0  0  0  0  0  0  0  0
  -23.1880  -31.7510   23.5890 O   0  0  0  0  0  0  0  0  0  0  0  0
  -21.8510  -29.2980   22.3430 C   0  0  0  0  0  0  0  0  0  0  0  0
  -20.5280  -29.0750   22.3710 N   0  0  0  0  0  0  0  0  0  0  0  0
  -22.6490  -28.6640   23.0390 O   0  0  0  0  0  0  0  0  0  0  0  0
  -19.9400  -29.6440   21.7790 H   0  0  0  0  0  0  0  0  0  0  0  0
  -17.3240  -27.5230   22.9850 C   0  0  0  0  0  0  0  0  0  0  0  0
  -19.8400  -28.0780   23.1910 C   0  0  0  0  0  3  0  0  0  0  0  0
  -20.0940  -26.6470   22.6600 C   0  0  0  0  0  2  0  0  0  0  0  0
  -19.0180  -26.1660   21.6830 C   0  0  0  0  0  2  0  0  0  0  0  0
  -17.6410  -26.1780   22.3530 C   0  0  0  0  0  2  0  0  0  0  0  0
  -18.3570  -28.4210   23.3630 C   0  0  0  0  0  0  0  0  0  0  0  0
  -18.0070  -29.6730   23.9140 C   0  0  0  0  0  3  0  0  0  0  0  0
  -16.6580  -30.0310   24.0920 C   0  0  0  0  0  3  0  0  0  0  0  0
  -15.6400  -29.1320   23.7320 C   0  0  0  0  0  3  0  0  0  0  0  0
  -15.9740  -27.8800   23.1840 C   0  0  0  0  0  3  0  0  0  0  0  0
  -25.5260  -31.9150   23.0850 C   0  0  0  0  0  3  0  0  0  0  0  0
  -26.2930  -30.9020   24.0230 C   0  0  1  0  0  0  0  0  0  0  0  0
  -25.5150  -30.5320   25.3070 C   0  0  0  0  0  1  0  0  0  0  0  0
  -26.6040  -29.5890   23.2650 C   0  0  0  0  0  1  0  0  0  0  0  0
  -27.6510  -31.5080   24.4470 C   0  0  0  0  0  1  0  0  0  0  0  0
  -25.4540  -33.2450   23.7040 N   0  0  0  0  0  0  0  0  0  0  0  0
  -25.7480  -34.3920   23.0780 C   0  0  0  0  0  0  0  0  0  0  0  0
  -26.1830  -34.4320   21.9230 O   0  0  0  0  0  0  0  0  0  0  0  0
  -25.0530  -33.2930   24.6290 H   0  0  0  0  0  0  0  0  0  0  0  0
  -24.2130  -36.3590   23.3930 C   0  0  0  0  0  1  0  0  0  0  0  0
  -25.5240  -35.7030   23.8540 C   0  0  0  0  0  3  0  0  0  0  0  0
  -27.8680  -36.2230   24.3700 C   0  0  0  0  0  1  0  0  0  0  0  0
  -26.6390  -36.6670   23.7170 N   0  0  0  0  0  0  0  0  0  0  0  0
  -26.3820  -37.5700   24.1050 H   0  0  0  0  0  0  0  0  0  0  0  0
  1  3  1  0
  2  4  1  0
  3  6  1  0
  4  6  1  0
  5 54  1  0
  5  2  1  0
  5  1  1  0
  6  7  1  1
  8  9  1  0
  8  6  1  0
 10  9  1  0
 11 10  1  0
 12 11  1  0
 13 12  1  0
 14 13  1  0
 15 14  1  0
 16 22  1  0
 16 24  1  0
 17 22  1  0
 18 19  1  0
 18 17  1  0
 20 19  1  0
 20 21  1  0
 20 29  1  0
 22 21  1  0
 23 16  2  0
 24 15  1  0
 24 25  1  0
 26 27  2  0
 27 46  1  0
 28 27  1  0
 28 31  1  0
 29 30  1  0
 29 26  1  0
 30 28  2  0
 31 32  1  0
 32 33  2  0
 34 37  1  0
 34 33  1  0
 35 34  2  0
 36 35  1  0
 36 31  2  0
 37 38  1  0
 38 39  1  0
 39 40  2  0
 41 40  1  0
 41 45  1  0
 42 41  2  0
 43 38  2  0
 43 42  1  0
 44 43  1  0
 46 47  1  0
 47 49  1  0
 47 50  1  0
 48 46  2  0
 51 26  1  0
 51 52  1  0
 53 51  1  0
 55 54  1  0
 56 58  1  0
 56 55  1  0
 57 68  2  0
 58 63  1  0
 59 67  1  0
 59 69  1  0
 60 62  1  0
 60 66  1  0
 61 67  1  0
 62 61  1  0
 63 62  2  0
 64 58  2  0
 64 65  1  0
 65 60  2  0
 66 59  1  0
 67 57  1  0
 69 70  1  0
 69 71  2  0
 72 70  1  0
 73 82  2  0
 73 78  1  0
 74 70  1  0
 74 78  1  0
 75 74  1  0
 76 77  1  0
 76 75  1  0
 77 73  1  0
 78 79  2  0
 79 80  1  0
 81 80  2  0
 82 81  1  0
 83 57  1  0
 83 88  1  0
 83 84  1  0
 84 87  1  1
 84 85  1  0
 86 84  1  0
 88 91  1  0
 89 88  1  0
 89 93  1  0
 90 89  2  0
 93 92  1  0
 95 93  1  0
 95 96  1  0
 95 94  1  0
M  ISO  4  16 100  24 100  55 101  56 101
M  END
>  <TORSDO>  (63) 
F 26

>  <SCORE>  (63) 
-5.546

>  <name>  (63) 
63

>  <ligand_id>  (63) 
63

>  <original_smiles>  (63) 
[H]c1c([H])c([H])c2c(c1[H])C([H])([H])C([H])([H])C([H])([H])C2([H])N([H])C(=O)C1([H])N(C(=O)C([H])(N([H])C(=O)C([H])(N([H])C([H])([H])[H])C([H])([H])[H])C(C([H])([H])[H])(C([H])([H])[H])C([H])([H])[H])C([H])([H])c2c([H])c(OC([H])([H])C([H])([H])C3([H])C([H])([H])C([H])([H])[N+]([H])(C([H])([H])C([H])([H])C([H])([H])C([H])([H])C([H])([H])C([H])([H])C([H])([H])C([H])([H])N([H])C(=O)N4C([H])([H])C([H])([H])C([H])([H])C([H])(n5nc(-c6c([H])c([H])c(Oc7c([H])c([H])c(F)c([H])c7F)c([H])c6[H])c(C(=O)N([H])[H])c5N([H])[H])C4([H])[H])C([H])([H])C3([H])[H])c([H])c([H])c2C1([H])[H]

>  <smiles>  (63) 
[H]c1c([H])c([H])c2c(c1[H])C([H])([H])C([H])([H])C([H])([H])C2([H])N([H])C(=O)C1([H])N(C(=O)C([H])(N([H])C(=O)C([H])(N([H])C([H])([H])[H])C([H])([H])[H])C(C([H])([H])[H])(C([H])([H])[H])C([H])([H])[H])C([H])([H])c2c([H])c(OC([H])([H])C([H])([H])C3([H])C([H])([H])C([H])([H])[N+]([H])(C([H])([H])C([H])([H])C([H])([H])C([H])([H])C([H])([H])C([H])([H])C([H])([H])C([H])([H])N([H])C(=O)N4C([H])([H])C([H])([H])C([H])([H])C([H])(n5nc(-c6c([H])c([H])c(Oc7c([H])c([H])c(F)c([H])c7F)c([H])c6[H])c(C(=O)N([H])[H])c5N([H])[H])C4([H])[H])C([H])([H])C3([H])[H])c([H])c([H])c2C1([H])[H]

$$$$
64:0:0
     RDKit          3D

 97105  0  0  1  0  0  0  0  0999 V2000
  -29.6140  -20.0060   21.1080 C   0  0  0  0  0  2  0  0  0  0  0  0
  -30.3410  -19.0740   20.1090 C   0  0  0  0  0  2  0  0  0  0  0  0
  -31.7910  -18.7680   20.5430 C   0  0  0  0  0  2  0  0  0  0  0  0
  -32.8030  -18.6050   19.3770 C   0  0  0  0  0  3  0  0  0  0  0  0
  -33.2350  -16.7450   17.7540 C   0  0  0  0  0  0  0  0  0  0  0  0
  -33.8510  -14.8040   16.3590 C   0  0  0  0  0  2  0  0  0  0  0  0
  -32.6400  -13.8950   16.0860 C   0  0  0  0  0  2  0  0  0  0  0  0
  -32.4630  -12.8690   17.2210 C   0  0  0  0  0  2  0  0  0  0  0  0
  -32.4940  -13.5260   18.6260 C   0  0  0  0  0  3  0  0  0  0  0  0
  -33.7030  -14.4760   18.7630 C   0  0  0  0  0  2  0  0  0  0  0  0
  -33.6490  -15.4550   17.6630 N   0  0  0  0  0  0  0  0  0  0  0  0
  -33.0960  -17.4790   16.7730 O   0  0  0  0  0  0  0  0  0  0  0  0
  -33.0090  -17.1950   19.0020 N   0  0  0  0  0  0  0  0  0  0  0  0
  -33.0330  -16.4960   19.7290 H   0  0  0  0  0  0  0  0  0  0  0  0
  -31.5290  -12.3070   20.6780 C   0  0  0  0  0  0  0  0  0  0  0  0
  -31.9500  -11.2020   21.3680 C   0  0  0  0  0  0  0  0  0  0  0  0
  -33.1650  -10.7860   20.7400 C   0  0  0  0  0  0  0  0  0  0  0  0
  -32.4750  -12.5220   19.6880 N   0  0  0  0  0  0  0  0  0  0  0  0
  -33.4920  -11.6280   19.7680 N   0  0  0  0  0  0  0  0  0  0  0  0
  -34.0040   -9.6030   20.9720 C   0  0  0  0  0  0  0  0  0  0  0  0
  -35.3940   -9.7150   21.1970 C   0  0  0  0  0  3  0  0  0  0  0  0
  -36.1760   -8.5650   21.4360 C   0  0  0  0  0  3  0  0  0  0  0  0
  -35.5700   -7.2860   21.4540 C   0  0  0  0  0  0  0  0  0  0  0  0
  -34.1900   -7.1770   21.2070 C   0  0  0  0  0  3  0  0  0  0  0  0
  -33.4140   -8.3230   20.9640 C   0  0  0  0  0  3  0  0  0  0  0  0
  -36.2540   -6.1110   21.6520 O   0  0  0  0  0  0  0  0  0  0  0  0
  -37.4220   -6.0700   22.3710 C   0  0  0  0  0  0  0  0  0  0  0  0
  -37.4930   -6.5270   23.7030 C   0  0  0  0  0  3  0  0  0  0  0  0
  -38.6970   -6.4040   24.4270 C   0  0  0  0  0  3  0  0  0  0  0  0
  -39.8240   -5.8140   23.8230 C   0  0  0  0  0  0  0  0  0  0  0  0
  -39.7520   -5.3500   22.4980 C   0  0  0  0  0  3  0  0  0  0  0  0
  -38.5530   -5.4760   21.7750 C   0  0  0  0  0  0  0  0  0  0  0  0
  -38.4830   -5.0090   20.5050 F   0  0  0  0  0  0  0  0  0  0  0  0
  -40.9780   -5.6860   24.5210 F   0  0  0  0  0  0  0  0  0  0  0  0
  -31.2220  -10.5120   22.4830 C   0  0  0  0  0  0  0  0  0  0  0  0
  -31.9530   -9.9020   23.4100 N   0  0  0  0  0  0  0  0  0  0  0  0
  -29.9940  -10.5490   22.5650 O   0  0  0  0  0  0  0  0  0  0  0  0
  -32.9600   -9.8860   23.3540 H   0  0  0  0  0  0  0  0  0  0  0  0
  -31.4980   -9.4420   24.1860 H   0  0  0  0  0  0  0  0  0  0  0  0
  -30.4160  -13.1350   20.7970 N   0  0  0  0  0  0  0  0  0  0  0  0
  -29.6800  -12.9600   21.4740 H   0  0  0  0  0  0  0  0  0  0  0  0
  -30.2090  -13.9080   20.1770 H   0  0  0  0  0  0  0  0  0  0  0  0
  -34.1530  -19.3130   19.6640 C   0  0  0  0  0  2  0  0  0  0  0  0
  -34.9770  -18.6260   20.6810 N   0  0  0  0  0  4  0  0  0  0  0  0
  -34.4450  -18.5810   21.5360 H   0  0  0  0  0  0  0  0  0  0  0  0
  -35.1590  -17.6850   20.3820 H   0  0  0  0  0  0  0  0  0  0  0  0
  -37.3150  -18.4040   21.5600 C   0  0  0  0  0  2  0  0  0  0  0  0
  -37.4200  -18.8570   20.1180 C   0  0  0  0  0  2  0  0  0  0  0  0
  -36.2570  -19.3100   20.9720 C   0  0  0  0  0  3  0  0  0  0  0  0
  -28.7690  -21.1170   20.4440 C   0  0  0  0  0  2  0  0  0  0  0  0
  -28.7720  -22.3730   21.2340 N   0  0  0  0  0  4  0  0  0  0  0  0
  -29.7270  -22.5770   21.4810 H   0  0  0  0  0  0  0  0  0  0  0  0
  -28.2580  -22.2240   22.0870 H   0  0  0  0  0  0  0  0  0  0  0  0
  -28.2260  -23.5520   20.5150 C   0  0  0  0  0  2  0  0  0  0  0  0
  -28.7580  -24.9080   21.0410 C   0  0  0  0  0  2  0  0  0  0  0  0
  -27.9170  -25.5410   22.1630 C   0  0  0  0  0  2  0  0  0  0  0  0
  -28.1700  -26.9480   22.2190 O   0  0  0  0  0  0  0  0  0  0  0  0
  -28.1930  -33.0540   25.8700 C   0  0  0  0  0  0  0  0  0  0  0  0
  -27.5670  -27.6820   23.2220 C   0  0  0  0  0  0  0  0  0  0  0  0
  -26.7140  -31.2800   26.7560 C   0  0  0  0  0  3  0  0  0  0  0  0
  -26.3580  -29.2710   25.2310 C   0  0  0  0  0  0  0  0  0  0  0  0
  -27.2790  -31.3820   24.2630 C   0  0  0  0  0  2  0  0  0  0  0  0
  -27.1230  -29.8760   24.2270 C   0  0  0  0  0  0  0  0  0  0  0  0
  -27.7250  -29.0870   23.2210 C   0  0  0  0  0  3  0  0  0  0  0  0
  -26.7930  -27.0890   24.2500 C   0  0  0  0  0  3  0  0  0  0  0  0
  -26.1940  -27.8770   25.2480 C   0  0  0  0  0  3  0  0  0  0  0  0
  -25.7370  -30.1780   26.2670 C   0  0  0  0  0  2  0  0  0  0  0  0
  -27.4490  -31.9370   25.6270 N   0  0  0  0  0  0  0  0  0  0  0  0
  -28.2380  -33.5600   26.9990 O   0  0  0  0  0  0  0  0  0  0  0  0
  -27.6510  -30.6720   27.8250 C   0  0  0  0  0  0  0  0  0  0  0  0
  -27.1360  -30.5270   29.0570 N   0  0  0  0  0  0  0  0  0  0  0  0
  -28.7960  -30.3190   27.5330 O   0  0  0  0  0  0  0  0  0  0  0  0
  -26.1910  -30.8480   29.2150 H   0  0  0  0  0  0  0  0  0  0  0  0
  -26.7080  -29.5740   32.5160 C   0  0  0  0  0  0  0  0  0  0  0  0
  -27.8200  -29.9440   30.2110 C   0  0  0  0  0  3  0  0  0  0  0  0
  -27.8750  -28.4020   30.1040 C   0  0  0  0  0  2  0  0  0  0  0  0
  -26.7060  -27.7060   30.8080 C   0  0  0  0  0  2  0  0  0  0  0  0
  -26.6780  -28.0720   32.2950 C   0  0  0  0  0  2  0  0  0  0  0  0
  -27.2280  -30.4540   31.5300 C   0  0  0  0  0  0  0  0  0  0  0  0
  -27.1980  -31.8450   31.7700 C   0  0  0  0  0  3  0  0  0  0  0  0
  -26.6650  -32.3590   32.9660 C   0  0  0  0  0  3  0  0  0  0  0  0
  -26.1660  -31.4830   33.9450 C   0  0  0  0  0  3  0  0  0  0  0  0
  -26.1920  -30.0950   33.7200 C   0  0  0  0  0  3  0  0  0  0  0  0
  -29.0000  -33.7610   24.7370 C   0  0  0  0  0  3  0  0  0  0  0  0
  -28.9010  -35.2090   24.9610 N   0  0  0  0  0  0  0  0  0  0  0  0
  -28.0800  -36.0270   24.2900 C   0  0  0  0  0  0  0  0  0  0  0  0
  -27.3710  -35.6460   23.3550 O   0  0  0  0  0  0  0  0  0  0  0  0
  -29.4120  -35.5810   25.7480 H   0  0  0  0  0  0  0  0  0  0  0  0
  -26.8070  -37.7470   25.6100 C   0  0  0  0  0  1  0  0  0  0  0  0
  -28.0400  -37.5050   24.7260 C   0  0  0  0  0  3  0  0  0  0  0  0
  -29.2900  -38.4720   22.8460 C   0  0  0  0  0  1  0  0  0  0  0  0
  -28.0340  -38.4540   23.5910 N   0  0  0  0  0  0  0  0  0  0  0  0
  -27.8420  -39.3990   23.9130 H   0  0  0  0  0  0  0  0  0  0  0  0
  -30.5100  -33.3070   24.6730 C   0  0  1  0  0  0  0  0  0  0  0  0
  -31.2440  -33.3950   26.0310 C   0  0  0  0  0  1  0  0  0  0  0  0
  -30.6210  -31.8490   24.1690 C   0  0  0  0  0  1  0  0  0  0  0  0
  -31.2800  -34.1860   23.6590 C   0  0  0  0  0  1  0  0  0  0  0  0
  2  3  1  0
  2  1  1  0
  4 43  1  0
  4  3  1  0
  5 13  1  0
  6 11  1  0
  7  6  1  0
  7  8  1  0
  9  8  1  0
  9 10  1  0
  9 18  1  0
 11  5  1  0
 11 10  1  0
 12  5  2  0
 13  4  1  0
 13 14  1  0
 15 40  1  0
 15 16  2  0
 16 35  1  0
 17 20  1  0
 17 16  1  0
 18 19  1  0
 18 15  1  0
 19 17  2  0
 20 21  1  0
 21 22  2  0
 22 23  1  0
 23 26  1  0
 24 23  2  0
 25 20  2  0
 25 24  1  0
 26 27  1  0
 27 28  1  0
 28 29  2  0
 30 29  1  0
 30 34  1  0
 31 30  2  0
 32 27  2  0
 32 31  1  0
 33 32  1  0
 35 37  2  0
 35 36  1  0
 36 39  1  0
 38 36  1  0
 40 41  1  0
 42 40  1  0
 43 44  1  0
 44 49  1  0
 44 45  1  0
 46 44  1  0
 48 49  1  0
 48 47  1  0
 49 47  1  0
 50  1  1  0
 50 51  1  0
 51 52  1  0
 51 53  1  0
 54 55  1  0
 54 51  1  0
 55 56  1  0
 56 57  1  0
 57 59  1  0
 58 69  2  0
 59 65  1  0
 60 70  1  0
 61 66  1  0
 61 67  1  0
 62 68  1  0
 63 62  1  0
 63 61  2  0
 64 59  2  0
 64 63  1  0
 65 66  2  0
 67 60  1  0
 68 58  1  0
 68 60  1  0
 70 71  1  0
 71 73  1  0
 72 70  2  0
 74 83  1  0
 75 71  1  0
 75 79  1  0
 76 75  1  0
 76 77  1  0
 77 78  1  0
 78 74  1  0
 79 80  1  0
 79 74  2  0
 80 81  2  0
 81 82  1  0
 83 82  2  0
 84 85  1  0
 84 58  1  0
 85 88  1  0
 86 90  1  0
 86 85  1  0
 87 86  2  0
 90 89  1  0
 91 92  1  0
 92 93  1  0
 92 90  1  0
 94 84  1  0
 94 95  1  1
 96 94  1  0
 97 94  1  0
M  ISO  4   5 100  13 100  56 101  57 101
M  END
>  <TORSDO>  (64) 
F 27

>  <SCORE>  (64) 
-4.872

>  <name>  (64) 
64

>  <ligand_id>  (64) 
64

>  <original_smiles>  (64) 
[H]c1c([H])c([H])c2c(c1[H])C([H])([H])C([H])([H])C([H])([H])C2([H])N([H])C(=O)C1([H])N(C(=O)C([H])(N([H])C(=O)C([H])(N([H])C([H])([H])[H])C([H])([H])[H])C(C([H])([H])[H])(C([H])([H])[H])C([H])([H])[H])C([H])([H])c2c([H])c(OC([H])([H])C([H])([H])C([H])([H])[N+]([H])([H])C([H])([H])C([H])([H])C([H])([H])C([H])([H])C([H])(N([H])C(=O)N3C([H])([H])C([H])([H])C([H])([H])C([H])(n4nc(-c5c([H])c([H])c(Oc6c([H])c([H])c(F)c([H])c6F)c([H])c5[H])c(C(=O)N([H])[H])c4N([H])[H])C3([H])[H])C([H])([H])[N+]([H])([H])C3([H])C([H])([H])C3([H])[H])c([H])c([H])c2C1([H])[H]

>  <smiles>  (64) 
[H]c1c([H])c([H])c2c(c1[H])C([H])([H])C([H])([H])C([H])([H])C2([H])N([H])C(=O)C1([H])N(C(=O)C([H])(N([H])C(=O)C([H])(N([H])C([H])([H])[H])C([H])([H])[H])C(C([H])([H])[H])(C([H])([H])[H])C([H])([H])[H])C([H])([H])c2c([H])c(OC([H])([H])C([H])([H])C([H])([H])[N+]([H])([H])C([H])([H])C([H])([H])C([H])([H])C([H])([H])C([H])(N([H])C(=O)N3C([H])([H])C([H])([H])C([H])([H])C([H])(n4nc(-c5c([H])c([H])c(Oc6c([H])c([H])c(F)c([H])c6F)c([H])c5[H])c(C(=O)N([H])[H])c4N([H])[H])C3([H])[H])C([H])([H])[N+]([H])([H])C3([H])C([H])([H])C3([H])[H])c([H])c([H])c2C1([H])[H]

$$$$
65:0:0
     RDKit          3D

 97105  0  0  1  0  0  0  0  0999 V2000
  -24.5060  -21.2640   21.5210 C   0  0  0  0  0  2  0  0  0  0  0  0
  -25.0880  -22.6450   21.8730 C   0  0  0  0  0  2  0  0  0  0  0  0
  -26.2580  -23.0440   20.9630 C   0  0  0  0  0  2  0  0  0  0  0  0
  -26.8630  -24.3280   21.3750 N   0  0  0  0  0  4  0  0  0  0  0  0
  -26.2730  -25.0850   21.0610 H   0  0  0  0  0  0  0  0  0  0  0  0
  -26.8880  -24.3610   22.3830 H   0  0  0  0  0  0  0  0  0  0  0  0
  -28.2410  -24.5210   20.8700 C   0  0  0  0  0  2  0  0  0  0  0  0
  -28.7700  -25.9480   21.0930 C   0  0  0  0  0  2  0  0  0  0  0  0
  -28.4210  -26.7740   19.9880 O   0  0  0  0  0  0  0  0  0  0  0  0
  -24.6100  -31.8700   23.2140 C   0  0  0  0  0  0  0  0  0  0  0  0
  -27.2450  -27.4690   20.0910 C   0  0  0  0  0  0  0  0  0  0  0  0
  -23.3990  -30.4920   21.5510 C   0  0  0  0  0  3  0  0  0  0  0  0
  -24.8490  -28.9540   20.1260 C   0  0  0  0  0  0  0  0  0  0  0  0
  -25.9240  -30.8410   21.3660 C   0  0  0  0  0  2  0  0  0  0  0  0
  -26.0040  -29.4720   20.7270 C   0  0  0  0  0  0  0  0  0  0  0  0
  -27.2050  -28.7330   20.7170 C   0  0  0  0  0  3  0  0  0  0  0  0
  -26.0810  -26.9570   19.4820 C   0  0  0  0  0  3  0  0  0  0  0  0
  -24.8790  -27.6900   19.5070 C   0  0  0  0  0  3  0  0  0  0  0  0
  -23.6120  -29.8220   20.1670 C   0  0  0  0  0  2  0  0  0  0  0  0
  -24.6620  -31.0820   22.1030 N   0  0  0  0  0  0  0  0  0  0  0  0
  -23.5300  -32.1450   23.7540 O   0  0  0  0  0  0  0  0  0  0  0  0
  -22.7390  -29.4660   22.4980 C   0  0  0  0  0  0  0  0  0  0  0  0
  -21.4130  -29.3030   22.3720 N   0  0  0  0  0  0  0  0  0  0  0  0
  -23.4180  -28.8190   23.3010 O   0  0  0  0  0  0  0  0  0  0  0  0
  -20.9280  -29.8750   21.6950 H   0  0  0  0  0  0  0  0  0  0  0  0
  -18.0280  -28.1380   22.8490 C   0  0  0  0  0  0  0  0  0  0  0  0
  -20.5860  -28.3670   23.1330 C   0  0  0  0  0  3  0  0  0  0  0  0
  -20.6770  -26.9410   22.5430 C   0  0  0  0  0  2  0  0  0  0  0  0
  -19.5750  -26.6400   21.5220 C   0  0  0  0  0  2  0  0  0  0  0  0
  -18.1930  -26.7930   22.1630 C   0  0  0  0  0  2  0  0  0  0  0  0
  -19.1520  -28.8840   23.2910 C   0  0  0  0  0  0  0  0  0  0  0  0
  -18.9450  -30.1440   23.8930 C   0  0  0  0  0  3  0  0  0  0  0  0
  -17.6450  -30.6590   24.0570 C   0  0  0  0  0  3  0  0  0  0  0  0
  -16.5340  -29.9090   23.6320 C   0  0  0  0  0  3  0  0  0  0  0  0
  -16.7270  -28.6510   23.0330 C   0  0  0  0  0  3  0  0  0  0  0  0
  -25.9010  -32.4840   23.8420 C   0  0  0  0  0  3  0  0  0  0  0  0
  -26.4470  -31.6580   25.0710 C   0  0  1  0  0  0  0  0  0  0  0  0
  -25.3780  -31.3610   26.1480 C   0  0  0  0  0  1  0  0  0  0  0  0
  -27.0290  -30.3040   24.6020 C   0  0  0  0  0  1  0  0  0  0  0  0
  -27.6080  -32.4270   25.7450 C   0  0  0  0  0  1  0  0  0  0  0  0
  -25.5890  -33.8630   24.2380 N   0  0  0  0  0  0  0  0  0  0  0  0
  -25.9020  -34.9490   23.5170 C   0  0  0  0  0  0  0  0  0  0  0  0
  -26.5570  -34.8920   22.4720 O   0  0  0  0  0  0  0  0  0  0  0  0
  -25.0080  -33.9800   25.0550 H   0  0  0  0  0  0  0  0  0  0  0  0
  -24.1480  -36.7310   23.2640 C   0  0  0  0  0  1  0  0  0  0  0  0
  -25.4100  -36.3130   24.0360 C   0  0  0  0  0  3  0  0  0  0  0  0
  -27.5580  -37.1820   24.8480 C   0  0  0  0  0  1  0  0  0  0  0  0
  -26.4290  -37.3800   23.9420 N   0  0  0  0  0  0  0  0  0  0  0  0
  -26.0190  -38.2890   24.1410 H   0  0  0  0  0  0  0  0  0  0  0  0
  -23.6470  -20.6580   22.6480 C   0  0  0  0  0  2  0  0  0  0  0  0
  -24.6430  -18.2840   22.8660 C   0  0  0  0  0  2  0  0  0  0  0  0
  -25.5800  -20.1820   24.3410 C   0  0  0  0  0  2  0  0  0  0  0  0
  -26.0450  -17.7250   23.1610 C   0  0  0  0  0  2  0  0  0  0  0  0
  -26.9460  -20.0550   23.6220 C   0  0  0  0  0  2  0  0  0  0  0  0
  -24.3580  -19.6340   23.5670 C   0  0  0  0  0  3  0  0  0  0  0  0
  -27.1280  -18.7610   22.7910 C   0  0  0  0  0  3  0  0  0  0  0  0
  -28.5760  -18.2200   22.8890 C   0  0  0  0  0  2  0  0  0  0  0  0
  -28.8910  -17.0990   21.8800 C   0  0  0  0  0  2  0  0  0  0  0  0
  -30.2970  -16.4760   22.0270 C   0  0  0  0  0  2  0  0  0  0  0  0
  -30.7250  -14.3560   20.7120 C   0  0  0  0  0  0  0  0  0  0  0  0
  -30.4330  -12.2960   19.3790 C   0  0  0  0  0  2  0  0  0  0  0  0
  -29.4850  -12.5400   18.1880 C   0  0  0  0  0  2  0  0  0  0  0  0
  -28.0080  -12.3920   18.6030 C   0  0  0  0  0  2  0  0  0  0  0  0
  -27.6700  -13.1930   19.8870 C   0  0  0  0  0  3  0  0  0  0  0  0
  -28.7050  -12.8770   20.9880 C   0  0  0  0  0  2  0  0  0  0  0  0
  -30.0530  -13.2010   20.4690 N   0  0  0  0  0  0  0  0  0  0  0  0
  -31.7180  -14.7290   20.0790 O   0  0  0  0  0  0  0  0  0  0  0  0
  -30.1950  -15.0560   21.7190 N   0  0  0  0  0  0  0  0  0  0  0  0
  -29.4690  -14.5620   22.2160 H   0  0  0  0  0  0  0  0  0  0  0  0
  -25.2620  -13.8120   20.5640 C   0  0  0  0  0  0  0  0  0  0  0  0
  -24.1850  -13.0440   20.9150 C   0  0  0  0  0  0  0  0  0  0  0  0
  -24.6370  -11.6890   20.8720 C   0  0  0  0  0  0  0  0  0  0  0  0
  -26.3050  -12.9270   20.3400 N   0  0  0  0  0  0  0  0  0  0  0  0
  -25.9300  -11.6450   20.5760 N   0  0  0  0  0  0  0  0  0  0  0  0
  -23.9040  -10.4300   21.0420 C   0  0  0  0  0  0  0  0  0  0  0  0
  -24.3590   -9.4230   21.9210 C   0  0  0  0  0  3  0  0  0  0  0  0
  -23.6290   -8.2250   22.0760 C   0  0  0  0  0  3  0  0  0  0  0  0
  -22.4270   -8.0270   21.3550 C   0  0  0  0  0  0  0  0  0  0  0  0
  -21.9900   -9.0250   20.4650 C   0  0  0  0  0  3  0  0  0  0  0  0
  -22.7220  -10.2130   20.3060 C   0  0  0  0  0  3  0  0  0  0  0  0
  -21.6640   -6.8880   21.4230 O   0  0  0  0  0  0  0  0  0  0  0  0
  -21.6840   -6.0740   22.5280 C   0  0  0  0  0  0  0  0  0  0  0  0
  -21.4010   -6.5650   23.8210 C   0  0  0  0  0  3  0  0  0  0  0  0
  -21.3660   -5.6800   24.9180 C   0  0  0  0  0  3  0  0  0  0  0  0
  -21.6050   -4.3060   24.7220 C   0  0  0  0  0  0  0  0  0  0  0  0
  -21.8820   -3.8160   23.4340 C   0  0  0  0  0  3  0  0  0  0  0  0
  -21.9190   -4.6970   22.3400 C   0  0  0  0  0  0  0  0  0  0  0  0
  -22.1650   -4.2170   21.0970 F   0  0  0  0  0  0  0  0  0  0  0  0
  -21.5640   -3.4550   25.7730 F   0  0  0  0  0  0  0  0  0  0  0  0
  -22.7880  -13.5270   21.1840 C   0  0  0  0  0  0  0  0  0  0  0  0
  -22.0490  -12.8250   22.0370 N   0  0  0  0  0  0  0  0  0  0  0  0
  -22.3580  -14.5600   20.6720 O   0  0  0  0  0  0  0  0  0  0  0  0
  -22.4070  -11.9870   22.4710 H   0  0  0  0  0  0  0  0  0  0  0  0
  -21.1100  -13.1270   22.2550 H   0  0  0  0  0  0  0  0  0  0  0  0
  -25.4340  -15.1820   20.4000 N   0  0  0  0  0  0  0  0  0  0  0  0
  -24.6720  -15.8410   20.5150 H   0  0  0  0  0  0  0  0  0  0  0  0
  -26.2970  -15.6190   20.1010 H   0  0  0  0  0  0  0  0  0  0  0  0
  1  2  1  0
  1 50  1  0
  3  4  1  0
  3  2  1  0
  4  6  1  0
  5  4  1  0
  7  8  1  0
  7  4  1  0
  9 11  1  0
  9  8  1  0
 10 21  2  0
 11 16  1  0
 12 20  1  0
 12 22  1  0
 13 19  1  0
 13 15  1  0
 14 20  1  0
 15 14  1  0
 16 15  2  0
 17 18  1  0
 17 11  2  0
 18 13  2  0
 19 12  1  0
 20 10  1  0
 22 24  2  0
 23 22  1  0
 25 23  1  0
 26 35  2  0
 26 31  1  0
 27 23  1  0
 27 31  1  0
 28 27  1  0
 29 30  1  0
 29 28  1  0
 30 26  1  0
 31 32  2  0
 32 33  1  0
 34 33  2  0
 35 34  1  0
 36 10  1  0
 36 41  1  0
 36 37  1  0
 37 40  1  1
 37 38  1  0
 39 37  1  0
 41 44  1  0
 42 46  1  0
 42 41  1  0
 43 42  2  0
 46 45  1  0
 48 46  1  0
 48 49  1  0
 48 47  1  0
 51 53  1  0
 51 55  1  0
 54 52  1  0
 55 50  1  0
 55 52  1  0
 56 57  1  0
 56 53  1  0
 56 54  1  0
 58 59  1  0
 58 57  1  0
 60 68  1  0
 61 66  1  0
 62 63  1  0
 62 61  1  0
 64 63  1  0
 64 73  1  0
 64 65  1  0
 66 60  1  0
 66 65  1  0
 67 60  2  0
 68 59  1  0
 68 69  1  0
 70 71  2  0
 71 90  1  0
 72 71  1  0
 72 75  1  0
 73 70  1  0
 73 74  1  0
 74 72  2  0
 75 76  1  0
 76 77  2  0
 78 81  1  0
 78 77  1  0
 79 78  2  0
 80 79  1  0
 80 75  2  0
 81 82  1  0
 82 83  1  0
 83 84  2  0
 85 84  1  0
 85 89  1  0
 86 85  2  0
 87 82  2  0
 87 86  1  0
 88 87  1  0
 90 91  1  0
 91 94  1  0
 91 93  1  0
 92 90  2  0
 95 96  1  0
 95 70  1  0
 97 95  1  0
M  ISO  4   8 101   9 101  60 100  68 100
M  END
>  <TORSDO>  (65) 
F 26

>  <SCORE>  (65) 
64.218

>  <name>  (65) 
65

>  <ligand_id>  (65) 
65

>  <original_smiles>  (65) 
[H]c1c([H])c([H])c2c(c1[H])C([H])([H])C([H])([H])C([H])([H])C2([H])N([H])C(=O)C1([H])N(C(=O)C([H])(N([H])C(=O)C([H])(N([H])C([H])([H])[H])C([H])([H])[H])C(C([H])([H])[H])(C([H])([H])[H])C([H])([H])[H])C([H])([H])c2c([H])c(OC([H])([H])C([H])([H])[N+]([H])([H])C([H])([H])C([H])([H])C([H])([H])C([H])([H])C3([H])C([H])([H])C([H])([H])C([H])(C([H])([H])C([H])([H])C([H])([H])N([H])C(=O)N4C([H])([H])C([H])([H])C([H])([H])C([H])(n5nc(-c6c([H])c([H])c(Oc7c([H])c([H])c(F)c([H])c7F)c([H])c6[H])c(C(=O)N([H])[H])c5N([H])[H])C4([H])[H])C([H])([H])C3([H])[H])c([H])c([H])c2C1([H])[H]

>  <smiles>  (65) 
[H]c1c([H])c([H])c2c(c1[H])C([H])([H])C([H])([H])C([H])([H])C2([H])N([H])C(=O)C1([H])N(C(=O)C([H])(N([H])C(=O)C([H])(N([H])C([H])([H])[H])C([H])([H])[H])C(C([H])([H])[H])(C([H])([H])[H])C([H])([H])[H])C([H])([H])c2c([H])c(OC([H])([H])C([H])([H])[N+]([H])([H])C([H])([H])C([H])([H])C([H])([H])C([H])([H])C3([H])C([H])([H])C([H])([H])C([H])(C([H])([H])C([H])([H])C([H])([H])N([H])C(=O)N4C([H])([H])C([H])([H])C([H])([H])C([H])(n5nc(-c6c([H])c([H])c(Oc7c([H])c([H])c(F)c([H])c7F)c([H])c6[H])c(C(=O)N([H])[H])c5N([H])[H])C4([H])[H])C([H])([H])C3([H])[H])c([H])c([H])c2C1([H])[H]

$$$$
66:0:0
     RDKit          3D

 93102  0  0  1  0  0  0  0  0999 V2000
  -28.5630  -22.8530   20.1120 C   0  0  0  0  0  0  0  0  0  0  0  0
  -27.4050  -23.6950   19.6210 C   0  0  0  0  0  2  0  0  0  0  0  0
  -29.8480  -23.6790   20.2060 C   0  0  0  0  0  2  0  0  0  0  0  0
  -27.7210  -24.2780   18.2290 C   0  0  0  0  0  2  0  0  0  0  0  0
  -30.1980  -24.3440   18.8570 C   0  0  0  0  0  2  0  0  0  0  0  0
  -29.0270  -25.1060   18.1860 C   0  0  0  0  0  3  0  0  0  0  0  0
  -28.4050  -21.6060   20.3550 N   0  0  0  0  0  0  0  0  0  0  0  0
  -28.8990  -26.6080   18.5630 C   0  0  0  0  0  2  0  0  0  0  0  0
  -28.4320  -26.8950   19.8850 O   0  0  0  0  0  0  0  0  0  0  0  0
  -24.8500  -31.8950   23.4850 C   0  0  0  0  0  0  0  0  0  0  0  0
  -27.2780  -27.6420   19.9850 C   0  0  0  0  0  0  0  0  0  0  0  0
  -23.5490  -30.6240   21.8110 C   0  0  0  0  0  3  0  0  0  0  0  0
  -24.9100  -29.1690   20.2210 C   0  0  0  0  0  0  0  0  0  0  0  0
  -26.0690  -30.9560   21.5270 C   0  0  0  0  0  2  0  0  0  0  0  0
  -26.1000  -29.6290   20.8000 C   0  0  0  0  0  0  0  0  0  0  0  0
  -27.2840  -28.8620   20.6970 C   0  0  0  0  0  3  0  0  0  0  0  0
  -26.0680  -27.1970   19.4120 C   0  0  0  0  0  3  0  0  0  0  0  0
  -24.8850  -27.9470   19.5320 C   0  0  0  0  0  3  0  0  0  0  0  0
  -23.6850  -30.0400   20.3800 C   0  0  0  0  0  2  0  0  0  0  0  0
  -24.8440  -31.1680   22.3330 N   0  0  0  0  0  0  0  0  0  0  0  0
  -23.7990  -32.1470   24.0900 O   0  0  0  0  0  0  0  0  0  0  0  0
  -22.9230  -29.5500   22.7270 C   0  0  0  0  0  0  0  0  0  0  0  0
  -21.6190  -29.2890   22.5400 N   0  0  0  0  0  0  0  0  0  0  0  0
  -23.6090  -28.9540   23.5630 O   0  0  0  0  0  0  0  0  0  0  0  0
  -21.1270  -29.8270   21.8400 H   0  0  0  0  0  0  0  0  0  0  0  0
  -18.3530  -27.7570   22.7470 C   0  0  0  0  0  0  0  0  0  0  0  0
  -20.8280  -28.2920   23.2600 C   0  0  0  0  0  3  0  0  0  0  0  0
  -21.1360  -26.8640   22.7540 C   0  0  0  0  0  2  0  0  0  0  0  0
  -20.1820  -26.3970   21.6490 C   0  0  0  0  0  2  0  0  0  0  0  0
  -18.7340  -26.4150   22.1460 C   0  0  0  0  0  2  0  0  0  0  0  0
  -19.3380  -28.6460   23.2550 C   0  0  0  0  0  0  0  0  0  0  0  0
  -18.9330  -29.8970   23.7690 C   0  0  0  0  0  3  0  0  0  0  0  0
  -17.5730  -30.2630   23.7840 C   0  0  0  0  0  3  0  0  0  0  0  0
  -16.6010  -29.3740   23.2930 C   0  0  0  0  0  3  0  0  0  0  0  0
  -16.9910  -28.1230   22.7820 C   0  0  0  0  0  3  0  0  0  0  0  0
  -26.1740  -32.4630   24.0850 C   0  0  0  0  0  3  0  0  0  0  0  0
  -26.7000  -31.6360   25.3220 C   0  0  1  0  0  0  0  0  0  0  0  0
  -25.6230  -31.3810   26.4040 C   0  0  0  0  0  1  0  0  0  0  0  0
  -27.2440  -30.2630   24.8680 C   0  0  0  0  0  1  0  0  0  0  0  0
  -27.8820  -32.3790   25.9870 C   0  0  0  0  0  1  0  0  0  0  0  0
  -25.9230  -33.8610   24.4600 N   0  0  0  0  0  0  0  0  0  0  0  0
  -26.2620  -34.9200   23.7130 C   0  0  0  0  0  0  0  0  0  0  0  0
  -26.8910  -34.8200   22.6560 O   0  0  0  0  0  0  0  0  0  0  0  0
  -25.3640  -34.0160   25.2860 H   0  0  0  0  0  0  0  0  0  0  0  0
  -24.5890  -36.7800   23.4500 C   0  0  0  0  0  1  0  0  0  0  0  0
  -25.8360  -36.3120   24.2180 C   0  0  0  0  0  3  0  0  0  0  0  0
  -28.0140  -37.1060   25.0250 C   0  0  0  0  0  1  0  0  0  0  0  0
  -26.9020  -37.3310   24.1060 N   0  0  0  0  0  0  0  0  0  0  0  0
  -26.5310  -38.2610   24.2790 H   0  0  0  0  0  0  0  0  0  0  0  0
  -29.5340  -20.7640   20.7040 C   0  0  0  0  0  2  0  0  0  0  0  0
  -29.0460  -19.4110   21.2840 C   0  0  0  0  0  2  0  0  0  0  0  0
  -31.4400  -14.3580   19.8300 C   0  0  0  0  0  0  0  0  0  0  0  0
  -30.9830  -12.1310   18.8820 C   0  0  0  0  0  2  0  0  0  0  0  0
  -29.9500  -12.2540   17.7450 C   0  0  0  0  0  2  0  0  0  0  0  0
  -28.5200  -12.1620   18.3080 C   0  0  0  0  0  2  0  0  0  0  0  0
  -28.2920  -13.1080   19.5180 C   0  0  0  0  0  3  0  0  0  0  0  0
  -29.4350  -12.9780   20.5460 C   0  0  0  0  0  2  0  0  0  0  0  0
  -30.7090  -13.2080   19.8470 N   0  0  0  0  0  0  0  0  0  0  0  0
  -32.5190  -14.4350   19.2310 O   0  0  0  0  0  0  0  0  0  0  0  0
  -29.9810  -17.7820   19.5600 C   0  0  0  0  0  2  0  0  0  0  0  0
  -29.7810  -17.0080   21.9170 C   0  0  0  0  0  2  0  0  0  0  0  0
  -30.9970  -16.6590   19.3090 C   0  0  0  0  0  2  0  0  0  0  0  0
  -30.8160  -15.8970   21.6220 C   0  0  0  0  0  2  0  0  0  0  0  0
  -30.0240  -18.2420   21.0260 C   0  0  0  0  0  3  0  0  0  0  0  0
  -30.8040  -15.4980   20.2030 N   0  0  0  0  0  0  0  0  0  0  0  0
  -26.0740  -13.8100   20.6150 C   0  0  0  0  0  0  0  0  0  0  0  0
  -24.9850  -13.0850   21.0220 C   0  0  0  0  0  0  0  0  0  0  0  0
  -25.3000  -11.7170   20.7600 C   0  0  0  0  0  0  0  0  0  0  0  0
  -26.9860  -12.8840   20.1350 N   0  0  0  0  0  0  0  0  0  0  0  0
  -26.5320  -11.6130   20.2790 N   0  0  0  0  0  0  0  0  0  0  0  0
  -24.4790  -10.5060   20.8850 C   0  0  0  0  0  0  0  0  0  0  0  0
  -24.8060   -9.4830   21.8030 C   0  0  0  0  0  3  0  0  0  0  0  0
  -23.9920   -8.3360   21.9180 C   0  0  0  0  0  3  0  0  0  0  0  0
  -22.8340   -8.2050   21.1140 C   0  0  0  0  0  0  0  0  0  0  0  0
  -22.5250   -9.2150   20.1870 C   0  0  0  0  0  3  0  0  0  0  0  0
  -23.3390  -10.3530   20.0700 C   0  0  0  0  0  3  0  0  0  0  0  0
  -21.9970   -7.1150   21.1390 O   0  0  0  0  0  0  0  0  0  0  0  0
  -21.7240   -6.4440   22.3030 C   0  0  0  0  0  0  0  0  0  0  0  0
  -21.1610   -7.0940   23.4240 C   0  0  0  0  0  3  0  0  0  0  0  0
  -20.8310   -6.3540   24.5750 C   0  0  0  0  0  3  0  0  0  0  0  0
  -21.0520   -4.9640   24.6080 C   0  0  0  0  0  0  0  0  0  0  0  0
  -21.6080   -4.3130   23.4920 C   0  0  0  0  0  3  0  0  0  0  0  0
  -21.9390   -5.0520   22.3420 C   0  0  0  0  0  0  0  0  0  0  0  0
  -22.4540   -4.4160   21.2600 F   0  0  0  0  0  0  0  0  0  0  0  0
  -20.7280   -4.2510   25.7120 F   0  0  0  0  0  0  0  0  0  0  0  0
  -23.6870  -13.6360   21.5390 C   0  0  0  0  0  0  0  0  0  0  0  0
  -23.0310  -12.9150   22.4420 N   0  0  0  0  0  0  0  0  0  0  0  0
  -23.2710  -14.7360   21.1780 O   0  0  0  0  0  0  0  0  0  0  0  0
  -23.3820  -12.0190   22.7490 H   0  0  0  0  0  0  0  0  0  0  0  0
  -22.1640  -13.2600   22.8270 H   0  0  0  0  0  0  0  0  0  0  0  0
  -26.3560  -15.1720   20.5910 N   0  0  0  0  0  0  0  0  0  0  0  0
  -25.6850  -15.8720   20.8860 H   0  0  0  0  0  0  0  0  0  0  0  0
  -27.2190  -15.5700   20.2430 H   0  0  0  0  0  0  0  0  0  0  0  0
  1  3  1  0
  1  7  2  0
  2  1  1  0
  4  2  1  0
  5  3  1  0
  6  4  1  0
  6  8  1  0
  6  5  1  0
  7 50  1  0
  8  9  1  0
  9 11  1  0
 10 21  2  0
 11 16  1  0
 12 20  1  0
 12 22  1  0
 13 19  1  0
 13 15  1  0
 14 20  1  0
 15 14  1  0
 16 15  2  0
 17 18  1  0
 17 11  2  0
 18 13  2  0
 19 12  1  0
 20 10  1  0
 22 24  2  0
 23 22  1  0
 25 23  1  0
 26 35  2  0
 26 31  1  0
 27 23  1  0
 28 27  1  0
 29 30  1  0
 29 28  1  0
 30 26  1  0
 31 27  1  0
 31 32  2  0
 32 33  1  0
 34 33  2  0
 35 34  1  0
 36 10  1  0
 36 41  1  0
 36 37  1  0
 37 40  1  1
 37 38  1  0
 39 37  1  0
 41 44  1  0
 42 46  1  0
 42 41  1  0
 43 42  2  0
 46 45  1  0
 48 46  1  0
 48 49  1  0
 48 47  1  0
 50 51  1  0
 52 58  1  0
 52 65  1  0
 53 58  1  0
 54 55  1  0
 54 53  1  0
 56 55  1  0
 56 69  1  0
 56 57  1  0
 58 57  1  0
 59 52  2  0
 60 64  1  0
 62 60  1  0
 62 65  1  0
 63 61  1  0
 64 51  1  0
 64 61  1  0
 65 63  1  0
 66 67  2  0
 67 86  1  0
 68 71  1  0
 68 67  1  0
 69 70  1  0
 69 66  1  0
 70 68  2  0
 71 72  1  0
 72 73  2  0
 74 77  1  0
 74 73  1  0
 75 74  2  0
 76 75  1  0
 76 71  2  0
 77 78  1  0
 78 83  2  0
 78 79  1  0
 79 80  2  0
 80 81  1  0
 81 85  1  0
 82 81  2  0
 83 82  1  0
 84 83  1  0
 86 87  1  0
 87 89  1  0
 87 90  1  0
 88 86  2  0
 91 66  1  0
 91 92  1  0
 93 91  1  0
M  ISO  4   8 101   9 101  52 100  65 100
M  END
>  <TORSDO>  (66) 
F 19

>  <SCORE>  (66) 
-12.066

>  <name>  (66) 
66

>  <ligand_id>  (66) 
66

>  <original_smiles>  (66) 
[H]c1c([H])c([H])c2c(c1[H])C([H])([H])C([H])([H])C([H])([H])C2([H])N([H])C(=O)C1([H])N(C(=O)C([H])(N([H])C(=O)C([H])(N([H])C([H])([H])[H])C([H])([H])[H])C(C([H])([H])[H])(C([H])([H])[H])C([H])([H])[H])C([H])([H])c2c([H])c(OC([H])([H])C3([H])C([H])([H])C([H])([H])C(=NC([H])([H])C([H])([H])C4([H])C([H])([H])C([H])([H])N(C(=O)N5C([H])([H])C([H])([H])C([H])([H])C([H])(n6nc(-c7c([H])c([H])c(Oc8c([H])c([H])c(F)c([H])c8F)c([H])c7[H])c(C(=O)N([H])[H])c6N([H])[H])C5([H])[H])C([H])([H])C4([H])[H])C([H])([H])C3([H])[H])c([H])c([H])c2C1([H])[H]

>  <smiles>  (66) 
[H]c1c([H])c([H])c2c(c1[H])C([H])([H])C([H])([H])C([H])([H])C2([H])N([H])C(=O)C1([H])N(C(=O)C([H])(N([H])C(=O)C([H])(N([H])C([H])([H])[H])C([H])([H])[H])C(C([H])([H])[H])(C([H])([H])[H])C([H])([H])[H])C([H])([H])c2c([H])c(OC([H])([H])C3([H])C([H])([H])C([H])([H])C(=NC([H])([H])C([H])([H])C4([H])C([H])([H])C([H])([H])N(C(=O)N5C([H])([H])C([H])([H])C([H])([H])C([H])(n6nc(-c7c([H])c([H])c(Oc8c([H])c([H])c(F)c([H])c8F)c([H])c7[H])c(C(=O)N([H])[H])c6N([H])[H])C5([H])[H])C([H])([H])C4([H])[H])C([H])([H])C3([H])[H])c([H])c([H])c2C1([H])[H]

$$$$
67:0:0
     RDKit          3D

107116  0  0  1  0  0  0  0  0999 V2000
  -30.1520  -23.1990   16.2390 C   0  0  0  0  0  3  0  0  0  0  0  0
  -29.5570  -21.9420   16.4630 C   0  0  0  0  0  3  0  0  0  0  0  0
  -28.3840  -24.2470   17.5380 C   0  0  0  0  0  3  0  0  0  0  0  0
  -29.5660  -24.3590   16.7790 C   0  0  0  0  0  0  0  0  0  0  0  0
  -28.3690  -21.8230   17.2220 C   0  0  0  0  0  0  0  0  0  0  0  0
  -27.7720  -22.9950   17.7630 C   0  0  0  0  0  0  0  0  0  0  0  0
  -27.7970  -20.4260   17.4390 C   0  0  0  0  0  2  0  0  0  0  0  0
  -28.3460  -19.8310   18.6740 N   0  0  0  0  0  4  0  0  0  0  0  0
  -27.9770  -20.3380   19.4620 H   0  0  0  0  0  0  0  0  0  0  0  0
  -29.3430  -19.9710   18.6580 H   0  0  0  0  0  0  0  0  0  0  0  0
  -28.0550  -18.3910   18.8300 C   0  0  0  0  0  2  0  0  0  0  0  0
  -28.5420  -17.8110   20.1760 C   0  0  0  0  0  2  0  0  0  0  0  0
  -30.0760  -17.7670   20.3400 C   0  0  0  0  0  2  0  0  0  0  0  0
  -30.5590  -16.8950   21.5220 C   0  0  0  0  0  2  0  0  0  0  0  0
  -30.8170  -14.5640   20.6630 C   0  0  0  0  0  0  0  0  0  0  0  0
  -30.5200  -12.4590   19.4200 C   0  0  0  0  0  2  0  0  0  0  0  0
  -29.6090  -12.7100   18.2010 C   0  0  0  0  0  2  0  0  0  0  0  0
  -28.1250  -12.5730   18.5900 C   0  0  0  0  0  2  0  0  0  0  0  0
  -27.7640  -13.3800   19.8650 C   0  0  0  0  0  3  0  0  0  0  0  0
  -28.7850  -13.1080   20.9920 C   0  0  0  0  0  2  0  0  0  0  0  0
  -30.1330  -13.4070   20.4720 N   0  0  0  0  0  0  0  0  0  0  0  0
  -31.9130  -14.8000   20.1460 O   0  0  0  0  0  0  0  0  0  0  0  0
  -30.1640  -15.4940   21.3720 N   0  0  0  0  0  0  0  0  0  0  0  0
  -29.2800  -15.2170   21.7720 H   0  0  0  0  0  0  0  0  0  0  0  0
  -25.3410  -13.9960   20.4860 C   0  0  0  0  0  0  0  0  0  0  0  0
  -24.2640  -13.2260   20.8300 C   0  0  0  0  0  0  0  0  0  0  0  0
  -24.7270  -11.8740   20.8270 C   0  0  0  0  0  0  0  0  0  0  0  0
  -26.3940  -13.1130   20.3000 N   0  0  0  0  0  0  0  0  0  0  0  0
  -26.0260  -11.8330   20.5590 N   0  0  0  0  0  0  0  0  0  0  0  0
  -23.9990  -10.6120   21.0090 C   0  0  0  0  0  0  0  0  0  0  0  0
  -24.3990   -9.6600   21.9710 C   0  0  0  0  0  3  0  0  0  0  0  0
  -23.6710   -8.4630   22.1390 C   0  0  0  0  0  3  0  0  0  0  0  0
  -22.5300   -8.2090   21.3420 C   0  0  0  0  0  0  0  0  0  0  0  0
  -22.1500   -9.1500   20.3690 C   0  0  0  0  0  3  0  0  0  0  0  0
  -22.8790  -10.3390   20.2000 C   0  0  0  0  0  3  0  0  0  0  0  0
  -21.7770   -7.0620   21.4160 O   0  0  0  0  0  0  0  0  0  0  0  0
  -21.6670   -6.3480   22.5830 C   0  0  0  0  0  0  0  0  0  0  0  0
  -21.1890   -6.9360   23.7750 C   0  0  0  0  0  3  0  0  0  0  0  0
  -21.0270   -6.1480   24.9320 C   0  0  0  0  0  3  0  0  0  0  0  0
  -21.3320   -4.7750   24.8980 C   0  0  0  0  0  0  0  0  0  0  0  0
  -21.8020   -4.1860   23.7110 C   0  0  0  0  0  3  0  0  0  0  0  0
  -21.9670   -4.9700   22.5550 C   0  0  0  0  0  0  0  0  0  0  0  0
  -22.4010   -4.3950   21.4080 F   0  0  0  0  0  0  0  0  0  0  0  0
  -21.1680   -4.0150   26.0070 F   0  0  0  0  0  0  0  0  0  0  0  0
  -22.8580  -13.7030   21.0550 C   0  0  0  0  0  0  0  0  0  0  0  0
  -22.1060  -13.0140   21.9080 N   0  0  0  0  0  0  0  0  0  0  0  0
  -22.4330  -14.7200   20.5120 O   0  0  0  0  0  0  0  0  0  0  0  0
  -22.4630  -12.1910   22.3690 H   0  0  0  0  0  0  0  0  0  0  0  0
  -21.1630  -13.3160   22.1030 H   0  0  0  0  0  0  0  0  0  0  0  0
  -25.5090  -15.3650   20.3020 N   0  0  0  0  0  0  0  0  0  0  0  0
  -24.7390  -16.0200   20.3870 H   0  0  0  0  0  0  0  0  0  0  0  0
  -26.3750  -15.8020   20.0170 H   0  0  0  0  0  0  0  0  0  0  0  0
  -30.1830  -25.7300   16.5540 C   0  0  0  0  0  2  0  0  0  0  0  0
  -30.6910  -26.2740   17.8270 N   0  0  0  0  0  4  0  0  0  0  0  0
  -31.6750  -26.0730   17.9010 H   0  0  0  0  0  0  0  0  0  0  0  0
  -30.2110  -25.7740   18.5580 H   0  0  0  0  0  0  0  0  0  0  0  0
  -30.4370  -27.7180   18.0250 C   0  0  0  0  0  2  0  0  0  0  0  0
  -30.6260  -28.1730   19.4900 C   0  0  0  0  0  2  0  0  0  0  0  0
  -29.8710  -27.3190   20.5290 C   0  0  0  0  0  2  0  0  0  0  0  0
  -28.6360  -26.8350   20.0130 O   0  0  0  0  0  0  0  0  0  0  0  0
  -24.6620  -31.8570   23.2180 C   0  0  0  0  0  0  0  0  0  0  0  0
  -27.4970  -27.6070   20.0700 C   0  0  0  0  0  0  0  0  0  0  0  0
  -23.5300  -30.4880   21.4920 C   0  0  0  0  0  3  0  0  0  0  0  0
  -25.0570  -29.0330   20.0600 C   0  0  0  0  0  0  0  0  0  0  0  0
  -26.0450  -30.9140   21.3780 C   0  0  0  0  0  2  0  0  0  0  0  0
  -26.1810  -29.5690   20.7010 C   0  0  0  0  0  0  0  0  0  0  0  0
  -27.4020  -28.8650   20.7110 C   0  0  0  0  0  3  0  0  0  0  0  0
  -26.3540  -27.0770   19.4350 C   0  0  0  0  0  3  0  0  0  0  0  0
  -25.1370  -27.7800   19.4250 C   0  0  0  0  0  3  0  0  0  0  0  0
  -23.7930  -29.8600   20.0960 C   0  0  0  0  0  2  0  0  0  0  0  0
  -24.7610  -31.0990   22.0900 N   0  0  0  0  0  0  0  0  0  0  0  0
  -23.5610  -32.0890   23.7380 O   0  0  0  0  0  0  0  0  0  0  0  0
  -22.8740  -29.4220   22.4000 C   0  0  0  0  0  0  0  0  0  0  0  0
  -21.5450  -29.2700   22.2780 N   0  0  0  0  0  0  0  0  0  0  0  0
  -23.5550  -28.7370   23.1670 O   0  0  0  0  0  0  0  0  0  0  0  0
  -21.0550  -29.8750   21.6340 H   0  0  0  0  0  0  0  0  0  0  0  0
  -18.1520  -28.1380   22.7730 C   0  0  0  0  0  0  0  0  0  0  0  0
  -20.7210  -28.3010   22.9990 C   0  0  0  0  0  3  0  0  0  0  0  0
  -20.7690  -26.9140   22.3180 C   0  0  0  0  0  2  0  0  0  0  0  0
  -19.6340  -26.6970   21.3110 C   0  0  0  0  0  2  0  0  0  0  0  0
  -18.2730  -26.8350   21.9990 C   0  0  0  0  0  2  0  0  0  0  0  0
  -19.3030  -28.8340   23.2300 C   0  0  0  0  0  0  0  0  0  0  0  0
  -19.1380  -30.0570   23.9140 C   0  0  0  0  0  3  0  0  0  0  0  0
  -17.8540  -30.5840   24.1470 C   0  0  0  0  0  3  0  0  0  0  0  0
  -16.7170  -29.8830   23.7090 C   0  0  0  0  0  3  0  0  0  0  0  0
  -16.8670  -28.6620   23.0270 C   0  0  0  0  0  3  0  0  0  0  0  0
  -25.9190  -32.4880   23.8950 C   0  0  0  0  0  3  0  0  0  0  0  0
  -25.5740  -33.8650   24.2710 N   0  0  0  0  0  0  0  0  0  0  0  0
  -25.9000  -34.9520   23.5590 C   0  0  0  0  0  0  0  0  0  0  0  0
  -26.5950  -34.9020   22.5400 O   0  0  0  0  0  0  0  0  0  0  0  0
  -24.9590  -33.9780   25.0630 H   0  0  0  0  0  0  0  0  0  0  0  0
  -24.1390  -36.7190   23.2330 C   0  0  0  0  0  1  0  0  0  0  0  0
  -25.3710  -36.3110   24.0580 C   0  0  0  0  0  3  0  0  0  0  0  0
  -27.4670  -37.2090   24.9660 C   0  0  0  0  0  1  0  0  0  0  0  0
  -26.3800  -37.3900   24.0070 N   0  0  0  0  0  0  0  0  0  0  0  0
  -25.9510  -38.2940   24.1830 H   0  0  0  0  0  0  0  0  0  0  0  0
  -26.4250  -31.6750   25.1490 C   0  0  1  0  0  0  0  0  0  0  0  0
  -25.3160  -31.3800   26.1830 C   0  0  0  0  0  1  0  0  0  0  0  0
  -27.0380  -30.3230   24.7100 C   0  0  0  0  0  1  0  0  0  0  0  0
  -27.5520  -32.4590   25.8640 C   0  0  0  0  0  1  0  0  0  0  0  0
  -26.4920  -22.9800   18.5940 C   0  0  0  0  0  2  0  0  0  0  0  0
  -25.3560  -23.7980   17.9520 C   0  0  0  0  0  2  0  0  0  0  0  0
  -21.9760  -24.9260   19.3240 C   0  0  0  0  0  2  0  0  0  0  0  0
  -22.0200  -23.4670   19.8000 C   0  0  0  0  0  2  0  0  0  0  0  0
  -23.1760  -25.0940   18.3890 C   0  0  0  0  0  2  0  0  0  0  0  0
  -23.3780  -22.9040   19.3550 C   0  0  0  0  0  2  0  0  0  0  0  0
  -24.2180  -24.1170   18.9380 C   0  0  0  0  0  3  0  0  0  0  0  0
  1  2  2  0
  1  4  1  0
  2  5  1  0
  3  6  1  0
  4  3  2  0
  5  7  1  0
  5  6  2  0
  6101  1  0
  7  8  1  0
  8 11  1  0
  8  9  1  0
 10  8  1  0
 11 12  1  0
 12 13  1  0
 13 14  1  0
 15 23  1  0
 16 21  1  0
 17 18  1  0
 17 16  1  0
 19 18  1  0
 19 28  1  0
 19 20  1  0
 21 15  1  0
 21 20  1  0
 22 15  2  0
 23 14  1  0
 23 24  1  0
 25 26  2  0
 26 45  1  0
 27 26  1  0
 27 30  1  0
 28 25  1  0
 28 29  1  0
 29 27  2  0
 30 31  1  0
 31 32  2  0
 33 36  1  0
 33 32  1  0
 34 33  2  0
 35 34  1  0
 35 30  2  0
 36 37  1  0
 37 38  1  0
 38 39  2  0
 40 39  1  0
 40 44  1  0
 41 40  2  0
 42 37  2  0
 42 41  1  0
 43 42  1  0
 45 46  1  0
 46 49  1  0
 46 48  1  0
 47 45  2  0
 50 51  1  0
 50 25  1  0
 52 50  1  0
 53  4  1  0
 53 54  1  0
 54 55  1  0
 54 57  1  0
 54 56  1  0
 57 58  1  0
 58 59  1  0
 60 62  1  0
 60 59  1  0
 61 72  2  0
 62 67  1  0
 63 71  1  0
 63 73  1  0
 64 70  1  0
 64 66  1  0
 65 71  1  0
 66 67  2  0
 66 65  1  0
 68 62  2  0
 69 68  1  0
 69 64  2  0
 70 63  1  0
 71 61  1  0
 73 75  2  0
 74 73  1  0
 76 74  1  0
 77 86  2  0
 77 82  1  0
 78 74  1  0
 78 82  1  0
 79 78  1  0
 80 81  1  0
 80 79  1  0
 81 77  1  0
 82 83  2  0
 83 84  1  0
 85 84  2  0
 86 85  1  0
 87 61  1  0
 87 88  1  0
 87 97  1  0
 88 91  1  0
 89 93  1  0
 89 88  1  0
 90 89  2  0
 93 92  1  0
 95 93  1  0
 95 96  1  0
 95 94  1  0
 97100  1  1
 97 98  1  0
 99 97  1  0
102101  1  0
102107  1  0
103104  1  0
105107  1  0
105103  1  0
106104  1  0
107106  1  0
M  ISO  4  15 100  23 100  59 101  60 101
M  END
>  <TORSDO>  (67) 
F 30

>  <SCORE>  (67) 
-11.190

>  <name>  (67) 
67

>  <ligand_id>  (67) 
67

>  <original_smiles>  (67) 
[H]c1c([H])c([H])c2c(c1[H])C([H])([H])C([H])([H])C([H])([H])C2([H])N([H])C(=O)C1([H])N(C(=O)C([H])(N([H])C(=O)C([H])(N([H])C([H])([H])[H])C([H])([H])[H])C(C([H])([H])[H])(C([H])([H])[H])C([H])([H])[H])C([H])([H])c2c([H])c(OC([H])([H])C([H])([H])C([H])([H])[N+]([H])([H])C([H])([H])c3c([H])c([H])c(C([H])([H])[N+]([H])([H])C([H])([H])C([H])([H])C([H])([H])C([H])([H])N([H])C(=O)N4C([H])([H])C([H])([H])C([H])([H])C([H])(n5nc(-c6c([H])c([H])c(Oc7c([H])c([H])c(F)c([H])c7F)c([H])c6[H])c(C(=O)N([H])[H])c5N([H])[H])C4([H])[H])c(C([H])([H])C([H])([H])C4([H])C([H])([H])C([H])([H])C([H])([H])C4([H])[H])c3[H])c([H])c([H])c2C1([H])[H]

>  <smiles>  (67) 
[H]c1c([H])c([H])c2c(c1[H])C([H])([H])C([H])([H])C([H])([H])C2([H])N([H])C(=O)C1([H])N(C(=O)C([H])(N([H])C(=O)C([H])(N([H])C([H])([H])[H])C([H])([H])[H])C(C([H])([H])[H])(C([H])([H])[H])C([H])([H])[H])C([H])([H])c2c([H])c(OC([H])([H])C([H])([H])C([H])([H])[N+]([H])([H])C([H])([H])c3c([H])c([H])c(C([H])([H])[N+]([H])([H])C([H])([H])C([H])([H])C([H])([H])C([H])([H])N([H])C(=O)N4C([H])([H])C([H])([H])C([H])([H])C([H])(n5nc(-c6c([H])c([H])c(Oc7c([H])c([H])c(F)c([H])c7F)c([H])c6[H])c(C(=O)N([H])[H])c5N([H])[H])C4([H])[H])c(C([H])([H])C([H])([H])C4([H])C([H])([H])C([H])([H])C([H])([H])C4([H])[H])c3[H])c([H])c([H])c2C1([H])[H]

$$$$
68:0:0
     RDKit          3D

 91 99  0  0  1  0  0  0  0  0999 V2000
  -29.4260  -19.9030   19.8260 C   0  0  0  0  0  2  0  0  0  0  0  0
  -30.9190  -19.8130   21.8030 C   0  0  0  0  0  2  0  0  0  0  0  0
  -28.8520  -21.2470   20.3170 C   0  0  0  0  0  2  0  0  0  0  0  0
  -30.3350  -21.1610   22.2820 C   0  0  0  0  0  2  0  0  0  0  0  0
  -29.8730  -19.0190   21.0020 C   0  0  0  0  0  3  0  0  0  0  0  0
  -29.8270  -21.9980   21.1550 N   0  0  2  0  0  4  0  0  0  0  0  0
  -30.6270  -22.2020   20.5740 H   0  0  0  0  0  0  0  0  0  0  0  0
  -30.3480  -17.6270   20.5280 C   0  0  0  0  0  2  0  0  0  0  0  0
  -30.6370  -16.6320   21.6790 C   0  0  0  0  0  2  0  0  0  0  0  0
  -30.7800  -14.4150   20.5070 C   0  0  0  0  0  0  0  0  0  0  0  0
  -30.4320  -12.3370   19.2200 C   0  0  0  0  0  2  0  0  0  0  0  0
  -29.4870  -12.5970   18.0300 C   0  0  0  0  0  2  0  0  0  0  0  0
  -28.0110  -12.4700   18.4570 C   0  0  0  0  0  2  0  0  0  0  0  0
  -27.6920  -13.2710   19.7490 C   0  0  0  0  0  3  0  0  0  0  0  0
  -28.7410  -12.9680   20.8440 C   0  0  0  0  0  2  0  0  0  0  0  0
  -30.0780  -13.2710   20.2970 N   0  0  0  0  0  0  0  0  0  0  0  0
  -31.8350  -14.6850   19.9270 O   0  0  0  0  0  0  0  0  0  0  0  0
  -30.2090  -15.2710   21.3630 N   0  0  0  0  0  0  0  0  0  0  0  0
  -29.3590  -14.9510   21.8040 H   0  0  0  0  0  0  0  0  0  0  0  0
  -25.2850  -13.8980   20.4220 C   0  0  0  0  0  0  0  0  0  0  0  0
  -24.2100  -13.1340   20.7910 C   0  0  0  0  0  0  0  0  0  0  0  0
  -24.6670  -11.7810   20.7800 C   0  0  0  0  0  0  0  0  0  0  0  0
  -26.3310  -13.0110   20.2140 N   0  0  0  0  0  0  0  0  0  0  0  0
  -25.9590  -11.7330   20.4830 N   0  0  0  0  0  0  0  0  0  0  0  0
  -23.9350  -10.5240   20.9790 C   0  0  0  0  0  0  0  0  0  0  0  0
  -24.3600   -9.5650   21.9260 C   0  0  0  0  0  3  0  0  0  0  0  0
  -23.6320   -8.3710   22.1130 C   0  0  0  0  0  3  0  0  0  0  0  0
  -22.4650   -8.1250   21.3510 C   0  0  0  0  0  0  0  0  0  0  0  0
  -22.0590   -9.0710   20.3930 C   0  0  0  0  0  3  0  0  0  0  0  0
  -22.7880  -10.2570   20.2060 C   0  0  0  0  0  3  0  0  0  0  0  0
  -21.7080   -6.9820   21.4460 O   0  0  0  0  0  0  0  0  0  0  0  0
  -21.6460   -6.2540   22.6070 C   0  0  0  0  0  0  0  0  0  0  0  0
  -21.2080   -6.8240   23.8230 C   0  0  0  0  0  3  0  0  0  0  0  0
  -21.0950   -6.0210   24.9760 C   0  0  0  0  0  3  0  0  0  0  0  0
  -21.4100   -4.6500   24.9130 C   0  0  0  0  0  0  0  0  0  0  0  0
  -21.8390   -4.0800   23.7020 C   0  0  0  0  0  3  0  0  0  0  0  0
  -21.9550   -4.8790   22.5520 C   0  0  0  0  0  0  0  0  0  0  0  0
  -22.3500   -4.3220   21.3810 F   0  0  0  0  0  0  0  0  0  0  0  0
  -21.2930   -3.8770   26.0180 F   0  0  0  0  0  0  0  0  0  0  0  0
  -22.8110  -13.6170   21.0480 C   0  0  0  0  0  0  0  0  0  0  0  0
  -22.0730  -12.9320   21.9140 N   0  0  0  0  0  0  0  0  0  0  0  0
  -22.3790  -14.6390   20.5130 O   0  0  0  0  0  0  0  0  0  0  0  0
  -22.4330  -12.1080   22.3710 H   0  0  0  0  0  0  0  0  0  0  0  0
  -21.1330  -13.2370   22.1260 H   0  0  0  0  0  0  0  0  0  0  0  0
  -25.4540  -15.2660   20.2320 N   0  0  0  0  0  0  0  0  0  0  0  0
  -24.6890  -15.9230   20.3380 H   0  0  0  0  0  0  0  0  0  0  0  0
  -26.3170  -15.7040   19.9330 H   0  0  0  0  0  0  0  0  0  0  0  0
  -29.3030  -23.3100   21.6400 C   0  0  0  0  0  2  0  0  0  0  0  0
  -29.0440  -24.3750   20.5410 C   0  0  0  0  0  2  0  0  0  0  0  0
  -28.5420  -25.7080   21.1420 C   0  0  0  0  0  2  0  0  0  0  0  0
  -28.4920  -26.7590   20.1720 O   0  0  0  0  0  0  0  0  0  0  0  0
  -24.6330  -31.9000   23.2480 C   0  0  0  0  0  0  0  0  0  0  0  0
  -27.3290  -27.4890   20.1900 C   0  0  0  0  0  0  0  0  0  0  0  0
  -23.4460  -30.4930   21.5940 C   0  0  0  0  0  3  0  0  0  0  0  0
  -24.9200  -28.9600   20.1810 C   0  0  0  0  0  0  0  0  0  0  0  0
  -25.9690  -30.8710   21.4100 C   0  0  0  0  0  2  0  0  0  0  0  0
  -26.0680  -29.4990   20.7790 C   0  0  0  0  0  0  0  0  0  0  0  0
  -27.2780  -28.7700   20.7810 C   0  0  0  0  0  3  0  0  0  0  0  0
  -26.1670  -26.9540   19.5970 C   0  0  0  0  0  3  0  0  0  0  0  0
  -24.9630  -27.6870   19.5860 C   0  0  0  0  0  3  0  0  0  0  0  0
  -23.6690  -29.8090   20.2160 C   0  0  0  0  0  2  0  0  0  0  0  0
  -24.7010  -31.1040   22.1430 N   0  0  0  0  0  0  0  0  0  0  0  0
  -23.5490  -32.1640   23.7830 O   0  0  0  0  0  0  0  0  0  0  0  0
  -22.7960  -29.4680   22.5520 C   0  0  0  0  0  0  0  0  0  0  0  0
  -21.4720  -29.2820   22.4190 N   0  0  0  0  0  0  0  0  0  0  0  0
  -23.4790  -28.8440   23.3670 O   0  0  0  0  0  0  0  0  0  0  0  0
  -20.9820  -29.8390   21.7330 H   0  0  0  0  0  0  0  0  0  0  0  0
  -18.0980  -28.0790   22.9000 C   0  0  0  0  0  0  0  0  0  0  0  0
  -20.6550  -28.3400   23.1820 C   0  0  0  0  0  3  0  0  0  0  0  0
  -20.7600  -26.9110   22.5980 C   0  0  0  0  0  2  0  0  0  0  0  0
  -19.6600  -26.5910   21.5790 C   0  0  0  0  0  2  0  0  0  0  0  0
  -18.2760  -26.7340   22.2190 C   0  0  0  0  0  2  0  0  0  0  0  0
  -19.2150  -28.8410   23.3370 C   0  0  0  0  0  0  0  0  0  0  0  0
  -18.9940  -30.1030   23.9290 C   0  0  0  0  0  3  0  0  0  0  0  0
  -17.6870  -30.6020   24.0920 C   0  0  0  0  0  3  0  0  0  0  0  0
  -16.5860  -29.8380   23.6720 C   0  0  0  0  0  3  0  0  0  0  0  0
  -16.7920  -28.5790   23.0820 C   0  0  0  0  0  3  0  0  0  0  0  0
  -25.9120  -32.5370   23.8770 C   0  0  0  0  0  3  0  0  0  0  0  0
  -25.5980  -33.9380   24.1940 N   0  0  0  0  0  0  0  0  0  0  0  0
  -25.9350  -34.9850   23.4300 C   0  0  0  0  0  0  0  0  0  0  0  0
  -26.6140  -34.8750   22.4050 O   0  0  0  0  0  0  0  0  0  0  0  0
  -25.0040  -34.1000   24.9940 H   0  0  0  0  0  0  0  0  0  0  0  0
  -24.2050  -36.7690   23.0410 C   0  0  0  0  0  1  0  0  0  0  0  0
  -25.4380  -36.3760   23.8720 C   0  0  0  0  0  3  0  0  0  0  0  0
  -27.5620  -37.2690   24.7230 C   0  0  0  0  0  1  0  0  0  0  0  0
  -26.4700  -37.4320   23.7650 N   0  0  0  0  0  0  0  0  0  0  0  0
  -26.0610  -38.3520   23.9060 H   0  0  0  0  0  0  0  0  0  0  0  0
  -26.4210  -31.7750   25.1610 C   0  0  1  0  0  0  0  0  0  0  0  0
  -25.3190  -31.5380   26.2190 C   0  0  0  0  0  1  0  0  0  0  0  0
  -27.0110  -30.3970   24.7770 C   0  0  0  0  0  1  0  0  0  0  0  0
  -27.5650  -32.5730   25.8280 C   0  0  0  0  0  1  0  0  0  0  0  0
  1  3  1  0
  1  5  1  0
  2  4  1  0
  3  6  1  0
  5  8  1  0
  5  2  1  0
  6 48  1  0
  6  4  1  0
  6  7  1  6
  8  9  1  0
 10 18  1  0
 11 16  1  0
 12 13  1  0
 12 11  1  0
 14 13  1  0
 14 23  1  0
 14 15  1  0
 16 10  1  0
 16 15  1  0
 17 10  2  0
 18  9  1  0
 18 19  1  0
 20 21  2  0
 21 40  1  0
 22 21  1  0
 22 25  1  0
 23 20  1  0
 23 24  1  0
 24 22  2  0
 25 26  1  0
 26 27  2  0
 28 31  1  0
 28 27  1  0
 29 28  2  0
 30 29  1  0
 30 25  2  0
 31 32  1  0
 32 33  1  0
 33 34  2  0
 35 34  1  0
 35 39  1  0
 36 35  2  0
 37 32  2  0
 37 36  1  0
 38 37  1  0
 40 41  1  0
 41 44  1  0
 41 43  1  0
 42 40  2  0
 45 46  1  0
 45 20  1  0
 47 45  1  0
 49 50  1  0
 49 48  1  0
 51 53  1  0
 51 50  1  0
 52 63  2  0
 53 58  1  0
 54 62  1  0
 54 64  1  0
 55 61  1  0
 55 57  1  0
 56 62  1  0
 57 58  2  0
 57 56  1  0
 59 53  2  0
 60 59  1  0
 60 55  2  0
 61 54  1  0
 62 52  1  0
 64 66  2  0
 65 64  1  0
 67 65  1  0
 68 77  2  0
 68 73  1  0
 69 65  1  0
 69 73  1  0
 70 69  1  0
 71 72  1  0
 71 70  1  0
 72 68  1  0
 73 74  2  0
 74 75  1  0
 76 75  2  0
 77 76  1  0
 78 52  1  0
 78 79  1  0
 78 88  1  0
 79 82  1  0
 80 84  1  0
 80 79  1  0
 81 80  2  0
 84 83  1  0
 86 84  1  0
 86 87  1  0
 86 85  1  0
 88 91  1  1
 88 89  1  0
 90 88  1  0
M  ISO  4  10 100  18 100  50 101  51 101
M  END
>  <TORSDO>  (68) 
F 21

>  <SCORE>  (68) 
-13.652

>  <name>  (68) 
68

>  <ligand_id>  (68) 
68

>  <original_smiles>  (68) 
[H]c1c([H])c([H])c2c(c1[H])C([H])([H])C([H])([H])C([H])([H])C2([H])N([H])C(=O)C1([H])N(C(=O)C([H])(N([H])C(=O)C([H])(N([H])C([H])([H])[H])C([H])([H])[H])C(C([H])([H])[H])(C([H])([H])[H])C([H])([H])[H])C([H])([H])c2c([H])c(OC([H])([H])C([H])([H])C([H])([H])[N+]3([H])C([H])([H])C([H])([H])C([H])(C([H])([H])C([H])([H])N([H])C(=O)N4C([H])([H])C([H])([H])C([H])([H])C([H])(n5nc(-c6c([H])c([H])c(Oc7c([H])c([H])c(F)c([H])c7F)c([H])c6[H])c(C(=O)N([H])[H])c5N([H])[H])C4([H])[H])C([H])([H])C3([H])[H])c([H])c([H])c2C1([H])[H]

>  <smiles>  (68) 
[H]c1c([H])c([H])c2c(c1[H])C([H])([H])C([H])([H])C([H])([H])C2([H])N([H])C(=O)C1([H])N(C(=O)C([H])(N([H])C(=O)C([H])(N([H])C([H])([H])[H])C([H])([H])[H])C(C([H])([H])[H])(C([H])([H])[H])C([H])([H])[H])C([H])([H])c2c([H])c(OC([H])([H])C([H])([H])C([H])([H])[N+]3([H])C([H])([H])C([H])([H])C([H])(C([H])([H])C([H])([H])N([H])C(=O)N4C([H])([H])C([H])([H])C([H])([H])C([H])(n5nc(-c6c([H])c([H])c(Oc7c([H])c([H])c(F)c([H])c7F)c([H])c6[H])c(C(=O)N([H])[H])c5N([H])[H])C4([H])[H])C([H])([H])C3([H])[H])c([H])c([H])c2C1([H])[H]

$$$$
69:0:0
     RDKit          3D

 97105  0  0  1  0  0  0  0  0999 V2000
  -35.6430  -26.9690   22.7500 C   0  0  0  0  0  2  0  0  0  0  0  0
  -34.4560  -27.7520   22.1410 C   0  0  0  0  0  2  0  0  0  0  0  0
  -36.0400  -25.7320   21.9140 C   0  0  0  0  0  2  0  0  0  0  0  0
  -33.8280  -25.6690   20.8760 C   0  0  0  0  0  2  0  0  0  0  0  0
  -33.2910  -26.8080   21.7650 C   0  0  0  0  0  3  0  0  0  0  0  0
  -34.8350  -24.9060   21.6490 N   0  0  1  0  0  4  0  0  0  0  0  0
  -34.4270  -24.7650   22.5600 H   0  0  0  0  0  0  0  0  0  0  0  0
  -32.0940  -27.5730   21.1660 C   0  0  0  0  0  2  0  0  0  0  0  0
  -30.9410  -26.6880   20.6260 C   0  0  0  0  0  2  0  0  0  0  0  0
  -29.6110  -27.4510   20.6710 C   0  0  0  0  0  2  0  0  0  0  0  0
  -28.4770  -26.7920   20.0860 O   0  0  0  0  0  0  0  0  0  0  0  0
  -24.6010  -31.8710   23.2120 C   0  0  0  0  0  0  0  0  0  0  0  0
  -27.2910  -27.5090   20.1230 C   0  0  0  0  0  0  0  0  0  0  0  0
  -23.3860  -30.4870   21.5440 C   0  0  0  0  0  3  0  0  0  0  0  0
  -24.8470  -28.9510   20.1150 C   0  0  0  0  0  0  0  0  0  0  0  0
  -25.8960  -30.8670   21.3460 C   0  0  0  0  0  2  0  0  0  0  0  0
  -25.9830  -29.4980   20.7160 C   0  0  0  0  0  0  0  0  0  0  0  0
  -27.1880  -28.7840   20.7300 C   0  0  0  0  0  3  0  0  0  0  0  0
  -26.1320  -26.9630   19.5230 C   0  0  0  0  0  3  0  0  0  0  0  0
  -24.9140  -27.6780   19.5160 C   0  0  0  0  0  3  0  0  0  0  0  0
  -23.5950  -29.7970   20.1620 C   0  0  0  0  0  2  0  0  0  0  0  0
  -24.6460  -31.0900   22.0960 N   0  0  0  0  0  0  0  0  0  0  0  0
  -23.5230  -32.1410   23.7580 O   0  0  0  0  0  0  0  0  0  0  0  0
  -22.7340  -29.4660   22.5010 C   0  0  0  0  0  0  0  0  0  0  0  0
  -21.4060  -29.3010   22.3790 N   0  0  0  0  0  0  0  0  0  0  0  0
  -23.4180  -28.8210   23.3000 O   0  0  0  0  0  0  0  0  0  0  0  0
  -20.9170  -29.8790   21.7100 H   0  0  0  0  0  0  0  0  0  0  0  0
  -18.0240  -28.1340   22.8510 C   0  0  0  0  0  0  0  0  0  0  0  0
  -20.5830  -28.3610   23.1360 C   0  0  0  0  0  3  0  0  0  0  0  0
  -20.6730  -26.9340   22.5450 C   0  0  0  0  0  2  0  0  0  0  0  0
  -19.5710  -26.6350   21.5240 C   0  0  0  0  0  2  0  0  0  0  0  0
  -18.1880  -26.7910   22.1620 C   0  0  0  0  0  2  0  0  0  0  0  0
  -19.1500  -28.8790   23.2950 C   0  0  0  0  0  0  0  0  0  0  0  0
  -18.9430  -30.1400   23.8950 C   0  0  0  0  0  3  0  0  0  0  0  0
  -17.6450  -30.6560   24.0560 C   0  0  0  0  0  3  0  0  0  0  0  0
  -16.5320  -29.9080   23.6330 C   0  0  0  0  0  3  0  0  0  0  0  0
  -16.7240  -28.6480   23.0360 C   0  0  0  0  0  3  0  0  0  0  0  0
  -25.8950  -32.4860   23.8400 C   0  0  0  0  0  3  0  0  0  0  0  0
  -26.4450  -31.6630   25.0690 C   0  0  1  0  0  0  0  0  0  0  0  0
  -25.3730  -31.3740   26.1460 C   0  0  0  0  0  1  0  0  0  0  0  0
  -27.0270  -30.3080   24.6030 C   0  0  0  0  0  1  0  0  0  0  0  0
  -27.6040  -32.4320   25.7470 C   0  0  0  0  0  1  0  0  0  0  0  0
  -25.5830  -33.8650   24.2340 N   0  0  0  0  0  0  0  0  0  0  0  0
  -25.9020  -34.9510   23.5150 C   0  0  0  0  0  0  0  0  0  0  0  0
  -26.5610  -34.8950   22.4740 O   0  0  0  0  0  0  0  0  0  0  0  0
  -24.9980  -33.9820   25.0480 H   0  0  0  0  0  0  0  0  0  0  0  0
  -24.1460  -36.7330   23.2620 C   0  0  0  0  0  1  0  0  0  0  0  0
  -25.4080  -36.3140   24.0340 C   0  0  0  0  0  3  0  0  0  0  0  0
  -27.5610  -37.1770   24.8420 C   0  0  0  0  0  1  0  0  0  0  0  0
  -26.4250  -37.3850   23.9470 N   0  0  0  0  0  0  0  0  0  0  0  0
  -26.0150  -38.2880   24.1660 H   0  0  0  0  0  0  0  0  0  0  0  0
  -35.0870  -23.5330   21.1470 C   0  0  0  0  0  2  0  0  0  0  0  0
  -34.0310  -22.5530   21.7120 C   0  0  0  0  0  2  0  0  0  0  0  0
  -34.1560  -21.1090   21.1940 C   0  0  0  0  0  2  0  0  0  0  0  0
  -33.1690  -20.1490   21.9000 C   0  0  0  0  0  2  0  0  0  0  0  0
  -32.7190  -18.9720   21.0170 C   0  0  0  0  0  2  0  0  0  0  0  0
  -31.7130  -18.0140   21.6980 C   0  0  0  0  0  2  0  0  0  0  0  0
  -30.5810  -17.6070   20.7430 C   0  0  0  0  0  2  0  0  0  0  0  0
  -29.5790  -16.5870   21.3170 C   0  0  0  0  0  2  0  0  0  0  0  0
  -30.6840  -14.4120   20.6660 C   0  0  0  0  0  0  0  0  0  0  0  0
  -30.4510  -12.3220   19.3750 C   0  0  0  0  0  2  0  0  0  0  0  0
  -29.4890  -12.5540   18.1910 C   0  0  0  0  0  2  0  0  0  0  0  0
  -28.0200  -12.3850   18.6190 C   0  0  0  0  0  2  0  0  0  0  0  0
  -27.6840  -13.1900   19.9010 C   0  0  0  0  0  3  0  0  0  0  0  0
  -28.7250  -12.8660   20.9950 C   0  0  0  0  0  2  0  0  0  0  0  0
  -30.0620  -13.2170   20.4760 N   0  0  0  0  0  0  0  0  0  0  0  0
  -31.7030  -14.7490   20.0590 O   0  0  0  0  0  0  0  0  0  0  0  0
  -30.0510  -15.2110   21.5410 N   0  0  0  0  0  0  0  0  0  0  0  0
  -29.4470  -14.6900   22.1590 H   0  0  0  0  0  0  0  0  0  0  0  0
  -25.2720  -13.8110   20.5750 C   0  0  0  0  0  0  0  0  0  0  0  0
  -24.1930  -13.0430   20.9180 C   0  0  0  0  0  0  0  0  0  0  0  0
  -24.6420  -11.6890   20.8700 C   0  0  0  0  0  0  0  0  0  0  0  0
  -26.3150  -12.9270   20.3510 N   0  0  0  0  0  0  0  0  0  0  0  0
  -25.9340  -11.6420   20.5740 N   0  0  0  0  0  0  0  0  0  0  0  0
  -23.9050  -10.4300   21.0360 C   0  0  0  0  0  0  0  0  0  0  0  0
  -24.3580   -9.4210   21.9180 C   0  0  0  0  0  3  0  0  0  0  0  0
  -23.6280   -8.2240   22.0720 C   0  0  0  0  0  3  0  0  0  0  0  0
  -22.4280   -8.0230   21.3510 C   0  0  0  0  0  0  0  0  0  0  0  0
  -21.9900   -9.0220   20.4640 C   0  0  0  0  0  3  0  0  0  0  0  0
  -22.7220  -10.2110   20.3030 C   0  0  0  0  0  3  0  0  0  0  0  0
  -21.6660   -6.8840   21.4210 O   0  0  0  0  0  0  0  0  0  0  0  0
  -21.6870   -6.0720   22.5290 C   0  0  0  0  0  0  0  0  0  0  0  0
  -21.4010   -6.5640   23.8210 C   0  0  0  0  0  3  0  0  0  0  0  0
  -21.3670   -5.6790   24.9170 C   0  0  0  0  0  3  0  0  0  0  0  0
  -21.6040   -4.3040   24.7250 C   0  0  0  0  0  0  0  0  0  0  0  0
  -21.8830   -3.8140   23.4370 C   0  0  0  0  0  3  0  0  0  0  0  0
  -21.9220   -4.6940   22.3430 C   0  0  0  0  0  0  0  0  0  0  0  0
  -22.1670   -4.2120   21.1010 F   0  0  0  0  0  0  0  0  0  0  0  0
  -21.5610   -3.4530   25.7760 F   0  0  0  0  0  0  0  0  0  0  0  0
  -22.7970  -13.5240   21.1860 C   0  0  0  0  0  0  0  0  0  0  0  0
  -22.0610  -12.8210   22.0380 N   0  0  0  0  0  0  0  0  0  0  0  0
  -22.3690  -14.5580   20.6730 O   0  0  0  0  0  0  0  0  0  0  0  0
  -22.4180  -11.9830   22.4720 H   0  0  0  0  0  0  0  0  0  0  0  0
  -21.1190  -13.1200   22.2490 H   0  0  0  0  0  0  0  0  0  0  0  0
  -25.4530  -15.1840   20.4170 N   0  0  0  0  0  0  0  0  0  0  0  0
  -24.7050  -15.8530   20.5460 H   0  0  0  0  0  0  0  0  0  0  0  0
  -26.3280  -15.6190   20.1460 H   0  0  0  0  0  0  0  0  0  0  0  0
  2  1  1  0
  3  1  1  0
  4  6  1  0
  4  5  1  0
  5  8  1  0
  5  2  1  0
  6  3  1  0
  6  7  1  1
  9 10  1  0
  9  8  1  0
 11 13  1  0
 11 10  1  0
 12 23  2  0
 13 18  1  0
 14 22  1  0
 14 24  1  0
 15 21  1  0
 15 17  1  0
 16 22  1  0
 17 18  2  0
 17 16  1  0
 19 13  2  0
 20 19  1  0
 20 15  2  0
 21 14  1  0
 22 12  1  0
 24 26  2  0
 25 24  1  0
 27 25  1  0
 28 37  2  0
 28 33  1  0
 29 25  1  0
 29 33  1  0
 30 29  1  0
 31 32  1  0
 31 30  1  0
 32 28  1  0
 33 34  2  0
 34 35  1  0
 36 35  2  0
 37 36  1  0
 38 12  1  0
 38 43  1  0
 38 39  1  0
 39 42  1  1
 39 40  1  0
 41 39  1  0
 43 46  1  0
 44 48  1  0
 44 43  1  0
 45 44  2  0
 48 47  1  0
 50 48  1  0
 50 51  1  0
 50 49  1  0
 52  6  1  0
 52 53  1  0
 54 53  1  0
 54 55  1  0
 56 57  1  0
 56 55  1  0
 58 59  1  0
 58 57  1  0
 59 68  1  0
 60 68  1  0
 61 66  1  0
 62 63  1  0
 62 61  1  0
 64 63  1  0
 64 73  1  0
 64 65  1  0
 66 60  1  0
 66 65  1  0
 67 60  2  0
 68 69  1  0
 70 71  2  0
 71 90  1  0
 72 71  1  0
 72 75  1  0
 73 74  1  0
 73 70  1  0
 74 72  2  0
 75 76  1  0
 76 77  2  0
 78 81  1  0
 78 77  1  0
 79 78  2  0
 80 79  1  0
 80 75  2  0
 81 82  1  0
 82 83  1  0
 83 84  2  0
 85 84  1  0
 85 89  1  0
 86 85  2  0
 87 82  2  0
 87 86  1  0
 88 87  1  0
 90 91  1  0
 91 94  1  0
 91 93  1  0
 92 90  2  0
 95 96  1  0
 95 70  1  0
 97 95  1  0
M  ISO  4  10 101  11 101  60 100  68 100
M  END
>  <TORSDO>  (69) 
F 27

>  <SCORE>  (69) 
-9.177

>  <name>  (69) 
69

>  <ligand_id>  (69) 
69

>  <original_smiles>  (69) 
[H]c1c([H])c([H])c2c(c1[H])C([H])([H])C([H])([H])C([H])([H])C2([H])N([H])C(=O)C1([H])N(C(=O)C([H])(N([H])C(=O)C([H])(N([H])C([H])([H])[H])C([H])([H])[H])C(C([H])([H])[H])(C([H])([H])[H])C([H])([H])[H])C([H])([H])c2c([H])c(OC([H])([H])C([H])([H])C([H])([H])C3([H])C([H])([H])C([H])([H])C([H])([H])[N+]([H])(C([H])([H])C([H])([H])C([H])([H])C([H])([H])C([H])([H])C([H])([H])C([H])([H])C([H])([H])N([H])C(=O)N4C([H])([H])C([H])([H])C([H])([H])C([H])(n5nc(-c6c([H])c([H])c(Oc7c([H])c([H])c(F)c([H])c7F)c([H])c6[H])c(C(=O)N([H])[H])c5N([H])[H])C4([H])[H])C3([H])[H])c([H])c([H])c2C1([H])[H]

>  <smiles>  (69) 
[H]c1c([H])c([H])c2c(c1[H])C([H])([H])C([H])([H])C([H])([H])C2([H])N([H])C(=O)C1([H])N(C(=O)C([H])(N([H])C(=O)C([H])(N([H])C([H])([H])[H])C([H])([H])[H])C(C([H])([H])[H])(C([H])([H])[H])C([H])([H])[H])C([H])([H])c2c([H])c(OC([H])([H])C([H])([H])C([H])([H])C3([H])C([H])([H])C([H])([H])C([H])([H])[N+]([H])(C([H])([H])C([H])([H])C([H])([H])C([H])([H])C([H])([H])C([H])([H])C([H])([H])C([H])([H])N([H])C(=O)N4C([H])([H])C([H])([H])C([H])([H])C([H])(n5nc(-c6c([H])c([H])c(Oc7c([H])c([H])c(F)c([H])c7F)c([H])c6[H])c(C(=O)N([H])[H])c5N([H])[H])C4([H])[H])C3([H])[H])c([H])c([H])c2C1([H])[H]

$$$$
70:0:0
     RDKit          3D

 93102  0  0  1  0  0  0  0  0999 V2000
  -30.7810  -14.5530   20.3770 C   0  0  0  0  0  0  0  0  0  0  0  0
  -30.5040  -12.3420   19.3650 C   0  0  0  0  0  2  0  0  0  0  0  0
  -29.5790  -12.5130   18.1400 C   0  0  0  0  0  2  0  0  0  0  0  0
  -28.0950  -12.4110   18.5530 C   0  0  0  0  0  2  0  0  0  0  0  0
  -27.7460  -13.2910   19.7840 C   0  0  0  0  0  3  0  0  0  0  0  0
  -28.7900  -13.0880   20.9060 C   0  0  0  0  0  2  0  0  0  0  0  0
  -30.1140  -13.3700   20.3370 N   0  0  0  0  0  0  0  0  0  0  0  0
  -31.9910  -14.6310   20.1430 O   0  0  0  0  0  0  0  0  0  0  0  0
  -30.9220  -17.6820   18.9490 C   0  0  0  0  0  2  0  0  0  0  0  0
  -29.9050  -18.8330   18.9570 C   0  0  0  0  0  2  0  0  0  0  0  0
  -28.3660  -17.5430   20.5720 C   0  0  0  0  0  2  0  0  0  0  0  0
  -27.7890  -19.8660   19.8170 C   0  0  0  0  0  2  0  0  0  0  0  0
  -29.7260  -19.5610   21.4100 C   0  0  0  0  0  2  0  0  0  0  0  0
  -30.2510  -16.3070   18.7770 C   0  0  0  0  0  2  0  0  0  0  0  0
  -29.3160  -16.4230   21.0900 C   0  0  0  0  0  2  0  0  0  0  0  0
  -28.1620  -21.3610   19.6570 C   0  0  0  0  0  2  0  0  0  0  0  0
  -29.1930  -20.9350   21.8730 C   0  0  0  0  0  2  0  0  0  0  0  0
  -28.9740  -18.9320   20.1970 C   0  0  2  0  0  0  0  0  0  0  0  0
  -30.0000  -15.6230   20.0580 N   0  0  0  0  0  0  0  0  0  0  0  0
  -29.0420  -21.8850   20.7410 N   0  0  2  0  0  4  0  0  0  0  0  0
  -29.9660  -21.9590   20.3370 H   0  0  0  0  0  0  0  0  0  0  0  0
  -25.3540  -13.9540   20.4600 C   0  0  0  0  0  0  0  0  0  0  0  0
  -24.2650  -13.2070   20.8210 C   0  0  0  0  0  0  0  0  0  0  0  0
  -24.6990  -11.8480   20.8060 C   0  0  0  0  0  0  0  0  0  0  0  0
  -26.3840  -13.0490   20.2530 N   0  0  0  0  0  0  0  0  0  0  0  0
  -25.9940  -11.7790   20.5210 N   0  0  0  0  0  0  0  0  0  0  0  0
  -23.9470  -10.6000   20.9960 C   0  0  0  0  0  0  0  0  0  0  0  0
  -24.3640   -9.6230   21.9270 C   0  0  0  0  0  3  0  0  0  0  0  0
  -23.6160   -8.4380   22.1040 C   0  0  0  0  0  3  0  0  0  0  0  0
  -22.4380   -8.2240   21.3480 C   0  0  0  0  0  0  0  0  0  0  0  0
  -22.0420   -9.1910   20.4070 C   0  0  0  0  0  3  0  0  0  0  0  0
  -22.7890  -10.3670   20.2280 C   0  0  0  0  0  3  0  0  0  0  0  0
  -21.6620   -7.0930   21.4330 O   0  0  0  0  0  0  0  0  0  0  0  0
  -21.6130   -6.3400   22.5790 C   0  0  0  0  0  0  0  0  0  0  0  0
  -21.2270   -6.8960   23.8180 C   0  0  0  0  0  3  0  0  0  0  0  0
  -21.1240   -6.0730   24.9560 C   0  0  0  0  0  3  0  0  0  0  0  0
  -21.3930   -4.6950   24.8580 C   0  0  0  0  0  0  0  0  0  0  0  0
  -21.7700   -4.1380   23.6220 C   0  0  0  0  0  3  0  0  0  0  0  0
  -21.8770   -4.9580   22.4860 C   0  0  0  0  0  0  0  0  0  0  0  0
  -22.2200   -4.4140   21.2940 F   0  0  0  0  0  0  0  0  0  0  0  0
  -21.2850   -3.9020   25.9490 F   0  0  0  0  0  0  0  0  0  0  0  0
  -22.8740  -13.7170   21.0690 C   0  0  0  0  0  0  0  0  0  0  0  0
  -22.1300  -13.0520   21.9460 N   0  0  0  0  0  0  0  0  0  0  0  0
  -22.4570  -14.7360   20.5210 O   0  0  0  0  0  0  0  0  0  0  0  0
  -22.4820  -12.2240   22.4000 H   0  0  0  0  0  0  0  0  0  0  0  0
  -21.1940  -13.3690   22.1580 H   0  0  0  0  0  0  0  0  0  0  0  0
  -25.5490  -15.3160   20.2700 N   0  0  0  0  0  0  0  0  0  0  0  0
  -24.8070  -15.9980   20.3790 H   0  0  0  0  0  0  0  0  0  0  0  0
  -26.4240  -15.7230   19.9680 H   0  0  0  0  0  0  0  0  0  0  0  0
  -28.6870  -23.2550   21.2130 C   0  0  0  0  0  2  0  0  0  0  0  0
  -28.6680  -24.3440   20.1130 C   0  0  0  0  0  2  0  0  0  0  0  0
  -28.5020  -25.7520   20.7210 C   0  0  0  0  0  2  0  0  0  0  0  0
  -28.4570  -26.7760   19.7240 O   0  0  0  0  0  0  0  0  0  0  0  0
  -24.5370  -31.7250   22.9850 C   0  0  0  0  0  0  0  0  0  0  0  0
  -27.2870  -27.4890   19.7400 C   0  0  0  0  0  0  0  0  0  0  0  0
  -23.3620  -30.3450   21.2980 C   0  0  0  0  0  3  0  0  0  0  0  0
  -24.8510  -28.9030   19.8130 C   0  0  0  0  0  0  0  0  0  0  0  0
  -25.8710  -30.7940   21.0980 C   0  0  0  0  0  2  0  0  0  0  0  0
  -25.9950  -29.4490   20.4110 C   0  0  0  0  0  0  0  0  0  0  0  0
  -27.2200  -28.7490   20.3720 C   0  0  0  0  0  3  0  0  0  0  0  0
  -26.1330  -26.9480   19.1400 C   0  0  0  0  0  3  0  0  0  0  0  0
  -24.9130  -27.6510   19.1760 C   0  0  0  0  0  3  0  0  0  0  0  0
  -23.5820  -29.7170   19.8950 C   0  0  0  0  0  2  0  0  0  0  0  0
  -24.6080  -30.9680   21.8520 N   0  0  0  0  0  0  0  0  0  0  0  0
  -23.4520  -31.9450   23.5410 O   0  0  0  0  0  0  0  0  0  0  0  0
  -22.7450  -29.2760   22.2280 C   0  0  0  0  0  0  0  0  0  0  0  0
  -21.4130  -29.1180   22.1540 N   0  0  0  0  0  0  0  0  0  0  0  0
  -23.4560  -28.5930   22.9680 O   0  0  0  0  0  0  0  0  0  0  0  0
  -20.8990  -29.7200   21.5270 H   0  0  0  0  0  0  0  0  0  0  0  0
  -18.0490  -27.9710   22.7770 C   0  0  0  0  0  0  0  0  0  0  0  0
  -20.6240  -28.1420   22.9050 C   0  0  0  0  0  3  0  0  0  0  0  0
  -20.6480  -26.7580   22.2140 C   0  0  0  0  0  2  0  0  0  0  0  0
  -19.4790  -26.5500   21.2460 C   0  0  0  0  0  2  0  0  0  0  0  0
  -18.1440  -26.6770   21.9860 C   0  0  0  0  0  2  0  0  0  0  0  0
  -19.2140  -28.6670   23.1930 C   0  0  0  0  0  0  0  0  0  0  0  0
  -19.0710  -29.8860   23.8890 C   0  0  0  0  0  3  0  0  0  0  0  0
  -17.7940  -30.4080   24.1730 C   0  0  0  0  0  3  0  0  0  0  0  0
  -16.6440  -29.7050   23.7760 C   0  0  0  0  0  3  0  0  0  0  0  0
  -16.7740  -28.4870   23.0850 C   0  0  0  0  0  3  0  0  0  0  0  0
  -25.8120  -32.3680   23.6190 C   0  0  0  0  0  3  0  0  0  0  0  0
  -25.4640  -33.7370   24.0170 N   0  0  0  0  0  0  0  0  0  0  0  0
  -25.7590  -34.8330   23.3040 C   0  0  0  0  0  0  0  0  0  0  0  0
  -26.4270  -34.7970   22.2670 O   0  0  0  0  0  0  0  0  0  0  0  0
  -24.8710  -33.8350   24.8280 H   0  0  0  0  0  0  0  0  0  0  0  0
  -23.9800  -36.5900   23.0350 C   0  0  0  0  0  1  0  0  0  0  0  0
  -25.2310  -36.1820   23.8290 C   0  0  0  0  0  3  0  0  0  0  0  0
  -27.3390  -37.0880   24.7040 C   0  0  0  0  0  1  0  0  0  0  0  0
  -26.2330  -37.2690   23.7690 N   0  0  0  0  0  0  0  0  0  0  0  0
  -25.7990  -38.1680   23.9600 H   0  0  0  0  0  0  0  0  0  0  0  0
  -26.3720  -31.5540   24.8490 C   0  0  1  0  0  0  0  0  0  0  0  0
  -25.3060  -31.2390   25.9230 C   0  0  0  0  0  1  0  0  0  0  0  0
  -26.9860  -30.2140   24.3830 C   0  0  0  0  0  1  0  0  0  0  0  0
  -27.5130  -32.3470   25.5290 C   0  0  0  0  0  1  0  0  0  0  0  0
  2  7  1  0
  3  4  1  0
  3  2  1  0
  5  4  1  0
  5 25  1  0
  5  6  1  0
  7  1  1  0
  7  6  1  0
  8  1  2  0
  9 10  1  0
 11 15  1  0
 18 12  1  6
 13 17  1  0
 14  9  1  0
 14 19  1  0
 16 12  1  0
 16 20  1  0
 18 10  1  0
 18 11  1  0
 18 13  1  0
 19  1  1  0
 19 15  1  0
 20 50  1  0
 20 17  1  0
 20 21  1  6
 22 23  2  0
 23 42  1  0
 24 23  1  0
 24 27  1  0
 25 22  1  0
 25 26  1  0
 26 24  2  0
 27 28  1  0
 28 29  2  0
 30 33  1  0
 30 29  1  0
 31 30  2  0
 32 31  1  0
 32 27  2  0
 33 34  1  0
 34 35  1  0
 35 36  2  0
 37 36  1  0
 37 41  1  0
 38 37  2  0
 39 34  2  0
 39 38  1  0
 40 39  1  0
 42 43  1  0
 43 46  1  0
 43 45  1  0
 44 42  2  0
 47 48  1  0
 47 22  1  0
 49 47  1  0
 51 52  1  0
 51 50  1  0
 53 55  1  0
 53 52  1  0
 54 65  2  0
 55 60  1  0
 56 64  1  0
 56 66  1  0
 57 63  1  0
 57 59  1  0
 58 64  1  0
 59 58  1  0
 60 59  2  0
 61 62  1  0
 61 55  2  0
 62 57  2  0
 63 56  1  0
 64 54  1  0
 66 68  2  0
 67 66  1  0
 69 67  1  0
 70 79  2  0
 70 75  1  0
 71 67  1  0
 71 75  1  0
 72 71  1  0
 73 74  1  0
 73 72  1  0
 74 70  1  0
 75 76  2  0
 76 77  1  0
 78 77  2  0
 79 78  1  0
 80 54  1  0
 80 81  1  0
 80 90  1  0
 81 84  1  0
 82 86  1  0
 82 81  1  0
 83 82  2  0
 86 85  1  0
 88 86  1  0
 88 89  1  0
 88 87  1  0
 90 93  1  1
 90 91  1  0
 92 90  1  0
M  ISO  4   1 100  19 100  52 101  53 101
M  END
>  <TORSDO>  (70) 
F 18

>  <SCORE>  (70) 
-14.024

>  <name>  (70) 
70

>  <ligand_id>  (70) 
70

>  <original_smiles>  (70) 
[H]c1c([H])c([H])c2c(c1[H])C([H])([H])C([H])([H])C([H])([H])C2([H])N([H])C(=O)C1([H])N(C(=O)C([H])(N([H])C(=O)C([H])(N([H])C([H])([H])[H])C([H])([H])[H])C(C([H])([H])[H])(C([H])([H])[H])C([H])([H])[H])C([H])([H])c2c([H])c(OC([H])([H])C([H])([H])C([H])([H])[N+]3([H])C([H])([H])C([H])([H])C4(C([H])([H])C([H])([H])N(C(=O)N5C([H])([H])C([H])([H])C([H])([H])C([H])(n6nc(-c7c([H])c([H])c(Oc8c([H])c([H])c(F)c([H])c8F)c([H])c7[H])c(C(=O)N([H])[H])c6N([H])[H])C5([H])[H])C([H])([H])C([H])([H])C4([H])[H])C([H])([H])C3([H])[H])c([H])c([H])c2C1([H])[H]

>  <smiles>  (70) 
[H]c1c([H])c([H])c2c(c1[H])C([H])([H])C([H])([H])C([H])([H])C2([H])N([H])C(=O)C1([H])N(C(=O)C([H])(N([H])C(=O)C([H])(N([H])C([H])([H])[H])C([H])([H])[H])C(C([H])([H])[H])(C([H])([H])[H])C([H])([H])[H])C([H])([H])c2c([H])c(OC([H])([H])C([H])([H])C([H])([H])[N+]3([H])C([H])([H])C([H])([H])C4(C([H])([H])C([H])([H])N(C(=O)N5C([H])([H])C([H])([H])C([H])([H])C([H])(n6nc(-c7c([H])c([H])c(Oc8c([H])c([H])c(F)c([H])c8F)c([H])c7[H])c(C(=O)N([H])[H])c6N([H])[H])C5([H])[H])C([H])([H])C([H])([H])C4([H])[H])C([H])([H])C3([H])[H])c([H])c([H])c2C1([H])[H]

$$$$
71:0:0
     RDKit          3D

 93101  0  0  1  0  0  0  0  0999 V2000
  -30.1520  -21.7510   19.4720 N   0  0  0  0  0  4  0  0  0  0  0  0
  -30.2590  -21.7540   20.4730 H   0  0  0  0  0  0  0  0  0  0  0  0
  -29.1830  -21.5800   19.2630 H   0  0  0  0  0  0  0  0  0  0  0  0
  -30.9430  -20.6380   18.9210 C   0  0  0  0  0  2  0  0  0  0  0  0
  -31.6140  -18.7320   20.4560 C   0  0  0  0  0  3  0  0  0  0  0  0
  -29.4210  -18.6520   19.3890 C   0  0  0  0  0  3  0  0  0  0  0  0
  -31.3980  -17.4500   21.0000 C   0  0  0  0  0  3  0  0  0  0  0  0
  -29.1980  -17.3760   19.9440 C   0  0  0  0  0  3  0  0  0  0  0  0
  -30.6440  -19.3200   19.6170 C   0  0  0  0  0  0  0  0  0  0  0  0
  -30.2070  -16.7520   20.7050 C   0  0  0  0  0  0  0  0  0  0  0  0
  -30.6990  -14.4050   20.5290 C   0  0  0  0  0  0  0  0  0  0  0  0
  -30.3580  -12.2790   19.3460 C   0  0  0  0  0  2  0  0  0  0  0  0
  -29.4340  -12.5320   18.1390 C   0  0  0  0  0  2  0  0  0  0  0  0
  -27.9540  -12.4150   18.5540 C   0  0  0  0  0  2  0  0  0  0  0  0
  -27.6200  -13.2310   19.8330 C   0  0  0  0  0  3  0  0  0  0  0  0
  -28.6630  -12.9760   20.9450 C   0  0  0  0  0  2  0  0  0  0  0  0
  -30.0020  -13.2490   20.3910 N   0  0  0  0  0  0  0  0  0  0  0  0
  -31.8230  -14.5750   20.0450 O   0  0  0  0  0  0  0  0  0  0  0  0
  -30.0270  -15.4090   21.1110 N   0  0  0  0  0  0  0  0  0  0  0  0
  -29.1070  -15.1530   21.4370 H   0  0  0  0  0  0  0  0  0  0  0  0
  -25.2150  -13.8440   20.5130 C   0  0  0  0  0  0  0  0  0  0  0  0
  -24.1440  -13.0740   20.8810 C   0  0  0  0  0  0  0  0  0  0  0  0
  -24.6050  -11.7230   20.8650 C   0  0  0  0  0  0  0  0  0  0  0  0
  -26.2620  -12.9620   20.2980 N   0  0  0  0  0  0  0  0  0  0  0  0
  -25.8970  -11.6820   20.5660 N   0  0  0  0  0  0  0  0  0  0  0  0
  -23.8770  -10.4620   21.0590 C   0  0  0  0  0  0  0  0  0  0  0  0
  -24.3140   -9.4930   21.9900 C   0  0  0  0  0  3  0  0  0  0  0  0
  -23.5880   -8.2970   22.1710 C   0  0  0  0  0  3  0  0  0  0  0  0
  -22.4100   -8.0610   21.4220 C   0  0  0  0  0  0  0  0  0  0  0  0
  -21.9940   -9.0180   20.4790 C   0  0  0  0  0  3  0  0  0  0  0  0
  -22.7220  -10.2060   20.2960 C   0  0  0  0  0  3  0  0  0  0  0  0
  -21.6540   -6.9180   21.5120 O   0  0  0  0  0  0  0  0  0  0  0  0
  -21.6260   -6.1630   22.6570 C   0  0  0  0  0  0  0  0  0  0  0  0
  -21.2410   -6.7080   23.9020 C   0  0  0  0  0  3  0  0  0  0  0  0
  -21.1600   -5.8810   25.0390 C   0  0  0  0  0  3  0  0  0  0  0  0
  -21.4520   -4.5080   24.9340 C   0  0  0  0  0  0  0  0  0  0  0  0
  -21.8330   -3.9620   23.6940 C   0  0  0  0  0  3  0  0  0  0  0  0
  -21.9160   -4.7870   22.5590 C   0  0  0  0  0  0  0  0  0  0  0  0
  -22.2610   -4.2520   21.3640 F   0  0  0  0  0  0  0  0  0  0  0  0
  -21.3680   -3.7110   26.0230 F   0  0  0  0  0  0  0  0  0  0  0  0
  -22.7460  -13.5530   21.1420 C   0  0  0  0  0  0  0  0  0  0  0  0
  -22.0120  -12.8620   22.0080 N   0  0  0  0  0  0  0  0  0  0  0  0
  -22.3120  -14.5770   20.6140 O   0  0  0  0  0  0  0  0  0  0  0  0
  -22.3770  -12.0330   22.4540 H   0  0  0  0  0  0  0  0  0  0  0  0
  -21.0740  -13.1660   22.2260 H   0  0  0  0  0  0  0  0  0  0  0  0
  -25.3800  -15.2140   20.3250 N   0  0  0  0  0  0  0  0  0  0  0  0
  -24.6080  -15.8660   20.4080 H   0  0  0  0  0  0  0  0  0  0  0  0
  -26.2300  -15.6480   19.9930 H   0  0  0  0  0  0  0  0  0  0  0  0
  -30.5530  -23.0630   18.9270 C   0  0  0  0  0  2  0  0  0  0  0  0
  -29.5550  -24.1760   19.2750 C   0  0  0  0  0  2  0  0  0  0  0  0
  -30.0270  -25.5450   18.7580 C   0  0  0  0  0  2  0  0  0  0  0  0
  -28.9060  -26.5860   18.7400 C   0  0  0  0  0  2  0  0  0  0  0  0
  -28.4340  -26.8040   20.0650 O   0  0  0  0  0  0  0  0  0  0  0  0
  -24.5960  -31.8850   23.2350 C   0  0  0  0  0  0  0  0  0  0  0  0
  -27.2480  -27.4880   20.1240 C   0  0  0  0  0  0  0  0  0  0  0  0
  -23.3870  -30.4800   21.5970 C   0  0  0  0  0  3  0  0  0  0  0  0
  -24.8390  -28.9450   20.1720 C   0  0  0  0  0  0  0  0  0  0  0  0
  -25.9060  -30.8540   21.3860 C   0  0  0  0  0  2  0  0  0  0  0  0
  -25.9940  -29.4810   20.7570 C   0  0  0  0  0  0  0  0  0  0  0  0
  -27.2010  -28.7530   20.7430 C   0  0  0  0  0  3  0  0  0  0  0  0
  -26.0740  -26.9430   19.5610 C   0  0  0  0  0  3  0  0  0  0  0  0
  -24.8690  -27.6690   19.5800 C   0  0  0  0  0  3  0  0  0  0  0  0
  -23.5920  -29.7970   20.2180 C   0  0  0  0  0  2  0  0  0  0  0  0
  -24.6490  -31.0860   22.1320 N   0  0  0  0  0  0  0  0  0  0  0  0
  -23.5170  -32.1530   23.7800 O   0  0  0  0  0  0  0  0  0  0  0  0
  -22.7450  -29.4540   22.5580 C   0  0  0  0  0  0  0  0  0  0  0  0
  -21.4200  -29.2730   22.4400 N   0  0  0  0  0  0  0  0  0  0  0  0
  -23.4350  -28.8270   23.3660 O   0  0  0  0  0  0  0  0  0  0  0  0
  -20.9230  -29.8330   21.7610 H   0  0  0  0  0  0  0  0  0  0  0  0
  -18.0510  -28.0810   22.9550 C   0  0  0  0  0  0  0  0  0  0  0  0
  -20.6100  -28.3350   23.2150 C   0  0  0  0  0  3  0  0  0  0  0  0
  -20.7080  -26.9040   22.6360 C   0  0  0  0  0  2  0  0  0  0  0  0
  -19.6010  -26.5830   21.6280 C   0  0  0  0  0  2  0  0  0  0  0  0
  -18.2220  -26.7300   22.2780 C   0  0  0  0  0  2  0  0  0  0  0  0
  -19.1730  -28.8400   23.3810 C   0  0  0  0  0  0  0  0  0  0  0  0
  -18.9590  -30.1030   23.9740 C   0  0  0  0  0  3  0  0  0  0  0  0
  -17.6560  -30.6080   24.1440 C   0  0  0  0  0  3  0  0  0  0  0  0
  -16.5490  -29.8460   23.7330 C   0  0  0  0  0  3  0  0  0  0  0  0
  -16.7480  -28.5830   23.1470 C   0  0  0  0  0  3  0  0  0  0  0  0
  -25.8850  -32.5170   23.8490 C   0  0  0  0  0  3  0  0  0  0  0  0
  -25.5740  -33.9140   24.1790 N   0  0  0  0  0  0  0  0  0  0  0  0
  -25.9070  -34.9660   23.4180 C   0  0  0  0  0  0  0  0  0  0  0  0
  -26.5800  -34.8620   22.3880 O   0  0  0  0  0  0  0  0  0  0  0  0
  -24.9730  -34.0700   24.9750 H   0  0  0  0  0  0  0  0  0  0  0  0
  -24.1770  -36.7530   23.0630 C   0  0  0  0  0  1  0  0  0  0  0  0
  -25.4200  -36.3530   23.8740 C   0  0  0  0  0  3  0  0  0  0  0  0
  -27.5550  -37.2370   24.7010 C   0  0  0  0  0  1  0  0  0  0  0  0
  -26.4510  -37.4070   23.7610 N   0  0  0  0  0  0  0  0  0  0  0  0
  -26.0440  -38.3260   23.9130 H   0  0  0  0  0  0  0  0  0  0  0  0
  -26.4140  -31.7430   25.1180 C   0  0  1  0  0  0  0  0  0  0  0  0
  -25.3290  -31.4940   26.1910 C   0  0  0  0  0  1  0  0  0  0  0  0
  -26.9990  -30.3700   24.7130 C   0  0  0  0  0  1  0  0  0  0  0  0
  -27.5680  -32.5380   25.7740 C   0  0  0  0  0  1  0  0  0  0  0  0
  1  2  1  0
  3  1  1  0
  4  1  1  0
  4  9  1  0
  5  7  1  0
  6  9  1  0
  6  8  2  0
  8 10  1  0
  9  5  2  0
 10  7  2  0
 10 19  1  0
 11 19  1  0
 12 17  1  0
 13 14  1  0
 13 12  1  0
 15 14  1  0
 15 24  1  0
 15 16  1  0
 17 11  1  0
 17 16  1  0
 18 11  2  0
 19 20  1  0
 21 22  2  0
 22 41  1  0
 23 22  1  0
 23 26  1  0
 24 21  1  0
 24 25  1  0
 25 23  2  0
 26 27  1  0
 27 28  2  0
 29 32  1  0
 29 28  1  0
 30 29  2  0
 31 30  1  0
 31 26  2  0
 32 33  1  0
 33 34  1  0
 34 35  2  0
 36 35  1  0
 36 40  1  0
 37 36  2  0
 38 33  2  0
 38 37  1  0
 39 38  1  0
 41 42  1  0
 42 45  1  0
 42 44  1  0
 43 41  2  0
 46 47  1  0
 46 21  1  0
 48 46  1  0
 49 50  1  0
 49  1  1  0
 51 50  1  0
 52 51  1  0
 52 53  1  0
 53 55  1  0
 54 65  2  0
 55 60  1  0
 56 64  1  0
 56 66  1  0
 57 63  1  0
 57 59  1  0
 58 64  1  0
 59 58  1  0
 60 59  2  0
 61 62  1  0
 61 55  2  0
 62 57  2  0
 63 56  1  0
 64 54  1  0
 66 68  2  0
 67 66  1  0
 69 67  1  0
 70 79  2  0
 70 75  1  0
 71 67  1  0
 71 75  1  0
 72 71  1  0
 73 74  1  0
 73 72  1  0
 74 70  1  0
 75 76  2  0
 76 77  1  0
 78 77  2  0
 79 78  1  0
 80 54  1  0
 80 81  1  0
 80 90  1  0
 81 84  1  0
 82 86  1  0
 82 81  1  0
 83 82  2  0
 86 85  1  0
 88 86  1  0
 88 89  1  0
 88 87  1  0
 90 93  1  1
 90 91  1  0
 92 90  1  0
M  ISO  4  11 100  19 100  52 101  53 101
M  END
>  <TORSDO>  (71) 
F 22

>  <SCORE>  (71) 
-13.130

>  <name>  (71) 
71

>  <ligand_id>  (71) 
71

>  <original_smiles>  (71) 
[H]c1c([H])c([H])c2c(c1[H])C([H])([H])C([H])([H])C([H])([H])C2([H])N([H])C(=O)C1([H])N(C(=O)C([H])(N([H])C(=O)C([H])(N([H])C([H])([H])[H])C([H])([H])[H])C(C([H])([H])[H])(C([H])([H])[H])C([H])([H])[H])C([H])([H])c2c([H])c(OC([H])([H])C([H])([H])C([H])([H])C([H])([H])[N+]([H])([H])C([H])([H])c3c([H])c([H])c(N([H])C(=O)N4C([H])([H])C([H])([H])C([H])([H])C([H])(n5nc(-c6c([H])c([H])c(Oc7c([H])c([H])c(F)c([H])c7F)c([H])c6[H])c(C(=O)N([H])[H])c5N([H])[H])C4([H])[H])c([H])c3[H])c([H])c([H])c2C1([H])[H]

>  <smiles>  (71) 
[H]c1c([H])c([H])c2c(c1[H])C([H])([H])C([H])([H])C([H])([H])C2([H])N([H])C(=O)C1([H])N(C(=O)C([H])(N([H])C(=O)C([H])(N([H])C([H])([H])[H])C([H])([H])[H])C(C([H])([H])[H])(C([H])([H])[H])C([H])([H])[H])C([H])([H])c2c([H])c(OC([H])([H])C([H])([H])C([H])([H])C([H])([H])[N+]([H])([H])C([H])([H])c3c([H])c([H])c(N([H])C(=O)N4C([H])([H])C([H])([H])C([H])([H])C([H])(n5nc(-c6c([H])c([H])c(Oc7c([H])c([H])c(F)c([H])c7F)c([H])c6[H])c(C(=O)N([H])[H])c5N([H])[H])C4([H])[H])c([H])c3[H])c([H])c([H])c2C1([H])[H]

$$$$
72:0:0
     RDKit          3D

 98107  0  0  1  0  0  0  0  0999 V2000
  -29.0890  -21.5280   19.8060 C   0  0  0  0  0  2  0  0  0  0  0  0
  -28.3250  -20.1730   17.8530 C   0  0  0  0  0  2  0  0  0  0  0  0
  -29.4050  -22.6920   18.8590 C   0  0  0  0  0  2  0  0  0  0  0  0
  -28.6900  -21.3490   16.9220 C   0  0  0  0  0  2  0  0  0  0  0  0
  -29.2100  -20.1590   19.1110 C   0  0  0  0  0  3  0  0  0  0  0  0
  -28.5700  -22.6500   17.6300 N   0  0  2  0  0  4  0  0  0  0  0  0
  -27.6050  -22.7000   17.9250 H   0  0  0  0  0  0  0  0  0  0  0  0
  -28.8360  -19.0150   20.0780 C   0  0  0  0  0  2  0  0  0  0  0  0
  -30.8250  -17.3710   20.0810 C   0  0  0  0  0  2  0  0  0  0  0  0
  -30.7310  -16.8590   22.4700 C   0  0  0  0  0  2  0  0  0  0  0  0
  -31.3280  -16.3640   21.1400 C   0  0  0  0  0  3  0  0  0  0  0  0
  -30.0520  -18.4550   20.8550 C   0  0  0  0  0  3  0  0  0  0  0  0
  -29.6710  -17.8180   22.1230 N   0  0  0  0  0  4  0  0  0  0  0  0
  -29.5380  -18.4910   22.8610 H   0  0  0  0  0  0  0  0  0  0  0  0
  -28.8110  -17.3080   22.0000 H   0  0  0  0  0  0  0  0  0  0  0  0
  -31.3490  -14.1030   20.0180 C   0  0  0  0  0  0  0  0  0  0  0  0
  -30.8250  -11.9860   18.8650 C   0  0  0  0  0  2  0  0  0  0  0  0
  -29.8470  -12.2490   17.7050 C   0  0  0  0  0  2  0  0  0  0  0  0
  -28.3830  -12.2470   18.1930 C   0  0  0  0  0  2  0  0  0  0  0  0
  -28.1680  -13.1210   19.4560 C   0  0  0  0  0  3  0  0  0  0  0  0
  -29.2430  -12.8080   20.5190 C   0  0  0  0  0  2  0  0  0  0  0  0
  -30.5730  -12.9950   19.9020 N   0  0  0  0  0  0  0  0  0  0  0  0
  -32.3740  -14.3030   19.3660 O   0  0  0  0  0  0  0  0  0  0  0  0
  -30.8750  -14.9950   20.8940 N   0  0  0  0  0  0  0  0  0  0  0  0
  -30.0770  -14.6680   21.4190 H   0  0  0  0  0  0  0  0  0  0  0  0
  -25.8680  -13.9260   20.2900 C   0  0  0  0  0  0  0  0  0  0  0  0
  -24.7540  -13.2480   20.7070 C   0  0  0  0  0  0  0  0  0  0  0  0
  -25.0930  -11.8620   20.6360 C   0  0  0  0  0  0  0  0  0  0  0  0
  -26.8180  -12.9620   19.9940 N   0  0  0  0  0  0  0  0  0  0  0  0
  -26.3560  -11.7130   20.2580 N   0  0  0  0  0  0  0  0  0  0  0  0
  -24.2680  -10.6670   20.8510 C   0  0  0  0  0  0  0  0  0  0  0  0
  -24.6370   -9.6760   21.7870 C   0  0  0  0  0  3  0  0  0  0  0  0
  -23.8160   -8.5470   21.9960 C   0  0  0  0  0  3  0  0  0  0  0  0
  -22.6110   -8.4010   21.2680 C   0  0  0  0  0  0  0  0  0  0  0  0
  -22.2590   -9.3810   20.3240 C   0  0  0  0  0  3  0  0  0  0  0  0
  -23.0780  -10.5030   20.1150 C   0  0  0  0  0  3  0  0  0  0  0  0
  -21.7670   -7.3220   21.3850 O   0  0  0  0  0  0  0  0  0  0  0  0
  -21.6600   -6.6150   22.5560 C   0  0  0  0  0  0  0  0  0  0  0  0
  -21.2900   -7.2350   23.7700 C   0  0  0  0  0  3  0  0  0  0  0  0
  -21.1170   -6.4580   24.9340 C   0  0  0  0  0  3  0  0  0  0  0  0
  -21.3100   -5.0640   24.8860 C   0  0  0  0  0  0  0  0  0  0  0  0
  -21.6810   -4.4470   23.6800 C   0  0  0  0  0  3  0  0  0  0  0  0
  -21.8510   -5.2200   22.5160 C   0  0  0  0  0  0  0  0  0  0  0  0
  -22.1800   -4.6150   21.3500 F   0  0  0  0  0  0  0  0  0  0  0  0
  -21.1420   -4.3160   26.0020 F   0  0  0  0  0  0  0  0  0  0  0  0
  -23.4190  -13.8430   21.0500 C   0  0  0  0  0  0  0  0  0  0  0  0
  -22.6770  -13.2210   21.9620 N   0  0  0  0  0  0  0  0  0  0  0  0
  -23.0380  -14.8930   20.5370 O   0  0  0  0  0  0  0  0  0  0  0  0
  -22.9850  -12.3650   22.4020 H   0  0  0  0  0  0  0  0  0  0  0  0
  -21.7820  -13.6100   22.2170 H   0  0  0  0  0  0  0  0  0  0  0  0
  -26.1430  -15.2790   20.1180 N   0  0  0  0  0  0  0  0  0  0  0  0
  -25.4460  -15.9920   20.3010 H   0  0  0  0  0  0  0  0  0  0  0  0
  -26.9620  -15.6340   19.6450 H   0  0  0  0  0  0  0  0  0  0  0  0
  -28.7810  -23.8270   16.7420 C   0  0  0  0  0  2  0  0  0  0  0  0
  -28.3950  -25.1610   17.4260 C   0  0  0  0  0  2  0  0  0  0  0  0
  -29.5580  -25.9760   18.0320 C   0  0  0  0  0  2  0  0  0  0  0  0
  -29.0590  -27.1850   18.8430 C   0  0  0  0  0  2  0  0  0  0  0  0
  -28.2630  -26.7390   19.9440 O   0  0  0  0  0  0  0  0  0  0  0  0
  -24.5210  -31.8530   23.2170 C   0  0  0  0  0  0  0  0  0  0  0  0
  -27.0930  -27.4400   20.0720 C   0  0  0  0  0  0  0  0  0  0  0  0
  -23.2760  -30.4570   21.5970 C   0  0  0  0  0  3  0  0  0  0  0  0
  -24.6970  -28.9110   20.1560 C   0  0  0  0  0  0  0  0  0  0  0  0
  -25.7940  -30.8150   21.3480 C   0  0  0  0  0  2  0  0  0  0  0  0
  -25.8640  -29.4430   20.7150 C   0  0  0  0  0  0  0  0  0  0  0  0
  -27.0680  -28.7110   20.6780 C   0  0  0  0  0  3  0  0  0  0  0  0
  -25.9060  -26.8920   19.5460 C   0  0  0  0  0  3  0  0  0  0  0  0
  -24.7080  -27.6300   19.5750 C   0  0  0  0  0  3  0  0  0  0  0  0
  -23.4570  -29.7740   20.2150 C   0  0  0  0  0  2  0  0  0  0  0  0
  -24.5490  -31.0570   22.1120 N   0  0  0  0  0  0  0  0  0  0  0  0
  -23.4520  -32.1320   23.7770 O   0  0  0  0  0  0  0  0  0  0  0  0
  -22.6390  -29.4410   22.5710 C   0  0  0  0  0  0  0  0  0  0  0  0
  -21.3240  -29.2120   22.4210 N   0  0  0  0  0  0  0  0  0  0  0  0
  -23.3250  -28.8570   23.4130 O   0  0  0  0  0  0  0  0  0  0  0  0
  -20.8330  -29.7370   21.7120 H   0  0  0  0  0  0  0  0  0  0  0  0
  -18.0010  -27.8510   22.8090 C   0  0  0  0  0  0  0  0  0  0  0  0
  -20.5220  -28.2680   23.1980 C   0  0  0  0  0  3  0  0  0  0  0  0
  -20.7350  -26.8200   22.7030 C   0  0  0  0  0  2  0  0  0  0  0  0
  -19.7080  -26.3840   21.6530 C   0  0  0  0  0  2  0  0  0  0  0  0
  -18.2870  -26.4820   22.2160 C   0  0  0  0  0  2  0  0  0  0  0  0
  -19.0520  -28.6950   23.2560 C   0  0  0  0  0  0  0  0  0  0  0  0
  -18.7330  -29.9720   23.7670 C   0  0  0  0  0  3  0  0  0  0  0  0
  -17.3960  -30.4070   23.8370 C   0  0  0  0  0  3  0  0  0  0  0  0
  -16.3590  -29.5610   23.4080 C   0  0  0  0  0  3  0  0  0  0  0  0
  -16.6620  -28.2850   22.8990 C   0  0  0  0  0  3  0  0  0  0  0  0
  -25.8250  -32.4740   23.8100 C   0  0  0  0  0  3  0  0  0  0  0  0
  -25.5340  -33.8760   24.1400 N   0  0  0  0  0  0  0  0  0  0  0  0
  -25.8590  -34.9210   23.3670 C   0  0  0  0  0  0  0  0  0  0  0  0
  -26.5110  -34.8070   22.3260 O   0  0  0  0  0  0  0  0  0  0  0  0
  -24.9520  -34.0410   24.9480 H   0  0  0  0  0  0  0  0  0  0  0  0
  -24.1320  -36.7180   23.0400 C   0  0  0  0  0  1  0  0  0  0  0  0
  -25.3910  -36.3150   23.8240 C   0  0  0  0  0  3  0  0  0  0  0  0
  -27.5530  -37.1950   24.5910 C   0  0  0  0  0  1  0  0  0  0  0  0
  -26.4250  -37.3620   23.6780 N   0  0  0  0  0  0  0  0  0  0  0  0
  -26.0270  -38.2850   23.8290 H   0  0  0  0  0  0  0  0  0  0  0  0
  -26.3590  -31.7010   25.0780 C   0  0  1  0  0  0  0  0  0  0  0  0
  -25.2780  -31.4620   26.1570 C   0  0  0  0  0  1  0  0  0  0  0  0
  -26.9410  -30.3260   24.6760 C   0  0  0  0  0  1  0  0  0  0  0  0
  -27.5170  -32.4950   25.7300 C   0  0  0  0  0  1  0  0  0  0  0  0
  2  5  1  0
  3  1  1  0
  4  6  1  0
  4  2  1  0
  5  1  1  0
  5  8  1  0
  6  7  1  1
  6  3  1  0
  9 12  1  0
  9 11  1  0
 11 24  1  0
 11 10  1  0
 12  8  1  0
 12 13  1  0
 13 10  1  0
 13 14  1  0
 15 13  1  0
 16 24  1  0
 17 22  1  0
 18 19  1  0
 18 17  1  0
 20 19  1  0
 20 29  1  0
 20 21  1  0
 22 16  1  0
 22 21  1  0
 23 16  2  0
 24 25  1  0
 26 27  2  0
 27 46  1  0
 28 27  1  0
 28 31  1  0
 29 30  1  0
 29 26  1  0
 30 28  2  0
 31 32  1  0
 32 33  2  0
 34 37  1  0
 34 33  1  0
 35 34  2  0
 36 35  1  0
 36 31  2  0
 37 38  1  0
 38 39  1  0
 39 40  2  0
 41 40  1  0
 41 45  1  0
 42 41  2  0
 43 38  2  0
 43 42  1  0
 44 43  1  0
 46 47  1  0
 47 50  1  0
 47 49  1  0
 48 46  2  0
 51 26  1  0
 51 52  1  0
 53 51  1  0
 54 55  1  0
 54  6  1  0
 55 56  1  0
 56 57  1  0
 57 58  1  0
 58 60  1  0
 59 70  2  0
 60 65  1  0
 61 69  1  0
 61 71  1  0
 62 68  1  0
 62 64  1  0
 63 69  1  0
 64 63  1  0
 65 64  2  0
 66 67  1  0
 66 60  2  0
 67 62  2  0
 68 61  1  0
 69 59  1  0
 71 73  2  0
 72 71  1  0
 74 72  1  0
 75 84  2  0
 75 80  1  0
 76 72  1  0
 76 80  1  0
 77 76  1  0
 78 79  1  0
 78 77  1  0
 79 75  1  0
 80 81  2  0
 81 82  1  0
 83 82  2  0
 84 83  1  0
 85 59  1  0
 85 86  1  0
 85 95  1  0
 86 89  1  0
 87 91  1  0
 87 86  1  0
 88 87  2  0
 91 90  1  0
 93 91  1  0
 93 94  1  0
 93 92  1  0
 95 98  1  1
 95 96  1  0
 97 95  1  0
M  ISO  4  16 100  24 100  57 101  58 101
M  END
>  <TORSDO>  (72) 
F 22

>  <SCORE>  (72) 
-12.493

>  <name>  (72) 
72

>  <ligand_id>  (72) 
72

>  <original_smiles>  (72) 
[H]c1c([H])c([H])c2c(c1[H])C([H])([H])C([H])([H])C([H])([H])C2([H])N([H])C(=O)C1([H])N(C(=O)C([H])(N([H])C(=O)C([H])(N([H])C([H])([H])[H])C([H])([H])[H])C(C([H])([H])[H])(C([H])([H])[H])C([H])([H])[H])C([H])([H])c2c([H])c(OC([H])([H])C([H])([H])C([H])([H])C([H])([H])[N+]3([H])C([H])([H])C([H])([H])C([H])(C([H])([H])C4([H])C([H])([H])C([H])(N([H])C(=O)N5C([H])([H])C([H])([H])C([H])([H])C([H])(n6nc(-c7c([H])c([H])c(Oc8c([H])c([H])c(F)c([H])c8F)c([H])c7[H])c(C(=O)N([H])[H])c6N([H])[H])C5([H])[H])C([H])([H])[N+]4([H])[H])C([H])([H])C3([H])[H])c([H])c([H])c2C1([H])[H]

>  <smiles>  (72) 
[H]c1c([H])c([H])c2c(c1[H])C([H])([H])C([H])([H])C([H])([H])C2([H])N([H])C(=O)C1([H])N(C(=O)C([H])(N([H])C(=O)C([H])(N([H])C([H])([H])[H])C([H])([H])[H])C(C([H])([H])[H])(C([H])([H])[H])C([H])([H])[H])C([H])([H])c2c([H])c(OC([H])([H])C([H])([H])C([H])([H])C([H])([H])[N+]3([H])C([H])([H])C([H])([H])C([H])(C([H])([H])C4([H])C([H])([H])C([H])(N([H])C(=O)N5C([H])([H])C([H])([H])C([H])([H])C([H])(n6nc(-c7c([H])c([H])c(Oc8c([H])c([H])c(F)c([H])c8F)c([H])c7[H])c(C(=O)N([H])[H])c6N([H])[H])C5([H])[H])C([H])([H])[N+]4([H])[H])C([H])([H])C3([H])[H])c([H])c([H])c2C1([H])[H]

$$$$
73:0:0
     RDKit          3D

100103  0  0  1  0  0  0  0  0999 V2000
  -29.1800  -19.3710   19.9410 N   0  0  0  0  0  0  0  0  0  0  0  0
  -31.8030  -17.0880   21.3650 C   0  0  0  0  0 15  0  0  0  0  0  0
  -32.9410  -15.4430   19.8650 C   0  0  0  0  0 15  0  0  0  0  0  0
  -30.0420  -16.3930   18.0620 C   0  0  0  0  0 15  0  0  0  0  0  0
  -29.8250  -17.7790   20.0410 C   0  0  0  0  0  1  0  0  0  0  0  0
  -31.7670  -15.2140   18.1240 N   0  0  0  0  0  2  0  0  0  0  0  0
  -31.5840  -14.2450   17.9200 H   0  0  0  0  0  0  0  0  0  0  0  0
  -32.3480  -15.5480   17.3740 H   0  0  0  0  0  0  0  0  0  0  0  0
  -28.2560  -19.4730   18.7830 C   0  0  0  0  0  2  0  0  0  0  0  0
  -28.5490  -20.6020   17.7320 C   0  0  0  0  0  3  0  0  0  0  0  0
  -29.9240  -20.7540   16.9900 C   0  0  0  0  0  3  0  0  0  0  0  0
  -30.7470  -15.6170   20.3000 C   0  0  0  0  0  2  0  0  0  0  0  0
  -30.4430  -13.0930   19.3390 C   0  0  0  0  0  2  0  0  0  0  0  0
  -29.5330  -12.7460   18.1390 C   0  0  0  0  0  2  0  0  0  0  0  0
  -28.1050  -12.4800   18.6360 C   0  0  0  0  0  2  0  0  0  0  0  0
  -27.6360  -13.5170   19.6770 C   0  0  0  0  0  3  0  0  0  0  0  0
  -28.7530  -13.8890   20.7020 C   0  0  0  0  0  2  0  0  0  0  0  0
  -29.9460  -14.4240   19.9190 N   0  0  0  0  0  0  0  0  0  0  0  0
  -31.1630  -15.0010   21.2880 O   0  0  0  0  0  1  0  0  0  0  0  0
  -31.9740  -19.3090   16.2170 C   0  0  0  0  0  2  0  0  0  0  0  0
  -32.6150  -17.9430   16.5450 C   0  0  0  0  0  2  0  0  0  0  0  0
  -31.8800  -20.0900   18.5180 C   0  0  0  0  0  3  0  0  0  0  0  0
  -32.2980  -18.9120   19.4510 C   0  0  0  0  0  3  0  0  0  0  0  0
  -31.0140  -19.7240   17.3150 C   0  0  0  0  0  3  0  0  0  0  0  0
  -33.0570  -17.5580   18.0090 C   0  0  0  0  0  3  0  0  0  0  0  0
  -31.8920  -17.3490   19.1690 N   0  0  0  0  0  2  0  0  0  0  0  0
  -25.2530  -14.0410   20.4690 C   0  0  0  0  0  0  0  0  0  0  0  0
  -24.1900  -13.2550   20.8220 C   0  0  0  0  0  0  0  0  0  0  0  0
  -24.6710  -11.9100   20.8050 C   0  0  0  0  0  0  0  0  0  0  0  0
  -26.3210  -13.1840   20.2480 N   0  0  0  0  0  0  0  0  0  0  0  0
  -25.9730  -11.8930   20.5180 N   0  0  0  0  0  0  0  0  0  0  0  0
  -23.9440  -10.6400   20.9870 C   0  0  0  0  0  0  0  0  0  0  0  0
  -24.3500   -9.6870   21.9470 C   0  0  0  0  0  3  0  0  0  0  0  0
  -23.6210   -8.4900   22.1210 C   0  0  0  0  0  3  0  0  0  0  0  0
  -22.4730   -8.2330   21.3350 C   0  0  0  0  0  0  0  0  0  0  0  0
  -22.0900   -9.1720   20.3610 C   0  0  0  0  0  3  0  0  0  0  0  0
  -22.8170  -10.3620   20.1850 C   0  0  0  0  0  3  0  0  0  0  0  0
  -21.7230   -7.0850   21.4140 O   0  0  0  0  0  0  0  0  0  0  0  0
  -21.6290   -6.3640   22.5800 C   0  0  0  0  0  0  0  0  0  0  0  0
  -21.1330   -6.9390   23.7710 C   0  0  0  0  0  3  0  0  0  0  0  0
  -20.9850   -6.1470   24.9270 C   0  0  0  0  0  3  0  0  0  0  0  0
  -21.3240   -4.7820   24.8960 C   0  0  0  0  0  0  0  0  0  0  0  0
  -21.8140   -4.2060   23.7110 C   0  0  0  0  0  3  0  0  0  0  0  0
  -21.9620   -4.9940   22.5560 C   0  0  0  0  0  0  0  0  0  0  0  0
  -22.4130   -4.4290   21.4110 F   0  0  0  0  0  0  0  0  0  0  0  0
  -21.1760   -4.0180   26.0050 F   0  0  0  0  0  0  0  0  0  0  0  0
  -22.7780  -13.7160   21.0550 C   0  0  0  0  0  0  0  0  0  0  0  0
  -22.0380  -13.0140   21.9060 N   0  0  0  0  0  0  0  0  0  0  0  0
  -22.3390  -14.7340   20.5200 O   0  0  0  0  0  0  0  0  0  0  0  0
  -22.4060  -12.1890   22.3610 H   0  0  0  0  0  0  0  0  0  0  0  0
  -21.0900  -13.2980   22.1050 H   0  0  0  0  0  0  0  0  0  0  0  0
  -25.3960  -15.4110   20.2810 N   0  0  0  0  0  0  0  0  0  0  0  0
  -24.6170  -16.0520   20.3920 H   0  0  0  0  0  0  0  0  0  0  0  0
  -26.2540  -15.8690   20.0080 H   0  0  0  0  0  0  0  0  0  0  0  0
  -35.1790  -19.2650   17.9400 C   0  0  0  0  0  1  0  0  0  0  0  0
  -34.5870  -17.9100   18.3720 C   0  0  0  0  0  2  0  0  0  0  0  0
  -29.0740  -20.8500   20.7210 C   0  0  0  0  0  2  0  0  0  0  0  0
  -29.0810  -22.6620   20.3010 C   0  0  0  0  0  3  0  0  0  0  0  0
  -28.0350  -24.1600   20.5330 C   0  0  0  0  0  3  0  0  0  0  0  0
  -28.2200  -25.8260   20.4210 O   0  0  0  0  0  0  0  0  0  0  0  0
  -24.6150  -31.9070   23.2320 C   0  0  0  0  0  0  0  0  0  0  0  0
  -27.1870  -26.9260   20.3600 C   0  0  0  0  0  0  0  0  0  0  0  0
  -23.4310  -30.4870   21.6080 C   0  0  0  0  0  3  0  0  0  0  0  0
  -24.8880  -28.8350   20.2360 C   0  0  0  0  0  0  0  0  0  0  0  0
  -26.0000  -30.6730   21.4830 C   0  0  0  0  0  2  0  0  0  0  0  0
  -26.0740  -29.2420   20.8620 C   0  0  0  0  0  0  0  0  0  0  0  0
  -27.2120  -28.3160   20.8900 C   0  0  0  0  0  3  0  0  0  0  0  0
  -25.9660  -26.6710   19.6890 C   0  0  0  0  0  3  0  0  0  0  0  0
  -24.8640  -27.5690   19.6270 C   0  0  0  0  0  3  0  0  0  0  0  0
  -23.6720  -29.7700   20.2490 C   0  0  0  0  0  2  0  0  0  0  0  0
  -24.7020  -31.0500   22.1610 N   0  0  0  0  0  0  0  0  0  0  0  0
  -23.5200  -32.2130   23.7360 O   0  0  0  0  0  0  0  0  0  0  0  0
  -22.7140  -29.5200   22.5890 C   0  0  0  0  0  0  0  0  0  0  0  0
  -21.3840  -29.3640   22.4560 N   0  0  0  0  0  0  0  0  0  0  0  0
  -23.3670  -28.9060   23.4350 O   0  0  0  0  0  0  0  0  0  0  0  0
  -20.9110  -29.9110   21.7510 H   0  0  0  0  0  0  0  0  0  0  0  0
  -17.9840  -28.2000   22.9720 C   0  0  0  0  0  0  0  0  0  0  0  0
  -20.5480  -28.4480   23.2380 C   0  0  0  0  0  3  0  0  0  0  0  0
  -20.6370  -27.0070   22.6880 C   0  0  0  0  0  2  0  0  0  0  0  0
  -19.5370  -26.6800   21.6730 C   0  0  0  0  0  2  0  0  0  0  0  0
  -18.1540  -26.8410   22.3100 C   0  0  0  0  0  2  0  0  0  0  0  0
  -19.1090  -28.9620   23.3930 C   0  0  0  0  0  0  0  0  0  0  0  0
  -18.8960  -30.2290   23.9770 C   0  0  0  0  0  3  0  0  0  0  0  0
  -17.5940  -30.7380   24.1410 C   0  0  0  0  0  3  0  0  0  0  0  0
  -16.4860  -29.9770   23.7330 C   0  0  0  0  0  3  0  0  0  0  0  0
  -16.6810  -28.7100   23.1540 C   0  0  0  0  0  3  0  0  0  0  0  0
  -25.8820  -32.5560   23.8660 C   0  0  0  0  0  3  0  0  0  0  0  0
  -25.5620  -33.9610   24.1820 N   0  0  0  0  0  0  0  0  0  0  0  0
  -25.9030  -35.0140   23.4280 C   0  0  0  0  0  0  0  0  0  0  0  0
  -26.5820  -34.9080   22.4040 O   0  0  0  0  0  0  0  0  0  0  0  0
  -24.9560  -34.1160   24.9730 H   0  0  0  0  0  0  0  0  0  0  0  0
  -24.1860  -36.8250   23.0610 C   0  0  0  0  0  1  0  0  0  0  0  0
  -25.4190  -36.4090   23.8810 C   0  0  0  0  0  3  0  0  0  0  0  0
  -27.5520  -37.2930   24.7260 C   0  0  0  0  0  1  0  0  0  0  0  0
  -26.4570  -37.4610   23.7740 N   0  0  0  0  0  0  0  0  0  0  0  0
  -26.0510  -38.3820   23.9150 H   0  0  0  0  0  0  0  0  0  0  0  0
  -26.3710  -31.8100   25.1690 C   0  0  1  0  0  0  0  0  0  0  0  0
  -25.2620  -31.6000   26.2260 C   0  0  0  0  0  1  0  0  0  0  0  0
  -26.9550  -30.4210   24.8250 C   0  0  0  0  0  1  0  0  0  0  0  0
  -27.5140  -32.6120   25.8340 C   0  0  0  0  0  1  0  0  0  0  0  0
  1  5  1  0
  1 57  1  0
  7  6  1  0
  8  6  1  0
  9  1  1  0
 10  9  1  0
 11 10  2  0
 12 19  1  0
 13 18  1  0
 14 15  1  0
 14 13  1  0
 16 15  1  0
 16 30  1  0
 16 17  1  0
 18 12  1  0
 18 17  1  0
 20 21  1  0
 20 24  1  0
 21 25  1  0
 22 23  2  0
 24 11  1  0
 24 22  1  0
 25 56  1  0
 25 26  1  0
 26 23  1  0
 27 28  2  0
 28 47  1  0
 29 28  1  0
 29 32  1  0
 30 27  1  0
 30 31  1  0
 31 29  2  0
 32 33  1  0
 33 34  2  0
 35 38  1  0
 35 34  1  0
 36 35  2  0
 37 36  1  0
 37 32  2  0
 38 39  1  0
 39 40  1  0
 40 41  2  0
 42 41  1  0
 42 46  1  0
 43 42  2  0
 44 39  2  0
 44 43  1  0
 45 44  1  0
 47 48  1  0
 48 51  1  0
 48 50  1  0
 49 47  2  0
 52 53  1  0
 52 27  1  0
 54 52  1  0
 55 56  1  0
 58 59  2  0
 58 57  1  0
 60 59  1  0
 61 72  2  0
 62 60  1  0
 62 67  1  0
 63 71  1  0
 63 73  1  0
 64 70  1  0
 64 66  1  0
 65 71  1  0
 66 67  2  0
 66 65  1  0
 68 62  2  0
 69 68  1  0
 69 64  2  0
 70 63  1  0
 71 61  1  0
 73 75  2  0
 74 73  1  0
 76 74  1  0
 77 86  2  0
 77 82  1  0
 78 74  1  0
 78 82  1  0
 79 78  1  0
 80 81  1  0
 80 79  1  0
 81 77  1  0
 82 83  2  0
 83 84  1  0
 85 84  2  0
 86 85  1  0
 87 61  1  0
 87 88  1  0
 87 97  1  0
 88 91  1  0
 89 93  1  0
 89 88  1  0
 90 89  2  0
 93 92  1  0
 95 93  1  0
 95 96  1  0
 95 94  1  0
 97100  1  1
 97 98  1  0
 99 97  1  0
M  ISO  4  12 100  26 100  59 101  60 101
M  END
>  <TORSDO>  (73) 
F 24

>  <SCORE>  (73) 
-14.206

>  <name>  (73) 
73

>  <ligand_id>  (73) 
73

>  <original_smiles>  (73) 
[H]c1c([H])c([H])c2c(c1[H])C([H])([H])C([H])([H])C([H])([H])C2([H])N([H])C(=O)C1([H])N(C(=O)C([H])(N([H])C(=O)C([H])(N([H])C([H])([H])[H])C([H])([H])[H])C(C([H])([H])[H])(C([H])([H])[H])C([H])([H])[H])C([H])([H])c2c([H])c(OC([H])([H])C([H])([H])C([H])([H])N(C([H])([H])C([H])([H])C([H])([H])C3([H])C([H])([H])C([H])([H])N(C(=O)N4C([H])([H])C([H])([H])C([H])([H])C([H])(n5nc(-c6c([H])c([H])c(Oc7c([H])c([H])c(F)c([H])c7F)c([H])c6[H])c(C(=O)N([H])[H])c5N([H])[H])C4([H])[H])C([H])(C([H])([H])C([H])([H])[H])C([H])([H])C3([H])[H])C3([H])C([H])([H])C([H])([H])[N+]([H])([H])C3([H])[H])c([H])c([H])c2C1([H])[H]

>  <smiles>  (73) 
[H]c1c([H])c([H])c2c(c1[H])C([H])([H])C([H])([H])C([H])([H])C2([H])N([H])C(=O)C1([H])N(C(=O)C([H])(N([H])C(=O)C([H])(N([H])C([H])([H])[H])C([H])([H])[H])C(C([H])([H])[H])(C([H])([H])[H])C([H])([H])[H])C([H])([H])c2c([H])c(OC([H])([H])C([H])([H])C([H])([H])N(C([H])([H])C([H])([H])C([H])([H])C3([H])C([H])([H])C([H])([H])N(C(=O)N4C([H])([H])C([H])([H])C([H])([H])C([H])(n5nc(-c6c([H])c([H])c(Oc7c([H])c([H])c(F)c([H])c7F)c([H])c6[H])c(C(=O)N([H])[H])c5N([H])[H])C4([H])[H])C([H])(C([H])([H])C([H])([H])[H])C([H])([H])C3([H])[H])C3([H])C([H])([H])C([H])([H])[N+]([H])([H])C3([H])[H])c([H])c([H])c2C1([H])[H]

$$$$
74:0:0
     RDKit          3D

 98 96  0  0  1  0  0  0  0  0999 V2000
  -20.5170  -27.4040   20.5400 C   0  0  0  0  0  2  0  0  0  0  0  0
  -19.5790  -24.4300   20.9340 C   0  0  0  0  0  2  0  0  0  0  0  0
  -19.7150  -28.5020   20.4470 C   0  0  0  0  0  1  0  0  0  0  0  0
  -19.9400  -25.5650   21.5630 C   0  0  0  0  0  2  0  0  0  0  0  0
  -20.6430  -25.1710   20.5830 C   0  0  0  0  0  2  0  0  0  0  0  0
  -20.1830  -27.5940   21.3280 C   0  0  0  0  0  3  0  0  0  0  0  0
  -21.8700  -23.5900   19.6860 C   0  0  0  0  0  2  0  0  0  0  0  0
  -21.0350  -22.7390   19.2640 N   0  0  0  0  0  0  0  0  0  0  0  0
  -20.0850  -23.0420   19.4640 H   0  0  0  0  0  0  0  0  0  0  0  0
  -23.7420  -22.5020   19.0790 C   0  0  0  0  0 15  0  0  0  0  0  0
  -24.9050  -20.5650   18.7250 C   0  0  0  0  0 15  0  0  0  0  0  0
  -26.8200  -19.3170   18.6640 C   0  0  0  0  0 15  0  0  0  0  0  0
  -29.3320  -16.6160   19.1650 C   0  0  0  0  0  0  0  0  0  0  0  0
  -30.6370  -14.0670   19.0860 C   0  0  0  0  0  2  0  0  0  0  0  0
  -30.0790  -12.9300   18.1430 C   0  0  0  0  0  2  0  0  0  0  0  0
  -28.7270  -12.4050   18.6510 C   0  0  0  0  0  2  0  0  0  0  0  0
  -27.9670  -13.5860   19.2710 C   0  0  0  0  0  3  0  0  0  0  0  0
  -28.7360  -14.3440   20.3410 C   0  0  0  0  0  2  0  0  0  0  0  0
  -29.5630  -15.1590   19.5070 N   0  0  0  0  0  0  0  0  0  0  0  0
  -30.5660  -16.8520   18.8920 O   0  0  0  0  0  0  0  0  0  0  0  0
  -27.9050  -17.6190   19.0540 N   0  0  0  0  0  2  0  0  0  0  0  0
  -27.1910  -16.9570   19.3510 H   0  0  0  0  0  0  0  0  0  0  0  0
  -25.7770  -14.2760   20.1890 C   0  0  0  0  0  0  0  0  0  0  0  0
  -24.7080  -13.5590   20.6210 C   0  0  0  0  0  0  0  0  0  0  0  0
  -25.0790  -12.1830   20.5020 C   0  0  0  0  0  0  0  0  0  0  0  0
  -26.6890  -13.3220   19.7990 N   0  0  0  0  0  0  0  0  0  0  0  0
  -26.3220  -12.0600   20.0760 N   0  0  0  0  0  0  0  0  0  0  0  0
  -24.2990  -10.9700   20.6910 C   0  0  0  0  0  0  0  0  0  0  0  0
  -24.6940   -9.9730   21.6070 C   0  0  0  0  0  3  0  0  0  0  0  0
  -23.9040   -8.8180   21.7740 C   0  0  0  0  0  3  0  0  0  0  0  0
  -22.7150   -8.6590   21.0240 C   0  0  0  0  0  0  0  0  0  0  0  0
  -22.3480   -9.6430   20.0910 C   0  0  0  0  0  3  0  0  0  0  0  0
  -23.1360  -10.7910   19.9210 C   0  0  0  0  0  3  0  0  0  0  0  0
  -21.8950   -7.5620   21.1060 O   0  0  0  0  0  0  0  0  0  0  0  0
  -21.7360   -6.8750   22.2810 C   0  0  0  0  0  0  0  0  0  0  0  0
  -21.2500   -7.4990   23.4500 C   0  0  0  0  0  3  0  0  0  0  0  0
  -21.0340   -6.7370   24.6160 C   0  0  0  0  0  3  0  0  0  0  0  0
  -21.2970   -5.3530   24.6110 C   0  0  0  0  0  0  0  0  0  0  0  0
  -21.7770   -4.7310   23.4450 C   0  0  0  0  0  3  0  0  0  0  0  0
  -21.9930   -5.4900   22.2830 C   0  0  0  0  0  0  0  0  0  0  0  0
  -22.4370   -4.8840   21.1550 F   0  0  0  0  0  0  0  0  0  0  0  0
  -21.0820   -4.6180   25.7270 F   0  0  0  0  0  0  0  0  0  0  0  0
  -23.3790  -14.1260   20.9990 C   0  0  0  0  0  0  0  0  0  0  0  0
  -22.6820  -13.4750   21.9200 N   0  0  0  0  0  0  0  0  0  0  0  0
  -22.9790  -15.1810   20.5070 O   0  0  0  0  0  0  0  0  0  0  0  0
  -23.0310  -12.6240   22.3350 H   0  0  0  0  0  0  0  0  0  0  0  0
  -21.7870  -13.8350   22.2190 H   0  0  0  0  0  0  0  0  0  0  0  0
  -26.0420  -15.6410   20.0600 N   0  0  0  0  0  0  0  0  0  0  0  0
  -25.2360  -16.2450   20.1830 H   0  0  0  0  0  0  0  0  0  0  0  0
  -26.5930  -15.9270   19.2600 H   0  0  0  0  0  0  0  0  0  0  0  0
  -20.7790  -28.7850   22.7460 C   0  0  0  0  0  1  0  0  0  0  0  0
  -21.7930  -28.2370   24.1390 N   0  0  0  0  0  4  0  0  0  0  0  0
  -21.0860  -27.8990   24.7730 H   0  0  0  0  0  0  0  0  0  0  0  0
  -22.1310  -29.0930   24.5610 H   0  0  0  0  0  0  0  0  0  0  0  0
  -23.1220  -27.0740   24.4100 C   0  0  0  0  0  2  0  0  0  0  0  0
  -24.5220  -26.2340   23.3200 C   0  0  0  0  0  2  0  0  0  0  0  0
  -25.9030  -26.7010   22.1520 C   0  0  0  0  0  2  0  0  0  0  0  0
  -26.5860  -26.5180   20.6510 O   0  0  0  0  0  0  0  0  0  0  0  0
  -24.5600  -31.1120   23.5200 C   0  0  0  0  0  0  0  0  0  0  0  0
  -26.8300  -27.5870   19.8010 C   0  0  0  0  0  0  0  0  0  0  0  0
  -23.5580  -30.4790   21.2700 C   0  0  0  0  0  3  0  0  0  0  0  0
  -25.0720  -29.6200   19.4970 C   0  0  0  0  0  0  0  0  0  0  0  0
  -26.0520  -30.8260   21.5080 C   0  0  0  0  0  2  0  0  0  0  0  0
  -26.1330  -29.7600   20.4140 C   0  0  0  0  0  0  0  0  0  0  0  0
  -27.1360  -28.7860   20.4500 C   0  0  0  0  0  3  0  0  0  0  0  0
  -26.0280  -27.5690   18.6440 C   0  0  0  0  0  3  0  0  0  0  0  0
  -25.0620  -28.5810   18.5450 C   0  0  0  0  0  3  0  0  0  0  0  0
  -23.8630  -30.4900   19.7640 C   0  0  0  0  0  2  0  0  0  0  0  0
  -24.7190  -30.9600   22.1460 N   0  0  0  0  0  0  0  0  0  0  0  0
  -23.4240  -31.0950   24.0280 O   0  0  0  0  0  0  0  0  0  0  0  0
  -23.4110  -28.9960   21.5810 C   0  0  0  0  0  0  0  0  0  0  0  0
  -22.6190  -28.0340   21.0650 N   0  0  0  0  0  0  0  0  0  0  0  0
  -24.0950  -28.7140   22.4780 O   0  0  0  0  0  0  0  0  0  0  0  0
  -22.3430  -28.2650   20.1200 H   0  0  0  0  0  0  0  0  0  0  0  0
  -17.8640  -27.2060   21.4220 C   0  0  0  0  0  3  0  0  0  0  0  0
  -21.6720  -26.8280   21.6020 C   0  0  0  0  0  2  0  0  0  0  0  0
  -22.1530  -26.5190   19.3270 C   0  0  0  0  0 15  0  0  0  0  0  0
  -19.8910  -26.3160   17.9790 C   0  0  0  0  0 15  0  0  0  0  0  0
  -18.0140  -26.6090   19.3810 C   0  0  0  0  0 15  0  0  0  0  0  0
  -19.2360  -27.2600   22.6150 C   0  0  0  0  0  0  0  0  0  0  0  0
  -18.7980  -28.2760   23.6260 C   0  0  0  0  0  3  0  0  0  0  0  0
  -17.6870  -29.1930   23.5730 C   0  0  0  0  0  3  0  0  0  0  0  0
  -16.6670  -29.0920   22.6200 C   0  0  0  0  0  3  0  0  0  0  0  0
  -16.7520  -28.1020   21.6180 C   0  0  0  0  0  3  0  0  0  0  0  0
  -25.7770  -31.2360   24.5060 C   0  0  0  0  0  3  0  0  0  0  0  0
  -25.8400  -30.2580   25.7580 C   0  0  1  0  0  0  0  0  0  0  0  0
  -24.5530  -30.2270   26.6110 C   0  0  0  0  0  1  0  0  0  0  0  0
  -26.1430  -28.8150   25.3500 C   0  0  0  0  0  1  0  0  0  0  0  0
  -26.9930  -30.6840   26.6990 C   0  0  0  0  0  1  0  0  0  0  0  0
  -25.7480  -32.6120   24.9880 N   0  0  0  0  0  0  0  0  0  0  0  0
  -26.4660  -33.5960   24.4470 C   0  0  0  0  0  0  0  0  0  0  0  0
  -27.2690  -33.4130   23.5270 O   0  0  0  0  0  0  0  0  0  0  0  0
  -25.0710  -32.8400   25.7030 H   0  0  0  0  0  0  0  0  0  0  0  0
  -25.3740  -35.8170   24.0440 C   0  0  0  0  0  1  0  0  0  0  0  0
  -26.2520  -35.0080   25.0120 C   0  0  0  0  0  3  0  0  0  0  0  0
  -28.2840  -35.1420   26.3770 C   0  0  0  0  0  1  0  0  0  0  0  0
  -27.5160  -35.7250   25.2780 N   0  0  0  0  0  0  0  0  0  0  0  0
  -27.3360  -36.7000   25.5030 H   0  0  0  0  0  0  0  0  0  0  0  0
  1  6  1  0
  1 76  1  0
  2  4  1  0
  5  2  1  0
  5  4  1  0
  6  3  1  0
  6 80  1  0
  8  9  1  0
  8  7  2  0
 13 19  1  0
 14 19  1  0
 15 16  1  0
 15 14  1  0
 17 16  1  0
 17 26  1  0
 17 18  1  0
 19 18  1  0
 20 13  2  0
 21 13  1  0
 21 22  1  0
 23 24  2  0
 24 43  1  0
 25 24  1  0
 25 28  1  0
 26 27  1  0
 26 23  1  0
 27 25  2  0
 28 29  1  0
 29 30  2  0
 31 34  1  0
 31 30  1  0
 32 31  2  0
 33 32  1  0
 33 28  2  0
 34 35  1  0
 35 40  2  0
 35 36  1  0
 36 37  2  0
 38 37  1  0
 38 42  1  0
 39 38  2  0
 40 39  1  0
 41 40  1  0
 43 44  1  0
 44 47  1  0
 44 46  1  0
 45 43  2  0
 48 49  1  0
 48 23  1  0
 50 48  1  0
 51 52  1  0
 52 55  1  0
 52 54  1  0
 52 53  1  0
 56 55  1  0
 57 56  1  0
 58 57  1  0
 59 70  2  0
 60 65  1  0
 60 58  1  0
 61 71  1  0
 61 69  1  0
 62 68  1  0
 62 64  1  0
 63 69  1  0
 64 65  2  0
 64 63  1  0
 66 60  2  0
 67 66  1  0
 67 62  2  0
 68 61  1  0
 69 59  1  0
 71 73  2  0
 72 71  1  0
 72 76  1  0
 74 72  1  0
 75 84  2  0
 75 80  1  0
 80 81  2  3
 82 81  1  0
 83 82  2  0
 84 83  1  0
 85 59  1  0
 85 90  1  0
 85 86  1  0
 86 87  1  1
 86 89  1  0
 88 86  1  0
 90 93  1  0
 91 90  1  0
 91 95  1  0
 92 91  2  0
 95 94  1  0
 95 97  1  0
 97 98  1  0
 97 96  1  0
M  ISO  4  13 100  21 100  57 101  58 101
M  END
>  <TORSDO>  (74) 
F 25

>  <SCORE>  (74) 
-12.535

>  <name>  (74) 
74

>  <ligand_id>  (74) 
74

>  <original_smiles>  (74) 
[H]N=C(c1c([H])c([H])c(C([H])([H])[N+]([H])([H])C([H])([H])C([H])([H])C([H])([H])Oc2c([H])c([H])c3c(c2[H])C([H])([H])N(C(=O)C([H])(N([H])C(=O)C([H])(N([H])C([H])([H])[H])C([H])([H])[H])C(C([H])([H])[H])(C([H])([H])[H])C([H])([H])[H])C([H])(C(=O)N([H])C2([H])c4c([H])c([H])c([H])c([H])c4C([H])([H])C([H])([H])C2([H])[H])C3([H])[H])c([H])c1[H])C([H])([H])C([H])([H])C([H])([H])N([H])C(=O)N1C([H])([H])C([H])([H])C([H])([H])C([H])(n2nc(-c3c([H])c([H])c(Oc4c([H])c([H])c(F)c([H])c4F)c([H])c3[H])c(C(=O)N([H])[H])c2N([H])[H])C1([H])[H]

>  <smiles>  (74) 
[H]N=C(c1c([H])c([H])c(C([H])([H])[N+]([H])([H])C([H])([H])C([H])([H])C([H])([H])Oc2c([H])c([H])c3c(c2[H])C([H])([H])N(C(=O)C([H])(N([H])C(=O)C([H])(N([H])C([H])([H])[H])C([H])([H])[H])C(C([H])([H])[H])(C([H])([H])[H])C([H])([H])[H])C([H])(C(=O)N([H])C2([H])c4c([H])c([H])c([H])c([H])c4C([H])([H])C([H])([H])C2([H])[H])C3([H])[H])c([H])c1[H])C([H])([H])C([H])([H])C([H])([H])N([H])C(=O)N1C([H])([H])C([H])([H])C([H])([H])C([H])(n2nc(-c3c([H])c([H])c(Oc4c([H])c([H])c(F)c([H])c4F)c([H])c3[H])c(C(=O)N([H])[H])c2N([H])[H])C1([H])[H]

$$$$
75:0:0
     RDKit          3D

 96104  0  0  1  0  0  0  0  0999 V2000
  -31.6970  -18.7430   17.8460 N   0  0  0  0  0  4  0  0  0  0  0  0
  -31.8870  -18.5760   18.8180 H   0  0  0  0  0  0  0  0  0  0  0  0
  -30.8490  -18.2580   17.6060 H   0  0  0  0  0  0  0  0  0  0  0  0
  -32.8040  -18.1640   17.0550 C   0  0  0  0  0  2  0  0  0  0  0  0
  -32.7890  -14.4000   16.2720 C   0  0  0  0  0  3  0  0  0  0  0  0
  -33.1480  -13.8460   17.5170 C   0  0  0  0  0  3  0  0  0  0  0  0
  -32.6640  -15.7950   16.1300 C   0  0  0  0  0  3  0  0  0  0  0  0
  -33.3150  -16.0890   18.4610 C   0  0  0  0  0  3  0  0  0  0  0  0
  -33.3880  -14.6860   18.6220 C   0  0  0  0  0  0  0  0  0  0  0  0
  -32.9290  -16.6500   17.2210 C   0  0  0  0  0  0  0  0  0  0  0  0
  -33.5630  -14.0750   20.0170 C   0  0  0  0  0  2  0  0  0  0  0  0
  -31.1200  -13.9610   20.4330 C   0  0  0  0  0  0  0  0  0  0  0  0
  -30.2400  -12.0820   19.2520 C   0  0  0  0  0  2  0  0  0  0  0  0
  -29.3690  -12.5550   18.0880 C   0  0  0  0  0  2  0  0  0  0  0  0
  -27.9060  -12.4850   18.5220 C   0  0  0  0  0  2  0  0  0  0  0  0
  -27.6420  -13.2780   19.8280 C   0  0  0  0  0  3  0  0  0  0  0  0
  -28.7470  -13.0720   20.9150 C   0  0  0  0  0  2  0  0  0  0  0  0
  -30.1210  -13.0470   20.3500 N   0  0  0  0  0  0  0  0  0  0  0  0
  -31.0340  -15.1650   20.3130 O   0  0  0  0  0  0  0  0  0  0  0  0
  -32.3420  -13.4130   20.4960 N   0  0  0  0  0  0  0  0  0  0  0  0
  -32.3860  -12.4130   20.6360 H   0  0  0  0  0  0  0  0  0  0  0  0
  -25.2240  -13.8680   20.5280 C   0  0  0  0  0  0  0  0  0  0  0  0
  -24.1520  -13.0950   20.8910 C   0  0  0  0  0  0  0  0  0  0  0  0
  -24.6140  -11.7430   20.8680 C   0  0  0  0  0  0  0  0  0  0  0  0
  -26.2820  -12.9950   20.3210 N   0  0  0  0  0  0  0  0  0  0  0  0
  -25.9120  -11.7090   20.5780 N   0  0  0  0  0  0  0  0  0  0  0  0
  -23.8820  -10.4800   21.0550 C   0  0  0  0  0  0  0  0  0  0  0  0
  -24.3140   -9.5080   21.9850 C   0  0  0  0  0  3  0  0  0  0  0  0
  -23.5840   -8.3120   22.1670 C   0  0  0  0  0  3  0  0  0  0  0  0
  -22.4060   -8.0780   21.4170 C   0  0  0  0  0  0  0  0  0  0  0  0
  -21.9910   -9.0380   20.4780 C   0  0  0  0  0  3  0  0  0  0  0  0
  -22.7220  -10.2250   20.2950 C   0  0  0  0  0  3  0  0  0  0  0  0
  -21.6480   -6.9340   21.5070 O   0  0  0  0  0  0  0  0  0  0  0  0
  -21.6140   -6.1790   22.6520 C   0  0  0  0  0  0  0  0  0  0  0  0
  -21.2270   -6.7240   23.8950 C   0  0  0  0  0  3  0  0  0  0  0  0
  -21.1420   -5.8960   25.0320 C   0  0  0  0  0  3  0  0  0  0  0  0
  -21.4310   -4.5230   24.9270 C   0  0  0  0  0  0  0  0  0  0  0  0
  -21.8110   -3.9760   23.6900 C   0  0  0  0  0  3  0  0  0  0  0  0
  -21.9000   -4.8010   22.5550 C   0  0  0  0  0  0  0  0  0  0  0  0
  -22.2470   -4.2640   21.3600 F   0  0  0  0  0  0  0  0  0  0  0  0
  -21.3410   -3.7250   26.0180 F   0  0  0  0  0  0  0  0  0  0  0  0
  -22.7520  -13.5710   21.1530 C   0  0  0  0  0  0  0  0  0  0  0  0
  -22.0240  -12.8740   22.0170 N   0  0  0  0  0  0  0  0  0  0  0  0
  -22.3110  -14.5920   20.6280 O   0  0  0  0  0  0  0  0  0  0  0  0
  -22.3990  -12.0510   22.4640 H   0  0  0  0  0  0  0  0  0  0  0  0
  -21.0810  -13.1660   22.2360 H   0  0  0  0  0  0  0  0  0  0  0  0
  -25.3830  -15.2380   20.3420 N   0  0  0  0  0  0  0  0  0  0  0  0
  -24.6190  -15.8990   20.4450 H   0  0  0  0  0  0  0  0  0  0  0  0
  -26.2540  -15.6780   20.0650 H   0  0  0  0  0  0  0  0  0  0  0  0
  -31.5210  -20.1990   17.6200 C   0  0  0  0  0  2  0  0  0  0  0  0
  -30.4750  -20.8600   18.5500 C   0  0  0  0  0  2  0  0  0  0  0  0
  -30.3900  -22.3930   18.3480 C   0  0  0  0  0  2  0  0  0  0  0  0
  -29.3870  -23.0950   19.2910 C   0  0  0  0  0  2  0  0  0  0  0  0
  -29.3950  -24.6430   19.2080 C   0  0  0  0  0  2  0  0  0  0  0  0
  -28.4680  -25.3010   20.2540 C   0  0  0  0  0  2  0  0  0  0  0  0
  -28.4820  -26.7350   20.1640 O   0  0  0  0  0  0  0  0  0  0  0  0
  -24.6060  -31.8760   23.2380 C   0  0  0  0  0  0  0  0  0  0  0  0
  -27.2830  -27.4220   20.1810 C   0  0  0  0  0  0  0  0  0  0  0  0
  -23.4120  -30.4670   21.5930 C   0  0  0  0  0  3  0  0  0  0  0  0
  -24.8770  -28.9210   20.1880 C   0  0  0  0  0  0  0  0  0  0  0  0
  -25.9390  -30.8230   21.4130 C   0  0  0  0  0  2  0  0  0  0  0  0
  -26.0300  -29.4480   20.7810 C   0  0  0  0  0  0  0  0  0  0  0  0
  -27.2330  -28.7070   20.7740 C   0  0  0  0  0  3  0  0  0  0  0  0
  -26.1090  -26.9140   19.5780 C   0  0  0  0  0  3  0  0  0  0  0  0
  -24.9110  -27.6530   19.5840 C   0  0  0  0  0  3  0  0  0  0  0  0
  -23.6320  -29.7800   20.2190 C   0  0  0  0  0  2  0  0  0  0  0  0
  -24.6700  -31.0700   22.1400 N   0  0  0  0  0  0  0  0  0  0  0  0
  -23.5200  -32.1510   23.7670 O   0  0  0  0  0  0  0  0  0  0  0  0
  -22.7530  -29.4510   22.5530 C   0  0  0  0  0  0  0  0  0  0  0  0
  -21.4300  -29.2700   22.4160 N   0  0  0  0  0  0  0  0  0  0  0  0
  -23.4280  -28.8260   23.3750 O   0  0  0  0  0  0  0  0  0  0  0  0
  -20.9450  -29.8280   21.7270 H   0  0  0  0  0  0  0  0  0  0  0  0
  -18.0490  -28.0800   22.8860 C   0  0  0  0  0  0  0  0  0  0  0  0
  -20.6050  -28.3370   23.1820 C   0  0  0  0  0  3  0  0  0  0  0  0
  -20.7130  -26.9030   22.6140 C   0  0  0  0  0  2  0  0  0  0  0  0
  -19.6200  -26.5750   21.5910 C   0  0  0  0  0  2  0  0  0  0  0  0
  -18.2320  -26.7260   22.2190 C   0  0  0  0  0  2  0  0  0  0  0  0
  -19.1650  -28.8420   23.3230 C   0  0  0  0  0  0  0  0  0  0  0  0
  -18.9410  -30.1100   23.9040 C   0  0  0  0  0  3  0  0  0  0  0  0
  -17.6350  -30.6140   24.0520 C   0  0  0  0  0  3  0  0  0  0  0  0
  -16.5350  -29.8470   23.6300 C   0  0  0  0  0  3  0  0  0  0  0  0
  -16.7430  -28.5820   23.0540 C   0  0  0  0  0  3  0  0  0  0  0  0
  -25.8860  -32.5100   23.8650 C   0  0  0  0  0  3  0  0  0  0  0  0
  -26.3980  -31.7410   25.1440 C   0  0  1  0  0  0  0  0  0  0  0  0
  -25.3020  -31.5040   26.2080 C   0  0  0  0  0  1  0  0  0  0  0  0
  -26.9830  -30.3630   24.7540 C   0  0  0  0  0  1  0  0  0  0  0  0
  -27.5460  -32.5360   25.8110 C   0  0  0  0  0  1  0  0  0  0  0  0
  -25.5760  -33.9090   24.1890 N   0  0  0  0  0  0  0  0  0  0  0  0
  -25.9120  -34.9590   23.4270 C   0  0  0  0  0  0  0  0  0  0  0  0
  -26.5880  -34.8530   22.4000 O   0  0  0  0  0  0  0  0  0  0  0  0
  -24.9780  -34.0650   24.9860 H   0  0  0  0  0  0  0  0  0  0  0  0
  -24.1810  -36.7460   23.0530 C   0  0  0  0  0  1  0  0  0  0  0  0
  -25.4170  -36.3480   23.8760 C   0  0  0  0  0  3  0  0  0  0  0  0
  -27.5520  -37.2300   24.7080 C   0  0  0  0  0  1  0  0  0  0  0  0
  -26.4460  -37.4050   23.7710 N   0  0  0  0  0  0  0  0  0  0  0  0
  -26.0360  -38.3200   23.9340 H   0  0  0  0  0  0  0  0  0  0  0  0
  1  2  1  0
  3  1  1  0
  4 10  1  0
  4  1  1  0
  5  6  1  0
  6  9  2  0
  7  5  2  0
  7 10  1  0
  8  9  1  0
  9 11  1  0
 10  8  2  0
 11 20  1  0
 12 20  1  0
 13 18  1  0
 14 15  1  0
 14 13  1  0
 16 15  1  0
 16 25  1  0
 16 17  1  0
 18 12  1  0
 18 17  1  0
 19 12  2  0
 20 21  1  0
 22 23  2  0
 23 42  1  0
 24 23  1  0
 24 27  1  0
 25 22  1  0
 25 26  1  0
 26 24  2  0
 27 28  1  0
 28 29  2  0
 30 33  1  0
 30 29  1  0
 31 30  2  0
 32 31  1  0
 32 27  2  0
 33 34  1  0
 34 35  1  0
 35 36  2  0
 37 36  1  0
 37 41  1  0
 38 37  2  0
 39 34  2  0
 39 38  1  0
 40 39  1  0
 42 43  1  0
 43 46  1  0
 43 45  1  0
 44 42  2  0
 47 48  1  0
 47 22  1  0
 49 47  1  0
 50  1  1  0
 50 51  1  0
 52 51  1  0
 52 53  1  0
 54 53  1  0
 54 55  1  0
 56 58  1  0
 56 55  1  0
 57 68  2  0
 58 63  1  0
 59 67  1  0
 59 69  1  0
 60 66  1  0
 60 62  1  0
 61 67  1  0
 62 61  1  0
 63 62  2  0
 64 65  1  0
 64 58  2  0
 65 60  2  0
 66 59  1  0
 67 57  1  0
 69 71  2  0
 70 69  1  0
 72 70  1  0
 73 82  2  0
 73 78  1  0
 74 70  1  0
 74 78  1  0
 75 74  1  0
 76 77  1  0
 76 75  1  0
 77 73  1  0
 78 79  2  0
 79 80  1  0
 81 80  2  0
 82 81  1  0
 83 57  1  0
 83 88  1  0
 83 84  1  0
 84 87  1  1
 84 85  1  0
 86 84  1  0
 88 91  1  0
 89 93  1  0
 89 88  1  0
 90 89  2  0
 93 92  1  0
 95 93  1  0
 95 96  1  0
 95 94  1  0
M  ISO  4  12 100  20 100  55 101  56 101
M  END
>  <TORSDO>  (75) 
F 25

>  <SCORE>  (75) 
-12.132

>  <name>  (75) 
75

>  <ligand_id>  (75) 
75

>  <original_smiles>  (75) 
[H]c1c([H])c([H])c2c(c1[H])C([H])([H])C([H])([H])C([H])([H])C2([H])N([H])C(=O)C1([H])N(C(=O)C([H])(N([H])C(=O)C([H])(N([H])C([H])([H])[H])C([H])([H])[H])C(C([H])([H])[H])(C([H])([H])[H])C([H])([H])[H])C([H])([H])c2c([H])c(OC([H])([H])C([H])([H])C([H])([H])C([H])([H])C([H])([H])C([H])([H])[N+]([H])([H])C([H])([H])c3c([H])c([H])c([H])c(C([H])([H])N([H])C(=O)N4C([H])([H])C([H])([H])C([H])([H])C([H])(n5nc(-c6c([H])c([H])c(Oc7c([H])c([H])c(F)c([H])c7F)c([H])c6[H])c(C(=O)N([H])[H])c5N([H])[H])C4([H])[H])c3[H])c([H])c([H])c2C1([H])[H]

>  <smiles>  (75) 
[H]c1c([H])c([H])c2c(c1[H])C([H])([H])C([H])([H])C([H])([H])C2([H])N([H])C(=O)C1([H])N(C(=O)C([H])(N([H])C(=O)C([H])(N([H])C([H])([H])[H])C([H])([H])[H])C(C([H])([H])[H])(C([H])([H])[H])C([H])([H])[H])C([H])([H])c2c([H])c(OC([H])([H])C([H])([H])C([H])([H])C([H])([H])C([H])([H])C([H])([H])[N+]([H])([H])C([H])([H])c3c([H])c([H])c([H])c(C([H])([H])N([H])C(=O)N4C([H])([H])C([H])([H])C([H])([H])C([H])(n5nc(-c6c([H])c([H])c(Oc7c([H])c([H])c(F)c([H])c7F)c([H])c6[H])c(C(=O)N([H])[H])c5N([H])[H])C4([H])[H])c3[H])c([H])c([H])c2C1([H])[H]

$$$$
76:0:0
     RDKit          3D

 98106  0  0  1  0  0  0  0  0999 V2000
  -29.8810  -19.4560   19.1180 C   0  0  0  0  0  0  0  0  0  0  0  0
  -29.7680  -17.9290   19.3370 C   0  0  0  0  0  2  0  0  0  0  0  0
  -30.4030  -18.2880   21.7540 C   0  0  0  0  0  2  0  0  0  0  0  0
  -29.6990  -20.3780   20.3490 C   0  0  0  0  0  3  0  0  0  0  0  0
  -30.5970  -19.8320   21.5220 C   0  0  0  0  0  3  0  0  0  0  0  0
  -30.6510  -17.4010   20.5020 C   0  0  0  0  0  3  0  0  0  0  0  0
  -30.0870  -19.9010   17.9840 O   0  0  0  0  0  0  0  0  0  0  0  0
  -31.2500  -14.9010   20.6250 C   0  0  0  0  0  0  0  0  0  0  0  0
  -31.2140  -12.5390   19.8830 C   0  0  0  0  0  2  0  0  0  0  0  0
  -30.3890  -12.4540   18.5800 C   0  0  0  0  0  2  0  0  0  0  0  0
  -28.8890  -12.2840   18.8910 C   0  0  0  0  0  2  0  0  0  0  0  0
  -28.3780  -13.2930   19.9550 C   0  0  0  0  0  3  0  0  0  0  0  0
  -29.3290  -13.3540   21.1720 C   0  0  0  0  0  2  0  0  0  0  0  0
  -30.6790  -13.6620   20.6730 N   0  0  0  0  0  0  0  0  0  0  0  0
  -32.4210  -15.0710   20.2730 O   0  0  0  0  0  0  0  0  0  0  0  0
  -30.4060  -15.9540   20.7890 N   0  0  0  0  0  0  0  0  0  0  0  0
  -29.4680  -15.7030   21.0660 H   0  0  0  0  0  0  0  0  0  0  0  0
  -25.9380  -13.8800   20.5190 C   0  0  0  0  0  0  0  0  0  0  0  0
  -24.8550  -13.1000   20.8250 C   0  0  0  0  0  0  0  0  0  0  0  0
  -25.3260  -11.7520   20.8270 C   0  0  0  0  0  0  0  0  0  0  0  0
  -27.0010  -13.0060   20.3530 N   0  0  0  0  0  0  0  0  0  0  0  0
  -26.6340  -11.7210   20.5970 N   0  0  0  0  0  0  0  0  0  0  0  0
  -24.5990  -10.4840   20.9790 C   0  0  0  0  0  0  0  0  0  0  0  0
  -24.9450   -9.5480   21.9770 C   0  0  0  0  0  3  0  0  0  0  0  0
  -24.2180   -8.3460   22.1140 C   0  0  0  0  0  3  0  0  0  0  0  0
  -23.1300   -8.0710   21.2520 C   0  0  0  0  0  0  0  0  0  0  0  0
  -22.8020   -8.9980   20.2460 C   0  0  0  0  0  3  0  0  0  0  0  0
  -23.5300  -10.1920   20.1070 C   0  0  0  0  0  3  0  0  0  0  0  0
  -22.3840   -6.9190   21.2940 O   0  0  0  0  0  0  0  0  0  0  0  0
  -22.1600   -6.2490   22.4710 C   0  0  0  0  0  0  0  0  0  0  0  0
  -21.5150   -6.8630   23.5660 C   0  0  0  0  0  3  0  0  0  0  0  0
  -21.2410   -6.1190   24.7310 C   0  0  0  0  0  3  0  0  0  0  0  0
  -21.6030   -4.7600   24.7980 C   0  0  0  0  0  0  0  0  0  0  0  0
  -22.2390   -4.1440   23.7060 C   0  0  0  0  0  3  0  0  0  0  0  0
  -22.5150   -4.8870   22.5450 C   0  0  0  0  0  0  0  0  0  0  0  0
  -23.1100   -4.2840   21.4880 F   0  0  0  0  0  0  0  0  0  0  0  0
  -21.3330   -4.0410   25.9140 F   0  0  0  0  0  0  0  0  0  0  0  0
  -23.4400  -13.5690   21.0100 C   0  0  0  0  0  0  0  0  0  0  0  0
  -22.6680  -12.8770   21.8400 N   0  0  0  0  0  0  0  0  0  0  0  0
  -23.0250  -14.5840   20.4510 O   0  0  0  0  0  0  0  0  0  0  0  0
  -23.0120  -12.0570   22.3140 H   0  0  0  0  0  0  0  0  0  0  0  0
  -21.7160  -13.1770   22.0040 H   0  0  0  0  0  0  0  0  0  0  0  0
  -26.1030  -15.2510   20.3460 N   0  0  0  0  0  0  0  0  0  0  0  0
  -25.3210  -15.8940   20.3950 H   0  0  0  0  0  0  0  0  0  0  0  0
  -26.9600  -15.6910   20.0360 H   0  0  0  0  0  0  0  0  0  0  0  0
  -30.0060  -21.7800   19.8800 N   0  0  0  0  0  4  0  0  0  0  0  0
  -29.9200  -21.6870   18.8740 H   0  0  0  0  0  0  0  0  0  0  0  0
  -30.9730  -21.9970   20.0580 H   0  0  0  0  0  0  0  0  0  0  0  0
  -29.1070  -22.9030   20.3280 C   0  0  0  0  0  2  0  0  0  0  0  0
  -29.4210  -24.3380   19.7370 C   0  0  0  0  0  2  0  0  0  0  0  0
  -28.4450  -25.4670   20.2290 C   0  0  0  0  0  2  0  0  0  0  0  0
  -28.6190  -26.8260   19.7030 O   0  0  0  0  0  0  0  0  0  0  0  0
  -24.8090  -31.8590   23.1330 C   0  0  0  0  0  0  0  0  0  0  0  0
  -27.4820  -27.6310   19.7330 C   0  0  0  0  0  0  0  0  0  0  0  0
  -23.6160  -30.5670   21.3970 C   0  0  0  0  0  3  0  0  0  0  0  0
  -25.0840  -29.1590   19.8530 C   0  0  0  0  0  0  0  0  0  0  0  0
  -26.1440  -30.9550   21.2240 C   0  0  0  0  0  2  0  0  0  0  0  0
  -26.2440  -29.6340   20.4780 C   0  0  0  0  0  0  0  0  0  0  0  0
  -27.4490  -28.8810   20.4120 C   0  0  0  0  0  3  0  0  0  0  0  0
  -26.3060  -27.2080   19.0730 C   0  0  0  0  0  3  0  0  0  0  0  0
  -25.1130  -27.9500   19.1440 C   0  0  0  0  0  3  0  0  0  0  0  0
  -23.8310  -29.9990   19.9710 C   0  0  0  0  0  2  0  0  0  0  0  0
  -24.8750  -31.1380   21.9760 N   0  0  0  0  0  0  0  0  0  0  0  0
  -23.7260  -32.0760   23.6930 O   0  0  0  0  0  0  0  0  0  0  0  0
  -22.9790  -29.4680   22.2810 C   0  0  0  0  0  0  0  0  0  0  0  0
  -21.6490  -29.3080   22.1770 N   0  0  0  0  0  0  0  0  0  0  0  0
  -23.6780  -28.7670   23.0170 O   0  0  0  0  0  0  0  0  0  0  0  0
  -21.1440  -29.9280   21.5600 H   0  0  0  0  0  0  0  0  0  0  0  0
  -18.2730  -28.1240   22.7020 C   0  0  0  0  0  0  0  0  0  0  0  0
  -20.8450  -28.3110   22.8860 C   0  0  0  0  0  3  0  0  0  0  0  0
  -20.8930  -26.9440   22.1660 C   0  0  0  0  0  2  0  0  0  0  0  0
  -19.7440  -26.7430   21.1730 C   0  0  0  0  0  2  0  0  0  0  0  0
  -18.3930  -26.8460   21.8870 C   0  0  0  0  0  2  0  0  0  0  0  0
  -19.4250  -28.8200   23.1560 C   0  0  0  0  0  0  0  0  0  0  0  0
  -19.2570  -30.0210   23.8790 C   0  0  0  0  0  3  0  0  0  0  0  0
  -17.9710  -30.5250   24.1500 C   0  0  0  0  0  3  0  0  0  0  0  0
  -16.8360  -29.8240   23.7110 C   0  0  0  0  0  3  0  0  0  0  0  0
  -16.9870  -28.6250   22.9930 C   0  0  0  0  0  3  0  0  0  0  0  0
  -26.0880  -32.4610   23.7930 C   0  0  0  0  0  3  0  0  0  0  0  0
  -25.7550  -33.8210   24.2400 N   0  0  0  0  0  0  0  0  0  0  0  0
  -26.0550  -34.9390   23.5640 C   0  0  0  0  0  0  0  0  0  0  0  0
  -26.7100  -34.9330   22.5180 O   0  0  0  0  0  0  0  0  0  0  0  0
  -25.1700  -33.8980   25.0580 H   0  0  0  0  0  0  0  0  0  0  0  0
  -24.2810  -36.7120   23.3870 C   0  0  0  0  0  1  0  0  0  0  0  0
  -25.5480  -36.2740   24.1400 C   0  0  0  0  0  3  0  0  0  0  0  0
  -27.6770  -37.1420   24.9990 C   0  0  0  0  0  1  0  0  0  0  0  0
  -26.5540  -37.3570   24.0910 N   0  0  0  0  0  0  0  0  0  0  0  0
  -26.1300  -38.2520   24.3170 H   0  0  0  0  0  0  0  0  0  0  0  0
  -26.6330  -31.5970   24.9950 C   0  0  1  0  0  0  0  0  0  0  0  0
  -25.5590  -31.2540   26.0530 C   0  0  0  0  0  1  0  0  0  0  0  0
  -27.2320  -30.2650   24.4840 C   0  0  0  0  0  1  0  0  0  0  0  0
  -27.7800  -32.3530   25.7060 C   0  0  0  0  0  1  0  0  0  0  0  0
  -30.3530  -20.6270   22.8350 C   0  0  0  0  0  2  0  0  0  0  0  0
  -31.4190  -20.4300   23.9390 C   0  0  0  0  0  2  0  0  0  0  0  0
  -31.2670  -21.3870   25.0490 N   0  0  0  0  0  4  0  0  0  0  0  0
  -31.3810  -22.3340   24.7340 H   0  0  0  0  0  0  0  0  0  0  0  0
  -31.9660  -21.2100   25.7480 H   0  0  0  0  0  0  0  0  0  0  0  0
  -30.3660  -21.2950   25.4850 H   0  0  0  0  0  0  0  0  0  0  0  0
  1  2  1  0
  1  4  1  0
  2  6  1  0
  4 46  1  0
  4  5  1  0
  5  3  1  0
  5 93  1  0
  6 16  1  0
  6  3  1  0
  7  1  2  0
  8 14  1  0
  8 16  1  0
  9 14  1  0
 10 11  1  0
 10  9  1  0
 12 11  1  0
 12 21  1  0
 12 13  1  0
 14 13  1  0
 15  8  2  0
 16 17  1  0
 18 19  2  0
 19 20  1  0
 19 38  1  0
 20 23  1  0
 21 18  1  0
 21 22  1  0
 22 20  2  0
 23 24  1  0
 24 25  2  0
 26 29  1  0
 26 25  1  0
 27 26  2  0
 28 27  1  0
 28 23  2  0
 29 30  1  0
 30 35  2  0
 30 31  1  0
 31 32  2  0
 32 33  1  0
 33 37  1  0
 34 33  2  0
 35 34  1  0
 36 35  1  0
 38 39  1  0
 39 42  1  0
 39 41  1  0
 40 38  2  0
 43 44  1  0
 43 18  1  0
 45 43  1  0
 46 48  1  0
 46 49  1  0
 47 46  1  0
 50 51  1  0
 50 49  1  0
 52 54  1  0
 52 51  1  0
 53 64  2  0
 54 59  1  0
 55 63  1  0
 55 65  1  0
 56 62  1  0
 56 58  1  0
 57 63  1  0
 58 57  1  0
 59 58  2  0
 60 61  1  0
 60 54  2  0
 61 56  2  0
 62 55  1  0
 63 53  1  0
 65 67  2  0
 66 65  1  0
 68 66  1  0
 69 78  2  0
 69 74  1  0
 70 66  1  0
 70 74  1  0
 71 70  1  0
 72 73  1  0
 72 71  1  0
 73 69  1  0
 74 75  2  0
 75 76  1  0
 77 76  2  0
 78 77  1  0
 79 53  1  0
 79 80  1  0
 79 89  1  0
 80 83  1  0
 81 85  1  0
 81 80  1  0
 82 81  2  0
 85 84  1  0
 87 85  1  0
 87 88  1  0
 87 86  1  0
 89 92  1  1
 89 90  1  0
 91 89  1  0
 93 94  1  0
 94 95  1  0
 95 98  1  0
 95 97  1  0
 96 95  1  0
M  ISO  4   8 100  16 100  51 101  52 101
M  END
>  <TORSDO>  (76) 
F 23

>  <SCORE>  (76) 
-11.598

>  <name>  (76) 
76

>  <ligand_id>  (76) 
76

>  <original_smiles>  (76) 
[H]c1c([H])c([H])c2c(c1[H])C([H])([H])C([H])([H])C([H])([H])C2([H])N([H])C(=O)C1([H])N(C(=O)C([H])(N([H])C(=O)C([H])(N([H])C([H])([H])[H])C([H])([H])[H])C(C([H])([H])[H])(C([H])([H])[H])C([H])([H])[H])C([H])([H])c2c([H])c(OC([H])([H])C([H])([H])C([H])([H])[N+]([H])([H])C3([H])C(=O)C([H])([H])C([H])(N([H])C(=O)N4C([H])([H])C([H])([H])C([H])([H])C([H])(n5nc(-c6c([H])c([H])c(Oc7c([H])c([H])c(F)c([H])c7F)c([H])c6[H])c(C(=O)N([H])[H])c5N([H])[H])C4([H])[H])C([H])([H])C3([H])C([H])([H])C([H])([H])[N+]([H])([H])[H])c([H])c([H])c2C1([H])[H]

>  <smiles>  (76) 
[H]c1c([H])c([H])c2c(c1[H])C([H])([H])C([H])([H])C([H])([H])C2([H])N([H])C(=O)C1([H])N(C(=O)C([H])(N([H])C(=O)C([H])(N([H])C([H])([H])[H])C([H])([H])[H])C(C([H])([H])[H])(C([H])([H])[H])C([H])([H])[H])C([H])([H])c2c([H])c(OC([H])([H])C([H])([H])C([H])([H])[N+]([H])([H])C3([H])C(=O)C([H])([H])C([H])(N([H])C(=O)N4C([H])([H])C([H])([H])C([H])([H])C([H])(n5nc(-c6c([H])c([H])c(Oc7c([H])c([H])c(F)c([H])c7F)c([H])c6[H])c(C(=O)N([H])[H])c5N([H])[H])C4([H])[H])C([H])([H])C3([H])C([H])([H])C([H])([H])[N+]([H])([H])[H])c([H])c([H])c2C1([H])[H]

$$$$
77:0:0
     RDKit          3D

 97106  0  0  1  0  0  0  0  0999 V2000
  -26.6750  -20.3330   19.6550 C   0  0  0  0  0  0  0  0  0  0  0  0
  -27.8450  -19.6700   19.6920 C   0  0  0  0  0  3  0  0  0  0  0  0
  -25.5440  -19.8470   18.7670 C   0  0  0  0  0  2  0  0  0  0  0  0
  -26.4090  -21.6210   20.4230 C   0  0  0  0  0  2  0  0  0  0  0  0
  -24.9080  -20.9690   17.9370 C   0  0  0  0  0  2  0  0  0  0  0  0
  -26.2980  -22.8820   19.5280 C   0  0  0  0  0  2  0  0  0  0  0  0
  -25.9160  -21.9180   17.2450 C   0  0  0  0  0  2  0  0  0  0  0  0
  -26.8500  -22.6630   18.1530 N   0  0  1  0  0  4  0  0  0  0  0  0
  -27.6350  -22.0440   18.3040 H   0  0  0  0  0  0  0  0  0  0  0  0
  -29.0820  -20.0210   20.5090 C   0  0  0  0  0  2  0  0  0  0  0  0
  -31.7560  -14.7430   19.5310 C   0  0  0  0  0  0  0  0  0  0  0  0
  -31.3200  -12.4430   18.7260 C   0  0  0  0  0  2  0  0  0  0  0  0
  -30.2880  -12.4570   17.5790 C   0  0  0  0  0  2  0  0  0  0  0  0
  -28.8530  -12.3860   18.1360 C   0  0  0  0  0  2  0  0  0  0  0  0
  -28.6200  -13.4170   19.2650 C   0  0  0  0  0  3  0  0  0  0  0  0
  -29.7630  -13.3230   20.3180 C   0  0  0  0  0  2  0  0  0  0  0  0
  -31.0320  -13.5800   19.6240 N   0  0  0  0  0  0  0  0  0  0  0  0
  -32.7990  -14.7540   18.8620 O   0  0  0  0  0  0  0  0  0  0  0  0
  -32.3060  -17.9320   21.4700 C   0  0  0  0  0  2  0  0  0  0  0  0
  -31.4190  -19.1830   21.2520 C   0  0  0  0  0  2  0  0  0  0  0  0
  -29.5490  -17.5450   20.9460 C   0  0  0  0  0  2  0  0  0  0  0  0
  -32.3890  -16.9720   20.2590 C   0  0  0  0  0  2  0  0  0  0  0  0
  -29.9860  -16.4080   20.0160 C   0  0  0  0  0  2  0  0  0  0  0  0
  -30.1260  -18.8870   20.4770 C   0  0  0  0  0  3  0  0  0  0  0  0
  -31.3630  -15.8860   20.1920 N   0  0  0  0  0  0  0  0  0  0  0  0
  -26.3920  -14.2530   20.2570 C   0  0  0  0  0  0  0  0  0  0  0  0
  -25.2900  -13.5810   20.7070 C   0  0  0  0  0  0  0  0  0  0  0  0
  -25.5920  -12.1910   20.5630 C   0  0  0  0  0  0  0  0  0  0  0  0
  -27.3010  -13.2780   19.8730 N   0  0  0  0  0  0  0  0  0  0  0  0
  -26.8280  -12.0310   20.1120 N   0  0  0  0  0  0  0  0  0  0  0  0
  -24.7600  -11.0010   20.7680 C   0  0  0  0  0  0  0  0  0  0  0  0
  -25.1030  -10.0170   21.7200 C   0  0  0  0  0  3  0  0  0  0  0  0
  -24.2780   -8.8890   21.9100 C   0  0  0  0  0  3  0  0  0  0  0  0
  -23.0960   -8.7390   21.1460 C   0  0  0  0  0  0  0  0  0  0  0  0
  -22.7720   -9.7110   20.1840 C   0  0  0  0  0  3  0  0  0  0  0  0
  -23.5960  -10.8310   19.9920 C   0  0  0  0  0  3  0  0  0  0  0  0
  -22.2450   -7.6660   21.2450 O   0  0  0  0  0  0  0  0  0  0  0  0
  -22.0350   -7.0230   22.4380 C   0  0  0  0  0  0  0  0  0  0  0  0
  -21.5190   -7.6960   23.5670 C   0  0  0  0  0  3  0  0  0  0  0  0
  -21.2560   -6.9820   24.7520 C   0  0  0  0  0  3  0  0  0  0  0  0
  -21.4960   -5.5960   24.8090 C   0  0  0  0  0  0  0  0  0  0  0  0
  -22.0050   -4.9230   23.6840 C   0  0  0  0  0  3  0  0  0  0  0  0
  -22.2720   -5.6350   22.5010 C   0  0  0  0  0  0  0  0  0  0  0  0
  -22.7430   -4.9780   21.4140 F   0  0  0  0  0  0  0  0  0  0  0  0
  -21.2360   -4.9070   25.9450 F   0  0  0  0  0  0  0  0  0  0  0  0
  -23.9880  -14.1860   21.1510 C   0  0  0  0  0  0  0  0  0  0  0  0
  -23.2970  -13.5370   22.0810 N   0  0  0  0  0  0  0  0  0  0  0  0
  -23.5970  -15.2650   20.7090 O   0  0  0  0  0  0  0  0  0  0  0  0
  -23.6250  -12.6610   22.4580 H   0  0  0  0  0  0  0  0  0  0  0  0
  -22.4300  -13.9250   22.4240 H   0  0  0  0  0  0  0  0  0  0  0  0
  -26.6850  -15.6100   20.1270 N   0  0  0  0  0  0  0  0  0  0  0  0
  -26.0110  -16.3270   20.3660 H   0  0  0  0  0  0  0  0  0  0  0  0
  -27.5380  -15.9790   19.7310 H   0  0  0  0  0  0  0  0  0  0  0  0
  -27.4240  -23.8510   17.4440 C   0  0  0  0  0  2  0  0  0  0  0  0
  -28.2780  -24.8400   18.2770 C   0  0  0  0  0  2  0  0  0  0  0  0
  -28.5460  -26.1680   17.5380 C   0  0  0  0  0  2  0  0  0  0  0  0
  -28.4350  -27.2810   18.4310 O   0  0  0  0  0  0  0  0  0  0  0  0
  -24.5810  -31.2850   22.8660 C   0  0  0  0  0  0  0  0  0  0  0  0
  -27.1930  -27.8390   18.6770 C   0  0  0  0  0  0  0  0  0  0  0  0
  -23.3120  -30.1820   21.0520 C   0  0  0  0  0  3  0  0  0  0  0  0
  -24.7160  -29.0950   19.2270 C   0  0  0  0  0  0  0  0  0  0  0  0
  -25.7870  -30.7550   20.7540 C   0  0  0  0  0  2  0  0  0  0  0  0
  -25.8890  -29.5600   19.8330 C   0  0  0  0  0  0  0  0  0  0  0  0
  -27.1230  -28.9280   19.5720 C   0  0  0  0  0  3  0  0  0  0  0  0
  -25.9940  -27.3880   18.0730 C   0  0  0  0  0  3  0  0  0  0  0  0
  -24.7610  -28.0030   18.3470 C   0  0  0  0  0  3  0  0  0  0  0  0
  -23.4350  -29.8240   19.5470 C   0  0  0  0  0  2  0  0  0  0  0  0
  -24.5820  -30.7430   21.6160 N   0  0  0  0  0  0  0  0  0  0  0  0
  -23.5380  -31.3600   23.5300 O   0  0  0  0  0  0  0  0  0  0  0  0
  -22.8020  -28.9380   21.8130 C   0  0  0  0  0  0  0  0  0  0  0  0
  -21.5010  -28.6390   21.6650 N   0  0  0  0  0  0  0  0  0  0  0  0
  -23.5700  -28.2510   22.4890 O   0  0  0  0  0  0  0  0  0  0  0  0
  -20.9360  -29.2570   21.1000 H   0  0  0  0  0  0  0  0  0  0  0  0
  -18.3280  -26.9240   21.8110 C   0  0  0  0  0  0  0  0  0  0  0  0
  -20.8090  -27.4910   22.2490 C   0  0  0  0  0  3  0  0  0  0  0  0
  -21.1340  -26.1900   21.4780 C   0  0  0  0  0  2  0  0  0  0  0  0
  -20.1240  -25.8810   20.3680 C   0  0  0  0  0  2  0  0  0  0  0  0
  -18.7180  -25.7330   20.9530 C   0  0  0  0  0  2  0  0  0  0  0  0
  -19.3090  -27.7600   22.4060 C   0  0  0  0  0  0  0  0  0  0  0  0
  -18.8930  -28.8760   23.1620 C   0  0  0  0  0  3  0  0  0  0  0  0
  -17.5250  -29.1630   23.3330 C   0  0  0  0  0  3  0  0  0  0  0  0
  -16.5560  -28.3240   22.7570 C   0  0  0  0  0  3  0  0  0  0  0  0
  -16.9580  -27.2040   22.0050 C   0  0  0  0  0  3  0  0  0  0  0  0
  -25.8820  -31.8560   23.5120 C   0  0  0  0  0  3  0  0  0  0  0  0
  -26.5020  -30.9040   24.6090 C   0  0  1  0  0  0  0  0  0  0  0  0
  -25.4880  -30.4600   25.6900 C   0  0  0  0  0  1  0  0  0  0  0  0
  -27.0860  -29.6300   23.9560 C   0  0  0  0  0  1  0  0  0  0  0  0
  -27.6790  -31.6170   25.3140 C   0  0  0  0  0  1  0  0  0  0  0  0
  -25.5510  -33.1670   24.0850 N   0  0  0  0  0  0  0  0  0  0  0  0
  -25.8320  -34.3420   23.5030 C   0  0  0  0  0  0  0  0  0  0  0  0
  -26.4660  -34.4320   22.4500 O   0  0  0  0  0  0  0  0  0  0  0  0
  -24.9820  -33.1670   24.9180 H   0  0  0  0  0  0  0  0  0  0  0  0
  -24.0390  -36.1040   23.5200 C   0  0  0  0  0  1  0  0  0  0  0  0
  -25.3280  -35.6190   24.2030 C   0  0  0  0  0  3  0  0  0  0  0  0
  -27.4710  -36.4300   25.0810 C   0  0  0  0  0  1  0  0  0  0  0  0
  -26.3250  -36.7100   24.2210 N   0  0  0  0  0  0  0  0  0  0  0  0
  -25.9020  -37.5800   24.5310 H   0  0  0  0  0  0  0  0  0  0  0  0
  1  2  2  0
  1  4  1  0
  2 10  1  0
  3  1  1  0
  5  3  1  0
  6  4  1  0
  7  5  1  0
  7  8  1  0
  8  9  1  1
  8  6  1  0
 11 17  1  0
 11 25  1  0
 12 17  1  0
 13 14  1  0
 13 12  1  0
 15 14  1  0
 15 29  1  0
 15 16  1  0
 17 16  1  0
 18 11  2  0
 20 19  1  0
 22 19  1  0
 23 25  1  0
 23 21  1  0
 24 10  1  0
 24 21  1  0
 24 20  1  0
 25 22  1  0
 26 27  2  0
 27 46  1  0
 28 27  1  0
 28 31  1  0
 29 30  1  0
 29 26  1  0
 30 28  2  0
 31 32  1  0
 32 33  2  0
 34 37  1  0
 34 33  1  0
 35 34  2  0
 36 35  1  0
 36 31  2  0
 37 38  1  0
 38 43  2  0
 38 39  1  0
 39 40  2  0
 40 41  1  0
 41 45  1  0
 42 41  2  0
 43 42  1  0
 44 43  1  0
 46 47  1  0
 47 50  1  0
 47 49  1  0
 48 46  2  0
 51 26  1  0
 51 52  1  0
 53 51  1  0
 54  8  1  0
 54 55  1  0
 56 55  1  0
 56 57  1  0
 57 59  1  0
 58 69  2  0
 59 64  1  0
 60 68  1  0
 60 70  1  0
 61 67  1  0
 61 63  1  0
 62 68  1  0
 63 62  1  0
 64 63  2  0
 65 66  1  0
 65 59  2  0
 66 61  2  0
 67 60  1  0
 68 58  1  0
 70 72  2  0
 71 70  1  0
 73 71  1  0
 74 83  2  0
 74 79  1  0
 75 71  1  0
 75 79  1  0
 76 75  1  0
 77 78  1  0
 77 76  1  0
 78 74  1  0
 79 80  2  0
 80 81  1  0
 82 81  2  0
 83 82  1  0
 84 58  1  0
 84 89  1  0
 84 85  1  0
 85 88  1  1
 85 86  1  0
 87 85  1  0
 89 92  1  0
 90 89  1  0
 90 94  1  0
 91 90  2  0
 94 93  1  0
 94 96  1  0
 96 97  1  0
 96 95  1  0
M  ISO  4  11 100  25 100  56 101  57 101
M  END
>  <TORSDO>  (77) 
F 20

>  <SCORE>  (77) 
-7.620

>  <name>  (77) 
77

>  <ligand_id>  (77) 
77

>  <original_smiles>  (77) 
[H]C(=C1C([H])([H])C([H])([H])C([H])([H])[N+]([H])(C([H])([H])C([H])([H])C([H])([H])Oc2c([H])c([H])c3c(c2[H])C([H])([H])N(C(=O)C([H])(N([H])C(=O)C([H])(N([H])C([H])([H])[H])C([H])([H])[H])C(C([H])([H])[H])(C([H])([H])[H])C([H])([H])[H])C([H])(C(=O)N([H])C2([H])c4c([H])c([H])c([H])c([H])c4C([H])([H])C([H])([H])C2([H])[H])C3([H])[H])C([H])([H])C1([H])[H])C([H])([H])C1([H])C([H])([H])C([H])([H])N(C(=O)N2C([H])([H])C([H])([H])C([H])([H])C([H])(n3nc(-c4c([H])c([H])c(Oc5c([H])c([H])c(F)c([H])c5F)c([H])c4[H])c(C(=O)N([H])[H])c3N([H])[H])C2([H])[H])C([H])([H])C([H])([H])C1([H])[H]

>  <smiles>  (77) 
[H]C(=C1C([H])([H])C([H])([H])C([H])([H])[N+]([H])(C([H])([H])C([H])([H])C([H])([H])Oc2c([H])c([H])c3c(c2[H])C([H])([H])N(C(=O)C([H])(N([H])C(=O)C([H])(N([H])C([H])([H])[H])C([H])([H])[H])C(C([H])([H])[H])(C([H])([H])[H])C([H])([H])[H])C([H])(C(=O)N([H])C2([H])c4c([H])c([H])c([H])c([H])c4C([H])([H])C([H])([H])C2([H])[H])C3([H])[H])C([H])([H])C1([H])[H])C([H])([H])C1([H])C([H])([H])C([H])([H])N(C(=O)N2C([H])([H])C([H])([H])C([H])([H])C([H])(n3nc(-c4c([H])c([H])c(Oc5c([H])c([H])c(F)c([H])c5F)c([H])c4[H])c(C(=O)N([H])[H])c3N([H])[H])C2([H])[H])C([H])([H])C([H])([H])C1([H])[H]

$$$$
78:0:0
     RDKit          3D

 90 99  0  0  1  0  0  0  0  0999 V2000
  -29.3740  -21.9160   20.0830 N   0  0  0  0  0  4  0  0  0  0  0  0
  -30.0420  -22.2770   19.4180 H   0  0  0  0  0  0  0  0  0  0  0  0
  -29.8880  -21.8800   20.9480 H   0  0  0  0  0  0  0  0  0  0  0  0
  -29.1870  -20.4070   19.5800 C   0  0  0  0  0  2  0  0  0  0  0  0
  -30.8180  -14.9390   19.5550 C   0  0  0  0  0  0  0  0  0  0  0  0
  -30.4200  -12.6420   18.5520 C   0  0  0  0  0  2  0  0  0  0  0  0
  -29.3660  -12.6590   17.4250 C   0  0  0  0  0  2  0  0  0  0  0  0
  -27.9660  -12.4520   18.0200 C   0  0  0  0  0  2  0  0  0  0  0  0
  -27.7160  -13.3410   19.2660 C   0  0  0  0  0  3  0  0  0  0  0  0
  -28.8940  -13.3360   20.2650 C   0  0  0  0  0  2  0  0  0  0  0  0
  -30.0890  -13.7410   19.5190 N   0  0  0  0  0  0  0  0  0  0  0  0
  -31.9520  -14.8600   19.0710 O   0  0  0  0  0  0  0  0  0  0  0  0
  -30.6660  -19.0520   21.4890 C   0  0  0  0  0  2  0  0  0  0  0  0
  -29.2200  -17.0820   21.8120 C   0  0  0  0  0  2  0  0  0  0  0  0
  -31.4400  -16.6720   21.1510 C   0  0  0  0  0  2  0  0  0  0  0  0
  -30.6420  -17.6130   22.0630 C   0  0  0  0  0  3  0  0  0  0  0  0
  -29.5230  -19.0060   20.4780 C   0  0  0  0  0  3  0  0  0  0  0  0
  -29.3170  -17.2970   20.2890 C   0  0  0  0  0  3  0  0  0  0  0  0
  -30.4630  -16.2020   20.1580 N   0  0  0  0  0  0  0  0  0  0  0  0
  -25.4640  -13.9100   20.3210 C   0  0  0  0  0  0  0  0  0  0  0  0
  -24.4340  -13.1330   20.7730 C   0  0  0  0  0  0  0  0  0  0  0  0
  -24.8600  -11.7780   20.6170 C   0  0  0  0  0  0  0  0  0  0  0  0
  -26.4480  -13.0300   19.9110 N   0  0  0  0  0  0  0  0  0  0  0  0
  -26.1050  -11.7380   20.1560 N   0  0  0  0  0  0  0  0  0  0  0  0
  -24.1310  -10.5190   20.8250 C   0  0  0  0  0  0  0  0  0  0  0  0
  -24.5630   -9.5580   21.7640 C   0  0  0  0  0  3  0  0  0  0  0  0
  -23.8300   -8.3680   21.9600 C   0  0  0  0  0  3  0  0  0  0  0  0
  -22.6500   -8.1300   21.2170 C   0  0  0  0  0  0  0  0  0  0  0  0
  -22.2360   -9.0800   20.2660 C   0  0  0  0  0  3  0  0  0  0  0  0
  -22.9690  -10.2610   20.0700 C   0  0  0  0  0  3  0  0  0  0  0  0
  -21.8870   -6.9920   21.3230 O   0  0  0  0  0  0  0  0  0  0  0  0
  -21.7510   -6.3250   22.5140 C   0  0  0  0  0  0  0  0  0  0  0  0
  -21.2230   -6.9540   23.6630 C   0  0  0  0  0  3  0  0  0  0  0  0
  -21.0350   -6.2130   24.8470 C   0  0  0  0  0  3  0  0  0  0  0  0
  -21.3630   -4.8440   24.8820 C   0  0  0  0  0  0  0  0  0  0  0  0
  -21.8820   -4.2160   23.7370 C   0  0  0  0  0  3  0  0  0  0  0  0
  -22.0730   -4.9540   22.5560 C   0  0  0  0  0  0  0  0  0  0  0  0
  -22.5530   -4.3370   21.4490 F   0  0  0  0  0  0  0  0  0  0  0  0
  -21.1750   -4.1300   26.0160 F   0  0  0  0  0  0  0  0  0  0  0  0
  -23.0890  -13.6200   21.2290 C   0  0  0  0  0  0  0  0  0  0  0  0
  -22.4670  -12.9130   22.1660 N   0  0  0  0  0  0  0  0  0  0  0  0
  -22.6050  -14.6620   20.7890 O   0  0  0  0  0  0  0  0  0  0  0  0
  -22.8770  -12.0710   22.5430 H   0  0  0  0  0  0  0  0  0  0  0  0
  -21.5700  -13.2220   22.5140 H   0  0  0  0  0  0  0  0  0  0  0  0
  -25.6420  -15.2850   20.1970 N   0  0  0  0  0  0  0  0  0  0  0  0
  -24.9150  -15.9500   20.4380 H   0  0  0  0  0  0  0  0  0  0  0  0
  -26.4640  -15.7200   19.8010 H   0  0  0  0  0  0  0  0  0  0  0  0
  -28.3000  -23.0950   20.2160 C   0  0  0  0  0  2  0  0  0  0  0  0
  -28.5060  -24.6710   19.6020 C   0  0  0  0  0  2  0  0  0  0  0  0
  -28.3020  -26.1040   20.2090 O   0  0  0  0  0  0  0  0  0  0  0  0
  -24.4610  -31.6990   23.0330 C   0  0  0  0  0  0  0  0  0  0  0  0
  -27.2100  -27.0370   20.0550 C   0  0  0  0  0  0  0  0  0  0  0  0
  -23.3290  -30.2760   21.3670 C   0  0  0  0  0  3  0  0  0  0  0  0
  -24.8430  -28.7310   19.9670 C   0  0  0  0  0  0  0  0  0  0  0  0
  -25.8780  -30.5980   21.2580 C   0  0  0  0  0  2  0  0  0  0  0  0
  -25.9950  -29.2060   20.6060 C   0  0  0  0  0  0  0  0  0  0  0  0
  -27.1740  -28.3710   20.6360 C   0  0  0  0  0  3  0  0  0  0  0  0
  -26.0350  -26.6610   19.3730 C   0  0  0  0  0  3  0  0  0  0  0  0
  -24.8770  -27.4750   19.3360 C   0  0  0  0  0  3  0  0  0  0  0  0
  -23.5940  -29.6010   19.9920 C   0  0  0  0  0  2  0  0  0  0  0  0
  -24.5740  -30.8820   21.9410 N   0  0  0  0  0  0  0  0  0  0  0  0
  -23.3580  -31.9600   23.5370 O   0  0  0  0  0  0  0  0  0  0  0  0
  -22.6530  -29.2560   22.3160 C   0  0  0  0  0  0  0  0  0  0  0  0
  -21.3280  -29.0740   22.1760 N   0  0  0  0  0  0  0  0  0  0  0  0
  -23.3240  -28.6300   23.1410 O   0  0  0  0  0  0  0  0  0  0  0  0
  -20.8420  -29.6320   21.4870 H   0  0  0  0  0  0  0  0  0  0  0  0
  -17.9460  -27.8710   22.6750 C   0  0  0  0  0  0  0  0  0  0  0  0
  -20.5080  -28.1230   22.9320 C   0  0  0  0  0  3  0  0  0  0  0  0
  -20.6020  -26.7030   22.3250 C   0  0  0  0  0  2  0  0  0  0  0  0
  -19.4940  -26.4060   21.3100 C   0  0  0  0  0  2  0  0  0  0  0  0
  -18.1160  -26.5380   21.9660 C   0  0  0  0  0  2  0  0  0  0  0  0
  -19.0700  -28.6230   23.1140 C   0  0  0  0  0  0  0  0  0  0  0  0
  -18.8560  -29.8700   23.7380 C   0  0  0  0  0  3  0  0  0  0  0  0
  -17.5520  -30.3680   23.9270 C   0  0  0  0  0  3  0  0  0  0  0  0
  -16.4440  -29.6140   23.5030 C   0  0  0  0  0  3  0  0  0  0  0  0
  -16.6430  -28.3680   22.8820 C   0  0  0  0  0  3  0  0  0  0  0  0
  -25.7110  -32.3640   23.6900 C   0  0  0  0  0  3  0  0  0  0  0  0
  -26.2240  -31.5910   24.9670 C   0  0  1  0  0  0  0  0  0  0  0  0
  -25.1180  -31.3050   26.0100 C   0  0  0  0  0  1  0  0  0  0  0  0
  -26.8580  -30.2390   24.5740 C   0  0  0  0  0  1  0  0  0  0  0  0
  -27.3360  -32.4130   25.6640 C   0  0  0  0  0  1  0  0  0  0  0  0
  -25.3500  -33.7480   24.0400 N   0  0  0  0  0  0  0  0  0  0  0  0
  -25.6820  -34.8300   23.3220 C   0  0  0  0  0  0  0  0  0  0  0  0
  -26.3880  -34.7690   22.3120 O   0  0  0  0  0  0  0  0  0  0  0  0
  -24.7240  -33.8660   24.8230 H   0  0  0  0  0  0  0  0  0  0  0  0
  -23.9450  -36.6110   22.9350 C   0  0  0  0  0  1  0  0  0  0  0  0
  -25.1470  -36.1950   23.7990 C   0  0  0  0  0  3  0  0  0  0  0  0
  -27.2150  -37.0870   24.7800 C   0  0  0  0  0  1  0  0  0  0  0  0
  -26.1660  -37.2680   23.7800 N   0  0  0  0  0  0  0  0  0  0  0  0
  -25.7360  -38.1770   23.9310 H   0  0  0  0  0  0  0  0  0  0  0  0
  1 48  1  0
  1  3  1  0
  2  1  1  0
  4  1  1  0
  5 19  1  0
  6 11  1  0
  7  8  1  0
  7  6  1  0
  9  8  1  0
  9 23  1  0
  9 10  1  0
 11  5  1  0
 11 10  1  0
 12  5  2  0
 13 16  1  0
 14 16  1  0
 16 15  1  0
 17  4  1  0
 17 13  1  0
 18 17  1  0
 18 14  1  0
 19 18  1  0
 19 15  1  0
 20 21  2  0
 21 40  1  0
 22 21  1  0
 22 25  1  0
 23 24  1  0
 23 20  1  0
 24 22  2  0
 25 26  1  0
 26 27  2  0
 28 31  1  0
 28 27  1  0
 29 28  2  0
 30 29  1  0
 30 25  2  0
 31 32  1  0
 32 37  2  0
 32 33  1  0
 33 34  2  0
 34 35  1  0
 35 39  1  0
 36 35  2  0
 37 36  1  0
 38 37  1  0
 40 41  1  0
 41 44  1  0
 41 43  1  0
 42 40  2  0
 45 20  1  0
 45 46  1  0
 47 45  1  0
 49 50  1  0
 49 48  1  0
 51 62  2  0
 52 50  1  0
 52 57  1  0
 53 61  1  0
 53 63  1  0
 54 60  1  0
 54 56  1  0
 55 61  1  0
 56 57  2  0
 56 55  1  0
 58 52  2  0
 59 58  1  0
 59 54  2  0
 60 53  1  0
 61 51  1  0
 63 65  2  0
 64 63  1  0
 66 64  1  0
 67 76  2  0
 67 72  1  0
 68 64  1  0
 68 72  1  0
 69 68  1  0
 70 71  1  0
 70 69  1  0
 71 67  1  0
 72 73  2  0
 73 74  1  0
 75 74  2  0
 76 75  1  0
 77 51  1  0
 77 82  1  0
 77 78  1  0
 78 81  1  1
 78 79  1  0
 80 78  1  0
 82 85  1  0
 83 87  1  0
 83 82  1  0
 84 83  2  0
 87 86  1  0
 89 87  1  0
 89 90  1  0
 89 88  1  0
M  ISO  4   5 100  19 100  49 101  50 101
M  END
>  <TORSDO>  (78) 
F 19

>  <SCORE>  (78) 
-14.047

>  <name>  (78) 
78

>  <ligand_id>  (78) 
78

>  <original_smiles>  (78) 
[H]c1c([H])c([H])c2c(c1[H])C([H])([H])C([H])([H])C([H])([H])C2([H])N([H])C(=O)C1([H])N(C(=O)C([H])(N([H])C(=O)C([H])(N([H])C([H])([H])[H])C([H])([H])[H])C(C([H])([H])[H])(C([H])([H])[H])C([H])([H])[H])C([H])([H])c2c([H])c(OC([H])([H])C([H])([H])[N+]([H])([H])C([H])([H])C3([H])C([H])([H])C4([H])C([H])([H])N(C(=O)N5C([H])([H])C([H])([H])C([H])([H])C([H])(n6nc(-c7c([H])c([H])c(Oc8c([H])c([H])c(F)c([H])c8F)c([H])c7[H])c(C(=O)N([H])[H])c6N([H])[H])C5([H])[H])C3([H])C4([H])[H])c([H])c([H])c2C1([H])[H]

>  <smiles>  (78) 
[H]c1c([H])c([H])c2c(c1[H])C([H])([H])C([H])([H])C([H])([H])C2([H])N([H])C(=O)C1([H])N(C(=O)C([H])(N([H])C(=O)C([H])(N([H])C([H])([H])[H])C([H])([H])[H])C(C([H])([H])[H])(C([H])([H])[H])C([H])([H])[H])C([H])([H])c2c([H])c(OC([H])([H])C([H])([H])[N+]([H])([H])C([H])([H])C3([H])C([H])([H])C4([H])C([H])([H])N(C(=O)N5C([H])([H])C([H])([H])C([H])([H])C([H])(n6nc(-c7c([H])c([H])c(Oc8c([H])c([H])c(F)c([H])c8F)c([H])c7[H])c(C(=O)N([H])[H])c6N([H])[H])C5([H])[H])C3([H])C4([H])[H])c([H])c([H])c2C1([H])[H]

$$$$
79:0:0
     RDKit          3D

 96104  0  0  1  0  0  0  0  0999 V2000
  -34.2620  -20.9680   19.3850 C   0  0  0  0  0  2  0  0  0  0  0  0
  -34.1520  -20.8770   20.9270 C   0  0  0  0  0  2  0  0  0  0  0  0
  -34.8310  -19.6260   21.5430 C   0  0  0  0  0  2  0  0  0  0  0  0
  -33.8640  -18.6890   22.3090 C   0  0  0  0  0  2  0  0  0  0  0  0
  -32.8660  -17.9660   21.3750 C   0  0  0  0  0  2  0  0  0  0  0  0
  -31.4240  -18.5070   21.4150 C   0  0  0  0  0  2  0  0  0  0  0  0
  -30.8790  -18.9020   20.0160 C   0  0  0  0  0  2  0  0  0  0  0  0
  -30.1580  -20.1090   20.1850 O   0  0  0  0  0  0  0  0  0  0  0  0
  -28.8950  -27.0290   20.0090 C   0  0  0  0  0  0  0  0  0  0  0  0
  -30.4600  -21.2610   19.4900 C   0  0  0  0  0  0  0  0  0  0  0  0
  -30.1890  -26.1740   18.0720 C   0  0  0  0  0  3  0  0  0  0  0  0
  -31.0300  -23.7630   18.2860 C   0  0  0  0  0  0  0  0  0  0  0  0
  -30.2990  -25.0040   20.3380 C   0  0  0  0  0  2  0  0  0  0  0  0
  -30.5220  -23.7090   19.5890 C   0  0  0  0  0  0  0  0  0  0  0  0
  -30.2300  -22.4670   20.1820 C   0  0  0  0  0  3  0  0  0  0  0  0
  -30.9730  -21.3200   18.1720 C   0  0  0  0  0  3  0  0  0  0  0  0
  -31.2560  -22.5690   17.5710 C   0  0  0  0  0  3  0  0  0  0  0  0
  -31.3070  -25.1440   17.7290 C   0  0  0  0  0  2  0  0  0  0  0  0
  -29.7380  -26.0860   19.5010 N   0  0  0  0  0  0  0  0  0  0  0  0
  -28.5260  -27.9920   19.3240 O   0  0  0  0  0  0  0  0  0  0  0  0
  -29.0410  -26.0000   17.0580 C   0  0  0  0  0  0  0  0  0  0  0  0
  -29.1300  -26.7170   15.9290 N   0  0  0  0  0  0  0  0  0  0  0  0
  -28.1150  -25.2140   17.2800 O   0  0  0  0  0  0  0  0  0  0  0  0
  -29.9190  -27.3390   15.8260 H   0  0  0  0  0  0  0  0  0  0  0  0
  -28.4770  -28.0590   12.6430 C   0  0  0  0  0  0  0  0  0  0  0  0
  -28.1890  -26.6830   14.8120 C   0  0  0  0  0  3  0  0  0  0  0  0
  -28.4210  -25.4350   13.9300 C   0  0  0  0  0  2  0  0  0  0  0  0
  -29.3680  -25.6930   12.7540 C   0  0  0  0  0  2  0  0  0  0  0  0
  -28.8170  -26.8050   11.8570 C   0  0  0  0  0  2  0  0  0  0  0  0
  -28.1970  -28.0030   14.0340 C   0  0  0  0  0  0  0  0  0  0  0  0
  -27.9220  -29.2040   14.7250 C   0  0  0  0  0  3  0  0  0  0  0  0
  -27.9150  -30.4390   14.0510 C   0  0  0  0  0  3  0  0  0  0  0  0
  -28.1740  -30.4860   12.6690 C   0  0  0  0  0  3  0  0  0  0  0  0
  -28.4510  -29.2970   11.9680 C   0  0  0  0  0  3  0  0  0  0  0  0
  -28.3680  -26.9560   21.4800 C   0  0  0  0  0  3  0  0  0  0  0  0
  -26.8880  -26.4200   21.5890 C   0  0  1  0  0  0  0  0  0  0  0  0
  -25.8970  -27.1580   20.6590 C   0  0  0  0  0  1  0  0  0  0  0  0
  -26.8300  -24.9140   21.2450 C   0  0  0  0  0  1  0  0  0  0  0  0
  -26.3810  -26.5600   23.0430 C   0  0  0  0  0  1  0  0  0  0  0  0
  -28.4770  -28.3020   22.0560 N   0  0  0  0  0  0  0  0  0  0  0  0
  -29.4550  -28.6990   22.8800 C   0  0  0  0  0  0  0  0  0  0  0  0
  -30.3330  -27.9390   23.2950 O   0  0  0  0  0  0  0  0  0  0  0  0
  -27.8220  -28.9920   21.7190 H   0  0  0  0  0  0  0  0  0  0  0  0
  -30.4700  -30.9570   22.4560 C   0  0  0  0  0  1  0  0  0  0  0  0
  -29.4580  -30.1770   23.3100 C   0  0  0  0  0  3  0  0  0  0  0  0
  -28.7100  -29.8660   25.6270 C   0  0  0  0  0  1  0  0  0  0  0  0
  -29.7580  -30.3740   24.7450 N   0  0  0  0  0  0  0  0  0  0  0  0
  -29.8950  -31.3600   24.9510 H   0  0  0  0  0  0  0  0  0  0  0  0
  -34.2330  -19.5970   18.6440 C   0  0  0  0  0  2  0  0  0  0  0  0
  -37.0970  -18.8140   16.0950 C   0  0  0  0  0  2  0  0  0  0  0  0
  -38.0250  -17.9030   16.9500 C   0  0  0  0  0  2  0  0  0  0  0  0
  -37.8600  -19.1300   19.2230 C   0  0  0  0  0  2  0  0  0  0  0  0
  -35.6740  -19.1110   16.6480 C   0  0  0  0  0  2  0  0  0  0  0  0
  -36.6810  -20.0070   18.7440 C   0  0  0  0  0  2  0  0  0  0  0  0
  -38.7820  -18.6500   18.0810 C   0  0  0  0  0  3  0  0  0  0  0  0
  -35.5860  -19.2030   18.1390 N   0  0  1  0  0  4  0  0  0  0  0  0
  -35.7050  -18.2540   18.4610 H   0  0  0  0  0  0  0  0  0  0  0  0
  -40.1250  -17.9770   18.5310 C   0  0  0  0  0  2  0  0  0  0  0  0
  -40.8640  -15.9040   19.7490 C   0  0  0  0  0  0  0  0  0  0  0  0
  -40.2120  -15.0380   21.9460 C   0  0  0  0  0  2  0  0  0  0  0  0
  -40.8310  -13.7000   22.3600 C   0  0  0  0  0  2  0  0  0  0  0  0
  -39.9330  -12.5470   21.8940 C   0  0  0  0  0  2  0  0  0  0  0  0
  -39.6120  -12.6480   20.3790 C   0  0  0  0  0  3  0  0  0  0  0  0
  -39.1210  -14.0680   19.9800 C   0  0  0  0  0  2  0  0  0  0  0  0
  -40.0650  -15.0850   20.4850 N   0  0  0  0  0  0  0  0  0  0  0  0
  -41.9490  -16.3320   20.1460 O   0  0  0  0  0  0  0  0  0  0  0  0
  -40.2190  -16.5130   18.7490 N   0  0  0  0  0  0  0  0  0  0  0  0
  -39.3900  -16.0060   18.4650 H   0  0  0  0  0  0  0  0  0  0  0  0
  -38.6730  -10.8260   18.8130 C   0  0  0  0  0  0  0  0  0  0  0  0
  -37.6420   -9.9370   18.9550 C   0  0  0  0  0  0  0  0  0  0  0  0
  -37.0590  -10.2100   20.2320 C   0  0  0  0  0  0  0  0  0  0  0  0
  -38.6790  -11.5980   19.9680 N   0  0  0  0  0  0  0  0  0  0  0  0
  -37.6640  -11.2480   20.8000 N   0  0  0  0  0  0  0  0  0  0  0  0
  -35.9970   -9.5110   20.9610 C   0  0  0  0  0  0  0  0  0  0  0  0
  -34.8110  -10.1760   21.3420 C   0  0  0  0  0  3  0  0  0  0  0  0
  -33.7950   -9.4870   22.0370 C   0  0  0  0  0  3  0  0  0  0  0  0
  -33.9540   -8.1180   22.3570 C   0  0  0  0  0  0  0  0  0  0  0  0
  -35.1430   -7.4640   21.9900 C   0  0  0  0  0  3  0  0  0  0  0  0
  -36.1570   -8.1520   21.3020 C   0  0  0  0  0  3  0  0  0  0  0  0
  -33.0310   -7.3720   23.0490 O   0  0  0  0  0  0  0  0  0  0  0  0
  -31.6930   -7.4130   22.7410 C   0  0  0  0  0  0  0  0  0  0  0  0
  -31.1260   -8.4870   22.0190 C   0  0  0  0  0  3  0  0  0  0  0  0
  -29.7630   -8.4520   21.6630 C   0  0  0  0  0  3  0  0  0  0  0  0
  -28.9680   -7.3480   22.0200 C   0  0  0  0  0  0  0  0  0  0  0  0
  -29.5310   -6.2740   22.7320 C   0  0  0  0  0  3  0  0  0  0  0  0
  -30.8900   -6.3080   23.0880 C   0  0  0  0  0  0  0  0  0  0  0  0
  -31.4330   -5.2600   23.7540 F   0  0  0  0  0  0  0  0  0  0  0  0
  -27.6590   -7.3160   21.6720 F   0  0  0  0  0  0  0  0  0  0  0  0
  -37.2690   -8.8360   18.0050 C   0  0  0  0  0  0  0  0  0  0  0  0
  -35.9940   -8.4710   17.9510 N   0  0  0  0  0  0  0  0  0  0  0  0
  -38.1020   -8.3240   17.2580 O   0  0  0  0  0  0  0  0  0  0  0  0
  -35.2990   -8.8910   18.5530 H   0  0  0  0  0  0  0  0  0  0  0  0
  -35.7050   -7.7610   17.2900 H   0  0  0  0  0  0  0  0  0  0  0  0
  -39.6200  -11.0320   17.8120 N   0  0  0  0  0  0  0  0  0  0  0  0
  -39.6510  -10.4620   16.9750 H   0  0  0  0  0  0  0  0  0  0  0  0
  -40.3630  -11.7170   17.8530 H   0  0  0  0  0  0  0  0  0  0  0  0
  1  2  1  0
  2  3  1  0
  3  4  1  0
  5  6  1  0
  5  4  1  0
  7  8  1  0
  7  6  1  0
 10 15  1  0
 10  8  1  0
 11 21  1  0
 11 19  1  0
 12 14  1  0
 14 15  2  0
 14 13  1  0
 16 10  2  0
 17 16  1  0
 17 12  2  0
 18 11  1  0
 18 12  1  0
 19  9  1  0
 19 13  1  0
 20  9  2  0
 21 23  2  0
 22 21  1  0
 24 22  1  0
 25 30  1  0
 26 22  1  0
 27 26  1  0
 28 27  1  0
 29 25  1  0
 29 28  1  0
 30 31  2  0
 30 26  1  0
 32 31  1  0
 33 32  2  0
 34 25  2  0
 34 33  1  0
 35  9  1  0
 35 36  1  0
 35 40  1  0
 36 39  1  1
 37 36  1  0
 38 36  1  0
 40 41  1  0
 41 42  2  0
 41 45  1  0
 43 40  1  0
 45 44  1  0
 45 47  1  0
 47 48  1  0
 47 46  1  0
 49  1  1  0
 50 53  1  0
 50 51  1  0
 51 55  1  0
 53 56  1  0
 54 52  1  0
 55 58  1  0
 55 52  1  0
 56 57  1  1
 56 49  1  0
 56 54  1  0
 58 67  1  0
 59 66  2  0
 59 65  1  0
 60 61  1  0
 62 61  1  0
 63 72  1  0
 63 62  1  0
 64 63  1  0
 64 65  1  0
 65 60  1  0
 67 59  1  0
 68 67  1  0
 69 70  2  0
 69 72  1  0
 70 71  1  0
 71 73  2  0
 71 74  1  0
 72 73  1  0
 74 79  2  0
 74 75  1  0
 75 76  2  0
 76 77  1  0
 77 80  1  0
 78 77  2  0
 79 78  1  0
 81 80  1  0
 81 86  1  0
 82 81  2  0
 83 82  1  0
 83 84  2  0
 84 85  1  0
 85 86  2  0
 86 87  1  0
 88 84  1  0
 89 70  1  0
 90 89  1  0
 90 92  1  0
 91 89  2  0
 93 90  1  0
 94 96  1  0
 94 69  1  0
 95 94  1  0
M  ISO  4   7 101   8 101  59 100  67 100
M  END
>  <TORSDO>  (79) 
F 25

>  <SCORE>  (79) 
-1.972

>  <name>  (79) 
79

>  <ligand_id>  (79) 
79

>  <original_smiles>  (79) 
[H]c1c([H])c([H])c2c(c1[H])C([H])([H])C([H])([H])C([H])([H])C2([H])N([H])C(=O)C1([H])N(C(=O)C([H])(N([H])C(=O)C([H])(N([H])C([H])([H])[H])C([H])([H])[H])C(C([H])([H])[H])(C([H])([H])[H])C([H])([H])[H])C([H])([H])c2c([H])c(OC([H])([H])C([H])([H])C([H])([H])C([H])([H])C([H])([H])C([H])([H])C([H])([H])C([H])([H])[N+]3([H])C([H])([H])C([H])([H])C([H])([H])C([H])(C([H])([H])N([H])C(=O)N4C([H])([H])C([H])([H])C([H])([H])C([H])(n5nc(-c6c([H])c([H])c(Oc7c([H])c([H])c(F)c([H])c7F)c([H])c6[H])c(C(=O)N([H])[H])c5N([H])[H])C4([H])[H])C([H])([H])C3([H])[H])c([H])c([H])c2C1([H])[H]

>  <smiles>  (79) 
[H]c1c([H])c([H])c2c(c1[H])C([H])([H])C([H])([H])C([H])([H])C2([H])N([H])C(=O)C1([H])N(C(=O)C([H])(N([H])C(=O)C([H])(N([H])C([H])([H])[H])C([H])([H])[H])C(C([H])([H])[H])(C([H])([H])[H])C([H])([H])[H])C([H])([H])c2c([H])c(OC([H])([H])C([H])([H])C([H])([H])C([H])([H])C([H])([H])C([H])([H])C([H])([H])C([H])([H])[N+]3([H])C([H])([H])C([H])([H])C([H])([H])C([H])(C([H])([H])N([H])C(=O)N4C([H])([H])C([H])([H])C([H])([H])C([H])(n5nc(-c6c([H])c([H])c(Oc7c([H])c([H])c(F)c([H])c7F)c([H])c6[H])c(C(=O)N([H])[H])c5N([H])[H])C4([H])[H])C([H])([H])C3([H])[H])c([H])c([H])c2C1([H])[H]

$$$$
80:0:0
     RDKit          3D

 95103  0  0  1  0  0  0  0  0999 V2000
  -31.3820  -22.4410   18.7170 C   0  0  0  0  0  2  0  0  0  0  0  0
  -30.5040  -20.5220   21.9100 C   0  0  0  0  0  3  0  0  0  0  0  0
  -30.6920  -18.9200   20.0950 C   0  0  0  0  0  3  0  0  0  0  0  0
  -30.7860  -21.5740   21.0190 C   0  0  0  0  0  3  0  0  0  0  0  0
  -30.9830  -19.9680   19.1980 C   0  0  0  0  0  3  0  0  0  0  0  0
  -30.4630  -19.1850   21.4640 C   0  0  0  0  0  0  0  0  0  0  0  0
  -31.0390  -21.3010   19.6600 C   0  0  0  0  0  0  0  0  0  0  0  0
  -30.1930  -18.1420   22.4660 C   0  0  0  0  0  3  0  0  0  0  0  0
  -30.6130  -16.8600   22.5250 C   0  0  0  0  0  3  0  0  0  0  0  0
  -31.5410  -16.1030   21.5910 C   0  0  0  0  0  2  0  0  0  0  0  0
  -31.2240  -14.1260   20.0990 C   0  0  0  0  0  0  0  0  0  0  0  0
  -30.6520  -12.1270   18.7790 C   0  0  0  0  0  2  0  0  0  0  0  0
  -29.6730  -12.4660   17.6410 C   0  0  0  0  0  2  0  0  0  0  0  0
  -28.2160  -12.4160   18.1310 C   0  0  0  0  0  2  0  0  0  0  0  0
  -28.0040  -13.2190   19.4410 C   0  0  0  0  0  3  0  0  0  0  0  0
  -29.0810  -12.8570   20.4860 C   0  0  0  0  0  2  0  0  0  0  0  0
  -30.4130  -13.0600   19.8860 N   0  0  0  0  0  0  0  0  0  0  0  0
  -32.2070  -14.3930   19.4030 O   0  0  0  0  0  0  0  0  0  0  0  0
  -30.8970  -14.8660   21.1620 N   0  0  0  0  0  0  0  0  0  0  0  0
  -30.1190  -14.5280   21.7080 H   0  0  0  0  0  0  0  0  0  0  0  0
  -25.6720  -13.9770   20.2320 C   0  0  0  0  0  0  0  0  0  0  0  0
  -24.5730  -13.2760   20.6480 C   0  0  0  0  0  0  0  0  0  0  0  0
  -24.9480  -11.8960   20.6110 C   0  0  0  0  0  0  0  0  0  0  0  0
  -26.6540  -13.0310   19.9690 N   0  0  0  0  0  0  0  0  0  0  0  0
  -26.2190  -11.7740   20.2490 N   0  0  0  0  0  0  0  0  0  0  0  0
  -24.1520  -10.6840   20.8410 C   0  0  0  0  0  0  0  0  0  0  0  0
  -24.5580   -9.7010   21.7710 C   0  0  0  0  0  3  0  0  0  0  0  0
  -23.7710   -8.5500   21.9890 C   0  0  0  0  0  3  0  0  0  0  0  0
  -22.5600   -8.3750   21.2780 C   0  0  0  0  0  0  0  0  0  0  0  0
  -22.1710   -9.3440   20.3360 C   0  0  0  0  0  3  0  0  0  0  0  0
  -22.9600  -10.4850   20.1150 C   0  0  0  0  0  3  0  0  0  0  0  0
  -21.7440   -7.2760   21.4040 O   0  0  0  0  0  0  0  0  0  0  0  0
  -21.6820   -6.5540   22.5690 C   0  0  0  0  0  0  0  0  0  0  0  0
  -21.3440   -7.1550   23.8010 C   0  0  0  0  0  3  0  0  0  0  0  0
  -21.2210   -6.3640   24.9600 C   0  0  0  0  0  3  0  0  0  0  0  0
  -21.4300   -4.9740   24.8890 C   0  0  0  0  0  0  0  0  0  0  0  0
  -21.7620   -4.3730   23.6620 C   0  0  0  0  0  3  0  0  0  0  0  0
  -21.8840   -5.1610   22.5050 C   0  0  0  0  0  0  0  0  0  0  0  0
  -22.1830   -4.5740   21.3220 F   0  0  0  0  0  0  0  0  0  0  0  0
  -21.3080   -4.2120   26.0030 F   0  0  0  0  0  0  0  0  0  0  0  0
  -23.2190  -13.8380   20.9720 C   0  0  0  0  0  0  0  0  0  0  0  0
  -22.4920  -13.2090   21.8880 N   0  0  0  0  0  0  0  0  0  0  0  0
  -22.8150  -14.8730   20.4450 O   0  0  0  0  0  0  0  0  0  0  0  0
  -22.8320  -12.3730   22.3420 H   0  0  0  0  0  0  0  0  0  0  0  0
  -21.5850  -13.5730   22.1450 H   0  0  0  0  0  0  0  0  0  0  0  0
  -25.9140  -15.3360   20.0390 N   0  0  0  0  0  0  0  0  0  0  0  0
  -25.1980  -16.0420   20.1670 H   0  0  0  0  0  0  0  0  0  0  0  0
  -26.7920  -15.7150   19.7030 H   0  0  0  0  0  0  0  0  0  0  0  0
  -30.1660  -23.0460   18.1420 N   0  0  0  0  0  4  0  0  0  0  0  0
  -29.3980  -22.9270   18.7810 H   0  0  0  0  0  0  0  0  0  0  0  0
  -29.9460  -22.5170   17.3130 H   0  0  0  0  0  0  0  0  0  0  0  0
  -30.3040  -24.4690   17.7660 C   0  0  0  0  0  2  0  0  0  0  0  0
  -30.0050  -25.4350   18.9350 C   0  0  0  0  0  2  0  0  0  0  0  0
  -28.5060  -25.7070   19.1350 C   0  0  0  0  0  2  0  0  0  0  0  0
  -28.3390  -26.7160   20.1260 O   0  0  0  0  0  0  0  0  0  0  0  0
  -24.5760  -31.8870   23.2280 C   0  0  0  0  0  0  0  0  0  0  0  0
  -27.1370  -27.3910   20.1570 C   0  0  0  0  0  0  0  0  0  0  0  0
  -23.3300  -30.4750   21.6230 C   0  0  0  0  0  3  0  0  0  0  0  0
  -24.7440  -28.8960   20.2100 C   0  0  0  0  0  0  0  0  0  0  0  0
  -25.8530  -30.8070   21.3800 C   0  0  0  0  0  2  0  0  0  0  0  0
  -25.9130  -29.4210   20.7720 C   0  0  0  0  0  0  0  0  0  0  0  0
  -27.1080  -28.6710   20.7540 C   0  0  0  0  0  3  0  0  0  0  0  0
  -25.9420  -26.8640   19.6140 C   0  0  0  0  0  3  0  0  0  0  0  0
  -24.7490  -27.6110   19.6380 C   0  0  0  0  0  3  0  0  0  0  0  0
  -23.5110  -29.7680   20.2530 C   0  0  0  0  0  2  0  0  0  0  0  0
  -24.6060  -31.0720   22.1360 N   0  0  0  0  0  0  0  0  0  0  0  0
  -23.5050  -32.1790   23.7790 O   0  0  0  0  0  0  0  0  0  0  0  0
  -22.6820  -29.4760   22.6080 C   0  0  0  0  0  0  0  0  0  0  0  0
  -21.3590  -29.2900   22.4850 N   0  0  0  0  0  0  0  0  0  0  0  0
  -23.3670  -28.8700   23.4360 O   0  0  0  0  0  0  0  0  0  0  0  0
  -20.8680  -29.8350   21.7890 H   0  0  0  0  0  0  0  0  0  0  0  0
  -17.9880  -28.0880   22.9850 C   0  0  0  0  0  0  0  0  0  0  0  0
  -20.5410  -28.3710   23.2770 C   0  0  0  0  0  3  0  0  0  0  0  0
  -20.6590  -26.9230   22.7470 C   0  0  0  0  0  2  0  0  0  0  0  0
  -19.5700  -26.5610   21.7320 C   0  0  0  0  0  2  0  0  0  0  0  0
  -18.1810  -26.7180   22.3550 C   0  0  0  0  0  2  0  0  0  0  0  0
  -19.0970  -28.8700   23.4020 C   0  0  0  0  0  0  0  0  0  0  0  0
  -18.8640  -30.1510   23.9490 C   0  0  0  0  0  3  0  0  0  0  0  0
  -17.5560  -30.6500   24.0820 C   0  0  0  0  0  3  0  0  0  0  0  0
  -16.4610  -29.8650   23.6800 C   0  0  0  0  0  3  0  0  0  0  0  0
  -16.6790  -28.5870   23.1370 C   0  0  0  0  0  3  0  0  0  0  0  0
  -25.8770  -32.5120   23.8210 C   0  0  0  0  0  3  0  0  0  0  0  0
  -25.5820  -33.9090   24.1610 N   0  0  0  0  0  0  0  0  0  0  0  0
  -25.9090  -34.9620   23.3990 C   0  0  0  0  0  0  0  0  0  0  0  0
  -26.5640  -34.8570   22.3580 O   0  0  0  0  0  0  0  0  0  0  0  0
  -25.0040  -34.0640   24.9740 H   0  0  0  0  0  0  0  0  0  0  0  0
  -24.1870  -36.7630   23.0680 C   0  0  0  0  0  1  0  0  0  0  0  0
  -25.4340  -36.3500   23.8670 C   0  0  0  0  0  3  0  0  0  0  0  0
  -27.5850  -37.2150   24.6750 C   0  0  0  0  0  1  0  0  0  0  0  0
  -26.4720  -37.3970   23.7480 N   0  0  0  0  0  0  0  0  0  0  0  0
  -26.0720  -38.3190   23.9060 H   0  0  0  0  0  0  0  0  0  0  0  0
  -26.4200  -31.7320   25.0810 C   0  0  1  0  0  0  0  0  0  0  0  0
  -25.3530  -31.4930   26.1750 C   0  0  0  0  0  1  0  0  0  0  0  0
  -26.9890  -30.3550   24.6650 C   0  0  0  0  0  1  0  0  0  0  0  0
  -27.5890  -32.5190   25.7210 C   0  0  0  0  0  1  0  0  0  0  0  0
  1  7  1  0
  3  6  2  0
  4  2  2  0
  5  7  2  0
  5  3  1  0
  6  2  1  0
  6  8  1  0
  7  4  1  0
  8  9  2  0
 10  9  1  0
 11 19  1  0
 12 17  1  0
 13 14  1  0
 13 12  1  0
 15 14  1  0
 15 24  1  0
 15 16  1  0
 17 11  1  0
 17 16  1  0
 18 11  2  0
 19 10  1  0
 19 20  1  0
 21 22  2  0
 22 41  1  0
 23 22  1  0
 23 26  1  0
 24 21  1  0
 24 25  1  0
 25 23  2  0
 26 27  1  0
 27 28  2  0
 29 32  1  0
 29 28  1  0
 30 29  2  0
 31 30  1  0
 31 26  2  0
 32 33  1  0
 33 34  1  0
 34 35  2  0
 36 35  1  0
 36 40  1  0
 37 36  2  0
 38 33  2  0
 38 37  1  0
 39 38  1  0
 41 42  1  0
 42 45  1  0
 42 44  1  0
 43 41  2  0
 46 47  1  0
 46 21  1  0
 48 46  1  0
 49  1  1  0
 49 50  1  0
 51 49  1  0
 52 49  1  0
 52 53  1  0
 53 54  1  0
 54 55  1  0
 55 57  1  0
 56 67  2  0
 57 62  1  0
 58 66  1  0
 58 68  1  0
 59 65  1  0
 59 61  1  0
 60 66  1  0
 61 60  1  0
 62 61  2  0
 63 64  1  0
 63 57  2  0
 64 59  2  0
 65 58  1  0
 66 56  1  0
 68 70  2  0
 69 68  1  0
 71 69  1  0
 72 81  2  0
 72 77  1  0
 73 69  1  0
 73 77  1  0
 74 73  1  0
 75 76  1  0
 75 74  1  0
 76 72  1  0
 77 78  2  0
 78 79  1  0
 80 79  2  0
 81 80  1  0
 82 56  1  0
 82 83  1  0
 82 92  1  0
 83 86  1  0
 84 88  1  0
 84 83  1  0
 85 84  2  0
 88 87  1  0
 90 88  1  0
 90 91  1  0
 90 89  1  0
 92 95  1  1
 92 93  1  0
 94 92  1  0
M  ISO  4  11 100  19 100  54 101  55 101
M  END
>  <TORSDO>  (80) 
F 23

>  <SCORE>  (80) 
-11.851

>  <name>  (80) 
80

>  <ligand_id>  (80) 
80

>  <original_smiles>  (80) 
[H]C(=C([H])C([H])([H])N([H])C(=O)N1C([H])([H])C([H])([H])C([H])([H])C([H])(n2nc(-c3c([H])c([H])c(Oc4c([H])c([H])c(F)c([H])c4F)c([H])c3[H])c(C(=O)N([H])[H])c2N([H])[H])C1([H])[H])c1c([H])c([H])c(C([H])([H])[N+]([H])([H])C([H])([H])C([H])([H])C([H])([H])Oc2c([H])c([H])c3c(c2[H])C([H])([H])N(C(=O)C([H])(N([H])C(=O)C([H])(N([H])C([H])([H])[H])C([H])([H])[H])C(C([H])([H])[H])(C([H])([H])[H])C([H])([H])[H])C([H])(C(=O)N([H])C2([H])c4c([H])c([H])c([H])c([H])c4C([H])([H])C([H])([H])C2([H])[H])C3([H])[H])c([H])c1[H]

>  <smiles>  (80) 
[H]C(=C([H])C([H])([H])N([H])C(=O)N1C([H])([H])C([H])([H])C([H])([H])C([H])(n2nc(-c3c([H])c([H])c(Oc4c([H])c([H])c(F)c([H])c4F)c([H])c3[H])c(C(=O)N([H])[H])c2N([H])[H])C1([H])[H])c1c([H])c([H])c(C([H])([H])[N+]([H])([H])C([H])([H])C([H])([H])C([H])([H])Oc2c([H])c([H])c3c(c2[H])C([H])([H])N(C(=O)C([H])(N([H])C(=O)C([H])(N([H])C([H])([H])[H])C([H])([H])[H])C(C([H])([H])[H])(C([H])([H])[H])C([H])([H])[H])C([H])(C(=O)N([H])C2([H])c4c([H])c([H])c([H])c([H])c4C([H])([H])C([H])([H])C2([H])[H])C3([H])[H])c([H])c1[H]

$$$$
81:0:0
     RDKit          3D

108117  0  0  1  0  0  0  0  0999 V2000
  -30.0680  -18.5610   21.1450 C   0  0  0  0  0  2  0  0  0  0  0  0
  -29.4910  -19.9860   21.2400 C   0  0  0  0  0  2  0  0  0  0  0  0
  -29.4960  -18.5320   18.7160 C   0  0  0  0  0  2  0  0  0  0  0  0
  -30.6430  -18.3500   19.7360 C   0  0  0  0  0  3  0  0  0  0  0  0
  -28.4410  -20.2920   20.1410 C   0  0  0  0  0  3  0  0  0  0  0  0
  -28.9420  -19.9020   18.7950 N   0  0  0  0  0  4  0  0  0  0  0  0
  -28.1930  -19.9760   18.1230 H   0  0  0  0  0  0  0  0  0  0  0  0
  -29.6620  -20.5450   18.5070 H   0  0  0  0  0  0  0  0  0  0  0  0
  -28.0810  -21.7980   20.1620 C   0  0  0  0  0  2  0  0  0  0  0  0
  -24.8670  -23.4130   19.8710 C   0  0  0  0  0  2  0  0  0  0  0  0
  -25.6010  -22.1050   19.4980 C   0  0  0  0  0  2  0  0  0  0  0  0
  -27.4170  -23.6500   18.4670 C   0  0  0  0  0  2  0  0  0  0  0  0
  -25.5080  -24.2460   21.0040 C   0  0  0  0  0  2  0  0  0  0  0  0
  -27.3230  -24.8770   19.4120 C   0  0  0  0  0  2  0  0  0  0  0  0
  -27.0830  -22.2540   19.0620 C   0  0  0  0  0  3  0  0  0  0  0  0
  -26.9580  -24.5180   20.8080 N   0  0  1  0  0  4  0  0  0  0  0  0
  -27.4090  -23.6300   20.9710 H   0  0  0  0  0  0  0  0  0  0  0  0
  -27.5280  -25.4450   21.8240 C   0  0  0  0  0  2  0  0  0  0  0  0
  -29.0750  -25.4710   21.7820 C   0  0  0  0  0  2  0  0  0  0  0  0
  -29.7040  -26.8790   21.8370 C   0  0  0  0  0  2  0  0  0  0  0  0
  -29.4480  -27.6060   20.6330 O   0  0  0  0  0  0  0  0  0  0  0  0
  -24.9050  -31.9820   23.9030 C   0  0  0  0  0  0  0  0  0  0  0  0
  -28.2420  -28.2520   20.6050 C   0  0  0  0  0  0  0  0  0  0  0  0
  -24.0020  -30.7220   21.9730 C   0  0  0  0  0  3  0  0  0  0  0  0
  -25.7270  -29.5130   20.5390 C   0  0  0  0  0  0  0  0  0  0  0  0
  -26.4860  -31.3130   22.1030 C   0  0  0  0  0  2  0  0  0  0  0  0
  -26.7600  -30.0510   21.3170 C   0  0  0  0  0  0  0  0  0  0  0  0
  -28.0200  -29.4220   21.3600 C   0  0  0  0  0  3  0  0  0  0  0  0
  -27.2090  -27.7330   19.8030 C   0  0  0  0  0  3  0  0  0  0  0  0
  -25.9440  -28.3470   19.7810 C   0  0  0  0  0  3  0  0  0  0  0  0
  -24.4080  -30.2510   20.5510 C   0  0  0  0  0  2  0  0  0  0  0  0
  -25.1410  -31.3480   22.7210 N   0  0  0  0  0  0  0  0  0  0  0  0
  -23.7560  -32.0880   24.3520 O   0  0  0  0  0  0  0  0  0  0  0  0
  -23.3610  -29.5310   22.7190 C   0  0  0  0  0  0  0  0  0  0  0  0
  -22.0920  -29.2350   22.3940 N   0  0  0  0  0  0  0  0  0  0  0  0
  -24.0080  -28.8800   23.5450 O   0  0  0  0  0  0  0  0  0  0  0  0
  -21.6310  -29.8200   21.7100 H   0  0  0  0  0  0  0  0  0  0  0  0
  -18.8650  -27.6220   22.2310 C   0  0  0  0  0  0  0  0  0  0  0  0
  -21.2970  -28.1360   22.9380 C   0  0  0  0  0  3  0  0  0  0  0  0
  -21.6710  -26.7940   22.2680 C   0  0  0  0  0  2  0  0  0  0  0  0
  -20.7850  -26.4570   21.0640 C   0  0  0  0  0  2  0  0  0  0  0  0
  -19.3140  -26.3780   21.4820 C   0  0  0  0  0  2  0  0  0  0  0  0
  -19.7990  -28.4560   22.9010 C   0  0  0  0  0  0  0  0  0  0  0  0
  -19.3330  -29.6200   23.5510 C   0  0  0  0  0  3  0  0  0  0  0  0
  -17.9660  -29.9520   23.5420 C   0  0  0  0  0  3  0  0  0  0  0  0
  -17.0430  -29.1130   22.8920 C   0  0  0  0  0  3  0  0  0  0  0  0
  -17.4940  -27.9510   22.2420 C   0  0  0  0  0  3  0  0  0  0  0  0
  -26.0610  -32.6220   24.7340 C   0  0  0  0  0  3  0  0  0  0  0  0
  -26.3680  -31.8490   26.0730 C   0  0  1  0  0  0  0  0  0  0  0  0
  -25.1110  -31.5470   26.9210 C   0  0  0  0  0  1  0  0  0  0  0  0
  -27.0710  -30.5020   25.7760 C   0  0  0  0  0  1  0  0  0  0  0  0
  -27.3440  -32.6760   26.9430 C   0  0  0  0  0  1  0  0  0  0  0  0
  -25.6870  -34.0150   25.0090 N   0  0  0  0  0  0  0  0  0  0  0  0
  -26.0550  -35.0650   24.2620 C   0  0  0  0  0  0  0  0  0  0  0  0
  -26.8160  -34.9640   23.2940 O   0  0  0  0  0  0  0  0  0  0  0  0
  -25.0250  -34.1670   25.7560 H   0  0  0  0  0  0  0  0  0  0  0  0
  -24.2610  -36.7590   23.7830 C   0  0  0  0  0  1  0  0  0  0  0  0
  -25.4920  -36.4450   24.6480 C   0  0  0  0  0  3  0  0  0  0  0  0
  -27.5870  -37.4240   25.4680 C   0  0  0  0  0  1  0  0  0  0  0  0
  -26.4780  -37.5400   24.5260 N   0  0  0  0  0  0  0  0  0  0  0  0
  -26.0330  -38.4430   24.6700 H   0  0  0  0  0  0  0  0  0  0  0  0
  -31.4810  -17.0530   19.5840 C   0  0  0  0  0  3  0  0  0  0  0  0
  -31.6980  -14.8110   20.6170 C   0  0  0  0  0  0  0  0  0  0  0  0
  -31.4750  -12.4240   20.1430 C   0  0  0  0  0  2  0  0  0  0  0  0
  -30.7110  -12.2820   18.8100 C   0  0  0  0  0  2  0  0  0  0  0  0
  -29.1910  -12.2540   19.0610 C   0  0  0  0  0  2  0  0  0  0  0  0
  -28.7100  -13.4100   19.9780 C   0  0  0  0  0  3  0  0  0  0  0  0
  -29.6090  -13.5500   21.2300 C   0  0  0  0  0  2  0  0  0  0  0  0
  -31.0020  -13.6590   20.7780 N   0  0  0  0  0  0  0  0  0  0  0  0
  -32.9150  -14.8390   20.4350 O   0  0  0  0  0  0  0  0  0  0  0  0
  -30.9480  -15.8890   20.3190 N   0  0  0  0  0  0  0  0  0  0  0  0
  -29.9540  -15.8090   20.4600 H   0  0  0  0  0  0  0  0  0  0  0  0
  -26.3390  -14.2320   20.5400 C   0  0  0  0  0  0  0  0  0  0  0  0
  -25.1710  -13.5610   20.7830 C   0  0  0  0  0  0  0  0  0  0  0  0
  -25.4920  -12.1720   20.7030 C   0  0  0  0  0  0  0  0  0  0  0  0
  -27.3030  -13.2580   20.3360 N   0  0  0  0  0  0  0  0  0  0  0  0
  -26.7920  -12.0110   20.4940 N   0  0  0  0  0  0  0  0  0  0  0  0
  -24.6270  -10.9860   20.7560 C   0  0  0  0  0  0  0  0  0  0  0  0
  -24.9410   -9.8780   21.5730 C   0  0  0  0  0  3  0  0  0  0  0  0
  -24.0840   -8.7580   21.6210 C   0  0  0  0  0  3  0  0  0  0  0  0
  -22.8980   -8.7400   20.8500 C   0  0  0  0  0  0  0  0  0  0  0  0
  -22.6020   -9.8350   20.0190 C   0  0  0  0  0  3  0  0  0  0  0  0
  -23.4580  -10.9470   19.9690 C   0  0  0  0  0  3  0  0  0  0  0  0
  -22.0190   -7.6850   20.8130 O   0  0  0  0  0  0  0  0  0  0  0  0
  -21.8730   -6.8330   21.8790 C   0  0  0  0  0  0  0  0  0  0  0  0
  -21.6170   -7.3080   23.1830 C   0  0  0  0  0  3  0  0  0  0  0  0
  -21.4050   -6.3970   24.2360 C   0  0  0  0  0  3  0  0  0  0  0  0
  -21.4390   -5.0110   23.9870 C   0  0  0  0  0  0  0  0  0  0  0  0
  -21.6880   -4.5360   22.6860 C   0  0  0  0  0  3  0  0  0  0  0  0
  -21.9010   -5.4450   21.6360 C   0  0  0  0  0  0  0  0  0  0  0  0
  -22.1200   -4.9820   20.3810 F   0  0  0  0  0  0  0  0  0  0  0  0
  -21.2270   -4.1340   24.9960 F   0  0  0  0  0  0  0  0  0  0  0  0
  -23.8130  -14.1730   20.9720 C   0  0  0  0  0  0  0  0  0  0  0  0
  -22.9860  -13.5730   21.8220 N   0  0  0  0  0  0  0  0  0  0  0  0
  -23.4960  -15.2140   20.4000 O   0  0  0  0  0  0  0  0  0  0  0  0
  -23.2570  -12.7290   22.3050 H   0  0  0  0  0  0  0  0  0  0  0  0
  -22.0710  -13.9640   21.9920 H   0  0  0  0  0  0  0  0  0  0  0  0
  -26.6550  -15.5840   20.4460 N   0  0  0  0  0  0  0  0  0  0  0  0
  -25.9040  -16.2650   20.4230 H   0  0  0  0  0  0  0  0  0  0  0  0
  -27.4780  -15.8840   19.9450 H   0  0  0  0  0  0  0  0  0  0  0  0
  -31.7370  -16.7280   18.0800 C   0  0  0  0  0  2  0  0  0  0  0  0
  -33.1730  -17.0590   17.6380 C   0  0  0  0  0  2  0  0  0  0  0  0
  -33.4580  -16.6580   16.1790 C   0  0  0  0  0  2  0  0  0  0  0  0
  -34.9430  -16.7680   15.7820 C   0  0  0  0  0  2  0  0  0  0  0  0
  -35.4180  -18.1620   15.7290 N   0  0  0  0  0  4  0  0  0  0  0  0
  -34.8610  -18.7090   15.0990 H   0  0  0  0  0  0  0  0  0  0  0  0
  -36.3670  -18.1810   15.3990 H   0  0  0  0  0  0  0  0  0  0  0  0
  -35.4000  -18.5860   16.6380 H   0  0  0  0  0  0  0  0  0  0  0  0
  1  2  1  0
  3  6  1  0
  3  4  1  0
  4 62  1  0
  4  1  1  0
  5  9  1  0
  5  2  1  0
  6  5  1  0
  7  6  1  0
  8  6  1  0
 10 13  1  0
 11 10  1  0
 12 15  1  0
 12 14  1  0
 14 16  1  0
 15 11  1  0
 15  9  1  0
 16 17  1  1
 16 13  1  0
 16 18  1  0
 19 18  1  0
 19 20  1  0
 21 20  1  0
 22 33  2  0
 23 21  1  0
 23 28  1  0
 24 34  1  0
 24 32  1  0
 25 31  1  0
 25 27  1  0
 26 32  1  0
 27 28  2  0
 27 26  1  0
 29 23  2  0
 30 29  1  0
 30 25  2  0
 31 24  1  0
 32 22  1  0
 34 36  2  0
 35 34  1  0
 37 35  1  0
 38 47  2  0
 38 43  1  0
 39 35  1  0
 40 39  1  0
 41 42  1  0
 41 40  1  0
 42 38  1  0
 43 39  1  0
 43 44  2  0
 45 44  1  0
 46 45  2  0
 47 46  1  0
 48 22  1  0
 48 53  1  0
 48 49  1  0
 49 50  1  1
 49 52  1  0
 51 49  1  0
 53 56  1  0
 54 58  1  0
 54 53  1  0
 55 54  2  0
 58 57  1  0
 60 58  1  0
 60 61  1  0
 60 59  1  0
 62101  1  0
 62 71  1  0
 63 69  1  0
 64 69  1  0
 65 66  1  0
 65 64  1  0
 67 66  1  0
 67 76  1  0
 67 68  1  0
 69 68  1  0
 70 63  2  0
 71 72  1  0
 71 63  1  0
 73 74  2  0
 74 93  1  0
 75 78  1  0
 75 74  1  0
 76 77  1  0
 76 73  1  0
 77 75  2  0
 78 79  1  0
 79 80  2  0
 81 80  1  0
 82 81  2  0
 83 82  1  0
 83 78  2  0
 84 81  1  0
 84 85  1  0
 85 86  1  0
 86 87  2  0
 88 87  1  0
 88 92  1  0
 89 88  2  0
 90 85  2  0
 90 89  1  0
 91 90  1  0
 93 94  1  0
 94 97  1  0
 94 96  1  0
 95 93  2  0
 98 73  1  0
 99 98  1  0
100 98  1  0
102101  1  0
103102  1  0
104103  1  0
105104  1  0
105108  1  0
106105  1  0
107105  1  0
M  ISO  4  20 101  21 101  63 100  71 100
M  END
>  <TORSDO>  (81) 
F 27

>  <SCORE>  (81) 
-9.244

>  <name>  (81) 
81

>  <ligand_id>  (81) 
81

>  <original_smiles>  (81) 
[H]c1c([H])c([H])c2c(c1[H])C([H])([H])C([H])([H])C([H])([H])C2([H])N([H])C(=O)C1([H])N(C(=O)C([H])(N([H])C(=O)C([H])(N([H])C([H])([H])[H])C([H])([H])[H])C(C([H])([H])[H])(C([H])([H])[H])C([H])([H])[H])C([H])([H])c2c([H])c(OC([H])([H])C([H])([H])C([H])([H])[N+]3([H])C([H])([H])C([H])([H])C([H])([H])C([H])(C([H])([H])C4([H])C([H])([H])C([H])([H])C([H])(C([H])(N([H])C(=O)N5C([H])([H])C([H])([H])C([H])([H])C([H])(n6nc(-c7c([H])c([H])c(Oc8c([H])c([H])c(F)c([H])c8F)c([H])c7[H])c(C(=O)N([H])[H])c6N([H])[H])C5([H])[H])C([H])([H])C([H])([H])C([H])([H])C([H])([H])[N+]([H])([H])[H])C([H])([H])[N+]4([H])[H])C([H])([H])C3([H])[H])c([H])c([H])c2C1([H])[H]

>  <smiles>  (81) 
[H]c1c([H])c([H])c2c(c1[H])C([H])([H])C([H])([H])C([H])([H])C2([H])N([H])C(=O)C1([H])N(C(=O)C([H])(N([H])C(=O)C([H])(N([H])C([H])([H])[H])C([H])([H])[H])C(C([H])([H])[H])(C([H])([H])[H])C([H])([H])[H])C([H])([H])c2c([H])c(OC([H])([H])C([H])([H])C([H])([H])[N+]3([H])C([H])([H])C([H])([H])C([H])([H])C([H])(C([H])([H])C4([H])C([H])([H])C([H])([H])C([H])(C([H])(N([H])C(=O)N5C([H])([H])C([H])([H])C([H])([H])C([H])(n6nc(-c7c([H])c([H])c(Oc8c([H])c([H])c(F)c([H])c8F)c([H])c7[H])c(C(=O)N([H])[H])c6N([H])[H])C5([H])[H])C([H])([H])C([H])([H])C([H])([H])C([H])([H])[N+]([H])([H])[H])C([H])([H])[N+]4([H])[H])C([H])([H])C3([H])[H])c([H])c([H])c2C1([H])[H]

$$$$
82:0:0
     RDKit          3D

 98107  0  0  1  0  0  0  0  0999 V2000
  -29.3760  -24.3660   19.6230 C   0  0  0  0  0  2  0  0  0  0  0  0
  -30.2850  -23.1250   19.6180 C   0  0  0  0  0  2  0  0  0  0  0  0
  -29.0950  -24.0320   22.1310 C   0  0  0  0  0  2  0  0  0  0  0  0
  -29.3810  -25.0550   21.0020 C   0  0  0  0  0  3  0  0  0  0  0  0
  -29.8690  -22.1500   20.7380 C   0  0  0  0  0  3  0  0  0  0  0  0
  -29.9590  -22.8350   22.0470 N   0  0  0  0  0  4  0  0  0  0  0  0
  -29.6820  -22.2000   22.7780 H   0  0  0  0  0  0  0  0  0  0  0  0
  -30.9130  -23.1060   22.2260 H   0  0  0  0  0  0  0  0  0  0  0  0
  -30.6910  -20.8390   20.7300 C   0  0  0  0  0  2  0  0  0  0  0  0
  -29.3290  -18.8030   20.1580 C   0  0  0  0  0  3  0  0  0  0  0  0
  -29.5760  -17.5030   19.9390 C   0  0  0  0  0  3  0  0  0  0  0  0
  -30.4580  -17.2680   22.2650 C   0  0  0  0  0  2  0  0  0  0  0  0
  -29.9350  -19.6140   21.3040 C   0  0  0  0  0  3  0  0  0  0  0  0
  -30.4640  -16.6820   20.8470 C   0  0  0  0  0  3  0  0  0  0  0  0
  -30.8640  -18.7560   22.2230 C   0  0  0  0  0  3  0  0  0  0  0  0
  -30.6100  -14.3490   20.0270 C   0  0  0  0  0  0  0  0  0  0  0  0
  -30.2850  -12.1720   18.9340 C   0  0  0  0  0  2  0  0  0  0  0  0
  -29.2440  -12.3040   17.8050 C   0  0  0  0  0  2  0  0  0  0  0  0
  -27.8190  -12.1090   18.3550 C   0  0  0  0  0  2  0  0  0  0  0  0
  -27.5410  -12.9730   19.6150 C   0  0  0  0  0  3  0  0  0  0  0  0
  -28.6880  -12.8330   20.6430 C   0  0  0  0  0  2  0  0  0  0  0  0
  -29.9570  -13.1610   19.9700 N   0  0  0  0  0  0  0  0  0  0  0  0
  -31.6030  -14.6030   19.3400 O   0  0  0  0  0  0  0  0  0  0  0  0
  -30.0670  -15.2750   20.8300 N   0  0  0  0  0  0  0  0  0  0  0  0
  -29.2590  -15.0000   21.3690 H   0  0  0  0  0  0  0  0  0  0  0  0
  -25.2000  -13.4910   20.5530 C   0  0  0  0  0  0  0  0  0  0  0  0
  -24.1920  -12.6770   20.9960 C   0  0  0  0  0  0  0  0  0  0  0  0
  -24.6840  -11.3420   20.8820 C   0  0  0  0  0  0  0  0  0  0  0  0
  -26.2430  -12.6480   20.2040 N   0  0  0  0  0  0  0  0  0  0  0  0
  -25.9390  -11.3490   20.4540 N   0  0  0  0  0  0  0  0  0  0  0  0
  -24.0130  -10.0540   21.1010 C   0  0  0  0  0  0  0  0  0  0  0  0
  -24.4870   -9.1270   22.0560 C   0  0  0  0  0  3  0  0  0  0  0  0
  -23.8150   -7.9030   22.2610 C   0  0  0  0  0  3  0  0  0  0  0  0
  -22.6560   -7.5960   21.5100 C   0  0  0  0  0  0  0  0  0  0  0  0
  -22.2020   -8.5110   20.5430 C   0  0  0  0  0  3  0  0  0  0  0  0
  -22.8750   -9.7260   20.3370 C   0  0  0  0  0  3  0  0  0  0  0  0
  -21.9530   -6.4210   21.6230 O   0  0  0  0  0  0  0  0  0  0  0  0
  -21.8600   -5.7480   22.8160 C   0  0  0  0  0  0  0  0  0  0  0  0
  -21.2980   -6.3460   23.9650 C   0  0  0  0  0  3  0  0  0  0  0  0
  -21.1590   -5.5960   25.1500 C   0  0  0  0  0  3  0  0  0  0  0  0
  -21.5710   -4.2510   25.1870 C   0  0  0  0  0  0  0  0  0  0  0  0
  -22.1260   -3.6540   24.0410 C   0  0  0  0  0  3  0  0  0  0  0  0
  -22.2670   -4.4000   22.8580 C   0  0  0  0  0  0  0  0  0  0  0  0
  -22.7830   -3.8130   21.7510 F   0  0  0  0  0  0  0  0  0  0  0  0
  -21.4300   -3.5280   26.3220 F   0  0  0  0  0  0  0  0  0  0  0  0
  -22.8130  -13.1050   21.4130 C   0  0  0  0  0  0  0  0  0  0  0  0
  -22.1920  -12.3640   22.3240 N   0  0  0  0  0  0  0  0  0  0  0  0
  -22.3000  -14.1300   20.9680 O   0  0  0  0  0  0  0  0  0  0  0  0
  -22.6230  -11.5350   22.7060 H   0  0  0  0  0  0  0  0  0  0  0  0
  -21.2730  -12.6310   22.6470 H   0  0  0  0  0  0  0  0  0  0  0  0
  -25.3110  -14.8710   20.4030 N   0  0  0  0  0  0  0  0  0  0  0  0
  -24.5440  -15.5020   20.6050 H   0  0  0  0  0  0  0  0  0  0  0  0
  -26.1240  -15.3420   20.0260 H   0  0  0  0  0  0  0  0  0  0  0  0
  -30.9470  -19.3230   23.6320 C   0  0  0  0  0  3  0  0  0  0  0  0
  -31.9500  -19.9500   24.0790 N   0  0  0  0  0  0  0  0  0  0  0  0
  -32.6880  -20.0240   23.3870 H   0  0  0  0  0  0  0  0  0  0  0  0
  -28.3350  -26.1780   21.0800 C   0  0  0  0  0  2  0  0  0  0  0  0
  -28.4030  -27.1150   20.0050 O   0  0  0  0  0  0  0  0  0  0  0  0
  -24.5860  -32.0510   23.3320 C   0  0  0  0  0  0  0  0  0  0  0  0
  -27.2530  -27.8560   19.9850 C   0  0  0  0  0  0  0  0  0  0  0  0
  -23.3670  -30.6940   21.6590 C   0  0  0  0  0  3  0  0  0  0  0  0
  -24.8190  -29.2650   20.1220 C   0  0  0  0  0  0  0  0  0  0  0  0
  -25.8710  -31.1360   21.4090 C   0  0  0  0  0  2  0  0  0  0  0  0
  -25.9740  -29.8020   20.7030 C   0  0  0  0  0  0  0  0  0  0  0  0
  -27.1970  -29.1040   20.6350 C   0  0  0  0  0  3  0  0  0  0  0  0
  -26.0890  -27.3220   19.3940 C   0  0  0  0  0  3  0  0  0  0  0  0
  -24.8680  -28.0210   19.4640 C   0  0  0  0  0  3  0  0  0  0  0  0
  -23.5520  -30.0800   20.2430 C   0  0  0  0  0  2  0  0  0  0  0  0
  -24.6270  -31.3060   22.1920 N   0  0  0  0  0  0  0  0  0  0  0  0
  -23.5140  -32.2730   23.9130 O   0  0  0  0  0  0  0  0  0  0  0  0
  -22.7680  -29.6160   22.5900 C   0  0  0  0  0  0  0  0  0  0  0  0
  -21.4600  -29.3540   22.4340 N   0  0  0  0  0  0  0  0  0  0  0  0
  -23.4750  -29.0200   23.4060 O   0  0  0  0  0  0  0  0  0  0  0  0
  -20.9490  -29.8930   21.7480 H   0  0  0  0  0  0  0  0  0  0  0  0
  -18.1800  -27.8770   22.7690 C   0  0  0  0  0  0  0  0  0  0  0  0
  -20.6890  -28.3540   23.1710 C   0  0  0  0  0  3  0  0  0  0  0  0
  -20.9430  -26.9350   22.6140 C   0  0  0  0  0  2  0  0  0  0  0  0
  -19.9270  -26.5130   21.5480 C   0  0  0  0  0  2  0  0  0  0  0  0
  -18.5060  -26.5440   22.1180 C   0  0  0  0  0  2  0  0  0  0  0  0
  -19.2060  -28.7350   23.2490 C   0  0  0  0  0  0  0  0  0  0  0  0
  -18.8500  -29.9790   23.8120 C   0  0  0  0  0  3  0  0  0  0  0  0
  -17.5010  -30.3690   23.9040 C   0  0  0  0  0  3  0  0  0  0  0  0
  -16.4890  -29.5100   23.4430 C   0  0  0  0  0  3  0  0  0  0  0  0
  -16.8290  -28.2660   22.8800 C   0  0  0  0  0  3  0  0  0  0  0  0
  -25.8750  -32.6810   23.9460 C   0  0  0  0  0  3  0  0  0  0  0  0
  -26.3990  -31.9130   25.2200 C   0  0  1  0  0  0  0  0  0  0  0  0
  -25.3060  -31.6590   26.2860 C   0  0  0  0  0  1  0  0  0  0  0  0
  -26.9990  -30.5430   24.8210 C   0  0  0  0  0  1  0  0  0  0  0  0
  -27.5400  -32.7180   25.8870 C   0  0  0  0  0  1  0  0  0  0  0  0
  -25.5720  -34.0810   24.2700 N   0  0  0  0  0  0  0  0  0  0  0  0
  -25.8990  -35.1280   23.5000 C   0  0  0  0  0  0  0  0  0  0  0  0
  -26.5610  -35.0180   22.4640 O   0  0  0  0  0  0  0  0  0  0  0  0
  -24.9850  -34.2420   25.0750 H   0  0  0  0  0  0  0  0  0  0  0  0
  -24.1690  -36.9160   23.1440 C   0  0  0  0  0  1  0  0  0  0  0  0
  -25.4140  -36.5190   23.9500 C   0  0  0  0  0  3  0  0  0  0  0  0
  -27.5510  -37.4130   24.7670 C   0  0  0  0  0  1  0  0  0  0  0  0
  -26.4460  -37.5710   23.8240 N   0  0  0  0  0  0  0  0  0  0  0  0
  -26.0400  -38.4920   23.9640 H   0  0  0  0  0  0  0  0  0  0  0  0
  1  4  1  0
  2  1  1  0
  2  5  1  0
  4 57  1  0
  4  3  1  0
  5  9  1  0
  5  6  1  0
  6  3  1  0
  6  8  1  0
  6  7  1  0
 10 13  1  0
 11 10  2  0
 11 14  1  0
 13  9  1  0
 13 15  1  0
 14 24  1  0
 14 12  1  0
 15 12  1  0
 15 54  1  0
 16 24  1  0
 17 22  1  0
 18 19  1  0
 18 17  1  0
 20 19  1  0
 20 29  1  0
 20 21  1  0
 22 16  1  0
 22 21  1  0
 23 16  2  0
 24 25  1  0
 26 27  2  0
 27 46  1  0
 28 27  1  0
 28 31  1  0
 29 30  1  0
 29 26  1  0
 30 28  2  0
 31 32  1  0
 32 33  2  0
 34 37  1  0
 34 33  1  0
 35 34  2  0
 36 35  1  0
 36 31  2  0
 37 38  1  0
 38 43  2  0
 38 39  1  0
 39 40  2  0
 40 41  1  0
 41 45  1  0
 42 41  2  0
 43 42  1  0
 44 43  1  0
 46 47  1  0
 47 50  1  0
 47 49  1  0
 48 46  2  0
 51 26  1  0
 51 52  1  0
 53 51  1  0
 54 55  2  0
 56 55  1  0
 58 57  1  0
 59 70  2  0
 60 58  1  0
 60 65  1  0
 61 69  1  0
 61 71  1  0
 62 68  1  0
 62 64  1  0
 63 69  1  0
 64 63  1  0
 65 64  2  0
 66 67  1  0
 66 60  2  0
 67 62  2  0
 68 61  1  0
 69 59  1  0
 71 73  2  0
 72 71  1  0
 74 72  1  0
 75 84  2  0
 75 80  1  0
 76 72  1  0
 76 80  1  0
 77 76  1  0
 78 79  1  0
 78 77  1  0
 79 75  1  0
 80 81  2  0
 81 82  1  0
 83 82  2  0
 84 83  1  0
 85 59  1  0
 85 90  1  0
 85 86  1  0
 86 89  1  1
 86 87  1  0
 88 86  1  0
 90 93  1  0
 91 95  1  0
 91 90  1  0
 92 91  2  0
 95 94  1  0
 97 95  1  0
 97 98  1  0
 97 96  1  0
M  ISO  4  16 100  24 100  57 101  58 101
M  END
>  <TORSDO>  (82) 
F 20

>  <SCORE>  (82) 
-12.876

>  <name>  (82) 
82

>  <ligand_id>  (82) 
82

>  <original_smiles>  (82) 
[H]N=C([H])C1([H])C([H])([H])C([H])(N([H])C(=O)N2C([H])([H])C([H])([H])C([H])([H])C([H])(n3nc(-c4c([H])c([H])c(Oc5c([H])c([H])c(F)c([H])c5F)c([H])c4[H])c(C(=O)N([H])[H])c3N([H])[H])C2([H])[H])C([H])=C([H])C1([H])C([H])([H])C1([H])C([H])([H])C([H])([H])C([H])(C([H])([H])Oc2c([H])c([H])c3c(c2[H])C([H])([H])N(C(=O)C([H])(N([H])C(=O)C([H])(N([H])C([H])([H])[H])C([H])([H])[H])C(C([H])([H])[H])(C([H])([H])[H])C([H])([H])[H])C([H])(C(=O)N([H])C2([H])c4c([H])c([H])c([H])c([H])c4C([H])([H])C([H])([H])C2([H])[H])C3([H])[H])C([H])([H])[N+]1([H])[H]

>  <smiles>  (82) 
[H]N=C([H])C1([H])C([H])([H])C([H])(N([H])C(=O)N2C([H])([H])C([H])([H])C([H])([H])C([H])(n3nc(-c4c([H])c([H])c(Oc5c([H])c([H])c(F)c([H])c5F)c([H])c4[H])c(C(=O)N([H])[H])c3N([H])[H])C2([H])[H])C([H])=C([H])C1([H])C([H])([H])C1([H])C([H])([H])C([H])([H])C([H])(C([H])([H])Oc2c([H])c([H])c3c(c2[H])C([H])([H])N(C(=O)C([H])(N([H])C(=O)C([H])(N([H])C([H])([H])[H])C([H])([H])[H])C(C([H])([H])[H])(C([H])([H])[H])C([H])([H])[H])C([H])(C(=O)N([H])C2([H])c4c([H])c([H])c([H])c([H])c4C([H])([H])C([H])([H])C2([H])[H])C3([H])[H])C([H])([H])[N+]1([H])[H]

$$$$
83:0:0
     RDKit          3D

 97106  0  0  1  0  0  0  0  0999 V2000
  -30.2980  -22.4680   19.8360 C   0  0  0  0  0  2  0  0  0  0  0  0
  -28.2980  -23.0720   18.4410 C   0  0  0  0  0  2  0  0  0  0  0  0
  -30.9370  -23.8180   19.4630 C   0  0  0  0  0  2  0  0  0  0  0  0
  -28.9910  -24.4020   18.0860 C   0  0  0  0  0  2  0  0  0  0  0  0
  -29.3170  -21.9610   18.7610 C   0  0  0  0  0  3  0  0  0  0  0  0
  -29.8990  -24.8430   19.1780 N   0  0  2  0  0  4  0  0  0  0  0  0
  -29.3390  -24.9200   20.0150 H   0  0  0  0  0  0  0  0  0  0  0  0
  -28.6280  -20.6510   19.2150 C   0  0  0  0  0  2  0  0  0  0  0  0
  -28.3970  -18.1510   18.9590 C   0  0  0  0  0  0  0  0  0  0  0  0
  -27.0340  -17.8050   18.4020 C   0  0  0  0  0  2  0  0  0  0  0  0
  -26.7220  -18.8530   17.3260 C   0  0  0  0  0  2  0  0  0  0  0  0
  -28.0650  -19.5080   16.9940 C   0  0  0  0  0  2  0  0  0  0  0  0
  -28.8810  -19.4330   18.2930 C   0  0  0  0  0  3  0  0  0  0  0  0
  -28.9920  -17.4370   19.8340 N   0  0  0  0  0  0  0  0  0  0  0  0
  -30.3440  -17.7740   20.2670 C   0  0  0  0  0  2  0  0  0  0  0  0
  -30.6720  -17.0950   21.6150 C   0  0  0  0  0  2  0  0  0  0  0  0
  -31.0300  -14.7550   20.8810 C   0  0  0  0  0  0  0  0  0  0  0  0
  -30.7520  -12.7160   19.5370 C   0  0  0  0  0  2  0  0  0  0  0  0
  -29.8550  -13.0290   18.3210 C   0  0  0  0  0  2  0  0  0  0  0  0
  -28.3650  -12.8840   18.6850 C   0  0  0  0  0  2  0  0  0  0  0  0
  -27.9910  -13.6240   19.9970 C   0  0  0  0  0  3  0  0  0  0  0  0
  -28.9970  -13.2860   21.1180 C   0  0  0  0  0  2  0  0  0  0  0  0
  -30.3510  -13.6080   20.6330 N   0  0  0  0  0  0  0  0  0  0  0  0
  -32.1410  -15.0100   20.4020 O   0  0  0  0  0  0  0  0  0  0  0  0
  -30.3540  -15.6690   21.5840 N   0  0  0  0  0  0  0  0  0  0  0  0
  -29.4410  -15.4010   21.9180 H   0  0  0  0  0  0  0  0  0  0  0  0
  -25.5490  -14.1970   20.5780 C   0  0  0  0  0  0  0  0  0  0  0  0
  -24.4700  -13.4110   20.8820 C   0  0  0  0  0  0  0  0  0  0  0  0
  -24.9510  -12.0660   20.8730 C   0  0  0  0  0  0  0  0  0  0  0  0
  -26.6170  -13.3330   20.3990 N   0  0  0  0  0  0  0  0  0  0  0  0
  -26.2560  -12.0450   20.6340 N   0  0  0  0  0  0  0  0  0  0  0  0
  -24.2350  -10.7920   21.0260 C   0  0  0  0  0  0  0  0  0  0  0  0
  -24.6000   -9.8570   22.0170 C   0  0  0  0  0  3  0  0  0  0  0  0
  -23.8860   -8.6460   22.1570 C   0  0  0  0  0  3  0  0  0  0  0  0
  -22.7930   -8.3650   21.3040 C   0  0  0  0  0  0  0  0  0  0  0  0
  -22.4460   -9.2920   20.3060 C   0  0  0  0  0  3  0  0  0  0  0  0
  -23.1620  -10.4920   20.1640 C   0  0  0  0  0  3  0  0  0  0  0  0
  -22.0590   -7.2040   21.3470 O   0  0  0  0  0  0  0  0  0  0  0  0
  -21.8750   -6.5120   22.5170 C   0  0  0  0  0  0  0  0  0  0  0  0
  -21.2240   -7.0890   23.6290 C   0  0  0  0  0  3  0  0  0  0  0  0
  -20.9920   -6.3190   24.7860 C   0  0  0  0  0  3  0  0  0  0  0  0
  -21.4030   -4.9750   24.8320 C   0  0  0  0  0  0  0  0  0  0  0  0
  -22.0460   -4.3970   23.7240 C   0  0  0  0  0  3  0  0  0  0  0  0
  -22.2790   -5.1640   22.5700 C   0  0  0  0  0  0  0  0  0  0  0  0
  -22.8800   -4.5950   21.4960 F   0  0  0  0  0  0  0  0  0  0  0  0
  -21.1760   -4.2330   25.9420 F   0  0  0  0  0  0  0  0  0  0  0  0
  -23.0550  -13.8710   21.0820 C   0  0  0  0  0  0  0  0  0  0  0  0
  -22.2920  -13.1620   21.9070 N   0  0  0  0  0  0  0  0  0  0  0  0
  -22.6330  -14.8930   20.5440 O   0  0  0  0  0  0  0  0  0  0  0  0
  -22.6480  -12.3370   22.3670 H   0  0  0  0  0  0  0  0  0  0  0  0
  -21.3390  -13.4480   22.0810 H   0  0  0  0  0  0  0  0  0  0  0  0
  -25.7090  -15.5690   20.4270 N   0  0  0  0  0  0  0  0  0  0  0  0
  -24.9380  -16.2200   20.5060 H   0  0  0  0  0  0  0  0  0  0  0  0
  -26.5940  -16.0180   20.2200 H   0  0  0  0  0  0  0  0  0  0  0  0
  -30.4790  -26.1990   18.9750 C   0  0  0  0  0  2  0  0  0  0  0  0
  -29.4240  -27.3130   19.0770 C   0  0  0  0  0  2  0  0  0  0  0  0
  -28.6750  -27.1170   20.2750 O   0  0  0  0  0  0  0  0  0  0  0  0
  -24.5450  -31.9920   23.4050 C   0  0  0  0  0  0  0  0  0  0  0  0
  -27.4750  -27.7780   20.2890 C   0  0  0  0  0  0  0  0  0  0  0  0
  -23.4490  -30.5910   21.6820 C   0  0  0  0  0  3  0  0  0  0  0  0
  -25.0120  -29.1450   20.2750 C   0  0  0  0  0  0  0  0  0  0  0  0
  -25.9570  -31.0590   21.5790 C   0  0  0  0  0  2  0  0  0  0  0  0
  -26.1200  -29.7060   20.9210 C   0  0  0  0  0  0  0  0  0  0  0  0
  -27.3540  -29.0230   20.9400 C   0  0  0  0  0  3  0  0  0  0  0  0
  -26.3530  -27.2130   19.6510 C   0  0  0  0  0  3  0  0  0  0  0  0
  -25.1190  -27.8930   19.6410 C   0  0  0  0  0  3  0  0  0  0  0  0
  -23.7300  -29.9470   20.2960 C   0  0  0  0  0  2  0  0  0  0  0  0
  -24.6660  -31.2280   22.2840 N   0  0  0  0  0  0  0  0  0  0  0  0
  -23.4370  -32.2110   23.9150 O   0  0  0  0  0  0  0  0  0  0  0  0
  -22.8010  -29.5270   22.5950 C   0  0  0  0  0  0  0  0  0  0  0  0
  -21.4970  -29.2810   22.3920 N   0  0  0  0  0  0  0  0  0  0  0  0
  -23.4730  -28.9230   23.4360 O   0  0  0  0  0  0  0  0  0  0  0  0
  -21.0180  -29.8230   21.6870 H   0  0  0  0  0  0  0  0  0  0  0  0
  -18.1660  -27.9150   22.6820 C   0  0  0  0  0  0  0  0  0  0  0  0
  -20.6890  -28.2900   23.1010 C   0  0  0  0  0  3  0  0  0  0  0  0
  -20.8930  -26.8770   22.5070 C   0  0  0  0  0  2  0  0  0  0  0  0
  -19.8660  -26.5230   21.4280 C   0  0  0  0  0  2  0  0  0  0  0  0
  -18.4460  -26.5880   21.9970 C   0  0  0  0  0  2  0  0  0  0  0  0
  -19.2210  -28.7220   23.1860 C   0  0  0  0  0  0  0  0  0  0  0  0
  -18.9100  -29.9630   23.7830 C   0  0  0  0  0  3  0  0  0  0  0  0
  -17.5760  -30.3990   23.8820 C   0  0  0  0  0  3  0  0  0  0  0  0
  -16.5340  -29.5900   23.3950 C   0  0  0  0  0  3  0  0  0  0  0  0
  -16.8300  -28.3490   22.8020 C   0  0  0  0  0  3  0  0  0  0  0  0
  -25.7860  -32.6480   24.0880 C   0  0  0  0  0  3  0  0  0  0  0  0
  -25.4550  -34.0540   24.3520 N   0  0  0  0  0  0  0  0  0  0  0  0
  -25.8500  -35.0840   23.5930 C   0  0  0  0  0  0  0  0  0  0  0  0
  -26.6040  -34.9500   22.6240 O   0  0  0  0  0  0  0  0  0  0  0  0
  -24.7920  -34.2300   25.0940 H   0  0  0  0  0  0  0  0  0  0  0  0
  -24.1730  -36.8700   23.0240 C   0  0  0  0  0  1  0  0  0  0  0  0
  -25.3260  -36.4830   23.9640 C   0  0  0  0  0  3  0  0  0  0  0  0
  -27.3690  -37.3870   24.9850 C   0  0  0  0  0  1  0  0  0  0  0  0
  -26.3700  -37.5320   23.9280 N   0  0  0  0  0  0  0  0  0  0  0  0
  -25.9540  -38.4560   24.0120 H   0  0  0  0  0  0  0  0  0  0  0  0
  -26.2240  -31.9160   25.4140 C   0  0  1  0  0  0  0  0  0  0  0  0
  -25.0650  -31.6880   26.4120 C   0  0  0  0  0  1  0  0  0  0  0  0
  -26.8490  -30.5370   25.0920 C   0  0  0  0  0  1  0  0  0  0  0  0
  -27.3180  -32.7400   26.1330 C   0  0  0  0  0  1  0  0  0  0  0  0
  2  5  1  0
  3  1  1  0
  4  2  1  0
  4  6  1  0
  5  8  1  0
  5  1  1  0
  6  3  1  0
  6  7  1  1
  9 14  2  0
 10  9  1  0
 11 10  1  0
 12 11  1  0
 12 13  1  0
 13  9  1  0
 13  8  1  0
 14 15  1  0
 15 16  1  0
 17 25  1  0
 18 23  1  0
 19 20  1  0
 19 18  1  0
 21 20  1  0
 21 30  1  0
 21 22  1  0
 23 17  1  0
 23 22  1  0
 24 17  2  0
 25 16  1  0
 25 26  1  0
 27 28  2  0
 28 47  1  0
 29 28  1  0
 29 32  1  0
 30 27  1  0
 30 31  1  0
 31 29  2  0
 32 33  1  0
 33 34  2  0
 35 38  1  0
 35 34  1  0
 36 35  2  0
 37 36  1  0
 37 32  2  0
 38 39  1  0
 39 44  2  0
 39 40  1  0
 40 41  2  0
 41 42  1  0
 42 46  1  0
 43 42  2  0
 44 43  1  0
 45 44  1  0
 47 48  1  0
 48 51  1  0
 48 50  1  0
 49 47  2  0
 52 53  1  0
 52 27  1  0
 54 52  1  0
 55 56  1  0
 55  6  1  0
 56 57  1  0
 57 59  1  0
 58 69  2  0
 59 64  1  0
 60 68  1  0
 60 70  1  0
 61 67  1  0
 61 63  1  0
 62 68  1  0
 63 64  2  0
 63 62  1  0
 65 59  2  0
 66 65  1  0
 66 61  2  0
 67 60  1  0
 68 58  1  0
 70 72  2  0
 71 70  1  0
 73 71  1  0
 74 83  2  0
 74 79  1  0
 75 71  1  0
 75 79  1  0
 76 75  1  0
 77 78  1  0
 77 76  1  0
 78 74  1  0
 79 80  2  0
 80 81  1  0
 82 81  2  0
 83 82  1  0
 84 58  1  0
 84 85  1  0
 84 94  1  0
 85 88  1  0
 86 90  1  0
 86 85  1  0
 87 86  2  0
 90 89  1  0
 92 90  1  0
 92 93  1  0
 92 91  1  0
 94 97  1  1
 94 95  1  0
 96 94  1  0
M  ISO  4  17 100  25 100  56 101  57 101
M  END
>  <TORSDO>  (83) 
F 22

>  <SCORE>  (83) 
-12.053

>  <name>  (83) 
83

>  <ligand_id>  (83) 
83

>  <original_smiles>  (83) 
[H]c1c([H])c([H])c2c(c1[H])C([H])([H])C([H])([H])C([H])([H])C2([H])N([H])C(=O)C1([H])N(C(=O)C([H])(N([H])C(=O)C([H])(N([H])C([H])([H])[H])C([H])([H])[H])C(C([H])([H])[H])(C([H])([H])[H])C([H])([H])[H])C([H])([H])c2c([H])c(OC([H])([H])C([H])([H])[N+]3([H])C([H])([H])C([H])([H])C([H])(C([H])([H])C4([H])C(=NC([H])([H])C([H])([H])N([H])C(=O)N5C([H])([H])C([H])([H])C([H])([H])C([H])(n6nc(-c7c([H])c([H])c(Oc8c([H])c([H])c(F)c([H])c8F)c([H])c7[H])c(C(=O)N([H])[H])c6N([H])[H])C5([H])[H])C([H])([H])C([H])([H])C4([H])[H])C([H])([H])C3([H])[H])c([H])c([H])c2C1([H])[H]

>  <smiles>  (83) 
[H]c1c([H])c([H])c2c(c1[H])C([H])([H])C([H])([H])C([H])([H])C2([H])N([H])C(=O)C1([H])N(C(=O)C([H])(N([H])C(=O)C([H])(N([H])C([H])([H])[H])C([H])([H])[H])C(C([H])([H])[H])(C([H])([H])[H])C([H])([H])[H])C([H])([H])c2c([H])c(OC([H])([H])C([H])([H])[N+]3([H])C([H])([H])C([H])([H])C([H])(C([H])([H])C4([H])C(=NC([H])([H])C([H])([H])N([H])C(=O)N5C([H])([H])C([H])([H])C([H])([H])C([H])(n6nc(-c7c([H])c([H])c(Oc8c([H])c([H])c(F)c([H])c8F)c([H])c7[H])c(C(=O)N([H])[H])c6N([H])[H])C5([H])[H])C([H])([H])C([H])([H])C4([H])[H])C([H])([H])C3([H])[H])c([H])c([H])c2C1([H])[H]

$$$$
84:0:0
     RDKit          3D

100105  0  0  1  0  0  0  0  0999 V2000
  -27.9820  -19.6750   18.0910 C   0  0  0  0  0  2  0  0  0  0  0  0
  -28.1340  -15.7010   17.4480 C   0  0  0  0  0  2  0  0  0  0  0  0
  -27.0690  -16.0640   19.6380 C   0  0  0  0  0  2  0  0  0  0  0  0
  -28.4380  -17.2310   17.3510 C   0  0  0  0  0  2  0  0  0  0  0  0
  -27.4300  -17.5840   19.6280 C   0  0  0  0  0  2  0  0  0  0  0  0
  -28.1280  -15.1890   18.9080 C   0  0  0  0  0  3  0  0  0  0  0  0
  -27.5180  -18.1670   18.1980 C   0  0  0  0  0  3  0  0  0  0  0  0
  -27.9400  -13.6260   19.1330 C   0  0  0  0  0  2  0  0  0  0  0  0
  -28.4650  -12.4840   18.1510 C   0  0  0  0  0  2  0  0  0  0  0  0
  -29.1870  -11.2370   18.5990 C   0  0  0  0  0  0  0  0  0  0  0  0
  -30.0090  -10.4010   18.9910 C   0  0  0  0  0  0  0  0  0  0  0  0
  -31.1700   -9.6400   19.6090 C   0  0  0  0  0  2  0  0  0  0  0  0
  -33.1730  -11.1250   21.4320 C   0  0  2  0  0  0  0  0  0  0  0  0
  -34.1810  -10.4250   20.3840 C   0  0  0  0  0  1  0  0  0  0  0  0
  -33.2610  -11.5200   19.1130 C   0  0  0  0  0  1  0  0  0  0  0  0
  -31.8940  -12.5110   19.7310 C   0  0  0  0  0  2  0  0  0  0  0  0
  -31.1630  -12.3860   21.3840 C   0  0  0  0  0  2  0  0  0  0  0  0
  -32.1340  -11.3990   22.6450 C   0  0  0  0  0  1  0  0  0  0  0  0
  -33.5110  -10.4470   22.0610 N   0  0  0  0  0  1  0  0  0  0  0  0
  -33.8980  -12.3110   21.4940 O   0  0  0  0  0  1  0  0  0  0  0  0
  -32.0200  -10.0860   20.8230 N   0  0  0  0  0  2  0  0  0  0  0  0
  -31.9920   -9.3270   21.4870 H   0  0  0  0  0  0  0  0  0  0  0  0
  -28.7640  -13.2160   21.7230 C   0  0  0  0  0  0  0  0  0  0  0  0
  -27.5230  -12.6600   21.8360 C   0  0  0  0  0  0  0  0  0  0  0  0
  -27.7010  -11.2500   21.7150 C   0  0  0  0  0  0  0  0  0  0  0  0
  -29.6740  -12.1980   21.5360 N   0  0  0  0  0  0  0  0  0  0  0  0
  -29.0150  -10.9870   21.6430 N   0  0  0  0  0  0  0  0  0  0  0  0
  -26.6740  -10.1750   21.6650 C   0  0  0  0  0  0  0  0  0  0  0  0
  -26.5960   -9.1580   22.6450 C   0  0  0  0  0  3  0  0  0  0  0  0
  -25.5740   -8.1800   22.6000 C   0  0  0  0  0  3  0  0  0  0  0  0
  -24.6020   -8.2060   21.5720 C   0  0  0  0  0  0  0  0  0  0  0  0
  -24.6890   -9.2060   20.5860 C   0  0  0  0  0  3  0  0  0  0  0  0
  -25.7120  -10.1730   20.6290 C   0  0  0  0  0  3  0  0  0  0  0  0
  -23.5920   -7.2800   21.4330 O   0  0  0  0  0  0  0  0  0  0  0  0
  -22.8510   -6.8460   22.5060 C   0  0  0  0  0  0  0  0  0  0  0  0
  -22.1790   -7.7510   23.3590 C   0  0  0  0  0  3  0  0  0  0  0  0
  -21.3720   -7.2640   24.4070 C   0  0  0  0  0  3  0  0  0  0  0  0
  -21.2270   -5.8790   24.6010 C   0  0  0  0  0  0  0  0  0  0  0  0
  -21.8890   -4.9760   23.7500 C   0  0  0  0  0  3  0  0  0  0  0  0
  -22.6940   -5.4590   22.7040 C   0  0  0  0  0  0  0  0  0  0  0  0
  -23.3110   -4.5840   21.8740 F   0  0  0  0  0  0  0  0  0  0  0  0
  -20.4470   -5.4110   25.6040 F   0  0  0  0  0  0  0  0  0  0  0  0
  -26.2410  -13.4190   21.9990 C   0  0  0  0  0  0  0  0  0  0  0  0
  -25.2820  -12.8570   22.7260 N   0  0  0  0  0  0  0  0  0  0  0  0
  -26.1110  -14.5520   21.5380 O   0  0  0  0  0  0  0  0  0  0  0  0
  -25.4100  -11.9490   23.1460 H   0  0  0  0  0  0  0  0  0  0  0  0
  -24.4150  -13.3520   22.8850 H   0  0  0  0  0  0  0  0  0  0  0  0
  -29.1980  -14.5300   21.8010 N   0  0  0  0  0  0  0  0  0  0  0  0
  -28.5490  -15.3060   21.8410 H   0  0  0  0  0  0  0  0  0  0  0  0
  -30.1530  -14.8210   21.6450 H   0  0  0  0  0  0  0  0  0  0  0  0
  -27.2000  -20.8280   18.8240 C   0  0  0  0  0  2  0  0  0  0  0  0
  -27.6440  -22.2860   18.4160 C   0  0  0  0  0  2  0  0  0  0  0  0
  -27.9810  -24.6580   19.3810 C   0  0  0  0  0  0  0  0  0  0  0  0
  -28.1760  -25.2310   18.1840 N   0  0  0  0  0  4  0  0  0  0  0  0
  -27.6760  -23.3270   19.4960 N   0  0  0  0  0  0  0  0  0  0  0  0
  -28.4320  -26.2080   18.1550 H   0  0  0  0  0  0  0  0  0  0  0  0
  -28.0910  -24.7400   17.3110 H   0  0  0  0  0  0  0  0  0  0  0  0
  -27.5700  -22.9770   20.4380 H   0  0  0  0  0  0  0  0  0  0  0  0
  -28.1530  -25.5400   20.6200 C   0  0  0  0  0  2  0  0  0  0  0  0
  -28.3480  -26.9760   20.3960 O   0  0  0  0  0  0  0  0  0  0  0  0
  -24.5150  -32.1180   23.6830 C   0  0  0  0  0  0  0  0  0  0  0  0
  -27.2140  -27.7710   20.4360 C   0  0  0  0  0  0  0  0  0  0  0  0
  -23.3560  -30.7820   21.9620 C   0  0  0  0  0  3  0  0  0  0  0  0
  -24.8380  -29.3170   20.4970 C   0  0  0  0  0  0  0  0  0  0  0  0
  -25.8920  -31.1410   21.8370 C   0  0  0  0  0  2  0  0  0  0  0  0
  -25.9930  -29.8000   21.1280 C   0  0  0  0  0  0  0  0  0  0  0  0
  -27.1900  -29.0360   21.0900 C   0  0  0  0  0  3  0  0  0  0  0  0
  -26.0360  -27.3220   19.8060 C   0  0  0  0  0  3  0  0  0  0  0  0
  -24.8570  -28.0820   19.8330 C   0  0  0  0  0  3  0  0  0  0  0  0
  -23.5960  -30.1740   20.5590 C   0  0  0  0  0  2  0  0  0  0  0  0
  -24.6070  -31.3600   22.5520 N   0  0  0  0  0  0  0  0  0  0  0  0
  -23.4180  -32.3610   24.2070 O   0  0  0  0  0  0  0  0  0  0  0  0
  -22.6910  -29.7130   22.8600 C   0  0  0  0  0  0  0  0  0  0  0  0
  -21.3900  -29.4660   22.6380 N   0  0  0  0  0  0  0  0  0  0  0  0
  -23.3460  -29.1100   23.7150 O   0  0  0  0  0  0  0  0  0  0  0  0
  -20.9210  -30.0070   21.9260 H   0  0  0  0  0  0  0  0  0  0  0  0
  -18.0730  -28.0390   22.8280 C   0  0  0  0  0  0  0  0  0  0  0  0
  -20.5700  -28.4780   23.3380 C   0  0  0  0  0  3  0  0  0  0  0  0
  -20.8260  -27.0540   22.7920 C   0  0  0  0  0  2  0  0  0  0  0  0
  -19.8500  -26.6480   21.6830 C   0  0  0  0  0  2  0  0  0  0  0  0
  -18.4060  -26.7010   22.1900 C   0  0  0  0  0  2  0  0  0  0  0  0
  -19.0910  -28.8790   23.3530 C   0  0  0  0  0  0  0  0  0  0  0  0
  -18.7290  -30.1280   23.9040 C   0  0  0  0  0  3  0  0  0  0  0  0
  -17.3820  -30.5390   23.9380 C   0  0  0  0  0  3  0  0  0  0  0  0
  -16.3790  -29.6960   23.4310 C   0  0  0  0  0  3  0  0  0  0  0  0
  -16.7240  -28.4480   22.8820 C   0  0  0  0  0  3  0  0  0  0  0  0
  -25.7790  -32.7330   24.3580 C   0  0  0  0  0  3  0  0  0  0  0  0
  -26.1430  -32.0500   25.7340 C   0  0  1  0  0  0  0  0  0  0  0  0
  -24.9540  -31.9620   26.7180 C   0  0  0  0  0  1  0  0  0  0  0  0
  -26.6750  -30.6160   25.5080 C   0  0  0  0  0  1  0  0  0  0  0  0
  -27.2790  -32.8390   26.4250 C   0  0  0  0  0  1  0  0  0  0  0  0
  -25.5280  -34.1690   24.5430 N   0  0  0  0  0  0  0  0  0  0  0  0
  -26.0190  -35.1340   23.7560 C   0  0  0  0  0  0  0  0  0  0  0  0
  -26.7990  -34.9080   22.8270 O   0  0  0  0  0  0  0  0  0  0  0  0
  -24.8530  -34.4220   25.2500 H   0  0  0  0  0  0  0  0  0  0  0  0
  -24.4860  -36.9960   23.0400 C   0  0  0  0  0  1  0  0  0  0  0  0
  -25.5740  -36.5820   24.0430 C   0  0  0  0  0  3  0  0  0  0  0  0
  -27.6380  -37.3900   25.1000 C   0  0  0  0  0  1  0  0  0  0  0  0
  -26.6850  -37.5560   24.0060 N   0  0  0  0  0  0  0  0  0  0  0  0
  -26.3310  -38.5090   24.0330 H   0  0  0  0  0  0  0  0  0  0  0  0
  1 51  1  0
  2  6  1  0
  4  2  1  0
  4  7  1  0
  5  3  1  0
  6  8  1  0
  6  3  1  0
  7  1  1  0
  7  5  1  0
  9 10  1  0
  9  8  1  0
 10 11  3  0
 11 12  1  0
 12 21  1  0
 13 20  1  0
 13 19  1  0
 13 18  1  6
 14 13  1  0
 15 16  1  0
 16 17  1  0
 17 26  1  0
 21 22  1  0
 23 48  1  0
 23 24  2  0
 24 43  1  0
 25 24  1  0
 26 27  1  0
 26 23  1  0
 27 25  2  0
 28 25  1  0
 28 29  1  0
 30 29  2  0
 31 30  1  0
 32 33  1  0
 32 31  2  0
 33 28  2  0
 34 31  1  0
 34 35  1  0
 35 40  2  0
 35 36  1  0
 36 37  2  0
 37 38  1  0
 38 42  1  0
 39 38  2  0
 40 39  1  0
 41 40  1  0
 43 44  1  0
 44 47  1  0
 44 46  1  0
 45 43  2  0
 48 49  1  0
 50 48  1  0
 52 51  1  0
 52 55  1  0
 53 55  1  0
 53 59  1  0
 54 53  2  0
 55 58  1  0
 56 54  1  0
 57 54  1  0
 60 62  1  0
 60 59  1  0
 61 72  2  0
 62 67  1  0
 63 71  1  0
 63 73  1  0
 64 70  1  0
 64 66  1  0
 65 71  1  0
 66 65  1  0
 67 66  2  0
 68 69  1  0
 68 62  2  0
 69 64  2  0
 70 63  1  0
 71 61  1  0
 73 75  2  0
 74 73  1  0
 76 74  1  0
 77 86  2  0
 77 82  1  0
 78 74  1  0
 78 82  1  0
 79 78  1  0
 80 81  1  0
 80 79  1  0
 81 77  1  0
 82 83  2  0
 83 84  1  0
 85 84  2  0
 86 85  1  0
 87 61  1  0
 87 92  1  0
 87 88  1  0
 88 91  1  1
 88 89  1  0
 90 88  1  0
 92 95  1  0
 93 97  1  0
 93 92  1  0
 94 93  2  0
 97 96  1  0
 99100  1  0
 99 97  1  0
 99 98  1  0
M  ISO  4  13 100  21 100  59 101  60 101
M  END
>  <TORSDO>  (84) 
F 25

>  <SCORE>  (84) 
-2.400

>  <name>  (84) 
84

>  <ligand_id>  (84) 
84

>  <original_smiles>  (84) 
[H]c1c([H])c([H])c2c(c1[H])C([H])([H])C([H])([H])C([H])([H])C2([H])N([H])C(=O)C1([H])N(C(=O)C([H])(N([H])C(=O)C([H])(N([H])C([H])([H])[H])C([H])([H])[H])C(C([H])([H])[H])(C([H])([H])[H])C([H])([H])[H])C([H])([H])c2c([H])c(OC([H])([H])C(N([H])[H])=[N+]([H])C([H])([H])C([H])([H])C([H])([H])C3([H])C([H])([H])C([H])([H])C([H])(C([H])([H])C([H])([H])C#CC([H])([H])N([H])C(=O)N4C([H])([H])C([H])([H])C([H])([H])C([H])(n5nc(-c6c([H])c([H])c(Oc7c([H])c([H])c(F)c([H])c7F)c([H])c6[H])c(C(=O)N([H])[H])c5N([H])[H])C4([H])[H])C([H])([H])C3([H])[H])c([H])c([H])c2C1([H])[H]

>  <smiles>  (84) 
[H]c1c([H])c([H])c2c(c1[H])C([H])([H])C([H])([H])C([H])([H])C2([H])N([H])C(=O)C1([H])N(C(=O)C([H])(N([H])C(=O)C([H])(N([H])C([H])([H])[H])C([H])([H])[H])C(C([H])([H])[H])(C([H])([H])[H])C([H])([H])[H])C([H])([H])c2c([H])c(OC([H])([H])C(N([H])[H])=[N+]([H])C([H])([H])C([H])([H])C([H])([H])C3([H])C([H])([H])C([H])([H])C([H])(C([H])([H])C([H])([H])C#CC([H])([H])N([H])C(=O)N4C([H])([H])C([H])([H])C([H])([H])C([H])(n5nc(-c6c([H])c([H])c(Oc7c([H])c([H])c(F)c([H])c7F)c([H])c6[H])c(C(=O)N([H])[H])c5N([H])[H])C4([H])[H])C([H])([H])C3([H])[H])c([H])c([H])c2C1([H])[H]

$$$$
85:0:0
     RDKit          3D

 96104  0  0  1  0  0  0  0  0999 V2000
  -29.5000  -23.5370   19.2220 C   0  0  0  0  0  2  0  0  0  0  0  0
  -28.3510  -22.5320   19.2430 C   0  0  0  0  0  2  0  0  0  0  0  0
  -28.4810  -24.6060   19.6420 C   0  0  0  0  0  3  0  0  0  0  0  0
  -27.6040  -23.4620   20.2410 C   0  0  2  0  0  0  0  0  0  0  0  0
  -28.9520  -25.7710   20.5250 C   0  0  0  0  0  2  0  0  0  0  0  0
  -28.8920  -27.0190   19.8500 O   0  0  0  0  0  0  0  0  0  0  0  0
  -24.8200  -31.7530   23.2250 C   0  0  0  0  0  0  0  0  0  0  0  0
  -27.6720  -27.6400   19.9200 C   0  0  0  0  0  0  0  0  0  0  0  0
  -23.6730  -30.3640   21.5310 C   0  0  0  0  0  3  0  0  0  0  0  0
  -25.1900  -28.9670   20.0390 C   0  0  0  0  0  0  0  0  0  0  0  0
  -26.1690  -30.8730   21.3290 C   0  0  0  0  0  2  0  0  0  0  0  0
  -26.3200  -29.5390   20.6360 C   0  0  0  0  0  0  0  0  0  0  0  0
  -27.5670  -28.8800   20.5790 C   0  0  0  0  0  3  0  0  0  0  0  0
  -26.5270  -27.0740   19.3220 C   0  0  0  0  0  3  0  0  0  0  0  0
  -25.2810  -27.7250   19.3890 C   0  0  0  0  0  3  0  0  0  0  0  0
  -23.9000  -29.7500   20.1260 C   0  0  0  0  0  2  0  0  0  0  0  0
  -24.9050  -31.0080   22.0880 N   0  0  0  0  0  0  0  0  0  0  0  0
  -23.7320  -31.9480   23.7830 O   0  0  0  0  0  0  0  0  0  0  0  0
  -23.0850  -29.2700   22.4500 C   0  0  0  0  0  0  0  0  0  0  0  0
  -21.7810  -28.9940   22.2860 N   0  0  0  0  0  0  0  0  0  0  0  0
  -23.7980  -28.6710   23.2590 O   0  0  0  0  0  0  0  0  0  0  0  0
  -21.2680  -29.5260   21.5960 H   0  0  0  0  0  0  0  0  0  0  0  0
  -18.5080  -27.5190   22.6500 C   0  0  0  0  0  0  0  0  0  0  0  0
  -21.0230  -27.9800   23.0140 C   0  0  0  0  0  3  0  0  0  0  0  0
  -21.2660  -26.5730   22.4210 C   0  0  0  0  0  2  0  0  0  0  0  0
  -20.2290  -26.1750   21.3680 C   0  0  0  0  0  2  0  0  0  0  0  0
  -18.8190  -26.1980   21.9650 C   0  0  0  0  0  2  0  0  0  0  0  0
  -19.5440  -28.3620   23.1290 C   0  0  0  0  0  0  0  0  0  0  0  0
  -19.2030  -29.5940   23.7290 C   0  0  0  0  0  3  0  0  0  0  0  0
  -17.8570  -29.9830   23.8600 C   0  0  0  0  0  3  0  0  0  0  0  0
  -16.8340  -29.1370   23.3970 C   0  0  0  0  0  3  0  0  0  0  0  0
  -17.1610  -27.9070   22.7980 C   0  0  0  0  0  3  0  0  0  0  0  0
  -26.0780  -32.4200   23.8630 C   0  0  0  0  0  3  0  0  0  0  0  0
  -26.6270  -31.6380   25.1200 C   0  0  1  0  0  0  0  0  0  0  0  0
  -25.5450  -31.3310   26.1800 C   0  0  0  0  0  1  0  0  0  0  0  0
  -27.2630  -30.2960   24.6900 C   0  0  0  0  0  1  0  0  0  0  0  0
  -27.7440  -32.4620   25.8020 C   0  0  0  0  0  1  0  0  0  0  0  0
  -25.7150  -33.7970   24.2190 N   0  0  0  0  0  0  0  0  0  0  0  0
  -26.0030  -34.8760   23.4790 C   0  0  0  0  0  0  0  0  0  0  0  0
  -26.6750  -34.8180   22.4450 O   0  0  0  0  0  0  0  0  0  0  0  0
  -25.1180  -33.9140   25.0250 H   0  0  0  0  0  0  0  0  0  0  0  0
  -24.1940  -36.5920   23.1630 C   0  0  0  0  0  1  0  0  0  0  0  0
  -25.4560  -36.2330   23.9620 C   0  0  0  0  0  3  0  0  0  0  0  0
  -27.5550  -37.1960   24.7960 C   0  0  0  0  0  1  0  0  0  0  0  0
  -26.4410  -37.3310   23.8600 N   0  0  0  0  0  0  0  0  0  0  0  0
  -25.9960  -38.2300   24.0220 H   0  0  0  0  0  0  0  0  0  0  0  0
  -27.8320  -23.2390   21.7660 C   0  0  0  0  0  2  0  0  0  0  0  0
  -27.9960  -21.7830   22.2290 C   0  0  0  0  0  2  0  0  0  0  0  0
  -29.2710  -21.1170   21.6800 C   0  0  0  0  0  2  0  0  0  0  0  0
  -29.0730  -19.6290   21.3900 C   0  0  0  0  0  2  0  0  0  0  0  0
  -30.3380  -18.9710   20.8240 C   0  0  0  0  0  2  0  0  0  0  0  0
  -30.1300  -17.4740   20.5710 C   0  0  0  0  0  2  0  0  0  0  0  0
  -31.4390  -16.6770   20.4670 C   0  0  0  0  0  2  0  0  0  0  0  0
  -31.5740  -14.2820   19.7250 C   0  0  0  0  0  0  0  0  0  0  0  0
  -31.1710  -11.9560   19.0040 C   0  0  0  0  0  2  0  0  0  0  0  0
  -30.1960  -11.9120   17.8120 C   0  0  0  0  0  2  0  0  0  0  0  0
  -28.7300  -11.9200   18.2940 C   0  0  0  0  0  2  0  0  0  0  0  0
  -28.4520  -13.0310   19.3410 C   0  0  0  0  0  3  0  0  0  0  0  0
  -29.5240  -13.0090   20.4490 C   0  0  0  0  0  2  0  0  0  0  0  0
  -30.8540  -13.1360   19.8150 N   0  0  0  0  0  0  0  0  0  0  0  0
  -32.5640  -14.4250   18.9990 O   0  0  0  0  0  0  0  0  0  0  0  0
  -31.1120  -15.2590   20.5080 N   0  0  0  0  0  0  0  0  0  0  0  0
  -30.3410  -14.9960   21.1040 H   0  0  0  0  0  0  0  0  0  0  0  0
  -26.1890  -13.9190   20.1980 C   0  0  0  0  0  0  0  0  0  0  0  0
  -25.0580  -13.2750   20.6320 C   0  0  0  0  0  0  0  0  0  0  0  0
  -25.3490  -11.8800   20.5570 C   0  0  0  0  0  0  0  0  0  0  0  0
  -27.1010  -12.9200   19.8930 N   0  0  0  0  0  0  0  0  0  0  0  0
  -26.6010  -11.6870   20.1600 N   0  0  0  0  0  0  0  0  0  0  0  0
  -24.4880  -10.7110   20.7800 C   0  0  0  0  0  0  0  0  0  0  0  0
  -24.8280   -9.7130   21.7220 C   0  0  0  0  0  3  0  0  0  0  0  0
  -23.9750   -8.6080   21.9330 C   0  0  0  0  0  3  0  0  0  0  0  0
  -22.7680   -8.4930   21.2030 C   0  0  0  0  0  0  0  0  0  0  0  0
  -22.4450   -9.4750   20.2510 C   0  0  0  0  0  3  0  0  0  0  0  0
  -23.2970  -10.5730   20.0390 C   0  0  0  0  0  3  0  0  0  0  0  0
  -21.8920   -7.4410   21.3230 O   0  0  0  0  0  0  0  0  0  0  0  0
  -21.7320   -6.7690   22.5080 C   0  0  0  0  0  0  0  0  0  0  0  0
  -21.3410   -7.4320   23.6930 C   0  0  0  0  0  3  0  0  0  0  0  0
  -21.1190   -6.6930   24.8720 C   0  0  0  0  0  3  0  0  0  0  0  0
  -21.2750   -5.2940   24.8670 C   0  0  0  0  0  0  0  0  0  0  0  0
  -21.6600   -4.6320   23.6880 C   0  0  0  0  0  3  0  0  0  0  0  0
  -21.8830   -5.3680   22.5110 C   0  0  0  0  0  0  0  0  0  0  0  0
  -22.2320   -4.7230   21.3720 F   0  0  0  0  0  0  0  0  0  0  0  0
  -21.0540   -4.5840   25.9970 F   0  0  0  0  0  0  0  0  0  0  0  0
  -23.7520  -13.9130   21.0050 C   0  0  0  0  0  0  0  0  0  0  0  0
  -23.0100  -13.3010   21.9220 N   0  0  0  0  0  0  0  0  0  0  0  0
  -23.4010  -14.9870   20.5170 O   0  0  0  0  0  0  0  0  0  0  0  0
  -23.3080  -12.4320   22.3370 H   0  0  0  0  0  0  0  0  0  0  0  0
  -22.1370  -13.7130   22.2160 H   0  0  0  0  0  0  0  0  0  0  0  0
  -26.5090  -15.2610   20.0240 N   0  0  0  0  0  0  0  0  0  0  0  0
  -25.8400  -16.0040   20.1870 H   0  0  0  0  0  0  0  0  0  0  0  0
  -27.3840  -15.5940   19.6370 H   0  0  0  0  0  0  0  0  0  0  0  0
  -26.0690  -23.5730   20.0540 C   0  0  0  0  0  2  0  0  0  0  0  0
  -25.6400  -23.5670   18.6440 N   0  0  0  0  0  4  0  0  0  0  0  0
  -26.0630  -24.3080   18.1160 H   0  0  0  0  0  0  0  0  0  0  0  0
  -24.6400  -23.6640   18.5840 H   0  0  0  0  0  0  0  0  0  0  0  0
  -25.8990  -22.6940   18.2200 H   0  0  0  0  0  0  0  0  0  0  0  0
  1  2  1  0
  1  3  1  0
  2  4  1  0
  3  4  1  0
  3  5  1  0
  4 92  1  1
  4 47  1  0
  6  8  1  0
  6  5  1  0
  7 18  2  0
  8 13  1  0
  9 17  1  0
  9 19  1  0
 10 16  1  0
 10 12  1  0
 11 17  1  0
 12 11  1  0
 13 12  2  0
 14 15  1  0
 14  8  2  0
 15 10  2  0
 16  9  1  0
 17  7  1  0
 19 21  2  0
 20 19  1  0
 22 20  1  0
 23 32  2  0
 23 28  1  0
 24 20  1  0
 24 28  1  0
 25 24  1  0
 26 27  1  0
 26 25  1  0
 27 23  1  0
 28 29  2  0
 29 30  1  0
 31 30  2  0
 32 31  1  0
 33  7  1  0
 33 38  1  0
 33 34  1  0
 34 37  1  1
 34 35  1  0
 36 34  1  0
 38 41  1  0
 39 43  1  0
 39 38  1  0
 40 39  2  0
 43 42  1  0
 45 43  1  0
 45 46  1  0
 45 44  1  0
 47 48  1  0
 49 48  1  0
 50 49  1  0
 51 50  1  0
 52 51  1  0
 53 62  1  0
 53 52  1  0
 54 60  1  0
 54 62  1  0
 55 60  1  0
 56 57  1  0
 56 55  1  0
 58 57  1  0
 58 67  1  0
 58 59  1  0
 60 59  1  0
 61 54  2  0
 62 63  1  0
 64 65  2  0
 65 84  1  0
 66 65  1  0
 66 69  1  0
 67 68  1  0
 67 64  1  0
 68 66  2  0
 69 70  1  0
 70 71  2  0
 72 75  1  0
 72 71  1  0
 73 72  2  0
 74 73  1  0
 74 69  2  0
 75 76  1  0
 76 81  2  0
 76 77  1  0
 77 78  2  0
 79 78  1  0
 79 83  1  0
 80 79  2  0
 81 80  1  0
 82 81  1  0
 84 85  1  0
 85 88  1  0
 85 87  1  0
 86 84  2  0
 89 90  1  0
 89 64  1  0
 91 89  1  0
 93 92  1  0
 94 93  1  0
 95 93  1  0
 96 93  1  0
M  ISO  4   5 101   6 101  54 100  62 100
M  END
>  <TORSDO>  (85) 
F 26

>  <SCORE>  (85) 
-10.071

>  <name>  (85) 
85

>  <ligand_id>  (85) 
85

>  <original_smiles>  (85) 
[H]c1c([H])c([H])c2c(c1[H])C([H])([H])C([H])([H])C([H])([H])C2([H])N([H])C(=O)C1([H])N(C(=O)C([H])(N([H])C(=O)C([H])(N([H])C([H])([H])[H])C([H])([H])[H])C(C([H])([H])[H])(C([H])([H])[H])C([H])([H])[H])C([H])([H])c2c([H])c(OC([H])([H])C3([H])C([H])([H])C([H])([H])C3(C([H])([H])C([H])([H])C([H])([H])C([H])([H])C([H])([H])C([H])([H])C([H])([H])N([H])C(=O)N3C([H])([H])C([H])([H])C([H])([H])C([H])(n4nc(-c5c([H])c([H])c(Oc6c([H])c([H])c(F)c([H])c6F)c([H])c5[H])c(C(=O)N([H])[H])c4N([H])[H])C3([H])[H])C([H])([H])[N+]([H])([H])[H])c([H])c([H])c2C1([H])[H]

>  <smiles>  (85) 
[H]c1c([H])c([H])c2c(c1[H])C([H])([H])C([H])([H])C([H])([H])C2([H])N([H])C(=O)C1([H])N(C(=O)C([H])(N([H])C(=O)C([H])(N([H])C([H])([H])[H])C([H])([H])[H])C(C([H])([H])[H])(C([H])([H])[H])C([H])([H])[H])C([H])([H])c2c([H])c(OC([H])([H])C3([H])C([H])([H])C([H])([H])C3(C([H])([H])C([H])([H])C([H])([H])C([H])([H])C([H])([H])C([H])([H])C([H])([H])N([H])C(=O)N3C([H])([H])C([H])([H])C([H])([H])C([H])(n4nc(-c5c([H])c([H])c(Oc6c([H])c([H])c(F)c([H])c6F)c([H])c5[H])c(C(=O)N([H])[H])c4N([H])[H])C3([H])[H])C([H])([H])[N+]([H])([H])[H])c([H])c([H])c2C1([H])[H]

$$$$
86:0:0
     RDKit          3D

101108  0  0  1  0  0  0  0  0999 V2000
  -21.1440  -26.8180   18.7160 C   0  0  0  0  0  2  0  0  0  0  0  0
  -20.6150  -28.2830   18.7250 C   0  0  0  0  0  2  0  0  0  0  0  0
  -21.5880  -28.1000   20.9570 C   0  0  0  0  0  3  0  0  0  0  0  0
  -22.3010  -26.7690   19.7170 C   0  0  0  0  0  3  0  0  0  0  0  0
  -20.8430  -28.9730   20.0320 N   0  0  0  0  0  4  0  0  0  0  0  0
  -19.9650  -29.2060   20.4700 H   0  0  0  0  0  0  0  0  0  0  0  0
  -21.3300  -29.8430   19.8920 H   0  0  0  0  0  0  0  0  0  0  0  0
  -22.0510  -29.0710   22.5340 C   0  0  0  0  0  0  0  0  0  0  0  0
  -23.1550  -28.8330   23.6540 N   0  0  0  0  0  0  0  0  0  0  0  0
  -21.4100  -30.1160   22.6490 O   0  0  0  0  0  0  0  0  0  0  0  0
  -23.1120  -29.6210   24.2920 H   0  0  0  0  0  0  0  0  0  0  0  0
  -24.6970  -27.8900   24.0810 C   0  0  0  0  0  1  0  0  0  0  0  0
  -26.5000  -27.5050   23.2230 C   0  0  0  0  0  1  0  0  0  0  0  0
  -27.4300  -26.5650   22.0230 O   0  0  0  0  0  0  0  0  0  0  0  0
  -25.2930  -30.5100   23.1630 C   0  0  0  0  0  0  0  0  0  0  0  0
  -27.9380  -26.7950   20.7120 C   0  0  0  0  0  3  0  0  0  0  0  0
  -24.4900  -28.7000   21.2510 C   0  0  0  0  0  3  0  0  0  0  0  0
  -25.9920  -28.1220   19.6220 C   0  0  0  0  0  0  0  0  0  0  0  0
  -26.6590  -29.9800   21.2060 C   0  0  0  0  0  2  0  0  0  0  0  0
  -26.9950  -28.7760   20.3650 C   0  0  0  0  0  0  0  0  0  0  0  0
  -28.1980  -28.1320   20.5930 C   0  0  0  0  0  2  0  0  0  0  0  0
  -27.2800  -26.1380   19.6320 C   0  0  0  0  0  2  0  0  0  0  0  0
  -26.1920  -26.8350   19.0910 C   0  0  0  0  0  2  0  0  0  0  0  0
  -24.6850  -28.7490   19.7610 C   0  0  0  0  0  2  0  0  0  0  0  0
  -25.4410  -29.7350   21.9860 N   0  0  0  0  0  0  0  0  0  0  0  0
  -24.1980  -30.7220   23.7060 O   0  0  0  0  0  0  0  0  0  0  0  0
  -24.1930  -26.9760   21.6570 C   0  0  0  0  0  0  0  0  0  0  0  0
  -23.1010  -26.1750   22.1770 N   0  0  0  0  0  0  0  0  0  0  0  0
  -24.9930  -26.1970   21.9930 O   0  0  0  0  0  0  0  0  0  0  0  0
  -23.5990  -25.3060   22.3050 H   0  0  0  0  0  0  0  0  0  0  0  0
  -19.1590  -25.5320   21.9510 C   0  0  0  0  0  0  0  0  0  0  0  0
  -21.6770  -25.8970   22.8120 C   0  0  0  0  0  3  0  0  0  0  0  0
  -21.6970  -24.4140   22.5480 C   0  0  0  0  0  2  0  0  0  0  0  0
  -21.0270  -23.9760   21.2460 C   0  0  0  0  0  2  0  0  0  0  0  0
  -19.5380  -24.2170   21.3110 C   0  0  0  0  0  2  0  0  0  0  0  0
  -20.1230  -26.3720   22.6020 C   0  0  0  0  0  0  0  0  0  0  0  0
  -19.5560  -27.5340   23.2230 C   0  0  0  0  0  3  0  0  0  0  0  0
  -18.1840  -27.8800   23.1250 C   0  0  0  0  0  3  0  0  0  0  0  0
  -17.2830  -27.0180   22.4870 C   0  0  0  0  0  3  0  0  0  0  0  0
  -17.7780  -25.8380   21.9160 C   0  0  0  0  0  3  0  0  0  0  0  0
  -26.4920  -31.1850   23.9610 C   0  0  0  0  0  3  0  0  0  0  0  0
  -26.9820  -30.5640   25.3660 C   0  0  1  0  0  0  0  0  0  0  0  0
  -25.8550  -30.2700   26.3970 C   0  0  0  0  0  1  0  0  0  0  0  0
  -27.9370  -29.3460   25.2450 C   0  0  0  0  0  1  0  0  0  0  0  0
  -27.9240  -31.5860   26.0580 C   0  0  0  0  0  1  0  0  0  0  0  0
  -26.0610  -32.5680   24.2270 N   0  0  0  0  0  0  0  0  0  0  0  0
  -26.3960  -33.6260   23.4850 C   0  0  0  0  0  0  0  0  0  0  0  0
  -27.1380  -33.5360   22.5050 O   0  0  0  0  0  0  0  0  0  0  0  0
  -25.4000  -32.7010   24.9770 H   0  0  0  0  0  0  0  0  0  0  0  0
  -24.6330  -35.3440   22.9870 C   0  0  0  0  0  1  0  0  0  0  0  0
  -25.8200  -34.9930   23.8960 C   0  0  0  0  0  3  0  0  0  0  0  0
  -27.8490  -35.9520   24.8910 C   0  0  0  0  0  1  0  0  0  0  0  0
  -26.8200  -36.0810   23.8610 N   0  0  0  0  0  0  0  0  0  0  0  0
  -26.3720  -36.9870   23.9750 H   0  0  0  0  0  0  0  0  0  0  0  0
  -23.3030  -25.1600   19.6810 C   0  0  0  0  0  2  0  0  0  0  0  0
  -24.1940  -23.9810   18.5930 C   0  0  0  0  0  2  0  0  0  0  0  0
  -25.5810  -23.0400   18.8690 N   0  0  0  0  0  4  0  0  0  0  0  0
  -25.5180  -22.7850   19.8420 H   0  0  0  0  0  0  0  0  0  0  0  0
  -26.3440  -23.6930   18.8220 H   0  0  0  0  0  0  0  0  0  0  0  0
  -26.1920  -21.6450   18.1290 C   0  0  0  0  0  2  0  0  0  0  0  0
  -27.7290  -20.6610   18.3780 C   0  0  0  0  0  3  0  0  0  0  0  0
  -28.2130  -18.8860   18.2610 C   0  0  0  0  0  3  0  0  0  0  0  0
  -29.7320  -17.8960   18.5730 C   0  0  0  0  0  2  0  0  0  0  0  0
  -31.1150  -15.2410   19.1790 C   0  0  0  0  0  0  0  0  0  0  0  0
  -31.3800  -12.6610   18.9790 C   0  0  0  0  0  2  0  0  0  0  0  0
  -30.4400  -12.1690   17.8480 C   0  0  0  0  0  2  0  0  0  0  0  0
  -28.9830  -12.0560   18.3490 C   0  0  0  0  0  2  0  0  0  0  0  0
  -28.5810  -13.2700   19.2220 C   0  0  0  0  0  3  0  0  0  0  0  0
  -29.6160  -13.5630   20.3090 C   0  0  0  0  0  2  0  0  0  0  0  0
  -30.7960  -13.9230   19.5530 N   0  0  0  0  0  0  0  0  0  0  0  0
  -32.3300  -15.3500   18.8970 O   0  0  0  0  0  0  0  0  0  0  0  0
  -30.0390  -16.2830   19.0020 N   0  0  0  0  0  0  0  0  0  0  0  0
  -29.1750  -15.8630   19.3110 H   0  0  0  0  0  0  0  0  0  0  0  0
  -26.4240  -14.2030   20.1670 C   0  0  0  0  0  0  0  0  0  0  0  0
  -25.2800  -13.5970   20.5970 C   0  0  0  0  0  0  0  0  0  0  0  0
  -25.5100  -12.1900   20.4810 C   0  0  0  0  0  0  0  0  0  0  0  0
  -27.2660  -13.1730   19.7980 N   0  0  0  0  0  0  0  0  0  0  0  0
  -26.7440  -11.9530   20.0620 N   0  0  0  0  0  0  0  0  0  0  0  0
  -24.6050  -11.0570   20.6730 C   0  0  0  0  0  0  0  0  0  0  0  0
  -24.9000  -10.0230   21.5880 C   0  0  0  0  0  3  0  0  0  0  0  0
  -24.0010   -8.9510   21.7660 C   0  0  0  0  0  3  0  0  0  0  0  0
  -22.7940   -8.9090   21.0260 C   0  0  0  0  0  0  0  0  0  0  0  0
  -22.5200   -9.9280   20.0980 C   0  0  0  0  0  3  0  0  0  0  0  0
  -23.4170  -10.9910   19.9190 C   0  0  0  0  0  3  0  0  0  0  0  0
  -21.8720   -7.8960   21.1170 O   0  0  0  0  0  0  0  0  0  0  0  0
  -21.6930   -7.1890   22.2770 C   0  0  0  0  0  0  0  0  0  0  0  0
  -21.3210   -7.8190   23.4850 C   0  0  0  0  0  3  0  0  0  0  0  0
  -21.0790   -7.0450   24.6380 C   0  0  0  0  0  3  0  0  0  0  0  0
  -21.2000   -5.6440   24.5840 C   0  0  0  0  0  0  0  0  0  0  0  0
  -21.5670   -5.0140   23.3800 C   0  0  0  0  0  3  0  0  0  0  0  0
  -21.8100   -5.7850   22.2300 C   0  0  0  0  0  0  0  0  0  0  0  0
  -22.1410   -5.1720   21.0680 F   0  0  0  0  0  0  0  0  0  0  0  0
  -20.9610   -4.8990   25.6870 F   0  0  0  0  0  0  0  0  0  0  0  0
  -24.0050  -14.2850   20.9810 C   0  0  0  0  0  0  0  0  0  0  0  0
  -23.2340  -13.6830   21.8780 N   0  0  0  0  0  0  0  0  0  0  0  0
  -23.7120  -15.3870   20.5180 O   0  0  0  0  0  0  0  0  0  0  0  0
  -23.4890  -12.7890   22.2710 H   0  0  0  0  0  0  0  0  0  0  0  0
  -22.3750  -14.1240   22.1790 H   0  0  0  0  0  0  0  0  0  0  0  0
  -26.8040  -15.5370   20.0240 N   0  0  0  0  0  0  0  0  0  0  0  0
  -26.1170  -16.2670   20.1790 H   0  0  0  0  0  0  0  0  0  0  0  0
  -27.5410  -15.8310   19.3980 H   0  0  0  0  0  0  0  0  0  0  0  0
  1  2  1  0
  1  4  1  0
  2  5  1  0
  3  8  1  0
  4 55  1  0
  4  3  1  0
  5  6  1  0
  5  3  1  0
  7  5  1  0
  8 10  2  0
  8  9  1  0
  9 12  1  0
  9 11  1  0
 14 13  1  0
 15 26  2  0
 16 14  1  0
 17 27  1  0
 17 25  1  0
 18 24  1  0
 18 20  2  0
 19 25  1  0
 20 21  1  0
 20 19  1  0
 21 16  1  0
 22 16  1  0
 23 18  1  0
 23 22  1  0
 24 17  1  0
 25 15  1  0
 27 29  2  0
 27 28  1  0
 28 30  1  0
 31 36  1  0
 32 28  1  0
 33 32  1  0
 34 35  1  0
 34 33  1  0
 35 31  1  0
 36 32  1  0
 36 37  2  0
 38 37  1  0
 39 38  2  0
 40 31  2  0
 40 39  1  0
 41 15  1  0
 41 46  1  0
 41 42  1  0
 42 45  1  1
 42 43  1  0
 44 42  1  0
 46 49  1  0
 47 51  1  0
 47 46  1  0
 48 47  2  0
 51 50  1  0
 53 51  1  0
 53 54  1  0
 53 52  1  0
 56 57  1  0
 56 55  1  0
 57 58  1  0
 59 57  1  0
 60 61  1  0
 60 57  1  0
 62 61  2  0
 62 63  1  0
 63 72  1  0
 64 70  1  0
 65 70  1  0
 66 67  1  0
 66 65  1  0
 68 67  1  0
 68 77  1  0
 68 69  1  0
 70 69  1  0
 71 64  2  0
 72 64  1  0
 72 73  1  0
 74 75  2  0
 75 94  1  0
 76 75  1  0
 76 79  1  0
 77 78  1  0
 77 74  1  0
 78 76  2  0
 79 80  1  0
 80 81  2  0
 82 85  1  0
 82 81  1  0
 83 82  2  0
 84 83  1  0
 84 79  2  0
 85 86  1  0
 86 87  1  0
 87 88  2  0
 89 88  1  0
 89 93  1  0
 90 89  2  0
 91 86  2  0
 91 90  1  0
 92 91  1  0
 94 95  1  0
 95 98  1  0
 95 97  1  0
 96 94  2  0
 99 74  1  0
 99100  1  0
101 99  1  0
M  ISO  4  13 101  14 101  64 100  72 100
M  END
>  <TORSDO>  (86) 
F 26

>  <SCORE>  (86) 
-11.693

>  <name>  (86) 
86

>  <ligand_id>  (86) 
86

>  <original_smiles>  (86) 
[H]c1c([H])c([H])c2c(c1[H])C([H])([H])C([H])([H])C([H])([H])C2([H])N([H])C(=O)C1([H])N(C(=O)C([H])(N([H])C(=O)C([H])(N([H])C([H])([H])[H])C([H])([H])[H])C(C([H])([H])[H])(C([H])([H])[H])C([H])([H])[H])C([H])([H])c2c([H])c(OC([H])([H])C([H])([H])N([H])C(=O)C3([H])C([H])(C([H])([H])C([H])([H])[N+]([H])([H])C([H])([H])C([H])([H])C([H])([H])C([H])([H])N([H])C(=O)N4C([H])([H])C([H])([H])C([H])([H])C([H])(n5nc(-c6c([H])c([H])c(Oc7c([H])c([H])c(F)c([H])c7F)c([H])c6[H])c(C(=O)N([H])[H])c5N([H])[H])C4([H])[H])C([H])([H])C([H])([H])[N+]3([H])[H])c([H])c([H])c2C1([H])[H]

>  <smiles>  (86) 
[H]c1c([H])c([H])c2c(c1[H])C([H])([H])C([H])([H])C([H])([H])C2([H])N([H])C(=O)C1([H])N(C(=O)C([H])(N([H])C(=O)C([H])(N([H])C([H])([H])[H])C([H])([H])[H])C(C([H])([H])[H])(C([H])([H])[H])C([H])([H])[H])C([H])([H])c2c([H])c(OC([H])([H])C([H])([H])N([H])C(=O)C3([H])C([H])(C([H])([H])C([H])([H])[N+]([H])([H])C([H])([H])C([H])([H])C([H])([H])C([H])([H])N([H])C(=O)N4C([H])([H])C([H])([H])C([H])([H])C([H])(n5nc(-c6c([H])c([H])c(Oc7c([H])c([H])c(F)c([H])c7F)c([H])c6[H])c(C(=O)N([H])[H])c5N([H])[H])C4([H])[H])C([H])([H])C([H])([H])[N+]3([H])[H])c([H])c([H])c2C1([H])[H]

$$$$
87:0:0
     RDKit          3D

 92100  0  0  1  0  0  0  0  0999 V2000
  -28.4020  -24.5160   18.7040 C   0  0  0  0  0  0  0  0  0  0  0  0
  -28.8200  -23.0330   18.5750 C   0  0  0  0  0  2  0  0  0  0  0  0
  -29.3630  -24.4500   21.0100 C   0  0  0  0  0  2  0  0  0  0  0  0
  -28.2610  -25.1060   20.1240 C   0  0  0  0  0  3  0  0  0  0  0  0
  -28.8200  -22.1860   19.8850 C   0  0  0  0  0  3  0  0  0  0  0  0
  -29.4290  -22.9420   21.0210 N   0  0  0  0  0  4  0  0  0  0  0  0
  -28.2130  -25.1980   17.6900 O   0  0  0  0  0  0  0  0  0  0  0  0
  -28.9920  -22.6110   21.8690 H   0  0  0  0  0  0  0  0  0  0  0  0
  -30.4010  -22.6830   21.0950 H   0  0  0  0  0  0  0  0  0  0  0  0
  -28.3540  -26.5790   20.1320 O   0  0  0  0  0  0  0  0  0  0  0  0
  -24.6070  -31.8800   23.2220 C   0  0  0  0  0  0  0  0  0  0  0  0
  -27.1930  -27.3570   20.1260 C   0  0  0  0  0  0  0  0  0  0  0  0
  -23.3810  -30.4790   21.5980 C   0  0  0  0  0  3  0  0  0  0  0  0
  -24.8140  -28.9290   20.1600 C   0  0  0  0  0  0  0  0  0  0  0  0
  -25.9130  -30.8120   21.3750 C   0  0  0  0  0  2  0  0  0  0  0  0
  -25.9870  -29.4350   20.7330 C   0  0  0  0  0  0  0  0  0  0  0  0
  -27.1800  -28.6600   20.7030 C   0  0  0  0  0  3  0  0  0  0  0  0
  -25.9910  -26.8870   19.5490 C   0  0  0  0  0  3  0  0  0  0  0  0
  -24.8150  -27.6580   19.5650 C   0  0  0  0  0  3  0  0  0  0  0  0
  -23.5750  -29.7980   20.2190 C   0  0  0  0  0  2  0  0  0  0  0  0
  -24.6540  -31.0740   22.1220 N   0  0  0  0  0  0  0  0  0  0  0  0
  -23.5310  -32.1570   23.7730 O   0  0  0  0  0  0  0  0  0  0  0  0
  -22.7340  -29.4630   22.5690 C   0  0  0  0  0  0  0  0  0  0  0  0
  -21.4070  -29.2810   22.4560 N   0  0  0  0  0  0  0  0  0  0  0  0
  -23.4230  -28.8400   23.3800 O   0  0  0  0  0  0  0  0  0  0  0  0
  -20.9120  -29.8360   21.7720 H   0  0  0  0  0  0  0  0  0  0  0  0
  -18.0400  -28.0710   22.9780 C   0  0  0  0  0  0  0  0  0  0  0  0
  -20.5980  -28.3460   23.2380 C   0  0  0  0  0  3  0  0  0  0  0  0
  -20.7070  -26.9110   22.6740 C   0  0  0  0  0  2  0  0  0  0  0  0
  -19.6020  -26.5730   21.6670 C   0  0  0  0  0  2  0  0  0  0  0  0
  -18.2210  -26.7160   22.3140 C   0  0  0  0  0  2  0  0  0  0  0  0
  -19.1570  -28.8420   23.3960 C   0  0  0  0  0  0  0  0  0  0  0  0
  -18.9330  -30.1090   23.9780 C   0  0  0  0  0  3  0  0  0  0  0  0
  -17.6260  -30.6060   24.1440 C   0  0  0  0  0  3  0  0  0  0  0  0
  -16.5240  -29.8320   23.7400 C   0  0  0  0  0  3  0  0  0  0  0  0
  -16.7330  -28.5660   23.1630 C   0  0  0  0  0  3  0  0  0  0  0  0
  -25.8990  -32.5120   23.8260 C   0  0  0  0  0  3  0  0  0  0  0  0
  -26.4420  -31.7300   25.0850 C   0  0  1  0  0  0  0  0  0  0  0  0
  -25.3700  -31.4790   26.1720 C   0  0  0  0  0  1  0  0  0  0  0  0
  -27.0230  -30.3580   24.6700 C   0  0  0  0  0  1  0  0  0  0  0  0
  -27.6040  -32.5220   25.7310 C   0  0  0  0  0  1  0  0  0  0  0  0
  -25.5900  -33.9060   24.1740 N   0  0  0  0  0  0  0  0  0  0  0  0
  -25.9060  -34.9660   23.4180 C   0  0  0  0  0  0  0  0  0  0  0  0
  -26.5580  -34.8730   22.3750 O   0  0  0  0  0  0  0  0  0  0  0  0
  -25.0060  -34.0510   24.9840 H   0  0  0  0  0  0  0  0  0  0  0  0
  -24.1640  -36.7550   23.1090 C   0  0  0  0  0  1  0  0  0  0  0  0
  -25.4210  -36.3480   23.8960 C   0  0  0  0  0  3  0  0  0  0  0  0
  -27.5680  -37.2330   24.6930 C   0  0  0  0  0  1  0  0  0  0  0  0
  -26.4470  -37.4060   23.7730 N   0  0  0  0  0  0  0  0  0  0  0  0
  -26.0400  -38.3230   23.9390 H   0  0  0  0  0  0  0  0  0  0  0  0
  -29.4770  -20.7620   19.6110 C   0  0  0  0  0  2  0  0  0  0  0  0
  -29.5060  -19.6240   20.7010 C   0  0  0  0  0  2  0  0  0  0  0  0
  -29.6820  -18.1490   20.1490 C   0  0  0  0  0  2  0  0  0  0  0  0
  -30.2500  -17.0620   21.1400 C   0  0  0  0  0  2  0  0  0  0  0  0
  -30.6260  -14.5860   20.4870 C   0  0  0  0  0  0  0  0  0  0  0  0
  -30.3830  -12.3790   19.3810 C   0  0  0  0  0  2  0  0  0  0  0  0
  -29.4460  -12.5270   18.1630 C   0  0  0  0  0  2  0  0  0  0  0  0
  -27.9710  -12.3780   18.5860 C   0  0  0  0  0  2  0  0  0  0  0  0
  -27.6110  -13.2390   19.8260 C   0  0  0  0  0  3  0  0  0  0  0  0
  -28.6610  -13.0660   20.9450 C   0  0  0  0  0  2  0  0  0  0  0  0
  -29.9790  -13.3890   20.3750 N   0  0  0  0  0  0  0  0  0  0  0  0
  -31.7900  -14.7410   20.1080 O   0  0  0  0  0  0  0  0  0  0  0  0
  -29.8630  -15.6420   20.8780 N   0  0  0  0  0  0  0  0  0  0  0  0
  -28.9090  -15.4050   21.1060 H   0  0  0  0  0  0  0  0  0  0  0  0
  -25.2070  -13.8410   20.5130 C   0  0  0  0  0  0  0  0  0  0  0  0
  -24.1380  -13.0690   20.8770 C   0  0  0  0  0  0  0  0  0  0  0  0
  -24.6050  -11.7200   20.8650 C   0  0  0  0  0  0  0  0  0  0  0  0
  -26.2580  -12.9620   20.2990 N   0  0  0  0  0  0  0  0  0  0  0  0
  -25.8980  -11.6810   20.5730 N   0  0  0  0  0  0  0  0  0  0  0  0
  -23.8810  -10.4560   21.0590 C   0  0  0  0  0  0  0  0  0  0  0  0
  -24.3190   -9.4890   21.9890 C   0  0  0  0  0  3  0  0  0  0  0  0
  -23.5960   -8.2900   22.1690 C   0  0  0  0  0  3  0  0  0  0  0  0
  -22.4180   -8.0510   21.4210 C   0  0  0  0  0  0  0  0  0  0  0  0
  -21.9990   -9.0090   20.4800 C   0  0  0  0  0  3  0  0  0  0  0  0
  -22.7240  -10.1980   20.2970 C   0  0  0  0  0  3  0  0  0  0  0  0
  -21.6650   -6.9060   21.5120 O   0  0  0  0  0  0  0  0  0  0  0  0
  -21.6390   -6.1510   22.6570 C   0  0  0  0  0  0  0  0  0  0  0  0
  -21.2500   -6.6970   23.9000 C   0  0  0  0  0  3  0  0  0  0  0  0
  -21.1710   -5.8680   25.0390 C   0  0  0  0  0  3  0  0  0  0  0  0
  -21.4690   -4.4970   24.9340 C   0  0  0  0  0  0  0  0  0  0  0  0
  -21.8510   -3.9520   23.6960 C   0  0  0  0  0  3  0  0  0  0  0  0
  -21.9330   -4.7760   22.5600 C   0  0  0  0  0  0  0  0  0  0  0  0
  -22.2810   -4.2420   21.3650 F   0  0  0  0  0  0  0  0  0  0  0  0
  -21.3850   -3.7000   26.0250 F   0  0  0  0  0  0  0  0  0  0  0  0
  -22.7370  -13.5440   21.1290 C   0  0  0  0  0  0  0  0  0  0  0  0
  -22.0020  -12.8520   21.9930 N   0  0  0  0  0  0  0  0  0  0  0  0
  -22.3010  -14.5620   20.5940 O   0  0  0  0  0  0  0  0  0  0  0  0
  -22.3680  -12.0290   22.4470 H   0  0  0  0  0  0  0  0  0  0  0  0
  -21.0610  -13.1520   22.2070 H   0  0  0  0  0  0  0  0  0  0  0  0
  -25.3690  -15.2110   20.3230 N   0  0  0  0  0  0  0  0  0  0  0  0
  -24.5960  -15.8610   20.4120 H   0  0  0  0  0  0  0  0  0  0  0  0
  -26.2150  -15.6510   19.9840 H   0  0  0  0  0  0  0  0  0  0  0  0
  1  4  1  0
  2  1  1  0
  2  5  1  0
  3  6  1  0
  4 10  1  0
  4  3  1  0
  5 51  1  0
  5  6  1  0
  6  9  1  0
  6  8  1  0
  7  1  2  0
 11 22  2  0
 12 10  1  0
 12 17  1  0
 13 21  1  0
 13 23  1  0
 14 20  1  0
 14 16  1  0
 15 21  1  0
 16 15  1  0
 17 16  2  0
 18 19  1  0
 18 12  2  0
 19 14  2  0
 20 13  1  0
 21 11  1  0
 23 25  2  0
 24 23  1  0
 26 24  1  0
 27 36  2  0
 27 32  1  0
 28 24  1  0
 28 32  1  0
 29 28  1  0
 30 31  1  0
 30 29  1  0
 31 27  1  0
 32 33  2  0
 33 34  1  0
 35 34  2  0
 36 35  1  0
 37 11  1  0
 37 42  1  0
 37 38  1  0
 38 41  1  1
 38 39  1  0
 40 38  1  0
 42 45  1  0
 43 47  1  0
 43 42  1  0
 44 43  2  0
 47 46  1  0
 49 47  1  0
 49 50  1  0
 49 48  1  0
 51 52  1  0
 53 52  1  0
 53 54  1  0
 55 63  1  0
 56 61  1  0
 57 58  1  0
 57 56  1  0
 59 58  1  0
 59 68  1  0
 59 60  1  0
 61 55  1  0
 61 60  1  0
 62 55  2  0
 63 64  1  0
 63 54  1  0
 65 66  2  0
 66 85  1  0
 67 66  1  0
 67 70  1  0
 68 65  1  0
 68 69  1  0
 69 67  2  0
 70 71  1  0
 71 72  2  0
 73 76  1  0
 73 72  1  0
 74 73  2  0
 75 74  1  0
 75 70  2  0
 76 77  1  0
 77 78  1  0
 78 79  2  0
 80 79  1  0
 80 84  1  0
 81 80  2  0
 82 77  2  0
 82 81  1  0
 83 82  1  0
 85 86  1  0
 86 89  1  0
 86 88  1  0
 87 85  2  0
 90 91  1  0
 90 65  1  0
 92 90  1  0
M  ISO  4   4 101  10 101  55 100  63 100
M  END
>  <TORSDO>  (87) 
F 20

>  <SCORE>  (87) 
-13.727

>  <name>  (87) 
87

>  <ligand_id>  (87) 
87

>  <original_smiles>  (87) 
[H]c1c([H])c([H])c2c(c1[H])C([H])([H])C([H])([H])C([H])([H])C2([H])N([H])C(=O)C1([H])N(C(=O)C([H])(N([H])C(=O)C([H])(N([H])C([H])([H])[H])C([H])([H])[H])C(C([H])([H])[H])(C([H])([H])[H])C([H])([H])[H])C([H])([H])c2c([H])c(OC3([H])C(=O)C([H])([H])C([H])(C([H])([H])C([H])([H])C([H])([H])C([H])([H])N([H])C(=O)N4C([H])([H])C([H])([H])C([H])([H])C([H])(n5nc(-c6c([H])c([H])c(Oc7c([H])c([H])c(F)c([H])c7F)c([H])c6[H])c(C(=O)N([H])[H])c5N([H])[H])C4([H])[H])[N+]([H])([H])C3([H])[H])c([H])c([H])c2C1([H])[H]

>  <smiles>  (87) 
[H]c1c([H])c([H])c2c(c1[H])C([H])([H])C([H])([H])C([H])([H])C2([H])N([H])C(=O)C1([H])N(C(=O)C([H])(N([H])C(=O)C([H])(N([H])C([H])([H])[H])C([H])([H])[H])C(C([H])([H])[H])(C([H])([H])[H])C([H])([H])[H])C([H])([H])c2c([H])c(OC3([H])C(=O)C([H])([H])C([H])(C([H])([H])C([H])([H])C([H])([H])C([H])([H])N([H])C(=O)N4C([H])([H])C([H])([H])C([H])([H])C([H])(n5nc(-c6c([H])c([H])c(Oc7c([H])c([H])c(F)c([H])c7F)c([H])c6[H])c(C(=O)N([H])[H])c5N([H])[H])C4([H])[H])[N+]([H])([H])C3([H])[H])c([H])c([H])c2C1([H])[H]

$$$$
88:0:0
     RDKit          3D

 92101  0  0  1  0  0  0  0  0999 V2000
  -30.6490  -22.6470   20.9040 C   0  0  0  0  0  2  0  0  0  0  0  0
  -29.1360  -24.0860   22.0930 C   0  0  0  0  0  2  0  0  0  0  0  0
  -29.2000  -22.2100   20.6530 C   0  0  0  0  0  3  0  0  0  0  0  0
  -28.4330  -23.6740   20.7800 C   0  0  0  0  0  3  0  0  0  0  0  0
  -30.5530  -23.6780   21.9630 N   0  0  0  0  0  4  0  0  0  0  0  0
  -31.1330  -24.4710   21.7410 H   0  0  0  0  0  0  0  0  0  0  0  0
  -30.8650  -23.3060   22.8470 H   0  0  0  0  0  0  0  0  0  0  0  0
  -28.9890  -20.9250   19.6660 C   0  0  0  0  0  2  0  0  0  0  0  0
  -30.6880  -14.8850   19.9580 C   0  0  0  0  0  0  0  0  0  0  0  0
  -30.3850  -12.6000   18.9700 C   0  0  0  0  0  2  0  0  0  0  0  0
  -29.3940  -12.6400   17.7890 C   0  0  0  0  0  2  0  0  0  0  0  0
  -27.9480  -12.4730   18.2930 C   0  0  0  0  0  2  0  0  0  0  0  0
  -27.6330  -13.3590   19.5300 C   0  0  0  0  0  3  0  0  0  0  0  0
  -28.7530  -13.3150   20.5890 C   0  0  0  0  0  2  0  0  0  0  0  0
  -29.9910  -13.6900   19.9000 N   0  0  0  0  0  0  0  0  0  0  0  0
  -31.8880  -14.8420   19.6620 O   0  0  0  0  0  0  0  0  0  0  0  0
  -29.9370  -18.5600   18.7110 C   0  0  0  0  0  2  0  0  0  0  0  0
  -28.8290  -18.3700   20.8080 C   0  0  0  0  0  2  0  0  0  0  0  0
  -30.6540  -17.1640   18.9520 C   0  0  0  0  0  2  0  0  0  0  0  0
  -29.4340  -16.8890   21.0230 C   0  0  0  0  0  2  0  0  0  0  0  0
  -29.6450  -19.4290   19.9730 C   0  0  0  0  0  3  0  0  0  0  0  0
  -30.0360  -16.1430   19.8660 N   0  0  0  0  0  0  0  0  0  0  0  0
  -25.2960  -13.9290   20.4000 C   0  0  0  0  0  0  0  0  0  0  0  0
  -24.2500  -13.1510   20.8100 C   0  0  0  0  0  0  0  0  0  0  0  0
  -24.7100  -11.7990   20.7380 C   0  0  0  0  0  0  0  0  0  0  0  0
  -26.3240  -13.0550   20.0960 N   0  0  0  0  0  0  0  0  0  0  0  0
  -25.9840  -11.7670   20.3640 N   0  0  0  0  0  0  0  0  0  0  0  0
  -23.9910  -10.5340   20.9460 C   0  0  0  0  0  0  0  0  0  0  0  0
  -24.4490   -9.5670   21.8680 C   0  0  0  0  0  3  0  0  0  0  0  0
  -23.7280   -8.3700   22.0650 C   0  0  0  0  0  3  0  0  0  0  0  0
  -22.5360   -8.1310   21.3420 C   0  0  0  0  0  0  0  0  0  0  0  0
  -22.0970   -9.0860   20.4090 C   0  0  0  0  0  3  0  0  0  0  0  0
  -22.8180  -10.2750   20.2090 C   0  0  0  0  0  3  0  0  0  0  0  0
  -21.7840   -6.9860   21.4500 O   0  0  0  0  0  0  0  0  0  0  0  0
  -21.7410   -6.2600   22.6120 C   0  0  0  0  0  0  0  0  0  0  0  0
  -21.3120   -6.8290   23.8320 C   0  0  0  0  0  3  0  0  0  0  0  0
  -21.2170   -6.0290   24.9880 C   0  0  0  0  0  3  0  0  0  0  0  0
  -21.5400   -4.6600   24.9260 C   0  0  0  0  0  0  0  0  0  0  0  0
  -21.9610   -4.0900   23.7110 C   0  0  0  0  0  3  0  0  0  0  0  0
  -22.0570   -4.8880   22.5580 C   0  0  0  0  0  0  0  0  0  0  0  0
  -22.4430   -4.3290   21.3850 F   0  0  0  0  0  0  0  0  0  0  0  0
  -21.4400   -3.8890   26.0340 F   0  0  0  0  0  0  0  0  0  0  0  0
  -22.8680  -13.6250   21.1550 C   0  0  0  0  0  0  0  0  0  0  0  0
  -22.1830  -12.9200   22.0460 N   0  0  0  0  0  0  0  0  0  0  0  0
  -22.4080  -14.6570   20.6670 O   0  0  0  0  0  0  0  0  0  0  0  0
  -22.5700  -12.0860   22.4630 H   0  0  0  0  0  0  0  0  0  0  0  0
  -21.2560  -13.2190   22.3180 H   0  0  0  0  0  0  0  0  0  0  0  0
  -25.4540  -15.3030   20.2370 N   0  0  0  0  0  0  0  0  0  0  0  0
  -24.6990  -15.9590   20.4100 H   0  0  0  0  0  0  0  0  0  0  0  0
  -26.2970  -15.7480   19.8970 H   0  0  0  0  0  0  0  0  0  0  0  0
  -28.5230  -24.9820   19.7860 C   0  0  0  0  0  2  0  0  0  0  0  0
  -28.4140  -26.4260   20.2660 O   0  0  0  0  0  0  0  0  0  0  0  0
  -24.6450  -31.8870   23.2200 C   0  0  0  0  0  0  0  0  0  0  0  0
  -27.2840  -27.2820   20.1770 C   0  0  0  0  0  0  0  0  0  0  0  0
  -23.4540  -30.4830   21.5730 C   0  0  0  0  0  3  0  0  0  0  0  0
  -24.9180  -28.9310   20.1460 C   0  0  0  0  0  0  0  0  0  0  0  0
  -25.9970  -30.8000   21.3990 C   0  0  0  0  0  2  0  0  0  0  0  0
  -26.0830  -29.4160   20.7500 C   0  0  0  0  0  0  0  0  0  0  0  0
  -27.2630  -28.6020   20.7520 C   0  0  0  0  0  3  0  0  0  0  0  0
  -26.0920  -26.8670   19.5450 C   0  0  0  0  0  3  0  0  0  0  0  0
  -24.9290  -27.6670   19.5320 C   0  0  0  0  0  3  0  0  0  0  0  0
  -23.6780  -29.8030   20.1930 C   0  0  0  0  0  2  0  0  0  0  0  0
  -24.7180  -31.0770   22.1210 N   0  0  0  0  0  0  0  0  0  0  0  0
  -23.5590  -32.1580   23.7530 O   0  0  0  0  0  0  0  0  0  0  0  0
  -22.7910  -29.4660   22.5350 C   0  0  0  0  0  0  0  0  0  0  0  0
  -21.4650  -29.2880   22.4140 N   0  0  0  0  0  0  0  0  0  0  0  0
  -23.4710  -28.8380   23.3500 O   0  0  0  0  0  0  0  0  0  0  0  0
  -20.9720  -29.8480   21.7310 H   0  0  0  0  0  0  0  0  0  0  0  0
  -18.0890  -28.0890   22.9300 C   0  0  0  0  0  0  0  0  0  0  0  0
  -20.6510  -28.3460   23.1860 C   0  0  0  0  0  3  0  0  0  0  0  0
  -20.7450  -26.9170   22.6000 C   0  0  0  0  0  2  0  0  0  0  0  0
  -19.6380  -26.6050   21.5890 C   0  0  0  0  0  2  0  0  0  0  0  0
  -18.2610  -26.7450   22.2420 C   0  0  0  0  0  2  0  0  0  0  0  0
  -19.2110  -28.8480   23.3590 C   0  0  0  0  0  0  0  0  0  0  0  0
  -18.9940  -30.1050   23.9630 C   0  0  0  0  0  3  0  0  0  0  0  0
  -17.6900  -30.6030   24.1440 C   0  0  0  0  0  3  0  0  0  0  0  0
  -16.5830  -29.8410   23.7320 C   0  0  0  0  0  3  0  0  0  0  0  0
  -16.7840  -28.5860   23.1290 C   0  0  0  0  0  3  0  0  0  0  0  0
  -25.9210  -32.5290   23.8480 C   0  0  0  0  0  3  0  0  0  0  0  0
  -25.6030  -33.9270   24.1760 N   0  0  0  0  0  0  0  0  0  0  0  0
  -25.9370  -34.9830   23.4220 C   0  0  0  0  0  0  0  0  0  0  0  0
  -26.6110  -34.8820   22.3930 O   0  0  0  0  0  0  0  0  0  0  0  0
  -25.0040  -34.0800   24.9750 H   0  0  0  0  0  0  0  0  0  0  0  0
  -24.2050  -36.7740   23.0600 C   0  0  0  0  0  1  0  0  0  0  0  0
  -25.4450  -36.3710   23.8770 C   0  0  0  0  0  3  0  0  0  0  0  0
  -27.5700  -37.2620   24.7220 C   0  0  0  0  0  1  0  0  0  0  0  0
  -26.4750  -37.4270   23.7700 N   0  0  0  0  0  0  0  0  0  0  0  0
  -26.0660  -38.3470   23.9120 H   0  0  0  0  0  0  0  0  0  0  0  0
  -26.4330  -31.7660   25.1320 C   0  0  1  0  0  0  0  0  0  0  0  0
  -25.3370  -31.5300   26.1970 C   0  0  0  0  0  1  0  0  0  0  0  0
  -27.0250  -30.3920   24.7490 C   0  0  0  0  0  1  0  0  0  0  0  0
  -27.5780  -32.5680   25.7950 C   0  0  0  0  0  1  0  0  0  0  0  0
  1  5  1  0
  3  8  1  0
  3  4  1  0
  3  1  1  0
  4 51  1  0
  4  2  1  0
  5  2  1  0
  5  7  1  0
  6  5  1  0
 10 15  1  0
 11 12  1  0
 11 10  1  0
 13 12  1  0
 13 26  1  0
 13 14  1  0
 15  9  1  0
 15 14  1  0
 16  9  2  0
 17 19  1  0
 17 21  1  0
 18 20  1  0
 19 22  1  0
 21  8  1  0
 21 18  1  0
 22  9  1  0
 22 20  1  0
 23 24  2  0
 24 43  1  0
 25 24  1  0
 25 28  1  0
 26 27  1  0
 26 23  1  0
 27 25  2  0
 28 29  1  0
 29 30  2  0
 31 34  1  0
 31 30  1  0
 32 31  2  0
 33 32  1  0
 33 28  2  0
 34 35  1  0
 35 36  1  0
 36 37  2  0
 38 37  1  0
 38 42  1  0
 39 38  2  0
 40 35  2  0
 40 39  1  0
 41 40  1  0
 43 44  1  0
 44 47  1  0
 44 46  1  0
 45 43  2  0
 48 23  1  0
 48 49  1  0
 50 48  1  0
 51 52  1  0
 53 64  2  0
 54 52  1  0
 54 59  1  0
 55 63  1  0
 55 65  1  0
 56 62  1  0
 56 58  1  0
 57 63  1  0
 58 59  2  0
 58 57  1  0
 60 54  2  0
 61 60  1  0
 61 56  2  0
 62 55  1  0
 63 53  1  0
 65 67  2  0
 66 65  1  0
 68 66  1  0
 69 78  2  0
 69 74  1  0
 70 66  1  0
 70 74  1  0
 71 70  1  0
 72 73  1  0
 72 71  1  0
 73 69  1  0
 74 75  2  0
 75 76  1  0
 77 76  2  0
 78 77  1  0
 79 53  1  0
 79 80  1  0
 79 89  1  0
 80 83  1  0
 81 85  1  0
 81 80  1  0
 82 81  2  0
 85 84  1  0
 87 85  1  0
 87 88  1  0
 87 86  1  0
 89 92  1  1
 89 90  1  0
 91 89  1  0
M  ISO  4   9 100  22 100  51 101  52 101
M  END
>  <TORSDO>  (88) 
F 18

>  <SCORE>  (88) 
-14.831

>  <name>  (88) 
88

>  <ligand_id>  (88) 
88

>  <original_smiles>  (88) 
[H]c1c([H])c([H])c2c(c1[H])C([H])([H])C([H])([H])C([H])([H])C2([H])N([H])C(=O)C1([H])N(C(=O)C([H])(N([H])C(=O)C([H])(N([H])C([H])([H])[H])C([H])([H])[H])C(C([H])([H])[H])(C([H])([H])[H])C([H])([H])[H])C([H])([H])c2c([H])c(OC([H])([H])C3([H])C([H])(C([H])([H])C4([H])C([H])([H])C([H])([H])N(C(=O)N5C([H])([H])C([H])([H])C([H])([H])C([H])(n6nc(-c7c([H])c([H])c(Oc8c([H])c([H])c(F)c([H])c8F)c([H])c7[H])c(C(=O)N([H])[H])c6N([H])[H])C5([H])[H])C([H])([H])C4([H])[H])C([H])([H])[N+]([H])([H])C3([H])[H])c([H])c([H])c2C1([H])[H]

>  <smiles>  (88) 
[H]c1c([H])c([H])c2c(c1[H])C([H])([H])C([H])([H])C([H])([H])C2([H])N([H])C(=O)C1([H])N(C(=O)C([H])(N([H])C(=O)C([H])(N([H])C([H])([H])[H])C([H])([H])[H])C(C([H])([H])[H])(C([H])([H])[H])C([H])([H])[H])C([H])([H])c2c([H])c(OC([H])([H])C3([H])C([H])(C([H])([H])C4([H])C([H])([H])C([H])([H])N(C(=O)N5C([H])([H])C([H])([H])C([H])([H])C([H])(n6nc(-c7c([H])c([H])c(Oc8c([H])c([H])c(F)c([H])c8F)c([H])c7[H])c(C(=O)N([H])[H])c6N([H])[H])C5([H])[H])C([H])([H])C4([H])[H])C([H])([H])[N+]([H])([H])C3([H])[H])c([H])c([H])c2C1([H])[H]

$$$$
89:0:0
     RDKit          3D

 99109  0  0  1  0  0  0  0  0999 V2000
  -31.7770  -22.8100   18.5200 C   0  0  0  0  0  2  0  0  0  0  0  0
  -29.5930  -21.5850   18.0950 C   0  0  0  0  0  2  0  0  0  0  0  0
  -31.3520  -23.8630   17.4830 C   0  0  0  0  0  2  0  0  0  0  0  0
  -29.2550  -22.6640   17.0490 C   0  0  0  0  0  2  0  0  0  0  0  0
  -31.1240  -21.4310   18.2820 C   0  0  0  0  0  3  0  0  0  0  0  0
  -29.8750  -23.9400   17.4610 N   0  0  2  0  0  4  0  0  0  0  0  0
  -29.6110  -24.0270   18.4300 H   0  0  0  0  0  0  0  0  0  0  0  0
  -31.5700  -20.4760   19.4200 C   0  0  0  0  0  2  0  0  0  0  0  0
  -30.6890  -14.4830   20.5410 C   0  0  0  0  0  0  0  0  0  0  0  0
  -30.4010  -12.2690   19.5430 C   0  0  0  0  0  2  0  0  0  0  0  0
  -29.4970  -12.3730   18.2970 C   0  0  0  0  0  2  0  0  0  0  0  0
  -28.0030  -12.3450   18.6800 C   0  0  0  0  0  2  0  0  0  0  0  0
  -27.6340  -13.2390   19.8940 C   0  0  0  0  0  3  0  0  0  0  0  0
  -28.6610  -13.0950   21.0400 C   0  0  0  0  0  2  0  0  0  0  0  0
  -29.9980  -13.3230   20.4790 N   0  0  0  0  0  0  0  0  0  0  0  0
  -31.9000  -14.5690   20.3220 O   0  0  0  0  0  0  0  0  0  0  0  0
  -31.0760  -17.4360   21.5820 C   0  0  0  0  0  2  0  0  0  0  0  0
  -30.6420  -18.3960   18.1840 C   0  0  0  0  0  2  0  0  0  0  0  0
  -29.7670  -16.6510   21.3030 C   0  0  0  0  0  2  0  0  0  0  0  0
  -29.8370  -16.0970   18.9240 C   0  0  0  0  0  2  0  0  0  0  0  0
  -30.8930  -19.0900   19.5370 C   0  0  0  0  0  3  0  0  0  0  0  0
  -31.7650  -18.0780   20.3420 C   0  0  0  0  0  3  0  0  0  0  0  0
  -31.0420  -16.9440   18.4020 C   0  0  0  0  0  3  0  0  0  0  0  0
  -29.9410  -15.5860   20.3080 N   0  0  0  0  0  0  0  0  0  0  0  0
  -32.1480  -17.0450   19.3630 N   0  0  0  0  0  4  0  0  0  0  0  0
  -32.3090  -16.1370   19.7950 H   0  0  0  0  0  0  0  0  0  0  0  0
  -32.9870  -17.3210   18.8780 H   0  0  0  0  0  0  0  0  0  0  0  0
  -25.2150  -13.8590   20.5160 C   0  0  0  0  0  0  0  0  0  0  0  0
  -24.1380  -13.0900   20.8650 C   0  0  0  0  0  0  0  0  0  0  0  0
  -24.6040  -11.7390   20.8840 C   0  0  0  0  0  0  0  0  0  0  0  0
  -26.2710  -12.9750   20.3440 N   0  0  0  0  0  0  0  0  0  0  0  0
  -25.9050  -11.6990   20.6280 N   0  0  0  0  0  0  0  0  0  0  0  0
  -23.8750  -10.4820   21.0780 C   0  0  0  0  0  0  0  0  0  0  0  0
  -24.2940   -9.5160   22.0240 C   0  0  0  0  0  3  0  0  0  0  0  0
  -23.5650   -8.3200   22.1940 C   0  0  0  0  0  3  0  0  0  0  0  0
  -22.4030   -8.0790   21.4250 C   0  0  0  0  0  0  0  0  0  0  0  0
  -22.0070   -9.0290   20.4690 C   0  0  0  0  0  3  0  0  0  0  0  0
  -22.7350  -10.2170   20.2930 C   0  0  0  0  0  3  0  0  0  0  0  0
  -21.6430   -6.9370   21.5120 O   0  0  0  0  0  0  0  0  0  0  0  0
  -21.5960   -6.1870   22.6610 C   0  0  0  0  0  0  0  0  0  0  0  0
  -21.1920   -6.7420   23.8940 C   0  0  0  0  0  3  0  0  0  0  0  0
  -21.0910   -5.9200   25.0350 C   0  0  0  0  0  3  0  0  0  0  0  0
  -21.3860   -4.5480   24.9440 C   0  0  0  0  0  0  0  0  0  0  0  0
  -21.7860   -3.9930   23.7160 C   0  0  0  0  0  3  0  0  0  0  0  0
  -21.8890   -4.8120   22.5760 C   0  0  0  0  0  0  0  0  0  0  0  0
  -22.2540   -4.2680   21.3910 F   0  0  0  0  0  0  0  0  0  0  0  0
  -21.2840   -3.7600   26.0390 F   0  0  0  0  0  0  0  0  0  0  0  0
  -22.7310  -13.5670   21.0820 C   0  0  0  0  0  0  0  0  0  0  0  0
  -21.9780  -12.8840   21.9370 N   0  0  0  0  0  0  0  0  0  0  0  0
  -22.3060  -14.5810   20.5270 O   0  0  0  0  0  0  0  0  0  0  0  0
  -22.3320  -12.0530   22.3890 H   0  0  0  0  0  0  0  0  0  0  0  0
  -21.0380  -13.1870   22.1440 H   0  0  0  0  0  0  0  0  0  0  0  0
  -25.3850  -15.2240   20.3150 N   0  0  0  0  0  0  0  0  0  0  0  0
  -24.6250  -15.8880   20.4170 H   0  0  0  0  0  0  0  0  0  0  0  0
  -26.2520  -15.6620   20.0260 H   0  0  0  0  0  0  0  0  0  0  0  0
  -29.3040  -25.1580   16.8370 C   0  0  0  0  0  2  0  0  0  0  0  0
  -29.1840  -26.2860   17.8780 C   0  0  0  0  0  2  0  0  0  0  0  0
  -28.6960  -25.7780   19.2520 C   0  0  0  0  0  2  0  0  0  0  0  0
  -28.4560  -26.8520   20.1430 O   0  0  0  0  0  0  0  0  0  0  0  0
  -24.6030  -31.8900   23.2420 C   0  0  0  0  0  0  0  0  0  0  0  0
  -27.2440  -27.5000   20.1190 C   0  0  0  0  0  0  0  0  0  0  0  0
  -23.3810  -30.4860   21.6080 C   0  0  0  0  0  3  0  0  0  0  0  0
  -24.8240  -28.9580   20.1680 C   0  0  0  0  0  0  0  0  0  0  0  0
  -25.8940  -30.8640   21.3820 C   0  0  0  0  0  2  0  0  0  0  0  0
  -25.9800  -29.4930   20.7520 C   0  0  0  0  0  0  0  0  0  0  0  0
  -27.1830  -28.7630   20.7390 C   0  0  0  0  0  3  0  0  0  0  0  0
  -26.0710  -26.9720   19.5270 C   0  0  0  0  0  3  0  0  0  0  0  0
  -24.8640  -27.6940   19.5580 C   0  0  0  0  0  3  0  0  0  0  0  0
  -23.5680  -29.7950   20.2310 C   0  0  0  0  0  2  0  0  0  0  0  0
  -24.6450  -31.0930   22.1380 N   0  0  0  0  0  0  0  0  0  0  0  0
  -23.5260  -32.1600   23.7920 O   0  0  0  0  0  0  0  0  0  0  0  0
  -22.7430  -29.4640   22.5760 C   0  0  0  0  0  0  0  0  0  0  0  0
  -21.4190  -29.2790   22.4530 N   0  0  0  0  0  0  0  0  0  0  0  0
  -23.4360  -28.8390   23.3850 O   0  0  0  0  0  0  0  0  0  0  0  0
  -20.9240  -29.8370   21.7720 H   0  0  0  0  0  0  0  0  0  0  0  0
  -18.0540  -28.0710   22.9550 C   0  0  0  0  0  0  0  0  0  0  0  0
  -20.6090  -28.3370   23.2230 C   0  0  0  0  0  3  0  0  0  0  0  0
  -20.7190  -26.9070   22.6440 C   0  0  0  0  0  2  0  0  0  0  0  0
  -19.6150  -26.5770   21.6350 C   0  0  0  0  0  2  0  0  0  0  0  0
  -18.2330  -26.7210   22.2790 C   0  0  0  0  0  2  0  0  0  0  0  0
  -19.1700  -28.8380   23.3800 C   0  0  0  0  0  0  0  0  0  0  0  0
  -18.9510  -30.1030   23.9650 C   0  0  0  0  0  3  0  0  0  0  0  0
  -17.6440  -30.6040   24.1300 C   0  0  0  0  0  3  0  0  0  0  0  0
  -16.5430  -29.8320   23.7220 C   0  0  0  0  0  3  0  0  0  0  0  0
  -16.7480  -28.5680   23.1430 C   0  0  0  0  0  3  0  0  0  0  0  0
  -25.8940  -32.5240   23.8500 C   0  0  0  0  0  3  0  0  0  0  0  0
  -26.4280  -31.7500   25.1170 C   0  0  1  0  0  0  0  0  0  0  0  0
  -25.3470  -31.5050   26.1960 C   0  0  0  0  0  1  0  0  0  0  0  0
  -27.0160  -30.3810   24.7090 C   0  0  0  0  0  1  0  0  0  0  0  0
  -27.5800  -32.5480   25.7700 C   0  0  0  0  0  1  0  0  0  0  0  0
  -25.5870  -33.9190   24.1850 N   0  0  0  0  0  0  0  0  0  0  0  0
  -25.9140  -34.9730   23.4250 C   0  0  0  0  0  0  0  0  0  0  0  0
  -26.5800  -34.8730   22.3920 O   0  0  0  0  0  0  0  0  0  0  0  0
  -25.0050  -34.0750   24.9950 H   0  0  0  0  0  0  0  0  0  0  0  0
  -24.1790  -36.7590   23.0830 C   0  0  0  0  0  1  0  0  0  0  0  0
  -25.4250  -36.3580   23.8890 C   0  0  0  0  0  3  0  0  0  0  0  0
  -27.5620  -37.2390   24.7160 C   0  0  0  0  0  1  0  0  0  0  0  0
  -26.4560  -37.4130   23.7770 N   0  0  0  0  0  0  0  0  0  0  0  0
  -26.0490  -38.3310   23.9320 H   0  0  0  0  0  0  0  0  0  0  0  0
  2  5  1  0
  3  1  1  0
  4  6  1  0
  4  2  1  0
  5  1  1  0
  5  8  1  0
  6  3  1  0
  6  7  1  1
 10 15  1  0
 11 12  1  0
 11 10  1  0
 13 12  1  0
 13 31  1  0
 13 14  1  0
 15  9  1  0
 15 14  1  0
 16  9  2  0
 18 21  1  0
 19 17  1  0
 20 24  1  0
 21  8  1  0
 21 22  1  0
 22 17  1  0
 23 18  1  0
 23 20  1  0
 23 25  1  0
 24  9  1  0
 24 19  1  0
 25 26  1  0
 25 22  1  0
 27 25  1  0
 28 29  2  0
 29 30  1  0
 29 48  1  0
 30 33  1  0
 31 28  1  0
 31 32  1  0
 32 30  2  0
 33 34  1  0
 34 35  2  0
 36 39  1  0
 36 35  1  0
 37 36  2  0
 38 37  1  0
 38 33  2  0
 39 40  1  0
 40 41  1  0
 41 42  2  0
 43 42  1  0
 43 47  1  0
 44 43  2  0
 45 40  2  0
 45 44  1  0
 46 45  1  0
 48 49  1  0
 49 52  1  0
 49 51  1  0
 50 48  2  0
 53 54  1  0
 53 28  1  0
 55 53  1  0
 56  6  1  0
 56 57  1  0
 57 58  1  0
 58 59  1  0
 60 71  2  0
 61 59  1  0
 61 66  1  0
 62 70  1  0
 62 72  1  0
 63 69  1  0
 63 65  1  0
 64 70  1  0
 65 64  1  0
 66 65  2  0
 67 68  1  0
 67 61  2  0
 68 63  2  0
 69 62  1  0
 70 60  1  0
 72 74  2  0
 73 72  1  0
 75 73  1  0
 76 85  2  0
 76 81  1  0
 77 73  1  0
 77 81  1  0
 78 77  1  0
 79 80  1  0
 79 78  1  0
 80 76  1  0
 81 82  2  0
 82 83  1  0
 84 83  2  0
 85 84  1  0
 86 60  1  0
 86 91  1  0
 86 87  1  0
 87 90  1  1
 87 88  1  0
 89 87  1  0
 91 94  1  0
 92 96  1  0
 92 91  1  0
 93 92  2  0
 96 95  1  0
 98 96  1  0
 98 99  1  0
 98 97  1  0
M  ISO  4   9 100  24 100  58 101  59 101
M  END
>  <TORSDO>  (89) 
F 20

>  <SCORE>  (89) 
-13.837

>  <name>  (89) 
89

>  <ligand_id>  (89) 
89

>  <original_smiles>  (89) 
[H]c1c([H])c([H])c2c(c1[H])C([H])([H])C([H])([H])C([H])([H])C2([H])N([H])C(=O)C1([H])N(C(=O)C([H])(N([H])C(=O)C([H])(N([H])C([H])([H])[H])C([H])([H])[H])C(C([H])([H])[H])(C([H])([H])[H])C([H])([H])[H])C([H])([H])c2c([H])c(OC([H])([H])C([H])([H])C([H])([H])[N+]3([H])C([H])([H])C([H])([H])C([H])(C([H])([H])C4([H])C([H])([H])C5([H])C([H])([H])N(C(=O)N6C([H])([H])C([H])([H])C([H])([H])C([H])(n7nc(-c8c([H])c([H])c(Oc9c([H])c([H])c(F)c([H])c9F)c([H])c8[H])c(C(=O)N([H])[H])c7N([H])[H])C6([H])[H])C([H])([H])C([H])([H])C4([H])[N+]5([H])[H])C([H])([H])C3([H])[H])c([H])c([H])c2C1([H])[H]

>  <smiles>  (89) 
[H]c1c([H])c([H])c2c(c1[H])C([H])([H])C([H])([H])C([H])([H])C2([H])N([H])C(=O)C1([H])N(C(=O)C([H])(N([H])C(=O)C([H])(N([H])C([H])([H])[H])C([H])([H])[H])C(C([H])([H])[H])(C([H])([H])[H])C([H])([H])[H])C([H])([H])c2c([H])c(OC([H])([H])C([H])([H])C([H])([H])[N+]3([H])C([H])([H])C([H])([H])C([H])(C([H])([H])C4([H])C([H])([H])C5([H])C([H])([H])N(C(=O)N6C([H])([H])C([H])([H])C([H])([H])C([H])(n7nc(-c8c([H])c([H])c(Oc9c([H])c([H])c(F)c([H])c9F)c([H])c8[H])c(C(=O)N([H])[H])c7N([H])[H])C6([H])[H])C([H])([H])C([H])([H])C4([H])[N+]5([H])[H])C([H])([H])C3([H])[H])c([H])c([H])c2C1([H])[H]

$$$$
90:0:0
     RDKit          3D

 96104  0  0  1  0  0  0  0  0999 V2000
  -24.8120  -22.5510   21.1280 C   0  0  0  0  0  0  0  0  0  0  0  0
  -26.2480  -22.0510   21.2630 C   0  0  0  0  0  2  0  0  0  0  0  0
  -23.8920  -21.7300   20.2280 C   0  0  0  0  0  2  0  0  0  0  0  0
  -27.1230  -22.3570   20.0300 C   0  0  0  0  0  2  0  0  0  0  0  0
  -24.0940  -21.8550   18.6870 C   0  0  0  0  0  2  0  0  0  0  0  0
  -26.5870  -21.7520   18.7070 C   0  0  0  0  0  3  0  0  0  0  0  0
  -25.3680  -22.4630   18.1890 N   0  0  2  0  0  4  0  0  0  0  0  0
  -24.4280  -23.5800   21.6840 O   0  0  0  0  0  0  0  0  0  0  0  0
  -25.3360  -22.2450   17.2060 H   0  0  0  0  0  0  0  0  0  0  0  0
  -27.6950  -21.6130   17.6230 C   0  0  0  0  0  2  0  0  0  0  0  0
  -28.1180  -20.1620   17.3050 C   0  0  0  0  0  2  0  0  0  0  0  0
  -28.7490  -19.4110   18.4990 C   0  0  0  0  0  2  0  0  0  0  0  0
  -29.8530  -18.4240   18.0580 C   0  0  0  0  0  2  0  0  0  0  0  0
  -30.9430  -16.3900   18.9400 C   0  0  0  0  0  0  0  0  0  0  0  0
  -31.3270  -13.9700   19.1440 C   0  0  0  0  0  2  0  0  0  0  0  0
  -30.4650  -13.2290   18.1040 C   0  0  0  0  0  2  0  0  0  0  0  0
  -29.0290  -12.9920   18.6110 C   0  0  0  0  0  2  0  0  0  0  0  0
  -28.3790  -14.2660   19.2100 C   0  0  0  0  0  3  0  0  0  0  0  0
  -29.3500  -14.9270   20.2120 C   0  0  0  0  0  2  0  0  0  0  0  0
  -30.6180  -15.2030   19.5120 N   0  0  0  0  0  0  0  0  0  0  0  0
  -31.9860  -16.5900   18.3110 O   0  0  0  0  0  0  0  0  0  0  0  0
  -29.9500  -17.2890   18.9650 N   0  0  0  0  0  0  0  0  0  0  0  0
  -29.1140  -17.0120   19.4580 H   0  0  0  0  0  0  0  0  0  0  0  0
  -26.0890  -14.8430   20.2360 C   0  0  0  0  0  0  0  0  0  0  0  0
  -25.0620  -14.0500   20.6860 C   0  0  0  0  0  0  0  0  0  0  0  0
  -25.5030  -12.7030   20.5100 C   0  0  0  0  0  0  0  0  0  0  0  0
  -27.0880  -13.9730   19.8300 N   0  0  0  0  0  0  0  0  0  0  0  0
  -26.7460  -12.6780   20.0460 N   0  0  0  0  0  0  0  0  0  0  0  0
  -24.7930  -11.4310   20.7060 C   0  0  0  0  0  0  0  0  0  0  0  0
  -25.1680  -10.5270   21.7230 C   0  0  0  0  0  3  0  0  0  0  0  0
  -24.4610   -9.3190   21.9030 C   0  0  0  0  0  3  0  0  0  0  0  0
  -23.3620   -9.0070   21.0690 C   0  0  0  0  0  0  0  0  0  0  0  0
  -23.0080   -9.9000   20.0410 C   0  0  0  0  0  3  0  0  0  0  0  0
  -23.7160  -11.1000   19.8590 C   0  0  0  0  0  3  0  0  0  0  0  0
  -22.6310   -7.8490   21.1570 O   0  0  0  0  0  0  0  0  0  0  0  0
  -22.2830   -7.3050   22.3680 C   0  0  0  0  0  0  0  0  0  0  0  0
  -21.5130   -8.0210   23.3130 C   0  0  0  0  0  3  0  0  0  0  0  0
  -21.1190   -7.3990   24.5150 C   0  0  0  0  0  3  0  0  0  0  0  0
  -21.4850   -6.0630   24.7700 C   0  0  0  0  0  0  0  0  0  0  0  0
  -22.2460   -5.3500   23.8290 C   0  0  0  0  0  3  0  0  0  0  0  0
  -22.6400   -5.9690   22.6300 C   0  0  0  0  0  0  0  0  0  0  0  0
  -23.3560   -5.2670   21.7160 F   0  0  0  0  0  0  0  0  0  0  0  0
  -21.1000   -5.4630   25.9210 F   0  0  0  0  0  0  0  0  0  0  0  0
  -23.7120  -14.5100   21.1540 C   0  0  0  0  0  0  0  0  0  0  0  0
  -23.0980  -13.7710   22.0710 N   0  0  0  0  0  0  0  0  0  0  0  0
  -23.2110  -15.5550   20.7380 O   0  0  0  0  0  0  0  0  0  0  0  0
  -23.5190  -12.9270   22.4270 H   0  0  0  0  0  0  0  0  0  0  0  0
  -22.2010  -14.0580   22.4290 H   0  0  0  0  0  0  0  0  0  0  0  0
  -26.2530  -16.2200   20.1330 N   0  0  0  0  0  0  0  0  0  0  0  0
  -25.5230  -16.8760   20.3890 H   0  0  0  0  0  0  0  0  0  0  0  0
  -27.0680  -16.6650   19.7300 H   0  0  0  0  0  0  0  0  0  0  0  0
  -25.3230  -23.9620   18.2150 C   0  0  0  0  0  2  0  0  0  0  0  0
  -26.6000  -24.7060   17.7510 C   0  0  0  0  0  2  0  0  0  0  0  0
  -26.3560  -26.2300   17.7380 C   0  0  0  0  0  2  0  0  0  0  0  0
  -27.6080  -27.1380   17.7260 C   0  0  0  0  0  2  0  0  0  0  0  0
  -27.3330  -28.5380   17.5600 O   0  0  0  0  0  0  0  0  0  0  0  0
  -25.7120  -30.0530   24.3440 C   0  0  0  0  0  0  0  0  0  0  0  0
  -26.4490  -29.1120   18.4490 C   0  0  0  0  0  0  0  0  0  0  0  0
  -23.9250  -30.4440   22.6830 C   0  0  0  0  0  3  0  0  0  0  0  0
  -24.6390  -30.3340   20.2390 C   0  0  0  0  0  0  0  0  0  0  0  0
  -26.3910  -30.5730   22.0040 C   0  0  0  0  0  2  0  0  0  0  0  0
  -25.9710  -30.1200   20.6240 C   0  0  0  0  0  0  0  0  0  0  0  0
  -26.8770  -29.4940   19.7370 C   0  0  0  0  0  3  0  0  0  0  0  0
  -25.1220  -29.3920   18.0590 C   0  0  0  0  0  3  0  0  0  0  0  0
  -24.2090  -29.9710   18.9530 C   0  0  0  0  0  3  0  0  0  0  0  0
  -23.7270  -30.9970   21.2470 C   0  0  0  0  0  2  0  0  0  0  0  0
  -25.3740  -30.3230   23.0520 N   0  0  0  0  0  0  0  0  0  0  0  0
  -24.8480  -29.9450   25.2270 O   0  0  0  0  0  0  0  0  0  0  0  0
  -23.1470  -29.1140   22.8160 C   0  0  0  0  0  0  0  0  0  0  0  0
  -21.8200  -29.1720   22.6150 N   0  0  0  0  0  0  0  0  0  0  0  0
  -23.7360  -28.0600   23.0690 O   0  0  0  0  0  0  0  0  0  0  0  0
  -21.4110  -30.0760   22.4220 H   0  0  0  0  0  0  0  0  0  0  0  0
  -18.4460  -28.1430   21.8220 C   0  0  0  0  0  0  0  0  0  0  0  0
  -20.8910  -28.0410   22.6580 C   0  0  0  0  0  3  0  0  0  0  0  0
  -21.1440  -27.0650   21.4860 C   0  0  0  0  0  2  0  0  0  0  0  0
  -20.2760  -27.3580   20.2590 C   0  0  0  0  0  2  0  0  0  0  0  0
  -18.7890  -27.2780   20.6190 C   0  0  0  0  0  2  0  0  0  0  0  0
  -19.4360  -28.5130   22.7700 C   0  0  0  0  0  0  0  0  0  0  0  0
  -19.0730  -29.3450   23.8500 C   0  0  0  0  0  3  0  0  0  0  0  0
  -17.7500  -29.8010   23.9920 C   0  0  0  0  0  3  0  0  0  0  0  0
  -16.7710  -29.4210   23.0600 C   0  0  0  0  0  3  0  0  0  0  0  0
  -17.1180  -28.5890   21.9810 C   0  0  0  0  0  3  0  0  0  0  0  0
  -27.2030  -29.8970   24.7800 C   0  0  0  0  0  3  0  0  0  0  0  0
  -27.4020  -30.7210   25.9800 N   0  0  0  0  0  0  0  0  0  0  0  0
  -28.0780  -31.8770   26.0060 C   0  0  0  0  0  0  0  0  0  0  0  0
  -28.6690  -32.3280   25.0210 O   0  0  0  0  0  0  0  0  0  0  0  0
  -26.9030  -30.4390   26.8120 H   0  0  0  0  0  0  0  0  0  0  0  0
  -27.1400  -33.8540   27.2440 C   0  0  0  0  0  1  0  0  0  0  0  0
  -28.1010  -32.6580   27.3340 C   0  0  0  0  0  3  0  0  0  0  0  0
  -30.3580  -32.0390   28.0740 C   0  0  0  0  0  1  0  0  0  0  0  0
  -29.4510  -33.1280   27.7160 N   0  0  0  0  0  0  0  0  0  0  0  0
  -29.4000  -33.7720   28.5000 H   0  0  0  0  0  0  0  0  0  0  0  0
  -27.6160  -28.4000   25.0560 C   0  0  1  0  0  0  0  0  0  0  0  0
  -26.6630  -27.6580   26.0220 C   0  0  0  0  0  1  0  0  0  0  0  0
  -27.6660  -27.5950   23.7370 C   0  0  0  0  0  1  0  0  0  0  0  0
  -29.0400  -28.3550   25.6560 C   0  0  0  0  0  1  0  0  0  0  0  0
  1  2  1  0
  1  8  2  0
  3  1  1  0
  4  2  1  0
  5  3  1  0
  6 10  1  0
  6  4  1  0
  7 52  1  0
  7  5  1  0
  7  6  1  0
  7  9  1  6
 11 10  1  0
 11 12  1  0
 13 12  1  0
 13 22  1  0
 14 22  1  0
 14 20  1  0
 15 20  1  0
 16 17  1  0
 16 15  1  0
 18 17  1  0
 18 27  1  0
 18 19  1  0
 20 19  1  0
 21 14  2  0
 22 23  1  0
 24 25  2  0
 25 44  1  0
 26 25  1  0
 26 29  1  0
 27 28  1  0
 27 24  1  0
 28 26  2  0
 29 30  1  0
 30 31  2  0
 32 35  1  0
 32 31  1  0
 33 32  2  0
 34 33  1  0
 34 29  2  0
 35 36  1  0
 36 41  2  0
 36 37  1  0
 37 38  2  0
 38 39  1  0
 39 43  1  0
 40 39  2  0
 41 40  1  0
 42 41  1  0
 44 45  1  0
 45 47  1  0
 45 48  1  0
 46 44  2  0
 49 24  1  0
 49 50  1  0
 51 49  1  0
 53 52  1  0
 54 53  1  0
 55 54  1  0
 56 55  1  0
 56 58  1  0
 57 68  2  0
 58 63  1  0
 59 69  1  0
 59 67  1  0
 60 62  1  0
 60 66  1  0
 61 67  1  0
 62 61  1  0
 63 62  2  0
 64 58  2  0
 64 65  1  0
 65 60  2  0
 66 59  1  0
 67 57  1  0
 69 71  2  0
 70 69  1  0
 72 70  1  0
 73 82  2  0
 73 78  1  0
 74 70  1  0
 74 78  1  0
 75 74  1  0
 76 77  1  0
 76 75  1  0
 77 73  1  0
 78 79  2  0
 79 80  1  0
 81 80  2  0
 82 81  1  0
 83 57  1  0
 83 93  1  0
 83 84  1  0
 84 85  1  0
 84 87  1  0
 85 89  1  0
 86 85  2  0
 89 88  1  0
 89 91  1  0
 91 90  1  0
 91 92  1  0
 93 96  1  1
 93 94  1  0
 95 93  1  0
M  ISO  4  14 100  22 100  55 101  56 101
M  END
>  <TORSDO>  (90) 
F 24

>  <SCORE>  (90) 
-2.392

>  <name>  (90) 
90

>  <ligand_id>  (90) 
90

>  <original_smiles>  (90) 
[H]c1c([H])c([H])c2c(c1[H])C([H])([H])C([H])([H])C([H])([H])C2([H])N([H])C(=O)C1([H])N(C(=O)C([H])(N([H])C(=O)C([H])(N([H])C([H])([H])[H])C([H])([H])[H])C(C([H])([H])[H])(C([H])([H])[H])C([H])([H])[H])C([H])([H])c2c([H])c(OC([H])([H])C([H])([H])C([H])([H])C([H])([H])[N+]3([H])C([H])([H])C([H])([H])C(=O)C([H])([H])C([H])([H])C3([H])C([H])([H])C([H])([H])C([H])([H])C([H])([H])N([H])C(=O)N3C([H])([H])C([H])([H])C([H])([H])C([H])(n4nc(-c5c([H])c([H])c(Oc6c([H])c([H])c(F)c([H])c6F)c([H])c5[H])c(C(=O)N([H])[H])c4N([H])[H])C3([H])[H])c([H])c([H])c2C1([H])[H]

>  <smiles>  (90) 
[H]c1c([H])c([H])c2c(c1[H])C([H])([H])C([H])([H])C([H])([H])C2([H])N([H])C(=O)C1([H])N(C(=O)C([H])(N([H])C(=O)C([H])(N([H])C([H])([H])[H])C([H])([H])[H])C(C([H])([H])[H])(C([H])([H])[H])C([H])([H])[H])C([H])([H])c2c([H])c(OC([H])([H])C([H])([H])C([H])([H])C([H])([H])[N+]3([H])C([H])([H])C([H])([H])C(=O)C([H])([H])C([H])([H])C3([H])C([H])([H])C([H])([H])C([H])([H])C([H])([H])N([H])C(=O)N3C([H])([H])C([H])([H])C([H])([H])C([H])(n4nc(-c5c([H])c([H])c(Oc6c([H])c([H])c(F)c([H])c6F)c([H])c5[H])c(C(=O)N([H])[H])c4N([H])[H])C3([H])[H])c([H])c([H])c2C1([H])[H]

$$$$
91:0:0
     RDKit          3D

 95104  0  0  1  0  0  0  0  0999 V2000
  -25.9710  -19.5100   23.0320 C   0  0  0  0  0  3  0  0  0  0  0  0
  -25.4340  -20.6720   22.5730 C   0  0  0  0  0  0  0  0  0  0  0  0
  -27.1140  -18.7110   22.3790 C   0  0  0  0  0  2  0  0  0  0  0  0
  -26.0360  -21.2300   21.2740 C   0  0  0  0  0  2  0  0  0  0  0  0
  -26.8630  -20.1900   20.4320 C   0  0  0  0  0  2  0  0  0  0  0  0
  -27.8180  -19.2800   21.1730 N   0  0  2  0  0  4  0  0  0  0  0  0
  -28.5600  -19.8680   21.5230 H   0  0  0  0  0  0  0  0  0  0  0  0
  -24.0880  -21.2570   23.1440 C   0  0  0  0  0  2  0  0  0  0  0  0
  -22.2100  -25.7990   22.7810 C   0  0  0  0  0  0  0  0  0  0  0  0
  -22.4430  -27.7690   21.2910 C   0  0  0  0  0  2  0  0  0  0  0  0
  -22.3300  -27.8920   19.7480 C   0  0  0  0  0  2  0  0  0  0  0  0
  -23.6120  -27.3770   19.1190 C   0  0  0  0  0  2  0  0  0  0  0  0
  -23.8630  -25.9000   19.4090 C   0  0  0  0  0  3  0  0  0  0  0  0
  -23.3430  -25.4300   20.7260 C   0  0  0  0  0  2  0  0  0  0  0  0
  -22.7510  -26.3850   21.6910 N   0  0  0  0  0  0  0  0  0  0  0  0
  -20.9680  -25.6910   22.9370 O   0  0  0  0  0  0  0  0  0  0  0  0
  -23.2620  -23.2110   24.5950 C   0  0  0  0  0  2  0  0  0  0  0  0
  -23.9630  -22.7560   23.5460 C   0  0  0  0  0  3  0  0  0  0  0  0
  -24.9410  -23.8050   23.0290 C   0  0  0  0  0  0  0  0  0  0  0  0
  -23.0440  -24.6990   24.9110 C   0  0  0  0  0  2  0  0  0  0  0  0
  -24.6680  -25.3030   23.3130 C   0  0  0  0  0  2  0  0  0  0  0  0
  -23.2050  -25.4510   23.6630 N   0  0  0  0  0  0  0  0  0  0  0  0
  -25.9860  -23.5150   22.4260 O   0  0  0  0  0  0  0  0  0  0  0  0
  -25.5780  -24.0630   19.0610 C   0  0  0  0  0  0  0  0  0  0  0  0
  -26.7770  -24.0790   18.3920 C   0  0  0  0  0  0  0  0  0  0  0  0
  -27.0620  -25.4450   18.0700 C   0  0  0  0  0  0  0  0  0  0  0  0
  -25.1810  -25.3860   19.0650 N   0  0  0  0  0  0  0  0  0  0  0  0
  -26.1380  -26.2400   18.5730 N   0  0  0  0  0  0  0  0  0  0  0  0
  -28.1180  -26.0510   17.2450 C   0  0  0  0  0  0  0  0  0  0  0  0
  -28.8950  -27.1320   17.7250 C   0  0  0  0  0  3  0  0  0  0  0  0
  -29.9100  -27.6650   16.9160 C   0  0  0  0  0  3  0  0  0  0  0  0
  -30.1360  -27.1520   15.6250 C   0  0  0  0  0  0  0  0  0  0  0  0
  -29.3240  -26.1070   15.1530 C   0  0  0  0  0  3  0  0  0  0  0  0
  -28.3100  -25.5600   15.9450 C   0  0  0  0  0  3  0  0  0  0  0  0
  -31.1030  -27.6040   14.7750 O   0  0  0  0  0  0  0  0  0  0  0  0
  -32.2290  -28.2120   15.2320 C   0  0  0  0  0  0  0  0  0  0  0  0
  -33.1260  -27.5650   16.1100 C   0  0  0  0  0  3  0  0  0  0  0  0
  -34.3090  -28.2200   16.5320 C   0  0  0  0  0  3  0  0  0  0  0  0
  -34.6170  -29.5080   16.0550 C   0  0  0  0  0  0  0  0  0  0  0  0
  -33.7250  -30.1740   15.1920 C   0  0  0  0  0  3  0  0  0  0  0  0
  -32.5360  -29.5130   14.7810 C   0  0  0  0  0  0  0  0  0  0  0  0
  -31.7070  -30.1440   13.9230 F   0  0  0  0  0  0  0  0  0  0  0  0
  -35.7690  -30.1200   16.4490 F   0  0  0  0  0  0  0  0  0  0  0  0
  -27.5180  -22.8490   17.9380 C   0  0  0  0  0  0  0  0  0  0  0  0
  -28.8460  -22.9390   17.8280 N   0  0  0  0  0  0  0  0  0  0  0  0
  -26.9690  -21.7680   17.7240 O   0  0  0  0  0  0  0  0  0  0  0  0
  -29.3500  -22.0710   17.6150 H   0  0  0  0  0  0  0  0  0  0  0  0
  -29.3880  -23.7910   17.9760 H   0  0  0  0  0  0  0  0  0  0  0  0
  -24.8020  -23.0760   19.6050 N   0  0  0  0  0  0  0  0  0  0  0  0
  -24.9640  -22.0990   19.4230 H   0  0  0  0  0  0  0  0  0  0  0  0
  -23.8490  -23.2830   19.8280 H   0  0  0  0  0  0  0  0  0  0  0  0
  -28.4840  -18.1330   20.3780 C   0  0  0  0  0  3  0  0  0  0  0  0
  -29.2510  -18.2930   18.9510 C   0  0  0  0  0  3  0  0  0  0  0  0
  -29.5090  -19.8090   18.3550 C   0  0  0  0  0  2  0  0  0  0  0  0
  -30.7890  -20.3860   17.7220 O   0  0  0  0  0  0  0  0  0  0  0  0
  -35.1560  -18.4830   12.2980 C   0  0  0  0  0  0  0  0  0  0  0  0
  -31.7350  -19.4540   17.2290 C   0  0  0  0  0  0  0  0  0  0  0  0
  -34.2050  -16.6810   13.6920 C   0  0  0  0  0  3  0  0  0  0  0  0
  -33.2740  -17.3830   15.9770 C   0  0  0  0  0  0  0  0  0  0  0  0
  -34.7260  -18.9680   14.7290 C   0  0  0  0  0  2  0  0  0  0  0  0
  -33.5920  -18.7260   15.7240 C   0  0  0  0  0  0  0  0  0  0  0  0
  -32.8350  -19.7640   16.3590 C   0  0  0  0  0  3  0  0  0  0  0  0
  -31.5370  -18.0900   17.5370 C   0  0  0  0  0  3  0  0  0  0  0  0
  -32.2790  -17.0680   16.9160 C   0  0  0  0  0  3  0  0  0  0  0  0
  -34.0030  -16.3100   15.1890 C   0  0  0  0  0  2  0  0  0  0  0  0
  -34.7090  -18.0850   13.5270 N   0  0  0  0  0  0  0  0  0  0  0  0
  -35.1680  -17.7060   11.3330 O   0  0  0  0  0  0  0  0  0  0  0  0
  -32.8980  -16.4060   12.9050 C   0  0  0  0  0  0  0  0  0  0  0  0
  -33.0170  -15.7860   11.7190 N   0  0  0  0  0  0  0  0  0  0  0  0
  -31.8050  -16.7310   13.3770 O   0  0  0  0  0  0  0  0  0  0  0  0
  -33.9480  -15.5650   11.3950 H   0  0  0  0  0  0  0  0  0  0  0  0
  -32.2120  -14.2720    8.5300 C   0  0  0  0  0  0  0  0  0  0  0  0
  -31.9130  -15.3870   10.8440 C   0  0  0  0  0  3  0  0  0  0  0  0
  -31.3020  -14.0410   11.2990 C   0  0  0  0  0  2  0  0  0  0  0  0
  -31.9160  -12.8300   10.5890 C   0  0  0  0  0  2  0  0  0  0  0  0
  -31.7220  -12.9400    9.0740 C   0  0  0  0  0  2  0  0  0  0  0  0
  -32.3150  -15.4170    9.3650 C   0  0  0  0  0  0  0  0  0  0  0  0
  -32.8060  -16.6210    8.8140 C   0  0  0  0  0  3  0  0  0  0  0  0
  -33.1860  -16.6920    7.4610 C   0  0  0  0  0  3  0  0  0  0  0  0
  -33.0660  -15.5610    6.6360 C   0  0  0  0  0  3  0  0  0  0  0  0
  -32.5770  -14.3550    7.1700 C   0  0  0  0  0  3  0  0  0  0  0  0
  -35.6880  -19.9260   12.0480 C   0  0  0  0  0  3  0  0  0  0  0  0
  -34.6250  -20.8710   11.3640 C   0  0  1  0  0  0  0  0  0  0  0  0
  -33.9960  -20.2760   10.0810 C   0  0  0  0  0  1  0  0  0  0  0  0
  -33.4760  -21.2020   12.3450 C   0  0  0  0  0  1  0  0  0  0  0  0
  -35.2840  -22.2220   10.9870 C   0  0  0  0  0  1  0  0  0  0  0  0
  -36.8910  -19.8210   11.2090 N   0  0  0  0  0  0  0  0  0  0  0  0
  -38.1310  -19.6050   11.6700 C   0  0  0  0  0  0  0  0  0  0  0  0
  -38.3930  -19.5350   12.8720 O   0  0  0  0  0  0  0  0  0  0  0  0
  -36.7430  -19.8170   10.2120 H   0  0  0  0  0  0  0  0  0  0  0  0
  -39.5450  -17.9450   10.4050 C   0  0  0  0  0  1  0  0  0  0  0  0
  -39.2610  -19.4380   10.6310 C   0  0  0  0  0  3  0  0  0  0  0  0
  -40.4030  -21.5810   11.0040 C   0  0  0  0  0  1  0  0  0  0  0  0
  -40.5140  -20.1260   11.0090 N   0  0  0  0  0  0  0  0  0  0  0  0
  -41.2730  -19.8630   10.3870 H   0  0  0  0  0  0  0  0  0  0  0  0
  2  1  2  0
  2  8  1  0
  3  1  1  0
  4  2  1  0
  5  6  1  0
  5  4  1  0
  6  7  1  1
  6  3  1  0
  9 16  2  0
  9 22  1  0
 10 15  1  0
 11 10  1  0
 12 13  1  0
 12 11  1  0
 13 27  1  0
 13 14  1  0
 14 15  1  0
 15  9  1  0
 17 20  1  0
 18  8  1  0
 18 17  1  0
 19 21  1  0
 19 18  1  0
 21 22  1  0
 22 20  1  0
 23 19  2  0
 24 27  1  0
 24 49  1  0
 25 24  2  0
 26 25  1  0
 26 28  2  0
 28 27  1  0
 29 30  1  0
 29 26  1  0
 31 30  2  0
 32 31  1  0
 33 32  2  0
 33 34  1  0
 34 29  2  0
 35 36  1  0
 35 32  1  0
 36 37  1  0
 37 38  2  0
 39 43  1  0
 39 38  1  0
 40 39  2  0
 41 40  1  0
 41 36  2  0
 42 41  1  0
 44 25  1  0
 45 44  1  0
 45 48  1  0
 46 44  2  0
 47 45  1  0
 49 51  1  0
 50 49  1  0
 52  6  1  0
 53 52  2  0
 54 53  1  0
 55 54  1  0
 56 66  1  0
 57 63  1  0
 57 55  1  0
 58 68  1  0
 58 65  1  0
 59 64  1  0
 60 61  1  0
 61 59  2  0
 61 62  1  0
 62 57  2  0
 64 63  2  0
 65 59  1  0
 66 58  1  0
 66 60  1  0
 67 56  2  0
 68 70  2  0
 69 68  1  0
 71 69  1  0
 72 76  1  0
 72 77  1  0
 73 74  1  0
 73 69  1  0
 75 74  1  0
 76 75  1  0
 77 73  1  0
 78 77  2  0
 79 78  1  0
 80 81  1  0
 80 79  2  0
 81 72  2  0
 82 56  1  0
 83 82  1  0
 83 85  1  1
 84 83  1  0
 86 83  1  0
 87 88  1  0
 87 82  1  0
 88 89  2  0
 90 87  1  0
 92 91  1  0
 92 94  1  0
 92 88  1  0
 93 94  1  0
 95 94  1  0
M  ISO  4   9 100  22 100  54 101  55 101
M  END
>  <TORSDO>  (91) 
F 20

>  <SCORE>  (91) 
45.782

>  <name>  (91) 
91

>  <ligand_id>  (91) 
91

>  <original_smiles>  (91) 
[H]C1=C(C([H])([H])C2=C([H])C([H])([H])[N+]([H])(C([H])([H])C([H])([H])C([H])([H])Oc3c([H])c([H])c4c(c3[H])C([H])([H])N(C(=O)C([H])(N([H])C(=O)C([H])(N([H])C([H])([H])[H])C([H])([H])[H])C(C([H])([H])[H])(C([H])([H])[H])C([H])([H])[H])C([H])(C(=O)N([H])C3([H])c5c([H])c([H])c([H])c([H])c5C([H])([H])C([H])([H])C3([H])[H])C4([H])[H])C([H])([H])C2([H])[H])C(=O)C([H])([H])N(C(=O)N2C([H])([H])C([H])([H])C([H])([H])C([H])(n3nc(-c4c([H])c([H])c(Oc5c([H])c([H])c(F)c([H])c5F)c([H])c4[H])c(C(=O)N([H])[H])c3N([H])[H])C2([H])[H])C1([H])[H]

>  <smiles>  (91) 
[H]C1=C(C([H])([H])C2=C([H])C([H])([H])[N+]([H])(C([H])([H])C([H])([H])C([H])([H])Oc3c([H])c([H])c4c(c3[H])C([H])([H])N(C(=O)C([H])(N([H])C(=O)C([H])(N([H])C([H])([H])[H])C([H])([H])[H])C(C([H])([H])[H])(C([H])([H])[H])C([H])([H])[H])C([H])(C(=O)N([H])C3([H])c5c([H])c([H])c([H])c([H])c5C([H])([H])C([H])([H])C3([H])[H])C4([H])[H])C([H])([H])C2([H])[H])C(=O)C([H])([H])N(C(=O)N2C([H])([H])C([H])([H])C([H])([H])C([H])(n3nc(-c4c([H])c([H])c(Oc5c([H])c([H])c(F)c([H])c5F)c([H])c4[H])c(C(=O)N([H])[H])c3N([H])[H])C2([H])[H])C1([H])[H]

$$$$
92:0:0
     RDKit          3D

100110  0  0  1  0  0  0  0  0999 V2000
  -31.0330  -14.8210   20.3650 C   0  0  0  0  0  0  0  0  0  0  0  0
  -30.7870  -12.3670   19.7620 C   0  0  0  0  0  2  0  0  0  0  0  0
  -29.9550  -12.0810   18.4990 C   0  0  0  0  0  2  0  0  0  0  0  0
  -28.4660  -11.9580   18.8650 C   0  0  0  0  0  2  0  0  0  0  0  0
  -27.9900  -13.0900   19.8140 C   0  0  0  0  0  3  0  0  0  0  0  0
  -28.9750  -13.3520   20.9750 C   0  0  0  0  0  2  0  0  0  0  0  0
  -30.2710  -13.6460   20.3480 N   0  0  0  0  0  0  0  0  0  0  0  0
  -32.2480  -14.5980   20.4120 O   0  0  0  0  0  0  0  0  0  0  0  0
  -31.5750  -18.3830   19.1770 C   0  0  0  0  0  2  0  0  0  0  0  0
  -31.6840  -16.8360   19.0200 C   0  0  0  0  0  2  0  0  0  0  0  0
  -30.0890  -18.6810   19.2340 C   0  0  0  0  0  3  0  0  0  0  0  0
  -29.7150  -17.3320   20.1290 C   0  0  0  0  0  3  0  0  0  0  0  0
  -30.6400  -16.1050   19.8050 N   0  0  0  0  0  0  0  0  0  0  0  0
  -25.6260  -13.8260   20.4420 C   0  0  0  0  0  0  0  0  0  0  0  0
  -24.4980  -13.1470   20.7870 C   0  0  0  0  0  0  0  0  0  0  0  0
  -24.8670  -11.7680   20.7860 C   0  0  0  0  0  0  0  0  0  0  0  0
  -26.6210  -12.8830   20.2700 N   0  0  0  0  0  0  0  0  0  0  0  0
  -26.1660  -11.6330   20.5390 N   0  0  0  0  0  0  0  0  0  0  0  0
  -24.0360  -10.5710   20.9380 C   0  0  0  0  0  0  0  0  0  0  0  0
  -24.3940   -9.5370   21.8290 C   0  0  0  0  0  3  0  0  0  0  0  0
  -23.5660   -8.4030   21.9750 C   0  0  0  0  0  3  0  0  0  0  0  0
  -22.3670   -8.3000   21.2280 C   0  0  0  0  0  0  0  0  0  0  0  0
  -22.0290   -9.3230   20.3260 C   0  0  0  0  0  3  0  0  0  0  0  0
  -22.8570  -10.4470   20.1760 C   0  0  0  0  0  3  0  0  0  0  0  0
  -21.5130   -7.2270   21.2890 O   0  0  0  0  0  0  0  0  0  0  0  0
  -21.3430   -6.5070   22.4440 C   0  0  0  0  0  0  0  0  0  0  0  0
  -20.8030   -7.0900   23.6120 C   0  0  0  0  0  3  0  0  0  0  0  0
  -20.5790   -6.2970   24.7560 C   0  0  0  0  0  3  0  0  0  0  0  0
  -20.8880   -4.9230   24.7300 C   0  0  0  0  0  0  0  0  0  0  0  0
  -21.4200   -4.3410   23.5670 C   0  0  0  0  0  3  0  0  0  0  0  0
  -21.6440   -5.1310   22.4260 C   0  0  0  0  0  0  0  0  0  0  0  0
  -22.1380   -4.5610   21.3000 F   0  0  0  0  0  0  0  0  0  0  0  0
  -20.6660   -4.1590   25.8260 F   0  0  0  0  0  0  0  0  0  0  0  0
  -23.1340  -13.7400   20.9810 C   0  0  0  0  0  0  0  0  0  0  0  0
  -22.3370  -13.1640   21.8740 N   0  0  0  0  0  0  0  0  0  0  0  0
  -22.7810  -14.7520   20.3760 O   0  0  0  0  0  0  0  0  0  0  0  0
  -22.6300  -12.3500   22.3930 H   0  0  0  0  0  0  0  0  0  0  0  0
  -21.4160  -13.5470   22.0370 H   0  0  0  0  0  0  0  0  0  0  0  0
  -25.8650  -15.1650   20.2230 N   0  0  0  0  0  0  0  0  0  0  0  0
  -25.1560  -15.8660   20.3950 H   0  0  0  0  0  0  0  0  0  0  0  0
  -26.7630  -15.5570   19.9800 H   0  0  0  0  0  0  0  0  0  0  0  0
  -29.5680  -20.2880   19.4620 C   0  0  0  0  0  2  0  0  0  0  0  0
  -31.3400  -21.4990   17.9860 C   0  0  0  0  0  2  0  0  0  0  0  0
  -30.8390  -23.8200   17.8760 C   0  0  0  0  0  2  0  0  0  0  0  0
  -30.3990  -21.7300   19.1940 C   0  0  0  0  0  3  0  0  0  0  0  0
  -29.8360  -23.3150   18.9190 C   0  0  0  0  0  3  0  0  0  0  0  0
  -31.2760  -22.6640   17.0960 N   0  0  0  0  0  4  0  0  0  0  0  0
  -30.5900  -22.4800   16.3830 H   0  0  0  0  0  0  0  0  0  0  0  0
  -32.1600  -22.8360   16.6450 H   0  0  0  0  0  0  0  0  0  0  0  0
  -29.6600  -24.6240   19.9480 C   0  0  0  0  0  2  0  0  0  0  0  0
  -29.6240  -26.1240   19.5590 O   0  0  0  0  0  0  0  0  0  0  0  0
  -25.2450  -30.3710   23.6870 C   0  0  0  0  0  0  0  0  0  0  0  0
  -28.4940  -26.9930   19.7100 C   0  0  0  0  0  0  0  0  0  0  0  0
  -24.3960  -29.6730   21.4770 C   0  0  0  0  0  3  0  0  0  0  0  0
  -26.1260  -28.6580   19.8700 C   0  0  0  0  0  0  0  0  0  0  0  0
  -26.9250  -29.9320   21.8600 C   0  0  0  0  0  2  0  0  0  0  0  0
  -27.1640  -28.8550   20.7880 C   0  0  0  0  0  0  0  0  0  0  0  0
  -28.3540  -28.0480   20.6930 C   0  0  0  0  0  3  0  0  0  0  0  0
  -27.4280  -26.8770   18.7960 C   0  0  0  0  0  3  0  0  0  0  0  0
  -26.2700  -27.6840   18.8660 C   0  0  0  0  0  3  0  0  0  0  0  0
  -24.8740  -29.5100   20.0080 C   0  0  0  0  0  2  0  0  0  0  0  0
  -25.5310  -29.9920   22.4030 N   0  0  0  0  0  0  0  0  0  0  0  0
  -24.0760  -30.4760   24.0870 O   0  0  0  0  0  0  0  0  0  0  0  0
  -23.6030  -28.4110   21.8940 C   0  0  0  0  0  0  0  0  0  0  0  0
  -22.2970  -28.3750   21.5750 N   0  0  0  0  0  0  0  0  0  0  0  0
  -24.1700  -27.4770   22.4690 O   0  0  0  0  0  0  0  0  0  0  0  0
  -21.8990  -29.1810   21.1140 H   0  0  0  0  0  0  0  0  0  0  0  0
  -18.8670  -27.2660   21.2290 C   0  0  0  0  0  0  0  0  0  0  0  0
  -21.3830  -27.2570   21.8260 C   0  0  0  0  0  3  0  0  0  0  0  0
  -21.5290  -26.1640   20.7400 C   0  0  0  0  0  2  0  0  0  0  0  0
  -20.5440  -26.3300   19.5800 C   0  0  0  0  0  2  0  0  0  0  0  0
  -19.1010  -26.2870   20.0910 C   0  0  0  0  0  2  0  0  0  0  0  0
  -19.9410  -27.7350   22.0320 C   0  0  0  0  0  0  0  0  0  0  0  0
  -19.6720  -28.6710   23.0540 C   0  0  0  0  0  3  0  0  0  0  0  0
  -18.3620  -29.1350   23.2800 C   0  0  0  0  0  3  0  0  0  0  0  0
  -17.3020  -28.6570   22.4910 C   0  0  0  0  0  3  0  0  0  0  0  0
  -17.5550  -27.7220   21.4720 C   0  0  0  0  0  3  0  0  0  0  0  0
  -26.3750  -30.7080   24.7090 C   0  0  0  0  0  3  0  0  0  0  0  0
  -26.1380  -32.0730   25.2030 N   0  0  0  0  0  0  0  0  0  0  0  0
  -26.8980  -33.1360   24.9080 C   0  0  0  0  0  0  0  0  0  0  0  0
  -27.9250  -33.0540   24.2300 O   0  0  0  0  0  0  0  0  0  0  0  0
  -25.2820  -32.2240   25.7160 H   0  0  0  0  0  0  0  0  0  0  0  0
  -25.9370  -35.3780   24.2900 C   0  0  0  0  0  1  0  0  0  0  0  0
  -26.4490  -34.5070   25.4490 C   0  0  0  0  0  3  0  0  0  0  0  0
  -27.8630  -34.6100   27.4540 C   0  0  0  0  0  1  0  0  0  0  0  0
  -27.5130  -35.2310   26.1790 N   0  0  0  0  0  0  0  0  0  0  0  0
  -27.2380  -36.1930   26.3590 H   0  0  0  0  0  0  0  0  0  0  0  0
  -26.4460  -29.6920   25.9140 C   0  0  1  0  0  0  0  0  0  0  0  0
  -25.0890  -29.4710   26.6230 C   0  0  0  0  0  1  0  0  0  0  0  0
  -26.9580  -28.3110   25.4410 C   0  0  0  0  0  1  0  0  0  0  0  0
  -27.4600  -30.1980   26.9680 C   0  0  0  0  0  1  0  0  0  0  0  0
  -28.2260  -16.9940   19.9600 C   0  0  0  0  0  2  0  0  0  0  0  0
  -24.9200  -18.5410   19.5080 C   0  0  0  0  0  3  0  0  0  0  0  0
  -25.3200  -18.4810   18.2400 C   0  0  0  0  0  3  0  0  0  0  0  0
  -26.0420  -18.2970   20.4800 C   0  0  0  0  0  2  0  0  0  0  0  0
  -26.7940  -18.1980   18.1040 C   0  0  0  0  0  3  0  0  0  0  0  0
  -27.3090  -18.1980   19.5860 C   0  0  0  0  0  3  0  0  0  0  0  0
  -27.4510  -19.2230   17.1930 C   0  0  0  0  0  3  0  0  0  0  0  0
  -28.2860  -18.9200   16.2940 N   0  0  0  0  0  0  0  0  0  0  0  0
  -28.4590  -17.9200   16.2710 H   0  0  0  0  0  0  0  0  0  0  0  0
  1  8  2  0
  2  7  1  0
  3  4  1  0
  3  2  1  0
  5  4  1  0
  5 17  1  0
  5  6  1  0
  7  1  1  0
  7  6  1  0
  9 11  1  0
 10  9  1  0
 10 13  1  0
 11 42  1  0
 11 12  1  0
 12 92  1  0
 13 12  1  0
 13  1  1  0
 14 15  2  0
 15 34  1  0
 16 15  1  0
 16 19  1  0
 17 14  1  0
 17 18  1  0
 18 16  2  0
 19 20  1  0
 20 21  2  0
 22 25  1  0
 22 21  1  0
 23 22  2  0
 24 23  1  0
 24 19  2  0
 25 26  1  0
 26 27  1  0
 27 28  2  0
 29 28  1  0
 29 33  1  0
 30 29  2  0
 31 26  2  0
 31 30  1  0
 32 31  1  0
 34 35  1  0
 35 38  1  0
 35 37  1  0
 36 34  2  0
 39 40  1  0
 39 14  1  0
 41 39  1  0
 43 45  1  0
 44 46  1  0
 45 42  1  0
 46 45  1  0
 46 50  1  0
 47 44  1  0
 47 43  1  0
 48 47  1  0
 49 47  1  0
 51 53  1  0
 51 50  1  0
 52 63  2  0
 53 58  1  0
 54 64  1  0
 54 62  1  0
 55 61  1  0
 55 57  1  0
 56 62  1  0
 57 56  1  0
 58 57  2  0
 59 60  1  0
 59 53  2  0
 60 55  2  0
 61 54  1  0
 62 52  1  0
 64 66  2  0
 65 64  1  0
 67 65  1  0
 68 77  2  0
 68 73  1  0
 69 65  1  0
 69 73  1  0
 70 69  1  0
 71 72  1  0
 71 70  1  0
 72 68  1  0
 73 74  2  0
 74 75  1  0
 76 75  2  0
 77 76  1  0
 78 52  1  0
 78 79  1  0
 78 88  1  0
 79 82  1  0
 80 79  1  0
 80 84  1  0
 81 80  2  0
 84 83  1  0
 84 86  1  0
 86 87  1  0
 86 85  1  0
 88 89  1  1
 88 91  1  0
 90 88  1  0
 93 95  1  0
 94 93  2  0
 96 98  1  0
 96 94  1  0
 96 97  1  0
 97 92  1  0
 97 95  1  0
 99 98  2  0
100 99  1  0
M  ISO  4   1 100  13 100  50 101  51 101
M  END
>  <TORSDO>  (92) 
F 21

>  <SCORE>  (92) 
-7.911

>  <name>  (92) 
92

>  <ligand_id>  (92) 
92

>  <original_smiles>  (92) 
[H]N=C([H])C1([H])C([H])=C([H])C([H])([H])C1([H])C([H])([H])C1([H])N(C(=O)N2C([H])([H])C([H])([H])C([H])([H])C([H])(n3nc(-c4c([H])c([H])c(Oc5c([H])c([H])c(F)c([H])c5F)c([H])c4[H])c(C(=O)N([H])[H])c3N([H])[H])C2([H])[H])C([H])([H])C([H])([H])C1([H])C([H])([H])C1([H])C([H])(C([H])([H])Oc2c([H])c([H])c3c(c2[H])C([H])([H])N(C(=O)C([H])(N([H])C(=O)C([H])(N([H])C([H])([H])[H])C([H])([H])[H])C(C([H])([H])[H])(C([H])([H])[H])C([H])([H])[H])C([H])(C(=O)N([H])C2([H])c4c([H])c([H])c([H])c([H])c4C([H])([H])C([H])([H])C2([H])[H])C3([H])[H])C([H])([H])[N+]([H])([H])C1([H])[H]

>  <smiles>  (92) 
[H]N=C([H])C1([H])C([H])=C([H])C([H])([H])C1([H])C([H])([H])C1([H])N(C(=O)N2C([H])([H])C([H])([H])C([H])([H])C([H])(n3nc(-c4c([H])c([H])c(Oc5c([H])c([H])c(F)c([H])c5F)c([H])c4[H])c(C(=O)N([H])[H])c3N([H])[H])C2([H])[H])C([H])([H])C([H])([H])C1([H])C([H])([H])C1([H])C([H])(C([H])([H])Oc2c([H])c([H])c3c(c2[H])C([H])([H])N(C(=O)C([H])(N([H])C(=O)C([H])(N([H])C([H])([H])[H])C([H])([H])[H])C(C([H])([H])[H])(C([H])([H])[H])C([H])([H])[H])C([H])(C(=O)N([H])C2([H])c4c([H])c([H])c([H])c([H])c4C([H])([H])C([H])([H])C2([H])[H])C3([H])[H])C([H])([H])[N+]([H])([H])C1([H])[H]

$$$$
93:0:0
     RDKit          3D

 93102  0  0  1  0  0  0  0  0999 V2000
  -31.6570  -19.4840   19.0820 C   0  0  0  0  0  0  0  0  0  0  0  0
  -31.4740  -18.1210   19.8280 C   0  0  0  0  0  2  0  0  0  0  0  0
  -30.3770  -21.7690   19.2160 C   0  0  0  0  0  2  0  0  0  0  0  0
  -29.0560  -18.9550   20.8010 C   0  0  0  0  0  2  0  0  0  0  0  0
  -31.4580  -20.8210   19.8630 C   0  0  0  0  0  3  0  0  0  0  0  0
  -29.4090  -22.0090   20.3700 C   0  0  0  0  0  3  0  0  0  0  0  0
  -29.9880  -17.7070   20.1260 C   0  0  0  0  0  3  0  0  0  0  0  0
  -29.5280  -20.5350   21.1530 C   0  0  0  0  0  3  0  0  0  0  0  0
  -30.9810  -20.3610   21.1810 N   0  0  0  0  0  4  0  0  0  0  0  0
  -31.9790  -19.4650   17.8920 O   0  0  0  0  0  0  0  0  0  0  0  0
  -31.3810  -20.9450   21.8970 H   0  0  0  0  0  0  0  0  0  0  0  0
  -31.2570  -19.4080   21.3580 H   0  0  0  0  0  0  0  0  0  0  0  0
  -30.5310  -14.9600   20.3150 C   0  0  0  0  0  0  0  0  0  0  0  0
  -30.3690  -12.6130   19.3760 C   0  0  0  0  0  2  0  0  0  0  0  0
  -29.4370  -12.5920   18.1410 C   0  0  0  0  0  2  0  0  0  0  0  0
  -27.9720  -12.3900   18.5690 C   0  0  0  0  0  2  0  0  0  0  0  0
  -27.5750  -13.3040   19.7580 C   0  0  0  0  0  3  0  0  0  0  0  0
  -28.6320  -13.3110   20.8840 C   0  0  0  0  0  2  0  0  0  0  0  0
  -29.9100  -13.7130   20.2780 N   0  0  0  0  0  0  0  0  0  0  0  0
  -31.7220  -15.0000   19.9970 O   0  0  0  0  0  0  0  0  0  0  0  0
  -29.7850  -16.1660   20.4950 N   0  0  0  0  0  0  0  0  0  0  0  0
  -28.8400  -15.9620   20.7870 H   0  0  0  0  0  0  0  0  0  0  0  0
  -25.1880  -13.8840   20.4750 C   0  0  0  0  0  0  0  0  0  0  0  0
  -24.1220  -13.1100   20.8440 C   0  0  0  0  0  0  0  0  0  0  0  0
  -24.5870  -11.7600   20.8300 C   0  0  0  0  0  0  0  0  0  0  0  0
  -26.2340  -13.0040   20.2520 N   0  0  0  0  0  0  0  0  0  0  0  0
  -25.8820  -11.7210   20.5290 N   0  0  0  0  0  0  0  0  0  0  0  0
  -23.8590  -10.5000   21.0290 C   0  0  0  0  0  0  0  0  0  0  0  0
  -24.3000   -9.5310   21.9570 C   0  0  0  0  0  3  0  0  0  0  0  0
  -23.5750   -8.3340   22.1440 C   0  0  0  0  0  3  0  0  0  0  0  0
  -22.3920   -8.1000   21.4030 C   0  0  0  0  0  0  0  0  0  0  0  0
  -21.9710   -9.0550   20.4630 C   0  0  0  0  0  3  0  0  0  0  0  0
  -22.6960  -10.2440   20.2750 C   0  0  0  0  0  3  0  0  0  0  0  0
  -21.6330   -6.9580   21.5030 O   0  0  0  0  0  0  0  0  0  0  0  0
  -21.6130   -6.2020   22.6480 C   0  0  0  0  0  0  0  0  0  0  0  0
  -21.2420   -6.7510   23.8940 C   0  0  0  0  0  3  0  0  0  0  0  0
  -21.1690   -5.9240   25.0320 C   0  0  0  0  0  3  0  0  0  0  0  0
  -21.4530   -4.5510   24.9250 C   0  0  0  0  0  0  0  0  0  0  0  0
  -21.8160   -4.0000   23.6840 C   0  0  0  0  0  3  0  0  0  0  0  0
  -21.8930   -4.8240   22.5480 C   0  0  0  0  0  0  0  0  0  0  0  0
  -22.2230   -4.2840   21.3490 F   0  0  0  0  0  0  0  0  0  0  0  0
  -21.3730   -3.7540   26.0170 F   0  0  0  0  0  0  0  0  0  0  0  0
  -22.7220  -13.5880   21.0970 C   0  0  0  0  0  0  0  0  0  0  0  0
  -21.9890  -12.9030   21.9660 N   0  0  0  0  0  0  0  0  0  0  0  0
  -22.2880  -14.6060   20.5590 O   0  0  0  0  0  0  0  0  0  0  0  0
  -22.3510  -12.0830   22.4280 H   0  0  0  0  0  0  0  0  0  0  0  0
  -21.0490  -13.2050   22.1770 H   0  0  0  0  0  0  0  0  0  0  0  0
  -25.3490  -15.2540   20.2830 N   0  0  0  0  0  0  0  0  0  0  0  0
  -24.5780  -15.9050   20.3830 H   0  0  0  0  0  0  0  0  0  0  0  0
  -26.1870  -15.6870   19.9200 H   0  0  0  0  0  0  0  0  0  0  0  0
  -28.3410  -23.3200   20.4760 C   0  0  0  0  0  2  0  0  0  0  0  0
  -28.4850  -24.8210   19.7200 C   0  0  0  0  0  2  0  0  0  0  0  0
  -28.3310  -26.2610   20.2730 O   0  0  0  0  0  0  0  0  0  0  0  0
  -24.6280  -31.8560   23.1850 C   0  0  0  0  0  0  0  0  0  0  0  0
  -27.2300  -27.1760   20.1470 C   0  0  0  0  0  0  0  0  0  0  0  0
  -23.4240  -30.4500   21.5510 C   0  0  0  0  0  3  0  0  0  0  0  0
  -24.8760  -28.8780   20.1180 C   0  0  0  0  0  0  0  0  0  0  0  0
  -25.9710  -30.7390   21.3680 C   0  0  0  0  0  2  0  0  0  0  0  0
  -26.0490  -29.3470   20.7200 C   0  0  0  0  0  0  0  0  0  0  0  0
  -27.2200  -28.5100   20.7190 C   0  0  0  0  0  3  0  0  0  0  0  0
  -26.0300  -26.7960   19.5040 C   0  0  0  0  0  3  0  0  0  0  0  0
  -24.8780  -27.6170   19.4950 C   0  0  0  0  0  3  0  0  0  0  0  0
  -23.6400  -29.7640   20.1730 C   0  0  0  0  0  2  0  0  0  0  0  0
  -24.6950  -31.0380   22.0900 N   0  0  0  0  0  0  0  0  0  0  0  0
  -23.5440  -32.1350   23.7180 O   0  0  0  0  0  0  0  0  0  0  0  0
  -22.7560  -29.4460   22.5220 C   0  0  0  0  0  0  0  0  0  0  0  0
  -21.4260  -29.2780   22.4100 N   0  0  0  0  0  0  0  0  0  0  0  0
  -23.4360  -28.8170   23.3370 O   0  0  0  0  0  0  0  0  0  0  0  0
  -20.9340  -29.8400   21.7270 H   0  0  0  0  0  0  0  0  0  0  0  0
  -18.0490  -28.0790   22.9400 C   0  0  0  0  0  0  0  0  0  0  0  0
  -20.6100  -28.3410   23.1860 C   0  0  0  0  0  3  0  0  0  0  0  0
  -20.7060  -26.9100   22.6110 C   0  0  0  0  0  2  0  0  0  0  0  0
  -19.5980  -26.5870   21.6040 C   0  0  0  0  0  2  0  0  0  0  0  0
  -18.2200  -26.7310   22.2580 C   0  0  0  0  0  2  0  0  0  0  0  0
  -19.1710  -28.8430   23.3590 C   0  0  0  0  0  0  0  0  0  0  0  0
  -18.9560  -30.1040   23.9550 C   0  0  0  0  0  3  0  0  0  0  0  0
  -17.6520  -30.6040   24.1330 C   0  0  0  0  0  3  0  0  0  0  0  0
  -16.5440  -29.8380   23.7280 C   0  0  0  0  0  3  0  0  0  0  0  0
  -16.7450  -28.5780   23.1370 C   0  0  0  0  0  3  0  0  0  0  0  0
  -25.9070  -32.4960   23.8060 C   0  0  0  0  0  3  0  0  0  0  0  0
  -25.5860  -33.8880   24.1570 N   0  0  0  0  0  0  0  0  0  0  0  0
  -25.8990  -34.9580   23.4120 C   0  0  0  0  0  0  0  0  0  0  0  0
  -26.5530  -34.8750   22.3680 O   0  0  0  0  0  0  0  0  0  0  0  0
  -24.9990  -34.0260   24.9680 H   0  0  0  0  0  0  0  0  0  0  0  0
  -24.1440  -36.7390   23.1220 C   0  0  0  0  0  1  0  0  0  0  0  0
  -25.4090  -36.3370   23.8980 C   0  0  0  0  0  3  0  0  0  0  0  0
  -27.5560  -37.2350   24.6830 C   0  0  0  0  0  1  0  0  0  0  0  0
  -26.4280  -37.4030   23.7710 N   0  0  0  0  0  0  0  0  0  0  0  0
  -26.0150  -38.3160   23.9400 H   0  0  0  0  0  0  0  0  0  0  0  0
  -26.4390  -31.7170   25.0720 C   0  0  1  0  0  0  0  0  0  0  0  0
  -25.3580  -31.4650   26.1500 C   0  0  0  0  0  1  0  0  0  0  0  0
  -27.0220  -30.3440   24.6670 C   0  0  0  0  0  1  0  0  0  0  0  0
  -27.5930  -32.5110   25.7290 C   0  0  0  0  0  1  0  0  0  0  0  0
  1  2  1  0
  1  5  1  0
  2  7  1  0
  3  6  1  0
  5  3  1  0
  5  9  1  0
  6 51  1  0
  6  8  1  0
  7 21  1  0
  7  4  1  0
  8  4  1  0
  8  9  1  0
  9 12  1  0
  9 11  1  0
 10  1  2  0
 13 21  1  0
 14 19  1  0
 15 16  1  0
 15 14  1  0
 17 16  1  0
 17 26  1  0
 17 18  1  0
 19 13  1  0
 19 18  1  0
 20 13  2  0
 21 22  1  0
 23 24  2  0
 24 43  1  0
 25 24  1  0
 25 28  1  0
 26 23  1  0
 26 27  1  0
 27 25  2  0
 28 29  1  0
 29 30  2  0
 31 34  1  0
 31 30  1  0
 32 31  2  0
 33 32  1  0
 33 28  2  0
 34 35  1  0
 35 36  1  0
 36 37  2  0
 38 37  1  0
 38 42  1  0
 39 38  2  0
 40 35  2  0
 40 39  1  0
 41 40  1  0
 43 44  1  0
 44 47  1  0
 44 46  1  0
 45 43  2  0
 48 49  1  0
 48 23  1  0
 50 48  1  0
 52 53  1  0
 52 51  1  0
 54 65  2  0
 55 53  1  0
 55 60  1  0
 56 64  1  0
 56 66  1  0
 57 63  1  0
 57 59  1  0
 58 64  1  0
 59 58  1  0
 60 59  2  0
 61 55  2  0
 62 61  1  0
 62 57  2  0
 63 56  1  0
 64 54  1  0
 66 68  2  0
 67 66  1  0
 69 67  1  0
 70 79  2  0
 70 75  1  0
 71 67  1  0
 71 75  1  0
 72 71  1  0
 73 74  1  0
 73 72  1  0
 74 70  1  0
 75 76  2  0
 76 77  1  0
 78 77  2  0
 79 78  1  0
 80 54  1  0
 80 81  1  0
 80 90  1  0
 81 84  1  0
 82 86  1  0
 82 81  1  0
 83 82  2  0
 86 85  1  0
 88 86  1  0
 88 89  1  0
 88 87  1  0
 90 93  1  1
 90 91  1  0
 92 90  1  0
M  ISO  4  13 100  21 100  52 101  53 101
M  END
>  <TORSDO>  (93) 
F 18

>  <SCORE>  (93) 
-14.512

>  <name>  (93) 
93

>  <ligand_id>  (93) 
93

>  <original_smiles>  (93) 
[H]c1c([H])c([H])c2c(c1[H])C([H])([H])C([H])([H])C([H])([H])C2([H])N([H])C(=O)C1([H])N(C(=O)C([H])(N([H])C(=O)C([H])(N([H])C([H])([H])[H])C([H])([H])[H])C(C([H])([H])[H])(C([H])([H])[H])C([H])([H])[H])C([H])([H])c2c([H])c(OC([H])([H])C([H])([H])C3([H])C([H])([H])C4([H])C(=O)C([H])([H])C([H])(N([H])C(=O)N5C([H])([H])C([H])([H])C([H])([H])C([H])(n6nc(-c7c([H])c([H])c(Oc8c([H])c([H])c(F)c([H])c8F)c([H])c7[H])c(C(=O)N([H])[H])c6N([H])[H])C5([H])[H])C([H])([H])C3([H])[N+]4([H])[H])c([H])c([H])c2C1([H])[H]

>  <smiles>  (93) 
[H]c1c([H])c([H])c2c(c1[H])C([H])([H])C([H])([H])C([H])([H])C2([H])N([H])C(=O)C1([H])N(C(=O)C([H])(N([H])C(=O)C([H])(N([H])C([H])([H])[H])C([H])([H])[H])C(C([H])([H])[H])(C([H])([H])[H])C([H])([H])[H])C([H])([H])c2c([H])c(OC([H])([H])C([H])([H])C3([H])C([H])([H])C4([H])C(=O)C([H])([H])C([H])(N([H])C(=O)N5C([H])([H])C([H])([H])C([H])([H])C([H])(n6nc(-c7c([H])c([H])c(Oc8c([H])c([H])c(F)c([H])c8F)c([H])c7[H])c(C(=O)N([H])[H])c6N([H])[H])C5([H])[H])C([H])([H])C3([H])[N+]4([H])[H])c([H])c([H])c2C1([H])[H]

$$$$
94:0:0
     RDKit          3D

 88 94  0  0  1  0  0  0  0  0999 V2000
  -28.2990  -18.8900   18.3620 C   0  0  0  0  0  0  0  0  0  0  0  0
  -26.6780  -19.1430   19.9980 C   0  0  0  0  0  2  0  0  0  0  0  0
  -28.0250  -18.8210   20.6720 C   0  0  0  0  0  2  0  0  0  0  0  0
  -27.6630  -21.0760   18.7350 C   0  0  0  0  0  2  0  0  0  0  0  0
  -27.0790  -19.6690   18.6140 C   0  0  0  0  0  3  0  0  0  0  0  0
  -29.0340  -21.2730   19.5530 C   0  0  0  0  0  1  0  0  0  0  0  0
  -29.1010  -19.1260   19.6020 C   0  0  0  0  0  3  0  0  0  0  0  0
  -28.5660  -18.1840   17.3850 O   0  0  0  0  0  0  0  0  0  0  0  0
  -30.5550  -15.9650   19.6020 C   0  0  0  0  0  0  0  0  0  0  0  0
  -30.6070  -13.3270   18.8830 C   0  0  0  0  0  2  0  0  0  0  0  0
  -29.6920  -12.6910   17.7910 C   0  0  0  0  0  2  0  0  0  0  0  0
  -28.3450  -12.2710   18.3850 C   0  0  0  0  0  2  0  0  0  0  0  0
  -27.8440  -13.3390   19.3780 C   0  0  0  0  0  3  0  0  0  0  0  0
  -28.9160  -13.8810   20.3670 C   0  0  0  0  0  2  0  0  0  0  0  0
  -29.9610  -14.5830   19.5580 N   0  0  0  0  0  0  0  0  0  0  0  0
  -31.7750  -15.7090   19.4660 O   0  0  0  0  0  0  0  0  0  0  0  0
  -30.1450  -17.5580   19.5860 N   0  0  0  0  0  0  0  0  0  0  0  0
  -31.0740  -17.9490   19.5210 H   0  0  0  0  0  0  0  0  0  0  0  0
  -25.5820  -13.8610   20.3760 C   0  0  0  0  0  0  0  0  0  0  0  0
  -24.5410  -13.0870   20.7980 C   0  0  0  0  0  0  0  0  0  0  0  0
  -24.9770  -11.7310   20.6750 C   0  0  0  0  0  0  0  0  0  0  0  0
  -26.5840  -12.9840   20.0120 N   0  0  0  0  0  0  0  0  0  0  0  0
  -26.2410  -11.6890   20.2550 N   0  0  0  0  0  0  0  0  0  0  0  0
  -24.2370  -10.4770   20.8780 C   0  0  0  0  0  0  0  0  0  0  0  0
  -24.6520   -9.5140   21.8230 C   0  0  0  0  0  3  0  0  0  0  0  0
  -23.9070   -8.3310   22.0170 C   0  0  0  0  0  3  0  0  0  0  0  0
  -22.7300   -8.1010   21.2660 C   0  0  0  0  0  0  0  0  0  0  0  0
  -22.3320   -9.0520   20.3100 C   0  0  0  0  0  3  0  0  0  0  0  0
  -23.0780  -10.2260   20.1140 C   0  0  0  0  0  3  0  0  0  0  0  0
  -21.9560   -6.9690   21.3680 O   0  0  0  0  0  0  0  0  0  0  0  0
  -21.7900   -6.3160   22.5630 C   0  0  0  0  0  0  0  0  0  0  0  0
  -21.1960   -6.9420   23.6790 C   0  0  0  0  0  3  0  0  0  0  0  0
  -20.9820   -6.2130   24.8660 C   0  0  0  0  0  3  0  0  0  0  0  0
  -21.3520   -4.8570   24.9360 C   0  0  0  0  0  0  0  0  0  0  0  0
  -21.9400   -4.2290   23.8240 C   0  0  0  0  0  3  0  0  0  0  0  0
  -22.1560   -4.9560   22.6400 C   0  0  0  0  0  0  0  0  0  0  0  0
  -22.7020   -4.3390   21.5640 F   0  0  0  0  0  0  0  0  0  0  0  0
  -21.1410   -4.1540   26.0730 F   0  0  0  0  0  0  0  0  0  0  0  0
  -23.1800  -13.5810   21.1900 C   0  0  0  0  0  0  0  0  0  0  0  0
  -22.5130  -12.8820   22.0980 N   0  0  0  0  0  0  0  0  0  0  0  0
  -22.7260  -14.6270   20.7270 O   0  0  0  0  0  0  0  0  0  0  0  0
  -22.8960  -12.0370   22.4930 H   0  0  0  0  0  0  0  0  0  0  0  0
  -21.6030  -13.1970   22.4040 H   0  0  0  0  0  0  0  0  0  0  0  0
  -25.7570  -15.2350   20.2330 N   0  0  0  0  0  0  0  0  0  0  0  0
  -25.0160  -15.8980   20.4300 H   0  0  0  0  0  0  0  0  0  0  0  0
  -26.5890  -15.6640   19.8520 H   0  0  0  0  0  0  0  0  0  0  0  0
  -28.2920  -23.2840   19.6080 C   0  0  0  0  0 15  0  0  0  0  0  0
  -28.4510  -25.1440   19.8050 O   0  0  0  0  0  1  0  0  0  0  0  0
  -24.9060  -31.4880   23.1270 C   0  0  0  0  0  0  0  0  0  0  0  0
  -27.5110  -26.4630   19.8370 C   0  0  0  0  0  0  0  0  0  0  0  0
  -23.7760  -30.2150   21.3570 C   0  0  0  0  0  3  0  0  0  0  0  0
  -25.2660  -28.6380   19.8740 C   0  0  0  0  0  0  0  0  0  0  0  0
  -26.3660  -30.3010   21.3420 C   0  0  0  0  0  2  0  0  0  0  0  0
  -26.4480  -28.8990   20.5770 C   0  0  0  0  0  0  0  0  0  0  0  0
  -27.5440  -27.8510   20.5210 C   0  0  0  0  0  3  0  0  0  0  0  0
  -26.2940  -26.4750   19.0920 C   0  0  0  0  0  3  0  0  0  0  0  0
  -25.2430  -27.4560   19.1090 C   0  0  0  0  0  3  0  0  0  0  0  0
  -24.0670  -29.6100   19.9500 C   0  0  0  0  0  2  0  0  0  0  0  0
  -25.0410  -30.7030   21.9970 N   0  0  0  0  0  0  0  0  0  0  0  0
  -23.7940  -31.7590   23.6160 O   0  0  0  0  0  0  0  0  0  0  0  0
  -23.0140  -29.1850   22.2360 C   0  0  0  0  0  0  0  0  0  0  0  0
  -21.6780  -29.0720   22.0820 N   0  0  0  0  0  0  0  0  0  0  0  0
  -23.6390  -28.4830   23.0320 O   0  0  0  0  0  0  0  0  0  0  0  0
  -21.2200  -29.6870   21.4240 H   0  0  0  0  0  0  0  0  0  0  0  0
  -18.2520  -27.9230   22.5160 C   0  0  0  0  0  0  0  0  0  0  0  0
  -20.8250  -28.0850   22.7610 C   0  0  0  0  0  3  0  0  0  0  0  0
  -20.8690  -26.7210   22.0340 C   0  0  0  0  0  2  0  0  0  0  0  0
  -19.7460  -26.5470   21.0070 C   0  0  0  0  0  2  0  0  0  0  0  0
  -18.3770  -26.6570   21.6850 C   0  0  0  0  0  2  0  0  0  0  0  0
  -19.4010  -28.6020   23.0070 C   0  0  0  0  0  0  0  0  0  0  0  0
  -19.2230  -29.7880   23.7530 C   0  0  0  0  0  3  0  0  0  0  0  0
  -17.9350  -30.2950   24.0070 C   0  0  0  0  0  3  0  0  0  0  0  0
  -16.8040  -29.6130   23.5260 C   0  0  0  0  0  3  0  0  0  0  0  0
  -16.9630  -28.4280   22.7880 C   0  0  0  0  0  3  0  0  0  0  0  0
  -26.1380  -32.0980   23.8610 C   0  0  0  0  0  3  0  0  0  0  0  0
  -25.7980  -33.4730   24.2850 N   0  0  0  0  0  0  0  0  0  0  0  0
  -26.1470  -34.5950   23.6410 C   0  0  0  0  0  0  0  0  0  0  0  0
  -26.8410  -34.5820   22.6210 O   0  0  0  0  0  0  0  0  0  0  0  0
  -25.1810  -33.5550   25.0800 H   0  0  0  0  0  0  0  0  0  0  0  0
  -24.4220  -36.4230   23.4270 C   0  0  0  0  0  1  0  0  0  0  0  0
  -25.6550  -35.9450   24.2110 C   0  0  0  0  0  3  0  0  0  0  0  0
  -27.7670  -36.7770   25.1520 C   0  0  0  0  0  1  0  0  0  0  0  0
  -26.6870  -37.0060   24.1970 N   0  0  0  0  0  0  0  0  0  0  0  0
  -26.2730  -37.9130   24.3980 H   0  0  0  0  0  0  0  0  0  0  0  0
  -26.5850  -31.2550   25.1200 C   0  0  1  0  0  0  0  0  0  0  0  0
  -25.4390  -30.9690   26.1210 C   0  0  0  0  0  1  0  0  0  0  0  0
  -27.1790  -29.8930   24.6990 C   0  0  0  0  0  1  0  0  0  0  0  0
  -27.7060  -32.0010   25.8800 C   0  0  0  0  0  1  0  0  0  0  0  0
  1  5  1  0
  1  7  1  0
  2  3  1  0
  4  6  1  0
  5  4  1  0
  5  2  1  0
  7 17  1  0
  7  3  1  0
  8  1  2  0
 10 15  1  0
 11 12  1  0
 11 10  1  0
 13 12  1  0
 13 22  1  0
 13 14  1  0
 15  9  1  0
 15 14  1  0
 16  9  2  0
 17  9  1  0
 18 17  1  0
 19 20  2  0
 20 39  1  0
 21 20  1  0
 21 24  1  0
 22 23  1  0
 22 19  1  0
 23 21  2  0
 24 25  1  0
 25 26  2  0
 27 30  1  0
 27 26  1  0
 28 27  2  0
 29 28  1  0
 29 24  2  0
 30 31  1  0
 31 36  2  0
 31 32  1  0
 32 33  2  0
 33 34  1  0
 34 38  1  0
 35 34  2  0
 36 35  1  0
 37 36  1  0
 39 40  1  0
 40 43  1  0
 40 42  1  0
 41 39  2  0
 44 19  1  0
 44 45  1  0
 46 44  1  0
 48 50  1  0
 49 60  2  0
 50 55  1  0
 51 59  1  0
 51 61  1  0
 52 58  1  0
 52 54  1  0
 53 59  1  0
 54 53  1  0
 55 54  2  0
 56 57  1  0
 56 50  2  0
 57 52  2  0
 58 51  1  0
 59 49  1  0
 61 63  2  0
 62 61  1  0
 64 62  1  0
 65 74  2  0
 65 70  1  0
 66 62  1  0
 66 70  1  0
 67 66  1  0
 68 69  1  0
 68 67  1  0
 69 65  1  0
 70 71  2  0
 71 72  1  0
 73 72  2  0
 74 73  1  0
 75 49  1  0
 75 76  1  0
 75 85  1  0
 76 79  1  0
 77 81  1  0
 77 76  1  0
 78 77  2  0
 81 80  1  0
 83 81  1  0
 83 84  1  0
 83 82  1  0
 85 88  1  1
 85 86  1  0
 87 85  1  0
M  ISO  4   9 100  17 100  47 101  48 101
M  END
>  <TORSDO>  (94) 
F 17

>  <SCORE>  (94) 
-14.604

>  <name>  (94) 
94

>  <ligand_id>  (94) 
94

>  <original_smiles>  (94) 
[H]c1c([H])c([H])c2c(c1[H])C([H])([H])C([H])([H])C([H])([H])C2([H])N([H])C(=O)C1([H])N(C(=O)C([H])(N([H])C(=O)C([H])(N([H])C([H])([H])[H])C([H])([H])[H])C(C([H])([H])[H])(C([H])([H])[H])C([H])([H])[H])C([H])([H])c2c([H])c(OC([H])([H])C3([H])C([H])([H])C4([H])C(=O)C3(N([H])C(=O)N3C([H])([H])C([H])([H])C([H])([H])C([H])(n5nc(-c6c([H])c([H])c(Oc7c([H])c([H])c(F)c([H])c7F)c([H])c6[H])c(C(=O)N([H])[H])c5N([H])[H])C3([H])[H])C([H])([H])C4([H])[H])c([H])c([H])c2C1([H])[H]

>  <smiles>  (94) 
[H]c1c([H])c([H])c2c(c1[H])C([H])([H])C([H])([H])C([H])([H])C2([H])N([H])C(=O)C1([H])N(C(=O)C([H])(N([H])C(=O)C([H])(N([H])C([H])([H])[H])C([H])([H])[H])C(C([H])([H])[H])(C([H])([H])[H])C([H])([H])[H])C([H])([H])c2c([H])c(OC([H])([H])C3([H])C([H])([H])C4([H])C(=O)C3(N([H])C(=O)N3C([H])([H])C([H])([H])C([H])([H])C([H])(n5nc(-c6c([H])c([H])c(Oc7c([H])c([H])c(F)c([H])c7F)c([H])c6[H])c(C(=O)N([H])[H])c5N([H])[H])C3([H])[H])C([H])([H])C4([H])[H])c([H])c([H])c2C1([H])[H]

$$$$
